data_POSCAR
  _audit_creation_date              2014-09-24
  _audit_creation_method            'ToBaCCo'
  _symmetry_space_group_name_H-M    'P1'
  _symmetry_Int_Tables_number       1
  _symmetry_cell_setting            triclinic
  loop_
  _symmetry_equiv_pos_as_xyz
 x,y,z
_cell_length_a 35.6284
_cell_length_b 35.7470
_cell_length_c 26.9218
_cell_angle_alpha 89.929500
_cell_angle_beta 89.988700
_cell_angle_gamma 88.948300
loop_
  _atom_site_label
  _atom_site_type_symbol
  _atom_site_fract_x
  _atom_site_fract_y
  _atom_site_fract_z
Zr1 Zr -0.06621 -0.00191 -0.00419
 O2 O -0.10416 -0.03653 -0.04240
 O3 O -0.10189 0.03229 0.03896
 O4 O -0.09408 -0.03758 0.04547
 O5 O -0.05724 0.05736 -0.10334
 O6 O -0.04710 -0.06469 0.09113
 O7 O -0.10013 0.02977 -0.05347
 O8 O -0.06105 0.06801 0.08295
 O9 O -0.03593 0.00243 0.06218
 O10 O -0.03860 0.04903 -0.00739
 O11 O -0.02959 -0.04869 -0.00320
 O12 O -0.03389 -0.00407 -0.06998
 Zr13 Zr 0.06481 0.00625 -0.00450
 Zr14 Zr 0.00252 -0.04249 0.06121
 Zr15 Zr -0.00463 0.04618 -0.07015
 Zr16 Zr -0.00693 0.05246 0.05711
 O17 O 0.00017 0.03880 -0.14789
 O18 O -0.00651 0.04575 0.13537
 O19 O 0.02804 0.05330 -0.00589
 O20 O 0.03186 0.00780 0.06057
 O21 O 0.03748 -0.04512 -0.00122
 O22 O 0.03387 0.00165 -0.07027
 C23 C -0.09431 0.05787 0.07079
 C24 C -0.09138 0.05084 -0.09039
 C25 C -0.08198 -0.05996 0.07963
 O26 O 0.00446 -0.03444 0.13898
 O27 O 0.05523 -0.06150 0.08656
 O28 O 0.09827 -0.02928 0.04147
 C29 C 0.08917 -0.05417 0.07395
 O30 O -0.04149 -0.07406 -0.09937
 Zr31 Zr 0.00546 -0.04851 -0.06560
 O32 O 0.10047 -0.02722 -0.04847
 O33 O 0.00479 -0.10169 0.05926
 O34 O 0.00882 -0.10663 -0.04985
 O35 O 0.00974 -0.04381 -0.14393
 O36 O 0.05982 -0.06788 -0.08434
 C37 C 0.09292 -0.05587 -0.07517
 O38 O 0.10378 0.03809 0.03606
 O39 O -0.01556 0.10455 -0.07002
 O40 O 0.09231 0.04598 -0.05014
 O41 O 0.04415 0.07346 -0.09346
 O42 O -0.01433 0.11066 0.04407
 O43 O 0.04012 0.08196 0.08411
 C44 C 0.07904 0.07048 -0.08123
 H45 H -0.05594 0.07087 -0.00984
 H46 H 0.04787 0.01015 0.09043
 H47 H 0.04990 0.00250 -0.10029
 H48 H -0.04371 -0.07228 -0.00273
 H49 H -0.01594 0.06952 0.15007
 H50 H 0.00549 -0.05968 0.15421
 H51 H 0.00662 -0.11046 0.09414
 H52 H 0.01735 -0.11955 -0.08050
 H53 H -0.02204 0.12238 0.07592
 H54 H -0.01550 0.11282 -0.10516
 H55 H -0.00236 0.06398 -0.16309
 H56 H 0.01936 -0.06817 -0.15663
 H57 H 0.03202 0.09882 0.11139
 H58 H 0.12917 0.03054 0.02418
 H59 H -0.12957 -0.03110 -0.02888
 H60 H -0.03268 -0.09455 -0.12145
 Zr61 Zr 0.56517 0.50620 0.49604
 O62 O 0.60412 0.53829 0.53630
 O63 O 0.60085 0.47236 0.45256
 O64 O 0.59841 0.47089 0.54276
 O65 O 0.54504 0.57288 0.40617
 O66 O 0.55506 0.43983 0.58866
 O67 O 0.59295 0.54539 0.44998
 O68 O 0.56013 0.43183 0.41658
 O69 O 0.53770 0.45494 0.49971
 O70 O 0.53435 0.50143 0.43019
 O71 O 0.53205 0.50837 0.56090
 O72 O 0.52857 0.55340 0.49397
 Zr73 Zr 0.43409 0.49855 0.49575
 Zr74 Zr 0.50256 0.45821 0.56193
 Zr75 Zr 0.49599 0.54610 0.42965
 Zr76 Zr 0.50580 0.45139 0.43518
 O77 O 0.48556 0.60455 0.42930
 O78 O 0.50903 0.39335 0.45147
 O79 O 0.46658 0.49593 0.43013
 O80 O 0.47061 0.45170 0.49741
 O81 O 0.46422 0.50321 0.56222
 O82 O 0.46186 0.54940 0.49224
 C83 C 0.59325 0.44373 0.42583
 C84 C 0.57990 0.56973 0.41856
 C85 C 0.58911 0.44670 0.57610
 O86 O 0.50512 0.39902 0.56045
 O87 O 0.45289 0.43614 0.59168
 O88 O 0.40611 0.46282 0.54527
 C89 C 0.41808 0.44064 0.57975
 O90 O 0.54045 0.58276 0.58348
 Zr91 Zr 0.49340 0.55311 0.55679
 O92 O 0.39845 0.53283 0.53884
 O93 O 0.50378 0.46670 0.63965
 O94 O 0.49383 0.54693 0.63513
 O95 O 0.48603 0.61123 0.54309
 O96 O 0.43930 0.56874 0.58252
 C97 C 0.40604 0.55850 0.57052
 O98 O 0.39597 0.46408 0.45763
 O99 O 0.50068 0.53819 0.35199
 O100 O 0.40035 0.53033 0.44625
 O101 O 0.44342 0.55781 0.39644
 O102 O 0.51017 0.45566 0.35681
 O103 O 0.45882 0.42573 0.40162
 C104 C 0.40923 0.55145 0.40941
 H105 H 0.55043 0.50203 0.40021
 H106 H 0.45648 0.42812 0.49802
 H107 H 0.44458 0.57128 0.48962
 H108 H 0.54795 0.51090 0.59082
 H109 H 0.51757 0.38025 0.42096
 H110 H 0.50659 0.39042 0.59543
 H111 H 0.50481 0.44156 0.65517
 H112 H 0.48443 0.57081 0.64956
 H113 H 0.51967 0.43119 0.34434
 H114 H 0.49845 0.56330 0.33654
 H115 H 0.48591 0.61269 0.39411
 H116 H 0.47824 0.62313 0.57478
 H117 H 0.46760 0.40513 0.37972
 H118 H 0.37057 0.46980 0.47099
 H119 H 0.62950 0.53076 0.52437
 H120 H 0.53234 0.59985 0.61051
 Zr121 Zr 0.56529 0.00010 0.49793
 O122 O 0.60527 0.03179 0.45864
 O123 O 0.59967 -0.03201 0.54568
 O124 O 0.59313 0.03915 0.54368
 O125 O 0.55654 -0.06645 0.40574
 O126 O 0.54494 0.06860 0.58454
 O127 O 0.59913 -0.03389 0.45118
 O128 O 0.55732 -0.06564 0.59019
 O129 O 0.53397 -0.00219 0.56390
 O130 O 0.53696 -0.05077 0.49719
 O131 O 0.52876 0.04712 0.49511
 O132 O 0.53381 -0.00009 0.43122
 Zr133 Zr 0.43412 -0.00596 0.49486
 Zr134 Zr 0.49597 0.04273 0.55937
 Zr135 Zr 0.50353 -0.04993 0.43358
 Zr136 Zr 0.50403 -0.05192 0.56062
 O137 O 0.50346 -0.04483 0.35529
 O138 O 0.50087 -0.04504 0.63875
 O139 O 0.46964 -0.05396 0.49718
 O140 O 0.46582 -0.00678 0.56085
 O141 O 0.46226 0.04490 0.49571
 O142 O 0.46610 -0.00450 0.42969
 C143 C 0.59094 -0.05557 0.57972
 C144 C 0.59037 -0.05821 0.41803
 C145 C 0.57994 0.06445 0.57341
 O146 O 0.49778 0.03285 0.63671
 O147 O 0.44361 0.06097 0.58611
 O148 O 0.40061 0.03129 0.53859
 C149 C 0.40961 0.05504 0.57257
 O150 O 0.54398 0.06792 0.39882
 Zr151 Zr 0.49518 0.04511 0.43170
 O152 O 0.39981 0.02636 0.44758
 O153 O 0.48913 0.10129 0.56503
 O154 O 0.49329 0.10416 0.43927
 O155 O 0.49169 0.03682 0.35385
 O156 O 0.44129 0.06505 0.41114
 C157 C 0.40756 0.05412 0.41947
 O158 O 0.39371 -0.03614 0.53531
 O159 O 0.50818 -0.10886 0.43963
 O160 O 0.40688 -0.04550 0.44966
 O161 O 0.45422 -0.07491 0.40710
 O162 O 0.51222 -0.11032 0.55025
 O163 O 0.45605 -0.08060 0.58651
 C164 C 0.41921 -0.06947 0.41748
 H165 H 0.55410 -0.07288 0.49719
 H166 H 0.44937 -0.00832 0.59041
 H167 H 0.45064 -0.00570 0.39920
 H168 H 0.54256 0.07087 0.49386
 H169 H 0.50986 -0.06873 0.65420
 H170 H 0.49551 0.05778 0.65261
 H171 H 0.47995 0.10994 0.53223
 H172 H 0.48605 0.11487 0.40659
 H173 H 0.51973 -0.12114 0.58275
 H174 H 0.51049 -0.11876 0.40537
 H175 H 0.50463 -0.07059 0.34176
 H176 H 0.48271 0.06075 0.33906
 H177 H 0.46353 -0.09850 0.61298
 H178 H 0.36887 -0.02965 0.52070
 H179 H 0.63051 0.02401 0.47089
 H180 H 0.53662 0.08527 0.37167
 Zr181 Zr -0.06632 0.49380 -0.00783
 O182 O -0.10690 0.46319 0.03175
 O183 O -0.10047 0.52807 -0.05311
 O184 O -0.10009 0.53079 0.03581
 O185 O -0.04608 0.42345 -0.09319
 O186 O -0.05725 0.56121 0.08271
 O187 O -0.09343 0.45496 -0.05437
 O188 O -0.05843 0.56324 -0.09370
 O189 O -0.03800 0.54450 -0.00725
 O190 O -0.03409 0.49468 -0.07274
 O191 O -0.03499 0.49319 0.05850
 O192 O -0.03095 0.44569 -0.00455
 Zr193 Zr 0.06467 0.49953 -0.00354
 Zr194 Zr -0.00476 0.54264 0.05685
 Zr195 Zr 0.00329 0.44920 -0.06784
 Zr196 Zr -0.00481 0.54416 -0.07102
 O197 O 0.00917 0.39038 -0.06146
 O198 O -0.00751 0.60323 -0.06401
 O199 O 0.03362 0.49889 -0.07049
 O200 O 0.02833 0.54661 -0.00715
 O201 O 0.03307 0.49770 0.06217
 O202 O 0.03639 0.44864 -0.00405
 C203 C -0.09258 0.55463 -0.08317
 C204 C -0.08143 0.42979 -0.08512
 C205 C -0.09120 0.55501 0.06922
 O206 O -0.01154 0.60124 0.06188
 O207 O 0.04420 0.56839 0.08240
 O208 O 0.09249 0.53836 0.04251
 C209 C 0.07929 0.56392 0.07184
 O210 O -0.04487 0.41945 0.08514
 Zr211 Zr 0.00318 0.44797 0.05914
 O212 O 0.09907 0.46798 0.04464
 O213 O -0.00358 0.53321 0.13431
 O214 O -0.00033 0.45524 0.13716
 O215 O 0.01137 0.38952 0.04932
 O216 O 0.05650 0.43456 0.08910
 C217 C 0.09019 0.44461 0.07884
 O218 O 0.10321 0.53145 -0.04499
 O219 O 0.00242 0.45295 -0.14626
 O220 O 0.09904 0.46494 -0.04862
 O221 O 0.05696 0.43450 -0.09593
 O222 O -0.00683 0.53477 -0.14874
 O223 O 0.04392 0.56751 -0.10340
 C224 C 0.09119 0.44171 -0.08337
 H225 H -0.04947 0.49340 -0.10329
 H226 H 0.04221 0.57031 -0.00841
 H227 H 0.05359 0.42658 -0.00387
 H228 H -0.05161 0.49182 0.08791
 H229 H -0.01455 0.61373 -0.09689
 H230 H -0.02023 0.60975 0.02879
 H231 H -0.00582 0.55824 0.14992
 H232 H 0.00874 0.43167 0.15287
 H233 H -0.01608 0.55830 -0.16438
 H234 H 0.00445 0.42701 -0.15905
 H235 H 0.01200 0.38051 -0.09565
 H236 H 0.01900 0.37891 0.08189
 H237 H 0.03654 0.58461 -0.13083
 H238 H 0.12848 0.52708 -0.03054
 H239 H -0.13168 0.46994 0.01721
 H240 H -0.03742 0.40156 0.11164
 Zr241 Zr 0.06217 0.50697 0.50230
 O242 O 0.10651 0.47978 0.54131
 O243 O 0.09126 0.54532 0.45839
 O244 O 0.09584 0.47307 0.45509
 O245 O 0.04320 0.57093 0.59479
 O246 O 0.05331 0.43881 0.41198
 O247 O 0.09056 0.54453 0.54901
 O248 O 0.04374 0.57564 0.41728
 O249 O 0.03117 0.50586 0.43592
 O250 O 0.02546 0.55350 0.50471
 O251 O 0.03384 0.45570 0.50318
 O252 O 0.03134 0.50071 0.56896
 Zr253 Zr -0.06848 0.49727 0.50490
 Zr254 Zr 0.00055 0.45635 0.43907
 Zr255 Zr -0.00642 0.54613 0.56862
 Zr256 Zr -0.00655 0.55106 0.44051
 O257 O -0.00238 0.53381 0.64521
 O258 O -0.00306 0.54358 0.36267
 O259 O -0.04033 0.54849 0.50448
 O260 O -0.03716 0.50205 0.43906
 O261 O -0.03314 0.44983 0.50199
 O262 O -0.03694 0.49709 0.57044
 C263 C 0.07855 0.57093 0.42904
 C264 C 0.07801 0.56789 0.58170
 C265 C 0.08709 0.44731 0.42389
 O266 O -0.00109 0.46328 0.36107
 O267 O -0.04851 0.43130 0.41245
 O268 O -0.09556 0.45903 0.45734
 C269 C -0.08333 0.43571 0.42425
 O270 O 0.05056 0.43514 0.60177
 Zr271 Zr -0.00031 0.45141 0.56585
 O272 O -0.09750 0.46072 0.55091
 O273 O 0.00627 0.39737 0.44293
 O274 O 0.00910 0.39358 0.55200
 O275 O -0.00791 0.45391 0.64392
 O276 O -0.05060 0.42310 0.58060
 C277 C -0.08560 0.43130 0.57351
 O278 O -0.11495 0.52236 0.46798
 O279 O -0.01495 0.60426 0.57745
 O280 O -0.10129 0.53461 0.54913
 O281 O -0.05845 0.56416 0.59659
 O282 O -0.01525 0.60936 0.44949
 O283 O -0.05554 0.57130 0.40380
 C284 C -0.09248 0.55796 0.58353
 H285 H 0.03765 0.57810 0.50611
 H286 H -0.05348 0.50200 0.40931
 H287 H -0.05265 0.49568 0.60071
 H288 H 0.05175 0.43422 0.50375
 H289 H -0.00017 0.56873 0.34773
 H290 H 0.00229 0.43800 0.34648
 H291 H 0.00673 0.38795 0.40830
 H292 H 0.00243 0.37986 0.58268
 H293 H -0.01128 0.62097 0.41648
 H294 H -0.02055 0.61414 0.54388
 H295 H -0.00652 0.55792 0.66266
 H296 H -0.01242 0.42806 0.65553
 H297 H -0.07504 0.57465 0.42968
 H298 H -0.13789 0.51051 0.48115
 H299 H 0.13036 0.49050 0.52929
 H300 H 0.04611 0.41343 0.62373
 Zr301 Zr 0.43155 -0.00279 0.00481
 O302 O 0.38511 0.02218 -0.03233
 O303 O 0.40248 -0.03932 0.05082
 O304 O 0.40458 -0.04109 -0.04272
 O305 O 0.44118 0.06405 0.09666
 O306 O 0.45172 -0.06874 -0.08753
 O307 O 0.39856 0.03461 0.04866
 O308 O 0.44931 -0.07711 0.08027
 O309 O 0.46692 -0.05020 0.00198
 O310 O 0.46287 -0.00302 0.07054
 O311 O 0.46307 0.00212 -0.06086
 O312 O 0.45970 0.04845 0.00460
 Zr313 Zr 0.56219 0.00698 0.00299
 Zr314 Zr 0.50076 -0.04359 -0.06077
 Zr315 Zr 0.49333 0.04605 0.06898
 Zr316 Zr 0.49956 -0.04866 0.06602
 O317 O 0.48476 0.10418 0.07769
 O318 O 0.50915 -0.10648 0.05228
 O319 O 0.53114 0.00066 0.06945
 O320 O 0.53386 -0.04429 0.00353
 O321 O 0.53144 0.00593 -0.06361
 O322 O 0.52548 0.05350 0.00529
 C323 C 0.41433 -0.06884 0.07327
 C324 C 0.40722 0.05791 0.08317
 C325 C 0.41686 -0.06439 -0.07580
 O326 O 0.50661 -0.10256 -0.05704
 O327 O 0.55365 -0.06090 -0.08770
 O328 O 0.59604 -0.02697 -0.04391
 C329 C 0.58740 -0.05257 -0.07540
 O330 O 0.44493 0.07146 -0.09619
 Zr331 Zr 0.49373 0.05114 -0.05915
 O332 O 0.59149 0.04538 -0.04063
 O333 O 0.49918 -0.03661 -0.13877
 O334 O 0.49761 0.04363 -0.13695
 O335 O 0.48493 0.10943 -0.05021
 O336 O 0.54415 0.07587 -0.08187
 C337 C 0.57892 0.07111 -0.06989
 O338 O 0.60641 -0.02024 0.04223
 O339 O 0.49703 0.03372 0.14560
 O340 O 0.59038 0.04445 0.05004
 O341 O 0.54286 0.07073 0.09564
 O342 O 0.49162 -0.04624 0.14404
 O343 O 0.55037 -0.06486 0.10215
 C344 C 0.57772 0.06771 0.08278
 H345 H 0.44706 -0.00444 0.10071
 H346 H 0.55175 -0.06578 0.00414
 H347 H 0.53766 0.07810 0.00687
 H348 H 0.44681 0.00208 -0.09068
 H349 H 0.50244 -0.12020 0.08295
 H350 H 0.50712 -0.11192 -0.09169
 H351 H 0.50268 -0.06187 -0.15337
 H352 H 0.50059 0.06878 -0.15186
 H353 H 0.48711 -0.07210 0.15557
 H354 H 0.49283 0.05784 0.16303
 H355 H 0.47930 0.11405 0.04407
 H356 H 0.48923 0.12108 -0.08312
 H357 H 0.54585 -0.08647 0.12427
 H358 H 0.63030 -0.00947 0.03042
 H359 H 0.36215 0.01038 -0.01914
 H360 H 0.42523 0.07448 -0.07051
 Zr361 Zr 0.43133 0.49220 0.00185
 O362 O 0.38552 0.52134 0.03500
 O363 O 0.40276 0.45377 -0.04214
 O364 O 0.39908 0.52577 -0.04761
 O365 O 0.44833 0.43249 0.10135
 O366 O 0.44302 0.55534 -0.09387
 O367 O 0.40221 0.45833 0.05282
 O368 O 0.44978 0.42221 -0.08292
 O369 O 0.46343 0.49077 -0.06352
 O370 O 0.46674 0.44503 0.00710
 O371 O 0.46043 0.54282 0.00130
 O372 O 0.46120 0.49816 0.06915
 Zr373 Zr 0.56206 0.50127 0.00708
 Zr374 Zr 0.49456 0.53975 -0.06202
 Zr375 Zr 0.49882 0.45240 0.07091
 Zr376 Zr 0.50028 0.44501 -0.05606
 O377 O 0.49905 0.46077 0.14869
 O378 O 0.50105 0.44990 -0.13454
 O379 O 0.53371 0.44979 0.00796
 O380 O 0.53179 0.49407 -0.05935
 O381 O 0.52609 0.54818 0.00220
 O382 O 0.52946 0.50163 0.07189
 C383 C 0.41496 0.42858 -0.07238
 C384 C 0.41360 0.43724 0.08891
 C385 C 0.40882 0.54889 -0.08183
 O386 O 0.50112 0.52811 -0.13849
 O387 O 0.54373 0.56741 -0.08320
 O388 O 0.59095 0.53994 -0.03831
 C389 C 0.57836 0.56448 -0.06965
 O390 O 0.43960 0.56299 0.09612
 Zr391 Zr 0.49262 0.54704 0.06576
 O392 O 0.59029 0.54117 0.04952
 O393 O 0.48526 0.59771 -0.07215
 O394 O 0.48230 0.60524 0.05724
 O395 O 0.49857 0.54216 0.14392
 O396 O 0.54204 0.57543 0.08304
 C397 C 0.57707 0.56958 0.07350
 O398 O 0.60726 0.47457 -0.03070
 O399 O 0.50139 0.39320 0.06995
 O400 O 0.59458 0.46610 0.05446
 O401 O 0.55102 0.43307 0.09741
 O402 O 0.50269 0.38680 -0.04076
 O403 O 0.55217 0.42158 -0.08114
 C404 C 0.58512 0.44101 0.08645
 H405 H 0.45299 0.42130 0.00949
 H406 H 0.54895 0.49355 -0.08830
 H407 H 0.54510 0.50342 0.10217
 H408 H 0.44290 0.56459 -0.00000
 H409 H 0.49597 0.42485 -0.14846
 H410 H 0.49874 0.55255 -0.15570
 H411 H 0.48337 0.60851 -0.03842
 H412 H 0.48650 0.61698 0.09006
 H413 H 0.49711 0.37353 -0.07214
 H414 H 0.50068 0.38477 0.10502
 H415 H 0.50132 0.43566 0.16416
 H416 H 0.50280 0.56767 0.15688
 H417 H 0.54740 0.40281 -0.10731
 H418 H 0.63073 0.48562 -0.01802
 H419 H 0.36215 0.50952 0.02318
 H420 H 0.44322 0.57880 0.12585
 Zr421 Zr 0.06231 0.00152 0.50695
 O422 O 0.10770 -0.02507 0.46944
 O423 O 0.09035 0.04160 0.54914
 O424 O 0.09098 0.04015 0.46123
 O425 O 0.05150 -0.06627 0.59785
 O426 O 0.04363 0.06718 0.41612
 O427 O 0.09494 -0.03337 0.55451
 O428 O 0.04198 0.07597 0.58215
 O429 O 0.02613 0.04824 0.50150
 O430 O 0.02966 0.00212 0.57172
 O431 O 0.03220 -0.00622 0.44054
 O432 O 0.03424 -0.05009 0.50842
 Zr433 Zr -0.06834 -0.00819 0.50161
 Zr434 Zr -0.00531 0.03923 0.43733
 Zr435 Zr -0.00077 -0.04725 0.57124
 Zr436 Zr -0.00737 0.04735 0.56504
 O437 O 0.00200 -0.10645 0.57099
 O438 O -0.01781 0.10547 0.55592
 O439 O -0.03859 -0.00165 0.56891
 O440 O -0.03949 0.04257 0.50057
 O441 O -0.03613 -0.00993 0.43635
 O442 O -0.03267 -0.05515 0.50742
 C443 C 0.07704 0.07011 0.57280
 C444 C 0.08557 -0.05836 0.58667
 C445 C 0.07825 0.06448 0.42971
 O446 O -0.01555 0.09702 0.42667
 O447 O -0.05679 0.05360 0.40447
 O448 O -0.10060 0.02537 0.45211
 C449 C -0.09102 0.04768 0.41688
 O450 O 0.05311 -0.07876 0.41994
 Zr451 Zr 0.00101 -0.05541 0.44438
 O452 O -0.09652 -0.04701 0.45773
 O453 O 0.00192 0.02739 0.36101
 O454 O 0.00199 -0.05094 0.36586
 O455 O 0.00359 -0.11354 0.46020
 O456 O -0.04920 -0.07857 0.41752
 C457 C -0.08405 -0.07229 0.42779
 O458 O -0.11450 0.02066 0.53434
 O459 O -0.00062 -0.03837 0.64892
 O460 O -0.09736 -0.04200 0.55279
 O461 O -0.05121 -0.06726 0.60177
 O462 O -0.00156 0.04293 0.64326
 O463 O -0.06050 0.06336 0.59500
 C464 C -0.08594 -0.06281 0.58915
 H465 H 0.04526 0.00413 0.60200
 H466 H -0.05710 0.06426 0.49895
 H467 H -0.04631 -0.07893 0.51001
 H468 H 0.04942 -0.00682 0.41165
 H469 H -0.01369 0.11740 0.58864
 H470 H -0.01685 0.10808 0.46028
 H471 H -0.00079 0.05171 0.34357
 H472 H -0.00286 -0.07611 0.35215
 H473 H 0.00260 0.06852 0.65596
 H474 H 0.00176 -0.06337 0.66467
 H475 H 0.00136 -0.11465 0.60616
 H476 H -0.00170 -0.12699 0.42887
 H477 H -0.05697 0.07929 0.62464
 H478 H -0.13774 0.00861 0.52247
 H479 H 0.13109 -0.01381 0.48205
 H480 H 0.04854 -0.09760 0.39380
 Zr481 Zr 0.74794 0.18253 0.25309
 O482 O 0.71643 0.14283 0.29311
 O483 O 0.78019 0.14798 0.20560
 O484 O 0.70865 0.15413 0.20843
 O485 O 0.81500 0.19211 0.34495
 O486 O 0.67872 0.20156 0.16677
 O487 O 0.78182 0.14938 0.30063
 O488 O 0.81372 0.18993 0.16040
 O489 O 0.75002 0.21309 0.18656
 O490 O 0.79894 0.21086 0.25333
 O491 O 0.70062 0.21878 0.25547
 O492 O 0.74820 0.21452 0.31926
 Zr493 Zr 0.75376 0.31303 0.25381
 Zr494 Zr 0.70477 0.25077 0.19053
 Zr495 Zr 0.79819 0.24477 0.31641
 Zr496 Zr 0.79987 0.24311 0.18930
 O497 O 0.79323 0.24538 0.39471
 O498 O 0.79310 0.24575 0.11111
 O499 O 0.80206 0.27789 0.25215
 O500 O 0.75440 0.28092 0.18835
 O501 O 0.70273 0.28499 0.25361
 O502 O 0.75242 0.28190 0.31962
 C503 C 0.80372 0.15649 0.17129
 C504 C 0.80634 0.15833 0.33346
 C505 C 0.68300 0.16682 0.17878
 O506 O 0.71477 0.24826 0.11327
 O507 O 0.68578 0.30267 0.16339
 O508 O 0.71694 0.34584 0.20894
 C509 C 0.69251 0.33660 0.17596
 O510 O 0.68016 0.20438 0.35209
 Zr511 Zr 0.70268 0.25285 0.31826
 O512 O 0.72125 0.34778 0.30017
 O513 O 0.64603 0.25746 0.18437
 O514 O 0.64343 0.25451 0.31069
 O515 O 0.71105 0.25709 0.39603
 O516 O 0.68255 0.30672 0.33797
 C517 C 0.69346 0.34019 0.32853
 O518 O 0.78435 0.35299 0.21318
 O519 O 0.85731 0.24039 0.31035
 O520 O 0.79289 0.34101 0.29854
 O521 O 0.82279 0.29454 0.34213
 O522 O 0.85849 0.23501 0.19960
 O523 O 0.82833 0.29099 0.16295
 C524 C 0.81687 0.32931 0.33114
 H525 H 0.82111 0.19379 0.25355
 H526 H 0.75583 0.29705 0.15850
 H527 H 0.75354 0.29762 0.34980
 H528 H 0.67685 0.20497 0.25716
 H529 H 0.81701 0.23698 0.09588
 H530 H 0.68975 0.25021 0.09731
 H531 H 0.63717 0.26600 0.21735
 H532 H 0.63270 0.26194 0.34327
 H533 H 0.86932 0.22760 0.16708
 H534 H 0.86727 0.23854 0.34465
 H535 H 0.81912 0.24454 0.40816
 H536 H 0.68696 0.26590 0.41068
 H537 H 0.84649 0.28349 0.13678
 H538 H 0.77688 0.37797 0.22626
 H539 H 0.72433 0.11757 0.28139
 H540 H 0.66254 0.21189 0.37888
 Zr541 Zr 0.74914 0.81655 0.75956
 O542 O 0.78241 0.85503 0.79886
 O543 O 0.71513 0.85207 0.71569
 O544 O 0.78567 0.84563 0.71214
 O545 O 0.68720 0.80498 0.85616
 O546 O 0.81505 0.79970 0.66721
 O547 O 0.71616 0.84891 0.80913
 O548 O 0.68105 0.81135 0.66938
 O549 O 0.74679 0.78716 0.69240
 O550 O 0.69841 0.78819 0.76015
 O551 O 0.79664 0.78079 0.75976
 O552 O 0.75023 0.78342 0.82466
 Zr553 Zr 0.74303 0.68586 0.75660
 Zr554 Zr 0.79247 0.74951 0.69440
 Zr555 Zr 0.70035 0.75331 0.82218
 Zr556 Zr 0.69693 0.75746 0.69484
 O557 O 0.70602 0.74769 0.90009
 O558 O 0.70534 0.75813 0.61687
 O559 O 0.69520 0.72164 0.75687
 O560 O 0.74241 0.71963 0.69234
 O561 O 0.79423 0.71385 0.75610
 O562 O 0.74571 0.71574 0.82327
 C563 C 0.69035 0.84450 0.68263
 C564 C 0.69402 0.83922 0.84457
 C565 C 0.80938 0.83426 0.67910
 O566 O 0.78628 0.74910 0.61627
 O567 O 0.81257 0.69756 0.66802
 O568 O 0.77841 0.65381 0.70921
 C569 C 0.80401 0.66356 0.67812
 O570 O 0.81907 0.79210 0.85724
 Zr571 Zr 0.79556 0.74508 0.82131
 O572 O 0.77728 0.65041 0.80021
 O573 O 0.85179 0.74751 0.69906
 O574 O 0.85429 0.74328 0.80831
 O575 O 0.78913 0.73943 0.89927
 O576 O 0.81594 0.69122 0.83944
 C577 C 0.80520 0.65811 0.82847
 O578 O 0.71205 0.64685 0.71489
 O579 O 0.64166 0.76309 0.81942
 O580 O 0.70305 0.65693 0.80010
 O581 O 0.67348 0.70370 0.84330
 O582 O 0.63819 0.76384 0.70565
 O583 O 0.66878 0.71040 0.66567
 C584 C 0.67752 0.66911 0.83045
 H585 H 0.67622 0.80518 0.76210
 H586 H 0.74083 0.70417 0.66194
 H587 H 0.74458 0.69924 0.85278
 H588 H 0.82008 0.79522 0.76068
 H589 H 0.68163 0.76721 0.60139
 H590 H 0.81196 0.74869 0.60213
 H591 H 0.86148 0.74650 0.66456
 H592 H 0.86667 0.73488 0.83947
 H593 H 0.62701 0.77159 0.67344
 H594 H 0.63247 0.76229 0.85414
 H595 H 0.68035 0.74929 0.91421
 H596 H 0.81354 0.73044 0.91279
 H597 H 0.65226 0.71854 0.63798
 H598 H 0.72021 0.62146 0.72587
 H599 H 0.77544 0.88043 0.78667
 H600 H 0.83924 0.78356 0.88012
 Zr601 Zr 0.25446 0.31727 0.74589
 O602 O 0.22702 0.36306 0.71045
 O603 O 0.29133 0.34470 0.79328
 O604 O 0.22078 0.34974 0.79467
 O605 O 0.31993 0.30029 0.65328
 O606 O 0.18396 0.30677 0.83297
 O607 O 0.29179 0.34624 0.69970
 O608 O 0.31788 0.29673 0.83792
 O609 O 0.25076 0.28458 0.81029
 O610 O 0.30119 0.28103 0.74514
 O611 O 0.20305 0.28985 0.74019
 O612 O 0.25183 0.28816 0.67773
 Zr613 Zr 0.24303 0.18741 0.73736
 Zr614 Zr 0.20088 0.25509 0.80271
 Zr615 Zr 0.29705 0.24991 0.68011
 Zr616 Zr 0.29631 0.24715 0.80741
 O617 O 0.29305 0.25082 0.60172
 O618 O 0.28543 0.24547 0.88481
 O619 O 0.29514 0.21451 0.74250
 O620 O 0.24635 0.21726 0.80451
 O621 O 0.19629 0.22379 0.73767
 O622 O 0.24714 0.22056 0.67343
 C623 C 0.31324 0.33163 0.82715
 C624 C 0.31473 0.33487 0.66571
 C625 C 0.19422 0.34045 0.82446
 O626 O 0.20400 0.25010 0.88090
 O627 O 0.17385 0.20568 0.82407
 O628 O 0.20275 0.15869 0.78052
 C629 C 0.17765 0.17107 0.81129
 O630 O 0.19067 0.31086 0.64164
 Zr631 Zr 0.20193 0.25797 0.67525
 O632 O 0.20423 0.16074 0.69150
 O633 O 0.14239 0.26446 0.79484
 O634 O 0.14374 0.27000 0.68207
 O635 O 0.20927 0.25225 0.59739
 O636 O 0.17371 0.20944 0.65341
 C637 C 0.17793 0.17444 0.66385
 O638 O 0.26778 0.14159 0.77597
 O639 O 0.35616 0.24590 0.68721
 O640 O 0.27926 0.15479 0.69149
 O641 O 0.31689 0.19776 0.65455
 O642 O 0.35556 0.24407 0.80018
 O643 O 0.31735 0.19470 0.83355
 C644 C 0.30672 0.16395 0.66282
 H645 H 0.32539 0.29418 0.74571
 H646 H 0.24492 0.20024 0.83346
 H647 H 0.24667 0.20545 0.64264
 H648 H 0.18187 0.30815 0.73945
 H649 H 0.30945 0.25009 0.90212
 H650 H 0.17800 0.25302 0.89359
 H651 H 0.13136 0.26312 0.82860
 H652 H 0.13266 0.26716 0.64856
 H653 H 0.36643 0.24866 0.83347
 H654 H 0.36666 0.24696 0.65316
 H655 H 0.31902 0.24830 0.58881
 H656 H 0.18397 0.25008 0.58250
 H657 H 0.33342 0.19867 0.86301
 H658 H 0.25697 0.11846 0.76203
 H659 H 0.23845 0.38625 0.72327
 H660 H 0.17190 0.30825 0.61482
 Zr661 Zr 0.24065 0.68322 0.24981
 O662 O 0.26579 0.63737 0.21179
 O663 O 0.20258 0.65659 0.29704
 O664 O 0.27493 0.64985 0.29715
 O665 O 0.17515 0.70198 0.15859
 O666 O 0.31293 0.69197 0.33507
 O667 O 0.20145 0.65499 0.20508
 O668 O 0.17466 0.70541 0.33818
 O669 O 0.24501 0.71555 0.31454
 O670 O 0.19487 0.72083 0.24869
 O671 O 0.29275 0.70997 0.24471
 O672 O 0.24499 0.71270 0.18194
 Zr673 Zr 0.25383 0.81292 0.24204
 Zr674 Zr 0.29546 0.74450 0.30744
 Zr675 Zr 0.20028 0.75159 0.18363
 Zr676 Zr 0.20032 0.75405 0.31142
 O677 O 0.20423 0.74804 0.10536
 O678 O 0.21212 0.75110 0.38851
 O679 O 0.20171 0.78642 0.24628
 O680 O 0.25046 0.78300 0.30922
 O681 O 0.30070 0.77662 0.24284
 O682 O 0.25048 0.78004 0.17799
 C683 C 0.17822 0.67040 0.32748
 C684 C 0.17801 0.66741 0.17223
 C685 C 0.30242 0.65841 0.32593
 O686 O 0.29204 0.74668 0.38582
 O687 O 0.32146 0.79368 0.33214
 O688 O 0.29354 0.84049 0.28689
 C689 C 0.31688 0.82841 0.32019
 O690 O 0.31170 0.69043 0.14813
 Zr691 Zr 0.29547 0.74249 0.18047
 O692 O 0.29064 0.83983 0.19435
 O693 O 0.35430 0.73799 0.29944
 O694 O 0.35406 0.73490 0.19151
 O695 O 0.28765 0.74498 0.10241
 O696 O 0.32186 0.79148 0.15599
 C697 C 0.31564 0.82638 0.16484
 O698 O 0.22855 0.85934 0.27850
 O699 O 0.14183 0.76119 0.19086
 O700 O 0.21757 0.84624 0.19699
 O701 O 0.18368 0.80376 0.15426
 O702 O 0.14158 0.76351 0.30842
 O703 O 0.18238 0.80759 0.33762
 C704 C 0.19241 0.83762 0.16475
 H705 H 0.16998 0.70901 0.24889
 H706 H 0.25174 0.79967 0.33848
 H707 H 0.25118 0.79477 0.14688
 H708 H 0.31384 0.69159 0.24355
 H709 H 0.18780 0.74833 0.40588
 H710 H 0.31800 0.74350 0.39854
 H711 H 0.36513 0.73797 0.33335
 H712 H 0.36664 0.74005 0.15946
 H713 H 0.13200 0.76123 0.34286
 H714 H 0.13119 0.76021 0.15689
 H715 H 0.17843 0.75166 0.09220
 H716 H 0.31255 0.74916 0.08716
 H717 H 0.17420 0.80559 0.37264
 H718 H 0.24063 0.88217 0.26548
 H719 H 0.25470 0.61422 0.22536
 H720 H 0.33236 0.69434 0.12417
 Zr721 Zr 0.25382 0.81332 0.75365
 O722 O 0.28470 0.85328 0.71343
 O723 O 0.22114 0.84811 0.79975
 O724 O 0.21731 0.84625 0.70854
 O725 O 0.32221 0.79447 0.84274
 O726 O 0.18666 0.80324 0.66212
 O727 O 0.29282 0.84108 0.79883
 O728 O 0.18184 0.80713 0.83662
 O729 O 0.20271 0.78540 0.75243
 O730 O 0.25167 0.78214 0.81937
 O731 O 0.25505 0.78129 0.68812
 O732 O 0.30201 0.77803 0.75284
 Zr733 Zr 0.24769 0.68281 0.75244
 Zr734 Zr 0.20533 0.75124 0.68930
 Zr735 Zr 0.29729 0.74486 0.81693
 Zr736 Zr 0.20188 0.75320 0.81698
 O737 O 0.35642 0.73957 0.81212
 O738 O 0.14273 0.75521 0.80821
 O739 O 0.24724 0.71472 0.81871
 O740 O 0.20045 0.71919 0.75408
 O741 O 0.25053 0.71347 0.68606
 O742 O 0.29874 0.71103 0.75379
 C743 C 0.19306 0.84056 0.82762
 C744 C 0.31659 0.82926 0.83162
 C745 C 0.19317 0.83711 0.67516
 O746 O 0.14670 0.75812 0.68184
 O747 O 0.17926 0.70217 0.66504
 O748 O 0.20880 0.65461 0.70691
 C749 C 0.18336 0.66740 0.67702
 O750 O 0.32931 0.79122 0.66428
 Zr751 Zr 0.30042 0.74337 0.68985
 O752 O 0.28024 0.64828 0.70530
 O753 O 0.21625 0.74879 0.61226
 O754 O 0.29458 0.74621 0.61154
 O755 O 0.35890 0.73503 0.70125
 O756 O 0.31437 0.69023 0.66094
 C757 C 0.30412 0.65680 0.67145
 O758 O 0.21550 0.64331 0.79177
 O759 O 0.29173 0.74611 0.89516
 O760 O 0.28134 0.64932 0.79999
 O761 O 0.31256 0.69212 0.84652
 O762 O 0.20956 0.75714 0.89491
 O763 O 0.17862 0.70486 0.85023
 C764 C 0.30478 0.65824 0.83423
 H765 H 0.25262 0.79783 0.84960
 H766 H 0.17662 0.70545 0.75531
 H767 H 0.32086 0.69388 0.75449
 H768 H 0.25681 0.79747 0.65835
 H769 H 0.13166 0.76269 0.84057
 H770 H 0.13743 0.76644 0.71473
 H771 H 0.19144 0.75086 0.59579
 H772 H 0.31863 0.73739 0.59675
 H773 H 0.18541 0.76613 0.90922
 H774 H 0.31749 0.74480 0.90901
 H775 H 0.36594 0.73788 0.84664
 H776 H 0.37006 0.72765 0.66891
 H777 H 0.16078 0.71247 0.87673
 H778 H 0.22310 0.61806 0.77967
 H779 H 0.27719 0.87826 0.72651
 H780 H 0.34778 0.78372 0.63849
 Zr781 Zr 0.24175 0.18584 0.25440
 O782 O 0.21046 0.14726 0.21241
 O783 O 0.27567 0.15000 0.29778
 O784 O 0.27714 0.15375 0.20702
 O785 O 0.17268 0.20369 0.34178
 O786 O 0.31115 0.19753 0.16568
 O787 O 0.20184 0.15695 0.29801
 O788 O 0.31484 0.19041 0.33686
 O789 O 0.29309 0.21357 0.25385
 O790 O 0.24475 0.21548 0.32124
 O791 O 0.24115 0.21981 0.19034
 O792 O 0.19408 0.22182 0.25517
 Zr793 Zr 0.24847 0.31642 0.25821
 Zr794 Zr 0.29134 0.24947 0.19240
 Zr795 Zr 0.19956 0.25327 0.32064
 Zr796 Zr 0.29476 0.24452 0.31926
 O797 O 0.14088 0.26317 0.31817
 O798 O 0.35344 0.24245 0.30590
 O799 O 0.24961 0.28308 0.32310
 O800 O 0.29582 0.28046 0.25795
 O801 O 0.24582 0.28731 0.19086
 O802 O 0.19761 0.28831 0.25881
 C803 C 0.30373 0.15742 0.32588
 C804 C 0.17656 0.16913 0.32873
 C805 C 0.30270 0.16351 0.17586
 O806 O 0.35067 0.24722 0.19668
 O807 O 0.31408 0.29970 0.16552
 O808 O 0.28496 0.34555 0.21087
 C809 C 0.30857 0.33422 0.17771
 O810 O 0.16736 0.21097 0.16409
 Zr811 Zr 0.19584 0.25781 0.19331
 O812 O 0.21459 0.35227 0.21466
 O813 O 0.28492 0.24939 0.11430
 O814 O 0.20404 0.25867 0.11530
 O815 O 0.13714 0.26450 0.20430
 O816 O 0.18022 0.31186 0.16822
 C817 C 0.18972 0.34492 0.18162
 O818 O 0.28205 0.35441 0.29790
 O819 O 0.20542 0.24750 0.39851
 O820 O 0.21566 0.34885 0.30784
 O821 O 0.18667 0.30496 0.35484
 O822 O 0.28856 0.23858 0.39722
 O823 O 0.31868 0.29121 0.35544
 C824 C 0.19358 0.33921 0.34335
 H825 H 0.24363 0.19891 0.35069
 H826 H 0.31933 0.29478 0.25887
 H827 H 0.17550 0.30538 0.26092
 H828 H 0.23944 0.20445 0.15987
 H829 H 0.36586 0.23377 0.33689
 H830 H 0.36023 0.24629 0.16212
 H831 H 0.31057 0.24892 0.10004
 H832 H 0.18033 0.26792 0.09999
 H833 H 0.31296 0.22933 0.41051
 H834 H 0.17980 0.24919 0.41275
 H835 H 0.13179 0.26244 0.35294
 H836 H 0.12596 0.27238 0.17216
 H837 H 0.33889 0.28245 0.37811
 H838 H 0.27554 0.37990 0.28565
 H839 H 0.21847 0.12179 0.22320
 H840 H 0.15085 0.21925 0.13645
 Zr841 Zr 0.74432 0.68623 0.23690
 O842 O 0.77002 0.64002 0.27359
 O843 O 0.70466 0.65993 0.19196
 O844 O 0.70478 0.65696 0.28064
 O845 O 0.81561 0.69794 0.15072
 O846 O 0.67717 0.70339 0.32658
 O847 O 0.77946 0.65432 0.18890
 O848 O 0.67275 0.70896 0.15670
 O849 O 0.69760 0.72246 0.24068
 O850 O 0.74636 0.72027 0.17359
 O851 O 0.74981 0.71505 0.30454
 O852 O 0.79646 0.71348 0.23984
 Zr853 Zr 0.75541 0.81607 0.24757
 Zr854 Zr 0.70437 0.75282 0.30618
 Zr855 Zr 0.79632 0.74974 0.17826
 Zr856 Zr 0.70106 0.75741 0.17874
 O857 O 0.85561 0.74579 0.18211
 O858 O 0.64302 0.76850 0.18927
 O859 O 0.75088 0.78781 0.17901
 O860 O 0.70404 0.78839 0.24435
 O861 O 0.75418 0.78251 0.31142
 O862 O 0.80227 0.78005 0.24370
 C863 C 0.67760 0.67380 0.16576
 C864 C 0.80602 0.66397 0.15912
 C865 C 0.68029 0.66906 0.31243
 O866 O 0.64593 0.76399 0.30255
 O867 O 0.69123 0.80354 0.34171
 O868 O 0.72137 0.84775 0.29701
 C869 C 0.69837 0.83781 0.33130
 O870 O 0.82214 0.69263 0.32871
 Zr871 Zr 0.79963 0.74525 0.30534
 O872 O 0.79282 0.84299 0.29466
 O873 O 0.70947 0.74455 0.38376
 O874 O 0.79108 0.74200 0.38315
 O875 O 0.85863 0.74305 0.29485
 O876 O 0.82138 0.79457 0.33631
 C877 C 0.81578 0.82960 0.32706
 O878 O 0.72772 0.86248 0.21392
 O879 O 0.78989 0.75177 0.10020
 O880 O 0.79185 0.84570 0.20067
 O881 O 0.81858 0.80044 0.15174
 O882 O 0.70594 0.75315 0.10039
 O883 O 0.68829 0.81083 0.14756
 C884 C 0.81401 0.83480 0.16551
 H885 H 0.74508 0.70560 0.14248
 H886 H 0.68271 0.80651 0.24540
 H887 H 0.82640 0.79334 0.24352
 H888 H 0.74926 0.69752 0.33302
 H889 H 0.63097 0.76668 0.15622
 H890 H 0.63604 0.76119 0.33673
 H891 H 0.68402 0.74806 0.39807
 H892 H 0.81552 0.74665 0.39937
 H893 H 0.68019 0.75118 0.08683
 H894 H 0.81543 0.74939 0.08585
 H895 H 0.86507 0.74717 0.14754
 H896 H 0.87045 0.74733 0.32763
 H897 H 0.66873 0.80854 0.12169
 H898 H 0.73929 0.88546 0.22720
 H899 H 0.75886 0.61706 0.25969
 H900 H 0.83904 0.69631 0.35742
 Zr901 Zr 0.75499 0.31345 0.74401
 O902 O 0.73147 0.35968 0.78290
 O903 O 0.79123 0.34024 0.69545
 O904 O 0.79581 0.34024 0.78772
 O905 O 0.68296 0.30538 0.65888
 O906 O 0.82518 0.29283 0.83045
 O907 O 0.71815 0.34748 0.70058
 O908 O 0.82131 0.29178 0.65578
 O909 O 0.80147 0.27665 0.74292
 O910 O 0.75010 0.28093 0.67984
 O911 O 0.75260 0.28309 0.81088
 O912 O 0.70269 0.28752 0.74973
 Zr913 Zr 0.74068 0.18386 0.75110
 Zr914 Zr 0.79720 0.24424 0.80735
 Zr915 Zr 0.69974 0.25291 0.68691
 Zr916 Zr 0.79477 0.24293 0.68047
 O917 O 0.64144 0.26232 0.69651
 O918 O 0.85346 0.23459 0.68961
 O919 O 0.74405 0.21366 0.68340
 O920 O 0.79296 0.21005 0.74451
 O921 O 0.74652 0.21582 0.81595
 O922 O 0.69509 0.22171 0.75173
 C923 C 0.81567 0.32668 0.66521
 C924 C 0.69218 0.33911 0.66927
 C925 C 0.82022 0.32764 0.81928
 O926 O 0.85578 0.23632 0.79787
 O927 O 0.81419 0.19145 0.83450
 O928 O 0.77495 0.14997 0.79760
 C929 C 0.80292 0.15811 0.82572
 O930 O 0.68184 0.30669 0.84312
 Zr931 Zr 0.70204 0.25466 0.81445
 O932 O 0.70306 0.15715 0.79880
 O933 O 0.79482 0.24690 0.88578
 O934 O 0.71343 0.25161 0.89152
 O935 O 0.64341 0.26480 0.81162
 O936 O 0.67669 0.20591 0.84172
 C937 C 0.67950 0.17096 0.83028
 O938 O 0.76509 0.13803 0.71222
 O939 O 0.70189 0.25035 0.60844
 O940 O 0.70089 0.15618 0.70679
 O941 O 0.67429 0.20359 0.66140
 O942 O 0.78550 0.24605 0.60273
 O943 O 0.80982 0.19094 0.64702
 C944 C 0.67727 0.16887 0.67437
 H945 H 0.75034 0.29585 0.64887
 H946 H 0.81380 0.19142 0.74264
 H947 H 0.67015 0.21000 0.75241
 H948 H 0.75510 0.29947 0.84019
 H949 H 0.86553 0.23982 0.65722
 H950 H 0.86714 0.23614 0.83148
 H951 H 0.82088 0.24314 0.89789
 H952 H 0.68880 0.25363 0.90851
 H953 H 0.81014 0.25013 0.58672
 H954 H 0.67581 0.25407 0.59634
 H955 H 0.63019 0.26244 0.66285
 H956 H 0.63360 0.26140 0.84580
 H957 H 0.83005 0.19481 0.62242
 H958 H 0.75397 0.11490 0.72577
 H959 H 0.74343 0.38256 0.76985
 H960 H 0.69953 0.31571 0.86857
 C961 C 0.15937 0.42356 0.90403
 C962 C 0.11952 0.42208 0.89278
 C963 C 0.10846 0.39628 0.85588
 C964 C 0.13338 0.37113 0.83435
 C965 C 0.17106 0.37027 0.84743
 C966 C 0.18471 0.39663 0.88165
 C967 C 0.17555 0.45026 0.93634
 C968 C 0.21371 0.44918 0.94801
 C969 C 0.23729 0.42198 0.92772
 C970 C 0.22311 0.39606 0.89463
 H971 H 0.16029 0.47316 0.95254
 H972 H 0.22512 0.46986 0.97290
 H973 H 0.26684 0.42126 0.93716
 H974 H 0.24255 0.37555 0.87928
 H975 H 0.07957 0.39419 0.84375
 H976 H 0.12279 0.35144 0.80735
 C977 C 0.33955 0.56769 0.38784
 C978 C 0.37902 0.57338 0.38262
 C979 C 0.39069 0.60491 0.35587
 C980 C 0.36521 0.63133 0.33790
 C981 C 0.32671 0.62796 0.34603
 C982 C 0.31344 0.59605 0.37127
 C983 C 0.32505 0.53470 0.40861
 C984 C 0.28672 0.53135 0.41778
 C985 C 0.26194 0.56046 0.40575
 C986 C 0.27498 0.59237 0.38211
 H987 H 0.34268 0.51071 0.41637
 H988 H 0.27620 0.50601 0.43437
 H989 H 0.23238 0.55809 0.41418
 H990 H 0.25487 0.61434 0.37314
 H991 H 0.42016 0.61038 0.35011
 H992 H 0.37593 0.65522 0.31793
 C993 C 0.84785 0.92541 0.62359
 C994 C 0.88594 0.91413 0.61589
 C995 C 0.89724 0.87781 0.62982
 C996 C 0.87188 0.85269 0.64950
 C997 C 0.83385 0.86241 0.65537
 C998 C 0.82132 0.89890 0.64127
 C999 C 0.83549 0.96259 0.61511
 C1000 C 0.79761 0.97263 0.61909
 C1001 C 0.77135 0.94599 0.63199
 C1002 C 0.78295 0.90950 0.64313
 H1003 H 0.85497 0.98442 0.60675
 H1004 H 0.78857 1.00120 0.61192
 H1005 H 0.74186 0.95374 0.63396
 H1006 H 0.76146 0.88976 0.65230
 H1007 H 0.92598 0.86828 0.62437
 H1008 H 0.88222 0.82515 0.66024
 C1009 C 0.59344 0.13070 0.12025
 C1010 C 0.60462 0.09391 0.10613
 C1011 C 0.64151 0.08166 0.11672
 C1012 C 0.66670 0.10505 0.14115
 C1013 C 0.65508 0.14050 0.15821
 C1014 C 0.61706 0.15190 0.15137
 C1015 C 0.55970 0.14761 0.10330
 C1016 C 0.54636 0.18110 0.12378
 C1017 C 0.56660 0.19837 0.16118
 C1018 C 0.60170 0.18394 0.17493
 H1019 H 0.54421 0.13581 0.07296
 H1020 H 0.52003 0.19331 0.11114
 H1021 H 0.55553 0.22347 0.17873
 H1022 H 0.61637 0.19749 0.20479
 H1023 H 0.65101 0.05394 0.10567
 H1024 H 0.69545 0.09549 0.14647
 C1025 C 0.84036 0.06570 0.39310
 C1026 C 0.87986 0.07163 0.39157
 C1027 C 0.89276 0.10479 0.36971
 C1028 C 0.86826 0.13214 0.35220
 C1029 C 0.82954 0.12801 0.35566
 C1030 C 0.81508 0.09478 0.37651
 C1031 C 0.82508 0.03174 0.40993
 C1032 C 0.78635 0.02780 0.41457
 C1033 C 0.76207 0.05723 0.40200
 C1034 C 0.77613 0.09026 0.38251
 H1035 H 0.84242 0.00756 0.41857
 H1036 H 0.77512 0.00178 0.42817
 H1037 H 0.73214 0.05439 0.40704
 H1038 H 0.75628 0.11238 0.37309
 H1039 H 0.92241 0.11062 0.36721
 H1040 H 0.87989 0.15703 0.33556
 C1041 C 0.35235 0.42733 0.61353
 C1042 C 0.39038 0.41641 0.60498
 C1043 C 0.40187 0.37960 0.61618
 C1044 C 0.37670 0.35370 0.63446
 C1045 C 0.33878 0.36321 0.64155
 C1046 C 0.32605 0.40006 0.62944
 C1047 C 0.33979 0.46478 0.60739
 C1048 C 0.30190 0.47448 0.61227
 C1049 C 0.27582 0.44720 0.62319
 C1050 C 0.28764 0.41034 0.63159
 H1051 H 0.35900 0.48708 0.59986
 H1052 H 0.29271 0.50325 0.60701
 H1053 H 0.24629 0.45467 0.62552
 H1054 H 0.26635 0.38993 0.63851
 H1055 H 0.43063 0.37042 0.60990
 H1056 H 0.38719 0.32589 0.64362
 C1057 C 0.65304 0.93444 0.88826
 C1058 C 0.61754 0.92240 0.90511
 C1059 C 0.61022 0.88410 0.90604
 C1060 C 0.63629 0.85799 0.88900
 C1061 C 0.67141 0.86874 0.87084
 C1062 C 0.68078 0.90733 0.87298
 C1063 C 0.66127 0.97275 0.88477
 C1064 C 0.69676 0.98424 0.87006
 C1065 C 0.72479 0.95785 0.85946
 C1066 C 0.71703 0.91977 0.86113
 H1067 H 0.64023 0.99403 0.89258
 H1068 H 0.70267 1.01374 0.86741
 H1069 H 0.75267 0.96693 0.84974
 H1070 H 0.73996 0.90035 0.85470
 H1071 H 0.58361 0.87406 0.91968
 H1072 H 0.62799 0.82901 0.88850
 C1073 C 0.09406 0.62911 0.10179
 C1074 C 0.10546 0.59129 0.09414
 C1075 C 0.14068 0.57927 0.11211
 C1076 C 0.16388 0.60390 0.13791
 C1077 C 0.15163 0.64058 0.14897
 C1078 C 0.11497 0.65205 0.13414
 C1079 C 0.06239 0.64501 0.07769
 C1080 C 0.04792 0.67988 0.09191
 C1081 C 0.06484 0.69941 0.13025
 C1082 C 0.09804 0.68560 0.15134
 H1083 H 0.04922 0.63100 0.04699
 H1084 H 0.02311 0.69135 0.07389
 H1085 H 0.05262 0.72561 0.14310
 H1086 H 0.10972 0.70064 0.18217
 H1087 H 0.15024 0.55067 0.10630
 H1088 H 0.19153 0.59419 0.14935
 C1089 C 0.34962 0.89988 0.07429
 C1090 C 0.38654 0.90502 0.09394
 C1091 C 0.39832 0.88374 0.13520
 C1092 C 0.37500 0.85805 0.15709
 C1093 C 0.33888 0.85315 0.13911
 C1094 C 0.32550 0.87401 0.09803
 C1095 C 0.33599 0.91858 0.03130
 C1096 C 0.29957 0.91330 0.01404
 C1097 C 0.27596 0.88879 0.03828
 C1098 C 0.28880 0.86897 0.07958
 H1099 H 0.35275 0.93697 0.00956
 H1100 H 0.28968 0.92817 -0.01859
 H1101 H 0.24773 0.88477 0.02466
 H1102 H 0.26976 0.84961 0.09678
 H1103 H 0.42597 0.88706 0.15115
 H1104 H 0.38508 0.84216 0.18889
 C1105 C 0.64205 0.43357 0.35936
 C1106 C 0.62444 0.42234 0.40380
 C1107 C 0.63276 0.38741 0.42433
 C1108 C 0.65674 0.36254 0.40018
 C1109 C 0.67269 0.37125 0.35391
 C1110 C 0.66616 0.40780 0.33346
 C1111 C 0.63503 0.46956 0.33939
 C1112 C 0.65130 0.48027 0.29476
 C1113 C 0.67420 0.45522 0.26886
 C1114 C 0.68132 0.41934 0.28744
 H1115 H 0.61705 0.48975 0.35819
 H1116 H 0.64587 0.50802 0.27998
 H1117 H 0.68644 0.46366 0.23399
 H1118 H 0.69859 0.40146 0.26467
 H1119 H 0.61942 0.37876 0.45857
 H1120 H 0.66179 0.33547 0.41731
 C1121 C 0.83964 0.57488 0.90750
 C1122 C 0.87925 0.57545 0.89476
 C1123 C 0.89033 0.60103 0.85745
 C1124 C 0.86551 0.62608 0.83562
 C1125 C 0.82796 0.62714 0.84905
 C1126 C 0.81432 0.60135 0.88414
 C1127 C 0.82386 0.55059 0.94358
 C1128 C 0.78569 0.55202 0.95508
 C1129 C 0.76191 0.57787 0.93241
 C1130 C 0.77599 0.60253 0.89759
 H1131 H 0.83937 0.52982 0.96408
 H1132 H 0.77432 0.53265 0.98174
 H1133 H 0.73239 0.57888 0.94197
 H1134 H 0.75644 0.62257 0.88143
 H1135 H 0.91910 0.60255 0.84462
 H1136 H 0.87606 0.64562 0.80835
 C1137 C 0.09232 0.13627 0.59735
 C1138 C 0.10349 0.09827 0.59134
 C1139 C 0.13897 0.08643 0.60820
 C1140 C 0.16263 0.11129 0.63199
 C1141 C 0.15075 0.14818 0.64201
 C1142 C 0.11391 0.15979 0.62798
 C1143 C 0.06013 0.15163 0.57377
 C1144 C 0.04615 0.18692 0.58688
 C1145 C 0.06384 0.20724 0.62384
 C1146 C 0.09732 0.19373 0.64451
 H1147 H 0.04595 0.13678 0.54459
 H1148 H 0.02099 0.19804 0.56931
 H1149 H 0.05190 0.23371 0.63609
 H1150 H 0.10928 0.20928 0.67467
 H1151 H 0.14837 0.05770 0.60340
 H1152 H 0.19026 0.10143 0.64315
 C1153 C 0.15208 0.43459 0.38572
 C1154 C 0.11718 0.42233 0.40429
 C1155 C 0.11049 0.38395 0.40683
 C1156 C 0.13660 0.35790 0.38971
 C1157 C 0.17116 0.36883 0.36986
 C1158 C 0.17996 0.40762 0.37045
 C1159 C 0.15949 0.47297 0.38045
 C1160 C 0.19442 0.48476 0.36395
 C1161 C 0.22274 0.45864 0.35352
 C1162 C 0.21575 0.42046 0.35703
 H1163 H 0.13821 0.49404 0.38823
 H1164 H 0.19969 0.51429 0.35980
 H1165 H 0.25025 0.46800 0.34251
 H1166 H 0.23895 0.40136 0.35080
 H1167 H 0.08430 0.37382 0.42176
 H1168 H 0.12874 0.32880 0.39052
 C1169 C 0.34160 0.56374 0.88681
 C1170 C 0.37979 0.57330 0.89415
 C1171 C 0.39104 0.60960 0.88210
 C1172 C 0.36594 0.63616 0.86410
 C1173 C 0.32802 0.62815 0.85762
 C1174 C 0.31527 0.59177 0.86986
 C1175 C 0.32891 0.52704 0.89495
 C1176 C 0.29104 0.51868 0.88989
 C1177 C 0.26510 0.54653 0.87674
 C1178 C 0.27697 0.58275 0.86684
 H1179 H 0.34796 0.50426 0.90425
 H1180 H 0.28173 0.49046 0.89650
 H1181 H 0.23563 0.53999 0.87394
 H1182 H 0.25580 0.60363 0.85788
 H1183 H 0.41974 0.61817 0.88742
 H1184 H 0.37669 0.66341 0.85453
 C1185 C 0.59436 0.12998 0.60199
 C1186 C 0.60593 0.09210 0.59537
 C1187 C 0.64087 0.08031 0.61436
 C1188 C 0.66362 0.10522 0.64032
 C1189 C 0.65119 0.14202 0.65050
 C1190 C 0.61479 0.15336 0.63434
 C1191 C 0.56288 0.14543 0.57695
 C1192 C 0.54821 0.18047 0.58999
 C1193 C 0.56464 0.20058 0.62816
 C1194 C 0.59757 0.18711 0.65033
 H1195 H 0.54995 0.13085 0.54652
 H1196 H 0.52355 0.19161 0.57125
 H1197 H 0.55220 0.22691 0.64013
 H1198 H 0.60869 0.20254 0.68116
 H1199 H 0.65050 0.05164 0.60935
 H1200 H 0.69108 0.09561 0.65269
 C1201 C 0.85267 0.92752 0.11521
 C1202 C 0.89030 0.91595 0.10503
 C1203 C 0.90118 0.87876 0.11470
 C1204 C 0.87578 0.85307 0.13296
 C1205 C 0.83818 0.86323 0.14168
 C1206 C 0.82607 0.90059 0.13133
 C1207 C 0.84086 0.96531 0.11050
 C1208 C 0.80334 0.97580 0.11722
 C1209 C 0.77687 0.94897 0.12857
 C1210 C 0.78799 0.91172 0.13544
 H1211 H 0.86043 0.98723 0.10266
 H1212 H 0.79471 1.00483 0.11309
 H1213 H 0.74760 0.95709 0.13237
 H1214 H 0.76637 0.89173 0.14272
 H1215 H 0.92963 0.86912 0.10716
 H1216 H 0.88584 0.82489 0.14082
 C1217 C 0.83885 0.06790 0.88959
 C1218 C 0.87834 0.07240 0.88249
 C1219 C 0.89020 0.10266 0.85333
 C1220 C 0.86503 0.12927 0.83525
 C1221 C 0.82673 0.12731 0.84551
 C1222 C 0.81315 0.09651 0.87275
 C1223 C 0.82390 0.03597 0.91262
 C1224 C 0.78571 0.03398 0.92351
 C1225 C 0.76146 0.06343 0.91104
 C1226 C 0.77486 0.09427 0.88532
 H1227 H 0.84095 0.01167 0.92085
 H1228 H 0.77486 0.00942 0.94174
 H1229 H 0.73203 0.06209 0.92068
 H1230 H 0.75515 0.11653 0.87603
 H1231 H 0.91964 0.10708 0.84581
 H1232 H 0.87587 0.15230 0.81362
 C1233 C 0.09385 0.63115 0.61823
 C1234 C 0.10498 0.59423 0.60463
 C1235 C 0.14185 0.58203 0.61537
 C1236 C 0.16705 0.60555 0.63957
 C1237 C 0.15546 0.64113 0.65621
 C1238 C 0.11747 0.65255 0.64911
 C1239 C 0.06011 0.64793 0.60105
 C1240 C 0.04679 0.68158 0.62108
 C1241 C 0.06701 0.69911 0.65829
 C1242 C 0.10208 0.68475 0.67227
 H1243 H 0.04459 0.63588 0.57091
 H1244 H 0.02046 0.69371 0.60828
 H1245 H 0.05593 0.72432 0.67554
 H1246 H 0.11668 0.69844 0.70206
 H1247 H 0.15131 0.55422 0.60470
 H1248 H 0.19577 0.59597 0.64511
 C1249 C 0.65496 0.93173 0.37710
 C1250 C 0.62065 0.91815 0.39618
 C1251 C 0.61484 0.87967 0.39713
 C1252 C 0.64131 0.85471 0.37846
 C1253 C 0.67535 0.86683 0.35810
 C1254 C 0.68319 0.90583 0.35958
 C1255 C 0.66144 0.97042 0.37368
 C1256 C 0.69559 0.98348 0.35618
 C1257 C 0.72418 0.95840 0.34296
 C1258 C 0.71827 0.91996 0.34483
 H1259 H 0.64004 0.99089 0.38360
 H1260 H 0.69997 1.01324 0.35316
 H1261 H 0.75105 0.96879 0.33093
 H1262 H 0.74181 0.90184 0.33575
 H1263 H 0.58916 0.86858 0.41239
 H1264 H 0.63410 0.82542 0.37874
 C1265 C 0.34735 0.42555 0.12328
 C1266 C 0.38541 0.41416 0.11547
 C1267 C 0.39657 0.37771 0.12894
 C1268 C 0.37111 0.35255 0.14828
 C1269 C 0.33313 0.36240 0.15428
 C1270 C 0.32073 0.39903 0.14065
 C1271 C 0.33511 0.46280 0.11509
 C1272 C 0.29724 0.47291 0.11898
 C1273 C 0.27088 0.44628 0.13153
 C1274 C 0.28238 0.40972 0.14245
 H1275 H 0.35467 0.48463 0.10698
 H1276 H 0.28828 0.50154 0.11199
 H1277 H 0.24140 0.45407 0.13341
 H1278 H 0.26082 0.38997 0.15132
 H1279 H 0.42527 0.36810 0.12336
 H1280 H 0.38134 0.32490 0.15868
 C1281 C 0.59222 0.63565 0.09856
 C1282 C 0.60352 0.59771 0.09220
 C1283 C 0.63899 0.58590 0.10908
 C1284 C 0.66250 0.61073 0.13324
 C1285 C 0.65046 0.64752 0.14371
 C1286 C 0.61359 0.65904 0.12965
 C1287 C 0.56009 0.65105 0.07490
 C1288 C 0.54589 0.68618 0.08838
 C1289 C 0.56329 0.70626 0.12581
 C1290 C 0.59673 0.69273 0.14658
 H1291 H 0.54611 0.63633 0.04543
 H1292 H 0.52076 0.69732 0.07076
 H1293 H 0.55114 0.73256 0.13838
 H1294 H 0.60840 0.70802 0.17717
 H1295 H 0.64849 0.55723 0.10403
 H1296 H 0.69016 0.60087 0.14433
 C1297 C 0.14192 0.93402 0.85860
 C1298 C 0.12412 0.92273 0.90287
 C1299 C 0.13223 0.88772 0.92327
 C1300 C 0.15619 0.86282 0.89914
 C1301 C 0.17232 0.87161 0.85302
 C1302 C 0.16602 0.90824 0.83273
 C1303 C 0.13510 0.97009 0.83876
 C1304 C 0.15160 0.98086 0.79430
 C1305 C 0.17452 0.95581 0.76844
 C1306 C 0.18142 0.91984 0.78688
 H1307 H 0.11711 0.99029 0.85753
 H1308 H 0.14633 1.00867 0.77963
 H1309 H 0.18695 0.96430 0.73372
 H1310 H 0.19871 0.90193 0.76416
 H1311 H 0.11876 0.87902 0.95740
 H1312 H 0.16108 0.83569 0.91616
 C1313 C 0.33767 0.07622 0.40793
 C1314 C 0.37660 0.07548 0.39376
 C1315 C 0.38782 0.09830 0.35394
 C1316 C 0.36323 0.12333 0.33134
 C1317 C 0.32602 0.12623 0.34654
 C1318 C 0.31241 0.10204 0.38368
 C1319 C 0.32270 0.05303 0.44555
 C1320 C 0.28458 0.05449 0.45742
 C1321 C 0.26057 0.07993 0.43413
 C1322 C 0.27429 0.10384 0.39799
 H1323 H 0.33904 0.03285 0.46609
 H1324 H 0.27346 0.03553 0.48475
 H1325 H 0.23112 0.08111 0.44407
 H1326 H 0.25466 0.12346 0.38110
 H1327 H 0.41653 0.09789 0.34072
 H1328 H 0.37371 0.14149 0.30237
 C1329 C 0.84995 0.39953 0.57404
 C1330 C 0.88661 0.40520 0.59426
 C1331 C 0.89813 0.38451 0.63614
 C1332 C 0.87479 0.35885 0.65810
 C1333 C 0.83897 0.35332 0.63939
 C1334 C 0.82588 0.37357 0.59766
 C1335 C 0.83655 0.41781 0.53064
 C1336 C 0.80040 0.41196 0.51275
 C1337 C 0.77686 0.38728 0.53677
 C1338 C 0.78948 0.36791 0.57856
 H1339 H 0.85325 0.43638 0.50913
 H1340 H 0.79066 0.42654 0.47982
 H1341 H 0.74884 0.38280 0.52266
 H1342 H 0.77048 0.34846 0.59568
 H1343 H 0.92556 0.38829 0.65254
 H1344 H 0.88462 0.34345 0.69045
 C1345 C 0.84027 0.57245 0.09594
 C1346 C 0.87943 0.57991 0.09272
 C1347 C 0.89203 0.61431 0.11111
 C1348 C 0.86772 0.64049 0.13196
 C1349 C 0.82917 0.63444 0.13434
 C1350 C 0.81489 0.60081 0.11448
 C1351 C 0.82545 0.53762 0.08231
 C1352 C 0.78679 0.53220 0.08167
 C1353 C 0.76217 0.56135 0.09408
 C1354 C 0.77594 0.59513 0.11121
 H1355 H 0.84320 0.51404 0.07295
 H1356 H 0.77585 0.50550 0.07023
 H1357 H 0.73223 0.55784 0.09070
 H1358 H 0.75579 0.61693 0.12065
 H1359 H 0.92136 0.62159 0.10937
 H1360 H 0.87948 0.66596 0.14663
 C1361 C 0.65500 0.43352 0.61411
 C1362 C 0.61844 0.42224 0.59989
 C1363 C 0.60840 0.38509 0.60817
 C1364 C 0.63282 0.35960 0.63024
 C1365 C 0.66930 0.36931 0.64431
 C1366 C 0.68114 0.40658 0.63480
 C1367 C 0.66599 0.47102 0.60957
 C1368 C 0.70234 0.48148 0.62149
 C1369 C 0.72856 0.45495 0.63775
 C1370 C 0.71821 0.41789 0.64449
 H1371 H 0.64659 0.49277 0.59782
 H1372 H 0.71019 0.51037 0.61795
 H1373 H 0.75702 0.46321 0.64571
 H1374 H 0.73989 0.39855 0.65653
 H1375 H 0.58095 0.37532 0.59745
 H1376 H 0.62247 0.33172 0.63667
 C1377 C 0.09222 0.12973 0.39870
 C1378 C 0.10435 0.09227 0.40763
 C1379 C 0.13999 0.08083 0.39049
 C1380 C 0.16286 0.10555 0.36408
 C1381 C 0.15013 0.14193 0.35187
 C1382 C 0.11320 0.15301 0.36651
 C1383 C 0.05961 0.14487 0.42143
 C1384 C 0.04493 0.17960 0.40702
 C1385 C 0.06234 0.19971 0.36957
 C1386 C 0.09604 0.18650 0.34926
 H1387 H 0.04568 0.13027 0.45109
 H1388 H 0.01952 0.19051 0.42416
 H1389 H 0.04999 0.22584 0.35665
 H1390 H 0.10790 0.20211 0.31898
 H1391 H 0.15010 0.05252 0.39722
 H1392 H 0.19071 0.09614 0.35314
 C1393 C 0.35202 0.92156 0.88719
 C1394 C 0.38954 0.91062 0.89921
 C1395 C 0.40129 0.87365 0.88957
 C1396 C 0.37709 0.84785 0.86876
 C1397 C 0.33971 0.85753 0.85775
 C1398 C 0.32640 0.89433 0.86932
 C1399 C 0.33943 0.95910 0.89122
 C1400 C 0.30184 0.96892 0.88349
 C1401 C 0.27608 0.94165 0.87139
 C1402 C 0.28811 0.90473 0.86437
 H1403 H 0.35854 0.98134 0.89893
 H1404 H 0.29259 0.99778 0.88738
 H1405 H 0.24670 0.94919 0.86687
 H1406 H 0.26691 0.88452 0.85621
 H1407 H 0.42965 0.86443 0.89841
 H1408 H 0.38796 0.82001 0.86067
 C1409 C 0.15179 0.93032 0.62341
 C1410 C 0.11521 0.91810 0.61098
 C1411 C 0.10609 0.88081 0.62030
 C1412 C 0.13187 0.85587 0.64075
 C1413 C 0.16864 0.86643 0.65179
 C1414 C 0.17923 0.90389 0.64178
 C1415 C 0.16164 0.96821 0.61923
 C1416 C 0.19813 0.97938 0.62900
 C1417 C 0.22566 0.95315 0.64222
 C1418 C 0.21643 0.91573 0.64850
 H1419 H 0.14124 0.98970 0.60965
 H1420 H 0.20500 1.00855 0.62634
 H1421 H 0.25419 0.96195 0.64845
 H1422 H 0.23881 0.89633 0.65781
 H1423 H 0.07853 0.87044 0.61132
 H1424 H 0.12258 0.82772 0.64813
 C1425 C 0.59427 0.63302 0.38046
 C1426 C 0.60619 0.59619 0.39390
 C1427 C 0.64204 0.58364 0.37872
 C1428 C 0.66558 0.60679 0.35083
 C1429 C 0.65325 0.64244 0.33504
 C1430 C 0.61605 0.65427 0.34680
 C1431 C 0.56134 0.64975 0.40034
 C1432 C 0.54710 0.68347 0.38152
 C1433 C 0.56556 0.70127 0.34290
 C1434 C 0.59975 0.68690 0.32563
 H1435 H 0.54693 0.63743 0.43140
 H1436 H 0.52141 0.69551 0.39649
 H1437 H 0.55379 0.72671 0.32697
 H1438 H 0.61300 0.70113 0.29505
 H1439 H 0.65192 0.55575 0.38847
 H1440 H 0.69373 0.59694 0.34202
 C1441 C 0.33780 0.07494 0.10659
 C1442 C 0.37734 0.08121 0.10853
 C1443 C 0.38981 0.11308 0.13397
 C1444 C 0.36505 0.13853 0.15546
 C1445 C 0.32636 0.13407 0.15213
 C1446 C 0.31226 0.10250 0.12687
 C1447 C 0.32259 0.04223 0.08574
 C1448 C 0.28389 0.03855 0.08032
 C1449 C 0.25949 0.06690 0.09617
 C1450 C 0.27335 0.09830 0.11998
 H1451 H 0.33977 0.01870 0.07433
 H1452 H 0.27278 0.01358 0.06349
 H1453 H 0.22959 0.06446 0.09044
 H1454 H 0.25335 0.11948 0.13208
 H1455 H 0.41937 0.11921 0.13692
 H1456 H 0.37643 0.16240 0.17475
 C1457 C 0.85308 0.41487 0.88948
 C1458 C 0.89315 0.40815 0.88999
 C1459 C 0.90683 0.37601 0.86445
 C1460 C 0.88292 0.35044 0.84255
 C1461 C 0.84406 0.35524 0.84499
 C1462 C 0.82880 0.38692 0.86984
 C1463 C 0.83595 0.44904 0.90518
 C1464 C 0.79704 0.45319 0.90833
 C1465 C 0.77398 0.42404 0.89506
 C1466 C 0.78956 0.39131 0.87561
 H1467 H 0.85164 0.47375 0.91289
 H1468 H 0.78459 0.47925 0.92093
 H1469 H 0.74382 0.42720 0.89853
 H1470 H 0.77051 0.36946 0.86536
 H1471 H 0.93661 0.36954 0.86213
 H1472 H 0.89504 0.32644 0.82342
 C1473 C 0.59447 0.13562 0.89979
 C1474 C 0.60566 0.09806 0.90923
 C1475 C 0.64125 0.08550 0.89369
 C1476 C 0.66482 0.10912 0.86735
 C1477 C 0.65279 0.14536 0.85417
 C1478 C 0.61595 0.15748 0.86702
 C1479 C 0.56242 0.15215 0.92215
 C1480 C 0.54826 0.18660 0.90563
 C1481 C 0.56580 0.20486 0.86656
 C1482 C 0.59932 0.19034 0.84719
 H1483 H 0.54864 0.13887 0.95304
 H1484 H 0.52315 0.19861 0.92226
 H1485 H 0.55378 0.23058 0.85178
 H1486 H 0.61147 0.20418 0.81562
 H1487 H 0.65078 0.05729 0.90165
 H1488 H 0.69241 0.09886 0.85677
 C1489 C 0.35255 0.60545 0.56557
 C1490 C 0.37446 0.57930 0.59322
 C1491 C 0.36857 0.57564 0.64440
 C1492 C 0.34282 0.59889 0.66898
 C1493 C 0.32253 0.62649 0.64292
 C1494 C 0.32578 0.62865 0.59054
 C1495 C 0.35789 0.61043 0.51402
 C1496 C 0.33654 0.63681 0.48766
 C1497 C 0.30900 0.65810 0.51165
 C1498 C 0.30349 0.65409 0.56261
 H1499 H 0.37881 0.59444 0.49379
 H1500 H 0.34146 0.64086 0.44846
 H1501 H 0.29211 0.67809 0.49077
 H1502 H 0.28165 0.67101 0.57991
 H1503 H 0.38528 0.55578 0.66582
 H1504 H 0.34067 0.59707 0.70907
 C1505 C 0.11854 0.42405 0.16030
 C1506 C 0.12056 0.42663 0.10788
 C1507 C 0.14868 0.40672 0.08225
 C1508 C 0.17247 0.38176 0.10734
 C1509 C 0.16893 0.37639 0.15865
 C1510 C 0.14240 0.39816 0.18587
 C1511 C 0.09270 0.44622 0.18773
 C1512 C 0.08909 0.44155 0.23887
 C1513 C 0.11112 0.41494 0.26353
 C1514 C 0.13772 0.39358 0.23758
 H1515 H 0.07525 0.46739 0.16991
 H1516 H 0.06887 0.45840 0.25941
 H1517 H 0.10748 0.41079 0.30291
 H1518 H 0.15419 0.37334 0.25833
 H1519 H 0.15053 0.40852 0.04213
 H1520 H 0.19261 0.36518 0.08623
 C1521 C 0.86366 0.88094 0.43233
 C1522 C 0.88833 0.90345 0.40423
 C1523 C 0.88723 0.90238 0.35232
 C1524 C 0.86237 0.87923 0.32788
 C1525 C 0.83829 0.85630 0.35479
 C1526 C 0.83795 0.85762 0.40724
 C1527 C 0.86464 0.88017 0.48474
 C1528 C 0.83968 0.85833 0.51153
 C1529 C 0.81343 0.83682 0.48696
 C1530 C 0.81248 0.83631 0.43525
 H1531 H 0.88486 0.89592 0.50543
 H1532 H 0.84068 0.85801 0.55154
 H1533 H 0.79391 0.82023 0.50806
 H1534 H 0.79153 0.81934 0.41754
 H1535 H 0.90597 0.91945 0.33056
 H1536 H 0.86269 0.87836 0.28764
 C1537 C 0.83806 0.57591 0.60620
 C1538 C 0.87775 0.58114 0.60945
 C1539 C 0.89058 0.61195 0.63689
 C1540 C 0.86610 0.63746 0.65885
 C1541 C 0.82739 0.63406 0.65416
 C1542 C 0.81291 0.60355 0.62711
 C1543 C 0.82229 0.54422 0.58338
 C1544 C 0.78360 0.54174 0.57674
 C1545 C 0.75967 0.57021 0.59343
 C1546 C 0.77398 0.60053 0.61913
 H1547 H 0.83895 0.52052 0.57137
 H1548 H 0.77211 0.51756 0.55839
 H1549 H 0.72977 0.56865 0.58701
 H1550 H 0.75433 0.62182 0.63192
 H1551 H 0.92022 0.61726 0.64108
 H1552 H 0.87772 0.66055 0.67952
 C1553 C 0.65130 0.42970 0.12345
 C1554 C 0.61472 0.41748 0.11096
 C1555 C 0.60553 0.38024 0.12057
 C1556 C 0.63123 0.35536 0.14134
 C1557 C 0.66800 0.36590 0.15239
 C1558 C 0.67868 0.40329 0.14205
 C1559 C 0.66120 0.46756 0.11913
 C1560 C 0.69771 0.47870 0.12887
 C1561 C 0.72520 0.45247 0.14217
 C1562 C 0.71590 0.41508 0.14865
 H1563 H 0.64085 0.48907 0.10946
 H1564 H 0.70463 0.50786 0.12608
 H1565 H 0.75375 0.46123 0.14831
 H1566 H 0.73827 0.39568 0.15797
 H1567 H 0.57797 0.36987 0.11159
 H1568 H 0.62186 0.32727 0.14893
 C1569 C 0.35439 0.91890 0.37888
 C1570 C 0.39159 0.90678 0.39095
 C1571 C 0.40275 0.87000 0.37907
 C1572 C 0.37815 0.84537 0.35660
 C1573 C 0.34090 0.85599 0.34626
 C1574 C 0.32832 0.89262 0.35964
 C1575 C 0.34241 0.95659 0.38440
 C1576 C 0.30505 0.96721 0.37642
 C1577 C 0.27883 0.94061 0.36361
 C1578 C 0.29023 0.90363 0.35556
 H1579 H 0.36168 0.97843 0.39355
 H1580 H 0.29626 0.99614 0.38075
 H1581 H 0.24958 0.94872 0.35938
 H1582 H 0.26879 0.88371 0.34750
 H1583 H 0.43092 0.85996 0.38751
 H1584 H 0.38850 0.81760 0.34709
 C1585 C 0.09261 0.13411 0.88108
 C1586 C 0.10502 0.09737 0.89425
 C1587 C 0.14089 0.08528 0.87858
 C1588 C 0.16392 0.10875 0.85038
 C1589 C 0.15105 0.14427 0.83468
 C1590 C 0.11381 0.15562 0.84703
 C1591 C 0.05966 0.15043 0.90149
 C1592 C 0.04481 0.18394 0.88280
 C1593 C 0.06261 0.20187 0.84374
 C1594 C 0.09681 0.18791 0.82592
 H1595 H 0.04569 0.13791 0.93277
 H1596 H 0.01909 0.19566 0.89815
 H1597 H 0.05029 0.22707 0.82783
 H1598 H 0.10942 0.20206 0.79484
 H1599 H 0.15115 0.05747 0.88808
 H1600 H 0.19209 0.09919 0.84115
 C1601 C 0.15411 0.93293 0.11394
 C1602 C 0.11873 0.92104 0.09618
 C1603 C 0.11015 0.88311 0.09930
 C1604 C 0.13478 0.85736 0.12045
 C1605 C 0.16997 0.86778 0.13888
 C1606 C 0.18058 0.90596 0.13373
 C1607 C 0.16346 0.97107 0.11388
 C1608 C 0.19869 0.98238 0.12965
 C1609 C 0.22548 0.95607 0.14494
 C1610 C 0.21669 0.91827 0.14699
 H1611 H 0.14357 0.99256 0.10256
 H1612 H 0.20527 1.01173 0.12981
 H1613 H 0.25316 0.96504 0.15573
 H1614 H 0.23892 0.89923 0.15809
 H1615 H 0.08358 0.87307 0.08552
 H1616 H 0.12543 0.82877 0.12309
 C1617 C 0.85190 0.42167 0.38705
 C1618 C 0.88938 0.41075 0.39925
 C1619 C 0.90123 0.37382 0.38958
 C1620 C 0.87717 0.34803 0.36853
 C1621 C 0.83983 0.35767 0.35731
 C1622 C 0.82639 0.39443 0.36892
 C1623 C 0.83924 0.45918 0.39119
 C1624 C 0.80166 0.46896 0.38325
 C1625 C 0.77600 0.44168 0.37088
 C1626 C 0.78810 0.40479 0.36379
 H1627 H 0.85828 0.48143 0.39918
 H1628 H 0.79236 0.49780 0.38722
 H1629 H 0.74662 0.44918 0.36623
 H1630 H 0.76695 0.38457 0.35549
 H1631 H 0.92957 0.36460 0.39856
 H1632 H 0.88814 0.32023 0.36044
 C1633 C 0.34107 0.07247 0.59939
 C1634 C 0.38030 0.07969 0.59682
 C1635 C 0.39301 0.11361 0.61660
 C1636 C 0.36869 0.13970 0.63768
 C1637 C 0.33001 0.13409 0.63890
 C1638 C 0.31570 0.10080 0.61805
 C1639 C 0.32616 0.03786 0.58499
 C1640 C 0.28748 0.03268 0.58363
 C1641 C 0.26293 0.06191 0.59597
 C1642 C 0.27674 0.09544 0.61386
 H1643 H 0.34388 0.01426 0.57567
 H1644 H 0.27649 0.00615 0.57163
 H1645 H 0.23301 0.05863 0.59192
 H1646 H 0.25662 0.11728 0.62324
 H1647 H 0.42243 0.12065 0.61563
 H1648 H 0.38049 0.16487 0.65318
 C1649 C 0.59273 0.62976 0.89963
 C1650 C 0.60465 0.59223 0.90849
 C1651 C 0.64035 0.58073 0.89159
 C1652 C 0.66345 0.60546 0.86550
 C1653 C 0.65090 0.64190 0.85331
 C1654 C 0.61391 0.65302 0.86764
 C1655 C 0.56014 0.64501 0.92227
 C1656 C 0.54559 0.67978 0.90780
 C1657 C 0.56314 0.69982 0.87041
 C1658 C 0.59687 0.68653 0.85026
 H1659 H 0.54614 0.63047 0.95192
 H1660 H 0.52019 0.69078 0.92486
 H1661 H 0.55089 0.72598 0.85742
 H1662 H 0.60884 0.70207 0.82001
 H1663 H 0.65034 0.55237 0.89828
 H1664 H 0.69134 0.59599 0.85479
 C1665 C 0.36153 0.38295 0.93213
 C1666 C 0.38698 0.40461 0.90402
 C1667 C 0.38605 0.40323 0.85212
 C1668 C 0.36068 0.38055 0.82773
 C1669 C 0.33585 0.35843 0.85467
 C1670 C 0.33527 0.36019 0.90708
 C1671 C 0.36229 0.38235 0.98453
 C1672 C 0.33657 0.36141 1.01132
 C1673 C 0.30973 0.34062 0.98677
 C1674 C 0.30905 0.33980 0.93510
 H1675 H 0.38298 0.39745 1.00524
 H1676 H 0.33748 0.36115 1.05129
 H1677 H 0.28962 0.32475 1.00788
 H1678 H 0.28768 0.32334 0.91741
 H1679 H 0.40530 0.41967 0.83031
 H1680 H 0.36125 0.37932 0.78750
 C1681 C 0.85245 0.10510 0.06561
 C1682 C 0.87410 0.07878 0.09334
 C1683 C 0.86795 0.07505 0.14446
 C1684 C 0.84218 0.09838 0.16891
 C1685 C 0.82211 0.12611 0.14278
 C1686 C 0.82560 0.12831 0.09043
 C1687 C 0.85812 0.11023 0.01416
 C1688 C 0.83704 0.13678 -0.01229
 C1689 C 0.80934 0.15800 0.01149
 C1690 C 0.80348 0.15382 0.06236
 H1691 H 0.87912 0.09426 -0.00595
 H1692 H 0.84227 0.14099 -0.05140
 H1693 H 0.79260 0.17807 -0.00947
 H1694 H 0.78152 0.17067 0.07949
 H1695 H 0.88447 0.05508 0.16594
 H1696 H 0.83987 0.09651 0.20897
 C1697 C 0.61977 0.92423 0.66097
 C1698 C 0.62135 0.92629 0.60849
 C1699 C 0.64882 0.90560 0.58274
 C1700 C 0.67250 0.88056 0.60789
 C1701 C 0.66949 0.87584 0.65938
 C1702 C 0.64349 0.89825 0.68662
 C1703 C 0.59442 0.94697 0.68837
 C1704 C 0.59117 0.94284 0.73963
 C1705 C 0.61305 0.91618 0.76440
 C1706 C 0.63915 0.89421 0.73846
 H1707 H 0.57705 0.96815 0.67044
 H1708 H 0.57132 0.96013 0.76017
 H1709 H 0.60966 0.91245 0.80388
 H1710 H 0.65543 0.87389 0.75931
 H1711 H 0.65023 0.90690 0.54256
 H1712 H 0.69219 0.86347 0.58674
 C1713 C 0.09368 0.63518 0.39770
 C1714 C 0.10512 0.59778 0.40771
 C1715 C 0.14067 0.58522 0.39209
 C1716 C 0.16398 0.60869 0.36513
 C1717 C 0.15164 0.64470 0.35133
 C1718 C 0.11478 0.65675 0.36421
 C1719 C 0.06176 0.65184 0.42024
 C1720 C 0.04730 0.68602 0.40320
 C1721 C 0.06441 0.70390 0.36349
 C1722 C 0.09784 0.68931 0.34393
 H1723 H 0.04835 0.63886 0.45163
 H1724 H 0.02229 0.69812 0.41998
 H1725 H 0.05216 0.72940 0.34837
 H1726 H 0.10971 0.70290 0.31197
 H1727 H 0.15040 0.55713 0.40053
 H1728 H 0.19164 0.59852 0.35467
   
