data_POSCAR
  _audit_creation_date              2014-09-24
  _audit_creation_method            'ToBaCCo'
  _symmetry_space_group_name_H-M    'P1'
  _symmetry_Int_Tables_number       1
  _symmetry_cell_setting            triclinic
  loop_
  _symmetry_equiv_pos_as_xyz
 x,y,z
_cell_length_a 42.8248
_cell_length_b 42.6767
_cell_length_c 40.5162
_cell_angle_alpha 90.237700
_cell_angle_beta 90.086100
_cell_angle_gamma 91.163700
loop_
  _atom_site_label
  _atom_site_type_symbol
  _atom_site_fract_x
  _atom_site_fract_y
  _atom_site_fract_z
C1 C 0.38766 0.01331 0.28827
 C2 C 0.36116 0.03683 0.28788
 C3 C 0.34266 0.03512 0.26079
 C4 C 0.35191 0.00927 0.23636
 C5 C 0.37125 -0.01867 0.28428
 C6 C 0.35237 -0.02107 0.25710
 C7 C 0.40518 0.01869 0.25579
 C8 C 0.38651 0.01648 0.22847
 H9 H 0.35756 0.05388 0.30734
 H10 H 0.33656 0.00764 0.21426
 H11 H 0.37518 -0.03753 0.30140
 H12 H 0.43024 0.02218 0.25486
 C13 C 0.12427 -0.00677 0.78835
 C14 C 0.15038 -0.03074 0.78594
 C15 C 0.16843 -0.02753 0.75866
 C16 C 0.15930 -0.00015 0.73650
 C17 C 0.14154 0.02508 0.78676
 C18 C 0.16004 0.02859 0.75957
 C19 C 0.10710 -0.00977 0.75739
 C20 C 0.12649 -0.00598 0.72873
 H21 H 0.15354 -0.04948 0.80355
 H22 H 0.17474 0.00257 0.71460
 H23 H 0.13836 0.04332 0.80500
 H24 H 0.08205 -0.01351 0.75637
 C25 C 0.62154 0.48356 0.27170
 C26 C 0.64518 0.45800 0.26552
 C27 C 0.66401 0.46315 0.23922
 C28 C 0.65787 0.49420 0.22144
 C29 C 0.64096 0.51393 0.27472
 C30 C 0.65994 0.51989 0.24838
 C31 C 0.60379 0.48631 0.23888
 C32 C 0.62290 0.49187 0.21238
 H33 H 0.64592 0.43660 0.27982
 H34 H 0.67351 0.49850 0.20000
 H35 H 0.63777 0.53012 0.29497
 H36 H 0.57862 0.48440 0.23718
 C37 C 0.88566 0.50934 0.78545
 C38 C 0.86446 0.53683 0.77771
 C39 C 0.84632 0.53249 0.75052
 C40 C 0.85120 0.50098 0.73316
 C41 C 0.86356 0.48064 0.78739
 C42 C 0.84546 0.47616 0.75998
 C43 C 0.90466 0.50464 0.75379
 C44 C 0.88660 0.50025 0.72623
 H45 H 0.86290 0.55744 0.79330
 H46 H 0.83638 0.49759 0.71084
 H47 H 0.86365 0.46469 0.80807
 H48 H 0.92990 0.50470 0.75367
 C49 C 0.28099 0.41244 1.00150
 C50 C 0.27812 0.38425 1.02490
 C51 C 0.25062 0.36768 1.02168
 C52 C 0.22876 0.38053 0.99496
 C53 C 0.27562 0.39900 0.96697
 C54 C 0.24867 0.38214 0.96348
 C55 C 0.25173 0.43152 1.00865
 C56 C 0.22437 0.41506 1.00493
 H57 H 0.29424 0.38051 1.04505
 H58 H 0.20663 0.36677 0.99211
 H59 H 0.29172 0.40299 0.94672
 H60 H 0.25266 0.45585 1.01642
 C61 C 0.78876 0.09145 0.99465
 C62 C 0.78358 0.11862 0.97063
 C63 C 0.75639 0.13415 0.97617
 C64 C 0.73746 0.12137 1.00599
 C65 C 0.78726 0.10632 1.02895
 C66 C 0.76061 0.12197 1.03519
 C67 C 0.76057 0.07203 0.99187
 C68 C 0.73239 0.08811 0.99881
 H69 H 0.79773 0.12226 0.94879
 H70 H 0.71581 0.13455 1.01036
 H71 H 0.80533 0.10332 1.04738
 H72 H 0.76080 0.04725 0.98589
 C73 C 0.28121 0.59239 0.49251
 C74 C 0.27968 0.61832 0.46638
 C75 C 0.25319 0.63563 0.46804
 C76 C 0.23086 0.62575 0.49634
 C77 C 0.27723 0.60950 0.52540
 C78 C 0.25117 0.62690 0.52767
 C79 C 0.25082 0.57332 0.48805
 C80 C 0.22452 0.59048 0.49051
 H81 H 0.29641 0.62095 0.44661
 H82 H 0.20932 0.63974 0.49794
 H83 H 0.29324 0.60691 0.54593
 H84 H 0.25021 0.54831 0.48328
 C85 C 0.78715 0.90322 0.50485
 C86 C 0.78141 0.87609 0.52879
 C87 C 0.75351 0.86068 0.52421
 C88 C 0.73380 0.87386 0.49589
 C89 C 0.78306 0.88908 0.47043
 C90 C 0.75549 0.87349 0.46572
 C91 C 0.75874 0.92403 0.50950
 C92 C 0.73081 0.90892 0.50460
 H93 H 0.79592 0.87237 0.55025
 H94 H 0.71116 0.86119 0.49211
 H95 H 0.80044 0.89167 0.45116
 H96 H 0.76059 0.94845 0.51682
 C97 C -0.00577 0.26770 0.39818
 C98 C 0.02117 0.26966 0.37349
 C99 C 0.02222 0.24474 0.35224
 C100 C -0.00427 0.22047 0.35766
 C101 C -0.03370 0.26413 0.37811
 C102 C -0.03298 0.23795 0.35601
 C103 C -0.00179 0.23593 0.41531
 C104 C -0.00091 0.21115 0.39389
 H105 H 0.03736 0.28942 0.37304
 H106 H -0.00352 0.20028 0.34024
 H107 H -0.05421 0.27821 0.38166
 H108 H 0.00166 0.23377 0.44166
 C109 C -0.00465 0.77901 0.09182
 C110 C -0.03304 0.77725 0.11448
 C111 C -0.03489 0.75080 0.13329
 C112 C -0.00742 0.72857 0.12767
 C113 C 0.02353 0.77525 0.11464
 C114 C 0.02215 0.74894 0.13352
 C115 C -0.00608 0.74869 0.07163
 C116 C -0.00743 0.72220 0.09015
 H117 H -0.04936 0.79620 0.11588
 H118 H -0.00834 0.70738 0.14341
 H119 H 0.04388 0.79072 0.11382
 H120 H -0.00466 0.74822 0.04493
 C121 C 0.49499 0.27583 0.60196
 C122 C 0.46845 0.28433 0.62521
 C123 C 0.46389 0.26365 0.65031
 C124 C 0.48657 0.23647 0.65017
 C125 C 0.52357 0.27246 0.62426
 C126 C 0.51901 0.25207 0.64962
 C127 C 0.48713 0.24243 0.59044
 C128 C 0.48302 0.22169 0.61579
 H129 H 0.45488 0.30517 0.62178
 H130 H 0.48311 0.21959 0.67073
 H131 H 0.54520 0.28560 0.62065
 H132 H 0.48597 0.23572 0.56466
 C133 C 0.48322 0.78343 0.89897
 C134 C 0.51583 0.78230 0.88379
 C135 C 0.52261 0.75446 0.86948
 C136 C 0.49570 0.72983 0.87184
 C137 C 0.46112 0.77432 0.87093
 C138 C 0.46719 0.74609 0.85677
 C139 C 0.48140 0.75735 0.92182
 C140 C 0.48861 0.72778 0.90728
 H141 H 0.53262 0.80160 0.88544
 H142 H 0.50080 0.70755 0.85908
 H143 H 0.44026 0.78732 0.86548
 H144 H 0.47541 0.76004 0.94765
 C145 C -0.23797 0.64343 0.96366
 C146 C -0.21064 0.62110 0.96489
 C147 C -0.21200 0.60033 0.99011
 C148 C -0.24103 0.60384 1.01222
 C149 C -0.26694 0.62200 0.96264
 C150 C -0.26882 0.60115 0.98795
 C151 C -0.23859 0.65912 0.99747
 C152 C -0.24047 0.63859 1.02319
 H153 H -0.19256 0.62060 0.94621
 H154 H -0.24234 0.58684 1.03288
 H155 H -0.28499 0.62468 0.94424
 H156 H -0.23864 0.68432 0.99997
 C157 C -0.25864 0.36130 0.46991
 C158 C -0.28336 0.38666 0.46892
 C159 C -0.28154 0.40752 0.49412
 C160 C -0.25460 0.40134 0.51833
 C161 C -0.22755 0.37990 0.47072
 C162 C -0.22530 0.40100 0.49614
 C163 C -0.26161 0.34698 0.50221
 C164 C -0.25908 0.36890 0.52914
 H165 H -0.30030 0.38865 0.44915
 H166 H -0.25297 0.41881 0.53874
 H167 H -0.20884 0.37577 0.45345
 H168 H -0.26381 0.32187 0.50518
 C169 C 0.24794 -0.13402 -0.03524
 C170 C 0.22516 -0.10674 -0.03557
 C171 C 0.22687 -0.08799 -0.00854
 C172 C 0.25210 -0.09752 0.01621
 C173 C 0.28018 -0.11778 -0.03120
 C174 C 0.28246 -0.09854 -0.00415
 C175 C 0.24203 -0.15013 -0.00413
 C176 C 0.24463 -0.13003 0.02433
 H177 H 0.20818 -0.10328 -0.05503
 H178 H 0.25376 -0.08149 0.03789
 H179 H 0.29920 -0.12153 -0.04811
 H180 H 0.23784 -0.17518 -0.00273
 C181 C 0.26693 1.13716 0.46590
 C182 C 0.29230 1.11274 0.46959
 C183 C 0.28958 1.09484 0.49690
 C184 C 0.26128 1.10269 0.51845
 C185 C 0.23615 1.11826 0.46740
 C186 C 0.23285 1.10034 0.49512
 C187 C 0.26808 1.15611 0.49822
 C188 C 0.26482 1.13802 0.52589
 H189 H 0.31084 1.10954 0.45178
 H190 H 0.25907 1.08778 0.54078
 H191 H 0.21869 1.11975 0.44821
 H192 H 0.27040 1.18137 0.49864
 C193 C 0.15301 0.53134 0.24859
 C194 C 0.12487 0.52534 0.22577
 C195 C 0.11038 0.49693 0.23057
 C196 C 0.12514 0.47721 0.25787
 C197 C 0.14049 0.52664 0.28353
 C198 C 0.12557 0.49871 0.28830
 C199 C 0.17401 0.50322 0.24252
 C200 C 0.15969 0.47491 0.24766
 H201 H 0.11957 0.54003 0.20487
 H202 H 0.11307 0.45425 0.26181
 H203 H 0.14283 0.54425 0.30278
 H204 H 0.19800 0.50555 0.23426
 C205 C -0.15317 1.02126 0.26121
 C206 C -0.13004 1.01939 0.29014
 C207 C -0.10784 0.99732 0.28611
 C208 C -0.11123 0.97859 0.25367
 C209 C -0.13284 1.02601 0.23075
 C210 C -0.11106 1.00374 0.22628
 C211 C -0.16638 0.98968 0.25738
 C212 C -0.14324 0.96604 0.25371
 H213 H -0.13234 1.03295 0.31263
 H214 H -0.09316 0.96051 0.25035
 H215 H -0.13731 1.04398 0.21259
 H216 H -0.19111 0.98426 0.25963
 C217 C 0.34212 0.53410 -0.25550
 C218 C 0.36820 0.53224 -0.22949
 C219 C 0.38799 0.50805 -0.23448
 C220 C 0.37996 0.48794 -0.26490
 C221 C 0.35887 0.53516 -0.28863
 C222 C 0.37858 0.51119 -0.29377
 C223 C 0.32593 0.50169 -0.25486
 C224 C 0.34583 0.47757 -0.25963
 H225 H 0.36880 0.54651 -0.20732
 H226 H 0.39592 0.46808 -0.26885
 H227 H 0.35413 0.55260 -0.30727
 H228 H 0.30145 0.49809 -0.24900
 C229 C 0.66003 0.02682 -0.24618
 C230 C 0.63144 0.02590 -0.26899
 C231 C 0.61213 0.00046 -0.26458
 C232 C 0.62290 -0.02167 -0.23704
 C233 C 0.64672 0.02438 -0.21142
 C234 C 0.62749 -0.00073 -0.20626
 C235 C 0.67561 -0.00472 -0.25212
 C236 C 0.65636 -0.03018 -0.24734
 H237 H 0.62958 0.04027 -0.29072
 H238 H 0.60678 -0.04200 -0.23331
 H239 H 0.65312 0.04077 -0.19191
 H240 H 0.69952 -0.00664 -0.26047
 C241 C 0.01848 0.24813 0.84148
 C242 C 0.01640 0.27551 0.86588
 C243 C -0.01026 0.27502 0.88448
 C244 C -0.03242 0.24731 0.87613
 C245 C 0.01439 0.21867 0.86248
 C246 C -0.01220 0.21829 0.88087
 C247 C -0.00948 0.24928 0.82173
 C248 C -0.03742 0.24927 0.84053
 H249 H 0.03410 0.29392 0.86690
 H250 H -0.05386 0.24643 0.89144
 H251 H 0.03053 0.19945 0.86199
 H252 H -0.00935 0.25049 0.79499
 C253 C 0.52860 0.25798 0.14445
 C254 C 0.52428 0.23040 0.12060
 C255 C 0.49545 0.22851 0.10620
 C256 C 0.47350 0.25450 0.11741
 C257 C 0.52026 0.28676 0.12442
 C258 C 0.49151 0.28505 0.11026
 C259 C 0.50203 0.25443 0.16952
 C260 C 0.47315 0.25241 0.15543
 H261 H 0.54205 0.21300 0.11726
 H262 H 0.45038 0.25354 0.10508
 H263 H 0.53532 0.30741 0.12280
 H264 H 0.50570 0.25457 0.19598
 C265 C 0.01756 0.74566 0.66144
 C266 C 0.02027 0.71789 0.63769
 C267 C -0.00252 0.71612 0.61419
 C268 C -0.02593 0.74273 0.61649
 C269 C 0.01652 0.77455 0.63920
 C270 C -0.00609 0.77299 0.61565
 C271 C -0.01567 0.74256 0.67566
 C272 C -0.03842 0.74096 0.65186
 H273 H 0.03905 0.70148 0.63978
 H274 H -0.04446 0.74164 0.59725
 H275 H 0.03104 0.79529 0.64332
 H276 H -0.02052 0.74084 0.70181
 C277 C 0.51857 0.75390 0.35381
 C278 C 0.51995 0.77905 0.38094
 C279 C 0.49553 0.77749 0.40262
 C280 C 0.47208 0.75099 0.39510
 C281 C 0.51561 0.72271 0.37215
 C282 C 0.49147 0.72136 0.39391
 C283 C 0.48652 0.75794 0.33750
 C284 C 0.46215 0.75637 0.35923
 H285 H 0.53742 0.79772 0.38094
 H286 H 0.45224 0.74956 0.41274
 H287 H 0.53192 0.70386 0.36904
 H288 H 0.48367 0.76259 0.31144
 Zr289 Zr 0.03920 -0.00970 1.06095
 O290 O 0.06646 0.00741 1.10104
 O291 O 0.03285 -0.05685 1.07322
 O292 O 0.01445 -0.01346 1.10586
 O293 O 0.10169 -0.01647 1.00766
 O294 O -0.03208 0.00908 1.09392
 O295 O 0.08498 -0.02771 1.05982
 O296 O 0.00084 -0.07599 1.03244
 O297 O -0.00723 -0.01868 1.04676
 O298 O 0.04079 -0.03068 1.01427
 O299 O 0.01718 0.03392 1.06191
 O300 O 0.06403 0.02233 1.03087
 Zr301 Zr -0.00418 0.03729 0.96820
 Zr302 Zr -0.02850 0.02500 1.04498
 Zr303 Zr 0.06282 0.00200 0.98358
 Zr304 Zr -0.00530 -0.03802 0.99962
 O305 O 0.10314 0.02957 0.97282
 O306 O -0.05035 -0.05508 1.01302
 O307 O 0.01719 -0.00691 0.96676
 O308 O -0.02861 0.00475 0.99791
 O309 O -0.00608 0.05819 1.01489
 O310 O 0.04211 0.04568 0.98251
 C311 C 0.01638 -0.07876 1.05956
 C312 C 0.10586 -0.02738 1.03687
 C313 C -0.01338 -0.00520 1.11350
 O314 O -0.07099 -0.00066 1.05024
 O315 O -0.06542 0.04911 1.02217
 O316 O -0.04757 0.05957 0.97023
 C317 C -0.06820 0.06113 0.99317
 O318 O 0.06941 0.07091 1.07193
 Zr319 Zr 0.04026 0.06483 1.02979
 O320 O 0.00169 0.08520 0.95753
 O321 O -0.03887 0.06388 1.07528
 O322 O 0.01917 0.09907 1.06006
 O323 O 0.08414 0.08426 1.01546
 O324 O 0.03172 0.10400 1.00008
 C325 C 0.01635 0.10735 0.97315
 O326 O -0.03391 0.02153 0.92946
 O327 O 0.07551 -0.03923 0.95810
 O328 O 0.01889 0.03759 0.92219
 O329 O 0.06286 0.00988 0.93233
 O330 O 0.01557 -0.07426 0.97189
 O331 O -0.03067 -0.04616 0.95517
 C332 C 0.04422 0.02441 0.91296
 H333 H 0.05214 -0.05066 1.01426
 H334 H -0.05015 0.00116 0.98960
 H335 H 0.05362 0.05975 0.96721
 H336 H 0.01723 0.04290 1.08448
 H337 H -0.05098 -0.07796 1.00869
 H338 H -0.08416 0.01133 1.06570
 H339 H -0.06027 0.06012 1.08387
 H340 H 0.03148 0.11884 1.05768
 H341 H 0.00304 -0.09369 0.97562
 H342 H 0.09670 -0.03533 0.94901
 H343 H 0.11629 0.01688 0.95800
 H344 H 0.08435 0.10678 1.02153
 H345 H -0.03939 -0.06783 0.95512
 H346 H -0.03758 0.03972 0.91487
 H347 H 0.07082 -0.01072 1.11547
 H348 H 0.07433 0.09349 1.07514
 Zr349 Zr 0.52476 0.48225 0.54078
 O350 O 0.54867 0.50775 0.57833
 O351 O 0.52468 0.43651 0.55898
 O352 O 0.49959 0.48067 0.58550
 O353 O 0.58936 0.47576 0.49040
 O354 O 0.45078 0.49514 0.56999
 O355 O 0.57209 0.46987 0.54334
 O356 O 0.49721 0.40837 0.52024
 O357 O 0.48027 0.46532 0.52740
 O358 O 0.53038 0.45632 0.49738
 O359 O 0.49738 0.52224 0.53537
 O360 O 0.54611 0.51349 0.50700
 Zr361 Zr 0.47791 0.51056 0.44182
 Zr362 Zr 0.45370 0.50516 0.51944
 Zr363 Zr 0.54920 0.48750 0.46304
 Zr364 Zr 0.48599 0.44103 0.48318
 O365 O 0.58642 0.51871 0.45093
 O366 O 0.44348 0.41965 0.49894
 O367 O 0.50548 0.47035 0.44670
 O368 O 0.45703 0.47940 0.47559
 O369 O 0.47212 0.53680 0.48498
 O370 O 0.52245 0.52704 0.45555
 C371 C 0.51237 0.41099 0.54766
 C372 C 0.59351 0.46906 0.52113
 C373 C 0.47078 0.48635 0.59165
 O374 O 0.41434 0.47522 0.52666
 O375 O 0.41545 0.52343 0.49377
 O376 O 0.43185 0.52750 0.44042
 C377 C 0.41140 0.53105 0.46336
 O378 O 0.54421 0.56746 0.54003
 Zr379 Zr 0.51670 0.55174 0.49929
 O380 O 0.47879 0.55592 0.42275
 O381 O 0.43771 0.54502 0.54512
 O382 O 0.49036 0.58576 0.52467
 O383 O 0.55733 0.57581 0.48224
 O384 O 0.50212 0.58470 0.46387
 C385 C 0.48863 0.58183 0.43551
 O386 O 0.45143 0.48551 0.40588
 O387 O 0.56739 0.44614 0.44224
 O388 O 0.50188 0.50894 0.39663
 O389 O 0.54996 0.49127 0.41116
 O390 O 0.51169 0.40493 0.46038
 O391 O 0.46256 0.42473 0.43993
 C392 C 0.52975 0.50038 0.38977
 H393 H 0.54421 0.43820 0.50005
 H394 H 0.43620 0.47218 0.46770
 H395 H 0.53250 0.54064 0.43875
 H396 H 0.49577 0.53381 0.55651
 H397 H 0.44600 0.39665 0.49748
 H398 H 0.39933 0.48704 0.54024
 H399 H 0.41654 0.53964 0.55347
 H400 H 0.49934 0.60663 0.51898
 H401 H 0.50133 0.38470 0.46610
 H402 H 0.58826 0.45179 0.43328
 H403 H 0.60158 0.50650 0.43796
 H404 H 0.55366 0.59857 0.48462
 H405 H 0.45610 0.40251 0.44285
 H406 H 0.44538 0.50079 0.38875
 H407 H 0.55479 0.49251 0.59548
 H408 H 0.54557 0.59065 0.54003
 Zr409 Zr 0.48634 1.02539 0.55196
 O410 O 0.45881 1.01028 0.59250
 O411 O 0.49295 1.07374 0.56203
 O412 O 0.51104 1.02957 0.59676
 O413 O 0.42329 1.03147 0.49920
 O414 O 0.55541 1.00199 0.58788
 O415 O 0.44116 1.04418 0.55070
 O416 O 0.52619 1.08979 0.52121
 O417 O 0.53293 1.03319 0.53819
 O418 O 0.48499 1.04487 0.50486
 O419 O 0.50704 0.98097 0.55344
 O420 O 0.46122 0.99230 0.52266
 Zr421 Zr 0.52937 0.97641 0.45997
 Zr422 Zr 0.55303 0.98887 0.53764
 Zr423 Zr 0.46205 1.01169 0.47528
 Zr424 Zr 0.53129 1.05098 0.49027
 O425 O 0.42157 0.98377 0.46596
 O426 O 0.57657 1.06806 0.50315
 O427 O 0.50771 1.02020 0.45798
 O428 O 0.55421 1.00834 0.49016
 O429 O 0.53081 0.95595 0.50683
 O430 O 0.48296 0.96791 0.47398
 C431 C 0.50998 1.09461 0.54721
 C432 C 0.41989 1.04343 0.52822
 C433 C 0.53703 1.01801 0.60626
 O434 O 0.59507 1.01500 0.54431
 O435 O 0.58939 0.96362 0.51564
 O436 O 0.57333 0.95492 0.46254
 C437 C 0.59307 0.95229 0.48639
 O438 O 0.45341 0.94335 0.56156
 Zr439 Zr 0.48454 0.94922 0.52115
 O440 O 0.52541 0.92885 0.44972
 O441 O 0.56305 0.94956 0.56720
 O442 O 0.50411 0.91624 0.55384
 O443 O 0.44191 0.92861 0.50431
 O444 O 0.49704 0.90923 0.49289
 C445 C 0.51332 0.90623 0.46629
 O446 O 0.55861 0.99206 0.42105
 O447 O 0.44921 1.05208 0.44874
 O448 O 0.50573 0.97531 0.41387
 O449 O 0.46125 1.00206 0.42459
 O450 O 0.51151 1.08726 0.46191
 O451 O 0.55638 1.05634 0.44536
 C452 C 0.47974 0.98761 0.40500
 H453 H 0.47390 1.06498 0.50418
 H454 H 0.57589 1.01160 0.48224
 H455 H 0.47184 0.95334 0.45871
 H456 H 0.50627 0.97225 0.57604
 H457 H 0.57777 1.09057 0.49723
 H458 H 0.60829 1.00262 0.55929
 H459 H 0.58446 0.95292 0.57604
 H460 H 0.49251 0.89611 0.55072
 H461 H 0.52537 1.10604 0.46414
 H462 H 0.42791 1.04794 0.43996
 H463 H 0.40817 0.99596 0.45099
 H464 H 0.44256 0.90595 0.50945
 H465 H 0.56608 1.07757 0.44448
 H466 H 0.56254 0.97365 0.40672
 H467 H 0.45502 1.02892 0.60655
 H468 H 0.44778 0.92086 0.56398
 Zr469 Zr -0.03174 0.50694 1.05853
 O470 O -0.05959 0.48417 1.09467
 O471 O -0.02957 0.55326 1.07617
 O472 O -0.00891 0.50866 1.10464
 O473 O -0.09158 0.51723 1.00273
 O474 O 0.03845 0.48708 1.09426
 O475 O -0.07811 0.52300 1.05696
 O476 O 0.00289 0.57778 1.03942
 O477 O 0.01476 0.51975 1.04862
 O478 O -0.03221 0.53213 1.01444
 O479 O -0.00746 0.46456 1.05569
 O480 O -0.05301 0.47650 1.02348
 Zr481 Zr 0.01930 0.47269 0.96382
 Zr482 Zr 0.03848 0.47759 1.04331
 Zr483 Zr -0.05093 0.50159 0.97909
 Zr484 Zr 0.01404 0.54350 1.00384
 O485 O -0.08946 0.47291 0.96453
 O486 O 0.05680 0.56184 1.02292
 O487 O -0.00515 0.51507 0.96615
 O488 O 0.04013 0.50276 0.99906
 O489 O 0.02005 0.44690 1.00761
 O490 O -0.02706 0.45978 0.97395
 C491 C -0.01447 0.57745 1.06538
 C492 C -0.09756 0.52510 1.03279
 C493 C 0.01835 0.49972 1.11352
 O494 O 0.07887 0.50491 1.05474
 O495 O 0.07774 0.45758 1.02065
 O496 O 0.06452 0.45394 0.96616
 C497 C 0.08346 0.44999 0.99047
 O498 O -0.05790 0.42308 1.05682
 Zr499 Zr -0.02644 0.43572 1.01836
 O500 O 0.01855 0.42634 0.94732
 O501 O 0.04944 0.43623 1.06911
 O502 O -0.00506 0.40016 1.04636
 O503 O -0.06763 0.41502 0.99801
 O504 O -0.01220 0.40051 0.98478
 C505 C 0.00548 0.40149 0.95904
 O506 O 0.04909 0.49483 0.92897
 O507 O -0.06441 0.54378 0.95633
 O508 O -0.00198 0.47464 0.91676
 O509 O -0.04882 0.49714 0.92748
 O510 O -0.00690 0.58110 0.97855
 O511 O 0.04167 0.55694 0.96252
 C512 C -0.02842 0.48573 0.90770
 H513 H -0.04467 0.55138 1.01568
 H514 H 0.06186 0.50842 0.99285
 H515 H -0.03669 0.44648 0.95648
 H516 H -0.00830 0.45335 1.07703
 H517 H 0.05626 0.58496 1.02097
 H518 H 0.09202 0.49199 1.06926
 H519 H 0.07018 0.43996 1.07944
 H520 H -0.01536 0.37995 1.04025
 H521 H 0.00463 0.60059 0.98488
 H522 H -0.08507 0.53963 0.94597
 H523 H -0.10278 0.48593 0.95029
 H524 H -0.06616 0.39203 1.00070
 H525 H 0.04970 0.57866 0.96575
 H526 H 0.05508 0.47860 0.91269
 H527 H -0.06554 0.50035 1.11101
 H528 H -0.06153 0.40009 1.05655
 Zr529 Zr -0.02459 0.47859 0.45164
 O530 O -0.05047 0.50176 0.41484
 O531 O -0.02422 0.43267 0.43347
 O532 O -0.00079 0.47760 0.40580
 O533 O -0.08644 0.46814 0.50606
 O534 O 0.04831 0.49470 0.41945
 O535 O -0.07194 0.46369 0.45205
 O536 O 0.00574 0.40689 0.47084
 O537 O 0.02077 0.46484 0.46303
 O538 O -0.02760 0.45292 0.49545
 O539 O 0.00183 0.52050 0.45563
 O540 O -0.04514 0.50879 0.48650
 Zr541 Zr 0.02597 0.51143 0.54836
 Zr542 Zr 0.04651 0.50653 0.46955
 Zr543 Zr -0.04548 0.48330 0.53075
 Zr544 Zr 0.01770 0.44072 0.50747
 O545 O -0.08313 0.51214 0.54396
 O546 O 0.06003 0.42212 0.48965
 O547 O -0.00067 0.46929 0.54490
 O548 O 0.04592 0.48115 0.51361
 O549 O 0.02889 0.53736 0.50478
 O550 O -0.01953 0.52474 0.53683
 C551 C -0.01066 0.40814 0.44412
 C552 C -0.09207 0.46134 0.47559
 C553 C 0.02798 0.48398 0.39871
 O554 O 0.08678 0.47962 0.46135
 O555 O 0.08512 0.52839 0.49247
 O556 O 0.07188 0.53133 0.54684
 C557 C 0.09080 0.53642 0.52253
 O558 O -0.04607 0.56256 0.45311
 Zr559 Zr -0.01662 0.54917 0.49268
 O560 O 0.02553 0.55736 0.56628
 O561 O 0.05965 0.54679 0.44212
 O562 O 0.00788 0.58466 0.46623
 O563 O -0.05746 0.57020 0.51136
 O564 O -0.00212 0.58377 0.52742
 C565 C 0.01380 0.58236 0.55440
 O566 O 0.05477 0.48934 0.58340
 O567 O -0.06092 0.44098 0.55299
 O568 O 0.00353 0.50818 0.59477
 O569 O -0.04505 0.48830 0.58247
 O570 O -0.00609 0.40326 0.53158
 O571 O 0.04344 0.42634 0.54946
 C572 C -0.02417 0.49863 0.60294
 H573 H -0.04104 0.43386 0.49351
 H574 H 0.06727 0.47545 0.52046
 H575 H -0.02911 0.53792 0.55407
 H576 H 0.00227 0.53177 0.43431
 H577 H 0.05818 0.39898 0.49113
 H578 H 0.10075 0.49210 0.44675
 H579 H 0.08058 0.54285 0.43275
 H580 H -0.00154 0.60495 0.47210
 H581 H 0.00437 0.38363 0.52522
 H582 H -0.08169 0.44501 0.56271
 H583 H -0.09745 0.49921 0.55776
 H584 H -0.05478 0.59318 0.50879
 H585 H 0.05020 0.40448 0.54623
 H586 H 0.06083 0.50550 0.60000
 H587 H -0.05695 0.48569 0.39830
 H588 H -0.04801 0.58564 0.45314
 Zr589 Zr 0.48765 -0.02628 -0.03438
 O590 O 0.46261 -0.01635 -0.07814
 O591 O 0.49291 -0.07515 -0.03786
 O592 O 0.51369 -0.03444 -0.07773
 O593 O 0.42180 -0.02772 0.01559
 O594 O 0.56006 -0.00921 -0.06730
 O595 O 0.44157 -0.04421 -0.03364
 O596 O 0.52258 -0.08719 0.00701
 O597 O 0.53289 -0.03292 -0.01655
 O598 O 0.48282 -0.04034 0.01471
 O599 O 0.51061 0.01742 -0.04005
 O600 O 0.46248 0.00967 -0.01093
 Zr601 Zr 0.52829 0.03320 0.05320
 Zr602 Zr 0.55512 0.01094 -0.02019
 Zr603 Zr 0.46001 -0.00409 0.03862
 Zr604 Zr 0.52786 -0.04490 0.03314
 O605 O 0.42012 0.02428 0.04106
 O606 O 0.57294 -0.06335 0.02568
 O607 O 0.50447 -0.01016 0.05952
 O608 O 0.55282 -0.00252 0.02940
 O609 O 0.53300 0.04769 0.00419
 O610 O 0.48291 0.03954 0.03546
 C611 C 0.50789 -0.09448 -0.01962
 C612 C 0.41939 -0.04201 -0.01245
 C613 C 0.54147 -0.02547 -0.08596
 O614 O 0.59619 -0.01580 -0.02030
 O615 O 0.59196 0.03755 0.00041
 O616 O 0.57335 0.05470 0.04983
 C617 C 0.59476 0.05321 0.02747
 O618 O 0.46002 0.05331 -0.05720
 Zr619 Zr 0.48768 0.05252 -0.01362
 O620 O 0.52520 0.08179 0.05689
 O621 O 0.56872 0.04612 -0.05423
 O622 O 0.51111 0.08211 -0.04790
 O623 O 0.44441 0.07380 -0.00336
 O624 O 0.49821 0.09564 0.01072
 C625 C 0.51341 0.10206 0.03748
 O626 O 0.55541 0.02320 0.09545
 O627 O 0.44471 -0.04084 0.06999
 O628 O 0.50273 0.03857 0.09753
 O629 O 0.45681 0.01201 0.08749
 O630 O 0.50447 -0.07729 0.06459
 O631 O 0.55016 -0.04513 0.08004
 C632 C 0.47552 0.02800 0.10626
 H633 H 0.47080 -0.06025 0.01713
 H634 H 0.57386 -0.00484 0.03914
 H635 H 0.47155 0.05566 0.04800
 H636 H 0.51169 0.02350 -0.06358
 H637 H 0.57268 -0.08500 0.03444
 H638 H 0.61074 -0.00577 -0.03626
 H639 H 0.59029 0.04145 -0.06127
 H640 H 0.49987 0.10218 -0.04850
 H641 H 0.51726 -0.09635 0.06563
 H642 H 0.42312 -0.03600 0.07680
 H643 H 0.40552 0.01404 0.05682
 H644 H 0.44576 0.09557 -0.01173
 H645 H 0.55849 -0.06621 0.08431
 H646 H 0.55923 0.04334 0.10723
 H647 H 0.45850 -0.03652 -0.08983
 H648 H 0.45574 0.07530 -0.06311
 Zr649 Zr 0.53284 0.52063 -0.06272
 O650 O 0.55833 0.50524 -0.10425
 O651 O 0.52866 0.56802 -0.07327
 O652 O 0.50652 0.52622 -0.10646
 O653 O 0.59623 0.52789 -0.00943
 O654 O 0.46069 0.49982 -0.09595
 O655 O 0.57938 0.53836 -0.06166
 O656 O 0.49708 0.58591 -0.03232
 O657 O 0.48685 0.52853 -0.04785
 O658 O 0.53575 0.54046 -0.01550
 O659 O 0.50984 0.47674 -0.06485
 O660 O 0.55747 0.48843 -0.03386
 Zr661 Zr 0.48980 0.47050 0.02911
 Zr662 Zr 0.46465 0.48434 -0.04699
 Zr663 Zr 0.55740 0.50738 0.01412
 Zr664 Zr 0.49006 0.54685 -0.00030
 O665 O 0.59757 0.48043 0.02260
 O666 O 0.44531 0.56351 -0.01293
 O667 O 0.51214 0.51513 0.03155
 O668 O 0.46582 0.50352 0.00061
 O669 O 0.48677 0.45083 -0.01817
 O670 O 0.53567 0.46331 0.01391
 C671 C 0.51287 0.58952 -0.05929
 C672 C 0.60035 0.53866 -0.03872
 C673 C 0.47897 0.51618 -0.11464
 O674 O 0.42303 0.50988 -0.05149
 O675 O 0.42732 0.45951 -0.02430
 O676 O 0.44560 0.44797 0.02708
 C677 C 0.42455 0.44685 0.00441
 O678 O 0.56168 0.44180 -0.07634
 Zr679 Zr 0.53275 0.44557 -0.03398
 O680 O 0.49481 0.42218 0.03801
 O681 O 0.45276 0.44546 -0.07738
 O682 O 0.51085 0.41192 -0.06549
 O683 O 0.57610 0.42606 -0.02055
 O684 O 0.52331 0.40542 -0.00600
 C685 C 0.50855 0.40084 0.02109
 O686 O 0.46104 0.48437 0.06885
 O687 O 0.57055 0.54796 0.04139
 O688 O 0.51358 0.46977 0.07481
 O689 O 0.55900 0.49692 0.06488
 O690 O 0.51212 0.58269 0.02828
 O691 O 0.46523 0.55362 0.04446
 C692 C 0.53995 0.48199 0.08404
 H693 H 0.54764 0.56059 -0.01504
 H694 H 0.44450 0.50660 0.00929
 H695 H 0.54705 0.44893 0.02854
 H696 H 0.50942 0.46838 -0.08768
 H697 H 0.44539 0.58632 -0.00825
 H698 H 0.40913 0.49785 -0.06672
 H699 H 0.43129 0.44888 -0.08558
 H700 H 0.52292 0.39240 -0.06407
 H701 H 0.50013 0.60206 0.02505
 H702 H 0.59193 0.54453 0.04985
 H703 H 0.61130 0.49284 0.03767
 H704 H 0.57571 0.40385 -0.02783
 H705 H 0.45710 0.57517 0.04512
 H706 H 0.45735 0.46568 0.08292
 H707 H 0.56280 0.52397 -0.11801
 H708 H 0.56596 0.41945 -0.08070
 Zr709 Zr 0.02821 1.02458 0.46441
 O710 O 0.05460 1.01791 0.42086
 O711 O 0.01707 1.07228 0.46070
 O712 O 0.00083 1.02982 0.42122
 O713 O 0.09296 1.03296 0.51576
 O714 O -0.04043 0.99602 0.42892
 O715 O 0.07222 1.04757 0.46631
 O716 O -0.01380 1.08099 0.50553
 O717 O -0.01795 1.02512 0.48099
 O718 O 0.03031 1.03932 0.51366
 O719 O 0.01137 0.97829 0.45811
 O720 O 0.05722 0.99244 0.48881
 Zr721 Zr -0.00652 0.96071 0.55098
 Zr722 Zr -0.03411 0.97866 0.47678
 Zr723 Zr 0.05683 1.00644 0.53850
 Zr724 Zr -0.01547 1.03813 0.53072
 O725 O 0.09983 0.98330 0.54341
 O726 O -0.06212 1.05108 0.52093
 O727 O 0.01135 1.00679 0.55789
 O728 O -0.03464 0.99291 0.52630
 O729 O -0.00812 0.94521 0.50192
 O730 O 0.03984 0.96041 0.53463
 C731 C 0.00006 1.08984 0.47901
 C732 C 0.09442 1.04726 0.48780
 C733 C -0.02471 1.01601 0.41168
 O734 O -0.07809 1.00028 0.47438
 O735 O -0.06832 0.94881 0.49700
 O736 O -0.04924 0.93501 0.54736
 C737 C -0.07040 0.93436 0.52469
 O738 O 0.06583 0.94890 0.44194
 Zr739 Zr 0.03802 0.94681 0.48532
 O740 O 0.00401 0.91310 0.55509
 O741 O -0.04221 0.94098 0.44354
 O742 O 0.01883 0.91363 0.45145
 O743 O 0.08418 0.93279 0.49592
 O744 O 0.03458 0.90348 0.51023
 C745 C 0.02031 0.89500 0.53674
 O746 O -0.03574 0.96669 0.59260
 O747 O 0.06686 1.04551 0.56935
 O748 O 0.01765 0.95999 0.59644
 O749 O 0.06030 0.99186 0.58794
 O750 O 0.00298 1.07251 0.56373
 O751 O -0.03973 1.03581 0.57641
 C752 C 0.04285 0.97419 0.60630
 H753 H 0.03989 1.06049 0.51635
 H754 H -0.05609 0.99289 0.53539
 H755 H 0.05307 0.94631 0.54772
 H756 H 0.01166 0.97199 0.43457
 H757 H -0.06477 1.07259 0.52965
 H758 H -0.09104 0.98793 0.45852
 H759 H -0.06412 0.94242 0.43587
 H760 H 0.03266 0.89529 0.45125
 H761 H -0.01185 1.09002 0.56439
 H762 H 0.08874 1.04346 0.57690
 H763 H 0.11254 0.99562 0.55949
 H764 H 0.08632 0.91101 0.48774
 H765 H -0.05067 1.05571 0.58023
 H766 H -0.03688 0.94637 0.60444
 H767 H 0.05603 1.03841 0.40942
 H768 H 0.07272 0.92757 0.43612
 Zr769 Zr 0.71701 0.25665 0.20651
 O770 O 0.72458 0.28164 0.16205
 O771 O 0.66915 0.24547 0.20338
 O772 O 0.71102 0.22842 0.16388
 O773 O 0.71452 0.32453 0.25342
 O774 O 0.74015 0.18566 0.17523
 O775 O 0.69583 0.30090 0.20652
 O776 O 0.65917 0.21566 0.24890
 O777 O 0.71415 0.21112 0.22542
 O778 O 0.70270 0.26117 0.25558
 O779 O 0.76206 0.23861 0.20098
 O780 O 0.75060 0.28653 0.22923
 Zr781 Zr 0.78003 0.22555 0.29427
 Zr782 Zr 0.75947 0.19395 0.22219
 Zr783 Zr 0.73713 0.28847 0.27894
 Zr784 Zr 0.70179 0.21608 0.27496
 O785 O 0.76245 0.33140 0.28369
 O786 O 0.68707 0.16869 0.26854
 O787 O 0.73488 0.24388 0.30058
 O788 O 0.74600 0.19635 0.27171
 O789 O 0.79458 0.22118 0.24527
 O790 O 0.78208 0.27111 0.27548
 C791 C 0.65092 0.22887 0.22192
 C792 C 0.69906 0.32460 0.22611
 C793 C 0.72253 0.20173 0.15619
 O794 O 0.73574 0.14997 0.22259
 O795 O 0.78755 0.15997 0.24420
 O796 O 0.80355 0.18252 0.29268
 C797 C 0.80279 0.15985 0.27159
 O798 O 0.79403 0.29086 0.18054
 Zr799 Zr 0.79490 0.26665 0.22628
 O800 O 0.82837 0.23528 0.29655
 O801 O 0.79586 0.18346 0.18891
 O802 O 0.82768 0.24481 0.19497
 O803 O 0.80977 0.31399 0.23271
 O804 O 0.83756 0.26678 0.25214
 C805 C 0.84624 0.25278 0.27851
 O806 O 0.77286 0.19899 0.33776
 O807 O 0.69820 0.30081 0.30802
 O808 O 0.78453 0.25285 0.33765
 O809 O 0.75118 0.29304 0.32858
 O810 O 0.66833 0.23691 0.30627
 O811 O 0.70287 0.19463 0.32220
 C812 C 0.77003 0.27754 0.34688
 H813 H 0.68209 0.27110 0.25764
 H814 H 0.74514 0.17541 0.28211
 H815 H 0.79672 0.28513 0.28775
 H816 H 0.76822 0.23754 0.17748
 H817 H 0.66551 0.16658 0.27720
 H818 H 0.74681 0.13619 0.20693
 H819 H 0.79278 0.16123 0.18227
 H820 H 0.84646 0.25873 0.19390
 H821 H 0.65000 0.22239 0.30736
 H822 H 0.70155 0.32298 0.31469
 H823 H 0.75050 0.34479 0.29897
 H824 H 0.83147 0.31601 0.22439
 H825 H 0.68232 0.18453 0.32680
 H826 H 0.79327 0.19793 0.34931
 H827 H 0.70415 0.28303 0.15059
 H828 H 0.81562 0.29696 0.17416
 Zr829 Zr 0.76574 0.72750 0.70358
 O830 O 0.75908 0.69808 0.66184
 O831 O 0.81361 0.74020 0.69994
 O832 O 0.77143 0.75274 0.65944
 O833 O 0.77396 0.66564 0.75727
 O834 O 0.73712 0.79272 0.66438
 O835 O 0.79084 0.68580 0.70820
 O836 O 0.82134 0.77420 0.74292
 O837 O 0.76553 0.77474 0.71754
 O838 O 0.77991 0.72883 0.75282
 O839 O 0.71935 0.74175 0.69629
 O840 O 0.73348 0.69800 0.72877
 Zr841 Zr 0.70092 0.76329 0.78797
 Zr842 Zr 0.71898 0.78835 0.71246
 Zr843 Zr 0.74722 0.70165 0.77825
 Zr844 Zr 0.77813 0.77553 0.76732
 O845 O 0.72397 0.65805 0.78584
 O846 O 0.79051 0.82224 0.75438
 O847 O 0.74705 0.74818 0.79545
 O848 O 0.73285 0.79197 0.76196
 O849 O 0.68560 0.76196 0.73887
 O850 O 0.70118 0.71605 0.77385
 C851 C 0.83092 0.75872 0.71779
 C852 C 0.79020 0.66448 0.73056
 C853 C 0.75759 0.77702 0.64840
 O854 O 0.73986 0.83347 0.70765
 O855 O 0.68906 0.82255 0.73118
 O856 O 0.67516 0.80475 0.78223
 C857 C 0.67472 0.82522 0.75892
 O858 O 0.68968 0.68515 0.68249
 Zr859 Zr 0.68769 0.71498 0.72456
 O860 O 0.65399 0.74935 0.79369
 O861 O 0.68163 0.79282 0.67869
 O862 O 0.65496 0.73114 0.68952
 O863 O 0.67401 0.66860 0.73752
 O864 O 0.64404 0.71787 0.74916
 C865 C 0.63574 0.73182 0.77594
 O866 O 0.70631 0.79492 0.82813
 O867 O 0.78620 0.69384 0.80916
 O868 O 0.70044 0.74146 0.83468
 O869 O 0.73429 0.70130 0.82797
 O870 O 0.81202 0.76092 0.80193
 O871 O 0.77525 0.80238 0.81148
 C872 C 0.71648 0.71853 0.84562
 H873 H 0.80103 0.72051 0.75644
 H874 H 0.73260 0.81389 0.77000
 H875 H 0.68735 0.70267 0.78767
 H876 H 0.71332 0.73994 0.67276
 H877 H 0.81188 0.82658 0.76286
 H878 H 0.72771 0.84472 0.69074
 H879 H 0.68302 0.81442 0.66987
 H880 H 0.63654 0.71672 0.69012
 H881 H 0.82933 0.77670 0.80186
 H882 H 0.78390 0.67224 0.81783
 H883 H 0.73618 0.64676 0.80265
 H884 H 0.65223 0.66513 0.72984
 H885 H 0.79462 0.81519 0.81424
 H886 H 0.68598 0.79566 0.83983
 H887 H 0.77947 0.69688 0.65036
 H888 H 0.66849 0.67668 0.67746
 Zr889 Zr 0.22972 0.23255 0.79867
 O890 O 0.25521 0.21018 0.83634
 O891 O 0.18411 0.22913 0.81653
 O892 O 0.22650 0.25759 0.84369
 O893 O 0.22574 0.16783 0.74664
 O894 O 0.23827 0.30793 0.82881
 O895 O 0.21924 0.18406 0.79994
 O896 O 0.15659 0.25547 0.77759
 O897 O 0.21132 0.27574 0.78517
 O898 O 0.20523 0.22506 0.75447
 O899 O 0.26835 0.26338 0.79460
 O900 O 0.26233 0.21384 0.76532
 Zr901 Zr 0.25788 0.28233 0.70062
 Zr902 Zr 0.24989 0.30574 0.77856
 Zr903 Zr 0.23784 0.20893 0.72055
 Zr904 Zr 0.18852 0.26825 0.74031
 O905 O 0.27081 0.17395 0.71031
 O906 O 0.16492 0.30930 0.75472
 O907 O 0.21911 0.25127 0.70419
 O908 O 0.22541 0.30048 0.73405
 O909 O 0.28269 0.29003 0.74457
 O910 O 0.27617 0.23919 0.71440
 C911 C 0.15889 0.24049 0.80500
 C912 C 0.21882 0.16290 0.77715
 C913 C 0.23021 0.28703 0.85015
 O914 O 0.21838 0.34277 0.78528
 O915 O 0.26741 0.34543 0.75370
 O916 O 0.26967 0.33065 0.69956
 C917 C 0.27309 0.35087 0.72306
 O918 O 0.31460 0.21922 0.79934
 Zr919 Zr 0.29915 0.24659 0.75900
 O920 O 0.30388 0.28769 0.68431
 O921 O 0.28832 0.32473 0.80540
 O922 O 0.33130 0.27496 0.78626
 O923 O 0.32570 0.20860 0.74135
 O924 O 0.33202 0.26525 0.72550
 C925 C 0.32961 0.28000 0.69799
 O926 O 0.23284 0.30571 0.66328
 O927 O 0.19806 0.18826 0.69752
 O928 O 0.25866 0.25776 0.65527
 O929 O 0.24449 0.20761 0.66898
 O930 O 0.15355 0.23938 0.71787
 O931 O 0.17232 0.28962 0.69638
 C932 C 0.25278 0.22881 0.64798
 H933 H 0.18755 0.20992 0.75667
 H934 H 0.21727 0.32069 0.72623
 H935 H 0.29083 0.23068 0.69793
 H936 H 0.27931 0.26581 0.81602
 H937 H 0.14220 0.30470 0.75290
 H938 H 0.22929 0.35883 0.79903
 H939 H 0.28195 0.34547 0.81384
 H940 H 0.35255 0.26759 0.78113
 H941 H 0.13306 0.24836 0.72350
 H942 H 0.20451 0.16765 0.68880
 H943 H 0.25983 0.15764 0.69692
 H944 H 0.34804 0.21430 0.74463
 H945 H 0.14980 0.29403 0.69854
 H946 H 0.24828 0.31313 0.64667
 H947 H 0.23989 0.20281 0.85307
 H948 H 0.33772 0.21959 0.80002
 Zr949 Zr 0.27320 0.77495 0.29038
 O950 O 0.26600 0.80161 0.33381
 O951 O 0.32101 0.76492 0.29460
 O952 O 0.27865 0.74771 0.33366
 O953 O 0.28154 0.83934 0.23830
 O954 O 0.24554 0.70578 0.32587
 O955 O 0.29538 0.81955 0.28842
 O956 O 0.33020 0.73340 0.25018
 O957 O 0.27428 0.72845 0.27409
 O958 O 0.28804 0.77670 0.24126
 O959 O 0.22723 0.75754 0.29626
 O960 O 0.24099 0.80345 0.26541
 Zr961 Zr 0.21010 0.73865 0.20322
 Zr962 Zr 0.22809 0.71172 0.27781
 Zr963 Zr 0.25513 0.80269 0.21583
 Zr964 Zr 0.28745 0.73057 0.22453
 O965 O 0.23174 0.84562 0.21079
 O966 O 0.30078 0.68410 0.23515
 O967 O 0.25597 0.75684 0.19679
 O968 O 0.24245 0.71100 0.22841
 O969 O 0.19457 0.73727 0.25218
 O970 O 0.20939 0.78529 0.21939
 C971 C 0.33888 0.74800 0.27654
 C972 C 0.29539 0.84140 0.26653
 C973 C 0.26534 0.72189 0.34319
 O974 O 0.24992 0.66775 0.28042
 O975 O 0.19864 0.67691 0.25733
 O976 O 0.18469 0.69571 0.20690
 C977 C 0.18417 0.67460 0.22957
 O978 O 0.19737 0.81195 0.31193
 Zr979 Zr 0.19570 0.78371 0.26859
 O980 O 0.16251 0.74907 0.19823
 O981 O 0.19058 0.70363 0.31084
 O982 O 0.16264 0.76435 0.30208
 O983 O 0.18126 0.82982 0.25787
 O984 O 0.15270 0.77978 0.24314
 C985 C 0.14436 0.76553 0.21639
 O986 O 0.21651 0.70884 0.16194
 O987 O 0.29398 0.81258 0.18508
 O988 O 0.20956 0.76243 0.15754
 O989 O 0.24066 0.80575 0.16622
 O990 O 0.32152 0.74898 0.19156
 O991 O 0.28584 0.70539 0.17916
 C992 C 0.22341 0.78783 0.14770
 H993 H 0.30902 0.78652 0.23867
 H994 H 0.24265 0.68940 0.21941
 H995 H 0.19530 0.79836 0.20611
 H996 H 0.22090 0.75795 0.31975
 H997 H 0.32239 0.68160 0.22699
 H998 H 0.23771 0.65480 0.29625
 H999 H 0.19212 0.68169 0.31849
 H1000 H 0.14422 0.77804 0.30202
 H1001 H 0.33927 0.73443 0.19139
 H1002 H 0.29186 0.83445 0.17740
 H1003 H 0.24383 0.85831 0.19465
 H1004 H 0.15953 0.83179 0.26588
 H1005 H 0.30581 0.69453 0.17587
 H1006 H 0.19636 0.70746 0.14982
 H1007 H 0.28639 0.80345 0.34540
 H1008 H 0.17600 0.81854 0.31765
 Zr1009 Zr 0.22931 0.77979 0.68865
 O1010 O 0.24301 0.80472 0.64578
 O1011 O 0.18131 0.77443 0.68099
 O1012 O 0.22271 0.75273 0.64500
 O1013 O 0.22973 0.84542 0.73890
 O1014 O 0.24438 0.70595 0.65791
 O1015 O 0.21344 0.82653 0.68882
 O1016 O 0.16397 0.74601 0.72517
 O1017 O 0.21995 0.73434 0.70590
 O1018 O 0.21242 0.78467 0.73682
 O1019 O 0.27189 0.75635 0.68547
 O1020 O 0.26418 0.80513 0.71493
 Zr1021 Zr 0.28253 0.73976 0.77960
 Zr1022 Zr 0.26296 0.71184 0.70552
 Zr1023 Zr 0.24800 0.80702 0.76385
 Zr1024 Zr 0.20472 0.73953 0.75440
 O1025 O 0.27754 0.84688 0.77085
 O1026 O 0.18528 0.69443 0.74423
 O1027 O 0.23919 0.76244 0.78349
 O1028 O 0.24681 0.71498 0.75404
 O1029 O 0.29912 0.73473 0.73142
 O1030 O 0.29095 0.78510 0.76226
 C1031 C 0.15980 0.76014 0.69743
 C1032 C 0.21681 0.84863 0.71045
 C1033 C 0.23013 0.72429 0.63803
 O1034 O 0.23546 0.67009 0.70466
 O1035 O 0.28758 0.67534 0.72808
 O1036 O 0.30267 0.69531 0.77808
 C1037 C 0.30172 0.67356 0.75608
 O1038 O 0.30862 0.80747 0.66991
 Zr1039 Zr 0.30576 0.78017 0.71360
 O1040 O 0.33154 0.74429 0.78542
 O1041 O 0.29903 0.69825 0.67316
 O1042 O 0.33651 0.75681 0.68121
 O1043 O 0.32760 0.82410 0.72433
 O1044 O 0.34696 0.77135 0.73959
 C1045 C 0.35248 0.75730 0.76683
 O1046 O 0.26947 0.71271 0.82126
 O1047 O 0.20931 0.82280 0.79132
 O1048 O 0.28751 0.76542 0.82402
 O1049 O 0.25921 0.80922 0.81461
 O1050 O 0.17246 0.76345 0.78460
 O1051 O 0.19913 0.71592 0.80017
 C1052 C 0.27529 0.79130 0.83339
 H1053 H 0.19302 0.79686 0.73785
 H1054 H 0.24326 0.69395 0.76373
 H1055 H 0.30657 0.79687 0.77571
 H1056 H 0.27916 0.75496 0.66234
 H1057 H 0.16287 0.69479 0.75028
 H1058 H 0.24577 0.65547 0.68926
 H1059 H 0.29412 0.67639 0.66625
 H1060 H 0.35653 0.76888 0.68097
 H1061 H 0.15222 0.75185 0.78318
 H1062 H 0.21457 0.84439 0.79885
 H1063 H 0.26639 0.86127 0.78580
 H1064 H 0.34938 0.82332 0.71618
 H1065 H 0.17718 0.70847 0.80241
 H1066 H 0.28867 0.70925 0.83437
 H1067 H 0.22380 0.80858 0.63280
 H1068 H 0.33083 0.81178 0.66448
 Zr1069 Zr 0.26115 0.22285 0.19371
 O1070 O 0.23856 0.19620 0.15619
 O1071 O 0.30742 0.22458 0.17705
 O1072 O 0.26384 0.24731 0.14840
 O1073 O 0.27005 0.16129 0.24799
 O1074 O 0.24281 0.29481 0.16007
 O1075 O 0.27648 0.17594 0.19427
 O1076 O 0.33208 0.25608 0.21503
 O1077 O 0.27432 0.26913 0.20524
 O1078 O 0.28598 0.22114 0.23811
 O1079 O 0.21916 0.24754 0.19680
 O1080 O 0.23048 0.20108 0.22786
 Zr1081 Zr 0.22716 0.27231 0.28961
 Zr1082 Zr 0.23251 0.29322 0.21076
 Zr1083 Zr 0.25527 0.20191 0.27261
 Zr1084 Zr 0.29775 0.26722 0.25025
 O1085 O 0.22617 0.16339 0.28606
 O1086 O 0.31658 0.31020 0.23231
 O1087 O 0.26912 0.24741 0.28706
 O1088 O 0.25739 0.29374 0.25532
 O1089 O 0.20164 0.27424 0.24561
 O1090 O 0.21389 0.22614 0.27797
 C1091 C 0.33163 0.23909 0.18866
 C1092 C 0.27795 0.15579 0.21787
 C1093 C 0.25553 0.27513 0.14032
 O1094 O 0.25990 0.33407 0.20158
 O1095 O 0.21184 0.33176 0.23427
 O1096 O 0.20793 0.31746 0.28833
 C1097 C 0.20381 0.33678 0.26443
 O1098 O 0.17724 0.19755 0.19372
 Zr1099 Zr 0.19009 0.22801 0.23332
 O1100 O 0.18129 0.27049 0.30652
 O1101 O 0.19183 0.30488 0.18416
 O1102 O 0.15500 0.25066 0.20584
 O1103 O 0.16893 0.18637 0.25199
 O1104 O 0.15516 0.24176 0.26721
 C1105 C 0.15642 0.25804 0.29412
 O1106 O 0.24926 0.30186 0.32506
 O1107 O 0.29716 0.18728 0.29506
 O1108 O 0.22935 0.25032 0.33618
 O1109 O 0.25096 0.20315 0.32432
 O1110 O 0.33479 0.24542 0.27559
 O1111 O 0.31115 0.29417 0.29236
 C1112 C 0.24010 0.22353 0.34463
 H1113 H 0.30498 0.20838 0.23677
 H1114 H 0.26306 0.31540 0.26224
 H1115 H 0.20061 0.21614 0.29508
 H1116 H 0.20817 0.24732 0.17528
 H1117 H 0.33960 0.30937 0.23453
 H1118 H 0.24721 0.34777 0.18740
 H1119 H 0.19562 0.32607 0.17488
 H1120 H 0.13472 0.24046 0.21149
 H1121 H 0.35437 0.25693 0.26988
 H1122 H 0.29270 0.16648 0.30496
 H1123 H 0.23893 0.14962 0.30008
 H1124 H 0.14605 0.18820 0.24917
 H1125 H 0.33285 0.30215 0.28954
 H1126 H 0.23316 0.30756 0.34148
 H1127 H 0.25485 0.19050 0.13998
 H1128 H 0.15427 0.19435 0.19354
 Zr1129 Zr 0.72808 0.72544 0.29897
 O1130 O 0.75036 0.69891 0.33587
 O1131 O 0.68206 0.72700 0.31690
 O1132 O 0.72810 0.74929 0.34500
 O1133 O 0.71749 0.66350 0.24375
 O1134 O 0.74572 0.79842 0.33177
 O1135 O 0.71297 0.67778 0.29786
 O1136 O 0.65708 0.75799 0.27992
 O1137 O 0.71537 0.77130 0.28788
 O1138 O 0.70238 0.72283 0.25512
 O1139 O 0.77039 0.75132 0.29514
 O1140 O 0.75805 0.70480 0.26399
 Zr1141 Zr 0.76096 0.77623 0.20264
 Zr1142 Zr 0.75742 0.79652 0.28165
 Zr1143 Zr 0.73250 0.70470 0.21974
 Zr1144 Zr 0.69090 0.76856 0.24345
 O1145 O 0.76073 0.66650 0.20648
 O1146 O 0.67287 0.81144 0.26099
 O1147 O 0.71881 0.74980 0.20583
 O1148 O 0.73140 0.79636 0.23783
 O1149 O 0.78759 0.77881 0.24596
 O1150 O 0.77398 0.73045 0.21384
 C1151 C 0.65794 0.74155 0.30649
 C1152 C 0.71085 0.65757 0.27408
 C1153 C 0.73506 0.77803 0.35240
 O1154 O 0.73175 0.83774 0.28956
 O1155 O 0.78161 0.83411 0.25900
 O1156 O 0.77582 0.82402 0.20407
 C1157 C 0.78427 0.84186 0.22845
 O1158 O 0.81240 0.70331 0.29718
 Zr1159 Zr 0.79870 0.73288 0.25787
 O1160 O 0.80718 0.77655 0.18580
 O1161 O 0.79725 0.80875 0.31031
 O1162 O 0.83425 0.75751 0.28436
 O1163 O 0.81873 0.69140 0.23913
 O1164 O 0.83324 0.74650 0.22290
 C1165 C 0.83193 0.76349 0.19667
 O1166 O 0.73960 0.80359 0.16576
 O1167 O 0.69005 0.69007 0.19716
 O1168 O 0.75803 0.75331 0.15635
 O1169 O 0.73812 0.70460 0.16821
 O1170 O 0.65296 0.74506 0.21962
 O1171 O 0.67734 0.79421 0.20111
 C1172 C 0.74884 0.72540 0.14806
 H1173 H 0.68325 0.70954 0.25699
 H1174 H 0.72555 0.81781 0.23137
 H1175 H 0.78707 0.72078 0.19663
 H1176 H 0.78175 0.75147 0.31644
 H1177 H 0.64984 0.81017 0.25863
 H1178 H 0.74466 0.85152 0.30410
 H1179 H 0.79400 0.83014 0.31911
 H1180 H 0.85445 0.74816 0.27828
 H1181 H 0.63371 0.75633 0.22547
 H1182 H 0.69368 0.66915 0.18734
 H1183 H 0.74773 0.65226 0.19250
 H1184 H 0.84171 0.69369 0.24149
 H1185 H 0.65562 0.80127 0.20392
 H1186 H 0.75609 0.80976 0.14972
 H1187 H 0.73410 0.69271 0.35214
 H1188 H 0.83542 0.70150 0.29713
 Zr1189 Zr 0.75490 0.28122 0.80499
 O1190 O 0.73000 0.30507 0.84214
 O1191 O 0.80017 0.28165 0.82428
 O1192 O 0.75774 0.25558 0.84948
 O1193 O 0.76461 0.34504 0.75301
 O1194 O 0.73981 0.20650 0.83568
 O1195 O 0.76923 0.32895 0.80648
 O1196 O 0.82630 0.25341 0.78571
 O1197 O 0.77045 0.23670 0.79192
 O1198 O 0.78056 0.28664 0.76137
 O1199 O 0.71433 0.25297 0.80009
 O1200 O 0.72412 0.30168 0.77085
 Zr1201 Zr 0.72530 0.23258 0.70646
 Zr1202 Zr 0.73016 0.20915 0.78470
 Zr1203 Zr 0.74979 0.30472 0.72671
 Zr1204 Zr 0.79450 0.24224 0.74767
 O1205 O 0.71944 0.34185 0.71602
 O1206 O 0.81512 0.19985 0.76272
 O1207 O 0.76591 0.26100 0.71084
 O1208 O 0.75571 0.21250 0.74071
 O1209 O 0.69910 0.22663 0.74968
 O1210 O 0.70973 0.27702 0.71966
 C1211 C 0.82474 0.26853 0.81325
 C1212 C 0.77178 0.34976 0.78357
 C1213 C 0.75121 0.22670 0.85638
 O1214 O 0.75947 0.17072 0.79351
 O1215 O 0.71308 0.16958 0.75879
 O1216 O 0.70854 0.18573 0.70538
 C1217 C 0.70588 0.16500 0.72826
 O1218 O 0.67046 0.29934 0.80381
 Zr1219 Zr 0.68527 0.27129 0.76352
 O1220 O 0.68004 0.23184 0.68761
 O1221 O 0.68942 0.19280 0.80917
 O1222 O 0.65085 0.24463 0.78919
 O1223 O 0.66188 0.31130 0.74601
 O1224 O 0.65194 0.25553 0.72817
 C1225 C 0.65447 0.24142 0.70009
 O1226 O 0.74917 0.20610 0.67049
 O1227 O 0.79114 0.32246 0.70446
 O1228 O 0.72820 0.25648 0.66101
 O1229 O 0.74431 0.30613 0.67485
 O1230 O 0.83177 0.26836 0.72604
 O1231 O 0.80990 0.21934 0.70413
 C1232 C 0.73581 0.28499 0.65362
 H1233 H 0.79924 0.30047 0.76394
 H1234 H 0.76267 0.19173 0.73303
 H1235 H 0.69624 0.28656 0.70275
 H1236 H 0.70297 0.25146 0.82131
 H1237 H 0.83808 0.20300 0.76148
 H1238 H 0.74713 0.15527 0.80653
 H1239 H 0.69413 0.17174 0.81785
 H1240 H 0.63023 0.25316 0.78330
 H1241 H 0.85143 0.25800 0.73222
 H1242 H 0.78627 0.34343 0.69563
 H1243 H 0.73163 0.35725 0.70279
 H1244 H 0.63915 0.30714 0.74849
 H1245 H 0.83197 0.21333 0.70684
 H1246 H 0.73370 0.19997 0.65326
 H1247 H 0.74544 0.31138 0.85930
 H1248 H 0.64736 0.30001 0.80402
 C1249 C 0.40724 1.01670 0.31904
 C1250 C 0.43151 0.99866 0.32635
 C1251 C 0.44620 1.00234 0.35909
 C1252 C 0.46958 0.98475 0.37016
 H1253 H 0.43917 0.98079 0.30929
 H1254 H 0.43637 1.01973 0.37546
 H1255 H 0.40018 1.03412 0.33697
 H1256 H 0.48048 0.96787 0.35405
 C1257 C -0.09595 0.51496 0.81670
 C1258 C -0.07271 0.49681 0.82674
 C1259 C -0.06053 0.50068 0.86056
 C1260 C -0.03664 0.48432 0.87230
 H1261 H -0.06420 0.47828 0.81097
 H1262 H -0.07250 0.51669 0.87685
 H1263 H -0.10443 0.53270 0.83353
 H1264 H -0.02375 0.46904 0.85608
 C1265 C 0.10520 -0.01140 0.81931
 C1266 C 0.08489 0.00947 0.83064
 C1267 C 0.07267 0.00614 0.86445
 C1268 C 0.05284 0.02643 0.87777
 H1269 H 0.07946 0.02998 0.81620
 H1270 H 0.08132 -0.01283 0.87944
 H1271 H 0.10993 -0.03179 0.83428
 H1272 H 0.04305 0.04478 0.86278
 C1273 C 0.60251 0.47643 0.30197
 C1274 C 0.57784 0.49284 0.31121
 C1275 C 0.56518 0.48815 0.34457
 C1276 C 0.53953 0.50229 0.35501
 H1277 H 0.56848 0.51067 0.29523
 H1278 H 0.57796 0.47349 0.36149
 H1279 H 0.61166 0.45935 0.31905
 H1280 H 0.52594 0.51609 0.33803
 C1281 C 0.61228 0.49540 0.17778
 C1282 C 0.58418 0.48587 0.16655
 C1283 C 0.57590 0.48955 0.13138
 C1284 C 0.54877 0.47838 0.11912
 H1285 H 0.56743 0.47477 0.18296
 H1286 H 0.59241 0.50151 0.11527
 H1287 H 0.62902 0.50529 0.16049
 H1288 H 0.53246 0.46626 0.13531
 C1289 C 0.11632 0.99274 0.69588
 C1290 C 0.08679 0.98234 0.68546
 C1291 C 0.07925 0.98343 0.65199
 C1292 C 0.05146 0.97049 0.63935
 H1293 H 0.07001 0.97283 0.70290
 H1294 H 0.09571 0.99466 0.63524
 H1295 H 0.13320 0.99931 0.67705
 H1296 H 0.03594 0.95742 0.65561
 C1297 C -0.10141 0.49540 0.69230
 C1298 C -0.07139 0.49892 0.68339
 C1299 C -0.06215 0.49482 0.64855
 C1300 C -0.03286 0.50059 0.63820
 H1301 H -0.05368 0.50562 0.70127
 H1302 H -0.08002 0.48777 0.63088
 H1303 H -0.11858 0.48944 0.67350
 H1304 H -0.01515 0.50815 0.65581
 C1305 C 0.39778 0.01804 0.19402
 C1306 C 0.42651 0.02782 0.18518
 C1307 C 0.43636 0.02542 0.15046
 C1308 C 0.46504 0.03413 0.14037
 H1309 H 0.44306 0.03666 0.20332
 H1310 H 0.41994 0.01502 0.13297
 H1311 H 0.38156 0.01015 0.17503
 H1312 H 0.48140 0.04483 0.15769
 C1313 C 0.31086 0.43185 0.00308
 C1314 C 0.33906 0.41935 0.00684
 C1315 C 0.36773 0.43816 0.00062
 C1316 C 0.39549 0.42928 0.01197
 H1317 H 0.34109 0.39479 0.01299
 H1318 H 0.36612 0.45956 -0.01358
 H1319 H 0.30952 0.45634 -0.00370
 H1320 H 0.39683 0.40915 0.02811
 C1321 C -0.18222 0.92094 0.50824
 C1322 C -0.15585 0.90826 0.51934
 C1323 C -0.12616 0.92584 0.51644
 C1324 C -0.09967 0.91667 0.53076
 H1325 H -0.15570 0.88460 0.52885
 H1326 H -0.12593 0.94695 0.50159
 H1327 H -0.18120 0.94441 0.49804
 H1328 H -0.09972 0.89679 0.54730
 C1329 C -0.18168 0.07295 0.99060
 C1330 C -0.15330 0.08652 0.98859
 C1331 C -0.12500 0.06811 0.99465
 C1332 C -0.09669 0.07853 0.98556
 H1333 H -0.15099 0.11157 0.98473
 H1334 H -0.12735 0.04572 1.00708
 H1335 H -0.18317 0.04791 0.99509
 H1336 H -0.09442 0.09971 0.97102
 C1337 C 0.30957 0.57182 0.49371
 C1338 C 0.33102 0.56868 0.46996
 C1339 C 0.35904 0.55010 0.47671
 C1340 C 0.38169 0.54601 0.45442
 H1341 H 0.32867 0.58021 0.44640
 H1342 H 0.36178 0.54064 0.50133
 H1343 H 0.31257 0.55880 0.51641
 H1344 H 0.37904 0.55518 0.42969
 C1345 C 0.19334 0.57579 0.48634
 C1346 C 0.17133 0.57644 0.50979
 C1347 C 0.14156 0.55886 0.50480
 C1348 C 0.12084 0.55331 0.52910
 H1349 H 0.17570 0.58892 0.53274
 H1350 H 0.13672 0.54992 0.48019
 H1351 H 0.18956 0.56136 0.46455
 H1352 H 0.12575 0.56170 0.55389
 C1353 C 0.70354 0.07205 -0.00105
 C1354 C 0.67676 0.08231 0.01520
 C1355 C 0.64895 0.06489 0.01240
 C1356 C 0.62294 0.06977 0.03265
 H1357 H 0.67776 0.10272 0.03117
 H1358 H 0.64790 0.04614 -0.00576
 H1359 H 0.70268 0.04891 -0.01227
 H1360 H 0.62490 0.08594 0.05329
 C1361 C 0.70112 0.92506 0.51007
 C1362 C 0.67485 0.91800 0.49356
 C1363 C 0.64622 0.93560 0.50024
 C1364 C 0.62180 0.93481 0.47957
 H1365 H 0.67466 0.90000 0.47462
 H1366 H 0.64544 0.95000 0.52234
 H1367 H 0.70134 0.94459 0.52730
 H1368 H 0.62310 0.92142 0.45683
 C1369 C 0.19394 0.42938 1.01198
 C1370 C 0.16770 0.42137 0.99581
 C1371 C 0.13795 0.43664 1.00371
 C1372 C 0.11361 0.43531 0.98291
 H1373 H 0.16827 0.40416 0.97609
 H1374 H 0.13618 0.44962 1.02668
 H1375 H 0.19347 0.44823 1.02998
 H1376 H 0.11603 0.42358 0.95930
 C1377 C -0.00584 0.29505 0.42189
 C1378 C -0.01025 0.32427 0.41146
 C1379 C -0.00700 0.35129 0.43394
 C1380 C -0.01436 0.37984 0.42358
 H1381 H -0.01564 0.32829 0.38567
 H1382 H 0.00159 0.34786 0.45883
 H1383 H -0.00008 0.29108 0.44758
 H1384 H -0.02384 0.38266 0.39895
 C1385 C 0.47615 -0.18509 -0.08646
 C1386 C 0.49370 -0.17267 -0.06243
 C1387 C 0.49024 -0.13987 -0.05250
 C1388 C 0.50882 -0.12753 -0.02932
 H1389 H 0.51207 -0.18637 -0.05147
 H1390 H 0.47313 -0.12559 -0.06479
 H1391 H 0.45820 -0.17111 -0.09776
 H1392 H 0.52536 -0.14228 -0.01674
 C1393 C -0.00352 -0.19188 1.07092
 C1394 C 0.00275 -0.16383 1.08426
 C1395 C 0.00335 -0.13515 1.06433
 C1396 C 0.01536 -0.10873 1.07717
 H1397 H 0.00795 -0.16208 1.11042
 H1398 H -0.00562 -0.13571 1.03930
 H1399 H -0.00909 -0.19370 1.04486
 H1400 H 0.02518 -0.10903 1.10187
 C1401 C 0.49914 0.29951 0.57487
 C1402 C 0.50850 0.32870 0.58238
 C1403 C 0.50714 0.35442 0.55864
 C1404 C 0.51593 0.38320 0.56827
 H1405 H 0.51543 0.33417 0.60757
 H1406 H 0.49779 0.35017 0.53411
 H1407 H 0.49107 0.29386 0.55014
 H1408 H 0.52560 0.38676 0.59280
 C1409 C 0.47898 1.18761 0.61106
 C1410 C 0.49434 1.17317 0.58707
 C1411 C 0.49248 1.13913 0.58161
 C1412 C 0.51139 1.12702 0.55907
 H1413 H 0.50956 1.18693 0.57111
 H1414 H 0.47545 1.12465 0.59457
 H1415 H 0.46551 1.17415 0.62885
 H1416 H 0.52799 1.14244 0.54660
 C1417 C -0.00553 0.69115 1.07424
 C1418 C -0.01182 0.66409 1.08948
 C1419 C -0.00811 0.63440 1.07145
 C1420 C -0.01778 0.60696 1.08393
 H1421 H -0.01995 0.66362 1.11475
 H1422 H 0.00239 0.63517 1.04711
 H1423 H 0.00124 0.69064 1.04845
 H1424 H -0.02916 0.60624 1.10781
 C1425 C 0.48832 0.70045 -0.07353
 C1426 C 0.50005 0.67195 -0.08423
 C1427 C 0.49882 0.64518 -0.06455
 C1428 C 0.51344 0.61822 -0.07551
 H1429 H 0.51149 0.67041 -0.10792
 H1430 H 0.48684 0.64544 -0.04100
 H1431 H 0.47965 0.70196 -0.04844
 H1432 H 0.52624 0.61938 -0.09862
 C1433 C 0.00480 1.17844 0.40315
 C1434 C -0.00002 1.16749 0.43348
 C1435 C 0.00533 1.13444 0.44110
 C1436 C -0.00394 1.12273 0.46995
 H1437 H -0.00890 1.18261 0.45268
 H1438 H 0.01626 1.11957 0.42288
 H1439 H 0.01215 1.16255 0.38386
 H1440 H -0.01561 1.13773 0.48753
 C1441 C 0.76392 0.66579 0.93530
 C1442 C 0.74026 0.68423 0.92721
 C1443 C 0.74087 0.69958 0.89504
 C1444 C 0.71541 0.71125 0.88094
 H1445 H 0.71942 0.68489 0.94234
 H1446 H 0.76231 0.69838 0.88085
 H1447 H 0.78429 0.66499 0.91944
 H1448 H 0.69394 0.71391 0.89467
 C1449 C 0.27112 0.15548 0.43442
 C1450 C 0.25290 0.17899 0.42520
 C1451 C 0.25567 0.19102 0.39124
 C1452 C 0.23918 0.21503 0.37994
 H1453 H 0.23518 0.18775 0.44171
 H1454 H 0.27113 0.17894 0.37449
 H1455 H 0.28823 0.14708 0.41693
 H1456 H 0.22445 0.22808 0.39657
 C1457 C 0.73701 0.33898 0.44120
 C1458 C 0.75978 0.32211 0.42786
 C1459 C 0.75415 0.30661 0.39580
 C1460 C 0.77549 0.28919 0.38074
 H1461 H 0.78276 0.32174 0.43904
 H1462 H 0.73214 0.31078 0.38341
 H1463 H 0.71401 0.33771 0.42990
 H1464 H 0.79702 0.28357 0.39326
 C1465 C 0.24324 0.84590 0.93405
 C1466 C 0.26598 0.83138 0.91765
 C1467 C 0.25996 0.81894 0.88405
 C1468 C 0.28050 0.80124 0.86799
 H1469 H 0.28929 0.83028 0.92790
 H1470 H 0.23844 0.82518 0.87178
 H1471 H 0.21986 0.84493 0.92365
 H1472 H 0.30126 0.79346 0.88062
 C1473 C 0.24189 0.86056 0.05735
 C1474 C 0.23159 0.83102 0.06805
 C1475 C 0.23224 0.82404 0.10172
 C1476 C 0.21979 0.79607 0.11450
 H1477 H 0.22285 0.81366 0.05061
 H1478 H 0.24289 0.84102 0.11850
 H1479 H 0.24779 0.87793 0.07610
 H1480 H 0.20720 0.78004 0.09818
 C1481 C 0.74116 0.36079 0.56281
 C1482 C 0.73719 0.33019 0.57474
 C1483 C 0.73933 0.32359 0.60847
 C1484 C 0.73416 0.29310 0.62023
 H1485 H 0.73226 0.31101 0.55788
 H1486 H 0.74480 0.34244 0.62569
 H1487 H 0.74493 0.37951 0.58064
 H1488 H 0.72783 0.27476 0.60268
 C1489 C 0.26262 0.14988 0.56025
 C1490 C 0.26105 0.18019 0.56873
 C1491 C 0.25686 0.18930 0.60363
 C1492 C 0.25650 0.21941 0.61308
 H1493 H 0.26226 0.19836 0.55021
 H1494 H 0.25422 0.17096 0.62192
 H1495 H 0.26106 0.13240 0.57953
 H1496 H 0.25994 0.23768 0.59486
 C1497 C 0.75607 0.64810 0.05824
 C1498 C 0.75543 0.67808 0.06833
 C1499 C 0.75073 0.68641 0.10321
 C1500 C 0.75192 0.71642 0.11312
 H1501 H 0.75832 0.69709 0.05104
 H1502 H 0.74682 0.66780 0.12097
 H1503 H 0.75338 0.62960 0.07632
 H1504 H 0.75683 0.73478 0.09534
 C1505 C 0.17035 0.56230 0.24542
 C1506 C 0.15779 0.58873 0.23418
 C1507 C 0.17526 0.61860 0.23775
 C1508 C 0.16646 0.64519 0.22334
 H1509 H 0.13437 0.58880 0.22413
 H1510 H 0.19607 0.61883 0.25308
 H1511 H 0.19363 0.56348 0.25602
 H1512 H 0.14687 0.64511 0.20637
 C1513 C 0.68232 0.05475 0.75153
 C1514 C 0.67813 0.07984 0.73237
 C1515 C 0.69628 0.10897 0.73823
 C1516 C 0.69273 0.13407 0.71901
 H1517 H 0.65972 0.08040 0.71420
 H1518 H 0.71113 0.11058 0.75990
 H1519 H 0.70137 0.05541 0.76921
 H1520 H 0.67882 0.13219 0.69669
 C1521 C 0.82339 0.04711 0.26426
 C1522 C 0.83260 0.07632 0.27264
 C1523 C 0.81239 0.10339 0.26780
 C1524 C 0.82078 0.13180 0.27933
 H1525 H 0.85635 0.08072 0.28102
 H1526 H 0.79104 0.10031 0.25364
 H1527 H 0.79995 0.04301 0.25482
 H1528 H 0.84122 0.13452 0.29497
 C1529 C 0.32012 0.56096 0.74810
 C1530 C 0.33051 0.58992 0.75528
 C1531 C 0.31060 0.61719 0.75069
 C1532 C 0.31893 0.64502 0.76338
 H1533 H 0.35461 0.59388 0.76266
 H1534 H 0.28951 0.61473 0.73598
 H1535 H 0.29620 0.55747 0.73985
 H1536 H 0.33901 0.64698 0.77965
 C1537 C 0.33648 0.44447 0.74403
 C1538 C 0.31134 0.43208 0.72901
 C1539 C 0.30156 0.39953 0.73575
 C1540 C 0.28421 0.38263 0.71447
 H1541 H 0.29786 0.44601 0.71204
 H1542 H 0.30892 0.38911 0.75880
 H1543 H 0.35126 0.42975 0.75888
 H1544 H 0.27870 0.39197 0.69036
 C1545 C 0.85004 0.93372 0.25303
 C1546 C 0.82276 0.92051 0.23935
 C1547 C 0.81540 0.88868 0.24353
 C1548 C 0.79623 0.87187 0.22135
 H1549 H 0.80810 0.93468 0.22378
 H1550 H 0.82604 0.87629 0.26385
 H1551 H 0.86820 0.91800 0.26079
 H1552 H 0.79175 0.88177 0.19724
 C1553 C 0.66705 0.93779 0.74561
 C1554 C 0.65315 0.91170 0.75724
 C1555 C 0.66603 0.88089 0.74887
 C1556 C 0.65811 0.85465 0.76517
 H1557 H 0.63330 0.91294 0.77365
 H1558 H 0.68391 0.88008 0.72997
 H1559 H 0.68798 0.93568 0.73078
 H1560 H 0.64154 0.85556 0.78532
 C1561 C 0.17598 0.44535 0.24138
 C1562 C 0.17042 0.41925 0.25871
 C1563 C 0.18741 0.39036 0.25112
 C1564 C 0.18812 0.36640 0.27231
 H1565 H 0.15385 0.41934 0.27890
 H1566 H 0.19971 0.38884 0.22781
 H1567 H 0.19420 0.44551 0.22282
 H1568 H 0.17686 0.36853 0.29614
 C1569 C 0.04758 0.24918 0.82115
 C1570 C 0.07525 0.24279 0.83412
 C1571 C 0.10316 0.24557 0.81378
 C1572 C 0.13069 0.23629 0.82488
 H1573 H 0.07719 0.23567 0.85970
 H1574 H 0.10108 0.25551 0.78929
 H1575 H 0.04621 0.25700 0.79573
 H1576 H 0.13260 0.22581 0.84913
 C1577 C 0.54597 0.75568 0.33034
 C1578 C 0.57483 0.74840 0.34014
 C1579 C 0.60194 0.75052 0.31779
 C1580 C 0.62955 0.73917 0.32701
 H1581 H 0.57847 0.74052 0.36524
 H1582 H 0.59929 0.76135 0.29383
 H1583 H 0.54224 0.76392 0.30540
 H1584 H 0.63155 0.72774 0.35076
 C1585 C 0.56094 0.26095 0.15856
 C1586 C 0.57282 0.23992 0.17901
 C1587 C 0.60566 0.24322 0.18904
 C1588 C 0.61806 0.22493 0.21198
 H1589 H 0.55859 0.22036 0.18770
 H1590 H 0.61995 0.26139 0.17756
 H1591 H 0.57586 0.28007 0.14995
 H1592 H 0.60361 0.20748 0.22437
 C1593 C 0.04423 0.74698 0.68606
 C1594 C 0.07342 0.75152 0.67494
 C1595 C 0.10177 0.75135 0.69571
 C1596 C 0.12882 0.76010 0.68169
 H1597 H 0.07661 0.75529 0.64866
 H1598 H 0.10071 0.74409 0.72128
 H1599 H 0.03991 0.74275 0.71201
 H1600 H 0.12849 0.76812 0.65630
 C1601 C 0.92784 0.73659 0.65797
 C1602 C 0.91345 0.74880 0.68403
 C1603 C 0.87926 0.74557 0.68773
 C1604 C 0.86453 0.76218 0.71066
 H1605 H 0.92678 0.76223 0.70214
 H1606 H 0.86625 0.72947 0.67187
 H1607 H 0.91404 0.72496 0.63892
 H1608 H 0.87801 0.77828 0.72612
 C1609 C 0.44455 0.25159 0.17551
 C1610 C 0.41695 0.24243 0.16316
 C1611 C 0.38838 0.24505 0.18275
 C1612 C 0.36086 0.23564 0.17032
 H1613 H 0.41509 0.23325 0.13829
 H1614 H 0.38981 0.25528 0.20726
 H1615 H 0.44618 0.25918 0.20104
 H1616 H 0.35975 0.22485 0.14605
 C1617 C 0.42905 0.76044 0.35047
 C1618 C 0.41758 0.75375 0.32059
 C1619 C 0.38409 0.75695 0.31346
 C1620 C 0.37199 0.74531 0.28553
 H1621 H 0.43271 0.74481 0.30148
 H1622 H 0.36930 0.76851 0.33125
 H1623 H 0.41331 0.76754 0.36992
 H1624 H 0.38700 0.73315 0.26839
 C1625 C 0.93407 0.25108 0.82451
 C1626 C 0.90630 0.25884 0.83979
 C1627 C 0.87951 0.25908 0.82080
 C1628 C 0.85151 0.27054 0.83255
 H1629 H 0.90549 0.26588 0.86547
 H1630 H 0.88077 0.25039 0.79562
 H1631 H 0.93407 0.24805 0.79787
 H1632 H 0.85049 0.28128 0.85682
 C1633 C 0.58955 0.99064 0.70955
 C1634 C 0.57528 1.01166 0.69061
 C1635 C 0.56176 1.00301 0.65837
 C1636 C 0.54649 1.02411 0.64057
 H1637 H 0.57630 1.03626 0.69740
 H1638 H 0.56606 0.97997 0.64817
 H1639 H 0.58726 0.96587 0.70385
 H1640 H 0.54075 1.04652 0.65144
 C1641 C 0.08758 0.48355 1.20700
 C1642 C 0.06671 0.50120 1.19169
 C1643 C 0.05069 0.48961 1.16188
 C1644 C 0.02801 0.50589 1.14777
 H1645 H 0.06368 0.52536 1.19925
 H1646 H 0.05964 0.46903 1.14959
 H1647 H 0.08943 0.45897 1.20062
 H1648 H 0.01802 0.52563 1.16062
 C1649 C -0.09522 0.00204 1.19417
 C1650 C -0.06750 -0.01062 1.18854
 C1651 C -0.05473 -0.00779 1.15489
 C1652 C -0.02481 -0.01228 1.14715
 H1653 H -0.05418 -0.02104 1.20826
 H1654 H -0.07054 -0.00003 1.13577
 H1655 H -0.10675 0.01380 1.17393
 H1656 H -0.00862 -0.02034 1.16569
 C1657 C 0.39268 0.50693 0.67358
 C1658 C 0.41884 0.49138 0.66790
 C1659 C 0.43046 0.49029 0.63383
 C1660 C 0.45980 0.48320 0.62602
 H1661 H 0.43193 0.48109 0.68787
 H1662 H 0.41456 0.49737 0.61451
 H1663 H 0.38139 0.51856 0.65313
 H1664 H 0.47612 0.47657 0.64510
 C1665 C 0.41064 0.49795 -0.20951
 C1666 C 0.42756 0.51817 -0.19124
 C1667 C 0.44490 0.50710 -0.16233
 C1668 C 0.46677 0.52484 -0.14728
 H1669 H 0.42711 0.54307 -0.19640
 H1670 H 0.43831 0.48449 -0.15204
 H1671 H 0.41275 0.47299 -0.20552
 H1672 H 0.47480 0.54663 -0.15833
 C1673 C -0.08514 0.98965 0.31219
 C1674 C -0.07233 1.01160 0.33205
 C1675 C -0.05471 1.00284 0.36176
 C1676 C -0.03739 1.02378 0.37892
 H1677 H -0.07634 1.03619 0.32742
 H1678 H -0.05729 0.97901 0.37074
 H1679 H -0.07948 0.96524 0.31558
 H1680 H -0.03318 1.04710 0.36920
 C1681 C 0.11216 0.49079 0.32053
 C1682 C 0.08262 0.48075 0.32437
 C1683 C 0.06966 0.47977 0.35797
 C1684 C 0.03896 0.47906 0.36452
 H1685 H 0.06774 0.47630 0.30313
 H1686 H 0.08616 0.48212 0.37822
 H1687 H 0.12580 0.49759 0.34208
 H1688 H 0.02207 0.47623 0.34474
 C1689 C 0.61638 -0.00723 -0.17251
 C1690 C 0.59072 -0.02390 -0.16466
 C1691 C 0.58091 -0.02409 -0.12972
 C1692 C 0.55226 -0.03285 -0.11978
 H1693 H 0.57618 -0.03476 -0.18357
 H1694 H 0.59707 -0.01399 -0.11179
 H1695 H 0.62920 0.00460 -0.15278
 H1696 H 0.53576 -0.04296 -0.13732
 C1697 C 0.70398 0.57975 -0.00683
 C1698 C 0.68284 0.57334 -0.03054
 C1699 C 0.65373 0.55583 -0.02349
 C1700 C 0.63104 0.55312 -0.04627
 H1701 H 0.68620 0.58201 -0.05536
 H1702 H 0.65024 0.54650 0.00110
 H1703 H 0.70080 0.56985 0.01754
 H1704 H 0.63462 0.56289 -0.07066
 C1705 C 0.20447 1.08149 0.50374
 C1706 C 0.17755 1.08239 0.48683
 C1707 C 0.14956 1.06417 0.49717
 C1708 C 0.12327 1.06491 0.47923
 H1709 H 0.17557 1.09703 0.46526
 H1710 H 0.15050 1.05010 0.51936
 H1711 H 0.20561 1.06700 0.52559
 H1712 H 0.12295 1.07874 0.45684
 C1713 C 0.20478 -0.06242 0.99588
 C1714 C 0.18747 -0.05938 1.02311
 C1715 C 0.15979 -0.03942 1.02186
 C1716 C 0.13635 -0.04177 1.04369
 H1717 H 0.19139 -0.07423 1.04430
 H1718 H 0.15717 -0.02457 1.00041
 H1719 H 0.19882 -0.04921 0.97402
 H1720 H 0.13871 -0.05636 1.06534
 C1721 C 0.69773 0.43454 0.49444
 C1722 C 0.67678 0.43887 0.51828
 C1723 C 0.64892 0.45761 0.51122
 C1724 C 0.62436 0.45767 0.53156
 H1725 H 0.67784 0.42516 0.54072
 H1726 H 0.64718 0.46884 0.48734
 H1727 H 0.69496 0.44677 0.47123
 H1728 H 0.62613 0.44667 0.55554
 C1729 C -0.19705 0.42048 0.50327
 C1730 C -0.17500 0.42679 0.48065
 C1731 C -0.14566 0.44341 0.48955
 C1732 C -0.12335 0.44865 0.46695
 H1733 H -0.17807 0.41895 0.45539
 H1734 H -0.14169 0.44998 0.51512
 H1735 H -0.19429 0.42969 0.52809
 H1736 H -0.12756 0.44185 0.44149
 C1737 C 0.31099 -0.08052 0.00595
 C1738 C 0.33630 -0.07708 -0.01320
 C1739 C 0.36459 -0.05972 -0.00193
 C1740 C 0.38959 -0.05769 -0.02165
 H1741 H 0.33654 -0.08716 -0.03772
 H1742 H 0.36516 -0.04917 0.02245
 H1743 H 0.31097 -0.06953 0.03010
 H1744 H 0.38850 -0.06870 -0.04582
 C1745 C 0.31154 1.06939 0.50269
 C1746 C 0.33649 1.07366 0.52216
 C1747 C 0.36419 1.05392 0.51799
 C1748 C 0.39009 1.05870 0.53602
 H1749 H 0.33792 1.09397 0.53832
 H1750 H 0.36416 1.03669 0.49823
 H1751 H 0.31100 1.05004 0.48527
 H1752 H 0.38982 1.07525 0.55638
 C1753 C -0.18952 0.57469 0.99124
 C1754 C -0.17597 0.56440 1.01877
 C1755 C -0.14902 0.54353 1.01542
 C1756 C -0.12816 0.53937 1.03960
 H1757 H -0.18245 0.57370 1.04267
 H1758 H -0.14446 0.53379 0.99116
 H1759 H -0.18087 0.56659 0.96759
 H1760 H -0.13228 0.54924 1.06385
 C1761 C -0.00587 0.69065 0.58945
 C1762 C 0.00996 0.66406 0.59149
 C1763 C 0.00475 0.63782 0.56844
 C1764 C 0.01904 0.61086 0.57408
 H1765 H 0.02625 0.66057 0.61146
 H1766 H -0.01135 0.64009 0.54795
 H1767 H -0.02298 0.69326 0.56998
 H1768 H 0.03452 0.60906 0.59519
 C1769 C 0.48524 0.20254 0.08411
 C1770 C 0.50580 0.18556 0.06733
 C1771 C 0.49720 0.15559 0.05130
 C1772 C 0.51958 0.13477 0.04659
 H1773 H 0.53030 0.19239 0.06773
 H1774 H 0.47292 0.14928 0.04677
 H1775 H 0.46058 0.19646 0.08294
 H1776 H 0.54329 0.14064 0.05419
 C1777 C -0.02065 0.19191 0.90248
 C1778 C 0.00141 0.17815 0.92019
 C1779 C -0.00419 0.14862 0.93764
 C1780 C 0.01730 0.13869 0.95876
 H1781 H 0.02486 0.18829 0.92066
 H1782 H -0.02476 0.13435 0.93199
 H1783 H -0.04469 0.18357 0.90339
 H1784 H 0.03692 0.15397 0.96532
 C1785 C 0.48561 0.69455 0.41573
 C1786 C 0.48948 0.66539 0.40497
 C1787 C 0.48761 0.63864 0.42738
 C1788 C 0.48559 0.60972 0.41502
 H1789 H 0.49496 0.66119 0.37921
 H1790 H 0.48925 0.64250 0.45380
 H1791 H 0.47794 0.69889 0.44077
 H1792 H 0.48250 0.60631 0.38866
 C1793 C 0.48905 0.80118 0.42821
 C1794 C 0.51080 0.82147 0.43895
 C1795 C 0.50251 0.84968 0.45755
 C1796 C 0.52042 0.87516 0.45346
 H1797 H 0.53477 0.81930 0.43090
 H1798 H 0.48083 0.85067 0.47126
 H1799 H 0.46521 0.80320 0.43677
 H1800 H 0.54067 0.87386 0.43743
 C1801 C -0.01841 0.29931 0.90901
 C1802 C 0.00247 0.32050 0.92014
 C1803 C -0.00634 0.34716 0.94094
 C1804 C 0.01242 0.37248 0.94139
 H1805 H 0.02662 0.31943 0.91252
 H1806 H -0.02845 0.34695 0.95394
 H1807 H -0.04240 0.30024 0.91735
 H1808 H 0.03335 0.37275 0.92631
 C1809 C 0.47904 0.31122 0.09121
 C1810 C 0.49797 0.32681 0.07075
 C1811 C 0.49038 0.35712 0.05633
 C1812 C 0.50971 0.36890 0.03367
 H1813 H 0.52103 0.31769 0.06596
 H1814 H 0.47082 0.37035 0.06545
 H1815 H 0.45519 0.31835 0.09502
 H1816 H 0.52827 0.35447 0.02412
 C1817 C -0.01324 0.79965 0.59424
 C1818 C 0.00946 0.81775 0.58153
 C1819 C 0.00260 0.84771 0.56573
 C1820 C 0.02421 0.86258 0.54760
 H1821 H 0.03365 0.81119 0.58437
 H1822 H -0.01968 0.85849 0.57045
 H1823 H -0.03751 0.80489 0.58964
 H1824 H 0.04572 0.85100 0.54133
 C1825 C 0.23925 0.34521 0.04678
 C1826 C 0.25801 0.32589 0.06306
 C1827 C 0.24682 0.30958 0.09294
 C1828 C 0.26247 0.28603 0.10653
 H1829 H 0.28223 0.32380 0.05577
 H1830 H 0.22638 0.31853 0.10531
 H1831 H 0.21467 0.34572 0.05304
 H1832 H 0.28193 0.27589 0.09351
 C1833 C 0.74071 0.83842 0.54864
 C1834 C 0.75931 0.82091 0.56720
 C1835 C 0.74769 0.80562 0.59726
 C1836 C 0.76648 0.78793 0.61537
 H1837 H 0.78405 0.81995 0.56175
 H1838 H 0.72433 0.81064 0.60585
 H1839 H 0.71574 0.83815 0.55296
 H1840 H 0.78934 0.78193 0.60609
 C1841 C 0.24269 0.64082 0.55967
 C1842 C 0.22919 0.66858 0.56370
 C1843 C 0.22763 0.68152 0.59754
 C1844 C 0.22331 0.71189 0.60447
 H1845 H 0.22237 0.68239 0.54260
 H1846 H 0.23323 0.66580 0.61757
 H1847 H 0.25113 0.62875 0.58136
 H1848 H 0.21734 0.72803 0.58498
 C1849 C 0.75467 0.13360 0.06883
 C1850 C 0.73242 0.15355 0.07742
 C1851 C 0.73109 0.16351 0.11224
 C1852 C 0.71676 0.18936 0.12252
 H1853 H 0.71693 0.16345 0.05927
 H1854 H 0.74481 0.15039 0.12974
 H1855 H 0.77057 0.12569 0.08782
 H1856 H 0.70341 0.20307 0.10525
 C1857 C 0.74242 0.15481 0.95107
 C1858 C 0.75937 0.17498 0.93282
 C1859 C 0.74606 0.18989 0.90320
 C1860 C 0.75931 0.21555 0.88980
 H1861 H 0.78385 0.17912 0.93857
 H1862 H 0.72625 0.17853 0.89109
 H1863 H 0.71755 0.15226 0.94659
 H1864 H 0.77799 0.22780 0.90292
 C1865 C 0.24397 0.65771 0.44172
 C1866 C 0.26464 0.67342 0.42276
 C1867 C 0.25454 0.68996 0.39268
 C1868 C 0.27380 0.70939 0.37597
 H1869 H 0.28936 0.67276 0.42838
 H1870 H 0.23127 0.68497 0.38320
 H1871 H 0.21921 0.66005 0.43700
 H1872 H 0.29646 0.71572 0.38619
 C1873 C 0.74747 0.86046 0.43315
 C1874 C 0.73563 0.83156 0.42845
 C1875 C 0.73396 0.81930 0.39443
 C1876 C 0.73109 0.78874 0.38691
 H1877 H 0.72996 0.81661 0.44924
 H1878 H 0.73749 0.83610 0.37469
 H1879 H 0.75524 0.87397 0.41195
 H1880 H 0.72723 0.77160 0.40621
 C1881 C 0.23954 0.36959 0.93102
 C1882 C 0.22894 0.34027 0.92621
 C1883 C 0.22688 0.32833 0.89208
 C1884 C 0.22583 0.29772 0.88458
 H1885 H 0.22494 0.32473 0.94693
 H1886 H 0.22899 0.34534 0.87235
 H1887 H 0.24573 0.38383 0.90979
 H1888 H 0.22366 0.28045 0.90401
 C1889 C 0.82375 0.44915 0.75447
 C1890 C 0.81373 0.42965 0.77826
 C1891 C 0.79452 0.40161 0.76985
 C1892 C 0.78590 0.38051 0.79270
 H1893 H 0.82041 0.43359 0.80373
 H1894 H 0.78908 0.39723 0.74407
 H1895 H 0.81592 0.44506 0.72935
 H1896 H 0.79185 0.38471 0.81838
 C1897 C 0.33430 0.95013 0.24737
 C1898 C 0.33224 0.92423 0.26604
 C1899 C 0.31435 0.89590 0.25545
 C1900 C 0.31284 0.87060 0.27499
 H1901 H 0.34372 0.92351 0.28978
 H1902 H 0.30245 0.89578 0.23182
 H1903 H 0.32212 0.95044 0.22392
 H1904 H 0.32484 0.87130 0.29858
 C1905 C 0.19286 0.95002 0.75127
 C1906 C 0.19227 0.93265 0.72376
 C1907 C 0.21114 0.90428 0.72264
 C1908 C 0.20385 0.87967 0.70326
 H1909 H 0.17511 0.93687 0.70467
 H1910 H 0.22913 0.90200 0.74131
 H1911 H 0.20812 0.94367 0.77146
 H1912 H 0.18616 0.88160 0.68427
 C1913 C 0.68549 0.43875 0.22804
 C1914 C 0.67443 0.40952 0.22307
 C1915 C 0.69448 0.38195 0.22466
 C1916 C 0.68283 0.35342 0.21728
 H1917 H 0.64935 0.40547 0.22185
 H1918 H 0.71784 0.38457 0.23478
 H1919 H 0.71038 0.44377 0.22833
 H1920 H 0.66012 0.35103 0.20557
 C1921 C 0.67783 0.54977 0.24350
 C1922 C 0.68161 0.57203 0.26686
 C1923 C 0.69634 0.60280 0.25919
 C1924 C 0.69906 0.62562 0.28206
 H1925 H 0.67303 0.56825 0.29164
 H1926 H 0.70395 0.60717 0.23409
 H1927 H 0.68739 0.55397 0.21914
 H1928 H 0.69147 0.62105 0.30713
 C1929 C 0.17818 0.05740 0.75158
 C1930 C 0.18620 0.07912 0.77415
 C1931 C 0.20181 0.10870 0.76441
 C1932 C 0.20800 0.13123 0.78670
 H1933 H 0.18052 0.07560 0.79991
 H1934 H 0.20653 0.11278 0.73848
 H1935 H 0.18518 0.06074 0.72612
 H1936 H 0.20268 0.12709 0.81250
 C1937 C 0.31648 0.05677 0.25728
 C1938 C 0.31195 0.07434 0.23047
 C1939 C 0.29189 0.10207 0.23325
 C1940 C 0.29144 0.12480 0.21047
 H1941 H 0.32575 0.07067 0.20843
 H1942 H 0.27950 0.10544 0.25628
 H1943 H 0.30400 0.06243 0.27974
 H1944 H 0.30351 0.12165 0.18725
 C1945 C 0.82229 0.55502 0.74105
 C1946 C 0.82906 0.58568 0.73950
 C1947 C 0.80459 0.60932 0.73753
 C1948 C 0.81129 0.63802 0.72619
 H1949 H 0.85318 0.59372 0.74167
 H1950 H 0.78158 0.60384 0.74734
 H1951 H 0.79867 0.54642 0.73670
 H1952 H 0.83365 0.64270 0.71449
 C1953 C 0.93947 0.74390 0.15706
 C1954 C 0.91256 0.75942 0.15677
 C1955 C 0.88669 0.75288 0.17994
 C1956 C 0.86020 0.76873 0.17668
 H1957 H 0.90875 0.77719 0.13836
 H1958 H 0.88896 0.73511 0.19877
 H1959 H 0.94258 0.72514 0.17461
 H1960 H 0.85852 0.78591 0.15712
 C1961 C 0.43858 0.26541 0.67456
 C1962 C 0.41310 0.28202 0.66913
 C1963 C 0.38595 0.27835 0.69047
 C1964 C 0.35823 0.28798 0.68016
 H1965 H 0.41076 0.29596 0.64706
 H1966 H 0.38815 0.26541 0.71331
 H1967 H 0.43960 0.25019 0.69588
 H1968 H 0.35623 0.30024 0.65687
 C1969 C 0.44395 0.73080 0.83479
 C1970 C 0.42895 0.74812 0.81273
 C1971 C 0.39793 0.73955 0.79946
 C1972 C 0.38523 0.75865 0.77744
 H1973 H 0.43813 0.77145 0.80736
 H1974 H 0.38472 0.71988 0.80952
 H1975 H 0.43646 0.70690 0.83978
 H1976 H 0.39953 0.77740 0.76701
 C1977 C 0.94150 0.22810 0.33698
 C1978 C 0.92001 0.24920 0.32501
 C1979 C 0.89228 0.23904 0.31040
 C1980 C 0.87677 0.25849 0.28870
 H1981 H 0.92572 0.27409 0.32554
 H1982 H 0.88330 0.21552 0.31507
 H1983 H 0.93982 0.20383 0.32903
 H1984 H 0.88930 0.27855 0.27845
 C1985 C 0.04704 0.24005 0.32750
 C1986 C 0.07448 0.25531 0.32948
 C1987 C 0.10047 0.24918 0.30694
 C1988 C 0.12796 0.26324 0.31309
 H1989 H 0.07884 0.27183 0.34935
 H1990 H 0.09755 0.23291 0.28651
 H1991 H 0.04336 0.22234 0.30858
 H1992 H 0.13018 0.27895 0.33414
 C1993 C 0.55458 0.74918 0.85754
 C1994 C 0.56157 0.73465 0.82928
 C1995 C 0.59428 0.73628 0.81754
 C1996 C 0.60309 0.72714 0.78733
 H1997 H 0.54335 0.72399 0.81415
 H1998 H 0.61165 0.74663 0.83401
 H1999 H 0.57318 0.76128 0.87099
 H2000 H 0.58615 0.71630 0.77073
 C2001 C 0.54298 0.24605 0.67453
 C2002 C 0.57273 0.24391 0.66562
 C2003 C 0.59799 0.24265 0.68984
 C2004 C 0.62680 0.23724 0.67932
 H2005 H 0.57877 0.24440 0.63961
 H2006 H 0.59347 0.24808 0.71554
 H2007 H 0.53616 0.24349 0.70013
 H2008 H 0.63055 0.23097 0.65366
 C2009 C 0.04881 0.73877 0.15371
 C2010 C 0.06731 0.75951 0.16955
 C2011 C 0.09720 0.75058 0.18445
 C2012 C 0.11212 0.77023 0.20515
 H2013 H 0.06101 0.78399 0.17026
 H2014 H 0.10773 0.72873 0.17718
 H2015 H 0.05376 0.71400 0.15468
 H2016 H 0.10059 0.79121 0.21352
   
