data_POSCAR
  _audit_creation_date              2014-09-24
  _audit_creation_method            'ToBaCCo'
  _symmetry_space_group_name_H-M    'P1'
  _symmetry_Int_Tables_number       1
  _symmetry_cell_setting            triclinic
  loop_
  _symmetry_equiv_pos_as_xyz
 x,y,z
_cell_length_a 35.0602
_cell_length_b 35.5933
_cell_length_c 40.9924
_cell_angle_alpha 89.653800
_cell_angle_beta 89.765900
_cell_angle_gamma 90.128800
loop_
  _atom_site_label
  _atom_site_type_symbol
  _atom_site_fract_x
  _atom_site_fract_y
  _atom_site_fract_z
B1 B 0.26772 0.23853 0.28099
 B2 B 0.22409 0.22661 0.26828
 B3 B 0.23312 0.27067 0.28001
 B4 B 0.27769 0.28251 0.26816
 B5 B 0.29612 0.24438 0.24821
 B6 B 0.26259 0.20943 0.24887
 B7 B 0.23352 0.26873 0.21467
 B8 B 0.27720 0.28051 0.22732
 B9 B 0.26803 0.23648 0.21555
 B10 B 0.22355 0.22469 0.22747
 B11 B 0.20517 0.26280 0.24738
 B12 B 0.23867 0.29774 0.24675
 B13 B 0.73559 0.77034 0.28242
 B14 B 0.78159 0.77664 0.27289
 B15 B 0.76536 0.73365 0.28192
 B16 B 0.72084 0.72899 0.26708
 B17 B 0.70993 0.77050 0.24788
 B18 B 0.74788 0.80034 0.25210
 B19 B 0.77154 0.73975 0.21687
 B20 B 0.72552 0.73341 0.22644
 B21 B 0.74184 0.77637 0.21731
 B22 B 0.78625 0.78120 0.23223
 B23 B 0.79719 0.73977 0.25120
 B24 B 0.75921 0.70988 0.24730
 B25 B 0.73829 0.22997 -0.22087
 B26 B 0.71668 0.27184 -0.23193
 B27 B 0.76468 0.26987 -0.22252
 B28 B 0.78338 0.22889 -0.23520
 B29 B 0.74763 0.20454 -0.25416
 B30 B 0.70673 0.23037 -0.25247
 B31 B 0.75970 0.26996 -0.28796
 B32 B 0.77956 0.22974 -0.27582
 B33 B 0.73360 0.23069 -0.28635
 B34 B 0.71443 0.27163 -0.27423
 B35 B 0.75044 0.29625 -0.25510
 B36 B 0.79093 0.26973 -0.25670
 B37 B 0.27100 0.75948 -0.27941
 B38 B 0.22545 0.77141 -0.26712
 B39 B 0.23682 0.72602 -0.27858
 B40 B 0.28150 0.71549 -0.26696
 B41 B 0.29915 0.75382 -0.24681
 B42 B 0.26525 0.78820 -0.24668
 B43 B 0.23698 0.72762 -0.21298
 B44 B 0.28085 0.71693 -0.22613
 B45 B 0.27105 0.76052 -0.21382
 B46 B 0.22626 0.77158 -0.22488
 B47 B 0.20835 0.73282 -0.24529
 B48 B 0.24285 0.69901 -0.24533
 B49 B 1.23392 1.26837 0.78310
 B50 B 1.27827 1.28134 0.77294
 B51 B 1.26878 1.23661 0.78270
 B52 B 1.22524 1.22514 0.76833
 B53 B 1.20811 1.26429 0.74905
 B54 B 1.24124 1.29938 0.75247
 B55 B 1.27318 1.24245 0.71745
 B56 B 1.22862 1.22980 0.72752
 B57 B 1.23835 1.27460 0.71802
 B58 B 1.28179 1.28578 0.73234
 B59 B 1.29906 1.24653 0.75162
 B60 B 1.26580 1.21147 0.74828
 B61 B 0.76207 0.73357 0.71484
 B62 B 0.77705 0.77583 0.72690
 B63 B 0.73179 0.76970 0.71510
 B64 B 0.71678 0.72694 0.72761
 B65 B 0.75416 0.70665 0.74792
 B66 B 0.79181 0.73721 0.74697
 B67 B 0.73369 0.77036 0.78050
 B68 B 0.71870 0.72806 0.76843
 B69 B 0.76390 0.73415 0.78024
 B70 B 0.77900 0.77691 0.76776
 B71 B 0.74162 0.79725 0.74739
 B72 B 0.70394 0.76668 0.74840
 B73 B 1.22248 0.73504 0.21530
 B74 B 1.26758 0.72346 0.22343
 B75 B 1.25705 0.76727 0.21178
 B76 B 1.21453 0.77921 0.22803
 B77 B 1.19920 0.74141 0.25060
 B78 B 1.23244 0.70656 0.24735
 B79 B 1.26620 0.76641 0.27678
 B80 B 1.22097 0.77796 0.26858
 B81 B 1.23167 0.73417 0.28028
 B82 B 1.27416 0.72220 0.26399
 B83 B 1.28945 0.76001 0.24144
 B84 B 1.25624 0.79492 0.24477
 B85 B 0.76868 1.26008 0.21972
 B86 B 0.72630 1.27659 0.23158
 B87 B 0.73102 1.23140 0.22142
 B88 B 0.77396 1.21597 0.23405
 B89 B 0.79578 1.25316 0.25280
 B90 B 0.76595 1.29100 0.25070
 B91 B 0.73060 1.23629 0.28663
 B92 B 0.77300 1.21982 0.27478
 B93 B 0.76821 1.26505 0.28491
 B94 B 0.72528 1.28042 0.27229
 B95 B 0.70345 1.24327 0.25352
 B96 B 0.73330 1.20539 0.25562
 O97 O 0.55258 1.06756 0.05846
 O98 O 0.59570 1.03361 0.02840
 C99 C 0.58716 1.05816 0.05059
 O100 O 0.44698 0.93135 0.05593
 O101 O 0.40466 0.96763 0.02708
 C102 C 0.41258 0.94113 0.04786
 O103 O 0.55342 0.93595 0.05963
 O104 O 0.59596 0.97074 0.02914
 C105 C 0.58782 0.94622 0.05169
 O106 O 0.44646 1.07037 0.05490
 O107 O 0.40423 1.03395 0.02630
 C108 C 0.41212 1.06045 0.04688
 Zr109 Zr 0.49980 1.04885 0.03991
 O110 O 0.49566 1.04867 0.09145
 O111 O 0.50311 1.10825 0.03907
 Zr112 Zr 0.50023 0.95445 0.04140
 O113 O 0.49837 0.96118 0.09256
 O114 O 0.50078 0.89528 0.04677
 O115 O 0.53422 1.00191 0.04709
 O116 O 0.46640 1.00143 0.04655
 O117 O 0.44759 1.07001 -0.05715
 O118 O 0.40484 1.03335 -0.02868
 C119 C 0.41310 1.05988 -0.04942
 O120 O 0.55427 0.93519 -0.05904
 O121 O 0.59649 0.97001 -0.02894
 C122 C 0.58860 0.94521 -0.05106
 O123 O 0.44812 0.93097 -0.05602
 O124 O 0.40509 0.96690 -0.02771
 C125 C 0.41357 0.94035 -0.04809
 O126 O 0.55382 1.06740 -0.06018
 O127 O 0.59618 1.03287 -0.02975
 C128 C 0.58819 1.05753 -0.05217
 Zr129 Zr 0.50062 1.04774 -0.04236
 O130 O 0.49987 1.04082 -0.09350
 O131 O 0.50079 1.10689 -0.04787
 Zr132 Zr 0.50097 0.95336 -0.04088
 O133 O 0.49772 0.95352 -0.09245
 O134 O 0.50480 0.89400 -0.04007
 Zr135 Zr 0.55774 1.00152 -0.00035
 Zr136 Zr 0.44312 1.00075 -0.00065
 O137 O 0.46726 1.00033 -0.04770
 O138 O 0.53511 1.00075 -0.04790
 O139 O 0.46619 1.05555 -0.00142
 O140 O 0.53402 0.94719 0.00041
 O141 O 0.53353 1.05551 -0.00117
 O142 O 0.46666 0.94625 0.00025
 H143 H 0.44885 1.00144 0.06556
 H144 H 0.55150 0.92538 0.00058
 H145 H 0.45004 1.00003 -0.06681
 H146 H 0.55077 1.07759 -0.00123
 H147 H 0.51160 0.88475 0.02652
 H148 H 0.48486 0.88454 -0.02493
 H149 H 0.51764 0.97091 -0.10072
 H150 H 0.49882 1.06647 -0.10296
 H151 H 0.50989 1.11759 -0.02714
 H152 H 0.48295 1.11748 0.02423
 H153 H 0.51536 1.03128 0.09983
 H154 H 0.49760 0.93548 0.10194
 O155 O 1.05289 0.56385 0.56169
 O156 O 1.09531 0.52911 0.53157
 C157 C 1.08723 0.55333 0.55415
 O158 O 0.94179 0.43255 0.55246
 O159 O 0.90156 0.47130 0.52382
 C160 C 0.90802 0.44386 0.54407
 O161 O 1.04787 0.43182 0.55735
 O162 O 1.09310 0.46520 0.52865
 C163 C 1.08299 0.43990 0.55002
 O164 O 0.94694 0.57082 0.55643
 O165 O 0.90410 0.53713 0.52599
 C166 C 0.91244 0.56232 0.54761
 Zr167 Zr 0.99978 0.54716 0.54231
 O168 O 0.99670 0.53818 0.59325
 O169 O 1.00162 0.60605 0.54902
 Zr170 Zr 0.99629 0.45305 0.53880
 O171 O 0.99097 0.45140 0.59026
 O172 O 0.99820 0.39362 0.53719
 O173 O 1.03218 0.49862 0.54763
 O174 O 0.96431 0.50101 0.54584
 O175 O 0.95111 0.57617 0.44484
 O176 O 0.90598 0.54030 0.47120
 C177 C 0.91601 0.56743 0.45161
 O178 O 1.05248 0.43787 0.43916
 O179 O 1.09524 0.46927 0.47142
 C180 C 1.08696 0.44598 0.44820
 O181 O 0.94620 0.43708 0.44047
 O182 O 0.90376 0.47336 0.46906
 C183 C 0.91182 0.44726 0.44813
 O184 O 1.05694 0.56946 0.44363
 O185 O 1.09740 0.53212 0.47342
 C186 C 1.09077 0.55824 0.45188
 Zr187 Zr 1.00269 0.55161 0.46012
 O188 O 1.00016 0.55335 0.40852
 O189 O 1.00833 0.61079 0.46188
 Zr190 Zr 0.99936 0.45743 0.45668
 O191 O 0.99658 0.46273 0.40524
 O192 O 1.00171 0.39824 0.45267
 Zr193 Zr 1.05691 0.50044 0.50065
 Zr194 Zr 0.94226 0.50426 0.49826
 O195 O 0.96771 0.50594 0.45170
 O196 O 1.03551 0.50373 0.45269
 O197 O 0.96756 0.55799 0.50075
 O198 O 1.03078 0.44719 0.49820
 O199 O 1.03479 0.55527 0.50212
 O200 O 0.96354 0.44889 0.49678
 H201 H 0.94634 0.50069 0.56456
 H202 H 1.04686 0.42434 0.49768
 H203 H 0.95091 0.50742 0.43236
 H204 H 1.05286 0.57666 0.50304
 H205 H 0.97690 0.38504 0.52333
 H206 H 0.98331 0.38770 0.46862
 H207 H 1.02072 0.47432 0.39764
 H208 H 1.02212 0.53896 0.40003
 H209 H 0.98919 0.62009 0.47769
 H210 H 1.01435 0.61716 0.52970
 H211 H 0.99623 0.56346 0.60321
 H212 H 1.01163 0.46714 0.59932
 O213 O 0.92795 0.44596 -0.06120
 O214 O 0.96358 0.40373 -0.03172
 C215 C 0.93837 0.41197 -0.05371
 O216 O 1.06406 0.55286 -0.05545
 O217 O 1.02659 0.59337 -0.02605
 C218 C 1.05383 0.58635 -0.04667
 O219 O 1.06212 0.44821 -0.06096
 O220 O 1.02747 0.40487 -0.03147
 C221 C 1.05258 0.41392 -0.05352
 O222 O 0.92335 0.55071 -0.05638
 O223 O 0.95916 0.59231 -0.02666
 C224 C 0.93282 0.58455 -0.04781
 Zr225 Zr 0.94658 0.49820 -0.04251
 O226 O 0.95355 0.50094 -0.09369
 O227 O 0.88648 0.49785 -0.04734
 Zr228 Zr 1.04231 0.49966 -0.04164
 O229 O 1.04178 0.50511 -0.09311
 O230 O 1.10263 0.49702 -0.04175
 O231 O 0.99496 0.46537 -0.04911
 O232 O 0.99404 0.53225 -0.04732
 O233 O 0.92161 0.54667 0.05562
 O234 O 0.95788 0.59043 0.02817
 C235 C 0.93065 0.58108 0.04831
 O236 O 1.06090 0.44422 0.05739
 O237 O 1.02682 0.40272 0.02620
 C238 C 1.05173 0.41043 0.04858
 O239 O 1.06378 0.54843 0.05546
 O240 O 1.02647 0.59142 0.02864
 C241 C 1.05386 0.58262 0.04857
 O242 O 0.92704 0.44225 0.05709
 O243 O 0.96291 0.40196 0.02606
 C244 C 0.93769 0.40882 0.04849
 Zr245 Zr 0.94518 0.49544 0.03976
 O246 O 0.94536 0.49755 0.09138
 O247 O 0.88496 0.49098 0.03939
 Zr248 Zr 1.04074 0.49675 0.04068
 O249 O 1.03323 0.49658 0.09185
 O250 O 1.10066 0.49623 0.04643
 Zr251 Zr 0.99459 0.44112 -0.00204
 Zr252 Zr 0.99299 0.55406 0.00028
 O253 O 0.99252 0.52914 0.04692
 O254 O 0.99339 0.46210 0.04592
 O255 O 0.93788 0.53017 -0.00076
 O256 O 1.04918 0.46561 -0.00112
 O257 O 0.93928 0.46388 -0.00203
 O258 O 1.04870 0.53170 0.00027
 H259 H 0.99411 0.54999 -0.06605
 H260 H 1.07186 0.44907 -0.00143
 H261 H 0.99211 0.54581 0.06620
 H262 H 0.91725 0.44644 -0.00225
 H263 H 1.11200 0.51644 -0.02654
 H264 H 1.11184 0.49123 0.02475
 H265 H 1.05919 0.49757 0.10126
 H266 H 0.96256 0.47747 0.09924
 H267 H 0.87539 0.50970 0.02347
 H268 H 0.87580 0.48381 -0.02855
 H269 H 0.92747 0.50161 -0.10289
 H270 H 1.02519 0.48495 -0.10169
 O271 O 0.42623 0.95125 0.43883
 O272 O 0.46072 0.90732 0.46725
 C273 C 0.43550 0.91684 0.44551
 O274 O 0.56507 1.05529 0.44448
 O275 O 0.52773 1.09585 0.47397
 C276 C 0.55483 1.08882 0.45326
 O277 O 0.56144 0.95073 0.43774
 O278 O 0.52592 0.90737 0.46650
 C279 C 0.55140 0.91642 0.44470
 O280 O 0.42316 1.05531 0.44500
 O281 O 0.46072 1.09589 0.47411
 C282 C 0.43369 1.08887 0.45348
 Zr283 Zr 0.44633 1.00240 0.45761
 O284 O 0.45053 1.00825 0.40623
 O285 O 0.38623 1.00184 0.45339
 Zr286 Zr 0.54176 1.00225 0.45705
 O287 O 0.53505 1.00595 0.40593
 O288 O 0.60180 1.00202 0.45175
 O289 O 0.49395 0.96864 0.44996
 O290 O 0.49413 1.03580 0.45240
 O291 O 0.42375 1.04966 0.55647
 O292 O 0.46019 1.09319 0.52895
 C293 C 0.43316 1.08402 0.54928
 O294 O 0.56106 0.94565 0.55612
 O295 O 0.52707 0.90484 0.52414
 C296 C 0.55188 0.91206 0.54679
 O297 O 0.56438 1.05004 0.55615
 O298 O 0.52787 1.09317 0.52864
 C299 C 0.55470 1.08427 0.54895
 O300 O 0.42801 0.94502 0.55715
 O301 O 0.46247 0.90457 0.52513
 C302 C 0.43792 0.91152 0.54811
 Zr303 Zr 0.44634 0.99815 0.53990
 O304 O 0.45074 0.99778 0.59130
 O305 O 0.38609 0.99437 0.54172
 Zr306 Zr 0.54208 0.99849 0.53933
 O307 O 0.54102 0.99950 0.59096
 O308 O 0.60237 0.99518 0.53914
 Zr309 Zr 0.49404 0.94369 0.49680
 Zr310 Zr 0.49409 1.05673 0.50027
 O311 O 0.49416 1.03109 0.54662
 O312 O 0.49424 0.96425 0.54489
 O313 O 0.43863 1.03362 0.49985
 O314 O 0.54899 0.96760 0.49719
 O315 O 0.43917 0.96747 0.49783
 O316 O 0.54954 1.03380 0.49918
 H317 H 0.49415 1.05395 0.43396
 H318 H 0.57146 0.95081 0.49667
 H319 H 0.49415 1.04727 0.56622
 H320 H 0.41671 0.95055 0.49784
 H321 H 0.61251 0.99274 0.47252
 H322 H 0.61206 1.01555 0.52478
 H323 H 0.52265 0.98005 0.59834
 H324 H 0.42423 0.99748 0.59979
 H325 H 0.37593 1.01379 0.52674
 H326 H 0.37578 0.99284 0.47444
 H327 H 0.46330 0.98557 0.39764
 H328 H 0.56117 1.00754 0.39670
 O329 O 1.06987 0.92974 0.54654
 O330 O 1.03536 0.96549 0.58252
 C331 C 1.05951 0.93916 0.57580
 O332 O 1.08080 1.06606 0.45778
 O333 O 1.04405 1.03448 0.42055
 C334 C 1.07069 1.05800 0.42815
 O335 O 1.08112 1.05930 0.54942
 O336 O 1.04049 1.02740 0.58384
 C337 C 1.06930 1.04942 0.57831
 O338 O 1.07172 0.93113 0.45541
 O339 O 1.04003 0.96951 0.41944
 C340 C 1.06373 0.94273 0.42616
 Zr341 Zr 1.05151 0.95043 0.50088
 O342 O 1.11101 0.94074 0.50263
 O343 O 1.04058 0.89205 0.49970
 Zr344 Zr 1.05956 1.04524 0.50288
 O345 O 1.11974 1.04110 0.50106
 O346 O 1.06353 1.10435 0.50711
 O347 O 1.06215 0.99626 0.53092
 O348 O 1.06355 0.99831 0.47378
 O349 O 0.93783 0.93990 0.45241
 O350 O 0.97626 0.97427 0.41791
 C351 C 0.94939 0.95002 0.42351
 O352 O 0.94147 1.06935 0.54653
 O353 O 0.97443 1.03217 0.58257
 C354 C 0.94963 1.05790 0.57580
 O355 O 0.94893 1.07659 0.45540
 O356 O 0.98136 1.03916 0.41934
 C357 C 0.95871 1.06679 0.42608
 O358 O 0.93133 0.94103 0.54396
 O359 O 0.96923 0.97103 0.58125
 C360 C 0.94096 0.94936 0.57363
 Zr361 Zr 0.95587 0.95800 0.49891
 O362 O 0.89594 0.96230 0.49408
 O363 O 0.95152 0.89870 0.50096
 Zr364 Zr 0.96382 1.05275 0.50090
 O365 O 0.90420 1.06027 0.49647
 O366 O 0.97283 1.11133 0.50407
 Zr367 Zr 1.00607 1.00007 0.54930
 Zr368 Zr 1.00934 1.00319 0.45241
 O369 O 0.95372 1.00686 0.47153
 O370 O 0.95132 1.00503 0.52865
 O371 O 1.00420 0.94787 0.47049
 O372 O 1.01122 1.05495 0.53054
 O373 O 1.00217 0.94647 0.52827
 O374 O 1.01324 1.05717 0.47291
 H375 H 1.08643 0.99754 0.45955
 H376 H 1.01241 1.07626 0.54595
 H377 H 0.93180 1.00911 0.45645
 H378 H 0.99971 0.92412 0.54267
 H379 H 1.04612 1.11540 0.49072
 H380 H 0.94715 1.12292 0.50403
 H381 H 0.89187 1.04153 0.51098
 H382 H 0.88653 0.97806 0.51218
 H383 H 0.96904 0.88855 0.48422
 H384 H 1.06584 0.87970 0.50090
 H385 H 1.12377 0.96347 0.49392
 H386 H 1.12736 1.02235 0.51771
 O387 O 0.55885 0.42876 0.05380
 O388 O 0.52687 0.46969 0.08706
 C389 C 0.54932 0.44137 0.08231
 O390 O 0.58049 0.55728 -0.04328
 O391 O 0.54323 0.52382 -0.07879
 C392 C 0.57062 0.54709 -0.07244
 O393 O 0.57995 0.55778 0.04836
 O394 O 0.53711 0.53140 0.08433
 C395 C 0.56719 0.55123 0.07764
 O396 O 0.55827 0.42052 -0.03718
 O397 O 0.53271 0.45957 -0.07601
 C398 C 0.55171 0.43010 -0.06721
 Zr399 Zr 0.54295 0.44709 0.00677
 O400 O 0.60267 0.43850 0.00506
 O401 O 0.53424 0.38863 0.01319
 Zr402 Zr 0.55839 0.54059 0.00269
 O403 O 0.61781 0.53019 0.00113
 O404 O 0.56866 0.59918 0.00323
 O405 O 0.55678 0.49431 0.03408
 O406 O 0.55892 0.49115 -0.02338
 O407 O 0.43076 0.43919 -0.04223
 O408 O 0.47126 0.46852 -0.07845
 C409 C 0.44374 0.44547 -0.07150
 O410 O 0.44264 0.57829 0.04327
 O411 O 0.47204 0.54153 0.08184
 C412 C 0.44986 0.56882 0.07325
 O413 O 0.45226 0.57681 -0.04798
 O414 O 0.48106 0.53359 -0.08125
 C415 C 0.46145 0.56391 -0.07650
 O416 O 0.42182 0.45060 0.04869
 O417 O 0.46173 0.48023 0.08460
 C418 C 0.43188 0.46027 0.07792
 Zr419 Zr 0.44775 0.46197 0.00304
 O420 O 0.38894 0.47279 -0.00384
 O421 O 0.43535 0.40421 0.00957
 Zr422 Zr 0.46342 0.55538 -0.00089
 O423 O 0.40438 0.56562 -0.00677
 O424 O 0.47587 0.61351 -0.00134
 Zr425 Zr 0.50094 0.50384 0.05134
 Zr426 Zr 0.50535 0.49843 -0.04543
 O427 O 0.44995 0.50811 -0.02764
 O428 O 0.44690 0.51143 0.02985
 O429 O 0.49554 0.44550 -0.02354
 O430 O 0.51067 0.55637 0.02897
 O431 O 0.49287 0.44915 0.03340
 O432 O 0.51336 0.55354 -0.02835
 H433 H 0.58151 0.48697 -0.03749
 H434 H 0.51348 0.57898 0.04274
 H435 H 0.42887 0.51048 -0.04355
 H436 H 0.48854 0.42819 0.04900
 H437 H 0.54934 0.61090 -0.01109
 H438 H 0.45099 0.62654 -0.00288
 H439 H 0.39083 0.55114 0.01039
 H440 H 0.37996 0.48777 0.01491
 H441 H 0.45370 0.39010 -0.00398
 H442 H 0.51726 0.38007 -0.00449
 H443 H 0.61398 0.45224 0.02357
 H444 H 0.62452 0.51606 0.02114
 C445 C 0.28580 1.22037 0.18292
 C446 C 0.28805 1.18192 0.17647
 C447 C 0.31069 1.16601 0.14918
 C448 C 0.30370 1.12890 0.13930
 C449 C 0.32699 1.11171 0.11588
 C450 C 0.35803 1.13133 0.10209
 C451 C 0.36457 1.16861 0.11159
 C452 C 0.34121 1.18583 0.13478
 C453 C 0.38643 1.11306 0.08053
 C454 C 0.38019 1.07996 0.06309
 H455 H 0.27348 1.16240 0.19265
 H456 H 0.28069 1.11283 0.15030
 H457 H 0.32156 1.08267 0.10979
 H458 H 0.38857 1.18421 0.10166
 H459 H 0.34836 1.21404 0.14231
 H460 H 0.41428 1.12624 0.07882
 H461 H 0.29709 1.24036 0.16544
 H462 H 0.35191 1.06785 0.06167
 C463 C 0.77750 0.71684 0.68166
 C464 C 0.78326 0.67847 0.67691
 C465 C 0.80704 0.66345 0.65003
 C466 C 0.80209 0.62601 0.64030
 C467 C 0.82674 0.60983 0.61740
 C468 C 0.85722 0.63075 0.60414
 C469 C 0.86189 0.66828 0.61363
 C470 C 0.83702 0.68458 0.63618
 C471 C 0.88670 0.61346 0.58308
 C472 C 0.88058 0.58169 0.56394
 H473 H 0.77130 0.65861 0.69430
 H474 H 0.77959 0.60898 0.65100
 H475 H 0.82287 0.58053 0.61132
 H476 H 0.88547 0.68482 0.60413
 H477 H 0.84253 0.71313 0.64378
 H478 H 0.91476 0.62632 0.58289
 H479 H 0.78636 0.73665 0.66300
 H480 H 0.85209 0.57042 0.56120
 C481 C 0.72895 0.79593 0.18448
 C482 C 0.71787 0.83349 0.18281
 C483 C 0.69468 0.84862 0.15569
 C484 C 0.69598 0.88721 0.14850
 C485 C 0.67134 0.90284 0.12533
 C486 C 0.64444 0.88013 0.10938
 C487 C 0.64337 0.84153 0.11640
 C488 C 0.66838 0.82583 0.13913
 C489 C 0.61488 0.89621 0.08781
 C490 C 0.61976 0.92921 0.06968
 H491 H 0.72457 0.85210 0.20280
 H492 H 0.71558 0.90540 0.16134
 H493 H 0.67224 0.93286 0.12108
 H494 H 0.62253 0.82358 0.10476
 H495 H 0.66575 0.79619 0.14478
 H496 H 0.58811 0.88111 0.08592
 H497 H 0.72543 0.77817 0.16337
 H498 H 0.64744 0.94269 0.06843
 C499 C 1.22227 0.29443 0.68616
 C500 C 1.18904 0.31588 0.68804
 C501 C 1.16881 0.33223 0.65996
 C502 C 1.18767 0.34786 0.63271
 C503 C 1.16666 0.36626 0.60823
 C504 C 1.12666 0.36844 0.61064
 C505 C 1.10820 0.35183 0.63747
 C506 C 1.12903 0.33445 0.66203
 C507 C 1.10244 0.38707 0.58608
 C508 C 1.11282 0.41852 0.56741
 H509 H 1.17488 0.31864 0.71144
 H510 H 1.21845 0.34685 0.63083
 H511 H 1.18155 0.37842 0.58752
 H512 H 1.07743 0.35307 0.63986
 H513 H 1.11395 0.32272 0.68287
 H514 H 1.07294 0.37790 0.58551
 H515 H 1.23618 0.28973 0.66293
 H516 H 1.14197 0.42857 0.56703
 C517 C 0.72704 1.20987 -0.18758
 C518 C 0.71205 1.17349 -0.18640
 C519 C 0.69183 1.15793 -0.15755
 C520 C 0.69085 1.11887 -0.15269
 C521 C 0.66787 1.10296 -0.12822
 C522 C 0.64473 1.12590 -0.10860
 C523 C 0.64619 1.16501 -0.11312
 C524 C 0.66980 1.18097 -0.13711
 C525 C 0.61593 1.10969 -0.08600
 C526 C 0.62018 1.07516 -0.07006
 H527 H 0.71339 1.15611 -0.20797
 H528 H 0.70718 1.10054 -0.16845
 H529 H 0.66673 1.07267 -0.12587
 H530 H 0.62825 1.18322 -0.09859
 H531 H 0.66915 1.21112 -0.14076
 H532 H 0.59007 1.12565 -0.08190
 H533 H 0.72934 1.22559 -0.16525
 H534 H 0.64734 1.06077 -0.07071
 C535 C 1.21770 0.71880 0.31462
 C536 C 1.21679 0.68050 0.32239
 C537 C 1.19467 0.66447 0.35018
 C538 C 1.20147 0.62719 0.36007
 C539 C 1.17816 0.60968 0.38355
 C540 C 1.14732 0.62917 0.39744
 C541 C 1.14117 0.66668 0.38814
 C542 C 1.16448 0.68419 0.36486
 C543 C 1.11861 0.61074 0.41887
 C544 C 1.12349 0.57657 0.43542
 H545 H 1.23124 0.66101 0.30635
 H546 H 1.22425 0.61120 0.34890
 H547 H 1.18337 0.58053 0.38959
 H548 H 1.11737 0.68224 0.39819
 H549 H 1.15742 0.71251 0.35745
 H550 H 1.09138 0.62486 0.42127
 H551 H 1.20617 0.73911 0.33146
 H552 H 1.15113 0.56318 0.43634
 C553 C 0.28950 0.77598 -0.18143
 C554 C 0.28815 0.81389 -0.17287
 C555 C 0.31193 0.83068 -0.14685
 C556 C 0.34517 0.81307 -0.13529
 C557 C 0.36904 0.83142 -0.11328
 C558 C 0.36043 0.86769 -0.10224
 C559 C 0.32680 0.88506 -0.11321
 C560 C 0.30292 0.86671 -0.13536
 C561 C 0.38897 0.88736 -0.08188
 C562 C 0.38203 0.91997 -0.06391
 H563 H 0.26990 0.83255 -0.18675
 H564 H 0.35393 0.78586 -0.14413
 H565 H 0.39496 0.81755 -0.10550
 H566 H 0.31953 0.91328 -0.10586
 H567 H 0.27777 0.88112 -0.14419
 H568 H 0.41747 0.87561 -0.08144
 H569 H 0.30515 0.75621 -0.16657
 H570 H 0.35339 0.93084 -0.06144
 C571 C 0.78767 0.28092 0.31668
 C572 C 0.78574 0.31884 0.32515
 C573 C 0.80962 0.33629 0.35076
 C574 C 0.84304 0.31912 0.36239
 C575 C 0.86689 0.33805 0.38401
 C576 C 0.85811 0.37448 0.39456
 C577 C 0.82430 0.39142 0.38353
 C578 C 0.80040 0.37247 0.36179
 C579 C 0.88662 0.39452 0.41463
 C580 C 0.88008 0.42780 0.43176
 H581 H 0.76682 0.33708 0.31151
 H582 H 0.85193 0.29179 0.35397
 H583 H 0.89294 0.32447 0.39187
 H584 H 0.81687 0.41971 0.39055
 H585 H 0.77505 0.38650 0.35294
 H586 H 0.91485 0.38225 0.41575
 H587 H 0.80418 0.26147 0.33116
 H588 H 0.85170 0.43946 0.43365
 C589 C 1.21766 0.28519 0.18150
 C590 C 1.17894 0.28451 0.17362
 C591 C 1.16189 0.30805 0.14750
 C592 C 1.12496 0.29967 0.13644
 C593 C 1.10631 0.32361 0.11445
 C594 C 1.12425 0.35667 0.10328
 C595 C 1.16141 0.36463 0.11387
 C596 C 1.18008 0.34068 0.13566
 C597 C 1.10439 0.38524 0.08316
 C598 C 1.07126 0.37894 0.06506
 H599 H 1.15980 0.26737 0.18830
 H600 H 1.11011 0.27498 0.14549
 H601 H 1.07741 0.31688 0.10741
 H602 H 1.17575 0.39011 0.10593
 H603 H 1.20800 0.34891 0.14418
 H604 H 1.11674 0.41319 0.08271
 H605 H 1.23777 0.29959 0.16574
 H606 H 1.05985 0.35087 0.06241
 C607 C 0.71660 0.78839 0.68250
 C608 C 0.67827 0.78674 0.67325
 C609 C 0.66149 0.81021 0.64689
 C610 C 0.67938 0.84317 0.63545
 C611 C 0.66092 0.86677 0.61322
 C612 C 0.62423 0.85818 0.60180
 C613 C 0.60662 0.82477 0.61254
 C614 C 0.62508 0.80114 0.63494
 C615 C 0.60446 0.88653 0.58130
 C616 C 0.57133 0.88033 0.56309
 H617 H 0.65917 0.76842 0.68684
 H618 H 0.70688 0.85190 0.64453
 H619 H 0.67502 0.89251 0.60561
 H620 H 0.57811 0.81749 0.60480
 H621 H 0.61046 0.77613 0.64358
 H622 H 0.61682 0.91448 0.58084
 H623 H 0.73687 0.80422 0.66800
 H624 H 0.55979 0.85231 0.56042
 C625 C 1.22096 0.71135 -0.17960
 C626 C 1.18200 0.71051 -0.17226
 C627 C 1.16525 0.68837 -0.14497
 C628 C 1.18477 0.65815 -0.13047
 C629 C 1.16642 0.63493 -0.10770
 C630 C 1.12830 0.64129 -0.09880
 C631 C 1.10906 0.67216 -0.11251
 C632 C 1.12739 0.69535 -0.13544
 C633 C 1.10880 0.61288 -0.07808
 C634 C 1.07411 0.61834 -0.06185
 H635 H 1.16248 0.72544 -0.18812
 H636 H 1.21355 0.65106 -0.13765
 H637 H 1.18177 0.61111 -0.09776
 H638 H 1.07942 0.67752 -0.10684
 H639 H 1.11156 0.71819 -0.14651
 H640 H 1.12225 0.58557 -0.07618
 H641 H 1.24120 0.69982 -0.16250
 H642 H 1.06151 0.64600 -0.06043
 C643 C 0.71320 1.22334 0.32046
 C644 C 0.67430 1.21683 0.32505
 C645 C 0.65894 1.19435 0.35262
 C646 C 0.62034 1.19795 0.36123
 C647 C 0.60384 1.17392 0.38450
 C648 C 0.62569 1.14548 0.39928
 C649 C 0.66441 1.14234 0.39108
 C650 C 0.68098 1.16656 0.36812
 C651 C 0.60829 1.11622 0.42039
 C652 C 0.57444 1.12101 0.43788
 H653 H 0.65435 1.22678 0.30684
 H654 H 0.60264 1.21875 0.34926
 H655 H 0.57367 1.17654 0.38960
 H656 H 0.68169 1.12032 0.40180
 H657 H 0.71050 1.16209 0.36144
 H658 H 0.62254 1.08926 0.42164
 H659 H 0.73305 1.21660 0.33975
 H660 H 0.56160 1.14854 0.43979
 C661 C 0.79021 0.72441 0.18419
 C662 C 0.78854 0.68637 0.17610
 C663 C 0.80930 0.66856 0.14869
 C664 C 0.79716 0.63291 0.13874
 C665 C 0.81792 0.61270 0.11574
 C666 C 0.85168 0.62734 0.10213
 C667 C 0.86347 0.66364 0.11126
 C668 C 0.84239 0.68412 0.13435
 C669 C 0.87426 0.60225 0.08061
 C670 C 0.90852 0.61110 0.06453
 H671 H 0.77132 0.66786 0.19119
 H672 H 0.77189 0.62018 0.14943
 H673 H 0.80805 0.58485 0.10928
 H674 H 0.88942 0.67585 0.10155
 H675 H 0.85297 0.71128 0.14187
 H676 H 0.86357 0.57380 0.07824
 H677 H 0.80579 0.74402 0.16890
 H678 H 0.91944 0.63953 0.06407
 C679 C 0.29332 1.22861 0.68483
 C680 C 0.29074 1.19110 0.67513
 C681 C 0.31160 1.17383 0.64760
 C682 C 0.29766 1.13973 0.63555
 C683 C 0.31854 1.11923 0.61285
 C684 C 0.35417 1.13205 0.60167
 C685 C 0.36774 1.16702 0.61272
 C686 C 0.34653 1.18782 0.63552
 C687 C 0.37676 1.10624 0.58088
 C688 C 0.41166 1.11429 0.56565
 H689 H 0.27253 1.17234 0.68906
 H690 H 0.27090 1.12825 0.64450
 H691 H 0.30728 1.09247 0.60482
 H692 H 0.39519 1.17774 0.60493
 H693 H 0.35839 1.21372 0.64475
 H694 H 0.36528 1.07815 0.57803
 H695 H 0.31037 1.24846 0.67097
 H696 H 0.42324 1.14247 0.56550
 C697 C 0.78007 0.29159 -0.19188
 C698 C 0.81179 0.28051 -0.17378
 C699 C 0.82965 0.30528 -0.14916
 C700 C 0.86860 0.30108 -0.14218
 C701 C 0.88717 0.32626 -0.12142
 C702 C 0.86693 0.35603 -0.10711
 C703 C 0.82770 0.35927 -0.11305
 C704 C 0.80912 0.33396 -0.13351
 C705 C 0.88597 0.38566 -0.08788
 C706 C 0.92016 0.38063 -0.07108
 H707 H 0.82622 0.25467 -0.18011
 H708 H 0.88503 0.27911 -0.15377
 H709 H 0.91756 0.32324 -0.11778
 H710 H 0.81142 0.38176 -0.10207
 H711 H 0.77877 0.33729 -0.13713
 H712 H 0.87176 0.41260 -0.08625
 H713 H 0.76715 0.31866 -0.18757
 H714 H 0.93308 0.35309 -0.06955
 C715 C 0.28835 0.78222 0.30746
 C716 C 0.31541 0.81073 0.30358
 C717 C 0.33322 0.83125 0.33073
 C718 C 0.34413 0.81386 0.36018
 C719 C 0.36280 0.83476 0.38441
 C720 C 0.36992 0.87330 0.37955
 C721 C 0.35846 0.89036 0.35028
 C722 C 0.34086 0.86949 0.32601
 C723 C 0.38731 0.89776 0.40439
 C724 C 0.41560 0.88730 0.42672
 H725 H 0.32102 0.82153 0.27925
 H726 H 0.33891 0.78419 0.36417
 H727 H 0.37093 0.82107 0.40698
 H728 H 0.36346 0.92004 0.34601
 H729 H 0.33278 0.88345 0.30351
 H730 H 0.37972 0.92720 0.40257
 H731 H 0.28056 0.77230 0.33159
 H732 H 0.42448 0.85830 0.42895
 C733 C 1.19710 1.20064 0.28915
 C734 C 1.20884 1.16591 0.30129
 C735 C 1.18677 1.14520 0.32619
 C736 C 1.20626 1.12232 0.34853
 C737 C 1.18667 1.10499 0.37422
 C738 C 1.14712 1.10920 0.37720
 C739 C 1.12733 1.13100 0.35419
 C740 C 1.14698 1.14882 0.32884
 C741 C 1.12705 1.09116 0.40466
 C742 C 1.09060 1.07642 0.40110
 H743 H 1.23713 1.15575 0.29535
 H744 H 1.23678 1.11848 0.34652
 H745 H 1.20233 1.08808 0.39165
 H746 H 1.09681 1.13499 0.35616
 H747 H 1.13090 1.16532 0.31147
 H748 H 1.14216 1.08718 0.42743
 H749 H 1.16994 1.21238 0.29635
 H750 H 1.07721 1.07628 0.37734
 C751 C 0.68954 0.70556 -0.20978
 C752 C 0.69327 0.66727 -0.20356
 C753 C 0.67260 0.64865 -0.17663
 C754 C 0.66363 0.61039 -0.17892
 C755 C 0.64509 0.59195 -0.15318
 C756 C 0.63575 0.61154 -0.12455
 C757 C 0.64573 0.64953 -0.12195
 C758 C 0.66384 0.66803 -0.14779
 C759 C 0.61649 0.59312 -0.09671
 C760 C 0.59149 0.56300 -0.10035
 H761 H 0.71278 0.65062 -0.21802
 H762 H 0.67091 0.59481 -0.20070
 H763 H 0.63886 0.56231 -0.15552
 H764 H 0.63933 0.66499 -0.09992
 H765 H 0.67177 0.69722 -0.14479
 H766 H 0.61990 0.60556 -0.07282
 H767 H 0.66776 0.72153 -0.19727
 H768 H 0.58519 0.55224 -0.12438
 C769 C 0.81017 1.21050 0.70203
 C770 C 0.81265 1.17173 0.69883
 C771 C 0.83620 1.15445 0.67333
 C772 C 0.85088 1.11834 0.67839
 C773 C 0.87273 1.10115 0.65421
 C774 C 0.87985 1.11988 0.62448
 C775 C 0.86422 1.15554 0.61915
 C776 C 0.84263 1.17277 0.64334
 C777 C 0.90200 1.10264 0.59800
 C778 C 0.92921 1.07485 0.60318
 H779 H 0.79664 1.15347 0.71512
 H780 H 0.84548 1.10348 0.70110
 H781 H 0.88318 1.07302 0.65864
 H782 H 0.86874 1.17014 0.59617
 H783 H 0.83031 1.20001 0.63817
 H784 H 0.89757 1.11332 0.57349
 H785 H 0.82868 1.22871 0.68780
 H786 H 0.93593 1.06535 0.62761
 C787 C 0.28937 0.69644 0.19985
 C788 C 0.32868 0.69829 0.19552
 C789 C 0.34805 0.67788 0.16920
 C790 C 0.38581 0.66625 0.17362
 C791 C 0.40475 0.64677 0.14900
 C792 C 0.38620 0.63903 0.11943
 C793 C 0.34897 0.65200 0.11455
 C794 C 0.32992 0.67116 0.13927
 C795 C 0.40506 0.61799 0.09317
 C796 C 0.43216 0.59042 0.09949
 H797 H 0.34587 0.71498 0.21190
 H798 H 0.40050 0.67193 0.19627
 H799 H 0.43398 0.63828 0.15302
 H800 H 0.33444 0.64690 0.09172
 H801 H 0.30129 0.68115 0.13469
 H802 H 0.39543 0.62254 0.06837
 H803 H 0.27245 0.67744 0.18530
 H804 H 0.43973 0.58343 0.12437
 C805 C 1.19568 0.80242 0.70954
 C806 C 1.16252 0.78990 0.69497
 C807 C 1.14140 0.81412 0.67229
 C808 C 1.11863 0.79750 0.64833
 C809 C 1.10100 0.81971 0.62468
 C810 C 1.10508 0.85889 0.62519
 C811 C 1.12694 0.87567 0.64978
 C812 C 1.14509 0.85343 0.67310
 C813 C 1.08819 0.88132 0.59877
 C814 C 1.07562 0.91802 0.60312
 H815 H 1.15409 0.76071 0.69768
 H816 H 1.11552 0.76724 0.64727
 H817 H 1.08436 0.80629 0.60581
 H818 H 1.13116 0.90579 0.65037
 H819 H 1.16242 0.86695 0.69144
 H820 H 1.08395 0.86787 0.57539
 H821 H 1.20947 0.78635 0.72089
 H822 H 1.07528 0.93045 0.62716
 C823 C 0.70456 0.30497 0.20897
 C824 C 0.66528 0.31022 0.21017
 C825 C 0.64561 0.33126 0.18422
 C826 C 0.61320 0.35263 0.19158
 C827 C 0.59458 0.37284 0.16698
 C828 C 0.60799 0.37142 0.13460
 C829 C 0.63973 0.34909 0.12728
 C830 C 0.65840 0.32925 0.15177
 C831 C 0.58951 0.39163 0.10744
 C832 C 0.56492 0.42209 0.11109
 H833 H 0.64869 0.29862 0.23020
 H834 H 0.60258 0.35398 0.21640
 H835 H 0.56956 0.38892 0.17340
 H836 H 0.65023 0.34703 0.10245
 H837 H 0.68250 0.31187 0.14516
 H838 H 0.59724 0.38295 0.08299
 H839 H 0.72122 0.31979 0.19069
 H840 H 0.55773 0.43268 0.13500
 C841 C 0.80921 0.79651 0.29741
 C842 C 0.81855 0.83446 0.29536
 C843 C 0.83958 0.85340 0.32167
 C844 C 0.86304 0.88423 0.31425
 C845 C 0.88317 0.90251 0.33894
 C846 C 0.87979 0.89029 0.37157
 C847 C 0.85544 0.86008 0.37894
 C848 C 0.83552 0.84182 0.35433
 C849 C 0.90002 0.90851 0.39883
 C850 C 0.93064 0.93327 0.39509
 H851 H 0.81059 0.85058 0.27395
 H852 H 0.86602 0.89399 0.28928
 H853 H 0.90074 0.92633 0.33225
 H854 H 0.85178 0.85053 0.40392
 H855 H 0.81644 0.81910 0.36108
 H856 H 0.89084 0.90112 0.42333
 H857 H 0.81998 0.77969 0.31740
 H858 H 0.94152 0.94050 0.37115
 C859 C 0.30044 0.30817 -0.20356
 C860 C 0.33821 0.30309 -0.19442
 C861 C 0.35466 0.32594 -0.16817
 C862 C 0.39228 0.33898 -0.17065
 C863 C 0.40729 0.36233 -0.14654
 C864 C 0.38493 0.37233 -0.11935
 C865 C 0.34795 0.35777 -0.11624
 C866 C 0.33283 0.33494 -0.14048
 C867 C 0.39967 0.39658 -0.09323
 C868 C 0.42732 0.42413 -0.09856
 H869 H 0.35595 0.28277 -0.20685
 H870 H 0.40973 0.33171 -0.19154
 H871 H 0.43643 0.37203 -0.14903
 H872 H 0.33054 0.36447 -0.09517
 H873 H 0.30411 0.32415 -0.13748
 H874 H 0.38737 0.39329 -0.06908
 H875 H 0.28423 0.33089 -0.19286
 H876 H 0.43819 0.42939 -0.12293
 C877 C 1.21555 0.28259 -0.18390
 C878 C 1.17633 0.28771 -0.18000
 C879 C 1.15951 0.31103 -0.15383
 C880 C 1.12085 0.30636 -0.14566
 C881 C 1.10300 0.33069 -0.12368
 C882 C 1.12349 0.36052 -0.10972
 C883 C 1.16224 0.36491 -0.11760
 C884 C 1.18017 0.34038 -0.13927
 C885 C 1.10484 0.38932 -0.08922
 C886 C 1.07141 0.38318 -0.07129
 H887 H 1.15710 0.27580 -0.19781
 H888 H 1.10419 0.28432 -0.15691
 H889 H 1.07286 0.32701 -0.11883
 H890 H 1.17853 0.38794 -0.10749
 H891 H 1.20968 0.34566 -0.14564
 H892 H 1.11848 0.41662 -0.08786
 H893 H 1.23480 0.29138 -0.16485
 H894 H 1.05921 0.35528 -0.06958
 C895 C 0.71865 0.78732 0.31503
 C896 C 0.67946 0.78840 0.32145
 C897 C 0.66175 0.81299 0.34643
 C898 C 0.68017 0.84544 0.35794
 C899 C 0.66109 0.87026 0.37867
 C900 C 0.62333 0.86329 0.38859
 C901 C 0.60508 0.83052 0.37756
 C902 C 0.62409 0.80579 0.35659
 C903 C 0.60341 0.89217 0.40830
 C904 C 0.57044 0.88569 0.42689
 H905 H 0.66054 0.77189 0.30635
 H906 H 0.70869 0.85275 0.34999
 H907 H 0.67571 0.89548 0.38649
 H908 H 0.57573 0.82456 0.38400
 H909 H 0.60903 0.78132 0.34771
 H910 H 0.61592 0.92004 0.40860
 H911 H 0.73834 0.80134 0.33115
 H912 H 0.55895 0.85758 0.42936
 C913 C 0.77837 0.71527 -0.18699
 C914 C 0.81689 0.71315 -0.17861
 C915 C 0.83146 0.68894 -0.15180
 C916 C 0.86786 0.69599 -0.13897
 C917 C 0.88398 0.67161 -0.11588
 C918 C 0.86405 0.63935 -0.10538
 C919 C 0.82746 0.63262 -0.11789
 C920 C 0.81126 0.65709 -0.14074
 C921 C 0.88158 0.61031 -0.08408
 C922 C 0.91320 0.61623 -0.06400
 H923 H 0.83749 0.72900 -0.19291
 H924 H 0.88423 0.72004 -0.14738
 H925 H 0.91258 0.67733 -0.10745
 H926 H 0.81167 0.60774 -0.11056
 H927 H 0.78366 0.64992 -0.15065
 H928 H 0.86914 0.58242 -0.08475
 H929 H 0.75716 0.70218 -0.17145
 H930 H 0.92437 0.64428 -0.06059
 C931 C 0.28307 1.22293 0.31468
 C932 C 0.32164 1.21623 0.32067
 C933 C 0.33553 1.19394 0.34893
 C934 C 0.37410 1.19637 0.35780
 C935 C 0.38908 1.17265 0.38192
 C936 C 0.36577 1.14561 0.39733
 C937 C 0.32709 1.14367 0.38891
 C938 C 0.31203 1.16772 0.36520
 C939 C 0.38159 1.11649 0.41937
 C940 C 0.41485 1.12108 0.43758
 H941 H 0.34263 1.22645 0.30327
 H942 H 0.39293 1.21602 0.34543
 H943 H 0.41924 1.17433 0.38724
 H944 H 0.30864 1.12279 0.40014
 H945 H 0.28242 1.16443 0.35872
 H946 H 0.36670 1.08979 0.42070
 H947 H 0.26198 1.21592 0.33305
 H948 H 0.42812 1.14848 0.43928
 C949 C 1.20052 0.71927 0.18450
 C950 C 1.18223 0.68444 0.18579
 C951 C 1.16427 0.66588 0.15764
 C952 C 1.16492 0.62659 0.15688
 C953 C 1.14718 0.60719 0.13179
 C954 C 1.12735 0.62648 0.10725
 C955 C 1.12637 0.66599 0.10782
 C956 C 1.14508 0.68565 0.13280
 C957 C 1.10886 0.60358 0.08185
 C958 C 1.07523 0.61274 0.06531
 H959 H 1.18357 0.66815 0.20816
 H960 H 1.17937 0.61077 0.17580
 H961 H 1.14837 0.57677 0.13192
 H962 H 1.11160 0.68157 0.08899
 H963 H 1.14375 0.71602 0.13311
 H964 H 1.12005 0.57541 0.07905
 H965 H 1.20120 0.73533 0.16200
 H966 H 1.06323 0.64067 0.06674
 C967 C 0.71932 1.21008 0.68193
 C968 C 0.68124 1.21140 0.67213
 C969 C 0.66454 1.18662 0.64699
 C970 C 0.62823 1.19517 0.63470
 C971 C 0.60972 1.17065 0.61340
 C972 C 0.62723 1.13685 0.60402
 C973 C 0.66377 1.12861 0.61590
 C974 C 0.68230 1.15314 0.63712
 C975 C 0.60744 1.10820 0.58417
 C976 C 0.57502 1.11506 0.56533
 H977 H 0.66210 1.23056 0.68448
 H978 H 0.61371 1.22054 0.64224
 H979 H 0.58125 1.17770 0.60546
 H980 H 0.67773 1.10259 0.60933
 H981 H 0.70975 1.14485 0.64661
 H982 H 0.61906 1.08001 0.58458
 H983 H 0.73971 1.19308 0.66887
 H984 H 0.56433 1.14332 0.56222
 C985 C 0.78615 0.27280 0.18584
 C986 C 0.82464 0.28169 0.18176
 C987 C 0.83919 0.30361 0.15355
 C988 C 0.87804 0.30161 0.14536
 C989 C 0.89350 0.32526 0.12129
 C990 C 0.87033 0.35175 0.10532
 C991 C 0.83140 0.35329 0.11314
 C992 C 0.81588 0.32940 0.13687
 C993 C 0.88639 0.38075 0.08324
 C994 C 0.92029 0.37662 0.06568
 H995 H 0.84472 0.27405 0.20067
 H996 H 0.89667 0.28237 0.15821
 H997 H 0.92382 0.32397 0.11643
 H998 H 0.81310 0.37381 0.10147
 H999 H 0.78607 0.33261 0.14318
 H1000 H 0.87083 0.40692 0.08099
 H1001 H 0.76652 0.27720 0.16590
 H1002 H 0.93436 0.34962 0.06459
 C1003 C 0.28637 0.77639 0.68734
 C1004 C 0.32513 0.78024 0.68009
 C1005 C 0.33969 0.80451 0.65323
 C1006 C 0.37691 0.79911 0.64137
 C1007 C 0.39275 0.82387 0.61827
 C1008 C 0.37167 0.85483 0.60688
 C1009 C 0.33434 0.85993 0.61848
 C1010 C 0.31844 0.83509 0.64129
 C1011 C 0.38849 0.88429 0.58553
 C1012 C 0.42037 0.87934 0.56543
 H1013 H 0.34579 0.76617 0.69547
 H1014 H 0.39407 0.77610 0.65052
 H1015 H 0.42192 0.81955 0.61050
 H1016 H 0.31767 0.88382 0.61043
 H1017 H 0.29016 0.84105 0.65050
 H1018 H 0.37487 0.91160 0.58577
 H1019 H 0.26529 0.78763 0.67078
 H1020 H 0.43264 0.85173 0.56226
 C1021 C 0.28501 1.21948 -0.18458
 C1022 C 0.28803 1.18090 -0.17892
 C1023 C 0.31111 1.16478 -0.15206
 C1024 C 0.30427 1.12768 -0.14171
 C1025 C 0.32795 1.11050 -0.11858
 C1026 C 0.35924 1.13012 -0.10563
 C1027 C 0.36575 1.16733 -0.11571
 C1028 C 0.34199 1.18455 -0.13858
 C1029 C 0.38780 1.11194 -0.08423
 C1030 C 0.38138 1.07923 -0.06596
 H1031 H 0.27413 1.16165 -0.19547
 H1032 H 0.28100 1.11167 -0.15206
 H1033 H 0.32260 1.08147 -0.11204
 H1034 H 0.38997 1.18289 -0.10647
 H1035 H 0.34906 1.21272 -0.14662
 H1036 H 0.41575 1.12493 -0.08320
 H1037 H 0.29588 1.23904 -0.16680
 H1038 H 0.35303 1.06733 -0.06401
 C1039 C 0.77842 0.71203 0.31393
 C1040 C 0.80494 0.68295 0.31163
 C1041 C 0.82676 0.66803 0.33940
 C1042 C 0.80989 0.65869 0.36956
 C1043 C 0.83192 0.64204 0.39431
 C1044 C 0.87107 0.63558 0.38922
 C1045 C 0.88769 0.64586 0.35933
 C1046 C 0.86567 0.66129 0.33453
 C1047 C 0.89622 0.61902 0.41416
 C1048 C 0.88601 0.58923 0.43482
 H1049 H 0.81448 0.67424 0.28766
 H1050 H 0.77975 0.66338 0.37363
 H1051 H 0.81859 0.63470 0.41736
 H1052 H 0.91781 0.64122 0.35491
 H1053 H 0.87917 0.66824 0.31144
 H1054 H 0.92597 0.62722 0.41276
 H1055 H 0.76998 0.72269 0.33755
 H1056 H 0.85665 0.57985 0.43635
 C1057 C 0.71133 1.21608 0.18954
 C1058 C 0.71248 1.17829 0.18059
 C1059 C 0.68846 1.16214 0.15442
 C1060 C 0.69770 1.12672 0.14169
 C1061 C 0.67382 1.10919 0.11901
 C1062 C 0.63998 1.12678 0.10882
 C1063 C 0.63107 1.16236 0.12124
 C1064 C 0.65491 1.17988 0.14373
 C1065 C 0.61161 1.10812 0.08762
 C1066 C 0.61861 1.07668 0.06818
 H1067 H 0.73097 1.15939 0.19397
 H1068 H 0.72312 1.11222 0.14980
 H1069 H 0.68130 1.08144 0.11057
 H1070 H 0.60497 1.17636 0.11409
 H1071 H 0.64597 1.20659 0.15354
 H1072 H 0.58318 1.12002 0.08744
 H1073 H 0.69529 1.23604 0.17516
 H1074 H 0.64718 1.06567 0.06551
 C1075 C 1.21949 0.70953 0.68896
 C1076 C 1.21566 0.67101 0.68346
 C1077 C 1.19195 0.65517 0.65699
 C1078 C 1.19771 0.61780 0.64732
 C1079 C 1.17336 0.60081 0.62473
 C1080 C 1.14244 0.62088 0.61163
 C1081 C 1.13701 0.65836 0.62100
 C1082 C 1.16147 0.67540 0.64332
 C1083 C 1.11339 0.60310 0.59054
 C1084 C 1.11901 0.57041 0.57237
 H1085 H 1.22948 0.65145 0.69993
 H1086 H 1.22066 0.60145 0.65783
 H1087 H 1.17795 0.57162 0.61867
 H1088 H 1.11314 0.67431 0.61158
 H1089 H 1.15528 0.70383 0.65081
 H1090 H 1.08592 0.61690 0.58907
 H1091 H 1.20899 0.72944 0.67116
 H1092 H 1.14697 0.55774 0.57076
 C1093 C 0.71846 0.78735 -0.18634
 C1094 C 0.71453 0.82591 -0.18120
 C1095 C 0.69179 0.84187 -0.15403
 C1096 C 0.69747 0.87952 -0.14509
 C1097 C 0.67377 0.89656 -0.12189
 C1098 C 0.64358 0.87627 -0.10749
 C1099 C 0.63831 0.83851 -0.11608
 C1100 C 0.66213 0.82142 -0.13897
 C1101 C 0.61479 0.89414 -0.08609
 C1102 C 0.62055 0.92721 -0.06850
 H1103 H 0.72728 0.84536 -0.19853
 H1104 H 0.71977 0.89605 -0.15666
 H1105 H 0.67816 0.92595 -0.11645
 H1106 H 0.61496 0.82239 -0.10564
 H1107 H 0.65597 0.79275 -0.14583
 H1108 H 0.58729 0.88031 -0.08414
 H1109 H 0.70887 0.76765 -0.16786
 H1110 H 0.64859 0.93985 -0.06723
 C1111 C 1.21449 0.28656 0.31230
 C1112 C 1.21466 0.32475 0.32004
 C1113 C 1.19024 0.34124 0.34589
 C1114 C 1.19891 0.37714 0.35791
 C1115 C 1.17448 0.39495 0.38010
 C1116 C 1.14060 0.37721 0.39044
 C1117 C 1.13221 0.34119 0.37869
 C1118 C 1.15667 0.32334 0.35675
 C1119 C 1.11169 0.39618 0.41102
 C1120 C 1.11861 0.42731 0.43085
 H1121 H 1.23238 0.34370 0.30575
 H1122 H 1.22430 0.39178 0.34959
 H1123 H 1.18149 0.42305 0.38801
 H1124 H 1.10607 0.32707 0.38593
 H1125 H 1.14818 0.29626 0.34739
 H1126 H 1.08307 0.38462 0.41061
 H1127 H 1.19948 0.26678 0.32782
 H1128 H 1.14733 0.43775 0.43418
 C1129 C 0.27189 0.78266 0.17766
 C1130 C 0.27590 0.82104 0.17110
 C1131 C 0.30132 0.83652 0.14524
 C1132 C 0.29646 0.87391 0.13498
 C1133 C 0.32265 0.89097 0.11362
 C1134 C 0.35460 0.87098 0.10230
 C1135 C 0.35915 0.83342 0.11218
 C1136 C 0.33279 0.81627 0.13328
 C1137 C 0.38528 0.88915 0.08267
 C1138 C 0.38023 0.92161 0.06379
 H1139 H 0.26177 0.84091 0.18699
 H1140 H 0.27282 0.89032 0.14422
 H1141 H 0.31861 0.92022 0.10727
 H1142 H 0.38373 0.81751 0.10415
 H1143 H 0.33827 0.78779 0.14131
 H1144 H 0.41325 0.87626 0.08317
 H1145 H 0.28322 0.76237 0.16067
 H1146 H 0.35197 0.93314 0.06051
 C1147 C 0.77209 0.28761 0.67807
 C1148 C 0.77957 0.32587 0.67375
 C1149 C 0.80154 0.34112 0.64564
 C1150 C 0.79825 0.37936 0.63750
 C1151 C 0.82195 0.39562 0.61368
 C1152 C 0.84983 0.37392 0.59783
 C1153 C 0.85260 0.33555 0.60553
 C1154 C 0.82867 0.31922 0.62903
 C1155 C 0.87917 0.39095 0.57618
 C1156 C 0.87498 0.42513 0.55961
 H1157 H 0.77070 0.34538 0.69247
 H1158 H 0.77795 0.39692 0.65026
 H1159 H 0.81960 0.42546 0.60898
 H1160 H 0.87419 0.31834 0.59401
 H1161 H 0.83293 0.28995 0.63524
 H1162 H 0.90599 0.37608 0.57385
 H1163 H 0.77796 0.26826 0.65844
 H1164 H 0.84749 0.43884 0.55868
 C1165 C 1.20379 1.20638 0.70310
 C1166 C 1.19557 1.16835 0.70713
 C1167 C 1.17760 1.14656 0.68076
 C1168 C 1.15348 1.11630 0.68845
 C1169 C 1.13524 1.09628 0.66366
 C1170 C 1.14122 1.10613 0.63068
 C1171 C 1.16676 1.13532 0.62312
 C1172 C 1.18478 1.15531 0.64782
 C1173 C 1.12176 1.08707 0.60336
 C1174 C 1.08934 1.06456 0.60683
 H1175 H 1.20217 1.15441 0.72999
 H1176 H 1.14822 1.10858 0.71367
 H1177 H 1.11679 1.07320 0.67057
 H1178 H 1.17248 1.14303 0.59796
 H1179 H 1.20457 1.17742 0.64100
 H1180 H 1.13231 1.09291 0.57896
 H1181 H 1.19429 1.22079 0.68130
 H1182 H 1.07734 1.05871 0.63065
 C1183 C 0.69778 0.71274 0.20246
 C1184 C 0.69269 0.67395 0.20305
 C1185 C 0.67286 0.65383 0.17677
 C1186 C 0.65647 0.61865 0.18344
 C1187 C 0.63813 0.59867 0.15881
 C1188 C 0.63624 0.61354 0.12699
 C1189 C 0.65367 0.64818 0.12016
 C1190 C 0.67179 0.66821 0.14477
 C1191 C 0.61716 0.59357 0.10020
 C1192 C 0.58756 0.56795 0.10517
 H1193 H 0.70419 0.65761 0.22310
 H1194 H 0.65780 0.60668 0.20776
 H1195 H 0.62612 0.57143 0.16468
 H1196 H 0.65308 0.65989 0.09571
 H1197 H 0.68555 0.69452 0.13844
 H1198 H 0.62490 0.60145 0.07546
 H1199 H 0.68339 0.72961 0.18430
 H1200 H 0.57748 0.56158 0.12957
 C1201 C 1.19620 0.80376 0.29103
 C1202 C 1.21000 0.83638 0.30533
 C1203 C 1.18668 0.85735 0.32885
 C1204 C 1.20414 0.87325 0.35617
 C1205 C 1.18202 0.89037 0.38023
 C1206 C 1.14227 0.89262 0.37690
 C1207 C 1.12493 0.87780 0.34893
 C1208 C 1.14699 0.86040 0.32507
 C1209 C 1.11961 0.90894 0.40358
 C1210 C 1.08408 0.92554 0.39886
 H1211 H 1.23939 0.84478 0.30158
 H1212 H 1.23474 0.87126 0.35941
 H1213 H 1.19591 0.90162 0.40162
 H1214 H 1.09431 0.87853 0.34585
 H1215 H 1.13294 0.84906 0.30381
 H1216 H 1.13236 0.90970 0.42763
 H1217 H 1.16761 0.79405 0.29662
 H1218 H 1.07266 0.92910 0.37455
 C1219 C 0.68173 0.29506 -0.20697
 C1220 C 0.68655 0.29699 -0.17353
 C1221 C 0.65894 0.31513 -0.15183
 C1222 C 0.66483 0.31275 -0.11812
 C1223 C 0.64029 0.33093 -0.09668
 C1224 C 0.60976 0.35222 -0.10862
 C1225 C 0.60305 0.35371 -0.14239
 C1226 C 0.62752 0.33525 -0.16388
 C1227 C 0.58648 0.37316 -0.08509
 C1228 C 0.56761 0.40640 -0.09292
 H1229 H 0.71167 0.28500 -0.16252
 H1230 H 0.68876 0.29717 -0.10836
 H1231 H 0.64583 0.32922 -0.07073
 H1232 H 0.57908 0.36900 -0.15229
 H1233 H 0.62214 0.33722 -0.18983
 H1234 H 0.58776 0.36425 -0.05979
 H1235 H 0.69892 0.28367 -0.21923
 H1236 H 0.56653 0.41660 -0.11781
 C1237 C 0.79515 1.19160 0.29739
 C1238 C 0.83473 1.19166 0.29993
 C1239 C 0.85458 1.17103 0.32606
 C1240 C 0.89198 1.15852 0.32084
 C1241 C 0.91165 1.13973 0.34561
 C1242 C 0.89423 1.13364 0.37617
 C1243 C 0.85723 1.14711 0.38160
 C1244 C 0.83749 1.16552 0.35680
 C1245 C 0.91385 1.11426 0.40319
 C1246 C 0.94255 1.08777 0.39850
 H1247 H 0.85175 1.20768 0.28265
 H1248 H 0.90592 1.16322 0.29753
 H1249 H 0.94061 1.13076 0.34093
 H1250 H 0.84349 1.14325 0.40511
 H1251 H 0.80924 1.17616 0.36203
 H1252 H 0.90323 1.11905 0.42768
 H1253 H 0.77830 1.17300 0.31269
 H1254 H 0.95181 1.08054 0.37412
 C1255 C 0.30656 0.69018 -0.20516
 C1256 C 0.34620 0.69161 -0.20545
 C1257 C 0.36792 0.67332 -0.17923
 C1258 C 0.40198 0.65440 -0.18617
 C1259 C 0.42176 0.63594 -0.16120
 C1260 C 0.40793 0.63700 -0.12894
 C1261 C 0.37480 0.65741 -0.12198
 C1262 C 0.35483 0.67520 -0.14688
 C1263 C 0.42700 0.61761 -0.10174
 C1264 C 0.44822 0.58480 -0.10530
 H1265 H 0.36137 0.70685 -0.22444
 H1266 H 0.41278 0.65327 -0.21094
 H1267 H 0.44786 0.62129 -0.16712
 H1268 H 0.36394 0.65904 -0.09725
 H1269 H 0.32920 0.69064 -0.14079
 H1270 H 0.42090 0.62772 -0.07739
 H1271 H 0.29237 0.67158 -0.18801
 H1272 H 0.45349 0.57316 -0.12922
 C1273 C 0.80648 0.79792 0.70508
 C1274 C 0.80344 0.83614 0.69839
 C1275 C 0.82607 0.85395 0.67220
 C1276 C 0.83772 0.89142 0.67527
 C1277 C 0.85912 0.90867 0.65051
 C1278 C 0.86857 0.88872 0.62209
 C1279 C 0.85571 0.85168 0.61860
 C1280 C 0.83482 0.83432 0.64348
 C1281 C 0.89084 0.90594 0.59535
 C1282 C 0.91854 0.93331 0.60061
 H1283 H 0.78374 0.85331 0.71219
 H1284 H 0.83055 0.90721 0.69695
 H1285 H 0.86762 0.93770 0.65343
 H1286 H 0.86212 0.83604 0.59666
 H1287 H 0.82497 0.80578 0.63995
 H1288 H 0.88702 0.89490 0.57099
 H1289 H 0.82851 0.78163 0.69320
 H1290 H 0.92495 0.94235 0.62516
 C1291 C 0.30379 0.30620 0.20592
 C1292 C 0.29928 0.34492 0.20354
 C1293 C 0.31810 0.36610 0.17715
 C1294 C 0.33335 0.40180 0.18309
 C1295 C 0.35249 0.42129 0.15821
 C1296 C 0.35583 0.40543 0.12698
 C1297 C 0.33884 0.37057 0.12078
 C1298 C 0.32034 0.35093 0.14567
 C1299 C 0.37682 0.42406 0.10026
 C1300 C 0.40834 0.44715 0.10537
 H1301 H 0.28139 0.35980 0.22073
 H1302 H 0.33118 0.41416 0.20711
 H1303 H 0.36434 0.44870 0.16340
 H1304 H 0.34059 0.35813 0.09676
 H1305 H 0.30762 0.32392 0.14026
 H1306 H 0.36960 0.41608 0.07557
 H1307 H 0.32475 0.29250 0.19064
 H1308 H 0.41735 0.45389 0.12987
   
