data_POSCAR
  _audit_creation_date              2014-09-24
  _audit_creation_method            'ToBaCCo'
  _symmetry_space_group_name_H-M    'P1'
  _symmetry_Int_Tables_number       1
  _symmetry_cell_setting            triclinic
  loop_
  _symmetry_equiv_pos_as_xyz
 x,y,z
_cell_length_a 69.0901
_cell_length_b 74.1948
_cell_length_c 74.1684
_cell_angle_alpha 89.951200
_cell_angle_beta 89.523600
_cell_angle_gamma 89.743400
loop_
  _atom_site_label
  _atom_site_type_symbol
  _atom_site_fract_x
  _atom_site_fract_y
  _atom_site_fract_z
C1 C 0.29963 0.41286 0.90875
 N2 N 0.31409 0.42415 0.91350
 C3 C 0.32471 0.42125 0.92866
 N4 N 0.32070 0.40651 0.93914
 C5 C 0.30614 0.39511 0.93445
 N6 N 0.29564 0.39852 0.91944
 C7 C 0.45804 0.82787 0.44076
 N8 N 0.44322 0.82322 0.45189
 C9 C 0.43359 0.80745 0.44958
 N10 N 0.43881 0.79620 0.43589
 C11 C 0.45397 0.80060 0.42500
 N12 N 0.46342 0.81633 0.42750
 C13 C 0.96206 0.90815 0.83024
 N14 N 0.96548 0.91956 0.84424
 C15 C 0.95484 0.93504 0.84611
 N16 N 0.94075 0.93879 0.83387
 C17 C 0.93718 0.92739 0.82003
 N18 N 0.94792 0.91224 0.81839
 C19 C 0.44788 -0.08252 0.31822
 N20 N 0.45792 -0.07102 0.32883
 C21 C 0.44910 -0.05676 0.33699
 N22 N 0.42986 -0.05382 0.33438
 C23 C 0.41961 -0.06510 0.32362
 N24 N 0.42869 -0.07942 0.31572
 C25 C 0.80881 0.31676 0.31623
 N26 N 0.82729 0.31751 0.30974
 C27 C 0.83263 0.33118 0.29849
 N28 N 0.81948 0.34406 0.29412
 C29 C 0.80112 0.34349 0.30059
 N30 N 0.79584 0.32972 0.31155
 C31 C -0.19624 0.83117 0.80740
 N32 N -0.20781 0.82274 0.81965
 C33 C -0.20049 0.81181 0.83256
 N34 N -0.18112 0.80893 0.83288
 C35 C -0.16919 0.81673 0.82049
 N36 N -0.17674 0.82807 0.80782
 C37 C 0.95063 0.34930 0.42561
 N38 N 0.93759 0.33644 0.43039
 C39 C 0.93400 0.32227 0.41934
 N40 N 0.94354 0.32107 0.40329
 C41 C 0.95655 0.33385 0.39822
 N42 N 0.96003 0.34792 0.40948
 C43 C 0.43586 0.42931 0.83124
 N44 N 0.44985 0.41701 0.82705
 C45 C 0.44773 0.40569 0.81279
 N46 N 0.43128 0.40658 0.80287
 C47 C 0.41716 0.41873 0.80695
 N48 N 0.41964 0.43006 0.82104
 C49 C 0.80318 0.92425 0.94078
 N50 N 0.81636 0.93607 0.94715
 C51 C 0.82193 0.95068 0.93751
 N52 N 0.81411 0.95347 0.92098
 C53 C 0.80097 0.94173 0.91419
 N54 N 0.79553 0.92715 0.92418
 C55 C 0.28439 0.84185 0.33394
 N56 N 0.30225 0.83895 0.32681
 C57 C 0.31355 0.82505 0.33245
 N58 N 0.30686 0.81385 0.34565
 C59 C 0.28890 0.81657 0.35290
 N60 N 0.27781 0.83049 0.34693
 C61 C 0.80225 0.42402 0.43865
 N62 N 0.81903 0.43314 0.44147
 C63 C 0.82314 0.44802 0.43136
 N64 N 0.81056 0.45333 0.41836
 C65 C 0.79394 0.44424 0.41541
 N66 N 0.78984 0.42970 0.42573
 C67 C 0.93412 0.83037 -0.04584
 N68 N 0.91996 0.81881 -0.04063
 C69 C 0.91643 0.80355 -0.04998
 N70 N 0.92744 0.79948 -0.06466
 C71 C 0.94205 0.81067 -0.06994
 N72 N 0.94518 0.82614 -0.06049
 C73 C 0.30298 0.30595 0.79844
 N74 N 0.29726 0.29288 0.80998
 C75 C 0.31017 0.28120 0.81722
 N76 N 0.32929 0.28262 0.81284
 C77 C 0.33525 0.29561 0.80101
 N78 N 0.32200 0.30724 0.79401
 C79 C 0.17875 0.56695 0.55864
 N80 N 0.18436 0.55303 0.56923
 C81 C 0.20022 0.55440 0.57981
 N82 N 0.21048 0.57001 0.57986
 C83 C 0.20508 0.58407 0.56923
 N84 N 0.18921 0.58239 0.55867
 C85 C 0.55386 0.69935 0.05879
 N86 N 0.55165 0.68373 0.04955
 C87 C 0.53759 0.67178 0.05418
 N88 N 0.52561 0.67561 0.06834
 C89 C 0.52768 0.69121 0.07778
 N90 N 0.54184 0.70296 0.07292
 C91 C 0.71678 0.18855 0.65523
 N92 N 0.70077 0.19187 0.66550
 C93 C 0.69683 0.18179 0.68033
 N94 N 0.70918 0.16832 0.68491
 C95 C 0.72530 0.16480 0.67491
 N96 N 0.72903 0.17494 0.65996
 C97 C 1.07658 0.08124 0.19777
 N98 N 1.06690 0.09715 0.19870
 C99 C 1.05168 0.10073 0.18787
 N100 N 1.04598 0.08806 0.17581
 C101 C 1.05538 0.07190 0.17462
 N102 N 1.07070 0.06863 0.18569
 C103 C 0.04645 0.17313 1.05090
 N104 N 0.06333 0.17574 1.04201
 C105 C 0.07305 0.19153 1.04341
 N106 N 0.06587 0.20496 1.05414
 C107 C 0.04830 0.20277 1.06236
 N108 N 0.03886 0.18688 1.06062
 C109 C 0.17542 0.66769 0.69741
 N110 N 0.18505 0.65216 0.70108
 C111 C 0.20365 0.64966 0.69583
 N112 N 0.21281 0.66306 0.68676
 C113 C 0.20344 0.67872 0.68281
 N114 N 0.18465 0.68103 0.68812
 C115 C 1.20404 0.17127 0.19230
 N116 N 1.19170 0.18481 0.19692
 C117 C 1.18413 0.19596 0.18422
 N118 N 1.18950 0.19389 0.16664
 C119 C 1.20219 0.18057 0.16179
 N120 N 1.20903 0.16921 0.17470
 C121 C 0.69749 1.05090 0.55449
 N122 N 0.71179 1.04529 0.56556
 C123 C 0.72678 1.05634 0.56951
 N124 N 0.72761 1.07319 0.56221
 C125 C 0.71345 1.07885 0.55081
 N126 N 0.69850 1.06760 0.54723
 C127 C 0.53046 0.55408 0.17049
 N128 N 0.54463 0.54920 0.18198
 C129 C 0.54866 0.55923 0.19669
 N130 N 0.53812 0.57438 0.20019
 C131 C 0.52351 0.57931 0.18887
 N132 N 0.51991 0.56914 0.17400
 C133 C 0.65323 0.68847 0.18904
 N134 N 0.66635 0.67822 0.19782
 C135 C 0.68522 0.67819 0.19276
 N136 N 0.69115 0.68838 0.17853
 C137 C 0.67807 0.69902 0.16987
 N138 N 0.65921 0.69910 0.17524
 C139 C 0.17241 0.04792 1.07712
 N140 N 0.18068 0.05776 1.06353
 C141 C 0.19874 0.06475 1.06564
 N142 N 0.20831 0.06204 1.08133
 C143 C 0.20014 0.05266 1.09507
 N144 N 0.18228 0.04562 1.09277
 C145 C 0.58624 0.19138 0.54719
 N146 N 0.58226 0.17339 0.54661
 C147 C 0.57007 0.16604 0.55918
 N148 N 0.56231 0.17670 0.57229
 C149 C 0.56624 0.19453 0.57295
 N150 N 0.57814 0.20173 0.56033
 C151 C 0.06413 0.55289 0.68784
 N152 N 0.05654 0.55249 0.67093
 C153 C 0.04102 0.56283 0.66664
 N154 N 0.03283 0.57329 0.67956
 C155 C 0.04007 0.57388 0.69647
 N156 N 0.05595 0.56378 0.70065
 C157 C 0.65943 0.56076 0.05828
 N158 N 0.66096 0.57719 0.05044
 C159 C 0.67158 0.59042 0.05803
 N160 N 0.68114 0.58692 0.07357
 C161 C 0.67978 0.57047 0.08169
 N162 N 0.66870 0.55739 0.07404
 C163 C 0.04732 0.68892 0.59560
 N164 N 0.04122 0.67841 0.58173
 C165 C 0.05249 0.67642 0.56665
 N166 N 0.06995 0.68482 0.56570
 C167 C 0.07617 0.69517 0.57951
 N168 N 0.06476 0.69713 0.59428
 C169 C 0.56975 1.05177 0.66628
 N170 N 0.58761 1.05002 0.67369
 C171 C 0.59465 1.06276 0.68492
 N172 N 0.58343 1.07720 0.68914
 C173 C 0.56544 1.07915 0.68218
 N174 N 0.55875 1.06652 0.67049
 C175 C 0.44767 0.32579 0.93873
 N176 N 0.45894 0.32326 0.92377
 C177 C 0.45849 0.30731 0.91469
 N178 N 0.44685 0.29390 0.92074
 C179 C 0.43570 0.29619 0.93565
 N180 N 0.43611 0.31215 0.94447
 C181 C 0.94454 0.45134 0.32325
 N182 N 0.92607 0.45733 0.32153
 C183 C 0.91524 0.45285 0.30699
 N184 N 0.92318 0.44227 0.29384
 C185 C 0.94166 0.43603 0.29552
 N186 N 0.95211 0.44056 0.31022
 C187 C 0.29739 0.95291 0.43966
 N188 N 0.29454 0.93523 0.44298
 C189 C 0.30695 0.92578 0.45357
 N190 N 0.32294 0.93408 0.46038
 C191 C 0.32608 0.95192 0.45681
 N192 N 0.31301 0.96109 0.44668
 O193 O 0.19046 0.50045 0.73568
 O194 O 0.19409 0.49776 0.76673
 O195 O 0.24770 0.51694 0.71794
 O196 O 0.27915 0.50474 0.71883
 O197 O 0.21783 0.47352 0.69058
 O198 O 0.21278 0.44270 0.69724
 O199 O 0.28578 0.46109 0.76643
 O200 O 0.28560 0.49218 0.76321
 O201 O 0.23141 0.44665 0.78697
 O202 O 0.19796 0.45306 0.77903
 O203 O 0.25456 0.41975 0.74331
 O204 O 0.25619 0.42554 0.71044
 O205 O 0.28349 0.43981 0.74450
 O206 O 0.27943 0.44189 0.71135
 O207 O 0.22936 0.42298 0.76293
 O208 O 0.19527 0.43556 0.75841
 O209 O 0.25878 0.46339 0.78849
 O210 O 0.25784 0.49666 0.78319
 O211 O 0.18902 0.47819 0.71464
 O212 O 0.19063 0.44585 0.71591
 O213 O 0.24378 0.49218 0.69216
 O214 O 0.27696 0.48417 0.70097
 O215 O 0.22204 0.52104 0.73689
 O216 O 0.22217 0.51349 0.76968
 Zr217 Zr 0.21743 0.49517 0.74821
 O218 O 0.22994 0.47670 0.76657
 Zr219 Zr 0.25355 0.48926 0.71884
 O220 O 0.26767 0.47117 0.73613
 Zr221 Zr 0.21472 0.46329 0.71681
 O222 O 0.22722 0.44368 0.73358
 Zr223 Zr 0.26018 0.47634 0.76314
 O224 O 0.24794 0.49624 0.74595
 Zr225 Zr 0.22132 0.45030 0.76057
 O226 O 0.20695 0.46890 0.74366
 Zr227 Zr 0.25746 0.44508 0.73118
 O228 O 0.24481 0.46295 0.71248
 O229 O 0.22360 0.48960 0.72132
 O230 O 0.25132 0.45006 0.75821
 C231 C 0.18177 0.49186 0.72299
 C232 C 0.23494 0.52691 0.72573
 C233 C 0.22986 0.48472 0.68357
 C234 C 0.29221 0.44721 0.75778
 C235 C 0.24647 0.45228 0.79528
 C236 C 0.24299 0.41371 0.75548
 H237 H 0.22640 0.48009 0.77907
 H238 H 0.22224 0.43165 0.73040
 H239 H 0.21738 0.49841 0.71316
 H240 H 0.28180 0.47223 0.73421
 H241 H 0.28161 0.50471 0.76046
 H242 H 0.28005 0.51024 0.73091
 H243 H 0.19724 0.42617 0.74910
 H244 H 0.18340 0.44758 0.72736
 H245 H 0.26822 0.49452 0.79210
 H246 H 0.21390 0.52429 0.76784
 H247 H 0.24352 0.41944 0.71137
 H248 H 0.22613 0.44047 0.69280
 H249 H 0.18698 0.48621 0.76647
 H250 H 0.20010 0.46417 0.78609
 H251 H 0.27358 0.47331 0.69395
 H252 H 0.28927 0.45129 0.71341
 O253 O 0.20118 0.04654 0.26901
 O254 O 0.20462 0.04310 0.30035
 O255 O 0.25705 0.05798 0.24874
 O256 O 0.28724 0.04573 0.25269
 O257 O 0.22424 0.01762 0.22335
 O258 O 0.21634 -0.01315 0.23062
 O259 O 0.29112 -0.00183 0.29959
 O260 O 0.29565 0.02859 0.29474
 O261 O 0.23600 -0.00947 0.32064
 O262 O 0.20292 0.00034 0.31169
 O263 O 0.25483 -0.03993 0.27631
 O264 O 0.25715 -0.03373 0.24315
 O265 O 0.28591 -0.02297 0.27796
 O266 O 0.28256 -0.02071 0.24461
 O267 O 0.23104 -0.03361 0.29665
 O268 O 0.19914 -0.01909 0.29320
 O269 O 0.26419 0.00630 0.32160
 O270 O 0.26918 0.03824 0.31387
 O271 O 0.19622 0.02503 0.24768
 O272 O 0.19415 -0.00716 0.24922
 O273 O 0.25294 0.03240 0.22463
 O274 O 0.28475 0.02255 0.23363
 O275 O 0.23392 0.06377 0.27000
 O276 O 0.23399 0.05680 0.30245
 Zr277 Zr 0.22718 0.03865 0.28132
 O278 O 0.23803 0.01950 0.29951
 Zr279 Zr 0.26191 0.02988 0.25141
 O280 O 0.27428 0.01023 0.26842
 Zr281 Zr 0.22027 0.00753 0.24981
 O282 O 0.23073 -0.01304 0.26684
 Zr283 Zr 0.26800 0.01640 0.29543
 O284 O 0.25757 0.03727 0.27851
 Zr285 Zr 0.22619 -0.00584 0.29397
 O286 O 0.21363 0.01372 0.27686
 Zr287 Zr 0.26095 -0.01482 0.26417
 O288 O 0.25023 0.00436 0.24551
 O289 O 0.23218 0.03268 0.25431
 O290 O 0.25601 -0.00898 0.29125
 C291 C 0.19127 0.03945 0.25624
 C292 C 0.24554 0.06872 0.25736
 C293 C 0.23803 0.02682 0.21610
 C294 C 0.29536 -0.01665 0.29140
 C295 C 0.25082 -0.00324 0.32891
 C296 C 0.24289 -0.04452 0.28887
 H297 H 0.23502 0.02362 0.31190
 H298 H 0.22439 -0.02455 0.26384
 H299 H 0.22675 0.04182 0.24603
 H300 H 0.28842 0.00958 0.26640
 H301 H 0.29370 0.04103 0.29022
 H302 H 0.29679 0.03896 0.25992
 H303 H 0.19910 -0.02698 0.28246
 H304 H 0.18772 -0.00519 0.26104
 H305 H 0.27914 0.03539 0.32301
 H306 H 0.22639 0.06806 0.30084
 H307 H 0.24399 -0.03881 0.24440
 H308 H 0.22931 -0.01590 0.22553
 H309 H 0.19545 0.03296 0.29919
 H310 H 0.20705 0.01032 0.31958
 H311 H 0.28088 0.01115 0.22777
 H312 H 0.29368 -0.01267 0.24681
 O313 O 0.51557 0.71146 0.24124
 O314 O 0.51421 0.71422 0.27281
 O315 O 0.45842 0.70212 0.22485
 O316 O 0.42724 0.71779 0.23167
 O317 O 0.49104 0.74110 0.19784
 O318 O 0.49964 0.77179 0.20406
 O319 O 0.43049 0.76205 0.27937
 O320 O 0.42387 0.73266 0.27483
 O321 O 0.48754 0.76666 0.29557
 O322 O 0.51921 0.75758 0.28357
 O323 O 0.46523 0.79932 0.25375
 O324 O 0.46070 0.79411 0.22080
 O325 O 0.43396 0.78305 0.25723
 O326 O 0.43515 0.78114 0.22357
 O327 O 0.49036 0.79198 0.27194
 O328 O 0.52181 0.77677 0.26503
 O329 O 0.45836 0.75291 0.29894
 O330 O 0.45131 0.72068 0.29064
 O331 O 0.52017 0.73340 0.22012
 O332 O 0.52284 0.76581 0.22131
 O333 O 0.46194 0.72712 0.20082
 O334 O 0.43090 0.73775 0.21187
 O335 O 0.48313 0.69519 0.24369
 O336 O 0.48427 0.70146 0.27649
 Zr337 Zr 0.49080 0.71986 0.25538
 O338 O 0.48229 0.73911 0.27453
 Zr339 Zr 0.45451 0.73025 0.22824
 O340 O 0.44419 0.74987 0.24655
 Zr341 Zr 0.49664 0.75138 0.22377
 O342 O 0.48808 0.77202 0.24166
 Zr343 Zr 0.45225 0.74315 0.27295
 O344 O 0.46038 0.72216 0.25489
 Zr345 Zr 0.49454 0.76416 0.26813
 O346 O 0.50502 0.74440 0.25007
 Zr347 Zr 0.45780 0.77465 0.24153
 O348 O 0.46655 0.75554 0.22178
 O349 O 0.48422 0.72658 0.22898
 O350 O 0.46474 0.76822 0.26802
 C351 C 0.52505 0.71864 0.22812
 C352 C 0.47060 0.69093 0.23177
 C353 C 0.47689 0.73186 0.19153
 C354 C 0.42575 0.77689 0.27158
 C355 C 0.47314 0.76124 0.30515
 C356 C 0.47818 0.80333 0.26542
 H357 H 0.48615 0.73463 0.28655
 H358 H 0.49454 0.78341 0.23832
 H359 H 0.48896 0.71745 0.22029
 H360 H 0.42994 0.75079 0.24568
 H361 H 0.42417 0.72086 0.26865
 H362 H 0.42874 0.70850 0.24115
 H363 H 0.52084 0.78561 0.25509
 H364 H 0.53015 0.76345 0.23250
 H365 H 0.44293 0.72393 0.30107
 H366 H 0.49131 0.69000 0.27419
 H367 H 0.47423 0.79841 0.22081
 H368 H 0.48637 0.77505 0.20029
 H369 H 0.52389 0.72384 0.27093
 H370 H 0.51593 0.74696 0.29104
 H371 H 0.43455 0.74921 0.20594
 H372 H 0.42412 0.77313 0.22636
 O373 O 0.04758 0.70228 0.76468
 O374 O 0.04731 0.70622 0.79624
 O375 O -0.01070 0.68985 0.75200
 O376 O -0.04020 0.70255 0.75606
 O377 O 0.01986 0.72995 0.72122
 O378 O 0.02787 0.76081 0.72660
 O379 O -0.03948 0.74971 0.80283
 O380 O -0.04286 0.71823 0.80001
 O381 O 0.01637 0.76071 0.81756
 O382 O 0.04911 0.74919 0.80682
 O383 O -0.00721 0.78780 0.77714
 O384 O -0.01151 0.78194 0.74353
 O385 O -0.03812 0.77035 0.78010
 O386 O -0.03660 0.76812 0.74691
 O387 O 0.01987 0.78256 0.79351
 O388 O 0.05146 0.76782 0.78655
 O389 O -0.01187 0.74566 0.82177
 O390 O -0.01434 0.71205 0.81755
 O391 O 0.05014 0.72342 0.74246
 O392 O 0.05169 0.75602 0.74343
 O393 O -0.00795 0.71422 0.72560
 O394 O -0.03930 0.72506 0.73762
 O395 O 0.01608 0.68463 0.76893
 O396 O 0.01814 0.69223 0.80144
 Zr397 Zr 0.02295 0.71008 0.77950
 O398 O 0.01388 0.72956 0.79843
 Zr399 Zr -0.01476 0.71803 0.75306
 O400 O -0.02567 0.73767 0.77097
 Zr401 Zr 0.02615 0.74074 0.74678
 O402 O 0.01696 0.76157 0.76426
 Zr403 Zr -0.01632 0.73215 0.79727
 O404 O -0.00754 0.71112 0.77972
 Zr405 Zr 0.02458 0.75484 0.79080
 O406 O 0.03566 0.73504 0.77305
 Zr407 Zr -0.01347 0.76288 0.76473
 O408 O -0.00416 0.74354 0.74541
 O409 O 0.01511 0.71555 0.75303
 O410 O -0.00538 0.75743 0.79100
 C411 C 0.05591 0.70908 0.75067
 C412 C 0.00239 0.67938 0.75859
 C413 C 0.00602 0.71990 0.71558
 C414 C -0.04562 0.76391 0.79467
 C415 C 0.00132 0.75660 0.82697
 C416 C 0.00614 0.79282 0.78806
 H417 H 0.01803 0.72609 0.81069
 H418 H 0.02277 0.77312 0.76044
 H419 H 0.01973 0.70621 0.74450
 H420 H -0.03996 0.73792 0.77039
 H421 H -0.04034 0.70566 0.79617
 H422 H -0.04761 0.70781 0.76624
 H423 H 0.05003 0.77606 0.77615
 H424 H 0.05970 0.75368 0.75419
 H425 H -0.02342 0.71541 0.82742
 H426 H 0.02577 0.68105 0.79935
 H427 H 0.00112 0.78809 0.74445
 H428 H 0.01437 0.76410 0.72364
 H429 H 0.05582 0.71677 0.79442
 H430 H 0.04517 0.74066 0.81641
 H431 H -0.03553 0.73544 0.73000
 H432 H -0.04687 0.75922 0.74953
 O433 O -0.04055 -0.04458 0.01136
 O434 O -0.04334 -0.04042 0.04142
 O435 O -0.05539 0.00803 -0.01051
 O436 O -0.04375 0.03605 -0.00962
 O437 O -0.00710 -0.02239 -0.03171
 O438 O 0.02524 -0.02629 -0.02220
 O439 O -0.00480 0.04351 0.04423
 O440 O -0.03727 0.04275 0.03806
 O441 O 0.01036 -0.00616 0.06672
 O442 O 0.00419 -0.03789 0.05820
 O443 O 0.04426 0.01476 0.02656
 O444 O 0.04418 0.01658 -0.00431
 O445 O 0.02137 0.04227 0.02545
 O446 O 0.02328 0.03612 -0.00931
 O447 O 0.03807 -0.00827 0.04592
 O448 O 0.02619 -0.04020 0.04003
 O449 O -0.00750 0.01957 0.06581
 O450 O -0.04316 0.01750 0.05751
 O451 O -0.01443 -0.04820 -0.00723
 O452 O 0.02069 -0.04569 -0.00209
 O453 O -0.02552 0.00302 -0.03277
 O454 O -0.01723 0.03470 -0.02276
 O455 O -0.06250 -0.01549 0.00799
 O456 O -0.05929 -0.01365 0.04197
 Zr457 Zr -0.03684 -0.01938 0.02310
 O458 O -0.01953 -0.00818 0.04345
 Zr459 Zr -0.02613 0.01300 -0.00616
 O460 O -0.00990 0.02655 0.01334
 Zr461 Zr 0.00128 -0.02373 -0.00448
 O462 O 0.01990 -0.01112 0.01412
 Zr463 Zr -0.01922 0.01967 0.03955
 O464 O -0.03774 0.00869 0.01991
 Zr465 Zr 0.00950 -0.01620 0.04029
 O466 O -0.00835 -0.02981 0.02177
 Zr467 Zr 0.01872 0.01721 0.01166
 O468 O 0.00272 0.00438 -0.00902
 O469 O -0.02717 -0.01478 -0.00308
 O470 O 0.00961 0.01168 0.03779
 C471 C -0.03020 -0.05387 0.00031
 C472 C -0.06698 -0.00396 -0.00433
 C473 C -0.01762 -0.01088 -0.04019
 C474 C 0.01076 0.05011 0.03758
 C475 C 0.00390 0.00846 0.07387
 C476 C 0.04899 0.00426 0.03957
 H477 H -0.02470 -0.01129 0.05553
 H478 H 0.03327 -0.01563 0.01237
 H479 H -0.03547 -0.02086 -0.01200
 H480 H -0.01102 0.03967 0.01115
 H481 H -0.04966 0.03877 0.03279
 H482 H -0.04481 0.04180 0.00236
 H483 H 0.03741 -0.03832 0.03188
 H484 H 0.01660 -0.05256 0.00872
 H485 H -0.04171 0.02688 0.06691
 H486 H -0.07094 -0.02060 0.03860
 H487 H 0.04567 0.00407 -0.00868
 H488 H 0.02759 -0.01415 -0.02730
 H489 H -0.03083 -0.04615 0.04448
 H490 H -0.00766 -0.03500 0.06521
 H491 H -0.00609 0.03037 -0.03007
 H492 H 0.01516 0.04682 -0.00664
 O493 O 0.04922 0.54357 0.49090
 O494 O 0.04716 0.53750 0.46054
 O495 O -0.00350 0.56894 0.50565
 O496 O -0.03528 0.56332 0.50244
 O497 O 0.01766 0.52623 0.53816
 O498 O 0.01871 0.49467 0.53573
 O499 O -0.04770 0.51391 0.45994
 O500 O -0.04314 0.54433 0.45910
 O501 O 0.00510 0.48962 0.44490
 O502 O 0.03823 0.49164 0.45505
 O503 O -0.02482 0.47121 0.49083
 O504 O -0.02901 0.48087 0.52098
 O505 O -0.05085 0.49485 0.48381
 O506 O -0.04755 0.50183 0.51785
 O507 O 0.00052 0.46879 0.47127
 O508 O 0.03595 0.47632 0.47757
 O509 O -0.01943 0.50941 0.43973
 O510 O -0.01408 0.54286 0.44135
 O511 O 0.04788 0.52491 0.51527
 O512 O 0.04138 0.49203 0.51678
 O513 O -0.00640 0.54657 0.53316
 O514 O -0.04012 0.54242 0.52212
 O515 O 0.02219 0.56710 0.48634
 O516 O 0.02147 0.55587 0.45435
 Zr517 Zr 0.02291 0.53988 0.47804
 O518 O 0.00925 0.52087 0.46154
 Zr519 Zr -0.01458 0.54263 0.50616
 O520 O -0.03050 0.52474 0.49009
 Zr521 Zr 0.02022 0.51242 0.51347
 O522 O 0.00501 0.49273 0.49875
 Zr523 Zr -0.02059 0.52539 0.46323
 O524 O -0.00689 0.54552 0.47871
 Zr525 Zr 0.01328 0.49462 0.47154
 O526 O 0.02960 0.51340 0.48648
 Zr527 Zr -0.02494 0.49832 0.49872
 O528 O -0.01002 0.51633 0.51593
 O529 O 0.01510 0.53862 0.50514
 O530 O -0.01650 0.49891 0.47178
 C531 C 0.05646 0.53677 0.50525
 C532 C 0.01113 0.57582 0.49738
 C533 C 0.00629 0.53903 0.54331
 C534 C -0.05713 0.50224 0.46921
 C535 C -0.00820 0.49635 0.43495
 C536 C -0.01420 0.46225 0.47970
 H537 H 0.01404 0.52217 0.44901
 H538 H 0.00774 0.48065 0.50377
 H539 H 0.02212 0.54734 0.51271
 H540 H -0.04441 0.52789 0.49088
 H541 H -0.03783 0.55631 0.46217
 H542 H -0.04345 0.55957 0.49224
 H543 H 0.03157 0.46850 0.48760
 H544 H 0.04990 0.49250 0.50599
 H545 H -0.02366 0.54063 0.43172
 H546 H 0.03092 0.56584 0.45536
 H547 H -0.01615 0.47600 0.52419
 H548 H 0.00499 0.49456 0.53967
 H549 H 0.05281 0.52541 0.46265
 H550 H 0.03855 0.50197 0.44661
 H551 H -0.03853 0.53278 0.53123
 H552 H -0.05722 0.51014 0.51259
 O553 O 0.56640 0.01662 0.50922
 O554 O 0.56210 0.02080 0.47805
 O555 O 0.51504 0.03766 0.53317
 O556 O 0.48024 0.03167 0.52878
 O557 O 0.53610 -0.01346 0.54926
 O558 O 0.53436 -0.04318 0.53669
 O559 O 0.46527 0.00087 0.47647
 O560 O 0.47144 0.02973 0.48474
 O561 O 0.51699 -0.01727 0.45001
 O562 O 0.55090 -0.01846 0.45809
 O563 O 0.49004 -0.05006 0.48835
 O564 O 0.48950 -0.05009 0.52230
 O565 O 0.46366 -0.02518 0.49262
 O566 O 0.46821 -0.03156 0.52411
 O567 O 0.51500 -0.04585 0.46872
 O568 O 0.55034 -0.04015 0.47402
 O569 O 0.49175 0.00222 0.45340
 O570 O 0.49890 0.03348 0.46487
 O571 O 0.56463 -0.00948 0.52535
 O572 O 0.55689 -0.04016 0.51799
 O573 O 0.51328 0.00847 0.55261
 O574 O 0.47964 0.00844 0.54441
 O575 O 0.53974 0.04173 0.51314
 O576 O 0.53740 0.04146 0.47993
 Zr577 Zr 0.53904 0.01846 0.49691
 O578 O 0.52322 0.00660 0.47589
 Zr579 Zr 0.50296 0.01260 0.52626
 O580 O 0.48566 0.00068 0.50643
 Zr581 Zr 0.53642 -0.01915 0.52147
 O582 O 0.52053 -0.03254 0.50151
 Zr583 Zr 0.49347 0.01018 0.48071
 O584 O 0.50931 0.02400 0.50085
 Zr585 Zr 0.52730 -0.02135 0.47623
 O586 O 0.54489 -0.00942 0.49597
 Zr587 Zr 0.49086 -0.02721 0.50525
 O588 O 0.50667 -0.01559 0.52670
 O589 O 0.53237 0.00853 0.52238
 O590 O 0.49757 -0.01763 0.47958
 C591 C 0.57374 0.00452 0.51965
 C592 C 0.52924 0.04678 0.52661
 C593 C 0.52638 -0.00213 0.55888
 C594 C 0.45618 -0.01308 0.48234
 C595 C 0.50259 -0.00826 0.44385
 C596 C 0.50070 -0.05497 0.47491
 H597 H 0.52710 0.01197 0.46421
 H598 H 0.52350 -0.04557 0.50201
 H599 H 0.54029 0.01428 0.53181
 H600 H 0.47198 0.00355 0.50927
 H601 H 0.47761 0.04027 0.49044
 H602 H 0.48312 0.04158 0.52025
 H603 H 0.54721 -0.05060 0.48180
 H604 H 0.56419 -0.03739 0.50680
 H605 H 0.48834 0.03457 0.45596
 H606 H 0.54791 0.04990 0.48318
 H607 H 0.50071 -0.05793 0.51939
 H608 H 0.52109 -0.04345 0.54183
 H609 H 0.56784 0.00862 0.47665
 H610 H 0.55072 -0.00594 0.45350
 H611 H 0.48024 -0.00437 0.54810
 H612 H 0.46189 -0.01978 0.52637
 O613 O 0.54192 0.51610 -0.00409
 O614 O 0.53526 0.51524 -0.03440
 O615 O 0.49454 0.54649 0.01892
 O616 O 0.46229 0.54444 0.01991
 O617 O 0.51223 0.49604 0.04363
 O618 O 0.50865 0.46523 0.03625
 O619 O 0.43787 0.50219 -0.02785
 O620 O 0.44572 0.53270 -0.02284
 O621 O 0.48250 0.47588 -0.05111
 O622 O 0.51798 0.47397 -0.04605
 O623 O 0.45878 0.45394 -0.00440
 O624 O 0.45951 0.46127 0.02775
 O625 O 0.43590 0.47927 -0.00756
 O626 O 0.44129 0.48306 0.02675
 O627 O 0.48118 0.45175 -0.02689
 O628 O 0.51704 0.45523 -0.02620
 O629 O 0.46247 0.50026 -0.05058
 O630 O 0.47234 0.53195 -0.04432
 O631 O 0.53953 0.49520 0.01836
 O632 O 0.52938 0.46388 0.01552
 O633 O 0.49218 0.52040 0.04441
 O634 O 0.45733 0.52151 0.03745
 O635 O 0.51761 0.54378 -0.00297
 O636 O 0.51245 0.53722 -0.03546
 Zr637 Zr 0.51365 0.51810 -0.01418
 O638 O 0.49485 0.50402 -0.03127
 Zr639 Zr 0.48025 0.52134 0.01833
 O640 O 0.45974 0.50778 0.00233
 Zr641 Zr 0.51054 0.48637 0.01718
 O642 O 0.49124 0.47107 0.00168
 Zr643 Zr 0.46628 0.51155 -0.02503
 O644 O 0.48514 0.52714 -0.00915
 Zr645 Zr 0.49628 0.47629 -0.02583
 O646 O 0.51697 0.49016 -0.01028
 Zr647 Zr 0.46260 0.47985 0.00628
 O648 O 0.48179 0.49347 0.02375
 O649 O 0.50878 0.51400 0.01324
 O650 O 0.46778 0.48383 -0.02100
 C651 C 0.54911 0.50659 0.00875
 C652 C 0.50874 0.55272 0.00945
 C653 C 0.50404 0.50929 0.05183
 C654 C 0.42904 0.48872 -0.02064
 C655 C 0.46961 0.48619 -0.05821
 C656 C 0.46715 0.44540 -0.01737
 H657 H 0.49804 0.50679 -0.04399
 H658 H 0.49302 0.45820 0.00474
 H659 H 0.51783 0.52079 0.02094
 H660 H 0.44647 0.51204 0.00508
 H661 H 0.45296 0.54356 -0.01912
 H662 H 0.45154 0.54254 0.01141
 H663 H 0.51482 0.44773 -0.01536
 H664 H 0.53639 0.46488 0.00386
 H665 H 0.46120 0.53270 -0.05263
 H666 H 0.52349 0.54565 -0.03433
 H667 H 0.47054 0.45275 0.02698
 H668 H 0.49581 0.46641 0.04216
 H669 H 0.53840 0.50223 -0.03514
 H670 H 0.51719 0.48476 -0.05385
 H671 H 0.45766 0.50970 0.04366
 H672 H 0.43167 0.49202 0.02258
 O673 O 0.76478 0.26834 0.43327
 O674 O 0.73276 0.26788 0.43899
 O675 O 0.78868 0.29402 0.48126
 O676 O 0.79305 0.28731 0.51009
 O677 O 0.81463 0.24500 0.45703
 O678 O 0.80687 0.21394 0.45988
 O679 O 0.73862 0.24823 0.52913
 O680 O 0.74331 0.27804 0.52350
 O681 O 0.71208 0.22510 0.48468
 O682 O 0.71862 0.22540 0.45195
 O683 O 0.75949 0.20018 0.50721
 O684 O 0.79333 0.20338 0.50567
 O685 O 0.76110 0.22577 0.53018
 O686 O 0.79758 0.22581 0.52152
 O687 O 0.73674 0.20074 0.48533
 O688 O 0.73919 0.20598 0.45186
 O689 O 0.71290 0.24791 0.50515
 O690 O 0.72161 0.28009 0.49876
 O691 O 0.78672 0.24526 0.43295
 O692 O 0.78405 0.21345 0.44126
 O693 O 0.81598 0.26779 0.47738
 O694 O 0.80941 0.26370 0.51098
 O695 O 0.76551 0.29433 0.45960
 O696 O 0.73082 0.28736 0.46204
 Zr697 Zr 0.75370 0.26824 0.45968
 O698 O 0.73462 0.25330 0.47594
 Zr699 Zr 0.78864 0.26718 0.49044
 O700 O 0.77042 0.25300 0.50844
 Zr701 Zr 0.78630 0.23511 0.45962
 O702 O 0.76886 0.21894 0.47664
 Zr703 Zr 0.74114 0.25835 0.50298
 O704 O 0.75935 0.27450 0.48681
 Zr705 Zr 0.73969 0.22566 0.47251
 O706 O 0.75703 0.24053 0.45434
 Zr707 Zr 0.77362 0.22519 0.50394
 O708 O 0.79334 0.23936 0.48686
 O709 O 0.78292 0.26274 0.46338
 O710 O 0.74446 0.23066 0.49971
 C711 C 0.77711 0.25800 0.42530
 C712 C 0.77813 0.30207 0.46955
 C713 C 0.82347 0.25804 0.46476
 C714 C 0.74769 0.23561 0.53740
 C715 C 0.70429 0.23500 0.49695
 C716 C 0.74512 0.19328 0.49878
 H717 H 0.72112 0.25671 0.47314
 H718 H 0.77145 0.20606 0.47418
 H719 H 0.79094 0.27033 0.45529
 H720 H 0.77362 0.25639 0.52095
 H721 H 0.74879 0.28895 0.51773
 H722 H 0.78140 0.28734 0.51790
 H723 H 0.74949 0.19703 0.45435
 H724 H 0.77145 0.21490 0.43515
 H725 H 0.71197 0.28006 0.50874
 H726 H 0.73251 0.29686 0.45274
 H727 H 0.79549 0.19890 0.49327
 H728 H 0.81346 0.21459 0.47167
 H729 H 0.73119 0.25513 0.43539
 H730 H 0.71075 0.23651 0.45314
 H731 H 0.81761 0.25326 0.50749
 H732 H 0.79519 0.23548 0.53045
 O733 O 0.78197 0.75268 -0.02478
 O734 O 0.76983 0.72357 -0.02301
 O735 O 0.73435 0.78273 -0.04763
 O736 O 0.70469 0.79131 -0.04054
 O737 O 0.76511 0.80243 0.00004
 O738 O 0.76317 0.79521 0.03112
 O739 O 0.67714 0.74460 0.00227
 O740 O 0.68215 0.74907 -0.02870
 O741 O 0.72048 0.71310 0.02234
 O742 O 0.75518 0.71256 0.02094
 O743 O 0.70763 0.76227 0.04767
 O744 O 0.71399 0.79354 0.04184
 O745 O 0.68160 0.76561 0.02415
 O746 O 0.69459 0.79764 0.02213
 O747 O 0.72576 0.73667 0.04717
 O748 O 0.76144 0.73230 0.03873
 O749 O 0.69767 0.71782 0.00096
 O750 O 0.70437 0.72392 -0.03153
 O751 O 0.78654 0.77183 -0.00118
 O752 O 0.77929 0.77188 0.03054
 O753 O 0.74244 0.80751 -0.02143
 O754 O 0.70615 0.80635 -0.01708
 O755 O 0.75490 0.75870 -0.04876
 O756 O 0.74432 0.72726 -0.04218
 Zr757 Zr 0.75214 0.74696 -0.02286
 O758 O 0.73238 0.73241 -0.00662
 Zr759 Zr 0.72511 0.78414 -0.02073
 O760 O 0.70377 0.77086 -0.00534
 Zr761 Zr 0.75889 0.77661 0.00995
 O762 O 0.73895 0.76383 0.02721
 Zr763 Zr 0.70449 0.74303 -0.01025
 O764 O 0.72389 0.75664 -0.02776
 Zr765 Zr 0.73800 0.73625 0.02093
 O766 O 0.75942 0.74882 0.00468
 Zr767 Zr 0.71084 0.77336 0.02196
 O768 O 0.73127 0.78814 0.00665
 O769 O 0.75309 0.77442 -0.01738
 O770 O 0.71000 0.74576 0.01717
 C771 C 0.79273 0.76228 -0.01451
 C772 C 0.74610 0.77217 -0.05601
 C773 C 0.75708 0.81233 -0.01201
 C774 C 0.67116 0.75407 0.01575
 C775 C 0.70539 0.70836 0.01353
 C776 C 0.71442 0.74802 0.05513
 H777 H 0.73285 0.71952 -0.00998
 H778 H 0.74281 0.76598 0.03983
 H779 H 0.76264 0.78071 -0.02514
 H780 H 0.69083 0.77588 -0.00803
 H781 H 0.68857 0.75209 -0.04029
 H782 H 0.69456 0.78196 -0.04012
 H783 H 0.76082 0.74190 0.04797
 H784 H 0.78330 0.75910 0.02949
 H785 H 0.69186 0.71744 -0.03103
 H786 H 0.75442 0.72688 -0.05177
 H787 H 0.72627 0.79112 0.04818
 H788 H 0.75167 0.80321 0.03132
 H789 H 0.77516 0.72234 -0.01072
 H790 H 0.75402 0.70693 0.00892
 H791 H 0.71069 0.81302 -0.00637
 H792 H 0.68446 0.79670 0.01284
 O793 O 1.05765 0.25209 0.22348
 O794 O 1.05310 0.25455 0.25314
 O795 O 1.00102 0.23227 0.20579
 O796 O 0.97075 0.24154 0.20610
 O797 O 1.03031 0.27347 0.17508
 O798 O 1.03473 0.30451 0.17907
 O799 O 0.96200 0.29035 0.25207
 O800 O 0.96256 0.25925 0.25086
 O801 O 1.01553 0.30790 0.26946
 O802 O 1.04936 0.30207 0.26047
 O803 O 0.99196 0.33076 0.22229
 O804 O 0.98791 0.32229 0.19227
 O805 O 0.96355 0.31060 0.22903
 O806 O 0.96676 0.30358 0.19467
 O807 O 1.01496 0.32968 0.24396
 O808 O 1.05005 0.31887 0.23886
 O809 O 0.98924 0.29000 0.27326
 O810 O 0.99060 0.25659 0.27010
 O811 O 1.05940 0.27134 0.19954
 O812 O 1.05622 0.30403 0.19867
 O813 O 1.00317 0.25656 0.17847
 O814 O 0.96937 0.26350 0.18929
 O815 O 1.02670 0.22999 0.22457
 O816 O 1.02493 0.24013 0.25747
 Zr817 Zr 1.03011 0.25666 0.23458
 O818 O 1.01771 0.27654 0.25155
 Zr819 Zr 0.99422 0.25966 0.20540
 O820 O 0.97950 0.27838 0.22173
 Zr821 Zr 1.03285 0.28580 0.20051
 O822 O 1.01921 0.30645 0.21561
 Zr823 Zr 0.98758 0.27553 0.24883
 O824 O 0.99983 0.25468 0.23286
 Zr825 Zr 1.02524 0.30268 0.24305
 O826 O 1.04010 0.28272 0.22781
 Zr827 Zr 0.98891 0.30410 0.21422
 O828 O 1.00259 0.28541 0.19677
 O829 O 1.02424 0.25988 0.20730
 O830 O 0.99532 0.30162 0.24143
 C831 C 1.06666 0.25938 0.21016
 C832 C 1.01420 0.22313 0.21375
 C833 C 1.01711 0.26305 0.16896
 C834 C 0.95540 0.30387 0.24319
 C835 C 1.00113 0.30204 0.27879
 C836 C 1.00201 0.33804 0.23470
 H837 H 1.02155 0.27426 0.26417
 H838 H 1.02363 0.31832 0.21118
 H839 H 1.03077 0.25075 0.19962
 H840 H 0.96537 0.27691 0.22039
 H841 H 0.96674 0.24674 0.24820
 H842 H 0.96462 0.24299 0.21809
 H843 H 1.04707 0.32771 0.22927
 H844 H 1.06334 0.30310 0.21016
 H845 H 0.98032 0.25911 0.27917
 H846 H 1.03219 0.22865 0.25595
 H847 H 1.00140 0.32588 0.18959
 H848 H 1.02142 0.30609 0.17447
 H849 H 1.05859 0.26679 0.25422
 H850 H 1.04719 0.29230 0.26934
 H851 H 0.97259 0.27289 0.18028
 H852 H 0.95541 0.29741 0.20001
 O853 O 0.79002 1.04505 0.71580
 O854 O 0.81988 1.03169 0.72277
 O855 O 0.75927 1.00599 0.68647
 O856 O 0.74756 0.97848 0.68975
 O857 O 0.73222 1.03327 0.73261
 O858 O 0.73463 1.03006 0.76409
 O859 O 0.78678 0.94634 0.73808
 O860 O 0.78796 0.95265 0.70733
 O861 O 0.81910 0.98310 0.76545
 O862 O 0.82212 1.01458 0.76716
 O863 O 0.76176 0.97314 0.78149
 O864 O 0.73044 0.98252 0.77206
 O865 O 0.76006 0.95118 0.75561
 O866 O 0.72756 0.96731 0.74974
 O867 O 0.78995 0.98784 0.78650
 O868 O 0.79776 1.02166 0.78141
 O869 O 0.81657 0.96321 0.74232
 O870 O 0.81638 0.97142 0.70963
 O871 O 0.76479 1.05043 0.73502
 O872 O 0.76175 1.04253 0.76751
 O873 O 0.72874 1.01356 0.70942
 O874 O 0.72716 0.97957 0.71057
 O875 O 0.78743 1.02133 0.69044
 O876 O 0.81846 1.00894 0.70192
 Zr877 Zr 0.79423 1.01704 0.71778
 O878 O 0.80493 0.99674 0.73494
 Zr879 Zr 0.75244 0.99551 0.71205
 O880 O 0.76206 0.97376 0.72793
 Zr881 Zr 0.75738 1.02484 0.74558
 O882 O 0.76577 1.00417 0.76341
 Zr883 Zr 0.79243 0.97211 0.72772
 O884 O 0.78272 0.99211 0.70950
 Zr885 Zr 0.79591 1.00108 0.76174
 O886 O 0.78767 1.02293 0.74497
 Zr887 Zr 0.75476 0.97923 0.75483
 O888 O 0.74368 1.00044 0.73880
 O889 O 0.76431 1.02014 0.71870
 O890 O 0.78467 0.97618 0.75460
 C891 C 0.77747 1.05559 0.72328
 C892 C 0.77343 1.01562 0.68072
 C893 C 0.72321 1.02727 0.71884
 C894 C 0.77333 0.94093 0.74882
 C895 C 0.82482 0.96918 0.75657
 C896 C 0.77603 0.97743 0.79152
 H897 H 0.81920 0.99626 0.73381
 H898 H 0.76141 1.00720 0.77577
 H899 H 0.75953 1.02959 0.71041
 H900 H 0.75632 0.96238 0.72360
 H901 H 0.78719 0.95933 0.69580
 H902 H 0.75635 0.96805 0.69122
 H903 H 0.78621 1.02080 0.78933
 H904 H 0.77543 1.04641 0.76689
 H905 H 0.82241 0.95929 0.71044
 H906 H 0.82149 1.01866 0.69315
 H907 H 0.73245 0.99367 0.77909
 H908 H 0.72555 1.01983 0.76307
 H909 H 0.81850 1.03705 0.73493
 H910 H 0.82933 1.01541 0.75562
 H911 H 0.71825 0.98383 0.72020
 H912 H 0.72948 0.95786 0.74049
 O913 O 0.73905 0.56054 0.23291
 O914 O 0.77066 0.55211 0.23929
 O915 O 0.71507 0.51852 0.20256
 O916 O 0.71572 0.48554 0.20635
 O917 O 0.68294 0.53758 0.24685
 O918 O 0.68476 0.53487 0.27821
 O919 O 0.75487 0.46301 0.25519
 O920 O 0.75659 0.46895 0.22494
 O921 O 0.77788 0.50557 0.28311
 O922 O 0.77348 0.53850 0.28314
 O923 O 0.72440 0.48538 0.29799
 O924 O 0.69108 0.48948 0.28689
 O925 O 0.72757 0.46324 0.27254
 O926 O 0.69315 0.47223 0.26608
 O927 O 0.74872 0.50522 0.30287
 O928 O 0.74915 0.53911 0.29842
 O929 O 0.78118 0.48512 0.26050
 O930 O 0.78023 0.49270 0.22739
 O931 O 0.71309 0.56125 0.25211
 O932 O 0.70729 0.55236 0.28290
 O933 O 0.68433 0.51511 0.22599
 O934 O 0.69201 0.48440 0.22214
 O935 O 0.74033 0.53745 0.20700
 O936 O 0.77338 0.52974 0.21813
 Zr937 Zr 0.74810 0.53363 0.23414
 O938 O 0.76259 0.51601 0.25185
 Zr939 Zr 0.71266 0.50462 0.22738
 O940 O 0.72592 0.48547 0.24431
 Zr941 Zr 0.70915 0.53440 0.26083
 O942 O 0.72162 0.51632 0.27934
 Zr943 Zr 0.75604 0.48935 0.24487
 O944 O 0.74302 0.50698 0.22580
 Zr945 Zr 0.75180 0.51907 0.27822
 O946 O 0.73919 0.53842 0.26100
 Zr947 Zr 0.71669 0.48968 0.27101
 O948 O 0.70196 0.50771 0.25386
 O949 O 0.71805 0.53122 0.23426
 O950 O 0.74661 0.49239 0.27142
 C951 C 0.72540 0.56879 0.24139
 C952 C 0.72697 0.53072 0.19712
 C953 C 0.67535 0.52766 0.23465
 C954 C 0.74260 0.45539 0.26583
 C955 C 0.78692 0.49267 0.27512
 C956 C 0.73749 0.49238 0.30794
 H957 H 0.77669 0.51817 0.25107
 H958 H 0.71640 0.51864 0.29156
 H959 H 0.71124 0.53997 0.22644
 H960 H 0.72282 0.47321 0.24000
 H961 H 0.75401 0.47497 0.21330
 H962 H 0.72810 0.48814 0.20008
 H963 H 0.73724 0.53666 0.30547
 H964 H 0.72046 0.55720 0.28470
 H965 H 0.78875 0.48201 0.22878
 H966 H 0.77443 0.53985 0.20942
 H967 H 0.69183 0.49957 0.29557
 H968 H 0.67873 0.52283 0.27729
 H969 H 0.76876 0.55640 0.25182
 H970 H 0.78340 0.53733 0.27352
 H971 H 0.68470 0.48258 0.23352
 H972 H 0.69705 0.46381 0.25636
 O973 O 0.56508 0.21573 0.74293
 O974 O 0.55948 0.21648 0.77362
 O975 O 0.50945 0.20415 0.72064
 O976 O 0.47975 0.21614 0.72172
 O977 O 0.54320 0.24771 0.69745
 O978 O 0.55233 0.27591 0.70582
 O979 O 0.47180 0.25922 0.77131
 O980 O 0.47066 0.22844 0.76789
 O981 O 0.52722 0.26968 0.79426
 O982 O 0.55988 0.26237 0.78681
 O983 O 0.50680 0.29997 0.75177
 O984 O 0.50698 0.29626 0.71855
 O985 O 0.47670 0.28168 0.75088
 O986 O 0.48317 0.28067 0.71722
 O987 O 0.53003 0.29411 0.77245
 O988 O 0.56442 0.28036 0.76607
 O989 O 0.49772 0.25630 0.79393
 O990 O 0.49664 0.22237 0.78798
 O991 O 0.57056 0.23774 0.72213
 O992 O 0.57137 0.27102 0.72665
 O993 O 0.51585 0.23073 0.69683
 O994 O 0.48246 0.24012 0.70611
 O995 O 0.53317 0.19761 0.74069
 O996 O 0.52963 0.20334 0.77409
 Zr997 Zr 0.53811 0.22229 0.75413
 O998 O 0.52657 0.24090 0.77284
 Zr999 Zr 0.50499 0.23199 0.72353
 O1000 O 0.49108 0.24999 0.74138
 Zr1001 Zr 0.54615 0.25514 0.72446
 O1002 O 0.53357 0.27498 0.74125
 Zr1003 Zr 0.49674 0.24328 0.76845
 O1004 O 0.50799 0.22343 0.75053
 Zr1005 Zr 0.53753 0.26685 0.76798
 O1006 O 0.55142 0.24770 0.75125
 Zr1007 Zr 0.50332 0.27559 0.73797
 O1008 O 0.51632 0.25788 0.71907
 O1009 O 0.53459 0.22952 0.72723
 O1010 O 0.50774 0.26901 0.76479
 C1011 C 0.57552 0.22332 0.73073
 C1012 C 0.52134 0.19317 0.72813
 C1013 C 0.53048 0.23834 0.68921
 C1014 C 0.46669 0.27385 0.76333
 C1015 C 0.51083 0.26598 0.80149
 C1016 C 0.51727 0.30446 0.76523
 H1017 H 0.52924 0.23682 0.78528
 H1018 H 0.53946 0.28686 0.73885
 H1019 H 0.54061 0.22093 0.71863
 H1020 H 0.47702 0.24993 0.73898
 H1021 H 0.47401 0.21633 0.76318
 H1022 H 0.47180 0.21902 0.73248
 H1023 H 0.56237 0.29178 0.75943
 H1024 H 0.57861 0.26643 0.73717
 H1025 H 0.48678 0.22551 0.79726
 H1026 H 0.53682 0.19192 0.77198
 H1027 H 0.51983 0.30173 0.72041
 H1028 H 0.53976 0.28173 0.70314
 H1029 H 0.56789 0.22722 0.77431
 H1030 H 0.55737 0.25062 0.79265
 H1031 H 0.48732 0.25059 0.69916
 H1032 H 0.47183 0.27283 0.71935
 O1033 O 0.24800 0.77639 0.47793
 O1034 O 0.21673 0.77372 0.48908
 O1035 O 0.27715 0.80823 0.51749
 O1036 O 0.27783 0.80709 0.54839
 O1037 O 0.30563 0.76180 0.49868
 O1038 O 0.30127 0.73008 0.50233
 O1039 O 0.23758 0.75876 0.57704
 O1040 O 0.23862 0.78971 0.57010
 O1041 O 0.20976 0.73185 0.53721
 O1042 O 0.21237 0.73107 0.50357
 O1043 O 0.26425 0.71397 0.55377
 O1044 O 0.29803 0.72380 0.54727
 O1045 O 0.26394 0.74025 0.57565
 O1046 O 0.29792 0.74419 0.56488
 O1047 O 0.23842 0.71012 0.53547
 O1048 O 0.23464 0.71360 0.50263
 O1049 O 0.21056 0.75526 0.55691
 O1050 O 0.21257 0.78743 0.54834
 O1051 O 0.27475 0.75831 0.47635
 O1052 O 0.27752 0.72718 0.48524
 O1053 O 0.30571 0.78473 0.51902
 O1054 O 0.30148 0.78658 0.55100
 O1055 O 0.25117 0.80378 0.49943
 O1056 O 0.21777 0.79565 0.51035
 Zr1057 Zr 0.24127 0.77773 0.50550
 O1058 O 0.22692 0.76168 0.52474
 Zr1059 Zr 0.27889 0.78372 0.53210
 O1060 O 0.26625 0.76794 0.55268
 Zr1061 Zr 0.27856 0.74925 0.50321
 O1062 O 0.26578 0.73204 0.52252
 Zr1063 Zr 0.23604 0.76903 0.55062
 O1064 O 0.24866 0.78675 0.53145
 Zr1065 Zr 0.23545 0.73470 0.52179
 O1066 O 0.24819 0.75041 0.50110
 Zr1067 Zr 0.27322 0.74062 0.54856
 O1068 O 0.28781 0.75663 0.52917
 O1069 O 0.27133 0.77613 0.50618
 O1070 O 0.24319 0.74186 0.54782
 C1071 C 0.26162 0.76832 0.46915
 C1072 C 0.26558 0.81318 0.50485
 C1073 C 0.31381 0.77508 0.50675
 C1074 C 0.24962 0.74758 0.58411
 C1075 C 0.20266 0.74113 0.55037
 C1076 C 0.25036 0.70448 0.54741
 H1077 H 0.21277 0.76329 0.52347
 H1078 H 0.27004 0.71951 0.52020
 H1079 H 0.27803 0.78321 0.49672
 H1080 H 0.27044 0.77224 0.56464
 H1081 H 0.24007 0.80115 0.56335
 H1082 H 0.27258 0.80344 0.56028
 H1083 H 0.24738 0.70748 0.50270
 H1084 H 0.26393 0.72626 0.48123
 H1085 H 0.20524 0.78727 0.55989
 H1086 H 0.21690 0.80425 0.50012
 H1087 H 0.29579 0.71461 0.53787
 H1088 H 0.30876 0.73174 0.51352
 H1089 H 0.21708 0.76096 0.48522
 H1090 H 0.20263 0.74061 0.50595
 H1091 H 0.30892 0.77515 0.55082
 H1092 H 0.29565 0.75489 0.57257
 O1093 O 0.28639 0.26886 0.98719
 O1094 O 0.28499 0.26220 1.01754
 O1095 O 0.31360 0.22166 0.96382
 O1096 O 0.30815 0.19253 0.96113
 O1097 O 0.26053 0.24345 0.94019
 O1098 O 0.22763 0.24278 0.94854
 O1099 O 0.26506 0.17202 1.00944
 O1100 O 0.29747 0.17883 1.00573
 O1101 O 0.23869 0.21567 1.03557
 O1102 O 0.23947 0.24845 1.03128
 O1103 O 0.21280 0.19628 0.98961
 O1104 O 0.21919 0.19702 0.95753
 O1105 O 0.23923 0.17254 0.99056
 O1106 O 0.24100 0.17898 0.95679
 O1107 O 0.21213 0.21741 1.01172
 O1108 O 0.21975 0.25049 1.01151
 O1109 O 0.26259 0.19464 1.03369
 O1110 O 0.29731 0.20243 1.02769
 O1111 O 0.26132 0.26896 0.96740
 O1112 O 0.22758 0.26103 0.96898
 O1113 O 0.28546 0.22333 0.93884
 O1114 O 0.28285 0.19050 0.94541
 O1115 O 0.31360 0.24381 0.98497
 O1116 O 0.30698 0.23909 1.01768
 Zr1117 Zr 0.28598 0.24223 0.99718
 O1118 O 0.26977 0.22557 1.01474
 Zr1119 Zr 0.28547 0.21144 0.96459
 O1120 O 0.27006 0.19329 0.98098
 Zr1121 Zr 0.25068 0.24232 0.96709
 O1122 O 0.23328 0.22529 0.98305
 Zr1123 Zr 0.27535 0.19853 1.00824
 O1124 O 0.29302 0.21506 0.99179
 Zr1125 Zr 0.23996 0.22898 1.01041
 O1126 O 0.25609 0.24736 0.99445
 Zr1127 Zr 0.24034 0.19812 0.97796
 O1128 O 0.25574 0.21521 0.96008
 O1129 O 0.28026 0.23855 0.96991
 O1130 O 0.24559 0.20191 1.00521
 C1131 C 0.27495 0.27682 0.97611
 C1132 C 0.32186 0.23434 0.97258
 C1133 C 0.27406 0.23497 0.93171
 C1134 C 0.25029 0.16468 1.00207
 C1135 C 0.24847 0.20238 1.04200
 C1136 C 0.20419 0.20500 1.00228
 H1137 H 0.27325 0.22803 1.02741
 H1138 H 0.21959 0.22806 0.98043
 H1139 H 0.28798 0.24666 0.96207
 H1140 H 0.27373 0.18078 0.97784
 H1141 H 0.30927 0.18524 1.00164
 H1142 H 0.30693 0.18375 0.97109
 H1143 H 0.21061 0.24888 1.00144
 H1144 H 0.22862 0.26690 0.98091
 H1145 H 0.29722 0.19191 1.03594
 H1146 H 0.31673 0.24880 1.01638
 H1147 H 0.21134 0.20817 0.95840
 H1148 H 0.22740 0.23074 0.94281
 H1149 H 0.27129 0.26601 1.01873
 H1150 H 0.25163 0.24727 1.03813
 H1151 H 0.27063 0.19267 0.93885
 H1152 H 0.25151 0.17025 0.95925
 C1153 C 0.28119 0.34658 0.77550
 C1154 C 0.26245 0.34585 0.78190
 C1155 C 0.25586 0.33206 0.79300
 C1156 C 0.26917 0.31863 0.79789
 C1157 C 0.28874 0.31929 0.79178
 C1158 C 0.29466 0.33340 0.78019
 O1159 O 0.28479 0.36122 0.76583
 C1160 C 0.26802 0.36995 0.76619
 C1161 C 0.25385 0.36119 0.77587
 C1162 C 0.23556 0.36859 0.77891
 C1163 C 0.23181 0.38580 0.77178
 C1164 C 0.24626 0.39509 0.76177
 C1165 C 0.26453 0.38686 0.75881
 H1166 H 0.24110 0.33185 0.79801
 H1167 H 0.26429 0.30798 0.80680
 H1168 H 0.30946 0.33448 0.77540
 H1169 H 0.22474 0.36156 0.78683
 H1170 H 0.21781 0.39195 0.77427
 H1171 H 0.27606 0.39373 0.75164
 C1172 C 0.26932 -0.11626 0.31029
 C1173 C 0.25155 -0.11326 0.31820
 C1174 C 0.24363 -0.12482 0.33101
 C1175 C 0.25452 -0.14003 0.33597
 C1176 C 0.27312 -0.14339 0.32821
 C1177 C 0.28040 -0.13127 0.31497
 O1178 O 0.27466 -0.10321 0.29907
 C1179 C 0.25996 -0.09166 0.29997
 C1180 C 0.24545 -0.09718 0.31149
 C1181 C 0.22924 -0.08665 0.31526
 C1182 C 0.22815 -0.06958 0.30714
 C1183 C 0.24313 -0.06339 0.29544
 C1184 C 0.25902 -0.07488 0.29150
 H1185 H 0.22968 -0.12207 0.33720
 H1186 H 0.24850 -0.14898 0.34610
 H1187 H 0.29451 -0.13310 0.30876
 H1188 H 0.21809 -0.09118 0.32453
 H1189 H 0.21585 -0.06105 0.31035
 H1190 H 0.27075 -0.07061 0.28277
 C1191 C 0.79711 0.87050 0.77660
 C1192 C 0.77722 0.87126 0.77630
 C1193 C 0.76559 0.85862 0.78478
 C1194 C 0.77474 0.84484 0.79440
 C1195 C 0.79533 0.84378 0.79552
 C1196 C 0.80665 0.85659 0.78586
 O1197 O 0.80531 0.88484 0.76898
 C1198 C 0.79024 0.89482 0.76389
 C1199 C 0.77274 0.88705 0.76808
 C1200 C 0.75511 0.89575 0.76554
 C1201 C 0.75547 0.91332 0.75859
 C1202 C 0.77327 0.92177 0.75423
 C1203 C 0.79092 0.91222 0.75662
 H1204 H 0.74997 0.85969 0.78455
 H1205 H 0.76557 0.83525 0.80137
 H1206 H 0.82230 0.85657 0.78659
 H1207 H 0.74157 0.88946 0.76934
 H1208 H 0.74191 0.92048 0.75694
 H1209 H 0.80475 0.91854 0.75393
 C1210 C 0.45629 0.87467 0.29291
 C1211 C 0.47560 0.87192 0.29629
 C1212 C 0.48655 0.88382 0.30640
 C1213 C 0.47722 0.89915 0.31341
 C1214 C 0.45715 0.90238 0.31038
 C1215 C 0.44667 0.88986 0.29975
 O1216 O 0.44840 0.86137 0.28353
 C1217 C 0.46306 0.84996 0.28099
 C1218 C 0.48002 0.85579 0.28857
 C1219 C 0.49693 0.84557 0.28832
 C1220 C 0.49629 0.82852 0.28017
 C1221 C 0.47896 0.82205 0.27234
 C1222 C 0.46218 0.83313 0.27254
 H1223 H 0.50171 0.88128 0.30898
 H1224 H 0.48572 0.90835 0.32142
 H1225 H 0.43138 0.89161 0.29713
 H1226 H 0.51005 0.85038 0.29454
 H1227 H 0.50925 0.82026 0.28018
 H1228 H 0.44865 0.82850 0.26700
 C1229 C -0.02234 0.86345 0.81095
 C1230 C -0.00565 0.86003 0.82031
 C1231 C 0.00117 0.87165 0.83359
 C1232 C -0.00958 0.88747 0.83717
 C1233 C -0.02673 0.89129 0.82744
 C1234 C -0.03312 0.87891 0.81425
 O1235 O -0.02667 0.85077 0.79910
 C1236 C -0.01239 0.83900 0.80093
 C1237 C 0.00092 0.84398 0.81369
 C1238 C 0.01685 0.83332 0.81789
 C1239 C 0.01893 0.81681 0.80878
 C1240 C 0.00513 0.81123 0.79577
 C1241 C -0.01061 0.82272 0.79171
 H1242 H 0.01431 0.86867 0.84089
 H1243 H -0.00445 0.89677 0.84728
 H1244 H -0.04618 0.88118 0.80659
 H1245 H 0.02712 0.83741 0.82802
 H1246 H 0.03103 0.80820 0.81226
 H1247 H -0.02156 0.81889 0.78210
 C1248 C -0.04686 -0.12498 -0.03116
 C1249 C -0.05814 -0.12236 -0.01606
 C1250 C -0.07188 -0.13459 -0.01014
 C1251 C -0.07424 -0.15032 -0.02020
 C1252 C -0.06286 -0.15369 -0.03597
 C1253 C -0.04883 -0.14071 -0.04142
 O1254 O -0.03497 -0.11124 -0.03447
 C1255 C -0.03893 -0.09976 -0.02111
 C1256 C -0.05300 -0.10609 -0.00955
 C1257 C -0.05978 -0.09649 0.00520
 C1258 C -0.05187 -0.07952 0.00822
 C1259 C -0.03741 -0.07229 -0.00348
 C1260 C -0.03070 -0.08272 -0.01835
 H1261 H -0.08062 -0.13207 0.00178
 H1262 H -0.08504 -0.15981 -0.01556
 H1263 H -0.03992 -0.14262 -0.05335
 H1264 H -0.07088 -0.10185 0.01406
 H1265 H -0.05715 -0.07201 0.01978
 H1266 H -0.01978 -0.07763 -0.02756
 C1267 C -0.03039 0.39330 0.44446
 C1268 C -0.03913 0.39332 0.46118
 C1269 C -0.05115 0.37952 0.46710
 C1270 C -0.05432 0.36508 0.45531
 C1271 C -0.04553 0.36463 0.43791
 C1272 C -0.03330 0.37902 0.43251
 O1273 O -0.02000 0.40804 0.44131
 C1274 C -0.02225 0.41754 0.45638
 C1275 C -0.03383 0.40909 0.46894
 C1276 C -0.03873 0.41685 0.48540
 C1277 C -0.03165 0.43415 0.48899
 C1278 C -0.01983 0.44334 0.47622
 C1279 C -0.01486 0.43473 0.45975
 H1280 H -0.05797 0.37993 0.48028
 H1281 H -0.06370 0.35429 0.45978
 H1282 H -0.02646 0.37925 0.41933
 H1283 H -0.04798 0.40997 0.49501
 H1284 H -0.03562 0.44048 0.50165
 H1285 H -0.00620 0.44148 0.44958
 C1286 C 0.47110 -0.12655 0.45721
 C1287 C 0.48537 -0.12219 0.44498
 C1288 C 0.49151 -0.13378 0.43141
 C1289 C 0.48245 -0.15058 0.43027
 C1290 C 0.46742 -0.15548 0.44258
 C1291 C 0.46182 -0.14317 0.45633
 O1292 O 0.46762 -0.11360 0.46917
 C1293 C 0.47998 -0.10080 0.46432
 C1294 C 0.49111 -0.10541 0.44957
 C1295 C 0.50503 -0.09413 0.44220
 C1296 C 0.50777 -0.07742 0.45049
 C1297 C 0.49669 -0.07232 0.46594
 C1298 C 0.48244 -0.08421 0.47283
 H1299 H 0.50285 -0.13002 0.42200
 H1300 H 0.48714 -0.15962 0.41962
 H1301 H 0.45052 -0.14628 0.46604
 H1302 H 0.51356 -0.09809 0.43054
 H1303 H 0.51870 -0.06856 0.44491
 H1304 H 0.47377 -0.08082 0.48458
 C1305 C 0.45815 0.37311 -0.04793
 C1306 C 0.44560 0.37492 -0.03357
 C1307 C 0.43370 0.36111 -0.02762
 C1308 C 0.43468 0.34471 -0.03690
 C1309 C 0.44737 0.34234 -0.05200
 C1310 C 0.45932 0.35691 -0.05749
 O1311 O 0.46837 0.38791 -0.05114
 C1312 C 0.46208 0.39926 -0.03851
 C1313 C 0.44810 0.39195 -0.02747
 C1314 C 0.43954 0.40135 -0.01331
 C1315 C 0.44573 0.41904 -0.01027
 C1316 C 0.46034 0.42694 -0.02131
 C1317 C 0.46852 0.41684 -0.03573
 H1318 H 0.42401 0.36288 -0.01621
 H1319 H 0.42534 0.33394 -0.03226
 H1320 H 0.46925 0.35577 -0.06881
 H1321 H 0.42856 0.39526 -0.00481
 H1322 H 0.43925 0.42646 0.00081
 H1323 H 0.47966 0.42239 -0.04443
 C1324 C 0.80108 0.37698 0.45753
 C1325 C 0.78214 0.37653 0.46342
 C1326 C 0.77002 0.39149 0.46330
 C1327 C 0.77749 0.40752 0.45624
 C1328 C 0.79673 0.40831 0.44954
 C1329 C 0.80893 0.39297 0.45065
 O1330 O 0.80945 0.36079 0.45738
 C1331 C 0.79543 0.34993 0.46315
 C1332 C 0.77844 0.35898 0.46692
 C1333 C 0.76131 0.35030 0.47144
 C1334 C 0.76166 0.33148 0.47214
 C1335 C 0.77896 0.32178 0.46856
 C1336 C 0.79622 0.33108 0.46422
 H1337 H 0.75508 0.39065 0.46769
 H1338 H 0.76801 0.41915 0.45521
 H1339 H 0.82342 0.39309 0.44498
 H1340 H 0.74804 0.35774 0.47390
 H1341 H 0.74843 0.32439 0.47550
 H1342 H 0.80950 0.32387 0.46112
 C1343 C 0.78086 0.88108 -0.04418
 C1344 C 0.78934 0.87932 -0.02757
 C1345 C 0.80208 0.89187 -0.02066
 C1346 C 0.80641 0.90688 -0.03133
 C1347 C 0.79805 0.90919 -0.04871
 C1348 C 0.78492 0.89599 -0.05510
 O1349 O 0.76942 0.86732 -0.04820
 C1350 C 0.77080 0.85670 -0.03381
 C1351 C 0.78285 0.86349 -0.02085
 C1352 C 0.78685 0.85453 -0.00487
 C1353 C 0.77814 0.83776 -0.00212
 C1354 C 0.76562 0.83030 -0.01523
 C1355 C 0.76181 0.84003 -0.03130
 H1356 H 0.80858 0.89010 -0.00755
 H1357 H 0.81643 0.91662 -0.02592
 H1358 H 0.77825 0.89711 -0.06823
 H1359 H 0.79647 0.86018 0.00506
 H1360 H 0.78117 0.83061 0.01028
 H1361 H 0.75249 0.83467 -0.04164
 C1362 C 0.80521 0.28642 0.35685
 C1363 C 0.78697 0.27949 0.35436
 C1364 C 0.77598 0.28314 0.33917
 C1365 C 0.78390 0.29473 0.32618
 C1366 C 0.80251 0.30231 0.32851
 C1367 C 0.81355 0.29773 0.34385
 O1368 O 0.81225 0.28288 0.37311
 C1369 C 0.79813 0.27362 0.38105
 C1370 C 0.78236 0.27118 0.37010
 C1371 C 0.76513 0.26360 0.37618
 C1372 C 0.76398 0.25856 0.39436
 C1373 C 0.77994 0.26102 0.40594
 C1374 C 0.79740 0.26835 0.39916
 H1375 H 0.76148 0.27790 0.33775
 H1376 H 0.77527 0.29833 0.31458
 H1377 H 0.82747 0.30388 0.34625
 H1378 H 0.75276 0.26230 0.36743
 H1379 H 0.75048 0.25324 0.39961
 H1380 H 0.80949 0.27095 0.40798
 C1381 C 0.78239 0.78936 -0.12537
 C1382 C 0.76287 0.79275 -0.12650
 C1383 C 0.75457 0.80158 -0.14104
 C1384 C 0.76690 0.80743 -0.15492
 C1385 C 0.78726 0.80446 -0.15409
 C1386 C 0.79497 0.79489 -0.13913
 O1387 O 0.78741 0.78182 -0.10981
 C1388 C 0.77068 0.78051 -0.10093
 C1389 C 0.75525 0.78703 -0.11061
 C1390 C 0.73662 0.78823 -0.10355
 C1391 C 0.73378 0.78273 -0.08566
 C1392 C 0.74943 0.77607 -0.07527
 C1393 C 0.76812 0.77463 -0.08313
 H1394 H 0.73917 0.80428 -0.14148
 H1395 H 0.76048 0.81460 -0.16611
 H1396 H 0.81036 0.79252 -0.13775
 H1397 H 0.72479 0.79368 -0.11135
 H1398 H 0.71943 0.78392 -0.07979
 H1399 H 0.78039 0.77004 -0.07536
 C1400 C 0.28173 0.43226 0.86444
 C1401 C 0.26468 0.42298 0.86264
 C1402 C 0.25835 0.41032 0.87514
 C1403 C 0.27003 0.40707 0.89019
 C1404 C 0.28768 0.41651 0.89257
 C1405 C 0.29354 0.42936 0.87943
 O1406 O 0.28525 0.44338 0.85074
 C1407 C 0.27005 0.44108 0.84009
 C1408 C 0.25705 0.42878 0.84683
 C1409 C 0.24023 0.42410 0.83787
 C1410 C 0.23672 0.43229 0.82117
 C1411 C 0.24998 0.44489 0.81363
 C1412 C 0.26687 0.44941 0.82341
 H1413 H 0.24491 0.40312 0.87334
 H1414 H 0.26519 0.39726 0.90003
 H1415 H 0.30694 0.43673 0.88072
 H1416 H 0.23024 0.41435 0.84347
 H1417 H 0.22376 0.42854 0.81402
 H1418 H 0.27740 0.45882 0.81808
 C1419 C 0.26851 -0.03522 0.39849
 C1420 C 0.26702 -0.01684 0.40059
 C1421 C 0.27373 -0.00785 0.41573
 C1422 C 0.28279 -0.01816 0.42908
 C1423 C 0.28490 -0.03708 0.42710
 C1424 C 0.27715 -0.04579 0.41180
 O1425 O 0.26325 -0.04080 0.38224
 C1426 C 0.25846 -0.02561 0.37386
 C1427 C 0.26051 -0.01058 0.38456
 C1428 C 0.25847 0.00687 0.37805
 C1429 C 0.25447 0.00897 0.35970
 C1430 C 0.25244 -0.00626 0.34836
 C1431 C 0.25404 -0.02383 0.35557
 H1432 H 0.27283 0.00667 0.41684
 H1433 H 0.28880 -0.01135 0.44065
 H1434 H 0.27918 -0.06011 0.40965
 H1435 H 0.26071 0.01847 0.38661
 H1436 H 0.25348 0.02245 0.35415
 H1437 H 0.25323 -0.03560 0.34699
 C1438 C -0.02795 -0.04570 -0.11046
 C1439 C -0.03768 -0.02950 -0.11051
 C1440 C -0.04972 -0.02421 -0.12443
 C1441 C -0.05196 -0.03612 -0.13891
 C1442 C -0.04207 -0.05303 -0.13941
 C1443 C -0.02964 -0.05768 -0.12492
 O1444 O -0.01812 -0.04850 -0.09536
 C1445 C -0.02175 -0.03373 -0.08573
 C1446 C -0.03355 -0.02167 -0.09447
 C1447 C -0.03977 -0.00560 -0.08671
 C1448 C -0.03382 -0.00190 -0.06908
 C1449 C -0.02196 -0.01426 -0.05947
 C1450 C -0.01564 -0.03034 -0.06813
 H1451 H -0.05740 -0.01147 -0.12403
 H1452 H -0.06151 -0.03203 -0.14969
 H1453 H -0.02203 -0.07046 -0.12455
 H1454 H -0.04918 0.00361 -0.09385
 H1455 H -0.03889 0.01044 -0.06281
 H1456 H -0.00682 -0.04020 -0.06120
 C1457 C -0.04058 0.47197 0.36658
 C1458 C -0.02216 0.46511 0.36802
 C1459 C -0.01393 0.45377 0.35518
 C1460 C -0.02515 0.44929 0.34019
 C1461 C -0.04435 0.45608 0.33830
 C1462 C -0.05206 0.46765 0.35185
 O1463 O -0.04570 0.48239 0.38038
 C1464 C -0.03015 0.48206 0.39076
 C1465 C -0.01537 0.47164 0.38381
 C1466 C 0.00208 0.46906 0.39262
 C1467 C 0.00435 0.47747 0.40937
 C1468 C -0.01069 0.48829 0.41692
 C1469 C -0.02815 0.49070 0.40734
 H1470 H 0.00062 0.44852 0.35666
 H1471 H -0.01878 0.44043 0.33015
 H1472 H -0.06657 0.47317 0.35106
 H1473 H 0.01346 0.46073 0.38689
 H1474 H 0.01783 0.47549 0.41647
 H1475 H -0.03999 0.49868 0.41279
 C1476 C 0.46419 -0.02930 0.37741
 C1477 C 0.48369 -0.02766 0.37391
 C1478 C 0.49239 -0.03418 0.35825
 C1479 C 0.48060 -0.04306 0.34582
 C1480 C 0.46049 -0.04520 0.34915
 C1481 C 0.45209 -0.03783 0.36503
 O1482 O 0.45921 -0.02372 0.39385
 C1483 C 0.47593 -0.01852 0.40087
 C1484 C 0.49133 -0.02064 0.38916
 C1485 C 0.51040 -0.01771 0.39419
 C1486 C 0.51381 -0.01273 0.41211
 C1487 C 0.49826 -0.01067 0.42456
 C1488 C 0.47898 -0.01320 0.41873
 H1489 H 0.50783 -0.03307 0.35598
 H1490 H 0.48725 -0.04868 0.33379
 H1491 H 0.43691 -0.03975 0.36820
 H1492 H 0.52229 -0.01988 0.38484
 H1493 H 0.52861 -0.01100 0.41646
 H1494 H 0.46692 -0.01234 0.42812
 C1495 C 0.45437 0.45040 -0.12692
 C1496 C 0.44041 0.46337 -0.12412
 C1497 C 0.42486 0.46588 -0.13556
 C1498 C 0.42354 0.45448 -0.15053
 C1499 C 0.43777 0.44090 -0.15392
 C1500 C 0.45354 0.43905 -0.14187
 O1501 O 0.46754 0.44987 -0.11399
 C1502 C 0.46174 0.46282 -0.10282
 C1503 C 0.44526 0.47152 -0.10848
 C1504 C 0.43643 0.48528 -0.09873
 C1505 C 0.44489 0.49026 -0.08240
 C1506 C 0.46181 0.48138 -0.07606
 C1507 C 0.47037 0.46748 -0.08654
 H1508 H 0.41397 0.47611 -0.13295
 H1509 H 0.41133 0.45633 -0.15942
 H1510 H 0.46460 0.42882 -0.14375
 H1511 H 0.42338 0.49183 -0.10343
 H1512 H 0.43795 0.50080 -0.07456
 H1513 H 0.48317 0.46033 -0.08207
 C1514 C 0.45529 0.77654 0.38072
 C1515 C 0.47496 0.77397 0.37889
 C1516 C 0.48801 0.77796 0.39243
 C1517 C 0.48057 0.78553 0.40831
 C1518 C 0.46046 0.78883 0.41033
 C1519 C 0.44752 0.78375 0.39661
 O1520 O 0.44573 0.77362 0.36554
 C1521 C 0.45969 0.76928 0.35390
 C1522 C 0.47781 0.76936 0.36144
 C1523 C 0.49470 0.76699 0.35145
 C1524 C 0.49287 0.76436 0.33288
 C1525 C 0.47436 0.76409 0.32472
 C1526 C 0.45749 0.76637 0.33543
 H1527 H 0.50345 0.77621 0.39048
 H1528 H 0.49054 0.78968 0.41870
 H1529 H 0.43222 0.78686 0.39760
 H1530 H 0.50881 0.76754 0.35766
 H1531 H 0.50590 0.76250 0.32486
 H1532 H 0.44323 0.76657 0.32949
 C1533 C -0.03627 0.78539 0.89159
 C1534 C -0.02058 0.79606 0.88765
 C1535 C -0.01678 0.81193 0.89686
 C1536 C -0.02953 0.81690 0.91086
 C1537 C -0.04573 0.80595 0.91550
 C1538 C -0.04906 0.78997 0.90550
 O1539 O -0.03769 0.77120 0.88083
 C1540 C -0.02253 0.77291 0.86989
 C1541 C -0.01152 0.78784 0.87353
 C1542 C 0.00475 0.79241 0.86339
 C1543 C 0.00961 0.78137 0.84866
 C1544 C -0.00187 0.76616 0.84426
 C1545 C -0.01798 0.76176 0.85534
 H1546 H -0.00446 0.82023 0.89337
 H1547 H -0.02655 0.82921 0.91814
 H1548 H -0.06124 0.78125 0.90835
 H1549 H 0.01314 0.80430 0.86645
 H1550 H 0.02184 0.78514 0.84027
 H1551 H -0.02724 0.75043 0.85232
 C1552 C 0.35917 0.80301 0.31399
 C1553 C 0.36643 0.81702 0.30388
 C1554 C 0.35787 0.83396 0.30336
 C1555 C 0.34086 0.83652 0.31341
 C1556 C 0.33266 0.82224 0.32369
 C1557 C 0.34222 0.80529 0.32423
 O1558 O 0.36926 0.78783 0.31194
 C1559 C 0.38307 0.79240 0.30022
 C1560 C 0.38188 0.81011 0.29487
 C1561 C 0.39417 0.81762 0.28206
 C1562 C 0.40838 0.80644 0.27442
 C1563 C 0.41021 0.78811 0.27975
 C1564 C 0.39734 0.78103 0.29295
 H1565 H 0.36385 0.84472 0.29522
 H1566 H 0.33389 0.84961 0.31287
 H1567 H 0.33623 0.79406 0.33171
 H1568 H 0.39273 0.83155 0.27793
 H1569 H 0.41799 0.81216 0.26436
 H1570 H 0.39820 0.76708 0.29720
 C1571 C -0.11832 0.80345 0.80638
 C1572 C -0.11099 0.79847 0.82285
 C1573 C -0.12125 0.80050 0.83888
 C1574 C -0.14005 0.80753 0.83791
 C1575 C -0.14829 0.81235 0.82109
 C1576 C -0.13703 0.81072 0.80511
 O1577 O -0.10661 0.79915 0.79270
 C1578 C -0.09169 0.79120 0.80074
 C1579 C -0.09374 0.79043 0.81918
 C1580 C -0.08065 0.78152 0.83021
 C1581 C -0.06480 0.77296 0.82192
 C1582 C -0.06223 0.77353 0.80293
 C1583 C -0.07578 0.78303 0.79221
 H1584 H -0.11526 0.79625 0.85163
 H1585 H -0.14845 0.80866 0.85025
 H1586 H -0.14308 0.81383 0.79206
 H1587 H -0.08277 0.78084 0.84466
 H1588 H -0.05454 0.76583 0.83032
 H1589 H -0.07437 0.78342 0.77767
 C1590 C 0.89226 0.29860 0.44268
 C1591 C 0.89259 0.28228 0.43391
 C1592 C 0.90601 0.27815 0.42044
 C1593 C 0.91964 0.29138 0.41579
 C1594 C 0.91972 0.30834 0.42468
 C1595 C 0.90584 0.31188 0.43843
 O1596 O 0.87770 0.30015 0.45440
 C1597 C 0.86865 0.28446 0.45301
 C1598 C 0.87724 0.27303 0.44071
 C1599 C 0.86974 0.25620 0.43660
 C1600 C 0.85248 0.25106 0.44524
 C1601 C 0.84298 0.26275 0.45771
 C1602 C 0.85149 0.27960 0.46184
 H1603 H 0.90582 0.26529 0.41357
 H1604 H 0.93012 0.28839 0.40526
 H1605 H 0.90527 0.32474 0.44531
 H1606 H 0.87669 0.24748 0.42678
 H1607 H 0.84627 0.23814 0.44183
 H1608 H 0.84452 0.28901 0.47100
 C1609 C 0.86878 0.77984 -0.04404
 C1610 C 0.87107 0.77316 -0.02685
 C1611 C 0.88820 0.77480 -0.01731
 C1612 C 0.90351 0.78401 -0.02565
 C1613 C 0.90149 0.79121 -0.04322
 C1614 C 0.88402 0.78880 -0.05273
 O1615 O 0.85071 0.77851 -0.04991
 C1616 C 0.84139 0.77093 -0.03611
 C1617 C 0.85325 0.76741 -0.02169
 C1618 C 0.84630 0.76129 -0.00515
 C1619 C 0.82627 0.75895 -0.00328
 C1620 C 0.81371 0.76254 -0.01786
 C1621 C 0.82138 0.76829 -0.03465
 H1622 H 0.88946 0.76987 -0.00363
 H1623 H 0.91672 0.78617 -0.01819
 H1624 H 0.88192 0.79486 -0.06586
 H1625 H 0.85586 0.75910 0.00613
 H1626 H 0.82044 0.75479 0.00967
 H1627 H 0.81196 0.77176 -0.04574
 C1628 C -0.13920 -0.03146 -0.03349
 C1629 C -0.13474 -0.01581 -0.04245
 C1630 C -0.14425 -0.01031 -0.05799
 C1631 C -0.15893 -0.02148 -0.06462
 C1632 C -0.16393 -0.03774 -0.05556
 C1633 C -0.15396 -0.04252 -0.03956
 O1634 O -0.12742 -0.03507 -0.01991
 C1635 C -0.11519 -0.02136 -0.02026
 C1636 C -0.11916 -0.00912 -0.03370
 C1637 C -0.10761 0.00575 -0.03714
 C1638 C -0.09105 0.00787 -0.02659
 C1639 C -0.08616 -0.00495 -0.01304
 C1640 C -0.09875 -0.01957 -0.00960
 H1641 H -0.14020 0.00192 -0.06501
 H1642 H -0.16625 -0.01746 -0.07685
 H1643 H -0.15692 -0.05492 -0.03234
 H1644 H -0.11091 0.01511 -0.04790
 H1645 H -0.08168 0.01917 -0.02953
 H1646 H -0.09535 -0.02977 0.00034
 C1647 C -0.12946 0.46547 0.45025
 C1648 C -0.12799 0.48131 0.44074
 C1649 C -0.14141 0.48679 0.42807
 C1650 C -0.15719 0.47554 0.42505
 C1651 C -0.15943 0.45910 0.43471
 C1652 C -0.14523 0.45398 0.44752
 O1653 O -0.11473 0.46288 0.46147
 C1654 C -0.10384 0.47745 0.45893
 C1655 C -0.11148 0.48908 0.44639
 C1656 C -0.10271 0.50506 0.44135
 C1657 C -0.08511 0.50926 0.44938
 C1658 C -0.07648 0.49750 0.46220
 C1659 C -0.08616 0.48139 0.46722
 H1660 H -0.13979 0.49932 0.42073
 H1661 H -0.16776 0.47984 0.41523
 H1662 H -0.14642 0.44156 0.45510
 H1663 H -0.10912 0.51396 0.43146
 H1664 H -0.07815 0.52171 0.44541
 H1665 H -0.07994 0.47208 0.47684
 C1666 C 0.37669 -0.03888 0.47159
 C1667 C 0.37767 -0.02087 0.46736
 C1668 C 0.36206 -0.01106 0.46105
 C1669 C 0.34473 -0.02024 0.45844
 C1670 C 0.34313 -0.03910 0.46197
 C1671 C 0.35938 -0.04843 0.46919
 O1672 O 0.39361 -0.04554 0.47700
 C1673 C 0.40541 -0.03140 0.47601
 C1674 C 0.39626 -0.01605 0.47009
 C1675 C 0.40575 0.00017 0.46732
 C1676 C 0.42554 0.00076 0.47102
 C1677 C 0.43549 -0.01471 0.47751
 C1678 C 0.42520 -0.03109 0.48000
 H1679 H 0.36328 0.00313 0.45788
 H1680 H 0.33269 -0.01251 0.45321
 H1681 H 0.35893 -0.06275 0.47197
 H1682 H 0.39817 0.01199 0.46246
 H1683 H 0.43301 0.01342 0.46911
 H1684 H 0.43234 -0.04316 0.48483
 C1685 C 0.36420 0.44500 -0.04658
 C1686 C 0.36532 0.46051 -0.05666
 C1687 C 0.35406 0.46355 -0.07175
 C1688 C 0.34088 0.45018 -0.07663
 C1689 C 0.33883 0.43402 -0.06633
 C1690 C 0.35088 0.43149 -0.05102
 O1691 O 0.37693 0.44462 -0.03319
 C1692 C 0.38615 0.46028 -0.03488
 C1693 C 0.37944 0.47050 -0.04897
 C1694 C 0.38714 0.48718 -0.05350
 C1695 C 0.40273 0.49347 -0.04335
 C1696 C 0.41052 0.48305 -0.02901
 C1697 C 0.40179 0.46627 -0.02456
 H1698 H 0.35545 0.47580 -0.07959
 H1699 H 0.33210 0.45269 -0.08840
 H1700 H 0.35004 0.41939 -0.04288
 H1701 H 0.38159 0.49492 -0.06471
 H1702 H 0.40912 0.50624 -0.04713
 H1703 H 0.40750 0.45778 -0.01397
 C1704 C 0.36776 0.43293 0.79047
 C1705 C 0.36427 0.41972 0.77796
 C1706 C 0.37746 0.40603 0.77404
 C1707 C 0.39498 0.40590 0.78349
 C1708 C 0.39893 0.41930 0.79660
 C1709 C 0.38502 0.43303 0.80005
 O1710 O 0.35341 0.44481 0.79204
 C1711 C 0.34053 0.43896 0.78024
 C1712 C 0.34649 0.42362 0.77133
 C1713 C 0.33536 0.41520 0.75837
 C1714 C 0.31743 0.42299 0.75427
 C1715 C 0.31093 0.43900 0.76306
 C1716 C 0.32270 0.44698 0.77639
 H1717 H 0.37437 0.39581 0.76409
 H1718 H 0.40535 0.39526 0.78068
 H1719 H 0.38750 0.44350 0.80991
 H1720 H 0.34034 0.40312 0.75158
 H1721 H 0.30870 0.41653 0.74411
 H1722 H 0.31827 0.45915 0.78336
 C1723 C 0.37086 -0.04233 0.31713
 C1724 C 0.36014 -0.05682 0.31154
 C1725 C 0.36766 -0.07416 0.31022
 C1726 C 0.38714 -0.07671 0.31465
 C1727 C 0.39872 -0.06205 0.32033
 C1728 C 0.39032 -0.04461 0.32184
 O1729 O 0.36109 -0.02683 0.31640
 C1730 C 0.34387 -0.03169 0.31016
 C1731 C 0.34265 -0.04992 0.30701
 C1732 C 0.32651 -0.05796 0.29955
 C1733 C 0.31101 -0.04675 0.29490
 C1734 C 0.31176 -0.02784 0.29777
 C1735 C 0.32837 -0.02022 0.30583
 H1736 H 0.35894 -0.08529 0.30557
 H1737 H 0.39325 -0.09013 0.31345
 H1738 H 0.39883 -0.03309 0.32583
 H1739 H 0.32601 -0.07232 0.29703
 H1740 H 0.29846 -0.05284 0.28884
 H1741 H 0.32951 -0.00583 0.30794
 C1742 C 0.10997 0.53221 0.70724
 C1743 C 0.10974 0.51586 0.69854
 C1744 C 0.09529 0.51084 0.68671
 C1745 C 0.08040 0.52322 0.68353
 C1746 C 0.08001 0.54023 0.69228
 C1747 C 0.09495 0.54473 0.70452
 O1748 O 0.12571 0.53438 0.71731
 C1749 C 0.13552 0.51903 0.71485
 C1750 C 0.12619 0.50733 0.70353
 C1751 C 0.13371 0.49071 0.69861
 C1752 C 0.15175 0.48587 0.70548
 C1753 C 0.16216 0.49762 0.71702
 C1754 C 0.15373 0.51447 0.72194
 H1755 H 0.09561 0.49793 0.67993
 H1756 H 0.06908 0.51951 0.67424
 H1757 H 0.09515 0.55769 0.71121
 H1758 H 0.12601 0.48180 0.68964
 H1759 H 0.15762 0.47288 0.70158
 H1760 H 0.16125 0.52381 0.73060
 C1761 C 0.11992 0.06034 0.21909
 C1762 C 0.12431 0.07345 0.23146
 C1763 C 0.11354 0.08914 0.23343
 C1764 C 0.09758 0.09151 0.22215
 C1765 C 0.09252 0.07822 0.20913
 C1766 C 0.10395 0.06230 0.20777
 O1767 O 0.13242 0.04667 0.21918
 C1768 C 0.14491 0.05131 0.23189
 C1769 C 0.14052 0.06757 0.23982
 C1770 C 0.15174 0.07517 0.25326
 C1771 C 0.16825 0.06567 0.25873
 C1772 C 0.17331 0.04888 0.25070
 C1773 C 0.16131 0.04161 0.23709
 H1774 H 0.11737 0.09930 0.24322
 H1775 H 0.08925 0.10382 0.22366
 H1776 H 0.10079 0.05187 0.19803
 H1777 H 0.14798 0.08804 0.25923
 H1778 H 0.17719 0.07155 0.26909
 H1779 H 0.16472 0.02891 0.23061
 C1780 C 0.60147 0.70222 0.19802
 C1781 C 0.59489 0.68723 0.20708
 C1782 C 0.60639 0.67219 0.21026
 C1783 C 0.62555 0.67266 0.20398
 C1784 C 0.63275 0.68798 0.19464
 C1785 C 0.62040 0.70287 0.19140
 O1786 O 0.58856 0.71551 0.19750
 C1787 C 0.57355 0.70876 0.20646
 C1788 C 0.57668 0.69147 0.21253
 C1789 C 0.56333 0.68214 0.22300
 C1790 C 0.54611 0.69107 0.22764
 C1791 C 0.54262 0.70907 0.22186
 C1792 C 0.55647 0.71789 0.21084
 H1793 H 0.60094 0.66067 0.21765
 H1794 H 0.63481 0.66113 0.20651
 H1795 H 0.62558 0.71486 0.18461
 H1796 H 0.56623 0.66859 0.22773
 H1797 H 0.53565 0.68403 0.23597
 H1798 H 0.55439 0.73166 0.20640
 C1799 C 0.12778 0.68808 0.71334
 C1800 C 0.11928 0.67300 0.72065
 C1801 C 0.12762 0.65601 0.71986
 C1802 C 0.14573 0.65445 0.71148
 C1803 C 0.15531 0.66981 0.70424
 C1804 C 0.14596 0.68687 0.70490
 O1805 O 0.11742 0.70300 0.71612
 C1806 C 0.10218 0.69714 0.72550
 C1807 C 0.10279 0.67889 0.72867
 C1808 C 0.08904 0.66993 0.73901
 C1809 C 0.07390 0.68018 0.74636
 C1810 C 0.07256 0.69900 0.74309
 C1811 C 0.08693 0.70761 0.73240
 H1812 H 0.12058 0.64438 0.72575
 H1813 H 0.15244 0.64124 0.71104
 H1814 H 0.15289 0.69887 0.69968
 H1815 H 0.09005 0.65559 0.74151
 H1816 H 0.06313 0.67338 0.75450
 H1817 H 0.08643 0.72197 0.72984
 C1818 C 0.63156 0.20199 0.52049
 C1819 C 0.62834 0.22001 0.51716
 C1820 C 0.61108 0.22867 0.52148
 C1821 C 0.59674 0.21854 0.53016
 C1822 C 0.59986 0.20011 0.53449
 C1823 C 0.61734 0.19154 0.52907
 O1824 O 0.64954 0.19681 0.51641
 C1825 C 0.65779 0.21192 0.51056
 C1826 C 0.64543 0.22650 0.51089
 C1827 C 0.65138 0.24396 0.50697
 C1828 C 0.67091 0.24653 0.50245
 C1829 C 0.68390 0.23173 0.50166
 C1830 C 0.67723 0.21412 0.50560
 H1831 H 0.60902 0.24290 0.51891
 H1832 H 0.58349 0.22528 0.53427
 H1833 H 0.62035 0.17767 0.53267
 H1834 H 0.64145 0.25525 0.50778
 H1835 H 0.67594 0.26003 0.49949
 H1836 H 0.68702 0.20268 0.50549
 C1837 C 0.59841 0.71945 0.03664
 C1838 C 0.59931 0.73580 0.04529
 C1839 C 0.58578 0.74116 0.05822
 C1840 C 0.57074 0.72916 0.06244
 C1841 C 0.56948 0.71213 0.05377
 C1842 C 0.58355 0.70734 0.04057
 O1843 O 0.61313 0.71662 0.02535
 C1844 C 0.62357 0.73151 0.02691
 C1845 C 0.61574 0.74369 0.03892
 C1846 C 0.62475 0.75982 0.04321
 C1847 C 0.64270 0.76344 0.03499
 C1848 C 0.65126 0.75100 0.02269
 C1849 C 0.64131 0.73490 0.01844
 H1850 H 0.58689 0.75403 0.06497
 H1851 H 0.56019 0.73313 0.07258
 H1852 H 0.58322 0.69443 0.03379
 H1853 H 0.61841 0.76912 0.05285
 H1854 H 0.65008 0.77578 0.03849
 H1855 H 0.64757 0.72492 0.00945
 C1856 C 0.12544 0.03255 0.05803
 C1857 C 0.11904 0.02176 0.07191
 C1858 C 0.12924 0.01944 0.08776
 C1859 C 0.14687 0.02848 0.08937
 C1860 C 0.15423 0.03958 0.07518
 C1861 C 0.14313 0.04162 0.05924
 O1862 O 0.11320 0.03314 0.04431
 C1863 C 0.09885 0.02245 0.04970
 C1864 C 0.10181 0.01511 0.06646
 C1865 C 0.08864 0.00363 0.07480
 C1866 C 0.07156 -0.00033 0.06555
 C1867 C 0.06789 0.00730 0.04832
 C1868 C 0.08190 0.01879 0.04028
 H1869 H 0.12380 0.01098 0.09854
 H1870 H 0.15481 0.02655 0.10176
 H1871 H 0.14801 0.04995 0.04813
 H1872 H 0.09131 -0.00193 0.08805
 H1873 H 0.06099 -0.00895 0.07205
 H1874 H 0.07956 0.02492 0.02722
 C1875 C 0.13105 0.55082 0.54003
 C1876 C 0.12801 0.56355 0.52689
 C1877 C 0.14085 0.57750 0.52333
 C1878 C 0.15758 0.57844 0.53383
 C1879 C 0.16119 0.56548 0.54750
 C1880 C 0.14770 0.55140 0.55054
 O1881 O 0.11678 0.53889 0.54134
 C1882 C 0.10448 0.54424 0.52870
 C1883 C 0.11081 0.55924 0.51951
 C1884 C 0.10039 0.56729 0.50581
 C1885 C 0.08268 0.55958 0.50130
 C1886 C 0.07556 0.54405 0.51050
 C1887 C 0.08671 0.53630 0.52451
 H1888 H 0.13803 0.58737 0.51292
 H1889 H 0.16770 0.58926 0.53125
 H1890 H 0.14992 0.54137 0.56094
 H1891 H 0.10567 0.57913 0.49884
 H1892 H 0.07445 0.56594 0.49067
 H1893 H 0.08175 0.52455 0.53184
 C1894 C 0.64923 0.03510 0.53718
 C1895 C 0.64842 0.01805 0.54436
 C1896 C 0.66322 0.01077 0.55473
 C1897 C 0.67950 0.02158 0.55787
 C1898 C 0.68065 0.03929 0.55066
 C1899 C 0.66523 0.04602 0.54007
 O1900 O 0.63349 0.03966 0.52808
 C1901 C 0.62246 0.02515 0.52955
 C1902 C 0.63092 0.01154 0.53938
 C1903 C 0.62171 -0.00470 0.54291
 C1904 C 0.60298 -0.00695 0.53614
 C1905 C 0.59382 0.00694 0.52602
 C1906 C 0.60388 0.02319 0.52263
 H1907 H 0.66220 -0.00266 0.56033
 H1908 H 0.69109 0.01617 0.56601
 H1909 H 0.66547 0.05948 0.53443
 H1910 H 0.62861 -0.01519 0.55074
 H1911 H 0.59560 -0.01951 0.53891
 H1912 H 0.59735 0.03413 0.51513
 C1913 C 0.61884 0.52981 0.04553
 C1914 C 0.62336 0.52709 0.02761
 C1915 C 0.64030 0.53343 0.01968
 C1916 C 0.65284 0.54344 0.03049
 C1917 C 0.64833 0.54683 0.04885
 C1918 C 0.63134 0.53952 0.05665
 O1919 O 0.60107 0.52442 0.04983
 C1920 C 0.59422 0.51831 0.03430
 C1921 C 0.60731 0.51969 0.02029
 C1922 C 0.60249 0.51613 0.00247
 C1923 C 0.58334 0.51114 -0.00111
 C1924 C 0.56958 0.50962 0.01307
 C1925 C 0.57519 0.51290 0.03109
 H1926 H 0.64329 0.53154 0.00546
 H1927 H 0.66562 0.54933 0.02436
 H1928 H 0.62719 0.54263 0.07041
 H1929 H 0.61288 0.51786 -0.00839
 H1930 H 0.57909 0.50888 -0.01494
 H1931 H 0.56473 0.51251 0.04204
 C1932 C 0.02957 0.04942 0.13685
 C1933 C 0.03806 0.03266 0.13734
 C1934 C 0.05230 0.02808 0.14967
 C1935 C 0.05803 0.04129 0.16205
 C1936 C 0.04939 0.05876 0.16211
 C1937 C 0.03479 0.06271 0.14923
 O1938 O 0.01707 0.05130 0.12343
 C1939 C 0.01766 0.03533 0.11531
 C1940 C 0.03020 0.02343 0.12339
 C1941 C 0.03358 0.00617 0.11681
 C1942 C 0.02396 0.00106 0.10105
 C1943 C 0.01131 0.01321 0.09203
 C1944 C 0.00791 0.03054 0.09955
 H1945 H 0.05896 0.01485 0.14962
 H1946 H 0.06919 0.03776 0.17161
 H1947 H 0.02796 0.07585 0.14852
 H1948 H 0.04363 -0.00291 0.12333
 H1949 H 0.02694 -0.01220 0.09557
 H1950 H -0.00130 0.04031 0.09293
 C1951 C 0.03103 0.55066 0.61793
 C1952 C 0.01623 0.56251 0.61421
 C1953 C 0.00902 0.57470 0.62679
 C1954 C 0.01736 0.57468 0.64395
 C1955 C 0.03268 0.56260 0.64827
 C1956 C 0.03962 0.55043 0.63494
 O1957 O 0.03560 0.54013 0.60403
 C1958 C 0.02340 0.54547 0.59131
 C1959 C 0.01127 0.55914 0.59688
 C1960 C -0.00266 0.56675 0.58579
 C1961 C -0.00418 0.56001 0.56820
 C1962 C 0.00812 0.54586 0.56202
 C1963 C 0.02214 0.53853 0.57386
 H1964 H -0.00266 0.58389 0.62354
 H1965 H 0.01181 0.58414 0.65385
 H1966 H 0.05121 0.54099 0.63771
 H1967 H -0.01205 0.57751 0.59051
 H1968 H -0.01497 0.56588 0.55943
 H1969 H 0.03181 0.52777 0.56966
 C1970 C 0.54322 0.02998 0.62875
 C1971 C 0.55356 0.01417 0.62722
 C1972 C 0.56872 0.00975 0.63857
 C1973 C 0.57369 0.02225 0.65188
 C1974 C 0.56337 0.03882 0.65384
 C1975 C 0.54749 0.04240 0.64230
 O1976 O 0.53083 0.03245 0.61536
 C1977 C 0.53345 0.01789 0.60518
 C1978 C 0.54708 0.00622 0.61195
 C1979 C 0.55323 -0.00914 0.60281
 C1980 C 0.54537 -0.01240 0.58576
 C1981 C 0.53176 -0.00025 0.57809
 C1982 C 0.52537 0.01488 0.58825
 H1983 H 0.57693 -0.00260 0.63682
 H1984 H 0.58581 0.01900 0.66049
 H1985 H 0.53954 0.05500 0.64297
 H1986 H 0.56423 -0.01795 0.60831
 H1987 H 0.55053 -0.02400 0.57825
 H1988 H 0.51542 0.02469 0.58269
 C1989 C 0.51484 0.53931 0.12408
 C1990 C 0.52265 0.52224 0.12362
 C1991 C 0.53248 0.51466 0.13802
 C1992 C 0.53456 0.52519 0.15352
 C1993 C 0.52685 0.54296 0.15437
 C1994 C 0.51661 0.55002 0.13945
 O1995 O 0.50665 0.54409 0.10864
 C1996 C 0.50940 0.52971 0.09825
 C1997 C 0.51912 0.51601 0.10683
 C1998 C 0.52414 0.49994 0.09841
 C1999 C 0.51895 0.49789 0.08033
 C2000 C 0.50891 0.51180 0.07104
 C2001 C 0.50398 0.52793 0.08025
 H2002 H 0.53857 0.50122 0.13725
 H2003 H 0.54235 0.51950 0.16479
 H2004 H 0.51077 0.56359 0.13957
 H2005 H 0.53192 0.48942 0.10545
 H2006 H 0.52282 0.48542 0.07361
 H2007 H 0.49651 0.53888 0.07354
 C2008 C 0.22077 0.52786 0.61862
 C2009 C 0.21257 0.51129 0.61559
 C2010 C 0.20103 0.50773 0.60078
 C2011 C 0.19757 0.52191 0.58872
 C2012 C 0.20561 0.53925 0.59168
 C2013 C 0.21769 0.54211 0.60671
 O2014 O 0.22995 0.52883 0.63423
 C2015 C 0.22740 0.51254 0.64123
 C2016 C 0.21688 0.50129 0.63035
 C2017 C 0.21114 0.48416 0.63567
 C2018 C 0.21617 0.47849 0.65306
 C2019 C 0.22677 0.48996 0.66465
 C2020 C 0.23280 0.50709 0.65845
 H2021 H 0.19447 0.49466 0.59886
 H2022 H 0.18830 0.51945 0.57729
 H2023 H 0.22370 0.55524 0.60959
 H2024 H 0.20255 0.47569 0.62699
 H2025 H 0.21141 0.46536 0.65764
 H2026 H 0.24042 0.51633 0.66714
 C2027 C 0.21131 0.03931 0.14222
 C2028 C 0.22955 0.04636 0.14384
 C2029 C 0.23888 0.05545 0.12991
 C2030 C 0.22897 0.05742 0.11360
 C2031 C 0.21001 0.05031 0.11144
 C2032 C 0.20119 0.04102 0.12611
 O2033 O 0.20495 0.03145 0.15724
 C2034 C 0.21954 0.03360 0.16857
 C2035 C 0.23492 0.04263 0.16099
 C2036 C 0.25161 0.04662 0.17043
 C2037 C 0.25248 0.04115 0.18847
 C2038 C 0.23679 0.03186 0.19679
 C2039 C 0.22008 0.02798 0.18656
 H2040 H 0.25324 0.06093 0.13157
 H2041 H 0.23617 0.06456 0.10273
 H2042 H 0.18677 0.03543 0.12518
 H2043 H 0.26350 0.05380 0.16416
 H2044 H 0.26543 0.04429 0.19595
 H2045 H 0.20779 0.02104 0.19243
 C2046 C 0.73453 0.20433 0.60934
 C2047 C 0.72535 0.22077 0.60841
 C2048 C 0.71375 0.22754 0.62222
 C2049 C 0.71134 0.21687 0.63764
 C2050 C 0.72053 0.19977 0.63906
 C2051 C 0.73251 0.19351 0.62472
 O2052 O 0.74430 0.20024 0.59433
 C2053 C 0.74115 0.21443 0.58375
 C2054 C 0.72966 0.22733 0.59182
 C2055 C 0.72399 0.24305 0.58320
 C2056 C 0.73031 0.24562 0.56542
 C2057 C 0.74209 0.23254 0.55652
 C2058 C 0.74772 0.21674 0.56596
 H2059 H 0.70658 0.24048 0.62106
 H2060 H 0.70220 0.22195 0.64844
 H2061 H 0.73952 0.18044 0.62527
 H2062 H 0.71485 0.25293 0.58986
 H2063 H 0.72587 0.25784 0.55859
 H2064 H 0.75651 0.20641 0.55957
 C2065 C 0.69954 0.71596 0.12621
 C2066 C 0.69150 0.73295 0.12577
 C2067 C 0.67984 0.73980 0.13950
 C2068 C 0.67603 0.72855 0.15424
 C2069 C 0.68404 0.71095 0.15505
 C2070 C 0.69627 0.70465 0.14100
 O2071 O 0.70906 0.71173 0.11113
 C2072 C 0.70692 0.72638 0.10099
 C2073 C 0.69635 0.73972 0.10942
 C2074 C 0.69155 0.75587 0.10117
 C2075 C 0.69785 0.75844 0.08340
 C2076 C 0.70867 0.74489 0.07415
 C2077 C 0.71339 0.72864 0.08321
 H2078 H 0.67347 0.75312 0.13867
 H2079 H 0.66659 0.73343 0.16493
 H2080 H 0.70216 0.69109 0.14115
 H2081 H 0.68304 0.76607 0.10808
 H2082 H 0.69407 0.77101 0.07685
 H2083 H 0.72142 0.71796 0.07654
 C2084 C 0.50850 0.71223 0.12079
 C2085 C 0.49170 0.70268 0.12338
 C2086 C 0.48576 0.68926 0.11157
 C2087 C 0.49763 0.68556 0.09650
 C2088 C 0.51501 0.69531 0.09349
 C2089 C 0.52037 0.70892 0.10587
 O2090 O 0.51208 0.72380 0.13397
 C2091 C 0.49720 0.72154 0.14516
 C2092 C 0.48425 0.70884 0.13929
 C2093 C 0.46799 0.70396 0.14930
 C2094 C 0.46517 0.71225 0.16615
 C2095 C 0.47860 0.72510 0.17274
 C2096 C 0.49469 0.72995 0.16183
 H2097 H 0.47259 0.68175 0.11398
 H2098 H 0.49327 0.67511 0.08722
 H2099 H 0.53363 0.71647 0.10419
 H2100 H 0.45807 0.69382 0.14450
 H2101 H 0.45286 0.70818 0.17429
 H2102 H 0.50538 0.73949 0.16643
 C2103 C 0.03229 0.70478 0.64196
 C2104 C 0.01503 0.69595 0.64444
 C2105 C 0.00724 0.68472 0.63132
 C2106 C 0.01774 0.68250 0.61507
 C2107 C 0.03566 0.69144 0.61232
 C2108 C 0.04283 0.70281 0.62606
 O2109 O 0.03758 0.71447 0.65606
 C2110 C 0.02337 0.71174 0.66782
 C2111 C 0.00916 0.70054 0.66145
 C2112 C -0.00678 0.69562 0.67189
 C2113 C -0.00798 0.70238 0.68959
 C2114 C 0.00667 0.71382 0.69652
 C2115 C 0.02247 0.71863 0.68527
 H2116 H -0.00632 0.67779 0.63356
 H2117 H 0.01200 0.67372 0.60477
 H2118 H 0.05644 0.70986 0.62463
 H2119 H -0.01777 0.68671 0.66670
 H2120 H -0.02017 0.69845 0.69795
 H2121 H 0.03401 0.72717 0.69004
 C2122 C 0.50256 0.62107 0.21114
 C2123 C 0.48711 0.62461 0.20008
 C2124 C 0.48288 0.61404 0.18518
 C2125 C 0.49499 0.59920 0.18161
 C2126 C 0.51105 0.59519 0.19286
 C2127 C 0.51478 0.60638 0.20787
 O2128 O 0.50459 0.63321 0.22409
 C2129 C 0.49014 0.64465 0.22112
 C2130 C 0.47896 0.64002 0.20663
 C2131 C 0.46367 0.65071 0.20065
 C2132 C 0.46013 0.66706 0.20970
 C2133 C 0.47184 0.67238 0.22441
 C2134 C 0.48675 0.66066 0.23039
 H2135 H 0.47078 0.61719 0.17653
 H2136 H 0.49179 0.59088 0.17004
 H2137 H 0.52693 0.60388 0.21667
 H2138 H 0.45520 0.64689 0.18907
 H2139 H 0.44881 0.67588 0.20476
 H2140 H 0.49627 0.66431 0.24131
 C2141 C 0.02907 0.61019 0.73061
 C2142 C 0.00917 0.61063 0.72951
 C2143 C -0.00125 0.59839 0.71937
 C2144 C 0.00925 0.58550 0.70952
 C2145 C 0.02979 0.58506 0.70993
 C2146 C 0.03984 0.59724 0.72108
 O2147 O 0.03618 0.62418 0.73947
 C2148 C 0.02049 0.63367 0.74390
 C2149 C 0.00359 0.62598 0.73810
 C2150 C -0.01429 0.63462 0.73947
 C2151 C -0.01474 0.65201 0.74692
 C2152 C 0.00250 0.66030 0.75293
 C2153 C 0.02028 0.65075 0.75174
 H2154 H -0.01685 0.59924 0.71839
 H2155 H 0.00142 0.57632 0.70092
 H2156 H 0.05551 0.59762 0.72111
 H2157 H -0.02731 0.62849 0.73433
 H2158 H -0.02841 0.65919 0.74759
 H2159 H 0.03376 0.65690 0.75568
 C2160 C 0.03724 0.12464 0.04264
 C2161 C 0.02325 0.12163 0.05552
 C2162 C 0.01535 0.13517 0.06619
 C2163 C 0.02254 0.15259 0.06386
 C2164 C 0.03781 0.15608 0.05135
 C2165 C 0.04501 0.14181 0.04037
 O2166 O 0.04199 0.10992 0.03336
 C2167 C 0.03081 0.09733 0.04071
 C2168 C 0.01934 0.10387 0.05450
 C2169 C 0.00659 0.09328 0.06426
 C2170 C 0.00501 0.07527 0.05920
 C2171 C 0.01575 0.06823 0.04428
 C2172 C 0.02930 0.07936 0.03521
 H2173 H 0.00406 0.13240 0.07600
 H2174 H 0.01664 0.16316 0.07238
 H2175 H 0.05640 0.14389 0.03048
 H2176 H -0.00208 0.09876 0.07519
 H2177 H -0.00520 0.06700 0.06661
 H2178 H 0.03765 0.07448 0.02379
 C2179 C 0.02790 0.63985 0.53978
 C2180 C 0.03761 0.64134 0.52358
 C2181 C 0.05164 0.65434 0.52040
 C2182 C 0.05598 0.66616 0.53454
 C2183 C 0.04637 0.66480 0.55151
 C2184 C 0.03186 0.65158 0.55400
 O2185 O 0.01615 0.62576 0.54046
 C2186 C 0.01855 0.61817 0.52438
 C2187 C 0.03152 0.62718 0.51352
 C2188 C 0.03732 0.62077 0.49669
 C2189 C 0.02975 0.60421 0.49098
 C2190 C 0.01660 0.59448 0.50207
 C2191 C 0.01064 0.60185 0.51886
 H2192 H 0.05931 0.65507 0.50764
 H2193 H 0.06710 0.67617 0.53231
 H2194 H 0.02453 0.64991 0.56685
 H2195 H 0.04782 0.62794 0.48853
 H2196 H 0.03461 0.59871 0.47819
 H2197 H 0.00113 0.59455 0.52792
 C2198 C 0.55948 0.11858 0.54317
 C2199 C 0.55048 0.11180 0.55832
 C2200 C 0.54848 0.12150 0.57420
 C2201 C 0.55570 0.13909 0.57441
 C2202 C 0.56465 0.14673 0.55885
 C2203 C 0.56687 0.13612 0.54307
 O2204 O 0.55927 0.10717 0.52936
 C2205 C 0.54987 0.09298 0.53597
 C2206 C 0.54415 0.09521 0.55362
 C2207 C 0.53345 0.08243 0.56304
 C2208 C 0.52846 0.06661 0.55392
 C2209 C 0.53430 0.06381 0.53573
 C2210 C 0.54526 0.07723 0.52667
 H2211 H 0.54130 0.11586 0.58592
 H2212 H 0.55394 0.14685 0.58667
 H2213 H 0.57341 0.14157 0.53093
 H2214 H 0.52899 0.08461 0.57690
 H2215 H 0.52023 0.05647 0.56111
 H2216 H 0.54981 0.07557 0.51276
 C2217 C 0.52202 0.62497 0.03959
 C2218 C 0.53386 0.62258 0.02480
 C2219 C 0.54683 0.63555 0.01883
 C2220 C 0.54775 0.65170 0.02854
 C2221 C 0.53580 0.65466 0.04397
 C2222 C 0.52265 0.64101 0.04949
 O2223 O 0.51087 0.61075 0.04297
 C2224 C 0.51585 0.59917 0.03002
 C2225 C 0.52987 0.60583 0.01860
 C2226 C 0.53744 0.59608 0.00423
 C2227 C 0.53030 0.57869 0.00144
 C2228 C 0.51577 0.57129 0.01294
 C2229 C 0.50843 0.58181 0.02748
 H2230 H 0.55600 0.63330 0.00714
 H2231 H 0.55788 0.66186 0.02400
 H2232 H 0.51337 0.64273 0.06120
 H2233 H 0.54851 0.60164 -0.00453
 H2234 H 0.53617 0.57103 -0.00977
 H2235 H 0.49743 0.57664 0.03656
 C2236 C 0.72989 0.12407 0.53490
 C2237 C 0.71468 0.12838 0.52388
 C2238 C 0.69875 0.11741 0.52162
 C2239 C 0.69845 0.10108 0.53096
 C2240 C 0.71402 0.09585 0.54238
 C2241 C 0.72993 0.10778 0.54449
 O2242 O 0.74374 0.13651 0.53469
 C2243 C 0.73703 0.14883 0.52322
 C2244 C 0.71930 0.14434 0.51630
 C2245 C 0.70959 0.15483 0.50382
 C2246 C 0.71847 0.17073 0.49816
 C2247 C 0.73679 0.17597 0.50500
 C2248 C 0.74618 0.16481 0.51784
 H2249 H 0.68699 0.12119 0.51281
 H2250 H 0.68601 0.09250 0.52902
 H2251 H 0.74210 0.10438 0.55296
 H2252 H 0.69566 0.15089 0.49858
 H2253 H 0.71085 0.17902 0.48849
 H2254 H 0.76012 0.16837 0.52334
 C2255 C 0.68745 0.63752 0.04474
 C2256 C 0.67394 0.64144 0.03178
 C2257 C 0.65942 0.62956 0.02696
 C2258 C 0.65879 0.61288 0.03579
 C2259 C 0.67252 0.60836 0.04926
 C2260 C 0.68700 0.62100 0.05386
 O2261 O 0.70033 0.65058 0.04689
 C2262 C 0.69479 0.66299 0.03502
 C2263 C 0.67869 0.65803 0.02550
 C2264 C 0.67053 0.66881 0.01224
 C2265 C 0.67937 0.68538 0.00855
 C2266 C 0.69616 0.69088 0.01801
 C2267 C 0.70388 0.67945 0.03156
 H2268 H 0.64901 0.63296 0.01665
 H2269 H 0.64754 0.60349 0.03210
 H2270 H 0.69778 0.61797 0.06394
 H2271 H 0.65785 0.66457 0.00493
 H2272 H 0.67312 0.69386 -0.00180
 H2273 H 0.71663 0.68314 0.03905
 C2274 C 0.21291 0.60193 0.71158
 C2275 C 0.23175 0.59951 0.70600
 C2276 C 0.24234 0.61292 0.69734
 C2277 C 0.23309 0.62951 0.69422
 C2278 C 0.21358 0.63236 0.69973
 C2279 C 0.20345 0.61829 0.70865
 O2280 O 0.20526 0.58734 0.71913
 C2281 C 0.21960 0.57540 0.71828
 C2282 C 0.23611 0.58219 0.71035
 C2283 C 0.25266 0.57187 0.70754
 C2284 C 0.25215 0.55378 0.71297
 C2285 C 0.23525 0.54633 0.72109
 C2286 C 0.21880 0.55744 0.72395
 H2287 H 0.25714 0.61063 0.69298
 H2288 H 0.24110 0.64004 0.68738
 H2289 H 0.18853 0.61987 0.71296
 H2290 H 0.26545 0.57748 0.70118
 H2291 H 0.26493 0.54557 0.71072
 H2292 H 0.20562 0.55216 0.72989
 C2293 C 0.22876 0.13234 0.21420
 C2294 C 0.22561 0.13646 0.23203
 C2295 C 0.21554 0.15177 0.23757
 C2296 C 0.20841 0.16334 0.22419
 C2297 C 0.21160 0.15964 0.20556
 C2298 C 0.22221 0.14388 0.20063
 O2299 O 0.23704 0.11628 0.21182
 C2300 C 0.23917 0.11016 0.22854
 C2301 C 0.23254 0.12212 0.24139
 C2302 C 0.23204 0.11806 0.25966
 C2303 C 0.23795 0.10075 0.26489
 C2304 C 0.24410 0.08784 0.25190
 C2305 C 0.24530 0.09284 0.23348
 H2306 H 0.21285 0.15449 0.25171
 H2307 H 0.20041 0.17520 0.22846
 H2308 H 0.22467 0.14026 0.18665
 H2309 H 0.22651 0.12760 0.26948
 H2310 H 0.23683 0.09711 0.27901
 H2311 H 0.24928 0.08312 0.22320
 C2312 C 0.74519 1.12418 0.69943
 C2313 C 0.76284 1.12201 0.69101
 C2314 C 0.76913 1.13331 0.67717
 C2315 C 0.75674 1.14744 0.67187
 C2316 C 0.73846 1.14998 0.68044
 C2317 C 0.73275 1.13811 0.69447
 O2318 O 0.74141 1.11151 0.71157
 C2319 C 0.75702 1.10108 0.71085
 C2320 C 0.77063 1.10691 0.69855
 C2321 C 0.78763 1.09739 0.69502
 C2322 C 0.79043 1.08098 0.70415
 C2323 C 0.77629 1.07438 0.71651
 C2324 C 0.75957 1.08493 0.72018
 H2325 H 0.78297 1.13122 0.67055
 H2326 H 0.76139 1.15633 0.66111
 H2327 H 0.71885 1.13941 0.70120
 H2328 H 0.79807 1.10212 0.68516
 H2329 H 0.80326 1.07311 0.70103
 H2330 H 0.74824 1.08021 0.72916
 C2331 C 0.71444 0.63855 0.20724
 C2332 C 0.71377 0.64104 0.22565
 C2333 C 0.70658 0.65665 0.23363
 C2334 C 0.69896 0.66989 0.22222
 C2335 C 0.69868 0.66727 0.20331
 C2336 C 0.70720 0.65173 0.19563
 O2337 O 0.71947 0.62192 0.20255
 C2338 C 0.72177 0.61369 0.21829
 C2339 C 0.71836 0.62478 0.23284
 C2340 C 0.71727 0.61841 0.25048
 C2341 C 0.71981 0.59985 0.25320
 C2342 C 0.72355 0.58824 0.23842
 C2343 C 0.72487 0.59529 0.22076
 H2344 H 0.70568 0.65807 0.24813
 H2345 H 0.69200 0.68160 0.22816
 H2346 H 0.70618 0.64907 0.18131
 H2347 H 0.71388 0.62729 0.26164
 H2348 H 0.71871 0.59448 0.26676
 H2349 H 0.72707 0.58655 0.20922
 C2350 C 0.54974 0.12261 0.70457
 C2351 C 0.53179 0.12521 0.69714
 C2352 C 0.52389 0.11326 0.68477
 C2353 C 0.53495 0.09801 0.67990
 C2354 C 0.55357 0.09507 0.68737
 C2355 C 0.56092 0.10765 0.69995
 O2356 O 0.55494 0.13575 0.71562
 C2357 C 0.53996 0.14697 0.71517
 C2358 C 0.52538 0.14117 0.70408
 C2359 C 0.50871 0.15126 0.70111
 C2360 C 0.50716 0.16811 0.70966
 C2361 C 0.52216 0.17453 0.72097
 C2362 C 0.53865 0.16357 0.72394
 H2363 H 0.50978 0.11564 0.67897
 H2364 H 0.52905 0.08861 0.67026
 H2365 H 0.57506 0.10599 0.70592
 H2366 H 0.49748 0.14652 0.69222
 H2367 H 0.49445 0.17628 0.70715
 H2368 H 0.55054 0.16814 0.73217
 C2369 C 1.04000 0.14867 0.20139
 C2370 C 1.02218 0.15091 0.19362
 C2371 C 1.01332 0.13750 0.18353
 C2372 C 1.02319 0.12102 0.18148
 C2373 C 1.04152 0.11827 0.18955
 C2374 C 1.04999 0.13241 0.19962
 O2375 O 1.04609 0.16323 0.21005
 C2376 C 1.03176 0.17496 0.20773
 C2377 C 1.01677 0.16802 0.19782
 C2378 C 1.00042 0.17795 0.19352
 C2379 C 0.99956 0.19587 0.19940
 C2380 C 1.01499 0.20363 0.20935
 C2381 C 1.03124 0.19283 0.21377
 H2382 H 0.99932 0.13965 0.17744
 H2383 H 1.01646 0.11040 0.17378
 H2384 H 1.06402 0.13089 0.20586
 H2385 H 0.98881 0.17220 0.18572
 H2386 H 0.98692 0.20376 0.19590
 H2387 H 1.04331 0.19828 0.22118
 C2388 C 0.22055 0.63162 0.55836
 C2389 C 0.23618 0.63361 0.56953
 C2390 C 0.24251 0.61989 0.58089
 C2391 C 0.23229 0.60352 0.58070
 C2392 C 0.21606 0.60120 0.56929
 C2393 C 0.21023 0.61557 0.55796
 O2394 O 0.21676 0.64617 0.54862
 C2395 C 0.23028 0.65765 0.55373
 C2396 C 0.24256 0.65072 0.56650
 C2397 C 0.25772 0.66065 0.57366
 C2398 C 0.26029 0.67840 0.56736
 C2399 C 0.24776 0.68581 0.55413
 C2400 C 0.23254 0.67513 0.54732
 H2401 H 0.25485 0.62172 0.58959
 H2402 H 0.23700 0.59273 0.58949
 H2403 H 0.19797 0.61439 0.54906
 H2404 H 0.26722 0.65497 0.58372
 H2405 H 0.27200 0.68631 0.57279
 H2406 H 0.22264 0.68022 0.53726
 C2407 C 0.21179 0.10153 1.03261
 C2408 C 0.23100 0.09735 1.02966
 C2409 C 0.23973 0.08199 1.03666
 C2410 C 0.22839 0.07072 1.04755
 C2411 C 0.20869 0.07486 1.05120
 C2412 C 0.20009 0.09026 1.04323
 O2413 O 0.20692 0.11764 1.02615
 C2414 C 0.22342 0.12376 1.01910
 C2415 C 0.23857 0.11183 1.02096
 C2416 C 0.25754 0.11611 1.01627
 C2417 C 0.26110 0.13345 1.00954
 C2418 C 0.24578 0.14602 1.00743
 C2419 C 0.22659 0.14099 1.01200
 H2420 H 0.25496 0.07922 1.03448
 H2421 H 0.23516 0.05911 1.05379
 H2422 H 0.18531 0.09408 1.04638
 H2423 H 0.26928 0.10664 1.01832
 H2424 H 0.27584 0.13723 1.00625
 H2425 H 0.21475 0.15056 1.01108
 C2426 C 0.21564 0.71403 0.64782
 C2427 C 0.23528 0.71544 0.65037
 C2428 C 0.24499 0.70613 0.66384
 C2429 C 0.23410 0.69467 0.67495
 C2430 C 0.21386 0.69275 0.67251
 C2431 C 0.20442 0.70291 0.65899
 O2432 O 0.20963 0.72255 0.63310
 C2433 C 0.22583 0.72941 0.62621
 C2434 C 0.24192 0.72546 0.63631
 C2435 C 0.26062 0.72969 0.63072
 C2436 C 0.26289 0.73798 0.61384
 C2437 C 0.24661 0.74195 0.60300
 C2438 C 0.22776 0.73799 0.60949
 H2439 H 0.26052 0.70713 0.66530
 H2440 H 0.24152 0.68690 0.68518
 H2441 H 0.18912 0.70127 0.65645
 H2442 H 0.27307 0.72603 0.63871
 H2443 H 0.27739 0.74074 0.60892
 H2444 H 0.21516 0.74020 0.60119
 C2445 C 0.21398 0.19101 1.11378
 C2446 C 0.22623 0.17687 1.10992
 C2447 C 0.23029 0.16325 1.12213
 C2448 C 0.22168 0.16437 1.13924
 C2449 C 0.20916 0.17898 1.14395
 C2450 C 0.20497 0.19230 1.13071
 O2451 O 0.21283 0.20292 1.10041
 C2452 C 0.22468 0.19612 1.08790
 C2453 C 0.23320 0.18019 1.09312
 C2454 C 0.24661 0.17101 1.08251
 C2455 C 0.25150 0.17852 1.06577
 C2456 C 0.24300 0.19499 1.05991
 C2457 C 0.22927 0.20385 1.07119
 H2458 H 0.24010 0.15232 1.11875
 H2459 H 0.22514 0.15388 1.14888
 H2460 H 0.19573 0.20377 1.13368
 H2461 H 0.25320 0.15855 1.08701
 H2462 H 0.26191 0.17140 1.05739
 H2463 H 0.22256 0.21644 1.06722
 C2464 C 0.69656 0.55000 0.12585
 C2465 C 0.71193 0.56104 0.12961
 C2466 C 0.71748 0.57518 0.11845
 C2467 C 0.70674 0.57811 0.10275
 C2468 C 0.69084 0.56688 0.09839
 C2469 C 0.68578 0.55252 0.11014
 O2470 O 0.69335 0.53776 0.13864
 C2471 C 0.70702 0.54117 0.15067
 C2472 C 0.71880 0.55524 0.14571
 C2473 C 0.73379 0.56138 0.15640
 C2474 C 0.73669 0.55281 0.17302
 C2475 C 0.72458 0.53840 0.17875
 C2476 C 0.70961 0.53243 0.16722
 H2477 H 0.72955 0.58377 0.12179
 H2478 H 0.71093 0.58910 0.09396
 H2479 H 0.67363 0.54382 0.10733
 H2480 H 0.74280 0.57254 0.15221
 H2481 H 0.74815 0.55772 0.18155
 H2482 H 0.69997 0.52163 0.17116
 C2483 C 0.75352 1.04929 0.61264
 C2484 C 0.76260 1.03312 0.60897
 C2485 C 0.76197 1.02491 0.59214
 C2486 C 0.75111 1.03345 0.57869
 C2487 C 0.74142 1.04995 0.58223
 C2488 C 0.74305 1.05823 0.59929
 O2489 O 0.75386 1.05365 0.62999
 C2490 C 0.76325 1.03993 0.63745
 C2491 C 0.76896 1.02702 0.62516
 C2492 C 0.77716 1.01063 0.63024
 C2493 C 0.77938 1.00734 0.64874
 C2494 C 0.77344 1.02037 0.66158
 C2495 C 0.76553 1.03699 0.65591
 H2496 H 0.76870 1.01192 0.58973
 H2497 H 0.74949 1.02685 0.56577
 H2498 H 0.73498 1.07037 0.60252
 H2499 H 0.78101 1.00047 0.62036
 H2500 H 0.78510 0.99446 0.65312
 H2501 H 0.76028 1.04681 0.66560
 C2502 C 0.54408 0.20879 0.61745
 C2503 C 0.54736 0.22704 0.61685
 C2504 C 0.55583 0.23556 0.60211
 C2505 C 0.56140 0.22480 0.58742
 C2506 C 0.55854 0.20585 0.58779
 C2507 C 0.54942 0.19783 0.60296
 O2508 O 0.53711 0.20323 0.63323
 C2509 C 0.53607 0.21830 0.64284
 C2510 C 0.54221 0.23323 0.63340
 C2511 C 0.54391 0.25014 0.64121
 C2512 C 0.53939 0.25169 0.65958
 C2513 C 0.53314 0.23649 0.66964
 C2514 C 0.53108 0.21961 0.66108
 H2515 H 0.55851 0.24992 0.60209
 H2516 H 0.56834 0.23121 0.57598
 H2517 H 0.54732 0.18340 0.60386
 H2518 H 0.54914 0.26161 0.63359
 H2519 H 0.54106 0.26465 0.66607
 H2520 H 0.52685 0.20773 0.66861
 C2521 C 1.04136 0.23732 0.09782
 C2522 C 1.02147 0.23717 0.09898
 C2523 C 1.00993 0.22729 0.08749
 C2524 C 1.01922 0.21652 0.07466
 C2525 C 1.03975 0.21612 0.07312
 C2526 C 1.05098 0.22743 0.08432
 O2527 O 1.04952 0.24522 0.11194
 C2528 C 1.03443 0.25001 0.12218
 C2529 C 1.01698 0.24548 0.11466
 C2530 C 0.99941 0.24720 0.12368
 C2531 C 0.99975 0.25363 0.14135
 C2532 C 1.01750 0.25807 0.14972
 C2533 C 1.03510 0.25666 0.13983
 H2534 H 0.99435 0.22693 0.08912
 H2535 H 1.01033 0.20809 0.06618
 H2536 H 1.06665 0.22685 0.08405
 H2537 H 0.98596 0.24310 0.11757
 H2538 H 0.98617 0.25473 0.14867
 H2539 H 1.04887 0.25951 0.14604
 C2540 C 0.64947 0.20177 0.69729
 C2541 C 0.64602 0.19091 0.71197
 C2542 C 0.65846 0.17711 0.71711
 C2543 C 0.67519 0.17432 0.70666
 C2544 C 0.67918 0.18524 0.69133
 C2545 C 0.66605 0.19922 0.68666
 O2546 O 0.63568 0.21405 0.69474
 C2547 C 0.62325 0.21082 0.70813
 C2548 C 0.62896 0.19678 0.71900
 C2549 C 0.61815 0.19091 0.73368
 C2550 C 0.60068 0.19984 0.73735
 C2551 C 0.59427 0.21444 0.72641
 C2552 C 0.60587 0.22002 0.71156
 H2553 H 0.65537 0.16875 0.72874
 H2554 H 0.68497 0.16357 0.71052
 H2555 H 0.66857 0.20781 0.67507
 H2556 H 0.62296 0.17979 0.74199
 H2557 H 0.59217 0.19530 0.74879
 H2558 H 0.60145 0.23101 0.70289
 C2559 C 1.13945 0.22567 0.18666
 C2560 C 1.14185 0.23307 0.20349
 C2561 C 1.15802 0.22975 0.21402
 C2562 C 1.17221 0.21806 0.20710
 C2563 C 1.17011 0.21001 0.18989
 C2564 C 1.15364 0.21418 0.17934
 O2565 O 1.12223 0.22946 0.17961
 C2566 C 1.11360 0.23939 0.19231
 C2567 C 1.12509 0.24196 0.20716
 C2568 C 1.11861 0.25064 0.22267
 C2569 C 1.09942 0.25676 0.22303
 C2570 C 1.08717 0.25428 0.20802
 C2571 C 1.09441 0.24572 0.19226
 H2572 H 1.15937 0.23549 0.22736
 H2573 H 1.18465 0.21494 0.21534
 H2574 H 1.15141 0.20783 0.16639
 H2575 H 1.12782 0.25216 0.23430
 H2576 H 1.09393 0.26316 0.23518
 H2577 H 1.08514 0.24323 0.18084
 C2578 C 0.12634 0.70966 0.56461
 C2579 C 0.13120 0.72056 0.57882
 C2580 C 0.11894 0.72381 0.59337
 C2581 C 0.10086 0.71542 0.59336
 C2582 C 0.09532 0.70403 0.57889
 C2583 C 0.10834 0.70116 0.56427
 O2584 O 0.14013 0.70866 0.55203
 C2585 C 0.15395 0.71921 0.55850
 C2586 C 0.14911 0.72677 0.57485
 C2587 C 0.16108 0.73856 0.58395
 C2588 C 0.17874 0.74295 0.57578
 C2589 C 0.18421 0.73546 0.55883
 C2590 C 0.17163 0.72324 0.55015
 H2591 H 0.12314 0.73253 0.60435
 H2592 H 0.09120 0.71786 0.60467
 H2593 H 0.10462 0.69259 0.55302
 H2594 H 0.15686 0.74438 0.59678
 H2595 H 0.18808 0.75232 0.58267
 H2596 H 0.17525 0.71742 0.53716
 C2597 C 0.12438 0.20275 1.02973
 C2598 C 0.12576 0.19268 1.01420
 C2599 C 0.11040 0.18321 1.00706
 C2600 C 0.09290 0.18371 1.01655
 C2601 C 0.09106 0.19354 1.03291
 C2602 C 0.10692 0.20357 1.03942
 O2603 O 0.14110 0.21022 1.03431
 C2604 C 0.15319 0.20463 1.02140
 C2605 C 0.14442 0.19382 1.00888
 C2606 C 0.15423 0.18589 0.99457
 C2607 C 0.17399 0.18941 0.99287
 C2608 C 0.18356 0.20077 1.00536
 C2609 C 0.17294 0.20845 1.01993
 H2610 H 0.11195 0.17538 0.99482
 H2611 H 0.08085 0.17609 1.01132
 H2612 H 0.10598 0.21096 1.05198
 H2613 H 0.14694 0.17728 0.98503
 H2614 H 0.18170 0.18342 0.98160
 H2615 H 0.17977 0.21710 1.02972
 C2616 C 0.59725 0.55416 0.21859
 C2617 C 0.59638 0.53616 0.22301
 C2618 C 0.57972 0.52594 0.22131
 C2619 C 0.56341 0.53441 0.21406
 C2620 C 0.56402 0.55273 0.20868
 C2621 C 0.58100 0.56295 0.21147
 O2622 O 0.61500 0.56091 0.22002
 C2623 C 0.62552 0.54680 0.22527
 C2624 C 0.61475 0.53134 0.22712
 C2625 C 0.62290 0.51461 0.23081
 C2626 C 0.64299 0.51375 0.23285
 C2627 C 0.65446 0.52948 0.23145
 C2628 C 0.64561 0.54633 0.22777
 H2629 H 0.57954 0.51173 0.22461
 H2630 H 0.55059 0.52643 0.21166
 H2631 H 0.58205 0.57674 0.20677
 H2632 H 0.61414 0.50259 0.23176
 H2633 H 0.64965 0.50084 0.23578
 H2634 H 0.65414 0.55847 0.22639
 C2635 C 0.64516 1.04557 0.69457
 C2636 C 0.65269 1.06019 0.70340
 C2637 C 0.64206 1.07573 0.70697
 C2638 C 0.62286 1.07632 0.70105
 C2639 C 0.61470 1.06151 0.69170
 C2640 C 0.62610 1.04588 0.68847
 O2641 O 0.65761 1.03194 0.69304
 C2642 C 0.67334 1.03812 0.70109
 C2643 C 0.67105 1.05537 0.70759
 C2644 C 0.68541 1.06437 0.71688
 C2645 C 0.70275 1.05510 0.71994
 C2646 C 0.70545 1.03712 0.71375
 C2647 C 0.69060 1.02864 0.70388
 H2648 H 0.64831 1.08699 0.71408
 H2649 H 0.61447 1.08841 0.70363
 H2650 H 0.62036 1.03430 0.68147
 H2651 H 0.68322 1.07794 0.72187
 H2652 H 0.71399 1.06189 0.72740
 H2653 H 0.69211 1.01489 0.69916
 C2654 C 0.86478 0.46435 0.29022
 C2655 C 0.85676 0.47115 0.30583
 C2656 C 0.86676 0.47225 0.32192
 C2657 C 0.88593 0.46613 0.32201
 C2658 C 0.89480 0.45900 0.30617
 C2659 C 0.88393 0.45800 0.29002
 O2660 O 0.85275 0.46517 0.27629
 C2661 C 0.83686 0.47267 0.28334
 C2662 C 0.83868 0.47651 0.30138
 C2663 C 0.82426 0.48488 0.31147
 C2664 C 0.80726 0.48976 0.30259
 C2665 C 0.80486 0.48624 0.28390
 C2666 C 0.81984 0.47728 0.27417
 H2667 H 0.86009 0.47779 0.33397
 H2668 H 0.89382 0.46695 0.33454
 H2669 H 0.89026 0.45278 0.27768
 H2670 H 0.82613 0.48781 0.32564
 H2671 H 0.79600 0.49645 0.31033
 H2672 H 0.81854 0.47453 0.25990
 C2673 C 0.89319 0.94752 0.79745
 C2674 C 0.89098 0.93566 0.78339
 C2675 C 0.90347 0.92128 0.78030
 C2676 C 0.91881 0.91892 0.79231
 C2677 C 0.92139 0.93084 0.80711
 C2678 C 0.90839 0.94546 0.80958
 O2679 O 0.87961 0.96022 0.79797
 C2680 C 0.86861 0.95623 0.78394
 C2681 C 0.87494 0.94131 0.77460
 C2682 C 0.86553 0.93467 0.75954
 C2683 C 0.84894 0.94387 0.75376
 C2684 C 0.84212 0.95943 0.76306
 C2685 C 0.85216 0.96560 0.77845
 H2686 H 0.90142 0.91214 0.76912
 H2687 H 0.92857 0.90767 0.79008
 H2688 H 0.90984 0.95477 0.82071
 H2689 H 0.87079 0.92284 0.75247
 H2690 H 0.84149 0.93887 0.74201
 H2691 H 0.84740 0.97737 0.78590
 C2692 C 0.38801 0.28477 0.79150
 C2693 C 0.39366 0.30029 0.78282
 C2694 C 0.38127 0.31485 0.78026
 C2695 C 0.36222 0.31326 0.78671
 C2696 C 0.35586 0.29730 0.79555
 C2697 C 0.36913 0.28294 0.79818
 O2698 O 0.40182 0.27226 0.79182
 C2699 C 0.41644 0.28006 0.78311
 C2700 C 0.41219 0.29723 0.77734
 C2701 C 0.42514 0.30757 0.76732
 C2702 C 0.44318 0.29986 0.76297
 C2703 C 0.44792 0.28210 0.76865
 C2704 C 0.43432 0.27218 0.77905
 H2705 H 0.38601 0.32688 0.77328
 H2706 H 0.35238 0.32445 0.78460
 H2707 H 0.36475 0.27050 0.80464
 H2708 H 0.42139 0.32100 0.76280
 H2709 H 0.45336 0.30771 0.75509
 H2710 H 0.43732 0.25854 0.78345
 C2711 C 0.88232 0.31776 0.28120
 C2712 C 0.88722 0.33301 0.27167
 C2713 C 0.87554 0.34826 0.27116
 C2714 C 0.85791 0.34766 0.28059
 C2715 C 0.85221 0.33195 0.29025
 C2716 C 0.86484 0.31688 0.29076
 O2717 O 0.89526 0.30459 0.27947
 C2718 C 0.90853 0.31169 0.26855
 C2719 C 0.90427 0.32903 0.26335
 C2720 C 0.91585 0.33877 0.25145
 C2721 C 0.93259 0.33030 0.24468
 C2722 C 0.93742 0.31244 0.24995
 C2723 C 0.92516 0.30307 0.26212
 H2724 H 0.87969 0.36008 0.26352
 H2725 H 0.84855 0.35939 0.28004
 H2726 H 0.86092 0.30462 0.29781
 H2727 H 0.91210 0.35237 0.24747
 H2728 H 0.94188 0.33774 0.23552
 H2729 H 0.92832 0.28940 0.26632
 C2730 C 0.38727 0.78863 0.46918
 C2731 C 0.38806 0.79576 0.48625
 C2732 C 0.40327 0.80629 0.49222
 C2733 C 0.41831 0.80978 0.48000
 C2734 C 0.41793 0.80267 0.46226
 C2735 C 0.40228 0.79171 0.45683
 O2736 O 0.37088 0.77986 0.46606
 C2737 C 0.36117 0.78156 0.48153
 C2738 C 0.37118 0.79115 0.49426
 C2739 C 0.36365 0.79534 0.51111
 C2740 C 0.34488 0.78958 0.51502
 C2741 C 0.33396 0.77986 0.50213
 C2742 C 0.34237 0.77554 0.48518
 H2743 H 0.40338 0.81190 0.50568
 H2744 H 0.43021 0.81811 0.48437
 H2745 H 0.40148 0.78636 0.44328
 H2746 H 0.37183 0.80303 0.52081
 H2747 H 0.33882 0.79287 0.52813
 H2748 H 0.33434 0.76833 0.47502
 C2749 C 0.39355 0.27276 0.95771
 C2750 C 0.39508 0.25592 0.95008
 C2751 C 0.41001 0.25112 0.93833
 C2752 C 0.42377 0.26432 0.93407
 C2753 C 0.42231 0.28190 0.94155
 C2754 C 0.40715 0.28598 0.95384
 O2755 O 0.37751 0.27504 0.96738
 C2756 C 0.36866 0.25933 0.96577
 C2757 C 0.37883 0.24715 0.95535
 C2758 C 0.37160 0.23034 0.95083
 C2759 C 0.35300 0.22601 0.95707
 C2760 C 0.34205 0.23848 0.96759
 C2761 C 0.35023 0.25526 0.97225
 H2762 H 0.41072 0.23787 0.93226
 H2763 H 0.43529 0.26095 0.92465
 H2764 H 0.40538 0.29933 0.95954
 H2765 H 0.37976 0.22109 0.94240
 H2766 H 0.34701 0.21307 0.95340
 H2767 H 0.34215 0.26521 0.97993
 C2768 C 0.77299 0.46853 0.37515
 C2769 C 0.75560 0.45978 0.37345
 C2770 C 0.74974 0.44614 0.38510
 C2771 C 0.76235 0.44128 0.39905
 C2772 C 0.78047 0.45003 0.40106
 C2773 C 0.78571 0.46397 0.38893
 O2774 O 0.77618 0.48056 0.36222
 C2775 C 0.76048 0.47934 0.35211
 C2776 C 0.74743 0.46684 0.35840
 C2777 C 0.73043 0.46279 0.34939
 C2778 C 0.72690 0.47178 0.33308
 C2779 C 0.74029 0.48457 0.32612
 C2780 C 0.75717 0.48858 0.33604
 H2781 H 0.73606 0.43932 0.38339
 H2782 H 0.75802 0.43059 0.40814
 H2783 H 0.79947 0.47082 0.38990
 H2784 H 0.72047 0.45277 0.35451
 H2785 H 0.71394 0.46846 0.32571
 H2786 H 0.76783 0.49804 0.33108
 C2787 C 0.79418 0.95919 0.86665
 C2788 C 0.77894 0.94876 0.86119
 C2789 C 0.77013 0.93606 0.87231
 C2790 C 0.77739 0.93394 0.88979
 C2791 C 0.79315 0.94450 0.89584
 C2792 C 0.80157 0.95739 0.88403
 O2793 O 0.80057 0.97032 0.85388
 C2794 C 0.78908 0.96681 0.84005
 C2795 C 0.77560 0.95374 0.84389
 C2796 C 0.76215 0.94787 0.83146
 C2797 C 0.76251 0.95584 0.81434
 C2798 C 0.77621 0.96945 0.80987
 C2799 C 0.78977 0.97493 0.82301
 H2800 H 0.75814 0.92801 0.86765
 H2801 H 0.77071 0.92406 0.89857
 H2802 H 0.81368 0.96561 0.88811
 H2803 H 0.75176 0.93750 0.83480
 H2804 H 0.75209 0.95125 0.80455
 H2805 H 0.80044 0.98520 0.82010
 C2806 C 0.28451 0.79017 0.39634
 C2807 C 0.26485 0.78730 0.39671
 C2808 C 0.25269 0.79258 0.38284
 C2809 C 0.26104 0.80150 0.36809
 C2810 C 0.28122 0.80492 0.36740
 C2811 C 0.29321 0.79879 0.38157
 O2812 O 0.29309 0.78553 0.41167
 C2813 C 0.27851 0.77969 0.42191
 C2814 C 0.26095 0.78051 0.41332
 C2815 C 0.24351 0.77663 0.42190
 C2816 C 0.24412 0.77197 0.44018
 C2817 C 0.26196 0.77114 0.44947
 C2818 C 0.27948 0.77471 0.44010
 H2819 H 0.23721 0.79049 0.38364
 H2820 H 0.25170 0.80620 0.35739
 H2821 H 0.30855 0.80172 0.38165
 H2822 H 0.22986 0.77775 0.41493
 H2823 H 0.23062 0.76937 0.44724
 H2824 H 0.29322 0.77471 0.44703
 C2825 C 0.30392 0.25587 0.86085
 C2826 C 0.28494 0.25060 0.85911
 C2827 C 0.27451 0.25299 0.84338
 C2828 C 0.28373 0.26181 0.82905
 C2829 C 0.30298 0.26818 0.83069
 C2830 C 0.31348 0.26458 0.84662
 O2831 O 0.31059 0.25361 0.87747
 C2832 C 0.29544 0.24697 0.88638
 C2833 C 0.27936 0.24501 0.87574
 C2834 C 0.26135 0.24007 0.88258
 C2835 C 0.25984 0.23693 0.90116
 C2836 C 0.27624 0.23851 0.91236
 C2837 C 0.29437 0.24341 0.90487
 H2838 H 0.25952 0.24894 0.84245
 H2839 H 0.27551 0.26454 0.81696
 H2840 H 0.32794 0.26980 0.84846
 H2841 H 0.24881 0.23910 0.87399
 H2842 H 0.24594 0.23319 0.90687
 H2843 H 0.30697 0.24507 0.91329
 C2844 C 0.47629 0.28779 0.87062
 C2845 C 0.49170 0.29886 0.86695
 C2846 C 0.49691 0.31308 0.87811
 C2847 C 0.48580 0.31595 0.89380
 C2848 C 0.46999 0.30453 0.89804
 C2849 C 0.46522 0.29026 0.88618
 O2850 O 0.47356 0.27527 0.85811
 C2851 C 0.48764 0.27846 0.84628
 C2852 C 0.49918 0.29270 0.85115
 C2853 C 0.51482 0.29838 0.84084
 C2854 C 0.51869 0.28908 0.82480
 C2855 C 0.50689 0.27444 0.81922
 C2856 C 0.49109 0.26908 0.83021
 H2857 H 0.50907 0.32167 0.87485
 H2858 H 0.48965 0.32691 0.90268
 H2859 H 0.45314 0.28138 0.88889
 H2860 H 0.52366 0.30964 0.84493
 H2861 H 0.53073 0.29363 0.81657
 H2862 H 0.48176 0.25808 0.82635
 C2863 C 0.97149 0.31808 0.35151
 C2864 C 0.98577 0.33030 0.34742
 C2865 C 0.99118 0.34391 0.35920
 C2866 C 0.98149 0.34498 0.37589
 C2867 C 0.96671 0.33250 0.38054
 C2868 C 0.96173 0.31884 0.36805
 O2869 O 0.96843 0.30630 0.33836
 C2870 C 0.98108 0.31117 0.32571
 C2871 C 0.99206 0.32575 0.33060
 C2872 C 1.00620 0.33308 0.31940
 C2873 C 1.00915 0.32506 0.30246
 C2874 C 0.99798 0.31000 0.29696
 C2875 C 0.98370 0.30302 0.30887
 H2876 H 1.00244 0.35341 0.35566
 H2877 H 0.98556 0.35554 0.38517
 H2878 H 0.95051 0.30911 0.37104
 H2879 H 1.01465 0.34459 0.32353
 H2880 H 1.02006 0.33075 0.29359
 H2881 H 0.97486 0.29160 0.30517
 C2882 C 0.47536 0.36853 0.78902
 C2883 C 0.49116 0.36661 0.80002
 C2884 C 0.49379 0.37719 0.81528
 C2885 C 0.47956 0.39023 0.81931
 C2886 C 0.46302 0.39233 0.80821
 C2887 C 0.46107 0.38129 0.79278
 O2888 O 0.47508 0.35675 0.77561
 C2889 C 0.49102 0.34713 0.77819
 C2890 C 0.50143 0.35254 0.79293
 C2891 C 0.51805 0.34354 0.79857
 C2892 C 0.52391 0.32816 0.78881
 C2893 C 0.51315 0.32215 0.77372
 C2894 C 0.49667 0.33212 0.76823
 H2895 H 0.50623 0.37536 0.82387
 H2896 H 0.48136 0.39849 0.83121
 H2897 H 0.44865 0.38236 0.78403
 H2898 H 0.52589 0.34785 0.81037
 H2899 H 0.53640 0.32064 0.79338
 H2900 H 0.48778 0.32780 0.75709
 C2901 C 0.97253 0.39980 0.27425
 C2902 C 0.96819 0.40211 0.25634
 C2903 C 0.95487 0.41490 0.25037
 C2904 C 0.94585 0.42592 0.26339
 C2905 C 0.95049 0.42407 0.28187
 C2906 C 0.96407 0.41082 0.28732
 O2907 O 0.98424 0.38590 0.27729
 C2908 C 0.98744 0.37928 0.26092
 C2909 C 0.97811 0.38885 0.24762
 C2910 C 0.97850 0.38371 0.22964
 C2911 C 0.98819 0.36765 0.22528
 C2912 C 0.99703 0.35696 0.23887
 C2913 C 0.99725 0.36323 0.25687
 H2914 H 0.95135 0.41617 0.23623
 H2915 H 0.93548 0.43600 0.25908
 H2916 H 0.96759 0.40886 0.30139
 H2917 H 0.97092 0.39136 0.21945
 H2918 H 0.98782 0.36301 0.21145
 H2919 H 1.00329 0.35512 0.26761
 C2920 C 0.29769 0.88130 0.47714
 C2921 C 0.28772 0.87268 0.46371
 C2922 C 0.28533 0.87982 0.44659
 C2923 C 0.29296 0.89690 0.44324
 C2924 C 0.30268 0.90658 0.45694
 C2925 C 0.30556 0.89846 0.47405
 O2926 O 0.29755 0.87215 0.49262
 C2927 C 0.28715 0.85757 0.48881
 C2928 C 0.28074 0.85746 0.47131
 C2929 C 0.26884 0.84419 0.46446
 C2930 C 0.26349 0.83018 0.47601
 C2931 C 0.27016 0.82949 0.49410
 C2932 C 0.28224 0.84346 0.50060
 H2933 H 0.27738 0.87271 0.43631
 H2934 H 0.29069 0.90288 0.43009
 H2935 H 0.31257 0.90568 0.48485
 H2936 H 0.26385 0.84459 0.45067
 H2937 H 0.25453 0.81957 0.47059
 H2938 H 0.28758 0.84332 0.51428
 C2939 C 0.30188 0.34934 0.95658
 C2940 C 0.28296 0.35036 0.96245
 C2941 C 0.27184 0.36595 0.96110
 C2942 C 0.28036 0.38101 0.95293
 C2943 C 0.29966 0.38033 0.94633
 C2944 C 0.31076 0.36435 0.94848
 O2945 O 0.30930 0.33279 0.95805
 C2946 C 0.29469 0.32321 0.96489
 C2947 C 0.27825 0.33339 0.96771
 C2948 C 0.26075 0.32600 0.97330
 C2949 C 0.26009 0.30734 0.97610
 C2950 C 0.27680 0.29647 0.97355
 C2951 C 0.29448 0.30454 0.96806
 H2952 H 0.25688 0.36629 0.96553
 H2953 H 0.27166 0.39304 0.95101
 H2954 H 0.32526 0.36328 0.94293
 H2955 H 0.24792 0.33426 0.97504
 H2956 H 0.24652 0.30128 0.98023
 H2957 H 0.30732 0.29645 0.96563
 C2958 C 0.78039 0.38682 0.28223
 C2959 C 0.76169 0.38597 0.28863
 C2960 C 0.75480 0.37149 0.29869
 C2961 C 0.76778 0.35735 0.30236
 C2962 C 0.78723 0.35799 0.29600
 C2963 C 0.79347 0.37296 0.28565
 O2964 O 0.78430 0.40201 0.27353
 C2965 C 0.76770 0.41101 0.27448
 C2966 C 0.75339 0.40180 0.28357
 C2967 C 0.73510 0.40907 0.28673
 C2968 C 0.73151 0.42660 0.28044
 C2969 C 0.74613 0.43647 0.27117
 C2970 C 0.76443 0.42837 0.26801
 H2971 H 0.74006 0.37119 0.30372
 H2972 H 0.76271 0.34606 0.31032
 H2973 H 0.80820 0.37404 0.28070
 H2974 H 0.72411 0.40163 0.29404
 H2975 H 0.71742 0.43254 0.28302
 H2976 H 0.77601 0.43556 0.26126
   
