data_POSCAR
  _audit_creation_date              2014-09-24
  _audit_creation_method            'ToBaCCo'
  _symmetry_space_group_name_H-M    'P1'
  _symmetry_Int_Tables_number       1
  _symmetry_cell_setting            triclinic
  loop_
  _symmetry_equiv_pos_as_xyz
 x,y,z
_cell_length_a 58.5546
_cell_length_b 57.4198
_cell_length_c 53.4348
_cell_angle_alpha 90.597800
_cell_angle_beta 90.761700
_cell_angle_gamma 88.869400
loop_
  _atom_site_label
  _atom_site_type_symbol
  _atom_site_fract_x
  _atom_site_fract_y
  _atom_site_fract_z
N1 N 0.37992 0.31411 0.34161
 N2 N 0.38187 0.33265 0.32757
 C3 C 0.39891 0.32901 0.31123
 C4 C 0.40787 0.30702 0.31535
 C5 C 0.39563 0.29790 0.33472
 H6 H 0.40404 0.34121 0.29718
 H7 H 0.39773 0.28085 0.34296
 Cu8 Cu 0.36149 0.35955 0.33134
 Cu9 Cu 0.35679 0.31274 0.36741
 Cu10 Cu 0.30935 0.34708 0.35245
 N11 N 0.33621 0.38176 0.32878
 N12 N 0.31561 0.37654 0.33626
 C13 C 0.30086 0.39380 0.32979
 C14 C 0.31312 0.41068 0.31794
 C15 C 0.33542 0.40266 0.31756
 H16 H 0.28262 0.39371 0.33278
 H17 H 0.34966 0.41072 0.30858
 N18 N 0.30857 0.32112 0.37645
 N19 N 0.32694 0.30869 0.38285
 C20 C 0.32148 0.29345 0.40067
 C21 C 0.29854 0.29654 0.40553
 C22 C 0.29076 0.31408 0.39002
 H23 H 0.33328 0.28121 0.40943
 H24 H 0.27369 0.32157 0.38920
 H25 H 0.33695 0.32691 0.34033
 H26 H 0.34120 0.34640 0.36812
 N27 N 0.36171 0.79750 -0.17124
 N28 N 0.36056 0.81057 -0.19134
 C29 C 0.38000 0.80781 -0.20431
 C30 C 0.39369 0.79179 -0.19188
 C31 C 0.38190 0.78582 -0.17081
 H32 H 0.38462 0.81819 -0.22019
 H33 H 0.38823 0.77534 -0.15541
 Cu34 Cu 0.33587 0.83313 -0.19610
 Cu35 Cu 0.33811 0.79877 -0.14574
 Cu36 Cu 0.29384 0.83917 -0.15469
 N37 N 0.31738 0.86152 -0.19429
 N38 N 0.30103 0.86405 -0.17776
 C39 C 0.29266 0.88608 -0.17855
 C40 C 0.30438 0.89762 -0.19671
 C41 C 0.32012 0.88183 -0.20615
 H42 H 0.28032 0.89348 -0.16568
 H43 H 0.33366 0.88529 -0.21910
 N44 N 0.29500 0.81733 -0.12650
 N45 N 0.31231 0.80262 -0.12248
 C46 C 0.30845 0.79066 -0.10143
 C47 C 0.28775 0.79830 -0.09207
 C48 C 0.27954 0.81503 -0.10828
 H49 H 0.31943 0.77701 -0.09391
 H50 H 0.26357 0.82471 -0.10696
 H51 H 0.31195 0.81004 -0.16854
 H52 H 0.32819 0.83308 -0.15168
 N53 N 0.87026 0.31521 -0.17749
 N54 N 0.87112 0.33171 -0.19437
 C55 C 0.88859 0.32707 -0.20991
 C56 C 0.89917 0.30673 -0.20212
 C57 C 0.88721 0.29945 -0.18160
 H58 H 0.89298 0.33743 -0.22586
 H59 H 0.89010 0.28369 -0.17101
 Cu60 Cu 0.84870 0.35716 -0.19528
 Cu61 Cu 0.84596 0.31480 -0.15291
 Cu62 Cu 0.82250 0.36965 -0.14102
 N63 N 0.83096 0.38582 -0.19063
 N64 N 0.82087 0.39075 -0.16930
 C65 C 0.81240 0.41272 -0.16998
 C66 C 0.81719 0.42168 -0.19310
 C67 C 0.82928 0.40448 -0.20566
 H68 H 0.80506 0.42200 -0.15421
 H69 H 0.83790 0.40611 -0.22331
 N70 N 0.81899 0.34306 -0.11838
 N71 N 0.82745 0.32201 -0.12328
 C72 C 0.82078 0.30727 -0.10548
 C73 C 0.80755 0.31982 -0.08872
 C74 C 0.80665 0.34234 -0.09729
 H75 H 0.82473 0.28879 -0.10513
 H76 H 0.79697 0.35682 -0.08941
 H77 H 0.82282 0.34134 -0.16443
 H78 H 0.85108 0.34924 -0.15054
 N79 N 0.86356 0.82077 0.33651
 N80 N 0.86226 0.83651 0.31878
 C81 C 0.87996 0.83343 0.30319
 C82 C 0.89303 0.81496 0.31186
 C83 C 0.88227 0.80713 0.33295
 H84 H 0.88278 0.84345 0.28652
 H85 H 0.88700 0.79210 0.34404
 Cu86 Cu 0.83711 0.85900 0.31715
 Cu87 Cu 0.83930 0.81775 0.36089
 Cu88 Cu 0.80276 0.86573 0.36681
 N89 N 0.81835 0.88690 0.32182
 N90 N 0.80508 0.88963 0.34137
 C91 C 0.79585 0.91132 0.34128
 C92 C 0.80364 0.92240 0.32040
 C93 C 0.81819 0.90678 0.30866
 H94 H 0.78562 0.91890 0.35609
 H95 H 0.82904 0.91012 0.29291
 N96 N 0.80306 0.83946 0.39035
 N97 N 0.81694 0.82112 0.38806
 C98 C 0.81239 0.80578 0.40617
 C99 C 0.79486 0.81510 0.42032
 C100 C 0.78926 0.83631 0.40998
 H101 H 0.82073 0.78896 0.40847
 H102 H 0.77574 0.84816 0.41583
 H103 H 0.81259 0.83751 0.34534
 H104 H 0.83591 0.85325 0.36205
 N105 N 0.61152 0.66993 0.34967
 N106 N 0.60935 0.65214 0.33411
 C107 C 0.59315 0.65728 0.31681
 C108 C 0.58497 0.67945 0.32188
 C109 C 0.59683 0.68712 0.34279
 H110 H 0.58845 0.64616 0.30118
 H111 H 0.59550 0.70405 0.35179
 Cu112 Cu 0.62924 0.62468 0.33656
 Cu113 Cu 0.63442 0.66960 0.37655
 Cu114 Cu 0.68147 0.63589 0.35986
 N115 N 0.65442 0.60244 0.33292
 N116 N 0.67495 0.60726 0.34160
 C117 C 0.68984 0.59065 0.33392
 C118 C 0.67784 0.57457 0.31990
 C119 C 0.65543 0.58242 0.31953
 H120 H 0.70811 0.59091 0.33718
 H121 H 0.64139 0.57515 0.30890
 N122 N 0.68262 0.66055 0.38579
 N123 N 0.66439 0.67263 0.39306
 C124 C 0.67032 0.68713 0.41191
 C125 C 0.69343 0.68390 0.41642
 C126 C 0.70079 0.66709 0.39970
 H127 H 0.65883 0.69925 0.42126
 H128 H 0.71793 0.65994 0.39806
 H129 H 0.65395 0.65669 0.34880
 H130 H 0.64980 0.63584 0.37484
 N131 N 0.63022 0.18818 -0.17642
 N132 N 0.63058 0.17212 -0.19418
 C133 C 0.61321 0.17622 -0.21041
 C134 C 0.60141 0.19572 -0.20210
 C135 C 0.61255 0.20308 -0.18059
 H136 H 0.60971 0.16608 -0.22715
 H137 H 0.60865 0.21840 -0.16938
 Cu138 Cu 0.65434 0.14798 -0.19517
 Cu139 Cu 0.65402 0.18944 -0.15070
 Cu140 Cu 0.68004 0.13569 -0.14005
 N141 N 0.67352 0.12028 -0.19081
 N142 N 0.68339 0.11541 -0.16916
 C143 C 0.69284 0.09386 -0.17031
 C144 C 0.68894 0.08511 -0.19405
 C145 C 0.67636 0.10199 -0.20652
 H146 H 0.70013 0.08458 -0.15451
 H147 H 0.66806 0.10023 -0.22464
 N148 N 0.68191 0.16202 -0.11618
 N149 N 0.67242 0.18268 -0.12058
 C150 C 0.67854 0.19761 -0.10223
 C151 C 0.69252 0.18561 -0.08563
 C152 C 0.69443 0.16320 -0.09486
 H153 H 0.67405 0.21596 -0.10165
 H154 H 0.70518 0.14928 -0.08751
 H155 H 0.67871 0.16439 -0.16222
 H156 H 0.65065 0.15470 -0.15023
 N157 N 0.11544 0.67856 -0.15753
 N158 N 0.11641 0.66529 -0.17777
 C159 C 0.10224 0.67413 -0.19543
 C160 C 0.09177 0.69370 -0.18554
 C161 C 0.10030 0.69620 -0.16146
 H162 H 0.09984 0.66703 -0.21408
 H163 H 0.09632 0.70994 -0.14812
 Cu164 Cu 0.13623 0.63785 -0.17911
 Cu165 Cu 0.13463 0.67208 -0.12810
 Cu166 Cu 0.17955 0.63273 -0.13859
 N167 N 0.15530 0.60979 -0.17848
 N168 N 0.17222 0.60771 -0.16214
 C169 C 0.18439 0.58814 -0.16723
 C170 C 0.17438 0.57754 -0.18782
 C171 C 0.15612 0.59165 -0.19465
 H172 H 0.20025 0.58308 -0.15800
 H173 H 0.14534 0.58968 -0.21109
 N174 N 0.17894 0.65466 -0.11007
 N175 N 0.16155 0.66910 -0.10556
 C176 C 0.16677 0.68254 -0.08553
 C177 C 0.18840 0.67603 -0.07730
 C178 C 0.19569 0.65848 -0.09312
 H179 H 0.15630 0.69684 -0.07854
 H180 H 0.21228 0.64986 -0.09293
 H181 H 0.16000 0.66137 -0.15144
 H182 H 0.14571 0.63756 -0.13451
 N183 N 0.12616 0.18075 0.32431
 N184 N 0.12653 0.16594 0.30534
 C185 C 0.11007 0.17200 0.28869
 C186 C 0.09890 0.19148 0.29794
 C187 C 0.10942 0.19680 0.32049
 H188 H 0.10694 0.16339 0.27092
 H189 H 0.10591 0.21163 0.33258
 Cu190 Cu 0.14962 0.14127 0.30329
 Cu191 Cu 0.14923 0.17943 0.35084
 Cu192 Cu 0.17465 0.12465 0.35729
 N193 N 0.17039 0.11455 0.30471
 N194 N 0.17949 0.10747 0.32604
 C195 C 0.19233 0.08810 0.32186
 C196 C 0.19125 0.08327 0.29651
 C197 C 0.17740 0.10027 0.28609
 H198 H 0.20214 0.07880 0.33599
 H199 H 0.17280 0.10208 0.26653
 N200 N 0.17613 0.14913 0.38353
 N201 N 0.16694 0.17017 0.38067
 C202 C 0.17332 0.18385 0.40001
 C203 C 0.18720 0.17070 0.41568
 C204 C 0.18872 0.14884 0.40485
 H205 H 0.16936 0.20226 0.40174
 H206 H 0.19954 0.13445 0.41095
 H207 H 0.17369 0.15496 0.33773
 H208 H 0.14542 0.14479 0.34860
 N209 N 0.62355 0.33749 0.66970
 N210 N 0.62567 0.35023 0.69021
 C211 C 0.60973 0.34409 0.70668
 C212 C 0.59687 0.32691 0.69566
 C213 C 0.60588 0.32302 0.67219
 H214 H 0.60802 0.35110 0.72544
 H215 H 0.60078 0.31002 0.65853
 Cu216 Cu 0.64959 0.37306 0.69385
 Cu217 Cu 0.64515 0.33970 0.64230
 Cu218 Cu 0.69661 0.36452 0.66010
 N219 N 0.67455 0.39487 0.69570
 N220 N 0.69328 0.39111 0.68279
 C221 C 0.70849 0.40769 0.68854
 C222 C 0.69844 0.42262 0.70575
 C223 C 0.67700 0.41417 0.70996
 H224 H 0.72543 0.40871 0.68085
 H225 H 0.66440 0.42124 0.72272
 N226 N 0.69316 0.34442 0.63031
 N227 N 0.67342 0.33574 0.62288
 C228 C 0.67670 0.32282 0.60197
 C229 C 0.69959 0.32369 0.59621
 C230 C 0.70958 0.33737 0.61439
 H231 H 0.66371 0.31287 0.59236
 H232 H 0.72746 0.34152 0.61614
 H233 H 0.66938 0.34306 0.66925
 H234 H 0.66335 0.37004 0.65095
 N235 N 0.63501 0.82610 1.18715
 N236 N 0.64100 0.83592 1.20857
 C237 C 0.62617 0.82990 1.22637
 C238 C 0.61017 0.81573 1.21527
 C239 C 0.61612 0.81357 1.19046
 H240 H 0.62702 0.83533 1.24580
 H241 H 0.60778 0.80319 1.17616
 Cu242 Cu 0.66740 0.85585 1.21129
 Cu243 Cu 0.65333 0.82831 1.15720
 Cu244 Cu 0.69841 0.86611 1.16030
 N245 N 0.68701 0.88276 1.20934
 N246 N 0.69820 0.88734 1.18882
 C247 C 0.71006 0.90699 1.19229
 C248 C 0.70606 0.91487 1.21633
 C249 C 0.69155 0.89920 1.22681
 H250 H 0.72121 0.91450 1.17870
 H251 H 0.68482 0.89970 1.24556
 N252 N 0.69190 0.84677 1.13062
 N253 N 0.67436 0.83266 1.12919
 C254 C 0.67592 0.81983 1.10798
 C255 C 0.69533 0.82637 1.09571
 C256 C 0.70511 0.84335 1.11043
 H257 H 0.66508 0.80542 1.10305
 H258 H 0.72150 0.85120 1.10765
 H259 H 0.68367 0.83617 1.17452
 H260 H 0.66436 0.86137 1.16637
 N261 N 0.12672 0.32820 1.15495
 N262 N 0.12721 0.34521 1.17166
 C263 C 0.11173 0.34130 1.18944
 C264 C 0.10114 0.32079 1.18340
 C265 C 0.11080 0.31282 1.16141
 H266 H 0.10865 0.35237 1.20560
 H267 H 0.10689 0.29703 1.15114
 Cu268 Cu 0.14832 0.37070 1.16899
 Cu269 Cu 0.14762 0.32719 1.12682
 Cu270 Cu 0.19775 0.35548 1.14190
 N271 N 0.17458 0.39067 1.17119
 N272 N 0.19412 0.38436 1.16101
 C273 C 0.21024 0.39961 1.16791
 C274 C 0.20006 0.41638 1.18287
 C275 C 0.17746 0.41032 1.18476
 H276 H 0.22817 0.39793 1.16346
 H277 H 0.16462 0.41849 1.19649
 N278 N 0.19559 0.33139 1.11541
 N279 N 0.17620 0.32150 1.10875
 C280 C 0.18002 0.30668 1.08948
 C281 C 0.20296 0.30740 1.08407
 C282 C 0.21241 0.32305 1.10068
 H283 H 0.16727 0.29588 1.08059
 H284 H 0.23008 0.32813 1.10179
 H285 H 0.16995 0.33685 1.15363
 H286 H 0.16512 0.35917 1.12890
 N287 N 0.13499 0.81731 0.67353
 N288 N 0.13967 0.83259 0.69132
 C289 C 0.12364 0.83168 0.70912
 C290 C 0.10821 0.81508 0.70180
 C291 C 0.11574 0.80620 0.67923
 H292 H 0.12344 0.84198 0.72618
 H293 H 0.10834 0.79221 0.66833
 Cu294 Cu 0.16654 0.85185 0.68998
 Cu295 Cu 0.15557 0.81133 0.64588
 Cu296 Cu 0.19834 0.85113 0.63811
 N297 N 0.18735 0.87680 0.68276
 N298 N 0.19974 0.87660 0.66236
 C299 C 0.21371 0.89497 0.66297
 C300 C 0.20956 0.90725 0.68477
 C301 C 0.19282 0.89540 0.69700
 H302 H 0.22650 0.89856 0.64919
 H303 H 0.18590 0.89940 0.71525
 N304 N 0.19154 0.82653 0.61321
 N305 N 0.17542 0.81106 0.61644
 C306 C 0.17630 0.79519 0.59770
 C307 C 0.19360 0.80119 0.58203
 C308 C 0.20301 0.82104 0.59220
 H309 H 0.16591 0.77987 0.59619
 H310 H 0.21788 0.82990 0.58563
 H311 H 0.18531 0.82533 0.65983
 H312 H 0.16429 0.84588 0.64500
 N313 N 0.35931 0.68009 0.67416
 N314 N 0.35294 0.67169 0.69576
 C315 C 0.36668 0.67984 0.71412
 C316 C 0.38256 0.69374 0.70324
 C317 C 0.37766 0.69354 0.67788
 H318 H 0.36594 0.67505 0.73360
 H319 H 0.38683 0.70216 0.66329
 Cu320 Cu 0.32925 0.64865 0.69770
 Cu321 Cu 0.34353 0.67239 0.64291
 Cu322 Cu 0.29467 0.63988 0.64839
 N323 N 0.31096 0.62084 0.69473
 N324 N 0.29759 0.61718 0.67514
 C325 C 0.28619 0.59729 0.67832
 C326 C 0.29302 0.58821 0.70111
 C327 C 0.30855 0.60348 0.71117
 H328 H 0.27336 0.59056 0.66557
 H329 H 0.31695 0.60241 0.72928
 N330 N 0.30106 0.65825 0.61861
 N331 N 0.31999 0.67014 0.61615
 C332 C 0.31852 0.68243 0.59480
 C333 C 0.29769 0.67784 0.58356
 C334 C 0.28701 0.66258 0.59901
 H335 H 0.33077 0.69508 0.58899
 H336 H 0.26980 0.65627 0.59694
 H337 H 0.31340 0.66886 0.66134
 H338 H 0.32869 0.64110 0.65266
 N339 N 0.38539 0.16389 1.16402
 N340 N 0.38087 0.15043 1.18306
 C341 C 0.39430 0.15625 1.20273
 C342 C 0.40796 0.17410 1.19531
 C343 C 0.40210 0.17858 1.17070
 H344 H 0.39391 0.14833 1.22099
 H345 H 0.40879 0.19194 1.15887
 Cu346 Cu 0.35772 0.12671 1.18019
 Cu347 Cu 0.36777 0.16248 1.13285
 Cu348 Cu 0.31359 0.14123 1.14268
 N349 N 0.33037 0.10819 1.17886
 N350 N 0.31268 0.11445 1.16483
 C351 C 0.29533 0.09996 1.16893
 C352 C 0.30293 0.08360 1.18594
 C353 C 0.32516 0.08918 1.19201
 H354 H 0.27858 0.10129 1.16024
 H355 H 0.33631 0.08065 1.20551
 N356 N 0.32104 0.16139 1.11430
 N357 N 0.34195 0.16841 1.10983
 C358 C 0.34165 0.18158 1.08911
 C359 C 0.31947 0.18284 1.08034
 C360 C 0.30674 0.16995 1.09656
 H361 H 0.35622 0.19038 1.08171
 H362 H 0.28851 0.16730 1.09571
 H363 H 0.34157 0.15927 1.15646
 H364 H 0.34685 0.13303 1.13636
 N365 N 0.87368 0.67958 1.17200
 N366 N 0.87265 0.66359 1.18943
 C367 C 0.88866 0.66769 1.20716
 C368 C 0.90033 0.68712 1.20020
 C369 C 0.89061 0.69433 1.17783
 H370 H 0.89120 0.65768 1.22404
 H371 H 0.89478 0.70958 1.16722
 Cu372 Cu 0.84997 0.63932 1.18781
 Cu373 Cu 0.85142 0.68102 1.14443
 Cu374 Cu 0.80039 0.65687 1.16201
 N375 N 0.82300 0.62025 1.18946
 N376 N 0.80340 0.62765 1.17980
 C377 C 0.78703 0.61240 1.18496
 C378 C 0.79709 0.59443 1.19813
 C379 C 0.81991 0.59975 1.20089
 H380 H 0.76919 0.61440 1.17975
 H381 H 0.83295 0.59001 1.21104
 N382 N 0.80263 0.67975 1.13505
 N383 N 0.82219 0.68802 1.12728
 C384 C 0.81812 0.70173 1.10731
 C385 C 0.79486 0.70187 1.10267
 C386 C 0.78552 0.68794 1.12040
 H387 H 0.83099 0.71086 1.09715
 H388 H 0.76772 0.68359 1.12208
 H389 H 0.83001 0.67412 1.17219
 H390 H 0.83204 0.65050 1.14804
 N391 N 0.87104 0.16854 0.66415
 N392 N 0.86834 0.15443 0.68312
 C393 C 0.88492 0.15813 0.70033
 C394 C 0.89877 0.17517 0.69136
 C395 C 0.88967 0.18149 0.66839
 H396 H 0.88633 0.14963 0.71827
 H397 H 0.89529 0.19527 0.65641
 Cu398 Cu 0.84294 0.13308 0.68389
 Cu399 Cu 0.84865 0.17063 0.63680
 Cu400 Cu 0.79541 0.15211 0.65483
 N401 N 0.81451 0.11628 0.68621
 N402 N 0.79584 0.12409 0.67486
 C403 C 0.77840 0.11002 0.67980
 C404 C 0.78676 0.09245 0.69481
 C405 C 0.80970 0.09673 0.69870
 H406 H 0.76107 0.11237 0.67288
 H407 H 0.82180 0.08659 0.70975
 N408 N 0.79989 0.17317 0.62668
 N409 N 0.82019 0.17952 0.61899
 C410 C 0.81745 0.19342 0.59893
 C411 C 0.79428 0.19556 0.59405
 C412 C 0.78363 0.18266 0.61177
 H413 H 0.83112 0.20163 0.58910
 H414 H 0.76546 0.18036 0.61367
 H415 H 0.82618 0.16783 0.66458
 H416 H 0.82686 0.14236 0.64262
 N417 N 0.31577 0.37620 0.67042
 N418 N 0.33384 0.37972 0.68475
 C419 C 0.33086 0.39983 0.69764
 C420 C 0.30992 0.40926 0.69075
 C421 C 0.30065 0.39390 0.67357
 H422 H 0.34227 0.40627 0.71208
 H423 H 0.28362 0.39461 0.66549
 Cu424 Cu 0.35800 0.35618 0.68784
 Cu425 Cu 0.31162 0.34716 0.65221
 Cu426 Cu 0.36092 0.31359 0.64377
 N427 N 0.38507 0.33655 0.68388
 N428 N 0.38658 0.32055 0.66612
 C429 C 0.40652 0.30864 0.66884
 C430 C 0.41786 0.31785 0.68938
 C431 C 0.40388 0.33535 0.69860
 H432 H 0.41150 0.29338 0.65805
 H433 H 0.40664 0.34550 0.71549
 N434 N 0.33265 0.30912 0.62382
 N435 N 0.31371 0.32143 0.62785
 C436 C 0.29695 0.31355 0.61271
 C437 C 0.30583 0.29551 0.59864
 C438 C 0.32846 0.29297 0.60589
 H439 H 0.27963 0.32041 0.61195
 H440 H 0.34068 0.28014 0.59904
 H441 H 0.33632 0.32462 0.66796
 H442 H 0.34599 0.34672 0.64526
 N443 N 0.33703 0.87783 0.16411
 N444 N 0.35685 0.88642 0.17099
 C445 C 0.35339 0.90682 0.18318
 C446 C 0.33016 0.91088 0.18412
 C447 C 0.32014 0.89224 0.17202
 H448 H 0.36662 0.91715 0.19185
 H449 H 0.30208 0.88911 0.16966
 Cu450 Cu 0.38495 0.86858 0.16643
 Cu451 Cu 0.33464 0.84799 0.14658
 Cu452 Cu 0.38572 0.82271 0.12732
 N453 N 0.40899 0.84482 0.16845
 N454 N 0.40939 0.82676 0.15305
 C455 C 0.42654 0.81208 0.15992
 C456 C 0.43720 0.82164 0.18074
 C457 C 0.42578 0.84231 0.18572
 H458 H 0.42999 0.79522 0.15143
 H459 H 0.42851 0.85389 0.20153
 N460 N 0.35608 0.81422 0.11258
 N461 N 0.33653 0.82305 0.12086
 C462 C 0.31919 0.81338 0.10790
 C463 C 0.32848 0.79789 0.09074
 C464 C 0.35182 0.79878 0.09400
 H465 H 0.30128 0.81765 0.11036
 H466 H 0.36467 0.78888 0.08389
 H467 H 0.36568 0.83237 0.15602
 H468 H 0.36489 0.85335 0.12958
 N469 N 0.83222 0.38917 0.16383
 N470 N 0.85167 0.39685 0.17303
 C471 C 0.84776 0.41647 0.18641
 C472 C 0.82462 0.42104 0.18564
 C473 C 0.81508 0.40348 0.17133
 H474 H 0.86055 0.42587 0.19700
 H475 H 0.79715 0.40089 0.16732
 Cu476 Cu 0.87970 0.37882 0.16957
 Cu477 Cu 0.83059 0.36030 0.14435
 Cu478 Cu 0.88278 0.33651 0.12628
 N479 N 0.90335 0.35476 0.17114
 N480 N 0.90499 0.33843 0.15374
 C481 C 0.92214 0.32351 0.15986
 C482 C 0.93134 0.33098 0.18240
 C483 C 0.91918 0.35074 0.18915
 H484 H 0.92666 0.30786 0.14947
 H485 H 0.92107 0.36089 0.20619
 N486 N 0.85391 0.32877 0.10944
 N487 N 0.83388 0.33682 0.11722
 C488 C 0.81724 0.32726 0.10307
 C489 C 0.82754 0.31265 0.08572
 C490 C 0.85069 0.31397 0.09005
 H491 H 0.79915 0.33086 0.10502
 H492 H 0.86411 0.30457 0.08028
 H493 H 0.86102 0.34375 0.15429
 H494 H 0.86168 0.36685 0.13006
 N495 N 0.83033 0.88711 0.66628
 N496 N 0.84983 0.89508 0.67501
 C497 C 0.84600 0.91539 0.68725
 C498 C 0.82288 0.92019 0.68602
 C499 C 0.81331 0.90197 0.67273
 H500 H 0.85878 0.92506 0.69755
 H501 H 0.79535 0.89913 0.66915
 Cu502 Cu 0.87771 0.87653 0.67252
 Cu503 Cu 0.82819 0.85680 0.64971
 Cu504 Cu 0.87987 0.83078 0.63324
 N505 N 0.90160 0.85277 0.67545
 N506 N 0.90291 0.83508 0.65962
 C507 C 0.92042 0.82086 0.66654
 C508 C 0.93022 0.83027 0.68793
 C509 C 0.91796 0.85037 0.69320
 H510 H 0.92470 0.80437 0.65764
 H511 H 0.92012 0.86182 0.70923
 N512 N 0.85057 0.82198 0.61777
 N513 N 0.83078 0.83106 0.62503
 C514 C 0.81380 0.82095 0.61190
 C515 C 0.82357 0.80487 0.59571
 C516 C 0.84681 0.80593 0.59968
 H517 H 0.79584 0.82539 0.61348
 H518 H 0.85995 0.79578 0.59029
 H519 H 0.85859 0.84059 0.66080
 H520 H 0.85925 0.86154 0.63441
 N521 N 0.66953 0.61813 0.67408
 N522 N 0.65061 0.60941 0.68277
 C523 C 0.65569 0.58972 0.69536
 C524 C 0.67899 0.58613 0.69439
 C525 C 0.68739 0.60442 0.68092
 H526 H 0.64355 0.57944 0.70532
 H527 H 0.70509 0.60794 0.67712
 Cu528 Cu 0.62161 0.62597 0.67875
 Cu529 Cu 0.66968 0.64763 0.65630
 Cu530 Cu 0.61649 0.66738 0.63531
 N531 N 0.59569 0.64763 0.67831
 N532 N 0.59311 0.66325 0.66058
 C533 C 0.57441 0.67655 0.66531
 C534 C 0.56516 0.66886 0.68733
 C535 C 0.57904 0.65068 0.69523
 H536 H 0.56921 0.69181 0.65482
 H537 H 0.57792 0.64128 0.71260
 N538 N 0.64529 0.67778 0.62096
 N539 N 0.66554 0.67122 0.62992
 C540 C 0.68190 0.68184 0.61701
 C541 C 0.67124 0.69565 0.59922
 C542 C 0.64813 0.69269 0.60198
 H543 H 0.70009 0.67909 0.61974
 H544 H 0.63446 0.70067 0.59106
 H545 H 0.63789 0.66229 0.66470
 H546 H 0.63955 0.63888 0.64032
 N547 N 0.68087 0.12331 0.16834
 N548 N 0.66266 0.11851 0.18137
 C549 C 0.66659 0.09876 0.19424
 C550 C 0.68840 0.09098 0.18901
 C551 C 0.69719 0.10692 0.17267
 H552 H 0.65521 0.09160 0.20782
 H553 H 0.71443 0.10736 0.16568
 Cu554 Cu 0.63735 0.14074 0.18384
 Cu555 Cu 0.68276 0.15209 0.14934
 Cu556 Cu 0.62997 0.17878 0.13735
 N557 N 0.61292 0.16406 0.18457
 N558 N 0.60972 0.17879 0.16607
 C559 C 0.59178 0.19302 0.17130
 C560 C 0.58377 0.18683 0.19444
 C561 C 0.59740 0.16854 0.20244
 H562 H 0.58556 0.20705 0.15953
 H563 H 0.59629 0.15943 0.21997
 N564 N 0.65724 0.18437 0.11724
 N565 N 0.67759 0.17523 0.12269
 C566 C 0.69304 0.18376 0.10691
 C567 C 0.68164 0.19882 0.09087
 C568 C 0.65907 0.19884 0.09770
 H569 H 0.71106 0.17927 0.10699
 H570 H 0.64520 0.20908 0.08962
 H571 H 0.65551 0.17275 0.16253
 H572 H 0.64946 0.14776 0.14105
 N573 N 0.17287 0.62378 0.18871
 N574 N 0.15396 0.61823 0.20010
 C575 C 0.15746 0.59822 0.21263
 C576 C 0.17979 0.59118 0.20901
 C577 C 0.18928 0.60770 0.19392
 H578 H 0.14495 0.58980 0.22398
 H579 H 0.20663 0.60805 0.18725
 Cu580 Cu 0.12709 0.63856 0.19885
 Cu581 Cu 0.17459 0.65171 0.16832
 Cu582 Cu 0.12198 0.67654 0.15210
 N583 N 0.10380 0.66316 0.19927
 N584 N 0.10129 0.67759 0.18040
 C585 C 0.08383 0.69257 0.18507
 C586 C 0.07536 0.68723 0.20825
 C587 C 0.08827 0.66860 0.21687
 H588 H 0.07830 0.70661 0.17294
 H589 H 0.08665 0.65984 0.23456
 N590 N 0.14990 0.68188 0.13322
 N591 N 0.17018 0.67355 0.14024
 C592 C 0.18605 0.68132 0.12450
 C593 C 0.17498 0.69507 0.10690
 C594 C 0.15218 0.69507 0.11275
 H595 H 0.20409 0.67697 0.12548
 H596 H 0.13838 0.70422 0.10314
 H597 H 0.14580 0.67104 0.17903
 H598 H 0.14201 0.64584 0.15717
 N599 N 0.17749 0.11121 0.67597
 N600 N 0.15929 0.10745 0.68944
 C601 C 0.16284 0.08807 0.70311
 C602 C 0.18443 0.07951 0.69786
 C603 C 0.19341 0.09456 0.68073
 H604 H 0.15119 0.08143 0.71672
 H605 H 0.21042 0.09397 0.67305
 Cu606 Cu 0.13420 0.13018 0.68990
 Cu607 Cu 0.17979 0.13863 0.65493
 Cu608 Cu 0.12716 0.16443 0.64003
 N609 N 0.10880 0.15240 0.68774
 N610 N 0.10580 0.16563 0.66792
 C611 C 0.08734 0.17968 0.67134
 C612 C 0.07875 0.17500 0.69469
 C613 C 0.09267 0.15780 0.70468
 H614 H 0.08132 0.19285 0.65837
 H615 H 0.09147 0.15023 0.72305
 N616 N 0.15491 0.16876 0.62002
 N617 N 0.17510 0.15981 0.62650
 C618 C 0.19090 0.16703 0.61039
 C619 C 0.17998 0.18109 0.59302
 C620 C 0.15727 0.18191 0.59946
 H621 H 0.20888 0.16238 0.61122
 H622 H 0.14366 0.19178 0.59037
 H623 H 0.15243 0.16047 0.66595
 H624 H 0.14652 0.13392 0.64675
 N625 N 0.34466 0.60563 0.32968
 N626 N 0.35643 0.60860 0.30917
 C627 C 0.34927 0.59352 0.29139
 C628 C 0.33241 0.58035 0.30161
 C629 C 0.32984 0.58827 0.32590
 H630 H 0.35525 0.59281 0.27233
 H631 H 0.31724 0.58295 0.33920
 Cu632 Cu 0.37926 0.63262 0.30741
 Cu633 Cu 0.34728 0.62688 0.35827
 Cu634 Cu 0.36751 0.68065 0.34110
 N635 N 0.39897 0.65938 0.30654
 N636 N 0.39406 0.67845 0.31945
 C637 C 0.40962 0.69472 0.31464
 C638 C 0.42509 0.68500 0.29807
 C639 C 0.41798 0.66267 0.29321
 H640 H 0.40960 0.71215 0.32251
 H641 H 0.42575 0.65001 0.28067
 N642 N 0.34797 0.67625 0.37037
 N643 N 0.34180 0.65549 0.37800
 C644 C 0.32903 0.65802 0.39866
 C645 C 0.32696 0.68147 0.40391
 C646 C 0.33907 0.69268 0.38577
 H647 H 0.32075 0.64402 0.40817
 H648 H 0.34097 0.71125 0.38371
 H649 H 0.34878 0.65130 0.33143
 H650 H 0.37563 0.64756 0.35026
 N651 N 0.34165 0.11565 0.82206
 N652 N 0.35250 0.12055 0.80141
 C653 C 0.34630 0.10551 0.78316
 C654 C 0.33096 0.09044 0.79319
 C655 C 0.32834 0.09713 0.81787
 H656 H 0.35226 0.10565 0.76409
 H657 H 0.31718 0.08965 0.83148
 Cu658 Cu 0.37378 0.14605 0.80061
 Cu659 Cu 0.34489 0.13436 0.85240
 Cu660 Cu 0.37027 0.18785 0.84457
 N661 N 0.39705 0.16958 0.80399
 N662 N 0.39584 0.18598 0.82138
 C663 C 0.41314 0.20084 0.81840
 C664 C 0.42568 0.19301 0.79814
 C665 C 0.41507 0.17336 0.78932
 H666 H 0.41564 0.21660 0.82926
 H667 H 0.41958 0.16318 0.77291
 N668 N 0.34990 0.18132 0.87266
 N669 N 0.34122 0.16054 0.87619
 C670 C 0.32714 0.16161 0.89590
 C671 C 0.32697 0.18409 0.90499
 C672 C 0.34151 0.19629 0.89001
 H673 H 0.31659 0.14756 0.90201
 H674 H 0.34490 0.21473 0.89093
 H675 H 0.34713 0.16325 0.83051
 H676 H 0.37444 0.15332 0.84575
 N677 N 0.82670 0.64280 0.82488
 N678 N 0.83906 0.64730 0.80518
 C679 C 0.83550 0.63089 0.78743
 C680 C 0.82025 0.61538 0.79677
 C681 C 0.81487 0.62327 0.82049
 H682 H 0.84337 0.63030 0.76924
 H683 H 0.80298 0.61572 0.83327
 Cu684 Cu 0.85897 0.67383 0.80450
 Cu685 Cu 0.82586 0.66342 0.85400
 Cu686 Cu 0.86530 0.70747 0.85576
 N687 N 0.88532 0.69340 0.80930
 N688 N 0.88824 0.70611 0.82970
 C689 C 0.90746 0.71845 0.82762
 C690 C 0.91681 0.71293 0.80467
 C691 C 0.90249 0.69715 0.79346
 H692 H 0.91355 0.73108 0.84117
 H693 H 0.90411 0.68945 0.77499
 N694 N 0.84323 0.70283 0.88269
 N695 N 0.82777 0.68636 0.88160
 C696 C 0.81315 0.68946 0.90063
 C697 C 0.82007 0.70857 0.91438
 C698 C 0.83913 0.71666 0.90274
 H699 H 0.79800 0.67942 0.90351
 H700 H 0.84821 0.73237 0.90743
 H701 H 0.83702 0.69327 0.83759
 H702 H 0.85957 0.67274 0.84986
 N703 N 0.83066 0.14339 0.32197
 N704 N 0.84362 0.14636 0.30238
 C705 C 0.84000 0.12910 0.28563
 C706 C 0.82404 0.11466 0.29548
 C707 C 0.81831 0.12406 0.31849
 H708 H 0.84814 0.12734 0.26764
 H709 H 0.80576 0.11773 0.33129
 Cu710 Cu 0.86396 0.17246 0.30034
 Cu711 Cu 0.82965 0.16576 0.34957
 Cu712 Cu 0.86966 0.20938 0.34900
 N713 N 0.89047 0.19193 0.30421
 N714 N 0.89315 0.20604 0.32356
 C715 C 0.91244 0.21814 0.32069
 C716 C 0.92209 0.21094 0.29837
 C717 C 0.90784 0.19448 0.28833
 H718 H 0.91830 0.23181 0.33313
 H719 H 0.90956 0.18563 0.27046
 N720 N 0.84701 0.20662 0.37584
 N721 N 0.83143 0.19025 0.37559
 C722 C 0.81677 0.19433 0.39440
 C723 C 0.82373 0.21399 0.40713
 C724 C 0.84291 0.22140 0.39514
 H725 H 0.80170 0.18436 0.39798
 H726 H 0.85228 0.23706 0.39923
 H727 H 0.84161 0.19438 0.33137
 H728 H 0.86363 0.17450 0.34572
 N729 N 0.66866 0.38084 0.31733
 N730 N 0.64817 0.38740 0.30939
 C731 C 0.64963 0.40771 0.29709
 C732 C 0.67230 0.41378 0.29733
 C733 C 0.68399 0.39643 0.31013
 H734 H 0.63551 0.41684 0.28806
 H735 H 0.70218 0.39514 0.31380
 Cu736 Cu 0.62221 0.36753 0.31431
 Cu737 Cu 0.67412 0.35223 0.33576
 Cu738 Cu 0.62572 0.32654 0.35851
 N739 N 0.60074 0.34218 0.31501
 N740 N 0.60164 0.32644 0.33278
 C741 C 0.58537 0.31059 0.32836
 C742 C 0.57403 0.31683 0.30654
 C743 C 0.58409 0.33681 0.29845
 H744 H 0.58287 0.29517 0.33938
 H745 H 0.58016 0.34627 0.28148
 N746 N 0.65631 0.32109 0.37323
 N747 N 0.67485 0.32990 0.36348
 C748 C 0.69327 0.32273 0.37682
 C749 C 0.68583 0.30893 0.39578
 C750 C 0.66236 0.30809 0.39320
 H751 H 0.71066 0.32775 0.37347
 H752 H 0.65065 0.29879 0.40478
 H753 H 0.64461 0.33379 0.32872
 H754 H 0.64354 0.35775 0.35252
 N755 N 0.67647 0.86394 0.80918
 N756 N 0.66149 0.86121 0.79088
 C757 C 0.66356 0.87857 0.77432
 C758 C 0.68063 0.89278 0.78307
 C759 C 0.68858 0.88314 0.80513
 H760 H 0.65358 0.88056 0.75727
 H761 H 0.70242 0.88923 0.81694
 Cu762 Cu 0.64111 0.83500 0.79038
 Cu763 Cu 0.68041 0.84133 0.83561
 Cu764 Cu 0.63429 0.80545 0.84409
 N765 N 0.61493 0.81572 0.79562
 N766 N 0.61183 0.80464 0.81673
 C767 C 0.59237 0.79252 0.81486
 C768 C 0.58308 0.79652 0.79136
 C769 C 0.59767 0.81115 0.77959
 H770 H 0.58592 0.78122 0.82909
 H771 H 0.59604 0.81766 0.76072
 N772 N 0.65933 0.80871 0.86908
 N773 N 0.67703 0.82214 0.86534
 C774 C 0.69217 0.81951 0.88426
 C775 C 0.68357 0.80378 0.90060
 C776 C 0.66278 0.79705 0.89068
 H777 H 0.70860 0.82772 0.88558
 H778 H 0.65172 0.78391 0.89788
 H779 H 0.66174 0.81266 0.82275
 H780 H 0.64552 0.83832 0.83554
 N781 N 0.16888 0.37016 0.82190
 N782 N 0.14922 0.37584 0.81116
 C783 C 0.15123 0.39628 0.79931
 C784 C 0.17333 0.40354 0.80292
 C785 C 0.18423 0.38663 0.81713
 H786 H 0.13798 0.40471 0.78817
 H787 H 0.20198 0.38600 0.82300
 Cu788 Cu 0.12361 0.35483 0.81197
 Cu789 Cu 0.17344 0.34108 0.83983
 Cu790 Cu 0.12343 0.31398 0.85619
 N791 N 0.10155 0.32993 0.81097
 N792 N 0.10097 0.31433 0.82883
 C793 C 0.08403 0.29935 0.82380
 C794 C 0.07384 0.30598 0.80146
 C795 C 0.08527 0.32529 0.79369
 H796 H 0.08010 0.28439 0.83499
 H797 H 0.08223 0.33499 0.77668
 N798 N 0.15282 0.30832 0.87363
 N799 N 0.17208 0.31766 0.86641
 C800 C 0.18935 0.30988 0.88118
 C801 C 0.18030 0.29503 0.89839
 C802 C 0.15720 0.29438 0.89331
 H803 H 0.20693 0.31512 0.87996
 H804 H 0.14461 0.28450 0.90305
 H805 H 0.14523 0.32162 0.82884
 H806 H 0.14117 0.34541 0.85250
 N807 N 0.17298 0.87529 0.31855
 N808 N 0.15318 0.88255 0.30928
 C809 C 0.15625 0.90201 0.29591
 C810 C 0.17920 0.90690 0.29699
 C811 C 0.18944 0.88968 0.31131
 H812 H 0.14294 0.91160 0.28600
 H813 H 0.20738 0.88771 0.31611
 Cu814 Cu 0.12566 0.86507 0.31491
 Cu815 Cu 0.17596 0.84749 0.33894
 Cu816 Cu 0.12509 0.82787 0.36275
 N817 N 0.10149 0.84257 0.31802
 N818 N 0.10077 0.82845 0.33726
 C819 C 0.08268 0.81443 0.33447
 C820 C 0.07185 0.82011 0.31216
 C821 C 0.08414 0.83785 0.30210
 H822 H 0.07864 0.80036 0.34686
 H823 H 0.08124 0.84608 0.28419
 N824 N 0.15512 0.82049 0.37810
 N825 N 0.17451 0.82679 0.36798
 C826 C 0.19214 0.81829 0.38175
 C827 C 0.18324 0.80626 0.40142
 C828 C 0.15982 0.80793 0.39878
 H829 H 0.20999 0.82115 0.37809
 H830 H 0.14721 0.80036 0.41069
 H831 H 0.14501 0.83093 0.33276
 H832 H 0.14555 0.85661 0.35439
 C833 C 0.25241 1.06025 0.26623
 C834 C 0.26963 1.06039 0.24908
 C835 C 0.27091 1.03819 0.23877
 N836 N 0.25498 1.02454 0.24887
 C837 C 0.24372 1.03798 0.26577
 C838 C 0.28616 1.03123 0.21977
 C839 C 0.28936 1.00798 0.21166
 C840 C 0.30062 1.00153 0.18997
 C841 C 0.30043 0.97758 0.18866
 C842 C 0.28925 0.97008 0.20974
 N843 N 0.28272 0.98874 0.22378
 C844 C 0.28569 0.94645 0.21557
 C845 C 0.26989 0.93915 0.23337
 C846 C 0.26726 0.91617 0.24017
 C847 C 0.24990 0.91607 0.25716
 C848 C 0.24253 0.93900 0.26013
 N849 N 0.25462 0.95307 0.24536
 C850 C 0.22393 0.94597 0.27514
 C851 C 0.21741 0.96955 0.27973
 C852 C 0.19807 0.97690 0.29259
 C853 C 0.19861 1.00083 0.29408
 C854 C 0.21830 1.00749 0.28230
 N855 N 0.22978 0.98837 0.27391
 C856 C 0.22528 1.03078 0.28044
 H857 H 0.24708 1.07486 0.27785
 H858 H 0.28013 1.07511 0.24486
 H859 H 0.24619 0.98812 0.26699
 H860 H 0.30790 1.01293 0.17632
 H861 H 0.30740 0.96701 0.17361
 H862 H 0.27675 0.90105 0.23346
 H863 H 0.24327 0.90082 0.26608
 H864 H 0.18600 1.01204 0.30300
 H865 H 0.27625 0.98831 0.24175
 H866 H 0.18495 0.96639 0.30053
 C867 C 0.22751 0.56299 0.76445
 C868 C 0.24067 0.56457 0.74353
 C869 C 0.24617 0.54196 0.73615
 N870 N 0.23650 0.52669 0.75169
 C871 C 0.22506 0.53947 0.76899
 C872 C 0.26035 0.53604 0.71571
 C873 C 0.26588 0.51301 0.70802
 C874 C 0.28238 0.50745 0.69047
 C875 C 0.28399 0.48352 0.68922
 C876 C 0.26843 0.47511 0.70603
 N877 N 0.25705 0.49319 0.71696
 C878 C 0.26568 0.45120 0.71095
 C879 C 0.25206 0.44232 0.73006
 C880 C 0.24959 0.41880 0.73456
 C881 C 0.23566 0.41725 0.75490
 C882 C 0.23019 0.43988 0.76216
 N883 N 0.24021 0.45513 0.74693
 C884 C 0.21527 0.44571 0.78183
 C885 C 0.20975 0.46876 0.78968
 C886 C 0.19385 0.47441 0.80787
 C887 C 0.19315 0.49833 0.80996
 C888 C 0.20863 0.50664 0.79300
 N889 N 0.21905 0.48852 0.78115
 C890 C 0.21202 0.53055 0.78868
 H891 H 0.22046 0.57757 0.77498
 H892 H 0.24556 0.58061 0.73482
 H893 H 0.23275 0.48958 0.76925
 H894 H 0.29265 0.51940 0.68011
 H895 H 0.29567 0.47346 0.67764
 H896 H 0.25705 0.40426 0.72427
 H897 H 0.23008 0.40129 0.76329
 H898 H 0.18216 0.50847 0.82223
 H899 H 0.24317 0.49208 0.72863
 H900 H 0.18367 0.46260 0.81849
 C901 C 0.76465 -0.05616 0.24871
 C902 C 0.78045 -0.05343 0.26768
 C903 C 0.77831 -0.03058 0.27615
 N904 N 0.76193 -0.01924 0.26259
 C905 C 0.75368 -0.03481 0.24580
 C906 C 0.79052 -0.02029 0.29643
 C907 C 0.79067 0.00403 0.30041
 C908 C 0.79834 0.01461 0.32231
 C909 C 0.79811 0.03820 0.31812
 C910 C 0.79031 0.04136 0.29379
 N911 N 0.78592 0.02044 0.28303
 C912 C 0.78946 0.06307 0.28173
 C913 C 0.77704 0.06709 0.25930
 C914 C 0.77518 0.08826 0.24710
 C915 C 0.75968 0.08533 0.22789
 C916 C 0.75252 0.06256 0.22907
 N917 N 0.76298 0.05153 0.24836
 C918 C 0.73473 0.05340 0.21424
 C919 C 0.72831 0.02974 0.21459
 C920 C 0.70951 0.02075 0.20202
 C921 C 0.70991 -0.00291 0.20607
 C922 C 0.72894 -0.00772 0.22091
 N923 N 0.74021 0.01216 0.22576
 C924 C 0.73606 -0.03028 0.22812
 H925 H 0.76206 -0.07187 0.23776
 H926 H 0.79257 -0.06671 0.27344
 H927 H 0.75630 0.01311 0.23395
 H928 H 0.80397 0.00616 0.33939
 H929 H 0.80352 0.05149 0.33131
 H930 H 0.78329 0.10448 0.25189
 H931 H 0.75376 0.09868 0.21505
 H932 H 0.69774 -0.01523 0.19863
 H933 H 0.78296 0.01731 0.26410
 H934 H 0.69699 0.03003 0.19066
 C935 C 0.77226 0.44380 0.73828
 C936 C 0.79020 0.44666 0.75481
 C937 C 0.78741 0.46862 0.76550
 N938 N 0.76854 0.47930 0.75576
 C939 C 0.75941 0.46427 0.73897
 C940 C 0.80148 0.47846 0.78446
 C941 C 0.79989 0.50215 0.79147
 C942 C 0.80970 0.51139 0.81304
 C943 C 0.80595 0.53509 0.81230
 C944 C 0.79403 0.53964 0.79028
 N945 N 0.79053 0.51949 0.77757
 C946 C 0.78870 0.56219 0.78159
 C947 C 0.77315 0.56672 0.76176
 C948 C 0.76808 0.58855 0.75212
 C949 C 0.75094 0.58557 0.73469
 C950 C 0.74596 0.56208 0.73445
 N951 N 0.75940 0.55067 0.75117
 C952 C 0.72788 0.55230 0.72049
 C953 C 0.72351 0.52804 0.71939
 C954 C 0.70488 0.51803 0.70749
 C955 C 0.70789 0.49425 0.70912
 C956 C 0.72832 0.49020 0.72190
 N957 N 0.73778 0.51089 0.72781
 C958 C 0.73888 0.46797 0.72535
 H959 H 0.76920 0.42851 0.72679
 H960 H 0.80382 0.43406 0.75797
 H961 H 0.75425 0.51304 0.73453
 H962 H 0.81888 0.50202 0.82762
 H963 H 0.81176 0.54762 0.82614
 H964 H 0.77543 0.60504 0.75738
 H965 H 0.74264 0.59926 0.72391
 H966 H 0.69661 0.48162 0.70074
 H967 H 0.78496 0.51796 0.75911
 H968 H 0.69083 0.52660 0.69778
 C969 C 0.22980 0.43059 0.25045
 C970 C 0.24686 0.42777 0.26805
 C971 C 0.25556 0.44966 0.27267
 N972 N 0.24437 0.46573 0.25863
 C973 C 0.22872 0.45411 0.24487
 C974 C 0.27360 0.45408 0.28963
 C975 C 0.28212 0.47655 0.29492
 C976 C 0.29630 0.48175 0.31512
 C977 C 0.30040 0.50521 0.31420
 C978 C 0.28844 0.51379 0.29365
 N979 N 0.27760 0.49619 0.28173
 C980 C 0.28832 0.53742 0.28661
 C981 C 0.27242 0.54756 0.26959
 C982 C 0.27035 0.57126 0.26516
 C983 C 0.25170 0.57434 0.24966
 C984 C 0.24298 0.55245 0.24510
 N985 N 0.25566 0.53611 0.25726
 C986 C 0.22353 0.54831 0.22999
 C987 C 0.21542 0.52585 0.22388
 C988 C 0.20062 0.52123 0.20407
 C989 C 0.19809 0.49748 0.20305
 C990 C 0.21132 0.48821 0.22233
 N991 N 0.22150 0.50566 0.23527
 C992 C 0.21391 0.46406 0.22665
 H993 H 0.21937 0.41684 0.24275
 H994 H 0.25225 0.41146 0.27646
 H995 H 0.23096 0.50412 0.25171
 H996 H 0.30263 0.47007 0.32948
 H997 H 0.31069 0.51494 0.32748
 H998 H 0.28064 0.58508 0.27291
 H999 H 0.24513 0.59085 0.24275
 H1000 H 0.18806 0.48805 0.18929
 H1001 H 0.26930 0.49723 0.26450
 H1002 H 0.19314 0.53354 0.19098
 C1003 C 0.73789 1.06483 0.74123
 C1004 C 0.71934 1.06186 0.75624
 C1005 C 0.72039 1.03904 0.76434
 N1006 N 0.73875 1.02791 0.75428
 C1007 C 0.74937 1.04351 0.73989
 C1008 C 0.70540 1.02872 0.78148
 C1009 C 0.70584 1.00465 0.78619
 C1010 C 0.69566 0.99460 0.80659
 C1011 C 0.69808 0.97089 0.80356
 C1012 C 0.70954 0.96719 0.78133
 N1013 N 0.71413 0.98785 0.77075
 C1014 C 0.71348 0.94510 0.77046
 C1015 C 0.72841 0.94118 0.75037
 C1016 C 0.73168 0.92006 0.73804
 C1017 C 0.74924 0.92311 0.72171
 C1018 C 0.75623 0.94588 0.72487
 N1019 N 0.74358 0.95680 0.74250
 C1020 C 0.77571 0.95508 0.71377
 C1021 C 0.78199 0.97876 0.71667
 C1022 C 0.80262 0.98815 0.70969
 C1023 C 0.80097 1.01178 0.71403
 C1024 C 0.77938 1.01634 0.72334
 N1025 N 0.76790 0.99623 0.72478
 C1026 C 0.77006 1.03895 0.72704
 H1027 H 0.74199 1.08101 0.73238
 H1028 H 0.70658 1.07514 0.76011
 H1029 H 0.75050 0.99503 0.72783
 H1030 H 0.68709 1.00345 0.82191
 H1031 H 0.69164 0.95784 0.81598
 H1032 H 0.72284 0.90396 0.74087
 H1033 H 0.75658 0.90982 0.70957
 H1034 H 0.81394 1.02432 0.70993
 H1035 H 0.71977 0.99033 0.75263
 H1036 H 0.81735 0.97943 0.70173
 C1037 C 0.73663 0.42432 0.24721
 C1038 C 0.75492 0.42507 0.23157
 C1039 C 0.76093 0.44821 0.23023
 N1040 N 0.74688 0.46167 0.24440
 C1041 C 0.73206 0.44704 0.25489
 C1042 C 0.77912 0.45612 0.21583
 C1043 C 0.78514 0.47978 0.21402
 C1044 C 0.79884 0.48849 0.19546
 C1045 C 0.80007 0.51209 0.19954
 C1046 C 0.78700 0.51720 0.22035
 N1047 N 0.77823 0.49738 0.22937
 C1048 C 0.78335 0.53996 0.22978
 C1049 C 0.76715 0.54602 0.24819
 C1050 C 0.76463 0.56809 0.25860
 C1051 C 0.74634 0.56734 0.27425
 C1052 C 0.73842 0.54478 0.27306
 N1053 N 0.75120 0.53173 0.25718
 C1054 C 0.71974 0.53709 0.28687
 C1055 C 0.71265 0.51366 0.28766
 C1056 C 0.69860 0.50503 0.30590
 C1057 C 0.69735 0.48143 0.30184
 C1058 C 0.71061 0.47618 0.28116
 N1059 N 0.71958 0.49601 0.27234
 C1060 C 0.71498 0.45324 0.27218
 H1061 H 0.72781 0.40877 0.25253
 H1062 H 0.76296 0.41024 0.22232
 H1063 H 0.72897 0.49757 0.25614
 H1064 H 0.80653 0.47905 0.18000
 H1065 H 0.80908 0.52421 0.18804
 H1066 H 0.77486 0.58322 0.25533
 H1067 H 0.73972 0.58176 0.28538
 H1068 H 0.68853 0.46946 0.31365
 H1069 H 0.76946 0.49572 0.24599
 H1070 H 0.69100 0.51444 0.32144
 C1071 C 0.26031 -0.07391 0.73856
 C1072 C 0.27839 -0.07335 0.75518
 C1073 C 0.27856 -0.05110 0.76555
 N1074 N 0.26142 -0.03802 0.75535
 C1075 C 0.25040 -0.05185 0.73878
 C1076 C 0.29338 -0.04300 0.78484
 C1077 C 0.29508 -0.01913 0.79097
 C1078 C 0.30572 -0.01076 0.81248
 C1079 C 0.30565 0.01311 0.81076
 C1080 C 0.29497 0.01864 0.78826
 N1081 N 0.28870 -0.00110 0.77618
 C1082 C 0.29324 0.04138 0.77867
 C1083 C 0.27826 0.04764 0.75882
 C1084 C 0.27603 0.06968 0.74858
 C1085 C 0.25814 0.06884 0.73174
 C1086 C 0.24994 0.04641 0.73240
 N1087 N 0.26210 0.03359 0.74909
 C1088 C 0.23009 0.03909 0.71964
 C1089 C 0.22261 0.01575 0.71946
 C1090 C 0.20184 0.00828 0.70984
 C1091 C 0.20197 -0.01565 0.71170
 C1092 C 0.22283 -0.02214 0.72221
 N1093 N 0.23536 -0.00300 0.72667
 C1094 C 0.23057 -0.04538 0.72510
 H1095 H 0.25526 -0.08879 0.72736
 H1096 H 0.29019 -0.08768 0.75839
 H1097 H 0.25259 -0.00311 0.73142
 H1098 H 0.31311 -0.02084 0.82767
 H1099 H 0.31303 0.02503 0.82430
 H1100 H 0.28564 0.08506 0.75315
 H1101 H 0.25147 0.08329 0.72085
 H1102 H 0.18850 -0.02703 0.70538
 H1103 H 0.28322 -0.00235 0.75765
 H1104 H 0.18813 0.01869 0.70173
 C1105 C 0.25539 0.25878 0.91075
 C1106 C 0.27521 0.24575 0.91272
 C1107 C 0.27748 0.23941 0.93759
 N1108 N 0.25982 0.24832 0.95090
 C1109 C 0.24630 0.26014 0.93451
 C1110 C 0.29467 0.22398 0.94665
 C1111 C 0.29620 0.21590 0.97166
 C1112 C 0.31059 0.19791 0.97960
 C1113 C 0.30637 0.19459 1.00453
 C1114 C 0.28992 0.21101 1.01149
 N1115 N 0.28407 0.22416 0.99138
 C1116 C 0.28055 0.21293 1.03584
 C1117 C 0.26155 0.22717 1.04206
 C1118 C 0.25259 0.22893 1.06588
 C1119 C 0.23472 0.24469 1.06454
 C1120 C 0.23334 0.25193 1.03992
 N1121 N 0.24968 0.24114 1.02622
 C1122 C 0.21764 0.26892 1.03095
 C1123 C 0.21458 0.27465 1.00549
 C1124 C 0.20068 0.29290 0.99733
 C1125 C 0.20281 0.29380 0.97180
 C1126 C 0.21802 0.27610 0.96501
 N1127 N 0.22480 0.26419 0.98562
 C1128 C 0.22591 0.27239 0.94033
 H1129 H 0.24845 0.26639 0.89376
 H1130 H 0.28639 0.24098 0.89744
 H1131 H 0.23469 0.24901 0.98580
 H1132 H 0.32268 0.18777 0.96870
 H1133 H 0.31430 0.18115 1.01590
 H1134 H 0.25842 0.21992 1.08255
 H1135 H 0.22395 0.25011 1.07993
 H1136 H 0.19485 0.30680 0.95984
 H1137 H 0.27361 0.23891 0.99141
 H1138 H 0.19048 0.30474 1.00868
 C1139 C 0.25998 0.73539 0.56277
 C1140 C 0.24388 0.75305 0.56237
 C1141 C 0.24215 0.76050 0.53784
 N1142 N 0.25693 0.74823 0.52337
 C1143 C 0.26772 0.73269 0.53848
 C1144 C 0.22875 0.77979 0.52980
 C1145 C 0.22649 0.78670 0.50464
 C1146 C 0.21591 0.80730 0.49710
 C1147 C 0.21590 0.80717 0.47135
 C1148 C 0.22654 0.78651 0.46394
 N1149 N 0.23273 0.77401 0.48430
 C1150 C 0.23010 0.77971 0.43880
 C1151 C 0.24699 0.76331 0.43152
 C1152 C 0.25096 0.75664 0.40696
 C1153 C 0.26907 0.74109 0.40758
 C1154 C 0.27539 0.73871 0.43250
 N1155 N 0.26208 0.75253 0.44712
 C1156 C 0.29345 0.72413 0.44099
 C1157 C 0.29842 0.71998 0.46656
 C1158 C 0.31845 0.70957 0.47551
 C1159 C 0.31626 0.70767 0.50102
 C1160 C 0.29512 0.71725 0.50696
 N1161 N 0.28424 0.72451 0.48587
 C1162 C 0.28615 0.71791 0.53131
 H1163 H 0.26596 0.72644 0.57939
 H1164 H 0.23506 0.75999 0.57855
 H1165 H 0.26722 0.72973 0.48440
 H1166 H 0.20884 0.82097 0.50894
 H1167 H 0.20919 0.82092 0.45950
 H1168 H 0.24183 0.76247 0.39036
 H1169 H 0.27662 0.73239 0.39154
 H1170 H 0.32885 0.70020 0.51377
 H1171 H 0.23863 0.75685 0.48413
 H1172 H 0.33317 0.70396 0.46485
 C1173 C 0.22910 0.73255 -0.06309
 C1174 C 0.24800 0.74603 -0.06532
 C1175 C 0.25541 0.75127 -0.04122
 N1176 N 0.24185 0.74116 -0.02437
 C1177 C 0.22580 0.72963 -0.03771
 C1178 C 0.27416 0.76558 -0.03541
 C1179 C 0.28169 0.77109 -0.01088
 C1180 C 0.29695 0.78859 -0.00547
 C1181 C 0.29894 0.78996 0.02015
 C1182 C 0.28507 0.77301 0.02979
 N1183 N 0.27485 0.76131 0.01066
 C1184 C 0.28165 0.76963 0.05573
 C1185 C 0.26445 0.75570 0.06562
 C1186 C 0.26103 0.75290 0.09100
 C1187 C 0.24262 0.73871 0.09319
 C1188 C 0.23537 0.73339 0.06907
 N1189 N 0.24874 0.74375 0.05224
 C1190 C 0.21686 0.71882 0.06343
 C1191 C 0.20933 0.71321 0.03880
 C1192 C 0.19442 0.69540 0.03302
 C1193 C 0.19192 0.69481 0.00744
 C1194 C 0.20559 0.71203 -0.00182
 N1195 N 0.21583 0.72351 0.01740
 C1196 C 0.20864 0.71571 -0.02762
 H1197 H 0.21910 0.72557 -0.07849
 H1198 H 0.25536 0.75129 -0.08279
 H1199 H 0.22549 0.73838 0.01604
 H1200 H 0.30514 0.79986 -0.01861
 H1201 H 0.30888 0.80268 0.03035
 H1202 H 0.27077 0.76035 0.10636
 H1203 H 0.23537 0.73299 0.11056
 H1204 H 0.18184 0.68248 -0.00321
 H1205 H 0.26490 0.74666 0.01211
 H1206 H 0.18668 0.68340 0.04570
 C1207 C 0.23607 0.23033 0.42686
 C1208 C 0.25535 0.24345 0.42593
 C1209 C 0.26310 0.24613 0.45040
 N1210 N 0.24930 0.23485 0.46612
 C1211 C 0.23278 0.22519 0.45180
 C1212 C 0.28273 0.25867 0.45766
 C1213 C 0.29099 0.26067 0.48255
 C1214 C 0.30823 0.27563 0.48973
 C1215 C 0.31019 0.27445 0.51533
 C1216 C 0.29419 0.25871 0.52313
 N1217 N 0.28298 0.24987 0.50296
 C1218 C 0.28984 0.25429 0.54856
 C1219 C 0.27223 0.24006 0.55722
 C1220 C 0.26856 0.23539 0.58221
 C1221 C 0.24959 0.22177 0.58297
 C1222 C 0.24230 0.21858 0.55843
 N1223 N 0.25624 0.22966 0.54274
 C1224 C 0.22316 0.20539 0.55133
 C1225 C 0.21582 0.20183 0.52617
 C1226 C 0.20018 0.18526 0.51863
 C1227 C 0.19802 0.18672 0.49304
 C1228 C 0.21265 0.20388 0.48547
 N1229 N 0.22309 0.21334 0.50583
 C1230 C 0.21564 0.21035 0.46022
 H1231 H 0.22598 0.22465 0.41088
 H1232 H 0.26293 0.24978 0.40903
 H1233 H 0.23316 0.22798 0.50600
 H1234 H 0.31783 0.28692 0.47785
 H1235 H 0.32164 0.28461 0.52695
 H1236 H 0.27850 0.24115 0.59824
 H1237 H 0.24200 0.21501 0.59970
 H1238 H 0.18710 0.17601 0.48141
 H1239 H 0.27119 0.23671 0.50305
 H1240 H 0.19155 0.17291 0.53015
 C1241 C 0.73643 0.77087 1.07885
 C1242 C 0.75628 0.75783 1.07914
 C1243 C 0.76025 0.75091 1.05463
 N1244 N 0.74363 0.75958 1.03941
 C1245 C 0.72901 0.77176 1.05414
 C1246 C 0.77863 0.73618 1.04711
 C1247 C 0.78375 0.73047 1.02199
 C1248 C 0.80054 0.71435 1.01520
 C1249 C 0.79930 0.71198 0.98961
 C1250 C 0.78173 0.72664 0.98143
 N1251 N 0.77273 0.73835 1.00121
 C1252 C 0.77379 0.72751 0.95632
 C1253 C 0.75279 0.73767 0.94863
 C1254 C 0.74461 0.73707 0.92420
 C1255 C 0.72397 0.74875 0.92416
 C1256 C 0.72028 0.75620 0.94855
 N1257 N 0.73786 0.74927 0.96350
 C1258 C 0.70146 0.77032 0.95596
 C1259 C 0.69717 0.77754 0.98083
 C1260 C 0.68066 0.79407 0.98725
 C1261 C 0.68286 0.79793 1.01260
 C1262 C 0.70066 0.78366 1.02098
 N1263 N 0.70889 0.77077 1.00161
 C1264 C 0.70909 0.78388 1.04586
 H1265 H 0.72836 0.77858 1.09513
 H1266 H 0.76657 0.75400 1.09560
 H1267 H 0.72103 0.75745 1.00266
 H1268 H 0.81202 0.70470 1.02749
 H1269 H 0.80950 0.69996 0.97849
 H1270 H 0.75270 0.72907 0.90808
 H1271 H 0.71302 0.75158 0.90795
 H1272 H 0.67293 0.81038 1.02350
 H1273 H 0.76049 0.75159 1.00041
 H1274 H 0.66873 0.80298 0.97482
 C1275 C 0.73861 0.26753 0.57505
 C1276 C 0.75798 0.25378 0.57470
 C1277 C 0.76281 0.24928 0.54978
 N1278 N 0.74720 0.26021 0.53496
 C1279 C 0.73235 0.27137 0.55032
 C1280 C 0.78109 0.23478 0.54140
 C1281 C 0.78717 0.23152 0.51606
 C1282 C 0.80429 0.21618 0.50832
 C1283 C 0.80371 0.21589 0.48261
 C1284 C 0.78615 0.23097 0.47526
 N1285 N 0.77662 0.24099 0.49578
 C1286 C 0.77836 0.23319 0.45019
 C1287 C 0.75748 0.24396 0.44292
 C1288 C 0.74881 0.24347 0.41870
 C1289 C 0.72835 0.25548 0.41911
 C1290 C 0.72529 0.26316 0.44354
 N1291 N 0.74307 0.25596 0.45807
 C1292 C 0.70678 0.27745 0.45160
 C1293 C 0.70276 0.28367 0.47683
 C1294 C 0.68693 0.30060 0.48408
 C1295 C 0.68884 0.30282 0.50965
 C1296 C 0.70575 0.28717 0.51736
 N1297 N 0.71378 0.27510 0.49729
 C1298 C 0.71334 0.28521 0.54248
 H1299 H 0.73007 0.27364 0.59177
 H1300 H 0.76740 0.24794 0.59109
 H1301 H 0.72508 0.26098 0.49760
 H1302 H 0.81550 0.20559 0.52000
 H1303 H 0.81422 0.20480 0.47078
 H1304 H 0.75636 0.23513 0.40245
 H1305 H 0.71702 0.25809 0.40318
 H1306 H 0.67921 0.31500 0.52119
 H1307 H 0.76398 0.25383 0.49585
 H1308 H 0.67558 0.31075 0.47212
 C1309 C 0.74598 0.24717 0.08162
 C1310 C 0.76309 0.26314 0.08107
 C1311 C 0.76707 0.26754 0.05608
 N1312 N 0.75292 0.25490 0.04139
 C1313 C 0.74000 0.24245 0.05694
 C1314 C 0.78344 0.28328 0.04771
 C1315 C 0.78790 0.28773 0.02217
 C1316 C 0.80139 0.30564 0.01395
 C1317 C 0.80145 0.30438 -0.01174
 C1318 C 0.78753 0.28612 -0.01868
 N1319 N 0.77974 0.27575 0.00212
 C1320 C 0.78257 0.27958 -0.04377
 C1321 C 0.76503 0.26437 -0.05098
 C1322 C 0.75913 0.25955 -0.07566
 C1323 C 0.74040 0.24563 -0.07508
 C1324 C 0.73563 0.24224 -0.05008
 N1325 N 0.75066 0.25375 -0.03538
 C1326 C 0.71833 0.22758 -0.04175
 C1327 C 0.71453 0.22216 -0.01639
 C1328 C 0.70060 0.20449 -0.00860
 C1329 C 0.70212 0.20404 0.01709
 C1330 C 0.71655 0.22180 0.02443
 N1331 N 0.72377 0.23297 0.00387
 C1332 C 0.72292 0.22668 0.04964
 H1333 H 0.73872 0.23992 0.09828
 H1334 H 0.77167 0.27063 0.09723
 H1335 H 0.73311 0.24808 0.00365
 H1336 H 0.81005 0.31864 0.02512
 H1337 H 0.81042 0.31603 -0.02377
 H1338 H 0.76725 0.26574 -0.09234
 H1339 H 0.73152 0.23852 -0.09124
 H1340 H 0.69384 0.19161 0.02883
 H1341 H 0.77092 0.26029 0.00260
 H1342 H 0.69073 0.19269 -0.02012
 C1343 C 0.73767 0.74415 0.59247
 C1344 C 0.75579 0.75893 0.59185
 C1345 C 0.76077 0.76203 0.56685
 N1346 N 0.74631 0.74969 0.55221
 C1347 C 0.73217 0.73876 0.56783
 C1348 C 0.77831 0.77639 0.55841
 C1349 C 0.78313 0.78020 0.53282
 C1350 C 0.79721 0.79756 0.52441
 C1351 C 0.79686 0.79637 0.49873
 C1352 C 0.78230 0.77859 0.49202
 N1353 N 0.77434 0.76848 0.51288
 C1354 C 0.77658 0.77289 0.46695
 C1355 C 0.75872 0.75811 0.45960
 C1356 C 0.75202 0.75441 0.43497
 C1357 C 0.73338 0.74035 0.43552
 C1358 C 0.72950 0.73570 0.46049
 N1359 N 0.74496 0.74667 0.47517
 C1360 C 0.71227 0.72103 0.46912
 C1361 C 0.70820 0.71666 0.49459
 C1362 C 0.69499 0.69853 0.50257
 C1363 C 0.69585 0.69893 0.52823
 C1364 C 0.70928 0.71758 0.53536
 N1365 N 0.71660 0.72849 0.51464
 C1366 C 0.71468 0.72345 0.56059
 H1367 H 0.72952 0.73801 0.60916
 H1368 H 0.76433 0.76653 0.60797
 H1369 H 0.72538 0.74400 0.51416
 H1370 H 0.80628 0.81037 0.53543
 H1371 H 0.80576 0.80784 0.48640
 H1372 H 0.75950 0.76151 0.41834
 H1373 H 0.72376 0.73443 0.41933
 H1374 H 0.68804 0.68628 0.54009
 H1375 H 0.76466 0.75359 0.51346
 H1376 H 0.68626 0.68578 0.49106
 C1377 C 0.94328 0.26523 0.25520
 C1378 C 0.94402 0.27719 0.23314
 C1379 C 0.96679 0.27797 0.22659
 N1380 N 0.97992 0.26684 0.24384
 C1381 C 0.96562 0.25895 0.26130
 C1382 C 0.97483 0.28904 0.20502
 C1383 C 0.99796 0.28993 0.19813
 C1384 C 1.00573 0.30366 0.17897
 C1385 C 1.02913 0.30142 0.17913
 C1386 C 1.03501 0.28634 0.19835
 N1387 N 1.01587 0.27891 0.20942
 C1388 C 1.05779 0.28079 0.20535
 C1389 C 1.06435 0.26755 0.22642
 C1390 C 1.08678 0.26244 0.23316
 C1391 C 1.08603 0.24988 0.25485
 C1392 C 1.06315 0.24780 0.26061
 N1393 N 1.04998 0.25864 0.24322
 C1394 C 1.05502 0.23548 0.28132
 C1395 C 1.03186 0.23465 0.28832
 C1396 C 1.02393 0.22006 0.30663
 C1397 C 1.00056 0.22288 0.30693
 C1398 C 0.99482 0.23911 0.28878
 N1399 N 1.01406 0.24673 0.27800
 C1400 C 0.97206 0.24526 0.28217
 H1401 H 0.92799 0.26151 0.26546
 H1402 H 0.92940 0.28438 0.22306
 H1403 H 1.01509 0.26012 0.26525
 H1404 H 0.99563 0.31473 0.16663
 H1405 H 1.04055 0.31037 0.16688
 H1406 H 1.10207 0.26734 0.22352
 H1407 H 1.10068 0.24319 0.26526
 H1408 H 0.98903 0.21347 0.31864
 H1409 H 1.01498 0.26631 0.22302
 H1410 H 1.03389 0.20809 0.31810
 C1411 C 0.43965 0.24962 0.75406
 C1412 C 0.43896 0.26259 0.73266
 C1413 C 0.46137 0.26763 0.72714
 N1414 N 0.47569 0.25804 0.74434
 C1415 C 0.46247 0.24698 0.76081
 C1416 C 0.46784 0.28157 0.70688
 C1417 C 0.49062 0.28674 0.70093
 C1418 C 0.49647 0.30341 0.68372
 C1419 C 0.51990 0.30475 0.68444
 C1420 C 0.52774 0.28879 0.70200
 N1421 N 0.50981 0.27742 0.71150
 C1422 C 0.55099 0.28604 0.70908
 C1423 C 0.55907 0.27179 0.72887
 C1424 C 0.58195 0.26774 0.73457
 C1425 C 0.58268 0.25370 0.75520
 C1426 C 0.56023 0.24957 0.76138
 N1427 N 0.54588 0.26064 0.74527
 C1428 C 0.55368 0.23550 0.78151
 C1429 C 0.53086 0.23152 0.78840
 C1430 C 0.52481 0.21578 0.80652
 C1431 C 0.50132 0.21542 0.80663
 C1432 C 0.49365 0.23091 0.78853
 N1433 N 0.51175 0.24115 0.77799
 C1434 C 0.47041 0.23400 0.78161
 H1435 H 0.42498 0.24290 0.76353
 H1436 H 0.42365 0.26776 0.72242
 H1437 H 0.51108 0.25456 0.76522
 H1438 H 0.48499 0.31405 0.67240
 H1439 H 0.52998 0.31658 0.67371
 H1440 H 0.59664 0.27407 0.72484
 H1441 H 0.59802 0.24731 0.76457
 H1442 H 0.49107 0.20440 0.81814
 H1443 H 0.51063 0.26336 0.72347
 H1444 H 0.53616 0.20512 0.81798
 C1445 C -0.08397 0.23269 0.73376
 C1446 C -0.08432 0.24708 0.75442
 C1447 C -0.06176 0.25060 0.76131
 N1448 N -0.04770 0.23878 0.74563
 C1449 C -0.06120 0.22779 0.72878
 C1450 C -0.05483 0.26495 0.78154
 C1451 C -0.03186 0.26896 0.78860
 C1452 C -0.02541 0.28517 0.80660
 C1453 C -0.00191 0.28531 0.80695
 C1454 C 0.00538 0.26920 0.78915
 N1455 N -0.01298 0.25886 0.77850
 C1456 C 0.02854 0.26552 0.78277
 C1457 C 0.03624 0.25137 0.76264
 C1458 C 0.05899 0.24786 0.75661
 C1459 C 0.05938 0.23355 0.73588
 C1460 C 0.03685 0.22863 0.73001
 N1461 N 0.02279 0.23958 0.74636
 C1462 C 0.02992 0.21377 0.71015
 C1463 C 0.00692 0.20934 0.70355
 C1464 C 0.00047 0.19241 0.68634
 C1465 C -0.02302 0.19218 0.68607
 C1466 C -0.03032 0.20897 0.70314
 N1467 N -0.01198 0.21979 0.71326
 C1468 C -0.05352 0.21303 0.70915
 H1469 H -0.09884 0.22668 0.72353
 H1470 H -0.09947 0.25421 0.76328
 H1471 H -0.01236 0.23426 0.72496
 H1472 H -0.03650 0.29624 0.81782
 H1473 H 0.00860 0.29654 0.81850
 H1474 H 0.07381 0.25486 0.76613
 H1475 H 0.07456 0.22752 0.72625
 H1476 H -0.03352 0.18053 0.67504
 H1477 H -0.01260 0.24506 0.76594
 H1478 H 0.01156 0.18096 0.67555
 C1479 C 0.42147 0.22969 0.24350
 C1480 C 0.42066 0.24335 0.26474
 C1481 C 0.44300 0.24887 0.27072
 N1482 N 0.45737 0.23899 0.25396
 C1483 C 0.44430 0.22725 0.23728
 C1484 C 0.44928 0.26403 0.29048
 C1485 C 0.47193 0.27066 0.29624
 C1486 C 0.47752 0.28725 0.31423
 C1487 C 0.50081 0.28966 0.31362
 C1488 C 0.50887 0.27447 0.29533
 N1489 N 0.49125 0.26249 0.28528
 C1490 C 0.53201 0.27288 0.28822
 C1491 C 0.54020 0.25994 0.26746
 C1492 C 0.56297 0.25810 0.26088
 C1493 C 0.56381 0.24455 0.23958
 C1494 C 0.54153 0.23852 0.23391
 N1495 N 0.52718 0.24799 0.25094
 C1496 C 0.53513 0.22399 0.21363
 C1497 C 0.51248 0.21765 0.20774
 C1498 C 0.50699 0.20108 0.18973
 C1499 C 0.48375 0.19838 0.19053
 C1500 C 0.47564 0.21334 0.20905
 N1501 N 0.49319 0.22549 0.21902
 C1502 C 0.45254 0.21450 0.21635
 H1503 H 0.40682 0.22282 0.23358
 H1504 H 0.40534 0.24901 0.27435
 H1505 H 0.49191 0.23915 0.23172
 H1506 H 0.46602 0.29691 0.32636
 H1507 H 0.51065 0.30164 0.32501
 H1508 H 0.57749 0.26567 0.27045
 H1509 H 0.57909 0.23964 0.22948
 H1510 H 0.47401 0.18627 0.17922
 H1511 H 0.49249 0.24869 0.27276
 H1512 H 0.51861 0.19145 0.17769
 C1513 C 1.08258 0.75389 0.77276
 C1514 C 1.08447 0.76613 0.75099
 C1515 C 1.06242 0.77193 0.74323
 N1516 N 1.04723 0.76361 0.75952
 C1517 C 1.05946 0.75250 0.77752
 C1518 C 1.05690 0.78442 0.72122
 C1519 C 1.03446 0.78915 0.71236
 C1520 C 1.02943 0.80329 0.69208
 C1521 C 1.00602 0.80489 0.69009
 C1522 C 0.99738 0.79172 0.70923
 N1523 N 1.01482 0.78171 0.72235
 C1524 C 0.97386 0.79039 0.71441
 C1525 C 0.96478 0.77963 0.73566
 C1526 C 0.94167 0.77855 0.74062
 C1527 C 0.93983 0.76697 0.76279
 C1528 C 0.96186 0.76115 0.77055
 N1529 N 0.97705 0.76901 0.75400
 C1530 C 0.96728 0.74783 0.79200
 C1531 C 0.98970 0.74253 0.80056
 C1532 C 0.99463 0.72654 0.81921
 C1533 C 1.01801 0.72434 0.82077
 C1534 C 1.02677 0.73907 0.80307
 N1535 N 1.00941 0.75068 0.79134
 C1536 C 1.05028 0.74006 0.79761
 H1537 H 1.09667 0.74666 0.78368
 H1538 H 1.10029 0.76994 0.74180
 H1539 H 1.01090 0.76396 0.77853
 H1540 H 1.04140 0.81204 0.68030
 H1541 H 0.99645 0.81515 0.67652
 H1542 H 0.92755 0.78530 0.72942
 H1543 H 0.92401 0.76321 0.77204
 H1544 H 1.02746 0.71258 0.83297
 H1545 H 1.01341 0.76969 0.73647
 H1546 H 0.98260 0.71680 0.82996
 C1547 C 0.58295 0.74555 0.27507
 C1548 C 0.58556 0.76049 0.25546
 C1549 C 0.56379 0.76621 0.24669
 N1550 N 0.54808 0.75513 0.26024
 C1551 C 0.55970 0.74247 0.27754
 C1552 C 0.55887 0.78118 0.22632
 C1553 C 0.53679 0.78517 0.21599
 C1554 C 0.53192 0.80174 0.19789
 C1555 C 0.50881 0.80107 0.19309
 C1556 C 0.50013 0.78417 0.20843
 N1557 N 0.51738 0.77417 0.22191
 C1558 C 0.47668 0.77891 0.20957
 C1559 C 0.46700 0.76442 0.22757
 C1560 C 0.44384 0.76035 0.22924
 C1561 C 0.44116 0.74647 0.24972
 C1562 C 0.46278 0.74251 0.25979
 N1563 N 0.47851 0.75348 0.24622
 C1564 C 0.46745 0.72812 0.28053
 C1565 C 0.48956 0.72310 0.29030
 C1566 C 0.49421 0.70659 0.30849
 C1567 C 0.51748 0.70625 0.31243
 C1568 C 0.52645 0.72263 0.29662
 N1569 N 0.50924 0.73321 0.28365
 C1570 C 0.55008 0.72706 0.29472
 H1571 H 0.59663 0.73741 0.28586
 H1572 H 0.60175 0.76593 0.24823
 H1573 H 0.51064 0.74748 0.27221
 H1574 H 0.54375 0.81338 0.18929
 H1575 H 0.49942 0.81208 0.18007
 H1576 H 0.43027 0.76687 0.21709
 H1577 H 0.42515 0.73988 0.25633
 H1578 H 0.52670 0.69507 0.32542
 H1579 H 0.51624 0.75964 0.23306
 H1580 H 0.48215 0.69568 0.31779
 C1581 C 0.05717 0.74559 0.25200
 C1582 C 0.05652 0.76016 0.27252
 C1583 C 0.03367 0.76459 0.27747
 N1584 N 0.02042 0.75318 0.26073
 C1585 C 0.03469 0.74155 0.24513
 C1586 C 0.02570 0.77950 0.29684
 C1587 C 0.00243 0.78313 0.30285
 C1588 C -0.00520 0.79974 0.31995
 C1589 C -0.02868 0.79907 0.31966
 C1590 C -0.03480 0.78211 0.30233
 N1591 N -0.01572 0.77203 0.29264
 C1592 C -0.05768 0.77730 0.29557
 C1593 C -0.06431 0.76286 0.27526
 C1594 C -0.08675 0.75796 0.26899
 C1595 C -0.08611 0.74426 0.24780
 C1596 C -0.06328 0.74110 0.24193
 N1597 N -0.05003 0.75251 0.25871
 C1598 C -0.05534 0.72755 0.22148
 C1599 C -0.03210 0.72384 0.21555
 C1600 C -0.02463 0.70805 0.19752
 C1601 C -0.00115 0.70791 0.19850
 C1602 C 0.00509 0.72367 0.21706
 N1603 N -0.01388 0.73375 0.22692
 C1604 C 0.02795 0.72727 0.22473
 H1605 H 0.07247 0.73889 0.24310
 H1606 H 0.07124 0.76670 0.28262
 H1607 H -0.01439 0.74726 0.23983
 H1608 H 0.00509 0.81154 0.33106
 H1609 H -0.04000 0.81027 0.33047
 H1610 H -0.10205 0.76367 0.27861
 H1611 H -0.10079 0.73740 0.23790
 H1612 H 0.01005 0.69695 0.18728
 H1613 H -0.01512 0.75762 0.28086
 H1614 H -0.03501 0.69719 0.18543
 C1615 C 0.55362 0.72966 0.72705
 C1616 C 0.55692 0.74455 0.74695
 C1617 C 0.53566 0.74866 0.75742
 N1618 N 0.51962 0.73641 0.74489
 C1619 C 0.53052 0.72501 0.72619
 C1620 C 0.53159 0.76221 0.77920
 C1621 C 0.50978 0.76563 0.78954
 C1622 C 0.50600 0.77452 0.81333
 C1623 C 0.48276 0.77758 0.81553
 C1624 C 0.47300 0.77058 0.79295
 N1625 N 0.48961 0.76337 0.77716
 C1626 C 0.44955 0.77330 0.78693
 C1627 C 0.43940 0.76242 0.76564
 C1628 C 0.41778 0.76715 0.75578
 C1629 C 0.41455 0.75191 0.73613
 C1630 C 0.43444 0.73871 0.73419
 N1631 N 0.44955 0.74503 0.75223
 C1632 C 0.43802 0.72079 0.71627
 C1633 C 0.45971 0.71154 0.71008
 C1634 C 0.46319 0.69213 0.69486
 C1635 C 0.48645 0.68910 0.69257
 C1636 C 0.49647 0.70671 0.70651
 N1637 N 0.48005 0.72052 0.71683
 C1638 C 0.52024 0.70964 0.70887
 H1639 H 0.56678 0.72290 0.71477
 H1640 H 0.57327 0.75105 0.75314
 H1641 H 0.48242 0.73633 0.72593
 H1642 H 0.51873 0.77882 0.82742
 H1643 H 0.47406 0.78474 0.83172
 H1644 H 0.40571 0.78061 0.76115
 H1645 H 0.39955 0.75117 0.72412
 H1646 H 0.49503 0.67543 0.68198
 H1647 H 0.48757 0.76043 0.75809
 H1648 H 0.45029 0.68130 0.68626
 N1649 N 0.42576 0.29595 0.30148
 N1650 N 0.43113 0.27460 0.30459
 N1651 N 0.41576 0.78937 0.80539
 N1652 N 0.43672 0.78813 0.80384
 N1653 N -0.08261 0.29472 0.78540
 N1654 N -0.07232 0.27725 0.79512
 N1655 N -0.08818 0.80423 0.29914
 N1656 N -0.07541 0.78886 0.30952
 N1657 N 0.56925 0.69250 0.30664
 N1658 N 0.56569 0.71416 0.31042
 N1659 N 0.58292 0.20715 0.78507
 N1660 N 0.57141 0.22358 0.79533
 N1661 N 1.07613 0.70867 0.80134
 N1662 N 1.06553 0.72548 0.81202
 N1663 N 1.08196 0.20494 0.28488
 N1664 N 1.07115 0.22168 0.29544
 N1665 N 0.57972 0.31397 0.70777
 N1666 N 0.56727 0.29954 0.69594
 N1667 N 0.59186 0.80456 0.22744
 N1668 N 0.57721 0.79317 0.21480
 N1669 N 1.08382 0.31010 0.19755
 N1670 N 1.07547 0.29070 0.19089
 N1671 N 1.08950 0.80724 0.71607
 N1672 N 1.07520 0.79312 0.70667
 N1673 N 0.40165 0.70392 0.71573
 N1674 N 0.41867 0.71098 0.70360
 N1675 N 0.42388 0.18641 0.21066
 N1676 N 0.43669 0.20157 0.20127
 N1677 N -0.08259 0.69860 0.21478
 N1678 N -0.07190 0.71580 0.20624
 N1679 N -0.08342 0.18642 0.70507
 N1680 N -0.07031 0.20074 0.69469
 N1681 N 0.30431 0.43083 0.30540
 N1682 N 0.28291 0.43430 0.30276
 N1683 N 0.30544 -0.07979 0.80107
 N1684 N 0.30753 -0.05854 0.79969
 N1685 N 0.81747 0.44384 0.80167
 N1686 N 0.81870 0.46483 0.79746
 N1687 N 0.80307 -0.05511 0.31687
 N1688 N 0.80351 -0.03381 0.31445
 N1689 N 0.28374 0.56879 0.71363
 N1690 N 0.27066 0.55458 0.70237
 N1691 N 0.28972 1.06562 0.19649
 N1692 N 0.29933 1.04867 0.20791
 N1693 N 0.78535 0.57540 0.20856
 N1694 N 0.79591 0.55826 0.21859
 N1695 N 0.77382 1.07371 0.70415
 N1696 N 0.78299 1.05785 0.71754
 N1697 N 0.68733 0.55632 0.30469
 N1698 N 0.70889 0.55432 0.30256
 N1699 N 0.68930 1.06301 0.79998
 N1700 N 0.68847 1.04205 0.79509
 N1701 N 0.18419 0.55946 0.79704
 N1702 N 0.20089 0.54700 0.80498
 N1703 N 0.20316 1.06532 0.28307
 N1704 N 0.21256 1.04811 0.29421
 N1705 N 0.70824 0.44257 0.71750
 N1706 N 0.72891 0.44783 0.71381
 N1707 N 0.71600 -0.06551 0.22858
 N1708 N 0.72516 -0.04957 0.21601
 N1709 N 0.21187 0.43328 0.19755
 N1710 N 0.20134 0.44857 0.21065
 N1711 N 0.22249 -0.07374 0.69434
 N1712 N 0.21690 -0.06351 0.71464
 N1713 N 0.28554 0.28481 0.42379
 N1714 N 0.29522 0.27076 0.43902
 N1715 N 0.27605 0.78935 -0.07109
 N1716 N 0.28617 0.77579 -0.05566
 N1717 N 0.79503 0.31093 -0.06827
 N1718 N 0.79550 0.28926 -0.06362
 N1719 N 0.78315 0.80423 0.44021
 N1720 N 0.78885 0.78388 0.44745
 N1721 N 0.71146 0.31104 0.57712
 N1722 N 0.70103 0.29871 0.56087
 N1723 N 0.70658 0.81387 1.07609
 N1724 N 0.69672 0.79775 1.06381
 N1725 N 0.21509 0.29419 1.06562
 N1726 N 0.20479 0.28233 1.04887
 N1727 N 0.20263 0.78707 0.56225
 N1728 N 0.21835 0.79449 0.54842
 N1729 N 0.28693 0.69018 0.56344
 N1730 N 0.29779 0.70437 0.55014
 N1731 N 0.31119 0.19668 1.06001
 N1732 N 0.28985 0.19888 1.05573
 N1733 N 0.78237 0.71351 1.08328
 N1734 N 0.79209 0.72464 1.06610
 N1735 N 0.78288 0.20914 0.57536
 N1736 N 0.79354 0.22102 0.55949
 N1737 N 0.70730 0.69561 0.43453
 N1738 N 0.69843 0.70882 0.45115
 N1739 N 0.70569 0.19530 -0.06557
 N1740 N 0.70445 0.21701 -0.06080
 N1741 N 0.20227 0.68762 -0.05910
 N1742 N 0.19406 0.70332 -0.04468
 N1743 N 0.20119 0.17925 0.43571
 N1744 N 0.20086 0.20084 0.44129
 N1745 N 0.29805 0.42760 0.70364
 N1746 N 0.27835 0.43454 0.69635
 N1747 N 0.31891 0.92930 0.19757
 N1748 N 0.29766 0.92841 0.20199
 N1749 N 0.81291 0.43871 0.19968
 N1750 N 0.79128 0.43878 0.20144
 N1751 N 0.81096 0.93796 0.69977
 N1752 N 0.78926 0.93873 0.69950
 N1753 N 0.69198 0.56874 0.70756
 N1754 N 0.71367 0.56855 0.70683
 N1755 N 0.70072 0.07337 0.20253
 N1756 N 0.72197 0.06978 0.19925
 N1757 N 0.19082 0.57121 0.21981
 N1758 N 0.21239 0.56834 0.21908
 N1759 N 0.19622 0.06102 0.71061
 N1760 N 0.21724 0.05676 0.70649
 N1761 N 0.31809 0.56448 0.28836
 N1762 N 0.30368 0.55241 0.29988
 N1763 N 0.31907 0.07256 0.78001
 N1764 N 0.30595 0.05905 0.79151
 N1765 N 0.81108 0.59583 0.78373
 N1766 N 0.79863 0.58139 0.79482
 N1767 N 0.81417 0.09507 0.28315
 N1768 N 0.80022 0.08220 0.29432
 N1769 N 0.68204 0.43333 0.28546
 N1770 N 0.70362 0.43421 0.28349
 N1771 N 0.68934 0.91265 0.77092
 N1772 N 0.70360 0.92554 0.78228
 N1773 N 0.18345 0.42315 0.79156
 N1774 N 0.20474 0.42668 0.79404
 N1775 N 0.19020 0.92573 0.28512
 N1776 N 0.21178 0.92759 0.28675
 N1777 N 0.43714 0.30799 0.70230
 N1778 N 0.44994 0.29244 0.69233
 N1779 N 0.45355 0.81056 0.19694
 N1780 N 0.46127 0.79015 0.19231
 N1781 N 0.94802 0.31918 0.19752
 N1782 N 0.95860 0.30116 0.18941
 N1783 N 0.94693 0.81963 0.70401
 N1784 N 0.95819 0.80152 0.69730
 N1785 N 0.55733 0.30383 0.29303
 N1786 N 0.54807 0.28619 0.30254
 N1787 N 0.56357 0.78615 0.77999
 N1788 N 0.55049 0.77289 0.79187
 N1789 N 0.05641 0.29418 0.78768
 N1790 N 0.04531 0.27777 0.79729
 N1791 N 0.05412 0.80770 0.29957
 N1792 N 0.04228 0.79269 0.31065
 N1793 N 0.54864 0.68090 0.70229
 N1794 N 0.53490 0.69599 0.69295
 N1795 N 0.56573 0.19762 0.20832
 N1796 N 0.55292 0.21349 0.19895
 N1797 N 0.05766 0.69925 0.22155
 N1798 N 0.04538 0.71495 0.21108
 N1799 N 0.06072 0.18702 0.70749
 N1800 N 0.04728 0.20135 0.69642
 N1801 N 0.44419 0.69593 0.28717
 N1802 N 0.44839 0.71721 0.29173
 N1803 N 0.44348 0.20474 0.78571
 N1804 N 0.45382 0.22182 0.79569
 N1805 N 0.93584 0.72328 0.79309
 N1806 N 0.94891 0.73718 0.80483
 N1807 N 0.94089 0.22075 0.28579
 N1808 N 0.95421 0.23516 0.29635
 N1809 N 0.29347 0.28226 0.58047
 N1810 N 0.30311 0.26688 0.56672
 N1811 N 0.31642 0.78405 0.07277
 N1812 N 0.29479 0.78277 0.07362
 N1813 N 0.81661 0.29883 0.06692
 N1814 N 0.79505 0.29653 0.06673
 N1815 N 0.81213 0.79086 0.57741
 N1816 N 0.79047 0.78939 0.57725
 N1817 N 0.31293 0.69187 0.42275
 N1818 N 0.30761 0.71344 0.42222
 N1819 N 0.31178 0.19322 0.92350
 N1820 N 0.31047 0.21490 0.92851
 N1821 N 0.80765 0.72036 0.93368
 N1822 N 0.78683 0.71572 0.93736
 N1823 N 0.81171 0.22615 0.42651
 N1824 N 0.79099 0.22148 0.43084
 N1825 N 0.70007 0.29841 0.41452
 N1826 N 0.69191 0.28791 0.43312
 N1827 N 0.69598 0.79405 0.92122
 N1828 N 0.68723 0.78016 0.93660
 N1829 N 0.19212 0.28344 0.91835
 N1830 N 0.21383 0.28337 0.91993
 N1831 N 0.19568 0.79461 0.42091
 N1832 N 0.21713 0.79099 0.41927
 N1833 N 0.68185 0.70870 0.58013
 N1834 N 0.70333 0.71167 0.58037
 N1835 N 0.69119 0.21222 0.07136
 N1836 N 0.71272 0.21379 0.06933
 N1837 N 0.18486 0.70670 0.08632
 N1838 N 0.20642 0.70784 0.08430
 N1839 N 0.19024 0.19319 0.57294
 N1840 N 0.21187 0.19364 0.57115
   
