data_POSCAR
  _audit_creation_date              2014-09-24
  _audit_creation_method            'ToBaCCo'
  _symmetry_space_group_name_H-M    'P1'
  _symmetry_Int_Tables_number       1
  _symmetry_cell_setting            triclinic
  loop_
  _symmetry_equiv_pos_as_xyz
 x,y,z
_cell_length_a 78.6057
_cell_length_b 75.3005
_cell_length_c 76.4536
_cell_angle_alpha 89.204300
_cell_angle_beta 89.737100
_cell_angle_gamma 89.856700
loop_
  _atom_site_label
  _atom_site_type_symbol
  _atom_site_fract_x
  _atom_site_fract_y
  _atom_site_fract_z
C1 C 0.36159 0.33346 0.34536
 C2 C 0.34878 0.33255 0.35818
 C3 C 0.33572 0.34491 0.35816
 C4 C 0.33527 0.35837 0.34528
 C5 C 0.34794 0.35925 0.33271
 C6 C 0.36115 0.34675 0.33275
 C7 C 0.37512 0.32254 0.34140
 N8 N 0.38285 0.32888 0.32663
 C9 C 0.37436 0.34375 0.32134
 C10 C 0.34383 0.37277 0.32127
 N11 N 0.32889 0.38018 0.32646
 C12 C 0.32359 0.37149 0.34123
 C13 C 0.32472 0.34019 0.37149
 N14 N 0.33078 0.32528 0.37958
 C15 C 0.34551 0.32055 0.37148
 H16 H 0.37857 0.31045 0.34833
 H17 H 0.37736 0.35172 0.30985
 H18 H 0.35115 0.37674 0.30986
 H19 H 0.31179 0.37400 0.34812
 H20 H 0.31290 0.34683 0.37466
 H21 H 0.35329 0.30916 0.37491
 C22 C 0.35977 0.83278 -0.15498
 C23 C 0.34701 0.83229 -0.14208
 C24 C 0.33406 0.84480 -0.14234
 C25 C 0.33369 0.85795 -0.15553
 C26 C 0.34621 0.85831 -0.16818
 C27 C 0.35930 0.84569 -0.16790
 C28 C 0.37342 0.82188 -0.15862
 N29 N 0.38126 0.82780 -0.17359
 C30 C 0.37253 0.84250 -0.17917
 C31 C 0.34228 0.87171 -0.17981
 N32 N 0.32753 0.87973 -0.17468
 C33 C 0.32230 0.87129 -0.15966
 C34 C 0.32307 0.84055 -0.12888
 N35 N 0.32897 0.82576 -0.12046
 C36 C 0.34365 0.82067 -0.12847
 H37 H 0.37679 0.81015 -0.15109
 H38 H 0.37534 0.85057 -0.19060
 H39 H 0.34991 0.87518 -0.19113
 H40 H 0.31074 0.87400 -0.15245
 H41 H 0.31129 0.84737 -0.12589
 H42 H 0.35130 0.80926 -0.12482
 C43 C 0.86375 0.33383 -0.15012
 C44 C 0.85133 0.33322 -0.13687
 C45 C 0.83853 0.34587 -0.13654
 C46 C 0.83795 0.35930 -0.14944
 C47 C 0.85015 0.35980 -0.16241
 C48 C 0.86310 0.34702 -0.16275
 C49 C 0.87710 0.32279 -0.15442
 N50 N 0.88459 0.32891 -0.16950
 C51 C 0.87594 0.34387 -0.17449
 C52 C 0.84602 0.37343 -0.17370
 N53 N 0.83144 0.38144 -0.16805
 C54 C 0.82654 0.37276 -0.15304
 C55 C 0.82781 0.34146 -0.12290
 N56 N 0.83375 0.32643 -0.11493
 C57 C 0.84817 0.32135 -0.12343
 H58 H 0.88049 0.31085 -0.14724
 H59 H 0.87849 0.35211 -0.18587
 H60 H 0.85336 0.37700 -0.18519
 H61 H 0.81518 0.37537 -0.14548
 H62 H 0.81618 0.34834 -0.11950
 H63 H 0.85577 0.30977 -0.12021
 C64 C 0.86100 0.83120 0.34878
 C65 C 0.84768 0.83041 0.36104
 C66 C 0.83488 0.84310 0.36072
 C67 C 0.83525 0.85679 0.34802
 C68 C 0.84837 0.85743 0.33602
 C69 C 0.86128 0.84462 0.33641
 C70 C 0.87460 0.82019 0.34529
 N71 N 0.88317 0.82658 0.33093
 C72 C 0.87492 0.84167 0.32561
 C73 C 0.84519 0.87126 0.32469
 N74 N 0.83030 0.87932 0.32930
 C75 C 0.82423 0.87047 0.34376
 C76 C 0.82332 0.83844 0.37358
 N77 N 0.82878 0.82324 0.38163
 C78 C 0.84370 0.81832 0.37402
 H79 H 0.87746 0.80811 0.35249
 H80 H 0.87825 0.85012 0.31460
 H81 H 0.85343 0.87500 0.31392
 H82 H 0.81236 0.87313 0.35043
 H83 H 0.81155 0.84530 0.37646
 H84 H 0.85114 0.80672 0.37758
 C85 C 0.63911 0.67286 0.34577
 C86 C 0.65228 0.67185 0.35811
 C87 C 0.66435 0.65852 0.35696
 C88 C 0.66350 0.64608 0.34356
 C89 C 0.65061 0.64709 0.33139
 C90 C 0.63830 0.66054 0.33253
 C91 C 0.62596 0.68471 0.34315
 N92 N 0.61719 0.67990 0.32866
 C93 C 0.62473 0.66511 0.32211
 C94 C 0.65352 0.63391 0.31943
 N95 N 0.66790 0.62494 0.32406
 C96 C 0.67404 0.63234 0.33885
 C97 C 0.67599 0.66113 0.36999
 N98 N 0.67143 0.67579 0.37908
 C99 C 0.65686 0.68240 0.37191
 H100 H 0.62306 0.69602 0.35123
 H101 H 0.62098 0.65841 0.31032
 H102 H 0.64578 0.63119 0.30811
 H103 H 0.68569 0.62848 0.34540
 H104 H 0.68704 0.65291 0.37256
 H105 H 0.65036 0.69433 0.37603
 C106 C 0.64919 0.17105 -0.15845
 C107 C 0.66213 0.17134 -0.14585
 C108 C 0.67493 0.15879 -0.14631
 C109 C 0.67505 0.14587 -0.15929
 C110 C 0.66236 0.14550 -0.17165
 C111 C 0.64924 0.15824 -0.17121
 C112 C 0.63536 0.18182 -0.16143
 N113 N 0.62676 0.17600 -0.17574
 C114 C 0.63534 0.16145 -0.18170
 C115 C 0.66618 0.13176 -0.18278
 N116 N 0.68102 0.12382 -0.17754
 C117 C 0.68633 0.13255 -0.16304
 C118 C 0.68599 0.16240 -0.13298
 N119 N 0.68032 0.17695 -0.12436
 C120 C 0.66565 0.18248 -0.13216
 H121 H 0.63193 0.19296 -0.15337
 H122 H 0.63216 0.15381 -0.19308
 H123 H 0.65877 0.12834 -0.19412
 H124 H 0.69754 0.12960 -0.15539
 H125 H 0.69732 0.15486 -0.12981
 H126 H 0.65828 0.19400 -0.12847
 C127 C 0.14311 0.66488 -0.15932
 C128 C 0.15556 0.66629 -0.14633
 C129 C 0.16890 0.65431 -0.14571
 C130 C 0.17001 0.64080 -0.15810
 C131 C 0.15778 0.63940 -0.17086
 C132 C 0.14423 0.65160 -0.17151
 C133 C 0.12904 0.67498 -0.16340
 N134 N 0.12144 0.66829 -0.17792
 C135 C 0.13083 0.65387 -0.18285
 C136 C 0.16237 0.62540 -0.18127
 N137 N 0.17723 0.61815 -0.17522
 C138 C 0.18184 0.62769 -0.16094
 C139 C 0.17930 0.65919 -0.13218
 N140 N 0.17263 0.67388 -0.12456
 C141 C 0.15807 0.67827 -0.13317
 H142 H 0.12516 0.68668 -0.15639
 H143 H 0.12832 0.64538 -0.19381
 H144 H 0.15541 0.62130 -0.19267
 H145 H 0.19292 0.62545 -0.15289
 H146 H 0.19112 0.65278 -0.12851
 H147 H 0.14988 0.68939 -0.13013
 C148 C 0.14347 0.17332 0.33939
 C149 C 0.15590 0.17375 0.35250
 C150 C 0.16881 0.16128 0.35271
 C151 C 0.16953 0.14825 0.33982
 C152 C 0.15733 0.14776 0.32695
 C153 C 0.14420 0.16047 0.32671
 C154 C 0.12970 0.18400 0.33569
 N155 N 0.12190 0.17808 0.32094
 C156 C 0.13087 0.16358 0.31550
 C157 C 0.16145 0.13389 0.31615
 N158 N 0.17599 0.12587 0.32207
 C159 C 0.18087 0.13477 0.33665
 C160 C 0.17926 0.16510 0.36652
 N161 N 0.17305 0.17965 0.37475
 C162 C 0.15873 0.18501 0.36622
 H163 H 0.12610 0.19549 0.34317
 H164 H 0.12809 0.15555 0.30427
 H165 H 0.15440 0.13037 0.30460
 H166 H 0.19174 0.13177 0.34477
 H167 H 0.19081 0.15807 0.36999
 H168 H 0.15089 0.19627 0.36971
 C169 C 0.64352 0.33090 0.65777
 C170 C 0.65656 0.33139 0.64522
 C171 C 0.66947 0.34377 0.64635
 C172 C 0.66945 0.35589 0.66016
 C173 C 0.65656 0.35534 0.67256
 C174 C 0.64349 0.34277 0.67135
 C175 C 0.63001 0.31961 0.66039
 N176 N 0.62175 0.32426 0.67531
 C177 C 0.62992 0.33850 0.68207
 C178 C 0.66014 0.36796 0.68480
 N179 N 0.67490 0.37621 0.68023
 C180 C 0.68066 0.36891 0.66513
 C181 C 0.68078 0.34038 0.63293
 N182 N 0.67505 0.32619 0.62384
 C183 C 0.66020 0.32073 0.63128
 H184 H 0.62661 0.30868 0.65207
 H185 H 0.62669 0.34487 0.69425
 H186 H 0.65251 0.37087 0.69623
 H187 H 0.69239 0.37244 0.65848
 H188 H 0.69261 0.34730 0.63042
 H189 H 0.65261 0.30964 0.62701
 C190 C 0.64105 0.83572 1.15711
 C191 C 0.65341 0.83486 1.14384
 C192 C 0.66703 0.84643 1.14386
 C193 C 0.66853 0.85894 1.15716
 C194 C 0.65638 0.85977 1.17024
 C195 C 0.64253 0.84803 1.17020
 C196 C 0.62679 0.82576 1.16074
 N197 N 0.61942 0.83162 1.17583
 C198 C 0.62916 0.84535 1.18158
 C199 C 0.66145 0.87270 1.18166
 N200 N 0.67641 0.87971 1.17583
 C201 C 0.68077 0.87133 1.16081
 C202 C 0.67732 0.84216 1.12994
 N203 N 0.67033 0.82824 1.12144
 C204 C 0.65567 0.82371 1.12989
 H205 H 0.62260 0.81476 1.15296
 H206 H 0.62697 0.85305 1.19320
 H207 H 0.65493 0.87637 1.19358
 H208 H 0.69203 0.87402 1.15303
 H209 H 0.68933 0.84839 1.12663
 H210 H 0.64726 0.81303 1.12626
 C211 C 0.14465 0.33153 1.15561
 C212 C 0.15736 0.33037 1.14272
 C213 C 0.17055 0.34247 1.14235
 C214 C 0.17127 0.35585 1.15489
 C215 C 0.15879 0.35696 1.16761
 C216 C 0.14539 0.34466 1.16796
 C217 C 0.13061 0.32128 1.15944
 N218 N 0.12266 0.32777 1.17395
 C219 C 0.13181 0.34218 1.17912
 C220 C 0.16308 0.37079 1.17833
 N221 N 0.17788 0.37810 1.17242
 C222 C 0.18293 0.36900 1.15805
 C223 C 0.18133 0.33777 1.12896
 N224 N 0.17504 0.32306 1.12118
 C225 C 0.16034 0.31849 1.12954
 H226 H 0.12696 0.30966 1.15224
 H227 H 0.12901 0.35055 1.19013
 H228 H 0.15613 0.37485 1.18985
 H229 H 0.19425 0.37169 1.15037
 H230 H 0.19318 0.34426 1.12554
 H231 H 0.15240 0.30728 1.12636
 C232 C 0.14278 0.82762 0.65583
 C233 C 0.15593 0.82808 0.64342
 C234 C 0.16835 0.84100 0.64417
 C235 C 0.16773 0.85371 0.65744
 C236 C 0.15481 0.85316 0.66973
 C237 C 0.14220 0.84004 0.66893
 C238 C 0.12958 0.81601 0.65867
 N239 N 0.12093 0.82099 0.67325
 C240 C 0.12857 0.83576 0.67958
 C241 C 0.15780 0.86650 0.68139
 N242 N 0.17228 0.87535 0.67659
 C243 C 0.17833 0.86746 0.66182
 C244 C 0.17993 0.83751 0.63104
 N245 N 0.17483 0.82274 0.62246
 C246 C 0.16010 0.81699 0.62996
 H247 H 0.12660 0.80468 0.65070
 H248 H 0.12491 0.84256 0.69139
 H249 H 0.14970 0.86944 0.69243
 H250 H 0.18990 0.87088 0.65487
 H251 H 0.19153 0.84480 0.62839
 H252 H 0.15295 0.80545 0.62606
 C253 C 0.36301 0.66553 0.65631
 C254 C 0.35020 0.66607 0.64363
 C255 C 0.33760 0.65327 0.64365
 C256 C 0.33766 0.63969 0.65644
 C257 C 0.35035 0.63917 0.66890
 C258 C 0.36307 0.65216 0.66884
 C259 C 0.37605 0.67696 0.66023
 N260 N 0.38398 0.67088 0.67491
 C261 C 0.37612 0.65564 0.68018
 C262 C 0.34674 0.62542 0.68027
 N263 N 0.33210 0.61750 0.67515
 C264 C 0.32649 0.62613 0.66051
 C265 C 0.32643 0.65776 0.63045
 N266 N 0.33196 0.67298 0.62249
 C267 C 0.34652 0.67808 0.63051
 H268 H 0.37899 0.68924 0.65335
 H269 H 0.37940 0.64776 0.69163
 H270 H 0.35420 0.62163 0.69159
 H271 H 0.31480 0.62326 0.65369
 H272 H 0.31485 0.65078 0.62728
 H273 H 0.35391 0.68975 0.62714
 C274 C 0.36414 0.16404 1.15590
 C275 C 0.35156 0.16444 1.14295
 C276 C 0.33891 0.15168 1.14295
 C277 C 0.33868 0.13831 1.15596
 C278 C 0.35106 0.13799 1.16865
 C279 C 0.36386 0.15087 1.16863
 C280 C 0.37723 0.17541 1.15995
 N281 N 0.38480 0.16942 1.17488
 C282 C 0.37669 0.15435 1.18018
 C283 C 0.34717 0.12450 1.18021
 N284 N 0.33258 0.11639 1.17501
 C285 C 0.32741 0.12485 1.16001
 C286 C 0.32796 0.15600 1.12954
 N287 N 0.33363 0.17107 1.12142
 C288 C 0.34809 0.17627 1.12958
 H289 H 0.38047 0.18754 1.15296
 H290 H 0.37969 0.14659 1.19178
 H291 H 0.35467 0.12113 1.19159
 H292 H 0.31594 0.12214 1.15279
 H293 H 0.31639 0.14901 1.12636
 H294 H 0.35553 0.18789 1.12617
 C295 C 0.85993 0.67537 1.15507
 C296 C 0.84710 0.67572 1.14241
 C297 C 0.83433 0.66313 1.14287
 C298 C 0.83425 0.64997 1.15605
 C299 C 0.84692 0.64964 1.16855
 C300 C 0.85987 0.66243 1.16805
 C301 C 0.87331 0.68654 1.15834
 N302 N 0.88139 0.68076 1.17305
 C303 C 0.87324 0.66595 1.17903
 C304 C 0.84322 0.63605 1.18012
 N305 N 0.82859 0.62807 1.17501
 C306 C 0.82304 0.63653 1.16026
 C307 C 0.82320 0.66733 1.12956
 N308 N 0.82890 0.68220 1.12111
 C309 C 0.84355 0.68735 1.12891
 H310 H 0.87676 0.69815 1.15062
 H311 H 0.87635 0.65864 1.19088
 H312 H 0.85066 0.63231 1.19147
 H313 H 0.81143 0.63353 1.15336
 H314 H 0.81152 0.66042 1.12668
 H315 H 0.85107 0.69882 1.12516
 C316 C 0.86190 0.17290 0.65113
 C317 C 0.84882 0.17290 0.63877
 C318 C 0.83654 0.15979 0.63928
 C319 C 0.83727 0.14642 0.65224
 C320 C 0.85025 0.14642 0.66441
 C321 C 0.86267 0.15978 0.66382
 C322 C 0.87479 0.18466 0.65432
 N323 N 0.88355 0.17915 0.66879
 C324 C 0.87611 0.16375 0.67455
 C325 C 0.84732 0.13254 0.67588
 N326 N 0.83285 0.12407 0.67105
 C327 C 0.82665 0.13250 0.65656
 C328 C 0.82500 0.16378 0.62628
 N329 N 0.82999 0.17901 0.61797
 C330 C 0.84459 0.18459 0.62556
 H331 H 0.87731 0.19642 0.64648
 H332 H 0.87953 0.15619 0.68613
 H333 H 0.85515 0.12897 0.68700
 H334 H 0.81497 0.12918 0.64995
 H335 H 0.81352 0.15645 0.62349
 H336 H 0.85166 0.19638 0.62184
 C337 C 0.33269 0.34899 0.65656
 C338 C 0.33274 0.33551 0.64416
 C339 C 0.34517 0.32250 0.64448
 C340 C 0.35787 0.32292 0.65737
 C341 C 0.35778 0.33628 0.66965
 C342 C 0.34507 0.34941 0.66927
 C343 C 0.32149 0.36259 0.65978
 N344 N 0.32665 0.37132 0.67426
 C345 C 0.34116 0.36336 0.68011
 C346 C 0.37104 0.33303 0.68089
 N347 N 0.37925 0.31801 0.67586
 C348 C 0.37126 0.31175 0.66144
 C349 C 0.34131 0.31071 0.63139
 N350 N 0.32679 0.31629 0.62333
 C351 C 0.32160 0.33151 0.63107
 H352 H 0.31029 0.36572 0.65216
 H353 H 0.34803 0.36695 0.69177
 H354 H 0.37443 0.34110 0.69194
 H355 H 0.37462 0.29972 0.65465
 H356 H 0.34822 0.29867 0.62838
 H357 H 0.31041 0.33915 0.62755
 C358 C 0.32770 0.85382 0.15586
 C359 C 0.32705 0.84110 0.14266
 C360 C 0.33967 0.82836 0.14139
 C361 C 0.35317 0.82816 0.15336
 C362 C 0.35379 0.84070 0.16639
 C363 C 0.34094 0.85358 0.16767
 C364 C 0.31683 0.86730 0.16059
 N365 N 0.32312 0.87525 0.17504
 C366 C 0.33791 0.86692 0.17942
 C367 C 0.36789 0.83699 0.17640
 N368 N 0.37591 0.82251 0.16979
 C369 C 0.36694 0.81705 0.15567
 C370 C 0.33535 0.81743 0.12781
 N371 N 0.32041 0.82323 0.12082
 C372 C 0.31533 0.83776 0.12986
 H373 H 0.30494 0.87067 0.15426
 H374 H 0.34591 0.87025 0.19038
 H375 H 0.37169 0.84407 0.18795
 H376 H 0.37014 0.80582 0.14760
 H377 H 0.34236 0.80582 0.12370
 H378 H 0.30391 0.84543 0.12737
 C379 C 0.82946 0.35833 0.15822
 C380 C 0.82929 0.34534 0.14532
 C381 C 0.84179 0.33245 0.14494
 C382 C 0.85475 0.33248 0.15753
 C383 C 0.85493 0.34534 0.17032
 C384 C 0.84212 0.35838 0.17069
 C385 C 0.81832 0.37177 0.16206
 N386 N 0.82375 0.38006 0.17668
 C387 C 0.83839 0.37200 0.18202
 C388 C 0.86856 0.34168 0.18105
 N389 N 0.87667 0.32695 0.17512
 C390 C 0.86826 0.32129 0.16072
 C391 C 0.83775 0.32106 0.13159
 N392 N 0.82305 0.32676 0.12397
 C393 C 0.81791 0.34168 0.13231
 H394 H 0.80701 0.37515 0.15472
 H395 H 0.84551 0.37536 0.19359
 H396 H 0.87201 0.34899 0.19259
 H397 H 0.87168 0.30987 0.15301
 H398 H 0.84468 0.30917 0.12816
 H399 H 0.80661 0.34934 0.12929
 C400 C 0.83372 0.85283 0.65421
 C401 C 0.83419 0.83964 0.64145
 C402 C 0.84678 0.82686 0.64195
 C403 C 0.85905 0.82705 0.65515
 C404 C 0.85864 0.83999 0.66781
 C405 C 0.84581 0.85306 0.66732
 C406 C 0.82247 0.86641 0.65731
 N407 N 0.82730 0.87497 0.67201
 C408 C 0.84162 0.86687 0.67820
 C409 C 0.87162 0.83615 0.67939
 N410 N 0.87974 0.82116 0.67405
 C411 C 0.87211 0.81563 0.65919
 C412 C 0.84355 0.81513 0.62877
 N413 N 0.82921 0.82041 0.62026
 C414 C 0.82345 0.83548 0.62794
 H415 H 0.81155 0.86976 0.64935
 H416 H 0.84825 0.87040 0.69003
 H417 H 0.87454 0.84338 0.69114
 H418 H 0.87570 0.80403 0.65180
 H419 H 0.85102 0.80346 0.62580
 H420 H 0.81189 0.84250 0.62448
 C421 C 0.66159 0.63753 0.65757
 C422 C 0.66285 0.65027 0.64407
 C423 C 0.65095 0.66376 0.64275
 C424 C 0.63760 0.66470 0.65495
 C425 C 0.63636 0.65214 0.66825
 C426 C 0.64844 0.63848 0.66958
 C427 C 0.67194 0.62368 0.66272
 N428 N 0.66541 0.61619 0.67758
 C429 C 0.65098 0.62520 0.68181
 C430 C 0.62289 0.65690 0.67872
 N431 N 0.61586 0.67208 0.67214
 C432 C 0.62481 0.67691 0.65756
 C433 C 0.65593 0.67470 0.62910
 N434 N 0.67057 0.66819 0.62209
 C435 C 0.67483 0.65320 0.63121
 H436 H 0.68374 0.61984 0.65646
 H437 H 0.64299 0.62249 0.69309
 H438 H 0.61897 0.65014 0.69065
 H439 H 0.62237 0.68856 0.64950
 H440 H 0.64964 0.68686 0.62502
 H441 H 0.68591 0.64502 0.62881
 C442 C 0.66453 0.14031 0.15357
 C443 C 0.66296 0.15362 0.14069
 C444 C 0.64987 0.16585 0.14161
 C445 C 0.63809 0.16486 0.15544
 C446 C 0.63964 0.15170 0.16813
 C447 C 0.65296 0.13933 0.16719
 C448 C 0.67662 0.12741 0.15649
 N449 N 0.67274 0.11860 0.17163
 C450 C 0.65823 0.12581 0.17823
 C451 C 0.62708 0.15453 0.18037
 N452 N 0.61793 0.16910 0.17546
 C453 C 0.62462 0.17548 0.16019
 C454 C 0.65216 0.17782 0.12803
 N455 N 0.66635 0.17315 0.11890
 C456 C 0.67299 0.15832 0.12662
 H457 H 0.68753 0.12480 0.14823
 H458 H 0.65227 0.12202 0.19050
 H459 H 0.62488 0.14656 0.19204
 H460 H 0.62042 0.18734 0.15330
 H461 H 0.64417 0.18921 0.12518
 H462 H 0.68468 0.15180 0.12277
 C463 C 0.16113 0.64113 0.15119
 C464 C 0.15975 0.65385 0.13770
 C465 C 0.14668 0.66612 0.13798
 C466 C 0.13485 0.66588 0.15172
 C467 C 0.13617 0.65338 0.16507
 C468 C 0.14944 0.64086 0.16479
 C469 C 0.17318 0.62840 0.15486
 N470 N 0.16917 0.62035 0.17037
 C471 C 0.15462 0.62790 0.17651
 C472 C 0.12378 0.65732 0.17725
 N473 N 0.11511 0.67196 0.17161
 C474 C 0.12180 0.67718 0.15596
 C475 C 0.14924 0.67773 0.12419
 N476 N 0.16362 0.67288 0.11552
 C477 C 0.17009 0.65820 0.12370
 H478 H 0.18417 0.62536 0.14685
 H479 H 0.14858 0.62470 0.18890
 H480 H 0.12177 0.65055 0.18967
 H481 H 0.11772 0.68860 0.14830
 H482 H 0.14136 0.68911 0.12100
 H483 H 0.18191 0.65168 0.12031
 C484 C 0.16056 0.14032 0.65210
 C485 C 0.16081 0.15322 0.63864
 C486 C 0.14809 0.16591 0.63778
 C487 C 0.13502 0.16597 0.65029
 C488 C 0.13477 0.15333 0.66353
 C489 C 0.14762 0.14042 0.66443
 C490 C 0.17175 0.12705 0.65694
 N491 N 0.16592 0.11914 0.67191
 C492 C 0.15114 0.12727 0.67652
 C493 C 0.12151 0.15755 0.67457
 N494 N 0.11379 0.17252 0.66836
 C495 C 0.12197 0.17767 0.65344
 C496 C 0.15210 0.17746 0.62436
 N497 N 0.16701 0.17220 0.61696
 C498 C 0.17240 0.15731 0.62559
 H499 H 0.18358 0.12387 0.65039
 H500 H 0.14351 0.12400 0.68792
 H501 H 0.11833 0.15074 0.68671
 H502 H 0.11895 0.18933 0.64562
 H503 H 0.14478 0.18903 0.62046
 H504 H 0.18423 0.15039 0.62310
 C505 C 0.33265 0.64514 0.34400
 C506 C 0.33394 0.65839 0.35665
 C507 C 0.34712 0.67049 0.35578
 C508 C 0.35923 0.66949 0.34231
 C509 C 0.35798 0.65643 0.32986
 C510 C 0.34459 0.64416 0.33072
 C511 C 0.32082 0.63207 0.34118
 N512 N 0.32523 0.62316 0.32647
 C513 C 0.33981 0.63051 0.32003
 C514 C 0.37104 0.65908 0.31807
 N515 N 0.38019 0.67347 0.32301
 C516 C 0.37299 0.67989 0.33787
 C517 C 0.34483 0.68218 0.36926
 N518 N 0.33056 0.67751 0.37832
 C519 C 0.32384 0.66293 0.37065
 H520 H 0.30979 0.62932 0.34928
 H521 H 0.34623 0.62661 0.30813
 H522 H 0.37361 0.65108 0.30671
 H523 H 0.37709 0.69159 0.34471
 H524 H 0.35300 0.69328 0.37221
 H525 H 0.31218 0.65637 0.37461
 C526 C 0.33145 0.14199 0.84242
 C527 C 0.33199 0.15504 0.85524
 C528 C 0.34496 0.16739 0.85526
 C529 C 0.35772 0.16671 0.84234
 C530 C 0.35717 0.15375 0.82967
 C531 C 0.34390 0.14131 0.82967
 C532 C 0.31968 0.12914 0.83878
 N533 N 0.32455 0.12063 0.82401
 C534 C 0.33946 0.12796 0.81839
 C535 C 0.37067 0.15668 0.81852
 N536 N 0.37945 0.17111 0.82401
 C537 C 0.37157 0.17730 0.83861
 C538 C 0.34157 0.17894 0.86872
 N539 N 0.32681 0.17387 0.87672
 C540 C 0.32099 0.15920 0.86854
 H541 H 0.30828 0.12637 0.84631
 H542 H 0.34625 0.12437 0.80660
 H543 H 0.37381 0.14879 0.80723
 H544 H 0.37531 0.18895 0.84576
 H545 H 0.34899 0.19049 0.87203
 H546 H 0.30950 0.15202 0.87191
 C547 C 0.82983 0.64627 0.84720
 C548 C 0.83113 0.65989 0.85945
 C549 C 0.84443 0.67184 0.85840
 C550 C 0.85670 0.67028 0.84511
 C551 C 0.85541 0.65683 0.83305
 C552 C 0.84189 0.64475 0.83410
 C553 C 0.81790 0.63324 0.84463
 N554 N 0.82237 0.62384 0.83024
 C555 C 0.83708 0.63084 0.82376
 C556 C 0.86863 0.65887 0.82137
 N557 N 0.87794 0.67326 0.82596
 C558 C 0.87070 0.68030 0.84051
 C559 C 0.84205 0.68396 0.87151
 N560 N 0.82762 0.67966 0.88050
 C561 C 0.82090 0.66492 0.87316
 H562 H 0.80677 0.63086 0.85270
 H563 H 0.84359 0.62653 0.81205
 H564 H 0.87122 0.65042 0.81034
 H565 H 0.87498 0.69213 0.84704
 H566 H 0.85023 0.69511 0.87425
 H567 H 0.80913 0.65858 0.87712
 C568 C 0.83239 0.14832 0.34159
 C569 C 0.83158 0.16133 0.35452
 C570 C 0.84390 0.17437 0.35519
 C571 C 0.85722 0.17459 0.34290
 C572 C 0.85801 0.16177 0.33015
 C573 C 0.84549 0.14856 0.32948
 C574 C 0.82180 0.13451 0.33737
 N575 N 0.82813 0.12636 0.32296
 C576 C 0.84266 0.13490 0.31810
 C577 C 0.87181 0.16565 0.31964
 N578 N 0.87947 0.18052 0.32568
 C579 C 0.87059 0.18603 0.33995
 C580 C 0.83947 0.18556 0.36859
 N581 N 0.82476 0.17963 0.37605
 C582 C 0.81992 0.16476 0.36749
 H583 H 0.81006 0.13104 0.34402
 H584 H 0.85063 0.13151 0.30705
 H585 H 0.87562 0.15843 0.30813
 H586 H 0.87354 0.19755 0.34766
 H587 H 0.84624 0.19743 0.37224
 H588 H 0.80871 0.15694 0.37041
 C589 C 0.66277 0.36239 0.34344
 C590 C 0.66288 0.34968 0.35708
 C591 C 0.65019 0.33704 0.35802
 C592 C 0.63733 0.33680 0.34544
 C593 C 0.63722 0.34920 0.33198
 C594 C 0.65003 0.36212 0.33100
 C595 C 0.67387 0.37573 0.33862
 N596 N 0.66817 0.38355 0.32358
 C597 C 0.65359 0.37524 0.31887
 C598 C 0.62409 0.34480 0.32099
 N599 N 0.61631 0.32997 0.32747
 C600 C 0.62434 0.32511 0.34250
 C601 C 0.65398 0.32569 0.37164
 N602 N 0.66875 0.33098 0.37907
 C603 C 0.67426 0.34575 0.37028
 H604 H 0.68550 0.37911 0.34531
 H605 H 0.64607 0.37845 0.30743
 H606 H 0.62098 0.35142 0.30875
 H607 H 0.62122 0.31367 0.35060
 H608 H 0.64658 0.31422 0.37563
 H609 H 0.68603 0.35267 0.37279
 C610 C 0.66538 0.86076 0.84150
 C611 C 0.66516 0.84806 0.85513
 C612 C 0.65228 0.83563 0.85597
 C613 C 0.63949 0.83565 0.84329
 C614 C 0.63968 0.84809 0.82986
 C615 C 0.65272 0.86076 0.82897
 C616 C 0.67676 0.87386 0.83678
 N617 N 0.67134 0.88180 0.82171
 C618 C 0.65662 0.87382 0.81689
 C619 C 0.62645 0.84409 0.81884
 N620 N 0.61832 0.82944 0.82526
 C621 C 0.62622 0.82430 0.84028
 C622 C 0.65575 0.82430 0.86973
 N623 N 0.67048 0.82947 0.87734
 C624 C 0.67631 0.84407 0.86851
 H625 H 0.68842 0.87694 0.84356
 H626 H 0.64924 0.87717 0.80539
 H627 H 0.62347 0.85086 0.80665
 H628 H 0.62279 0.81292 0.84834
 H629 H 0.64815 0.81299 0.87374
 H630 H 0.68811 0.85088 0.87116
 C631 C 0.16667 0.35280 0.84606
 C632 C 0.16666 0.33986 0.85947
 C633 C 0.15371 0.32749 0.86039
 C634 C 0.14065 0.32781 0.84800
 C635 C 0.14065 0.34052 0.83481
 C636 C 0.15375 0.35310 0.83384
 C637 C 0.17799 0.36598 0.84135
 N638 N 0.17225 0.37425 0.82657
 C639 C 0.15740 0.36641 0.82194
 C640 C 0.12711 0.33691 0.82408
 N641 N 0.11893 0.32227 0.83043
 C642 C 0.12715 0.31669 0.84512
 C643 C 0.15736 0.31598 0.87396
 N644 N 0.17225 0.32098 0.88137
 C645 C 0.17800 0.33564 0.87260
 H646 H 0.18979 0.36893 0.84793
 H647 H 0.14977 0.37004 0.81070
 H648 H 0.12393 0.34400 0.81212
 H649 H 0.12376 0.30521 0.85306
 H650 H 0.14973 0.30470 0.87801
 H651 H 0.18987 0.34238 0.87513
 C652 C 0.16409 0.85793 0.34785
 C653 C 0.16564 0.84492 0.36103
 C654 C 0.15401 0.83122 0.36223
 C655 C 0.14062 0.83035 0.35020
 C656 C 0.13909 0.84320 0.33719
 C657 C 0.15094 0.85707 0.33598
 C658 C 0.17412 0.87211 0.34302
 N659 N 0.16741 0.87992 0.32846
 C660 C 0.15318 0.87077 0.32410
 C661 C 0.12551 0.83858 0.32697
 N662 N 0.11869 0.82324 0.33342
 C663 C 0.12790 0.81814 0.34766
 C664 C 0.15922 0.82012 0.37565
 N665 N 0.17375 0.82677 0.38260
 C666 C 0.17768 0.84198 0.37371
 H667 H 0.18584 0.87597 0.34928
 H668 H 0.14512 0.87369 0.31299
 H669 H 0.12129 0.84562 0.31533
 H670 H 0.12562 0.80636 0.35559
 H671 H 0.15318 0.80781 0.37961
 H672 H 0.18858 0.85033 0.37616
 O673 O 0.24633 1.01605 0.27291
 O674 O 0.26913 0.98023 0.25071
 O675 O 0.27106 1.01462 0.25026
 O676 O 0.24388 0.98164 0.27265
 O677 O 0.22560 0.98327 0.25088
 O678 O 0.25275 1.01634 0.22852
 O679 O 0.25098 0.98169 0.22883
 O680 O 0.22800 1.01792 0.25120
 Cu681 Cu 0.25941 0.99799 0.26381
 Cu682 Cu 0.23748 0.99995 0.23767
 C683 C 0.23334 1.02319 0.26592
 C684 C 0.26403 0.97479 0.23601
 C685 C 0.26655 1.02114 0.23557
 C686 C 0.23011 0.97674 0.26555
 O687 O 0.27338 0.47669 0.74827
 O688 O 0.25099 0.51140 0.77296
 O689 O 0.24921 0.47689 0.77165
 O690 O 0.27495 0.51125 0.74938
 O691 O 0.25580 0.51341 0.72846
 O692 O 0.22997 0.47919 0.75082
 O693 O 0.23186 0.51374 0.75203
 O694 O 0.25411 0.47886 0.72747
 Cu695 Cu 0.26406 0.49385 0.76265
 Cu696 Cu 0.24101 0.49651 0.73761
 C697 C 0.26751 0.47175 0.73367
 C698 C 0.23765 0.51858 0.76670
 C699 C 0.23519 0.47212 0.76500
 C700 C 0.26977 0.51826 0.73515
 O701 O 0.75731 -0.01602 0.27290
 O702 O 0.73322 0.01769 0.24776
 O703 O 0.73393 -0.01696 0.24886
 O704 O 0.75713 0.01877 0.27127
 O705 O 0.77660 0.01849 0.25040
 O706 O 0.75379 -0.01722 0.22840
 O707 O 0.75285 0.01727 0.22706
 O708 O 0.77709 -0.01593 0.25233
 Cu709 Cu 0.74343 0.00090 0.26230
 Cu710 Cu 0.76704 0.00061 0.23749
 C711 C 0.77135 -0.02174 0.26687
 C712 C 0.73892 0.02325 0.23311
 C713 C 0.73998 -0.02322 0.23477
 C714 C 0.77081 0.02481 0.26455
 O715 O 0.75063 0.48202 0.78058
 O716 O 0.72356 0.51498 0.75783
 O717 O 0.72609 0.48049 0.75798
 O718 O 0.74792 0.51656 0.78065
 O719 O 0.76665 0.51849 0.75914
 O720 O 0.74486 0.48208 0.73648
 O721 O 0.74228 0.51659 0.73630
 O722 O 0.76941 0.48408 0.75912
 Cu723 Cu 0.73517 0.49834 0.77142
 Cu724 Cu 0.75768 0.50049 0.74560
 C725 C 0.76469 0.47743 0.77369
 C726 C 0.72831 0.52142 0.74316
 C727 C 0.73172 0.47506 0.74340
 C728 C 0.76098 0.52375 0.77378
 O729 O 0.25245 0.48372 0.27100
 O730 O 0.22819 0.51810 0.24669
 O731 O 0.22964 0.48344 0.24639
 O732 O 0.25081 0.51838 0.27152
 O733 O 0.27121 0.51988 0.25165
 O734 O 0.25010 0.48487 0.22658
 O735 O 0.24866 0.51939 0.22690
 O736 O 0.27278 0.48540 0.25107
 Cu737 Cu 0.23822 0.50078 0.26090
 Cu738 Cu 0.26272 0.50255 0.23707
 C739 C 0.26677 0.47864 0.26509
 C740 C 0.23434 0.52463 0.23261
 C741 C 0.23630 0.47810 0.23222
 C742 C 0.26462 0.52514 0.26588
 O743 O 0.77464 0.98224 0.74361
 O744 O 0.75221 1.01703 0.76803
 O745 O 0.75026 0.98262 0.76669
 O746 O 0.77654 1.01682 0.74484
 O747 O 0.75764 1.01914 0.72369
 O748 O 0.73125 0.98516 0.74566
 O749 O 0.73333 1.01967 0.74689
 O750 O 0.75561 0.98454 0.72258
 Cu751 Cu 0.76533 0.99945 0.75788
 Cu752 Cu 0.74258 1.00237 0.73257
 C753 C 0.76886 0.97730 0.72897
 C754 C 0.73898 1.02434 0.76168
 C755 C 0.73625 0.97803 0.75990
 C756 C 0.77156 1.02390 0.73057
 O757 O 0.72568 0.48845 0.24736
 O758 O 0.75169 0.52324 0.22595
 O759 O 0.75091 0.48864 0.22539
 O760 O 0.72596 0.52298 0.24743
 O761 O 0.74376 0.52219 0.26964
 O762 O 0.76886 0.48747 0.24746
 O763 O 0.76956 0.52216 0.24810
 O764 O 0.74357 0.48758 0.26950
 Cu765 Cu 0.73680 0.50593 0.23430
 Cu766 Cu 0.75825 0.50479 0.26089
 C767 C 0.73022 0.48202 0.26208
 C768 C 0.76507 0.52870 0.23342
 C769 C 0.76401 0.48202 0.23263
 C770 C 0.73053 0.52849 0.26229
 O771 O 0.24939 -0.01826 0.77229
 O772 O 0.22362 0.01599 0.74987
 O773 O 0.22455 -0.01853 0.74995
 O774 O 0.24826 0.01632 0.77236
 O775 O 0.26680 0.01754 0.75064
 O776 O 0.24326 -0.01799 0.72836
 O777 O 0.24209 0.01672 0.72807
 O778 O 0.26812 -0.01697 0.75073
 Cu779 Cu 0.23460 -0.00121 0.76329
 Cu780 Cu 0.25692 -0.00010 0.73725
 C781 C 0.26322 -0.02343 0.76533
 C782 C 0.22845 0.02223 0.73514
 C783 C 0.22985 -0.02432 0.73539
 C784 C 0.26151 0.02298 0.76537
 O785 O 0.24880 0.26840 0.98410
 O786 O 0.27508 0.24640 1.01774
 O787 O 0.27399 0.24594 0.98356
 O788 O 0.24951 0.26852 1.01823
 O789 O 0.23157 0.24606 1.01925
 O790 O 0.25585 0.22365 0.98491
 O791 O 0.25705 0.22401 1.01896
 O792 O 0.23076 0.24602 0.98528
 Cu793 Cu 0.26367 0.25956 1.00082
 Cu794 Cu 0.24203 0.23269 1.00223
 C795 C 0.23532 0.26094 0.97886
 C796 C 0.27054 0.23149 1.02418
 C797 C 0.26893 0.23094 0.97821
 C798 C 0.23633 0.26111 1.02465
 O799 O 0.23389 0.75117 0.51826
 O800 O 0.25936 0.72978 0.48400
 O801 O 0.25892 0.72855 0.51816
 O802 O 0.23435 0.75248 0.48420
 O803 O 0.25272 0.77455 0.48500
 O804 O 0.27721 0.75070 0.51871
 O805 O 0.27767 0.75190 0.48461
 O806 O 0.25219 0.77330 0.51907
 Cu807 Cu 0.24480 0.73827 0.50109
 Cu808 Cu 0.26679 0.76482 0.50191
 C809 C 0.23867 0.76583 0.52459
 C810 C 0.27282 0.73722 0.47834
 C811 C 0.27224 0.73562 0.52431
 C812 C 0.23938 0.76761 0.47877
 O813 O 0.24726 0.77332 0.01445
 O814 O 0.22443 0.75091 -0.02068
 O815 O 0.22247 0.75066 0.01329
 O816 O 0.24977 0.77299 -0.01956
 O817 O 0.26793 0.75066 -0.01796
 O818 O 0.24071 0.72839 0.01477
 O819 O 0.24258 0.72855 -0.01929
 O820 O 0.26558 0.75112 0.01609
 Cu821 Cu 0.23418 0.76421 -0.00328
 Cu822 Cu 0.25603 0.73745 -0.00145
 C823 C 0.26025 0.76609 0.02137
 C824 C 0.22956 0.73593 -0.02605
 C825 C 0.22696 0.73570 0.01968
 C826 C 0.26350 0.76557 -0.02444
 O827 O 0.27224 0.24811 0.48235
 O828 O 0.24548 0.22556 0.51545
 O829 O 0.24625 0.22675 0.48126
 O830 O 0.27117 0.24729 0.51655
 O831 O 0.25349 0.27008 0.51617
 O832 O 0.22876 0.24971 0.48124
 O833 O 0.22791 0.24845 0.51521
 O834 O 0.25465 0.27098 0.48212
 Cu835 Cu 0.26056 0.23463 0.49890
 Cu836 Cu 0.23947 0.26210 0.49868
 C837 C 0.26798 0.26334 0.47649
 C838 C 0.23214 0.23319 0.52106
 C839 C 0.23325 0.23479 0.47520
 C840 C 0.26644 0.26222 0.52247
 O841 O 0.77063 0.75689 1.01687
 O842 O 0.74497 0.77840 0.98243
 O843 O 0.74448 0.77812 1.01659
 O844 O 0.77090 0.75687 0.98278
 O845 O 0.75361 0.73384 0.98305
 O846 O 0.72719 0.75509 1.01668
 O847 O 0.72769 0.75536 0.98260
 O848 O 0.75332 0.73387 1.01713
 Cu849 Cu 0.75947 0.76988 0.99966
 Cu850 Cu 0.73872 0.74224 0.99987
 C851 C 0.76636 0.74175 1.02295
 C852 C 0.73197 0.77051 0.97654
 C853 C 0.73135 0.77019 1.02248
 C854 C 0.76673 0.74172 0.97709
 O855 O 0.75105 0.23183 0.48178
 O856 O 0.72792 0.25488 0.51651
 O857 O 0.72666 0.25508 0.48253
 O858 O 0.75270 0.23207 0.51580
 O859 O 0.77132 0.25392 0.51440
 O860 O 0.74525 0.27696 0.48128
 O861 O 0.74649 0.27679 0.51550
 O862 O 0.76975 0.25359 0.48028
 Cu863 Cu 0.73772 0.24129 0.49927
 Cu864 Cu 0.76008 0.26751 0.49773
 C865 C 0.76428 0.23872 0.47498
 C866 C 0.73323 0.26967 0.52208
 C867 C 0.73153 0.26991 0.47615
 C868 C 0.76645 0.23914 0.52086
 O869 O 0.77263 0.25062 -0.01283
 O870 O 0.74470 0.22851 0.01945
 O871 O 0.74814 0.22770 -0.01448
 O872 O 0.76942 0.25144 0.02105
 O873 O 0.75077 0.27323 0.01840
 O874 O 0.72946 0.24947 -0.01714
 O875 O 0.72610 0.25035 0.01681
 O876 O 0.75402 0.27246 -0.01551
 Cu877 Cu 0.76056 0.23736 0.00359
 Cu878 Cu 0.73822 0.26356 0.00039
 C879 C 0.76807 0.26530 -0.01976
 C880 C 0.73065 0.23566 0.02371
 C881 C 0.73526 0.23454 -0.02199
 C882 C 0.76373 0.26642 0.02581
 O883 O 0.77256 0.74494 0.48443
 O884 O 0.74841 0.72104 0.51849
 O885 O 0.74807 0.72198 0.48445
 O886 O 0.77273 0.74428 0.51839
 O887 O 0.75391 0.76605 0.51885
 O888 O 0.72912 0.74362 0.48478
 O889 O 0.72944 0.74265 0.51900
 O890 O 0.75373 0.76671 0.48467
 Cu891 Cu 0.76231 0.73088 0.50141
 Cu892 Cu 0.73963 0.75694 0.50189
 C893 C 0.76730 0.75985 0.47864
 C894 C 0.73485 0.72773 0.52466
 C895 C 0.73446 0.72900 0.47869
 C896 C 0.76756 0.75897 0.52445
 O897 O 0.98392 0.25596 0.22615
 O898 O 1.01678 0.23147 0.25027
 O899 O 0.98363 0.23250 0.25137
 O900 O 1.01722 0.25638 0.22638
 O901 O 1.01682 0.27747 0.24611
 O902 O 0.98446 0.25327 0.27140
 O903 O 1.01770 0.25252 0.27002
 O904 O 0.98358 0.27673 0.24621
 Cu905 Cu 1.00037 0.24202 0.23654
 Cu906 Cu 1.00069 0.26708 0.26042
 C907 C 0.97787 0.27031 0.23209
 C908 C 1.02302 0.23776 0.26413
 C909 C 0.97828 0.23894 0.26569
 C910 C 1.02276 0.27107 0.23208
 O911 O 0.48553 0.24688 0.72853
 O912 O 0.51978 0.22347 0.75279
 O913 O 0.48646 0.22226 0.75261
 O914 O 0.51875 0.24750 0.72808
 O915 O 0.51862 0.26813 0.74827
 O916 O 0.48545 0.24310 0.77259
 O917 O 0.51867 0.24404 0.77302
 O918 O 0.48539 0.26771 0.74853
 Cu919 Cu 0.50271 0.23294 0.73851
 Cu920 Cu 0.50200 0.25781 0.76261
 C921 C 0.47956 0.26131 0.73451
 C922 C 0.52510 0.22986 0.76707
 C923 C 0.48018 0.22843 0.76661
 C924 C 0.52436 0.26201 0.73398
 O925 O -0.01541 0.27536 0.75315
 O926 O 0.01665 0.25144 0.72770
 O927 O -0.01630 0.25304 0.72747
 O928 O 0.01756 0.27333 0.75359
 O929 O 0.01607 0.25093 0.77243
 O930 O -0.01766 0.23060 0.74627
 O931 O 0.01548 0.22893 0.74644
 O932 O -0.01708 0.25294 0.77196
 Cu933 Cu 0.00074 0.26554 0.73860
 Cu934 Cu -0.00094 0.23859 0.76118
 C935 C -0.02177 0.26832 0.76686
 C936 C 0.02162 0.23614 0.73267
 C937 C -0.02274 0.23833 0.73238
 C938 C 0.02263 0.26557 0.76748
 O939 O 0.51658 0.25091 0.27475
 O940 O 0.48399 0.22606 0.25131
 O941 O 0.51707 0.22549 0.25217
 O942 O 0.48354 0.25151 0.27388
 O943 O 0.48452 0.27128 0.25233
 O944 O 0.51788 0.24520 0.23056
 O945 O 0.48472 0.24578 0.22971
 O946 O 0.51766 0.27071 0.25324
 Cu947 Cu 0.50020 0.23651 0.26518
 Cu948 Cu 0.50129 0.26023 0.23929
 C949 C 0.52276 0.26501 0.26805
 C950 C 0.47870 0.23164 0.23656
 C951 C 0.52324 0.23091 0.23766
 C952 C 0.47827 0.26585 0.26680
 O953 O 1.01728 0.76558 0.74548
 O954 O 0.98398 0.74134 0.77015
 O955 O 1.01734 0.74073 0.76953
 O956 O 0.98396 0.76608 0.74604
 O957 O 0.98372 0.74559 0.72571
 O958 O 1.01658 0.72022 0.74924
 O959 O 0.98348 0.72099 0.74969
 O960 O 1.01684 0.74496 0.72528
 Cu961 Cu 1.00070 0.75548 0.75986
 Cu962 Cu 1.00012 0.73091 0.73545
 C963 C 1.02285 0.75931 0.73120
 C964 C 0.97790 0.72711 0.76402
 C965 C 1.02272 0.72616 0.76333
 C966 C 0.97805 0.76003 0.73187
 O967 O 0.48077 0.75043 0.26879
 O968 O 0.51342 0.77746 0.24632
 O969 O 0.48040 0.77448 0.24405
 O970 O 0.51374 0.75346 0.27108
 O971 O 0.51677 0.73247 0.25147
 O972 O 0.48364 0.75364 0.22431
 O973 O 0.51671 0.75651 0.22671
 O974 O 0.48383 0.72964 0.24898
 Cu975 Cu 0.49676 0.76606 0.25952
 Cu976 Cu 0.50057 0.74099 0.23588
 C977 C 0.47662 0.73547 0.26266
 C978 C 0.52078 0.77154 0.23276
 C979 C 0.47620 0.76757 0.22963
 C980 C 0.52099 0.73938 0.26588
 O981 O -0.01688 0.72837 0.25047
 O982 O 0.01695 0.74852 0.27682
 O983 O -0.01626 0.75057 0.27632
 O984 O 0.01633 0.72643 0.25088
 O985 O 0.01747 0.74890 0.23210
 O986 O -0.01433 0.77307 0.25762
 O987 O 0.01853 0.77086 0.25792
 O988 O -0.01550 0.75099 0.23188
 Cu989 Cu -0.00011 0.73620 0.26552
 Cu990 Cu 0.00169 0.76318 0.24300
 C991 C -0.02204 0.73630 0.23670
 C992 C 0.02356 0.76313 0.27184
 C993 C -0.02081 0.76602 0.27127
 C994 C 0.02246 0.73362 0.23710
 O995 O 0.51598 0.75045 0.72767
 O996 O 0.48348 0.77435 0.75250
 O997 O 0.51658 0.77412 0.75205
 O998 O 0.48287 0.74967 0.72892
 O999 O 0.48376 0.72879 0.74941
 O1000 O 0.51670 0.75322 0.77255
 O1001 O 0.48355 0.75336 0.77292
 O1002 O 0.51681 0.72952 0.74813
 Cu1003 Cu 0.49965 0.76425 0.73823
 Cu1004 Cu 0.50026 0.73913 0.76281
 C1005 C 0.52207 0.73598 0.73362
 C1006 C 0.47788 0.76802 0.76687
 C1007 C 0.52240 0.76774 0.76631
 C1008 C 0.47759 0.73497 0.73528
 C1009 C 0.42390 0.30436 0.29995
 C1010 C 0.41240 0.31511 0.29059
 C1011 C 0.39897 0.32324 0.29939
 C1012 C 0.39685 0.32069 0.31749
 C1013 C 0.40854 0.30971 0.32634
 N1014 N 0.42154 0.30191 0.31748
 C1015 C 0.43816 0.29510 0.29120
 N1016 N 0.44463 0.28007 0.29875
 C1017 C 0.45749 0.27064 0.29134
 C1018 C 0.46465 0.27625 0.27533
 C1019 C 0.45841 0.29191 0.26751
 C1020 C 0.44526 0.30138 0.27539
 H1021 H 0.39004 0.33117 0.29190
 H1022 H 0.40747 0.30743 0.34030
 H1023 H 0.46199 0.25871 0.29790
 H1024 H 0.46367 0.29684 0.25526
 H1025 H 0.41339 0.31691 0.27657
 H1026 H 0.44090 0.31356 0.26921
 C1027 C 0.42320 0.80465 0.80143
 C1028 C 0.41411 0.81832 0.79303
 C1029 C 0.40026 0.82607 0.80137
 C1030 C 0.39503 0.82024 0.81817
 C1031 C 0.40442 0.80623 0.82598
 N1032 N 0.41799 0.79896 0.81754
 C1033 C 0.43792 0.79590 0.79292
 N1034 N 0.44232 0.77908 0.79795
 C1035 C 0.45527 0.77003 0.79019
 C1036 C 0.46451 0.77788 0.77637
 C1037 C 0.46049 0.79536 0.77134
 C1038 C 0.44737 0.80444 0.77964
 H1039 H 0.39354 0.83630 0.79420
 H1040 H 0.40131 0.80109 0.83884
 H1041 H 0.45806 0.75661 0.79456
 H1042 H 0.46749 0.80206 0.76096
 H1043 H 0.41729 0.82280 0.77992
 H1044 H 0.44482 0.81801 0.77566
 C1045 C -0.07479 0.30542 0.80360
 C1046 C -0.08360 0.31971 0.79596
 C1047 C -0.09700 0.32759 0.80494
 C1048 C -0.10204 0.32127 0.82164
 C1049 C -0.09290 0.30668 0.82869
 N1050 N -0.07979 0.29928 0.81963
 C1051 C -0.06059 0.29648 0.79441
 N1052 N -0.05668 0.27933 0.79870
 C1053 C -0.04417 0.27014 0.79038
 C1054 C -0.03483 0.27822 0.77675
 C1055 C -0.03837 0.29601 0.77244
 C1056 C -0.05109 0.30519 0.78128
 H1057 H -0.10351 0.33835 0.79833
 H1058 H -0.09586 0.30113 0.84142
 H1059 H -0.04176 0.25648 0.79422
 H1060 H -0.03129 0.30287 0.76222
 H1061 H -0.08057 0.32460 0.78296
 H1062 H -0.05326 0.31899 0.77786
 C1063 C -0.07464 0.80330 0.30648
 C1064 C -0.08264 0.81803 0.29870
 C1065 C -0.09655 0.82584 0.30689
 C1066 C -0.10290 0.81904 0.32292
 C1067 C -0.09449 0.80406 0.33017
 N1068 N -0.08088 0.79672 0.32187
 C1069 C -0.06003 0.79433 0.29798
 N1070 N -0.05683 0.77692 0.30181
 C1071 C -0.04411 0.76768 0.29387
 C1072 C -0.03388 0.77597 0.28108
 C1073 C -0.03664 0.79403 0.27735
 C1074 C -0.04954 0.80327 0.28584
 H1075 H -0.10236 0.83696 0.30017
 H1076 H -0.09847 0.79812 0.34243
 H1077 H -0.04231 0.75380 0.29723
 H1078 H -0.02885 0.80105 0.26782
 H1079 H -0.07861 0.82330 0.28613
 H1080 H -0.05114 0.81725 0.28287
 C1081 C 0.57538 0.70680 0.30521
 C1082 C 0.58659 0.71622 0.31592
 C1083 C 0.60022 0.70734 0.32383
 C1084 C 0.60280 0.68912 0.32110
 C1085 C 0.59122 0.68021 0.31040
 N1086 N 0.57810 0.68914 0.30279
 C1087 C 0.56114 0.71555 0.29579
 N1088 N 0.55499 0.70776 0.28115
 C1089 C 0.54215 0.71499 0.27155
 C1090 C 0.53461 0.73107 0.27656
 C1091 C 0.54052 0.73919 0.29179
 C1092 C 0.55373 0.73149 0.30144
 H1093 H 0.60898 0.71487 0.33167
 H1094 H 0.59252 0.66614 0.30809
 H1095 H 0.53793 0.70819 0.25998
 H1096 H 0.53499 0.75154 0.29621
 H1097 H 0.58526 0.73036 0.31780
 H1098 H 0.55787 0.73789 0.31324
 C1099 C 0.58270 0.19870 0.80252
 C1100 C 0.59138 0.20751 0.81582
 C1101 C 0.60596 0.19994 0.82309
 C1102 C 0.61232 0.18353 0.81716
 C1103 C 0.60325 0.17530 0.80356
 N1104 N 0.58900 0.18298 0.79676
 C1105 C 0.56724 0.20634 0.79417
 N1106 N 0.56269 0.20079 0.77795
 C1107 C 0.54906 0.20766 0.76923
 C1108 C 0.53915 0.22110 0.77678
 C1109 C 0.54332 0.22664 0.79367
 C1110 C 0.55719 0.21925 0.80243
 H1111 H 0.61231 0.20740 0.83307
 H1112 H 0.60718 0.16269 0.79836
 H1113 H 0.54624 0.20292 0.75627
 H1114 H 0.53588 0.23678 0.80012
 H1115 H 0.58734 0.22037 0.82039
 H1116 H 0.55984 0.22362 0.81554
 C1117 C 1.07855 0.68953 0.79676
 C1118 C 1.08780 0.67576 0.78896
 C1119 C 1.10194 0.66855 0.79745
 C1120 C 1.10727 0.67503 0.81376
 C1121 C 1.09754 0.68893 0.82104
 N1122 N 1.08378 0.69566 0.81249
 C1123 C 1.06368 0.69814 0.78819
 N1124 N 1.05848 0.71437 0.79384
 C1125 C 1.04527 0.72338 0.78643
 C1126 C 1.03645 0.71614 0.77230
 C1127 C 1.04133 0.69926 0.76650
 C1128 C 1.05480 0.69020 0.77443
 H1129 H 1.10881 0.65821 0.79078
 H1130 H 1.10057 0.69448 0.83357
 H1131 H 1.04190 0.73632 0.79139
 H1132 H 1.03475 0.69305 0.75578
 H1133 H 1.08457 0.67079 0.77621
 H1134 H 1.05800 0.67711 0.76982
 C1135 C 1.07915 0.20092 0.29674
 C1136 C 1.08808 0.18724 0.28843
 C1137 C 1.10221 0.17957 0.29652
 C1138 C 1.10784 0.18548 0.31294
 C1139 C 1.09851 0.19943 0.32066
 N1140 N 1.08473 0.20662 0.31250
 C1141 C 1.06416 0.20972 0.28860
 N1142 N 1.05959 0.22631 0.29383
 C1143 C 1.04631 0.23538 0.28660
 C1144 C 1.03679 0.22781 0.27313
 C1145 C 1.04100 0.21056 0.26787
 C1146 C 1.05452 0.20146 0.27561
 H1147 H 1.10879 0.16929 0.28947
 H1148 H 1.10186 0.20464 0.33325
 H1149 H 1.04343 0.24861 0.29113
 H1150 H 1.03386 0.20407 0.25771
 H1151 H 1.08458 0.18269 0.27560
 H1152 H 1.05720 0.18808 0.27145
 C1153 C 0.57964 0.29733 0.69824
 C1154 C 0.59092 0.28811 0.68730
 C1155 C 0.60470 0.29698 0.67975
 C1156 C 0.60744 0.31503 0.68305
 C1157 C 0.59601 0.32373 0.69427
 N1158 N 0.58263 0.31478 0.70149
 C1159 C 0.56493 0.28839 0.70673
 N1160 N 0.55864 0.29483 0.72202
 C1161 C 0.54551 0.28693 0.73079
 C1162 C 0.53794 0.27154 0.72421
 C1163 C 0.54393 0.26499 0.70822
 C1164 C 0.55731 0.27337 0.69944
 H1165 H 0.61340 0.28956 0.67162
 H1166 H 0.59757 0.33764 0.69715
 H1167 H 0.54121 0.29252 0.74300
 H1168 H 0.53835 0.25329 0.70252
 H1169 H 0.58944 0.27408 0.68488
 H1170 H 0.56148 0.26815 0.68702
 C1171 C 0.57633 0.80976 0.20048
 C1172 C 0.58549 0.82319 0.20875
 C1173 C 0.59971 0.83062 0.20049
 C1174 C 0.60515 0.82471 0.18392
 C1175 C 0.59543 0.81119 0.17615
 N1176 N 0.58164 0.80421 0.18452
 C1177 C 0.56153 0.80079 0.20883
 N1178 N 0.55674 0.78462 0.20282
 C1179 C 0.54363 0.77525 0.20998
 C1180 C 0.53445 0.78205 0.22419
 C1181 C 0.53889 0.79886 0.23038
 C1182 C 0.55232 0.80830 0.22272
 H1183 H 0.60648 0.84070 0.20750
 H1184 H 0.59853 0.80605 0.16344
 H1185 H 0.54060 0.76238 0.20471
 H1186 H 0.53204 0.80471 0.24120
 H1187 H 0.58214 0.82770 0.22168
 H1188 H 0.55525 0.82133 0.22762
 C1189 C 1.07918 0.30655 0.19839
 C1190 C 1.08818 0.32028 0.20638
 C1191 C 1.10254 0.32743 0.19821
 C1192 C 1.10835 0.32093 0.18201
 C1193 C 1.09892 0.30699 0.17458
 N1194 N 1.08491 0.30031 0.18283
 C1195 C 1.06401 0.29820 0.20670
 N1196 N 1.05930 0.28159 0.20178
 C1197 C 1.04592 0.27284 0.20926
 C1198 C 1.03647 0.28077 0.22269
 C1199 C 1.04081 0.29806 0.22761
 C1200 C 1.05441 0.30684 0.21960
 H1201 H 1.10916 0.33777 0.20503
 H1202 H 1.10238 0.30137 0.16216
 H1203 H 1.04296 0.25957 0.20499
 H1204 H 1.03372 0.30482 0.23772
 H1205 H 1.08456 0.32526 0.21906
 H1206 H 1.05720 0.32025 0.22352
 C1207 C 1.07875 0.79397 0.69591
 C1208 C 1.09046 0.78461 0.68559
 C1209 C 1.10429 0.79350 0.67816
 C1210 C 1.10664 0.81172 0.68097
 C1211 C 1.09478 0.82055 0.69159
 N1212 N 1.08137 0.81158 0.69871
 C1213 C 1.06397 0.78506 0.70428
 N1214 N 1.05722 0.79194 0.71918
 C1215 C 1.04395 0.78418 0.72782
 C1216 C 1.03667 0.76852 0.72151
 C1217 C 1.04316 0.76148 0.70594
 C1218 C 1.05671 0.76970 0.69728
 H1219 H 1.11332 0.78599 0.67051
 H1220 H 1.09602 0.83458 0.69407
 H1221 H 1.03927 0.79015 0.73971
 H1222 H 1.03783 0.74953 0.70048
 H1223 H 1.08926 0.77049 0.68356
 H1224 H 1.06128 0.76412 0.68518
 C1225 C 0.42386 0.69685 0.70149
 C1226 C 0.41263 0.68576 0.71087
 C1227 C 0.39958 0.67719 0.70211
 C1228 C 0.39754 0.67964 0.68402
 C1229 C 0.40886 0.69108 0.67515
 N1230 N 0.42153 0.69929 0.68398
 C1231 C 0.43793 0.70619 0.71025
 N1232 N 0.44388 0.72174 0.70326
 C1233 C 0.45659 0.73111 0.71085
 C1234 C 0.46409 0.72488 0.72641
 C1235 C 0.45837 0.70870 0.73359
 C1236 C 0.44539 0.69933 0.72556
 H1237 H 0.39089 0.66894 0.70961
 H1238 H 0.40779 0.69333 0.66120
 H1239 H 0.46071 0.74345 0.70480
 H1240 H 0.46390 0.70325 0.74545
 H1241 H 0.41360 0.68397 0.72489
 H1242 H 0.44148 0.68674 0.73122
 C1243 C 0.42481 0.19451 0.20202
 C1244 C 0.41295 0.18408 0.21131
 C1245 C 0.39982 0.17588 0.20237
 C1246 C 0.39831 0.17804 0.18418
 C1247 C 0.41020 0.18888 0.17541
 N1248 N 0.42296 0.19673 0.18442
 C1249 C 0.43899 0.20347 0.21098
 N1250 N 0.44575 0.21852 0.20374
 C1251 C 0.45854 0.22761 0.21148
 C1252 C 0.46527 0.22163 0.22750
 C1253 C 0.45875 0.20593 0.23496
 C1254 C 0.44571 0.19680 0.22674
 H1255 H 0.39066 0.16811 0.20977
 H1256 H 0.40952 0.19090 0.16140
 H1257 H 0.46329 0.23959 0.20520
 H1258 H 0.46368 0.20068 0.24719
 H1259 H 0.41352 0.18253 0.22538
 H1260 H 0.44114 0.18457 0.23265
 C1261 C -0.07711 0.70586 0.19787
 C1262 C -0.08819 0.71597 0.18735
 C1263 C -0.10176 0.70769 0.17910
 C1264 C -0.10445 0.68938 0.18132
 C1265 C -0.09315 0.67977 0.19206
 N1266 N -0.08001 0.68813 0.19997
 C1267 C -0.06270 0.71398 0.20726
 N1268 N -0.05650 0.70561 0.22180
 C1269 C -0.04349 0.71235 0.23128
 C1270 C -0.03588 0.72850 0.22626
 C1271 C -0.04185 0.73718 0.21112
 C1272 C -0.05518 0.72997 0.20158
 H1273 H -0.11037 0.71575 0.17133
 H1274 H -0.09465 0.66562 0.19407
 H1275 H -0.03921 0.70514 0.24279
 H1276 H -0.03625 0.74957 0.20665
 H1277 H -0.08677 0.73018 0.18580
 H1278 H -0.05931 0.73680 0.18981
 C1279 C -0.07615 0.20563 0.69285
 C1280 C -0.08508 0.21402 0.67920
 C1281 C -0.09833 0.20513 0.67104
 C1282 C -0.10309 0.18784 0.67645
 C1283 C -0.09372 0.18000 0.69027
 N1284 N -0.08081 0.18895 0.69792
 C1285 C -0.06220 0.21447 0.70239
 N1286 N -0.05730 0.20752 0.71812
 C1287 C -0.04476 0.21481 0.72783
 C1288 C -0.03628 0.23013 0.72184
 C1289 C -0.04095 0.23743 0.70558
 C1290 C -0.05378 0.22962 0.69578
 H1291 H -0.10502 0.21228 0.66085
 H1292 H -0.09636 0.16672 0.69500
 H1293 H -0.04152 0.20868 0.74027
 H1294 H -0.03460 0.24911 0.70036
 H1295 H -0.08230 0.22746 0.67501
 H1296 H -0.05677 0.23536 0.68314
 C1297 C 0.30323 0.42196 0.29970
 C1298 C 0.31384 0.41040 0.29037
 C1299 C 0.32216 0.39663 0.29917
 C1300 C 0.31994 0.39418 0.31727
 C1301 C 0.30885 0.40573 0.32606
 N1302 N 0.30089 0.41914 0.31719
 C1303 C 0.29436 0.43692 0.29086
 N1304 N 0.27931 0.44293 0.29746
 C1305 C 0.27038 0.45636 0.28967
 C1306 C 0.27655 0.46457 0.27431
 C1307 C 0.29224 0.45885 0.26758
 C1308 C 0.30117 0.44514 0.27580
 H1309 H 0.33013 0.38775 0.29172
 H1310 H 0.30675 0.40433 0.34000
 H1311 H 0.25840 0.46045 0.29539
 H1312 H 0.29761 0.46492 0.25588
 H1313 H 0.31552 0.41172 0.27637
 H1314 H 0.31336 0.44120 0.27047
 C1315 C 0.30251 -0.07858 0.79912
 C1316 C 0.31606 -0.08737 0.79095
 C1317 C 0.32444 -0.10113 0.79970
 C1318 C 0.31937 -0.10658 0.81667
 C1319 C 0.30549 -0.09750 0.82424
 N1320 N 0.29762 -0.08401 0.81543
 C1321 C 0.29301 -0.06395 0.79034
 N1322 N 0.27721 -0.05966 0.79636
 C1323 C 0.26757 -0.04667 0.78880
 C1324 C 0.27371 -0.03716 0.77417
 C1325 C 0.29007 -0.04112 0.76796
 C1326 C 0.29979 -0.05435 0.77604
 H1327 H 0.33456 -0.10769 0.79271
 H1328 H 0.30096 -0.10075 0.83723
 H1329 H 0.25504 -0.04397 0.79408
 H1330 H 0.29543 -0.03393 0.75687
 H1331 H 0.32002 -0.08409 0.77774
 H1332 H 0.31249 -0.05675 0.77115
 C1333 C 0.80563 0.42333 0.80691
 C1334 C 0.81923 0.41493 0.79841
 C1335 C 0.82790 0.40113 0.80680
 C1336 C 0.82308 0.39526 0.82371
 C1337 C 0.80920 0.40402 0.83165
 N1338 N 0.80102 0.41753 0.82317
 C1339 C 0.79575 0.43784 0.79843
 N1340 N 0.77978 0.44146 0.80443
 C1341 C 0.76976 0.45421 0.79701
 C1342 C 0.77564 0.46412 0.78254
 C1343 C 0.79218 0.46090 0.77639
 C1344 C 0.80230 0.44793 0.78434
 H1345 H 0.83804 0.39490 0.79956
 H1346 H 0.80485 0.40046 0.84463
 H1347 H 0.75711 0.45635 0.80224
 H1348 H 0.79735 0.46844 0.76544
 H1349 H 0.82298 0.41853 0.78522
 H1350 H 0.81510 0.44606 0.77950
 C1351 C 0.80745 -0.07773 0.30295
 C1352 C 0.82114 -0.08670 0.29524
 C1353 C 0.82876 -0.10089 0.30403
 C1354 C 0.82279 -0.10662 0.32060
 C1355 C 0.80873 -0.09741 0.32768
 N1356 N 0.80161 -0.08347 0.31883
 C1357 C 0.79883 -0.06265 0.29396
 N1358 N 0.78262 -0.05833 0.29869
 C1359 C 0.77373 -0.04508 0.29057
 C1360 C 0.78109 -0.03542 0.27665
 C1361 C 0.79791 -0.03933 0.27188
 C1362 C 0.80685 -0.05275 0.28056
 H1363 H 0.83901 -0.10755 0.29735
 H1364 H 0.80350 -0.10093 0.34034
 H1365 H 0.76081 -0.04240 0.29475
 H1366 H 0.80419 -0.03199 0.26142
 H1367 H 0.82579 -0.08323 0.28232
 H1368 H 0.81991 -0.05515 0.27678
 C1369 C 0.30741 0.57490 0.70174
 C1370 C 0.31795 0.58640 0.71106
 C1371 C 0.32604 0.60039 0.70231
 C1372 C 0.32366 0.60309 0.68428
 C1373 C 0.31281 0.59146 0.67548
 N1374 N 0.30505 0.57789 0.68431
 C1375 C 0.29836 0.55997 0.71048
 N1376 N 0.28375 0.55380 0.70328
 C1377 C 0.27456 0.54041 0.71075
 C1378 C 0.27998 0.53236 0.72646
 C1379 C 0.29521 0.53824 0.73389
 C1380 C 0.30444 0.55195 0.72595
 H1381 H 0.33387 0.60928 0.70977
 H1382 H 0.31064 0.59299 0.66158
 H1383 H 0.26295 0.53620 0.70449
 H1384 H 0.29997 0.53229 0.74589
 H1385 H 0.31969 0.58496 0.72503
 H1386 H 0.31627 0.55602 0.73182
 C1387 C 0.30722 1.07500 0.20142
 C1388 C 0.32087 1.08356 0.20945
 C1389 C 0.32940 1.09718 0.20061
 C1390 C 0.32439 1.10271 0.18368
 C1391 C 0.31049 1.09378 0.17620
 N1392 N 0.30245 1.08045 0.18512
 C1393 C 0.29742 1.06067 0.21034
 N1394 N 0.28168 1.05659 0.20422
 C1395 C 0.27172 1.04392 0.21187
 C1396 C 0.27744 1.03453 0.22672
 C1397 C 0.29373 1.03827 0.23307
 C1398 C 0.30378 1.05118 0.22489
 H1399 H 0.33958 1.10357 0.20752
 H1400 H 0.30600 1.09706 0.16324
 H1401 H 0.25927 1.04139 0.20647
 H1402 H 0.29875 1.03117 0.24433
 H1403 H 0.32479 1.08025 0.22263
 H1404 H 0.31641 1.05343 0.22991
 C1405 C 0.80354 0.58550 0.20128
 C1406 C 0.81397 0.59700 0.21076
 C1407 C 0.82225 0.61094 0.20211
 C1408 C 0.82015 0.61361 0.18404
 C1409 C 0.80946 0.60194 0.17507
 N1410 N 0.80153 0.58842 0.18379
 C1411 C 0.79422 0.57062 0.20982
 N1412 N 0.78002 0.56420 0.20199
 C1413 C 0.77064 0.55076 0.20913
 C1414 C 0.77543 0.54292 0.22514
 C1415 C 0.79021 0.54909 0.23327
 C1416 C 0.79964 0.56285 0.22566
 H1417 H 0.83000 0.61985 0.20966
 H1418 H 0.80754 0.60340 0.16113
 H1419 H 0.75940 0.54634 0.20234
 H1420 H 0.79448 0.54332 0.24553
 H1421 H 0.81546 0.59561 0.22477
 H1422 H 0.81114 0.56709 0.23207
 C1423 C 0.80945 1.08064 0.69762
 C1424 C 0.82008 1.09213 0.70686
 C1425 C 0.82786 1.10633 0.69810
 C1426 C 0.82508 1.10924 0.68016
 C1427 C 0.81430 1.09748 0.67142
 N1428 N 0.80684 1.08375 0.68025
 C1429 C 0.80041 1.06567 0.70632
 N1430 N 0.78595 1.05939 0.69890
 C1431 C 0.77671 1.04597 0.70623
 C1432 C 0.78189 1.03799 0.72204
 C1433 C 0.79696 1.04399 0.72974
 C1434 C 0.80626 1.05775 0.72193
 H1435 H 0.83571 1.11527 0.70551
 H1436 H 0.81187 1.09909 0.65758
 H1437 H 0.76524 1.04169 0.69976
 H1438 H 0.80153 1.03811 0.74185
 H1439 H 0.82206 1.09058 0.72079
 H1440 H 0.81795 1.06192 0.72801
 C1441 C 0.69218 0.58356 0.29622
 C1442 C 0.68176 0.59578 0.28721
 C1443 C 0.67359 0.60925 0.29639
 C1444 C 0.67580 0.61071 0.31452
 C1445 C 0.68634 0.59825 0.32302
 N1446 N 0.69418 0.58525 0.31380
 C1447 C 0.70155 0.56926 0.28715
 N1448 N 0.71565 0.56215 0.29484
 C1449 C 0.72504 0.54912 0.28728
 C1450 C 0.72035 0.54243 0.27095
 C1451 C 0.70569 0.54936 0.26292
 C1452 C 0.69626 0.56268 0.27096
 H1453 H 0.66592 0.61878 0.28921
 H1454 H 0.68830 0.59876 0.33699
 H1455 H 0.73617 0.54408 0.29400
 H1456 H 0.70148 0.54448 0.25041
 H1457 H 0.68025 0.59536 0.27317
 H1458 H 0.68485 0.56749 0.26461
 C1459 C 0.70601 1.08116 0.79861
 C1460 C 0.71405 1.09045 0.81199
 C1461 C 0.70574 1.10457 0.81992
 C1462 C 0.68929 1.10987 0.81460
 C1463 C 0.68185 1.10031 0.80083
 N1464 N 0.69026 1.08650 0.79337
 C1465 C 0.71442 1.06609 0.78972
 N1466 N 0.70934 1.06168 0.77333
 C1467 C 0.71677 1.04830 0.76423
 C1468 C 0.73024 1.03848 0.77158
 C1469 C 0.73542 1.04255 0.78858
 C1470 C 0.72751 1.05620 0.79771
 H1471 H 0.71263 1.11143 0.82994
 H1472 H 0.66930 1.10348 0.79604
 H1473 H 0.71228 1.04552 0.75119
 H1474 H 0.74558 1.03517 0.79488
 H1475 H 0.72684 1.08723 0.81613
 H1476 H 0.73157 1.05874 0.81093
 C1477 C 0.20384 0.57543 0.80288
 C1478 C 0.21122 0.58510 0.81642
 C1479 C 0.20234 0.59922 0.82379
 C1480 C 0.18602 0.60410 0.81771
 C1481 C 0.17922 0.59402 0.80396
 N1482 N 0.18816 0.58028 0.79707
 C1483 C 0.21275 0.56048 0.79426
 N1484 N 0.20736 0.55531 0.77822
 C1485 C 0.21493 0.54192 0.76930
 C1486 C 0.22891 0.53280 0.77649
 C1487 C 0.23452 0.53769 0.79314
 C1488 C 0.22647 0.55140 0.80209
 H1489 H 0.20867 0.60642 0.83397
 H1490 H 0.16678 0.59673 0.79866
 H1491 H 0.21011 0.53855 0.75654
 H1492 H 0.24514 0.53089 0.79928
 H1493 H 0.22388 0.58220 0.82112
 H1494 H 0.23090 0.55457 0.81503
 C1495 C 0.20083 1.08215 0.29999
 C1496 C 0.20870 1.09162 0.31336
 C1497 C 0.20044 1.10613 0.32071
 C1498 C 0.18426 1.11162 0.31477
 C1499 C 0.17704 1.10188 0.30099
 N1500 N 0.18536 1.08769 0.29414
 C1501 C 0.20910 1.06657 0.29179
 N1502 N 0.20431 1.06171 0.27543
 C1503 C 0.21160 1.04779 0.26700
 C1504 C 0.22461 1.03787 0.27505
 C1505 C 0.22946 1.04241 0.29205
 C1506 C 0.22171 1.05660 0.30047
 H1507 H 0.20715 1.11311 0.33077
 H1508 H 0.16469 1.10516 0.29575
 H1509 H 0.20739 1.04468 0.25394
 H1510 H 0.23926 1.03498 0.29889
 H1511 H 0.22129 1.08823 0.31797
 H1512 H 0.22550 1.05949 0.31370
 C1513 C 0.69841 0.41737 0.70867
 C1514 C 0.68842 0.40465 0.71753
 C1515 C 0.68078 0.39109 0.70818
 C1516 C 0.68310 0.38999 0.69001
 C1517 C 0.69353 0.40269 0.68170
 N1518 N 0.70078 0.41587 0.69109
 C1519 C 0.70660 0.43223 0.71794
 N1520 N 0.72057 0.44014 0.71070
 C1521 C 0.72875 0.45382 0.71848
 C1522 C 0.72289 0.46037 0.73454
 C1523 C 0.70836 0.45258 0.74209
 C1524 C 0.70017 0.43861 0.73385
 H1525 H 0.67326 0.38132 0.71523
 H1526 H 0.69564 0.40238 0.66772
 H1527 H 0.73984 0.45950 0.71213
 H1528 H 0.70326 0.45731 0.75436
 H1529 H 0.68670 0.40488 0.73156
 H1530 H 0.68879 0.43318 0.73980
 C1531 C 0.70491 -0.07981 0.20018
 C1532 C 0.71326 -0.09239 0.18978
 C1533 C 0.70389 -0.10571 0.18184
 C1534 C 0.68620 -0.10670 0.18424
 C1535 C 0.67838 -0.09410 0.19505
 N1536 N 0.68778 -0.08118 0.20262
 C1537 C 0.71424 -0.06525 0.20872
 N1538 N 0.70758 -0.05782 0.22340
 C1539 C 0.71548 -0.04442 0.23192
 C1540 C 0.73102 -0.03766 0.22565
 C1541 C 0.73796 -0.04495 0.21040
 C1542 C 0.72963 -0.05865 0.20190
 H1543 H 0.71056 -0.11540 0.17404
 H1544 H 0.66478 -0.09431 0.19725
 H1545 H 0.70961 -0.03911 0.24357
 H1546 H 0.74983 -0.04004 0.20498
 H1547 H 0.72691 -0.09223 0.18800
 H1548 H 0.73511 -0.06373 0.18997
 C1549 C 0.20416 0.42085 0.19574
 C1550 C 0.21320 0.40854 0.18563
 C1551 C 0.20455 0.39453 0.17793
 C1552 C 0.18692 0.39262 0.18027
 C1553 C 0.17839 0.40513 0.19062
 N1554 N 0.18710 0.41867 0.19800
 C1555 C 0.21271 0.43579 0.20452
 N1556 N 0.20532 0.44288 0.21898
 C1557 C 0.21249 0.45643 0.22790
 C1558 C 0.22806 0.46373 0.22233
 C1559 C 0.23574 0.45686 0.20725
 C1560 C 0.22812 0.44296 0.19831
 H1561 H 0.21177 0.38500 0.17046
 H1562 H 0.16480 0.40430 0.19270
 H1563 H 0.20605 0.46140 0.23939
 H1564 H 0.24767 0.46218 0.20238
 H1565 H 0.22684 0.40938 0.18398
 H1566 H 0.23419 0.43813 0.18657
 C1567 C 0.19439 -0.08179 0.70250
 C1568 C 0.18114 -0.09137 0.71054
 C1569 C 0.17372 -0.10554 0.70189
 C1570 C 0.17947 -0.11060 0.68517
 C1571 C 0.19300 -0.10070 0.67774
 N1572 N 0.19991 -0.08685 0.68643
 C1573 C 0.20289 -0.06664 0.71109
 N1574 N 0.21831 -0.06111 0.70493
 C1575 C 0.22704 -0.04752 0.71223
 C1576 C 0.22032 -0.03865 0.72675
 C1577 C 0.20432 -0.04391 0.73312
 C1578 C 0.19553 -0.05773 0.72530
 H1579 H 0.16379 -0.11270 0.70874
 H1580 H 0.19801 -0.10359 0.66492
 H1581 H 0.23931 -0.04385 0.70684
 H1582 H 0.19852 -0.03728 0.74414
 H1583 H 0.17668 -0.08839 0.72356
 H1584 H 0.18307 -0.06112 0.73034
 C1585 C 0.30657 0.29746 0.42140
 C1586 C 0.31720 0.28823 0.40981
 C1587 C 0.32523 0.29739 0.39613
 C1588 C 0.32268 0.31573 0.39382
 C1589 C 0.31186 0.32445 0.40560
 N1590 N 0.30418 0.31523 0.41884
 C1591 C 0.29734 0.28840 0.43590
 N1592 N 0.28314 0.29625 0.44257
 C1593 C 0.27375 0.28867 0.45563
 C1594 C 0.27849 0.27213 0.46280
 C1595 C 0.29328 0.26396 0.45639
 C1596 C 0.30275 0.27205 0.44303
 H1597 H 0.33312 0.29002 0.38714
 H1598 H 0.30961 0.33858 0.40441
 H1599 H 0.26250 0.29551 0.46024
 H1600 H 0.29751 0.25128 0.46166
 H1601 H 0.31902 0.27402 0.41091
 H1602 H 0.31424 0.26558 0.43857
 C1603 C 0.30373 0.79888 -0.07872
 C1604 C 0.31460 0.78936 -0.08986
 C1605 C 0.32302 0.79823 -0.10347
 C1606 C 0.32065 0.81655 -0.10615
 C1607 C 0.30964 0.82556 -0.09476
 N1608 N 0.30155 0.81662 -0.08160
 C1609 C 0.29404 0.79009 -0.06440
 N1610 N 0.27950 0.79791 -0.05850
 C1611 C 0.26970 0.79051 -0.04566
 C1612 C 0.27436 0.77420 -0.03793
 C1613 C 0.28948 0.76608 -0.04354
 C1614 C 0.29936 0.77398 -0.05669
 H1615 H 0.33104 0.79064 -0.11215
 H1616 H 0.30752 0.83969 -0.09623
 H1617 H 0.25821 0.79730 -0.04164
 H1618 H 0.29367 0.75359 -0.03783
 H1619 H 0.31627 0.77516 -0.08848
 H1620 H 0.31108 0.76756 -0.06054
 C1621 C 0.80886 0.29904 -0.07330
 C1622 C 0.81962 0.28965 -0.08462
 C1623 C 0.82797 0.29869 -0.09819
 C1624 C 0.82564 0.31705 -0.10060
 C1625 C 0.81481 0.32594 -0.08894
 N1626 N 0.80677 0.31684 -0.07586
 C1627 C 0.79906 0.29009 -0.05916
 N1628 N 0.78451 0.29791 -0.05329
 C1629 C 0.77457 0.29039 -0.04064
 C1630 C 0.77911 0.27397 -0.03306
 C1631 C 0.79424 0.26585 -0.03863
 C1632 C 0.80425 0.27386 -0.05161
 H1633 H 0.83587 0.29118 -0.10706
 H1634 H 0.81276 0.34010 -0.09015
 H1635 H 0.76308 0.29720 -0.03664
 H1636 H 0.79831 0.25326 -0.03303
 H1637 H 0.82122 0.27542 -0.08346
 H1638 H 0.81597 0.26743 -0.05549
 C1639 C 0.80365 0.79513 0.42263
 C1640 C 0.81405 0.78591 0.41082
 C1641 C 0.82223 0.79516 0.39733
 C1642 C 0.82007 0.81358 0.39539
 C1643 C 0.80926 0.82226 0.40722
 N1644 N 0.80145 0.81296 0.42034
 C1645 C 0.79480 0.78590 0.43728
 N1646 N 0.78034 0.79315 0.44404
 C1647 C 0.77145 0.78525 0.45732
 C1648 C 0.77705 0.76906 0.46462
 C1649 C 0.79212 0.76157 0.45810
 C1650 C 0.80104 0.76995 0.44454
 H1651 H 0.83004 0.78781 0.38824
 H1652 H 0.80724 0.83645 0.40624
 H1653 H 0.75996 0.79156 0.46204
 H1654 H 0.79704 0.74921 0.46345
 H1655 H 0.81565 0.77165 0.41170
 H1656 H 0.81278 0.76402 0.44003
 C1657 C 0.69902 0.30159 0.58062
 C1658 C 0.68896 0.29144 0.59220
 C1659 C 0.68121 0.29954 0.60644
 C1660 C 0.68349 0.31772 0.60937
 C1661 C 0.69407 0.32733 0.59780
 N1662 N 0.70144 0.31914 0.58390
 C1663 C 0.70723 0.29353 0.56512
 N1664 N 0.72173 0.30084 0.55838
 C1665 C 0.73009 0.29375 0.54447
 C1666 C 0.72391 0.27834 0.53654
 C1667 C 0.70875 0.27091 0.54301
 C1668 C 0.70036 0.27847 0.55715
 H1669 H 0.67362 0.29147 0.61529
 H1670 H 0.69620 0.34137 0.59959
 H1671 H 0.74168 0.29999 0.53982
 H1672 H 0.70336 0.25918 0.53717
 H1673 H 0.68725 0.27732 0.59055
 H1674 H 0.68855 0.27260 0.56163
 C1675 C 0.69308 0.80217 1.07834
 C1676 C 0.68218 0.79266 1.08966
 C1677 C 0.67449 0.80129 1.10369
 C1678 C 0.67767 0.81934 1.10660
 C1679 C 0.68861 0.82837 1.09496
 N1680 N 0.69595 0.81968 1.08140
 C1681 C 0.70220 0.79366 1.06361
 N1682 N 0.71636 0.80172 1.05696
 C1683 C 0.72568 0.79466 1.04373
 C1684 C 0.72093 0.77844 1.03638
 C1685 C 0.70619 0.77007 1.04278
 C1686 C 0.69677 0.77763 1.05630
 H1687 H 0.66645 0.79370 1.11252
 H1688 H 0.69130 0.84232 1.09657
 H1689 H 0.73689 0.80164 1.03914
 H1690 H 0.70193 0.75763 1.03738
 H1691 H 0.67992 0.77862 1.08816
 H1692 H 0.68532 0.77100 1.06073
 C1693 C 0.19908 0.29525 1.07994
 C1694 C 0.18842 0.28605 1.09175
 C1695 C 0.18039 0.29523 1.10520
 C1696 C 0.18300 0.31353 1.10708
 C1697 C 0.19386 0.32220 1.09510
 N1698 N 0.20152 0.31298 1.08207
 C1699 C 0.20816 0.28617 1.06555
 N1700 N 0.22241 0.29380 1.05859
 C1701 C 0.23153 0.28619 1.04550
 C1702 C 0.22641 0.26988 1.03860
 C1703 C 0.21160 0.26194 1.04537
 C1704 C 0.20243 0.27003 1.05873
 H1705 H 0.17248 0.28789 1.11437
 H1706 H 0.19616 0.33631 1.09597
 H1707 H 0.24280 0.29285 1.04060
 H1708 H 0.20705 0.24946 1.04032
 H1709 H 0.18656 0.27186 1.09099
 H1710 H 0.19089 0.26375 1.06340
 C1711 C 0.20076 0.79743 0.58086
 C1712 C 0.19050 0.78737 0.59233
 C1713 C 0.18205 0.79570 0.60601
 C1714 C 0.18379 0.81404 0.60846
 C1715 C 0.19446 0.82358 0.59694
 N1716 N 0.20256 0.81515 0.58363
 C1717 C 0.20997 0.78916 0.56609
 N1718 N 0.22434 0.79704 0.55971
 C1719 C 0.23358 0.79002 0.54639
 C1720 C 0.22848 0.77409 0.53865
 C1721 C 0.21351 0.76596 0.54478
 C1722 C 0.20422 0.77346 0.55839
 H1723 H 0.17438 0.78770 0.61484
 H1724 H 0.19617 0.83774 0.59833
 H1725 H 0.24498 0.79680 0.54199
 H1726 H 0.20898 0.75378 0.53908
 H1727 H 0.18923 0.77315 0.59107
 H1728 H 0.19257 0.76706 0.56260
 C1729 C 0.30792 0.70070 0.58071
 C1730 C 0.31782 0.71006 0.59272
 C1731 C 0.32565 0.70094 0.60647
 C1732 C 0.32363 0.68250 0.60845
 C1733 C 0.31333 0.67368 0.59639
 N1734 N 0.30585 0.68286 0.58303
 C1735 C 0.29935 0.70979 0.56587
 N1736 N 0.28518 0.70236 0.55889
 C1737 C 0.27647 0.71016 0.54549
 C1738 C 0.28195 0.72645 0.53832
 C1739 C 0.29675 0.73411 0.54505
 C1740 C 0.30550 0.72583 0.55872
 H1741 H 0.33305 0.70839 0.61572
 H1742 H 0.31145 0.65948 0.59739
 H1743 H 0.26519 0.70372 0.54061
 H1744 H 0.30156 0.74656 0.53980
 H1745 H 0.31927 0.72432 0.59182
 H1746 H 0.31702 0.73190 0.56343
 C1747 C 0.30902 0.19819 1.07957
 C1748 C 0.31934 0.20769 1.09109
 C1749 C 0.32749 0.19876 1.10479
 C1750 C 0.32537 0.18038 1.10718
 C1751 C 0.31483 0.17139 1.09547
 N1752 N 0.30701 0.18039 1.08221
 C1753 C 0.29975 0.20702 1.06503
 N1754 N 0.28556 0.19913 1.05862
 C1755 C 0.27618 0.20654 1.04551
 C1756 C 0.28096 0.22292 1.03800
 C1757 C 0.29573 0.23112 1.04416
 C1758 C 0.30517 0.22322 1.05758
 H1759 H 0.33513 0.20634 1.11373
 H1760 H 0.31290 0.15722 1.09672
 H1761 H 0.26495 0.19967 1.04109
 H1762 H 0.29999 0.24367 1.03864
 H1763 H 0.32083 0.22193 1.08991
 H1764 H 0.31666 0.22971 1.06185
 C1765 C 0.80419 0.70902 1.07915
 C1766 C 0.81450 0.71861 1.09062
 C1767 C 0.82265 0.70977 1.10437
 C1768 C 0.82053 0.69141 1.10688
 C1769 C 0.80994 0.68234 1.09528
 N1770 N 0.80215 0.69125 1.08194
 C1771 C 0.79505 0.71774 1.06445
 N1772 N 0.78103 0.70969 1.05783
 C1773 C 0.77181 0.71696 1.04453
 C1774 C 0.77656 0.73335 1.03704
 C1775 C 0.79115 0.74173 1.04343
 C1776 C 0.80044 0.73397 1.05703
 H1777 H 0.83032 0.71740 1.11324
 H1778 H 0.80801 0.66818 1.09667
 H1779 H 0.76071 0.70997 1.03994
 H1780 H 0.79540 0.75429 1.03792
 H1781 H 0.81600 0.73284 1.08936
 H1782 H 0.81181 0.74057 1.06144
 C1783 C 0.80441 0.20560 0.57645
 C1784 C 0.81453 0.21532 0.58796
 C1785 C 0.82286 0.20657 0.60163
 C1786 C 0.82113 0.18815 0.60401
 C1787 C 0.81061 0.17895 0.59244
 N1788 N 0.80262 0.18778 0.57916
 C1789 C 0.79527 0.21431 0.56176
 N1790 N 0.78086 0.20669 0.55554
 C1791 C 0.77162 0.21417 0.54236
 C1792 C 0.77676 0.23032 0.53462
 C1793 C 0.79180 0.23817 0.54055
 C1794 C 0.80109 0.23021 0.55403
 H1795 H 0.83042 0.21432 0.61050
 H1796 H 0.80893 0.16475 0.59375
 H1797 H 0.76017 0.20758 0.53810
 H1798 H 0.79636 0.25052 0.53484
 H1799 H 0.81579 0.22959 0.58674
 H1800 H 0.81277 0.23642 0.55814
 C1801 C 0.69891 0.69706 0.42153
 C1802 C 0.70746 0.68711 0.40883
 C1803 C 0.69843 0.68024 0.39485
 C1804 C 0.68086 0.68324 0.39335
 C1805 C 0.67283 0.69360 0.40612
 N1806 N 0.68192 0.70017 0.41969
 C1807 C 0.70801 0.70460 0.43662
 N1808 N 0.70194 0.71965 0.44413
 C1809 C 0.70995 0.72752 0.45772
 C1810 C 0.72502 0.72019 0.46454
 C1811 C 0.73122 0.70442 0.45728
 C1812 C 0.72277 0.69658 0.44341
 H1813 H 0.70531 0.67281 0.38507
 H1814 H 0.65932 0.69624 0.40552
 H1815 H 0.70465 0.73959 0.46302
 H1816 H 0.74270 0.69818 0.46222
 H1817 H 0.72105 0.68491 0.40941
 H1818 H 0.72771 0.68431 0.43822
 C1819 C 0.70462 0.20025 -0.08085
 C1820 C 0.71422 0.19036 -0.09281
 C1821 C 0.70625 0.18285 -0.10716
 C1822 C 0.68869 0.18511 -0.10975
 C1823 C 0.67960 0.19542 -0.09767
 N1824 N 0.68767 0.20263 -0.08376
 C1825 C 0.71255 0.20845 -0.06541
 N1826 N 0.70556 0.22346 -0.05866
 C1827 C 0.71241 0.23187 -0.04472
 C1828 C 0.72717 0.22517 -0.03668
 C1829 C 0.73434 0.20949 -0.04318
 C1830 C 0.72708 0.20110 -0.05746
 H1831 H 0.71392 0.17550 -0.11634
 H1832 H 0.66606 0.19751 -0.09909
 H1833 H 0.70638 0.24385 -0.04005
 H1834 H 0.74563 0.20375 -0.03730
 H1835 H 0.72782 0.18870 -0.09137
 H1836 H 0.73274 0.18890 -0.06206
 C1837 C 0.19488 0.70181 -0.08264
 C1838 C 0.18449 0.71093 -0.09470
 C1839 C 0.17707 0.70172 -0.10840
 C1840 C 0.18003 0.68346 -0.11028
 C1841 C 0.19062 0.67487 -0.09805
 N1842 N 0.19768 0.68412 -0.08479
 C1843 C 0.20329 0.71091 -0.06795
 N1844 N 0.21735 0.70335 -0.06059
 C1845 C 0.22586 0.71095 -0.04718
 C1846 C 0.22028 0.72719 -0.04036
 C1847 C 0.20565 0.73506 -0.04756
 C1848 C 0.19711 0.72698 -0.06125
 H1849 H 0.16935 0.70900 -0.11774
 H1850 H 0.19317 0.66079 -0.09891
 H1851 H 0.23702 0.70435 -0.04195
 H1852 H 0.20077 0.74748 -0.04260
 H1853 H 0.18237 0.72509 -0.09394
 H1854 H 0.18568 0.73320 -0.06626
 C1855 C 0.19630 0.20455 0.41796
 C1856 C 0.18614 0.21464 0.40644
 C1857 C 0.17834 0.20642 0.39234
 C1858 C 0.18068 0.18820 0.38954
 C1859 C 0.19098 0.17861 0.40132
 N1860 N 0.19844 0.18690 0.41497
 C1861 C 0.20522 0.21259 0.43293
 N1862 N 0.21915 0.20419 0.43967
 C1863 C 0.22818 0.21085 0.45322
 C1864 C 0.22330 0.22694 0.46084
 C1865 C 0.20879 0.23564 0.45433
 C1866 C 0.19971 0.22851 0.44048
 H1867 H 0.17085 0.21444 0.38339
 H1868 H 0.19303 0.16451 0.39979
 H1869 H 0.23922 0.20363 0.45790
 H1870 H 0.20444 0.24799 0.45992
 H1871 H 0.18453 0.22880 0.40790
 H1872 H 0.18841 0.23536 0.43598
 C1873 C 0.30061 0.41434 0.69783
 C1874 C 0.29158 0.40228 0.68758
 C1875 C 0.30014 0.38815 0.67990
 C1876 C 0.31771 0.38586 0.68235
 C1877 C 0.32623 0.39805 0.69294
 N1878 N 0.31759 0.41175 0.70033
 C1879 C 0.29202 0.42946 0.70641
 N1880 N 0.29871 0.43608 0.72136
 C1881 C 0.29127 0.44967 0.73014
 C1882 C 0.27617 0.45745 0.72392
 C1883 C 0.26928 0.45110 0.70831
 C1884 C 0.27715 0.43719 0.69952
 H1885 H 0.29289 0.37885 0.67230
 H1886 H 0.33976 0.39687 0.69518
 H1887 H 0.29711 0.45424 0.74205
 H1888 H 0.25775 0.45681 0.70292
 H1889 H 0.27798 0.40343 0.68579
 H1890 H 0.27170 0.43273 0.68739
 C1891 C 0.29950 0.91738 0.20243
 C1892 C 0.31005 0.90530 0.21147
 C1893 C 0.31789 0.89153 0.20244
 C1894 C 0.31519 0.88957 0.18444
 C1895 C 0.30437 0.90176 0.17593
 N1896 N 0.29691 0.91513 0.18500
 C1897 C 0.29080 0.93225 0.21136
 N1898 N 0.27662 0.93956 0.20399
 C1899 C 0.26791 0.95315 0.21148
 C1900 C 0.27342 0.96023 0.22737
 C1901 C 0.28817 0.95309 0.23503
 C1902 C 0.29690 0.93922 0.22708
 H1903 H 0.32576 0.88219 0.20964
 H1904 H 0.30199 0.90082 0.16206
 H1905 H 0.25667 0.95832 0.20506
 H1906 H 0.29303 0.95825 0.24718
 H1907 H 0.31200 0.90612 0.22542
 H1908 H 0.30843 0.93430 0.23312
 C1909 C 0.79818 0.42326 0.20027
 C1910 C 0.78892 0.41082 0.19071
 C1911 C 0.79732 0.39652 0.18322
 C1912 C 0.81496 0.39443 0.18517
 C1913 C 0.82369 0.40684 0.19534
 N1914 N 0.81520 0.42077 0.20252
 C1915 C 0.78968 0.43887 0.20799
 N1916 N 0.79562 0.44574 0.22317
 C1917 C 0.78791 0.45970 0.23114
 C1918 C 0.77333 0.46757 0.22376
 C1919 C 0.76736 0.46100 0.20785
 C1920 C 0.77548 0.44675 0.19994
 H1921 H 0.78992 0.38701 0.17602
 H1922 H 0.83728 0.40572 0.19723
 H1923 H 0.79304 0.46446 0.24332
 H1924 H 0.75628 0.46675 0.20157
 H1925 H 0.77528 0.41195 0.18920
 H1926 H 0.77070 0.44206 0.18759
 C1927 C 0.80149 0.91877 0.69444
 C1928 C 0.79249 0.90677 0.68411
 C1929 C 0.80096 0.89234 0.67683
 C1930 C 0.81842 0.88972 0.67979
 C1931 C 0.82690 0.90186 0.69046
 N1932 N 0.81835 0.91584 0.69743
 C1933 C 0.79303 0.93419 0.70262
 N1934 N 0.79964 0.94095 0.71754
 C1935 C 0.79234 0.95482 0.72600
 C1936 C 0.77744 0.96277 0.71946
 C1937 C 0.77064 0.95630 0.70386
 C1938 C 0.77839 0.94209 0.69540
 H1939 H 0.79374 0.88310 0.66914
 H1940 H 0.84034 0.90043 0.69306
 H1941 H 0.79810 0.95947 0.73792
 H1942 H 0.75926 0.96212 0.69825
 H1943 H 0.77896 0.90818 0.68193
 H1944 H 0.77300 0.93752 0.68328
 C1945 C 0.68890 0.57484 0.70702
 C1946 C 0.67804 0.58687 0.71546
 C1947 C 0.67013 0.60034 0.70574
 C1948 C 0.67302 0.60195 0.68765
 C1949 C 0.68391 0.58960 0.67972
 N1950 N 0.69151 0.57663 0.68947
 C1951 C 0.69832 0.56080 0.71669
 N1952 N 0.71281 0.55420 0.70944
 C1953 C 0.72244 0.54157 0.71754
 C1954 C 0.71762 0.53477 0.73401
 C1955 C 0.70254 0.54112 0.74161
 C1956 C 0.69285 0.55407 0.73301
 H1957 H 0.66216 0.60977 0.71251
 H1958 H 0.68638 0.59019 0.66581
 H1959 H 0.73389 0.53697 0.71111
 H1960 H 0.69827 0.53612 0.75423
 H1961 H 0.67602 0.58634 0.72945
 H1962 H 0.68116 0.55854 0.73904
 C1963 C 0.70205 0.07775 0.19567
 C1964 C 0.70999 0.09009 0.18439
 C1965 C 0.70034 0.10346 0.17643
 C1966 C 0.68278 0.10469 0.17968
 C1967 C 0.67537 0.09220 0.19119
 N1968 N 0.68505 0.07928 0.19880
 C1969 C 0.71175 0.06349 0.20471
 N1970 N 0.70557 0.05660 0.22002
 C1971 C 0.71389 0.04369 0.22921
 C1972 C 0.72942 0.03691 0.22304
 C1973 C 0.73584 0.04357 0.20711
 C1974 C 0.72706 0.05678 0.19790
 H1975 H 0.70672 0.11305 0.16805
 H1976 H 0.66188 0.09257 0.19401
 H1977 H 0.70840 0.03884 0.24137
 H1978 H 0.74769 0.03861 0.20176
 H1979 H 0.72356 0.08979 0.18201
 H1980 H 0.73216 0.06145 0.18551
 C1981 C 0.19808 0.57999 0.19567
 C1982 C 0.20623 0.59232 0.18454
 C1983 C 0.19671 0.60558 0.17625
 C1984 C 0.17910 0.60676 0.17906
 C1985 C 0.17148 0.59442 0.19058
 N1986 N 0.18102 0.58154 0.19847
 C1987 C 0.20761 0.56557 0.20470
 N1988 N 0.20119 0.55839 0.21978
 C1989 C 0.20935 0.54525 0.22885
 C1990 C 0.22495 0.53856 0.22277
 C1991 C 0.23161 0.54554 0.20707
 C1992 C 0.22299 0.55894 0.19799
 H1993 H 0.20322 0.61510 0.16789
 H1994 H 0.15794 0.59481 0.19310
 H1995 H 0.20369 0.54016 0.24083
 H1996 H 0.24350 0.54065 0.20177
 H1997 H 0.21984 0.59206 0.18245
 H1998 H 0.22828 0.56378 0.18575
 C1999 C 0.19052 0.07774 0.70031
 C2000 C 0.17986 0.08967 0.70914
 C2001 C 0.17176 0.10325 0.69979
 C2002 C 0.17426 0.10511 0.68166
 C2003 C 0.18518 0.09305 0.67336
 N2004 N 0.19293 0.07990 0.68276
 C2005 C 0.19968 0.06323 0.70960
 N2006 N 0.21405 0.05646 0.70222
 C2007 C 0.22331 0.04332 0.71001
 C2008 C 0.21821 0.03615 0.72625
 C2009 C 0.20326 0.04269 0.73395
 C2010 C 0.19395 0.05615 0.72567
 H2011 H 0.16382 0.11249 0.70684
 H2012 H 0.18742 0.09392 0.65941
 H2013 H 0.23469 0.03860 0.70353
 H2014 H 0.19876 0.03743 0.74638
 H2015 H 0.17805 0.08889 0.72315
 H2016 H 0.18232 0.06069 0.73176
 C2017 C 0.29782 0.58124 0.30309
 C2018 C 0.28922 0.59334 0.31383
 C2019 C 0.29825 0.60705 0.32162
 C2020 C 0.31582 0.60885 0.31873
 C2021 C 0.32391 0.59650 0.30785
 N2022 N 0.31484 0.58328 0.30039
 C2023 C 0.28888 0.56668 0.29409
 N2024 N 0.29603 0.55979 0.27941
 C2025 C 0.28860 0.54654 0.27029
 C2026 C 0.27301 0.53934 0.27588
 C2027 C 0.26554 0.54603 0.29115
 C2028 C 0.27341 0.55964 0.30029
 H2029 H 0.29137 0.61646 0.32955
 H2030 H 0.33744 0.59723 0.30536
 H2031 H 0.29489 0.54171 0.25865
 H2032 H 0.25359 0.54077 0.29603
 H2033 H 0.27562 0.59262 0.31589
 H2034 H 0.26751 0.56431 0.31217
 C2035 C 0.29679 0.07962 0.79962
 C2036 C 0.28821 0.09215 0.80986
 C2037 C 0.29733 0.10567 0.81775
 C2038 C 0.31503 0.10689 0.81549
 C2039 C 0.32309 0.09436 0.80477
 N2040 N 0.31390 0.08124 0.79722
 C2041 C 0.28760 0.06488 0.79124
 N2042 N 0.29384 0.05788 0.77617
 C2043 C 0.28585 0.04449 0.76772
 C2044 C 0.27067 0.03728 0.77449
 C2045 C 0.26424 0.04407 0.79019
 C2046 C 0.27264 0.05778 0.79859
 H2047 H 0.29045 0.11530 0.82541
 H2048 H 0.33669 0.09478 0.80264
 H2049 H 0.29134 0.03954 0.75573
 H2050 H 0.25267 0.03883 0.79599
 H2051 H 0.27455 0.09177 0.81157
 H2052 H 0.26754 0.06255 0.81083
 C2053 C 0.79476 0.58138 0.80805
 C2054 C 0.78624 0.59379 0.81849
 C2055 C 0.79531 0.60771 0.82584
 C2056 C 0.81288 0.60939 0.82283
 C2057 C 0.82089 0.59675 0.81220
 N2058 N 0.81176 0.58333 0.80516
 C2059 C 0.78573 0.56650 0.79971
 N2060 N 0.79234 0.55941 0.78485
 C2061 C 0.78474 0.54581 0.77639
 C2062 C 0.76957 0.53842 0.78292
 C2063 C 0.76267 0.54533 0.79837
 C2064 C 0.77069 0.55931 0.80680
 H2065 H 0.78848 0.61733 0.83355
 H2066 H 0.83440 0.59739 0.80961
 H2067 H 0.79058 0.54081 0.76459
 H2068 H 0.75106 0.53996 0.80397
 H2069 H 0.77265 0.59311 0.82066
 H2070 H 0.76526 0.56416 0.81885
 C2071 C 0.80539 0.08308 0.29694
 C2072 C 0.81583 0.09497 0.28752
 C2073 C 0.82334 0.10915 0.29610
 C2074 C 0.82046 0.11166 0.31402
 C2075 C 0.80976 0.09961 0.32291
 N2076 N 0.80258 0.08587 0.31428
 C2077 C 0.79701 0.06786 0.28845
 N2078 N 0.78253 0.06100 0.29566
 C2079 C 0.77403 0.04720 0.28845
 C2080 C 0.78009 0.03944 0.27302
 C2081 C 0.79518 0.04609 0.26557
 C2082 C 0.80368 0.06019 0.27324
 H2083 H 0.83112 0.11833 0.28858
 H2084 H 0.80723 0.10096 0.33675
 H2085 H 0.76251 0.04242 0.29470
 H2086 H 0.80044 0.04041 0.25378
 H2087 H 0.81792 0.09369 0.27361
 H2088 H 0.81544 0.06478 0.26737
 C2089 C 0.69245 0.42557 0.29569
 C2090 C 0.68213 0.41358 0.28668
 C2091 C 0.67413 0.39979 0.29586
 C2092 C 0.67639 0.39779 0.31399
 C2093 C 0.68694 0.40995 0.32247
 N2094 N 0.69459 0.42329 0.31324
 C2095 C 0.70156 0.44028 0.28664
 N2096 N 0.71554 0.44727 0.29439
 C2097 C 0.72474 0.46063 0.28690
 C2098 C 0.72000 0.46783 0.27059
 C2099 C 0.70546 0.46105 0.26249
 C2100 C 0.69619 0.44735 0.27047
 H2101 H 0.66647 0.39050 0.28868
 H2102 H 0.68896 0.40901 0.33643
 H2103 H 0.73580 0.46552 0.29368
 H2104 H 0.70124 0.46631 0.24998
 H2105 H 0.68052 0.41446 0.27266
 H2106 H 0.68487 0.44261 0.26407
 C2107 C 0.69698 0.92295 0.79386
 C2108 C 0.68620 0.91142 0.78485
 C2109 C 0.67773 0.89793 0.79402
 C2110 C 0.67998 0.89578 0.81213
 C2111 C 0.69100 0.90749 0.82061
 N2112 N 0.69912 0.92054 0.81139
 C2113 C 0.70654 0.93730 0.78478
 N2114 N 0.72109 0.94343 0.79216
 C2115 C 0.73068 0.95643 0.78456
 C2116 C 0.72573 0.96416 0.76855
 C2117 C 0.71062 0.95828 0.76086
 C2118 C 0.70099 0.94492 0.76892
 H2119 H 0.66973 0.88897 0.78682
 H2120 H 0.69304 0.90644 0.83456
 H2121 H 0.74218 0.96064 0.79102
 H2122 H 0.70624 0.96397 0.74859
 H2123 H 0.68458 0.91243 0.77084
 H2124 H 0.68925 0.94088 0.76285
 C2125 C 0.19710 0.41611 0.79896
 C2126 C 0.18622 0.40467 0.78997
 C2127 C 0.17804 0.39093 0.79906
 C2128 C 0.18067 0.38844 0.81708
 C2129 C 0.19181 0.40005 0.82553
 N2130 N 0.19964 0.41335 0.81640
 C2131 C 0.20632 0.43076 0.78995
 N2132 N 0.22095 0.43693 0.79712
 C2133 C 0.23025 0.45017 0.78952
 C2134 C 0.22493 0.45808 0.77372
 C2135 C 0.20972 0.45216 0.76627
 C2136 C 0.20038 0.43858 0.77433
 H2137 H 0.16993 0.38206 0.79187
 H2138 H 0.19416 0.39872 0.83941
 H2139 H 0.24184 0.45440 0.79580
 H2140 H 0.20504 0.45798 0.75418
 H2141 H 0.18429 0.40594 0.77602
 H2142 H 0.18856 0.43451 0.76844
 C2143 C 0.19051 0.92240 0.30021
 C2144 C 0.17987 0.91053 0.29143
 C2145 C 0.17202 0.89673 0.30077
 C2146 C 0.17476 0.89463 0.31881
 C2147 C 0.18536 0.90688 0.32710
 N2148 N 0.19291 0.92015 0.31773
 C2149 C 0.19996 0.93672 0.29096
 N2150 N 0.21426 0.94324 0.29850
 C2151 C 0.22392 0.95609 0.29077
 C2152 C 0.21935 0.96320 0.27438
 C2153 C 0.20448 0.95694 0.26649
 C2154 C 0.19474 0.94376 0.27472
 H2155 H 0.16425 0.88742 0.29374
 H2156 H 0.18768 0.90592 0.34101
 H2157 H 0.23521 0.96060 0.29740
 H2158 H 0.20039 0.96217 0.25392
 H2159 H 0.17801 0.91142 0.27744
 H2160 H 0.18322 0.93937 0.26847
 C2161 C 0.42209 0.29513 0.70131
 C2162 C 0.41051 0.30545 0.71086
 C2163 C 0.39640 0.31285 0.70250
 C2164 C 0.39365 0.31001 0.68464
 C2165 C 0.40532 0.29926 0.67563
 N2166 N 0.41904 0.29220 0.68407
 C2167 C 0.43732 0.28711 0.70967
 N2168 N 0.44410 0.27191 0.70309
 C2169 C 0.45777 0.26363 0.71049
 C2170 C 0.46542 0.27063 0.72546
 C2171 C 0.45891 0.28655 0.73212
 C2172 C 0.44498 0.29483 0.72427
 H2173 H 0.38753 0.32058 0.71014
 H2174 H 0.40375 0.29672 0.66185
 H2175 H 0.46244 0.25144 0.70484
 H2176 H 0.46450 0.29258 0.74351
 H2177 H 0.41206 0.30756 0.72472
 H2178 H 0.44040 0.30721 0.72956
 C2179 C 0.41976 0.79802 0.19179
 C2180 C 0.40868 0.78797 0.18152
 C2181 C 0.39436 0.79605 0.17412
 C2182 C 0.39096 0.81412 0.17691
 C2183 C 0.40242 0.82369 0.18720
 N2184 N 0.41623 0.81551 0.19433
 C2185 C 0.43472 0.79004 0.20069
 N2186 N 0.44087 0.79800 0.21523
 C2187 C 0.45422 0.79129 0.22445
 C2188 C 0.46228 0.77559 0.21914
 C2189 C 0.45643 0.76738 0.20394
 C2190 C 0.44271 0.77456 0.19467
 H2191 H 0.38574 0.78801 0.16662
 H2192 H 0.40049 0.83767 0.18955
 H2193 H 0.45838 0.79815 0.23601
 H2194 H 0.46234 0.75532 0.19928
 H2195 H 0.41065 0.77391 0.17962
 H2196 H 0.43859 0.76807 0.18290
 C2197 C 0.92020 0.30244 0.19774
 C2198 C 0.90888 0.29231 0.18784
 C2199 C 0.89458 0.30035 0.18045
 C2200 C 0.89138 0.31850 0.18290
 C2201 C 0.90285 0.32811 0.19316
 N2202 N 0.91674 0.31996 0.20023
 C2203 C 0.93553 0.29441 0.20586
 N2204 N 0.94198 0.30153 0.22072
 C2205 C 0.95570 0.29441 0.22911
 C2206 C 0.96374 0.27918 0.22259
 C2207 C 0.95759 0.27199 0.20701
 C2208 C 0.94360 0.27956 0.19861
 H2209 H 0.88590 0.29226 0.17309
 H2210 H 0.90097 0.34213 0.19536
 H2211 H 0.96009 0.30047 0.24102
 H2212 H 0.96348 0.26038 0.20136
 H2213 H 0.91077 0.27821 0.18607
 H2214 H 0.93927 0.27384 0.18652
 C2215 C 0.92143 0.79484 0.69819
 C2216 C 0.90960 0.78508 0.68858
 C2217 C 0.89580 0.79373 0.68089
 C2218 C 0.89360 0.81211 0.68274
 C2219 C 0.90539 0.82132 0.69296
 N2220 N 0.91884 0.81259 0.70030
 C2221 C 0.93649 0.78613 0.70618
 N2222 N 0.94332 0.79285 0.72103
 C2223 C 0.95680 0.78505 0.72927
 C2224 C 0.96416 0.76951 0.72258
 C2225 C 0.95760 0.76271 0.70701
 C2226 C 0.94388 0.77097 0.69878
 H2227 H 0.88677 0.78595 0.67363
 H2228 H 0.90415 0.83549 0.69477
 H2229 H 0.96154 0.79083 0.74117
 H2230 H 0.96297 0.75089 0.70124
 H2231 H 0.91078 0.77086 0.68717
 H2232 H 0.93923 0.76555 0.68668
 C2233 C 0.57632 0.30163 0.30357
 C2234 C 0.58782 0.29262 0.31454
 C2235 C 0.60095 0.30195 0.32236
 C2236 C 0.60278 0.32027 0.31930
 C2237 C 0.59121 0.32875 0.30797
 N2238 N 0.57846 0.31935 0.30048
 C2239 C 0.56220 0.29222 0.29499
 N2240 N 0.55610 0.29855 0.27946
 C2241 C 0.54342 0.29027 0.27071
 C2242 C 0.53611 0.27465 0.27759
 C2243 C 0.54196 0.26817 0.29377
 C2244 C 0.55491 0.27691 0.30251
 H2245 H 0.60984 0.29470 0.33053
 H2246 H 0.59212 0.34284 0.30525
 H2247 H 0.53919 0.29581 0.25833
 H2248 H 0.53657 0.25629 0.29969
 H2249 H 0.58699 0.27844 0.31681
 H2250 H 0.55898 0.27177 0.31510
 C2251 C 0.57737 0.80254 0.80143
 C2252 C 0.58881 0.79306 0.81210
 C2253 C 0.60225 0.80192 0.81990
 C2254 C 0.60448 0.82022 0.81709
 C2255 C 0.59298 0.82917 0.80603
 N2256 N 0.57990 0.82023 0.79858
 C2257 C 0.56287 0.79365 0.79296
 N2258 N 0.55653 0.80046 0.77772
 C2259 C 0.54349 0.79265 0.76908
 C2260 C 0.53606 0.77701 0.77577
 C2261 C 0.54214 0.77006 0.79168
 C2262 C 0.55543 0.77833 0.80032
 H2263 H 0.61107 0.79434 0.82786
 H2264 H 0.59421 0.84328 0.80351
 H2265 H 0.53909 0.79854 0.75692
 H2266 H 0.53668 0.75815 0.79746
 H2267 H 0.58769 0.77887 0.81416
 H2268 H 0.55965 0.77282 0.81270
 C2269 C 0.07737 0.29673 0.80617
 C2270 C 0.08850 0.28680 0.81682
 C2271 C 0.10207 0.29523 0.82490
 C2272 C 0.10471 0.31352 0.82241
 C2273 C 0.09335 0.32295 0.81159
 N2274 N 0.08022 0.31444 0.80384
 C2275 C 0.06304 0.28842 0.79686
 N2276 N 0.05685 0.29659 0.78220
 C2277 C 0.04393 0.28967 0.77274
 C2278 C 0.03639 0.27353 0.77791
 C2279 C 0.04234 0.26505 0.79315
 C2280 C 0.05558 0.27244 0.80268
 H2281 H 0.11072 0.28730 0.83275
 H2282 H 0.09481 0.33708 0.80939
 H2283 H 0.03966 0.29674 0.76114
 H2284 H 0.03678 0.25268 0.79773
 H2285 H 0.08712 0.27260 0.81856
 H2286 H 0.05970 0.26577 0.81454
 C2287 C 0.07769 0.79564 0.31037
 C2288 C 0.08958 0.78621 0.32057
 C2289 C 0.10296 0.79531 0.32835
 C2290 C 0.10460 0.81376 0.32599
 C2291 C 0.09237 0.82267 0.31578
 N2292 N 0.07951 0.81352 0.30829
 C2293 C 0.06366 0.78675 0.30108
 N2294 N 0.05676 0.79509 0.28688
 C2295 C 0.04398 0.78787 0.27746
 C2296 C 0.03729 0.77122 0.28222
 C2297 C 0.04400 0.76247 0.29699
 C2298 C 0.05715 0.77017 0.30646
 H2299 H 0.11225 0.78781 0.33580
 H2300 H 0.09297 0.83689 0.31377
 H2301 H 0.03911 0.79516 0.26625
 H2302 H 0.03913 0.74966 0.30121
 H2303 H 0.08896 0.77194 0.32214
 H2304 H 0.06191 0.76329 0.31794
 C2305 C 0.57548 0.70051 0.69593
 C2306 C 0.58719 0.70959 0.68516
 C2307 C 0.60036 0.70022 0.67717
 C2308 C 0.60199 0.68182 0.67990
 C2309 C 0.59002 0.67326 0.69079
 N2310 N 0.57732 0.68268 0.69846
 C2311 C 0.56153 0.70985 0.70508
 N2312 N 0.55507 0.70263 0.72013
 C2313 C 0.54243 0.71058 0.72940
 C2314 C 0.53550 0.72679 0.72356
 C2315 C 0.54174 0.73427 0.70789
 C2316 C 0.55468 0.72586 0.69862
 H2317 H 0.60949 0.70748 0.66925
 H2318 H 0.59067 0.65909 0.69315
 H2319 H 0.53791 0.70428 0.74134
 H2320 H 0.53667 0.74667 0.70278
 H2321 H 0.58657 0.72383 0.68325
 H2322 H 0.55904 0.73178 0.68644
 C2323 C 0.57729 0.19272 0.20361
 C2324 C 0.58934 0.18228 0.21258
 C2325 C 0.60263 0.17440 0.20332
 C2326 C 0.60404 0.17689 0.18513
 C2327 C 0.59173 0.18744 0.17667
 N2328 N 0.57893 0.19502 0.18599
 C2329 C 0.56323 0.20190 0.21276
 N2330 N 0.55617 0.21656 0.20506
 C2331 C 0.54338 0.22590 0.21267
 C2332 C 0.53687 0.22059 0.22904
 C2333 C 0.54373 0.20533 0.23709
 C2334 C 0.55686 0.19595 0.22901
 H2335 H 0.61201 0.16674 0.21048
 H2336 H 0.59219 0.18961 0.16267
 H2337 H 0.53839 0.23751 0.20592
 H2338 H 0.53900 0.20066 0.24965
 H2339 H 0.58889 0.18057 0.22664
 H2340 H 0.56172 0.18408 0.23537
 C2341 C 0.07578 0.69892 0.19857
 C2342 C 0.08690 0.70848 0.18756
 C2343 C 0.09984 0.69960 0.17878
 C2344 C 0.10192 0.68120 0.18099
 C2345 C 0.09087 0.67216 0.19251
 N2346 N 0.07823 0.68112 0.20088
 C2347 C 0.06167 0.70781 0.20794
 N2348 N 0.05560 0.70055 0.22314
 C2349 C 0.04293 0.70831 0.23256
 C2350 C 0.03566 0.72439 0.22677
 C2351 C 0.04145 0.73183 0.21092
 C2352 C 0.05433 0.72358 0.20145
 H2353 H 0.10838 0.70721 0.17047
 H2354 H 0.09207 0.65798 0.19461
 H2355 H 0.03875 0.70204 0.24465
 H2356 H 0.03605 0.74408 0.20580
 H2357 H 0.08589 0.72273 0.18590
 H2358 H 0.05828 0.72948 0.18912
 C2359 C 0.07415 0.20056 0.69380
 C2360 C 0.08571 0.20980 0.68300
 C2361 C 0.09864 0.20055 0.67454
 C2362 C 0.10025 0.18210 0.67685
 C2363 C 0.08857 0.17337 0.68793
 N2364 N 0.07602 0.18268 0.69603
 C2365 C 0.06032 0.20982 0.70323
 N2366 N 0.05386 0.20240 0.71819
 C2367 C 0.04141 0.21038 0.72771
 C2368 C 0.03474 0.22685 0.72228
 C2369 C 0.04095 0.23453 0.70670
 C2370 C 0.05363 0.22606 0.69713
 H2371 H 0.10762 0.20793 0.66655
 H2372 H 0.08930 0.15916 0.69004
 H2373 H 0.03688 0.20392 0.73957
 H2374 H 0.03603 0.24710 0.70187
 H2375 H 0.08514 0.22407 0.68137
 H2376 H 0.05793 0.23214 0.68500
 C2377 C 0.42214 0.69672 0.29613
 C2378 C 0.41063 0.68612 0.28695
 C2379 C 0.39693 0.67834 0.29581
 C2380 C 0.39458 0.68105 0.31380
 C2381 C 0.40643 0.69170 0.32248
 N2382 N 0.41962 0.69921 0.31355
 C2383 C 0.43649 0.70595 0.28731
 N2384 N 0.44273 0.72101 0.29452
 C2385 C 0.45562 0.73048 0.28705
 C2386 C 0.46308 0.72488 0.27134
 C2387 C 0.45711 0.70916 0.26388
 C2388 C 0.44387 0.69966 0.27180
 H2389 H 0.38796 0.67059 0.28844
 H2390 H 0.40530 0.69403 0.33635
 H2391 H 0.45990 0.74244 0.29334
 H2392 H 0.46258 0.70426 0.25184
 H2393 H 0.41181 0.68425 0.27299
 H2394 H 0.43964 0.68748 0.26590
 C2395 C 0.42308 0.19336 0.79927
 C2396 C 0.41161 0.18329 0.78949
 C2397 C 0.39728 0.17602 0.79762
 C2398 C 0.39422 0.17872 0.81550
 C2399 C 0.40589 0.18909 0.82476
 N2400 N 0.41978 0.19607 0.81653
 C2401 C 0.43834 0.20155 0.79112
 N2402 N 0.44480 0.21672 0.79794
 C2403 C 0.45839 0.22529 0.79068
 C2404 C 0.46628 0.21863 0.77560
 C2405 C 0.46014 0.20272 0.76870
 C2406 C 0.44626 0.19414 0.77642
 H2407 H 0.38846 0.16857 0.78979
 H2408 H 0.40413 0.19147 0.83856
 H2409 H 0.46279 0.23745 0.79651
 H2410 H 0.46592 0.19698 0.75720
 H2411 H 0.41339 0.18135 0.77561
 H2412 H 0.44190 0.18181 0.77091
 C2413 C 0.92108 0.69365 0.79887
 C2414 C 0.90899 0.68363 0.78984
 C2415 C 0.89486 0.67690 0.79876
 C2416 C 0.89259 0.68013 0.81666
 C2417 C 0.90489 0.69036 0.82517
 N2418 N 0.91858 0.69680 0.81619
 C2419 C 0.93613 0.70144 0.78993
 N2420 N 0.94346 0.71621 0.79666
 C2421 C 0.95698 0.72441 0.78888
 C2422 C 0.96391 0.71776 0.77332
 C2423 C 0.95685 0.70227 0.76643
 C2424 C 0.94305 0.69406 0.77469
 H2425 H 0.88552 0.66950 0.79151
 H2426 H 0.90376 0.69311 0.83897
 H2427 H 0.96210 0.73624 0.79473
 H2428 H 0.96189 0.69655 0.75455
 H2429 H 0.91012 0.68135 0.77595
 H2430 H 0.93801 0.68202 0.76919
 C2431 C 0.92222 0.20603 0.30238
 C2432 C 0.91081 0.21588 0.31261
 C2433 C 0.89682 0.20749 0.32034
 C2434 C 0.89405 0.18928 0.31792
 C2435 C 0.90571 0.17993 0.30748
 N2436 N 0.91924 0.18842 0.30005
 C2437 C 0.93709 0.21441 0.29364
 N2438 N 0.94345 0.20717 0.27873
 C2439 C 0.95676 0.21448 0.26976
 C2440 C 0.96448 0.23004 0.27573
 C2441 C 0.95841 0.23743 0.29133
 C2442 C 0.94481 0.22966 0.30031
 H2443 H 0.88800 0.21538 0.32787
 H2444 H 0.90419 0.16587 0.30532
 H2445 H 0.96111 0.20826 0.25786
 H2446 H 0.96407 0.24932 0.29655
 H2447 H 0.91233 0.23002 0.31431
 H2448 H 0.94055 0.23553 0.31240
 C2449 C 0.30082 0.29264 0.58120
 C2450 C 0.29167 0.30218 0.59377
 C2451 C 0.30020 0.30961 0.60778
 C2452 C 0.31786 0.30756 0.60945
 C2453 C 0.32649 0.29727 0.59702
 N2454 N 0.31788 0.29021 0.58334
 C2455 C 0.29220 0.28533 0.56571
 N2456 N 0.29804 0.27006 0.55841
 C2457 C 0.29027 0.26255 0.54446
 C2458 C 0.27574 0.27050 0.53704
 C2459 C 0.26986 0.28648 0.54411
 C2460 C 0.27803 0.29392 0.55834
 H2461 H 0.29291 0.31690 0.61734
 H2462 H 0.34009 0.29529 0.59788
 H2463 H 0.29532 0.25029 0.53931
 H2464 H 0.25882 0.29321 0.53874
 H2465 H 0.27801 0.30382 0.59292
 H2466 H 0.27333 0.30637 0.56339
 C2467 C 0.29376 0.79992 0.07881
 C2468 C 0.28484 0.80997 0.09119
 C2469 C 0.29359 0.81755 0.10502
 C2470 C 0.31124 0.81518 0.10666
 C2471 C 0.31964 0.80475 0.09418
 N2472 N 0.31081 0.79748 0.08079
 C2473 C 0.28501 0.79170 0.06386
 N2474 N 0.29154 0.77662 0.05681
 C2475 C 0.28399 0.76827 0.04321
 C2476 C 0.26899 0.77517 0.03584
 C2477 C 0.26226 0.79090 0.04269
 C2478 C 0.27021 0.79919 0.05663
 H2479 H 0.28645 0.82502 0.11455
 H2480 H 0.33322 0.80258 0.09485
 H2481 H 0.28969 0.75624 0.03824
 H2482 H 0.25080 0.79679 0.03734
 H2483 H 0.27120 0.81171 0.09048
 H2484 H 0.26489 0.81145 0.06147
 C2485 C 0.79663 0.30217 0.08252
 C2486 C 0.78768 0.31269 0.09448
 C2487 C 0.79635 0.32066 0.10813
 C2488 C 0.81397 0.31822 0.11004
 C2489 C 0.82241 0.30729 0.09801
 N2490 N 0.81365 0.29965 0.08477
 C2491 C 0.78795 0.29347 0.06778
 N2492 N 0.79461 0.27824 0.06119
 C2493 C 0.78719 0.26944 0.04781
 C2494 C 0.77217 0.27599 0.04016
 C2495 C 0.76528 0.29186 0.04653
 C2496 C 0.77311 0.30063 0.06027
 H2497 H 0.78917 0.32849 0.11734
 H2498 H 0.83597 0.30504 0.09893
 H2499 H 0.79302 0.25733 0.04321
 H2500 H 0.75381 0.29749 0.04094
 H2501 H 0.77405 0.31451 0.09358
 H2502 H 0.76768 0.31299 0.06473
 C2503 C 0.80481 0.79301 0.57929
 C2504 C 0.81513 0.78359 0.59117
 C2505 C 0.82320 0.79262 0.60457
 C2506 C 0.82102 0.81102 0.60631
 C2507 C 0.81044 0.81992 0.59428
 N2508 N 0.80270 0.81082 0.58130
 C2509 C 0.79576 0.78402 0.56496
 N2510 N 0.78138 0.79158 0.55831
 C2511 C 0.77225 0.78396 0.54534
 C2512 C 0.77753 0.76774 0.53825
 C2513 C 0.79250 0.75990 0.54468
 C2514 C 0.80165 0.76798 0.55794
 H2515 H 0.83083 0.78508 0.61379
 H2516 H 0.80845 0.83410 0.59505
 H2517 H 0.76086 0.79055 0.54068
 H2518 H 0.79715 0.74749 0.53948
 H2519 H 0.81667 0.76934 0.59049
 H2520 H 0.81331 0.76179 0.56240
 C2521 C 0.30897 0.70444 0.42153
 C2522 C 0.31928 0.71381 0.40952
 C2523 C 0.32650 0.70492 0.39540
 C2524 C 0.32347 0.68674 0.39309
 C2525 C 0.31308 0.67788 0.40537
 N2526 N 0.30617 0.68682 0.41900
 C2527 C 0.30041 0.71320 0.43643
 N2528 N 0.28641 0.70534 0.44363
 C2529 C 0.27759 0.71261 0.45709
 C2530 C 0.28275 0.72883 0.46416
 C2531 C 0.29734 0.73702 0.45719
 C2532 C 0.30623 0.72925 0.44340
 H2533 H 0.33410 0.71241 0.38607
 H2534 H 0.31051 0.66384 0.40424
 H2535 H 0.26648 0.70575 0.46212
 H2536 H 0.30187 0.74946 0.46234
 H2537 H 0.32141 0.72792 0.41062
 H2538 H 0.31757 0.73573 0.43847
 C2539 C 0.30203 0.19811 0.91963
 C2540 C 0.29248 0.18875 0.90735
 C2541 C 0.30062 0.18107 0.89314
 C2542 C 0.31829 0.18264 0.89098
 C2543 C 0.32734 0.19265 0.90321
 N2544 N 0.31910 0.20002 0.91706
 C2545 C 0.29380 0.20595 0.93517
 N2546 N 0.30007 0.22119 0.94201
 C2547 C 0.29262 0.22926 0.95593
 C2548 C 0.27797 0.22194 0.96378
 C2549 C 0.27166 0.20596 0.95721
 C2550 C 0.27952 0.19794 0.94300
 H2551 H 0.29300 0.17402 0.88377
 H2552 H 0.34096 0.19425 0.90202
 H2553 H 0.29799 0.24149 0.96069
 H2554 H 0.26051 0.19971 0.96292
 H2555 H 0.27881 0.18752 0.90856
 H2556 H 0.27447 0.18554 0.93830
 C2557 C 0.80495 0.70792 0.92227
 C2558 C 0.81548 0.71697 0.91021
 C2559 C 0.82315 0.70763 0.89661
 C2560 C 0.82032 0.68934 0.89486
 C2561 C 0.80978 0.68081 0.90723
 N2562 N 0.80244 0.69018 0.92034
 C2563 C 0.79581 0.71709 0.93657
 N2564 N 0.78199 0.70899 0.94390
 C2565 C 0.77268 0.71649 0.95688
 C2566 C 0.77711 0.73322 0.96331
 C2567 C 0.79147 0.74171 0.95618
 C2568 C 0.80087 0.73371 0.94288
 H2569 H 0.83089 0.71484 0.88720
 H2570 H 0.80738 0.66670 0.90655
 H2571 H 0.76177 0.70938 0.96206
 H2572 H 0.79544 0.75456 0.96085
 H2573 H 0.81746 0.73114 0.91085
 H2574 H 0.81203 0.74044 0.93784
 C2575 C 0.79802 0.20369 0.41793
 C2576 C 0.78919 0.19319 0.40596
 C2577 C 0.79797 0.18534 0.39220
 C2578 C 0.81556 0.18789 0.39018
 C2579 C 0.82387 0.19876 0.40225
 N2580 N 0.81502 0.20628 0.41560
 C2581 C 0.78923 0.21222 0.43281
 N2582 N 0.79568 0.22746 0.43950
 C2583 C 0.78810 0.23609 0.45300
 C2584 C 0.77312 0.22935 0.46064
 C2585 C 0.76649 0.21346 0.45417
 C2586 C 0.77448 0.20487 0.44035
 H2587 H 0.79090 0.17752 0.38298
 H2588 H 0.83741 0.20107 0.40128
 H2589 H 0.79372 0.24823 0.45766
 H2590 H 0.75506 0.20765 0.45975
 H2591 H 0.77558 0.19131 0.40693
 H2592 H 0.76924 0.19249 0.43584
 C2593 C 0.69382 0.30407 0.42072
 C2594 C 0.68340 0.29454 0.40933
 C2595 C 0.67524 0.30340 0.39563
 C2596 C 0.67742 0.32175 0.39309
 C2597 C 0.68823 0.33075 0.40452
 N2598 N 0.69605 0.32181 0.41785
 C2599 C 0.70285 0.29520 0.43540
 N2600 N 0.71739 0.30260 0.44158
 C2601 C 0.72658 0.29496 0.45471
 C2602 C 0.72125 0.27886 0.46245
 C2603 C 0.70609 0.27125 0.45657
 C2604 C 0.69684 0.27938 0.44315
 H2605 H 0.66746 0.29578 0.38685
 H2606 H 0.69027 0.34489 0.40305
 H2607 H 0.73813 0.30138 0.45893
 H2608 H 0.70139 0.25896 0.46229
 H2609 H 0.68180 0.28032 0.41065
 H2610 H 0.68505 0.27335 0.43909
 C2611 C 0.69482 0.80303 0.91975
 C2612 C 0.68454 0.79337 0.90832
 C2613 C 0.67656 0.80208 0.89440
 C2614 C 0.67881 0.82039 0.89166
 C2615 C 0.68942 0.82953 0.90318
 N2616 N 0.69704 0.82075 0.91672
 C2617 C 0.70374 0.79443 0.93466
 N2618 N 0.71777 0.80241 0.94131
 C2619 C 0.72682 0.79520 0.95477
 C2620 C 0.72188 0.77891 0.96237
 C2621 C 0.70726 0.77062 0.95596
 C2622 C 0.69813 0.77834 0.94222
 H2623 H 0.66889 0.79438 0.88559
 H2624 H 0.69149 0.84366 0.90159
 H2625 H 0.73795 0.80211 0.95937
 H2626 H 0.70286 0.75815 0.96155
 H2627 H 0.68291 0.77917 0.90976
 H2628 H 0.68674 0.77180 0.93779
 C2629 C 0.19714 0.29414 0.92319
 C2630 C 0.18647 0.28464 0.91201
 C2631 C 0.17830 0.29348 0.89828
 C2632 C 0.18074 0.31176 0.89551
 C2633 C 0.19171 0.32074 0.90681
 N2634 N 0.19952 0.31183 0.92014
 C2635 C 0.20632 0.28538 0.93784
 N2636 N 0.22070 0.29308 0.94403
 C2637 C 0.23000 0.28569 0.95721
 C2638 C 0.22496 0.26953 0.96500
 C2639 C 0.20998 0.26155 0.95909
 C2640 C 0.20061 0.26943 0.94561
 H2641 H 0.17034 0.28590 0.88964
 H2642 H 0.19391 0.33484 0.90521
 H2643 H 0.24140 0.29238 0.96145
 H2644 H 0.20551 0.24918 0.96484
 H2645 H 0.18470 0.27046 0.91348
 H2646 H 0.18896 0.26313 0.94154
 C2647 C 0.20268 0.80327 0.42354
 C2648 C 0.21070 0.81441 0.41117
 C2649 C 0.20118 0.82212 0.39773
 C2650 C 0.18368 0.81877 0.39645
 C2651 C 0.17619 0.80732 0.40894
 N2652 N 0.18574 0.79995 0.42195
 C2653 C 0.21225 0.79466 0.43798
 N2654 N 0.20646 0.77905 0.44494
 C2655 C 0.21476 0.77027 0.45803
 C2656 C 0.22984 0.77721 0.46493
 C2657 C 0.23582 0.79347 0.45818
 C2658 C 0.22708 0.80223 0.44479
 H2659 H 0.20764 0.83042 0.38816
 H2660 H 0.16274 0.80441 0.40854
 H2661 H 0.20962 0.75784 0.46294
 H2662 H 0.24731 0.79942 0.46321
 H2663 H 0.22424 0.81689 0.41156
 H2664 H 0.23183 0.81488 0.44004
 C2665 C 0.69896 0.69180 0.58057
 C2666 C 0.70722 0.68089 0.59294
 C2667 C 0.69789 0.67311 0.60655
 C2668 C 0.68031 0.67617 0.60801
 C2669 C 0.67257 0.68736 0.59549
 N2670 N 0.68195 0.69480 0.58233
 C2671 C 0.70833 0.70049 0.56596
 N2672 N 0.70216 0.71590 0.55890
 C2673 C 0.71025 0.72474 0.54564
 C2674 C 0.72551 0.71807 0.53868
 C2675 C 0.73189 0.70202 0.54554
 C2676 C 0.72336 0.69320 0.55909
 H2677 H 0.70453 0.66500 0.61611
 H2678 H 0.65906 0.69004 0.59602
 H2679 H 0.70480 0.73701 0.54066
 H2680 H 0.74352 0.69628 0.54047
 H2681 H 0.72081 0.67866 0.59242
 H2682 H 0.72843 0.68070 0.56392
 C2683 C 0.68992 0.20126 0.07692
 C2684 C 0.67917 0.21039 0.08848
 C2685 C 0.67113 0.20110 0.10210
 C2686 C 0.67377 0.18275 0.10431
 C2687 C 0.68443 0.17412 0.09232
 N2688 N 0.69219 0.18346 0.07923
 C2689 C 0.69966 0.21046 0.06288
 N2690 N 0.71410 0.20264 0.05676
 C2691 C 0.72403 0.21031 0.04420
 C2692 C 0.71961 0.22690 0.03695
 C2693 C 0.70458 0.23506 0.04279
 C2694 C 0.69457 0.22690 0.05570
 H2695 H 0.66330 0.20839 0.11121
 H2696 H 0.68667 0.15997 0.09333
 H2697 H 0.73543 0.20346 0.04000
 H2698 H 0.70060 0.24780 0.03746
 H2699 H 0.67740 0.22461 0.08749
 H2700 H 0.68295 0.23337 0.05980
 C2701 C 0.18742 0.70091 0.07361
 C2702 C 0.17659 0.71002 0.08509
 C2703 C 0.16860 0.70076 0.09874
 C2704 C 0.17137 0.68245 0.10109
 C2705 C 0.18227 0.67385 0.08931
 N2706 N 0.18995 0.68317 0.07613
 C2707 C 0.19685 0.71014 0.05935
 N2708 N 0.21132 0.70253 0.05308
 C2709 C 0.22097 0.71030 0.04033
 C2710 C 0.21621 0.72681 0.03309
 C2711 C 0.20115 0.73474 0.03909
 C2712 C 0.19142 0.72646 0.05215
 H2713 H 0.16066 0.70807 0.10772
 H2714 H 0.18468 0.65974 0.09052
 H2715 H 0.23241 0.70362 0.03601
 H2716 H 0.19690 0.74738 0.03375
 H2717 H 0.17465 0.72421 0.08400
 H2718 H 0.17974 0.73275 0.05633
 C2719 C 0.19300 0.19935 0.57590
 C2720 C 0.18242 0.20886 0.58730
 C2721 C 0.17390 0.19992 0.60077
 C2722 C 0.17591 0.18151 0.60310
 C2723 C 0.18686 0.17252 0.59165
 N2724 N 0.19501 0.18154 0.57854
 C2725 C 0.20245 0.20824 0.56144
 N2726 N 0.21680 0.20043 0.55509
 C2727 C 0.22632 0.20797 0.54209
 C2728 C 0.22156 0.22441 0.53468
 C2729 C 0.20661 0.23250 0.54076
 C2730 C 0.19700 0.22446 0.55403
 H2731 H 0.16600 0.20750 0.60957
 H2732 H 0.18876 0.15834 0.59294
 H2733 H 0.23770 0.20120 0.53771
 H2734 H 0.20233 0.24507 0.53530
 H2735 H 0.18095 0.22311 0.58617
 H2736 H 0.18538 0.23086 0.55822
   
