data_POSCAR
  _audit_creation_date              2014-09-24
  _audit_creation_method            'ToBaCCo'
  _symmetry_space_group_name_H-M    'P1'
  _symmetry_Int_Tables_number       1
  _symmetry_cell_setting            triclinic
  loop_
  _symmetry_equiv_pos_as_xyz
 x,y,z
_cell_length_a 77.9081
_cell_length_b 79.2669
_cell_length_c 77.9008
_cell_angle_alpha 89.949200
_cell_angle_beta 90.027200
_cell_angle_gamma 89.689700
loop_
  _atom_site_label
  _atom_site_type_symbol
  _atom_site_fract_x
  _atom_site_fract_y
  _atom_site_fract_z
N1 N 0.36992 0.32297 0.33223
 N2 N 0.36870 0.33426 0.31992
 C3 C 0.38204 0.33232 0.30910
 C4 C 0.39218 0.31910 0.31497
 C5 C 0.38408 0.31352 0.32972
 H6 H 0.38406 0.33982 0.29769
 H7 H 0.38774 0.30286 0.33761
 Cu8 Cu 0.34944 0.34997 0.31863
 Cu9 Cu 0.35211 0.32015 0.34941
 Cu10 Cu 0.32147 0.35163 0.35145
 N11 N 0.33388 0.36904 0.32178
 N12 N 0.32322 0.36975 0.33482
 C13 C 0.31337 0.38366 0.33338
 C14 C 0.31805 0.39218 0.31859
 C15 C 0.33121 0.38254 0.31160
 H16 H 0.30322 0.38702 0.34221
 H17 H 0.33785 0.38478 0.29963
 N18 N 0.32349 0.33380 0.36891
 N19 N 0.33504 0.32161 0.36800
 C20 C 0.33248 0.31075 0.38104
 C21 C 0.31864 0.31638 0.39063
 C22 C 0.31333 0.33108 0.38259
 H23 H 0.33996 0.29942 0.38322
 H24 H 0.30239 0.33881 0.38600
 H25 H 0.33189 0.33206 0.33744
 H26 H 0.34727 0.34565 0.34942
 N27 N 0.36728 0.82486 -0.16644
 N28 N 0.36927 0.83899 -0.17500
 C29 C 0.38345 0.83778 -0.18479
 C30 C 0.39075 0.82187 -0.18240
 C31 C 0.37999 0.81408 -0.17058
 H32 H 0.38777 0.84763 -0.19332
 H33 H 0.38108 0.80148 -0.16537
 Cu34 Cu 0.35224 0.85698 -0.17342
 Cu35 Cu 0.34786 0.82127 -0.15111
 Cu36 Cu 0.32836 0.85849 -0.13780
 N37 N 0.33585 0.87519 -0.16961
 N38 N 0.32669 0.87582 -0.15548
 C39 C 0.31627 0.88939 -0.15603
 C40 C 0.31874 0.89769 -0.17156
 C41 C 0.33141 0.88824 -0.17978
 H42 H 0.30717 0.89247 -0.14603
 H43 H 0.33689 0.89044 -0.19232
 N44 N 0.32581 0.83691 -0.12553
 N45 N 0.33273 0.82265 -0.13093
 C46 C 0.32776 0.81004 -0.12050
 C47 C 0.31709 0.81667 -0.10793
 C48 C 0.31619 0.83377 -0.11157
 H49 H 0.33166 0.79702 -0.12199
 H50 H 0.30859 0.84318 -0.10495
 H51 H 0.33104 0.84128 -0.15691
 H52 H 0.35099 0.84552 -0.14439
 N53 N 0.87037 0.32383 -0.17263
 N54 N 0.86849 0.33532 -0.18462
 C55 C 0.88180 0.33436 -0.19558
 C56 C 0.89261 0.32143 -0.19025
 C57 C 0.88490 0.31505 -0.17557
 H58 H 0.88307 0.34206 -0.20696
 H59 H 0.88923 0.30456 -0.16780
 Cu60 Cu 0.84817 0.34949 -0.18566
 Cu61 Cu 0.85292 0.32024 -0.15516
 Cu62 Cu 0.82291 0.35256 -0.15072
 N63 N 0.83211 0.36795 -0.18277
 N64 N 0.82241 0.36943 -0.16908
 C65 C 0.81251 0.38334 -0.17071
 C66 C 0.81620 0.39102 -0.18638
 C67 C 0.82880 0.38077 -0.19356
 H68 H 0.80314 0.38729 -0.16130
 H69 H 0.83519 0.38235 -0.20575
 N70 N 0.82556 0.33403 -0.13383
 N71 N 0.83700 0.32181 -0.13563
 C72 C 0.83536 0.31083 -0.12257
 C73 C 0.82215 0.31623 -0.11203
 C74 C 0.81622 0.33101 -0.11959
 H75 H 0.84289 0.29942 -0.12116
 H76 H 0.80574 0.33886 -0.11517
 H77 H 0.83146 0.33278 -0.16513
 H78 H 0.84836 0.34579 -0.15470
 N79 N 0.86804 0.82464 0.33203
 N80 N 0.86726 0.83674 0.32052
 C81 C 0.88098 0.83557 0.31011
 C82 C 0.89093 0.82190 0.31527
 C83 C 0.88227 0.81532 0.32930
 H84 H 0.88327 0.84385 0.29934
 H85 H 0.88562 0.80418 0.33659
 Cu86 Cu 0.84778 0.85214 0.31932
 Cu87 Cu 0.84968 0.82100 0.34852
 Cu88 Cu 0.81796 0.85168 0.35044
 N89 N 0.83161 0.87068 0.32234
 N90 N 0.81993 0.87049 0.33448
 C91 C 0.80977 0.88419 0.33283
 C92 C 0.81537 0.89360 0.31883
 C93 C 0.82942 0.88457 0.31264
 H94 H 0.79889 0.88677 0.34102
 H95 H 0.83715 0.88743 0.30152
 N96 N 0.81998 0.83333 0.36748
 N97 N 0.83196 0.82153 0.36659
 C98 C 0.82959 0.81041 0.37943
 C99 C 0.81543 0.81542 0.38891
 C100 C 0.80972 0.83007 0.38099
 H101 H 0.83754 0.79942 0.38167
 H102 H 0.79858 0.83748 0.38448
 H103 H 0.82966 0.83305 0.33630
 H104 H 0.84396 0.84644 0.34969
 N105 N 0.63258 0.67017 0.33626
 N106 N 0.63409 0.65962 0.32333
 C107 C 0.62214 0.66338 0.31143
 C108 C 0.61251 0.67697 0.31724
 C109 C 0.61947 0.68088 0.33313
 H110 H 0.62060 0.65666 0.29946
 H111 H 0.61568 0.69106 0.34157
 Cu112 Cu 0.65138 0.64183 0.32327
 Cu113 Cu 0.64831 0.66945 0.35578
 Cu114 Cu 0.68706 0.65028 0.34553
 N115 N 0.67151 0.62729 0.32183
 N116 N 0.68546 0.63075 0.33057
 C117 C 0.69773 0.61941 0.32670
 C118 C 0.69116 0.60808 0.31487
 C119 C 0.67440 0.61352 0.31210
 H120 H 0.71051 0.61956 0.33209
 H121 H 0.66515 0.60820 0.30333
 N122 N 0.68421 0.66580 0.36502
 N123 N 0.66938 0.67266 0.36937
 C124 C 0.67168 0.68230 0.38342
 C125 C 0.68884 0.68144 0.38816
 C126 C 0.69632 0.67079 0.37618
 H127 H 0.66166 0.68969 0.38944
 H128 H 0.70958 0.66677 0.37568
 H129 H 0.66609 0.66492 0.33769
 H130 H 0.66218 0.64674 0.35238
 N131 N 0.62657 0.17459 -0.16484
 N132 N 0.62815 0.16472 -0.17828
 C133 C 0.61548 0.16825 -0.18950
 C134 C 0.60548 0.18116 -0.18277
 C135 C 0.61291 0.18480 -0.16707
 H136 H 0.61409 0.16235 -0.20193
 H137 H 0.60902 0.19450 -0.15812
 Cu138 Cu 0.64722 0.14901 -0.18038
 Cu139 Cu 0.64344 0.17502 -0.14649
 Cu140 Cu 0.67801 0.14754 -0.15018
 N141 N 0.66291 0.12997 -0.17851
 N142 N 0.67499 0.12941 -0.16677
 C143 C 0.68460 0.11545 -0.16912
 C144 C 0.67822 0.10666 -0.18319
 C145 C 0.66432 0.11634 -0.18869
 H146 H 0.69564 0.11229 -0.16133
 H147 H 0.65604 0.11402 -0.19955
 N148 N 0.67553 0.16370 -0.13110
 N149 N 0.66208 0.17376 -0.12949
 C150 C 0.66437 0.18378 -0.11578
 C151 C 0.68006 0.17997 -0.10834
 C152 C 0.68673 0.16705 -0.11837
 H153 H 0.65549 0.19355 -0.11188
 H154 H 0.69910 0.16099 -0.11695
 H155 H 0.66383 0.16720 -0.16105
 H156 H 0.65194 0.15023 -0.14957
 N157 N 0.12909 0.67311 -0.16319
 N158 N 0.13074 0.66156 -0.17517
 C159 C 0.11893 0.66432 -0.18747
 C160 C 0.10924 0.67838 -0.18297
 C161 C 0.11607 0.68355 -0.16738
 H162 H 0.11758 0.65670 -0.19887
 H163 H 0.11219 0.69432 -0.15979
 Cu164 Cu 0.14850 0.64430 -0.17370
 Cu165 Cu 0.14418 0.67377 -0.14316
 Cu166 Cu 0.18167 0.65021 -0.14745
 N167 N 0.16574 0.62675 -0.17041
 N168 N 0.17874 0.62919 -0.15997
 C169 C 0.18951 0.61591 -0.16087
 C170 C 0.18295 0.60447 -0.17254
 C171 C 0.16780 0.61178 -0.17834
 H172 H 0.20161 0.61508 -0.15412
 H173 H 0.15918 0.60681 -0.18794
 N174 N 0.17882 0.66819 -0.13032
 N175 N 0.16445 0.67682 -0.12825
 C176 C 0.16664 0.68799 -0.11540
 C177 C 0.18322 0.68628 -0.10911
 C178 C 0.19050 0.67355 -0.11889
 H179 H 0.15701 0.69698 -0.11127
 H180 H 0.20331 0.66839 -0.11770
 H181 H 0.16371 0.66676 -0.15874
 H182 H 0.15602 0.64995 -0.14388
 N183 N 0.13327 0.17284 0.33258
 N184 N 0.13535 0.16299 0.31917
 C185 C 0.12307 0.16649 0.30753
 C186 C 0.11263 0.17919 0.31403
 C187 C 0.11947 0.18281 0.33004
 H188 H 0.12196 0.16041 0.29518
 H189 H 0.11521 0.19243 0.33892
 Cu190 Cu 0.15443 0.14713 0.31802
 Cu191 Cu 0.14918 0.17257 0.35195
 Cu192 Cu 0.18847 0.15373 0.34295
 N193 N 0.17319 0.13084 0.31895
 N194 N 0.18668 0.13375 0.32860
 C195 C 0.19847 0.12160 0.32600
 C196 C 0.19203 0.11031 0.31409
 C197 C 0.17588 0.11657 0.30993
 H198 H 0.21088 0.12121 0.33220
 H199 H 0.16708 0.11155 0.30052
 N200 N 0.18493 0.16933 0.36219
 N201 N 0.16991 0.17608 0.36603
 C202 C 0.17174 0.18594 0.37998
 C203 C 0.18877 0.18533 0.38519
 C204 C 0.19669 0.17460 0.37358
 H205 H 0.16150 0.19334 0.38560
 H206 H 0.21001 0.17074 0.37344
 H207 H 0.16821 0.16937 0.33461
 H208 H 0.16332 0.15035 0.34783
 N209 N 0.63313 0.32400 0.66645
 N210 N 0.63396 0.33400 0.67985
 C211 C 0.62136 0.33007 0.69090
 C212 C 0.61206 0.31681 0.68411
 C213 C 0.61988 0.31333 0.66851
 H214 H 0.61919 0.33636 0.70301
 H215 H 0.61664 0.30334 0.65966
 Cu216 Cu 0.65163 0.35093 0.68200
 Cu217 Cu 0.65035 0.32452 0.64828
 Cu218 Cu 0.68269 0.35428 0.65258
 N219 N 0.66528 0.37121 0.68002
 N220 N 0.67771 0.37243 0.66872
 C221 C 0.68603 0.38708 0.67116
 C222 C 0.67825 0.39558 0.68467
 C223 C 0.66509 0.38510 0.68991
 H224 H 0.69708 0.39107 0.66384
 H225 H 0.65652 0.38703 0.70065
 N226 N 0.68180 0.33796 0.63354
 N227 N 0.66925 0.32700 0.63160
 C228 C 0.67254 0.31744 0.61770
 C229 C 0.68792 0.32257 0.61053
 C230 C 0.69338 0.33566 0.62093
 H231 H 0.66471 0.30700 0.61355
 H232 H 0.70504 0.34287 0.61955
 H233 H 0.66981 0.33365 0.66307
 H234 H 0.65687 0.34978 0.65130
 N235 N 0.63511 0.82003 1.16843
 N236 N 0.63465 0.83157 1.18054
 C237 C 0.62153 0.82815 1.19125
 C238 C 0.61348 0.81360 1.18563
 C239 C 0.62246 0.80886 1.17108
 H240 H 0.61842 0.83535 1.20262
 H241 H 0.62014 0.79795 1.16311
 Cu242 Cu 0.65179 0.84947 1.18156
 Cu243 Cu 0.65286 0.81958 1.15096
 Cu244 Cu 0.68263 0.85154 1.15124
 N245 N 0.66816 0.86804 1.18070
 N246 N 0.67985 0.86901 1.16858
 C247 C 0.68957 0.88275 1.17124
 C248 C 0.68377 0.89085 1.18590
 C249 C 0.67013 0.88114 1.19154
 H250 H 0.70051 0.88619 1.16348
 H251 H 0.66234 0.88335 1.20280
 N252 N 0.68159 0.83446 1.13287
 N253 N 0.66998 0.82241 1.13264
 C254 C 0.67268 0.81253 1.11886
 C255 C 0.68679 0.81852 1.11001
 C256 C 0.69210 0.83247 1.11927
 H257 H 0.66536 0.80138 1.11584
 H258 H 0.70294 0.84044 1.11642
 H259 H 0.67159 0.83210 1.16468
 H260 H 0.65702 0.84539 1.15115
 N261 N 0.13344 0.32132 1.16758
 N262 N 0.13260 0.33299 1.17954
 C263 C 0.11907 0.32982 1.18978
 C264 C 0.11108 0.31531 1.18406
 C265 C 0.12057 0.31028 1.16990
 H266 H 0.11567 0.33716 1.20097
 H267 H 0.11849 0.29924 1.16204
 Cu268 Cu 0.14980 0.35070 1.18126
 Cu269 Cu 0.15194 0.32070 1.15079
 Cu270 Cu 0.18186 0.35256 1.15245
 N271 N 0.16649 0.36896 1.18146
 N272 N 0.17872 0.36987 1.16988
 C273 C 0.18859 0.38335 1.17321
 C274 C 0.18231 0.39133 1.18773
 C275 C 0.16823 0.38183 1.19260
 H276 H 0.19995 0.38668 1.16601
 H277 H 0.16001 0.38402 1.20355
 N278 N 0.18141 0.33567 1.13391
 N279 N 0.16985 0.32358 1.13314
 C280 C 0.17314 0.31387 1.11932
 C281 C 0.18755 0.32006 1.11108
 C282 C 0.19239 0.33392 1.12069
 H283 H 0.16596 0.30276 1.11585
 H284 H 0.20323 0.34205 1.11831
 H285 H 0.17003 0.33301 1.16528
 H286 H 0.15614 0.34636 1.15111
 N287 N 0.12918 0.82793 0.66588
 N288 N 0.13005 0.83861 0.67873
 C289 C 0.11674 0.83605 0.68938
 C290 C 0.10696 0.82295 0.68296
 C291 C 0.11528 0.81809 0.66799
 H292 H 0.11466 0.84289 0.70119
 H293 H 0.11168 0.80800 0.65941
 Cu294 Cu 0.14877 0.85438 0.68094
 Cu295 Cu 0.14684 0.82696 0.64813
 Cu296 Cu 0.18086 0.85492 0.65247
 N297 N 0.16389 0.87362 0.67899
 N298 N 0.17674 0.87371 0.66809
 C299 C 0.18605 0.88777 0.67055
 C300 C 0.17850 0.89707 0.68364
 C301 C 0.16442 0.88767 0.68861
 H302 H 0.19761 0.89080 0.66354
 H303 H 0.15568 0.89042 0.69903
 N304 N 0.17934 0.83825 0.63376
 N305 N 0.16621 0.82797 0.63180
 C306 C 0.16910 0.81813 0.61799
 C307 C 0.18482 0.82237 0.61095
 C308 C 0.19091 0.83522 0.62129
 H309 H 0.16069 0.80816 0.61375
 H310 H 0.20291 0.84185 0.61989
 H311 H 0.16642 0.83545 0.66314
 H312 H 0.15483 0.85189 0.65048
 N313 N 0.36377 0.67667 0.67101
 N314 N 0.36296 0.66430 0.68222
 C315 C 0.37616 0.66567 0.69329
 C316 C 0.38577 0.67966 0.68879
 C317 C 0.37752 0.68629 0.67453
 H318 H 0.37851 0.65723 0.70394
 H319 H 0.38085 0.69765 0.66764
 Cu320 Cu 0.34445 0.64784 0.68173
 Cu321 Cu 0.34603 0.68019 0.65377
 Cu322 Cu 0.31388 0.65054 0.65130
 N323 N 0.32656 0.63086 0.67952
 N324 N 0.31470 0.63188 0.66755
 C325 C 0.30364 0.61902 0.66945
 C326 C 0.30885 0.60933 0.68334
 C327 C 0.32350 0.61722 0.68936
 H328 H 0.29248 0.61705 0.66146
 H329 H 0.33101 0.61363 0.70046
 N330 N 0.31658 0.66868 0.63417
 N331 N 0.32877 0.68013 0.63526
 C332 C 0.32685 0.69126 0.62232
 C333 C 0.31279 0.68661 0.61258
 C334 C 0.30666 0.67217 0.62044
 H335 H 0.33501 0.70205 0.62022
 H336 H 0.29544 0.66507 0.61676
 H337 H 0.32630 0.66807 0.66629
 H338 H 0.34000 0.65494 0.65176
 N339 N 0.37260 0.18107 1.16644
 N340 N 0.37274 0.16920 1.17822
 C341 C 0.38566 0.17218 1.18930
 C342 C 0.39397 0.18678 1.18424
 C343 C 0.38530 0.19204 1.16966
 H344 H 0.38849 0.16462 1.20051
 H345 H 0.38793 0.20312 1.16202
 Cu346 Cu 0.35553 0.15150 1.17824
 Cu347 Cu 0.35549 0.18200 1.14827
 Cu348 Cu 0.32349 0.15186 1.14940
 N349 N 0.33858 0.13355 1.17744
 N350 N 0.32622 0.13356 1.16594
 C351 C 0.31596 0.12022 1.16874
 C352 C 0.32216 0.11141 1.18284
 C353 C 0.33657 0.12024 1.18797
 H354 H 0.30443 0.11757 1.16153
 H355 H 0.34481 0.11734 1.19874
 N356 N 0.32475 0.16939 1.13143
 N357 N 0.33698 0.18085 1.13112
 C358 C 0.33403 0.19156 1.11804
 C359 C 0.31924 0.18666 1.10963
 C360 C 0.31375 0.17247 1.11841
 H361 H 0.34195 0.20230 1.11499
 H362 H 0.30227 0.16530 1.11588
 H363 H 0.33662 0.17070 1.16243
 H364 H 0.34936 0.15653 1.14809
 N365 N 0.86959 0.67794 1.17005
 N366 N 0.86924 0.66525 1.18089
 C367 C 0.88252 0.66661 1.19185
 C368 C 0.89170 0.68100 1.18772
 C369 C 0.88307 0.68784 1.17376
 H370 H 0.88514 0.65783 1.20215
 H371 H 0.88599 0.69943 1.16708
 Cu372 Cu 0.85113 0.64847 1.18029
 Cu373 Cu 0.85182 0.68130 1.15282
 Cu374 Cu 0.82470 0.64755 1.14634
 N375 N 0.83741 0.62871 1.17502
 N376 N 0.82750 0.62817 1.16138
 C377 C 0.81890 0.61350 1.16129
 C378 C 0.82358 0.60434 1.17572
 C379 C 0.83542 0.61441 1.18411
 H380 H 0.80919 0.61021 1.15197
 H381 H 0.84179 0.61175 1.19615
 N382 N 0.82544 0.66712 1.13079
 N383 N 0.83556 0.68015 1.13344
 C384 C 0.83243 0.69190 1.12131
 C385 C 0.81968 0.68598 1.11050
 C386 C 0.81563 0.67020 1.11691
 H387 H 0.83884 0.70393 1.12053
 H388 H 0.80579 0.66184 1.11220
 H389 H 0.83248 0.66655 1.16252
 H390 H 0.84967 0.65568 1.15003
 N391 N 0.86911 0.16835 0.66365
 N392 N 0.86768 0.15766 0.67647
 C393 C 0.88080 0.15991 0.68744
 C394 C 0.89105 0.17278 0.68126
 C395 C 0.88318 0.17785 0.66611
 H396 H 0.88252 0.15289 0.69922
 H397 H 0.88732 0.18773 0.65751
 Cu398 Cu 0.84874 0.14197 0.67802
 Cu399 Cu 0.85229 0.16943 0.64510
 Cu400 Cu 0.81926 0.14031 0.64683
 N401 N 0.83355 0.12277 0.67565
 N402 N 0.82213 0.12212 0.66329
 C403 C 0.81259 0.10817 0.66520
 C404 C 0.81829 0.09955 0.67962
 C405 C 0.83169 0.10922 0.68589
 H406 H 0.80177 0.10501 0.65715
 H407 H 0.83926 0.10685 0.69728
 N408 N 0.82143 0.15705 0.62838
 N409 N 0.83382 0.16832 0.62773
 C410 C 0.83120 0.17836 0.61398
 C411 C 0.81657 0.17299 0.60552
 C412 C 0.81078 0.15944 0.61501
 H413 H 0.83927 0.18884 0.61041
 H414 H 0.79933 0.15216 0.61264
 H415 H 0.83206 0.16025 0.65868
 H416 H 0.84534 0.14428 0.64709
 N417 N 0.31721 0.36838 0.66653
 N418 N 0.32960 0.36941 0.67791
 C419 C 0.32689 0.38306 0.68784
 C420 C 0.31189 0.39094 0.68246
 C421 C 0.30614 0.38124 0.66887
 H422 H 0.33483 0.38657 0.69863
 H423 H 0.29459 0.38315 0.66140
 Cu424 Cu 0.34718 0.35199 0.67979
 Cu425 Cu 0.31558 0.34974 0.65052
 Cu426 Cu 0.35168 0.32426 0.64720
 N427 N 0.36683 0.33690 0.67819
 N428 N 0.36876 0.32643 0.66526
 C429 C 0.38304 0.31714 0.66775
 C430 C 0.39048 0.32197 0.68312
 C431 C 0.37983 0.33461 0.68936
 H432 H 0.38720 0.30703 0.65940
 H433 H 0.38123 0.34143 0.70127
 N434 N 0.33278 0.32385 0.63041
 N435 N 0.31897 0.33345 0.63183
 C436 C 0.30810 0.32983 0.61895
 C437 C 0.31531 0.31721 0.60899
 C438 C 0.33097 0.31373 0.61666
 H439 H 0.29563 0.33563 0.61724
 H440 H 0.34026 0.30437 0.61264
 H441 H 0.33149 0.33164 0.66203
 H442 H 0.34192 0.34866 0.64922
 N443 N 0.33134 0.87177 0.16420
 N444 N 0.34337 0.87010 0.17591
 C445 C 0.34216 0.88303 0.18706
 C446 C 0.32864 0.89336 0.18204
 C447 C 0.32214 0.88580 0.16742
 H448 H 0.35023 0.88460 0.19823
 H449 H 0.31097 0.88971 0.16017
 Cu450 Cu 0.35860 0.85054 0.17595
 Cu451 Cu 0.32726 0.85463 0.14691
 Cu452 Cu 0.35565 0.82088 0.14504
 N453 N 0.37406 0.83122 0.17527
 N454 N 0.37278 0.81957 0.16335
 C455 C 0.38478 0.80757 0.16618
 C456 C 0.39416 0.81202 0.18060
 C457 C 0.38697 0.82710 0.18599
 H458 H 0.38660 0.79651 0.15827
 H459 H 0.39065 0.83436 0.19712
 N460 N 0.33733 0.82471 0.12783
 N461 N 0.32685 0.83783 0.12841
 C462 C 0.31597 0.83714 0.11502
 C463 C 0.31957 0.82279 0.10562
 C464 C 0.33318 0.81516 0.11413
 H465 H 0.30579 0.84614 0.11257
 H466 H 0.33955 0.80352 0.11060
 H467 H 0.33824 0.83382 0.15939
 H468 H 0.35266 0.84676 0.14556
 N469 N 0.82867 0.37062 0.15701
 N470 N 0.83895 0.37002 0.17039
 C471 C 0.83622 0.38380 0.18014
 C472 C 0.82355 0.39357 0.17245
 C473 C 0.81913 0.38480 0.15775
 H474 H 0.84276 0.38641 0.19207
 H475 H 0.80912 0.38805 0.14871
 Cu476 Cu 0.85451 0.35096 0.17425
 Cu477 Cu 0.82705 0.35207 0.14079
 Cu478 Cu 0.85447 0.31832 0.14656
 N479 N 0.87114 0.33250 0.17601
 N480 N 0.87097 0.31988 0.16509
 C481 C 0.88321 0.30866 0.16941
 C482 C 0.89162 0.31448 0.18384
 C483 C 0.88368 0.32973 0.18765
 H484 H 0.88574 0.29707 0.16253
 H485 H 0.88652 0.33795 0.19834
 N486 N 0.83938 0.32056 0.12646
 N487 N 0.82885 0.33344 0.12415
 C488 C 0.81990 0.33098 0.10955
 C489 C 0.82513 0.31583 0.10232
 C490 C 0.83754 0.30964 0.11340
 H491 H 0.81018 0.33949 0.10465
 H492 H 0.84435 0.29778 0.11233
 H493 H 0.83540 0.33332 0.15706
 H494 H 0.85221 0.34415 0.14400
 N495 N 0.82042 0.86907 0.66466
 N496 N 0.83307 0.87102 0.67563
 C497 C 0.83010 0.88495 0.68507
 C498 C 0.81469 0.89210 0.67978
 C499 C 0.80894 0.88164 0.66676
 H500 H 0.83839 0.88935 0.69523
 H501 H 0.79701 0.88267 0.65973
 Cu502 Cu 0.85132 0.85426 0.67739
 Cu503 Cu 0.81911 0.84955 0.64957
 Cu504 Cu 0.85779 0.82810 0.64424
 N505 N 0.87012 0.83805 0.67745
 N506 N 0.87262 0.82782 0.66442
 C507 C 0.88643 0.81804 0.66765
 C508 C 0.89293 0.82229 0.68366
 C509 C 0.88219 0.83508 0.68945
 H510 H 0.89128 0.80853 0.65893
 H511 H 0.88291 0.84162 0.70159
 N512 N 0.83806 0.82549 0.62859
 N513 N 0.82334 0.83352 0.63076
 C514 C 0.81234 0.82878 0.61838
 C515 C 0.82043 0.81705 0.60797
 C516 C 0.83674 0.81525 0.61487
 H517 H 0.79926 0.83328 0.61727
 H518 H 0.84685 0.80700 0.61033
 H519 H 0.83748 0.83279 0.65980
 H520 H 0.84483 0.85125 0.64692
 N521 N 0.67693 0.63087 0.66394
 N522 N 0.66421 0.62903 0.67485
 C523 C 0.66805 0.61649 0.68589
 C524 C 0.68408 0.61009 0.68171
 C525 C 0.68934 0.61956 0.66771
 H526 H 0.65989 0.61254 0.69637
 H527 H 0.70124 0.61825 0.66068
 Cu528 Cu 0.64391 0.64326 0.67388
 Cu529 Cu 0.67618 0.64761 0.64555
 Cu530 Cu 0.64200 0.67577 0.64625
 N531 N 0.62699 0.66114 0.67641
 N532 N 0.62601 0.67362 0.66533
 C533 C 0.61331 0.68418 0.67009
 C534 C 0.60597 0.67806 0.68504
 C535 C 0.61503 0.66340 0.68868
 H536 H 0.61004 0.69575 0.66347
 H537 H 0.61310 0.65499 0.69945
 N538 N 0.65966 0.67587 0.62817
 N539 N 0.67290 0.66541 0.62807
 C540 C 0.68298 0.66912 0.61454
 C541 C 0.67570 0.68251 0.60566
 C542 C 0.66092 0.68642 0.61470
 H543 H 0.69473 0.66253 0.61135
 H544 H 0.65198 0.69654 0.61193
 H545 H 0.66170 0.66430 0.65995
 H546 H 0.64997 0.65084 0.64417
 N547 N 0.67835 0.13075 0.16305
 N548 N 0.66823 0.13262 0.17642
 C549 C 0.67193 0.12065 0.18809
 C550 C 0.68506 0.11060 0.18174
 C551 C 0.68874 0.11734 0.16571
 H552 H 0.66560 0.11942 0.20036
 H553 H 0.69856 0.11317 0.15684
 Cu554 Cu 0.65165 0.15092 0.17757
 Cu555 Cu 0.67733 0.14624 0.14345
 Cu556 Cu 0.65615 0.18412 0.15196
 N557 N 0.63468 0.16897 0.17753
 N558 N 0.63673 0.18217 0.16755
 C559 C 0.62436 0.19358 0.17092
 C560 C 0.61387 0.18718 0.18371
 C561 C 0.62082 0.17147 0.18754
 H562 H 0.62334 0.20573 0.16469
 H563 H 0.61659 0.16284 0.19740
 N564 N 0.67140 0.18080 0.13213
 N565 N 0.67922 0.16641 0.12856
 C566 C 0.68834 0.16835 0.11398
 C567 C 0.68599 0.18472 0.10804
 C568 C 0.67518 0.19217 0.11994
 H569 H 0.69606 0.15855 0.10813
 H570 H 0.67041 0.20500 0.11985
 H571 H 0.67327 0.16518 0.16026
 H572 H 0.65404 0.15902 0.14751
 N573 N 0.17848 0.62872 0.16437
 N574 N 0.16566 0.62664 0.17510
 C575 C 0.16793 0.61198 0.18361
 C576 C 0.18296 0.60450 0.17778
 C577 C 0.18929 0.61551 0.16557
 H578 H 0.15951 0.60730 0.19354
 H579 H 0.20128 0.61444 0.15865
 Cu580 Cu 0.14823 0.64413 0.17767
 Cu581 Cu 0.18129 0.64929 0.15116
 Cu582 Cu 0.14378 0.67257 0.14594
 N583 N 0.13020 0.66115 0.17822
 N584 N 0.12847 0.67227 0.16580
 C585 C 0.11508 0.68249 0.16938
 C586 C 0.10806 0.67760 0.18499
 C587 C 0.11806 0.66397 0.19016
 H588 H 0.11093 0.69276 0.16122
 H589 H 0.11679 0.65674 0.20184
 N590 N 0.16411 0.67523 0.13101
 N591 N 0.17844 0.66662 0.13342
 C592 C 0.19014 0.67148 0.12182
 C593 C 0.18298 0.68391 0.11155
 C594 C 0.16638 0.68595 0.11776
 H595 H 0.20291 0.66618 0.12089
 H596 H 0.15680 0.69482 0.11326
 H597 H 0.16324 0.66615 0.16183
 H598 H 0.15557 0.64881 0.14762
 N599 N 0.18223 0.13306 0.66822
 N600 N 0.16800 0.12999 0.67670
 C601 C 0.17052 0.11652 0.68697
 C602 C 0.18731 0.11094 0.68490
 C603 C 0.19432 0.12180 0.67288
 H604 H 0.16103 0.11150 0.69569
 H605 H 0.20724 0.12159 0.66783
 Cu606 Cu 0.14811 0.14482 0.67429
 Cu607 Cu 0.18423 0.15179 0.65219
 Cu608 Cu 0.14504 0.16692 0.63775
 N609 N 0.12937 0.16077 0.67046
 N610 N 0.12815 0.16922 0.65599
 C611 C 0.11454 0.17970 0.65676
 C612 C 0.10685 0.17791 0.67269
 C613 C 0.11661 0.16569 0.68102
 H614 H 0.11086 0.18826 0.64658
 H615 H 0.11496 0.16116 0.69401
 N616 N 0.16660 0.17027 0.62518
 N617 N 0.18163 0.16519 0.63107
 C618 C 0.19401 0.17057 0.62038
 C619 C 0.18642 0.17961 0.60710
 C620 C 0.16898 0.17908 0.61062
 H621 H 0.20754 0.16818 0.62232
 H622 H 0.15873 0.18515 0.60356
 H623 H 0.16230 0.16638 0.65710
 H624 H 0.16007 0.14602 0.64531
 N625 N 0.31927 0.63361 0.33516
 N626 N 0.33028 0.63351 0.32239
 C627 C 0.32749 0.61979 0.31261
 C628 C 0.31388 0.61088 0.31955
 C629 C 0.30903 0.62006 0.33390
 H630 H 0.33438 0.61690 0.30092
 H631 H 0.29859 0.61731 0.34258
 Cu632 Cu 0.34640 0.65189 0.31895
 Cu633 Cu 0.31802 0.65215 0.35144
 Cu634 Cu 0.35009 0.68197 0.34915
 N635 N 0.36608 0.66692 0.31974
 N636 N 0.36771 0.67836 0.33182
 C637 C 0.38207 0.68729 0.32897
 C638 C 0.38986 0.68120 0.31422
 C639 C 0.37933 0.66823 0.30874
 H640 H 0.38609 0.69794 0.33661
 H641 H 0.38104 0.66047 0.29746
 N642 N 0.33293 0.68158 0.36775
 N643 N 0.32080 0.67007 0.36873
 C644 C 0.31084 0.67337 0.38245
 C645 C 0.31688 0.68775 0.39045
 C646 C 0.33094 0.69258 0.38078
 H647 H 0.29961 0.66622 0.38599
 H648 H 0.33899 0.70344 0.38295
 H649 H 0.32943 0.67093 0.33730
 H650 H 0.34402 0.65670 0.34964
 N651 N 0.32281 0.13223 0.83353
 N652 N 0.33317 0.13308 0.82026
 C653 C 0.32974 0.12037 0.80942
 C654 C 0.31643 0.11098 0.81615
 C655 C 0.31239 0.11883 0.83156
 H656 H 0.33637 0.11824 0.79743
 H657 H 0.30216 0.11550 0.84028
 Cu658 Cu 0.34970 0.15099 0.81769
 Cu659 Cu 0.32267 0.14959 0.85134
 Cu660 Cu 0.35208 0.18213 0.84641
 N661 N 0.36975 0.16524 0.81915
 N662 N 0.37054 0.17776 0.83014
 C663 C 0.38493 0.18664 0.82721
 C664 C 0.39370 0.17915 0.81371
 C665 C 0.38369 0.16555 0.80899
 H666 H 0.38852 0.19789 0.83416
 H667 H 0.38590 0.15705 0.79836
 N668 N 0.33556 0.18109 0.86550
 N669 N 0.32460 0.16862 0.86763
 C670 C 0.31486 0.17191 0.88155
 C671 C 0.31993 0.18720 0.88851
 C672 C 0.33314 0.19257 0.87799
 H673 H 0.30443 0.16407 0.88590
 H674 H 0.34042 0.20407 0.87922
 H675 H 0.33150 0.16863 0.83622
 H676 H 0.34819 0.15660 0.84830
 N677 N 0.82339 0.62937 0.83550
 N678 N 0.83580 0.62867 0.82412
 C679 C 0.83317 0.61541 0.81368
 C680 C 0.81830 0.60734 0.81878
 C681 C 0.81249 0.61653 0.83276
 H682 H 0.84126 0.61207 0.80294
 H683 H 0.80078 0.61454 0.83989
 Cu684 Cu 0.85336 0.64597 0.82316
 Cu685 Cu 0.82145 0.64792 0.85179
 Cu686 Cu 0.85452 0.67710 0.85244
 N687 N 0.87100 0.66317 0.82258
 N688 N 0.87149 0.67528 0.83407
 C689 C 0.88454 0.68572 0.83032
 C690 C 0.89265 0.67990 0.81560
 C691 C 0.88369 0.66551 0.81112
 H692 H 0.88752 0.69701 0.83746
 H693 H 0.88610 0.65743 0.80023
 N694 N 0.83596 0.67669 0.86971
 N695 N 0.82345 0.66552 0.86951
 C696 C 0.81266 0.66876 0.88260
 C697 C 0.81852 0.68275 0.89140
 C698 C 0.83334 0.68743 0.88286
 H699 H 0.80108 0.66178 0.88523
 H700 H 0.84154 0.69796 0.88591
 H701 H 0.83534 0.66621 0.83854
 H702 H 0.84756 0.65189 0.85323
 N703 N 0.82001 0.13254 0.33311
 N704 N 0.83117 0.13282 0.32046
 C705 C 0.82855 0.11939 0.31024
 C706 C 0.81489 0.11024 0.31672
 C707 C 0.80982 0.11900 0.33128
 H708 H 0.83563 0.11684 0.29859
 H709 H 0.79930 0.11594 0.33976
 Cu710 Cu 0.84734 0.15129 0.31772
 Cu711 Cu 0.81870 0.15050 0.35012
 Cu712 Cu 0.85143 0.17969 0.34936
 N713 N 0.86709 0.16623 0.31906
 N714 N 0.86889 0.17692 0.33180
 C715 C 0.88318 0.18605 0.32930
 C716 C 0.89076 0.18090 0.31409
 C717 C 0.88017 0.16824 0.30795
 H718 H 0.88724 0.19628 0.33749
 H719 H 0.88168 0.16124 0.29614
 N720 N 0.83426 0.17882 0.36786
 N721 N 0.82175 0.16767 0.36823
 C722 C 0.81173 0.17081 0.38199
 C723 C 0.81818 0.18471 0.39058
 C724 C 0.83251 0.18937 0.38127
 H725 H 0.80021 0.16393 0.38513
 H726 H 0.84090 0.19986 0.38391
 H727 H 0.83050 0.16961 0.33692
 H728 H 0.84469 0.15447 0.34861
 N729 N 0.68553 0.36646 0.32967
 N730 N 0.67156 0.37002 0.32092
 C731 C 0.67444 0.38371 0.31111
 C732 C 0.69119 0.38900 0.31385
 C733 C 0.69778 0.37766 0.32574
 H734 H 0.66516 0.38911 0.30233
 H735 H 0.71055 0.37743 0.33116
 Cu736 Cu 0.65143 0.35572 0.32252
 Cu737 Cu 0.68716 0.34707 0.34485
 Cu738 Cu 0.64844 0.32850 0.35538
 N739 N 0.63427 0.33800 0.32275
 N740 N 0.63283 0.32763 0.33583
 C741 C 0.61987 0.31688 0.33283
 C742 C 0.61291 0.32057 0.31688
 C743 C 0.62240 0.33410 0.31087
 H744 H 0.61621 0.30680 0.34142
 H745 H 0.62081 0.34064 0.29879
 N746 N 0.66947 0.32520 0.36897
 N747 N 0.68431 0.33183 0.36455
 C748 C 0.69640 0.32681 0.37578
 C749 C 0.68888 0.31637 0.38787
 C750 C 0.67173 0.31567 0.38313
 H751 H 0.70966 0.33066 0.37521
 H752 H 0.66168 0.30847 0.38921
 H753 H 0.66619 0.33263 0.33718
 H754 H 0.66232 0.35102 0.35164
 N755 N 0.67569 0.86713 0.83628
 N756 N 0.66200 0.87060 0.82706
 C757 C 0.66412 0.88571 0.81941
 C758 C 0.68001 0.89200 0.82420
 C759 C 0.68695 0.87981 0.83490
 H760 H 0.65496 0.89152 0.81077
 H761 H 0.69955 0.87980 0.84073
 Cu762 Cu 0.64361 0.85413 0.82514
 Cu763 Cu 0.67864 0.84580 0.84820
 Cu764 Cu 0.64049 0.82484 0.85612
 N765 N 0.62489 0.83800 0.82538
 N766 N 0.62384 0.82640 0.83741
 C767 C 0.61012 0.81662 0.83431
 C768 C 0.60214 0.82234 0.81947
 C769 C 0.61189 0.83597 0.81420
 H770 H 0.60635 0.80607 0.84223
 H771 H 0.60997 0.84353 0.80280
 N772 N 0.66174 0.82068 0.86938
 N773 N 0.67632 0.82829 0.86579
 C774 C 0.68856 0.82274 0.87657
 C775 C 0.68145 0.81097 0.88755
 C776 C 0.66436 0.80998 0.88260
 H777 H 0.70159 0.82734 0.87666
 H778 H 0.65460 0.80196 0.88806
 H779 H 0.65871 0.83054 0.83874
 H780 H 0.65346 0.84783 0.85414
 N781 N 0.17351 0.36732 0.83344
 N782 N 0.16365 0.36511 0.81993
 C783 C 0.16749 0.37679 0.80801
 C784 C 0.18041 0.38697 0.81438
 C785 C 0.18385 0.38061 0.83063
 H786 H 0.16125 0.37787 0.79567
 H787 H 0.19336 0.38507 0.83963
 Cu788 Cu 0.14663 0.34727 0.81923
 Cu789 Cu 0.17204 0.35273 0.85366
 Cu790 Cu 0.14943 0.31563 0.84722
 N791 N 0.12895 0.33001 0.82033
 N792 N 0.13027 0.31760 0.83143
 C793 C 0.11726 0.30680 0.82913
 C794 C 0.10706 0.31272 0.81585
 C795 C 0.11491 0.32753 0.81054
 H796 H 0.11573 0.29523 0.83630
 H797 H 0.11089 0.33575 0.80021
 N798 N 0.16442 0.31936 0.86704
 N799 N 0.17306 0.33339 0.86972
 C800 C 0.18195 0.33177 0.88452
 C801 C 0.17839 0.31608 0.89154
 C802 C 0.16726 0.30862 0.88007
 H803 H 0.19022 0.34133 0.88989
 H804 H 0.16171 0.29620 0.88109
 H805 H 0.16745 0.33314 0.83789
 H806 H 0.14829 0.34108 0.84983
 N807 N 0.18101 0.87231 0.32928
 N808 N 0.16808 0.87247 0.31846
 C809 C 0.16897 0.88639 0.30863
 C810 C 0.18336 0.89542 0.31339
 C811 C 0.19073 0.88606 0.32656
 H812 H 0.16019 0.88932 0.29829
 H813 H 0.20238 0.88888 0.33351
 Cu814 Cu 0.15226 0.85373 0.31700
 Cu815 Cu 0.18458 0.85368 0.34528
 Cu816 Cu 0.14962 0.82701 0.35041
 N817 N 0.13302 0.83861 0.31963
 N818 N 0.13185 0.82827 0.33276
 C819 C 0.11762 0.81885 0.33095
 C820 C 0.10940 0.82359 0.31587
 C821 C 0.11959 0.83621 0.30909
 H822 H 0.11377 0.80907 0.33980
 H823 H 0.11771 0.84284 0.29710
 N824 N 0.16915 0.82762 0.36659
 N825 N 0.18262 0.83741 0.36434
 C826 C 0.19414 0.83422 0.37684
 C827 C 0.18767 0.82178 0.38749
 C828 C 0.17177 0.81795 0.38059
 H829 H 0.20637 0.84048 0.37805
 H830 H 0.16302 0.80838 0.38508
 H831 H 0.16937 0.83453 0.33509
 H832 H 0.15847 0.85159 0.34747
 C833 C 0.24611 0.94800 0.24655
 C834 C 0.25757 0.94843 0.23321
 C835 C 0.26265 0.96508 0.23149
 N836 N 0.25471 0.97482 0.24334
 C837 C 0.24451 0.96441 0.25250
 C838 C 0.27514 0.97082 0.21973
 C839 C 0.27890 0.98803 0.21700
 C840 C 0.29329 0.99390 0.20844
 C841 C 0.29187 1.01119 0.20786
 C842 C 0.27664 1.01540 0.21606
 N843 N 0.26875 1.00119 0.22146
 C844 C 0.27011 1.03199 0.21763
 C845 C 0.25623 1.03643 0.22839
 C846 C 0.24847 1.05219 0.22877
 C847 C 0.23647 1.05170 0.24163
 C848 C 0.23737 1.03567 0.24875
 N849 N 0.24950 1.02638 0.24066
 C850 C 0.22799 1.03036 0.26328
 C851 C 0.22807 1.01361 0.26954
 C852 C 0.22191 1.00877 0.28550
 C853 C 0.22380 0.99154 0.28651
 C854 C 0.23105 0.98631 0.27114
 N855 N 0.23346 0.99983 0.26081
 C856 C 0.23444 0.96931 0.26675
 H857 H 0.23970 0.93686 0.25133
 H858 H 0.26174 0.93768 0.22571
 H859 H 0.23689 0.99947 0.24794
 H860 H 0.30372 0.98649 0.20313
 H861 H 0.30099 1.01968 0.20199
 H862 H 0.25127 1.06297 0.22073
 H863 H 0.22820 1.06204 0.24545
 H864 H 0.22020 0.98374 0.29732
 H865 H 0.25634 1.00037 0.22621
 H866 H 0.21660 1.01682 0.29540
 C867 C 0.24617 0.55092 0.76603
 C868 C 0.25939 0.55138 0.75444
 C869 C 0.26173 0.53501 0.74863
 N870 N 0.25037 0.52458 0.75628
 C871 C 0.24093 0.53426 0.76702
 C872 C 0.27353 0.53016 0.73575
 C873 C 0.27658 0.51321 0.73096
 C874 C 0.28510 0.50826 0.71617
 C875 C 0.28586 0.49092 0.71644
 C876 C 0.27785 0.48576 0.73144
 N877 N 0.27236 0.49944 0.74028
 C878 C 0.27652 0.46880 0.73688
 C879 C 0.26599 0.46340 0.75056
 C880 C 0.26608 0.44723 0.75736
 C881 C 0.25339 0.44681 0.76953
 C882 C 0.24589 0.46271 0.76972
 N883 N 0.25359 0.47281 0.75807
 C884 C 0.23149 0.46728 0.77975
 C885 C 0.22496 0.48394 0.78079
 C886 C 0.20911 0.48827 0.78762
 C887 C 0.20780 0.50557 0.78676
 C888 C 0.22288 0.51134 0.77941
 N889 N 0.23334 0.49809 0.77597
 C890 C 0.22695 0.52853 0.77695
 H891 H 0.24095 0.56166 0.77288
 H892 H 0.26636 0.56254 0.75060
 H893 H 0.24610 0.49880 0.77228
 H894 H 0.29021 0.51629 0.70618
 H895 H 0.29173 0.48303 0.70673
 H896 H 0.27436 0.43679 0.75383
 H897 H 0.24997 0.43597 0.77724
 H898 H 0.19699 0.51304 0.79113
 H899 H 0.26766 0.49945 0.75275
 H900 H 0.19947 0.47985 0.79272
 C901 C 0.75654 -0.05144 0.23146
 C902 C 0.76891 -0.05140 0.24399
 C903 C 0.77001 -0.03495 0.24991
 N904 N 0.75862 -0.02499 0.24151
 C905 C 0.75046 -0.03503 0.23014
 C906 C 0.78068 -0.02966 0.26355
 C907 C 0.78261 -0.01265 0.26859
 C908 C 0.79044 -0.00743 0.28366
 C909 C 0.79061 0.00993 0.28332
 C910 C 0.78294 0.01484 0.26803
 N911 N 0.77823 0.00099 0.25908
 C912 C 0.78140 0.03172 0.26233
 C913 C 0.77124 0.03676 0.24817
 C914 C 0.77094 0.05290 0.24131
 C915 C 0.75887 0.05285 0.22849
 C916 C 0.75213 0.03670 0.22798
 N917 N 0.75967 0.02692 0.24007
 C918 C 0.73848 0.03162 0.21723
 C919 C 0.73288 0.01473 0.21573
 C920 C 0.71762 0.00986 0.20807
 C921 C 0.71718 -0.00748 0.20864
 C922 C 0.73218 -0.01275 0.21665
 N923 N 0.74175 0.00086 0.22079
 C924 C 0.73695 -0.02981 0.21919
 H925 H 0.75245 -0.06235 0.22421
 H926 H 0.77614 -0.06229 0.24834
 H927 H 0.75434 0.00064 0.22513
 H928 H 0.79562 -0.01530 0.29379
 H929 H 0.79595 0.01800 0.29314
 H930 H 0.77855 0.06363 0.24519
 H931 H 0.75536 0.06354 0.22055
 H932 H 0.70697 -0.01531 0.20371
 H933 H 0.77410 0.00080 0.24643
 H934 H 0.70779 0.01796 0.20263
 C935 C 0.73412 0.44910 0.75274
 C936 C 0.74462 0.44874 0.76685
 C937 C 0.74999 0.46517 0.76956
 N938 N 0.74313 0.47554 0.75756
 C939 C 0.73335 0.46576 0.74732
 C940 C 0.76207 0.47004 0.78211
 C941 C 0.76664 0.48698 0.78535
 C942 C 0.78090 0.49189 0.79472
 C943 C 0.78077 0.50923 0.79504
 C944 C 0.76639 0.51446 0.78592
 N945 N 0.75774 0.50080 0.78025
 C946 C 0.76137 0.53149 0.78365
 C947 C 0.74843 0.53688 0.77214
 C948 C 0.74194 0.55318 0.77129
 C949 C 0.73047 0.55349 0.75793
 C950 C 0.73041 0.53740 0.75097
 N951 N 0.74145 0.52729 0.75964
 C952 C 0.72102 0.53262 0.73625
 C953 C 0.72046 0.51594 0.72986
 C954 C 0.71451 0.51153 0.71370
 C955 C 0.71562 0.49424 0.71260
 C956 C 0.72214 0.48855 0.72815
 N957 N 0.72490 0.50186 0.73864
 C958 C 0.72457 0.47138 0.73249
 H959 H 0.72788 0.43830 0.74703
 H960 H 0.74812 0.43760 0.77413
 H961 H 0.72787 0.50126 0.75161
 H962 H 0.79048 0.48382 0.80061
 H963 H 0.79021 0.51709 0.80129
 H964 H 0.74520 0.56377 0.77939
 H965 H 0.72317 0.56439 0.75371
 H966 H 0.71194 0.48671 0.70163
 H967 H 0.74565 0.50086 0.77466
 H968 H 0.70987 0.51990 0.70372
 C969 C 0.27021 0.44906 0.24476
 C970 C 0.25687 0.44888 0.23327
 C971 C 0.24951 0.46484 0.23367
 N972 N 0.25787 0.47471 0.24503
 C973 C 0.27061 0.46514 0.25174
 C974 C 0.23462 0.46964 0.22450
 C975 C 0.22783 0.48620 0.22441
 C976 C 0.21164 0.49057 0.21841
 C977 C 0.21024 0.50782 0.21981
 C978 C 0.22562 0.51351 0.22658
 N979 N 0.23630 0.50027 0.22922
 C980 C 0.22977 0.53067 0.22906
 C981 C 0.24424 0.53624 0.23835
 C982 C 0.24963 0.55286 0.23920
 C983 C 0.26349 0.55311 0.25005
 C984 C 0.26607 0.53664 0.25553
 N985 N 0.25423 0.52637 0.24844
 C986 C 0.27854 0.53157 0.26769
 C987 C 0.28192 0.51454 0.27194
 C988 C 0.29117 0.50928 0.28619
 C989 C 0.29203 0.49196 0.28546
 C990 C 0.28332 0.48711 0.27074
 N991 N 0.27735 0.50097 0.26249
 C992 C 0.28181 0.47028 0.26497
 H993 H 0.27856 0.43849 0.24777
 H994 H 0.25289 0.43816 0.22568
 H995 H 0.27206 0.50128 0.25026
 H996 H 0.20189 0.48222 0.21345
 H997 H 0.19921 0.51533 0.21608
 H998 H 0.24413 0.56369 0.23271
 H999 H 0.27076 0.56418 0.25360
 H1000 H 0.29840 0.48386 0.29470
 H1001 H 0.24925 0.50100 0.23221
 H1002 H 0.29670 0.51711 0.29612
 C1003 C 0.76009 1.05052 0.75254
 C1004 C 0.74761 1.05078 0.76491
 C1005 C 0.74369 1.03410 0.76853
 N1006 N 0.75353 1.02372 0.75887
 C1007 C 0.76358 1.03369 0.74909
 C1008 C 0.73088 1.02897 0.78030
 C1009 C 0.72529 1.01212 0.78260
 C1010 C 0.71130 1.00754 0.79255
 C1011 C 0.70946 0.99039 0.79087
 C1012 C 0.72242 0.98485 0.78000
 N1013 N 0.73215 0.99816 0.77526
 C1014 C 0.72467 0.96784 0.77478
 C1015 C 0.73710 0.96210 0.76283
 C1016 C 0.73924 0.94540 0.75791
 C1017 C 0.75253 0.94504 0.74640
 C1018 C 0.75813 0.96152 0.74463
 N1019 N 0.74867 0.97187 0.75467
 C1020 C 0.77231 0.96649 0.73452
 C1021 C 0.77806 0.98332 0.73268
 C1022 C 0.79328 0.98779 0.72467
 C1023 C 0.79439 1.00505 0.72548
 C1024 C 0.77985 1.01074 0.73399
 N1025 N 0.76981 0.99744 0.73809
 C1026 C 0.77631 1.02793 0.73750
 H1027 H 0.76593 1.06152 0.74679
 H1028 H 0.74190 1.06202 0.77042
 H1029 H 0.75741 0.99813 0.74286
 H1030 H 0.70303 1.01573 0.80002
 H1031 H 0.69953 0.98290 0.79682
 H1032 H 0.73208 0.93454 0.76225
 H1033 H 0.75762 0.93387 0.74021
 H1034 H 0.80486 1.01254 0.72053
 H1035 H 0.74327 0.99765 0.76810
 H1036 H 0.80271 0.97947 0.71892
 C1037 C 0.75575 0.55045 0.23283
 C1038 C 0.74167 0.55052 0.24338
 C1039 C 0.74012 0.53428 0.24978
 N1040 N 0.75274 0.52429 0.24348
 C1041 C 0.76229 0.53415 0.23307
 C1042 C 0.72801 0.52927 0.26226
 C1043 C 0.72545 0.51228 0.26711
 C1044 C 0.71658 0.50717 0.28163
 C1045 C 0.71652 0.48983 0.28149
 C1046 C 0.72535 0.48481 0.26689
 N1047 N 0.73063 0.49857 0.25812
 C1048 C 0.72776 0.46786 0.26176
 C1049 C 0.73973 0.46280 0.24912
 C1050 C 0.74107 0.44662 0.24249
 C1051 C 0.75509 0.44655 0.23186
 C1052 C 0.76181 0.46270 0.23230
 N1053 N 0.75243 0.47260 0.24290
 C1054 C 0.77708 0.46765 0.22398
 C1055 C 0.78268 0.48454 0.22296
 C1056 C 0.79890 0.48946 0.21768
 C1057 C 0.79904 0.50682 0.21792
 C1058 C 0.78289 0.51201 0.22333
 N1059 N 0.77296 0.49836 0.22619
 C1060 C 0.77754 0.52901 0.22476
 H1061 H 0.76070 0.56122 0.22590
 H1062 H 0.73364 0.56135 0.24618
 H1063 H 0.75983 0.49851 0.22849
 H1064 H 0.71080 0.51511 0.29136
 H1065 H 0.71067 0.48184 0.29110
 H1066 H 0.73293 0.43592 0.24519
 H1067 H 0.75989 0.43578 0.22476
 H1068 H 0.80979 0.51471 0.21445
 H1069 H 0.73592 0.49863 0.24588
 H1070 H 0.80953 0.48139 0.21401
 C1071 C 0.24156 -0.05161 0.75009
 C1072 C 0.25349 -0.05166 0.76302
 C1073 C 0.25800 -0.03499 0.76574
 N1074 N 0.24931 -0.02477 0.75484
 C1075 C 0.23921 -0.03491 0.74528
 C1076 C 0.27083 -0.02964 0.77731
 C1077 C 0.27391 -0.01255 0.78135
 C1078 C 0.28834 -0.00675 0.78987
 C1079 C 0.28635 0.01041 0.79163
 C1080 C 0.27072 0.01461 0.78420
 N1081 N 0.26312 0.00051 0.77816
 C1082 C 0.26376 0.03112 0.78357
 C1083 C 0.24955 0.03575 0.77330
 C1084 C 0.24148 0.05138 0.77380
 C1085 C 0.22953 0.05143 0.76088
 C1086 C 0.23072 0.03586 0.75287
 N1087 N 0.24297 0.02630 0.76048
 C1088 C 0.22158 0.03128 0.73793
 C1089 C 0.22177 0.01483 0.73091
 C1090 C 0.21573 0.01071 0.71470
 C1091 C 0.21775 -0.00644 0.71289
 C1092 C 0.22502 -0.01233 0.72802
 N1093 N 0.22726 0.00068 0.73900
 C1094 C 0.22872 -0.02947 0.73152
 H1095 H 0.23543 -0.06264 0.74474
 H1096 H 0.25839 -0.06272 0.76958
 H1097 H 0.23071 -0.00029 0.75184
 H1098 H 0.29923 -0.01410 0.79428
 H1099 H 0.29543 0.01882 0.79767
 H1100 H 0.24412 0.06175 0.78242
 H1101 H 0.22112 0.06186 0.75758
 H1102 H 0.21430 -0.01374 0.70168
 H1103 H 0.25064 -0.00038 0.77357
 H1104 H 0.21043 0.01917 0.70514
 C1105 C 0.23323 0.24768 1.05206
 C1106 C 0.24472 0.23452 1.05207
 C1107 C 0.25178 0.23387 1.03575
 N1108 N 0.24510 0.24627 1.02584
 C1109 C 0.23369 0.25469 1.03576
 C1110 C 0.26496 0.22263 1.03067
 C1111 C 0.27070 0.22077 1.01354
 C1112 C 0.28536 0.21196 1.00874
 C1113 C 0.28617 0.21256 0.99112
 C1114 C 0.27203 0.22178 0.98562
 N1115 N 0.26256 0.22658 0.99935
 C1116 C 0.26794 0.22499 0.96823
 C1117 C 0.25601 0.23745 0.96291
 C1118 C 0.25067 0.23990 0.94611
 C1119 C 0.24001 0.25372 0.94619
 C1120 C 0.23908 0.25920 0.96306
 N1121 N 0.24898 0.24932 0.97323
 C1122 C 0.22976 0.27355 0.96859
 C1123 C 0.22700 0.27776 0.98600
 C1124 C 0.21989 0.29285 0.99165
 C1125 C 0.21827 0.29158 1.00919
 C1126 C 0.22445 0.27577 1.01379
 N1127 N 0.22961 0.26739 0.99956
 C1128 C 0.22445 0.26926 1.03069
 H1129 H 0.22558 0.25175 1.06290
 H1130 H 0.24765 0.22643 1.06289
 H1131 H 0.23283 0.25471 0.99893
 H1132 H 0.29453 0.20570 1.01706
 H1133 H 0.29610 0.20691 0.98326
 H1134 H 0.25415 0.23257 0.93491
 H1135 H 0.23368 0.25912 0.93509
 H1136 H 0.21303 0.30118 1.01759
 H1137 H 0.25040 0.23198 0.99894
 H1138 H 0.21608 0.30358 0.98392
 C1139 C 0.22953 0.74862 0.55315
 C1140 C 0.24150 0.73588 0.55340
 C1141 C 0.24832 0.73494 0.53700
 N1142 N 0.24099 0.74674 0.52677
 C1143 C 0.22943 0.75506 0.53660
 C1144 C 0.26174 0.72391 0.53203
 C1145 C 0.26735 0.72193 0.51489
 C1146 C 0.28235 0.71372 0.51007
 C1147 C 0.28280 0.71383 0.49242
 C1148 C 0.26805 0.72209 0.48693
 N1149 N 0.25864 0.72687 0.50070
 C1150 C 0.26328 0.72422 0.46954
 C1151 C 0.25001 0.73518 0.46400
 C1152 C 0.24383 0.73605 0.44733
 C1153 C 0.23175 0.74869 0.44707
 C1154 C 0.23096 0.75516 0.46358
 N1155 N 0.24220 0.74694 0.47389
 C1156 C 0.22063 0.76902 0.46860
 C1157 C 0.21861 0.77425 0.48585
 C1158 C 0.21137 0.78949 0.49086
 C1159 C 0.21103 0.78948 0.50852
 C1160 C 0.21807 0.77424 0.51382
 N1161 N 0.22254 0.76498 0.49992
 C1162 C 0.21942 0.76899 0.53114
 H1163 H 0.22184 0.75271 0.56395
 H1164 H 0.24486 0.72823 0.56444
 H1165 H 0.22628 0.75240 0.50000
 H1166 H 0.29197 0.70817 0.51841
 H1167 H 0.29282 0.70837 0.48454
 H1168 H 0.24766 0.72840 0.43647
 H1169 H 0.22443 0.75268 0.43596
 H1170 H 0.20610 0.79954 0.51653
 H1171 H 0.24618 0.73153 0.50040
 H1172 H 0.20675 0.79956 0.48266
 C1173 C 0.22670 0.76250 -0.05054
 C1174 C 0.24008 0.77369 -0.05034
 C1175 C 0.24754 0.77248 -0.03423
 N1176 N 0.23915 0.76100 -0.02457
 C1177 C 0.22638 0.75493 -0.03450
 C1178 C 0.26263 0.78093 -0.02913
 C1179 C 0.26906 0.78052 -0.01217
 C1180 C 0.28553 0.78519 -0.00746
 C1181 C 0.28648 0.78366 0.01010
 C1182 C 0.27055 0.77814 0.01563
 N1183 N 0.25998 0.77636 0.00198
 C1184 C 0.26592 0.77580 0.03300
 C1185 C 0.25080 0.76752 0.03820
 C1186 C 0.24461 0.76719 0.05487
 C1187 C 0.23048 0.75696 0.05474
 C1188 C 0.22859 0.75128 0.03802
 N1189 N 0.24103 0.75775 0.02793
 C1190 C 0.21650 0.73915 0.03266
 C1191 C 0.21380 0.73489 0.01525
 C1192 C 0.20547 0.72049 0.00967
 C1193 C 0.20523 0.72115 -0.00797
 C1194 C 0.21336 0.73597 -0.01269
 N1195 N 0.21842 0.74434 0.00156
 C1196 C 0.21531 0.74166 -0.02979
 H1197 H 0.21827 0.76011 -0.06130
 H1198 H 0.24400 0.78161 -0.06094
 H1199 H 0.22328 0.75653 0.00200
 H1200 H 0.29581 0.78928 -0.01580
 H1201 H 0.29761 0.78640 0.01791
 H1202 H 0.24981 0.77356 0.06598
 H1203 H 0.22266 0.75385 0.06576
 H1204 H 0.19972 0.71173 -0.01635
 H1205 H 0.24684 0.77423 0.00246
 H1206 H 0.20023 0.71046 0.01748
 C1207 C 0.24188 0.27221 0.44614
 C1208 C 0.22962 0.25988 0.44565
 C1209 C 0.22906 0.25282 0.46193
 N1210 N 0.24052 0.26044 0.47233
 C1211 C 0.24832 0.27234 0.46273
 C1212 C 0.21902 0.23874 0.46657
 C1213 C 0.21745 0.23288 0.48364
 C1214 C 0.21110 0.21720 0.48823
 C1215 C 0.21107 0.21659 0.50586
 C1216 C 0.21738 0.23192 0.51158
 N1217 N 0.22115 0.24182 0.49795
 C1218 C 0.21872 0.23663 0.52903
 C1219 C 0.22836 0.25059 0.53475
 C1220 C 0.22838 0.25671 0.55141
 C1221 C 0.24022 0.26944 0.55190
 C1222 C 0.24699 0.27071 0.53551
 N1223 N 0.23979 0.25912 0.52507
 C1224 C 0.26042 0.28164 0.53076
 C1225 C 0.26613 0.28377 0.51370
 C1226 C 0.28127 0.29168 0.50906
 C1227 C 0.28172 0.29190 0.49142
 C1228 C 0.26680 0.28419 0.48578
 N1229 N 0.25732 0.27940 0.49945
 C1230 C 0.26194 0.28261 0.46839
 H1231 H 0.24570 0.28010 0.43548
 H1232 H 0.22213 0.25638 0.43452
 H1233 H 0.24476 0.27511 0.49910
 H1234 H 0.20693 0.20721 0.47975
 H1235 H 0.20685 0.20605 0.51359
 H1236 H 0.22077 0.25237 0.56215
 H1237 H 0.24359 0.27681 0.56309
 H1238 H 0.29183 0.29725 0.48363
 H1239 H 0.22429 0.25453 0.49838
 H1240 H 0.29095 0.29683 0.51750
 C1241 C 0.73209 0.74474 1.05326
 C1242 C 0.74472 0.73262 1.05345
 C1243 C 0.75078 0.73130 1.03678
 N1244 N 0.74231 0.74223 1.02642
 C1245 C 0.73080 0.75038 1.03646
 C1246 C 0.76449 0.72075 1.03157
 C1247 C 0.76928 0.71839 1.01424
 C1248 C 0.78458 0.71107 1.00889
 C1249 C 0.78393 0.71021 0.99128
 C1250 C 0.76826 0.71702 0.98634
 N1251 N 0.75937 0.72187 1.00042
 C1252 C 0.76219 0.71766 0.96926
 C1253 C 0.74768 0.72711 0.96408
 C1254 C 0.74040 0.72651 0.94787
 C1255 C 0.72742 0.73827 0.94771
 C1256 C 0.72730 0.74575 0.96380
 N1257 N 0.73972 0.73892 0.97376
 C1258 C 0.71671 0.75951 0.96856
 C1259 C 0.71559 0.76574 0.98555
 C1260 C 0.70820 0.78107 0.99007
 C1261 C 0.70907 0.78219 1.00767
 C1262 C 0.71703 0.76755 1.01342
 N1263 N 0.72083 0.75754 0.99987
 C1264 C 0.71976 0.76347 1.03088
 H1265 H 0.72472 0.74894 1.06425
 H1266 H 0.74899 0.72564 1.06462
 H1267 H 0.72507 0.74511 1.00052
 H1268 H 0.79508 0.70670 1.01687
 H1269 H 0.79382 0.70500 0.98306
 H1270 H 0.74413 0.71855 0.93721
 H1271 H 0.71917 0.74113 0.93690
 H1272 H 0.70436 0.79259 1.01535
 H1273 H 0.74655 0.72551 1.00074
 H1274 H 0.70272 0.79049 0.98159
 C1275 C 0.73843 0.25119 0.55443
 C1276 C 0.75154 0.23958 0.55461
 C1277 C 0.75726 0.23810 0.53783
 N1278 N 0.74820 0.24852 0.52744
 C1279 C 0.73662 0.25648 0.53756
 C1280 C 0.77115 0.22781 0.53256
 C1281 C 0.77525 0.22458 0.51519
 C1282 C 0.79030 0.21690 0.50963
 C1283 C 0.78893 0.21510 0.49212
 C1284 C 0.77311 0.22177 0.48746
 N1285 N 0.76480 0.22738 0.50161
 C1286 C 0.76645 0.22180 0.47058
 C1287 C 0.75207 0.23148 0.46545
 C1288 C 0.74454 0.23080 0.44935
 C1289 C 0.73199 0.24298 0.44909
 C1290 C 0.73228 0.25073 0.46504
 N1291 N 0.74460 0.24371 0.47499
 C1292 C 0.72215 0.26485 0.46967
 C1293 C 0.72108 0.27120 0.48661
 C1294 C 0.71376 0.28659 0.49103
 C1295 C 0.71449 0.28776 0.50862
 C1296 C 0.72237 0.27312 0.51446
 N1297 N 0.72622 0.26304 0.50099
 C1298 C 0.72506 0.26913 0.53194
 H1299 H 0.73112 0.25531 0.56549
 H1300 H 0.75631 0.23298 0.56583
 H1301 H 0.73039 0.25059 0.50175
 H1302 H 0.80109 0.21288 0.51740
 H1303 H 0.79847 0.20946 0.48379
 H1304 H 0.74790 0.22254 0.43880
 H1305 H 0.72371 0.24592 0.43832
 H1306 H 0.70981 0.29822 0.51624
 H1307 H 0.75204 0.23115 0.50221
 H1308 H 0.70836 0.29600 0.48248
 C1309 C 0.75283 0.23902 0.05044
 C1310 C 0.76190 0.25377 0.04998
 C1311 C 0.76340 0.25825 0.03283
 N1312 N 0.75551 0.24670 0.02286
 C1313 C 0.74901 0.23494 0.03356
 C1314 C 0.77213 0.27274 0.02686
 C1315 C 0.77440 0.27714 0.00937
 C1316 C 0.78450 0.29041 0.00375
 C1317 C 0.78409 0.29018 -0.01388
 C1318 C 0.77377 0.27676 -0.01865
 N1319 N 0.76765 0.26911 -0.00437
 C1320 C 0.77070 0.27190 -0.03589
 C1321 C 0.76175 0.25722 -0.04095
 C1322 C 0.75950 0.25217 -0.05784
 C1323 C 0.75047 0.23739 -0.05736
 C1324 C 0.74744 0.23385 -0.04019
 N1325 N 0.75438 0.24597 -0.03023
 C1326 C 0.73760 0.22008 -0.03423
 C1327 C 0.73453 0.21634 -0.01670
 C1328 C 0.72250 0.20474 -0.01107
 C1329 C 0.72287 0.20499 0.00654
 C1330 C 0.73511 0.21674 0.01129
 N1331 N 0.74243 0.22335 -0.00298
 C1332 C 0.73890 0.22102 0.02854
 H1333 H 0.74933 0.23216 0.06193
 H1334 H 0.76683 0.26041 0.06105
 H1335 H 0.75298 0.23126 -0.00335
 H1336 H 0.79168 0.29921 0.01152
 H1337 H 0.79090 0.29878 -0.02221
 H1338 H 0.76392 0.25846 -0.06935
 H1339 H 0.74647 0.23016 -0.06843
 H1340 H 0.71478 0.19756 0.01490
 H1341 H 0.75878 0.25949 -0.00401
 H1342 H 0.71407 0.19706 -0.01883
 C1343 C 0.73081 0.75514 0.44802
 C1344 C 0.74250 0.76801 0.44789
 C1345 C 0.74994 0.76830 0.46405
 N1346 N 0.74330 0.75596 0.47398
 C1347 C 0.73157 0.74791 0.46422
 C1348 C 0.76337 0.77918 0.46896
 C1349 C 0.76924 0.78092 0.48604
 C1350 C 0.78394 0.78953 0.49082
 C1351 C 0.78467 0.78910 0.50846
 C1352 C 0.77046 0.78014 0.51397
 N1353 N 0.76103 0.77536 0.50024
 C1354 C 0.76611 0.77738 0.53134
 C1355 C 0.75390 0.76543 0.53681
 C1356 C 0.74864 0.76330 0.55367
 C1357 C 0.73760 0.74989 0.55375
 C1358 C 0.73648 0.74426 0.53694
 N1359 N 0.74655 0.75370 0.52663
 C1360 C 0.72702 0.73004 0.53160
 C1361 C 0.72431 0.72569 0.51421
 C1362 C 0.71777 0.71039 0.50868
 C1363 C 0.71643 0.71134 0.49110
 C1364 C 0.72216 0.72721 0.48635
 N1365 N 0.72681 0.73592 0.50053
 C1366 C 0.72240 0.73339 0.46931
 H1367 H 0.72279 0.75144 0.43733
 H1368 H 0.74526 0.77618 0.43711
 H1369 H 0.72977 0.74866 0.50099
 H1370 H 0.79313 0.79562 0.48248
 H1371 H 0.79453 0.79477 0.51632
 H1372 H 0.75248 0.77055 0.56478
 H1373 H 0.73120 0.74481 0.56493
 H1374 H 0.71176 0.70145 0.48277
 H1375 H 0.74881 0.77026 0.50066
 H1376 H 0.71431 0.69964 0.51650
 C1377 C 1.05473 0.26744 0.25819
 C1378 C 1.05490 0.25466 0.27007
 C1379 C 1.03837 0.24832 0.27070
 N1380 N 1.02813 0.25675 0.25956
 C1381 C 1.03809 0.26851 0.25198
 C1382 C 1.03327 0.23435 0.28073
 C1383 C 1.01605 0.22905 0.28240
 C1384 C 1.01105 0.21368 0.28922
 C1385 C 0.99340 0.21365 0.28934
 C1386 C 0.98809 0.22902 0.28261
 N1387 N 1.00198 0.23838 0.27852
 C1388 C 0.97078 0.23430 0.28124
 C1389 C 0.96538 0.24848 0.27162
 C1390 C 0.94880 0.25494 0.27154
 C1391 C 0.94863 0.26796 0.25994
 C1392 C 0.96510 0.26903 0.25331
 N1393 N 0.97529 0.25706 0.26042
 C1394 C 0.97011 0.28017 0.24008
 C1395 C 0.98730 0.28222 0.23465
 C1396 C 0.99219 0.29034 0.21967
 C1397 C 1.00983 0.29016 0.21931
 C1398 C 1.01526 0.28191 0.23407
 N1399 N 1.00144 0.27725 0.24343
 C1400 C 1.03263 0.27960 0.23883
 H1401 H 1.06564 0.27502 0.25449
 H1402 H 1.06597 0.25047 0.27734
 H1403 H 1.00167 0.27256 0.25587
 H1404 H 1.01926 0.20353 0.29370
 H1405 H 0.98539 0.20350 0.29395
 H1406 H 0.93793 0.25064 0.27897
 H1407 H 0.93760 0.27567 0.25666
 H1408 H 1.01776 0.29550 0.20930
 H1409 H 1.00189 0.25103 0.27510
 H1410 H 0.98391 0.29584 0.20998
 C1411 C 0.55205 0.22882 0.73853
 C1412 C 0.55256 0.24092 0.72595
 C1413 C 0.53646 0.24845 0.72558
 N1414 N 0.52619 0.24143 0.73756
 C1415 C 0.53566 0.22937 0.74545
 C1416 C 0.53196 0.26240 0.71520
 C1417 C 0.51504 0.26878 0.71361
 C1418 C 0.51077 0.28402 0.70589
 C1419 C 0.49319 0.28540 0.70643
 C1420 C 0.48719 0.27102 0.71453
 N1421 N 0.50056 0.26086 0.71870
 C1422 C 0.46967 0.26739 0.71730
 C1423 C 0.46389 0.25498 0.72893
 C1424 C 0.44692 0.25010 0.73081
 C1425 C 0.44653 0.23884 0.74416
 C1426 C 0.46328 0.23713 0.74994
 N1427 N 0.47385 0.24707 0.74067
 C1428 C 0.46833 0.22723 0.76417
 C1429 C 0.48563 0.22359 0.76830
 C1430 C 0.49102 0.21611 0.78349
 C1431 C 0.50848 0.21389 0.78220
 C1432 C 0.51331 0.22020 0.76631
 N1433 N 0.49927 0.22590 0.75785
 C1434 C 0.53023 0.21986 0.75978
 H1435 H 0.56266 0.22079 0.74238
 H1436 H 0.56359 0.24399 0.71813
 H1437 H 0.49879 0.22944 0.74503
 H1438 H 0.51942 0.29321 0.70042
 H1439 H 0.48568 0.29586 0.70149
 H1440 H 0.43593 0.25433 0.72343
 H1441 H 0.43520 0.23265 0.74908
 H1442 H 0.51667 0.20824 0.79187
 H1443 H 0.49970 0.24855 0.72316
 H1444 H 0.48318 0.21249 0.79434
 C1445 C 0.05328 0.23981 0.73776
 C1446 C 0.05346 0.25385 0.74799
 C1447 C 0.03646 0.25843 0.75070
 N1448 N 0.02597 0.24771 0.74231
 C1449 C 0.03619 0.23632 0.73435
 C1450 C 0.03111 0.27187 0.76144
 C1451 C 0.01382 0.27541 0.76590
 C1452 C 0.00891 0.28628 0.77898
 C1453 C -0.00866 0.28558 0.78005
 C1454 C -0.01413 0.27447 0.76746
 N1455 N -0.00034 0.26860 0.75867
 C1456 C -0.03154 0.27006 0.76471
 C1457 C -0.03728 0.25795 0.75270
 C1458 C -0.05438 0.25420 0.74963
 C1459 C -0.05455 0.24170 0.73749
 C1460 C -0.03756 0.23815 0.73355
 N1461 N -0.02708 0.24813 0.74284
 C1462 C -0.03215 0.22606 0.72132
 C1463 C -0.01480 0.22174 0.71791
 C1464 C -0.00961 0.21097 0.70486
 C1465 C 0.00799 0.20999 0.70561
 C1466 C 0.01316 0.22032 0.71898
 N1467 N -0.00083 0.22717 0.72664
 C1468 C 0.03052 0.22316 0.72351
 H1469 H 0.06449 0.23304 0.73323
 H1470 H 0.06483 0.25983 0.75308
 H1471 H -0.00082 0.23405 0.73793
 H1472 H 0.01714 0.29366 0.78724
 H1473 H -0.01648 0.29237 0.78924
 H1474 H -0.06560 0.25989 0.75549
 H1475 H -0.06593 0.23587 0.73223
 H1476 H 0.01607 0.20274 0.69701
 H1477 H -0.00058 0.26117 0.74777
 H1478 H -0.01764 0.20454 0.69564
 C1479 C 0.45064 0.23285 0.25972
 C1480 C 0.45069 0.24552 0.27169
 C1481 C 0.46728 0.25171 0.27223
 N1482 N 0.47734 0.24332 0.26094
 C1483 C 0.46722 0.23172 0.25334
 C1484 C 0.47259 0.26553 0.28232
 C1485 C 0.48987 0.27059 0.28405
 C1486 C 0.49507 0.28573 0.29123
 C1487 C 0.51272 0.28556 0.29129
 C1488 C 0.51782 0.27032 0.28414
 N1489 N 0.50381 0.26122 0.27989
 C1490 C 0.53506 0.26492 0.28248
 C1491 C 0.54027 0.25113 0.27223
 C1492 C 0.55681 0.24462 0.27165
 C1493 C 0.55676 0.23213 0.25949
 C1494 C 0.54019 0.23140 0.25305
 N1495 N 0.53015 0.24307 0.26080
 C1496 C 0.53491 0.22076 0.23952
 C1497 C 0.51760 0.21878 0.23447
 C1498 C 0.51236 0.21100 0.21942
 C1499 C 0.49472 0.21098 0.21957
 C1500 C 0.48965 0.21878 0.23468
 N1501 N 0.50368 0.22335 0.24376
 C1502 C 0.47241 0.22084 0.23995
 H1503 H 0.43963 0.22541 0.25604
 H1504 H 0.43971 0.24977 0.27906
 H1505 H 0.50375 0.22770 0.25633
 H1506 H 0.48699 0.29583 0.29601
 H1507 H 0.52086 0.29551 0.29610
 H1508 H 0.56780 0.24855 0.27912
 H1509 H 0.56771 0.22452 0.25575
 H1510 H 0.48655 0.20581 0.20966
 H1511 H 0.50377 0.24866 0.27615
 H1512 H 0.52041 0.20584 0.20937
 C1513 C 0.94738 0.74752 0.75867
 C1514 C 0.94727 0.75732 0.74419
 C1515 C 0.96423 0.75895 0.73904
 N1516 N 0.97461 0.75034 0.74988
 C1517 C 0.96438 0.74332 0.76189
 C1518 C 0.96964 0.76833 0.72455
 C1519 C 0.98699 0.77068 0.71958
 C1520 C 0.99215 0.78122 0.70634
 C1521 C 1.00977 0.78088 0.70609
 C1522 C 1.01502 0.77017 0.71921
 N1523 N 1.00102 0.76375 0.72711
 C1524 C 1.03242 0.76722 0.72373
 C1525 C 1.03802 0.75763 0.73806
 C1526 C 1.05503 0.75593 0.74309
 C1527 C 1.05510 0.74616 0.75761
 C1528 C 1.03815 0.74212 0.76100
 N1529 N 1.02777 0.74914 0.74903
 C1530 C 1.03272 0.73155 0.77457
 C1531 C 1.01533 0.72786 0.77828
 C1532 C 1.01013 0.71509 0.78927
 C1533 C 0.99252 0.71536 0.78947
 C1534 C 0.98733 0.72829 0.77860
 N1535 N 1.00134 0.73603 0.77202
 C1536 C 0.96994 0.73246 0.77521
 H1537 H 0.93617 0.74377 0.76590
 H1538 H 0.93595 0.76262 0.73815
 H1539 H 1.00138 0.74709 0.76489
 H1540 H 0.98407 0.78872 0.69794
 H1541 H 1.01780 0.78805 0.69744
 H1542 H 1.06625 0.76127 0.73702
 H1543 H 1.06639 0.74245 0.76482
 H1544 H 0.98445 0.70682 0.79666
 H1545 H 1.00105 0.75479 0.73673
 H1546 H 1.01819 0.70630 0.79627
 C1547 C 0.55588 0.76476 0.25913
 C1548 C 0.55572 0.75218 0.27123
 C1549 C 0.53928 0.74557 0.27121
 N1550 N 0.52945 0.75362 0.25945
 C1551 C 0.53954 0.76542 0.25211
 C1552 C 0.53394 0.73174 0.28131
 C1553 C 0.51670 0.72633 0.28252
 C1554 C 0.51157 0.71123 0.28989
 C1555 C 0.49393 0.71103 0.28933
 C1556 C 0.48875 0.72597 0.28159
 N1557 N 0.50270 0.73527 0.27760
 C1558 C 0.47145 0.73096 0.27923
 C1559 C 0.46628 0.74436 0.26837
 C1560 C 0.44965 0.75057 0.26716
 C1561 C 0.44984 0.76287 0.25477
 C1562 C 0.46657 0.76379 0.24883
 N1563 N 0.47658 0.75238 0.25707
 C1564 C 0.47213 0.77458 0.23550
 C1565 C 0.48957 0.77687 0.23106
 C1566 C 0.49517 0.78494 0.21631
 C1567 C 0.51279 0.78544 0.21717
 C1568 C 0.51749 0.77764 0.23243
 N1569 N 0.50324 0.77257 0.24087
 C1570 C 0.53455 0.77614 0.23847
 H1571 H 0.56683 0.77246 0.25580
 H1572 H 0.56651 0.74830 0.27908
 H1573 H 0.50279 0.76818 0.25341
 H1574 H 0.51969 0.70142 0.29521
 H1575 H 0.48583 0.70102 0.29412
 H1576 H 0.43853 0.74665 0.27442
 H1577 H 0.43889 0.77029 0.25063
 H1578 H 0.52119 0.79099 0.20768
 H1579 H 0.50257 0.74774 0.27354
 H1580 H 0.48737 0.79004 0.20602
 C1581 C 0.05537 0.74552 0.24504
 C1582 C 0.05543 0.75550 0.25938
 C1583 C 0.03839 0.75835 0.26374
 N1584 N 0.02799 0.75039 0.25251
 C1585 C 0.03830 0.74253 0.24106
 C1586 C 0.03293 0.76873 0.27750
 C1587 C 0.01556 0.77238 0.28156
 C1588 C 0.01045 0.78447 0.29340
 C1589 C -0.00717 0.78476 0.29331
 C1590 C -0.01246 0.77279 0.28147
 N1591 N 0.00150 0.76507 0.27462
 C1592 C -0.02987 0.76967 0.27729
 C1593 C -0.03545 0.75926 0.26364
 C1594 C -0.05252 0.75648 0.25948
 C1595 C -0.05257 0.74628 0.24530
 C1596 C -0.03553 0.74300 0.24128
 N1597 N -0.02514 0.75097 0.25251
 C1598 C -0.03006 0.73243 0.22769
 C1599 C -0.01268 0.72883 0.22363
 C1600 C -0.00753 0.71660 0.21196
 C1601 C 0.01009 0.71657 0.21184
 C1602 C 0.01533 0.72874 0.22347
 N1603 N 0.00135 0.73638 0.23037
 C1604 C 0.03272 0.73223 0.22734
 H1605 H 0.06664 0.74095 0.23834
 H1606 H 0.06676 0.76023 0.26578
 H1607 H 0.00138 0.74690 0.23824
 H1608 H 0.01856 0.79251 0.30111
 H1609 H -0.01517 0.79309 0.30092
 H1610 H -0.06381 0.76133 0.26592
 H1611 H -0.06390 0.74176 0.23876
 H1612 H 0.01813 0.70828 0.20423
 H1613 H 0.00143 0.75473 0.26653
 H1614 H -0.01561 0.70833 0.20447
 C1615 C 0.55016 0.75876 0.75437
 C1616 C 0.55021 0.74779 0.74077
 C1617 C 0.53360 0.74182 0.73916
 N1618 N 0.52343 0.74873 0.75136
 C1619 C 0.53350 0.75918 0.76060
 C1620 C 0.52835 0.72953 0.72714
 C1621 C 0.51109 0.72464 0.72469
 C1622 C 0.50600 0.71050 0.71557
 C1623 C 0.48835 0.71050 0.71555
 C1624 C 0.48312 0.72465 0.72466
 N1625 N 0.49706 0.73328 0.73004
 C1626 C 0.46581 0.72954 0.72709
 C1627 C 0.46049 0.74200 0.73894
 C1628 C 0.44385 0.74811 0.74040
 C1629 C 0.44380 0.75915 0.75392
 C1630 C 0.46042 0.75947 0.76028
 N1631 N 0.47057 0.74889 0.75116
 C1632 C 0.46563 0.76864 0.77491
 C1633 C 0.48288 0.77012 0.78034
 C1634 C 0.48796 0.77662 0.79605
 C1635 C 0.50562 0.77655 0.79613
 C1636 C 0.51085 0.77001 0.78046
 N1637 N 0.49691 0.76630 0.77086
 C1638 C 0.52815 0.76841 0.77518
 H1639 H 0.56116 0.76556 0.75918
 H1640 H 0.56127 0.74449 0.73303
 H1641 H 0.49696 0.76307 0.75796
 H1642 H 0.51416 0.70114 0.70953
 H1643 H 0.48029 0.70115 0.70950
 H1644 H 0.43285 0.74485 0.73260
 H1645 H 0.43275 0.76607 0.75862
 H1646 H 0.51368 0.78091 0.80652
 H1647 H 0.49701 0.74525 0.73541
 H1648 H 0.47980 0.78103 0.80637
 C1649 C 0.41028 0.31377 0.28891
 C1650 C 0.40739 0.31145 0.30657
 C1651 C 0.41875 0.30119 0.31603
 C1652 C 0.43251 0.29298 0.30791
 C1653 C 0.43500 0.29505 0.29005
 C1654 C 0.42394 0.30561 0.28072
 C1655 C 0.44833 0.28629 0.28181
 C1656 C 0.45918 0.27555 0.29122
 C1657 C 0.45693 0.27386 0.30898
 C1658 C 0.44366 0.28251 0.31729
 H1659 H 0.41684 0.29947 0.32969
 H1660 H 0.42570 0.30737 0.26704
 H1661 H 0.45016 0.28758 0.26807
 H1662 H 0.44199 0.28084 0.33100
 H1663 H 0.40171 0.32153 0.28128
 H1664 H 0.46528 0.26561 0.31633
 C1665 C 0.41511 0.82467 0.79778
 C1666 C 0.40537 0.81497 0.80941
 C1667 C 0.41044 0.79809 0.81241
 C1668 C 0.42452 0.79100 0.80374
 C1669 C 0.43396 0.80089 0.79201
 C1670 C 0.42923 0.81772 0.78925
 C1671 C 0.44777 0.79366 0.78302
 C1672 C 0.45204 0.77663 0.78548
 C1673 C 0.44275 0.76690 0.79724
 C1674 C 0.42913 0.77405 0.80639
 H1675 H 0.40336 0.79019 0.82122
 H1676 H 0.43635 0.82549 0.78031
 H1677 H 0.45493 0.80109 0.77380
 H1678 H 0.42202 0.76626 0.81531
 H1679 H 0.41191 0.83770 0.79511
 H1680 H 0.44592 0.75371 0.79913
 C1681 C -0.08454 0.32407 0.78719
 C1682 C -0.09199 0.31484 0.80069
 C1683 C -0.08503 0.29897 0.80498
 C1684 C -0.07127 0.29218 0.79560
 C1685 C -0.06418 0.30142 0.78181
 C1686 C -0.07077 0.31743 0.77786
 C1687 C -0.05088 0.29433 0.77199
 C1688 C -0.04471 0.27810 0.77578
 C1689 C -0.05156 0.26912 0.78967
 C1690 C -0.06474 0.27612 0.79955
 H1691 H -0.09058 0.29162 0.81527
 H1692 H -0.06543 0.32473 0.76739
 H1693 H -0.04555 0.30121 0.76122
 H1694 H -0.06999 0.26887 0.81009
 H1695 H -0.08939 0.33641 0.78370
 H1696 H -0.04686 0.25658 0.79267
 C1697 C -0.08835 0.82107 0.29055
 C1698 C -0.09356 0.81489 0.30666
 C1699 C -0.08419 0.80154 0.31417
 C1700 C -0.07024 0.79417 0.30552
 C1701 C -0.06542 0.80030 0.28918
 C1702 C -0.07443 0.81387 0.28192
 C1703 C -0.05190 0.79255 0.28023
 C1704 C -0.04327 0.77863 0.28736
 C1705 C -0.04784 0.77280 0.30372
 C1706 C -0.06122 0.78054 0.31277
 H1707 H -0.08781 0.79668 0.32663
 H1708 H -0.07088 0.81875 0.26942
 H1709 H -0.04831 0.79702 0.26758
 H1710 H -0.06469 0.77570 0.32530
 H1711 H -0.09520 0.83129 0.28435
 H1712 H -0.04122 0.76208 0.30932
 C1713 C 0.59662 0.68423 0.29022
 C1714 C 0.59835 0.68579 0.30811
 C1715 C 0.58659 0.69597 0.31716
 C1716 C 0.57336 0.70452 0.30845
 C1717 C 0.57191 0.70299 0.29043
 C1718 C 0.58356 0.69277 0.28145
 C1719 C 0.55891 0.71178 0.28167
 C1720 C 0.54730 0.72202 0.29072
 C1721 C 0.54862 0.72331 0.30862
 C1722 C 0.56158 0.71464 0.31744
 H1723 H 0.58763 0.69717 0.33098
 H1724 H 0.58264 0.69146 0.26764
 H1725 H 0.55783 0.71078 0.26783
 H1726 H 0.56245 0.71593 0.33126
 H1727 H 0.60554 0.67662 0.28287
 H1728 H 0.53971 0.73119 0.31571
 C1729 C 0.58623 0.20642 0.81432
 C1730 C 0.59107 0.19020 0.80878
 C1731 C 0.58236 0.18289 0.79485
 C1732 C 0.56918 0.19175 0.78642
 C1733 C 0.56465 0.20817 0.79196
 C1734 C 0.57317 0.21533 0.80598
 C1735 C 0.55179 0.21721 0.78329
 C1736 C 0.54335 0.20999 0.76924
 C1737 C 0.54768 0.19363 0.76391
 C1738 C 0.56054 0.18455 0.77243
 H1739 H 0.58580 0.17033 0.79053
 H1740 H 0.56984 0.22789 0.81039
 H1741 H 0.54838 0.22987 0.78734
 H1742 H 0.56381 0.17198 0.76802
 H1743 H 0.59276 0.21246 0.82489
 H1744 H 0.54122 0.18801 0.75303
 C1745 C 1.09194 0.68143 0.78996
 C1746 C 1.09517 0.68643 0.80700
 C1747 C 1.08498 0.69931 0.81425
 C1748 C 1.07193 0.70714 0.80462
 C1749 C 1.06894 0.70203 0.78750
 C1750 C 1.07897 0.68914 0.78033
 C1751 C 1.05605 0.70996 0.77780
 C1752 C 1.04615 0.72299 0.78499
 C1753 C 1.04904 0.72793 0.80202
 C1754 C 1.06185 0.72006 0.81179
 H1755 H 1.08712 0.70328 0.82736
 H1756 H 1.07686 0.68507 0.76722
 H1757 H 1.05372 0.70612 0.76465
 H1758 H 1.06393 0.72413 0.82489
 H1759 H 1.09954 0.67167 0.78390
 H1760 H 1.04144 0.73795 0.80769
 C1761 C 1.09621 0.18681 0.28739
 C1762 C 1.09812 0.18786 0.30532
 C1763 C 1.08632 0.19759 0.31480
 C1764 C 1.07298 0.20633 0.30650
 C1765 C 1.07138 0.20538 0.28845
 C1766 C 1.08299 0.19551 0.27904
 C1767 C 1.05829 0.21443 0.28011
 C1768 C 1.04679 0.22440 0.28961
 C1769 C 1.04826 0.22509 0.30753
 C1770 C 1.06128 0.21614 0.31594
 H1771 H 1.08746 0.19837 0.32863
 H1772 H 1.08194 0.19463 0.26520
 H1773 H 1.05706 0.21387 0.26625
 H1774 H 1.06228 0.21698 0.32978
 H1775 H 1.10514 0.17955 0.27971
 H1776 H 1.03942 0.23273 0.31497
 C1777 C 0.59512 0.30889 0.71017
 C1778 C 0.59764 0.30774 0.69233
 C1779 C 0.58642 0.29778 0.68251
 C1780 C 0.57288 0.28910 0.69041
 C1781 C 0.57061 0.29029 0.70838
 C1782 C 0.58176 0.30022 0.71811
 C1783 C 0.55722 0.28152 0.71632
 C1784 C 0.54600 0.27164 0.70654
 C1785 C 0.54816 0.27061 0.68871
 C1786 C 0.56155 0.27925 0.68067
 H1787 H 0.58810 0.29689 0.66873
 H1788 H 0.58020 0.30125 0.73190
 H1789 H 0.55545 0.28234 0.73011
 H1790 H 0.56305 0.27822 0.66689
 H1791 H 0.60363 0.31628 0.71811
 H1792 H 0.53952 0.26303 0.68106
 C1793 C 0.59678 0.78713 0.19059
 C1794 C 0.59917 0.80440 0.19391
 C1795 C 0.58793 0.81269 0.20528
 C1796 C 0.57453 0.80384 0.21325
 C1797 C 0.57244 0.78643 0.20995
 C1798 C 0.58360 0.77822 0.19857
 C1799 C 0.55928 0.77749 0.21814
 C1800 C 0.54812 0.78577 0.22949
 C1801 C 0.55005 0.80309 0.23255
 C1802 C 0.56320 0.81207 0.22452
 H1803 H 0.58949 0.82603 0.20783
 H1804 H 0.58217 0.76489 0.19589
 H1805 H 0.55771 0.76411 0.21578
 H1806 H 0.56455 0.82542 0.22717
 H1807 H 0.60531 0.78035 0.18205
 H1808 H 0.54147 0.80957 0.24130
 C1809 C 1.09377 0.28917 0.18908
 C1810 C 1.09646 0.30643 0.19218
 C1811 C 1.08539 0.31504 0.20349
 C1812 C 1.07204 0.30648 0.21183
 C1813 C 1.06971 0.28904 0.20886
 C1814 C 1.08055 0.28055 0.19738
 C1815 C 1.05669 0.28037 0.21758
 C1816 C 1.04595 0.28894 0.22915
 C1817 C 1.04811 0.30629 0.23180
 C1818 C 1.06109 0.31501 0.22322
 H1819 H 1.08714 0.32838 0.20585
 H1820 H 1.07892 0.26720 0.19494
 H1821 H 1.05494 0.26696 0.21552
 H1822 H 1.06265 0.32838 0.22561
 H1823 H 1.10212 0.28218 0.18054
 H1824 H 1.03987 0.31301 0.24070
 C1825 C 1.08273 0.82399 0.70405
 C1826 C 1.09170 0.81524 0.69114
 C1827 C 1.08636 0.79890 0.68660
 C1828 C 1.07259 0.79125 0.69520
 C1829 C 1.06392 0.80011 0.70838
 C1830 C 1.06896 0.81652 0.71257
 C1831 C 1.05055 0.79231 0.71737
 C1832 C 1.04581 0.77573 0.71341
 C1833 C 1.05427 0.76704 0.70020
 C1834 C 1.06756 0.77476 0.69111
 H1835 H 1.09317 0.79193 0.67676
 H1836 H 1.06240 0.82351 0.72257
 H1837 H 1.04400 0.79894 0.72765
 H1838 H 1.07405 0.76777 0.68106
 H1839 H 1.08634 0.83666 0.70767
 H1840 H 1.05071 0.75420 0.69711
 C1841 C 0.40381 0.68252 0.71528
 C1842 C 0.40076 0.68674 0.69801
 C1843 C 0.41184 0.69812 0.68976
 C1844 C 0.42558 0.70540 0.69871
 C1845 C 0.42827 0.70130 0.71618
 C1846 C 0.41741 0.68976 0.72429
 C1847 C 0.44164 0.70900 0.72529
 C1848 C 0.45236 0.72069 0.71714
 C1849 C 0.44989 0.72444 0.69972
 C1850 C 0.43657 0.71686 0.69055
 H1851 H 0.40979 0.70135 0.67639
 H1852 H 0.41930 0.68646 0.73766
 H1853 H 0.44361 0.70612 0.73876
 H1854 H 0.43474 0.72011 0.67716
 H1855 H 0.39545 0.67390 0.72202
 H1856 H 0.45810 0.73346 0.69333
 C1857 C 0.41118 0.21270 0.19022
 C1858 C 0.40833 0.19541 0.19300
 C1859 C 0.41913 0.18653 0.20436
 C1860 C 0.43253 0.19482 0.21289
 C1861 C 0.43510 0.21226 0.21013
 C1862 C 0.42441 0.22105 0.19874
 C1863 C 0.44825 0.22064 0.21891
 C1864 C 0.45891 0.21178 0.23032
 C1865 C 0.45651 0.19443 0.23282
 C1866 C 0.44338 0.18599 0.22419
 H1867 H 0.41721 0.17316 0.20650
 H1868 H 0.42621 0.23442 0.19648
 H1869 H 0.45019 0.23404 0.21698
 H1870 H 0.44164 0.17262 0.22642
 H1871 H 0.40300 0.21991 0.18168
 H1872 H 0.46471 0.18750 0.24161
 C1873 C -0.08857 0.68195 0.21320
 C1874 C -0.09329 0.68812 0.19691
 C1875 C -0.08383 0.70145 0.18970
 C1876 C -0.07016 0.70873 0.19874
 C1877 C -0.06576 0.70256 0.21521
 C1878 C -0.07494 0.68909 0.22224
 C1879 C -0.05241 0.71013 0.22445
 C1880 C -0.04352 0.72386 0.21748
 C1881 C -0.04774 0.72977 0.20104
 C1882 C -0.06096 0.72224 0.19170
 H1883 H -0.08710 0.70627 0.17710
 H1884 H -0.07172 0.68420 0.23484
 H1885 H -0.04909 0.70559 0.23717
 H1886 H -0.06412 0.72712 0.17908
 H1887 H -0.09557 0.67179 0.21919
 H1888 H -0.04091 0.74036 0.19556
 C1889 C -0.08515 0.17118 0.70291
 C1890 C -0.09347 0.17997 0.68957
 C1891 C -0.08718 0.19583 0.68457
 C1892 C -0.07308 0.20299 0.69306
 C1893 C -0.06503 0.19413 0.70664
 C1894 C -0.07106 0.17817 0.71134
 C1895 C -0.05131 0.20151 0.71551
 C1896 C -0.04569 0.21770 0.71104
 C1897 C -0.05353 0.22634 0.69740
 C1898 C -0.06711 0.21903 0.68842
 H1899 H -0.09346 0.20285 0.67440
 H1900 H -0.06499 0.17117 0.72167
 H1901 H -0.04525 0.19491 0.72612
 H1902 H -0.07312 0.22601 0.67805
 H1903 H -0.08949 0.15885 0.70692
 H1904 H -0.04927 0.23887 0.69391
 C1905 C 0.29301 0.41202 0.31638
 C1906 C 0.30957 0.40723 0.31101
 C1907 C 0.31767 0.41659 0.29800
 C1908 C 0.30922 0.43030 0.29024
 C1909 C 0.29243 0.43473 0.29556
 C1910 C 0.28452 0.42561 0.30872
 C1911 C 0.28373 0.44803 0.28744
 C1912 C 0.29160 0.45698 0.27411
 C1913 C 0.30835 0.45281 0.26906
 C1914 C 0.31713 0.43954 0.27707
 H1915 H 0.33050 0.41320 0.29383
 H1916 H 0.27167 0.42885 0.31295
 H1917 H 0.27075 0.45131 0.29127
 H1918 H 0.32999 0.43635 0.27284
 H1919 H 0.28635 0.40503 0.32625
 H1920 H 0.31448 0.45966 0.25873
 C1921 C 0.29732 -0.07977 0.83228
 C1922 C 0.30972 -0.08809 0.82209
 C1923 C 0.31251 -0.08213 0.80524
 C1924 C 0.30275 -0.06871 0.79856
 C1925 C 0.29019 -0.06077 0.80888
 C1926 C 0.28773 -0.06626 0.82577
 C1927 C 0.28008 -0.04768 0.80203
 C1928 C 0.28224 -0.04268 0.78490
 C1929 C 0.29484 -0.05047 0.77476
 C1930 C 0.30510 -0.06334 0.78156
 H1931 H 0.32193 -0.08809 0.79701
 H1932 H 0.27820 -0.06027 0.83389
 H1933 H 0.27029 -0.04165 0.80981
 H1934 H 0.31468 -0.06927 0.77344
 H1935 H 0.29481 -0.08363 0.84535
 H1936 H 0.29659 -0.04667 0.76152
 C1937 C 0.81334 0.41090 0.78962
 C1938 C 0.80860 0.40557 0.80626
 C1939 C 0.79596 0.41498 0.81512
 C1940 C 0.78805 0.42906 0.80740
 C1941 C 0.79277 0.43388 0.79060
 C1942 C 0.80550 0.42482 0.78191
 C1943 C 0.78451 0.44754 0.78262
 C1944 C 0.77156 0.45647 0.79123
 C1945 C 0.76713 0.45194 0.80804
 C1946 C 0.77531 0.43831 0.81610
 H1947 H 0.79208 0.41141 0.82795
 H1948 H 0.80931 0.42840 0.76904
 H1949 H 0.78789 0.45109 0.76961
 H1950 H 0.77153 0.43486 0.82901
 H1951 H 0.82296 0.40429 0.78223
 H1952 H 0.75711 0.45877 0.81477
 C1953 C 0.79228 -0.08515 0.31833
 C1954 C 0.80781 -0.09172 0.31174
 C1955 C 0.81533 -0.08353 0.29751
 C1956 C 0.80725 -0.06964 0.28970
 C1957 C 0.79141 -0.06364 0.29614
 C1958 C 0.78417 -0.07134 0.31058
 C1959 C 0.78295 -0.05025 0.28782
 C1960 C 0.79022 -0.04282 0.27320
 C1961 C 0.80615 -0.04853 0.26714
 C1962 C 0.81463 -0.06185 0.27532
 H1963 H 0.82738 -0.08794 0.29225
 H1964 H 0.77208 -0.06682 0.31576
 H1965 H 0.77061 -0.04580 0.29245
 H1966 H 0.82680 -0.06624 0.27025
 H1967 H 0.78602 -0.09082 0.32927
 H1968 H 0.81181 -0.04287 0.25583
 C1969 C 0.28259 0.59160 0.68748
 C1970 C 0.30004 0.59456 0.69095
 C1971 C 0.30887 0.58358 0.70212
 C1972 C 0.30035 0.57005 0.70997
 C1973 C 0.28272 0.56743 0.70664
 C1974 C 0.27401 0.57819 0.69528
 C1975 C 0.27407 0.55423 0.71490
 C1976 C 0.28284 0.54362 0.72640
 C1977 C 0.30041 0.54606 0.72938
 C1978 C 0.30911 0.55919 0.72124
 H1979 H 0.32237 0.58553 0.70476
 H1980 H 0.26051 0.57635 0.69257
 H1981 H 0.26050 0.55227 0.71258
 H1982 H 0.32264 0.56096 0.72389
 H1983 H 0.27541 0.59987 0.67904
 H1984 H 0.30729 0.53791 0.73821
 C1985 C 0.31817 1.09312 0.20875
 C1986 C 0.31431 1.09667 0.19148
 C1987 C 0.30267 1.08627 0.18269
 C1988 C 0.29489 1.07260 0.19107
 C1989 C 0.29871 1.06936 0.20852
 C1990 C 0.31041 1.07963 0.21720
 C1991 C 0.29066 1.05597 0.21704
 C1992 C 0.27894 1.04573 0.20831
 C1993 C 0.27537 1.04879 0.19094
 C1994 C 0.28327 1.06218 0.18237
 H1995 H 0.29970 1.08873 0.16933
 H1996 H 0.31348 1.07731 0.23057
 H1997 H 0.29339 1.05353 0.23047
 H1998 H 0.28021 1.06443 0.16899
 H1999 H 0.32693 1.10096 0.21592
 H2000 H 0.26632 1.04093 0.18412
 C2001 C 0.80680 0.57793 0.17049
 C2002 C 0.81584 0.58840 0.18188
 C2003 C 0.81662 0.58399 0.19935
 C2004 C 0.80793 0.56976 0.20549
 C2005 C 0.79856 0.55955 0.19396
 C2006 C 0.79831 0.56360 0.17646
 C2007 C 0.78919 0.54579 0.20024
 C2008 C 0.78888 0.54234 0.21789
 C2009 C 0.79846 0.55231 0.22921
 C2010 C 0.80800 0.56588 0.22306
 H2011 H 0.82340 0.59197 0.20834
 H2012 H 0.79125 0.55589 0.16743
 H2013 H 0.78168 0.53810 0.19155
 H2014 H 0.81511 0.57356 0.23207
 H2015 H 0.80616 0.58088 0.15693
 H2016 H 0.79824 0.54974 0.24287
 C2017 C 0.79875 1.07458 0.67819
 C2018 C 0.81045 1.08442 0.68754
 C2019 C 0.81395 1.08016 0.70473
 C2020 C 0.80543 1.06669 0.71265
 C2021 C 0.79335 1.05719 0.70321
 C2022 C 0.79030 1.06108 0.68594
 C2023 C 0.78425 1.04423 0.71132
 C2024 C 0.78695 1.04078 0.72876
 C2025 C 0.79924 1.04994 0.73798
 C2026 C 0.80844 1.06282 0.72997
 H2027 H 0.82286 1.08761 0.71219
 H2028 H 0.78118 1.05386 0.67849
 H2029 H 0.77475 1.03710 0.70424
 H2030 H 0.81767 1.06993 0.73739
 H2031 H 0.79596 1.07735 0.66487
 H2032 H 0.80145 1.04730 0.75144
 C2033 C 0.71826 0.59206 0.30837
 C2034 C 0.70037 0.59382 0.30650
 C2035 C 0.69146 0.58198 0.29644
 C2036 C 0.70030 0.56873 0.28828
 C2037 C 0.71828 0.56724 0.29022
 C2038 C 0.72711 0.57892 0.30033
 C2039 C 0.72717 0.55420 0.28189
 C2040 C 0.71835 0.54266 0.27153
 C2041 C 0.70047 0.54405 0.26978
 C2042 C 0.69149 0.55699 0.27811
 H2043 H 0.67768 0.58300 0.29492
 H2044 H 0.74090 0.57796 0.30193
 H2045 H 0.74098 0.55305 0.28330
 H2046 H 0.67770 0.55790 0.27650
 H2047 H 0.72559 0.60094 0.31588
 H2048 H 0.69353 0.53520 0.26183
 C2049 C 0.67718 1.08493 0.79438
 C2050 C 0.68490 1.09185 0.80917
 C2051 C 0.69971 1.08385 0.81583
 C2052 C 0.70694 1.06975 0.80761
 C2053 C 0.69924 1.06331 0.79257
 C2054 C 0.68427 1.07086 0.78621
 C2055 C 0.70683 1.04963 0.78397
 C2056 C 0.72207 1.04241 0.79021
 C2057 C 0.72952 1.04863 0.80529
 C2058 C 0.72198 1.06218 0.81398
 H2059 H 0.70594 1.08863 0.82723
 H2060 H 0.67815 1.06602 0.77474
 H2061 H 0.70117 1.04483 0.77225
 H2062 H 0.72807 1.06693 0.82550
 H2063 H 0.66573 1.09039 0.78881
 H2064 H 0.74134 1.04316 0.81013
 C2065 C 0.20435 0.58103 0.83102
 C2066 C 0.19139 0.58884 0.82121
 C2067 C 0.18718 0.58211 0.80506
 C2068 C 0.19622 0.56818 0.79851
 C2069 C 0.20947 0.56065 0.80836
 C2070 C 0.21325 0.56702 0.82469
 C2071 C 0.21902 0.54721 0.80150
 C2072 C 0.21566 0.54143 0.78484
 C2073 C 0.20235 0.54874 0.77522
 C2074 C 0.19261 0.56197 0.78205
 H2075 H 0.17734 0.58805 0.79728
 H2076 H 0.22331 0.56137 0.83243
 H2077 H 0.22942 0.54158 0.80882
 H2078 H 0.18253 0.56760 0.77431
 H2079 H 0.20771 0.58580 0.84358
 H2080 H 0.19975 0.54438 0.76231
 C2081 C 0.21905 1.09428 0.30764
 C2082 C 0.20108 1.09563 0.30645
 C2083 C 0.19194 1.08310 0.29759
 C2084 C 0.20065 1.06959 0.28977
 C2085 C 0.21875 1.06860 0.29081
 C2086 C 0.22780 1.08092 0.29989
 C2087 C 0.22753 1.05549 0.28250
 C2088 C 0.21847 1.04338 0.27311
 C2089 C 0.20050 1.04414 0.27242
 C2090 C 0.19162 1.05717 0.28071
 H2091 H 0.17808 1.08384 0.29672
 H2092 H 0.24167 1.08034 0.30081
 H2093 H 0.24143 1.05483 0.28302
 H2094 H 0.17775 1.05767 0.27982
 H2095 H 0.22649 1.10376 0.31424
 H2096 H 0.19340 1.03482 0.26519
 C2097 C 0.67234 0.42042 0.70365
 C2098 C 0.68377 0.41144 0.69303
 C2099 C 0.70070 0.41722 0.69122
 C2100 C 0.70635 0.43134 0.70047
 C2101 C 0.69483 0.44001 0.71143
 C2102 C 0.67780 0.43461 0.71270
 C2103 C 0.70069 0.45359 0.72133
 C2104 C 0.71796 0.45838 0.72059
 C2105 C 0.72926 0.44997 0.70947
 C2106 C 0.72348 0.43659 0.69938
 H2107 H 0.70970 0.41039 0.68319
 H2108 H 0.66878 0.44115 0.72097
 H2109 H 0.69203 0.46006 0.73004
 H2110 H 0.73249 0.43011 0.69107
 H2111 H 0.65916 0.41641 0.70509
 H2112 H 0.74264 0.45358 0.70889
 C2113 C 0.68854 -0.09111 0.21190
 C2114 C 0.69141 -0.09420 0.19436
 C2115 C 0.70210 -0.08321 0.18509
 C2116 C 0.71009 -0.06957 0.19328
 C2117 C 0.70742 -0.06685 0.21102
 C2118 C 0.69649 -0.07759 0.22016
 C2119 C 0.71593 -0.05361 0.21935
 C2120 C 0.72705 -0.04306 0.21015
 C2121 C 0.72932 -0.04556 0.19248
 C2122 C 0.72092 -0.05873 0.18409
 H2123 H 0.70427 -0.08527 0.17152
 H2124 H 0.69427 -0.07567 0.23375
 H2125 H 0.71418 -0.05163 0.23301
 H2126 H 0.72307 -0.06058 0.17048
 H2127 H 0.68047 -0.09937 0.21941
 H2128 H 0.73788 -0.03748 0.18528
 C2129 C 0.18621 0.40886 0.21424
 C2130 C 0.18985 0.40597 0.19680
 C2131 C 0.20116 0.41687 0.18821
 C2132 C 0.20897 0.43026 0.19697
 C2133 C 0.20548 0.43281 0.21460
 C2134 C 0.19398 0.42212 0.22306
 C2135 C 0.21371 0.44586 0.22349
 C2136 C 0.22529 0.45641 0.21492
 C2137 C 0.22846 0.45406 0.19738
 C2138 C 0.22037 0.44105 0.18845
 H2139 H 0.20393 0.41497 0.17472
 H2140 H 0.19114 0.42391 0.23655
 H2141 H 0.21130 0.44775 0.23707
 H2142 H 0.22316 0.43933 0.17493
 H2143 H 0.17764 0.40063 0.22123
 H2144 H 0.23741 0.46216 0.19070
 C2145 C 0.17387 -0.07744 0.70206
 C2146 C 0.18493 -0.08737 0.69193
 C2147 C 0.20230 -0.08283 0.69058
 C2148 C 0.20869 -0.06901 0.69980
 C2149 C 0.19751 -0.05939 0.71028
 C2150 C 0.18009 -0.06354 0.71109
 C2151 C 0.20404 -0.04608 0.72014
 C2152 C 0.22164 -0.04248 0.71986
 C2153 C 0.23261 -0.05181 0.70916
 C2154 C 0.22619 -0.06496 0.69915
 H2155 H 0.21102 -0.09040 0.68293
 H2156 H 0.17132 -0.05625 0.71897
 H2157 H 0.19560 -0.03886 0.72845
 H2158 H 0.23494 -0.07217 0.69118
 H2159 H 0.16039 -0.08047 0.70314
 H2160 H 0.24622 -0.04908 0.70884
 C2161 C 0.31259 0.29041 0.40791
 C2162 C 0.31023 0.30781 0.40526
 C2163 C 0.29926 0.31686 0.41628
 C2164 C 0.29045 0.30860 0.42952
 C2165 C 0.29262 0.29101 0.43178
 C2166 C 0.30384 0.28207 0.42102
 C2167 C 0.28339 0.28264 0.44463
 C2168 C 0.27210 0.29165 0.45527
 C2169 C 0.27023 0.30913 0.45321
 C2170 C 0.27933 0.31757 0.44039
 H2171 H 0.29749 0.33032 0.41457
 H2172 H 0.30567 0.26860 0.42261
 H2173 H 0.28484 0.26913 0.44632
 H2174 H 0.27755 0.33105 0.43887
 H2175 H 0.32086 0.28309 0.39957
 H2176 H 0.26155 0.31617 0.46140
 C2177 C 0.30650 0.78974 -0.09476
 C2178 C 0.30797 0.80741 -0.09414
 C2179 C 0.30039 0.81620 -0.08037
 C2180 C 0.29131 0.80754 -0.06759
 C2181 C 0.28980 0.78980 -0.06849
 C2182 C 0.29750 0.78102 -0.08207
 C2183 C 0.28052 0.78116 -0.05584
 C2184 C 0.27267 0.79005 -0.04237
 C2185 C 0.27436 0.80764 -0.04145
 C2186 C 0.28363 0.81633 -0.05396
 H2187 H 0.30155 0.82978 -0.07953
 H2188 H 0.29646 0.76742 -0.08296
 H2189 H 0.27930 0.76755 -0.05645
 H2190 H 0.28470 0.82992 -0.05304
 H2191 H 0.31206 0.78259 -0.10521
 H2192 H 0.26840 0.81461 -0.03107
 C2193 C 0.82522 0.29488 -0.08847
 C2194 C 0.81529 0.30736 -0.09673
 C2195 C 0.79865 0.31083 -0.09061
 C2196 C 0.79187 0.30165 -0.07676
 C2197 C 0.80191 0.28895 -0.06879
 C2198 C 0.81861 0.28580 -0.07464
 C2199 C 0.79501 0.27947 -0.05527
 C2200 C 0.77818 0.28248 -0.04967
 C2201 C 0.76830 0.29519 -0.05747
 C2202 C 0.77510 0.30474 -0.07092
 H2203 H 0.79078 0.32031 -0.09686
 H2204 H 0.82651 0.27618 -0.06862
 H2205 H 0.80258 0.26960 -0.04922
 H2206 H 0.76720 0.31441 -0.07686
 H2207 H 0.83815 0.29208 -0.09268
 H2208 H 0.75527 0.29756 -0.05323
 C2209 C 0.81073 0.78917 0.40617
 C2210 C 0.80750 0.80647 0.40359
 C2211 C 0.79639 0.81501 0.41492
 C2212 C 0.78851 0.80636 0.42852
 C2213 C 0.79168 0.78892 0.43078
 C2214 C 0.80286 0.78048 0.41960
 C2215 C 0.78352 0.78018 0.44410
 C2216 C 0.77232 0.78868 0.45526
 C2217 C 0.76941 0.80603 0.45317
 C2218 C 0.77742 0.81482 0.43986
 H2219 H 0.79392 0.82837 0.41323
 H2220 H 0.80544 0.76712 0.42116
 H2221 H 0.78576 0.76677 0.44580
 H2222 H 0.77488 0.82820 0.43837
 H2223 H 0.81908 0.78222 0.39760
 H2224 H 0.76078 0.81268 0.46174
 C2225 C 0.71488 0.31733 0.59367
 C2226 C 0.69716 0.31478 0.59587
 C2227 C 0.68843 0.30427 0.58426
 C2228 C 0.69730 0.29612 0.57094
 C2229 C 0.71519 0.29850 0.56912
 C2230 C 0.72381 0.30925 0.58045
 C2231 C 0.72417 0.28990 0.55617
 C2232 C 0.71547 0.27893 0.54506
 C2233 C 0.69768 0.27692 0.54669
 C2234 C 0.68864 0.28544 0.55954
 H2235 H 0.67474 0.30234 0.58560
 H2236 H 0.73750 0.31125 0.57922
 H2237 H 0.73791 0.29150 0.55483
 H2238 H 0.67493 0.28352 0.56070
 H2239 H 0.72199 0.32525 0.60242
 H2240 H 0.69085 0.26852 0.53815
 C2241 C 0.71260 0.81354 1.09143
 C2242 C 0.69514 0.81069 1.09488
 C2243 C 0.68587 0.79973 1.08417
 C2244 C 0.69400 0.79137 1.07052
 C2245 C 0.71169 0.79396 1.06750
 C2246 C 0.72081 0.80521 1.07790
 C2247 C 0.71999 0.78505 1.05431
 C2248 C 0.71078 0.77365 1.04411
 C2249 C 0.69316 0.77146 1.04688
 C2250 C 0.68481 0.78024 1.06002
 H2251 H 0.67235 0.79760 1.08650
 H2252 H 0.73436 0.80739 1.07572
 H2253 H 0.73361 0.78674 1.05209
 H2254 H 0.67124 0.77816 1.06211
 H2255 H 0.72008 0.82183 1.09950
 H2256 H 0.68596 0.76270 1.03905
 C2257 C 0.21402 0.31621 1.09320
 C2258 C 0.19657 0.31271 1.09606
 C2259 C 0.18797 0.30182 1.08474
 C2260 C 0.19673 0.29432 1.07094
 C2261 C 0.21436 0.29768 1.06844
 C2262 C 0.22284 0.30874 1.07956
 C2263 C 0.22328 0.28974 1.05502
 C2264 C 0.21475 0.27854 1.04406
 C2265 C 0.19719 0.27551 1.04634
 C2266 C 0.18822 0.28333 1.05971
 H2267 H 0.17448 0.29915 1.08665
 H2268 H 0.23634 0.31147 1.07782
 H2269 H 0.23687 0.29202 1.05321
 H2270 H 0.17470 0.28064 1.06139
 H2271 H 0.22103 0.32443 1.10175
 H2272 H 0.19053 0.26683 1.03795
 C2273 C 0.21157 0.81560 0.59437
 C2274 C 0.19368 0.81419 0.59627
 C2275 C 0.18440 0.80459 0.58428
 C2276 C 0.19289 0.79631 0.57077
 C2277 C 0.21092 0.79758 0.56923
 C2278 C 0.22011 0.80735 0.58101
 C2279 C 0.21947 0.78888 0.55606
 C2280 C 0.21022 0.77894 0.54443
 C2281 C 0.19231 0.77799 0.54579
 C2282 C 0.18368 0.78660 0.55888
 H2283 H 0.17059 0.80355 0.58541
 H2284 H 0.23393 0.80848 0.58000
 H2285 H 0.23332 0.78962 0.55494
 H2286 H 0.16986 0.78553 0.55983
 H2287 H 0.21909 0.82278 0.60344
 H2288 H 0.18506 0.77035 0.53687
 C2289 C 0.30866 0.71297 0.59523
 C2290 C 0.30524 0.69574 0.59773
 C2291 C 0.29427 0.68742 0.58620
 C2292 C 0.28665 0.69623 0.57250
 C2293 C 0.28995 0.71363 0.57033
 C2294 C 0.30105 0.72184 0.58169
 C2295 C 0.28195 0.72255 0.55695
 C2296 C 0.27077 0.71427 0.54568
 C2297 C 0.26779 0.69695 0.54766
 C2298 C 0.27565 0.68798 0.56100
 H2299 H 0.29167 0.67410 0.58782
 H2300 H 0.30373 0.73516 0.58021
 H2301 H 0.28425 0.73594 0.55535
 H2302 H 0.27302 0.67464 0.56241
 H2303 H 0.31693 0.71975 0.60395
 H2304 H 0.25918 0.69046 0.53900
 C2305 C 0.31404 0.21265 1.09212
 C2306 C 0.31065 0.19551 1.09520
 C2307 C 0.29893 0.18703 1.08455
 C2308 C 0.29072 0.19559 1.07102
 C2309 C 0.29415 0.21288 1.06822
 C2310 C 0.30584 0.22126 1.07880
 C2311 C 0.28576 0.22154 1.05493
 C2312 C 0.27407 0.21314 1.04433
 C2313 C 0.27086 0.19594 1.04695
 C2314 C 0.27910 0.18721 1.06024
 H2315 H 0.29631 0.17378 1.08667
 H2316 H 0.30859 0.23451 1.07682
 H2317 H 0.28823 0.23484 1.05283
 H2318 H 0.27634 0.17396 1.06214
 H2319 H 0.32282 0.21958 1.10020
 H2320 H 0.26183 0.18936 1.03880
 C2321 C 0.81271 0.71255 1.09430
 C2322 C 0.81128 0.69495 1.09602
 C2323 C 0.80130 0.68600 1.08408
 C2324 C 0.79260 0.69449 1.07087
 C2325 C 0.79389 0.71223 1.06946
 C2326 C 0.80409 0.72111 1.08115
 C2327 C 0.78483 0.72076 1.05650
 C2328 C 0.77450 0.71175 1.04497
 C2329 C 0.77348 0.69414 1.04628
 C2330 C 0.78246 0.68556 1.05914
 H2331 H 0.80023 0.67241 1.08504
 H2332 H 0.80525 0.73470 1.08025
 H2333 H 0.78565 0.73437 1.05540
 H2334 H 0.78136 0.67196 1.06001
 H2335 H 0.82020 0.71982 1.10332
 H2336 H 0.76556 0.68708 1.03743
 C2337 C 0.79721 0.17072 0.58004
 C2338 C 0.80813 0.18055 0.59030
 C2339 C 0.81029 0.19772 0.58636
 C2340 C 0.80121 0.20510 0.57268
 C2341 C 0.79010 0.19511 0.56259
 C2342 C 0.78836 0.17791 0.56626
 C2343 C 0.78066 0.20255 0.54924
 C2344 C 0.78197 0.21989 0.54602
 C2345 C 0.79309 0.22975 0.55595
 C2346 C 0.80272 0.22239 0.56915
 H2347 H 0.81854 0.20546 0.59426
 H2348 H 0.77994 0.17006 0.55863
 H2349 H 0.77199 0.19499 0.54157
 H2350 H 0.81114 0.23026 0.57675
 H2351 H 0.79548 0.15743 0.58267
 H2352 H 0.79416 0.24316 0.55354
 C2353 C 0.71558 0.69114 0.40300
 C2354 C 0.69755 0.69023 0.40254
 C2355 C 0.68803 0.69784 0.41583
 C2356 C 0.69639 0.70625 0.42931
 C2357 C 0.71451 0.70708 0.42951
 C2358 C 0.72397 0.69945 0.41634
 C2359 C 0.72290 0.71567 0.44278
 C2360 C 0.71341 0.72360 0.45580
 C2361 C 0.69543 0.72256 0.45570
 C2362 C 0.68697 0.71393 0.44255
 H2363 H 0.67415 0.69719 0.41578
 H2364 H 0.73786 0.70002 0.41628
 H2365 H 0.73679 0.71642 0.44291
 H2366 H 0.67308 0.71340 0.44265
 H2367 H 0.72333 0.68562 0.39293
 H2368 H 0.68798 0.72862 0.46570
 C2369 C 0.68187 0.20452 -0.08815
 C2370 C 0.68847 0.18896 -0.09391
 C2371 C 0.70338 0.18238 -0.08609
 C2372 C 0.71167 0.19134 -0.07295
 C2373 C 0.70496 0.20706 -0.06752
 C2374 C 0.69001 0.21346 -0.07510
 C2375 C 0.71340 0.21622 -0.05472
 C2376 C 0.72850 0.20990 -0.04728
 C2377 C 0.73503 0.19420 -0.05248
 C2378 C 0.72667 0.18496 -0.06525
 H2379 H 0.70859 0.17036 -0.09021
 H2380 H 0.68471 0.22549 -0.07108
 H2381 H 0.70840 0.22836 -0.05061
 H2382 H 0.73199 0.17292 -0.06921
 H2383 H 0.67054 0.21008 -0.09390
 H2384 H 0.74669 0.18924 -0.04677
 C2385 C 0.20963 0.69604 -0.09380
 C2386 C 0.19163 0.69607 -0.09526
 C2387 C 0.18184 0.70542 -0.08338
 C2388 C 0.18993 0.71446 -0.07016
 C2389 C 0.20804 0.71424 -0.06888
 C2390 C 0.21775 0.70504 -0.08077
 C2391 C 0.21615 0.72318 -0.05569
 C2392 C 0.20644 0.73235 -0.04372
 C2393 C 0.18847 0.73253 -0.04500
 C2394 C 0.18026 0.72366 -0.05815
 H2395 H 0.16797 0.70550 -0.08423
 H2396 H 0.23163 0.70480 -0.07999
 H2397 H 0.23004 0.72298 -0.05464
 H2398 H 0.16638 0.72398 -0.05890
 H2399 H 0.21756 0.68919 -0.10284
 H2400 H 0.18085 0.73957 -0.03581
 C2401 C 0.21494 0.19521 0.40092
 C2402 C 0.19694 0.19442 0.39968
 C2403 C 0.18689 0.20245 0.41230
 C2404 C 0.19469 0.21118 0.42587
 C2405 C 0.21279 0.21188 0.42688
 C2406 C 0.22278 0.20383 0.41438
 C2407 C 0.22062 0.22072 0.44031
 C2408 C 0.21060 0.22901 0.45268
 C2409 C 0.19264 0.22816 0.45174
 C2410 C 0.18472 0.21929 0.43843
 H2411 H 0.17302 0.20189 0.41167
 H2412 H 0.23667 0.20429 0.41495
 H2413 H 0.23450 0.22131 0.44112
 H2414 H 0.17084 0.21887 0.43790
 H2415 H 0.22309 0.18934 0.39139
 H2416 H 0.18478 0.23449 0.46125
 C2417 C 0.28545 0.40826 0.68779
 C2418 C 0.30309 0.40552 0.69053
 C2419 C 0.31211 0.41650 0.70144
 C2420 C 0.30356 0.42980 0.70976
 C2421 C 0.28575 0.43218 0.70716
 C2422 C 0.27685 0.42144 0.69605
 C2423 C 0.27708 0.44511 0.71588
 C2424 C 0.28600 0.45572 0.72712
 C2425 C 0.30372 0.45357 0.72942
 C2426 C 0.31247 0.44067 0.72081
 H2427 H 0.32574 0.41469 0.70352
 H2428 H 0.26321 0.42311 0.69390
 H2429 H 0.26337 0.44686 0.71412
 H2430 H 0.32613 0.43908 0.72291
 H2431 H 0.27812 0.39999 0.67958
 H2432 H 0.31069 0.46173 0.73808
 C2433 C 0.32489 0.91069 0.20872
 C2434 C 0.32139 0.90813 0.19121
 C2435 C 0.31024 0.91935 0.18267
 C2436 C 0.30223 0.93257 0.19159
 C2437 C 0.30546 0.93472 0.20931
 C2438 C 0.31698 0.92386 0.21769
 C2439 C 0.29687 0.94749 0.21839
 C2440 C 0.28506 0.95805 0.20995
 C2441 C 0.28222 0.95612 0.19229
 C2442 C 0.29075 0.94346 0.18315
 H2443 H 0.30762 0.91772 0.16911
 H2444 H 0.31965 0.92536 0.23126
 H2445 H 0.29907 0.94906 0.23204
 H2446 H 0.28817 0.94203 0.16956
 H2447 H 0.33335 0.90224 0.21567
 H2448 H 0.27315 0.96424 0.18568
 C2449 C 0.80585 0.41976 0.16822
 C2450 C 0.81528 0.40910 0.17921
 C2451 C 0.81613 0.41299 0.19680
 C2452 C 0.80725 0.42699 0.20341
 C2453 C 0.79760 0.43747 0.19227
 C2454 C 0.79716 0.43386 0.17467
 C2455 C 0.78822 0.45113 0.19898
 C2456 C 0.78818 0.45421 0.21670
 C2457 C 0.79795 0.44391 0.22767
 C2458 C 0.80750 0.43044 0.22107
 H2459 H 0.82319 0.40483 0.20548
 H2460 H 0.78987 0.44178 0.16594
 H2461 H 0.78056 0.45906 0.19056
 H2462 H 0.81481 0.42255 0.22980
 H2463 H 0.80512 0.41720 0.15460
 H2464 H 0.79794 0.44620 0.24137
 C2465 C 0.79206 0.91472 0.67838
 C2466 C 0.80565 0.90688 0.68728
 C2467 C 0.81023 0.91298 0.70360
 C2468 C 0.80120 0.92646 0.71105
 C2469 C 0.78746 0.93413 0.70203
 C2470 C 0.78308 0.92824 0.68566
 C2471 C 0.77822 0.94740 0.70965
 C2472 C 0.78250 0.95296 0.72617
 C2473 C 0.79619 0.94538 0.73502
 C2474 C 0.80552 0.93225 0.72750
 H2475 H 0.82054 0.90703 0.71074
 H2476 H 0.77263 0.93399 0.67855
 H2477 H 0.76758 0.95327 0.70289
 H2478 H 0.81600 0.92651 0.73460
 H2479 H 0.78834 0.91045 0.66573
 H2480 H 0.79954 0.94961 0.74781
 C2481 C 0.71145 0.59473 0.68879
 C2482 C 0.69353 0.59625 0.69046
 C2483 C 0.68469 0.58453 0.70069
 C2484 C 0.69358 0.57155 0.70921
 C2485 C 0.71163 0.57030 0.70762
 C2486 C 0.72042 0.58191 0.69733
 C2487 C 0.72055 0.55750 0.71640
 C2488 C 0.71161 0.54593 0.72665
 C2489 C 0.69370 0.54707 0.72797
 C2490 C 0.68474 0.55982 0.71934
 H2491 H 0.67087 0.58536 0.70193
 H2492 H 0.73424 0.58113 0.69597
 H2493 H 0.73439 0.55652 0.71536
 H2494 H 0.67091 0.56055 0.72064
 H2495 H 0.71861 0.60361 0.68108
 H2496 H 0.68671 0.53816 0.73582
 C2497 C 0.69223 0.09466 0.20860
 C2498 C 0.69372 0.09637 0.19068
 C2499 C 0.70359 0.08449 0.18151
 C2500 C 0.71187 0.07115 0.19014
 C2501 C 0.71034 0.06972 0.20817
 C2502 C 0.70046 0.08150 0.21725
 C2503 C 0.71884 0.05663 0.21686
 C2504 C 0.72889 0.04494 0.20778
 C2505 C 0.73017 0.04622 0.18987
 C2506 C 0.72173 0.05925 0.18109
 H2507 H 0.70476 0.08553 0.16769
 H2508 H 0.69918 0.08059 0.23107
 H2509 H 0.71783 0.05558 0.23071
 H2510 H 0.72303 0.06009 0.16727
 H2511 H 0.68491 0.10366 0.21607
 H2512 H 0.73790 0.03725 0.18274
 C2513 C 0.20347 0.58045 0.17397
 C2514 C 0.19158 0.58912 0.18432
 C2515 C 0.18871 0.58354 0.20121
 C2516 C 0.19814 0.56990 0.20790
 C2517 C 0.21028 0.56146 0.19743
 C2518 C 0.21266 0.56668 0.18043
 C2519 C 0.22018 0.54826 0.20429
 C2520 C 0.21828 0.54362 0.22154
 C2521 C 0.20610 0.55186 0.23184
 C2522 C 0.19600 0.56486 0.22503
 H2523 H 0.17970 0.59021 0.20938
 H2524 H 0.22188 0.56033 0.17222
 H2525 H 0.22970 0.54189 0.19643
 H2526 H 0.18678 0.57119 0.23325
 H2527 H 0.20576 0.58438 0.16086
 H2528 H 0.20461 0.54835 0.24519
 C2529 C 0.21419 0.09623 0.69450
 C2530 C 0.19615 0.09691 0.69397
 C2531 C 0.18671 0.08415 0.70220
 C2532 C 0.19518 0.07094 0.71084
 C2533 C 0.21332 0.07054 0.71136
 C2534 C 0.22268 0.08321 0.70314
 C2535 C 0.22180 0.05749 0.72013
 C2536 C 0.21240 0.04482 0.72839
 C2537 C 0.19442 0.04513 0.72768
 C2538 C 0.18584 0.05812 0.71898
 H2539 H 0.17281 0.08439 0.70179
 H2540 H 0.23659 0.08309 0.70342
 H2541 H 0.23571 0.05718 0.72063
 H2542 H 0.17194 0.05818 0.71868
 H2543 H 0.22183 0.10592 0.68845
 H2544 H 0.18705 0.03537 0.73399
 C2545 C 0.28831 0.59201 0.31681
 C2546 C 0.30534 0.59581 0.31229
 C2547 C 0.31392 0.58542 0.30039
 C2548 C 0.30551 0.57165 0.29286
 C2549 C 0.28827 0.56822 0.29725
 C2550 C 0.27985 0.57838 0.30934
 C2551 C 0.27964 0.55487 0.28926
 C2552 C 0.28806 0.54491 0.27696
 C2553 C 0.30528 0.54809 0.27295
 C2554 C 0.31397 0.56139 0.28084
 H2555 H 0.32710 0.58806 0.29692
 H2556 H 0.26664 0.57591 0.31286
 H2557 H 0.26632 0.55235 0.29234
 H2558 H 0.32719 0.56378 0.27736
 H2559 H 0.28131 0.59982 0.32582
 H2560 H 0.31187 0.54045 0.26347
 C2561 C 0.30891 0.09446 0.78994
 C2562 C 0.30771 0.09659 0.80782
 C2563 C 0.29808 0.08500 0.81749
 C2564 C 0.28980 0.07145 0.80937
 C2565 C 0.29105 0.06961 0.79135
 C2566 C 0.30064 0.08114 0.78179
 C2567 C 0.28262 0.05632 0.78315
 C2568 C 0.27296 0.04477 0.79267
 C2569 C 0.27191 0.04643 0.81056
 C2570 C 0.28025 0.05972 0.81888
 H2571 H 0.29715 0.08641 0.83130
 H2572 H 0.30169 0.07990 0.76797
 H2573 H 0.28345 0.05495 0.76932
 H2574 H 0.27919 0.06087 0.83270
 H2575 H 0.31601 0.10327 0.78211
 H2576 H 0.26449 0.03753 0.81802
 C2577 C 0.81351 0.58917 0.79296
 C2578 C 0.80964 0.59306 0.81014
 C2579 C 0.79718 0.58351 0.81882
 C2580 C 0.78857 0.57039 0.81039
 C2581 C 0.79242 0.56680 0.79303
 C2582 C 0.80495 0.57619 0.78448
 C2583 C 0.78356 0.55398 0.78446
 C2584 C 0.77099 0.54464 0.79305
 C2585 C 0.76738 0.54801 0.81034
 C2586 C 0.77610 0.56084 0.81897
 H2587 H 0.79418 0.58626 0.83211
 H2588 H 0.80805 0.57360 0.77117
 H2589 H 0.78633 0.55128 0.77110
 H2590 H 0.77302 0.56336 0.83229
 H2591 H 0.82289 0.59637 0.78587
 H2592 H 0.75768 0.54082 0.81705
 C2593 C 0.78953 0.09122 0.31300
 C2594 C 0.80660 0.09528 0.30891
 C2595 C 0.81549 0.08527 0.29690
 C2596 C 0.80737 0.07161 0.28886
 C2597 C 0.79007 0.06792 0.29280
 C2598 C 0.78133 0.07771 0.30499
 C2599 C 0.78175 0.05467 0.28431
 C2600 C 0.79054 0.04503 0.27202
 C2601 C 0.80779 0.04849 0.26841
 C2602 C 0.81616 0.06171 0.27676
 H2603 H 0.82872 0.08808 0.29377
 H2604 H 0.76809 0.07504 0.30819
 H2605 H 0.76840 0.05194 0.28706
 H2606 H 0.82943 0.06431 0.27361
 H2607 H 0.78231 0.09874 0.32209
 H2608 H 0.81465 0.04112 0.25891
 C2609 C 0.71825 0.40474 0.30730
 C2610 C 0.70035 0.40319 0.30550
 C2611 C 0.69139 0.41519 0.29557
 C2612 C 0.70017 0.42844 0.28749
 C2613 C 0.71816 0.42973 0.28939
 C2614 C 0.72705 0.41788 0.29935
 C2615 C 0.72700 0.44278 0.28116
 C2616 C 0.71812 0.45450 0.27093
 C2617 C 0.70025 0.45330 0.26922
 C2618 C 0.69131 0.44036 0.27746
 H2619 H 0.67760 0.41432 0.29410
 H2620 H 0.74085 0.41869 0.30090
 H2621 H 0.74081 0.44379 0.28253
 H2622 H 0.67752 0.43959 0.27588
 H2623 H 0.72562 0.39571 0.31471
 H2624 H 0.69327 0.46230 0.26137
 C2625 C 0.70237 0.91425 0.82757
 C2626 C 0.68864 0.90749 0.81813
 C2627 C 0.68390 0.91509 0.80250
 C2628 C 0.69325 0.92879 0.79602
 C2629 C 0.70731 0.93517 0.80546
 C2630 C 0.71158 0.92799 0.82133
 C2631 C 0.71716 0.94831 0.79866
 C2632 C 0.71325 0.95501 0.78248
 C2633 C 0.69911 0.94892 0.77328
 C2634 C 0.68912 0.93591 0.78004
 H2635 H 0.67342 0.90996 0.79503
 H2636 H 0.72225 0.93279 0.82876
 H2637 H 0.72815 0.95305 0.80568
 H2638 H 0.67839 0.93120 0.77262
 H2639 H 0.70612 0.90883 0.83977
 H2640 H 0.69604 0.95404 0.76075
 C2641 C 0.18792 0.40268 0.78751
 C2642 C 0.18885 0.40127 0.80549
 C2643 C 0.19787 0.41357 0.81482
 C2644 C 0.20585 0.42706 0.80631
 C2645 C 0.20492 0.42821 0.78822
 C2646 C 0.19591 0.41598 0.77896
 C2647 C 0.21311 0.44150 0.77966
 C2648 C 0.22223 0.45367 0.78896
 C2649 C 0.22291 0.45264 0.80692
 C2650 C 0.21481 0.43941 0.81555
 H2651 H 0.19857 0.41277 0.82869
 H2652 H 0.19509 0.41666 0.76509
 H2653 H 0.21256 0.44236 0.76578
 H2654 H 0.21563 0.43878 0.82942
 H2655 H 0.18124 0.39335 0.77995
 H2656 H 0.22993 0.46197 0.81421
 C2657 C 0.17911 0.92114 0.29515
 C2658 C 0.19007 0.91085 0.30504
 C2659 C 0.20756 0.91500 0.30622
 C2660 C 0.21412 0.92887 0.29717
 C2661 C 0.20300 0.93894 0.28704
 C2662 C 0.18549 0.93509 0.28630
 C2663 C 0.20964 0.95245 0.27752
 C2664 C 0.22729 0.95584 0.27782
 C2665 C 0.23823 0.94596 0.28806
 C2666 C 0.23169 0.93260 0.29774
 H2667 H 0.21620 0.90713 0.31367
 H2668 H 0.17678 0.94270 0.27865
 H2669 H 0.20123 0.96007 0.26954
 H2670 H 0.24041 0.92503 0.30541
 H2671 H 0.16555 0.91839 0.29418
 H2672 H 0.25188 0.94849 0.28837
 C2673 C 0.40828 0.31654 0.70942
 C2674 C 0.40552 0.31415 0.69175
 C2675 C 0.41688 0.30370 0.68250
 C2676 C 0.43044 0.29537 0.69086
 C2677 C 0.43280 0.29757 0.70872
 C2678 C 0.42178 0.30833 0.71783
 C2679 C 0.44592 0.28873 0.71720
 C2680 C 0.45662 0.27763 0.70808
 C2681 C 0.45451 0.27580 0.69030
 C2682 C 0.44150 0.28462 0.68173
 H2683 H 0.41511 0.30189 0.66884
 H2684 H 0.42343 0.31018 0.73151
 H2685 H 0.44764 0.29016 0.73094
 H2686 H 0.43993 0.28283 0.66804
 H2687 H 0.39976 0.32442 0.71693
 H2688 H 0.46273 0.26728 0.68315
 C2689 C 0.41062 0.78522 0.18609
 C2690 C 0.40848 0.80263 0.18884
 C2691 C 0.41991 0.81102 0.19986
 C2692 C 0.43309 0.80214 0.20824
 C2693 C 0.43491 0.78457 0.20565
 C2694 C 0.42368 0.77626 0.19445
 C2695 C 0.44782 0.77562 0.21441
 C2696 C 0.45893 0.78407 0.22567
 C2697 C 0.45724 0.80155 0.22794
 C2698 C 0.44440 0.81053 0.21931
 H2699 H 0.41862 0.82448 0.20193
 H2700 H 0.42491 0.76281 0.19228
 H2701 H 0.44919 0.76212 0.21265
 H2702 H 0.44322 0.82400 0.22140
 H2703 H 0.40196 0.77843 0.17774
 H2704 H 0.46575 0.80817 0.23659
 C2705 C 0.90785 0.28824 0.19157
 C2706 C 0.90556 0.30577 0.19336
 C2707 C 0.91668 0.31479 0.20419
 C2708 C 0.92998 0.30641 0.21299
 C2709 C 0.93206 0.28877 0.21107
 C2710 C 0.92093 0.27983 0.20036
 C2711 C 0.94523 0.28035 0.21990
 C2712 C 0.95641 0.28931 0.23059
 C2713 C 0.95444 0.30683 0.23235
 C2714 C 0.94128 0.31533 0.22364
 H2715 H 0.91516 0.32831 0.20559
 H2716 H 0.92233 0.26630 0.19879
 H2717 H 0.94683 0.26682 0.21852
 H2718 H 0.93993 0.32885 0.22524
 H2719 H 0.89938 0.28091 0.18352
 H2720 H 0.96303 0.31385 0.24058
 C2721 C 0.91397 0.82187 0.70811
 C2722 C 0.90779 0.81461 0.69283
 C2723 C 0.91575 0.79985 0.68659
 C2724 C 0.92942 0.79232 0.69559
 C2725 C 0.93532 0.79967 0.71102
 C2726 C 0.92758 0.81448 0.71710
 C2727 C 0.94870 0.79196 0.72024
 C2728 C 0.95615 0.77693 0.71427
 C2729 C 0.95043 0.76979 0.69885
 C2730 C 0.93716 0.77744 0.68954
 H2731 H 0.91120 0.79399 0.67491
 H2732 H 0.93198 0.82030 0.72887
 H2733 H 0.95316 0.79742 0.73218
 H2734 H 0.93284 0.77164 0.67773
 H2735 H 0.90834 0.83330 0.71322
 H2736 H 0.95613 0.75819 0.69416
 C2737 C 0.59692 0.31299 0.29006
 C2738 C 0.59886 0.31159 0.30795
 C2739 C 0.58744 0.30135 0.31722
 C2740 C 0.57435 0.29256 0.30875
 C2741 C 0.57267 0.29393 0.29073
 C2742 C 0.58397 0.30422 0.28152
 C2743 C 0.55977 0.28492 0.28222
 C2744 C 0.54850 0.27465 0.29154
 C2745 C 0.55007 0.27351 0.30943
 C2746 C 0.56294 0.28237 0.31799
 H2747 H 0.58863 0.30028 0.33103
 H2748 H 0.58286 0.30541 0.26770
 H2749 H 0.55846 0.28583 0.26839
 H2750 H 0.56400 0.28122 0.33182
 H2751 H 0.60558 0.32066 0.28255
 H2752 H 0.54140 0.26562 0.31672
 C2753 C 0.57780 0.82455 0.79849
 C2754 C 0.58709 0.81499 0.81058
 C2755 C 0.58217 0.79822 0.81377
 C2756 C 0.56844 0.79100 0.80474
 C2757 C 0.55931 0.80073 0.79251
 C2758 C 0.56401 0.81752 0.78959
 C2759 C 0.54584 0.79340 0.78321
 C2760 C 0.54159 0.77643 0.78584
 C2761 C 0.55060 0.76686 0.79804
 C2762 C 0.56389 0.77411 0.80751
 H2763 H 0.58927 0.79060 0.82291
 H2764 H 0.55713 0.82517 0.78030
 H2765 H 0.53890 0.80072 0.77368
 H2766 H 0.57076 0.76645 0.81680
 H2767 H 0.58115 0.83754 0.79589
 H2768 H 0.54741 0.75373 0.80009
 C2769 C 0.08374 0.29113 0.81737
 C2770 C 0.09182 0.30429 0.80840
 C2771 C 0.08554 0.30891 0.79210
 C2772 C 0.07173 0.30022 0.78472
 C2773 C 0.06397 0.28680 0.79378
 C2774 C 0.06997 0.28247 0.81014
 C2775 C 0.05051 0.27778 0.78623
 C2776 C 0.04471 0.28202 0.76974
 C2777 C 0.05229 0.29544 0.76085
 C2778 C 0.06571 0.30451 0.76829
 H2779 H 0.09162 0.31896 0.78495
 H2780 H 0.06411 0.27229 0.81730
 H2781 H 0.04466 0.26733 0.79301
 H2782 H 0.07149 0.31474 0.76114
 H2783 H 0.08804 0.28741 0.83003
 H2784 H 0.04792 0.29873 0.74807
 C2785 C 0.08555 0.82436 0.29425
 C2786 C 0.09389 0.81608 0.30793
 C2787 C 0.08764 0.80037 0.31348
 C2788 C 0.07363 0.79283 0.30518
 C2789 C 0.06565 0.80116 0.29121
 C2790 C 0.07158 0.81698 0.28599
 C2791 C 0.05208 0.79338 0.28250
 C2792 C 0.04644 0.77737 0.28755
 C2793 C 0.05418 0.76924 0.30156
 C2794 C 0.06769 0.77693 0.31036
 H2795 H 0.09390 0.79375 0.32393
 H2796 H 0.06554 0.82358 0.27538
 H2797 H 0.04608 0.79957 0.27161
 H2798 H 0.07363 0.77035 0.32103
 H2799 H 0.08983 0.83657 0.28982
 H2800 H 0.04992 0.75684 0.30549
 C2801 C 0.58993 0.68191 0.71268
 C2802 C 0.59198 0.68590 0.69521
 C2803 C 0.58069 0.69759 0.68756
 C2804 C 0.56760 0.70526 0.69721
 C2805 C 0.56581 0.70130 0.71482
 C2806 C 0.57700 0.68958 0.72241
 C2807 C 0.55292 0.70921 0.72453
 C2808 C 0.54177 0.72093 0.71681
 C2809 C 0.54346 0.72463 0.69930
 C2810 C 0.55631 0.71689 0.68955
 H2811 H 0.58195 0.70063 0.67406
 H2812 H 0.57582 0.68641 0.73589
 H2813 H 0.55154 0.70634 0.73808
 H2814 H 0.55745 0.72002 0.67606
 H2815 H 0.59851 0.67306 0.71896
 H2816 H 0.53488 0.73365 0.69324
 C2817 C 0.59711 0.21336 0.19079
 C2818 C 0.59934 0.19581 0.19239
 C2819 C 0.58784 0.18664 0.20270
 C2820 C 0.57451 0.19491 0.21148
 C2821 C 0.57260 0.21259 0.20994
 C2822 C 0.58388 0.22167 0.19949
 C2823 C 0.55953 0.22092 0.21901
 C2824 C 0.54836 0.21179 0.22958
 C2825 C 0.55013 0.19422 0.23087
 C2826 C 0.56313 0.18582 0.22189
 H2827 H 0.58922 0.17309 0.20393
 H2828 H 0.58258 0.23523 0.19816
 H2829 H 0.55808 0.23450 0.21798
 H2830 H 0.56437 0.17226 0.22319
 H2831 H 0.60577 0.22081 0.18307
 H2832 H 0.54154 0.18707 0.23899
 C2833 C 0.08714 0.67795 0.20953
 C2834 C 0.09346 0.68544 0.19442
 C2835 C 0.08588 0.70057 0.18860
 C2836 C 0.07245 0.70820 0.19784
 C2837 C 0.06644 0.70063 0.21312
 C2838 C 0.07380 0.68547 0.21878
 C2839 C 0.05330 0.70842 0.22257
 C2840 C 0.04611 0.72369 0.21692
 C2841 C 0.05192 0.73107 0.20165
 C2842 C 0.06502 0.72339 0.19216
 H2843 H 0.09050 0.70660 0.17703
 H2844 H 0.06929 0.67945 0.23042
 H2845 H 0.04875 0.70277 0.23440
 H2846 H 0.06943 0.72937 0.18046
 H2847 H 0.09246 0.66625 0.21435
 H2848 H 0.04642 0.74288 0.19722
 C2849 C 0.08727 0.20313 0.67181
 C2850 C 0.09229 0.18789 0.67969
 C2851 C 0.08352 0.18249 0.69448
 C2852 C 0.07010 0.19223 0.70139
 C2853 C 0.06535 0.20761 0.69344
 C2854 C 0.07396 0.21289 0.67863
 C2855 C 0.05221 0.21755 0.70056
 C2856 C 0.04379 0.21226 0.71550
 C2857 C 0.04835 0.19690 0.72321
 C2858 C 0.06142 0.18693 0.71622
 H2859 H 0.08710 0.17073 0.70063
 H2860 H 0.07050 0.22466 0.67240
 H2861 H 0.04865 0.22946 0.69466
 H2862 H 0.06487 0.17518 0.72248
 H2863 H 0.09381 0.20774 0.66052
 H2864 H 0.04190 0.19277 0.73478
 C2865 C 0.40784 0.68524 0.28784
 C2866 C 0.40518 0.68813 0.30545
 C2867 C 0.41694 0.69819 0.31449
 C2868 C 0.43088 0.70561 0.30600
 C2869 C 0.43314 0.70297 0.28819
 C2870 C 0.42166 0.69262 0.27928
 C2871 C 0.44666 0.71096 0.27956
 C2872 C 0.45793 0.72153 0.28854
 C2873 C 0.45590 0.72375 0.30628
 C2874 C 0.44246 0.71586 0.31496
 H2875 H 0.41521 0.70035 0.32812
 H2876 H 0.42323 0.69043 0.26564
 H2877 H 0.44830 0.70924 0.26585
 H2878 H 0.44097 0.71796 0.32862
 H2879 H 0.39898 0.67763 0.28051
 H2880 H 0.46453 0.73188 0.31331
 C2881 C 0.41915 0.17417 0.79476
 C2882 C 0.40927 0.18527 0.80483
 C2883 C 0.41385 0.20239 0.80562
 C2884 C 0.42773 0.20845 0.79599
 C2885 C 0.43740 0.19720 0.78569
 C2886 C 0.43314 0.18006 0.78535
 C2887 C 0.45092 0.20335 0.77562
 C2888 C 0.45471 0.22062 0.77557
 C2889 C 0.44520 0.23170 0.78594
 C2890 C 0.43184 0.22565 0.79615
 H2891 H 0.40626 0.21112 0.81319
 H2892 H 0.44044 0.17126 0.77757
 H2893 H 0.45826 0.19483 0.76754
 H2894 H 0.42457 0.23446 0.80395
 H2895 H 0.41602 0.16090 0.79409
 H2896 H 0.44807 0.24505 0.78598
 C2897 C 0.91094 0.68256 0.78926
 C2898 C 0.90707 0.68776 0.80610
 C2899 C 0.91692 0.70063 0.81362
 C2900 C 0.93029 0.70828 0.80441
 C2901 C 0.93389 0.70298 0.78745
 C2902 C 0.92420 0.69008 0.78005
 C2903 C 0.94702 0.71077 0.77812
 C2904 C 0.95655 0.72385 0.78548
 C2905 C 0.95312 0.72895 0.80237
 C2906 C 0.94006 0.72122 0.81179
 H2907 H 0.91425 0.70473 0.82660
 H2908 H 0.92678 0.68589 0.76706
 H2909 H 0.94975 0.70684 0.76506
 H2910 H 0.93752 0.72544 0.82477
 H2911 H 0.90357 0.67282 0.78300
 H2912 H 0.96044 0.73905 0.80814
 C2913 C 0.90820 0.18691 0.28773
 C2914 C 0.90582 0.18857 0.30554
 C2915 C 0.91754 0.19826 0.31506
 C2916 C 0.93113 0.20655 0.30686
 C2917 C 0.93309 0.20517 0.28887
 C2918 C 0.92169 0.19516 0.27947
 C2919 C 0.94626 0.21403 0.28059
 C2920 C 0.95748 0.22420 0.29010
 C2921 C 0.95573 0.22520 0.30798
 C2922 C 0.94263 0.21645 0.31632
 H2923 H 0.91605 0.19947 0.32883
 H2924 H 0.92304 0.19392 0.26568
 H2925 H 0.94770 0.21324 0.26677
 H2926 H 0.94136 0.21760 0.33012
 H2927 H 0.89936 0.17962 0.28006
 H2928 H 0.96435 0.23300 0.31541
 C2929 C 0.31292 0.29241 0.58920
 C2930 C 0.30741 0.30863 0.59410
 C2931 C 0.29397 0.31643 0.58495
 C2932 C 0.28594 0.30806 0.57131
 C2933 C 0.29137 0.29162 0.56673
 C2934 C 0.30494 0.28396 0.57567
 C2935 C 0.28305 0.28308 0.55338
 C2936 C 0.26947 0.29085 0.54452
 C2937 C 0.26430 0.30724 0.54891
 C2938 C 0.27246 0.31580 0.56225
 H2939 H 0.28973 0.32901 0.58841
 H2940 H 0.30929 0.27139 0.57230
 H2941 H 0.28700 0.27040 0.54988
 H2942 H 0.26817 0.32841 0.56555
 H2943 H 0.32316 0.28605 0.59606
 H2944 H 0.25383 0.31330 0.54209
 C2945 C 0.30090 0.82812 0.08006
 C2946 C 0.31005 0.81666 0.09043
 C2947 C 0.30935 0.79934 0.08665
 C2948 C 0.29915 0.79350 0.07305
 C2949 C 0.28984 0.80516 0.06284
 C2950 C 0.29098 0.82244 0.06633
 C2951 C 0.27930 0.79932 0.04954
 C2952 C 0.27774 0.78197 0.04650
 C2953 C 0.28708 0.77045 0.05657
 C2954 C 0.29778 0.77617 0.06970
 H2955 H 0.31621 0.79037 0.09465
 H2956 H 0.28398 0.83155 0.05862
 H2957 H 0.27201 0.80818 0.04177
 H2958 H 0.30478 0.76705 0.07739
 H2959 H 0.30139 0.84154 0.08256
 H2960 H 0.28595 0.75703 0.05428
 C2961 C 0.82745 0.29406 0.07916
 C2962 C 0.81819 0.30729 0.08691
 C2963 C 0.80199 0.31176 0.08027
 C2964 C 0.79490 0.30274 0.06651
 C2965 C 0.80421 0.28922 0.05911
 C2966 C 0.82055 0.28513 0.06538
 C2967 C 0.79687 0.27977 0.04583
 C2968 C 0.78030 0.28361 0.03995
 C2969 C 0.77121 0.29719 0.04708
 C2970 C 0.77847 0.30675 0.06026
 H2971 H 0.79463 0.32184 0.08614
 H2972 H 0.82789 0.27487 0.05980
 H2973 H 0.80382 0.26921 0.04029
 H2974 H 0.77114 0.31707 0.06576
 H2975 H 0.84006 0.29049 0.08378
 H2976 H 0.75838 0.30019 0.04262
 C2977 C 0.81971 0.79231 0.58792
 C2978 C 0.81290 0.80792 0.59321
 C2979 C 0.79854 0.81460 0.58457
 C2980 C 0.79089 0.80571 0.57104
 C2981 C 0.79763 0.78984 0.56608
 C2982 C 0.81211 0.78332 0.57452
 C2983 C 0.78964 0.78071 0.55291
 C2984 C 0.77510 0.78734 0.54462
 C2985 C 0.76867 0.80320 0.54937
 C2986 C 0.77650 0.81234 0.56251
 H2987 H 0.79328 0.82673 0.58832
 H2988 H 0.81747 0.77120 0.57086
 H2989 H 0.79454 0.76842 0.54919
 H2990 H 0.77120 0.82449 0.56611
 H2991 H 0.83070 0.78683 0.59440
 H2992 H 0.75743 0.80837 0.54304
 C2993 C 0.31230 0.71397 0.40789
 C2994 C 0.30911 0.69672 0.40526
 C2995 C 0.29799 0.68823 0.41653
 C2996 C 0.28992 0.69690 0.43003
 C2997 C 0.29294 0.71434 0.43229
 C2998 C 0.30426 0.72270 0.42125
 C2999 C 0.28441 0.72314 0.44540
 C3000 C 0.27296 0.71471 0.45629
 C3001 C 0.27030 0.69735 0.45424
 C3002 C 0.27870 0.68849 0.44118
 H3003 H 0.29557 0.67489 0.41482
 H3004 H 0.30675 0.73605 0.42282
 H3005 H 0.28647 0.73656 0.44706
 H3006 H 0.27629 0.67512 0.43969
 H3007 H 0.32069 0.72087 0.39937
 H3008 H 0.26150 0.69074 0.46260
 C3009 C 0.31552 0.21365 0.90566
 C3010 C 0.31219 0.19638 0.90324
 C3011 C 0.30115 0.18811 0.91477
 C3012 C 0.29338 0.19699 0.92832
 C3013 C 0.29670 0.21439 0.93043
 C3014 C 0.30786 0.22255 0.91911
 C3015 C 0.28862 0.22338 0.94368
 C3016 C 0.27717 0.21523 0.95479
 C3017 C 0.27415 0.19790 0.95285
 C3018 C 0.28220 0.18883 0.93971
 H3019 H 0.29856 0.17479 0.91324
 H3020 H 0.31053 0.23588 0.92053
 H3021 H 0.29099 0.23676 0.94525
 H3022 H 0.27954 0.17550 0.93834
 H3023 H 0.32382 0.22046 0.89698
 H3024 H 0.26536 0.19148 0.96138
 C3025 C 0.81367 0.70844 0.90956
 C3026 C 0.81010 0.69143 0.90603
 C3027 C 0.79807 0.68288 0.91627
 C3028 C 0.78954 0.69126 0.92966
 C3029 C 0.79301 0.70847 0.93286
 C3030 C 0.80517 0.71690 0.92282
 C3031 C 0.78413 0.71698 0.94594
 C3032 C 0.77195 0.70845 0.95589
 C3033 C 0.76875 0.69133 0.95288
 C3034 C 0.77746 0.68278 0.93982
 H3035 H 0.79534 0.66971 0.91386
 H3036 H 0.80800 0.73007 0.92512
 H3037 H 0.78656 0.73023 0.94834
 H3038 H 0.77468 0.66959 0.93758
 H3039 H 0.82276 0.71539 0.90184
 H3040 H 0.75935 0.68468 0.96053
 C3041 C 0.81469 0.21060 0.40868
 C3042 C 0.81062 0.19361 0.40555
 C3043 C 0.79904 0.18539 0.41655
 C3044 C 0.79146 0.19408 0.43034
 C3045 C 0.79545 0.21126 0.43312
 C3046 C 0.80715 0.21934 0.42229
 C3047 C 0.78749 0.22012 0.44652
 C3048 C 0.77565 0.21202 0.45722
 C3049 C 0.77197 0.19491 0.45468
 C3050 C 0.77982 0.18598 0.44131
 H3051 H 0.79591 0.17226 0.41442
 H3052 H 0.81035 0.23249 0.42425
 H3053 H 0.79026 0.23337 0.44853
 H3054 H 0.77664 0.17283 0.43943
 H3055 H 0.82342 0.21734 0.40037
 H3056 H 0.76280 0.18859 0.46287
 C3057 C 0.71557 0.30703 0.40326
 C3058 C 0.69753 0.30759 0.40237
 C3059 C 0.68792 0.29964 0.41534
 C3060 C 0.69621 0.29122 0.42891
 C3061 C 0.71434 0.29076 0.42956
 C3062 C 0.72388 0.29872 0.41671
 C3063 C 0.72266 0.28228 0.44299
 C3064 C 0.71311 0.27413 0.45577
 C3065 C 0.69512 0.27468 0.45517
 C3066 C 0.68671 0.28319 0.44184
 H3067 H 0.67404 0.30001 0.41498
 H3068 H 0.73778 0.29844 0.41700
 H3069 H 0.73657 0.28189 0.44352
 H3070 H 0.67280 0.28341 0.44158
 H3071 H 0.72340 0.31284 0.39347
 H3072 H 0.68763 0.26843 0.46498
 C3073 C 0.70843 0.80134 0.90210
 C3074 C 0.69038 0.80178 0.90158
 C3075 C 0.68108 0.79362 0.91463
 C3076 C 0.68970 0.78530 0.92807
 C3077 C 0.70785 0.78510 0.92843
 C3078 C 0.71707 0.79311 0.91538
 C3079 C 0.71651 0.77684 0.94179
 C3080 C 0.70730 0.76861 0.95476
 C3081 C 0.68930 0.76889 0.95444
 C3082 C 0.68054 0.77720 0.94119
 H3083 H 0.66718 0.79390 0.91450
 H3084 H 0.73098 0.79299 0.91543
 H3085 H 0.73043 0.77668 0.94210
 H3086 H 0.66663 0.77722 0.94116
 H3087 H 0.71600 0.80726 0.89217
 H3088 H 0.68206 0.76258 0.96440
 C3089 C 0.17506 0.29633 0.91620
 C3090 C 0.18499 0.30841 0.90755
 C3091 C 0.20147 0.31224 0.91374
 C3092 C 0.20824 0.30350 0.92795
 C3093 C 0.19819 0.29114 0.93632
 C3094 C 0.18155 0.28787 0.93052
 C3095 C 0.20513 0.28190 0.95002
 C3096 C 0.22209 0.28458 0.95526
 C3097 C 0.23198 0.29696 0.94711
 C3098 C 0.22507 0.30646 0.93361
 H3099 H 0.20927 0.32144 0.90707
 H3100 H 0.17367 0.27848 0.93681
 H3101 H 0.19759 0.27221 0.95628
 H3102 H 0.23299 0.31582 0.92735
 H3103 H 0.16225 0.29333 0.91183
 H3104 H 0.24513 0.29905 0.95106
 C3105 C 0.21418 0.81474 0.40440
 C3106 C 0.19628 0.81363 0.40236
 C3107 C 0.18674 0.80435 0.41442
 C3108 C 0.19496 0.79609 0.42813
 C3109 C 0.21300 0.79709 0.42984
 C3110 C 0.22246 0.80653 0.41798
 C3111 C 0.22128 0.78846 0.44325
 C3112 C 0.21175 0.77884 0.45496
 C3113 C 0.19383 0.77815 0.45340
 C3114 C 0.18548 0.78671 0.44007
 H3115 H 0.17292 0.80352 0.41319
 H3116 H 0.23629 0.80744 0.41910
 H3117 H 0.23513 0.78902 0.44452
 H3118 H 0.17165 0.78584 0.43900
 H3119 H 0.22191 0.82167 0.39530
 H3120 H 0.18637 0.77076 0.46237
 C3121 C 0.67155 0.70123 0.58004
 C3122 C 0.68250 0.69133 0.59033
 C3123 C 0.70005 0.69033 0.58616
 C3124 C 0.70664 0.69948 0.57223
 C3125 C 0.69552 0.70957 0.56212
 C3126 C 0.67798 0.71021 0.56603
 C3127 C 0.70218 0.71913 0.54852
 C3128 C 0.71984 0.71890 0.54508
 C3129 C 0.73080 0.70872 0.55500
 C3130 C 0.72424 0.69902 0.56845
 H3131 H 0.70869 0.68287 0.59404
 H3132 H 0.66926 0.71782 0.55838
 H3133 H 0.69377 0.72709 0.54089
 H3134 H 0.73297 0.69138 0.57606
 H3135 H 0.65796 0.70207 0.58278
 H3136 H 0.74446 0.70849 0.55245
 C3137 C 0.68655 0.20817 0.08648
 C3138 C 0.69343 0.19284 0.09256
 C3139 C 0.70760 0.18566 0.08399
 C3140 C 0.71504 0.19392 0.06986
 C3141 C 0.70813 0.20949 0.06417
 C3142 C 0.69381 0.21640 0.07245
 C3143 C 0.71581 0.21804 0.05044
 C3144 C 0.73036 0.21129 0.04236
 C3145 C 0.73703 0.19571 0.04780
 C3146 C 0.72942 0.18706 0.06147
 H3147 H 0.71312 0.17389 0.08849
 H3148 H 0.68831 0.22827 0.06817
 H3149 H 0.71069 0.23009 0.04618
 H3150 H 0.73489 0.17514 0.06561
 H3151 H 0.67548 0.21392 0.09252
 H3152 H 0.74827 0.19041 0.04161
 C3153 C 0.20949 0.69204 0.09543
 C3154 C 0.19155 0.69312 0.09737
 C3155 C 0.18204 0.70301 0.08569
 C3156 C 0.19033 0.71169 0.07235
 C3157 C 0.20836 0.71044 0.07064
 C3158 C 0.21779 0.70058 0.08221
 C3159 C 0.21672 0.71920 0.05749
 C3160 C 0.20734 0.72939 0.04609
 C3161 C 0.18943 0.73046 0.04766
 C3162 C 0.18096 0.72165 0.06070
 H3163 H 0.16821 0.70391 0.08689
 H3164 H 0.23163 0.69955 0.08111
 H3165 H 0.23055 0.71830 0.05618
 H3166 H 0.16714 0.72273 0.06176
 H3167 H 0.21728 0.68475 0.10425
 H3168 H 0.18206 0.73826 0.03890
 C3169 C 0.21314 0.18945 0.59209
 C3170 C 0.19510 0.18880 0.59292
 C3171 C 0.18542 0.19736 0.58032
 C3172 C 0.19357 0.20669 0.56740
 C3173 C 0.21168 0.20739 0.56688
 C3174 C 0.22133 0.19863 0.57920
 C3175 C 0.21983 0.21699 0.55418
 C3176 C 0.21007 0.22602 0.54208
 C3177 C 0.19210 0.22513 0.54254
 C3178 C 0.18389 0.21551 0.55509
 H3179 H 0.17155 0.19697 0.58057
 H3180 H 0.23523 0.19902 0.57898
 H3181 H 0.23372 0.21763 0.55375
 H3182 H 0.17000 0.21510 0.55528
 H3183 H 0.22104 0.18304 0.60149
 H3184 H 0.18446 0.23204 0.53325
   
