data_POSCAR
  _audit_creation_date              2014-09-24
  _audit_creation_method            'ToBaCCo'
  _symmetry_space_group_name_H-M    'P1'
  _symmetry_Int_Tables_number       1
  _symmetry_cell_setting            triclinic
  loop_
  _symmetry_equiv_pos_as_xyz
 x,y,z
_cell_length_a 47.7938
_cell_length_b 47.7878
_cell_length_c 47.7778
_cell_angle_alpha 90.024500
_cell_angle_beta 90.036800
_cell_angle_gamma 89.995000
loop_
  _atom_site_label
  _atom_site_type_symbol
  _atom_site_fract_x
  _atom_site_fract_y
  _atom_site_fract_z
O1 O 0.27342 1.02740 0.02494
 O2 O 0.27290 0.97157 -0.02807
 O3 O 0.27255 1.02623 -0.02943
 O4 O 0.27300 0.97284 0.02612
 O5 O 0.22683 0.97295 0.02648
 O6 O 0.22638 1.02620 -0.02909
 O7 O 0.22680 0.97193 -0.02815
 O8 O 0.22725 1.02723 0.02560
 Cu9 Cu 0.27759 0.99954 -0.00167
 Cu10 Cu 0.22219 0.99960 -0.00126
 C11 C 0.25045 1.03676 0.03447
 C12 C 0.24980 0.96213 -0.03727
 C13 C 0.24937 1.03532 -0.03878
 C14 C 0.24996 0.96376 0.03579
 O15 O 0.77328 0.52734 0.52808
 O16 O 0.77348 0.47310 0.47347
 O17 O 0.77297 0.52777 0.47372
 O18 O 0.77287 0.47272 0.52779
 O19 O 0.72670 0.47291 0.52775
 O20 O 0.72681 0.52751 0.47343
 O21 O 0.72731 0.47316 0.47308
 O22 O 0.72711 0.52722 0.52814
 Cu23 Cu 0.77777 0.50024 0.50077
 Cu24 Cu 0.72236 0.50021 0.50058
 C25 C 0.75020 0.53652 0.53752
 C26 C 0.75047 0.46384 0.46392
 C27 C 0.74988 0.53701 0.46429
 C28 C 0.74973 0.46345 0.53705
 O29 O 0.72729 0.97356 1.02947
 O30 O 0.72693 1.02702 0.97408
 O31 O 0.72729 0.97273 0.97481
 O32 O 0.72773 1.02783 1.02877
 O33 O 0.77383 1.02798 1.02822
 O34 O 0.77345 0.97257 0.97471
 O35 O 0.77309 1.02718 0.97390
 O36 O 0.77338 0.97321 1.02900
 Cu37 Cu 0.72270 1.00030 1.00182
 Cu38 Cu 0.77806 1.00024 1.00146
 C39 C 0.75036 0.96408 1.03872
 C40 C 0.74993 1.03626 0.96451
 C41 C 0.75033 0.96320 0.96556
 C42 C 0.75088 1.03744 1.03775
 O43 O 0.22695 0.47327 0.52655
 O44 O 0.22687 0.52692 0.47144
 O45 O 0.22752 0.47265 0.47186
 O46 O 0.22717 0.52758 0.52604
 O47 O 0.27334 0.52787 0.52600
 O48 O 0.27369 0.47271 0.47222
 O49 O 0.27305 0.52732 0.47171
 O50 O 0.27313 0.47323 0.52658
 Cu51 Cu 0.22250 0.50007 0.49896
 Cu52 Cu 0.27793 0.50028 0.49915
 C53 C 0.25002 0.46406 0.53599
 C54 C 0.24991 0.53635 0.46219
 C55 C 0.25070 0.46330 0.46277
 C56 C 0.25022 0.53716 0.53523
 O57 O 1.02804 0.22717 0.02550
 O58 O 0.97178 0.22648 -0.02733
 O59 O 1.02652 0.22602 -0.02870
 O60 O 0.97368 0.22658 0.02720
 O61 O 0.97247 0.27271 0.02570
 O62 O 1.02688 0.27219 -0.02889
 O63 O 0.97269 0.27256 -0.02877
 O64 O 1.02698 0.27333 0.02573
 Cu65 Cu 0.99997 0.22192 -0.00082
 Cu66 Cu 0.99975 0.27732 -0.00158
 C67 C 1.03699 0.25043 0.03477
 C68 C 0.96272 0.24944 -0.03732
 C69 C 1.03593 0.24898 -0.03819
 C70 C 0.96393 0.24970 0.03593
 O71 O 0.52735 0.72654 0.52860
 O72 O 0.47298 0.72616 0.47391
 O73 O 0.52756 0.72593 0.47415
 O74 O 0.47311 0.72606 0.52865
 O75 O 0.47323 0.77224 0.52871
 O76 O 0.52655 0.77208 0.47299
 O77 O 0.47214 0.77232 0.47447
 O78 O 0.52791 0.77270 0.52754
 Cu79 Cu 0.50024 0.72154 0.50130
 Cu80 Cu 0.49999 0.77696 0.50093
 C81 C 0.53703 0.74972 0.53731
 C82 C 0.46312 0.74920 0.46499
 C83 C 0.53630 0.74896 0.46416
 C84 C 0.46396 0.74916 0.53811
 O85 O 0.02752 0.72695 -0.02672
 O86 O -0.02664 0.72734 0.02800
 O87 O -0.02707 0.72702 -0.02679
 O88 O 0.02757 0.72808 0.02765
 O89 O 0.02813 0.77421 0.02600
 O90 O -0.02838 0.77311 -0.02636
 O91 O -0.02655 0.77351 0.02784
 O92 O 0.02605 0.77299 -0.02859
 Cu93 Cu 0.00033 0.72273 0.00055
 Cu94 Cu -0.00017 0.77807 -0.00032
 C95 C 0.03603 0.74986 -0.03720
 C96 C -0.03571 0.75047 0.03745
 C97 C -0.03733 0.74990 -0.03576
 C98 C 0.03733 0.75136 0.03599
 O99 O 0.52779 0.22734 0.47221
 O100 O 0.47359 0.22691 0.52673
 O101 O 0.47312 0.22726 0.47224
 O102 O 0.52800 0.22781 0.52645
 O103 O 0.52672 0.27397 0.52711
 O104 O 0.47348 0.27343 0.47144
 O105 O 0.47218 0.27305 0.52582
 O106 O 0.52770 0.27352 0.47240
 Cu107 Cu 0.50064 0.22269 0.49939
 Cu108 Cu 0.50001 0.27813 0.49923
 C109 C 0.53713 0.25047 0.46307
 C110 C 0.46347 0.24987 0.53548
 C111 C 0.46404 0.25027 0.46245
 C112 C 0.53662 0.25101 0.53616
 O113 O 1.02788 0.02764 0.27271
 O114 O 0.97405 -0.02738 0.27372
 O115 O 1.02846 -0.02651 0.27227
 O116 O 0.97338 0.02741 0.27321
 O117 O 0.97228 0.02709 0.22704
 O118 O 1.02708 -0.02690 0.22611
 O119 O 0.97258 -0.02705 0.22763
 O120 O 1.02676 0.02788 0.22654
 Cu121 Cu 1.00096 0.00030 0.27761
 Cu122 Cu 0.99966 0.00024 0.22220
 C123 C 1.03660 0.03712 0.24948
 C124 C 0.96400 -0.03669 0.25090
 C125 C 1.03717 -0.03593 0.24898
 C126 C 0.96340 0.03645 0.25026
 O127 O 0.52646 0.52577 0.77469
 O128 O 0.47139 0.47212 0.77423
 O129 O 0.52583 0.47133 0.77391
 O130 O 0.47195 0.52658 0.77393
 O131 O 0.47083 0.52534 0.72778
 O132 O 0.52728 0.47295 0.72778
 O133 O 0.47285 0.47088 0.72808
 O134 O 0.52533 0.52738 0.72855
 Cu135 Cu 0.49889 0.49894 0.77882
 Cu136 Cu 0.49908 0.49917 0.72341
 C137 C 0.53515 0.53595 0.75175
 C138 C 0.46292 0.46207 0.75112
 C139 C 0.53600 0.46292 0.75081
 C140 C 0.46192 0.53515 0.75083
 O141 O 0.97064 1.02632 0.72659
 O142 O 1.02502 0.97185 0.72641
 O143 O 0.97065 0.97210 0.72788
 O144 O 1.02532 1.02641 0.72605
 O145 O 1.02554 1.02773 0.77222
 O146 O 0.97223 0.97229 0.77404
 O147 O 1.02677 0.97333 0.77253
 O148 O 0.97139 1.02706 0.77270
 Cu149 Cu 0.99785 0.99912 0.72211
 Cu150 Cu 0.99903 1.00012 0.77750
 C151 C 0.96159 1.03606 0.74963
 C152 C 1.03528 0.96333 0.74940
 C153 C 0.96221 0.96280 0.75131
 C154 C 1.03463 1.03649 0.74886
 O155 O 0.47293 0.52764 0.22650
 O156 O 0.52844 0.47442 0.22575
 O157 O 0.47375 0.47341 0.22645
 O158 O 0.52733 0.52895 0.22675
 O159 O 0.52845 0.52754 0.27290
 O160 O 0.47378 0.47330 0.27264
 O161 O 0.52801 0.47313 0.27192
 O162 O 0.47389 0.52800 0.27268
 Cu163 Cu 0.50063 0.50112 0.22173
 Cu164 Cu 0.50103 0.50049 0.27717
 C165 C 0.46401 0.53704 0.24969
 C166 C 0.53759 0.46452 0.24866
 C167 C 0.46451 0.46396 0.24953
 C168 C 0.53717 0.53762 0.24991
 O169 O 0.25056 0.17774 0.20981
 O170 O 0.28119 0.16959 0.24860
 O171 O 0.17792 0.21227 0.24799
 O172 O 0.16773 0.24811 0.27622
 O173 O 0.21301 0.25025 0.17513
 O174 O 0.25167 0.28117 0.16757
 O175 O 0.25238 0.28898 0.32081
 O176 O 0.21883 0.25325 0.32829
 O177 O 0.32281 0.25143 0.28759
 O178 O 0.33221 0.21998 0.24829
 O179 O 0.28952 0.32272 0.24907
 O180 O 0.25019 0.33187 0.21806
 O181 O 0.25154 0.32259 0.28718
 O182 O 0.21962 0.33087 0.24661
 O183 O 0.32306 0.28907 0.25039
 O184 O 0.33138 0.24874 0.21762
 O185 O 0.28907 0.25081 0.32106
 O186 O 0.24992 0.21927 0.32917
 O187 O 0.25261 0.21124 0.17608
 O188 O 0.28311 0.25053 0.16835
 O189 O 0.17905 0.25161 0.20842
 O190 O 0.17229 0.28388 0.24769
 O191 O 0.21134 0.17840 0.24922
 O192 O 0.25045 0.17023 0.27989
 Zr193 Zr 0.24948 0.20042 0.24757
 O194 O 0.27575 0.22426 0.27369
 Zr195 Zr 0.20073 0.24989 0.24677
 O196 O 0.22459 0.27567 0.27350
 Zr197 Zr 0.25051 0.24929 0.19821
 O198 O 0.27631 0.27559 0.22240
 Zr199 Zr 0.25135 0.25120 0.29836
 O200 O 0.22468 0.22509 0.27439
 Zr201 Zr 0.30073 0.25113 0.24952
 O202 O 0.27710 0.22451 0.22307
 Zr203 Zr 0.25164 0.30034 0.24913
 O204 O 0.22561 0.27661 0.22218
 O205 O 0.22400 0.22365 0.22114
 O206 O 0.27770 0.27744 0.27558
 C207 C 0.25215 0.18557 0.18411
 C208 C 0.18569 0.18653 0.24910
 C209 C 0.18726 0.25153 0.18279
 C210 C 0.25208 0.31466 0.31288
 C211 C 0.31478 0.25113 0.31324
 C212 C 0.31518 0.31477 0.24985
 H213 H 0.28726 0.21150 0.28518
 H214 H 0.28795 0.28713 0.20980
 H215 H 0.21209 0.21167 0.20914
 H216 H 0.21203 0.28714 0.28527
 H217 H 0.20427 0.23982 0.32221
 H218 H 0.17355 0.25918 0.29272
 H219 H 0.32868 0.26488 0.20495
 H220 H 0.29778 0.23755 0.17510
 H221 H 0.26451 0.20528 0.32476
 H222 H 0.23717 0.17669 0.29441
 H223 H 0.26386 0.32683 0.20338
 H224 H 0.23866 0.29597 0.17397
 H225 H 0.29628 0.17629 0.23610
 H226 H 0.32725 0.20544 0.26215
 H227 H 0.17810 0.29709 0.23283
 H228 H 0.20654 0.32769 0.26232
 O229 O 0.74966 0.82364 0.21218
 O230 O 0.71976 0.83198 0.25152
 O231 O 0.82318 0.78995 0.25390
 O232 O 0.83331 0.75318 0.28076
 O233 O 0.78997 0.75093 0.17897
 O234 O 0.75121 0.71999 0.17087
 O235 O 0.75035 0.71269 0.32371
 O236 O 0.78206 0.75120 0.33101
 O237 O 0.67803 0.75081 0.28924
 O238 O 0.66984 0.78247 0.24950
 O239 O 0.71178 0.67922 0.25221
 O240 O 0.75189 0.67038 0.22052
 O241 O 0.74872 0.67915 0.29004
 O242 O 0.78143 0.67047 0.25057
 O243 O 0.67826 0.71291 0.25100
 O244 O 0.67016 0.75312 0.21950
 O245 O 0.71126 0.74859 0.32318
 O246 O 0.74429 0.78110 0.33278
 O247 O 0.75149 0.79001 0.17852
 O248 O 0.72003 0.75140 0.17056
 O249 O 0.82332 0.75076 0.21295
 O250 O 0.82942 0.71848 0.25263
 O251 O 0.78981 0.82370 0.25040
 O252 O 0.75017 0.83248 0.28182
 Zr253 Zr 0.75176 0.80146 0.25022
 O254 O 0.72543 0.77752 0.27618
 Zr255 Zr 0.80071 0.75218 0.25085
 O256 O 0.77647 0.72611 0.27689
 Zr257 Zr 0.75202 0.75226 0.20114
 O258 O 0.72563 0.72618 0.22487
 Zr259 Zr 0.74928 0.75046 0.30122
 O260 O 0.77609 0.77708 0.27787
 Zr261 Zr 0.70073 0.75077 0.25150
 O262 O 0.72479 0.77714 0.22524
 Zr263 Zr 0.74978 0.70144 0.25207
 O264 O 0.77648 0.72518 0.22580
 O265 O 0.77791 0.77816 0.22453
 O266 O 0.72326 0.72435 0.27795
 C267 C 0.75011 0.81567 0.18647
 C268 C 0.81538 0.81568 0.25270
 C269 C 0.81559 0.75033 0.18715
 C270 C 0.74944 0.68702 0.31575
 C271 C 0.68567 0.74946 0.31500
 C272 C 0.68612 0.68720 0.25159
 H273 H 0.71403 0.79017 0.28794
 H274 H 0.71418 0.71466 0.21206
 H275 H 0.79000 0.79006 0.21267
 H276 H 0.78898 0.71471 0.28879
 H277 H 0.79407 0.76744 0.32639
 H278 H 0.82573 0.74511 0.29823
 H279 H 0.67432 0.73830 0.20565
 H280 H 0.70556 0.76485 0.17680
 H281 H 0.75345 0.79822 0.32577
 H282 H 0.76655 0.82959 0.29417
 H283 H 0.73696 0.67431 0.20673
 H284 H 0.76404 0.70522 0.17767
 H285 H 0.70483 0.82543 0.23872
 H286 H 0.67392 0.79624 0.26441
 H287 H 0.82388 0.70506 0.23784
 H288 H 0.79466 0.67418 0.26606
 O289 O 0.74888 0.17684 0.78895
 O290 O 0.71889 0.16873 0.74986
 O291 O 0.82241 0.21080 0.75043
 O292 O 0.83255 0.24654 0.72183
 O293 O 0.78801 0.24918 0.82331
 O294 O 0.74949 0.28040 0.83093
 O295 O 0.74951 0.28787 0.67773
 O296 O 0.78167 0.25122 0.67026
 O297 O 0.67771 0.25140 0.71130
 O298 O 0.66869 0.21886 0.75075
 O299 O 0.71125 0.32180 0.74892
 O300 O 0.75082 0.33068 0.78067
 O301 O 0.74840 0.32149 0.71136
 O302 O 0.78106 0.32993 0.75139
 O303 O 0.67758 0.28827 0.74990
 O304 O 0.66890 0.24790 0.78093
 O305 O 0.71138 0.25051 0.67774
 O306 O 0.74989 0.21820 0.66939
 O307 O 0.74922 0.21043 0.82271
 O308 O 0.71789 0.24939 0.83037
 O309 O 0.82183 0.25026 0.78985
 O310 O 0.82863 0.28232 0.75069
 O311 O 0.78874 0.17711 0.74932
 O312 O 0.74958 0.16912 0.71883
 Zr313 Zr 0.75075 0.19938 0.75110
 O314 O 0.72461 0.22338 0.72501
 Zr315 Zr 0.79989 0.24859 0.75163
 O316 O 0.77605 0.27452 0.72504
 Zr317 Zr 0.75042 0.24837 0.80042
 O318 O 0.72454 0.27471 0.77635
 Zr319 Zr 0.74917 0.25013 0.70027
 O320 O 0.77566 0.22386 0.72419
 Zr321 Zr 0.69986 0.25032 0.74936
 O322 O 0.72349 0.22370 0.77577
 Zr323 Zr 0.74909 0.29932 0.74941
 O324 O 0.77524 0.27553 0.77625
 O325 O 0.77657 0.22249 0.77734
 O326 O 0.72290 0.27645 0.72312
 C327 C 0.74853 0.18476 0.81469
 C328 C 0.81445 0.18511 0.74933
 C329 C 0.81372 0.25018 0.81550
 C330 C 0.74887 0.31356 0.68566
 C331 C 0.68569 0.25115 0.68561
 C332 C 0.68554 0.31394 0.74938
 H333 H 0.71297 0.21073 0.71353
 H334 H 0.71301 0.28628 0.78903
 H335 H 0.78847 0.21044 0.78927
 H336 H 0.78865 0.28593 0.71326
 H337 H 0.79604 0.23766 0.67650
 H338 H 0.82681 0.25792 0.70552
 H339 H 0.67296 0.26262 0.79492
 H340 H 0.70359 0.23580 0.82403
 H341 H 0.73509 0.20446 0.67381
 H342 H 0.76260 0.17568 0.70412
 H343 H 0.73641 0.32625 0.79484
 H344 H 0.76236 0.29520 0.82431
 H345 H 0.70355 0.17576 0.76187
 H346 H 0.67246 0.20544 0.73544
 H347 H 0.82258 0.29587 0.76515
 H348 H 0.79401 0.32662 0.73559
 O349 O 0.24898 0.82144 0.78995
 O350 O 0.28053 0.82962 0.75185
 O351 O 0.17678 0.78877 0.74786
 O352 O 0.16605 0.75248 0.72087
 O353 O 0.20936 0.74786 0.82247
 O354 O 0.24794 0.71737 0.83060
 O355 O 0.25134 0.71186 0.67730
 O356 O 0.21841 0.74838 0.66972
 O357 O 0.32165 0.74756 0.71257
 O358 O 0.33050 0.77897 0.75246
 O359 O 0.28676 0.67673 0.74807
 O360 O 0.24675 0.66784 0.77956
 O361 O 0.24894 0.67784 0.71041
 O362 O 0.21688 0.66916 0.75015
 O363 O 0.32068 0.70992 0.75053
 O364 O 0.32897 0.75001 0.78264
 O365 O 0.28858 0.74965 0.67844
 O366 O 0.25024 0.78160 0.66976
 O367 O 0.24927 0.78742 0.82328
 O368 O 0.27931 0.74777 0.83109
 O369 O 0.17607 0.75024 0.78850
 O370 O 0.17003 0.71702 0.74927
 O371 O 0.21056 0.82217 0.75065
 O372 O 0.24988 0.83007 0.72003
 Zr373 Zr 0.24823 0.79940 0.75187
 O374 O 0.27467 0.77561 0.72591
 Zr375 Zr 0.19876 0.75074 0.75069
 O376 O 0.22283 0.72496 0.72416
 Zr377 Zr 0.24745 0.74971 0.80044
 O378 O 0.27348 0.72351 0.77640
 Zr379 Zr 0.25043 0.74937 0.70028
 O380 O 0.22368 0.77556 0.72403
 Zr381 Zr 0.29880 0.74809 0.75024
 O382 O 0.27493 0.77453 0.77662
 Zr383 Zr 0.24908 0.69954 0.74870
 O384 O 0.22272 0.72321 0.77538
 O385 O 0.22183 0.77615 0.77732
 O386 O 0.27601 0.72248 0.72323
 C387 C 0.24959 0.81321 0.81555
 C388 C 0.18487 0.81442 0.74867
 C389 C 0.18374 0.74854 0.81425
 C390 C 0.25025 0.68608 0.68485
 C391 C 0.31412 0.74858 0.68675
 C392 C 0.31252 0.68435 0.74927
 H393 H 0.28658 0.78836 0.71485
 H394 H 0.28470 0.71165 0.78908
 H395 H 0.20983 0.78815 0.78921
 H396 H 0.21034 0.71384 0.71197
 H397 H 0.20397 0.76196 0.67577
 H398 H 0.17239 0.74213 0.70411
 H399 H 0.32506 0.73458 0.79588
 H400 H 0.29411 0.76096 0.82508
 H401 H 0.26429 0.79578 0.67521
 H402 H 0.23652 0.82409 0.70535
 H403 H 0.26160 0.67145 0.79352
 H404 H 0.23573 0.70233 0.82326
 H405 H 0.29527 0.82248 0.76454
 H406 H 0.32644 0.79328 0.73809
 H407 H 0.17505 0.70411 0.76467
 H408 H 0.20341 0.67348 0.73503
 O409 O 0.24911 0.32200 0.71020
 O410 O 0.21913 0.33011 0.74936
 O411 O 0.32202 0.28666 0.74883
 O412 O 0.33177 0.25029 0.77665
 O413 O 0.28729 0.24942 0.67514
 O414 O 0.24821 0.21903 0.66696
 O415 O 0.24856 0.20969 0.82000
 O416 O 0.28062 0.24610 0.82811
 O417 O 0.17679 0.24920 0.78676
 O418 O 0.16820 0.28058 0.74701
 O419 O 0.20954 0.17717 0.74729
 O420 O 0.24940 0.16813 0.71659
 O421 O 0.24641 0.17649 0.78600
 O422 O 0.27918 0.16807 0.74611
 O423 O 0.17634 0.21112 0.74929
 O424 O 0.16819 0.25132 0.71708
 O425 O 0.21036 0.24640 0.82033
 O426 O 0.24895 0.27922 0.82924
 O427 O 0.24896 0.28881 0.67605
 O428 O 0.21718 0.25045 0.66785
 O429 O 0.32103 0.24782 0.70867
 O430 O 0.32734 0.21507 0.74745
 O431 O 0.28880 0.32075 0.74990
 O432 O 0.24983 0.32891 0.78041
 Zr433 Zr 0.25057 0.29902 0.74779
 O434 O 0.22409 0.27511 0.77354
 Zr435 Zr 0.29905 0.24919 0.74682
 O436 O 0.27485 0.22325 0.77299
 Zr437 Zr 0.24967 0.25064 0.69790
 O438 O 0.22340 0.22440 0.72158
 Zr439 Zr 0.24822 0.24766 0.79798
 O440 O 0.27509 0.27388 0.77447
 Zr441 Zr 0.19904 0.24882 0.74882
 O442 O 0.22303 0.27540 0.72276
 Zr443 Zr 0.24764 0.19912 0.74820
 O444 O 0.27413 0.22287 0.72177
 O445 O 0.27614 0.27590 0.72135
 O446 O 0.22167 0.22198 0.77473
 C447 C 0.24862 0.31439 0.68438
 C448 C 0.31440 0.31244 0.75008
 C449 C 0.31298 0.24810 0.68299
 C450 C 0.24738 0.18412 0.81179
 C451 C 0.18470 0.24769 0.81242
 C452 C 0.18397 0.18536 0.74823
 H453 H 0.21261 0.28781 0.78511
 H454 H 0.21175 0.21312 0.70875
 H455 H 0.28823 0.28792 0.70960
 H456 H 0.28731 0.21155 0.78463
 H457 H 0.29509 0.25965 0.82207
 H458 H 0.32566 0.23914 0.79297
 H459 H 0.17154 0.23590 0.70368
 H460 H 0.20277 0.26368 0.67467
 H461 H 0.23362 0.29259 0.82547
 H462 H 0.26229 0.32168 0.79531
 H463 H 0.23552 0.17315 0.70207
 H464 H 0.26117 0.20411 0.67318
 H465 H 0.20403 0.32384 0.73663
 H466 H 0.17273 0.29461 0.76154
 H467 H 0.32116 0.20181 0.73276
 H468 H 0.29212 0.17103 0.76200
 O469 O 0.74888 0.67637 0.71393
 O470 O 0.77970 0.66825 0.75277
 O471 O 0.67642 0.71082 0.75266
 O472 O 0.66626 0.74686 0.78065
 O473 O 0.71123 0.74981 0.67949
 O474 O 0.75039 0.77977 0.67172
 O475 O 0.75044 0.78773 0.82494
 O476 O 0.71732 0.75163 0.83251
 O477 O 0.82132 0.74854 0.79166
 O478 O 0.83063 0.71851 0.75188
 O479 O 0.78791 0.82119 0.75334
 O480 O 0.74833 0.83011 0.72189
 O481 O 0.74987 0.82126 0.79123
 O482 O 0.71828 0.82972 0.75093
 O483 O 0.82147 0.78756 0.75498
 O484 O 0.82973 0.74751 0.72166
 O485 O 0.78763 0.75078 0.82513
 O486 O 0.74887 0.71800 0.83341
 O487 O 0.75066 0.70993 0.68022
 O488 O 0.78135 0.74898 0.67246
 O489 O 0.67728 0.74922 0.71282
 O490 O 0.67070 0.78240 0.75161
 O491 O 0.70984 0.67694 0.75354
 O492 O 0.74890 0.66874 0.78400
 Zr493 Zr 0.74792 0.69900 0.75175
 O494 O 0.77416 0.72284 0.77789
 Zr495 Zr 0.69915 0.74841 0.75106
 O496 O 0.72301 0.77427 0.77770
 Zr497 Zr 0.74882 0.74795 0.70240
 O498 O 0.77471 0.77416 0.72658
 Zr499 Zr 0.74984 0.74991 0.80255
 O500 O 0.72319 0.72369 0.77864
 Zr501 Zr 0.79915 0.74961 0.75365
 O502 O 0.77545 0.72309 0.72719
 Zr503 Zr 0.75003 0.79890 0.75328
 O504 O 0.72392 0.77519 0.72642
 O505 O 0.72240 0.72223 0.72536
 O506 O 0.77618 0.77604 0.77967
 C507 C 0.75035 0.68424 0.68823
 C508 C 0.68419 0.68508 0.75362
 C509 C 0.68546 0.75007 0.68720
 C510 C 0.75025 0.81340 0.81695
 C511 C 0.81331 0.74963 0.81730
 C512 C 0.81357 0.81325 0.75432
 H513 H 0.78568 0.71006 0.78936
 H514 H 0.78636 0.78569 0.71399
 H515 H 0.71047 0.71024 0.71338
 H516 H 0.71044 0.78576 0.78944
 H517 H 0.70287 0.73810 0.82639
 H518 H 0.67212 0.75806 0.79704
 H519 H 0.82717 0.76388 0.70926
 H520 H 0.79609 0.73614 0.67932
 H521 H 0.76418 0.70464 0.82952
 H522 H 0.73627 0.67563 0.79890
 H523 H 0.76288 0.82575 0.70784
 H524 H 0.73778 0.79486 0.67824
 H525 H 0.79442 0.67454 0.73963
 H526 H 0.82529 0.70344 0.76501
 H527 H 0.67644 0.79537 0.73651
 H528 H 0.70470 0.82600 0.76609
 O529 O 0.24949 0.67834 0.28824
 O530 O 0.21969 0.67034 0.24885
 O531 O 0.32325 0.71208 0.24963
 O532 O 0.33368 0.74817 0.22162
 O533 O 0.28884 0.75144 0.32282
 O534 O 0.24972 0.78163 0.33062
 O535 O 0.25119 0.78965 0.17745
 O536 O 0.28303 0.75278 0.16990
 O537 O 0.17890 0.75150 0.21049
 O538 O 0.16975 0.72044 0.25064
 O539 O 0.21249 0.82332 0.24937
 O540 O 0.25247 0.83185 0.28069
 O541 O 0.24954 0.82313 0.21120
 O542 O 0.28214 0.83153 0.25103
 O543 O 0.17879 0.78986 0.24744
 O544 O 0.16973 0.75029 0.28001
 O545 O 0.21267 0.75340 0.17709
 O546 O 0.25092 0.72001 0.16877
 O547 O 0.25001 0.71182 0.32211
 O548 O 0.21861 0.75057 0.32975
 O549 O 0.32280 0.75032 0.28953
 O550 O 0.32966 0.78361 0.25101
 O551 O 0.28953 0.67848 0.24900
 O552 O 0.25073 0.67067 0.21813
 Zr553 Zr 0.25164 0.70089 0.25044
 O554 O 0.22570 0.72497 0.22426
 Zr555 Zr 0.30089 0.74990 0.25131
 O556 O 0.27724 0.77602 0.22476
 Zr557 Zr 0.25124 0.74980 0.29991
 O558 O 0.22547 0.77617 0.27580
 Zr559 Zr 0.25039 0.75184 0.19976
 O560 O 0.27670 0.72537 0.22369
 Zr561 Zr 0.20092 0.75185 0.24860
 O562 O 0.22438 0.72520 0.27509
 Zr563 Zr 0.25027 0.80080 0.24915
 O564 O 0.27629 0.77689 0.27594
 O565 O 0.27738 0.72386 0.27688
 O566 O 0.22413 0.77809 0.22264
 C567 C 0.24915 0.68618 0.31399
 C568 C 0.31525 0.68640 0.24883
 C569 C 0.31462 0.75125 0.31514
 C570 C 0.25031 0.81529 0.18548
 C571 C 0.18695 0.75263 0.18487
 C572 C 0.18680 0.81551 0.24821
 H573 H 0.21410 0.71234 0.21272
 H574 H 0.21390 0.78777 0.28841
 H575 H 0.28919 0.71174 0.28883
 H576 H 0.28992 0.78745 0.21309
 H577 H 0.29730 0.73913 0.17620
 H578 H 0.32798 0.75966 0.20538
 H579 H 0.17339 0.76563 0.29342
 H580 H 0.20402 0.73758 0.32286
 H581 H 0.23546 0.70682 0.17262
 H582 H 0.26341 0.67756 0.20328
 H583 H 0.23777 0.82771 0.29465
 H584 H 0.26255 0.79658 0.32424
 H585 H 0.20462 0.67694 0.26144
 H586 H 0.17387 0.70646 0.23594
 H587 H 0.32369 0.79682 0.26581
 H588 H 0.29545 0.82784 0.23562
 O589 O 0.75071 0.32322 0.28831
 O590 O 0.78198 0.33107 0.24995
 O591 O 0.67830 0.28949 0.24856
 O592 O 0.66800 0.25354 0.22059
 O593 O 0.71196 0.24998 0.32218
 O594 O 0.75066 0.21977 0.33043
 O595 O 0.75294 0.21212 0.17713
 O596 O 0.71964 0.24815 0.16927
 O597 O 0.82314 0.24864 0.21133
 O598 O 0.83249 0.28023 0.25045
 O599 O 0.78877 0.17807 0.24804
 O600 O 0.74918 0.16937 0.27994
 O601 O 0.75055 0.17851 0.21069
 O602 O 0.71896 0.17027 0.25093
 O603 O 0.82262 0.21139 0.24979
 O604 O 0.83084 0.25218 0.28147
 O605 O 0.78977 0.25006 0.17748
 O606 O 0.75099 0.28186 0.16882
 O607 O 0.75155 0.28962 0.32202
 O608 O 0.78201 0.25022 0.33005
 O609 O 0.67834 0.25118 0.28849
 O610 O 0.67189 0.21795 0.24968
 O611 O 0.71201 0.32308 0.24832
 O612 O 0.75157 0.33096 0.21830
 Zr613 Zr 0.74987 0.30065 0.25048
 O614 O 0.77618 0.27658 0.22466
 Zr615 Zr 0.70062 0.25169 0.25050
 O616 O 0.72452 0.22569 0.22406
 Zr617 Zr 0.74978 0.25161 0.29974
 O618 O 0.77564 0.22515 0.27584
 Zr619 Zr 0.75182 0.24990 0.19963
 O620 O 0.72516 0.27628 0.22326
 Zr621 Zr 0.80062 0.24949 0.24916
 O622 O 0.77691 0.27624 0.27534
 Zr623 Zr 0.75106 0.20072 0.24870
 O624 O 0.72492 0.22463 0.27534
 O625 O 0.72384 0.27762 0.27652
 O626 O 0.77769 0.22342 0.22271
 C627 C 0.75166 0.31532 0.31402
 C628 C 0.68631 0.31516 0.24780
 C629 C 0.68627 0.25011 0.31419
 C630 C 0.75185 0.18644 0.18503
 C631 C 0.81538 0.24929 0.18558
 C632 C 0.81450 0.18578 0.24895
 H633 H 0.78794 0.28924 0.21332
 H634 H 0.78702 0.21350 0.28859
 H635 H 0.71189 0.28970 0.28836
 H636 H 0.71196 0.21436 0.21214
 H637 H 0.70505 0.26159 0.17527
 H638 H 0.67382 0.24217 0.20431
 H639 H 0.82742 0.23662 0.29468
 H640 H 0.79657 0.26357 0.32383
 H641 H 0.76558 0.29577 0.17348
 H642 H 0.73846 0.32464 0.20353
 H643 H 0.76401 0.17333 0.29383
 H644 H 0.73850 0.20454 0.32340
 H645 H 0.79682 0.32416 0.26266
 H646 H 0.82774 0.29485 0.23659
 H647 H 0.67725 0.20503 0.26496
 H648 H 0.70542 0.17422 0.23578
 C649 C 0.25165 0.10041 0.09812
 C650 C 0.22740 0.08448 0.09344
 C651 C 0.22688 0.06403 0.07252
 C652 C 0.25076 0.05883 0.05617
 C653 C 0.27505 0.07472 0.06095
 C654 C 0.27541 0.09546 0.08158
 C655 C 0.25216 0.12211 0.12023
 C656 C 0.26246 0.14901 0.11446
 C657 C 0.26250 0.16963 0.13522
 C658 C 0.25266 0.16361 0.16228
 C659 C 0.24271 0.13655 0.16811
 C660 C 0.24226 0.11607 0.14722
 H661 H 0.20790 0.05207 0.06936
 H662 H 0.29374 0.07122 0.04864
 H663 H 0.27033 0.19027 0.13010
 H664 H 0.23484 0.13131 0.18870
 H665 H 0.29440 0.10737 0.08492
 H666 H 0.27004 0.15420 0.09375
 H667 H 0.20875 0.08807 0.10580
 H668 H 0.23441 0.09541 0.15221
 C669 C 0.75066 0.59929 0.60203
 C670 C 0.72649 0.58337 0.59695
 C671 C 0.72622 0.56315 0.57579
 C672 C 0.75028 0.55817 0.55963
 C673 C 0.77451 0.57399 0.56489
 C674 C 0.77462 0.59451 0.58574
 C675 C 0.75086 0.62093 0.62421
 C676 C 0.76117 0.64786 0.61860
 C677 C 0.76101 0.66843 0.63940
 C678 C 0.75094 0.66233 0.66635
 C679 C 0.74094 0.63526 0.67203
 C680 C 0.74070 0.61482 0.65109
 H681 H 0.70728 0.55122 0.57226
 H682 H 0.79334 0.57067 0.55273
 H683 H 0.76890 0.68908 0.63441
 H684 H 0.73290 0.62998 0.69255
 H685 H 0.79356 0.60641 0.58940
 H686 H 0.76895 0.65310 0.59797
 H687 H 0.70769 0.58684 0.60912
 H688 H 0.73282 0.59414 0.65595
 C689 C 0.75020 0.90154 0.10146
 C690 C 0.72515 0.91438 0.09323
 C691 C 0.72514 0.93487 0.07236
 C692 C 0.75036 0.94341 0.05966
 C693 C 0.77552 0.93067 0.06834
 C694 C 0.77536 0.90975 0.08879
 C695 C 0.75007 0.87953 0.12319
 C696 C 0.76279 0.85355 0.11808
 C697 C 0.76239 0.83262 0.13850
 C698 C 0.74978 0.83752 0.16462
 C699 C 0.73729 0.86364 0.16979
 C700 C 0.73716 0.88435 0.14913
 H701 H 0.70533 0.94413 0.06639
 H702 H 0.79536 0.93656 0.05913
 H703 H 0.77236 0.81276 0.13404
 H704 H 0.72738 0.86794 0.18972
 H705 H 0.79496 0.90018 0.09498
 H706 H 0.77275 0.84938 0.09815
 H707 H 0.70549 0.90823 0.10267
 H708 H 0.72734 0.90430 0.15353
 C709 C 0.24951 0.40082 0.59990
 C710 C 0.27364 0.40548 0.58382
 C711 C 0.27393 0.42626 0.56325
 C712 C 0.24993 0.44244 0.55809
 C713 C 0.22576 0.43769 0.57414
 C714 C 0.22563 0.41722 0.59501
 C715 C 0.24916 0.37873 0.62156
 C716 C 0.23914 0.38447 0.64858
 C717 C 0.23904 0.36361 0.66907
 C718 C 0.24850 0.33649 0.66275
 C719 C 0.25827 0.33072 0.63561
 C720 C 0.25879 0.35170 0.61528
 H721 H 0.29283 0.42943 0.55116
 H722 H 0.20699 0.44991 0.57068
 H723 H 0.23136 0.36864 0.68980
 H724 H 0.26587 0.31007 0.63017
 H725 H 0.20673 0.41386 0.60705
 H726 H 0.23175 0.40523 0.65392
 H727 H 0.29236 0.39320 0.58737
 H728 H 0.26644 0.34675 0.59452
 C729 C 0.74908 0.09915 0.90016
 C730 C 0.77327 0.09460 0.91623
 C731 C 0.77366 0.07396 0.93694
 C732 C 0.74970 0.05779 0.94229
 C733 C 0.72546 0.06244 0.92627
 C734 C 0.72524 0.08277 0.90525
 C735 C 0.74868 0.12107 0.87828
 C736 C 0.73854 0.11512 0.85133
 C737 C 0.73852 0.13577 0.83060
 C738 C 0.74818 0.16290 0.83660
 C739 C 0.75803 0.16889 0.86369
 C740 C 0.75847 0.14812 0.88425
 H741 H 0.79261 0.07087 0.94899
 H742 H 0.70671 0.05024 0.92987
 H743 H 0.73079 0.13056 0.80994
 H744 H 0.76578 0.18954 0.86890
 H745 H 0.70629 0.08603 0.89323
 H746 H 0.73103 0.09435 0.84621
 H747 H 0.79198 0.10685 0.91254
 H748 H 0.76621 0.15324 0.90494
 C749 C 0.24922 0.59993 0.39865
 C750 C 0.22541 0.58340 0.40336
 C751 C 0.22560 0.56281 0.42411
 C752 C 0.24977 0.55807 0.44021
 C753 C 0.27369 0.57441 0.43523
 C754 C 0.27334 0.59530 0.41479
 C755 C 0.24886 0.62206 0.37703
 C756 C 0.25847 0.64909 0.38336
 C757 C 0.25813 0.67003 0.36298
 C758 C 0.24858 0.66422 0.33576
 C759 C 0.23905 0.63712 0.32944
 C760 C 0.23897 0.61630 0.34996
 H761 H 0.20689 0.55048 0.42743
 H762 H 0.29258 0.57126 0.44737
 H763 H 0.26576 0.69067 0.36844
 H764 H 0.23153 0.63205 0.30866
 H765 H 0.29201 0.60768 0.41137
 H766 H 0.26600 0.65405 0.40416
 H767 H 0.20653 0.58673 0.39127
 H768 H 0.23161 0.59554 0.34459
 C769 C 0.24961 0.89830 0.90130
 C770 C 0.27475 0.90670 0.91388
 C771 C 0.27487 0.92795 0.93399
 C772 C 0.24970 0.94084 0.94241
 C773 C 0.22447 0.93194 0.92997
 C774 C 0.22451 0.91112 0.90942
 C775 C 0.24963 0.87643 0.87944
 C776 C 0.23713 0.88160 0.85338
 C777 C 0.23747 0.86115 0.83249
 C778 C 0.24982 0.83493 0.83753
 C779 C 0.26204 0.82965 0.86375
 C780 C 0.26223 0.85037 0.88443
 H781 H 0.29473 0.93407 0.94306
 H782 H 0.20466 0.94128 0.93579
 H783 H 0.22771 0.86568 0.81253
 H784 H 0.27173 0.80963 0.86812
 H785 H 0.20487 0.90482 0.90000
 H786 H 0.22741 0.90163 0.84908
 H787 H 0.29437 0.89714 0.90777
 H788 H 0.27190 0.84596 0.90446
 C789 C 0.75132 0.40055 0.39993
 C790 C 0.72717 0.41663 0.40460
 C791 C 0.72678 0.43703 0.42557
 C792 C 0.75070 0.44205 0.44195
 C793 C 0.77491 0.42607 0.43711
 C794 C 0.77514 0.40536 0.41645
 C795 C 0.75168 0.37880 0.37786
 C796 C 0.76174 0.35182 0.38373
 C797 C 0.76172 0.33117 0.36301
 C798 C 0.75207 0.33725 0.33588
 C799 C 0.74233 0.36437 0.32996
 C800 C 0.74193 0.38487 0.35082
 H801 H 0.70785 0.44907 0.42879
 H802 H 0.79362 0.42941 0.44946
 H803 H 0.76939 0.31048 0.36817
 H804 H 0.73461 0.36964 0.30931
 H805 H 0.79406 0.39335 0.41310
 H806 H 0.76920 0.34661 0.40449
 H807 H 0.70849 0.41314 0.39224
 H808 H 0.73425 0.40559 0.34577
 C809 C 0.10166 0.25174 0.09732
 C810 C 0.09694 0.22756 0.08130
 C811 C 0.07578 0.22705 0.06111
 C812 C 0.05924 0.25087 0.05626
 C813 C 0.06417 0.27515 0.07212
 C814 C 0.08504 0.27550 0.09261
 C815 C 0.12373 0.25211 0.11904
 C816 C 0.11784 0.26212 0.14603
 C817 C 0.13848 0.26194 0.16674
 C818 C 0.16556 0.25217 0.16073
 C819 C 0.17153 0.24250 0.13359
 C820 C 0.15074 0.24227 0.11301
 H821 H 0.07251 0.20807 0.04914
 H822 H 0.05171 0.29380 0.06888
 H823 H 0.13327 0.26958 0.18744
 H824 H 0.19216 0.23469 0.12837
 H825 H 0.08842 0.29445 0.10460
 H826 H 0.09710 0.26963 0.15122
 H827 H 0.10937 0.20891 0.08471
 H828 H 0.15581 0.23461 0.09228
 C829 C 0.60069 0.75035 0.60090
 C830 C 0.59600 0.77417 0.58435
 C831 C 0.57519 0.77404 0.56378
 C832 C 0.55902 0.74993 0.55907
 C833 C 0.56397 0.72601 0.57544
 C834 C 0.58446 0.72630 0.59630
 C835 C 0.62237 0.75060 0.62302
 C836 C 0.61611 0.74082 0.65000
 C837 C 0.63652 0.74100 0.67094
 C838 C 0.66373 0.75057 0.66517
 C839 C 0.67000 0.76024 0.63811
 C840 C 0.64943 0.76047 0.61730
 H841 H 0.57189 0.79275 0.55142
 H842 H 0.55179 0.70715 0.57233
 H843 H 0.63110 0.73327 0.69154
 H844 H 0.69077 0.76779 0.63308
 H845 H 0.58786 0.70761 0.60867
 H846 H 0.59532 0.73329 0.65495
 H847 H 0.60815 0.79301 0.58765
 H848 H 0.65478 0.76794 0.59658
 C849 C 0.09804 0.74890 0.89951
 C850 C 0.09027 0.72407 0.91306
 C851 C 0.06956 0.72432 0.93371
 C852 C 0.05654 0.74956 0.94170
 C853 C 0.06463 0.77447 0.92813
 C854 C 0.08494 0.77406 0.90708
 C855 C 0.11987 0.74856 0.87758
 C856 C 0.11487 0.76096 0.85142
 C857 C 0.13547 0.76052 0.83066
 C858 C 0.16166 0.74818 0.83590
 C859 C 0.16669 0.73595 0.86217
 C860 C 0.14587 0.73588 0.88272
 H861 H 0.06403 0.70468 0.94359
 H862 H 0.05515 0.79433 0.93357
 H863 H 0.13108 0.77027 0.81067
 H864 H 0.18665 0.72624 0.86675
 H865 H 0.09076 0.79349 0.89697
 H866 H 0.09491 0.77073 0.84698
 H867 H 0.10001 0.70440 0.90742
 H868 H 0.15021 0.72632 0.90281
 C869 C 0.60094 0.25031 0.39976
 C870 C 0.59592 0.22627 0.41586
 C871 C 0.57506 0.22629 0.43633
 C872 C 0.55914 0.25050 0.44138
 C873 C 0.56439 0.27464 0.42545
 C874 C 0.58495 0.27447 0.40467
 C875 C 0.62277 0.25015 0.37783
 C876 C 0.61683 0.26027 0.35090
 C877 C 0.63737 0.25992 0.33012
 C878 C 0.66437 0.24982 0.33601
 C879 C 0.67033 0.23986 0.36304
 C880 C 0.64964 0.23981 0.38369
 H881 H 0.57154 0.20740 0.44834
 H882 H 0.55239 0.29357 0.42885
 H883 H 0.63222 0.26790 0.30953
 H884 H 0.69093 0.23192 0.36816
 H885 H 0.58861 0.29332 0.39263
 H886 H 0.59619 0.26817 0.34587
 H887 H 0.60787 0.20735 0.41230
 H888 H 0.65473 0.23206 0.40438
 C889 C 0.90156 0.75046 0.10200
 C890 C 0.91784 0.72651 0.09706
 C891 C 0.93813 0.72647 0.07599
 C892 C 0.94286 0.75055 0.05977
 C893 C 0.92680 0.77463 0.06500
 C894 C 0.90620 0.77450 0.08575
 C895 C 0.87959 0.75028 0.12384
 C896 C 0.85259 0.76012 0.11775
 C897 C 0.83174 0.75978 0.13823
 C898 C 0.83759 0.75000 0.16536
 C899 C 0.86469 0.74035 0.17150
 C900 C 0.88542 0.74025 0.15085
 H901 H 0.95025 0.70763 0.07251
 H902 H 0.92994 0.79346 0.05280
 H903 H 0.81111 0.76753 0.13291
 H904 H 0.86979 0.73266 0.19221
 H905 H 0.89402 0.79329 0.08931
 H906 H 0.84754 0.76778 0.09702
 H907 H 0.91452 0.70766 0.10920
 H908 H 0.90615 0.73271 0.15607
 C909 C 0.39898 0.24867 0.59810
 C910 C 0.41563 0.22493 0.59343
 C911 C 0.43648 0.22528 0.57296
 C912 C 0.44135 0.24953 0.55707
 C913 C 0.42482 0.27336 0.56191
 C914 C 0.40368 0.27286 0.58210
 C915 C 0.37685 0.24823 0.61971
 C916 C 0.34986 0.25808 0.61358
 C917 C 0.32896 0.25762 0.63402
 C918 C 0.33480 0.24770 0.66109
 C919 C 0.36187 0.23795 0.66721
 C920 C 0.38263 0.23802 0.64665
 H921 H 0.44893 0.20662 0.56973
 H922 H 0.42805 0.29231 0.54992
 H923 H 0.30835 0.26544 0.62873
 H924 H 0.36698 0.23015 0.68787
 H925 H 0.39123 0.29149 0.58549
 H926 H 0.34488 0.26588 0.59289
 H927 H 0.41226 0.20598 0.60539
 H928 H 0.40336 0.23050 0.65190
 C929 C 0.89940 0.24954 0.90071
 C930 C 0.90732 0.22445 0.91372
 C931 C 0.92844 0.22428 0.93400
 C932 C 0.94166 0.24938 0.94213
 C933 C 0.93330 0.27453 0.92917
 C934 C 0.91263 0.27453 0.90850
 C935 C 0.87742 0.24972 0.87894
 C936 C 0.88249 0.26230 0.85289
 C937 C 0.86180 0.26237 0.83221
 C938 C 0.83548 0.25039 0.83745
 C939 C 0.83034 0.23807 0.86366
 C940 C 0.85124 0.23748 0.88413
 H941 H 0.93418 0.20450 0.94345
 H942 H 0.94291 0.29430 0.93472
 H943 H 0.86630 0.27202 0.81221
 H944 H 0.81030 0.22848 0.86817
 H945 H 0.90669 0.29414 0.89881
 H946 H 0.90260 0.27174 0.84845
 H947 H 0.89743 0.20490 0.90787
 H948 H 0.84689 0.22778 0.90414
 C949 C 0.39919 0.74968 0.40165
 C950 C 0.40396 0.77348 0.41821
 C951 C 0.42479 0.77332 0.43872
 C952 C 0.44098 0.74921 0.44337
 C953 C 0.43596 0.72527 0.42703
 C954 C 0.41540 0.72559 0.40620
 C955 C 0.37751 0.75011 0.37953
 C956 C 0.38370 0.74049 0.35247
 C957 C 0.36337 0.74123 0.33146
 C958 C 0.33631 0.75121 0.33723
 C959 C 0.33007 0.76064 0.36439
 C960 C 0.35056 0.76031 0.38527
 H961 H 0.42814 0.79205 0.45105
 H962 H 0.44815 0.70642 0.43011
 H963 H 0.36875 0.73363 0.31079
 H964 H 0.30941 0.76845 0.36944
 H965 H 0.41195 0.70692 0.39381
 H966 H 0.40440 0.73272 0.34750
 H967 H 0.39185 0.79236 0.41495
 H968 H 0.34526 0.76767 0.40605
 C969 C 0.10007 0.10096 0.24921
 C970 C 0.08362 0.09626 0.22529
 C971 C 0.06315 0.07534 0.22524
 C972 C 0.05844 0.05906 0.24927
 C973 C 0.07478 0.06396 0.27325
 C974 C 0.09553 0.08455 0.27314
 C975 C 0.12195 0.12291 0.24926
 C976 C 0.14896 0.11696 0.25918
 C977 C 0.16968 0.13760 0.25910
 C978 C 0.16366 0.16475 0.24953
 C979 C 0.13652 0.17075 0.23985
 C980 C 0.11594 0.14997 0.23951
 H981 H 0.05083 0.07208 0.20648
 H982 H 0.07170 0.05170 0.29205
 H983 H 0.19038 0.13235 0.26671
 H984 H 0.13129 0.19142 0.23217
 H985 H 0.10782 0.08792 0.29190
 H986 H 0.15414 0.09619 0.26664
 H987 H 0.08687 0.10854 0.20653
 H988 H 0.09520 0.15510 0.23194
 C989 C 0.59853 0.59976 0.75296
 C990 C 0.58223 0.59545 0.72888
 C991 C 0.56175 0.57457 0.72837
 C992 C 0.55691 0.55792 0.75211
 C993 C 0.57310 0.56241 0.77627
 C994 C 0.59385 0.58299 0.77662
 C995 C 0.62038 0.62168 0.75343
 C996 C 0.64736 0.61558 0.76335
 C997 C 0.66812 0.63617 0.76344
 C998 C 0.66215 0.66338 0.75403
 C999 C 0.63503 0.66953 0.74439
 C1000 C 0.61442 0.64881 0.74390
 H1001 H 0.54956 0.57162 0.70949
 H1002 H 0.56990 0.54984 0.79486
 H1003 H 0.68881 0.63082 0.77100
 H1004 H 0.62985 0.69026 0.73682
 H1005 H 0.60604 0.58607 0.79549
 H1006 H 0.65249 0.59473 0.77062
 H1007 H 0.58561 0.60801 0.71032
 H1008 H 0.59370 0.65405 0.73633
 C1009 C 0.89925 0.09901 0.74924
 C1010 C 0.90723 0.08587 0.72425
 C1011 C 0.92797 0.06525 0.72432
 C1012 C 0.94078 0.05686 0.74955
 C1013 C 0.93236 0.06991 0.77464
 C1014 C 0.91204 0.09096 0.77441
 C1015 C 0.87762 0.12113 0.74903
 C1016 C 0.88295 0.14721 0.76145
 C1017 C 0.86258 0.16820 0.76109
 C1018 C 0.83630 0.16324 0.74883
 C1019 C 0.83093 0.13704 0.73659
 C1020 C 0.85153 0.11627 0.73642
 H1021 H 0.93375 0.05576 0.70456
 H1022 H 0.94167 0.06415 0.79450
 H1023 H 0.86720 0.18814 0.77084
 H1024 H 0.81088 0.13270 0.72695
 H1025 H 0.90605 0.10076 0.79395
 H1026 H 0.90299 0.15141 0.77117
 H1027 H 0.89769 0.09189 0.70458
 H1028 H 0.84698 0.09624 0.72683
 C1029 C 0.40025 0.60045 0.24952
 C1030 C 0.40495 0.58399 0.22565
 C1031 C 0.42575 0.56347 0.22570
 C1032 C 0.44196 0.55872 0.24979
 C1033 C 0.43703 0.57498 0.27379
 C1034 C 0.41650 0.59582 0.27358
 C1035 C 0.37850 0.62247 0.24924
 C1036 C 0.38463 0.64952 0.25894
 C1037 C 0.36419 0.67041 0.25840
 C1038 C 0.33710 0.66452 0.24854
 C1039 C 0.33095 0.63738 0.23900
 C1040 C 0.35154 0.61662 0.23913
 H1041 H 0.42903 0.55121 0.20692
 H1042 H 0.44925 0.57181 0.29262
 H1043 H 0.36949 0.69107 0.26608
 H1044 H 0.31027 0.63224 0.23127
 H1045 H 0.41309 0.60814 0.29230
 H1046 H 0.40535 0.65456 0.26664
 H1047 H 0.39280 0.58732 0.20679
 H1048 H 0.34630 0.59585 0.23171
 C1049 C 0.09931 0.90004 0.74860
 C1050 C 0.08268 0.90473 0.72482
 C1051 C 0.06202 0.92542 0.72503
 C1052 C 0.05729 0.94156 0.74918
 C1053 C 0.07380 0.93670 0.77304
 C1054 C 0.09475 0.91628 0.77268
 C1055 C 0.12131 0.87821 0.74829
 C1056 C 0.14828 0.88412 0.75834
 C1057 C 0.16905 0.86353 0.75804
 C1058 C 0.16313 0.83648 0.74805
 C1059 C 0.13609 0.83057 0.73810
 C1060 C 0.11545 0.85130 0.73801
 H1061 H 0.04960 0.92864 0.70634
 H1062 H 0.07068 0.94884 0.79193
 H1063 H 0.18963 0.86868 0.76602
 H1064 H 0.13089 0.80995 0.73026
 H1065 H 0.10716 0.91289 0.79135
 H1066 H 0.15336 0.90477 0.76619
 H1067 H 0.08594 0.89261 0.70594
 H1068 H 0.09474 0.84619 0.73034
 C1069 C 0.60119 0.40098 0.24751
 C1070 C 0.59649 0.41770 0.22382
 C1071 C 0.57569 0.43825 0.22412
 C1072 C 0.55953 0.44275 0.24828
 C1073 C 0.56448 0.42619 0.27206
 C1074 C 0.58497 0.40535 0.27161
 C1075 C 0.62291 0.37894 0.24711
 C1076 C 0.61669 0.35185 0.25662
 C1077 C 0.63719 0.33103 0.25641
 C1078 C 0.66443 0.33701 0.24708
 C1079 C 0.67065 0.36416 0.23764
 C1080 C 0.65000 0.38487 0.23743
 H1081 H 0.57239 0.45076 0.20551
 H1082 H 0.55230 0.42914 0.29095
 H1083 H 0.63182 0.31036 0.26398
 H1084 H 0.69144 0.36936 0.23029
 H1085 H 0.58838 0.39283 0.29019
 H1086 H 0.59589 0.34676 0.26400
 H1087 H 0.60865 0.41457 0.20495
 H1088 H 0.65530 0.40567 0.23017
 C1089 C 0.90147 0.90054 0.25234
 C1090 C 0.90929 0.91313 0.22701
 C1091 C 0.93017 0.93359 0.22646
 C1092 C 0.94333 0.94237 0.25138
 C1093 C 0.93523 0.92974 0.27678
 C1094 C 0.91474 0.90886 0.27718
 C1095 C 0.87936 0.87890 0.25283
 C1096 C 0.88409 0.85303 0.26592
 C1097 C 0.86334 0.83239 0.26582
 C1098 C 0.83729 0.83751 0.25316
 C1099 C 0.83247 0.86358 0.24043
 C1100 C 0.85342 0.88398 0.24003
 H1101 H 0.93572 0.94273 0.20647
 H1102 H 0.94483 0.93579 0.29642
 H1103 H 0.86759 0.81250 0.27583
 H1104 H 0.81267 0.86804 0.23034
 H1105 H 0.90890 0.89949 0.29697
 H1106 H 0.90402 0.84865 0.27580
 H1107 H 0.89942 0.90688 0.20758
 H1108 H 0.84929 0.90385 0.22993
 C1109 C 0.40007 0.39774 0.75131
 C1110 C 0.41648 0.40237 0.72738
 C1111 C 0.43677 0.42343 0.72721
 C1112 C 0.44132 0.43995 0.75112
 C1113 C 0.42504 0.43512 0.77513
 C1114 C 0.40447 0.41435 0.77514
 C1115 C 0.37827 0.37576 0.75136
 C1116 C 0.35121 0.38175 0.76108
 C1117 C 0.33047 0.36117 0.76071
 C1118 C 0.33651 0.33406 0.75102
 C1119 C 0.36372 0.32799 0.74164
 C1120 C 0.38434 0.34872 0.74161
 H1121 H 0.44906 0.42663 0.70844
 H1122 H 0.42803 0.44756 0.79384
 H1123 H 0.30971 0.36645 0.76812
 H1124 H 0.36896 0.30735 0.73389
 H1125 H 0.39219 0.41104 0.79389
 H1126 H 0.34601 0.40252 0.76853
 H1127 H 0.41331 0.38994 0.70868
 H1128 H 0.40513 0.34358 0.73419
 C1129 C 0.09924 0.24802 0.89795
 C1130 C 0.08350 0.27233 0.90292
 C1131 C 0.06304 0.27272 0.92380
 C1132 C 0.05764 0.24865 0.93980
 C1133 C 0.07326 0.22426 0.93464
 C1134 C 0.09401 0.22402 0.91406
 C1135 C 0.12107 0.24771 0.87601
 C1136 C 0.14786 0.23713 0.88182
 C1137 C 0.16860 0.23723 0.86121
 C1138 C 0.16279 0.24752 0.83426
 C1139 C 0.13585 0.25779 0.82840
 C1140 C 0.11527 0.25808 0.84914
 H1141 H 0.05130 0.29179 0.92727
 H1142 H 0.06962 0.20543 0.94670
 H1143 H 0.18912 0.22906 0.86630
 H1144 H 0.13077 0.26592 0.80786
 H1145 H 0.10577 0.20498 0.91046
 H1146 H 0.15286 0.22916 0.90244
 H1147 H 0.08730 0.29115 0.89088
 H1148 H 0.09469 0.26615 0.84413
 C1149 C 0.59960 0.74858 0.40013
 C1150 C 0.59488 0.72468 0.41654
 C1151 C 0.57415 0.72472 0.43717
 C1152 C 0.55801 0.74882 0.44209
 C1153 C 0.56288 0.77279 0.42576
 C1154 C 0.58332 0.77259 0.40484
 C1155 C 0.62154 0.74852 0.37823
 C1156 C 0.61574 0.75873 0.35129
 C1157 C 0.63647 0.75872 0.33065
 C1158 C 0.66355 0.74892 0.33667
 C1159 C 0.66933 0.73877 0.36369
 C1160 C 0.64848 0.73838 0.38419
 H1161 H 0.57092 0.70595 0.44946
 H1162 H 0.55074 0.79165 0.42902
 H1163 H 0.63138 0.76673 0.31006
 H1164 H 0.68995 0.73095 0.36894
 H1165 H 0.58672 0.79135 0.39259
 H1166 H 0.59507 0.76646 0.34614
 H1167 H 0.60703 0.70584 0.41317
 H1168 H 0.65351 0.73056 0.40486
 C1169 C 0.89889 0.74925 0.90270
 C1170 C 0.90698 0.77440 0.91546
 C1171 C 0.92819 0.77466 0.93560
 C1172 C 0.94142 0.74960 0.94387
 C1173 C 0.93289 0.72435 0.93122
 C1174 C 0.91207 0.72425 0.91065
 C1175 C 0.87687 0.74917 0.88095
 C1176 C 0.88182 0.73653 0.85490
 C1177 C 0.86124 0.73694 0.83411
 C1178 C 0.83513 0.74947 0.83921
 C1179 C 0.83010 0.76184 0.86543
 C1180 C 0.85091 0.76195 0.88601
 H1181 H 0.93403 0.79454 0.94480
 H1182 H 0.94250 0.70463 0.93693
 H1183 H 0.86564 0.72716 0.81413
 H1184 H 0.81022 0.77176 0.86987
 H1185 H 0.90601 0.70459 0.90112
 H1186 H 0.90177 0.72671 0.85052
 H1187 H 0.89717 0.79395 0.90950
 H1188 H 0.84666 0.77174 0.90601
 C1189 C 0.40043 0.25046 0.39875
 C1190 C 0.40503 0.22646 0.41508
 C1191 C 0.42592 0.22625 0.43559
 C1192 C 0.44228 0.25020 0.44044
 C1193 C 0.43752 0.27425 0.42419
 C1194 C 0.41695 0.27430 0.40340
 C1195 C 0.37847 0.25066 0.37689
 C1196 C 0.38445 0.26058 0.34989
 C1197 C 0.36380 0.26060 0.32918
 C1198 C 0.33662 0.25111 0.33519
 C1199 C 0.33057 0.24148 0.36232
 C1200 C 0.35137 0.24104 0.38291
 H1201 H 0.42906 0.20745 0.44784
 H1202 H 0.44985 0.29300 0.42741
 H1203 H 0.36906 0.26827 0.30851
 H1204 H 0.30985 0.23397 0.36756
 H1205 H 0.41366 0.29311 0.39119
 H1206 H 0.40524 0.26797 0.34473
 H1207 H 0.39266 0.20777 0.41173
 H1208 H 0.34622 0.23351 0.40365
 C1209 C 0.10155 0.75259 0.09907
 C1210 C 0.09666 0.77629 0.08241
 C1211 C 0.07568 0.77598 0.06199
 C1212 C 0.05952 0.75180 0.05757
 C1213 C 0.06467 0.72801 0.07406
 C1214 C 0.08534 0.72847 0.09474
 C1215 C 0.12339 0.75300 0.12106
 C1216 C 0.11736 0.74321 0.14809
 C1217 C 0.13793 0.74338 0.16887
 C1218 C 0.16509 0.75295 0.16292
 C1219 C 0.17113 0.76271 0.13583
 C1220 C 0.15039 0.76294 0.11516
 H1221 H 0.07223 0.79460 0.04955
 H1222 H 0.05252 0.70910 0.07118
 H1223 H 0.13264 0.73568 0.18952
 H1224 H 0.19182 0.77035 0.13065
 H1225 H 0.08888 0.70987 0.10720
 H1226 H 0.09661 0.73566 0.15321
 H1227 H 0.10879 0.79519 0.08549
 H1228 H 0.15557 0.77045 0.09441
 C1229 C 0.60017 0.25172 0.59995
 C1230 C 0.59572 0.22772 0.58358
 C1231 C 0.57491 0.22742 0.56303
 C1232 C 0.55842 0.25128 0.55814
 C1233 C 0.56302 0.27536 0.57440
 C1234 C 0.58355 0.27550 0.59527
 C1235 C 0.62212 0.25191 0.62182
 C1236 C 0.61615 0.26168 0.64889
 C1237 C 0.63675 0.26132 0.66968
 C1238 C 0.66386 0.25160 0.66365
 C1239 C 0.66989 0.24218 0.63643
 C1240 C 0.64916 0.24213 0.61580
 H1241 H 0.57190 0.20858 0.55078
 H1242 H 0.55059 0.29403 0.57115
 H1243 H 0.63152 0.26884 0.69041
 H1244 H 0.69055 0.23451 0.63117
 H1245 H 0.58672 0.29431 0.60752
 H1246 H 0.59540 0.26918 0.65407
 H1247 H 0.60814 0.20906 0.58695
 H1248 H 0.65431 0.23470 0.59501
 C1249 C 0.90112 0.24970 0.10031
 C1250 C 0.91770 0.22589 0.09570
 C1251 C 0.93802 0.22586 0.07468
 C1252 C 0.94244 0.24979 0.05817
 C1253 C 0.92605 0.27372 0.06303
 C1254 C 0.90543 0.27359 0.08376
 C1255 C 0.87921 0.24953 0.12218
 C1256 C 0.85212 0.25909 0.11607
 C1257 C 0.83133 0.25876 0.13660
 C1258 C 0.83734 0.24925 0.16379
 C1259 C 0.86452 0.23981 0.16992
 C1260 C 0.88520 0.23975 0.14924
 H1261 H 0.95039 0.20714 0.07147
 H1262 H 0.92895 0.29244 0.05059
 H1263 H 0.81061 0.26623 0.13126
 H1264 H 0.86975 0.23224 0.19064
 H1265 H 0.89302 0.29226 0.08707
 H1266 H 0.84695 0.26651 0.09528
 H1267 H 0.91461 0.20716 0.10807
 H1268 H 0.90600 0.23240 0.15446
 C1269 C 0.40062 0.74897 0.60209
 C1270 C 0.41677 0.72495 0.59706
 C1271 C 0.43726 0.72496 0.57617
 C1272 C 0.44229 0.74915 0.56022
 C1273 C 0.42634 0.77328 0.56551
 C1274 C 0.40556 0.77312 0.58608
 C1275 C 0.37851 0.74880 0.62380
 C1276 C 0.35166 0.75902 0.61770
 C1277 C 0.33069 0.75870 0.63807
 C1278 C 0.33629 0.74858 0.66513
 C1279 C 0.36325 0.73850 0.67127
 C1280 C 0.38409 0.73840 0.65073
 H1281 H 0.44927 0.70607 0.57263
 H1282 H 0.42971 0.79221 0.55352
 H1283 H 0.31017 0.76668 0.63272
 H1284 H 0.36816 0.73044 0.69188
 H1285 H 0.39349 0.79196 0.58971
 H1286 H 0.34680 0.76693 0.59702
 H1287 H 0.41322 0.70602 0.60900
 H1288 H 0.40469 0.73054 0.65597
 C1289 C 0.24843 0.09804 0.89674
 C1290 C 0.22452 0.08184 0.90203
 C1291 C 0.22478 0.06153 0.92307
 C1292 C 0.24912 0.05674 0.93891
 C1293 C 0.27315 0.07272 0.93333
 C1294 C 0.27273 0.09333 0.91259
 C1295 C 0.24796 0.12005 0.87497
 C1296 C 0.25799 0.14699 0.88098
 C1297 C 0.25750 0.16786 0.86053
 C1298 C 0.24737 0.16208 0.83351
 C1299 C 0.23743 0.13505 0.82747
 C1300 C 0.23751 0.11429 0.84810
 H1301 H 0.20598 0.04946 0.92685
 H1302 H 0.29218 0.06953 0.94522
 H1303 H 0.26537 0.18845 0.86580
 H1304 H 0.22938 0.13001 0.80688
 H1305 H 0.29149 0.10546 0.90874
 H1306 H 0.26593 0.15197 0.90162
 H1307 H 0.20549 0.08523 0.89019
 H1308 H 0.22978 0.09361 0.84296
 C1309 C 0.74952 0.60104 0.40098
 C1310 C 0.72559 0.58468 0.40575
 C1311 C 0.72565 0.56402 0.42646
 C1312 C 0.74980 0.55900 0.44250
 C1313 C 0.77382 0.57523 0.43755
 C1314 C 0.77359 0.59620 0.41714
 C1315 C 0.74936 0.62309 0.37920
 C1316 C 0.75940 0.65004 0.38524
 C1317 C 0.75916 0.67090 0.36473
 C1318 C 0.74929 0.66507 0.33761
 C1319 C 0.73936 0.63804 0.33157
 C1320 C 0.73919 0.61733 0.35223
 H1321 H 0.70685 0.55181 0.42975
 H1322 H 0.79270 0.57189 0.44963
 H1323 H 0.76699 0.69150 0.37001
 H1324 H 0.73149 0.63295 0.31092
 H1325 H 0.79237 0.60842 0.41371
 H1326 H 0.76715 0.65505 0.40596
 H1327 H 0.70671 0.58815 0.39368
 H1328 H 0.73147 0.59666 0.34703
 C1329 C 0.75155 0.10084 0.09968
 C1330 C 0.72631 0.08820 0.09163
 C1331 C 0.72601 0.06751 0.07094
 C1332 C 0.75109 0.05856 0.05826
 C1333 C 0.77640 0.07122 0.06664
 C1334 C 0.77655 0.09233 0.08691
 C1335 C 0.75179 0.12275 0.12153
 C1336 C 0.76477 0.14862 0.11656
 C1337 C 0.76459 0.16947 0.13711
 C1338 C 0.75195 0.16454 0.16320
 C1339 C 0.73931 0.13848 0.16826
 C1340 C 0.73898 0.11788 0.14750
 H1341 H 0.70610 0.05835 0.06517
 H1342 H 0.79615 0.06503 0.05742
 H1343 H 0.77462 0.18932 0.13273
 H1344 H 0.72933 0.13417 0.18814
 H1345 H 0.79627 0.10174 0.09295
 H1346 H 0.77469 0.15281 0.09662
 H1347 H 0.70677 0.09459 0.10115
 H1348 H 0.72899 0.09800 0.15180
 C1349 C 0.25022 0.60124 0.59849
 C1350 C 0.22611 0.58517 0.59355
 C1351 C 0.22601 0.56455 0.57279
 C1352 C 0.25016 0.55930 0.55687
 C1353 C 0.27431 0.57532 0.56192
 C1354 C 0.27427 0.59624 0.58238
 C1355 C 0.25034 0.62299 0.62057
 C1356 C 0.26073 0.64991 0.61498
 C1357 C 0.26055 0.67049 0.63579
 C1358 C 0.25040 0.66440 0.66272
 C1359 C 0.24029 0.63735 0.66834
 C1360 C 0.24006 0.61693 0.64740
 H1361 H 0.20711 0.55250 0.56941
 H1362 H 0.29321 0.57180 0.54992
 H1363 H 0.26859 0.69110 0.63088
 H1364 H 0.23226 0.63203 0.68885
 H1365 H 0.29316 0.60823 0.58594
 H1366 H 0.26863 0.65511 0.59439
 H1367 H 0.20726 0.58878 0.60558
 H1368 H 0.23216 0.59625 0.65227
 C1369 C 0.75032 0.89909 0.90239
 C1370 C 0.72629 0.91533 0.90709
 C1371 C 0.72618 0.93598 0.92782
 C1372 C 0.75026 0.94107 0.94393
 C1373 C 0.77434 0.92490 0.93910
 C1374 C 0.77429 0.90395 0.91868
 C1375 C 0.75040 0.87716 0.88051
 C1376 C 0.76034 0.85017 0.88651
 C1377 C 0.76013 0.82939 0.86591
 C1378 C 0.75041 0.83535 0.83878
 C1379 C 0.74077 0.86247 0.83273
 C1380 C 0.74055 0.88311 0.85347
 H1381 H 0.70734 0.94816 0.93104
 H1382 H 0.79318 0.92831 0.95124
 H1383 H 0.76780 0.80872 0.87116
 H1384 H 0.73308 0.86766 0.81205
 H1385 H 0.79312 0.89180 0.91530
 H1386 H 0.76791 0.84507 0.90726
 H1387 H 0.70750 0.91182 0.89490
 H1388 H 0.73298 0.90384 0.84831
 C1389 C 0.25161 0.39983 0.39891
 C1390 C 0.27543 0.40471 0.41541
 C1391 C 0.27518 0.42543 0.43607
 C1392 C 0.25094 0.44136 0.44093
 C1393 C 0.22702 0.43626 0.42459
 C1394 C 0.22743 0.41584 0.40363
 C1395 C 0.25197 0.37809 0.37682
 C1396 C 0.24209 0.38415 0.34981
 C1397 C 0.24246 0.36365 0.32893
 C1398 C 0.25228 0.33654 0.33480
 C1399 C 0.26208 0.33049 0.36188
 C1400 C 0.26213 0.35114 0.38262
 H1401 H 0.29391 0.42885 0.44837
 H1402 H 0.20807 0.44826 0.42780
 H1403 H 0.23470 0.36891 0.30829
 H1404 H 0.26989 0.30984 0.36700
 H1405 H 0.20873 0.41232 0.39129
 H1406 H 0.23436 0.40485 0.34479
 H1407 H 0.29438 0.39274 0.41204
 H1408 H 0.26972 0.34594 0.40334
 C1409 C 0.25014 0.90089 0.10009
 C1410 C 0.27417 0.90564 0.08388
 C1411 C 0.27421 0.92629 0.06318
 C1412 C 0.25007 0.94226 0.05801
 C1413 C 0.22600 0.93740 0.07417
 C1414 C 0.22611 0.91705 0.09517
 C1415 C 0.25011 0.87900 0.12197
 C1416 C 0.24007 0.88490 0.14895
 C1417 C 0.24032 0.86427 0.16967
 C1418 C 0.25020 0.83722 0.16365
 C1419 C 0.25997 0.83129 0.13655
 C1420 C 0.26013 0.85205 0.11598
 H1421 H 0.29305 0.92953 0.05102
 H1422 H 0.20712 0.94945 0.07069
 H1423 H 0.23252 0.86941 0.19032
 H1424 H 0.26777 0.81066 0.13130
 H1425 H 0.20728 0.91362 0.10729
 H1426 H 0.23237 0.90559 0.15407
 H1427 H 0.29301 0.89356 0.08745
 H1428 H 0.26777 0.84697 0.09525
 C1429 C 0.74913 0.39945 0.60037
 C1430 C 0.77327 0.40427 0.58433
 C1431 C 0.77356 0.42523 0.56392
 C1432 C 0.74957 0.44146 0.55885
 C1433 C 0.72536 0.43647 0.57478
 C1434 C 0.72522 0.41582 0.59549
 C1435 C 0.74890 0.37741 0.62216
 C1436 C 0.73868 0.38321 0.64910
 C1437 C 0.73880 0.36252 0.66978
 C1438 C 0.74872 0.33547 0.66378
 C1439 C 0.75862 0.32961 0.63669
 C1440 C 0.75892 0.35045 0.61617
 H1441 H 0.79249 0.42856 0.55193
 H1442 H 0.70658 0.44869 0.57139
 H1443 H 0.73092 0.36762 0.69040
 H1444 H 0.76646 0.30900 0.63146
 H1445 H 0.70631 0.41236 0.60747
 H1446 H 0.73098 0.40390 0.65426
 H1447 H 0.79202 0.39204 0.58785
 H1448 H 0.76671 0.34543 0.59548
 C1449 C 0.09777 0.10055 0.74776
 C1450 C 0.08169 0.09591 0.77188
 C1451 C 0.06126 0.07502 0.77224
 C1452 C 0.05623 0.05862 0.74832
 C1453 C 0.07212 0.06349 0.72407
 C1454 C 0.09286 0.08411 0.72387
 C1455 C 0.11975 0.12234 0.74764
 C1456 C 0.14668 0.11621 0.73766
 C1457 C 0.16761 0.13663 0.73805
 C1458 C 0.16187 0.16371 0.74802
 C1459 C 0.13482 0.16988 0.75778
 C1460 C 0.11403 0.14932 0.75779
 H1461 H 0.04929 0.07180 0.79120
 H1462 H 0.06873 0.05113 0.70536
 H1463 H 0.18822 0.13127 0.73031
 H1464 H 0.12980 0.19052 0.76570
 H1465 H 0.10490 0.08745 0.70497
 H1466 H 0.15164 0.09548 0.72994
 H1467 H 0.08524 0.10818 0.79061
 H1468 H 0.09336 0.15457 0.76545
 C1469 C 0.60059 0.60154 0.25075
 C1470 C 0.58425 0.59707 0.22671
 C1471 C 0.56379 0.57615 0.22634
 C1472 C 0.55897 0.55960 0.25016
 C1473 C 0.57519 0.56425 0.27428
 C1474 C 0.59593 0.58487 0.27449
 C1475 C 0.62245 0.62351 0.25107
 C1476 C 0.64941 0.61754 0.26114
 C1477 C 0.67014 0.63818 0.26116
 C1478 C 0.66419 0.66533 0.25152
 C1479 C 0.63710 0.67135 0.24173
 C1480 C 0.61651 0.65057 0.24130
 H1481 H 0.55159 0.57309 0.20748
 H1482 H 0.57200 0.55178 0.29293
 H1483 H 0.69077 0.63294 0.26895
 H1484 H 0.63190 0.69205 0.23410
 H1485 H 0.60812 0.58805 0.29334
 H1486 H 0.65455 0.59678 0.26863
 H1487 H 0.58759 0.60953 0.20808
 H1488 H 0.59581 0.65573 0.23364
 C1489 C 0.10133 0.90104 0.24780
 C1490 C 0.08473 0.90579 0.22401
 C1491 C 0.06403 0.92645 0.22430
 C1492 C 0.05926 0.94243 0.24854
 C1493 C 0.07576 0.93751 0.27238
 C1494 C 0.09674 0.91716 0.27194
 C1495 C 0.12331 0.87925 0.24752
 C1496 C 0.15030 0.88524 0.25746
 C1497 C 0.17102 0.86462 0.25739
 C1498 C 0.16502 0.83747 0.24778
 C1499 C 0.13797 0.83150 0.23786
 C1500 C 0.11738 0.85225 0.23754
 H1501 H 0.05159 0.92974 0.20563
 H1502 H 0.07261 0.94955 0.29133
 H1503 H 0.19165 0.86985 0.26520
 H1504 H 0.13276 0.81081 0.23018
 H1505 H 0.10914 0.91371 0.29061
 H1506 H 0.15541 0.90598 0.26506
 H1507 H 0.08803 0.89374 0.20510
 H1508 H 0.09666 0.84711 0.22993
 C1509 C 0.60010 0.39969 0.75019
 C1510 C 0.59553 0.41650 0.72653
 C1511 C 0.57460 0.43695 0.72669
 C1512 C 0.55813 0.44127 0.75067
 C1513 C 0.56293 0.42463 0.77444
 C1514 C 0.58356 0.40389 0.77412
 C1515 C 0.62198 0.37773 0.74986
 C1516 C 0.61593 0.35059 0.75933
 C1517 C 0.63650 0.32980 0.75890
 C1518 C 0.66367 0.33587 0.74942
 C1519 C 0.66973 0.36309 0.74006
 C1520 C 0.64902 0.38376 0.74008
 H1521 H 0.57144 0.44950 0.70808
 H1522 H 0.55053 0.42744 0.79320
 H1523 H 0.63120 0.30905 0.76630
 H1524 H 0.69043 0.36837 0.73251
 H1525 H 0.58684 0.39131 0.79268
 H1526 H 0.59516 0.34538 0.76675
 H1527 H 0.60788 0.41353 0.70777
 H1528 H 0.65422 0.40458 0.73281
 C1529 C 0.89940 0.09965 0.25029
 C1530 C 0.90413 0.08325 0.22638
 C1531 C 0.92500 0.06280 0.22638
 C1532 C 0.94128 0.05806 0.25043
 C1533 C 0.93631 0.07426 0.27447
 C1534 C 0.91570 0.09503 0.27432
 C1535 C 0.87762 0.12165 0.25005
 C1536 C 0.88372 0.14870 0.25976
 C1537 C 0.86329 0.16961 0.25914
 C1538 C 0.83622 0.16374 0.24920
 C1539 C 0.83010 0.13659 0.23966
 C1540 C 0.85067 0.11581 0.23988
 H1541 H 0.92830 0.05058 0.20757
 H1542 H 0.94857 0.07111 0.29328
 H1543 H 0.86861 0.19030 0.26672
 H1544 H 0.80947 0.13148 0.23178
 H1545 H 0.91229 0.10732 0.29306
 H1546 H 0.90443 0.15374 0.26748
 H1547 H 0.89195 0.08657 0.20755
 H1548 H 0.84545 0.09506 0.23241
 C1549 C 0.39763 0.59821 0.75026
 C1550 C 0.40247 0.58167 0.72646
 C1551 C 0.42346 0.56128 0.72660
 C1552 C 0.43972 0.55673 0.75070
 C1553 C 0.43462 0.57308 0.77462
 C1554 C 0.41393 0.59376 0.77433
 C1555 C 0.37579 0.62022 0.74992
 C1556 C 0.38181 0.64723 0.75981
 C1557 C 0.36133 0.66810 0.75935
 C1558 C 0.33426 0.66227 0.74937
 C1559 C 0.32822 0.63518 0.73960
 C1560 C 0.34886 0.61442 0.73967
 H1561 H 0.42684 0.54896 0.70787
 H1562 H 0.44684 0.57009 0.79349
 H1563 H 0.36662 0.68873 0.76709
 H1564 H 0.30760 0.63008 0.73167
 H1565 H 0.41044 0.60612 0.79301
 H1566 H 0.40249 0.65228 0.76760
 H1567 H 0.39031 0.58484 0.70758
 H1568 H 0.34368 0.59370 0.73206
 C1569 C 0.89901 0.89883 0.75343
 C1570 C 0.91569 0.90402 0.77707
 C1571 C 0.93611 0.92496 0.77648
 C1572 C 0.94051 0.94078 0.75207
 C1573 C 0.92398 0.93535 0.72835
 C1574 C 0.90329 0.91472 0.72910
 C1575 C 0.87709 0.87698 0.75411
 C1576 C 0.85002 0.88286 0.74433
 C1577 C 0.82932 0.86225 0.74472
 C1578 C 0.83539 0.83518 0.75452
 C1579 C 0.86252 0.82930 0.76430
 C1580 C 0.88311 0.85008 0.76430
 H1581 H 0.94859 0.92863 0.79504
 H1582 H 0.92686 0.94723 0.70927
 H1583 H 0.80865 0.86740 0.73699
 H1584 H 0.86777 0.80868 0.77210
 H1585 H 0.89082 0.91094 0.71055
 H1586 H 0.84484 0.90352 0.73658
 H1587 H 0.91263 0.89214 0.79612
 H1588 H 0.90389 0.84503 0.77182
 C1589 C 0.40103 0.40011 0.24976
 C1590 C 0.40586 0.41619 0.22564
 C1591 C 0.42668 0.43674 0.22545
 C1592 C 0.44277 0.44193 0.24954
 C1593 C 0.43779 0.42593 0.27372
 C1594 C 0.41728 0.40507 0.27375
 C1595 C 0.37903 0.37828 0.24993
 C1596 C 0.38481 0.35137 0.26023
 C1597 C 0.36412 0.33068 0.26007
 C1598 C 0.33711 0.33664 0.25004
 C1599 C 0.33128 0.36369 0.24005
 C1600 C 0.35210 0.38423 0.23978
 H1601 H 0.43000 0.44878 0.20654
 H1602 H 0.44991 0.42939 0.29257
 H1603 H 0.36920 0.31008 0.26803
 H1604 H 0.31069 0.36890 0.23211
 H1605 H 0.41382 0.39307 0.29265
 H1606 H 0.40546 0.34624 0.26803
 H1607 H 0.39372 0.41261 0.20683
 H1608 H 0.34709 0.40489 0.23193
   
