data_POSCAR
  _audit_creation_date              2014-09-24
  _audit_creation_method            'ToBaCCo'
  _symmetry_space_group_name_H-M    'P1'
  _symmetry_Int_Tables_number       1
  _symmetry_cell_setting            triclinic
  loop_
  _symmetry_equiv_pos_as_xyz
 x,y,z
_cell_length_a 69.3101
_cell_length_b 69.3282
_cell_length_c 69.3632
_cell_angle_alpha 89.969100
_cell_angle_beta 89.989200
_cell_angle_gamma 89.999400
loop_
  _atom_site_label
  _atom_site_type_symbol
  _atom_site_fract_x
  _atom_site_fract_y
  _atom_site_fract_z
C1 C 0.19272 0.21960 0.21395
 C2 C 0.20350 0.22501 0.19771
 C3 C 0.21953 0.21433 0.19235
 C4 C 0.22497 0.19813 0.20316
 C5 C 0.21432 0.19279 0.21921
 C6 C 0.19810 0.20359 0.22464
 C7 C 0.17649 0.22724 0.22249
 N8 N 0.17204 0.21622 0.23799
 C9 C 0.18507 0.20175 0.23951
 C10 C 0.22287 0.17657 0.22686
 N11 N 0.23835 0.17208 0.21582
 C12 C 0.23984 0.18507 0.20131
 C13 C 0.22714 0.22285 0.17610
 N14 N 0.21608 0.23832 0.17161
 C15 C 0.20161 0.23984 0.18464
 H16 H 0.16851 0.23983 0.21781
 H17 H 0.18501 0.19073 0.25058
 H18 H 0.21822 0.16862 0.23948
 H19 H 0.25088 0.18499 0.19027
 H20 H 0.23973 0.21819 0.16812
 H21 H 0.19057 0.25089 0.18457
 C22 C 0.69269 0.71948 0.71418
 C23 C 0.70346 0.72490 0.69794
 C24 C 0.71949 0.71423 0.69257
 C25 C 0.72494 0.69802 0.70337
 C26 C 0.71429 0.69267 0.71942
 C27 C 0.69807 0.70346 0.72486
 C28 C 0.67646 0.72711 0.72273
 N29 N 0.67201 0.71608 0.73822
 C30 C 0.68504 0.70161 0.73973
 C31 C 0.72284 0.67644 0.72706
 N32 N 0.73831 0.67196 0.71600
 C33 C 0.73980 0.68496 0.70150
 C34 C 0.72709 0.72275 0.67632
 N35 N 0.71603 0.73822 0.67184
 C36 C 0.70157 0.73974 0.68487
 H37 H 0.66847 0.73970 0.71806
 H38 H 0.68499 0.69058 0.75079
 H39 H 0.71819 0.66848 0.73966
 H40 H 0.75084 0.68488 0.69045
 H41 H 0.73968 0.71808 0.66833
 H42 H 0.69053 0.75079 0.68481
 C43 C 0.30667 0.78075 0.71443
 C44 C 0.29588 0.77535 0.69820
 C45 C 0.27989 0.78606 0.69281
 C46 C 0.27448 0.80229 0.70358
 C47 C 0.28514 0.80763 0.71963
 C48 C 0.30132 0.79679 0.72508
 C49 C 0.32286 0.77307 0.72299
 N50 N 0.32734 0.78409 0.73847
 C51 C 0.31436 0.79861 0.73995
 C52 C 0.27663 0.82388 0.72725
 N53 N 0.26117 0.82838 0.71618
 C54 C 0.25964 0.81538 0.70169
 C55 C 0.27226 0.77754 0.67658
 N56 N 0.28327 0.76203 0.67214
 C57 C 0.29773 0.76049 0.68517
 H58 H 0.33081 0.76045 0.71835
 H59 H 0.31443 0.80964 0.75100
 H60 H 0.28131 0.83182 0.73986
 H61 H 0.24860 0.81547 0.69064
 H62 H 0.25968 0.78223 0.66859
 H63 H 0.30874 0.74941 0.68512
 C64 C 0.80770 0.28041 0.21430
 C65 C 0.79697 0.27498 0.19805
 C66 C 0.78094 0.28563 0.19263
 C67 C 0.77545 0.30183 0.20340
 C68 C 0.78605 0.30720 0.21947
 C69 C 0.80227 0.29643 0.22495
 C70 C 0.82391 0.27278 0.22290
 N71 N 0.82829 0.28383 0.23839
 C72 C 0.81526 0.29831 0.23986
 C73 C 0.77745 0.32341 0.22707
 N74 N 0.76200 0.32787 0.21598
 C75 C 0.76057 0.31487 0.20149
 C76 C 0.77338 0.27709 0.17639
 N77 N 0.78446 0.26162 0.17195
 C78 C 0.79890 0.26013 0.18501
 H79 H 0.83192 0.26020 0.21824
 H80 H 0.81525 0.30934 0.25091
 H81 H 0.78205 0.33138 0.23968
 H82 H 0.74956 0.31492 0.19042
 H83 H 0.76080 0.28173 0.16838
 H84 H 0.80995 0.24908 0.18499
 C85 C 0.80790 0.71986 0.28498
 C86 C 0.79712 0.72533 0.30119
 C87 C 0.78108 0.71468 0.30660
 C88 C 0.77564 0.69844 0.29587
 C89 C 0.78629 0.69303 0.27985
 C90 C 0.80251 0.70380 0.27437
 C91 C 0.82413 0.72748 0.27640
 N92 N 0.82857 0.71638 0.26095
 C93 C 0.81555 0.70189 0.25950
 C94 C 0.77773 0.67678 0.27228
 N95 N 0.76225 0.67235 0.28334
 C96 C 0.76077 0.68540 0.29779
 C97 C 0.77346 0.72326 0.32280
 N98 N 0.78451 0.73875 0.32721
 C99 C 0.79899 0.74023 0.31419
 H100 H 0.83210 0.74009 0.28102
 H101 H 0.81558 0.69082 0.24848
 H102 H 0.78237 0.66878 0.25970
 H103 H 0.74972 0.68537 0.30882
 H104 H 0.76087 0.71862 0.33079
 H105 H 0.81003 0.75128 0.31421
 C106 C 0.30748 0.21938 -0.21460
 C107 C 0.29661 0.22489 -0.19847
 C108 C 0.28056 0.21424 -0.19311
 C109 C 0.27520 0.19795 -0.20381
 C110 C 0.28594 0.19250 -0.21976
 C111 C 0.30218 0.20328 -0.22519
 C112 C 0.32375 0.22699 -0.22312
 N113 N 0.32829 0.21586 -0.23850
 C114 C 0.31530 0.20134 -0.23998
 C115 C 0.27745 0.17621 -0.22733
 N116 N 0.26192 0.17180 -0.21632
 C117 C 0.26033 0.18489 -0.20192
 C118 C 0.27285 0.22286 -0.17697
 N119 N 0.28385 0.23838 -0.17255
 C120 C 0.29840 0.23982 -0.18551
 H121 H 0.33167 0.23964 -0.21849
 H122 H 0.31541 0.19024 -0.25096
 H123 H 0.28219 0.16818 -0.23986
 H124 H 0.24922 0.18490 -0.19094
 H125 H 0.26022 0.21823 -0.16903
 H126 H 0.30942 0.25089 -0.18546
 C127 C 0.69271 0.28040 -0.21457
 C128 C 0.70356 0.27492 -0.19841
 C129 C 0.71961 0.28558 -0.19308
 C130 C 0.72500 0.30183 -0.20384
 C131 C 0.71428 0.30724 -0.21982
 C132 C 0.69804 0.29646 -0.22522
 C133 C 0.67645 0.27277 -0.22307
 N134 N 0.67194 0.28386 -0.23851
 C135 C 0.68494 0.29836 -0.24003
 C136 C 0.72280 0.32350 -0.22745
 N137 N 0.73832 0.32792 -0.21644
 C138 C 0.73988 0.31487 -0.20199
 C139 C 0.72730 0.27699 -0.17690
 N140 N 0.71628 0.26149 -0.17244
 C141 C 0.70174 0.26002 -0.18539
 H142 H 0.66851 0.26014 -0.21840
 H143 H 0.68486 0.30943 -0.25106
 H144 H 0.71809 0.33150 -0.24001
 H145 H 0.75097 0.31488 -0.19099
 H146 H 0.73993 0.28163 -0.16897
 H147 H 0.69071 0.24896 -0.18532
 C148 C 0.19264 0.78071 0.28533
 C149 C 0.20338 0.77525 0.30157
 C150 C 0.21941 0.78590 0.30699
 C151 C 0.22488 0.80213 0.29623
 C152 C 0.21426 0.80753 0.28018
 C153 C 0.19805 0.79675 0.27469
 C154 C 0.17644 0.77309 0.27674
 N155 N 0.17202 0.78415 0.26126
 C156 C 0.18504 0.79863 0.25980
 C157 C 0.22284 0.82376 0.27258
 N158 N 0.23829 0.82820 0.28367
 C159 C 0.23975 0.81517 0.29816
 C160 C 0.22699 0.77733 0.32322
 N161 N 0.21592 0.76185 0.32764
 C162 C 0.20147 0.76037 0.31459
 H163 H 0.16844 0.76049 0.28136
 H164 H 0.18502 0.80968 0.24876
 H165 H 0.21820 0.83175 0.25997
 H166 H 0.25078 0.81519 0.30923
 H167 H 0.23956 0.78197 0.33123
 H168 H 0.19043 0.74932 0.31461
 C169 C 0.46953 0.44257 0.46465
 C170 C 0.47497 0.45336 0.44843
 C171 C 0.46431 0.46939 0.44304
 C172 C 0.44806 0.47482 0.45381
 C173 C 0.44268 0.46415 0.46983
 C174 C 0.45347 0.44794 0.47529
 C175 C 0.47716 0.42635 0.47321
 N176 N 0.46610 0.42189 0.48868
 C177 C 0.45160 0.43490 0.49015
 C178 C 0.42644 0.47270 0.47744
 N179 N 0.42198 0.48817 0.46639
 C180 C 0.43501 0.48967 0.45192
 C181 C 0.47287 0.47702 0.42682
 N182 N 0.48836 0.46598 0.42238
 C183 C 0.48985 0.45150 0.43540
 H184 H 0.48977 0.41838 0.46858
 H185 H 0.44055 0.43484 0.50119
 H186 H 0.41845 0.46804 0.49003
 H187 H 0.43496 0.50073 0.44089
 H188 H 0.46821 0.48961 0.41884
 H189 H 0.50092 0.44047 0.43536
 C190 C -0.03048 -0.05761 0.96452
 C191 C -0.02497 -0.04677 0.94836
 C192 C -0.03558 -0.03069 0.94302
 C193 C -0.05184 -0.02527 0.95376
 C194 C -0.05729 -0.03599 0.96974
 C195 C -0.04655 -0.05225 0.97515
 C196 C -0.02290 -0.07389 0.97303
 N197 N -0.03401 -0.07838 0.98846
 C198 C -0.04849 -0.06535 0.98996
 C199 C -0.07353 -0.02744 0.97735
 N200 N -0.07791 -0.01190 0.96633
 C201 C -0.06484 -0.01036 0.95190
 C202 C -0.02696 -0.02301 0.92686
 N203 N -0.01148 -0.03406 0.92241
 C204 C -0.01005 -0.04861 0.93537
 H205 H -0.01028 -0.08185 0.96838
 H206 H -0.05957 -0.06541 1.00098
 H207 H -0.08155 -0.03214 0.98990
 H208 H -0.06482 0.00073 0.94090
 H209 H -0.03156 -0.01037 0.91892
 H210 H 0.00098 -0.05966 0.93531
 C211 C 1.03044 0.55748 0.96467
 C212 C 1.02497 0.54664 0.94851
 C213 C 1.03564 0.53061 0.94315
 C214 C 1.05191 0.52523 0.95388
 C215 C 1.05733 0.53595 0.96986
 C216 C 1.04654 0.55217 0.97528
 C217 C 1.02280 0.57371 0.97319
 N218 N 1.03390 0.57822 0.98861
 C219 C 1.04843 0.56525 0.99010
 C220 C 1.07361 0.52744 0.97745
 N221 N 1.07803 0.51193 0.96643
 C222 C 1.06497 0.51037 0.95200
 C223 C 1.02704 0.52292 0.92699
 N224 N 1.01152 0.53392 0.92256
 C225 C 1.01004 0.54844 0.93552
 H226 H 1.01015 0.58164 0.96855
 H227 H 1.05951 0.56533 1.00111
 H228 H 1.08162 0.53215 0.99001
 H229 H 1.06498 0.49929 0.94100
 H230 H 1.03169 0.51031 0.91904
 H231 H 0.99896 0.55946 0.93547
 C232 C 0.53075 0.05702 0.46476
 C233 C 0.52527 0.04625 0.44856
 C234 C 0.53595 0.03025 0.44313
 C235 C 0.55223 0.02482 0.45384
 C236 C 0.55765 0.03547 0.46985
 C237 C 0.54684 0.05166 0.47535
 C238 C 0.52312 0.07322 0.47336
 N239 N 0.53422 0.07768 0.48879
 C240 C 0.54874 0.06469 0.49021
 C241 C 0.57392 0.02694 0.47741
 N242 N 0.57835 0.01148 0.46633
 C243 C 0.56529 0.00998 0.45189
 C244 C 0.52734 0.02262 0.42694
 N245 N 0.51182 0.03364 0.42256
 C246 C 0.51035 0.04811 0.43559
 H247 H 0.51049 0.08117 0.46877
 H248 H 0.55982 0.06475 0.50122
 H249 H 0.58193 0.03160 0.48999
 H250 H 0.56530 -0.00106 0.44085
 H251 H 0.53199 0.01005 0.41894
 H252 H 0.49927 0.05912 0.43559
 C253 C -0.03035 0.05763 0.53605
 C254 C -0.02491 0.04686 0.55228
 C255 C -0.03555 0.03081 0.55766
 C256 C -0.05177 0.02535 0.54688
 C257 C -0.05715 0.03600 0.53085
 C258 C -0.04638 0.05224 0.52540
 C259 C -0.02274 0.07387 0.52749
 N260 N -0.03379 0.07830 0.51201
 C261 C -0.04826 0.06527 0.51053
 C262 C -0.07336 0.02743 0.52322
 N263 N -0.07781 0.01195 0.53427
 C264 C -0.06480 0.01047 0.54875
 C265 C -0.02700 0.02320 0.57389
 N266 N -0.01153 0.03426 0.57834
 C267 C -0.01005 0.04875 0.56532
 H268 H -0.01015 0.08186 0.53214
 H269 H -0.05929 0.06530 0.49948
 H270 H -0.08134 0.03207 0.51062
 H271 H -0.06485 -0.00058 0.55979
 H272 H -0.03164 0.01060 0.58187
 H273 H 0.00100 0.05979 0.56536
 C274 C 0.46946 0.55770 0.03552
 C275 C 0.47487 0.54690 0.05174
 C276 C 0.46420 0.53087 0.05710
 C277 C 0.44799 0.52543 0.04630
 C278 C 0.44264 0.53610 0.03026
 C279 C 0.45343 0.55232 0.02484
 C280 C 0.47711 0.57393 0.02698
 N281 N 0.46607 0.57838 0.01149
 C282 C 0.45158 0.56537 0.00997
 C283 C 0.42642 0.52755 0.02261
 N284 N 0.42194 0.51207 0.03365
 C285 C 0.43494 0.51057 0.04815
 C286 C 0.47272 0.52323 0.07333
 N287 N 0.48820 0.53427 0.07781
 C288 C 0.48972 0.54876 0.06480
 H289 H 0.48971 0.58189 0.03166
 H290 H 0.44055 0.56541 -0.00109
 H291 H 0.41847 0.53221 0.01001
 H292 H 0.43486 0.49951 0.05917
 H293 H 0.46806 0.51063 0.08129
 H294 H 0.50078 0.55979 0.06487
 C295 C 0.53065 -0.05737 0.03598
 C296 C 0.52525 -0.04662 0.05222
 C297 C 0.53594 -0.03061 0.05761
 C298 C 0.55215 -0.02517 0.04681
 C299 C 0.55749 -0.03579 0.03075
 C300 C 0.54667 -0.05199 0.02530
 C301 C 0.52299 -0.07357 0.02742
 N302 N 0.53400 -0.07800 0.01191
 C303 C 0.54850 -0.06500 0.01042
 C304 C 0.57371 -0.02724 0.02311
 N305 N 0.57821 -0.01179 0.03417
 C306 C 0.56522 -0.01032 0.04868
 C307 C 0.52742 -0.02302 0.07386
 N308 N 0.51193 -0.03406 0.07832
 C309 C 0.51040 -0.04851 0.06528
 H310 H 0.51039 -0.08155 0.03208
 H311 H 0.55952 -0.06504 -0.00065
 H312 H 0.58166 -0.03187 0.01049
 H313 H 0.56531 0.00071 0.05973
 H314 H 0.53210 -0.01045 0.08185
 H315 H 0.49933 -0.05953 0.06534
 C316 C 1.03062 0.44310 0.53573
 C317 C 1.02524 0.45379 0.55202
 C318 C 1.03591 0.46981 0.55743
 C319 C 1.05209 0.47532 0.54661
 C320 C 1.05741 0.46474 0.53051
 C321 C 1.04661 0.44854 0.52504
 C322 C 1.02297 0.42691 0.52714
 N323 N 1.03396 0.42254 0.51161
 C324 C 1.04844 0.43558 0.51011
 C325 C 1.07361 0.47334 0.52285
 N326 N 1.07809 0.48877 0.53396
 C327 C 1.06513 0.49019 0.54850
 C328 C 1.02740 0.47734 0.57371
 N329 N 1.01195 0.46626 0.57818
 C330 C 1.01042 0.45184 0.56510
 H331 H 1.01040 0.41890 0.53181
 H332 H 1.05943 0.43558 0.49902
 H333 H 1.08153 0.46874 0.51020
 H334 H 1.06520 0.50118 0.55959
 H335 H 1.03207 0.48990 0.58173
 H336 H 0.99937 0.44080 0.56515
 C337 C 0.40444 0.00863 0.22460
 H338 H 0.40520 0.02169 0.23309
 C339 C 0.41706 0.00594 0.20914
 H340 H 0.42755 0.01699 0.20563
 C341 C 0.39004 -0.02189 0.21893
 H342 H 0.37972 -0.03283 0.22295
 C343 C 0.40240 -0.02515 0.20335
 H344 H 0.40142 -0.03851 0.19532
 N345 N 0.39112 -0.00510 0.22905
 C346 C 0.34535 0.02562 0.25941
 H347 H 0.34452 0.01716 0.27249
 C348 C 0.33281 0.04115 0.25664
 H349 H 0.32231 0.04474 0.26764
 C350 C 0.35985 0.03116 0.22892
 H351 H 0.37017 0.02706 0.21801
 C352 C 0.34757 0.04679 0.22558
 H353 H 0.34862 0.05479 0.21219
 Zn354 Zn 0.37483 -0.00043 0.25046
 N355 N 0.35867 0.02108 0.24573
 C356 C 0.38987 0.02102 0.28207
 N357 N 0.39096 0.00421 0.27200
 C358 C 0.40422 -0.00955 0.27655
 C359 C 0.41677 -0.00685 0.29207
 C360 C 0.40216 0.02430 0.29769
 C361 C 0.34535 -0.02638 0.24127
 C362 C 0.33274 -0.04188 0.24392
 C363 C 0.34724 -0.04762 0.27508
 C364 C 0.35959 -0.03202 0.27186
 N365 N 0.35858 -0.02191 0.25506
 H366 H 0.37960 0.03199 0.27795
 H367 H 0.40499 -0.02264 0.26810
 H368 H 0.42721 -0.01790 0.29566
 H369 H 0.40118 0.03770 0.30567
 H370 H 0.34464 -0.01790 0.22820
 H371 H 0.32232 -0.04541 0.23283
 H372 H 0.34816 -0.05565 0.28845
 H373 H 0.36985 -0.02797 0.28284
 C374 C 0.33398 0.05185 0.23959
 C375 C 0.41598 -0.01108 0.19840
 C376 C 0.33374 -0.05261 0.26096
 C377 C 0.41568 0.01022 0.30275
 C378 C 0.09603 -0.00871 0.72449
 H379 H 0.09526 -0.02178 0.73297
 C380 C 0.08342 -0.00599 0.70903
 H381 H 0.07293 -0.01703 0.70551
 C382 C 0.11044 0.02181 0.71883
 H383 H 0.12077 0.03275 0.72287
 C384 C 0.09809 0.02511 0.70326
 H385 H 0.09908 0.03848 0.69523
 N386 N 0.10935 0.00501 0.72894
 C387 C 0.15508 -0.02577 0.75933
 H388 H 0.15591 -0.01732 0.77241
 C389 C 0.16760 -0.04131 0.75658
 H390 H 0.17809 -0.04492 0.76759
 C391 C 0.14061 -0.03128 0.72884
 H392 H 0.13029 -0.02716 0.71792
 C393 C 0.15287 -0.04693 0.72551
 H394 H 0.15182 -0.05492 0.71214
 Zn395 Zn 0.12562 0.00031 0.75037
 N396 N 0.14177 -0.02121 0.74564
 C397 C 0.11054 -0.02119 0.78196
 N398 N 0.10946 -0.00436 0.77189
 C399 C 0.09621 0.00940 0.77644
 C400 C 0.08365 0.00668 0.79195
 C401 C 0.09823 -0.02448 0.79757
 C402 C 0.15512 0.02627 0.74121
 C403 C 0.16772 0.04176 0.74386
 C404 C 0.15319 0.04745 0.77502
 C405 C 0.14085 0.03186 0.77179
 N406 N 0.14187 0.02177 0.75498
 H407 H 0.12081 -0.03215 0.77784
 H408 H 0.09545 0.02250 0.76800
 H409 H 0.07320 0.01774 0.79554
 H410 H 0.09920 -0.03789 0.80555
 H411 H 0.15584 0.01780 0.72813
 H412 H 0.17815 0.04531 0.73278
 H413 H 0.15225 0.05546 0.78840
 H414 H 0.13058 0.02779 0.78276
 C415 C 0.16644 -0.05201 0.73954
 C416 C 0.08451 0.01105 0.69829
 C417 C 0.16670 0.05247 0.76091
 C418 C 0.08471 -0.01040 0.80263
 C419 C 0.59554 0.49110 0.22408
 H420 H 0.59478 0.47802 0.23255
 C421 C 0.58295 0.49382 0.20860
 H422 H 0.57248 0.48277 0.20506
 C423 C 0.60993 0.52164 0.21847
 H424 H 0.62024 0.53258 0.22252
 C425 C 0.59760 0.52493 0.20288
 H426 H 0.59859 0.53831 0.19487
 N427 N 0.60884 0.50483 0.22857
 C428 C 0.65458 0.47413 0.25902
 H429 H 0.65538 0.48260 0.27209
 C430 C 0.66715 0.45863 0.25629
 H431 H 0.67764 0.45506 0.26732
 C432 C 0.64015 0.46855 0.22852
 H433 H 0.62983 0.47264 0.21760
 C434 C 0.65245 0.45294 0.22522
 H435 H 0.65144 0.44494 0.21185
 Zn436 Zn 0.62509 0.50015 0.25001
 N437 N 0.64127 0.47865 0.24532
 C438 C 0.61003 0.47867 0.28161
 N439 N 0.60893 0.49549 0.27153
 C440 C 0.59567 0.50923 0.27608
 C441 C 0.58312 0.50653 0.29160
 C442 C 0.59774 0.47538 0.29724
 C443 C 0.65459 0.52610 0.24085
 C444 C 0.66720 0.54159 0.24350
 C445 C 0.65264 0.54733 0.27463
 C446 C 0.64029 0.53173 0.27141
 N447 N 0.64133 0.52162 0.25462
 H448 H 0.62030 0.46771 0.27750
 H449 H 0.59490 0.52233 0.26762
 H450 H 0.57267 0.51758 0.29519
 H451 H 0.59873 0.46199 0.30523
 H452 H 0.65532 0.51761 0.22778
 H453 H 0.67764 0.54512 0.23242
 H454 H 0.65169 0.55535 0.28800
 H455 H 0.63001 0.52768 0.28238
 C456 C 0.66603 0.44792 0.23926
 C457 C 0.58404 0.51087 0.19788
 C458 C 0.66616 0.55232 0.26053
 C459 C 0.58421 0.48946 0.30229
 C460 C 0.90441 0.50849 0.72455
 H461 H 0.90513 0.52155 0.73306
 C462 C 0.91705 0.50584 0.70910
 H463 H 0.92752 0.51691 0.70561
 C464 C 0.89005 0.47797 0.71882
 H465 H 0.87973 0.46701 0.72282
 C466 C 0.90243 0.47474 0.70326
 H467 H 0.90148 0.46139 0.69520
 N468 N 0.89110 0.49474 0.72896
 C469 C 0.84524 0.52537 0.75929
 H470 H 0.84440 0.51688 0.77236
 C471 C 0.83270 0.54089 0.75654
 H472 H 0.82218 0.54445 0.76754
 C473 C 0.85978 0.53098 0.72884
 H474 H 0.87013 0.52691 0.71794
 C475 C 0.84751 0.54661 0.72551
 H476 H 0.84857 0.55464 0.71215
 Zn477 Zn 0.87477 0.49937 0.75036
 N478 N 0.85859 0.52086 0.74563
 C479 C 0.88973 0.52084 0.78199
 N480 N 0.89087 0.50402 0.77193
 C481 C 0.90413 0.49028 0.77650
 C482 C 0.91665 0.49300 0.79204
 C483 C 0.90199 0.52413 0.79763
 C484 C 0.84533 0.47339 0.74111
 C485 C 0.83273 0.45789 0.74374
 C486 C 0.84720 0.45214 0.77492
 C487 C 0.85954 0.46775 0.77171
 N488 N 0.85854 0.47787 0.75492
 H489 H 0.87946 0.53179 0.77786
 H490 H 0.90493 0.47719 0.76806
 H491 H 0.92711 0.48196 0.79564
 H492 H 0.90099 0.53753 0.80560
 H493 H 0.84464 0.48188 0.72804
 H494 H 0.82232 0.45435 0.73263
 H495 H 0.84810 0.44411 0.78829
 H496 H 0.86978 0.47180 0.78272
 C497 C 0.83389 0.55163 0.73952
 C498 C 0.91600 0.48883 0.69833
 C499 C 0.83372 0.44715 0.76077
 C500 C 0.91553 0.51007 0.80271
 C501 C 0.22355 0.40490 0.00864
 H502 H 0.23206 0.40560 0.02169
 C503 C 0.20805 0.41751 0.00603
 H504 H 0.20454 0.42793 0.01712
 C505 C 0.21784 0.39067 -0.02193
 H506 H 0.22187 0.38041 -0.03292
 C507 C 0.20224 0.40302 -0.02511
 H508 H 0.19419 0.40210 -0.03846
 N509 N 0.22800 0.39167 -0.00515
 C510 C 0.25862 0.34583 0.02523
 H511 H 0.27167 0.34509 0.01671
 C512 C 0.25596 0.33321 0.04070
 H513 H 0.26702 0.32273 0.04419
 C514 C 0.22809 0.36021 0.03098
 H515 H 0.21714 0.37053 0.02698
 C516 C 0.22486 0.34785 0.04656
 H517 H 0.21151 0.34882 0.05463
 Zn518 Zn 0.24949 0.37543 -0.00061
 N519 N 0.24487 0.35914 0.02082
 C520 C 0.28113 0.39043 0.02084
 N521 N 0.27101 0.39160 0.00406
 C522 C 0.27551 0.40493 -0.00964
 C523 C 0.29103 0.41748 -0.00692
 C524 C 0.29676 0.40272 0.02413
 C525 C 0.24034 0.34606 -0.02669
 C526 C 0.24304 0.33351 -0.04220
 C527 C 0.27418 0.34812 -0.04788
 C528 C 0.27091 0.36041 -0.03226
 N529 N 0.25410 0.35931 -0.02216
 H530 H 0.27706 0.38010 0.03176
 H531 H 0.26701 0.40575 -0.02269
 H532 H 0.29458 0.42798 -0.01793
 H533 H 0.30479 0.40167 0.03749
 H534 H 0.22726 0.34528 -0.01821
 H535 H 0.23198 0.32306 -0.04577
 H536 H 0.28757 0.34910 -0.05588
 H537 H 0.28188 0.37068 -0.02817
 C538 C 0.23895 0.33427 0.05148
 C539 C 0.19728 0.41651 -0.01098
 C540 C 0.26010 0.33459 -0.05291
 C541 C 0.30177 0.41631 0.01010
 C542 C 0.72477 0.09520 -0.00915
 H543 H 0.73325 0.09439 -0.02223
 C544 C 0.70925 0.08266 -0.00641
 H545 H 0.70567 0.07218 -0.01742
 C546 C 0.71921 0.10967 0.02133
 H547 H 0.72331 0.11998 0.03224
 C548 C 0.70358 0.09739 0.02466
 H549 H 0.69557 0.09843 0.03803
 N550 N 0.72931 0.10851 0.00453
 C551 C 0.75989 0.15409 -0.02630
 H552 H 0.77300 0.15486 -0.01787
 C553 C 0.75717 0.16663 -0.04182
 H554 H 0.76822 0.17708 -0.04543
 C555 C 0.72931 0.13974 -0.03178
 H556 H 0.71835 0.12947 -0.02765
 C557 C 0.72601 0.15203 -0.04740
 H558 H 0.71260 0.15105 -0.05537
 Zn559 Zn 0.75082 0.12468 -0.00020
 N560 N 0.74615 0.14083 -0.02173
 C561 C 0.78239 0.10947 -0.02162
 N562 N 0.77229 0.10844 -0.00482
 C563 C 0.77678 0.09520 0.00896
 C564 C 0.79227 0.08259 0.00629
 C565 C 0.79799 0.09712 -0.02487
 C566 C 0.74177 0.15424 0.02569
 C567 C 0.74447 0.16684 0.04116
 C568 C 0.77558 0.15219 0.04691
 C569 C 0.77230 0.13985 0.03133
 N570 N 0.75550 0.14094 0.02122
 H571 H 0.77833 0.11974 -0.03260
 H572 H 0.76831 0.09448 0.02204
 H573 H 0.79581 0.07215 0.01737
 H574 H 0.80600 0.09806 -0.03825
 H575 H 0.72869 0.15501 0.01721
 H576 H 0.73342 0.17731 0.04469
 H577 H 0.78895 0.15120 0.05493
 H578 H 0.78325 0.12954 0.02729
 C579 C 0.74009 0.16555 -0.05249
 C580 C 0.69853 0.08382 0.01063
 C581 C 0.76151 0.16575 0.05189
 C582 C 0.80299 0.08361 -0.01075
 C583 C 0.22357 0.59553 0.49100
 H584 H 0.23206 0.59475 0.47793
 C585 C 0.20806 0.58295 0.49370
 H586 H 0.20452 0.57248 0.48267
 C587 C 0.21794 0.60993 0.52150
 H588 H 0.22200 0.62024 0.53243
 C589 C 0.20232 0.59762 0.52478
 H590 H 0.19430 0.59862 0.53815
 N591 N 0.22806 0.60883 0.50471
 C592 C 0.25866 0.65449 0.47403
 H593 H 0.27174 0.65526 0.48251
 C594 C 0.25598 0.66705 0.45851
 H595 H 0.26704 0.67751 0.45496
 C596 C 0.22812 0.64010 0.46842
 H597 H 0.21717 0.62981 0.47249
 C598 C 0.22486 0.65240 0.45279
 H599 H 0.21149 0.65141 0.44477
 Zn600 Zn 0.24956 0.62503 0.50005
 N601 N 0.24492 0.64121 0.47853
 C602 C 0.28119 0.60990 0.47865
 N603 N 0.27106 0.60883 0.49544
 C604 C 0.27556 0.59557 0.50920
 C605 C 0.29108 0.58299 0.50654
 C606 C 0.29681 0.59758 0.47541
 C607 C 0.24042 0.65455 0.52596
 C608 C 0.24309 0.66714 0.54143
 C609 C 0.27422 0.65253 0.54721
 C610 C 0.27097 0.64019 0.53162
 N611 N 0.25418 0.64126 0.52150
 H612 H 0.27712 0.62017 0.46768
 H613 H 0.26707 0.59482 0.52227
 H614 H 0.29462 0.57255 0.51761
 H615 H 0.30484 0.59855 0.46204
 H616 H 0.22735 0.65530 0.51746
 H617 H 0.23203 0.67760 0.54495
 H618 H 0.28759 0.65156 0.55524
 H619 H 0.28194 0.62990 0.52759
 C620 C 0.23895 0.66595 0.44778
 C621 C 0.19732 0.58406 0.51073
 C622 C 0.26013 0.66608 0.55218
 C623 C 0.30181 0.58406 0.48951
 C624 C 0.72390 0.90463 0.50874
 H625 H 0.73235 0.90534 0.52183
 C626 C 0.70839 0.91721 0.50607
 H627 H 0.70482 0.92763 0.51715
 C628 C 0.71835 0.89039 0.47814
 H629 H 0.72244 0.88015 0.46716
 C630 C 0.70273 0.90272 0.47490
 H631 H 0.69474 0.90179 0.46151
 N632 N 0.72843 0.89141 0.49496
 C633 C 0.75896 0.84561 0.52549
 H634 H 0.77206 0.84487 0.51703
 C635 C 0.75625 0.83299 0.54096
 H636 H 0.76731 0.82253 0.54451
 C637 C 0.72839 0.85995 0.53108
 H638 H 0.71744 0.87025 0.52702
 C639 C 0.72510 0.84759 0.54666
 H640 H 0.71171 0.84856 0.55466
 Zn641 Zn 0.74992 0.87519 0.49959
 N642 N 0.74522 0.85889 0.52100
 C643 C 0.78145 0.89022 0.52118
 N644 N 0.77139 0.89138 0.50436
 C645 C 0.77593 0.90472 0.49069
 C646 C 0.79143 0.91729 0.49347
 C647 C 0.79706 0.90252 0.52454
 C648 C 0.74092 0.84583 0.47346
 C649 C 0.74367 0.83332 0.45792
 C650 C 0.77482 0.84798 0.45239
 C651 C 0.77149 0.86023 0.46802
 N652 N 0.75464 0.85909 0.47806
 H653 H 0.77735 0.87988 0.53208
 H654 H 0.76748 0.90554 0.47760
 H655 H 0.79501 0.92779 0.48247
 H656 H 0.80504 0.90148 0.53792
 H657 H 0.72780 0.84502 0.48188
 H658 H 0.73264 0.82287 0.45429
 H659 H 0.78824 0.84900 0.44443
 H660 H 0.78243 0.87050 0.47217
 C661 C 0.73919 0.83405 0.55166
 C662 C 0.69770 0.91620 0.48901
 C663 C 0.76077 0.83445 0.44727
 C664 C 0.80211 0.91613 0.51053
 C665 C 0.00885 0.22452 0.40429
 H666 H 0.02192 0.23303 0.40502
 C667 C 0.00620 0.20905 0.41691
 H668 H 0.01727 0.20554 0.42736
 C669 C -0.02170 0.21882 0.38998
 H670 H -0.03268 0.22285 0.37969
 C671 C -0.02493 0.20324 0.40234
 H672 H -0.03830 0.19519 0.40139
 N673 N -0.00491 0.22897 0.39102
 C674 C 0.02567 0.25945 0.34523
 H675 H 0.01718 0.27253 0.34443
 C676 C 0.04117 0.25674 0.33266
 H677 H 0.04471 0.26777 0.32217
 C678 C 0.03130 0.22895 0.35968
 H679 H 0.02724 0.21802 0.37000
 C680 C 0.04691 0.22566 0.34737
 H681 H 0.05494 0.21229 0.34839
 Zn682 Zn -0.00030 0.25042 0.37475
 N683 N 0.02118 0.24574 0.35855
 C684 C 0.02116 0.28205 0.38975
 N685 N 0.00435 0.27195 0.39088
 C686 C -0.00938 0.27647 0.40416
 C687 C -0.00667 0.29199 0.41670
 C688 C 0.02445 0.29768 0.40203
 C689 C -0.02632 0.24123 0.34534
 C690 C -0.04183 0.24388 0.33277
 C691 C -0.04757 0.27503 0.34730
 C692 C -0.03195 0.27180 0.35961
 N693 N -0.02182 0.25501 0.35857
 H694 H 0.03210 0.27797 0.37946
 H695 H -0.02246 0.26799 0.40496
 H696 H -0.01770 0.29555 0.42717
 H697 H 0.03783 0.30569 0.40102
 H698 H -0.01782 0.22816 0.34461
 H699 H -0.04538 0.23280 0.32235
 H700 H -0.05560 0.28841 0.34825
 H701 H -0.02788 0.28279 0.36986
 C702 C 0.05191 0.23970 0.33379
 C703 C -0.01083 0.19829 0.41588
 C704 C -0.05257 0.26092 0.33381
 C705 C 0.01039 0.30270 0.41558
 C706 C -0.00924 0.72382 0.09496
 H707 H -0.02234 0.73226 0.09419
 C708 C -0.00651 0.70830 0.08242
 H709 H -0.01757 0.70470 0.07199
 C710 C 0.02135 0.71833 0.10929
 H711 H 0.03231 0.72245 0.11955
 C712 C 0.02465 0.70271 0.09701
 H713 H 0.03806 0.69473 0.09800
 N714 N 0.00451 0.72839 0.10820
 C715 C -0.02614 0.75899 0.15385
 H716 H -0.01767 0.77208 0.15458
 C717 C -0.04162 0.75630 0.16645
 H718 H -0.04517 0.76736 0.17690
 C719 C -0.03174 0.72842 0.13956
 H720 H -0.02768 0.71746 0.12928
 C721 C -0.04734 0.72515 0.15190
 H722 H -0.05534 0.71177 0.15096
 Zn723 Zn -0.00017 0.74990 0.12436
 N724 N -0.02165 0.74524 0.14059
 C725 C -0.02170 0.78145 0.10924
 N726 N -0.00487 0.77137 0.10814
 C727 C 0.00885 0.77589 0.09485
 C728 C 0.00613 0.79140 0.08228
 C729 C -0.02500 0.79706 0.09693
 C730 C 0.02586 0.74088 0.15383
 C731 C 0.04136 0.74362 0.16638
 C732 C 0.04703 0.77473 0.15170
 C733 C 0.03142 0.77142 0.13941
 N734 N 0.02133 0.75460 0.14053
 H735 H -0.03264 0.77736 0.11953
 H736 H 0.02195 0.76743 0.09408
 H737 H 0.01718 0.79497 0.07182
 H738 H -0.03839 0.80506 0.09792
 H739 H 0.01739 0.72780 0.15462
 H740 H 0.04494 0.73258 0.17686
 H741 H 0.05503 0.78812 0.15069
 H742 H 0.02732 0.78235 0.12910
 C743 C -0.05234 0.73925 0.16542
 C744 C 0.01057 0.69763 0.08350
 C745 C 0.05207 0.76067 0.16526
 C746 C -0.01093 0.80210 0.08338
 C747 C 0.49113 0.22376 0.59633
 H748 H 0.47804 0.23222 0.59556
 C749 C 0.49385 0.20827 0.58376
 H750 H 0.48280 0.20471 0.57330
 C751 C 0.52169 0.21819 0.61069
 H752 H 0.53264 0.22227 0.62098
 C753 C 0.52499 0.20259 0.59838
 H754 H 0.53838 0.19459 0.59936
 N755 N 0.50487 0.22828 0.60960
 C756 C 0.47413 0.25881 0.65523
 H757 H 0.48258 0.27191 0.65599
 C758 C 0.45860 0.25609 0.66778
 H759 H 0.45500 0.26714 0.67821
 C760 C 0.46861 0.22824 0.64090
 H761 H 0.47272 0.21729 0.63063
 C762 C 0.45298 0.22495 0.65319
 H763 H 0.44499 0.21155 0.65220
 Zn764 Zn 0.50017 0.24976 0.62578
 N765 N 0.47868 0.24507 0.64198
 C766 C 0.47865 0.28131 0.61064
 N767 N 0.49548 0.27124 0.60956
 C768 C 0.50922 0.27575 0.59628
 C769 C 0.50649 0.29123 0.58368
 C770 C 0.47535 0.29691 0.59830
 C771 C 0.52622 0.24075 0.65525
 C772 C 0.54173 0.24348 0.66779
 C773 C 0.54735 0.27462 0.65314
 C774 C 0.53173 0.27130 0.64085
 N775 N 0.52166 0.25447 0.64197
 H776 H 0.46770 0.27724 0.62093
 H777 H 0.52231 0.26729 0.59552
 H778 H 0.51754 0.29479 0.57322
 H779 H 0.46196 0.30490 0.59927
 H780 H 0.51777 0.22765 0.65603
 H781 H 0.54533 0.23244 0.67825
 H782 H 0.55533 0.28802 0.65213
 H783 H 0.52762 0.28224 0.63056
 C784 C 0.44791 0.23902 0.66670
 C785 C 0.51092 0.19757 0.58484
 C786 C 0.55242 0.26056 0.66668
 C787 C 0.48943 0.30193 0.58475
 C788 C 0.50886 0.72380 0.90461
 H789 H 0.52194 0.73228 0.90535
 C790 C 0.50619 0.70830 0.91720
 H791 H 0.51726 0.70475 0.92764
 C792 C 0.47828 0.71820 0.89032
 H793 H 0.46730 0.72227 0.88005
 C794 C 0.47503 0.70259 0.90264
 H795 H 0.46165 0.69457 0.90169
 N796 N 0.49509 0.72830 0.89136
 C797 C 0.52564 0.75891 0.84563
 H798 H 0.51715 0.77198 0.84488
 C799 C 0.54114 0.75624 0.83304
 H800 H 0.54467 0.76730 0.82258
 C801 C 0.53130 0.72836 0.85999
 H802 H 0.52725 0.71741 0.87029
 C803 C 0.54691 0.72511 0.84767
 H804 H 0.55494 0.71175 0.84864
 Zn805 Zn 0.49971 0.74980 0.87516
 N806 N 0.52117 0.74516 0.85892
 C807 C 0.52120 0.78139 0.89021
 N808 N 0.50440 0.77128 0.89134
 C809 C 0.49068 0.77578 0.90464
 C810 C 0.49340 0.79129 0.91720
 C811 C 0.52450 0.79700 0.90250
 C812 C 0.47365 0.74073 0.84574
 C813 C 0.45812 0.74344 0.83320
 C814 C 0.45246 0.77456 0.84782
 C815 C 0.46809 0.77127 0.86011
 N816 N 0.47818 0.75446 0.85900
 H817 H 0.53214 0.77732 0.87990
 H818 H 0.47760 0.76731 0.90543
 H819 H 0.48237 0.79484 0.92768
 H820 H 0.53788 0.80501 0.90149
 H821 H 0.48212 0.72765 0.84496
 H822 H 0.45455 0.73240 0.82275
 H823 H 0.44445 0.78795 0.84882
 H824 H 0.47218 0.78222 0.87038
 C825 C 0.55189 0.73920 0.83412
 C826 C 0.48913 0.69758 0.91616
 C827 C 0.44741 0.76049 0.83429
 C828 C 0.51045 0.80201 0.91607
 C829 C 0.12663 0.22514 0.27419
 C830 C 0.12191 0.24653 0.27740
 C831 C 0.10671 0.24950 0.28951
 C832 C 0.09772 0.23079 0.29722
 C833 C 0.11451 0.21978 0.30657
 C834 C 0.12970 0.21681 0.29446
 C835 C 0.10771 0.21609 0.26708
 C836 C 0.09251 0.21906 0.27919
 C837 C 0.14298 0.22193 0.26115
 C838 C 0.15643 0.21929 0.25044
 C839 C 0.08137 0.23398 0.31025
 C840 C 0.06793 0.23660 0.32098
 H841 H 0.12981 0.25831 0.27075
 H842 H 0.10159 0.26382 0.29323
 H843 H 0.11446 0.21476 0.32140
 H844 H 0.14267 0.20924 0.29892
 H845 H 0.10636 0.20806 0.25371
 H846 H 0.07815 0.21358 0.27619
 C847 C 0.62660 0.72489 0.77445
 C848 C 0.61766 0.70614 0.78215
 C849 C 0.60247 0.70906 0.79427
 C850 C 0.59770 0.73044 0.79751
 C851 C 0.59459 0.73879 0.77724
 C852 C 0.60978 0.73587 0.76512
 C853 C 0.63180 0.73660 0.79249
 C854 C 0.61661 0.73952 0.80461
 C855 C 0.64296 0.72174 0.76140
 C856 C 0.65639 0.71913 0.75068
 C857 C 0.58135 0.73358 0.81056
 C858 C 0.56791 0.73615 0.82130
 H859 H 0.62281 0.69184 0.77840
 H860 H 0.59460 0.69726 0.80091
 H861 H 0.58160 0.74633 0.77281
 H862 H 0.60981 0.74091 0.75030
 H863 H 0.64615 0.74212 0.79548
 H864 H 0.61794 0.74754 0.81799
 C865 C 0.37271 0.77511 0.77470
 C866 C 0.38975 0.76468 0.76517
 C867 C 0.40494 0.76169 0.77728
 C868 C 0.40159 0.76943 0.79774
 C869 C 0.38282 0.75984 0.80452
 C870 C 0.36763 0.76282 0.79241
 C871 C 0.38129 0.79379 0.78292
 C872 C 0.39647 0.79080 0.79503
 C873 C 0.35636 0.77833 0.76166
 C874 C 0.34294 0.78099 0.75094
 C875 C 0.41794 0.76622 0.81078
 C876 C 0.43138 0.76360 0.82150
 H877 H 0.38988 0.76004 0.75022
 H878 H 0.41808 0.75449 0.77271
 H879 H 0.38156 0.75144 0.81768
 H880 H 0.35336 0.75698 0.79519
 H881 H 0.37591 0.80810 0.77953
 H882 H 0.40410 0.80256 0.80202
 C883 C -0.12721 0.27521 0.27405
 C884 C -0.11012 0.26479 0.26458
 C885 C -0.09495 0.26188 0.27673
 C886 C -0.09836 0.26966 0.29716
 C887 C -0.11712 0.26003 0.30393
 C888 C -0.13229 0.26295 0.29178
 C889 C -0.11870 0.29393 0.28224
 C890 C -0.10353 0.29101 0.29439
 C891 C -0.14354 0.27835 0.26097
 C892 C -0.15696 0.28096 0.25022
 C893 C -0.08202 0.26653 0.31024
 C894 C -0.06860 0.26396 0.32098
 H895 H -0.10995 0.26012 0.24964
 H896 H -0.08178 0.25470 0.27220
 H897 H -0.11838 0.25166 0.31710
 H898 H -0.14655 0.25708 0.29454
 H899 H -0.12411 0.30822 0.27880
 H900 H -0.09594 0.30280 0.30136
 C901 C -0.12692 0.72496 0.22529
 C902 C -0.11705 0.74460 0.22793
 C903 C -0.10188 0.74750 0.21576
 C904 C -0.09807 0.73047 0.20215
 C905 C -0.11730 0.72706 0.19171
 C906 C -0.13246 0.72416 0.20388
 C907 C -0.11072 0.71004 0.22760
 C908 C -0.09555 0.71294 0.21543
 C909 C -0.14324 0.72183 0.23838
 C910 C -0.15667 0.71924 0.24914
 C911 C -0.08175 0.73359 0.18905
 C912 C -0.06834 0.73617 0.17828
 H913 H -0.12157 0.75529 0.23843
 H914 H -0.09342 0.76068 0.21584
 H915 H -0.11886 0.72693 0.17614
 H916 H -0.14702 0.72154 0.19873
 H917 H -0.11112 0.69823 0.23788
 H918 H -0.08296 0.70362 0.21529
 C919 C 0.37300 0.22451 0.72610
 C920 C 0.39259 0.21949 0.73514
 C921 C 0.40782 0.22244 0.72307
 C922 C 0.40199 0.23013 0.70315
 C923 C 0.39025 0.24845 0.70726
 C924 C 0.37501 0.24549 0.71933
 C925 C 0.37203 0.21254 0.70751
 C926 C 0.38727 0.21550 0.69545
 C927 C 0.35660 0.22132 0.73908
 C928 C 0.34311 0.21872 0.74976
 C929 C 0.41838 0.23331 0.69016
 C930 C 0.43185 0.23592 0.67947
 H931 H 0.39433 0.21409 0.74973
 H932 H 0.42262 0.21958 0.72733
 H933 H 0.39361 0.26251 0.70123
 H934 H 0.36532 0.25702 0.72363
 H935 H 0.36040 0.20261 0.70412
 H936 H 0.38869 0.20810 0.68173
 C937 C 0.62727 0.27515 0.72608
 C938 C 0.62438 0.25391 0.72054
 C939 C 0.60915 0.25094 0.70847
 C940 C 0.59831 0.26950 0.70313
 C941 C 0.61376 0.28298 0.69477
 C942 C 0.62899 0.28595 0.70683
 C943 C 0.60785 0.28157 0.73455
 C944 C 0.59262 0.27860 0.72249
 C945 C 0.64367 0.27834 0.73907
 C946 C 0.65714 0.28097 0.74974
 C947 C 0.58192 0.26630 0.69014
 C948 C 0.56846 0.26368 0.67945
 H949 H 0.63348 0.24223 0.72564
 H950 H 0.60521 0.23672 0.70324
 H951 H 0.61283 0.28961 0.68061
 H952 H 0.64110 0.29512 0.70301
 H953 H 0.60619 0.28789 0.74878
 H954 H 0.57792 0.28237 0.72638
 C955 C 0.12669 0.77529 0.22495
 C956 C 0.13239 0.77502 0.20356
 C957 C 0.11722 0.77205 0.19143
 C958 C 0.09784 0.76963 0.20186
 C959 C 0.09575 0.78778 0.21436
 C960 C 0.11092 0.79075 0.22650
 C961 C 0.11624 0.75606 0.22836
 C962 C 0.10107 0.75309 0.21622
 C963 C 0.14302 0.77848 0.23802
 C964 C 0.15643 0.78111 0.24876
 C965 C 0.08151 0.76643 0.18880
 C966 C 0.06809 0.76380 0.17807
 H967 H 0.14705 0.77700 0.19841
 H968 H 0.11889 0.77148 0.17587
 H969 H 0.08344 0.79744 0.21373
 H970 H 0.11160 0.80296 0.23626
 H971 H 0.12039 0.74570 0.23935
 H972 H 0.09223 0.74018 0.21681
 C973 C 0.27451 0.12665 0.22479
 C974 C 0.27525 0.11995 0.24588
 C975 C 0.28734 0.10474 0.24889
 C976 C 0.29750 0.09772 0.23053
 C977 C 0.30765 0.11562 0.22236
 C978 C 0.29557 0.13083 0.21935
 C979 C 0.26907 0.10857 0.21323
 C980 C 0.28115 0.09336 0.21624
 C981 C 0.26150 0.14302 0.22155
 C982 C 0.25080 0.15646 0.21890
 C983 C 0.31051 0.08135 0.23377
 C984 C 0.32120 0.06790 0.23643
 H985 H 0.26701 0.12657 0.25743
 H986 H 0.28945 0.09833 0.26302
 H987 H 0.32298 0.11630 0.21923
 H988 H 0.30055 0.14454 0.21363
 H989 H 0.25680 0.10779 0.20353
 H990 H 0.27924 0.07955 0.20913
 C991 C 0.77445 0.62649 0.72488
 C992 C 0.77521 0.61975 0.74596
 C993 C 0.78729 0.60453 0.74894
 C994 C 0.79743 0.59753 0.73055
 C995 C 0.80758 0.61545 0.72240
 C996 C 0.79550 0.63067 0.71942
 C997 C 0.76898 0.60844 0.71330
 C998 C 0.78106 0.59321 0.71628
 C999 C 0.76145 0.64287 0.72168
 C1000 C 0.75075 0.65633 0.71905
 C1001 C 0.81043 0.58115 0.73375
 C1002 C 0.82112 0.56769 0.73638
 H1003 H 0.76698 0.62636 0.75753
 H1004 H 0.78941 0.59810 0.76305
 H1005 H 0.82291 0.61612 0.71925
 H1006 H 0.80049 0.64438 0.71372
 H1007 H 0.75671 0.60768 0.70361
 H1008 H 0.77913 0.57941 0.70914
 C1009 C 0.77391 0.37249 0.77494
 C1010 C 0.77611 0.38558 0.79265
 C1011 C 0.78826 0.40076 0.78975
 C1012 C 0.79702 0.40136 0.76943
 C1013 C 0.77966 0.40116 0.75570
 C1014 C 0.76751 0.38598 0.75859
 C1015 C 0.79456 0.36645 0.76967
 C1016 C 0.80671 0.38163 0.76677
 C1017 C 0.76084 0.35614 0.77807
 C1018 C 0.75011 0.34270 0.78067
 C1019 C 0.81011 0.41770 0.76633
 C1020 C 0.82087 0.43113 0.76379
 H1021 H 0.76877 0.38314 0.80626
 H1022 H 0.79133 0.41132 0.80088
 H1023 H 0.77714 0.41199 0.74466
 H1024 H 0.75458 0.38380 0.75004
 H1025 H 0.79922 0.35156 0.76832
 H1026 H 0.82178 0.37975 0.76295
 C1027 C 0.27392 -0.12725 0.27514
 C1028 C 0.28270 -0.12665 0.25483
 C1029 C 0.29486 -0.11147 0.25194
 C1030 C 0.29704 -0.09838 0.26964
 C1031 C 0.30343 -0.11187 0.28600
 C1032 C 0.29127 -0.12705 0.28889
 C1033 C 0.26424 -0.10752 0.27779
 C1034 C 0.27640 -0.09234 0.27490
 C1035 C 0.26084 -0.14359 0.27825
 C1036 C 0.25010 -0.15703 0.28083
 C1037 C 0.31013 -0.08204 0.26654
 C1038 C 0.32089 -0.06862 0.26399
 H1039 H 0.27964 -0.13722 0.24369
 H1040 H 0.30221 -0.10904 0.23833
 H1041 H 0.31636 -0.10969 0.29456
 H1042 H 0.29379 -0.13787 0.29992
 H1043 H 0.24916 -0.10563 0.28160
 H1044 H 0.27173 -0.07745 0.27624
 C1045 C 0.22576 -0.12694 0.72490
 C1046 C 0.22514 -0.11268 0.70797
 C1047 C 0.21308 -0.09744 0.71095
 C1048 C 0.20283 -0.09795 0.73056
 C1049 C 0.21911 -0.09945 0.74550
 C1050 C 0.23116 -0.11469 0.74252
 C1051 C 0.20467 -0.13283 0.72823
 C1052 C 0.19262 -0.11759 0.73121
 C1053 C 0.23874 -0.14334 0.72169
 C1054 C 0.24942 -0.15681 0.71907
 C1055 C 0.18986 -0.08155 0.73377
 C1056 C 0.17918 -0.06808 0.73640
 H1057 H 0.23343 -0.11440 0.69480
 H1058 H 0.21105 -0.08610 0.70033
 H1059 H 0.22099 -0.08942 0.75737
 H1060 H 0.24338 -0.11772 0.75184
 H1061 H 0.19965 -0.14766 0.72825
 H1062 H 0.17727 -0.11937 0.73378
 C1063 C 0.72572 0.37324 0.22476
 C1064 C 0.70714 0.37222 0.21276
 C1065 C 0.69501 0.38741 0.21571
 C1066 C 0.70265 0.40213 0.23036
 C1067 C 0.72258 0.40805 0.22272
 C1068 C 0.73471 0.39286 0.21978
 C1069 C 0.71890 0.37520 0.24573
 C1070 C 0.70677 0.39039 0.24867
 C1071 C 0.73878 0.35690 0.22159
 C1072 C 0.74951 0.34347 0.21899
 C1073 C 0.68959 0.41847 0.23353
 C1074 C 0.67885 0.43190 0.23614
 H1075 H 0.70380 0.36059 0.20283
 H1076 H 0.68128 0.38879 0.20829
 H1077 H 0.72679 0.42286 0.21988
 H1078 H 0.74931 0.39467 0.21441
 H1079 H 0.72322 0.36551 0.25725
 H1080 H 0.70070 0.39371 0.26271
 C1081 C 0.72596 0.62696 0.27468
 C1082 C 0.72206 0.62267 0.25333
 C1083 C 0.70991 0.60749 0.25045
 C1084 C 0.70285 0.59808 0.26920
 C1085 C 0.69379 0.61459 0.28084
 C1086 C 0.70594 0.62977 0.28372
 C1087 C 0.73344 0.60789 0.28310
 C1088 C 0.72129 0.59271 0.28022
 C1089 C 0.73904 0.64330 0.27779
 C1090 C 0.74978 0.65674 0.28035
 C1091 C 0.68977 0.58175 0.26611
 C1092 C 0.67901 0.56833 0.26356
 H1093 H 0.72830 0.63084 0.24151
 H1094 H 0.70574 0.60265 0.23616
 H1095 H 0.67912 0.61438 0.28634
 H1096 H 0.70168 0.64256 0.29169
 H1097 H 0.74708 0.60644 0.29066
 H1098 H 0.72452 0.57826 0.28531
 C1099 C 0.22639 0.12719 0.77512
 C1100 C 0.23268 0.11387 0.75860
 C1101 C 0.22056 0.09867 0.75571
 C1102 C 0.20333 0.09828 0.76961
 C1103 C 0.19355 0.11800 0.76721
 C1104 C 0.20568 0.13320 0.77010
 C1105 C 0.22441 0.11393 0.79274
 C1106 C 0.21228 0.09873 0.78985
 C1107 C 0.23944 0.14355 0.77825
 C1108 C 0.25015 0.15700 0.78083
 C1109 C 0.19027 0.08192 0.76650
 C1110 C 0.17953 0.06849 0.76395
 H1111 H 0.24553 0.11617 0.74994
 H1112 H 0.22301 0.08795 0.74457
 H1113 H 0.17844 0.11987 0.76355
 H1114 H 0.20095 0.14808 0.76893
 H1115 H 0.23187 0.11627 0.80630
 H1116 H 0.20936 0.08805 0.80093
 C1117 C 0.22480 0.27452 0.12616
 C1118 C 0.21513 0.26774 0.10745
 C1119 C 0.21801 0.27987 0.09226
 C1120 C 0.23028 0.29760 0.09727
 C1121 C 0.24903 0.28941 0.10574
 C1122 C 0.24615 0.27728 0.12094
 C1123 C 0.21703 0.29498 0.12954
 C1124 C 0.21991 0.30711 0.11435
 C1125 C 0.22169 0.26147 0.14252
 C1126 C 0.21910 0.25076 0.15597
 C1127 C 0.23338 0.31067 0.08092
 C1128 C 0.23592 0.32143 0.06749
 H1129 H 0.20675 0.25456 0.10624
 H1130 H 0.21210 0.27709 0.07803
 H1131 H 0.26331 0.29284 0.10029
 H1132 H 0.25796 0.27031 0.12850
 H1133 H 0.20989 0.29953 0.14271
 H1134 H 0.21524 0.32206 0.11450
 C1135 C 0.72481 0.77439 0.62638
 C1136 C 0.71515 0.76760 0.60766
 C1137 C 0.71808 0.77971 0.59246
 C1138 C 0.73037 0.79744 0.59747
 C1139 C 0.74909 0.78922 0.60598
 C1140 C 0.74617 0.77711 0.62118
 C1141 C 0.71706 0.79487 0.62973
 C1142 C 0.71999 0.80698 0.61452
 C1143 C 0.72166 0.76136 0.64275
 C1144 C 0.71906 0.75065 0.65620
 C1145 C 0.73352 0.81048 0.58111
 C1146 C 0.73610 0.82122 0.56768
 H1147 H 0.70676 0.75443 0.60645
 H1148 H 0.71219 0.77693 0.57823
 H1149 H 0.76339 0.79262 0.60055
 H1150 H 0.75796 0.77013 0.62877
 H1151 H 0.70991 0.79944 0.64288
 H1152 H 0.71534 0.82193 0.61465
 C1153 C 0.77557 0.77498 0.37256
 C1154 C 0.78367 0.76735 0.39170
 C1155 C 0.78065 0.77944 0.40688
 C1156 C 0.76983 0.79798 0.40145
 C1157 C 0.75115 0.79111 0.39176
 C1158 C 0.75417 0.77902 0.37657
 C1159 C 0.78480 0.79494 0.36996
 C1160 C 0.78178 0.80704 0.38515
 C1161 C 0.77881 0.76196 0.35622
 C1162 C 0.78145 0.75123 0.34280
 C1163 C 0.76659 0.81100 0.41779
 C1164 C 0.76393 0.82169 0.43123
 H1165 H 0.79112 0.75365 0.39319
 H1166 H 0.78552 0.77610 0.42138
 H1167 H 0.73681 0.79536 0.39642
 H1168 H 0.74241 0.77291 0.36822
 H1169 H 0.79298 0.79920 0.35731
 H1170 H 0.78738 0.82166 0.38550
 C1171 C 0.27480 0.27477 -0.12736
 C1172 C 0.28288 0.26722 -0.10819
 C1173 C 0.27987 0.27938 -0.09306
 C1174 C 0.26908 0.29791 -0.09858
 C1175 C 0.25039 0.29101 -0.10825
 C1176 C 0.25340 0.27884 -0.12338
 C1177 C 0.28404 0.29471 -0.13005
 C1178 C 0.28104 0.30688 -0.11492
 C1179 C 0.27804 0.26167 -0.14364
 C1180 C 0.28073 0.25090 -0.15702
 C1181 C 0.26585 0.31101 -0.08230
 C1182 C 0.26321 0.32176 -0.06890
 H1183 H 0.29031 0.25352 -0.10663
 H1184 H 0.28473 0.27611 -0.07854
 H1185 H 0.23605 0.29530 -0.10361
 H1186 H 0.24164 0.27271 -0.13170
 H1187 H 0.29223 0.29891 -0.14272
 H1188 H 0.28665 0.32150 -0.11463
 C1189 C 0.72533 0.22520 -0.12713
 C1190 C 0.73630 0.20675 -0.13256
 C1191 C 0.73932 0.19462 -0.11739
 C1192 C 0.73107 0.20213 -0.09827
 C1193 C 0.70966 0.20603 -0.10238
 C1194 C 0.70664 0.21816 -0.11755
 C1195 C 0.73713 0.23427 -0.11075
 C1196 C 0.74014 0.22215 -0.09558
 C1197 C 0.72207 0.23825 -0.14345
 C1198 C 0.71939 0.24900 -0.15686
 C1199 C 0.73431 0.18908 -0.08194
 C1200 C 0.73695 0.17835 -0.06851
 H1201 H 0.74127 0.20350 -0.14704
 H1202 H 0.74687 0.18098 -0.11887
 H1203 H 0.69790 0.19981 -0.09410
 H1204 H 0.69230 0.22233 -0.12227
 H1205 H 0.74263 0.24893 -0.11104
 H1206 H 0.74823 0.22642 -0.08287
 C1207 C 0.22464 0.72559 0.37305
 C1208 C 0.24204 0.71214 0.37046
 C1209 C 0.24495 0.70001 0.38565
 C1210 C 0.23018 0.70254 0.40195
 C1211 C 0.21042 0.70002 0.39227
 C1212 C 0.20751 0.71215 0.37707
 C1213 C 0.22832 0.73610 0.39218
 C1214 C 0.23122 0.72398 0.40737
 C1215 C 0.22151 0.73864 0.35669
 C1216 C 0.21892 0.74937 0.34325
 C1217 C 0.23330 0.68949 0.41831
 C1218 C 0.23587 0.67876 0.43175
 H1219 H 0.25126 0.71213 0.35780
 H1220 H 0.25666 0.68962 0.38602
 H1221 H 0.19967 0.68963 0.39694
 H1222 H 0.19427 0.71214 0.36872
 H1223 H 0.22861 0.75169 0.39365
 H1224 H 0.23401 0.72918 0.42187
 C1225 C 0.27444 0.72581 0.62677
 C1226 C 0.26575 0.70628 0.63258
 C1227 C 0.26283 0.69415 0.61741
 C1228 C 0.26889 0.70272 0.59791
 C1229 C 0.29006 0.70866 0.60057
 C1230 C 0.29298 0.72080 0.61574
 C1231 C 0.26065 0.73392 0.61147
 C1232 C 0.25773 0.72178 0.59630
 C1233 C 0.27760 0.73886 0.64310
 C1234 C 0.28021 0.74958 0.65653
 C1235 C 0.26575 0.68966 0.58159
 C1236 C 0.26318 0.67891 0.56818
 H1237 H 0.26221 0.70233 0.64731
 H1238 H 0.25679 0.67980 0.61914
 H1239 H 0.30173 0.70377 0.59134
 H1240 H 0.30715 0.72630 0.61951
 H1241 H 0.25377 0.74795 0.61247
 H1242 H 0.24835 0.72542 0.58430
 C1243 C 0.77578 0.22540 0.12656
 C1244 C 0.76712 0.20585 0.13234
 C1245 C 0.76423 0.19373 0.11715
 C1246 C 0.77027 0.20235 0.09767
 C1247 C 0.79143 0.20833 0.10033
 C1248 C 0.79432 0.22045 0.11552
 C1249 C 0.76197 0.23351 0.11127
 C1250 C 0.75907 0.22139 0.09608
 C1251 C 0.77889 0.23845 0.14291
 C1252 C 0.78146 0.24917 0.15634
 C1253 C 0.76715 0.18930 0.08133
 C1254 C 0.76458 0.17857 0.06790
 H1255 H 0.76358 0.20188 0.14706
 H1256 H 0.75821 0.17938 0.11886
 H1257 H 0.80311 0.20347 0.09110
 H1258 H 0.80848 0.22597 0.11930
 H1259 H 0.75507 0.24753 0.11228
 H1260 H 0.74969 0.22502 0.08408
 C1261 C 0.47494 0.37653 0.52497
 C1262 C 0.48514 0.35936 0.51541
 C1263 C 0.48809 0.34419 0.52756
 C1264 C 0.48054 0.34767 0.54808
 C1265 C 0.45919 0.35298 0.54554
 C1266 C 0.45625 0.36815 0.53339
 C1267 C 0.48742 0.38155 0.54255
 C1268 C 0.49037 0.36638 0.55470
 C1269 C 0.47177 0.39286 0.51190
 C1270 C 0.46915 0.40628 0.50115
 C1271 C 0.48371 0.33134 0.56116
 C1272 C 0.48631 0.31793 0.57191
 H1273 H 0.48966 0.35914 0.50043
 H1274 H 0.49513 0.33097 0.52298
 H1275 H 0.44742 0.34549 0.55265
 H1276 H 0.44196 0.37365 0.53010
 H1277 H 0.49342 0.39576 0.54522
 H1278 H 0.49889 0.36760 0.56777
 C1279 C -0.02541 0.87694 0.02390
 C1280 C -0.01522 0.85981 0.01427
 C1281 C -0.01227 0.84459 0.02635
 C1282 C -0.01981 0.84798 0.04688
 C1283 C -0.04116 0.85331 0.04437
 C1284 C -0.04410 0.86854 0.03229
 C1285 C -0.01292 0.88188 0.04149
 C1286 C -0.00997 0.86666 0.05357
 C1287 C -0.02858 0.89333 0.01090
 C1288 C -0.03117 0.90681 0.00021
 C1289 C -0.01664 0.83160 0.05989
 C1290 C -0.01403 0.81814 0.07059
 H1291 H -0.01071 0.85966 -0.00072
 H1292 H -0.00524 0.83139 0.02171
 H1293 H -0.05293 0.84579 0.05146
 H1294 H -0.05839 0.87406 0.02903
 H1295 H -0.00691 0.89608 0.04422
 H1296 H -0.00144 0.86782 0.06665
 C1297 C 0.02517 0.62284 0.02406
 C1298 C 0.03486 0.62047 0.04382
 C1299 C 0.03189 0.63568 0.05590
 C1300 C 0.01952 0.65177 0.04703
 C1301 C 0.00083 0.64177 0.04061
 C1302 C 0.00380 0.62656 0.02854
 C1303 C 0.03283 0.64206 0.01617
 C1304 C 0.02986 0.65727 0.02825
 C1305 C 0.02837 0.60646 0.01106
 C1306 C 0.03100 0.59301 0.00037
 C1307 C 0.01632 0.66814 0.06004
 C1308 C 0.01369 0.68159 0.07073
 H1309 H 0.04331 0.60795 0.04797
 H1310 H 0.03779 0.63619 0.07039
 H1311 H -0.01348 0.64625 0.04515
 H1312 H -0.00796 0.61801 0.02273
 H1313 H 0.03996 0.64359 0.00231
 H1314 H 0.03444 0.67183 0.02474
 C1315 C 0.52539 0.12299 0.52511
 C1316 C 0.53385 0.11990 0.54533
 C1317 C 0.53091 0.13506 0.55747
 C1318 C 0.51979 0.15183 0.54821
 C1319 C 0.50106 0.14280 0.54061
 C1320 C 0.50400 0.12764 0.52846
 C1321 C 0.53435 0.14194 0.51796
 C1322 C 0.53140 0.15710 0.53010
 C1323 C 0.52856 0.10667 0.51203
 C1324 C 0.53117 0.09326 0.50129
 C1325 C 0.51662 0.16815 0.56128
 C1326 C 0.51403 0.18156 0.57202
 H1327 H 0.54148 0.10695 0.54972
 H1328 H 0.53602 0.13510 0.57227
 H1329 H 0.48674 0.14787 0.54443
 H1330 H 0.49220 0.11972 0.52188
 H1331 H 0.54230 0.14333 0.50454
 H1332 H 0.53683 0.17148 0.52709
 C1333 C -0.02504 0.12367 0.47571
 C1334 C -0.03321 0.12044 0.45540
 C1335 C -0.03032 0.13561 0.44324
 C1336 C -0.01953 0.15254 0.45259
 C1337 C -0.00077 0.14377 0.46044
 C1338 C -0.00367 0.12859 0.47260
 C1339 C -0.03432 0.14253 0.48269
 C1340 C -0.03142 0.15770 0.47053
 C1341 C -0.02817 0.10734 0.48879
 C1342 C -0.03076 0.09391 0.49954
 C1343 C -0.01642 0.16887 0.43950
 C1344 C -0.01387 0.18228 0.42873
 H1345 H -0.04062 0.10738 0.45096
 H1346 H -0.03525 0.13555 0.42839
 H1347 H 0.01352 0.14901 0.45677
 H1348 H 0.00815 0.12084 0.47935
 H1349 H -0.04245 0.14384 0.49600
 H1350 H -0.03707 0.17202 0.47343
 C1351 C 0.47476 0.62293 0.97591
 C1352 C 0.49594 0.62929 0.97461
 C1353 C 0.49887 0.64447 0.96247
 C1354 C 0.48034 0.65180 0.95281
 C1355 C 0.46655 0.65635 0.96952
 C1356 C 0.46362 0.64117 0.98166
 C1357 C 0.46870 0.61886 0.95502
 C1358 C 0.47163 0.63404 0.94287
 C1359 C 0.47160 0.60659 0.98897
 C1360 C 0.46897 0.59315 0.99970
 C1361 C 0.48349 0.66814 0.93974
 C1362 C 0.48607 0.68156 0.92899
 H1363 H 0.50760 0.62248 0.98254
 H1364 H 0.51304 0.65066 0.95999
 H1365 H 0.45969 0.67027 0.97163
 H1366 H 0.45425 0.64209 0.99418
 H1367 H 0.46264 0.60526 0.95018
 H1368 H 0.46808 0.63344 0.92764
 C1369 C 0.52505 0.87666 0.97567
 C1370 C 0.51411 0.85984 0.98504
 C1371 C 0.51113 0.84466 0.97293
 C1372 C 0.51938 0.84779 0.95263
 C1373 C 0.54078 0.85254 0.95578
 C1374 C 0.54376 0.86772 0.96790
 C1375 C 0.51325 0.88188 0.95768
 C1376 C 0.51028 0.86670 0.94557
 C1377 C 0.52827 0.89299 0.98872
 C1378 C 0.53091 0.90641 0.99944
 C1379 C 0.51618 0.83145 0.93959
 C1380 C 0.51356 0.81803 0.92887
 H1381 H 0.50913 0.85985 0.99989
 H1382 H 0.50360 0.83167 0.97739
 H1383 H 0.55256 0.84468 0.94909
 H1384 H 0.55809 0.87286 0.97158
 H1385 H 0.50773 0.89623 0.95472
 H1386 H 0.50219 0.86805 0.93223
 C1387 C 0.02502 0.37728 0.47527
 C1388 C 0.03121 0.38130 0.45441
 C1389 C 0.02823 0.36614 0.44227
 C1390 C 0.01934 0.34845 0.45218
 C1391 C 0.00082 0.35591 0.46175
 C1392 C 0.00380 0.37107 0.47389
 C1393 C 0.03600 0.35895 0.48110
 C1394 C 0.03301 0.34379 0.46896
 C1395 C 0.02823 0.39359 0.48835
 C1396 C 0.03088 0.40698 0.49910
 C1397 C 0.01613 0.33213 0.43912
 C1398 C 0.01351 0.31872 0.42838
 H1399 H 0.03740 0.39486 0.44959
 H1400 H 0.03186 0.36672 0.42705
 H1401 H -0.01339 0.34983 0.45921
 H1402 H -0.00785 0.37797 0.48175
 H1403 H 0.04530 0.35796 0.49366
 H1404 H 0.03976 0.32982 0.47112
 C1405 C 0.37655 0.52440 0.47518
 C1406 C 0.35781 0.51396 0.48070
 C1407 C 0.34261 0.52608 0.48362
 C1408 C 0.34764 0.54746 0.48074
 C1409 C 0.35614 0.54867 0.46034
 C1410 C 0.37134 0.53654 0.45741
 C1411 C 0.37993 0.53909 0.49138
 C1412 C 0.36473 0.55121 0.49430
 C1413 C 0.39291 0.51135 0.47202
 C1414 C 0.40635 0.50063 0.46942
 C1415 C 0.33129 0.56051 0.48388
 C1416 C 0.31785 0.57124 0.48646
 H1417 H 0.35658 0.49842 0.48218
 H1418 H 0.32837 0.52093 0.48762
 H1419 H 0.35071 0.55821 0.44917
 H1420 H 0.37892 0.53570 0.44374
 H1421 H 0.39310 0.53990 0.49981
 H1422 H 0.36488 0.56241 0.50524
 C1423 C 0.87758 0.02376 -0.02504
 C1424 C 0.86976 0.03281 -0.04367
 C1425 C 0.85459 0.04497 -0.04076
 C1426 C 0.84873 0.04689 -0.01950
 C1427 C 0.86721 0.05308 -0.00900
 C1428 C 0.88238 0.04092 -0.01191
 C1429 C 0.86008 0.01401 -0.01560
 C1430 C 0.84491 0.02617 -0.01269
 C1431 C 0.89391 0.01067 -0.02819
 C1432 C 0.90733 -0.00008 -0.03079
 C1433 C 0.83241 0.05999 -0.01637
 C1434 C 0.81899 0.07075 -0.01381
 H1435 H 0.87562 0.02992 -0.05790
 H1436 H 0.84746 0.05250 -0.05249
 H1437 H 0.86829 0.06588 -0.00006
 H1438 H 0.89645 0.04330 -0.00547
 H1439 H 0.85964 -0.00112 -0.01156
 H1440 H 0.83148 0.02147 -0.00615
 C1441 C 0.62368 0.02436 0.02527
 C1442 C 0.63745 0.01753 0.00934
 C1443 C 0.65267 0.02961 0.00636
 C1444 C 0.65263 0.04735 0.01960
 C1445 C 0.65169 0.03916 0.04015
 C1446 C 0.63647 0.02708 0.04313
 C1447 C 0.61771 0.04484 0.01931
 C1448 C 0.63293 0.05692 0.01633
 C1449 C 0.60730 0.01135 0.02848
 C1450 C 0.59384 0.00065 0.03111
 C1451 C 0.66901 0.06035 0.01639
 C1452 C 0.68247 0.07105 0.01377
 H1453 H 0.63543 0.00436 0.00113
 H1454 H 0.66369 0.02679 -0.00440
 H1455 H 0.66206 0.04256 0.05137
 H1456 H 0.63381 0.02013 0.05690
 H1457 H 0.60283 0.04944 0.01758
 H1458 H 0.63109 0.07187 0.01204
 C1459 C 0.12262 0.52438 0.52525
 C1460 C 0.12948 0.53464 0.54362
 C1461 C 0.14467 0.54677 0.54066
 C1462 C 0.15151 0.54745 0.51962
 C1463 C 0.13350 0.55277 0.50790
 C1464 C 0.11831 0.54065 0.51086
 C1465 C 0.14063 0.51427 0.51727
 C1466 C 0.15582 0.52639 0.51431
 C1467 C 0.10628 0.51132 0.52844
 C1468 C 0.09285 0.50058 0.53106
 C1469 C 0.16786 0.56051 0.51644
 C1470 C 0.18129 0.57124 0.51383
 H1471 H 0.12298 0.53257 0.55771
 H1472 H 0.15117 0.55509 0.55221
 H1473 H 0.13274 0.56499 0.49813
 H1474 H 0.10454 0.54247 0.50363
 H1475 H 0.14139 0.49893 0.51421
 H1476 H 0.16959 0.52145 0.50871
 C1477 C 0.12262 0.47635 -0.02502
 C1478 C 0.12722 0.46362 -0.04254
 C1479 C 0.14241 0.45147 -0.03967
 C1480 C 0.15150 0.45323 -0.01957
 C1481 C 0.13478 0.45003 -0.00541
 C1482 C 0.11960 0.46218 -0.00828
 C1483 C 0.14159 0.48679 -0.02038
 C1484 C 0.15677 0.47464 -0.01751
 C1485 C 0.10627 0.48942 -0.02812
 C1486 C 0.09283 0.50015 -0.03070
 C1487 C 0.16784 0.44014 -0.01649
 C1488 C 0.18127 0.42937 -0.01398
 H1489 H 0.11926 0.46412 -0.05600
 H1490 H 0.14745 0.44155 -0.05068
 H1491 H 0.13486 0.43917 0.00588
 H1492 H 0.10667 0.46174 0.00056
 H1493 H 0.14297 0.50236 -0.01942
 H1494 H 0.17116 0.47979 -0.01410
 C1495 C 0.62297 0.97592 0.47482
 C1496 C 0.62619 0.97064 0.49607
 C1497 C 0.64139 0.95850 0.49896
 C1498 C 0.65188 0.95284 0.48030
 C1499 C 0.65753 0.97204 0.47083
 C1500 C 0.64234 0.98417 0.46794
 C1501 C 0.62094 0.95652 0.46434
 C1502 C 0.63614 0.94439 0.46723
 C1503 C 0.60661 0.98897 0.47171
 C1504 C 0.59315 0.99970 0.46915
 C1505 C 0.66823 0.93977 0.48340
 C1506 C 0.68167 0.92903 0.48596
 H1507 H 0.61732 0.97596 0.50782
 H1508 H 0.64554 0.95343 0.51317
 H1509 H 0.67219 0.97577 0.46674
 H1510 H 0.64397 0.99830 0.46139
 H1511 H 0.60865 0.95266 0.45545
 H1512 H 0.63687 0.93013 0.46080
 C1513 C 0.87681 0.97571 0.52532
 C1514 C 0.87835 0.96406 0.50657
 C1515 C 0.86316 0.95195 0.50356
 C1516 C 0.84791 0.95268 0.51960
 C1517 C 0.84210 0.97400 0.52103
 C1518 C 0.85729 0.98611 0.52404
 C1519 C 0.87422 0.96058 0.54128
 C1520 C 0.85903 0.94847 0.53827
 C1521 C 0.89316 0.98875 0.52856
 C1522 C 0.90658 0.99947 0.53121
 C1523 C 0.83156 0.93965 0.51636
 C1524 C 0.81813 0.92893 0.51370
 H1525 H 0.89032 0.96522 0.49654
 H1526 H 0.86212 0.94274 0.49095
 H1527 H 0.82735 0.97913 0.51979
 H1528 H 0.85556 1.00161 0.52538
 H1529 H 0.88350 0.95947 0.55384
 H1530 H 0.85530 0.93699 0.54825
 C1531 C 0.37653 0.47586 0.02471
 C1532 C 0.37805 0.46420 0.00597
 C1533 C 0.36285 0.45210 0.00299
 C1534 C 0.34762 0.45284 0.01904
 C1535 C 0.34182 0.47417 0.02047
 C1536 C 0.35702 0.48627 0.02345
 C1537 C 0.37396 0.46075 0.04069
 C1538 C 0.35875 0.44864 0.03771
 C1539 C 0.39289 0.48889 0.02793
 C1540 C 0.40633 0.49961 0.03057
 C1541 C 0.33126 0.43982 0.01584
 C1542 C 0.31781 0.42911 0.01322
 H1543 H 0.39001 0.46534 -0.00408
 H1544 H 0.36178 0.44287 -0.00961
 H1545 H 0.32708 0.47931 0.01924
 H1546 H 0.35530 0.50178 0.02477
 H1547 H 0.38325 0.45964 0.05324
 H1548 H 0.35503 0.43718 0.04770
 C1549 C 0.52460 0.47488 0.37700
 C1550 C 0.54390 0.46416 0.37881
 C1551 C 0.55602 0.46714 0.36362
 C1552 C 0.54765 0.48054 0.34811
 C1553 C 0.54221 0.49910 0.35886
 C1554 C 0.53009 0.49613 0.37405
 C1555 C 0.51621 0.46837 0.35759
 C1556 C 0.52833 0.47134 0.34240
 C1557 C 0.51156 0.47167 0.39335
 C1558 C 0.50084 0.46904 0.40678
 C1559 C 0.56069 0.48373 0.33176
 C1560 C 0.57141 0.48635 0.31833
 H1561 H 0.54771 0.45504 0.39096
 H1562 H 0.57021 0.46056 0.36276
 H1563 H 0.54741 0.51334 0.35489
 H1564 H 0.52491 0.50781 0.38310
 H1565 H 0.50201 0.46199 0.35591
 H1566 H 0.52450 0.46751 0.32771
 C1567 C 0.02490 -0.02508 0.87716
 C1568 C 0.04420 -0.03579 0.87902
 C1569 C 0.05636 -0.03279 0.86387
 C1570 C 0.04804 -0.01938 0.84834
 C1571 C 0.04255 -0.00083 0.85910
 C1572 C 0.03039 -0.00382 0.87425
 C1573 C 0.01658 -0.03157 0.85771
 C1574 C 0.02874 -0.02857 0.84256
 C1575 C 0.01181 -0.02831 0.89346
 C1576 C 0.00105 -0.03097 0.90685
 C1577 C 0.06112 -0.01616 0.83204
 C1578 C 0.07188 -0.01353 0.81863
 H1579 H 0.04798 -0.04492 0.89116
 H1580 H 0.07056 -0.03936 0.86304
 H1581 H 0.04776 0.01341 0.85516
 H1582 H 0.02518 0.00785 0.88329
 H1583 H 0.00238 -0.03795 0.85598
 H1584 H 0.02496 -0.03239 0.82786
 C1585 C 0.02475 0.02546 0.62369
 C1586 C 0.04210 0.01259 0.61882
 C1587 C 0.05425 0.00966 0.63400
 C1588 C 0.04785 0.01989 0.65255
 C1589 C 0.02720 0.01277 0.65622
 C1590 C 0.01505 0.01570 0.64104
 C1591 C 0.03353 0.04412 0.63174
 C1592 C 0.04567 0.04119 0.64692
 C1593 C 0.01168 0.02862 0.60736
 C1594 C 0.00095 0.03123 0.59394
 C1595 C 0.06092 0.01674 0.66888
 C1596 C 0.07167 0.01414 0.68229
 H1597 H 0.04463 0.00633 0.60470
 H1598 H 0.06717 0.00089 0.63287
 H1599 H 0.02252 0.00603 0.66955
 H1600 H -0.00002 0.01147 0.64138
 H1601 H 0.03048 0.05838 0.62603
 H1602 H 0.05302 0.05294 0.65420
 C1603 C 0.52440 0.52539 0.12321
 C1604 C 0.54175 0.51250 0.11835
 C1605 C 0.55386 0.50954 0.13354
 C1606 C 0.54745 0.51976 0.15210
 C1607 C 0.52678 0.51266 0.15572
 C1608 C 0.51466 0.51562 0.14053
 C1609 C 0.53319 0.54403 0.13129
 C1610 C 0.54530 0.54107 0.14648
 C1611 C 0.51136 0.52857 0.10686
 C1612 C 0.50065 0.53120 0.09342
 C1613 C 0.56049 0.51657 0.16844
 C1614 C 0.57122 0.51397 0.18187
 H1615 H 0.54429 0.50625 0.10423
 H1616 H 0.56678 0.50076 0.13243
 H1617 H 0.52208 0.50591 0.16904
 H1618 H 0.49958 0.51140 0.14084
 H1619 H 0.53016 0.55830 0.12558
 H1620 H 0.55266 0.55280 0.15378
 C1621 C 0.47571 -0.02533 0.12374
 C1622 C 0.48396 -0.01179 0.13919
 C1623 C 0.47182 -0.00890 0.15438
 C1624 C 0.45264 -0.01982 0.15263
 C1625 C 0.45834 -0.04102 0.14976
 C1626 C 0.47047 -0.04392 0.13458
 C1627 C 0.45629 -0.01635 0.11800
 C1628 C 0.44416 -0.01346 0.13319
 C1629 C 0.48877 -0.02846 0.10739
 C1630 C 0.49948 -0.03104 0.09395
 C1631 C 0.43957 -0.01670 0.16897
 C1632 C 0.42883 -0.01414 0.18239
 H1633 H 0.49808 -0.00508 0.13828
 H1634 H 0.47555 0.00030 0.16648
 H1635 H 0.45329 -0.05273 0.15886
 H1636 H 0.47581 -0.05811 0.13066
 H1637 H 0.45241 -0.01261 0.10331
 H1638 H 0.42989 -0.00723 0.13150
 C1639 C 0.97576 0.47482 0.62365
 C1640 C 0.97048 0.49608 0.62692
 C1641 C 0.95835 0.49892 0.64211
 C1642 C 0.95268 0.48024 0.65256
 C1643 C 0.97189 0.47075 0.65819
 C1644 C 0.98402 0.46791 0.64299
 C1645 C 0.95636 0.46434 0.62162
 C1646 C 0.94423 0.46718 0.63681
 C1647 C 0.98881 0.47176 0.60729
 C1648 C 0.99951 0.46922 0.59383
 C1649 C 0.93961 0.48330 0.66891
 C1650 C 0.92886 0.48582 0.68233
 H1651 H 0.97580 0.50786 0.61807
 H1652 H 0.95328 0.51314 0.64629
 H1653 H 0.97563 0.46663 0.67282
 H1654 H 0.99815 0.46135 0.64460
 H1655 H 0.95249 0.45546 0.60932
 H1656 H 0.92997 0.46074 0.63754
 C1657 C 0.97519 0.52486 0.87730
 C1658 C 0.96986 0.54337 0.86638
 C1659 C 0.95773 0.54034 0.85122
 C1660 C 0.95210 0.51911 0.84848
 C1661 C 0.94367 0.51281 0.86796
 C1662 C 0.95581 0.51584 0.88311
 C1663 C 0.98347 0.51128 0.86191
 C1664 C 0.97133 0.50825 0.84676
 C1665 C 0.98825 0.52812 0.89361
 C1666 C 0.99901 0.53080 0.90700
 C1667 C 0.93905 0.51586 0.83216
 C1668 C 0.92832 0.51321 0.81874
 H1669 H 0.97515 0.55760 0.87021
 H1670 H 0.95262 0.55198 0.84207
 H1671 H 0.92943 0.50654 0.86969
 H1672 H 0.95196 0.51215 0.89783
 H1673 H 0.99761 0.50461 0.86284
 H1674 H 0.97508 0.49900 0.83470
 C1675 C 0.47545 0.02477 0.37730
 C1676 C 0.48390 0.03102 0.35781
 C1677 C 0.47175 0.02805 0.34266
 C1678 C 0.45233 0.01913 0.34848
 C1679 C 0.44412 0.03275 0.36387
 C1680 C 0.45628 0.03572 0.37902
 C1681 C 0.46972 0.00356 0.37456
 C1682 C 0.45757 0.00059 0.35940
 C1683 C 0.48854 0.02796 0.39360
 C1684 C 0.49930 0.03059 0.40700
 C1685 C 0.43925 0.01594 0.33217
 C1686 C 0.42850 0.01333 0.31876
 H1687 H 0.49818 0.03722 0.35607
 H1688 H 0.47561 0.03172 0.32794
 H1689 H 0.43000 0.03948 0.36295
 H1690 H 0.45257 0.04499 0.39108
 H1691 H 0.47477 -0.00811 0.38371
 H1692 H 0.45220 -0.01361 0.35557
   
