data_POSCAR
  _audit_creation_date              2014-09-24
  _audit_creation_method            'ToBaCCo'
  _symmetry_space_group_name_H-M    'P1'
  _symmetry_Int_Tables_number       1
  _symmetry_cell_setting            triclinic
  loop_
  _symmetry_equiv_pos_as_xyz
 x,y,z
_cell_length_a 71.7608
_cell_length_b 71.6909
_cell_length_c 71.5576
_cell_angle_alpha 89.957600
_cell_angle_beta 89.994700
_cell_angle_gamma 89.960300
loop_
  _atom_site_label
  _atom_site_type_symbol
  _atom_site_fract_x
  _atom_site_fract_y
  _atom_site_fract_z
N1 N 0.35779 1.34567 0.30645
 N2 N 0.34443 1.35826 0.30629
 C3 C 0.34710 1.36983 0.29166
 C4 C 0.36295 1.36411 0.28220
 C5 C 0.36936 1.34875 0.29198
 H6 H 0.33828 1.38156 0.28816
 H7 H 0.38155 1.34044 0.28881
 Cu8 Cu 0.32531 1.35826 0.32565
 Cu9 Cu 0.35924 1.32608 0.32533
 Cu10 Cu 0.32355 1.32464 0.35791
 N11 N 0.30624 1.35846 0.34509
 N12 N 0.30592 1.34534 0.35796
 C13 C 0.29155 1.34844 0.36964
 C14 C 0.28232 1.36434 0.36375
 C15 C 0.29204 1.37039 0.34816
 H16 H 0.28793 1.33964 0.38140
 H17 H 0.28888 1.38247 0.33966
 N18 N 0.34447 1.30675 0.35797
 N19 N 0.35806 1.30732 0.34553
 C20 C 0.36997 1.29317 0.34890
 C21 C 0.36358 1.28328 0.36417
 C22 C 0.34744 1.29227 0.36963
 H23 H 0.38230 1.29012 0.34076
 H24 H 0.33847 1.28839 0.38114
 H25 H 0.33126 1.32502 0.32995
 H26 H 0.34495 1.33988 0.34632
 N27 N 0.35786 0.84530 0.80684
 N28 N 0.34481 0.85818 0.80692
 C29 C 0.34791 0.87013 0.79272
 C30 C 0.36369 0.86434 0.78328
 C31 C 0.36968 0.84856 0.79261
 H32 H 0.33926 0.88202 0.78933
 H33 H 0.38153 0.83992 0.78909
 Cu34 Cu 0.32468 0.85794 0.82524
 Cu35 Cu 0.35781 0.82470 0.82443
 Cu36 Cu 0.32383 0.82464 0.85844
 N37 N 0.30639 0.85814 0.84540
 N38 N 0.30627 0.84525 0.85848
 C39 C 0.29205 0.84850 0.87029
 C40 C 0.28277 0.86429 0.86427
 C41 C 0.29222 0.87009 0.84848
 H42 H 0.28850 0.83985 0.88217
 H43 H 0.28887 0.88199 0.83980
 N44 N 0.34458 0.80662 0.85824
 N45 N 0.35760 0.80666 0.84520
 C46 C 0.36957 0.79255 0.84851
 C47 C 0.36375 0.78319 0.86433
 C48 C 0.34793 0.79247 0.87020
 H49 H 0.38152 0.78915 0.83995
 H50 H 0.33939 0.78899 0.88216
 H51 H 0.32973 0.82457 0.83029
 H52 H 0.34474 0.83959 0.84541
 N53 N 0.85792 1.34523 0.80612
 N54 N 0.84490 1.35818 0.80628
 C55 C 0.84789 1.37007 0.79198
 C56 C 0.86359 1.36417 0.78238
 C57 C 0.86961 1.34839 0.79175
 H58 H 0.83932 1.38205 0.78873
 H59 H 0.88148 1.33976 0.78827
 Cu60 Cu 0.82561 1.35798 0.82549
 Cu61 Cu 0.85811 1.32467 0.82398
 Cu62 Cu 0.82403 1.32465 0.85808
 N63 N 0.80648 1.35819 0.84484
 N64 N 0.80627 1.34522 0.85787
 C65 C 0.79193 1.34839 0.86956
 C66 C 0.78266 1.36418 0.86353
 C67 C 0.79225 1.37009 0.84784
 H68 H 0.78837 1.33976 0.88145
 H69 H 0.78900 1.38209 0.83927
 N70 N 0.84492 1.30669 0.85798
 N71 N 0.85796 1.30671 0.84493
 C72 C 0.86995 1.29263 0.84832
 C73 C 0.86411 1.28332 0.86418
 C74 C 0.84828 1.29262 0.87000
 H75 H 0.88188 1.28918 0.83977
 H76 H 0.83973 1.28916 0.88196
 H77 H 0.83021 1.32460 0.83007
 H78 H 0.84538 1.33915 0.84535
 N79 N 0.85834 0.84542 0.30645
 N80 N 0.84514 0.85815 0.30644
 C81 C 0.84785 0.86980 0.29188
 C82 C 0.86359 0.86398 0.28231
 C83 C 0.86990 0.84849 0.29195
 H84 H 0.83911 0.88161 0.28846
 H85 H 0.88200 0.84010 0.28868
 Cu86 Cu 0.82591 0.85811 0.32567
 Cu87 Cu 0.85961 0.82573 0.32521
 Cu88 Cu 0.82540 0.82568 0.35945
 N89 N 0.80670 0.85811 0.34492
 N90 N 0.80669 0.84536 0.35815
 C91 C 0.79218 0.84839 0.36968
 C92 C 0.78260 0.86388 0.36335
 C93 C 0.79216 0.86972 0.34762
 H94 H 0.78886 0.84001 0.38181
 H95 H 0.78874 0.88155 0.33888
 N96 N 0.84550 0.80692 0.35839
 N97 N 0.85853 0.80694 0.34534
 C98 C 0.87008 0.79240 0.34827
 C99 C 0.86401 0.78280 0.36386
 C100 C 0.84844 0.79236 0.36995
 H101 H 0.88200 0.78894 0.33970
 H102 H 0.83987 0.78886 0.38188
 H103 H 0.83152 0.82507 0.33130
 H104 H 0.84635 0.84034 0.34623
 N105 N 0.64189 0.65492 0.30672
 N106 N 0.65510 0.64219 0.30671
 C107 C 0.65240 0.63058 0.29215
 C108 C 0.63668 0.63640 0.28261
 C109 C 0.63035 0.65186 0.29222
 H110 H 0.66112 0.61876 0.28873
 H111 H 0.61825 0.66024 0.28891
 Cu112 Cu 0.67430 0.64218 0.32592
 Cu113 Cu 0.64060 0.67456 0.32545
 Cu114 Cu 0.67481 0.67456 0.35969
 N115 N 0.69351 0.64217 0.34513
 N116 N 0.69353 0.65489 0.35837
 C117 C 0.70803 0.65181 0.36989
 C118 C 0.71761 0.63635 0.36353
 C119 C 0.70805 0.63055 0.34780
 H120 H 0.71136 0.66017 0.38202
 H121 H 0.71144 0.61873 0.33905
 N122 N 0.65469 0.69331 0.35862
 N123 N 0.64166 0.69330 0.34558
 C124 C 0.63011 0.70784 0.34850
 C125 C 0.63617 0.71742 0.36408
 C126 C 0.65174 0.70786 0.37017
 H127 H 0.61819 0.71130 0.33991
 H128 H 0.66030 0.71135 0.38211
 H129 H 0.66869 0.67520 0.33154
 H130 H 0.65384 0.65991 0.34648
 N131 N 0.64195 0.15480 0.80642
 N132 N 0.65466 0.14158 0.80684
 C133 C 0.65149 0.12961 0.79268
 C134 C 0.63596 0.13568 0.78294
 C135 C 0.63022 0.15168 0.79208
 H136 H 0.65993 0.11752 0.78953
 H137 H 0.61857 0.16055 0.78839
 Cu138 Cu 0.67444 0.14177 0.82552
 Cu139 Cu 0.64221 0.17561 0.82385
 Cu140 Cu 0.67469 0.17421 0.85952
 N141 N 0.69342 0.14189 0.84496
 N142 N 0.69335 0.15459 0.85823
 C143 C 0.70776 0.15151 0.86986
 C144 C 0.71742 0.13611 0.86350
 C145 C 0.70798 0.13033 0.84770
 H146 H 0.71104 0.15987 0.88201
 H147 H 0.71149 0.11858 0.83893
 N148 N 0.65472 0.19307 0.85827
 N149 N 0.64230 0.19361 0.84466
 C150 C 0.63071 0.20812 0.84758
 C151 C 0.63620 0.21717 0.86370
 C152 C 0.65141 0.20727 0.87015
 H153 H 0.61919 0.21194 0.83862
 H154 H 0.65950 0.21031 0.88253
 H155 H 0.67017 0.17498 0.83143
 H156 H 0.65385 0.16013 0.84527
 N157 N 1.14180 0.65462 0.80695
 N158 N 1.15467 0.64155 0.80730
 C159 C 1.15194 0.62987 0.79281
 C160 C 1.13649 0.63594 0.78299
 C161 C 1.13040 0.65165 0.79233
 H162 H 1.16047 0.61782 0.78960
 H163 H 1.11862 0.66035 0.78869
 Cu164 Cu 1.17386 0.64157 0.82652
 Cu165 Cu 1.14073 0.67451 0.82545
 Cu166 Cu 1.17492 0.67454 0.85968
 N167 N 1.19305 0.64159 0.84573
 N168 N 1.19340 0.65467 0.85862
 C169 C 1.20802 0.65173 0.87002
 C170 C 1.21735 0.63603 0.86392
 C171 C 1.20754 0.62993 0.84846
 H172 H 1.21165 0.66044 0.88181
 H173 H 1.21075 0.61789 0.83993
 N174 N 1.15502 0.69348 0.85841
 N175 N 1.14200 0.69347 0.84537
 C176 C 1.13049 0.70805 0.84825
 C177 C 1.13658 0.71765 0.86380
 C178 C 1.15213 0.70807 0.86992
 H179 H 1.11852 0.71146 0.83972
 H180 H 1.16064 0.71152 0.88190
 H181 H 1.16883 0.67479 0.83151
 H182 H 1.15372 0.66006 0.84672
 N183 N 1.14186 0.15463 0.30680
 N184 N 1.15450 0.14136 0.30730
 C185 C 1.15129 0.12933 0.29321
 C186 C 1.13597 0.13559 0.28330
 C187 C 1.13027 0.15163 0.29233
 H188 H 1.15977 0.11728 0.29001
 H189 H 1.11875 0.16060 0.28844
 Cu190 Cu 1.17445 0.14157 0.32574
 Cu191 Cu 1.14227 0.17554 0.32402
 Cu192 Cu 1.17472 0.17408 0.35970
 N193 N 1.19330 0.14163 0.34530
 N194 N 1.19333 0.15438 0.35850
 C195 C 1.20789 0.15141 0.36998
 C196 C 1.21750 0.13597 0.36359
 C197 C 1.20783 0.13003 0.34799
 H198 H 1.21132 0.15986 0.38203
 H199 H 1.21132 0.11832 0.33913
 N200 N 1.15474 0.19294 0.35844
 N201 N 1.14232 0.19347 0.34484
 C202 C 1.13072 0.20798 0.34771
 C203 C 1.13616 0.21700 0.36386
 C204 C 1.15138 0.20713 0.37032
 H205 H 1.11922 0.21182 0.33872
 H206 H 1.15948 0.21022 0.38269
 H207 H 1.17030 0.17497 0.33150
 H208 H 1.15392 0.16019 0.34534
 N209 N 0.64189 1.34527 0.69327
 N210 N 0.65507 1.35800 0.69324
 C211 C 0.65240 1.36960 0.70782
 C212 C 0.63671 1.36376 0.71739
 C213 C 0.63038 1.34831 0.70779
 H214 H 0.66115 1.38138 0.71126
 H215 H 0.61827 1.33995 0.71111
 Cu216 Cu 0.67431 1.35782 0.67407
 Cu217 Cu 0.64061 1.32558 0.67457
 Cu218 Cu 0.67481 1.32551 0.64032
 N219 N 0.69346 1.35793 0.65481
 N220 N 0.69350 1.34518 0.64161
 C221 C 0.70801 1.34819 0.63010
 C222 C 0.71760 1.36363 0.63645
 C223 C 0.70802 1.36951 0.65214
 H224 H 0.71133 1.33981 0.61796
 H225 H 0.71144 1.38129 0.66092
 N226 N 0.65469 1.30680 0.64141
 N227 N 0.64167 1.30683 0.65446
 C228 C 0.63011 1.29233 0.65155
 C229 C 0.63617 1.28274 0.63597
 C230 C 0.65175 1.29226 0.62986
 H231 H 0.61819 1.28889 0.66013
 H232 H 0.66030 1.28875 0.61793
 H233 H 0.66870 1.32485 0.66846
 H234 H 0.65387 1.34017 0.65353
 N235 N 0.64183 0.84533 1.19334
 N236 N 0.65503 0.85806 1.19335
 C237 C 0.65233 0.86966 1.20791
 C238 C 0.63663 0.86384 1.21746
 C239 C 0.63031 0.84839 1.20786
 H240 H 0.66106 0.88146 1.21134
 H241 H 0.61820 0.84002 1.21117
 Cu242 Cu 0.67424 0.85801 1.17415
 Cu243 Cu 0.64056 0.82567 1.17462
 Cu244 Cu 0.67478 0.82564 1.14038
 N245 N 0.69343 0.85803 1.15494
 N246 N 0.69346 0.84529 1.14171
 C247 C 0.70798 0.84834 1.13020
 C248 C 0.71754 0.86380 1.13656
 C249 C 0.70796 0.86962 1.15228
 H250 H 0.71132 0.83997 1.11808
 H251 H 0.71137 0.88142 1.16104
 N252 N 0.65468 0.80691 1.14145
 N253 N 0.64165 0.80693 1.15449
 C254 C 0.63010 0.79241 1.15156
 C255 C 0.63618 0.78283 1.13598
 C256 C 0.65175 0.79237 1.12989
 H257 H 0.61818 0.78895 1.16013
 H258 H 0.66032 0.78888 1.11796
 H259 H 0.66867 0.82499 1.16852
 H260 H 0.65382 0.84030 1.15358
 N261 N 1.14207 1.34506 1.19331
 N262 N 1.15528 1.35775 1.19332
 C263 C 1.15256 1.36939 1.20786
 C264 C 1.13681 1.36362 1.21736
 C265 C 1.13048 1.34818 1.20775
 H266 H 1.16122 1.38125 1.21121
 H267 H 1.11838 1.33981 1.21110
 Cu268 Cu 1.17442 1.35788 1.17406
 Cu269 Cu 1.14077 1.32548 1.17454
 Cu270 Cu 1.17494 1.32546 1.14030
 N271 N 1.19366 1.35774 1.15488
 N272 N 1.19366 1.34505 1.14164
 C273 C 1.20809 1.34818 1.13004
 C274 C 1.21767 1.36361 1.13641
 C275 C 1.20816 1.36938 1.15219
 H276 H 1.21145 1.33981 1.11791
 H277 H 1.21148 1.38124 1.16088
 N278 N 1.15483 1.30675 1.14136
 N279 N 1.14182 1.30676 1.15441
 C280 C 1.13028 1.29224 1.15150
 C281 C 1.13635 1.28266 1.13592
 C282 C 1.15190 1.29220 1.12981
 H283 H 1.11837 1.28878 1.16010
 H284 H 1.16047 1.28870 1.11788
 H285 H 1.16882 1.32490 1.16842
 H286 H 1.15398 1.34012 1.15351
 N287 N 1.14162 0.84531 0.69311
 N288 N 1.15476 0.85810 0.69308
 C289 C 1.15191 0.86981 0.70748
 C290 C 1.13631 0.86390 0.71714
 C291 C 1.13005 0.84839 0.70760
 H292 H 1.16063 0.88160 0.71088
 H293 H 1.11801 0.83996 0.71097
 Cu294 Cu 1.17423 0.85806 0.67412
 Cu295 Cu 1.14055 0.82554 0.67454
 Cu296 Cu 1.17471 0.82551 0.64035
 N297 N 1.19317 0.85809 0.65464
 N298 N 1.19323 0.84529 0.64146
 C299 C 1.20772 0.84838 0.62990
 C300 C 1.21722 0.86389 0.63620
 C301 C 1.20755 0.86980 0.65182
 H302 H 1.21111 0.83995 0.61784
 H303 H 1.21091 0.88159 0.66057
 N304 N 1.15479 0.80662 0.64156
 N305 N 1.14177 0.80664 0.65460
 C306 C 1.13026 0.79208 0.65171
 C307 C 1.13636 0.78248 0.63615
 C308 C 1.15190 0.79205 0.63004
 H309 H 1.11831 0.78867 0.66025
 H310 H 1.16042 0.78860 0.61806
 H311 H 1.16862 0.82505 0.66848
 H312 H 1.15373 0.84040 0.65351
 N313 N 0.35801 0.65470 0.69297
 N314 N 0.34487 0.64191 0.69296
 C315 C 0.34771 0.63023 0.70743
 C316 C 0.36338 0.63609 0.71699
 C317 C 0.36961 0.65161 0.70742
 H318 H 0.33904 0.61841 0.71086
 H319 H 0.38165 0.66005 0.71078
 Cu320 Cu 0.32543 0.64196 0.67400
 Cu321 Cu 0.35911 0.67446 0.67438
 Cu322 Cu 0.32498 0.67449 0.64017
 N323 N 0.30652 0.64195 0.65453
 N324 N 0.30647 0.65473 0.64134
 C325 C 0.29204 0.65164 0.62973
 C326 C 0.28254 0.63612 0.63603
 C327 C 0.29211 0.63027 0.65173
 H328 H 0.28864 0.66007 0.61765
 H329 H 0.28873 0.61845 0.66046
 N330 N 0.34491 0.69338 0.64135
 N331 N 0.35791 0.69335 0.65440
 C332 C 0.36940 0.70794 0.65154
 C333 C 0.36331 0.71757 0.63599
 C334 C 0.34779 0.70799 0.62985
 H335 H 0.38132 0.71137 0.66011
 H336 H 0.33926 0.71149 0.61789
 H337 H 0.33107 0.67497 0.66828
 H338 H 0.34594 0.65963 0.65337
 N339 N 0.35806 0.15501 1.19333
 N340 N 0.34488 0.14226 1.19334
 C341 C 0.34756 0.13070 1.20793
 C342 C 0.36332 0.13644 1.21741
 C343 C 0.36964 0.15190 1.20781
 H344 H 0.33890 0.11884 1.21129
 H345 H 0.38174 0.16026 1.21113
 Cu346 Cu 0.32573 0.14215 1.17408
 Cu347 Cu 0.35938 0.17461 1.17456
 Cu348 Cu 0.32520 0.17465 1.14031
 N349 N 0.30650 0.14229 1.15489
 N350 N 0.30647 0.15504 1.14165
 C351 C 0.29201 0.15193 1.13008
 C352 C 0.28245 0.13647 1.13645
 C353 C 0.29195 0.13073 1.15225
 H354 H 0.28866 0.16029 1.11793
 H355 H 0.28863 0.11887 1.16095
 N356 N 0.34532 0.19337 1.14136
 N357 N 0.35833 0.19334 1.15441
 C358 C 0.36988 0.20786 1.15150
 C359 C 0.36383 0.21745 1.13591
 C360 C 0.34826 0.20792 1.12980
 H361 H 0.38179 0.21130 1.16009
 H362 H 0.33972 0.21143 1.11786
 H363 H 0.33130 0.17524 1.16846
 H364 H 0.34618 0.15998 1.15353
 N365 N 0.85818 0.65480 1.19330
 N366 N 0.84500 0.64207 1.19330
 C367 C 0.84770 0.63045 1.20787
 C368 C 0.86342 0.63626 1.21741
 C369 C 0.86973 0.65172 1.20779
 H370 H 0.83900 0.61863 1.21130
 H371 H 0.88183 0.66009 1.21110
 Cu372 Cu 0.82580 0.64210 1.17409
 Cu373 Cu 0.85946 0.67446 1.17458
 Cu374 Cu 0.82527 0.67453 1.14033
 N375 N 0.80659 0.64213 1.15488
 N376 N 0.80656 0.65489 1.14165
 C377 C 0.79207 0.65183 1.13011
 C378 C 0.78249 0.63637 1.13648
 C379 C 0.79206 0.63054 1.15221
 H380 H 0.78874 0.66021 1.11798
 H381 H 0.78867 0.61871 1.16095
 N382 N 0.84538 0.69326 1.14141
 N383 N 0.85839 0.69321 1.15446
 C384 C 0.86994 0.70774 1.15155
 C385 C 0.86388 0.71734 1.13597
 C386 C 0.84832 0.70782 1.12987
 H387 H 0.88185 0.71117 1.16014
 H388 H 0.83976 0.71134 1.11793
 H389 H 0.83138 0.67512 1.16849
 H390 H 0.84624 0.65985 1.15354
 N391 N 0.85784 0.15487 0.69320
 N392 N 0.84478 0.14200 0.69313
 C393 C 0.84789 0.13006 0.70734
 C394 C 0.86367 0.13584 0.71678
 C395 C 0.86965 0.15161 0.70743
 H396 H 0.83924 0.11818 0.71075
 H397 H 0.88151 0.16024 0.71094
 Cu398 Cu 0.82466 0.14226 0.67479
 Cu399 Cu 0.85778 0.17546 0.67558
 Cu400 Cu 0.82381 0.17554 0.64158
 N401 N 0.80637 0.14208 0.65464
 N402 N 0.80626 0.15497 0.64155
 C403 C 0.79203 0.15174 0.62974
 C404 C 0.78275 0.13597 0.63577
 C405 C 0.79220 0.13015 0.65156
 H406 H 0.78849 0.16039 0.61786
 H407 H 0.78884 0.11826 0.66024
 N408 N 0.84455 0.19353 0.64176
 N409 N 0.85757 0.19349 0.65480
 C410 C 0.86953 0.20757 0.65147
 C411 C 0.86371 0.21694 0.63564
 C412 C 0.84788 0.20766 0.62979
 H413 H 0.88148 0.21097 0.66003
 H414 H 0.83934 0.21115 0.61783
 H415 H 0.82969 0.17562 0.66972
 H416 H 0.84471 0.16057 0.65460
 N417 N 1.34551 0.35820 0.69284
 N418 N 1.35788 0.34467 0.69325
 C419 C 1.36895 0.34698 0.70829
 C420 C 1.36314 0.36278 0.71772
 C421 C 1.34823 0.36956 0.70755
 H422 H 1.38055 0.33807 0.71196
 H423 H 1.34018 0.38200 0.71048
 Cu424 Cu 1.35883 0.32599 0.67349
 Cu425 Cu 1.32761 0.36076 0.67259
 Cu426 Cu 1.32410 0.32335 0.64226
 N427 N 1.35863 0.30690 0.65409
 N428 N 1.34512 0.30616 0.64170
 C429 C 1.34800 0.29159 0.63019
 C430 C 1.36422 0.28268 0.63572
 C431 C 1.37063 0.29278 0.65089
 H432 H 1.33883 0.28756 0.61889
 H433 H 1.38293 0.28988 0.65912
 N434 N 1.30637 0.34439 0.64214
 N435 N 1.30766 0.35861 0.65380
 C436 C 1.29350 0.37051 0.65051
 C437 C 1.28290 0.36350 0.63603
 C438 C 1.29144 0.34697 0.63101
 H439 H 1.29101 0.38333 0.65809
 H440 H 1.28705 0.33753 0.62007
 H441 H 1.32567 0.33253 0.66993
 H442 H 1.34015 0.34454 0.65195
 N443 N 1.34560 0.85791 1.19346
 N444 N 1.35833 0.84470 1.19348
 C445 C 1.36994 0.84742 1.20804
 C446 C 1.36411 0.86316 1.21760
 C447 C 1.34863 0.86946 1.20796
 H448 H 1.38175 0.83867 1.21146
 H449 H 1.34021 0.88155 1.21124
 Cu450 Cu 1.35833 0.82548 1.17423
 Cu451 Cu 1.32594 0.85919 1.17472
 Cu452 Cu 1.32593 0.82498 1.14048
 N453 N 1.35832 0.80627 1.15500
 N454 N 1.34558 0.80627 1.14177
 C455 C 1.34862 0.79178 1.13021
 C456 C 1.36410 0.78216 1.13655
 C457 C 1.36992 0.79173 1.15229
 H458 H 1.34020 0.78848 1.11812
 H459 H 1.38173 0.78831 1.16106
 N460 N 1.30718 0.84509 1.14155
 N461 N 1.30719 0.85811 1.15460
 C462 C 1.29266 0.86967 1.15168
 C463 C 1.28309 0.86361 1.13609
 C464 C 1.29264 0.84803 1.13000
 H465 H 1.28920 0.88159 1.16026
 H466 H 1.28915 0.83947 1.11806
 H467 H 1.32530 0.83109 1.16865
 H468 H 1.34055 0.84596 1.15371
 N469 N 0.84543 0.35816 1.19362
 N470 N 0.85814 0.34493 1.19362
 C471 C 0.86977 0.34760 1.20818
 C472 C 0.86398 0.36335 1.21775
 C473 C 0.84850 0.36970 1.20812
 H474 H 0.88158 0.33884 1.21156
 H475 H 0.84012 0.38181 1.21140
 Cu476 Cu 0.85813 0.32574 1.17439
 Cu477 Cu 0.82576 0.35946 1.17486
 Cu478 Cu 0.82575 0.32526 1.14062
 N479 N 0.85810 0.30655 1.15517
 N480 N 0.84539 0.30656 1.14193
 C481 C 0.84845 0.29207 1.13039
 C482 C 0.86389 0.28248 1.13675
 C483 C 0.86972 0.29202 1.15247
 H484 H 0.84008 0.28875 1.11827
 H485 H 0.88154 0.28860 1.16122
 N486 N 0.80702 0.34535 1.14168
 N487 N 0.80701 0.35838 1.15472
 C488 C 0.79248 0.36992 1.15177
 C489 C 0.78292 0.36384 1.13618
 C490 C 0.79249 0.34827 1.13011
 H491 H 0.78900 0.38185 1.16034
 H492 H 0.78902 0.33970 1.11818
 H493 H 0.82514 0.33139 1.16878
 H494 H 0.84039 0.34626 1.15385
 N495 N 0.84498 0.85811 0.69336
 N496 N 0.85834 0.84555 0.69275
 C497 C 0.87025 0.84863 0.70698
 C498 C 0.86401 0.86394 0.71690
 C499 C 0.84793 0.86962 0.70790
 H500 H 0.88249 0.84032 0.71000
 H501 H 0.83892 0.88107 0.71181
 Cu502 Cu 0.85846 0.82623 0.67362
 Cu503 Cu 0.82425 0.85790 0.67586
 Cu504 Cu 0.82559 0.82537 0.64019
 N505 N 0.85807 0.80676 0.65468
 N506 N 0.84522 0.80662 0.64157
 C507 C 0.84813 0.79197 0.63018
 C508 C 0.86365 0.78243 0.63651
 C509 C 0.86959 0.79213 0.65209
 H510 H 0.83961 0.78849 0.61821
 H511 H 0.88150 0.78881 0.66076
 N512 N 0.80680 0.84547 0.64141
 N513 N 0.80629 0.85790 0.65502
 C514 C 0.79184 0.86956 0.65208
 C515 C 0.78280 0.86412 0.63595
 C516 C 0.79263 0.84885 0.62952
 H517 H 0.78804 0.88109 0.66105
 H518 H 0.78953 0.84075 0.61715
 H519 H 0.82505 0.82977 0.66845
 H520 H 0.83934 0.84638 0.65430
 N521 N 0.65498 0.64184 0.69325
 N522 N 0.64227 0.65506 0.69324
 C523 C 0.63066 0.65238 0.70780
 C524 C 0.63645 0.63665 0.71735
 C525 C 0.65191 0.63030 0.70776
 H526 H 0.61885 0.66111 0.71120
 H527 H 0.66026 0.61817 0.71109
 Cu528 Cu 0.64229 0.67427 0.67404
 Cu529 Cu 0.67462 0.64054 0.67452
 Cu530 Cu 0.67463 0.67478 0.64026
 N531 N 0.64226 0.69348 0.65483
 N532 N 0.65497 0.69351 0.64158
 C533 C 0.65188 0.70803 0.63006
 C534 C 0.63643 0.71760 0.63644
 C535 C 0.63065 0.70802 0.65217
 H536 H 0.66023 0.71137 0.61792
 H537 H 0.61884 0.71140 0.66094
 N538 N 0.69337 0.65465 0.64133
 N539 N 0.69336 0.64161 0.65439
 C540 C 0.70788 0.63005 0.65147
 C541 C 0.71746 0.63612 0.63588
 C542 C 0.70791 0.65171 0.62978
 H543 H 0.71134 0.61813 0.66006
 H544 H 0.71140 0.66028 0.61784
 H545 H 0.67527 0.66864 0.66841
 H546 H 0.65999 0.65379 0.65349
 N547 N 0.65426 1.14113 1.19328
 N548 N 0.64138 1.15422 1.19311
 C549 C 0.62997 1.15175 1.20788
 C550 C 0.63604 1.13626 1.21773
 C551 C 0.65149 1.12988 1.20809
 H552 H 0.61814 1.16050 1.21123
 H553 H 0.65998 1.11787 1.21149
 Cu554 Cu 0.64139 1.17331 1.17368
 Cu555 Cu 0.67316 1.13925 1.17374
 Cu556 Cu 0.67318 1.17336 1.13959
 N557 N 0.64146 1.19274 1.15459
 N558 N 0.65432 1.19287 1.14148
 C559 C 0.65159 1.20767 1.13023
 C560 C 0.63620 1.21733 1.13664
 C561 C 0.63010 1.20753 1.15212
 H562 H 0.66006 1.21107 1.11819
 H563 H 0.61827 1.21093 1.16085
 N564 N 0.69300 1.15432 1.14161
 N565 N 0.69301 1.14128 1.15467
 C566 C 0.70801 1.13022 1.15223
 C567 C 0.71785 1.13661 1.13690
 C568 C 0.70800 1.15191 1.13053
 H569 H 0.71146 1.11826 1.16078
 H570 H 0.71144 1.16047 1.11857
 H571 H 0.67407 1.16740 1.16781
 H572 H 0.65871 1.15260 1.15296
 N573 N 0.15431 0.64168 1.19327
 N574 N 0.14131 0.65463 1.19301
 C575 C 0.12960 0.65179 1.20748
 C576 C 0.13574 0.63636 1.21737
 C577 C 0.15145 0.63030 1.20797
 H578 H 0.11764 0.66037 1.21072
 H579 H 0.16018 0.61851 1.21158
 Cu580 Cu 0.14131 0.67383 1.17371
 Cu581 Cu 0.17422 0.64066 1.17476
 Cu582 Cu 0.17424 0.67492 1.14050
 N583 N 0.14133 0.69314 1.15452
 N584 N 0.15432 0.69342 1.14156
 C585 C 0.15147 0.70812 1.13019
 C586 C 0.13576 0.71750 1.13628
 C587 C 0.12961 0.70759 1.15171
 H588 H 0.16019 0.71175 1.11839
 H589 H 0.11766 0.71081 1.16031
 N590 N 0.19318 0.65498 1.14176
 N591 N 0.19317 0.64194 1.15481
 C592 C 0.20775 0.63043 1.15193
 C593 C 0.21736 0.63655 1.13637
 C594 C 0.20777 0.65210 1.13025
 H595 H 0.21118 0.61846 1.16047
 H596 H 0.21122 0.66064 1.11828
 H597 H 0.17451 0.66885 1.16871
 H598 H 0.15978 0.65370 1.15348
 N599 N 0.15441 1.14188 0.69371
 N600 N 0.14167 1.15508 0.69369
 C601 C 0.13008 1.15239 0.70827
 C602 C 0.13591 1.13665 0.71784
 C603 C 0.15138 1.13032 0.70822
 H604 H 0.11827 1.16113 0.71166
 H605 H 0.15978 1.11822 0.71151
 Cu606 Cu 0.14175 1.17433 0.67448
 Cu607 Cu 0.17406 1.14060 0.67497
 Cu608 Cu 0.17406 1.17482 0.64071
 N609 N 0.14164 1.19354 0.65521
 N610 N 0.15438 1.19356 0.64199
 C611 C 0.15133 1.20807 0.63042
 C612 C 0.13585 1.21769 0.63676
 C613 C 0.13004 1.20811 0.65252
 H614 H 0.15972 1.21137 0.61830
 H615 H 0.11824 1.21149 0.66129
 N616 N 0.19282 1.15469 0.64179
 N617 N 0.19281 1.14166 0.65485
 C618 C 0.20734 1.13010 0.65194
 C619 C 0.21692 1.13616 0.63634
 C620 C 0.20736 1.15175 0.63024
 H621 H 0.21081 1.11817 0.66053
 H622 H 0.21084 1.16031 0.61829
 H623 H 0.17468 1.16871 0.66885
 H624 H 0.15944 1.15384 0.65394
 N625 N 1.34543 0.64213 0.30699
 N626 N 1.35829 0.65520 0.30712
 C627 C 1.36986 0.65249 0.29255
 C628 C 1.36399 0.63685 0.28292
 C629 C 1.34846 0.63060 0.29246
 H630 H 1.38175 0.66112 0.28922
 H631 H 1.34003 0.61855 0.28907
 Cu632 Cu 1.35850 0.67433 0.32642
 Cu633 Cu 1.32573 0.64094 0.32562
 Cu634 Cu 1.32565 0.67513 0.35987
 N635 N 1.35823 0.69363 0.34558
 N636 N 1.34535 0.69378 0.35867
 C637 C 1.34837 0.70831 0.37020
 C638 C 1.36392 0.71784 0.36393
 C639 C 1.36980 0.70817 0.34826
 H640 H 1.33990 0.71169 0.38225
 H641 H 1.38170 0.71143 0.33959
 N642 N 1.30685 0.65507 0.35871
 N643 N 1.30690 0.64205 0.34565
 C644 C 1.29238 0.63049 0.34854
 C645 C 1.28276 0.63654 0.36411
 C646 C 1.29230 0.65210 0.37024
 H647 H 1.28900 0.61852 0.34000
 H648 H 1.28883 0.66059 0.38224
 H649 H 1.32535 0.66905 0.33174
 H650 H 1.34031 0.65401 0.34684
 N651 N 1.34525 1.14188 0.80657
 N652 N 1.35797 1.15508 0.80657
 C653 C 1.36957 1.15239 0.79201
 C654 C 1.36374 1.13670 0.78246
 C655 C 1.34829 1.13036 0.79206
 H656 H 1.38137 1.16113 0.78857
 H657 H 1.33993 1.11826 0.78874
 Cu658 Cu 1.35792 1.17428 0.82575
 Cu659 Cu 1.32560 1.14059 0.82528
 Cu660 Cu 1.32558 1.17480 0.85952
 N661 N 1.35796 1.19346 0.84496
 N662 N 1.34524 1.19349 0.85820
 C663 C 1.34830 1.20800 0.86971
 C664 C 1.36374 1.21757 0.86334
 C665 C 1.36957 1.20800 0.84762
 H666 H 1.33993 1.21133 0.88184
 H667 H 1.38136 1.21141 0.83885
 N668 N 1.30685 1.15469 0.85845
 N669 N 1.30687 1.14167 0.84540
 C670 C 1.29234 1.13013 0.84832
 C671 C 1.28277 1.13620 0.86390
 C672 C 1.29231 1.15177 0.87000
 H673 H 1.28888 1.11821 0.83973
 H674 H 1.28882 1.16033 0.88193
 H675 H 1.32493 1.16871 0.83137
 H676 H 1.34020 1.15382 0.84631
 N677 N 0.84540 0.64175 0.80687
 N678 N 0.85825 0.65482 0.80699
 C679 C 0.86986 0.65209 0.79245
 C680 C 0.86397 0.63647 0.78281
 C681 C 0.84843 0.63023 0.79233
 H682 H 0.88171 0.66076 0.78909
 H683 H 0.83997 0.61822 0.78890
 Cu684 Cu 0.85823 0.67410 0.82613
 Cu685 Cu 0.82565 0.64059 0.82548
 Cu686 Cu 0.82561 0.67480 0.85970
 N687 N 0.85822 0.69324 0.84541
 N688 N 0.84535 0.69339 0.85850
 C689 C 0.84838 0.70793 0.87001
 C690 C 0.86391 0.71742 0.86373
 C691 C 0.86982 0.70775 0.84810
 H692 H 0.83991 0.71138 0.88203
 H693 H 0.88167 0.71108 0.83940
 N694 N 0.80677 0.65481 0.85854
 N695 N 0.80679 0.64178 0.84549
 C696 C 0.79226 0.63025 0.84840
 C697 C 0.78266 0.63634 0.86397
 C698 C 0.79221 0.65190 0.87007
 H699 H 0.78884 0.61830 0.83985
 H700 H 0.78875 0.66043 0.88204
 H701 H 0.82517 0.66867 0.83158
 H702 H 0.84023 0.65371 0.84660
 N703 N 0.84502 1.14166 0.30657
 N704 N 0.85790 1.15471 0.30669
 C705 C 0.86985 1.15161 0.29251
 C706 C 0.86407 1.13584 0.28306
 C707 C 0.84829 1.12985 0.29234
 H708 H 0.88174 1.16025 0.28914
 H709 H 0.83966 1.11800 0.28879
 Cu710 Cu 0.85766 1.17485 0.32498
 Cu711 Cu 0.82442 1.14175 0.32412
 Cu712 Cu 0.82442 1.17570 0.35817
 N713 N 0.85787 1.19316 0.34512
 N714 N 0.84500 1.19328 0.35821
 C715 C 0.84826 1.20751 0.37001
 C716 C 0.86402 1.21680 0.36399
 C717 C 0.86980 1.20733 0.34819
 H718 H 0.83962 1.21105 0.38189
 H719 H 0.88168 1.21068 0.33950
 N720 N 0.80640 1.15497 0.35795
 N721 N 0.80640 1.14196 0.34489
 C722 C 0.79228 1.13002 0.34820
 C723 C 0.78295 1.13585 0.36403
 C724 C 0.79228 1.15164 0.36991
 H725 H 0.78885 1.11808 0.33962
 H726 H 0.78883 1.16018 0.38188
 H727 H 0.82432 1.16986 0.33003
 H728 H 0.83932 1.15476 0.34512
 N729 N 0.65476 0.35765 0.30639
 N730 N 0.64168 0.34480 0.30672
 C731 C 0.62973 0.34789 0.29250
 C732 C 0.63574 0.36348 0.28277
 C733 C 0.65163 0.36934 0.29200
 H734 H 0.61767 0.33942 0.28936
 H735 H 0.66039 0.38107 0.28838
 Cu736 Cu 0.64192 0.32537 0.32581
 Cu737 Cu 0.67546 0.35756 0.32402
 Cu738 Cu 0.67410 0.32496 0.35978
 N739 N 0.64196 0.30603 0.34493
 N740 N 0.65453 0.30614 0.35832
 C741 C 0.65144 0.29167 0.36990
 C742 C 0.63608 0.28197 0.36343
 C743 C 0.63039 0.29146 0.34757
 H744 H 0.65973 0.28844 0.38211
 H745 H 0.61866 0.28803 0.33873
 N746 N 0.69284 0.34510 0.35858
 N747 N 0.69335 0.35755 0.34497
 C748 C 0.70780 0.36919 0.34791
 C749 C 0.71683 0.36372 0.36405
 C750 C 0.70700 0.34845 0.37048
 H751 H 0.71161 0.38070 0.33892
 H752 H 0.71010 0.34031 0.38283
 H753 H 0.67513 0.32966 0.33170
 H754 H 0.66029 0.34595 0.34549
 N755 N 0.65493 0.85840 0.80680
 N756 N 0.64222 0.84519 0.80681
 C757 C 0.63060 0.84788 0.79226
 C758 C 0.63640 0.86360 0.78269
 C759 C 0.65184 0.86993 0.79228
 H760 H 0.61879 0.83915 0.78885
 H761 H 0.66020 0.88204 0.78894
 Cu762 Cu 0.64224 0.82597 0.82602
 Cu763 Cu 0.67457 0.85968 0.82551
 Cu764 Cu 0.67460 0.82543 0.85977
 N765 N 0.64225 0.80676 0.84523
 N766 N 0.65496 0.80672 0.85847
 C767 C 0.65189 0.79220 0.86999
 C768 C 0.63644 0.78264 0.86361
 C769 C 0.63063 0.79223 0.84789
 H770 H 0.66026 0.78884 0.88211
 H771 H 0.61883 0.78885 0.83914
 N772 N 0.69333 0.84554 0.85869
 N773 N 0.69331 0.85858 0.84564
 C774 C 0.70782 0.87013 0.84855
 C775 C 0.71740 0.86404 0.86414
 C776 C 0.70787 0.84846 0.87024
 H777 H 0.71128 0.88205 0.83996
 H778 H 0.71136 0.83989 0.88218
 H779 H 0.67524 0.83157 0.83159
 H780 H 0.65997 0.84644 0.84652
 N781 N 0.15453 0.35818 0.80714
 N782 N 0.14151 0.34528 0.80745
 C783 C 0.12982 0.34808 0.79299
 C784 C 0.13594 0.36349 0.78311
 C785 C 0.15162 0.36957 0.79247
 H786 H 0.11785 0.33953 0.78974
 H787 H 0.16029 0.38137 0.78883
 Cu788 Cu 0.14152 0.32608 0.82670
 Cu789 Cu 0.17441 0.35923 0.82561
 Cu790 Cu 0.17446 0.32501 0.85990
 N791 N 0.14153 0.30685 0.84592
 N792 N 0.15457 0.30652 0.85885
 C793 C 0.15167 0.29184 0.87024
 C794 C 0.13595 0.28249 0.86413
 C795 C 0.12984 0.29241 0.84869
 H796 H 0.16036 0.28822 0.88205
 H797 H 0.11787 0.28922 0.84009
 N798 N 0.19339 0.34495 0.85859
 N799 N 0.19336 0.35797 0.84552
 C800 C 0.20791 0.36949 0.84837
 C801 C 0.21753 0.36342 0.86393
 C802 C 0.20798 0.34786 0.87009
 H803 H 0.21130 0.38145 0.83980
 H804 H 0.21144 0.33935 0.88208
 H805 H 0.17471 0.33108 0.83170
 H806 H 0.15997 0.34623 0.84690
 N807 N 0.15489 0.85745 0.30681
 N808 N 0.14195 0.84444 0.30701
 C809 C 0.13004 0.84747 0.29277
 C810 C 0.13593 0.86315 0.28317
 C811 C 0.15170 0.86915 0.29246
 H812 H 0.11807 0.83892 0.28950
 H813 H 0.16031 0.88101 0.28891
 Cu814 Cu 0.14222 0.82510 0.32617
 Cu815 Cu 0.17545 0.85761 0.32461
 Cu816 Cu 0.17550 0.82350 0.35874
 N817 N 0.14204 0.80591 0.34548
 N818 N 0.15496 0.80570 0.35853
 C819 C 0.15180 0.79132 0.37021
 C820 C 0.13604 0.78203 0.36413
 C821 C 0.13016 0.79167 0.34843
 H822 H 0.16042 0.78779 0.38210
 H823 H 0.11820 0.78846 0.33982
 N824 N 0.19342 0.84441 0.35859
 N825 N 0.19339 0.85745 0.34553
 C826 C 0.20743 0.86946 0.34887
 C827 C 0.21675 0.86364 0.36472
 C828 C 0.20750 0.84779 0.37058
 H829 H 0.21084 0.88141 0.34030
 H830 H 0.21099 0.83924 0.38254
 H831 H 0.17556 0.82965 0.33075
 H832 H 0.16100 0.84486 0.34602
 O833 O 1.06763 1.01809 1.09300
 O834 O 1.08933 1.01810 1.11482
 C835 C 1.07425 1.02458 1.10812
 C836 C 1.06473 1.04030 1.11761
 C837 C 1.07225 1.04803 1.13399
 H838 H 1.08463 1.04188 1.14009
 O839 O 0.93264 0.98160 1.09310
 O840 O 0.91094 0.98167 1.11493
 C841 C 0.92598 0.97513 1.10823
 C842 C 0.93543 0.95936 1.11773
 C843 C 0.92786 0.95164 1.13412
 H844 H 0.91546 0.95779 1.14016
 O845 O 1.01845 1.09292 1.06741
 O846 O 1.01845 1.11462 1.08923
 C847 C 1.02492 1.10799 1.07410
 C848 C 1.04060 1.11753 1.06457
 C849 C 1.04833 1.13386 1.07215
 H850 H 1.04225 1.13989 1.08461
 O851 O 0.98192 0.90713 1.06757
 O852 O 0.98189 0.88537 1.08937
 C853 C 0.97543 0.89204 1.07424
 C854 C 0.95973 0.88258 1.06471
 C855 C 0.95200 0.86621 1.07225
 H856 H 0.95812 0.86010 1.08466
 O857 O 1.09300 1.06764 1.01821
 O858 O 1.11476 1.08935 1.01824
 C859 C 1.10807 1.07428 1.02475
 C860 C 1.11750 1.06474 1.04053
 C861 C 1.13383 1.07226 1.04834
 H862 H 1.13989 1.08469 1.04226
 O863 O 0.90708 0.93259 1.01837
 O864 O 0.88537 0.91083 1.01839
 C865 C 0.89202 0.92592 1.02488
 C866 C 0.88254 0.93543 1.04064
 C867 C 0.86619 0.92793 1.04842
 H868 H 0.86010 0.91554 1.04231
 O869 O 0.98197 1.06733 1.09292
 O870 O 0.98197 1.08903 1.11475
 C871 C 0.97548 1.07397 1.10805
 C872 C 0.95976 1.06447 1.11754
 C873 C 0.95199 1.07206 1.13389
 H874 H 0.95808 1.08448 1.13994
 O875 O 1.01832 0.93269 1.09314
 O876 O 1.01830 0.91095 1.11496
 C877 C 1.02480 0.92602 1.10826
 C878 C 1.04056 0.93547 1.11773
 C879 C 1.04826 0.92791 1.13412
 H880 H 1.04206 0.91557 1.14025
 O881 O 1.09327 0.98163 1.06752
 O882 O 1.11499 0.98167 1.08932
 C883 C 1.10835 0.97516 1.07422
 C884 C 1.11785 0.95943 1.06474
 C885 C 1.13420 0.95169 1.07227
 H886 H 1.14032 0.95785 1.08466
 O887 O 0.90718 1.01826 1.06764
 O888 O 0.88547 1.01828 1.08946
 C889 C 0.89213 1.02478 1.07434
 C890 C 0.88266 1.04055 1.06485
 C891 C 0.86630 1.04827 1.07239
 H892 H 0.86022 1.04213 1.08480
 O893 O 0.93261 1.09303 1.01832
 O894 O 0.91089 1.11480 1.01836
 C895 C 0.92597 1.10812 1.02484
 C896 C 0.93552 1.11759 1.04057
 C897 C 0.92802 1.13393 1.04839
 H898 H 0.91559 1.14002 1.04234
 O899 O 1.06758 0.90697 1.01866
 O900 O 1.08931 0.88520 1.01858
 C901 C 1.07426 0.89187 1.02514
 C902 C 1.06480 0.88239 1.04093
 C903 C 1.07233 0.86602 1.04871
 H904 H 1.08471 0.85992 1.04258
 O905 O 0.93279 1.01813 1.09304
 O906 O 0.91110 1.01819 1.11487
 C907 C 0.92617 1.02464 1.10816
 C908 C 0.93568 1.04037 1.11762
 C909 C 0.92813 1.04816 1.13397
 H910 H 0.91575 1.04205 1.14009
 O911 O 1.06770 0.98158 1.09300
 O912 O 1.08940 0.98159 1.11481
 C913 C 1.07434 0.97510 1.10812
 C914 C 1.06481 0.95940 1.11765
 C915 C 1.07232 0.95161 1.13404
 H916 H 1.08477 0.95764 1.14009
 O917 O 1.01842 0.90700 1.06780
 O918 O 1.01838 0.88524 1.08960
 C919 C 1.02491 0.89191 1.07451
 C920 C 1.04068 0.88242 1.06506
 C921 C 1.04841 0.86605 1.07263
 H922 H 1.04226 0.85998 1.08505
 O923 O 0.98195 1.09291 1.06740
 O924 O 0.98196 1.11461 1.08922
 C925 C 0.97546 1.10799 1.07410
 C926 C 0.95973 1.11752 1.06463
 C927 C 0.95202 1.13387 1.07223
 H928 H 0.95819 1.13992 1.08464
 O929 O 0.90717 1.06751 1.01838
 O930 O 0.88542 1.08925 1.01839
 C931 C 0.89210 1.07417 1.02491
 C932 C 0.88266 1.06468 1.04069
 C933 C 0.86631 1.07220 1.04845
 H934 H 0.86023 1.08461 1.04231
 O935 O 1.09312 0.93240 1.01857
 O936 O 1.11487 0.91065 1.01846
 C937 C 1.10823 0.92573 1.02499
 C938 C 1.11777 0.93524 1.04068
 C939 C 1.13411 0.92770 1.04843
 H940 H 1.14015 0.91526 1.04233
 O941 O 0.98180 0.93245 1.09328
 O942 O 0.98180 0.91071 1.11509
 C943 C 0.97528 0.92577 1.10838
 C944 C 0.95951 0.93524 1.11783
 C945 C 0.95173 0.92772 1.13422
 H946 H 0.95784 0.91533 1.14036
 O947 O 1.01847 1.06735 1.09295
 O948 O 1.01846 1.08905 1.11477
 C949 C 1.02495 1.07398 1.10808
 C950 C 1.04066 1.06445 1.11758
 C951 C 1.04841 1.07197 1.13397
 H952 H 1.04230 1.08438 1.14005
 O953 O 0.90717 0.98173 1.06753
 O954 O 0.88547 0.98177 1.08936
 C955 C 0.89210 0.97527 1.07423
 C956 C 0.88258 0.95957 1.06474
 C957 C 0.86623 0.95187 1.07232
 H958 H 0.86018 0.95801 1.08474
 O959 O 1.09305 1.01818 1.06738
 O960 O 1.11476 1.01821 1.08918
 C961 C 1.10808 1.02472 1.07408
 C962 C 1.11752 1.04051 1.06461
 C963 C 1.13384 1.04824 1.07219
 H964 H 1.13992 1.04206 1.08459
 O965 O 0.93271 0.90722 1.01833
 O966 O 0.91103 0.88545 1.01835
 C967 C 0.92609 0.89213 1.02484
 C968 C 0.93562 0.88264 1.04058
 C969 C 0.92810 0.86628 1.04833
 H970 H 0.91570 0.86023 1.04221
 O971 O 1.06750 1.09312 1.01809
 O972 O 1.08923 1.11486 1.01813
 C973 C 1.07415 1.10819 1.02460
 C974 C 1.06463 1.11764 1.04036
 C975 C 1.07215 1.13397 1.04814
 H976 H 1.08452 1.14007 1.04199
 Cu977 Cu 1.07823 0.99986 1.07802
 Cu978 Cu 1.10430 0.99990 1.10421
 Cu979 Cu 0.92213 0.99993 1.07812
 Cu980 Cu 0.89607 0.99998 1.10435
 Cu981 Cu 1.00022 1.07794 1.07797
 Cu982 Cu 1.00021 1.10400 1.10418
 Cu983 Cu 1.00011 0.92201 1.07825
 Cu984 Cu 1.00010 0.89589 1.10444
 C985 C 1.04886 1.04854 1.10958
 H986 H 1.04324 1.04291 1.09672
 C987 C 1.06429 1.06394 1.14222
 C988 C 0.95132 0.95113 1.10977
 H989 H 0.95698 0.95676 1.09691
 C990 C 0.93584 0.93576 1.14245
 C991 C 1.04877 1.10961 1.04859
 H992 H 1.04313 1.09680 1.04290
 C993 C 1.06417 1.14215 1.06409
 C994 C 0.95151 0.89060 1.04879
 H995 H 0.95715 0.90343 1.04314
 C996 C 0.93611 0.85800 1.06423
 C997 C 1.10953 1.04880 1.04870
 H998 H 1.09673 1.04316 1.04301
 C999 C 1.14208 1.06417 1.06423
 C1000 C 0.89054 0.95133 1.04882
 H1001 H 0.90335 0.95695 1.04314
 C1002 C 0.85795 0.93599 1.06432
 C1003 C 0.95156 1.04856 1.10958
 H1004 H 0.95720 1.04289 1.09674
 C1005 C 0.93610 1.06408 1.14216
 C1006 C 1.04886 0.95129 1.10968
 H1007 H 1.04324 0.95696 1.09682
 C1008 C 1.06421 0.93580 1.14235
 C1009 C 1.10983 0.95118 1.04886
 H1010 H 1.09701 0.95684 1.04320
 C1011 C 1.14240 0.93576 1.06428
 C1012 C 0.89065 1.04878 1.04893
 H1013 H 0.90348 1.04313 1.04327
 C1014 C 0.85804 1.06415 1.06434
 C1015 C 0.95146 1.10958 1.04871
 H1016 H 0.95711 1.09678 1.04299
 C1017 C 0.93611 1.14215 1.06428
 C1018 C 1.04892 0.89040 1.04915
 H1019 H 1.04328 0.90324 1.04347
 C1020 C 1.06430 0.85777 1.06464
 O1021 O 1.06734 0.98203 0.90701
 O1022 O 1.08907 0.98196 0.88523
 C1023 C 1.07400 0.97550 0.89192
 C1024 C 1.06454 0.95976 0.88245
 C1025 C 1.07211 0.95201 0.86608
 H1026 H 1.08449 0.95815 0.86000
 O1027 O 0.93279 1.01834 0.90708
 O1028 O 0.91110 1.01838 0.88525
 C1029 C 0.92616 1.02486 0.89196
 C1030 C 0.93562 1.04063 0.88249
 C1031 C 0.92805 1.04838 0.86613
 H1032 H 0.91569 1.04222 0.86004
 O1033 O 0.98190 1.09320 0.93258
 O1034 O 0.98182 1.11495 0.91078
 C1035 C 0.97537 1.10827 0.92590
 C1036 C 0.95962 1.11772 0.93542
 C1037 C 0.95184 1.13406 0.92786
 H1038 H 0.95797 1.14018 0.91545
 O1039 O 1.01837 0.90722 0.93266
 O1040 O 1.01841 0.88548 0.91088
 C1041 C 1.02488 0.89214 0.92599
 C1042 C 1.04059 0.88265 0.93552
 C1043 C 1.04837 0.86634 0.92792
 H1044 H 1.04230 0.86031 0.91546
 O1045 O 1.09286 0.93259 0.98200
 O1046 O 1.11461 0.91085 0.98189
 C1047 C 1.10791 0.92595 0.97543
 C1048 C 1.11734 0.93551 0.95967
 C1049 C 1.13370 0.92801 0.95190
 H1050 H 1.13980 0.91561 0.95803
 O1051 O 0.90710 1.06752 0.98178
 O1052 O 0.88536 1.08927 0.98177
 C1053 C 0.89203 1.07419 0.97527
 C1054 C 0.88257 1.06470 0.95950
 C1055 C 0.86623 1.07223 0.95172
 H1056 H 0.86012 1.08462 0.95785
 O1057 O 1.01836 1.06771 0.90694
 O1058 O 1.01827 1.08945 0.88512
 C1059 C 1.02480 1.07437 0.89180
 C1060 C 1.04053 1.06489 0.88228
 C1061 C 1.04826 1.07246 0.86590
 H1062 H 1.04213 1.08488 0.85984
 O1063 O 0.98186 0.93268 0.90705
 O1064 O 0.98192 0.91095 0.88526
 C1065 C 0.97540 0.92602 0.89193
 C1066 C 0.95965 0.93549 0.88243
 C1067 C 0.95188 0.92791 0.86608
 H1068 H 0.95801 0.91551 0.86001
 O1069 O 1.09294 1.01850 0.93245
 O1070 O 1.11469 1.01840 0.91067
 C1071 C 1.10804 1.02493 0.92577
 C1072 C 1.11755 1.04062 0.93526
 C1073 C 1.13391 1.04832 0.92771
 H1074 H 1.13996 1.04219 0.91528
 O1075 O 0.90718 0.98183 0.93252
 O1076 O 0.88548 0.98187 0.91071
 C1077 C 0.89211 0.97537 0.92583
 C1078 C 0.88260 0.95968 0.93537
 C1079 C 0.86624 0.95197 0.92784
 H1080 H 0.86017 0.95810 0.91541
 O1081 O 1.06765 1.09319 0.98151
 O1082 O 1.08938 1.11492 0.98152
 C1083 C 1.07432 1.10827 0.97500
 C1084 C 1.06483 1.11776 0.95923
 C1085 C 1.07233 1.13412 0.95143
 H1086 H 1.08473 1.14019 0.95753
 O1087 O 0.93259 0.90717 0.98174
 O1088 O 0.91091 0.88539 0.98174
 C1089 C 0.92596 0.89208 0.97523
 C1090 C 0.93547 0.88261 0.95947
 C1091 C 0.92797 0.86627 0.95168
 H1092 H 0.91556 0.86019 0.95776
 O1093 O 0.93270 0.98181 0.90700
 O1094 O 0.91101 0.98185 0.88518
 C1095 C 0.92606 0.97533 0.89189
 C1096 C 0.93554 0.95958 0.88241
 C1097 C 0.92797 0.95179 0.86607
 H1098 H 0.91557 0.95790 0.85999
 O1099 O 1.06745 1.01857 0.90690
 O1100 O 1.08919 1.01850 0.88512
 C1101 C 1.07413 1.02504 0.89178
 C1102 C 1.06466 1.04080 0.88226
 C1103 C 1.07219 1.04858 0.86588
 H1104 H 1.08459 1.04248 0.85979
 O1105 O 0.98186 0.90718 0.93262
 O1106 O 0.98193 0.88544 0.91084
 C1107 C 0.97540 0.89210 0.92593
 C1108 C 0.95966 0.88261 0.93540
 C1109 C 0.95195 0.86626 0.92783
 H1110 H 0.95812 0.86019 0.91543
 O1111 O 1.01841 1.09324 0.93246
 O1112 O 1.01832 1.11499 0.91065
 C1113 C 1.02487 1.10832 0.92574
 C1114 C 1.04064 1.11780 0.93517
 C1115 C 1.04836 1.13416 0.92758
 H1116 H 1.04218 1.14025 0.91519
 O1117 O 0.90714 0.93271 0.98179
 O1118 O 0.88543 0.91096 0.98180
 C1119 C 0.89207 0.92605 0.97530
 C1120 C 0.88258 0.93558 0.95956
 C1121 C 0.86622 0.92808 0.95183
 H1122 H 0.86013 0.91570 0.95798
 O1123 O 1.09305 1.06760 0.98162
 O1124 O 1.11481 1.08930 0.98164
 C1125 C 1.10814 1.07423 0.97514
 C1126 C 1.11761 1.06470 0.95941
 C1127 C 1.13396 1.07219 0.95166
 H1128 H 1.14006 1.08457 0.95780
 O1129 O 1.01835 0.93271 0.90708
 O1130 O 1.01840 0.91097 0.88529
 C1131 C 1.02485 0.92606 0.89197
 C1132 C 1.04054 0.93558 0.88248
 C1133 C 1.04831 0.92805 0.86610
 H1134 H 1.04225 0.91562 0.86004
 O1135 O 0.98186 1.06769 0.90706
 O1136 O 0.98178 1.08942 0.88524
 C1137 C 0.97533 1.07434 0.89195
 C1138 C 0.95961 1.06483 0.88249
 C1139 C 0.95181 1.07238 0.86613
 H1140 H 0.95787 1.08481 0.86003
 O1141 O 0.90720 1.01835 0.93255
 O1142 O 0.88551 1.01838 0.91072
 C1143 C 0.89214 1.02485 0.92585
 C1144 C 0.88263 1.04059 0.93535
 C1145 C 0.86629 1.04833 0.92778
 H1146 H 0.86022 1.04219 0.91537
 O1147 O 1.09276 0.98197 0.93263
 O1148 O 1.11451 0.98189 0.91086
 C1149 C 1.10783 0.97543 0.92598
 C1150 C 1.11730 0.95968 0.93553
 C1151 C 1.13366 0.95196 0.92799
 H1152 H 1.13975 0.95812 0.91559
 O1153 O 1.06747 0.90703 0.98206
 O1154 O 1.08920 0.88527 0.98196
 C1155 C 1.07412 0.89197 0.97550
 C1156 C 1.06463 0.88256 0.95972
 C1157 C 1.07219 0.86625 0.95192
 H1158 H 1.08457 0.86015 0.95805
 O1159 O 0.93260 1.09301 0.98174
 O1160 O 0.91088 1.11478 0.98176
 C1161 C 0.92595 1.10811 0.97525
 C1162 C 0.93546 1.11762 0.95952
 C1163 C 0.92790 1.13395 0.95174
 H1164 H 0.91547 1.13999 0.95784
 Cu1165 Cu 1.07793 1.00029 0.92194
 Cu1166 Cu 1.10404 1.00017 0.89578
 Cu1167 Cu 0.92216 1.00007 0.92199
 Cu1168 Cu 0.89611 1.00013 0.89577
 Cu1169 Cu 1.07811 1.07820 0.99985
 Cu1170 Cu 1.10423 1.10429 0.99988
 Cu1171 Cu 1.07806 0.92193 1.00034
 Cu1172 Cu 1.10418 0.89580 1.00021
 Cu1173 Cu 0.92205 1.07808 1.00005
 Cu1174 Cu 0.89595 1.10421 1.00007
 Cu1175 Cu 0.92206 0.92211 1.00006
 Cu1176 Cu 0.89601 0.89597 1.00007
 Cu1177 Cu 1.00014 1.07827 0.92196
 Cu1178 Cu 1.00004 1.10438 0.89576
 Cu1179 Cu 1.00011 0.92214 0.92205
 Cu1180 Cu 1.00017 0.89602 0.89588
 C1181 C 1.04869 0.95151 0.89047
 H1182 H 1.04301 0.95716 0.90330
 C1183 C 1.06417 0.93609 0.85784
 C1184 C 0.95147 1.04889 0.89050
 H1185 H 0.95713 1.04325 0.90336
 C1186 C 0.93595 1.06433 0.85789
 C1187 C 0.95141 1.10969 0.95133
 H1188 H 0.95708 1.09687 0.95700
 C1189 C 0.93590 1.14223 0.93584
 C1190 C 1.04875 0.89058 0.95150
 H1191 H 1.04308 0.90338 0.95719
 C1192 C 1.06423 0.85807 0.93596
 C1193 C 1.10931 0.95142 0.95144
 H1194 H 1.09648 0.95704 0.95710
 C1195 C 1.14192 0.93605 0.93599
 C1196 C 0.89058 1.04880 0.95128
 H1197 H 0.90339 1.04315 0.95696
 C1198 C 0.85802 1.06422 0.93579
 C1199 C 1.04875 1.04898 0.89026
 H1200 H 1.04310 1.04331 0.90310
 C1201 C 1.06415 1.06448 0.85762
 C1202 C 0.95144 0.95139 0.89041
 H1203 H 0.95710 0.95706 0.90324
 C1204 C 0.93597 0.93589 0.85783
 C1205 C 1.10959 1.04884 0.95119
 H1206 H 1.09676 1.04323 0.95685
 C1207 C 1.14218 1.06417 0.93574
 C1208 C 0.89057 0.95146 0.95131
 H1209 H 0.90340 0.95709 0.95696
 C1210 C 0.85798 0.93611 0.93591
 C1211 C 1.04892 1.10979 0.95105
 H1212 H 1.04329 1.09696 0.95674
 C1213 C 1.06427 1.14240 0.93554
 C1214 C 0.95139 0.89060 0.95129
 H1215 H 0.95701 0.90342 0.95697
 C1216 C 0.93603 0.85803 0.93578
 O1217 O 1.06749 0.51805 0.59293
 O1218 O 1.08919 0.51799 0.61475
 C1219 C 1.07414 0.52452 0.60805
 C1220 C 1.06469 0.54028 0.61755
 C1221 C 1.07228 0.54803 0.63389
 H1222 H 1.08468 0.54188 0.63995
 O1223 O 0.93271 0.48146 0.59305
 O1224 O 0.91098 0.48151 0.61484
 C1225 C 0.92603 0.47497 0.60816
 C1226 C 0.93545 0.45919 0.61765
 C1227 C 0.92786 0.45145 0.63401
 H1228 H 0.91549 0.45763 0.64007
 O1229 O 1.01836 0.59279 0.56742
 O1230 O 1.01832 0.61453 0.58921
 C1231 C 1.02483 0.60788 0.57410
 C1232 C 1.04054 0.61738 0.56459
 C1233 C 1.04827 0.63372 0.57215
 H1234 H 1.04214 0.63980 0.58457
 O1235 O 0.98178 0.40679 0.56738
 O1236 O 0.98178 0.38504 0.58919
 C1237 C 0.97530 0.39171 0.57406
 C1238 C 0.95958 0.38225 0.56454
 C1239 C 0.95181 0.36593 0.57213
 H1240 H 0.95792 0.35983 0.58455
 O1241 O 1.09299 0.56734 0.51816
 O1242 O 1.11473 0.58906 0.51819
 C1243 C 1.10806 0.57398 0.52468
 C1244 C 1.11752 0.56444 0.54045
 C1245 C 1.13385 0.57197 0.54823
 H1246 H 1.13993 0.58438 0.54212
 O1247 O 0.90707 0.43238 0.51814
 O1248 O 0.88536 0.41062 0.51822
 C1249 C 0.89203 0.42571 0.52470
 C1250 C 0.88261 0.43521 0.54049
 C1251 C 0.86625 0.42773 0.54827
 H1252 H 0.86013 0.41536 0.54214
 O1253 O 0.98191 0.56717 0.59293
 O1254 O 0.98189 0.58889 0.61473
 C1255 C 0.97542 0.57381 0.60805
 C1256 C 0.95969 0.56433 0.61755
 C1257 C 0.95194 0.57192 0.63389
 H1258 H 0.95805 0.58434 0.63993
 O1259 O 1.01817 0.43240 0.59294
 O1260 O 1.01818 0.41066 0.61476
 C1261 C 1.02465 0.42575 0.60806
 C1262 C 1.04036 0.43525 0.61756
 C1263 C 1.04809 0.42769 0.63395
 H1264 H 1.04194 0.41530 0.64004
 O1265 O 1.09299 0.48146 0.56744
 O1266 O 1.11471 0.48144 0.58924
 C1267 C 1.10806 0.47495 0.57413
 C1268 C 1.11755 0.45922 0.56463
 C1269 C 1.13393 0.45152 0.57214
 H1270 H 1.14003 0.45767 0.58453
 O1271 O 0.90724 0.51804 0.56751
 O1272 O 0.88550 0.51805 0.58929
 C1273 C 0.89217 0.52454 0.57417
 C1274 C 0.88269 0.54027 0.56464
 C1275 C 0.86635 0.54802 0.57218
 H1276 H 0.86027 0.54191 0.58461
 O1277 O 0.93264 0.59274 0.51824
 O1278 O 0.91090 0.61449 0.51821
 C1279 C 0.92596 0.60782 0.52474
 C1280 C 0.93542 0.61729 0.54053
 C1281 C 0.92788 0.63365 0.54829
 H1282 H 0.91548 0.63973 0.54217
 O1283 O 1.06762 0.40669 0.51839
 O1284 O 1.08932 0.38490 0.51840
 C1285 C 1.07428 0.39160 0.52493
 C1286 C 1.06479 0.38215 0.54073
 C1287 C 1.07229 0.36579 0.54855
 H1288 H 1.08469 0.35968 0.54246
 O1289 O 0.93275 0.51800 0.59303
 O1290 O 0.91102 0.51804 0.61482
 C1291 C 0.92609 0.52452 0.60813
 C1292 C 0.93558 0.54026 0.61760
 C1293 C 0.92803 0.54806 0.63396
 H1294 H 0.91563 0.54198 0.64006
 O1295 O 1.06741 0.48152 0.59292
 O1296 O 1.08911 0.48146 0.61473
 C1297 C 1.07404 0.47501 0.60804
 C1298 C 1.06450 0.45930 0.61755
 C1299 C 1.07201 0.45153 0.63394
 H1300 H 1.08441 0.45762 0.64004
 O1301 O 1.01831 0.40675 0.56754
 O1302 O 1.01829 0.38500 0.58934
 C1303 C 1.02482 0.39168 0.57425
 C1304 C 1.04061 0.38220 0.56482
 C1305 C 1.04832 0.36584 0.57242
 H1306 H 1.04215 0.35978 0.58482
 O1307 O 0.98185 0.59275 0.56743
 O1308 O 0.98182 0.61449 0.58922
 C1309 C 0.97533 0.60782 0.57412
 C1310 C 0.95956 0.61729 0.56463
 C1311 C 0.95183 0.63366 0.57217
 H1312 H 0.95799 0.63976 0.58455
 O1313 O 0.90723 0.56718 0.51819
 O1314 O 0.88548 0.58892 0.51815
 C1315 C 0.89215 0.57384 0.52467
 C1316 C 0.88268 0.56435 0.54044
 C1317 C 0.86634 0.57190 0.54819
 H1318 H 0.86027 0.58429 0.54203
 O1319 O 1.09302 0.43225 0.51826
 O1320 O 1.11475 0.41048 0.51827
 C1321 C 1.10809 0.42558 0.52476
 C1322 C 1.11757 0.43509 0.54050
 C1323 C 1.13394 0.42759 0.54824
 H1324 H 1.14003 0.41519 0.54211
 O1325 O 0.98167 0.43215 0.59307
 O1326 O 0.98169 0.41041 0.61489
 C1327 C 0.97518 0.42547 0.60819
 C1328 C 0.95945 0.43497 0.61767
 C1329 C 0.95164 0.42743 0.63404
 H1330 H 0.95769 0.41499 0.64013
 O1331 O 1.01841 0.56730 0.59301
 O1332 O 1.01838 0.58902 0.61481
 C1333 C 1.02490 0.57395 0.60812
 C1334 C 1.04064 0.56445 0.61759
 C1335 C 1.04845 0.57200 0.63394
 H1336 H 1.04238 0.58442 0.64002
 O1337 O 0.90728 0.48151 0.56746
 O1338 O 0.88554 0.48154 0.58924
 C1339 C 0.89220 0.47504 0.57414
 C1340 C 0.88270 0.45932 0.56464
 C1341 C 0.86634 0.45163 0.57220
 H1342 H 0.86029 0.45777 0.58463
 O1343 O 1.09297 0.51803 0.56737
 O1344 O 1.11468 0.51798 0.58918
 C1345 C 1.10804 0.52451 0.57406
 C1346 C 1.11752 0.54027 0.56457
 C1347 C 1.13385 0.54800 0.57214
 H1348 H 1.13992 0.54185 0.58456
 O1349 O 0.93256 0.40686 0.51811
 O1350 O 0.91087 0.38509 0.51817
 C1351 C 0.92594 0.39177 0.52464
 C1352 C 0.93547 0.38230 0.54040
 C1353 C 0.92792 0.36598 0.54819
 H1354 H 0.91552 0.35993 0.54207
 O1355 O 1.06751 0.59286 0.51815
 O1356 O 1.08923 0.61461 0.51818
 C1357 C 1.07416 0.60793 0.52467
 C1358 C 1.06465 0.61739 0.54044
 C1359 C 1.07217 0.63373 0.54821
 H1360 H 1.08456 0.63981 0.54208
 Cu1361 Cu 1.07803 0.49976 0.57797
 Cu1362 Cu 1.10410 0.49971 0.60416
 Cu1363 Cu 0.92219 0.49976 0.57807
 Cu1364 Cu 0.89608 0.49979 0.60424
 Cu1365 Cu 1.00015 0.57781 0.57800
 Cu1366 Cu 1.00010 0.60391 0.60418
 Cu1367 Cu 0.99997 0.42171 0.57803
 Cu1368 Cu 0.99999 0.39559 0.60423
 C1369 C 1.04880 0.54853 0.60958
 H1370 H 1.04311 0.54288 0.59676
 C1371 C 1.06434 0.56396 0.64216
 C1372 C 0.95132 0.45092 0.60966
 H1373 H 0.95700 0.45657 0.59683
 C1374 C 0.93578 0.43551 0.64229
 C1375 C 1.04876 0.60941 0.54865
 H1376 H 1.04311 0.59659 0.54298
 C1377 C 1.06415 0.64197 0.56413
 C1378 C 0.95138 0.39026 0.54860
 H1379 H 0.95704 0.40307 0.54292
 C1380 C 0.93590 0.35775 0.56413
 C1381 C 1.10954 0.54852 0.54864
 H1382 H 1.09674 0.54288 0.54296
 C1383 C 1.14208 0.56392 0.56415
 C1384 C 0.89065 0.45108 0.54871
 H1385 H 0.90347 0.45670 0.54303
 C1386 C 0.85804 0.43578 0.56418
 C1387 C 0.95147 0.54843 0.60957
 H1388 H 0.95713 0.54275 0.59674
 C1389 C 0.93604 0.56397 0.64216
 C1390 C 1.04860 0.45112 0.60954
 H1391 H 1.04298 0.45678 0.59667
 C1392 C 1.06398 0.43565 0.64220
 C1393 C 1.10956 0.45098 0.54873
 H1394 H 1.09671 0.45660 0.54309
 C1395 C 1.14219 0.43563 0.56412
 C1396 C 0.89068 0.54846 0.54870
 H1397 H 0.90350 0.54281 0.54305
 C1398 C 0.85810 0.56390 0.56412
 C1399 C 0.95132 0.60929 0.54874
 H1400 H 0.95697 0.59646 0.54308
 C1401 C 0.93593 0.64192 0.56417
 C1402 C 1.04888 0.39018 0.54891
 H1403 H 1.04325 0.40301 0.54321
 C1404 C 1.06422 0.35755 0.56446
 O1405 O 1.06749 0.48169 0.40706
 O1406 O 1.08921 0.48163 0.38525
 C1407 C 1.07412 0.47518 0.39195
 C1408 C 1.06462 0.45946 0.38247
 C1409 C 1.07220 0.45171 0.36612
 H1410 H 1.08461 0.45782 0.36008
 O1411 O 0.93278 0.51779 0.40698
 O1412 O 0.91110 0.51792 0.38514
 C1413 C 0.92618 0.52435 0.39187
 C1414 C 0.93569 0.54010 0.38242
 C1415 C 0.92811 0.54789 0.36608
 H1416 H 0.91571 0.54178 0.36001
 O1417 O 0.98198 0.59274 0.43240
 O1418 O 0.98190 0.61447 0.41057
 C1419 C 0.97545 0.60781 0.42570
 C1420 C 0.95973 0.61729 0.43523
 C1421 C 0.95201 0.63369 0.42771
 H1422 H 0.95814 0.63979 0.41530
 O1423 O 1.01825 0.40690 0.43246
 O1424 O 1.01833 0.38516 0.41068
 C1425 C 1.02477 0.39182 0.42580
 C1426 C 1.04048 0.38233 0.43534
 C1427 C 1.04824 0.36600 0.42776
 H1428 H 1.04214 0.35996 0.41532
 O1429 O 1.09306 0.43210 0.48165
 O1430 O 1.11478 0.41033 0.48164
 C1431 C 1.10811 0.42541 0.47511
 C1432 C 1.11757 0.43490 0.45931
 C1433 C 1.13392 0.42738 0.45151
 H1434 H 1.14000 0.41495 0.45761
 O1435 O 0.90727 0.56723 0.48158
 O1436 O 0.88552 0.58897 0.48154
 C1437 C 0.89221 0.57390 0.47504
 C1438 C 0.88275 0.56440 0.45927
 C1439 C 0.86639 0.57193 0.45151
 H1440 H 0.86032 0.58434 0.45762
 O1441 O 1.01856 0.56727 0.40687
 O1442 O 1.01845 0.58898 0.38503
 C1443 C 1.02502 0.57394 0.39174
 C1444 C 1.04081 0.56452 0.38226
 C1445 C 1.04856 0.57212 0.36589
 H1446 H 1.04238 0.58451 0.35982
 O1447 O 0.98172 0.43232 0.40680
 O1448 O 0.98184 0.41059 0.38502
 C1449 C 0.97527 0.42564 0.39169
 C1450 C 0.95950 0.43505 0.38218
 C1451 C 0.95176 0.42744 0.36583
 H1452 H 0.95792 0.41504 0.35978
 O1453 O 1.09319 0.51810 0.43250
 O1454 O 1.11491 0.51805 0.41071
 C1455 C 1.10826 0.52457 0.42581
 C1456 C 1.11772 0.54031 0.43529
 C1457 C 1.13408 0.54805 0.42776
 H1458 H 1.14020 0.54190 0.41537
 O1459 O 0.90698 0.48132 0.43230
 O1460 O 0.88529 0.48146 0.41048
 C1461 C 0.89190 0.47490 0.42559
 C1462 C 0.88238 0.45918 0.43508
 C1463 C 0.86606 0.45144 0.42751
 H1464 H 0.86000 0.45756 0.41506
 O1465 O 1.06759 0.59294 0.48155
 O1466 O 1.08931 0.61469 0.48156
 C1467 C 1.07425 0.60803 0.47504
 C1468 C 1.06475 0.61751 0.45927
 C1469 C 1.07225 0.63387 0.45147
 H1470 H 1.08463 0.63997 0.45760
 O1471 O 0.93253 0.40689 0.48154
 O1472 O 0.91084 0.38512 0.48158
 C1473 C 0.92590 0.39179 0.47506
 C1474 C 0.93541 0.38230 0.45931
 C1475 C 0.92790 0.36595 0.45155
 H1476 H 0.91550 0.35987 0.45767
 O1477 O 0.93248 0.48126 0.40677
 O1478 O 0.91080 0.48139 0.38493
 C1479 C 0.92583 0.47482 0.39163
 C1480 C 0.93531 0.45907 0.38215
 C1481 C 0.92777 0.45125 0.36579
 H1482 H 0.91534 0.45732 0.35972
 O1483 O 1.06780 0.51822 0.40686
 O1484 O 1.08951 0.51816 0.38505
 C1485 C 1.07447 0.52471 0.39174
 C1486 C 1.06500 0.54048 0.38224
 C1487 C 1.07253 0.54830 0.36587
 H1488 H 1.08495 0.54222 0.35978
 O1489 O 0.98175 0.40686 0.43241
 O1490 O 0.98184 0.38511 0.41063
 C1491 C 0.97531 0.39177 0.42573
 C1492 C 0.95957 0.38228 0.43522
 C1493 C 0.95185 0.36592 0.42766
 H1494 H 0.95800 0.35983 0.41527
 O1495 O 1.01849 0.59282 0.43238
 O1496 O 1.01839 0.61454 0.41054
 C1497 C 1.02493 0.60792 0.42566
 C1498 C 1.04064 0.61746 0.43513
 C1499 C 1.04835 0.63382 0.42754
 H1500 H 1.04222 0.63987 0.41510
 O1501 O 0.90691 0.43227 0.48153
 O1502 O 0.88520 0.41053 0.48160
 C1503 C 0.89184 0.42560 0.47505
 C1504 C 0.88235 0.43508 0.45927
 C1505 C 0.86603 0.42755 0.45150
 H1506 H 0.85995 0.41515 0.45765
 O1507 O 1.09303 0.56737 0.48157
 O1508 O 1.11477 0.58909 0.48160
 C1509 C 1.10812 0.57402 0.47509
 C1510 C 1.11763 0.56449 0.45937
 C1511 C 1.13397 0.57201 0.45163
 H1512 H 1.14002 0.58443 0.45775
 O1513 O 1.01824 0.43248 0.40695
 O1514 O 1.01836 0.41074 0.38516
 C1515 C 1.02480 0.42583 0.39186
 C1516 C 1.04054 0.43535 0.38241
 C1517 C 1.04834 0.42781 0.36605
 H1518 H 1.04227 0.41540 0.35995
 O1519 O 0.98203 0.56712 0.40697
 O1520 O 0.98193 0.58884 0.38513
 C1521 C 0.97548 0.57376 0.39186
 C1522 C 0.95975 0.56424 0.38241
 C1523 C 0.95194 0.57181 0.36606
 H1524 H 0.95801 0.58424 0.35997
 O1525 O 0.90718 0.51786 0.43240
 O1526 O 0.88549 0.51799 0.41058
 C1527 C 0.89216 0.52445 0.42570
 C1528 C 0.88273 0.54023 0.43518
 C1529 C 0.86637 0.54798 0.42763
 H1530 H 0.86029 0.54183 0.41523
 O1531 O 1.09311 0.48153 0.43248
 O1532 O 1.11483 0.48149 0.41068
 C1533 C 1.10815 0.47497 0.42578
 C1534 C 1.11759 0.45914 0.43523
 C1535 C 1.13393 0.45140 0.42766
 H1536 H 1.14002 0.45759 0.41528
 O1537 O 1.06743 0.40677 0.48179
 O1538 O 1.08913 0.38497 0.48177
 C1539 C 1.07406 0.39168 0.47529
 C1540 C 1.06454 0.38224 0.45953
 C1541 C 1.07208 0.36591 0.45174
 H1542 H 1.08446 0.35980 0.45787
 O1543 O 0.93277 0.59271 0.48165
 O1544 O 0.91104 0.61447 0.48161
 C1545 C 0.92612 0.60780 0.47514
 C1546 C 0.93564 0.61729 0.45939
 C1547 C 0.92813 0.63368 0.45166
 H1548 H 0.91575 0.63976 0.45781
 Cu1549 Cu 1.07822 0.49991 0.42193
 Cu1550 Cu 1.10430 0.49981 0.39574
 Cu1551 Cu 0.92204 0.49952 0.42181
 Cu1552 Cu 0.89600 0.49972 0.39559
 Cu1553 Cu 1.07809 0.57795 0.49985
 Cu1554 Cu 1.10419 0.60404 0.49989
 Cu1555 Cu 1.07810 0.42164 0.50002
 Cu1556 Cu 1.10417 0.39548 0.50002
 Cu1557 Cu 0.92217 0.57777 0.49992
 Cu1558 Cu 0.89605 0.60389 0.49987
 Cu1559 Cu 0.92194 0.42180 0.49982
 Cu1560 Cu 0.89589 0.39565 0.49990
 Cu1561 Cu 1.00027 0.57780 0.42185
 Cu1562 Cu 1.00016 0.60387 0.39562
 Cu1563 Cu 0.99998 0.42183 0.42185
 Cu1564 Cu 1.00011 0.39572 0.39568
 C1565 C 1.04871 0.45126 0.39043
 H1566 H 1.04302 0.45691 0.40326
 C1567 C 1.06423 0.43583 0.35784
 C1568 C 0.95158 0.54830 0.39042
 H1569 H 0.95726 0.54262 0.40325
 C1570 C 0.93606 0.56380 0.35782
 C1571 C 0.95151 0.60928 0.45115
 H1572 H 0.95713 0.59643 0.45679
 C1573 C 0.93615 0.64194 0.43576
 C1574 C 1.04866 0.39028 0.45130
 H1575 H 1.04302 0.40310 0.45697
 C1576 C 1.06411 0.35774 0.43578
 C1577 C 1.10959 0.45085 0.45112
 H1578 H 1.09677 0.45649 0.45679
 C1579 C 1.14218 0.43546 0.43562
 C1580 C 0.89073 0.54848 0.45107
 H1581 H 0.90355 0.54283 0.45674
 C1582 C 0.85813 0.56388 0.43563
 C1583 C 1.04908 0.54864 0.39025
 H1584 H 1.04344 0.54295 0.40309
 C1585 C 1.06448 0.56420 0.35762
 C1586 C 0.95124 0.45093 0.39015
 H1587 H 0.95689 0.45663 0.40297
 C1588 C 0.93584 0.43538 0.35755
 C1589 C 1.10969 0.54857 0.45117
 H1590 H 1.09686 0.54293 0.45682
 C1591 C 1.14227 0.56397 0.43576
 C1592 C 0.89034 0.45097 0.45103
 H1593 H 0.90314 0.45662 0.45670
 C1594 C 0.85781 0.43555 0.43555
 C1595 C 1.04887 0.60950 0.45107
 H1596 H 1.04324 0.59668 0.45676
 C1597 C 1.06421 0.64210 0.43555
 C1598 C 0.95131 0.39028 0.45111
 H1599 H 0.95693 0.40312 0.45676
 C1600 C 0.93594 0.35769 0.43565
 O1601 O 0.48140 0.93246 0.40677
 O1602 O 0.48157 0.91072 0.38499
 C1603 C 0.47499 0.92577 0.39164
 C1604 C 0.45923 0.93519 0.38211
 C1605 C 0.45148 0.92759 0.36576
 H1606 H 0.45763 0.91518 0.35972
 O1607 O 0.51824 1.06767 0.40705
 O1608 O 0.51811 1.08937 0.38519
 C1609 C 0.52468 1.07433 0.39190
 C1610 C 0.54044 1.06488 0.38240
 C1611 C 0.54817 1.07247 0.36602
 H1612 H 0.54203 1.08487 0.35995
 O1613 O 0.40691 0.98151 0.43237
 O1614 O 0.38517 0.98169 0.41059
 C1615 C 0.39180 0.97512 0.42568
 C1616 C 0.38227 0.95942 0.43519
 C1617 C 0.36593 0.95168 0.42764
 H1618 H 0.35987 0.95778 0.41519
 O1619 O 0.59289 1.01841 0.43246
 O1620 O 0.61456 1.01836 0.41061
 C1621 C 0.60795 1.02487 0.42574
 C1622 C 0.61746 1.04058 0.43523
 C1623 C 0.63380 1.04829 0.42767
 H1624 H 0.63989 1.04214 0.41527
 O1625 O 0.43226 0.90694 0.48151
 O1626 O 0.41056 0.88518 0.48159
 C1627 C 0.42560 0.89186 0.47503
 C1628 C 0.43507 0.88238 0.45925
 C1629 C 0.42757 0.86602 0.45147
 H1630 H 0.41519 0.85992 0.45760
 O1631 O 0.56748 1.09325 0.48149
 O1632 O 0.58920 1.11499 0.48150
 C1633 C 0.57413 1.10834 0.47499
 C1634 C 0.56461 1.11784 0.45923
 C1635 C 0.57211 1.13419 0.45142
 H1636 H 0.58452 1.14027 0.45749
 O1637 O 0.43269 1.01798 0.40703
 O1638 O 0.41095 1.01816 0.38525
 C1639 C 0.42604 1.02457 0.39196
 C1640 C 0.43552 1.04035 0.38252
 C1641 C 0.42793 1.04813 0.36618
 H1642 H 0.41555 1.04200 0.36010
 O1643 O 0.56715 0.98195 0.40712
 O1644 O 0.58881 0.98191 0.38526
 C1645 C 0.57376 0.97544 0.39200
 C1646 C 0.56428 0.95969 0.38253
 C1647 C 0.57186 0.95194 0.36618
 H1648 H 0.58427 0.95808 0.36013
 O1649 O 0.51792 0.90713 0.43252
 O1650 O 0.51807 0.88537 0.41076
 C1651 C 0.52449 0.89207 0.42587
 C1652 C 0.54025 0.88266 0.43541
 C1653 C 0.54801 0.86629 0.42791
 H1654 H 0.54187 0.86015 0.41553
 O1655 O 0.48166 1.09315 0.43258
 O1656 O 0.48156 1.11486 0.41073
 C1657 C 0.47511 1.10821 0.42586
 C1658 C 0.45936 1.11767 0.43537
 C1659 C 0.45156 1.13400 0.42778
 H1660 H 0.45764 1.14006 0.41532
 O1661 O 0.40717 1.06753 0.48186
 O1662 O 0.38540 1.08925 0.48175
 C1663 C 0.39210 1.07416 0.47529
 C1664 C 0.38267 1.06460 0.45953
 C1665 C 0.36628 1.07206 0.45178
 H1666 H 0.36016 1.08445 0.45789
 O1667 O 0.59293 0.93273 0.48168
 O1668 O 0.61464 0.91095 0.48171
 C1669 C 0.60799 0.92603 0.47518
 C1670 C 0.61746 0.93551 0.45939
 C1671 C 0.63382 0.92798 0.45162
 H1672 H 0.63991 0.91558 0.45776
 O1673 O 0.48173 1.06752 0.40715
 O1674 O 0.48162 1.08922 0.38529
 C1675 C 0.47519 1.07413 0.39203
 C1676 C 0.45950 1.06457 0.38256
 C1677 C 0.45169 1.07213 0.36620
 H1678 H 0.45772 1.08458 0.36014
 O1679 O 0.51791 0.93265 0.40698
 O1680 O 0.51808 0.91091 0.38520
 C1681 C 0.52449 0.92600 0.39190
 C1682 C 0.54023 0.93554 0.38247
 C1683 C 0.54805 0.92801 0.36612
 H1684 H 0.54198 0.91560 0.36001
 O1685 O 0.59286 0.98189 0.43245
 O1686 O 0.61453 0.98185 0.41060
 C1687 C 0.60790 0.97537 0.42573
 C1688 C 0.61741 0.95963 0.43523
 C1689 C 0.63376 0.95190 0.42767
 H1690 H 0.63982 0.95804 0.41524
 O1691 O 0.40718 1.01804 0.43257
 O1692 O 0.38543 1.01821 0.41080
 C1693 C 0.39213 1.02463 0.42592
 C1694 C 0.38269 1.04040 0.43545
 C1695 C 0.36630 1.04808 0.42794
 H1696 H 0.36019 1.04189 0.41557
 O1697 O 0.43250 1.09317 0.48191
 O1698 O 0.41075 1.11491 0.48183
 C1699 C 0.42583 1.10824 0.47536
 C1700 C 0.43532 1.11770 0.45958
 C1701 C 0.42775 1.13402 0.45178
 H1702 H 0.41536 1.14011 0.45793
 O1703 O 0.56728 0.90739 0.48171
 O1704 O 0.58898 0.88560 0.48174
 C1705 C 0.57392 0.89229 0.47523
 C1706 C 0.56441 0.88279 0.45950
 C1707 C 0.57196 0.86643 0.45177
 H1708 H 0.58440 0.86040 0.45788
 O1709 O 0.56740 1.01850 0.40693
 O1710 O 0.58906 1.01846 0.38507
 C1711 C 0.57403 1.02500 0.39180
 C1712 C 0.56456 1.04079 0.38235
 C1713 C 0.57209 1.04858 0.36597
 H1714 H 0.58448 1.04248 0.35986
 O1715 O 0.43233 0.98143 0.40673
 O1716 O 0.41060 0.98161 0.38495
 C1717 C 0.42563 0.97501 0.39161
 C1718 C 0.43507 0.95925 0.38208
 C1719 C 0.42752 0.95144 0.36572
 H1720 H 0.41510 0.95753 0.35964
 O1721 O 0.51819 1.09325 0.43252
 O1722 O 0.51808 1.11495 0.41067
 C1723 C 0.52464 1.10833 0.42578
 C1724 C 0.54040 1.11784 0.43519
 C1725 C 0.54811 1.13419 0.42757
 H1726 H 0.54195 1.14025 0.41516
 O1727 O 0.48140 0.90700 0.43239
 O1728 O 0.48156 0.88525 0.41062
 C1729 C 0.47498 0.89191 0.42569
 C1730 C 0.45922 0.88241 0.43514
 C1731 C 0.45151 0.86605 0.42757
 H1732 H 0.45768 0.85998 0.41517
 O1733 O 0.59288 1.06764 0.48155
 O1734 O 0.61463 1.08935 0.48155
 C1735 C 0.60796 1.07427 0.47506
 C1736 C 0.61744 1.06473 0.45933
 C1737 C 0.63378 1.07224 0.45156
 H1738 H 0.63985 1.08465 0.45767
 O1739 O 0.40682 0.93249 0.48159
 O1740 O 0.38509 0.91076 0.48167
 C1741 C 0.39174 0.92584 0.47514
 C1742 C 0.38224 0.93535 0.45940
 C1743 C 0.36590 0.92784 0.45167
 H1744 H 0.35981 0.91547 0.45785
 Cu1745 Cu 0.49964 0.92200 0.42185
 Cu1746 Cu 0.49984 0.89587 0.39571
 Cu1747 Cu 0.49996 1.07822 0.42203
 Cu1748 Cu 0.49982 1.10427 0.39578
 Cu1749 Cu 0.42197 0.99969 0.42187
 Cu1750 Cu 0.39586 0.99995 0.39571
 Cu1751 Cu 0.57789 1.00021 0.42194
 Cu1752 Cu 0.60390 1.00013 0.39568
 C1753 C 0.45100 0.95109 0.39007
 H1754 H 0.45666 0.95678 0.40289
 C1755 C 0.43557 0.93555 0.35748
 C1756 C 0.54868 1.04898 0.39038
 H1757 H 0.54305 1.04330 0.40323
 C1758 C 0.56406 1.06449 0.35773
 C1759 C 0.39024 0.95122 0.45114
 H1760 H 0.40306 0.95684 0.45678
 C1761 C 0.35769 0.93581 0.43571
 C1762 C 0.60947 1.04882 0.45114
 H1763 H 0.59665 1.04320 0.45681
 C1764 C 0.64201 1.06420 0.43566
 C1765 C 0.45096 0.89039 0.45104
 H1766 H 0.45658 0.90321 0.45671
 C1767 C 0.43562 0.85777 0.43556
 C1768 C 0.54868 1.10987 0.45109
 H1769 H 0.54305 1.09706 0.45681
 C1770 C 0.56402 1.14246 0.43553
 C1771 C 0.45138 1.04860 0.39054
 H1772 H 0.45707 1.04292 0.40337
 C1773 C 0.43584 1.06408 0.35795
 C1774 C 0.54838 0.95145 0.39051
 H1775 H 0.54270 0.95709 0.40334
 C1776 C 0.56393 0.93605 0.35790
 C1777 C 0.54848 0.89072 0.45129
 H1778 H 0.54281 0.90355 0.45692
 C1779 C 0.56394 0.85812 0.43591
 C1780 C 0.45120 1.10971 0.45134
 H1781 H 0.45688 1.09690 0.45703
 C1782 C 0.43569 1.14224 0.43582
 C1783 C 0.39071 1.04869 0.45132
 H1784 H 0.40356 1.04309 0.45696
 C1785 C 0.35803 1.06398 0.43591
 C1786 C 0.60945 0.95140 0.45116
 H1787 H 0.59663 0.95704 0.45683
 C1788 C 0.64205 0.93602 0.43570
 O1789 O 0.51804 0.93283 0.59295
 O1790 O 0.51805 0.91108 0.61476
 C1791 C 0.52452 0.92617 0.60807
 C1792 C 0.54022 0.93566 0.61760
 C1793 C 0.54797 0.92805 0.63395
 H1794 H 0.54189 0.91561 0.63997
 O1795 O 0.48191 1.06740 0.59294
 O1796 O 0.48184 1.08912 0.61475
 C1797 C 0.47539 1.07403 0.60805
 C1798 C 0.45964 1.06453 0.61750
 C1799 C 0.45192 1.07207 0.63388
 H1800 H 0.45809 1.08442 0.64000
 O1801 O 0.40676 1.01840 0.56744
 O1802 O 0.38508 1.01838 0.58927
 C1803 C 0.39170 1.02489 0.57415
 C1804 C 0.38220 1.04063 0.56467
 C1805 C 0.36585 1.04835 0.57222
 H1806 H 0.35974 1.04216 0.58460
 O1807 O 0.59273 0.98196 0.56767
 O1808 O 0.61448 0.98191 0.58943
 C1809 C 0.60779 0.97543 0.57433
 C1810 C 0.61725 0.95968 0.56481
 C1811 C 0.63361 0.95193 0.57235
 H1812 H 0.63968 0.95804 0.58478
 O1813 O 0.56738 0.90730 0.51830
 O1814 O 0.58909 0.88551 0.51833
 C1815 C 0.57402 0.89221 0.52482
 C1816 C 0.56450 0.88274 0.54058
 C1817 C 0.57201 0.86638 0.54837
 H1818 H 0.58442 0.86029 0.54228
 O1819 O 0.43246 1.09310 0.51853
 O1820 O 0.41071 1.11483 0.51846
 C1821 C 0.42576 1.10817 0.52503
 C1822 C 0.43520 1.11764 0.54083
 C1823 C 0.42764 1.13398 0.54861
 H1824 H 0.41522 1.14003 0.54250
 O1825 O 0.43237 0.98188 0.59291
 O1826 O 0.41070 0.98190 0.61477
 C1827 C 0.42575 0.97540 0.60806
 C1828 C 0.43527 0.95969 0.61757
 C1829 C 0.42774 0.95194 0.63395
 H1830 H 0.41534 0.95806 0.64002
 O1831 O 0.56738 1.01860 0.59324
 O1832 O 0.58911 1.01850 0.61503
 C1833 C 0.57407 1.02507 0.60835
 C1834 C 0.56467 1.04087 0.61783
 C1835 C 0.57225 1.04863 0.63419
 H1836 H 0.58460 1.04244 0.64029
 O1837 O 0.48157 0.90725 0.56744
 O1838 O 0.48160 0.88551 0.58925
 C1839 C 0.47510 0.89216 0.57414
 C1840 C 0.45940 0.88265 0.56464
 C1841 C 0.45166 0.86632 0.57225
 H1842 H 0.45774 0.86028 0.58472
 O1843 O 0.51825 1.09311 0.56740
 O1844 O 0.51821 1.11485 0.58919
 C1845 C 0.52469 1.10820 0.57406
 C1846 C 0.54038 1.11771 0.56451
 C1847 C 0.54812 1.13405 0.57206
 H1848 H 0.54200 1.14012 0.58449
 O1849 O 0.40689 0.93248 0.51817
 O1850 O 0.38516 0.91074 0.51827
 C1851 C 0.39184 0.92582 0.52474
 C1852 C 0.38241 0.93536 0.54050
 C1853 C 0.36608 0.92787 0.54831
 H1854 H 0.36000 0.91545 0.54224
 O1855 O 0.59285 1.06765 0.51814
 O1856 O 0.61460 1.08936 0.51816
 C1857 C 0.60792 1.07428 0.52466
 C1858 C 0.61737 1.06476 0.54045
 C1859 C 0.63372 1.07227 0.54821
 H1860 H 0.63983 1.08464 0.54205
 O1861 O 0.51841 1.06784 0.59322
 O1862 O 0.51833 1.08957 0.61501
 C1863 C 0.52489 1.07453 0.60833
 C1864 C 0.54065 1.06508 0.61781
 C1865 C 0.54846 1.07265 0.63416
 H1866 H 0.54238 1.08509 0.64022
 O1867 O 0.48156 0.93276 0.59298
 O1868 O 0.48159 0.91102 0.61480
 C1869 C 0.47509 0.92610 0.60811
 C1870 C 0.45938 0.93559 0.61761
 C1871 C 0.45164 0.92805 0.63400
 H1872 H 0.45778 0.91566 0.64012
 O1873 O 0.59273 1.01850 0.56754
 O1874 O 0.61447 1.01844 0.58931
 C1875 C 0.60782 1.02495 0.57419
 C1876 C 0.61732 1.04066 0.56465
 C1877 C 0.63366 1.04838 0.57220
 H1878 H 0.63972 1.04226 0.58463
 O1879 O 0.40697 0.98185 0.56729
 O1880 O 0.38529 0.98184 0.58913
 C1881 C 0.39192 0.97534 0.57401
 C1882 C 0.38245 0.95957 0.56456
 C1883 C 0.36610 0.95187 0.57215
 H1884 H 0.36004 0.95804 0.58455
 O1885 O 0.56735 1.09315 0.51809
 O1886 O 0.58908 1.11489 0.51811
 C1887 C 0.57400 1.10823 0.52460
 C1888 C 0.56449 1.11770 0.54036
 C1889 C 0.57203 1.13402 0.54814
 H1890 H 0.58444 1.14007 0.54203
 O1891 O 0.43245 0.90707 0.51811
 O1892 O 0.41076 0.88530 0.51821
 C1893 C 0.42583 0.89199 0.52467
 C1894 C 0.43536 0.88257 0.54044
 C1895 C 0.42785 0.86623 0.54823
 H1896 H 0.41549 0.86012 0.54208
 O1897 O 0.56716 0.98206 0.59313
 O1898 O 0.58890 0.98195 0.61491
 C1899 C 0.57381 0.97551 0.60823
 C1900 C 0.56430 0.95978 0.61769
 C1901 C 0.57183 0.95196 0.63405
 H1902 H 0.58421 0.95805 0.64017
 O1903 O 0.43246 1.01840 0.59278
 O1904 O 0.41079 1.01841 0.61462
 C1905 C 0.42585 1.02489 0.60791
 C1906 C 0.43540 1.04058 0.61741
 C1907 C 0.42789 1.04834 0.63380
 H1908 H 0.41544 1.04230 0.63986
 O1909 O 0.48173 1.09320 0.56768
 O1910 O 0.48169 1.11494 0.58947
 C1911 C 0.47518 1.10826 0.57438
 C1912 C 0.45936 1.11770 0.56493
 C1913 C 0.45159 1.13404 0.57249
 H1914 H 0.45774 1.14015 0.58488
 O1915 O 0.51808 0.90731 0.56742
 O1916 O 0.51809 0.88556 0.58923
 C1917 C 0.52459 0.89224 0.57412
 C1918 C 0.54034 0.88276 0.56466
 C1919 C 0.54805 0.86639 0.57224
 H1920 H 0.54189 0.86032 0.58464
 O1921 O 0.59279 0.93284 0.51830
 O1922 O 0.61451 0.91107 0.51833
 C1923 C 0.60785 0.92616 0.52483
 C1924 C 0.61730 0.93562 0.54061
 C1925 C 0.63365 0.92809 0.54836
 H1926 H 0.63976 0.91573 0.54219
 O1927 O 0.40687 1.06771 0.51844
 O1928 O 0.38510 1.08943 0.51834
 C1929 C 0.39176 1.07436 0.52488
 C1930 C 0.38224 1.06484 0.54060
 C1931 C 0.36591 1.07238 0.54838
 H1932 H 0.35987 1.08483 0.54230
 Cu1933 Cu 0.49980 0.92223 0.57799
 Cu1934 Cu 0.49984 0.89611 0.60419
 Cu1935 Cu 0.50009 1.07820 0.57812
 Cu1936 Cu 0.50001 1.10430 0.60429
 Cu1937 Cu 0.42179 0.92193 0.49983
 Cu1938 Cu 0.39571 0.89580 0.49995
 Cu1939 Cu 0.57791 0.92227 0.49999
 Cu1940 Cu 0.60399 0.89610 0.50003
 Cu1941 Cu 0.42194 1.07819 0.50020
 Cu1942 Cu 0.39581 1.10430 0.50008
 Cu1943 Cu 0.57795 1.07824 0.49981
 Cu1944 Cu 0.60407 1.10433 0.49983
 Cu1945 Cu 0.42182 1.00014 0.57790
 Cu1946 Cu 0.39579 1.00013 0.60414
 Cu1947 Cu 0.57781 1.00029 0.57821
 Cu1948 Cu 0.60392 1.00019 0.60435
 C1949 C 0.54841 0.95161 0.60966
 H1950 H 0.54275 0.95732 0.59683
 C1951 C 0.56383 0.93604 0.64225
 C1952 C 0.45136 1.04871 0.60944
 H1953 H 0.45699 1.04306 0.59659
 C1954 C 0.43599 1.06415 0.64210
 C1955 C 0.39020 1.04890 0.54878
 H1956 H 0.40302 1.04325 0.54312
 C1957 C 0.35763 1.06429 0.56425
 C1958 C 0.60927 0.95149 0.54888
 H1959 H 0.59644 0.95713 0.54324
 C1960 C 0.64187 0.93607 0.56430
 C1961 C 0.54860 0.89075 0.54876
 H1962 H 0.54297 0.90359 0.54308
 C1963 C 0.56394 0.85812 0.56426
 C1964 C 0.45113 1.10968 0.54904
 H1965 H 0.45681 1.09688 0.54336
 C1966 C 0.43566 1.14227 0.56450
 C1967 C 0.45116 0.95148 0.60957
 H1968 H 0.45679 0.95712 0.59671
 C1969 C 0.43574 0.93605 0.64223
 C1970 C 0.54881 1.04914 0.60983
 H1971 H 0.54313 1.04348 0.59701
 C1972 C 0.56433 1.06460 0.64242
 C1973 C 0.45122 0.89059 0.54866
 H1974 H 0.45685 0.90340 0.54296
 C1975 C 0.43582 0.85804 0.56419
 C1976 C 0.54858 1.10973 0.54857
 H1977 H 0.54292 1.09693 0.54290
 C1978 C 0.56401 1.14226 0.56405
 C1979 C 0.39042 0.95129 0.54866
 H1980 H 0.40322 0.95691 0.54295
 C1981 C 0.35785 0.93595 0.56420
 C1982 C 0.60935 1.04889 0.54870
 H1983 H 0.59653 1.04327 0.54306
 C1984 C 0.64192 1.06426 0.56416
 O1985 O 0.56735 0.51809 1.09306
 O1986 O 0.58906 0.51813 1.11486
 C1987 C 0.57400 0.52462 1.10815
 C1988 C 0.56453 0.54041 1.11758
 C1989 C 0.57211 0.54817 1.13392
 H1990 H 0.58449 0.54202 1.14001
 O1991 O 0.43252 0.48174 1.09321
 O1992 O 0.41078 0.48177 1.11499
 C1993 C 0.42584 0.47525 1.10832
 C1994 C 0.43528 0.45949 1.11784
 C1995 C 0.42765 0.45170 1.13416
 H1996 H 0.41520 0.45781 1.14016
 O1997 O 0.51819 0.59310 1.06745
 O1998 O 0.51823 0.61478 1.08929
 C1999 C 0.52469 0.60816 1.07415
 C2000 C 0.54040 0.61764 1.06464
 C2001 C 0.54813 0.63400 1.07217
 H2002 H 0.54199 0.64011 1.08457
 O2003 O 0.48181 0.40737 1.06774
 O2004 O 0.48178 0.38553 1.08946
 C2005 C 0.47533 0.39225 1.07435
 C2006 C 0.45966 0.38277 1.06476
 C2007 C 0.45196 0.36637 1.07226
 H2008 H 0.45805 0.36028 1.08470
 O2009 O 0.59292 0.56744 1.01843
 O2010 O 0.61465 0.58918 1.01843
 C2011 C 0.60798 0.57410 1.02495
 C2012 C 0.61745 0.56458 1.04073
 C2013 C 0.63380 0.57209 1.04849
 H2014 H 0.63988 0.58450 1.04237
 O2015 O 0.40713 0.43262 1.01822
 O2016 O 0.38544 0.41085 1.01830
 C2017 C 0.39208 0.42594 1.02477
 C2018 C 0.38262 0.43545 1.04054
 C2019 C 0.36626 0.42795 1.04830
 H2020 H 0.36017 0.41556 1.04217
 O2021 O 0.48174 0.56747 1.09294
 O2022 O 0.48179 0.58914 1.11480
 C2023 C 0.47527 0.57410 1.10808
 C2024 C 0.45953 0.56462 1.11758
 C2025 C 0.45179 0.57221 1.13393
 H2026 H 0.45791 0.58462 1.13998
 O2027 O 0.51828 0.43274 1.09345
 O2028 O 0.51824 0.41091 1.11518
 C2029 C 0.52477 0.42599 1.10853
 C2030 C 0.54058 0.43536 1.11801
 C2031 C 0.54836 0.42771 1.13433
 H2032 H 0.54219 0.41533 1.14041
 O2033 O 0.59298 0.48159 1.06764
 O2034 O 0.61471 0.48162 1.08942
 C2035 C 0.60807 0.47513 1.07431
 C2036 C 0.61757 0.45942 1.06478
 C2037 C 0.63394 0.45170 1.07229
 H2038 H 0.64003 0.45782 1.08470
 O2039 O 0.40703 0.51833 1.06768
 O2040 O 0.38528 0.51831 1.08945
 C2041 C 0.39195 0.52482 1.07435
 C2042 C 0.38248 0.54057 1.06485
 C2043 C 0.36610 0.54829 1.07236
 H2044 H 0.35998 0.54213 1.08475
 O2045 O 0.43245 0.59327 1.01854
 O2046 O 0.41068 0.61498 1.01851
 C2047 C 0.42576 0.60835 1.02503
 C2048 C 0.43526 0.61784 1.04079
 C2049 C 0.42775 0.63420 1.04859
 H2050 H 0.41533 0.64029 1.04250
 O2051 O 0.56743 0.40714 1.01839
 O2052 O 0.58913 0.38535 1.01843
 C2053 C 0.57406 0.39205 1.02493
 C2054 C 0.56455 0.38262 1.04072
 C2055 C 0.57201 0.36620 1.04846
 H2056 H 0.58435 0.36006 1.04229
 O2057 O 0.43261 0.51827 1.09311
 O2058 O 0.41088 0.51831 1.11490
 C2059 C 0.42595 0.52479 1.10821
 C2060 C 0.43543 0.54054 1.11766
 C2061 C 0.42789 0.54834 1.13402
 H2062 H 0.41551 0.54224 1.14015
 O2063 O 0.56762 0.48154 1.09332
 O2064 O 0.58934 0.48158 1.11512
 C2065 C 0.57429 0.47506 1.10845
 C2066 C 0.56482 0.45931 1.11796
 C2067 C 0.57240 0.45144 1.13428
 H2068 H 0.58486 0.45745 1.14031
 O2069 O 0.51830 0.40732 1.06781
 O2070 O 0.51826 0.38549 1.08953
 C2071 C 0.52477 0.39220 1.07444
 C2072 C 0.54048 0.38270 1.06491
 C2073 C 0.54816 0.36629 1.07244
 H2074 H 0.54202 0.36021 1.08486
 O2075 O 0.48168 0.59319 1.06757
 O2076 O 0.48174 0.61487 1.08942
 C2077 C 0.47521 0.60827 1.07430
 C2078 C 0.45945 0.61780 1.06486
 C2079 C 0.45173 0.63416 1.07245
 H2080 H 0.45789 0.64021 1.08486
 O2081 O 0.40710 0.56764 1.01852
 O2082 O 0.38530 0.58933 1.01846
 C2083 C 0.39200 0.57427 1.02499
 C2084 C 0.38252 0.56474 1.04073
 C2085 C 0.36615 0.57226 1.04846
 H2086 H 0.36009 0.58467 1.04234
 O2087 O 0.59301 0.43252 1.01836
 O2088 O 0.61474 0.41076 1.01837
 C2089 C 0.60809 0.42585 1.02486
 C2090 C 0.61757 0.43534 1.04061
 C2091 C 0.63393 0.42782 1.04833
 H2092 H 0.64002 0.41544 1.04218
 O2093 O 0.48174 0.43269 1.09347
 O2094 O 0.48170 0.41086 1.11519
 C2095 C 0.47520 0.42595 1.10853
 C2096 C 0.45940 0.43539 1.11798
 C2097 C 0.45155 0.42781 1.13431
 H2098 H 0.45764 0.41540 1.14043
 O2099 O 0.51826 0.56753 1.09296
 O2100 O 0.51829 0.58921 1.11481
 C2101 C 0.52478 0.57415 1.10808
 C2102 C 0.54052 0.56462 1.11754
 C2103 C 0.54832 0.57217 1.13389
 H2104 H 0.54227 0.58462 1.13995
 O2105 O 0.40717 0.48179 1.06752
 O2106 O 0.38543 0.48179 1.08930
 C2107 C 0.39210 0.47530 1.07419
 C2108 C 0.38263 0.45957 1.06468
 C2109 C 0.36628 0.45185 1.07222
 H2110 H 0.36021 0.45798 1.08464
 O2111 O 0.59297 0.51812 1.06767
 O2112 O 0.61470 0.51814 1.08946
 C2113 C 0.60802 0.52464 1.07435
 C2114 C 0.61748 0.54040 1.06485
 C2115 C 0.63383 0.54812 1.07239
 H2116 H 0.63991 0.54196 1.08480
 O2117 O 0.43276 0.40726 1.01820
 O2118 O 0.41109 0.38546 1.01827
 C2119 C 0.42615 0.39217 1.02474
 C2120 C 0.43566 0.38273 1.04052
 C2121 C 0.42818 0.36634 1.04823
 H2122 H 0.41584 0.36022 1.04204
 O2123 O 0.56744 0.59298 1.01833
 O2124 O 0.58915 0.61474 1.01832
 C2125 C 0.57407 0.60808 1.02481
 C2126 C 0.56454 0.61759 1.04053
 C2127 C 0.57205 0.63394 1.04827
 H2128 H 0.58446 0.63999 1.04215
 Cu2129 Cu 0.57803 0.49981 1.07823
 Cu2130 Cu 0.60413 0.49987 1.10441
 Cu2131 Cu 0.42203 0.50003 1.07818
 Cu2132 Cu 0.39591 0.50004 1.10435
 Cu2133 Cu 0.49997 0.57814 1.07803
 Cu2134 Cu 0.50001 0.60417 1.10427
 Cu2135 Cu 0.50003 0.42224 1.07844
 Cu2136 Cu 0.50000 0.39602 1.10452
 C2137 C 0.54867 0.54867 1.10956
 H2138 H 0.54299 0.54301 1.09673
 C2139 C 0.56418 0.56411 1.14215
 C2140 C 0.45122 0.45130 1.10993
 H2141 H 0.45695 0.45699 1.09713
 C2142 C 0.43561 0.43581 1.14249
 C2143 C 0.54863 0.60963 1.04874
 H2144 H 0.54300 0.59680 1.04309
 C2145 C 0.56402 0.64222 1.06415
 C2146 C 0.45148 0.39077 1.04882
 H2147 H 0.45708 0.40364 1.04320
 C2148 C 0.43615 0.35810 1.06417
 C2149 C 0.60948 0.54866 1.04894
 H2150 H 0.59666 0.54303 1.04328
 C2151 C 0.64207 0.56402 1.06438
 C2152 C 0.39061 0.45134 1.04875
 H2153 H 0.40343 0.45697 1.04309
 C2154 C 0.35801 0.43598 1.06420
 C2155 C 0.45131 0.54872 1.10961
 H2156 H 0.45696 0.54304 1.09678
 C2157 C 0.43590 0.56426 1.14222
 C2158 C 0.54884 0.45123 1.11001
 H2159 H 0.54317 0.45696 1.09720
 C2160 C 0.56433 0.43558 1.14255
 C2161 C 0.60957 0.45122 1.04886
 H2162 H 0.59674 0.45686 1.04323
 C2163 C 0.64219 0.43583 1.06423
 C2164 C 0.39050 0.54883 1.04896
 H2165 H 0.40334 0.54320 1.04333
 C2166 C 0.35787 0.56420 1.06434
 C2167 C 0.45119 0.60985 1.04895
 H2168 H 0.45684 0.59705 1.04325
 C2169 C 0.43583 0.64245 1.06448
 C2170 C 0.54872 0.39069 1.04899
 H2171 H 0.54313 0.40356 1.04336
 C2172 C 0.56399 0.35797 1.06438
 O2173 O 0.56739 0.48190 0.90710
 O2174 O 0.58908 0.48193 0.88527
 C2175 C 0.57403 0.47542 0.89198
 C2176 C 0.56457 0.45969 0.88248
 C2177 C 0.57215 0.45196 0.86612
 H2178 H 0.58455 0.45811 0.86006
 O2179 O 0.43266 0.51822 0.90698
 O2180 O 0.41095 0.51829 0.88518
 C2181 C 0.42601 0.52475 0.89188
 C2182 C 0.43548 0.54052 0.88242
 C2183 C 0.42793 0.54829 0.86605
 H2184 H 0.41557 0.54214 0.85995
 O2185 O 0.48165 0.59308 0.93264
 O2186 O 0.48164 0.61484 0.91084
 C2187 C 0.47516 0.60818 0.92595
 C2188 C 0.45945 0.61767 0.93547
 C2189 C 0.45167 0.63399 0.92787
 H2190 H 0.45776 0.64006 0.91543
 O2191 O 0.51835 0.40708 0.93251
 O2192 O 0.51840 0.38536 0.91071
 C2193 C 0.52487 0.39201 0.92582
 C2194 C 0.54061 0.38253 0.93533
 C2195 C 0.54839 0.36620 0.92774
 H2196 H 0.54227 0.36013 0.91531
 O2197 O 0.59297 0.43256 0.98177
 O2198 O 0.61470 0.41080 0.98176
 C2199 C 0.60804 0.42589 0.97526
 C2200 C 0.61751 0.43542 0.95949
 C2201 C 0.63384 0.42791 0.95169
 H2202 H 0.63994 0.41549 0.95778
 O2203 O 0.40715 0.56764 0.98191
 O2204 O 0.38535 0.58933 0.98185
 C2205 C 0.39208 0.57426 0.97536
 C2206 C 0.38266 0.56473 0.95957
 C2207 C 0.36631 0.57222 0.95178
 H2208 H 0.36019 0.58462 0.95789
 O2209 O 0.51812 0.56751 0.90709
 O2210 O 0.51809 0.58926 0.88528
 C2211 C 0.52459 0.57418 0.89197
 C2212 C 0.54032 0.56470 0.88246
 C2213 C 0.54805 0.57227 0.86609
 H2214 H 0.54191 0.58468 0.86001
 O2215 O 0.48182 0.43258 0.90695
 O2216 O 0.48188 0.41087 0.88513
 C2217 C 0.47535 0.42592 0.89183
 C2218 C 0.45958 0.43539 0.88234
 C2219 C 0.45184 0.42784 0.86597
 H2220 H 0.45798 0.41544 0.85989
 O2221 O 0.59295 0.51841 0.93254
 O2222 O 0.61465 0.51841 0.91072
 C2223 C 0.60801 0.52489 0.92584
 C2224 C 0.61750 0.54059 0.93535
 C2225 C 0.63384 0.54832 0.92780
 H2226 H 0.63990 0.54222 0.91536
 O2227 O 0.40704 0.48172 0.93244
 O2228 O 0.38531 0.48180 0.91065
 C2229 C 0.39196 0.47527 0.92576
 C2230 C 0.38247 0.45955 0.93527
 C2231 C 0.36613 0.45182 0.92773
 H2232 H 0.36004 0.45795 0.91531
 O2233 O 0.56748 0.59293 0.98174
 O2234 O 0.58919 0.61469 0.98172
 C2235 C 0.57413 0.60801 0.97522
 C2236 C 0.56462 0.61749 0.95944
 C2237 C 0.57211 0.63386 0.95165
 H2238 H 0.58452 0.63993 0.95774
 O2239 O 0.43258 0.40711 0.98160
 O2240 O 0.41090 0.38532 0.98166
 C2241 C 0.42595 0.39201 0.97512
 C2242 C 0.43545 0.38253 0.95935
 C2243 C 0.42793 0.36619 0.95155
 H2244 H 0.41551 0.36013 0.95762
 O2245 O 0.43261 0.48168 0.90697
 O2246 O 0.41090 0.48175 0.88517
 C2247 C 0.42595 0.47521 0.89185
 C2248 C 0.43544 0.45946 0.88235
 C2249 C 0.42791 0.45171 0.86597
 H2250 H 0.41551 0.45783 0.85988
 O2251 O 0.56738 0.51842 0.90707
 O2252 O 0.58908 0.51844 0.88524
 C2253 C 0.57401 0.52492 0.89194
 C2254 C 0.56448 0.54064 0.88245
 C2255 C 0.57199 0.54843 0.86608
 H2256 H 0.58441 0.54235 0.85999
 O2257 O 0.48185 0.40708 0.93253
 O2258 O 0.48191 0.38536 0.91072
 C2259 C 0.47539 0.39201 0.92583
 C2260 C 0.45964 0.38252 0.93530
 C2261 C 0.45193 0.36618 0.92772
 H2262 H 0.45811 0.36011 0.91532
 O2263 O 0.51817 0.59300 0.93263
 O2264 O 0.51815 0.61476 0.91083
 C2265 C 0.52466 0.60807 0.92593
 C2266 C 0.54043 0.61753 0.93538
 C2267 C 0.54814 0.63389 0.92781
 H2268 H 0.54196 0.63999 0.91541
 O2269 O 0.40708 0.43262 0.98163
 O2270 O 0.38539 0.41085 0.98170
 C2271 C 0.39201 0.42593 0.97517
 C2272 C 0.38250 0.43543 0.95942
 C2273 C 0.36616 0.42790 0.95168
 H2274 H 0.36010 0.41550 0.95783
 O2275 O 0.59300 0.56746 0.98182
 O2276 O 0.61473 0.58920 0.98182
 C2277 C 0.60807 0.57412 0.97532
 C2278 C 0.61754 0.56464 0.95955
 C2279 C 0.63388 0.57216 0.95180
 H2280 H 0.63998 0.58453 0.95796
 O2281 O 0.51831 0.43265 0.90701
 O2282 O 0.51837 0.41094 0.88519
 C2283 C 0.52483 0.42602 0.89190
 C2284 C 0.54054 0.43554 0.88243
 C2285 C 0.54834 0.42802 0.86607
 H2286 H 0.54228 0.41561 0.85997
 O2287 O 0.48163 0.56756 0.90711
 O2288 O 0.48162 0.58931 0.88530
 C2289 C 0.47515 0.57423 0.89199
 C2290 C 0.45946 0.56472 0.88247
 C2291 C 0.45169 0.57229 0.86610
 H2292 H 0.45775 0.58473 0.86003
 O2293 O 0.40725 0.51826 0.93262
 O2294 O 0.38553 0.51833 0.91083
 C2295 C 0.39220 0.52480 0.92595
 C2296 C 0.38273 0.54056 0.93545
 C2297 C 0.36637 0.54828 0.92789
 H2298 H 0.36030 0.54212 0.91549
 O2299 O 0.59290 0.48188 0.93262
 O2300 O 0.61460 0.48189 0.91080
 C2301 C 0.60796 0.47538 0.92592
 C2302 C 0.61746 0.45963 0.93540
 C2303 C 0.63380 0.45190 0.92781
 H2304 H 0.63985 0.45807 0.91539
 O2305 O 0.56752 0.40704 0.98177
 O2306 O 0.58922 0.38525 0.98180
 C2307 C 0.57417 0.39195 0.97527
 C2308 C 0.56469 0.38249 0.95949
 C2309 C 0.57226 0.36617 0.95169
 H2310 H 0.58465 0.36009 0.95782
 O2311 O 0.43256 0.59318 0.98196
 O2312 O 0.41080 0.61491 0.98190
 C2313 C 0.42589 0.60825 0.97543
 C2314 C 0.43538 0.61770 0.95965
 C2315 C 0.42781 0.63402 0.95185
 H2316 H 0.41543 0.64010 0.95799
 Cu2317 Cu 0.57797 0.50016 0.92204
 Cu2318 Cu 0.60403 0.50016 0.89582
 Cu2319 Cu 0.42208 0.49995 0.92195
 Cu2320 Cu 0.39599 0.50006 0.89577
 Cu2321 Cu 0.57803 0.57801 1.00008
 Cu2322 Cu 0.60411 0.60413 1.00008
 Cu2323 Cu 0.57805 0.42200 1.00007
 Cu2324 Cu 0.60412 0.39585 1.00009
 Cu2325 Cu 0.42201 0.57825 1.00025
 Cu2326 Cu 0.39584 0.60432 1.00018
 Cu2327 Cu 0.42207 0.42210 0.99990
 Cu2328 Cu 0.39603 0.39593 0.99999
 Cu2329 Cu 0.49988 0.57810 0.92207
 Cu2330 Cu 0.49987 0.60423 0.89588
 Cu2331 Cu 0.50008 0.42204 0.92195
 Cu2332 Cu 0.50015 0.39595 0.89575
 C2333 C 0.54869 0.45145 0.89046
 H2334 H 0.54301 0.45709 0.90330
 C2335 C 0.56421 0.43607 0.85784
 C2336 C 0.45132 0.54877 0.89045
 H2337 H 0.45698 0.54310 0.90329
 C2338 C 0.43585 0.56424 0.85782
 C2339 C 0.45127 0.60971 0.95144
 H2340 H 0.45694 0.59690 0.95713
 C2341 C 0.43578 0.64222 0.93589
 C2342 C 0.54879 0.39049 0.95127
 H2343 H 0.54312 0.40329 0.95695
 C2344 C 0.56428 0.35796 0.93575
 C2345 C 0.60951 0.45136 0.95132
 H2346 H 0.59671 0.45701 0.95702
 C2347 C 0.64206 0.43599 0.93578
 C2348 C 0.39070 0.54882 0.95137
 H2349 H 0.40352 0.54320 0.95704
 C2350 C 0.35810 0.56418 0.93587
 C2351 C 0.54856 0.54880 0.89045
 H2352 H 0.54292 0.54312 0.90330
 C2353 C 0.56394 0.56430 0.85782
 C2354 C 0.45135 0.45127 0.89035
 H2355 H 0.45701 0.45694 0.90318
 C2356 C 0.43596 0.43585 0.85769
 C2357 C 0.60954 0.54877 0.95130
 H2358 H 0.59672 0.54313 0.95696
 C2359 C 0.64211 0.56416 0.93586
 C2360 C 0.39046 0.45133 0.95119
 H2361 H 0.40327 0.45697 0.95684
 C2362 C 0.35790 0.43593 0.93578
 C2363 C 0.54871 0.60951 0.95127
 H2364 H 0.54309 0.59668 0.95694
 C2365 C 0.56404 0.64214 0.93578
 C2366 C 0.45137 0.39051 0.95119
 H2367 H 0.45701 0.40332 0.95688
 C2368 C 0.43602 0.35794 0.93567
 N2369 N 1.10523 1.12763 1.24291
 C2370 C 1.11276 1.11206 1.23526
 N2371 N 1.12789 1.10418 1.24342
 N2372 N 1.13528 1.11165 1.25876
 C2373 C 1.12779 1.12726 1.26646
 N2374 N 1.11263 1.13512 1.25825
 C2375 C 1.10462 1.10390 1.21889
 C2376 C 1.09762 1.09697 1.20526
 C2377 C 1.08915 1.08861 1.18918
 N2378 N 1.09655 1.07300 1.18152
 N2379 N 1.08861 1.06514 1.16666
 C2380 C 1.07296 1.07256 1.15895
 N2381 N 1.06561 1.08823 1.16672
 N2382 N 1.07355 1.09610 1.18158
 N2383 N 1.12841 0.60442 0.74316
 C2384 C 1.11318 0.61219 0.73507
 N2385 N 1.10566 0.62778 0.74267
 N2386 N 1.11312 0.63538 0.75792
 C2387 C 1.12835 0.62762 0.76609
 N2388 N 1.13588 0.61202 0.75842
 C2389 C 1.10493 0.60387 0.71881
 C2390 C 1.09786 0.59688 0.70523
 C2391 C 1.08933 0.58852 0.68915
 N2392 N 1.07372 0.59603 0.68159
 N2393 N 1.06574 0.58820 0.66672
 C2394 C 1.07306 0.57254 0.65889
 N2395 N 1.08871 0.56509 0.66657
 N2396 N 1.09669 0.57292 0.68143
 N2397 N 0.60539 1.12798 0.74353
 C2398 C 0.61281 1.11233 0.73593
 N2399 N 0.62797 1.10447 0.74405
 N2400 N 0.63549 1.11202 0.75932
 C2401 C 0.62807 1.12770 0.76701
 N2402 N 0.61289 1.13553 0.75879
 C2403 C 0.60460 1.10413 0.71955
 C2404 C 0.59760 1.09727 0.70584
 C2405 C 0.58919 1.08906 0.68959
 N2406 N 0.59659 1.07350 0.68181
 N2407 N 0.58866 1.06572 0.66690
 C2408 C 0.57301 1.07318 0.65920
 N2409 N 0.56570 1.08884 0.66704
 N2410 N 0.57363 1.09662 0.68197
 N2411 N 0.62856 0.60496 1.24274
 C2412 C 0.61291 0.61233 1.23509
 N2413 N 0.60510 0.62761 1.24303
 N2414 N 0.61270 0.63530 1.25817
 C2415 C 0.62837 0.62795 1.26587
 N2416 N 0.63616 0.61264 1.25788
 C2417 C 0.60459 0.60399 1.21888
 C2418 C 0.59749 0.59697 1.20534
 C2419 C 0.58898 0.58859 1.18927
 N2420 N 0.57341 0.59613 1.18165
 N2421 N 0.56549 0.58832 1.16674
 C2422 C 0.57283 0.57267 1.15892
 N2423 N 0.58844 0.56519 1.16666
 N2424 N 0.59636 0.57299 1.18157
 N2425 N 0.87134 0.89505 1.24324
 C2426 C 0.88699 0.88768 1.23558
 N2427 N 0.89478 0.87238 1.24355
 N2428 N 0.88716 0.86468 1.25868
 C2429 C 0.87148 0.87202 1.26641
 N2430 N 0.86372 0.88735 1.25838
 C2431 C 0.89534 0.89605 1.21937
 C2432 C 0.90247 0.90306 1.20581
 C2433 C 0.91103 0.91143 1.18972
 N2434 N 0.92660 0.90386 1.18212
 N2435 N 0.93452 0.91162 1.16717
 C2436 C 0.92720 0.92725 1.15928
 N2437 N 0.91159 0.93476 1.16700
 N2438 N 0.90366 0.92701 1.18195
 N2439 N 0.87153 0.39531 0.74342
 C2440 C 0.88703 0.38776 0.73564
 N2441 N 0.89468 0.37235 0.74350
 N2442 N 0.88707 0.36470 0.75867
 C2443 C 0.87154 0.37222 0.76653
 N2444 N 0.86392 0.38768 0.75860
 C2445 C 0.89534 0.39604 0.71936
 C2446 C 0.90243 0.40297 0.70574
 C2447 C 0.91094 0.41124 0.68957
 N2448 N 0.92648 0.40363 0.68196
 N2449 N 0.93440 0.41136 0.66700
 C2450 C 0.92710 0.42700 0.65910
 N2451 N 0.91151 0.43454 0.66682
 N2452 N 0.90358 0.42682 0.68178
 N2453 N 0.37179 0.89570 0.74332
 C2454 C 0.38725 0.88812 0.73549
 N2455 N 0.39498 0.87277 0.74339
 N2456 N 0.38747 0.86520 0.75864
 C2457 C 0.37200 0.87275 0.76652
 N2458 N 0.36428 0.88813 0.75857
 C2459 C 0.39545 0.89634 0.71916
 C2460 C 0.40247 0.90326 0.70551
 C2461 C 0.41092 0.91156 0.68936
 N2462 N 0.42648 0.90401 0.68175
 N2463 N 0.43441 0.91181 0.66683
 C2464 C 0.42708 0.92747 0.65900
 N2465 N 0.41146 0.93495 0.66672
 N2466 N 0.40353 0.92715 0.68163
 N2467 N 0.37074 0.39506 1.24304
 C2468 C 0.38650 0.38778 1.23554
 N2469 N 0.39434 0.37257 1.24361
 N2470 N 0.38667 0.36488 1.25873
 C2471 C 0.37088 0.37213 1.26631
 N2472 N 0.36306 0.38737 1.25816
 C2473 C 0.39491 0.39614 1.21935
 C2474 C 0.40209 0.40314 1.20580
 C2475 C 0.41069 0.41149 1.18971
 N2476 N 0.42627 0.40391 1.18215
 N2477 N 0.43423 0.41166 1.16721
 C2478 C 0.42692 0.42729 1.15929
 N2479 N 0.41129 0.43480 1.16697
 N2480 N 0.40333 0.42706 1.18190
 N2481 N 0.89499 1.12744 0.75666
 C2482 C 0.88728 1.11210 0.76459
 N2483 N 0.87182 1.10452 0.75679
 N2484 N 0.86430 1.11207 0.74153
 C2485 C 0.87200 1.12744 0.73355
 N2486 N 0.88747 1.13499 0.74141
 C2487 C 0.89550 1.10391 0.78094
 C2488 C 0.90254 1.09703 0.79460
 C2489 C 0.91102 1.08876 0.81076
 N2490 N 0.90366 1.07319 0.81853
 N2491 N 0.91162 1.06542 0.83345
 C2492 C 0.92725 1.07290 0.84113
 N2493 N 0.93454 1.08855 0.83326
 N2494 N 0.92659 1.09632 0.81833
 N2495 N 0.89502 0.62747 0.25698
 C2496 C 0.88723 0.61219 0.26495
 N2497 N 0.87160 0.60481 0.25731
 N2498 N 0.86398 0.61249 0.24216
 C2499 C 0.87175 0.62780 0.23414
 N2500 N 0.88740 0.63515 0.24184
 C2501 C 0.89556 0.60384 0.28115
 C2502 C 0.90267 0.59681 0.29470
 C2503 C 0.91120 0.58840 0.31075
 N2504 N 0.90383 0.57279 0.31846
 N2505 N 0.91177 0.56496 0.33335
 C2506 C 0.92739 0.57241 0.34107
 N2507 N 0.93471 0.58807 0.33326
 N2508 N 0.92677 0.59591 0.31836
 N2509 N 0.37142 1.10501 0.25736
 C2510 C 0.38705 1.11238 0.26501
 N2511 N 0.39485 1.12765 0.25704
 N2512 N 0.38726 1.13533 0.24189
 C2513 C 0.37162 1.12798 0.23418
 N2514 N 0.36382 1.11269 0.24220
 C2515 C 0.39537 1.10403 0.28123
 C2516 C 0.40246 1.09701 0.29478
 C2517 C 0.41098 1.08862 0.31086
 N2518 N 0.42654 1.09615 0.31846
 N2519 N 0.43448 1.08832 0.33336
 C2520 C 0.42717 1.07267 0.34119
 N2521 N 0.41155 1.06520 0.33347
 N2522 N 0.40361 1.07302 0.31857
 N2523 N 0.37161 0.60464 0.75689
 C2524 C 0.38702 0.61226 0.76475
 N2525 N 0.39465 0.62769 0.75691
 N2526 N 0.38711 0.63527 0.74168
 C2527 C 0.37168 0.62768 0.73377
 N2528 N 0.36406 0.61223 0.74166
 C2529 C 0.39530 0.60401 0.78103
 C2530 C 0.40237 0.59708 0.79465
 C2531 C 0.41087 0.58877 0.81077
 N2532 N 0.42643 0.59633 0.81836
 N2533 N 0.43441 0.58851 0.83325
 C2534 C 0.42714 0.57284 0.84108
 N2535 N 0.41150 0.56538 0.83341
 N2536 N 0.40352 0.57318 0.81852
 N2537 N 1.12821 0.89542 0.75694
 C2538 C 1.11279 0.88784 0.76485
 N2539 N 1.10511 0.87243 0.75707
 N2540 N 1.11261 0.86480 0.74185
 C2541 C 1.12804 0.87234 0.73390
 N2542 N 1.13572 0.88779 0.74172
 C2543 C 1.10454 0.89613 0.78111
 C2544 C 1.09748 0.90311 0.79470
 C2545 C 1.08901 0.91149 0.81081
 N2546 N 1.07345 0.90397 0.81844
 N2547 N 1.06552 0.91182 0.83332
 C2548 C 1.07284 0.92748 0.84111
 N2549 N 1.08848 0.93491 0.83339
 N2550 N 1.09641 0.92707 0.81850
 N2551 N 1.10527 0.37240 0.25698
 C2552 C 1.11307 0.38767 0.26493
 N2553 N 1.12870 0.39505 0.25727
 N2554 N 1.13630 0.38738 0.24211
 C2555 C 1.12851 0.37209 0.23410
 N2556 N 1.11287 0.36473 0.24183
 C2557 C 1.10476 0.39600 0.28114
 C2558 C 1.09765 0.40299 0.29469
 C2559 C 1.08911 0.41136 0.31075
 N2560 N 1.09649 0.42694 0.31848
 N2561 N 1.08854 0.43473 0.33338
 C2562 C 1.07291 0.42727 0.34108
 N2563 N 1.06558 0.41164 0.33323
 N2564 N 1.07353 0.40384 0.31833
 N2565 N 0.62850 0.89529 0.25734
 C2566 C 0.61285 0.88793 0.26499
 N2567 N 0.60505 0.87265 0.25705
 N2568 N 0.61266 0.86497 0.24191
 C2569 C 0.62831 0.87230 0.23420
 N2570 N 0.63611 0.88760 0.24220
 C2571 C 0.60452 0.89628 0.28119
 C2572 C 0.59740 0.90327 0.29473
 C2573 C 0.58884 0.91163 0.31080
 N2574 N 0.57326 0.90409 0.31837
 N2575 N 0.56530 0.91188 0.33327
 C2576 C 0.57261 0.92751 0.34113
 N2577 N 0.58825 0.93498 0.33344
 N2578 N 0.59621 0.92720 0.31855
 N2579 N 0.62862 0.39520 0.75726
 C2580 C 0.61298 0.38785 0.76492
 N2581 N 0.60516 0.37258 0.75699
 N2582 N 0.61275 0.36489 0.74184
 C2583 C 0.62840 0.37222 0.73412
 N2584 N 0.63621 0.38751 0.74211
 C2585 C 0.60466 0.39621 0.78111
 C2586 C 0.59756 0.40324 0.79465
 C2587 C 0.58904 0.41161 0.81072
 N2588 N 0.57346 0.40409 0.81832
 N2589 N 0.56553 0.41190 0.83322
 C2590 C 0.57286 0.42753 0.84106
 N2591 N 0.58849 0.43499 0.83334
 N2592 N 0.59642 0.42719 0.81844
 N2593 N 1.24286 1.12761 1.10493
 C2594 C 1.23498 1.11232 1.11280
 N2595 N 1.24266 1.10498 1.12848
 N2596 N 1.25777 1.11269 1.13605
 C2597 C 1.26572 1.12799 1.12819
 N2598 N 1.25797 1.13531 1.11250
 C2599 C 1.21880 1.10395 1.10451
 C2600 C 1.20526 1.09692 1.09744
 C2601 C 1.18920 1.08856 1.08896
 N2602 N 1.18149 1.07300 1.09642
 N2603 N 1.16658 1.06522 1.08852
 C2604 C 1.15885 1.07270 1.07287
 N2605 N 1.16667 1.08831 1.06547
 N2606 N 1.18158 1.09609 1.07336
 N2607 N 1.24284 0.60458 0.62805
 C2608 C 1.23492 0.61215 0.61260
 N2609 N 1.24265 0.62758 0.60486
 N2610 N 1.25784 0.63522 0.61234
 C2611 C 1.26581 0.62767 0.62780
 N2612 N 1.25803 0.61222 0.63553
 C2613 C 1.21869 0.60383 0.60442
 C2614 C 1.20511 0.59684 0.59742
 C2615 C 1.18903 0.58850 0.58899
 N2616 N 1.18140 0.59603 0.57339
 N2617 N 1.16655 0.58819 0.56546
 C2618 C 1.15879 0.57252 0.57282
 N2619 N 1.16651 0.56508 0.58851
 N2620 N 1.18136 0.57291 0.59644
 N2621 N 0.74286 1.12753 0.60456
 C2622 C 0.73504 1.11219 0.61236
 N2623 N 0.74291 1.10462 0.62784
 N2624 N 0.75814 1.11219 0.63529
 C2625 C 0.76602 1.12756 0.62750
 N2626 N 0.75809 1.13511 0.61201
 C2627 C 0.71873 1.10397 0.60422
 C2628 C 0.70510 1.09705 0.59726
 C2629 C 0.68897 1.08875 0.58887
 N2630 N 0.68128 1.07319 0.59635
 N2631 N 0.66639 1.06539 0.58846
 C2632 C 0.65866 1.07283 0.57280
 N2633 N 0.66645 1.08846 0.56538
 N2634 N 0.68135 1.09626 0.57326
 N2635 N 0.74272 0.60489 1.12846
 C2636 C 0.73503 0.61225 1.11280
 N2637 N 0.74291 0.62754 1.10494
 N2638 N 0.75802 0.63524 1.11251
 C2639 C 0.76577 0.62790 1.12819
 N2640 N 0.75784 0.61259 1.13604
 C2641 C 0.71884 0.60387 1.10452
 C2642 C 0.70531 0.59684 1.09746
 C2643 C 0.68924 0.58845 1.08899
 N2644 N 0.68157 0.59598 1.07342
 N2645 N 0.66665 0.58819 1.06556
 C2646 C 0.65886 0.57256 1.07297
 N2647 N 0.66665 0.56508 1.08860
 N2648 N 0.68156 0.57287 1.09646
 N2649 N 1.24292 0.89569 0.87222
 C2650 C 1.23505 0.88812 0.88769
 N2651 N 1.24288 0.87276 0.89548
 N2652 N 1.25811 0.86517 0.88802
 C2653 C 1.26603 0.87272 0.87253
 N2654 N 1.25816 0.88810 0.86476
 C2655 C 1.21874 0.89635 0.89584
 C2656 C 1.20511 0.90327 0.90282
 C2657 C 1.18898 0.91157 0.91123
 N2658 N 1.18137 0.90404 0.92683
 N2659 N 1.16647 0.91184 0.93473
 C2660 C 1.15866 0.92748 0.92735
 N2661 N 1.16639 0.93495 0.91169
 N2662 N 1.18128 0.92715 0.90378
 N2663 N 1.24345 0.39547 0.37171
 C2664 C 1.23554 0.38778 0.38711
 N2665 N 1.24329 0.37228 0.39469
 N2666 N 1.25846 0.36468 0.38711
 C2667 C 1.26645 0.37234 0.37169
 N2668 N 1.25864 0.38789 0.36413
 C2669 C 1.21925 0.39602 0.39540
 C2670 C 1.20563 0.40293 0.40246
 C2671 C 1.18947 0.41120 0.41093
 N2672 N 1.18181 0.40359 0.42648
 N2673 N 1.16685 0.41132 0.43436
 C2674 C 1.15900 0.42695 0.42699
 N2675 N 1.16677 0.43449 0.41139
 N2676 N 1.18172 0.42678 0.40351
 N2677 N 0.74274 0.89530 0.37146
 C2678 C 0.73507 0.88790 0.38712
 N2679 N 0.74301 0.87261 0.39494
 N2680 N 0.75813 0.86494 0.38734
 C2681 C 0.76585 0.87231 0.37166
 N2682 N 0.75787 0.88764 0.36385
 C2683 C 0.71887 0.89624 0.39544
 C2684 C 0.70533 0.90325 0.40254
 C2685 C 0.68925 0.91163 0.41104
 N2686 N 0.68162 0.90409 0.42663
 N2687 N 0.66669 0.91187 0.43450
 C2688 C 0.65886 0.92749 0.42710
 N2689 N 0.66661 0.93497 0.41146
 N2690 N 0.68154 0.92720 0.40358
 N2691 N 0.74295 0.37274 0.89495
 C2692 C 0.73511 0.38812 0.88721
 N2693 N 0.74289 0.39566 0.87168
 N2694 N 0.75807 0.38804 0.86412
 C2695 C 0.76596 0.37264 0.87185
 N2696 N 0.75811 0.36512 0.88739
 C2697 C 0.71887 0.39639 0.89547
 C2698 C 0.70528 0.40332 0.90253
 C2699 C 0.68918 0.41162 0.91100
 N2700 N 0.68145 0.42719 0.90356
 N2701 N 0.66654 0.43495 0.91147
 C2702 C 0.65882 0.42746 0.92712
 N2703 N 0.66666 0.41183 0.93450
 N2704 N 0.68158 0.40406 0.92659
 N2705 N 0.75713 0.87263 1.10504
 C2706 C 0.76502 0.88791 1.11290
 N2707 N 0.75733 0.89526 1.12856
 N2708 N 0.74220 0.88755 1.13614
 C2709 C 0.73427 0.87226 1.12829
 N2710 N 0.74201 0.86493 1.11261
 C2711 C 0.78120 0.89627 1.10462
 C2712 C 0.79474 0.90328 1.09755
 C2713 C 0.81081 0.91164 1.08905
 N2714 N 0.81852 0.92720 1.09649
 N2715 N 0.83343 0.93496 1.08859
 C2716 C 0.84117 0.92748 1.07295
 N2717 N 0.83334 0.91188 1.06556
 N2718 N 0.81843 0.90410 1.07346
 N2719 N 0.75718 0.37243 0.60490
 C2720 C 0.76508 0.38770 0.61275
 N2721 N 0.75740 0.39506 0.62841
 N2722 N 0.74227 0.38738 0.63599
 C2723 C 0.73431 0.37209 0.62815
 N2724 N 0.74205 0.36475 0.61247
 C2725 C 0.78126 0.39606 0.60446
 C2726 C 0.79480 0.40308 0.59738
 C2727 C 0.81087 0.41143 0.58889
 N2728 N 0.81859 0.42699 0.59633
 N2729 N 0.83350 0.43475 0.58844
 C2730 C 0.84124 0.42727 0.57280
 N2731 N 0.83341 0.41167 0.56541
 N2732 N 0.81850 0.40389 0.57330
 N2733 N 0.25712 0.87246 0.60502
 C2734 C 0.26486 0.88787 0.61274
 N2735 N 0.25693 0.89544 0.62819
 N2736 N 0.24173 0.88779 0.63568
 C2737 C 0.23396 0.87234 0.62796
 N2738 N 0.24194 0.86482 0.61250
 C2739 C 0.28111 0.89618 0.60452
 C2740 C 0.29469 0.90315 0.59748
 C2741 C 0.31080 0.91149 0.58902
 N2742 N 0.31850 0.92705 0.59646
 N2743 N 0.33339 0.93485 0.58854
 C2744 C 0.34111 0.92739 0.57288
 N2745 N 0.33331 0.91175 0.56552
 N2746 N 0.31843 0.90395 0.57344
 N2747 N 0.25744 0.39511 1.12840
 C2748 C 0.26512 0.38777 1.11273
 N2749 N 0.25724 0.37249 1.10488
 N2750 N 0.24213 0.36479 1.11245
 C2751 C 0.23437 0.37211 1.12813
 N2752 N 0.24232 0.38741 1.13598
 C2753 C 0.28130 0.39614 1.10445
 C2754 C 0.29483 0.40317 1.09738
 C2755 C 0.31088 0.41156 1.08889
 N2756 N 0.31852 0.40404 1.07330
 N2757 N 0.33343 0.41183 1.06542
 C2758 C 0.34123 0.42745 1.07281
 N2759 N 0.33347 0.43491 1.08845
 N2760 N 0.31857 0.42712 1.09634
 N2761 N 0.75730 1.10475 0.87164
 C2762 C 0.76506 1.11229 0.88717
 N2763 N 0.75720 1.12767 0.89487
 N2764 N 0.74203 1.13527 0.88730
 C2765 C 0.73420 1.12774 0.87177
 N2766 N 0.74212 1.11236 0.86405
 C2767 C 0.78128 1.10402 0.89547
 C2768 C 0.79487 1.09708 0.90253
 C2769 C 0.81098 1.08878 0.91099
 N2770 N 0.81860 1.09630 0.92659
 N2771 N 0.83347 1.08846 0.93451
 C2772 C 0.84126 1.07280 0.92715
 N2773 N 0.83355 1.06537 0.91149
 N2774 N 0.81868 1.07320 0.90356
 N2775 N 0.75741 0.60482 0.37152
 C2776 C 0.76510 0.61215 0.38719
 N2777 N 0.75721 0.62744 0.39505
 N2778 N 0.74209 0.63516 0.38748
 C2779 C 0.73434 0.62786 0.37180
 N2780 N 0.74229 0.61255 0.36395
 C2781 C 0.78130 0.60376 0.39546
 C2782 C 0.79485 0.59672 0.40252
 C2783 C 0.81093 0.58833 0.41099
 N2784 N 0.81859 0.59585 0.42657
 N2785 N 0.83351 0.58805 0.43443
 C2786 C 0.84133 0.57243 0.42703
 N2787 N 0.83355 0.56496 0.41140
 N2788 N 0.81862 0.57276 0.40354
 N2789 N 0.25735 1.10453 0.37159
 C2790 C 0.26517 1.11205 0.38711
 N2791 N 0.25735 1.12742 0.39486
 N2792 N 0.24216 1.13506 0.38733
 C2793 C 0.23429 1.12756 0.37181
 N2794 N 0.24216 1.11217 0.36407
 C2795 C 0.28140 1.10373 0.39538
 C2796 C 0.29494 1.09675 0.40249
 C2797 C 0.31096 1.08838 0.41105
 N2798 N 0.31854 1.09593 0.42665
 N2799 N 0.33343 1.08813 0.43460
 C2800 C 0.34126 1.07249 0.42725
 N2801 N 0.33355 1.06500 0.41161
 N2802 N 0.31866 1.07279 0.40366
 N2803 N 0.25715 0.60458 0.87195
 C2804 C 0.26524 0.61236 0.88719
 N2805 N 0.25764 0.62795 0.89473
 N2806 N 0.24239 0.63552 0.88727
 C2807 C 0.23423 0.62774 0.87204
 N2808 N 0.24190 0.61215 0.86449
 C2809 C 0.28149 0.60407 0.89542
 C2810 C 0.29505 0.59709 0.90248
 C2811 C 0.31111 0.58872 0.91098
 N2812 N 0.31870 0.59624 0.92659
 N2813 N 0.33356 0.58840 0.93454
 C2814 C 0.34136 0.57274 0.92720
 N2815 N 0.33365 0.56529 0.91153
 N2816 N 0.31879 0.57312 0.90358
 N2817 N 1.12807 1.24268 1.10472
 C2818 C 1.11267 1.23489 1.11243
 N2819 N 1.10506 1.24277 1.12787
 N2820 N 1.11263 1.25799 1.13537
 C2821 C 1.12805 1.26584 1.12768
 N2822 N 1.13564 1.25790 1.11223
 C2823 C 1.10436 1.21867 1.10420
 C2824 C 1.09732 1.20512 1.09721
 C2825 C 1.08888 1.18907 1.08880
 N2826 N 1.07330 1.18145 1.09630
 N2827 N 1.06541 1.16660 1.08841
 C2828 C 1.07278 1.15886 1.07272
 N2829 N 1.08841 1.16659 1.06529
 N2830 N 1.09631 1.18144 1.07317
 N2831 N 1.10502 0.74265 0.62796
 C2832 C 1.11262 0.73481 0.61249
 N2833 N 1.12805 0.74258 0.60484
 N2834 N 1.13565 0.75776 0.61240
 C2835 C 1.12805 0.76568 0.62786
 N2836 N 1.11261 0.75783 0.63552
 C2837 C 1.10429 0.71861 0.60420
 C2838 C 1.09722 0.70508 0.59717
 C2839 C 1.08876 0.68905 0.58873
 N2840 N 1.09621 0.68137 0.57313
 N2841 N 1.08835 0.66649 0.56528
 C2842 C 1.07272 0.65874 0.57272
 N2843 N 1.06533 0.66652 0.58838
 N2844 N 1.07319 0.68141 0.59623
 N2845 N 0.62792 1.24276 0.60477
 C2846 C 0.61251 1.23497 0.61246
 N2847 N 0.60489 1.24285 0.62789
 N2848 N 0.61245 1.25807 0.63540
 C2849 C 0.62788 1.26592 0.62772
 N2850 N 0.63549 1.25798 0.61228
 C2851 C 0.60422 1.21875 0.60422
 C2852 C 0.59718 1.20520 0.59722
 C2853 C 0.58874 1.18917 0.58879
 N2854 N 0.57314 1.18156 0.59626
 N2855 N 0.56525 1.16672 0.58836
 C2856 C 0.57263 1.15897 0.57268
 N2857 N 0.58828 1.16669 0.56527
 N2858 N 0.59618 1.18152 0.57317
 N2859 N 0.60492 0.74291 1.12786
 C2860 C 0.61255 0.73504 1.11243
 N2861 N 0.62796 0.74284 1.10475
 N2862 N 0.63552 0.75806 1.11227
 C2863 C 0.62790 0.76600 1.12771
 N2864 N 0.61248 0.75813 1.13538
 C2865 C 0.60425 0.71881 1.10417
 C2866 C 0.59719 0.70526 1.09717
 C2867 C 0.58874 0.68921 1.08877
 N2868 N 0.59618 0.68152 1.07318
 N2869 N 0.58828 0.66666 1.06532
 C2870 C 0.57263 0.65896 1.07274
 N2871 N 0.56524 0.66676 1.08839
 N2872 N 0.57314 0.68162 1.09626
 N2873 N 0.89541 1.24340 0.87245
 C2874 C 0.88772 1.23551 0.88785
 N2875 N 0.87233 1.24337 0.89553
 N2876 N 0.86484 1.25865 0.88802
 C2877 C 0.87251 1.26660 0.87260
 N2878 N 0.88792 1.25868 0.86494
 C2879 C 0.89587 1.21914 0.89602
 C2880 C 0.90280 1.20547 0.90294
 C2881 C 0.91115 1.18929 0.91124
 N2882 N 0.90373 1.18159 0.92685
 N2883 N 0.91162 1.16669 0.93468
 C2884 C 0.92724 1.15895 0.92721
 N2885 N 0.93458 1.16674 0.91153
 N2886 N 0.92670 1.18164 0.90370
 N2887 N 0.87224 0.74277 0.39513
 C2888 C 0.88766 0.73496 0.38747
 N2889 N 0.89529 0.74283 0.37203
 N2890 N 0.88773 0.75806 0.36449
 C2891 C 0.87230 0.76594 0.37214
 N2892 N 0.86468 0.75800 0.38759
 C2893 C 0.89595 0.71870 0.39574
 C2894 C 0.90300 0.70513 0.40276
 C2895 C 0.91145 0.68904 0.41116
 N2896 N 0.92703 0.68143 0.40367
 N2897 N 0.93493 0.66654 0.41152
 C2898 C 0.92754 0.65873 0.42718
 N2899 N 0.91191 0.66645 0.43461
 N2900 N 0.90401 0.68134 0.42677
 N2901 N 0.39518 1.24362 0.37264
 C2902 C 0.38724 1.23542 0.38775
 N2903 N 0.37155 1.24295 0.39514
 N2904 N 0.36401 1.25821 0.38764
 C2905 C 0.37193 1.26648 0.37251
 N2906 N 0.38764 1.25889 0.36514
 C2907 C 0.39548 1.21909 0.39596
 C2908 C 0.40248 1.20546 0.40290
 C2909 C 0.41090 1.18931 0.41123
 N2910 N 0.40345 1.18156 0.42681
 N2911 N 0.41136 1.16667 0.43464
 C2912 C 0.42702 1.15898 0.42720
 N2913 N 0.43440 1.16682 0.41156
 N2914 N 0.42650 1.18172 0.40373
 N2915 N 0.39525 0.74342 0.87257
 C2916 C 0.38763 0.73551 0.88798
 N2917 N 0.37221 0.74329 0.89568
 N2918 N 0.36463 0.75852 0.88818
 C2919 C 0.37222 0.76649 0.87273
 N2920 N 0.38766 0.75866 0.86506
 C2921 C 0.39583 0.71916 0.89611
 C2922 C 0.40278 0.70548 0.90300
 C2923 C 0.41111 0.68929 0.91129
 N2924 N 0.40365 0.68160 0.92689
 N2925 N 0.41151 0.66668 0.93471
 C2926 C 0.42713 0.65893 0.92725
 N2927 N 0.43450 0.66671 0.91158
 N2928 N 0.42665 0.68163 0.90375
 N2929 N 1.10517 0.75745 0.87210
 C2930 C 1.11277 0.76528 0.88756
 N2931 N 1.12822 0.75749 0.89519
 N2932 N 1.13583 0.74232 0.88760
 C2933 C 1.12824 0.73443 0.87213
 N2934 N 1.11278 0.74229 0.86450
 C2935 C 1.10445 0.78147 0.89586
 C2936 C 1.09739 0.79502 0.90289
 C2937 C 1.08894 0.81107 0.91131
 N2938 N 1.09639 0.81874 0.92690
 N2939 N 1.08850 0.83361 0.93476
 C2940 C 1.07286 0.84135 0.92734
 N2941 N 1.06547 0.83357 0.91168
 N2942 N 1.07336 0.81869 0.90382
 N2943 N 1.12744 0.25657 0.39549
 C2944 C 1.11231 0.26465 0.38754
 N2945 N 1.10500 0.25709 0.37181
 N2946 N 1.11260 0.24190 0.36425
 C2947 C 1.12775 0.23375 0.37219
 N2948 N 1.13504 0.24138 0.38794
 C2949 C 1.10404 0.28093 0.39576
 C2950 C 1.09707 0.29455 0.40272
 C2951 C 1.08873 0.31070 0.41108
 N2952 N 1.07317 0.31837 0.40359
 N2953 N 1.06533 0.33327 0.41146
 C2954 C 1.07273 0.34102 0.42713
 N2955 N 1.08836 0.33325 0.43454
 N2956 N 1.09621 0.31836 0.42667
 N2957 N 0.62792 0.75741 0.39532
 C2958 C 0.61250 0.76523 0.38764
 N2959 N 0.60488 0.75736 0.37221
 N2960 N 0.61244 0.74214 0.36468
 C2961 C 0.62787 0.73426 0.37235
 N2962 N 0.63548 0.74219 0.38779
 C2963 C 0.60420 0.78147 0.39590
 C2964 C 0.59715 0.79504 0.40290
 C2965 C 0.58870 0.81111 0.41130
 N2966 N 0.57311 0.81871 0.40381
 N2967 N 0.56520 0.83358 0.41167
 C2968 C 0.57257 0.84137 0.42733
 N2969 N 0.58821 0.83365 0.43477
 N2970 N 0.59613 0.81878 0.42691
 N2971 N 0.62763 0.25674 0.89537
 C2972 C 0.61249 0.26485 0.88746
 N2973 N 0.60514 0.25732 0.87173
 N2974 N 0.61271 0.24212 0.86414
 C2975 C 0.62785 0.23394 0.87205
 N2976 N 0.63519 0.24154 0.88779
 C2977 C 0.60424 0.28111 0.89575
 C2978 C 0.59725 0.29470 0.90277
 C2979 C 0.58888 0.31083 0.91116
 N2980 N 0.57332 0.31850 0.90366
 N2981 N 0.56549 0.33343 0.91149
 C2982 C 0.57291 0.34122 0.92712
 N2983 N 0.58853 0.33345 0.93455
 N2984 N 0.59637 0.31852 0.92672
 N2985 N 0.89516 0.75725 1.12792
 C2986 C 0.88756 0.76516 1.11249
 N2987 N 0.87215 0.75739 1.10479
 N2988 N 0.86458 0.74216 1.11229
 C2989 C 0.87218 0.73418 1.12773
 N2990 N 0.88760 0.74202 1.13543
 C2991 C 0.89586 0.78140 1.10426
 C2992 C 0.90291 0.79496 1.09727
 C2993 C 0.91137 0.81102 1.08888
 N2994 N 0.90394 0.81871 1.07326
 N2995 N 0.91185 0.83357 1.06540
 C2996 C 0.92749 0.84127 1.07283
 N2997 N 0.93486 0.83347 1.08850
 N2998 N 0.92695 0.81861 1.09637
 N2999 N 0.87219 0.25680 0.60427
 C3000 C 0.88761 0.26456 0.61197
 N3001 N 0.89521 0.25663 0.62740
 N3002 N 0.88762 0.24142 0.63491
 C3003 C 0.87217 0.23361 0.62724
 N3004 N 0.86459 0.24159 0.61178
 C3005 C 0.89584 0.28089 0.60384
 C3006 C 0.90281 0.29455 0.59697
 C3007 C 0.91118 0.31072 0.58869
 N3008 N 0.92672 0.31834 0.59625
 N3009 N 0.93459 0.33324 0.58843
 C3010 C 0.92724 0.34105 0.57275
 N3011 N 0.91163 0.33334 0.56529
 N3012 N 0.90375 0.31843 0.57310
 N3013 N 0.37172 0.75754 0.60474
 C3014 C 0.38715 0.76526 0.61243
 N3015 N 0.39470 0.75738 0.62790
 N3016 N 0.38706 0.74221 0.63544
 C3017 C 0.37163 0.73439 0.62774
 N3018 N 0.36408 0.74236 0.61227
 C3019 C 0.39553 0.78145 0.60418
 C3020 C 0.40263 0.79498 0.59718
 C3021 C 0.41112 0.81101 0.58878
 N3022 N 0.42667 0.81862 0.59632
 N3023 N 0.43457 0.83351 0.58847
 C3024 C 0.42721 0.84130 0.57279
 N3025 N 0.41161 0.83358 0.56532
 N3026 N 0.40371 0.81870 0.57316
 N3027 N 0.37213 0.25747 1.10469
 C3028 C 0.38753 0.26525 1.11239
 N3029 N 0.39513 0.25735 1.12784
 N3030 N 0.38755 0.24213 1.13535
 C3031 C 0.37213 0.23429 1.12766
 N3032 N 0.36455 0.24225 1.11220
 C3033 C 0.39586 0.28147 1.10415
 C3034 C 0.40293 0.29502 1.09715
 C3035 C 0.41141 0.31108 1.08875
 N3036 N 0.42696 0.31868 1.09628
 N3037 N 0.43488 0.33355 1.08843
 C3038 C 0.42754 0.34134 1.07274
 N3039 N 0.41193 0.33362 1.06526
 N3040 N 0.40401 0.31875 1.07311
 N3041 N 1.10493 1.12894 0.75691
 C3042 C 1.11230 1.11329 0.76458
 N3043 N 1.12757 1.10548 0.75663
 N3044 N 1.13525 1.11309 0.74149
 C3045 C 1.12791 1.12876 0.73374
 N3046 N 1.11260 1.13655 0.74175
 C3047 C 1.10395 1.10495 0.78079
 C3048 C 1.09694 1.09783 0.79434
 C3049 C 1.08856 1.08928 0.81041
 N3050 N 1.09611 1.07371 0.81805
 N3051 N 1.08832 1.06579 0.83298
 C3052 C 1.07268 1.07312 0.84081
 N3053 N 1.06519 1.08874 0.83305
 N3054 N 1.07298 1.09667 0.81812
 N3055 N 1.10468 0.62849 0.25641
 C3056 C 1.11246 0.61321 0.26445
 N3057 N 1.12806 0.60576 0.25680
 N3058 N 1.13561 0.61329 0.24154
 C3059 C 1.12784 0.62855 0.23339
 N3060 N 1.11225 0.63603 0.24115
 C3061 C 1.10416 0.60487 0.28073
 C3062 C 1.09722 0.59775 0.29434
 C3063 C 1.08892 0.58920 0.31048
 N3064 N 1.09647 0.57360 0.31806
 N3065 N 1.08868 0.56561 0.33297
 C3066 C 1.07303 0.57291 0.34082
 N3067 N 1.06555 0.58856 0.33312
 N3068 N 1.07333 0.59655 0.31823
 N3069 N 0.60503 1.12877 0.25686
 C3070 C 0.61262 1.11337 0.26485
 N3071 N 0.62809 1.10571 0.25714
 N3072 N 0.63572 1.11318 0.24190
 C3073 C 0.62815 1.12858 0.23382
 N3074 N 0.61268 1.13625 0.24162
 C3075 C 0.60421 1.10507 0.28106
 C3076 C 0.59713 1.09796 0.29460
 C3077 C 0.58868 1.08941 0.31066
 N3078 N 0.59617 1.07379 0.31828
 N3079 N 0.58830 1.06583 0.33315
 C3080 C 0.57264 1.07316 0.34094
 N3081 N 0.56521 1.08882 0.33321
 N3082 N 0.57307 1.09679 0.31834
 N3083 N 0.60496 0.62864 0.75719
 C3084 C 0.61229 0.61298 0.76488
 N3085 N 0.62756 0.60512 0.75698
 N3086 N 0.63528 0.61269 0.74184
 C3087 C 0.62797 0.62837 0.73409
 N3088 N 0.61268 0.63621 0.74204
 C3089 C 0.60390 0.60469 0.78108
 C3090 C 0.59686 0.59761 0.79463
 C3091 C 0.58845 0.58910 0.81069
 N3092 N 0.59597 0.57352 0.81833
 N3093 N 0.58815 0.56560 0.83324
 C3094 C 0.57250 0.57295 0.84104
 N3095 N 0.56505 0.58858 0.83328
 N3096 N 0.57286 0.59651 0.81837
 N3097 N 0.87213 0.89482 0.75719
 C3098 C 0.88774 0.88733 0.76479
 N3099 N 0.89554 0.87212 0.75668
 N3100 N 0.88796 0.86464 0.74143
 C3101 C 0.87235 0.87213 0.73376
 N3102 N 0.86454 0.88734 0.74193
 C3103 C 0.89603 0.89558 0.78107
 C3104 C 0.90301 0.90263 0.79466
 C3105 C 0.91138 0.91112 0.81075
 N3106 N 0.92697 0.90371 0.81843
 N3107 N 0.93481 0.91162 0.83331
 C3108 C 0.92738 0.92726 0.84106
 N3109 N 0.91173 0.93462 0.83327
 N3110 N 0.90388 0.92671 0.81838
 N3111 N 0.89505 0.37099 0.25676
 C3112 C 0.88773 0.38666 0.26444
 N3113 N 0.87245 0.39449 0.25652
 N3114 N 0.86473 0.38691 0.24139
 C3115 C 0.87203 0.37123 0.23362
 N3116 N 0.88734 0.36341 0.24162
 C3117 C 0.89611 0.39496 0.28066
 C3118 C 0.90313 0.40205 0.29422
 C3119 C 0.91149 0.41058 0.31032
 N3120 N 0.90393 0.42614 0.31794
 N3121 N 0.91169 0.43406 0.33288
 C3122 C 0.92732 0.42672 0.34074
 N3123 N 0.93482 0.41110 0.33301
 N3124 N 0.92706 0.40319 0.31807
 N3125 N 0.37238 0.89439 0.25635
 C3126 C 0.38766 0.88662 0.26433
 N3127 N 0.39506 0.87096 0.25670
 N3128 N 0.38740 0.86332 0.24156
 C3129 C 0.37209 0.87107 0.23351
 N3130 N 0.36472 0.88674 0.24122
 C3131 C 0.39598 0.89499 0.28056
 C3132 C 0.40295 0.90213 0.29412
 C3133 C 0.41128 0.91070 0.31022
 N3134 N 0.42687 0.90335 0.31799
 N3135 N 0.43459 0.91128 0.33292
 C3136 C 0.42706 0.92688 0.34066
 N3137 N 0.41143 0.93419 0.33278
 N3138 N 0.40369 0.92626 0.31783
 N3139 N 0.37210 0.39466 0.75705
 C3140 C 0.38730 0.38679 0.76511
 N3141 N 0.39446 0.37092 0.75770
 N3142 N 0.38671 0.36321 0.74265
 C3143 C 0.37153 0.37110 0.73450
 N3144 N 0.36435 0.38695 0.74201
 C3145 C 0.39580 0.39529 0.78114
 C3146 C 0.40292 0.40252 0.79457
 C3147 C 0.41142 0.41113 0.81054
 N3148 N 0.42701 0.40371 0.81822
 N3149 N 0.43486 0.41163 0.83310
 C3150 C 0.42742 0.42727 0.84085
 N3151 N 0.41179 0.43465 0.83304
 N3152 N 0.40393 0.42673 0.81815
 N3153 N 1.12737 0.89465 1.24343
 C3154 C 1.11201 0.88697 1.23554
 N3155 N 1.10449 0.87145 1.24331
 N3156 N 1.11209 0.86384 1.25851
 C3157 C 1.12747 0.87152 1.26644
 N3158 N 1.13498 0.88705 1.25861
 C3159 C 1.10376 0.89529 1.21928
 C3160 C 1.09683 0.90239 1.20567
 C3161 C 1.08854 0.91092 1.18955
 N3162 N 1.07298 0.90355 1.18180
 N3163 N 1.06523 0.91150 1.16687
 C3164 C 1.07273 0.92712 1.15914
 N3165 N 1.08835 0.93443 1.16700
 N3166 N 1.09611 0.92648 1.18194
 N3167 N 1.12785 0.39437 0.74279
 C3168 C 1.11228 0.38687 0.73515
 N3169 N 1.10450 0.37164 0.74323
 N3170 N 1.11205 0.36415 0.75851
 C3171 C 1.12763 0.37166 0.76622
 N3172 N 1.13540 0.38689 0.75806
 C3173 C 1.10399 0.39515 0.71889
 C3174 C 1.09700 0.40223 0.70531
 C3175 C 1.08862 0.41073 0.68922
 N3176 N 1.07302 0.40335 0.68155
 N3177 N 1.06516 0.41132 0.66669
 C3178 C 1.07257 0.42698 0.65896
 N3179 N 1.08823 0.43430 0.66674
 N3180 N 1.09610 0.42634 0.68161
 N3181 N 0.62750 0.89513 0.74305
 C3182 C 0.61224 0.88729 0.73515
 N3183 N 0.60491 0.87164 0.74284
 N3184 N 0.61263 0.86406 0.75800
 C3185 C 0.62791 0.87189 0.76595
 N3186 N 0.63522 0.88755 0.75820
 C3187 C 0.60385 0.89558 0.71894
 C3188 C 0.59680 0.90266 0.70540
 C3189 C 0.58838 0.91118 0.68934
 N3190 N 0.57280 0.90378 0.68165
 N3191 N 0.56497 0.91172 0.66676
 C3192 C 0.57241 0.92736 0.65901
 N3193 N 0.58805 0.93470 0.66682
 N3194 N 0.59588 0.92677 0.68171
 N3195 N 0.62771 0.39439 1.24366
 C3196 C 0.61222 0.38683 1.23591
 N3197 N 0.60457 0.37146 1.24386
 N3198 N 0.61218 0.36388 1.25907
 C3199 C 0.62771 0.37141 1.26688
 N3200 N 0.63533 0.38681 1.25886
 C3201 C 0.60395 0.39512 1.21960
 C3202 C 0.59702 0.40219 1.20596
 C3203 C 0.58872 0.41069 1.18978
 N3204 N 0.57314 0.40333 1.18204
 N3205 N 0.56539 0.41126 1.16710
 C3206 C 0.57289 0.42686 1.15934
 N3207 N 0.58853 0.43416 1.16718
 N3208 N 0.59629 0.42623 1.18213
 N3209 N 0.89548 1.12789 1.24317
 C3210 C 0.88795 1.11245 1.23527
 N3211 N 0.87261 1.10467 1.24311
 N3212 N 0.86500 1.11212 1.25836
 C3213 C 0.87251 1.12758 1.26630
 N3214 N 0.88788 1.13534 1.25843
 C3215 C 0.89620 1.10431 1.21895
 C3216 C 0.90315 1.09734 1.20531
 C3217 C 0.91148 1.08892 1.18918
 N3218 N 0.90397 1.07336 1.18154
 N3219 N 0.91182 1.06544 1.16666
 C3220 C 0.92748 1.07277 1.15888
 N3221 N 0.93491 1.08839 1.16662
 N3222 N 0.92707 1.09632 1.18150
 N3223 N 0.89549 0.62827 0.74299
 C3224 C 0.88793 0.61281 0.73514
 N3225 N 0.87251 0.60516 0.74295
 N3226 N 0.86486 0.61273 0.75812
 C3227 C 0.87238 0.62822 0.76601
 N3228 N 0.88784 0.63585 0.75817
 C3229 C 0.89623 0.60452 0.71890
 C3230 C 0.90321 0.59744 0.70532
 C3231 C 0.91155 0.58892 0.68923
 N3232 N 0.90401 0.57335 0.68163
 N3233 N 0.91181 0.56539 0.66673
 C3234 C 0.92745 0.57269 0.65890
 N3235 N 0.93494 0.58831 0.66661
 N3236 N 0.92715 0.59627 0.68151
 N3237 N 0.37252 1.10516 0.74287
 C3238 C 0.38779 1.11298 0.73493
 N3239 N 0.39516 1.12861 0.74260
 N3240 N 0.38748 1.13620 0.75775
 C3241 C 0.37219 1.12840 0.76574
 N3242 N 0.36485 1.11275 0.75802
 C3243 C 0.39614 1.10466 0.71875
 C3244 C 0.40316 1.09755 0.70522
 C3245 C 0.41153 1.08902 0.68918
 N3246 N 0.42713 1.09637 0.68148
 N3247 N 0.43493 1.08842 0.66659
 C3248 C 0.42744 1.07280 0.65887
 N3249 N 0.41179 1.06551 0.66668
 N3250 N 0.40398 1.07346 0.68157
 N3251 N 0.37248 0.60550 1.24308
 C3252 C 0.38791 0.61313 1.23527
 N3253 N 0.39548 0.62859 1.24309
 N3254 N 0.38784 0.63619 1.25827
 C3255 C 0.37241 0.62855 1.26614
 N3256 N 0.36486 0.61308 1.25826
 C3257 C 0.39620 0.60481 1.21902
 C3258 C 0.40315 0.59771 1.20543
 C3259 C 0.41146 0.58920 1.18931
 N3260 N 0.42702 0.59657 1.18156
 N3261 N 0.43480 0.58861 1.16666
 C3262 C 0.42733 0.57296 1.15897
 N3263 N 0.41170 0.56566 1.16683
 N3264 N 0.40391 0.57362 1.18173
 N3265 N 1.12811 1.24301 0.89457
 C3266 C 1.11254 1.23545 0.88700
 N3267 N 1.10481 1.24359 0.87174
 N3268 N 1.11242 1.25884 0.86429
 C3269 C 1.12802 1.26649 0.87185
 N3270 N 1.13572 1.25826 0.88712
 C3271 C 1.10419 1.21919 0.89523
 C3272 C 1.09717 1.20560 0.90226
 C3273 C 1.08879 1.18949 0.91073
 N3274 N 1.07321 1.18182 0.90330
 N3275 N 1.06539 1.16694 0.91122
 C3276 C 1.07283 1.15918 0.92688
 N3277 N 1.08847 1.16695 0.93424
 N3278 N 1.09630 1.18183 0.92632
 N3279 N 1.10485 0.74321 0.37179
 C3280 C 1.11233 0.73532 0.38729
 N3281 N 1.12772 0.74305 0.39506
 N3282 N 1.13541 0.75822 0.38754
 C3283 C 1.12796 0.76619 0.37201
 N3284 N 1.11254 0.75838 0.36427
 C3285 C 1.10398 0.71906 0.39550
 C3286 C 1.09698 0.70546 0.40249
 C3287 C 1.08863 0.68933 0.41091
 N3288 N 1.09614 0.68165 0.42649
 N3289 N 1.08835 0.66671 0.43434
 C3290 C 1.07275 0.65891 0.42693
 N3291 N 1.06530 0.66670 0.41129
 N3292 N 1.07309 0.68164 0.40343
 N3293 N 0.60507 1.24297 0.37100
 C3294 C 0.61229 1.23538 0.38678
 N3295 N 0.62748 1.24333 0.39471
 N3296 N 0.63523 1.25842 0.38711
 C3297 C 0.62803 1.26611 0.37131
 N3298 N 0.61281 1.25808 0.36339
 C3299 C 0.60385 1.21922 0.39512
 C3300 C 0.59679 1.20571 0.40223
 C3301 C 0.58839 1.18965 0.41076
 N3302 N 0.59594 1.18199 0.42635
 N3303 N 0.58816 1.16707 0.43425
 C3304 C 0.57253 1.15927 0.42689
 N3305 N 0.56504 1.16705 0.41127
 N3306 N 0.57281 1.18197 0.40336
 N3307 N 0.62753 0.74298 0.89511
 C3308 C 0.61226 0.73512 0.88724
 N3309 N 0.60494 0.74285 0.87157
 N3310 N 0.61267 0.75799 0.86401
 C3311 C 0.62796 0.76590 0.87188
 N3312 N 0.63526 0.75811 0.88756
 C3313 C 0.60387 0.71893 0.89550
 C3314 C 0.59682 0.70539 0.90256
 C3315 C 0.58843 0.68932 0.91106
 N3316 N 0.57286 0.68165 0.90363
 N3317 N 0.56508 0.66672 0.91152
 C3318 C 0.57256 0.65894 0.92715
 N3319 N 0.58818 0.66673 0.93453
 N3320 N 0.59597 0.68165 0.92664
 N3321 N 0.87267 1.24291 1.10520
 C3322 C 0.88794 1.23499 1.11304
 N3323 N 0.89531 1.24265 1.12870
 N3324 N 0.88763 1.25779 1.13629
 C3325 C 0.87234 1.26576 1.12845
 N3326 N 0.86499 1.25804 1.11278
 C3327 C 0.89629 1.21881 1.10474
 C3328 C 0.90330 1.20527 1.09765
 C3329 C 0.91168 1.18923 1.08913
 N3330 N 0.92724 1.18150 1.09655
 N3331 N 0.93504 1.16661 1.08861
 C3332 C 0.92758 1.15892 1.07295
 N3333 N 0.91196 1.16676 1.06558
 N3334 N 0.90416 1.18165 1.07351
 N3335 N 0.87228 0.74260 0.60520
 C3336 C 0.88767 0.73480 0.61294
 N3337 N 0.89512 0.74259 0.62850
 N3338 N 0.88742 0.75773 0.63607
 C3339 C 0.87203 0.76560 0.62833
 N3340 N 0.86458 0.75774 0.61276
 C3341 C 0.89608 0.71865 0.60459
 C3342 C 0.90312 0.70514 0.59745
 C3343 C 0.91151 0.68911 0.58889
 N3344 N 0.92709 0.68140 0.59630
 N3345 N 0.93489 0.66650 0.58839
 C3346 C 0.92741 0.65875 0.57276
 N3347 N 0.91178 0.66657 0.56539
 N3348 N 0.90398 0.68148 0.57329
 N3349 N 0.37167 1.24294 0.60553
 C3350 C 0.38750 1.23556 0.61280
 N3351 N 0.39552 1.24393 0.62776
 N3352 N 0.38798 1.25922 0.63519
 C3353 C 0.37214 1.26669 0.62793
 N3354 N 0.36411 1.25821 0.61298
 C3355 C 0.39577 1.21925 0.60457
 C3356 C 0.40273 1.20561 0.59756
 C3357 C 0.41107 1.18944 0.58915
 N3358 N 0.42666 1.18178 0.59660
 N3359 N 0.43449 1.16687 0.58874
 C3360 C 0.42706 1.15907 0.57311
 N3361 N 0.41142 1.16684 0.56571
 N3362 N 0.40358 1.18176 0.57357
 N3363 N 0.39508 0.74313 1.12886
 C3364 C 0.38771 0.73547 1.11319
 N3365 N 0.37243 0.74341 1.10538
 N3366 N 0.36475 0.75853 1.11298
 C3367 C 0.37209 0.76627 1.12867
 N3368 N 0.38740 0.75826 1.13647
 C3369 C 0.39606 0.71927 1.10487
 C3370 C 0.40307 0.70572 1.09776
 C3371 C 0.41145 0.68965 1.08923
 N3372 N 0.40391 0.68203 1.07364
 N3373 N 0.41169 0.66711 1.06574
 C3374 C 0.42730 0.65926 1.07312
 N3375 N 0.43479 0.66700 1.08875
 N3376 N 0.42702 0.68192 1.09665
 N3377 N 0.87250 0.75729 0.89498
 C3378 C 0.88792 0.76503 0.88726
 N3379 N 0.89546 0.75714 0.87179
 N3380 N 0.88779 0.74198 0.86425
 C3381 C 0.87233 0.73420 0.87194
 N3382 N 0.86483 0.74214 0.88744
 C3383 C 0.89626 0.78126 0.89550
 C3384 C 0.90326 0.79483 0.90253
 C3385 C 0.91161 0.81093 0.91099
 N3386 N 0.92719 0.81861 0.90357
 N3387 N 0.93497 0.83352 0.91148
 C3388 C 0.92748 0.84127 0.92711
 N3389 N 0.91185 0.83347 0.93448
 N3390 N 0.90407 0.81857 0.92657
 N3391 N 0.89544 0.25662 0.37194
 C3392 C 0.88791 0.26450 0.38742
 N3393 N 0.87256 0.25670 0.39521
 N3394 N 0.86495 0.24148 0.38775
 C3395 C 0.87246 0.23354 0.37225
 N3396 N 0.88783 0.24139 0.36448
 C3397 C 0.89618 0.28081 0.39557
 C3398 C 0.90313 0.29445 0.40254
 C3399 C 0.91145 0.31059 0.41094
 N3400 N 0.90392 0.31826 0.42651
 N3401 N 0.91172 0.33317 0.43439
 C3402 C 0.92737 0.34094 0.42701
 N3403 N 0.93483 0.33316 0.41139
 N3404 N 0.92703 0.31825 0.40350
 N3405 N 0.39505 0.75674 0.37160
 C3406 C 0.38757 0.76459 0.38711
 N3407 N 0.37215 0.75684 0.39483
 N3408 N 0.36447 0.74169 0.38729
 C3409 C 0.37194 0.73374 0.37177
 N3410 N 0.38737 0.74158 0.36405
 C3411 C 0.39591 0.78084 0.39537
 C3412 C 0.40291 0.79444 0.40240
 C3413 C 0.41124 0.81057 0.41085
 N3414 N 0.40369 0.81823 0.42642
 N3415 N 0.41146 0.83316 0.43430
 C3416 C 0.42708 0.84098 0.42692
 N3417 N 0.43455 0.83322 0.41128
 N3418 N 0.42679 0.81830 0.40340
 N3419 N 0.37262 0.25716 0.89487
 C3420 C 0.38789 0.26504 0.88700
 N3421 N 0.39523 0.25735 0.87133
 N3422 N 0.38752 0.24222 0.86377
 C3423 C 0.37222 0.23429 0.87163
 N3424 N 0.36491 0.24204 0.88730
 C3425 C 0.39628 0.28122 0.89528
 C3426 C 0.40330 0.29476 0.90235
 C3427 C 0.41166 0.31083 0.91086
 N3428 N 0.42723 0.31853 0.90345
 N3429 N 0.43500 0.33342 0.91138
 C3430 C 0.42750 0.34116 0.92701
 N3431 N 0.41187 0.33335 0.93435
 N3432 N 0.40409 0.31845 0.92643
 N3433 N 1.10468 0.75649 1.12854
 C3434 C 1.11243 0.76457 1.11326
 N3435 N 1.12802 0.75696 1.10576
 N3436 N 1.13560 0.74171 1.11325
 C3437 C 1.12784 0.73352 1.12851
 N3438 N 1.11225 0.74124 1.13604
 C3439 C 1.10411 0.78085 1.10498
 C3440 C 1.09714 0.79446 1.09792
 C3441 C 1.08880 0.81061 1.08944
 N3442 N 1.09631 0.81824 1.07383
 N3443 N 1.08849 0.83315 1.06591
 C3444 C 1.07286 0.84097 1.07328
 N3445 N 1.06542 0.83322 1.08895
 N3446 N 1.07323 0.81831 1.09687
 N3447 N 1.12746 0.25646 0.60553
 C3448 C 1.11218 0.26439 0.61335
 N3449 N 1.10482 0.25672 0.62903
 N3450 N 1.11251 0.24158 0.63666
 C3451 C 1.12783 0.23358 0.62886
 N3452 N 1.13515 0.24133 0.61315
 C3453 C 1.10382 0.28061 0.60500
 C3454 C 1.09682 0.29417 0.59786
 C3455 C 1.08849 0.31027 0.58930
 N3456 N 1.07293 0.31804 0.59669
 N3457 N 1.06520 0.33298 0.58876
 C3458 C 1.07271 0.34071 0.57312
 N3459 N 1.08832 0.33283 0.56578
 N3460 N 1.09606 0.31789 0.57370
 N3461 N 0.60489 0.75739 0.62851
 C3462 C 0.61220 0.76512 0.61284
 N3463 N 0.62747 0.75725 0.60495
 N3464 N 0.63521 0.74212 0.61249
 C3465 C 0.62793 0.73434 0.62818
 N3466 N 0.61263 0.74226 0.63606
 C3467 C 0.60379 0.78132 0.60457
 C3468 C 0.59675 0.79487 0.59751
 C3469 C 0.58836 0.81094 0.58901
 N3470 N 0.59589 0.81859 0.57342
 N3471 N 0.58810 0.83351 0.56552
 C3472 C 0.57247 0.84132 0.57290
 N3473 N 0.56500 0.83356 0.58854
 N3474 N 0.57279 0.81864 0.59644
 N3475 N 0.60484 0.25726 1.12860
 C3476 C 0.61249 0.26521 1.11321
 N3477 N 0.62798 0.25750 1.10559
 N3478 N 0.63558 0.24229 1.11312
 C3479 C 0.62794 0.23426 1.12851
 N3480 N 0.61245 0.24204 1.13613
 C3481 C 0.60412 0.28139 1.10486
 C3482 C 0.59705 0.29490 1.09774
 C3483 C 0.58860 0.31091 1.08919
 N3484 N 0.59605 0.31852 1.07355
 N3485 N 0.58818 0.33338 1.06561
 C3486 C 0.57254 0.34117 1.07300
 N3487 N 0.56513 0.33343 1.08868
 N3488 N 0.57300 0.31857 1.09662
 N3489 N 1.24280 1.12797 0.89513
 C3490 C 1.23501 1.11256 0.88745
 N3491 N 1.24287 1.10494 0.87201
 N3492 N 1.25808 1.11250 0.86448
 C3493 C 1.26594 1.12793 0.87216
 N3494 N 1.25801 1.13554 0.88760
 C3495 C 1.21878 1.10426 0.89570
 C3496 C 1.20523 1.09722 0.90269
 C3497 C 1.18918 1.08880 0.91110
 N3498 N 1.18154 1.07323 0.90360
 N3499 N 1.16667 1.06536 0.91147
 C3500 C 1.15891 1.07275 0.92714
 N3501 N 1.16666 1.08837 0.93457
 N3502 N 1.18153 1.09625 0.92671
 N3503 N 1.24279 0.62810 0.39531
 C3504 C 1.23506 0.61266 0.38760
 N3505 N 1.24296 0.60511 0.37214
 N3506 N 1.25814 0.61275 0.36464
 C3507 C 1.26595 0.62819 0.37234
 N3508 N 1.25797 0.63574 0.38780
 C3509 C 1.21889 0.60426 0.39585
 C3510 C 1.20538 0.59713 0.40286
 C3511 C 1.18935 0.58863 0.41126
 N3512 N 1.18175 0.57305 0.40374
 N3513 N 1.16686 0.56517 0.41157
 C3514 C 1.15903 0.57256 0.42720
 N3515 N 1.16674 0.58820 0.43465
 N3516 N 1.18163 0.59608 0.42684
 N3517 N 0.74315 1.12750 0.39546
 C3518 C 0.73533 1.11209 0.38778
 N3519 N 0.74318 1.10445 0.37235
 N3520 N 0.75840 1.11200 0.36480
 C3521 C 0.76627 1.12743 0.37246
 N3522 N 0.75836 1.13504 0.38792
 C3523 C 0.71900 1.10392 0.39594
 C3524 C 0.70533 1.09699 0.40284
 C3525 C 0.68915 1.08870 0.41112
 N3526 N 0.68148 1.07316 0.40360
 N3527 N 0.66654 1.06535 0.41141
 C3528 C 0.65875 1.07278 0.42705
 N3529 N 0.66651 1.08840 0.43449
 N3530 N 0.68144 1.09621 0.42668
 N3531 N 0.74270 0.62806 0.89522
 C3532 C 0.73492 0.61263 0.88754
 N3533 N 0.74280 0.60502 0.87211
 N3534 N 0.75799 0.61260 0.86457
 C3535 C 0.76583 0.62805 0.87222
 N3536 N 0.75790 0.63564 0.88768
 C3537 C 0.71874 0.60429 0.89583
 C3538 C 0.70521 0.59722 0.90286
 C3539 C 0.68917 0.58877 0.91128
 N3540 N 0.68154 0.57320 0.90378
 N3541 N 0.66665 0.56534 0.91163
 C3542 C 0.65887 0.57274 0.92729
 N3543 N 0.66661 0.58836 0.93473
 N3544 N 0.68149 0.59623 0.92688
 N3545 N 1.24312 0.87186 1.10485
 C3546 C 1.23531 0.88729 1.11253
 N3547 N 1.24317 0.89491 1.12796
 N3548 N 1.25838 0.88734 1.13549
 C3549 C 1.26626 0.87191 1.12783
 N3550 N 1.25834 0.86429 1.11238
 C3551 C 1.21908 0.89558 1.10427
 C3552 C 1.20551 0.90262 1.09727
 C3553 C 1.18944 0.91106 1.08888
 N3554 N 1.18179 0.92662 1.09640
 N3555 N 1.16692 0.93451 1.08854
 C3556 C 1.15915 0.92715 1.07287
 N3557 N 1.16691 0.91153 1.06541
 N3558 N 1.18179 0.90363 1.07326
 N3559 N 1.24371 0.39554 0.62717
 C3560 C 1.23514 0.38726 0.61248
 N3561 N 1.24222 0.37115 0.60555
 N3562 N 1.25741 0.36355 0.61308
 C3563 C 1.26606 0.37182 0.62778
 N3564 N 1.25891 0.38794 0.63470
 C3565 C 1.21891 0.39558 0.60421
 C3566 C 1.20535 0.40262 0.59718
 C3567 C 1.18929 0.41105 0.58875
 N3568 N 1.18162 0.40356 0.57317
 N3569 N 1.16673 0.41142 0.56531
 C3570 C 1.15897 0.42707 0.57271
 N3571 N 1.16676 0.43450 0.58834
 N3572 N 1.18165 0.42665 0.59621
 N3573 N 0.74266 0.89524 0.62809
 C3574 C 0.73507 0.88792 0.61237
 N3575 N 0.74316 0.87280 0.60439
 N3576 N 0.75838 0.86523 0.61190
 C3577 C 0.76604 0.87253 0.62763
 N3578 N 0.75788 0.88766 0.63560
 C3579 C 0.71877 0.89617 0.60418
 C3580 C 0.70514 0.90314 0.59723
 C3581 C 0.68900 0.91150 0.58888
 N3582 N 0.68132 0.90400 0.57330
 N3583 N 0.66640 0.91184 0.56547
 C3584 C 0.65863 0.92747 0.57290
 N3585 N 0.66642 0.93489 0.58854
 N3586 N 0.68134 0.92706 0.59637
 N3587 N 0.74295 0.39506 1.12793
 C3588 C 0.73513 0.38740 1.11249
 N3589 N 0.74298 0.37197 1.10486
 N3590 N 0.75820 0.36444 1.11243
 C3591 C 0.76608 0.37210 1.12788
 N3592 N 0.75817 0.38753 1.13550
 C3593 C 0.71889 0.39565 1.10419
 C3594 C 0.70533 0.40268 1.09717
 C3595 C 0.68926 0.41113 1.08877
 N3596 N 0.68161 0.40371 1.07315
 N3597 N 0.66672 0.41161 1.06532
 C3598 C 0.65896 0.42722 1.07280
 N3599 N 0.66673 0.43458 1.08847
 N3600 N 0.68162 0.42669 1.09631
 N3601 N 0.75772 1.12842 1.10549
 C3602 C 0.76551 1.11292 1.11306
 N3603 N 0.75775 1.10531 1.12857
 N3604 N 0.74263 1.11293 1.13625
 C3605 C 0.73476 1.12843 1.12867
 N3606 N 0.74260 1.13604 1.11317
 C3607 C 0.78158 1.10450 1.10460
 C3608 C 0.79502 1.09736 1.09745
 C3609 C 0.81097 1.08881 1.08893
 N3610 N 0.81861 1.07322 1.09643
 N3611 N 0.83347 1.06533 1.08856
 C3612 C 0.84125 1.07272 1.07289
 N3613 N 0.83349 1.08835 1.06544
 N3614 N 0.81862 1.09625 1.07330
 N3615 N 0.75737 0.60481 0.62778
 C3616 C 0.76524 0.61244 0.61234
 N3617 N 0.75744 0.62787 0.60465
 N3618 N 0.74223 0.63544 0.61217
 C3619 C 0.73429 0.62782 0.62762
 N3620 N 0.74216 0.61238 0.63530
 C3621 C 0.78148 0.60414 0.60410
 C3622 C 0.79504 0.59709 0.59710
 C3623 C 0.81110 0.58864 0.58871
 N3624 N 0.81876 0.59607 0.57309
 N3625 N 0.83363 0.58817 0.56524
 C3626 C 0.84136 0.57253 0.57270
 N3627 N 0.83359 0.56515 0.58837
 N3628 N 0.81872 0.57305 0.59623
 N3629 N 0.25687 1.10488 0.62819
 C3630 C 0.26471 1.11252 0.61274
 N3631 N 0.25688 1.12795 0.60507
 N3632 N 0.24167 1.13550 0.61261
 C3633 C 0.23376 1.12787 0.62807
 N3634 N 0.24165 1.11244 0.63573
 C3635 C 0.28095 1.10425 0.60446
 C3636 C 0.29452 1.09724 0.59743
 C3637 C 0.31059 1.08885 0.58898
 N3638 N 0.31819 1.09632 0.57334
 N3639 N 0.33307 1.08848 0.56545
 C3640 C 0.34088 1.07286 0.57288
 N3641 N 0.33317 1.06545 0.58857
 N3642 N 0.31829 1.07329 0.59647
 N3643 N 0.25714 0.60510 1.12805
 C3644 C 0.26496 0.61270 1.11258
 N3645 N 0.25718 0.62817 1.10495
 N3646 N 0.24204 0.63580 1.11255
 C3647 C 0.23415 0.62821 1.12804
 N3648 N 0.24199 0.61272 1.13566
 C3649 C 0.28114 0.60435 1.10426
 C3650 C 0.29467 0.59727 1.09723
 C3651 C 0.31073 0.58881 1.08882
 N3652 N 0.31843 0.59628 1.07323
 N3653 N 0.33334 0.58841 1.06542
 C3654 C 0.34109 0.57278 1.07289
 N3655 N 0.33328 0.56537 1.08853
 N3656 N 0.31837 0.57323 1.09635
 N3657 N 0.75738 0.87228 0.89535
 C3658 C 0.76516 0.88770 0.88766
 N3659 N 0.75729 0.89533 0.87222
 N3660 N 0.74208 0.88777 0.86470
 C3661 C 0.73423 0.87233 0.87239
 N3662 N 0.74217 0.86471 0.88783
 C3663 C 0.78138 0.89600 0.89590
 C3664 C 0.79493 0.90304 0.90289
 C3665 C 0.81098 0.91147 0.91129
 N3666 N 0.81860 0.92706 0.90379
 N3667 N 0.83346 0.93493 0.91166
 C3668 C 0.84124 0.92753 0.92732
 N3669 N 0.83351 0.91188 0.93476
 N3670 N 0.81865 0.90401 0.92690
 N3671 N 0.75654 0.37227 0.39556
 C3672 C 0.76464 0.38737 0.38755
 N3673 N 0.75703 0.39472 0.37184
 N3674 N 0.74179 0.38718 0.36436
 C3675 C 0.73362 0.37207 0.37235
 N3676 N 0.74129 0.36474 0.38808
 C3677 C 0.78095 0.39560 0.39573
 C3678 C 0.79458 0.40258 0.40266
 C3679 C 0.81071 0.41095 0.41100
 N3680 N 0.81837 0.42651 0.40346
 N3681 N 0.83327 0.43435 0.41129
 C3682 C 0.84106 0.42695 0.42695
 N3683 N 0.83331 0.41133 0.43441
 N3684 N 0.81840 0.40349 0.42659
 N3685 N 0.25652 0.89508 0.37276
 C3686 C 0.26448 0.88746 0.38815
 N3687 N 0.25672 0.87205 0.39591
 N3688 N 0.24147 0.86448 0.38848
 C3689 C 0.23345 0.87209 0.37306
 N3690 N 0.24127 0.88752 0.36533
 C3691 C 0.28081 0.89570 0.39623
 C3692 C 0.29446 0.90271 0.40307
 C3693 C 0.31061 0.91110 0.41131
 N3694 N 0.31835 0.90367 0.42690
 N3695 N 0.33325 0.91156 0.43466
 C3696 C 0.34096 0.92717 0.42715
 N3697 N 0.33314 0.93453 0.41148
 N3698 N 0.31822 0.92665 0.40371
 N3699 N 0.25738 0.37195 0.89524
 C3700 C 0.26509 0.38741 0.88754
 N3701 N 0.25722 0.39495 0.87206
 N3702 N 0.24208 0.38727 0.86451
 C3703 C 0.23430 0.37180 0.87220
 N3704 N 0.24224 0.36427 0.88769
 C3705 C 0.28126 0.39580 0.89580
 C3706 C 0.29478 0.40290 0.90281
 C3707 C 0.31082 0.41135 0.91122
 N3708 N 0.31843 0.42695 0.90373
 N3709 N 0.33332 0.43480 0.91157
 C3710 C 0.34114 0.42736 0.92720
 N3711 N 0.33342 0.41171 0.93463
 N3712 N 0.31853 0.40385 0.92680
   
