data_POSCAR
  _audit_creation_date              2014-09-24
  _audit_creation_method            'ToBaCCo'
  _symmetry_space_group_name_H-M    'P1'
  _symmetry_Int_Tables_number       1
  _symmetry_cell_setting            triclinic
  loop_
  _symmetry_equiv_pos_as_xyz
 x,y,z
_cell_length_a 68.3240
_cell_length_b 67.3132
_cell_length_c 68.7973
_cell_angle_alpha 90.062900
_cell_angle_beta 89.989200
_cell_angle_gamma 89.984800
loop_
  _atom_site_label
  _atom_site_type_symbol
  _atom_site_fract_x
  _atom_site_fract_y
  _atom_site_fract_z
C1 C 0.36040 0.33469 0.33619
 C2 C 0.35166 0.35165 0.32806
 C3 C 0.33480 0.36006 0.33641
 C4 C 0.32679 0.35137 0.35318
 C5 C 0.33532 0.33441 0.36151
 C6 C 0.35217 0.32625 0.35296
 H7 H 0.35754 0.35787 0.31477
 H8 H 0.31373 0.35768 0.35963
 H9 H 0.35906 0.31342 0.35955
 C10 C 0.36095 0.83379 -0.16433
 C11 C 0.35233 0.85111 -0.17216
 C12 C 0.33511 0.85948 -0.16421
 C13 C 0.32680 0.85027 -0.14776
 C14 C 0.33519 0.83324 -0.13954
 C15 C 0.35213 0.82514 -0.14786
 H16 H 0.35796 0.85700 -0.18564
 H17 H 0.31394 0.85647 -0.14090
 H18 H 0.35885 0.81253 -0.14076
 C19 C 0.86070 0.33393 -0.16377
 C20 C 0.85235 0.32549 -0.14710
 C21 C 0.83543 0.33359 -0.13876
 C22 C 0.82683 0.35043 -0.14725
 C23 C 0.83490 0.35937 -0.16402
 C24 C 0.85205 0.35089 -0.17200
 H25 H 0.85922 0.31269 -0.14043
 H26 H 0.81399 0.35668 -0.14038
 H27 H 0.85808 0.35654 -0.18543
 C28 C 0.85983 0.83394 0.33607
 C29 C 0.85119 0.85089 0.32781
 C30 C 0.83398 0.85933 0.33570
 C31 C 0.82585 0.85038 0.35242
 C32 C 0.83442 0.83354 0.36094
 C33 C 0.85141 0.82548 0.35269
 H34 H 0.85729 0.85655 0.31441
 H35 H 0.81296 0.85660 0.35923
 H36 H 0.85826 0.81269 0.35940
 C37 C 0.63870 0.66599 0.33565
 C38 C 0.64751 0.64913 0.32735
 C39 C 0.66428 0.64061 0.33572
 C40 C 0.67214 0.64907 0.35269
 C41 C 0.66355 0.66592 0.36120
 C42 C 0.64678 0.67421 0.35262
 H43 H 0.64175 0.64309 0.31392
 H44 H 0.68515 0.64267 0.35914
 H45 H 0.63985 0.68697 0.35932
 C46 C 0.63980 0.16555 -0.16389
 C47 C 0.64845 0.14864 -0.17224
 C48 C 0.66563 0.14014 -0.16438
 C49 C 0.67376 0.14903 -0.14760
 C50 C 0.66517 0.16584 -0.13898
 C51 C 0.64820 0.17395 -0.14721
 H52 H 0.64237 0.14303 -0.18569
 H53 H 0.68663 0.14278 -0.14082
 H54 H 0.64134 0.18671 -0.14044
 C55 C 0.13899 0.66483 -0.16445
 C56 C 0.14756 0.64781 -0.17268
 C57 C 0.16466 0.63925 -0.16471
 C58 C 0.17278 0.64818 -0.14794
 C59 C 0.16427 0.66509 -0.13945
 C60 C 0.14738 0.67326 -0.14778
 H61 H 0.14149 0.64216 -0.18611
 H62 H 0.18559 0.64188 -0.14109
 H63 H 0.14058 0.68611 -0.14110
 C64 C 0.13883 0.16470 0.33594
 C65 C 0.14773 0.14770 0.32803
 C66 C 0.16446 0.13938 0.33666
 C67 C 0.17219 0.14818 0.35351
 C68 C 0.16349 0.16516 0.36167
 C69 C 0.14678 0.17329 0.35281
 H70 H 0.14176 0.14106 0.31497
 H71 H 0.18517 0.14192 0.36016
 H72 H 0.14009 0.18647 0.35893
 C73 C 0.63935 0.33400 0.66391
 C74 C 0.64808 0.35087 0.67224
 C75 C 0.66487 0.35942 0.66394
 C76 C 0.67284 0.35096 0.64702
 C77 C 0.66433 0.33408 0.63849
 C78 C 0.64754 0.32577 0.64699
 H79 H 0.64223 0.35691 0.68564
 H80 H 0.68586 0.35738 0.64062
 H81 H 0.64067 0.31299 0.64027
 C82 C 0.63874 0.83429 1.16380
 C83 C 0.64761 0.82580 1.14724
 C84 C 0.66456 0.83398 1.13905
 C85 C 0.67293 0.85092 1.14750
 C86 C 0.66459 0.85996 1.16406
 C87 C 0.64736 0.85151 1.17186
 H88 H 0.64090 0.81326 1.13999
 H89 H 0.68581 0.85719 1.14075
 H90 H 0.64170 0.85725 1.18541
 C91 C 0.13947 0.33422 1.16526
 C92 C 0.14807 0.32574 1.14852
 C93 C 0.16485 0.33400 1.13995
 C94 C 0.17321 0.35107 1.14816
 C95 C 0.16506 0.35987 1.16479
 C96 C 0.14819 0.35149 1.17312
 H97 H 0.14130 0.31316 1.14141
 H98 H 0.18624 0.35741 1.14171
 H99 H 0.14277 0.35784 1.18653
 C100 C 0.13870 0.83524 0.66483
 C101 C 0.14689 0.82696 0.64783
 C102 C 0.16389 0.83486 0.63945
 C103 C 0.17281 0.85147 0.64797
 C104 C 0.16499 0.86046 0.66478
 C105 C 0.14787 0.85215 0.67294
 H106 H 0.14061 0.81377 0.64136
 H107 H 0.18570 0.85756 0.64106
 H108 H 0.14172 0.85878 0.68585
 C109 C 0.35999 0.66496 0.66463
 C110 C 0.35109 0.64798 0.67253
 C111 C 0.33427 0.63974 0.66399
 C112 C 0.32644 0.64862 0.64723
 C113 C 0.33513 0.66560 0.63910
 C114 C 0.35193 0.67363 0.64788
 H115 H 0.35714 0.64128 0.68552
 H116 H 0.31341 0.64242 0.64063
 H117 H 0.35862 0.68680 0.64177
 C118 C 0.36036 0.16642 1.16537
 C119 C 0.35213 0.17443 1.14845
 C120 C 0.33546 0.16591 1.14000
 C121 C 0.32710 0.14897 1.14856
 C122 C 0.33497 0.14056 1.16569
 C123 C 0.35176 0.14957 1.17384
 H124 H 0.35891 0.18721 1.14167
 H125 H 0.31365 0.14327 1.14243
 H126 H 0.35857 0.14339 1.18667
 C127 C 0.86038 0.66653 1.16321
 C128 C 0.85226 0.67491 1.14635
 C129 C 0.83548 0.66670 1.13772
 C130 C 0.82690 0.64978 1.14607
 C131 C 0.83480 0.64117 1.16293
 C132 C 0.85159 0.64961 1.17135
 H133 H 0.85918 0.68771 1.13976
 H134 H 0.81388 0.64344 1.13957
 H135 H 0.85738 0.64345 1.18471
 C136 C 0.86114 0.16611 0.66396
 C137 C 0.85237 0.17473 0.64744
 C138 C 0.83544 0.16665 0.63911
 C139 C 0.82700 0.14967 0.64738
 C140 C 0.83524 0.14050 0.66388
 C141 C 0.85246 0.14884 0.67182
 H142 H 0.85913 0.18730 0.64032
 H143 H 0.81413 0.14348 0.64051
 H144 H 0.85805 0.14298 0.68534
 C145 C 0.33528 0.35936 0.66378
 C146 C 0.35205 0.35108 0.67236
 C147 C 0.36099 0.33412 0.66441
 C148 C 0.35304 0.32554 0.64754
 C149 C 0.33630 0.33364 0.63871
 C150 C 0.32756 0.35058 0.64692
 H151 H 0.35802 0.35772 0.68542
 H152 H 0.35976 0.31238 0.64138
 H153 H 0.31456 0.35681 0.64029
 C154 C 0.33506 0.86050 0.16253
 C155 C 0.32728 0.85161 0.14575
 C156 C 0.33595 0.83458 0.13766
 C157 C 0.35270 0.82652 0.14650
 C158 C 0.36070 0.83520 0.16329
 C159 C 0.35182 0.85224 0.17114
 H160 H 0.31427 0.85782 0.13911
 H161 H 0.35937 0.81330 0.14043
 H162 H 0.35784 0.85895 0.18415
 C163 C 0.83554 0.36071 0.16361
 C164 C 0.82778 0.35178 0.14683
 C165 C 0.83650 0.33476 0.13875
 C166 C 0.85325 0.32674 0.14762
 C167 C 0.86123 0.33545 0.16441
 C168 C 0.85231 0.35248 0.17224
 H169 H 0.81477 0.35797 0.14017
 H170 H 0.85996 0.31353 0.14156
 H171 H 0.85830 0.35922 0.18524
 C172 C 0.83537 0.86013 0.66334
 C173 C 0.82752 0.85131 0.64655
 C174 C 0.83613 0.83429 0.63837
 C175 C 0.85289 0.82617 0.64714
 C176 C 0.86096 0.83477 0.66393
 C177 C 0.85214 0.85180 0.67187
 H178 H 0.81451 0.85757 0.63996
 H179 H 0.85953 0.81296 0.64100
 H180 H 0.85820 0.85845 0.68488
 C181 C 0.66488 0.63969 0.66512
 C182 C 0.67314 0.64801 0.64830
 C183 C 0.66486 0.66488 0.63956
 C184 C 0.64793 0.67329 0.64772
 C185 C 0.63939 0.66514 0.66450
 C186 C 0.64794 0.64830 0.67306
 H187 H 0.68594 0.64118 0.64185
 H188 H 0.64152 0.68637 0.64113
 H189 H 0.64183 0.64235 0.68637
 C190 C 0.66484 0.14048 0.16527
 C191 C 0.67315 0.14873 0.14845
 C192 C 0.66499 0.16565 0.13969
 C193 C 0.64811 0.17418 0.14783
 C194 C 0.63950 0.16610 0.16461
 C195 C 0.64794 0.14920 0.17319
 H196 H 0.68592 0.14180 0.14200
 H197 H 0.64178 0.18729 0.14123
 H198 H 0.64179 0.14330 0.18649
 C199 C 0.16477 0.64047 0.16436
 C200 C 0.17275 0.64896 0.14747
 C201 C 0.16422 0.66583 0.13898
 C202 C 0.14740 0.67411 0.14748
 C203 C 0.13920 0.66586 0.16436
 C204 C 0.14794 0.64898 0.17266
 H205 H 0.18579 0.64257 0.14106
 H206 H 0.14051 0.68688 0.14078
 H207 H 0.14208 0.64291 0.18602
 C208 C 0.16539 0.13984 0.66469
 C209 C 0.14855 0.14832 0.67299
 C210 C 0.13980 0.16521 0.66473
 C211 C 0.14801 0.17351 0.64787
 C212 C 0.16485 0.16527 0.63937
 C213 C 0.17339 0.14839 0.64783
 H214 H 0.14268 0.14222 0.68633
 H215 H 0.14112 0.18629 0.64120
 H216 H 0.18644 0.14202 0.64142
 C217 C 0.33491 0.64116 0.33614
 C218 C 0.35165 0.64966 0.32768
 C219 C 0.36040 0.66662 0.33581
 C220 C 0.35230 0.67498 0.35272
 C221 C 0.33556 0.66673 0.36138
 C222 C 0.32702 0.64977 0.35303
 H223 H 0.35743 0.64350 0.31431
 H224 H 0.35920 0.68782 0.35930
 H225 H 0.31404 0.64339 0.35957
 C226 C 0.33567 0.13976 0.83692
 C227 C 0.32783 0.14851 0.85376
 C228 C 0.33644 0.16551 0.86198
 C229 C 0.35316 0.17370 0.85320
 C230 C 0.36121 0.16517 0.83635
 C231 C 0.35241 0.14814 0.82838
 H232 H 0.31485 0.14220 0.86035
 H233 H 0.35978 0.18689 0.85936
 H234 H 0.35846 0.14154 0.81534
 C235 C 0.83519 0.63981 0.83599
 C236 C 0.85197 0.64804 0.82738
 C237 C 0.86084 0.66510 0.83519
 C238 C 0.85279 0.67385 0.85194
 C239 C 0.83603 0.66582 0.86078
 C240 C 0.82737 0.64877 0.85273
 H241 H 0.85801 0.64128 0.81440
 H242 H 0.85946 0.68708 0.85798
 H243 H 0.81436 0.64259 0.85937
 C244 C 0.83523 0.13952 0.33595
 C245 C 0.85201 0.14776 0.32735
 C246 C 0.86096 0.16473 0.33527
 C247 C 0.85299 0.17337 0.35210
 C248 C 0.83624 0.16533 0.36094
 C249 C 0.82750 0.14837 0.35279
 H250 H 0.85799 0.14109 0.31430
 H251 H 0.85972 0.18653 0.35823
 H252 H 0.81449 0.14217 0.35944
 C253 C 0.66563 0.36058 0.33546
 C254 C 0.64877 0.35212 0.32720
 C255 C 0.64009 0.33518 0.33543
 C256 C 0.64838 0.32681 0.35221
 C257 C 0.66525 0.33503 0.36066
 C258 C 0.67372 0.35197 0.35224
 H259 H 0.64283 0.35827 0.31391
 H260 H 0.64154 0.31400 0.35886
 H261 H 0.68679 0.35832 0.35862
 C262 C 0.66483 0.86035 0.83458
 C263 C 0.67276 0.85186 0.85148
 C264 C 0.66424 0.83496 0.85994
 C265 C 0.64747 0.82666 0.85137
 C266 C 0.63932 0.83491 0.83446
 C267 C 0.64805 0.85182 0.82622
 H268 H 0.68577 0.85827 0.85794
 H269 H 0.64059 0.81388 0.85803
 H270 H 0.64223 0.85788 0.81284
 C271 C 0.16500 0.35901 0.83618
 C272 C 0.14816 0.35046 0.82796
 C273 C 0.13949 0.33356 0.83628
 C274 C 0.14779 0.32531 0.85311
 C275 C 0.16464 0.33361 0.86154
 C276 C 0.17309 0.35051 0.85302
 H277 H 0.14222 0.35652 0.81463
 H278 H 0.14096 0.31252 0.85984
 H279 H 0.18614 0.35693 0.85937
 C280 C 0.16483 0.85934 0.33521
 C281 C 0.14784 0.85076 0.32733
 C282 C 0.13928 0.83395 0.33590
 C283 C 0.14781 0.82583 0.35267
 C284 C 0.16478 0.83418 0.36079
 C285 C 0.17315 0.85099 0.35200
 H286 H 0.14139 0.85703 0.31433
 H287 H 0.14105 0.81311 0.35959
 H288 H 0.18659 0.85712 0.35781
 O289 O 0.24825 1.01897 0.27466
 O290 O 0.27459 0.98052 0.24695
 O291 O 0.27475 1.01920 0.24749
 O292 O 0.24817 0.98023 0.27416
 O293 O 0.22503 0.98052 0.25181
 O294 O 0.25144 1.01976 0.22532
 O295 O 0.25146 0.98100 0.22460
 O296 O 0.22498 1.01924 0.25244
 Cu297 Cu 0.26376 0.99970 0.26305
 Cu298 Cu 0.23591 1.00016 0.23631
 C299 C 0.23213 1.02574 0.26826
 C300 C 0.26751 0.97413 0.23106
 C301 C 0.26760 1.02624 0.23189
 C302 C 0.23209 0.97362 0.26750
 O303 O 0.22436 0.47983 0.75185
 O304 O 0.25077 0.51856 0.72462
 O305 O 0.25087 0.47984 0.72469
 O306 O 0.22423 0.51862 0.75166
 O307 O 0.24725 0.51859 0.77414
 O308 O 0.27407 0.48007 0.74698
 O309 O 0.27384 0.51880 0.74704
 O310 O 0.24759 0.47991 0.77411
 Cu311 Cu 0.23523 0.49919 0.73597
 Cu312 Cu 0.26301 0.49936 0.76280
 C313 C 0.23151 0.47315 0.76759
 C314 C 0.26678 0.52539 0.73123
 C315 C 0.26701 0.47327 0.73123
 C316 C 0.23121 0.52529 0.76749
 O317 O 0.75110 -0.01994 0.27533
 O318 O 0.72420 0.01877 0.24858
 O319 O 0.72430 -0.02002 0.24846
 O320 O 0.75097 0.01875 0.27543
 O321 O 0.77404 0.01865 0.25300
 O322 O 0.74707 -0.01966 0.22573
 O323 O 0.74727 0.01901 0.22616
 O324 O 0.77385 -0.02012 0.25257
 Cu325 Cu 0.73534 -0.00063 0.26420
 Cu326 Cu 0.76286 -0.00052 0.23711
 C327 C 0.76702 -0.02675 0.26847
 C328 C 0.73121 0.02563 0.23285
 C329 C 0.73113 -0.02650 0.23248
 C330 C 0.76706 0.02538 0.26881
 O331 O 0.74804 0.48004 0.72595
 O332 O 0.77466 0.51859 0.75319
 O333 O 0.77467 0.47984 0.75287
 O334 O 0.74798 0.51874 0.72626
 O335 O 0.72488 0.51852 0.74865
 O336 O 0.75178 0.47987 0.77548
 O337 O 0.75156 0.51856 0.77558
 O338 O 0.72507 0.47977 0.74849
 Cu339 Cu 0.76365 0.49933 0.73732
 Cu340 Cu 0.73601 0.49915 0.76430
 C341 C 0.73205 0.47322 0.73260
 C342 C 0.76762 0.52527 0.76900
 C343 C 0.76777 0.47315 0.76871
 C344 C 0.73189 0.52534 0.73291
 O345 O 0.25157 0.48114 0.27534
 O346 O 0.22505 0.51984 0.24823
 O347 O 0.22505 0.48111 0.24822
 O348 O 0.25159 0.51989 0.27531
 O349 O 0.27474 0.51985 0.25296
 O350 O 0.24823 0.48106 0.22590
 O351 O 0.24820 0.51979 0.22589
 O352 O 0.27474 0.48110 0.25301
 Cu353 Cu 0.23600 0.50050 0.26401
 Cu354 Cu 0.26380 0.50044 0.23720
 C355 C 0.26765 0.47442 0.26878
 C356 C 0.23212 0.52651 0.23245
 C357 C 0.23214 0.47438 0.23246
 C358 C 0.26767 0.52658 0.26873
 O359 O 0.72526 0.98140 0.75127
 O360 O 0.75222 1.01991 0.72430
 O361 O 0.75189 0.98123 0.72428
 O362 O 0.72548 1.02019 0.75121
 O363 O 0.74830 1.01979 0.77389
 O364 O 0.77503 0.98126 0.74663
 O365 O 0.77504 1.02003 0.74698
 O366 O 0.74839 0.98111 0.77362
 Cu367 Cu 0.73640 1.00070 0.73552
 Cu368 Cu 0.76400 1.00054 0.76253
 C369 C 0.73228 0.97455 0.76700
 C370 C 0.76819 1.02665 0.73109
 C371 C 0.76797 0.97454 0.73085
 C372 C 0.73237 1.02668 0.76715
 O373 O 0.74816 0.52035 0.27378
 O374 O 0.77477 0.48173 0.24656
 O375 O 0.77463 0.52045 0.24662
 O376 O 0.74836 0.48163 0.27377
 O377 O 0.72512 0.48152 0.25151
 O378 O 0.75143 0.52035 0.22435
 O379 O 0.75154 0.48162 0.22430
 O380 O 0.72495 0.52026 0.25150
 Cu381 Cu 0.76380 0.50105 0.26241
 Cu382 Cu 0.73593 0.50093 0.23568
 C383 C 0.73203 0.52698 0.26727
 C384 C 0.76767 0.47499 0.23081
 C385 C 0.76750 0.52711 0.23087
 C386 C 0.73228 0.47486 0.26726
 O387 O 0.22570 0.01898 0.74833
 O388 O 0.25252 -0.01960 0.77537
 O389 O 0.25224 0.01906 0.77540
 O390 O 0.22586 -0.01980 0.74840
 O391 O 0.24874 -0.01950 0.72578
 O392 O 0.27544 0.01900 0.75310
 O393 O 0.27540 -0.01977 0.75275
 O394 O 0.24889 0.01918 0.72603
 Cu395 Cu 0.23676 -0.00035 0.76411
 Cu396 Cu 0.26444 -0.00026 0.73717
 C397 C 0.23277 0.02579 0.73261
 C398 C 0.26850 -0.02638 0.76862
 C399 C 0.26835 0.02572 0.76888
 C400 C 0.23278 -0.02634 0.73249
 O401 O 0.22537 0.25128 1.01962
 O402 O 0.25300 0.22473 0.98165
 O403 O 0.25280 0.22455 1.01956
 O404 O 0.22538 0.25130 0.98169
 O405 O 0.24765 0.27501 0.98178
 O406 O 0.27507 0.24826 1.01969
 O407 O 0.27526 0.24845 0.98179
 O408 O 0.24764 0.27500 1.01971
 Cu409 Cu 0.23690 0.23559 1.00061
 Cu410 Cu 0.26363 0.26406 1.00076
 C411 C 0.23184 0.26764 1.02626
 C412 C 0.26882 0.23209 0.97514
 C413 C 0.26858 0.23188 1.02620
 C414 C 0.23187 0.26767 0.97516
 O415 O 0.24749 0.77610 0.48158
 O416 O 0.27478 0.74940 0.51960
 O417 O 0.27495 0.74938 0.48169
 O418 O 0.24717 0.77599 0.51952
 O419 O 0.22493 0.75225 0.51935
 O420 O 0.25266 0.72569 0.48151
 O421 O 0.25253 0.72568 0.51941
 O422 O 0.22521 0.75240 0.48143
 Cu423 Cu 0.26333 0.76510 0.50062
 Cu424 Cu 0.23660 0.73664 0.50041
 C425 C 0.23174 0.76876 0.47489
 C426 C 0.26829 0.73302 0.52609
 C427 C 0.26850 0.73303 0.47503
 C428 C 0.23135 0.76861 0.52600
 O429 O 0.27473 0.75047 -0.01943
 O430 O 0.24727 0.72405 0.01866
 O431 O 0.24718 0.72387 -0.01926
 O432 O 0.27489 0.75060 0.01848
 O433 O 0.25266 0.77436 0.01850
 O434 O 0.22497 0.74765 -0.01926
 O435 O 0.22504 0.74781 0.01864
 O436 O 0.25250 0.77424 -0.01940
 Cu437 Cu 0.26324 0.73486 -0.00038
 Cu438 Cu 0.23656 0.76340 -0.00037
 C439 C 0.26825 0.76682 -0.02603
 C440 C 0.23150 0.73146 0.02525
 C441 C 0.23140 0.73125 -0.02583
 C442 C 0.26847 0.76701 0.02503
 O443 O 0.24737 0.22421 0.51899
 O444 O 0.27469 0.25093 0.48102
 O445 O 0.27498 0.25074 0.51892
 O446 O 0.24707 0.22438 0.48108
 O447 O 0.22488 0.24817 0.48135
 O448 O 0.25278 0.27454 0.51920
 O449 O 0.25249 0.27472 0.48130
 O450 O 0.22516 0.24800 0.51926
 Cu451 Cu 0.26325 0.23518 0.49997
 Cu452 Cu 0.23661 0.26374 0.50031
 C453 C 0.23164 0.23158 0.52572
 C454 C 0.26823 0.26736 0.47458
 C455 C 0.26861 0.26711 0.52563
 C456 C 0.23125 0.23181 0.47466
 O457 O 0.74715 0.77634 0.98015
 O458 O 0.77481 0.74961 1.01788
 O459 O 0.77477 0.74977 0.97998
 O460 O 0.74722 0.77617 1.01810
 O461 O 0.72502 0.75239 1.01801
 O462 O 0.75257 0.72600 0.97992
 O463 O 0.75260 0.72584 1.01780
 O464 O 0.72494 0.75257 0.98008
 Cu465 Cu 0.76320 0.76537 0.99903
 Cu466 Cu 0.73655 0.73682 0.99894
 C467 C 0.73136 0.76897 0.97356
 C468 C 0.76839 0.73320 1.02439
 C469 C 0.76835 0.73340 0.97336
 C470 C 0.73148 0.76872 1.02469
 O471 O 0.75344 0.22533 0.48058
 O472 O 0.72567 0.25200 0.51830
 O473 O 0.72595 0.25202 0.48041
 O474 O 0.75324 0.22543 0.51850
 O475 O 0.77550 0.24915 0.51862
 O476 O 0.74821 0.27574 0.48054
 O477 O 0.74792 0.27573 0.51845
 O478 O 0.77571 0.24904 0.48068
 Cu479 Cu 0.73735 0.23632 0.49942
 Cu480 Cu 0.76407 0.26479 0.49958
 C481 C 0.76927 0.23266 0.47408
 C482 C 0.73209 0.26837 0.52493
 C483 C 0.73245 0.26839 0.47388
 C484 C 0.76898 0.23281 0.52518
 O485 O 0.77537 0.25098 -0.01849
 O486 O 0.74804 0.22424 0.01943
 O487 O 0.74793 0.22428 -0.01849
 O488 O 0.77554 0.25090 0.01940
 O489 O 0.75321 0.27457 0.01956
 O490 O 0.72561 0.24795 -0.01834
 O491 O 0.72569 0.24789 0.01959
 O492 O 0.75305 0.27466 -0.01835
 Cu493 Cu 0.76395 0.23523 0.00045
 Cu494 Cu 0.73715 0.26364 0.00064
 C495 C 0.76883 0.26734 -0.02501
 C496 C 0.73225 0.23153 0.02609
 C497 C 0.73211 0.23163 -0.02501
 C498 C 0.76906 0.26725 0.02604
 O499 O 0.77438 0.75084 0.48114
 O500 O 0.74731 0.72408 0.51920
 O501 O 0.74690 0.72419 0.48129
 O502 O 0.77475 0.75078 0.51903
 O503 O 0.75242 0.77445 0.51933
 O504 O 0.72457 0.74786 0.48162
 O505 O 0.72496 0.74772 0.51953
 O506 O 0.75206 0.77452 0.48141
 Cu507 Cu 0.76307 0.73510 0.50014
 Cu508 Cu 0.73627 0.76351 0.50051
 C509 C 0.76781 0.76720 0.47466
 C510 C 0.73155 0.73135 0.52596
 C511 C 0.73102 0.73153 0.47490
 C512 C 0.76831 0.76713 0.52572
 O513 O 1.01935 0.27536 0.24819
 O514 O 0.98094 0.24827 0.27480
 O515 O 1.01909 0.24817 0.27496
 O516 O 0.98112 0.27551 0.24802
 O517 O 0.98104 0.25221 0.22545
 O518 O 1.01921 0.22502 0.25225
 O519 O 0.98103 0.22500 0.25220
 O520 O 1.01916 0.25224 0.22544
 Cu521 Cu 1.00012 0.26416 0.26375
 Cu522 Cu 1.00012 0.23629 0.23658
 C523 C 1.02588 0.26839 0.23229
 C524 C 0.97435 0.23202 0.26802
 C525 C 1.02575 0.23197 0.26815
 C526 C 0.97448 0.26849 0.23219
 O527 O 0.51940 0.27490 0.74780
 O528 O 0.48123 0.24815 0.77507
 O529 O 0.51938 0.24818 0.77504
 O530 O 0.48122 0.27492 0.74788
 O531 O 0.48119 0.25133 0.72562
 O532 O 0.51940 0.22454 0.75282
 O533 O 0.48122 0.22455 0.75281
 O534 O 0.51935 0.25127 0.72557
 Cu535 Cu 0.50031 0.26391 0.76367
 Cu536 Cu 0.50029 0.23555 0.73698
 C537 C 0.52598 0.26761 0.73205
 C538 C 0.47461 0.23181 0.76855
 C539 C 0.52601 0.23183 0.76855
 C540 C 0.47458 0.26767 0.73216
 O541 O -0.01906 0.27460 0.75277
 O542 O 0.01924 0.24785 0.72566
 O543 O -0.01888 0.24781 0.72546
 O544 O 0.01914 0.27458 0.75292
 O545 O 0.01910 0.25089 0.77504
 O546 O -0.01914 0.22428 0.74775
 O547 O 0.01908 0.22415 0.74777
 O548 O -0.01905 0.25102 0.77501
 Cu549 Cu 0.00011 0.26358 0.73699
 Cu550 Cu -0.00001 0.23521 0.76361
 C551 C -0.02567 0.26735 0.76851
 C552 C 0.02579 0.23146 0.73212
 C553 C -0.02560 0.23152 0.73196
 C554 C 0.02573 0.26725 0.76862
 O555 O 0.48108 0.27635 0.25268
 O556 O 0.51921 0.24963 0.22528
 O557 O 0.48104 0.24961 0.22540
 O558 O 0.51928 0.27639 0.25255
 O559 O 0.51935 0.25274 0.27472
 O560 O 0.48113 0.22597 0.24758
 O561 O 0.51930 0.22599 0.24745
 O562 O 0.48119 0.25270 0.27484
 Cu563 Cu 0.50015 0.26537 0.23676
 Cu564 Cu 0.50025 0.23699 0.26337
 C565 C 0.47451 0.26904 0.26840
 C566 C 0.52587 0.23328 0.23173
 C567 C 0.47445 0.23326 0.23189
 C568 C 0.52594 0.26909 0.26824
 O569 O 0.98110 0.75152 0.72471
 O570 O 1.01919 0.72454 0.75190
 O571 O 0.98101 0.72454 0.75172
 O572 O 1.01931 0.75147 0.72485
 O573 O 1.01903 0.77504 0.74714
 O574 O 0.98098 0.74793 0.77419
 O575 O 1.01914 0.74808 0.77421
 O576 O 0.98091 0.77488 0.74721
 Cu577 Cu 1.00016 0.73567 0.73604
 Cu578 Cu 1.00002 0.76383 0.76293
 C579 C 0.97439 0.76777 0.73137
 C580 C 1.02576 0.73176 0.76767
 C581 C 0.97438 0.73165 0.76751
 C582 C 1.02577 0.76785 0.73142
 O583 O 0.48053 0.75218 0.22474
 O584 O 0.51879 0.72534 0.25182
 O585 O 0.48057 0.72540 0.25193
 O586 O 0.51866 0.75217 0.22459
 O587 O 0.51893 0.77564 0.24699
 O588 O 0.48062 0.74905 0.27414
 O589 O 0.51875 0.74888 0.27414
 O590 O 0.48073 0.77582 0.24695
 Cu591 Cu 0.49964 0.73640 0.23604
 Cu592 Cu 0.49977 0.76472 0.26278
 C593 C 0.47402 0.76856 0.23125
 C594 C 0.52538 0.73256 0.26758
 C595 C 0.47397 0.73272 0.26766
 C596 C 0.52541 0.76844 0.23117
 O597 O -0.01956 0.72483 0.24751
 O598 O 0.01858 0.75131 0.27508
 O599 O -0.01957 0.75140 0.27496
 O600 O 0.01864 0.72474 0.24765
 O601 O 0.01874 0.74852 0.22562
 O602 O -0.01947 0.77518 0.25294
 O603 O 0.01870 0.77509 0.25305
 O604 O -0.01942 0.74862 0.22550
 Cu605 Cu -0.00049 0.73568 0.26351
 Cu606 Cu -0.00035 0.76423 0.23707
 C607 C -0.02610 0.73224 0.23183
 C608 C 0.02525 0.76769 0.26873
 C609 C -0.02614 0.76780 0.26859
 C610 C 0.02532 0.73212 0.23200
 O611 O 0.48048 0.77513 0.75186
 O612 O 0.51861 0.74824 0.72463
 O613 O 0.48044 0.74810 0.72486
 O614 O 0.51870 0.77527 0.75165
 O615 O 0.51898 0.75178 0.77398
 O616 O 0.48057 0.72479 0.74735
 O617 O 0.51876 0.72478 0.74698
 O618 O 0.48088 0.75183 0.77438
 Cu619 Cu 0.49954 0.76403 0.73600
 Cu620 Cu 0.49981 0.73594 0.76291
 C621 C 0.47411 0.76805 0.76776
 C622 C 0.52529 0.73196 0.73119
 C623 C 0.47386 0.73185 0.73159
 C624 C 0.52548 0.76810 0.76735
 C625 C 0.41048 0.30769 0.30862
 C626 C 0.40912 0.32846 0.31028
 C627 C 0.39293 0.33725 0.31930
 C628 C 0.37777 0.32544 0.32685
 C629 C 0.37916 0.30468 0.32521
 C630 C 0.39533 0.29591 0.31621
 C631 C 0.42746 0.29828 0.29875
 C632 C 0.43577 0.28075 0.30615
 C633 C 0.45123 0.27143 0.29645
 C634 C 0.45874 0.27943 0.27913
 C635 C 0.45066 0.29715 0.27190
 C636 C 0.43519 0.30647 0.28160
 H637 H 0.39238 0.35327 0.32056
 H638 H 0.36755 0.29520 0.33056
 H639 H 0.45718 0.25785 0.30246
 H640 H 0.45608 0.30368 0.25857
 H641 H 0.39576 0.27989 0.31484
 H642 H 0.43034 0.27424 0.31948
 H643 H 0.42068 0.33792 0.30480
 H644 H 0.42897 0.31984 0.27542
 C645 C 0.41067 0.80721 0.80850
 C646 C 0.40746 0.82777 0.80721
 C647 C 0.39125 0.83654 0.81618
 C648 C 0.37773 0.82502 0.82689
 C649 C 0.38128 0.80438 0.82832
 C650 C 0.39741 0.79566 0.81921
 C651 C 0.42751 0.79773 0.79841
 C652 C 0.43760 0.78179 0.80701
 C653 C 0.45285 0.77230 0.79715
 C654 C 0.45847 0.77861 0.77851
 C655 C 0.44868 0.79479 0.77005
 C656 C 0.43334 0.80421 0.77986
 H657 H 0.38987 0.85251 0.81521
 H658 H 0.37113 0.79457 0.83559
 H659 H 0.46020 0.75996 0.80413
 H660 H 0.45260 0.79996 0.75567
 H661 H 0.39916 0.77970 0.82012
 H662 H 0.43373 0.77665 0.82141
 H663 H 0.41765 0.83718 0.79945
 H664 H 0.42572 0.81625 0.77269
 C665 C -0.08938 0.30653 0.80873
 C666 C -0.09055 0.32731 0.81046
 C667 C -0.10666 0.33622 0.81948
 C668 C -0.12196 0.32455 0.82695
 C669 C -0.12076 0.30378 0.82526
 C670 C -0.10466 0.29487 0.81626
 C671 C -0.07249 0.29697 0.79885
 C672 C -0.06435 0.27935 0.80622
 C673 C -0.04898 0.26989 0.79652
 C674 C -0.04139 0.27785 0.77921
 C675 C -0.04931 0.29565 0.77199
 C676 C -0.06469 0.30511 0.78172
 H677 H -0.10707 0.35225 0.82078
 H678 H -0.13247 0.29439 0.83054
 H679 H -0.04316 0.25625 0.80252
 H680 H -0.04382 0.30215 0.75868
 H681 H -0.10438 0.27886 0.81484
 H682 H -0.06985 0.27287 0.81955
 H683 H -0.07888 0.33667 0.80502
 H684 H -0.07079 0.31855 0.77555
 C685 C -0.09002 0.80671 0.30882
 C686 C -0.09124 0.82748 0.31060
 C687 C -0.10742 0.83634 0.31955
 C688 C -0.12274 0.82462 0.32690
 C689 C -0.12148 0.80385 0.32517
 C690 C -0.10532 0.79500 0.31625
 C691 C -0.07308 0.79723 0.29896
 C692 C -0.06495 0.77956 0.30627
 C693 C -0.04954 0.77017 0.29656
 C694 C -0.04189 0.77823 0.27932
 C695 C -0.04980 0.79607 0.27218
 C696 C -0.06521 0.80547 0.28190
 H697 H -0.10788 0.85237 0.32088
 H698 H -0.13321 0.79443 0.33037
 H699 H -0.04373 0.75650 0.30250
 H700 H -0.04427 0.80266 0.25892
 H701 H -0.10500 0.77899 0.31478
 H702 H -0.07049 0.77300 0.31954
 H703 H -0.07957 0.83688 0.30525
 H704 H -0.07130 0.81894 0.27579
 C705 C 0.58902 0.69342 0.30786
 C706 C 0.59030 0.67262 0.30930
 C707 C 0.60635 0.66370 0.31840
 C708 C 0.62146 0.67538 0.32626
 C709 C 0.62014 0.69617 0.32486
 C710 C 0.60411 0.70507 0.31577
 C711 C 0.57217 0.70297 0.29793
 C712 C 0.56384 0.72046 0.30545
 C713 C 0.54849 0.72990 0.29573
 C714 C 0.54110 0.72207 0.27827
 C715 C 0.54921 0.70441 0.27090
 C716 C 0.56458 0.69496 0.28062
 H717 H 0.60685 0.64766 0.31947
 H718 H 0.63171 0.70556 0.33046
 H719 H 0.54251 0.74343 0.30186
 H720 H 0.54388 0.69801 0.25746
 H721 H 0.60374 0.72111 0.31459
 H722 H 0.56917 0.72683 0.31890
 H723 H 0.57878 0.66325 0.30357
 H724 H 0.57083 0.68164 0.27435
 C725 C 0.58976 0.19284 0.80881
 C726 C 0.59097 0.17207 0.81049
 C727 C 0.60711 0.16319 0.81947
 C728 C 0.62239 0.17490 0.82696
 C729 C 0.62112 0.19567 0.82535
 C730 C 0.60500 0.20454 0.81638
 C731 C 0.57286 0.20235 0.79892
 C732 C 0.56466 0.21996 0.80630
 C733 C 0.54928 0.22936 0.79659
 C734 C 0.54174 0.22137 0.77926
 C735 C 0.54971 0.20358 0.77204
 C736 C 0.56510 0.19417 0.78176
 H737 H 0.60757 0.14716 0.82072
 H738 H 0.63282 0.20509 0.83065
 H739 H 0.54342 0.24300 0.80260
 H740 H 0.54426 0.19706 0.75870
 H741 H 0.60467 0.22056 0.81501
 H742 H 0.57013 0.22647 0.81964
 H743 H 0.57934 0.16268 0.80502
 H744 H 0.57124 0.18074 0.77559
 C745 C 1.08925 0.69242 0.80799
 C746 C 1.09031 0.67164 0.80972
 C747 C 1.10636 0.66266 0.81878
 C748 C 1.12170 0.67428 0.82628
 C749 C 1.12059 0.69506 0.82459
 C750 C 1.10456 0.70401 0.81556
 C751 C 1.07243 0.70203 0.79807
 C752 C 1.06433 0.71969 0.80544
 C753 C 1.04902 0.72918 0.79571
 C754 C 1.04145 0.72124 0.77838
 C755 C 1.04934 0.70340 0.77116
 C756 C 1.06465 0.69390 0.78090
 H757 H 1.10669 0.64664 0.82007
 H758 H 1.13234 0.70440 0.82990
 H759 H 1.04322 0.74285 0.80172
 H760 H 1.04386 0.69690 0.75782
 H761 H 1.10436 0.72003 0.81414
 H762 H 1.06982 0.72616 0.81879
 H763 H 1.07862 0.66232 0.80425
 H764 H 1.07072 0.68043 0.77475
 C765 C 1.08919 0.19182 0.30778
 C766 C 1.08981 0.19006 0.32813
 C767 C 1.10583 0.18115 0.33727
 C768 C 1.12160 0.17382 0.32627
 C769 C 1.12093 0.17551 0.30592
 C770 C 1.10492 0.18439 0.29678
 C771 C 1.07242 0.20168 0.29802
 C772 C 1.06478 0.19401 0.28059
 C773 C 1.04945 0.20368 0.27104
 C774 C 1.04144 0.22127 0.27868
 C775 C 1.04890 0.22879 0.29626
 C776 C 1.06420 0.21909 0.30583
 H777 H 1.10580 0.17981 0.35296
 H778 H 1.13301 0.17033 0.29706
 H779 H 1.04400 0.19746 0.25756
 H780 H 1.04307 0.24232 0.30252
 H781 H 1.10504 0.18583 0.28111
 H782 H 1.07062 0.18047 0.27436
 H783 H 1.07779 0.19540 0.33697
 H784 H 1.06992 0.22548 0.31911
 C785 C 0.58960 0.30659 0.69160
 C786 C 0.59085 0.32738 0.69009
 C787 C 0.60691 0.33629 0.68100
 C788 C 0.62207 0.32460 0.67322
 C789 C 0.62076 0.30382 0.67467
 C790 C 0.60473 0.29492 0.68374
 C791 C 0.57277 0.29706 0.70157
 C792 C 0.56446 0.27953 0.69413
 C793 C 0.54911 0.27013 0.70389
 C794 C 0.54170 0.27804 0.72132
 C795 C 0.54980 0.29574 0.72861
 C796 C 0.56516 0.30515 0.71884
 H797 H 0.60739 0.35233 0.67989
 H798 H 0.63237 0.29443 0.66913
 H799 H 0.54315 0.25657 0.69783
 H800 H 0.54446 0.30220 0.74202
 H801 H 0.60437 0.27889 0.68498
 H802 H 0.56980 0.27310 0.68071
 H803 H 0.57930 0.33676 0.69576
 H804 H 0.57139 0.31850 0.72506
 C805 C 0.58896 0.80754 0.19061
 C806 C 0.59216 0.82809 0.19206
 C807 C 0.60838 0.83691 0.18320
 C808 C 0.62193 0.82546 0.17242
 C809 C 0.61836 0.80484 0.17079
 C810 C 0.60223 0.79606 0.17980
 C811 C 0.57213 0.79801 0.20067
 C812 C 0.56207 0.78206 0.19203
 C813 C 0.54679 0.77258 0.20184
 C814 C 0.54112 0.77891 0.22048
 C815 C 0.55091 0.79508 0.22899
 C816 C 0.56628 0.80447 0.21923
 H817 H 0.60977 0.85288 0.18431
 H818 H 0.62853 0.79507 0.16342
 H819 H 0.53945 0.76025 0.19483
 H820 H 0.54696 0.80026 0.24337
 H821 H 0.60048 0.78011 0.17876
 H822 H 0.56596 0.77692 0.17762
 H823 H 0.58196 0.83746 0.19989
 H824 H 0.57388 0.81651 0.22645
 C825 C 1.08984 0.30757 0.19246
 C826 C 1.10297 0.29609 0.18149
 C827 C 1.11909 0.30483 0.17243
 C828 C 1.12279 0.32542 0.17415
 C829 C 1.10945 0.33685 0.18521
 C830 C 1.09324 0.32807 0.19413
 C831 C 1.07289 0.29809 0.20236
 C832 C 1.06705 0.30432 0.22100
 C833 C 1.05157 0.29492 0.23058
 C834 C 1.04166 0.27898 0.22179
 C835 C 1.04730 0.27291 0.20307
 C836 C 1.06268 0.28240 0.19344
 H837 H 1.12912 0.29505 0.16490
 H838 H 1.11095 0.35280 0.18646
 H839 H 1.04764 0.29989 0.24504
 H840 H 1.03986 0.26077 0.19584
 H841 H 1.08317 0.33744 0.20212
 H842 H 1.07476 0.31616 0.22841
 H843 H 1.10109 0.28016 0.18031
 H844 H 1.06655 0.27746 0.17896
 C845 C 1.08920 0.80823 0.69192
 C846 C 1.10292 0.81889 0.70295
 C847 C 1.11899 0.82793 0.69408
 C848 C 1.12201 0.82651 0.67379
 C849 C 1.10804 0.81582 0.66281
 C850 C 1.09190 0.80689 0.67174
 C851 C 1.07240 0.79822 0.70154
 C852 C 1.06615 0.77934 0.69535
 C853 C 1.05083 0.76962 0.70486
 C854 C 1.04145 0.77850 0.72084
 C855 C 1.04750 0.79748 0.72688
 C856 C 1.06276 0.80724 0.71731
 H857 H 1.12953 0.83508 0.70350
 H858 H 1.10901 0.81485 0.64715
 H859 H 1.04656 0.75497 0.69989
 H860 H 1.04049 0.80478 0.73906
 H861 H 1.08136 0.79915 0.66275
 H862 H 1.07343 0.77185 0.68343
 H863 H 1.10156 0.81979 0.71861
 H864 H 1.06697 0.82191 0.72225
 C865 C 0.40996 0.69190 0.69243
 C866 C 0.40914 0.69019 0.67208
 C867 C 0.39302 0.68131 0.66306
 C868 C 0.37735 0.67398 0.67418
 C869 C 0.37823 0.67561 0.69453
 C870 C 0.39435 0.68446 0.70355
 C871 C 0.42684 0.70172 0.70205
 C872 C 0.43468 0.69398 0.71935
 C873 C 0.45011 0.70360 0.72878
 C874 C 0.45805 0.72121 0.72115
 C875 C 0.45039 0.72881 0.70371
 C876 C 0.43498 0.71916 0.69425
 H877 H 0.39289 0.68002 0.64737
 H878 H 0.36624 0.67044 0.70349
 H879 H 0.45571 0.69732 0.74215
 H880 H 0.45615 0.74236 0.69746
 H881 H 0.39439 0.68586 0.71923
 H882 H 0.42890 0.68043 0.72556
 H883 H 0.42106 0.69554 0.66314
 H884 H 0.42911 0.72561 0.68107
 C885 C 0.41047 0.19408 0.19215
 C886 C 0.40941 0.17330 0.19043
 C887 C 0.39323 0.16430 0.18164
 C888 C 0.37776 0.17590 0.17439
 C889 C 0.37889 0.19668 0.17600
 C890 C 0.39505 0.20567 0.18478
 C891 C 0.42741 0.20369 0.20189
 C892 C 0.43542 0.22136 0.19450
 C893 C 0.45088 0.23081 0.20408
 C894 C 0.45866 0.22279 0.22128
 C895 C 0.45084 0.20496 0.22851
 C896 C 0.43540 0.19551 0.21892
 H897 H 0.39290 0.14827 0.18033
 H898 H 0.36706 0.20598 0.17082
 H899 H 0.45661 0.24449 0.19808
 H900 H 0.45648 0.19841 0.24175
 H901 H 0.39528 0.22169 0.18618
 H902 H 0.42977 0.22788 0.18126
 H903 H 0.42119 0.16400 0.19572
 H904 H 0.42939 0.18204 0.22511
 C905 C -0.08982 0.69364 0.19111
 C906 C -0.10492 0.70539 0.18338
 C907 C -0.12099 0.69659 0.17425
 C908 C -0.12234 0.67582 0.17263
 C909 C -0.10721 0.66405 0.18031
 C910 C -0.09112 0.67286 0.18945
 C911 C -0.07295 0.70307 0.20114
 C912 C -0.06534 0.69486 0.21832
 C913 C -0.04995 0.70417 0.22815
 C914 C -0.04183 0.72190 0.22101
 C915 C -0.04924 0.72994 0.20365
 C916 C -0.06461 0.72063 0.19383
 H917 H -0.13257 0.70605 0.16880
 H918 H -0.10772 0.64802 0.17906
 H919 H -0.04462 0.69761 0.24150
 H920 H -0.04325 0.74354 0.19770
 H921 H -0.07959 0.66342 0.19503
 H922 H -0.07159 0.68147 0.22444
 H923 H -0.10453 0.72141 0.18474
 H924 H -0.06995 0.72716 0.18047
 C925 C -0.08913 0.19261 0.69114
 C926 C -0.10235 0.20418 0.68039
 C927 C -0.11847 0.19548 0.67127
 C928 C -0.12207 0.17485 0.67273
 C929 C -0.10859 0.16332 0.68347
 C930 C -0.09237 0.17206 0.69244
 C931 C -0.07228 0.20206 0.70126
 C932 C -0.06647 0.19552 0.71979
 C933 C -0.05111 0.20487 0.72961
 C934 C -0.04128 0.22106 0.72119
 C935 C -0.04691 0.22745 0.70258
 C936 C -0.06218 0.21801 0.69270
 H937 H -0.12860 0.20531 0.66396
 H938 H -0.11001 0.14735 0.68446
 H939 H -0.04718 0.19965 0.74398
 H940 H -0.03955 0.23979 0.69563
 H941 H -0.08221 0.16263 0.70023
 H942 H -0.07410 0.18348 0.72694
 H943 H -0.10057 0.22013 0.67947
 H944 H -0.06604 0.22320 0.67831
 C945 C 0.30688 0.41022 0.30903
 C946 C 0.32736 0.40940 0.31073
 C947 C 0.33643 0.39321 0.31973
 C948 C 0.32520 0.37748 0.32723
 C949 C 0.30471 0.37836 0.32561
 C950 C 0.29566 0.39454 0.31663
 C951 C 0.29720 0.42716 0.29910
 C952 C 0.27972 0.43522 0.30645
 C953 C 0.27026 0.45071 0.29674
 C954 C 0.27806 0.45851 0.27945
 C955 C 0.29569 0.45064 0.27224
 C956 C 0.30516 0.43515 0.28196
 H957 H 0.35222 0.39307 0.32099
 H958 H 0.29568 0.36632 0.33091
 H959 H 0.25674 0.45649 0.30273
 H960 H 0.30207 0.45628 0.25894
 H961 H 0.27987 0.39456 0.31524
 H962 H 0.27337 0.42957 0.31976
 H963 H 0.33639 0.42138 0.30527
 H964 H 0.31848 0.42911 0.27581
 C965 C 0.30791 -0.09052 0.80887
 C966 C 0.32823 -0.09332 0.80761
 C967 C 0.33718 -0.10963 0.81649
 C968 C 0.32610 -0.12366 0.82709
 C969 C 0.30569 -0.12050 0.82850
 C970 C 0.29679 -0.10427 0.81948
 C971 C 0.29826 -0.07356 0.79887
 C972 C 0.28236 -0.06366 0.80752
 C973 C 0.27280 -0.04825 0.79778
 C974 C 0.27901 -0.04228 0.77921
 C975 C 0.29511 -0.05192 0.77068
 C976 C 0.30459 -0.06742 0.78037
 H977 H 0.35295 -0.11068 0.81555
 H978 H 0.29621 -0.13105 0.83568
 H979 H 0.26052 -0.04102 0.80480
 H980 H 0.30020 -0.04774 0.75635
 H981 H 0.28103 -0.10283 0.82037
 H982 H 0.27731 -0.06778 0.82188
 H983 H 0.33731 -0.08274 0.79992
 H984 H 0.31660 -0.07490 0.77316
 C985 C 0.80742 0.40905 0.80878
 C986 C 0.82770 0.40612 0.80719
 C987 C 0.83674 0.38989 0.81613
 C988 C 0.82579 0.37608 0.82713
 C989 C 0.80542 0.37933 0.82882
 C990 C 0.79642 0.39547 0.81973
 C991 C 0.79769 0.42596 0.79879
 C992 C 0.78194 0.43599 0.80760
 C993 C 0.77233 0.45140 0.79791
 C994 C 0.77832 0.45724 0.77923
 C995 C 0.79426 0.44746 0.77054
 C996 C 0.80378 0.43196 0.78018
 H997 H 0.85249 0.38876 0.81492
 H998 H 0.79603 0.36892 0.83630
 H999 H 0.76019 0.45873 0.80506
 H1000 H 0.79917 0.45154 0.75612
 H1001 H 0.78069 0.39699 0.82087
 H1002 H 0.77709 0.43199 0.82206
 H1003 H 0.83670 0.41656 0.79923
 H1004 H 0.81565 0.42438 0.77284
 C1005 C 0.80657 -0.09099 0.30843
 C1006 C 0.82686 -0.09391 0.30689
 C1007 C 0.83587 -0.11014 0.31585
 C1008 C 0.82490 -0.12396 0.32681
 C1009 C 0.80452 -0.12073 0.32842
 C1010 C 0.79554 -0.10459 0.31932
 C1011 C 0.79686 -0.07405 0.29846
 C1012 C 0.78113 -0.06401 0.30728
 C1013 C 0.77155 -0.04857 0.29762
 C1014 C 0.77755 -0.04270 0.27895
 C1015 C 0.79347 -0.05249 0.27024
 C1016 C 0.80297 -0.06802 0.27986
 H1017 H 0.85162 -0.11125 0.31470
 H1018 H 0.79510 -0.13116 0.33586
 H1019 H 0.75941 -0.04124 0.30478
 H1020 H 0.79839 -0.04838 0.25583
 H1021 H 0.77980 -0.10308 0.32041
 H1022 H 0.77626 -0.06804 0.32173
 H1023 H 0.83587 -0.08345 0.29897
 H1024 H 0.81484 -0.07561 0.27251
 C1025 C 0.30608 0.58949 0.69090
 C1026 C 0.32657 0.59018 0.68916
 C1027 C 0.33571 0.60637 0.68026
 C1028 C 0.32457 0.62223 0.67291
 C1029 C 0.30408 0.62145 0.67450
 C1030 C 0.29494 0.60526 0.68338
 C1031 C 0.29635 0.57259 0.70086
 C1032 C 0.27882 0.56462 0.69356
 C1033 C 0.26934 0.54914 0.70329
 C1034 C 0.27717 0.54131 0.72055
 C1035 C 0.29483 0.54913 0.72772
 C1036 C 0.30432 0.56459 0.71798
 H1037 H 0.35151 0.60642 0.67900
 H1038 H 0.29511 0.63358 0.66928
 H1039 H 0.25579 0.54341 0.69734
 H1040 H 0.30124 0.54346 0.74100
 H1041 H 0.27915 0.60532 0.68478
 H1042 H 0.27246 0.57029 0.68027
 H1043 H 0.33553 0.57812 0.69456
 H1044 H 0.31767 0.57057 0.72410
 C1045 C 0.30753 1.09078 0.19277
 C1046 C 0.31847 1.10439 0.20377
 C1047 C 0.32760 1.12058 0.19490
 C1048 C 0.32600 1.12383 0.17467
 C1049 C 0.31499 1.11000 0.16373
 C1050 C 0.30598 1.09373 0.17264
 C1051 C 0.29756 1.07377 0.20236
 C1052 C 0.27882 1.06771 0.19634
 C1053 C 0.26921 1.05210 0.20575
 C1054 C 0.27807 1.04226 0.22146
 C1055 C 0.29689 1.04816 0.22735
 C1056 C 0.30654 1.06369 0.21788
 H1057 H 0.33506 1.13101 0.20430
 H1058 H 0.31384 1.11112 0.14809
 H1059 H 0.25469 1.04797 0.20090
 H1060 H 0.30417 1.04080 0.23933
 H1061 H 0.29802 1.08327 0.16366
 H1062 H 0.27137 1.07532 0.18463
 H1063 H 0.31957 1.10285 0.21939
 H1064 H 0.32109 1.06774 0.22267
 C1065 C 0.80673 0.59116 0.19041
 C1066 C 0.82723 0.59195 0.18877
 C1067 C 0.83633 0.60808 0.17973
 C1068 C 0.82515 0.62378 0.17213
 C1069 C 0.80465 0.62293 0.17367
 C1070 C 0.79555 0.60681 0.18270
 C1071 C 0.79702 0.57429 0.20042
 C1072 C 0.77954 0.56621 0.19309
 C1073 C 0.77008 0.55076 0.20285
 C1074 C 0.77787 0.54303 0.22017
 C1075 C 0.79548 0.55094 0.22738
 C1076 C 0.80495 0.56639 0.21760
 H1077 H 0.85214 0.60820 0.17853
 H1078 H 0.79565 0.63496 0.16827
 H1079 H 0.75658 0.54495 0.19687
 H1080 H 0.80185 0.54535 0.24070
 H1081 H 0.77976 0.60681 0.18403
 H1082 H 0.77322 0.57179 0.17974
 H1083 H 0.83622 0.57999 0.19432
 H1084 H 0.81826 0.57245 0.22375
 C1085 C 0.80786 1.09065 0.69088
 C1086 C 0.82818 1.09341 0.69219
 C1087 C 0.83719 1.10966 0.68329
 C1088 C 0.82617 1.12369 0.67262
 C1089 C 0.80576 1.12059 0.67117
 C1090 C 0.79679 1.10441 0.68021
 C1091 C 0.79814 1.07373 0.70088
 C1092 C 0.78224 1.06386 0.69220
 C1093 C 0.77263 1.04848 0.70193
 C1094 C 0.77876 1.04252 0.72052
 C1095 C 0.79486 1.05214 0.72908
 C1096 C 0.80440 1.06760 0.71940
 H1097 H 0.85296 1.11068 0.68427
 H1098 H 0.79632 1.13115 0.66395
 H1099 H 0.76036 1.04128 0.69488
 H1100 H 0.79989 1.04795 0.74343
 H1101 H 0.78103 1.10301 0.67929
 H1102 H 0.77726 1.06797 0.67782
 H1103 H 0.83721 1.08282 0.69993
 H1104 H 0.81640 1.07506 0.72664
 C1105 C 0.69247 0.59082 0.30789
 C1106 C 0.70361 0.60645 0.31572
 C1107 C 0.69446 0.62251 0.32485
 C1108 C 0.67397 0.62331 0.32636
 C1109 C 0.66282 0.60765 0.31861
 C1110 C 0.67197 0.59158 0.30947
 C1111 C 0.70224 0.57399 0.29783
 C1112 C 0.69440 0.56611 0.28058
 C1113 C 0.70395 0.55071 0.27077
 C1114 C 0.72156 0.54283 0.27800
 C1115 C 0.72926 0.55052 0.29539
 C1116 C 0.71971 0.56593 0.30519
 H1117 H 0.70344 0.63451 0.33036
 H1118 H 0.64701 0.60775 0.31978
 H1119 H 0.69764 0.54515 0.25739
 H1120 H 0.74275 0.54473 0.30139
 H1121 H 0.66301 0.57963 0.30382
 H1122 H 0.68109 0.57216 0.27442
 H1123 H 0.71940 0.60648 0.31443
 H1124 H 0.72597 0.57148 0.31859
 C1125 C 0.69300 1.09061 0.80793
 C1126 C 0.70404 1.10411 0.81895
 C1127 C 0.69508 1.12019 0.82822
 C1128 C 0.67470 1.12346 0.82663
 C1129 C 0.66371 1.10971 0.81557
 C1130 C 0.67271 1.09354 0.80646
 C1131 C 0.70268 1.07376 0.79774
 C1132 C 0.69652 1.06791 0.77909
 C1133 C 0.70597 1.05245 0.76928
 C1134 C 0.72190 1.04256 0.77783
 C1135 C 0.72797 1.04827 0.79654
 C1136 C 0.71843 1.06364 0.80640
 H1137 H 0.70451 1.13055 0.83574
 H1138 H 0.64796 1.11084 0.81445
 H1139 H 0.70100 1.04848 0.75485
 H1140 H 0.74012 1.04086 0.80358
 H1141 H 0.66369 1.08315 0.79845
 H1142 H 0.68464 1.07557 0.77186
 H1143 H 0.71978 1.10258 0.82001
 H1144 H 0.72335 1.06753 0.82087
 C1145 C 0.19185 0.58942 0.80797
 C1146 C 0.20293 0.60294 0.81894
 C1147 C 0.19402 0.61912 0.82808
 C1148 C 0.17366 0.62247 0.82643
 C1149 C 0.16263 0.60870 0.81543
 C1150 C 0.17158 0.59243 0.80644
 C1151 C 0.20149 0.57247 0.79789
 C1152 C 0.19531 0.56652 0.77927
 C1153 C 0.20476 0.55101 0.76954
 C1154 C 0.22070 0.54118 0.77813
 C1155 C 0.22677 0.54696 0.79681
 C1156 C 0.21723 0.56238 0.80660
 H1157 H 0.20348 0.62948 0.83556
 H1158 H 0.14689 0.60991 0.81426
 H1159 H 0.19980 0.54697 0.75512
 H1160 H 0.23892 0.53959 0.80388
 H1161 H 0.16252 0.58204 0.79848
 H1162 H 0.18344 0.57415 0.77201
 H1163 H 0.21866 0.60135 0.82003
 H1164 H 0.22215 0.56634 0.82105
 C1165 C 0.19272 1.08927 0.30948
 C1166 C 0.20385 1.10499 0.31716
 C1167 C 0.19469 1.12111 0.32616
 C1168 C 0.17419 1.12189 0.32770
 C1169 C 0.16307 1.10607 0.32022
 C1170 C 0.17223 1.08994 0.31121
 C1171 C 0.20247 1.07248 0.29932
 C1172 C 0.19449 1.06464 0.28212
 C1173 C 0.20400 1.04933 0.27216
 C1174 C 0.22171 1.04148 0.27919
 C1175 C 0.22955 1.04914 0.29654
 C1176 C 0.22004 1.06447 0.30648
 H1177 H 0.20363 1.13323 0.33148
 H1178 H 0.14727 1.10612 0.32144
 H1179 H 0.19758 1.04379 0.25882
 H1180 H 0.24313 1.04338 0.30238
 H1181 H 0.16329 1.07791 0.30570
 H1182 H 0.18111 1.07066 0.27610
 H1183 H 0.21963 1.10506 0.31577
 H1184 H 0.22642 1.07002 0.31984
 C1185 C 0.69278 0.40927 0.69192
 C1186 C 0.67229 0.40844 0.69030
 C1187 C 0.66323 0.39235 0.68110
 C1188 C 0.67446 0.37674 0.67334
 C1189 C 0.69495 0.37763 0.67490
 C1190 C 0.70400 0.39371 0.68408
 C1191 C 0.70246 0.42614 0.70200
 C1192 C 0.71986 0.43432 0.69462
 C1193 C 0.72933 0.44975 0.70443
 C1194 C 0.72162 0.45735 0.72186
 C1195 C 0.70408 0.44935 0.72912
 C1196 C 0.69460 0.43392 0.71929
 H1197 H 0.64743 0.39220 0.67990
 H1198 H 0.70399 0.36567 0.66940
 H1199 H 0.74277 0.45563 0.69840
 H1200 H 0.69777 0.45485 0.74253
 H1201 H 0.71979 0.39374 0.68540
 H1202 H 0.72612 0.42883 0.68119
 H1203 H 0.66326 0.42033 0.69596
 H1204 H 0.68134 0.42778 0.72546
 C1205 C 0.69173 -0.09033 0.19164
 C1206 C 0.70287 -0.10396 0.18087
 C1207 C 0.69399 -0.12010 0.17164
 C1208 C 0.67358 -0.12328 0.17299
 C1209 C 0.66248 -0.10937 0.18377
 C1210 C 0.67141 -0.09316 0.19287
 C1211 C 0.70135 -0.07344 0.20182
 C1212 C 0.69505 -0.06746 0.22038
 C1213 C 0.70452 -0.05203 0.23022
 C1214 C 0.72059 -0.04230 0.22176
 C1215 C 0.72677 -0.04810 0.20312
 C1216 C 0.71722 -0.06345 0.19324
 H1217 H 0.70349 -0.13057 0.16434
 H1218 H 0.64671 -0.11044 0.18469
 H1219 H 0.69946 -0.04797 0.24460
 H1220 H 0.73902 -0.04081 0.19614
 H1221 H 0.66232 -0.08267 0.20068
 H1222 H 0.68306 -0.07502 0.22753
 H1223 H 0.71863 -0.10250 0.18001
 H1224 H 0.72224 -0.06743 0.17883
 C1225 C 0.19291 0.41013 0.19216
 C1226 C 0.20414 0.39436 0.18472
 C1227 C 0.19511 0.37816 0.17574
 C1228 C 0.17463 0.37734 0.17396
 C1229 C 0.16339 0.39315 0.18130
 C1230 C 0.17244 0.40937 0.19031
 C1231 C 0.20257 0.42710 0.20210
 C1232 C 0.19455 0.43520 0.21917
 C1233 C 0.20402 0.45069 0.22891
 C1234 C 0.22172 0.45845 0.22178
 C1235 C 0.22958 0.45055 0.20454
 C1236 C 0.22012 0.43505 0.19482
 H1237 H 0.20415 0.36604 0.17056
 H1238 H 0.14761 0.39306 0.17993
 H1239 H 0.19759 0.45642 0.24217
 H1240 H 0.24315 0.45624 0.19861
 H1241 H 0.16341 0.42141 0.19567
 H1242 H 0.18117 0.42925 0.22526
 H1243 H 0.21992 0.39433 0.18623
 H1244 H 0.22652 0.42931 0.18155
 C1245 C 0.19298 -0.09002 0.69181
 C1246 C 0.17263 -0.09252 0.69313
 C1247 C 0.16342 -0.10864 0.68418
 C1248 C 0.17425 -0.12280 0.67347
 C1249 C 0.19468 -0.11990 0.67191
 C1250 C 0.20386 -0.10385 0.68101
 C1251 C 0.20286 -0.07328 0.70197
 C1252 C 0.21885 -0.06347 0.69340
 C1253 C 0.22848 -0.04815 0.70323
 C1254 C 0.22228 -0.04220 0.72183
 C1255 C 0.20615 -0.05182 0.73030
 C1256 C 0.19660 -0.06721 0.72052
 H1257 H 0.14764 -0.10940 0.68516
 H1258 H 0.20396 -0.13055 0.66457
 H1259 H 0.24080 -0.04096 0.69626
 H1260 H 0.20107 -0.04766 0.74466
 H1261 H 0.21963 -0.10261 0.68003
 H1262 H 0.22386 -0.06756 0.67901
 H1263 H 0.16373 -0.08183 0.70091
 H1264 H 0.18454 -0.07464 0.72769
 C1265 C 0.30843 0.30664 0.41126
 C1266 C 0.31593 0.29509 0.39594
 C1267 C 0.32478 0.30410 0.37992
 C1268 C 0.32634 0.32489 0.37882
 C1269 C 0.31896 0.33646 0.39418
 C1270 C 0.31010 0.32743 0.41023
 C1271 C 0.29857 0.29701 0.42802
 C1272 C 0.28139 0.30518 0.43593
 C1273 C 0.27168 0.29570 0.45121
 C1274 C 0.27894 0.27784 0.45894
 C1275 C 0.29629 0.26983 0.45123
 C1276 C 0.30599 0.27930 0.43595
 H1277 H 0.33003 0.29480 0.36816
 H1278 H 0.32019 0.35249 0.39387
 H1279 H 0.25833 0.30225 0.45679
 H1280 H 0.30232 0.25613 0.45690
 H1281 H 0.30471 0.33672 0.42192
 H1282 H 0.27517 0.31867 0.42999
 H1283 H 0.31457 0.27906 0.39614
 H1284 H 0.31935 0.27279 0.43035
 C1285 C 0.30831 0.80560 -0.08973
 C1286 C 0.31546 0.79401 -0.10518
 C1287 C 0.32428 0.80298 -0.12125
 C1288 C 0.32615 0.82375 -0.12224
 C1289 C 0.31915 0.83534 -0.10672
 C1290 C 0.31032 0.82636 -0.09064
 C1291 C 0.29849 0.79605 -0.07290
 C1292 C 0.28150 0.80445 -0.06482
 C1293 C 0.27183 0.79510 -0.04944
 C1294 C 0.27896 0.77715 -0.04178
 C1295 C 0.29611 0.76891 -0.04967
 C1296 C 0.30576 0.77825 -0.06506
 H1297 H 0.32929 0.79369 -0.13311
 H1298 H 0.32067 0.85135 -0.10693
 H1299 H 0.25863 0.80183 -0.04372
 H1300 H 0.30202 0.75513 -0.04406
 H1301 H 0.30522 0.83566 -0.07883
 H1302 H 0.27540 0.81803 -0.07069
 H1303 H 0.31386 0.77801 -0.10505
 H1304 H 0.31897 0.77156 -0.07081
 C1305 C 0.80875 0.30622 -0.08872
 C1306 C 0.81605 0.29455 -0.10405
 C1307 C 0.82482 0.30344 -0.12018
 C1308 C 0.82649 0.32421 -0.12137
 C1309 C 0.81933 0.33589 -0.10599
 C1310 C 0.81054 0.32699 -0.08984
 C1311 C 0.79898 0.29672 -0.07183
 C1312 C 0.78188 0.30499 -0.06386
 C1313 C 0.77224 0.29561 -0.04847
 C1314 C 0.77951 0.27777 -0.04071
 C1315 C 0.79680 0.26968 -0.04847
 C1316 C 0.80642 0.27905 -0.06386
 H1317 H 0.82992 0.29407 -0.13194
 H1318 H 0.82068 0.35191 -0.10636
 H1319 H 0.75894 0.30221 -0.04285
 H1320 H 0.80283 0.25600 -0.04278
 H1321 H 0.80531 0.33636 -0.07814
 H1322 H 0.77566 0.31846 -0.06983
 H1323 H 0.81459 0.27853 -0.10377
 H1324 H 0.81973 0.27248 -0.06951
 C1325 C 0.80758 0.80612 0.41088
 C1326 C 0.81495 0.79447 0.39557
 C1327 C 0.82376 0.80337 0.37947
 C1328 C 0.82541 0.82414 0.37829
 C1329 C 0.81817 0.83581 0.39365
 C1330 C 0.80934 0.82690 0.40977
 C1331 C 0.79783 0.79661 0.42776
 C1332 C 0.78071 0.80484 0.43574
 C1333 C 0.77110 0.79545 0.45115
 C1334 C 0.77842 0.77763 0.45892
 C1335 C 0.79572 0.76958 0.45115
 C1336 C 0.80531 0.77896 0.43574
 H1337 H 0.82893 0.79401 0.36773
 H1338 H 0.81951 0.85184 0.39328
 H1339 H 0.75779 0.80202 0.45678
 H1340 H 0.80180 0.75592 0.45685
 H1341 H 0.80406 0.83626 0.42146
 H1342 H 0.77446 0.81829 0.42977
 H1343 H 0.81352 0.77845 0.39584
 H1344 H 0.81863 0.77241 0.43009
 C1345 C 0.69135 0.30700 0.58838
 C1346 C 0.68960 0.32777 0.58969
 C1347 C 0.68068 0.33657 0.60584
 C1348 C 0.67330 0.32479 0.62103
 C1349 C 0.67492 0.30403 0.61964
 C1350 C 0.68383 0.29524 0.60351
 C1351 C 0.70131 0.29760 0.57153
 C1352 C 0.69397 0.27998 0.56333
 C1353 C 0.70379 0.27067 0.54801
 C1354 C 0.72120 0.27876 0.54054
 C1355 C 0.72837 0.29656 0.54852
 C1356 C 0.71853 0.30588 0.56384
 H1357 H 0.67940 0.35259 0.60637
 H1358 H 0.66968 0.29457 0.63125
 H1359 H 0.69783 0.25702 0.54215
 H1360 H 0.74176 0.30316 0.54312
 H1361 H 0.68525 0.27922 0.60309
 H1362 H 0.68058 0.27340 0.56875
 H1363 H 0.69500 0.33721 0.57815
 H1364 H 0.72468 0.31931 0.56999
 C1365 C 0.69148 0.80693 1.08887
 C1366 C 0.68431 0.79516 1.10416
 C1367 C 0.67549 0.80394 1.12035
 C1368 C 0.67362 0.82469 1.12163
 C1369 C 0.68065 0.83647 1.10628
 C1370 C 0.68949 0.82768 1.09008
 C1371 C 0.70127 0.79757 1.07190
 C1372 C 0.71826 0.80603 1.06389
 C1373 C 0.72790 0.79683 1.04839
 C1374 C 0.72077 0.77896 1.04052
 C1375 C 0.70360 0.77067 1.04832
 C1376 C 0.69397 0.77987 1.06384
 H1377 H 0.67046 0.79451 1.13208
 H1378 H 0.67914 0.85247 1.10671
 H1379 H 0.74112 0.80359 1.04274
 H1380 H 0.69767 0.75696 1.04256
 H1381 H 0.69461 0.83712 1.07841
 H1382 H 0.72438 0.81954 1.06992
 H1383 H 0.68590 0.77916 1.10381
 H1384 H 0.68076 0.77314 1.06951
 C1385 C 0.19166 0.30648 1.08995
 C1386 C 0.18980 0.32725 1.09105
 C1387 C 0.18098 0.33619 1.10718
 C1388 C 0.17383 0.32455 1.12258
 C1389 C 0.17558 0.30378 1.12141
 C1390 C 0.18438 0.29485 1.10529
 C1391 C 0.20149 0.29696 1.07309
 C1392 C 0.19416 0.27922 1.06512
 C1393 C 0.20384 0.26986 1.04973
 C1394 C 0.22109 0.27801 1.04197
 C1395 C 0.22825 0.29591 1.04974
 C1396 C 0.21856 0.30528 1.06512
 H1397 H 0.17959 0.35221 1.10753
 H1398 H 0.17050 0.29444 1.13318
 H1399 H 0.19789 0.25613 1.04403
 H1400 H 0.24152 0.30257 1.04413
 H1401 H 0.18589 0.27884 1.10504
 H1402 H 0.18089 0.27259 1.07076
 H1403 H 0.19501 0.33659 1.07933
 H1404 H 0.22470 0.31880 1.07109
 C1405 C 0.19066 0.80735 0.58944
 C1406 C 0.18344 0.79571 0.60480
 C1407 C 0.17459 0.80463 0.62091
 C1408 C 0.17274 0.82539 0.62202
 C1409 C 0.17977 0.83703 0.60658
 C1410 C 0.18865 0.82811 0.59047
 C1411 C 0.20063 0.79786 0.57264
 C1412 C 0.21769 0.80627 0.56473
 C1413 C 0.22751 0.79693 0.54942
 C1414 C 0.22049 0.77897 0.54165
 C1415 C 0.20325 0.77073 0.54935
 C1416 C 0.19344 0.78006 0.56468
 H1417 H 0.16960 0.79529 0.63272
 H1418 H 0.17830 0.85305 0.60691
 H1419 H 0.24077 0.80365 0.54384
 H1420 H 0.19740 0.75695 0.54366
 H1421 H 0.19381 0.83746 0.57874
 H1422 H 0.22372 0.81985 0.57069
 H1423 H 0.18506 0.77971 0.60459
 H1424 H 0.18019 0.77336 0.57028
 C1425 C 0.30851 0.69366 0.58938
 C1426 C 0.31589 0.70514 0.60480
 C1427 C 0.32468 0.69604 0.62082
 C1428 C 0.32631 0.67525 0.62179
 C1429 C 0.31910 0.66378 0.60628
 C1430 C 0.31030 0.67288 0.59026
 C1431 C 0.29863 0.70335 0.57265
 C1432 C 0.28152 0.69513 0.56466
 C1433 C 0.27181 0.70462 0.54939
 C1434 C 0.27900 0.72255 0.54175
 C1435 C 0.29627 0.73062 0.54955
 C1436 C 0.30597 0.72113 0.56483
 H1437 H 0.32979 0.70527 0.63268
 H1438 H 0.32040 0.64774 0.60649
 H1439 H 0.25852 0.69802 0.54374
 H1440 H 0.30225 0.74437 0.54395
 H1441 H 0.30502 0.66365 0.57847
 H1442 H 0.27536 0.68158 0.57052
 H1443 H 0.31444 0.72116 0.60471
 H1444 H 0.31927 0.72769 0.57049
 C1445 C 0.30849 0.19301 1.08994
 C1446 C 0.31582 0.20475 1.10519
 C1447 C 0.32463 0.19595 1.12134
 C1448 C 0.32634 0.17518 1.12263
 C1449 C 0.31907 0.16342 1.10737
 C1450 C 0.31024 0.17223 1.09119
 C1451 C 0.29876 0.20246 1.07300
 C1452 C 0.28164 0.19422 1.06505
 C1453 C 0.27200 0.20360 1.04967
 C1454 C 0.27929 0.22143 1.04188
 C1455 C 0.29661 0.22947 1.04959
 C1456 C 0.30623 0.22009 1.06497
 H1457 H 0.32976 0.20540 1.13302
 H1458 H 0.32039 0.14739 1.10785
 H1459 H 0.25868 0.19703 1.04408
 H1460 H 0.30265 0.24314 1.04387
 H1461 H 0.30495 0.16281 1.07956
 H1462 H 0.27540 0.18077 1.07105
 H1463 H 0.31437 0.22077 1.10483
 H1464 H 0.31955 0.22665 1.07059
 C1465 C 0.80880 0.69418 1.08772
 C1466 C 0.81624 0.70583 1.10300
 C1467 C 0.82503 0.69690 1.11910
 C1468 C 0.82660 0.67612 1.12031
 C1469 C 0.81932 0.66447 1.10497
 C1470 C 0.81051 0.67340 1.08885
 C1471 C 0.79893 0.70371 1.07091
 C1472 C 0.78176 0.69548 1.06306
 C1473 C 0.77200 0.70489 1.04777
 C1474 C 0.77921 0.72275 1.03998
 C1475 C 0.79656 0.73081 1.04762
 C1476 C 0.80630 0.72140 1.06291
 H1477 H 0.83021 0.70627 1.13083
 H1478 H 0.82057 0.64844 1.10537
 H1479 H 0.75865 0.69831 1.04225
 H1480 H 0.80254 0.74451 1.04190
 H1481 H 0.80518 0.66405 1.07719
 H1482 H 0.77558 0.68200 1.06905
 H1483 H 0.81484 0.72185 1.10272
 H1484 H 0.81965 0.72795 1.06846
 C1485 C 0.80874 0.19412 0.58912
 C1486 C 0.81070 0.17336 0.59013
 C1487 C 0.81948 0.16444 0.60627
 C1488 C 0.82647 0.17608 0.62175
 C1489 C 0.82463 0.19684 0.62067
 C1490 C 0.81587 0.20576 0.60454
 C1491 C 0.79900 0.20362 0.57222
 C1492 C 0.80635 0.22137 0.56433
 C1493 C 0.79677 0.23068 0.54887
 C1494 C 0.77962 0.22247 0.54096
 C1495 C 0.77243 0.20456 0.54866
 C1496 C 0.78202 0.19524 0.56411
 H1497 H 0.82097 0.14843 0.60655
 H1498 H 0.82963 0.20618 0.63250
 H1499 H 0.80274 0.24442 0.54324
 H1500 H 0.75922 0.19787 0.54293
 H1501 H 0.81430 0.22177 0.60433
 H1502 H 0.81955 0.22804 0.57009
 H1503 H 0.80561 0.16402 0.57835
 H1504 H 0.77586 0.18171 0.57001
 C1505 C 0.69031 0.69297 0.41143
 C1506 C 0.68859 0.67220 0.41009
 C1507 C 0.67973 0.66341 0.39391
 C1508 C 0.67241 0.67520 0.37871
 C1509 C 0.67397 0.69596 0.38013
 C1510 C 0.68281 0.70475 0.39630
 C1511 C 0.70025 0.70236 0.42829
 C1512 C 0.69289 0.71996 0.43651
 C1513 C 0.70271 0.72926 0.45184
 C1514 C 0.72013 0.72117 0.45929
 C1515 C 0.72731 0.70338 0.45129
 C1516 C 0.71748 0.69407 0.43597
 H1517 H 0.67848 0.64739 0.39336
 H1518 H 0.66877 0.70543 0.36851
 H1519 H 0.69674 0.74290 0.45772
 H1520 H 0.74071 0.69677 0.45667
 H1521 H 0.68421 0.72076 0.39673
 H1522 H 0.67950 0.72655 0.43110
 H1523 H 0.69397 0.66275 0.42164
 H1524 H 0.72364 0.68065 0.42980
 C1525 C 0.69196 0.19303 -0.08883
 C1526 C 0.69020 0.17226 -0.09009
 C1527 C 0.68139 0.16342 -0.10627
 C1528 C 0.67415 0.17516 -0.12155
 C1529 C 0.67578 0.19593 -0.12022
 C1530 C 0.68458 0.20476 -0.10405
 C1531 C 0.70178 0.20245 -0.07191
 C1532 C 0.69437 0.22009 -0.06379
 C1533 C 0.70404 0.22939 -0.04837
 C1534 C 0.72136 0.22127 -0.04072
 C1535 C 0.72859 0.20346 -0.04863
 C1536 C 0.71891 0.19415 -0.06405
 H1537 H 0.68006 0.14740 -0.10675
 H1538 H 0.67062 0.20535 -0.13189
 H1539 H 0.69803 0.24305 -0.04257
 H1540 H 0.74192 0.19683 -0.04311
 H1541 H 0.68601 0.22077 -0.10367
 H1542 H 0.68105 0.22669 -0.06935
 H1543 H 0.69549 0.16284 -0.07847
 H1544 H 0.72511 0.18071 -0.07013
 C1545 C 0.19110 0.69244 -0.08942
 C1546 C 0.18921 0.67167 -0.09054
 C1547 C 0.18038 0.66279 -0.10669
 C1548 C 0.17326 0.67447 -0.12206
 C1549 C 0.17503 0.69523 -0.12086
 C1550 C 0.18384 0.70411 -0.10473
 C1551 C 0.20095 0.70192 -0.07255
 C1552 C 0.19363 0.71965 -0.06456
 C1553 C 0.20334 0.72901 -0.04919
 C1554 C 0.22060 0.72084 -0.04148
 C1555 C 0.22775 0.70293 -0.04925
 C1556 C 0.21802 0.69357 -0.06461
 H1557 H 0.17895 0.64677 -0.10706
 H1558 H 0.16995 0.70460 -0.13262
 H1559 H 0.19740 0.74275 -0.04349
 H1560 H 0.24103 0.69627 -0.04367
 H1561 H 0.18537 0.72012 -0.10446
 H1562 H 0.18035 0.72629 -0.07018
 H1563 H 0.19441 0.66230 -0.07885
 H1564 H 0.22415 0.68005 -0.07060
 C1565 C 0.19021 0.19294 0.41154
 C1566 C 0.18827 0.17217 0.41058
 C1567 C 0.17939 0.16317 0.39453
 C1568 C 0.17225 0.17473 0.37908
 C1569 C 0.17398 0.19551 0.38015
 C1570 C 0.18285 0.20451 0.39619
 C1571 C 0.20028 0.20250 0.42824
 C1572 C 0.19314 0.22033 0.43620
 C1573 C 0.20303 0.22970 0.45144
 C1574 C 0.22032 0.22146 0.45905
 C1575 C 0.22731 0.20350 0.45127
 C1576 C 0.21740 0.19412 0.43605
 H1577 H 0.17800 0.14715 0.39425
 H1578 H 0.16892 0.20480 0.36833
 H1579 H 0.19722 0.24349 0.45715
 H1580 H 0.24060 0.19678 0.45677
 H1581 H 0.18440 0.22052 0.39635
 H1582 H 0.17984 0.22701 0.43067
 H1583 H 0.19352 0.16288 0.42231
 H1584 H 0.22341 0.18054 0.43007
 C1585 C 0.30681 0.40941 0.69087
 C1586 C 0.29576 0.39362 0.68324
 C1587 C 0.30499 0.37750 0.67430
 C1588 C 0.32549 0.37680 0.67278
 C1589 C 0.33655 0.39266 0.68027
 C1590 C 0.32731 0.40879 0.68922
 C1591 C 0.29697 0.42626 0.70084
 C1592 C 0.30484 0.43431 0.71801
 C1593 C 0.29523 0.44971 0.72776
 C1594 C 0.27754 0.45742 0.72056
 C1595 C 0.26981 0.44955 0.70325
 C1596 C 0.27942 0.43415 0.69351
 H1597 H 0.29609 0.36535 0.66898
 H1598 H 0.35235 0.39266 0.67907
 H1599 H 0.30156 0.45541 0.74107
 H1600 H 0.25625 0.45521 0.69727
 H1601 H 0.33621 0.42087 0.69470
 H1602 H 0.31821 0.42839 0.72415
 H1603 H 0.27997 0.39350 0.68458
 H1604 H 0.27313 0.42845 0.68018
 C1605 C 0.30684 0.91064 0.18971
 C1606 C 0.32733 0.90998 0.18792
 C1607 C 0.33648 0.89385 0.17889
 C1608 C 0.32534 0.87802 0.17146
 C1609 C 0.30485 0.87879 0.17305
 C1610 C 0.29571 0.89492 0.18207
 C1611 C 0.29712 0.92742 0.19990
 C1612 C 0.27954 0.93544 0.19277
 C1613 C 0.27005 0.95077 0.20275
 C1614 C 0.27792 0.95839 0.22010
 C1615 C 0.29562 0.95053 0.22711
 C1616 C 0.30512 0.93522 0.21711
 H1617 H 0.35227 0.89381 0.17763
 H1618 H 0.29589 0.86667 0.16776
 H1619 H 0.25647 0.95654 0.19693
 H1620 H 0.30205 0.95604 0.24045
 H1621 H 0.27992 0.89484 0.18349
 H1622 H 0.27316 0.92992 0.17942
 H1623 H 0.33628 0.92202 0.19341
 H1624 H 0.31851 0.92918 0.22311
 C1625 C 0.80722 0.41100 0.19042
 C1626 C 0.82771 0.41034 0.18870
 C1627 C 0.83690 0.39413 0.17983
 C1628 C 0.82580 0.37824 0.17248
 C1629 C 0.80530 0.37899 0.17404
 C1630 C 0.79612 0.39519 0.18290
 C1631 C 0.79745 0.42789 0.20037
 C1632 C 0.77988 0.43579 0.19309
 C1633 C 0.77034 0.45124 0.20283
 C1634 C 0.77814 0.45912 0.22010
 C1635 C 0.79584 0.45139 0.22725
 C1636 C 0.80539 0.43596 0.21749
 H1637 H 0.85270 0.39410 0.17859
 H1638 H 0.79636 0.36682 0.16881
 H1639 H 0.75676 0.45690 0.19690
 H1640 H 0.80223 0.45710 0.24054
 H1641 H 0.78033 0.39510 0.18429
 H1642 H 0.77354 0.43007 0.17979
 H1643 H 0.83665 0.42243 0.19410
 H1644 H 0.81878 0.43003 0.22360
 C1645 C 0.80730 0.91041 0.69045
 C1646 C 0.82779 0.90966 0.68872
 C1647 C 0.83689 0.89346 0.67975
 C1648 C 0.82571 0.87765 0.67233
 C1649 C 0.80522 0.87849 0.67392
 C1650 C 0.79613 0.89468 0.68288
 C1651 C 0.79760 0.92734 0.70043
 C1652 C 0.78009 0.93534 0.69312
 C1653 C 0.77060 0.95081 0.70287
 C1654 C 0.77840 0.95863 0.72016
 C1655 C 0.79605 0.95081 0.72734
 C1656 C 0.80555 0.93534 0.71758
 H1657 H 0.85269 0.89337 0.67849
 H1658 H 0.79623 0.86639 0.66865
 H1659 H 0.75707 0.95656 0.69690
 H1660 H 0.80243 0.95647 0.74065
 H1661 H 0.78034 0.89466 0.68427
 H1662 H 0.77375 0.92968 0.67980
 H1663 H 0.83678 0.92169 0.69416
 H1664 H 0.81889 0.92934 0.72370
 C1665 C 0.69252 0.58974 0.69311
 C1666 C 0.70380 0.60534 0.68548
 C1667 C 0.69482 0.62148 0.67638
 C1668 C 0.67434 0.62240 0.67469
 C1669 C 0.66304 0.60682 0.68234
 C1670 C 0.67203 0.59065 0.69146
 C1671 C 0.70217 0.57272 0.70294
 C1672 C 0.69432 0.56471 0.72011
 C1673 C 0.70383 0.54917 0.72973
 C1674 C 0.72139 0.54128 0.72236
 C1675 C 0.72907 0.54909 0.70503
 C1676 C 0.71958 0.56463 0.69544
 H1677 H 0.70391 0.63344 0.67097
 H1678 H 0.64724 0.60700 0.68105
 H1679 H 0.69754 0.54351 0.74306
 H1680 H 0.74253 0.54330 0.69892
 H1681 H 0.66297 0.57874 0.69699
 H1682 H 0.68105 0.57076 0.72637
 H1683 H 0.71959 0.60526 0.68685
 H1684 H 0.72583 0.57028 0.68208
 C1685 C 0.69215 0.09034 0.19326
 C1686 C 0.67167 0.09139 0.19161
 C1687 C 0.66277 0.10762 0.18250
 C1688 C 0.67417 0.12313 0.17485
 C1689 C 0.69465 0.12208 0.17655
 C1690 C 0.70352 0.10588 0.18563
 C1691 C 0.70170 0.07323 0.20303
 C1692 C 0.71903 0.06504 0.19547
 C1693 C 0.72845 0.04943 0.20502
 C1694 C 0.72077 0.04164 0.22235
 C1695 C 0.70326 0.04961 0.22976
 C1696 C 0.69383 0.06523 0.22020
 H1697 H 0.64698 0.10791 0.18121
 H1698 H 0.70381 0.13397 0.17114
 H1699 H 0.74186 0.04358 0.19887
 H1700 H 0.69697 0.04396 0.24311
 H1701 H 0.71931 0.10569 0.18700
 H1702 H 0.72530 0.07068 0.18211
 H1703 H 0.66253 0.07953 0.19714
 H1704 H 0.68061 0.07135 0.22649
 C1705 C 0.19278 0.59056 0.19208
 C1706 C 0.20397 0.60619 0.18435
 C1707 C 0.19488 0.62229 0.17528
 C1708 C 0.17439 0.62315 0.17370
 C1709 C 0.16319 0.60749 0.18135
 C1710 C 0.17228 0.59137 0.19044
 C1711 C 0.20248 0.57366 0.20206
 C1712 C 0.19459 0.56576 0.21926
 C1713 C 0.20409 0.55030 0.22901
 C1714 C 0.22169 0.54240 0.22177
 C1715 C 0.22944 0.55012 0.20442
 C1716 C 0.21995 0.56558 0.19469
 H1717 H 0.20390 0.63430 0.16986
 H1718 H 0.14739 0.60761 0.18013
 H1719 H 0.19775 0.54472 0.24235
 H1720 H 0.24293 0.54432 0.19841
 H1721 H 0.16328 0.57943 0.19601
 H1722 H 0.18129 0.57182 0.22543
 H1723 H 0.21976 0.60618 0.18569
 H1724 H 0.22625 0.57116 0.18132
 C1725 C 0.19338 0.08992 0.69240
 C1726 C 0.17289 0.09072 0.69074
 C1727 C 0.16381 0.10683 0.68164
 C1728 C 0.17501 0.12251 0.67401
 C1729 C 0.19550 0.12167 0.67562
 C1730 C 0.20458 0.10556 0.68471
 C1731 C 0.20309 0.07301 0.70236
 C1732 C 0.22056 0.06496 0.69497
 C1733 C 0.23006 0.04949 0.70467
 C1734 C 0.22231 0.04170 0.72199
 C1735 C 0.20471 0.04957 0.72925
 C1736 C 0.19520 0.06505 0.71954
 H1737 H 0.14801 0.10695 0.68039
 H1738 H 0.20452 0.13368 0.67022
 H1739 H 0.24355 0.04371 0.69863
 H1740 H 0.19837 0.04394 0.74258
 H1741 H 0.22037 0.10557 0.68606
 H1742 H 0.22686 0.07058 0.68162
 H1743 H 0.16389 0.07876 0.69629
 H1744 H 0.18189 0.07108 0.72572
 C1745 C 0.30694 0.59093 0.30884
 C1746 C 0.32744 0.59182 0.31038
 C1747 C 0.33652 0.60804 0.31934
 C1748 C 0.32529 0.62372 0.32697
 C1749 C 0.30480 0.62278 0.32552
 C1750 C 0.29573 0.60658 0.31656
 C1751 C 0.29725 0.57395 0.29894
 C1752 C 0.27983 0.56587 0.30637
 C1753 C 0.27035 0.55034 0.29670
 C1754 C 0.27809 0.54254 0.27936
 C1755 C 0.29565 0.55045 0.27206
 C1756 C 0.30513 0.56597 0.28175
 H1757 H 0.35232 0.60823 0.32047
 H1758 H 0.29576 0.63479 0.33093
 H1759 H 0.25689 0.54453 0.30276
 H1760 H 0.30198 0.54481 0.25872
 H1761 H 0.27993 0.60650 0.31531
 H1762 H 0.27354 0.57151 0.31973
 H1763 H 0.33646 0.57988 0.30481
 H1764 H 0.31840 0.57203 0.27552
 C1765 C 0.30764 0.08963 0.80957
 C1766 C 0.32813 0.09036 0.81132
 C1767 C 0.33722 0.10651 0.82037
 C1768 C 0.32603 0.12228 0.82787
 C1769 C 0.30554 0.12145 0.82627
 C1770 C 0.29646 0.10532 0.81723
 C1771 C 0.29795 0.07276 0.79951
 C1772 C 0.28044 0.06473 0.80678
 C1773 C 0.27097 0.04931 0.79696
 C1774 C 0.27878 0.04158 0.77962
 C1775 C 0.29642 0.04943 0.77248
 C1776 C 0.30591 0.06485 0.78232
 H1777 H 0.35302 0.10660 0.82164
 H1778 H 0.29654 0.13353 0.83160
 H1779 H 0.25744 0.04354 0.80290
 H1780 H 0.30281 0.04384 0.75915
 H1781 H 0.28067 0.10535 0.81583
 H1782 H 0.27410 0.07032 0.82013
 H1783 H 0.33712 0.07836 0.80581
 H1784 H 0.31926 0.07088 0.77623
 C1785 C 0.80703 0.58941 0.80925
 C1786 C 0.82752 0.59012 0.81097
 C1787 C 0.83665 0.60636 0.81982
 C1788 C 0.82550 0.62225 0.82714
 C1789 C 0.80501 0.62144 0.82557
 C1790 C 0.79588 0.60521 0.81674
 C1791 C 0.79730 0.57247 0.79934
 C1792 C 0.77977 0.56453 0.80666
 C1793 C 0.77027 0.54904 0.79695
 C1794 C 0.77807 0.54117 0.77968
 C1795 C 0.79574 0.54894 0.77249
 C1796 C 0.80525 0.56440 0.78221
 H1797 H 0.85245 0.60643 0.82107
 H1798 H 0.79603 0.63360 0.83077
 H1799 H 0.75672 0.54335 0.80292
 H1800 H 0.80212 0.54323 0.75920
 H1801 H 0.78009 0.60525 0.81535
 H1802 H 0.77343 0.57025 0.81996
 H1803 H 0.83648 0.57804 0.80560
 H1804 H 0.81861 0.57036 0.77608
 C1805 C 0.80682 0.08934 0.30903
 C1806 C 0.82732 0.09001 0.31064
 C1807 C 0.83654 0.10618 0.31954
 C1808 C 0.82546 0.12204 0.32701
 C1809 C 0.80496 0.12129 0.32553
 C1810 C 0.79575 0.10513 0.31665
 C1811 C 0.79700 0.07245 0.29911
 C1812 C 0.77948 0.06454 0.30649
 C1813 C 0.76989 0.04910 0.29679
 C1814 C 0.77760 0.04123 0.27947
 C1815 C 0.79526 0.04897 0.27222
 C1816 C 0.80485 0.06440 0.28193
 H1817 H 0.85234 0.10620 0.32071
 H1818 H 0.79604 0.13344 0.33085
 H1819 H 0.75636 0.04343 0.30281
 H1820 H 0.80157 0.04327 0.25889
 H1821 H 0.77995 0.10522 0.31535
 H1822 H 0.77321 0.07025 0.31983
 H1823 H 0.83624 0.07794 0.30516
 H1824 H 0.81820 0.07033 0.27575
 C1825 C 0.69336 0.41066 0.30778
 C1826 C 0.67288 0.40982 0.30956
 C1827 C 0.66388 0.39366 0.31866
 C1828 C 0.67517 0.37798 0.32618
 C1829 C 0.69565 0.37888 0.32447
 C1830 C 0.70464 0.39503 0.31539
 C1831 C 0.70296 0.42759 0.29776
 C1832 C 0.72045 0.43570 0.30503
 C1833 C 0.72984 0.45119 0.29525
 C1834 C 0.72196 0.45892 0.27797
 C1835 C 0.70434 0.45099 0.27083
 C1836 C 0.69494 0.43550 0.28062
 H1837 H 0.64809 0.39351 0.31999
 H1838 H 0.70472 0.36687 0.32979
 H1839 H 0.74335 0.45701 0.30119
 H1840 H 0.69790 0.45658 0.25754
 H1841 H 0.72042 0.39507 0.31394
 H1842 H 0.72684 0.43011 0.31834
 H1843 H 0.66382 0.42176 0.30408
 H1844 H 0.68162 0.42942 0.27453
 C1845 C 0.69281 0.91034 0.80698
 C1846 C 0.67231 0.90949 0.80856
 C1847 C 0.66322 0.89335 0.81760
 C1848 C 0.67444 0.87770 0.82528
 C1849 C 0.69493 0.87859 0.82375
 C1850 C 0.70400 0.89472 0.81472
 C1851 C 0.70252 0.92729 0.79709
 C1852 C 0.71994 0.93536 0.80457
 C1853 C 0.72945 0.95085 0.79493
 C1854 C 0.72178 0.95864 0.77758
 C1855 C 0.70422 0.95076 0.77024
 C1856 C 0.69469 0.93526 0.77989
 H1857 H 0.64742 0.89320 0.81878
 H1858 H 0.70395 0.86660 0.82919
 H1859 H 0.74291 0.95664 0.80102
 H1860 H 0.69794 0.95639 0.75688
 H1861 H 0.71980 0.89475 0.81343
 H1862 H 0.72618 0.92974 0.81794
 H1863 H 0.66330 0.92143 0.80297
 H1864 H 0.68142 0.92921 0.77365
 C1865 C 0.19265 0.40898 0.80822
 C1866 C 0.17217 0.40810 0.80999
 C1867 C 0.16320 0.39197 0.81918
 C1868 C 0.17451 0.37637 0.82680
 C1869 C 0.19498 0.37730 0.82510
 C1870 C 0.20395 0.39342 0.81593
 C1871 C 0.20223 0.42589 0.79816
 C1872 C 0.21968 0.43407 0.80543
 C1873 C 0.22905 0.44955 0.79564
 C1874 C 0.22119 0.45722 0.77832
 C1875 C 0.20360 0.44923 0.77116
 C1876 C 0.19422 0.43374 0.78098
 H1877 H 0.14740 0.39180 0.82049
 H1878 H 0.20408 0.36535 0.83050
 H1879 H 0.24253 0.45542 0.80159
 H1880 H 0.19718 0.45477 0.75784
 H1881 H 0.21973 0.39348 0.81450
 H1882 H 0.22606 0.42854 0.81878
 H1883 H 0.16308 0.41999 0.80444
 H1884 H 0.18091 0.42761 0.77488
 C1885 C 0.19248 0.90920 0.30705
 C1886 C 0.19099 0.90847 0.32742
 C1887 C 0.18196 0.89236 0.33656
 C1888 C 0.17422 0.87661 0.32554
 C1889 C 0.17570 0.87737 0.30518
 C1890 C 0.18471 0.89348 0.29604
 C1891 C 0.20230 0.92615 0.29727
 C1892 C 0.19458 0.93417 0.28004
 C1893 C 0.20413 0.94972 0.27050
 C1894 C 0.22163 0.95759 0.27796
 C1895 C 0.22924 0.94974 0.29532
 C1896 C 0.21966 0.93421 0.30487
 H1897 H 0.18082 0.89232 0.35226
 H1898 H 0.17023 0.86530 0.29629
 H1899 H 0.19784 0.95547 0.25720
 H1900 H 0.24271 0.95545 0.30144
 H1901 H 0.18593 0.89343 0.28035
 H1902 H 0.18108 0.92847 0.27397
 H1903 H 0.19661 0.92049 0.33627
 H1904 H 0.22609 0.92820 0.31800
 C1905 C 0.41079 0.30716 0.69246
 C1906 C 0.39509 0.31458 0.70349
 C1907 C 0.37902 0.32339 0.69439
 C1908 C 0.37827 0.32503 0.67404
 C1909 C 0.39401 0.31769 0.66300
 C1910 C 0.41009 0.30883 0.67211
 C1911 C 0.42766 0.29746 0.70219
 C1912 C 0.43590 0.28000 0.69451
 C1913 C 0.45129 0.27045 0.70410
 C1914 C 0.45881 0.27818 0.72156
 C1915 C 0.45078 0.29583 0.72906
 C1916 C 0.43537 0.30534 0.71949
 H1917 H 0.36697 0.32856 0.70328
 H1918 H 0.39399 0.31898 0.64731
 H1919 H 0.45713 0.25687 0.69795
 H1920 H 0.45628 0.30222 0.74244
 H1921 H 0.42208 0.30348 0.66324
 H1922 H 0.43013 0.27345 0.68132
 H1923 H 0.39504 0.31320 0.71917
 H1924 H 0.42951 0.31892 0.72562
 C1925 C 0.41043 0.80826 0.19145
 C1926 C 0.40974 0.80984 0.17110
 C1927 C 0.39368 0.81870 0.16195
 C1928 C 0.37797 0.82614 0.17296
 C1929 C 0.37872 0.82460 0.19332
 C1930 C 0.39476 0.81579 0.20246
 C1931 C 0.42726 0.79851 0.20122
 C1932 C 0.43501 0.80640 0.21850
 C1933 C 0.45037 0.79684 0.22810
 C1934 C 0.45831 0.77913 0.22064
 C1935 C 0.45074 0.77138 0.20321
 C1936 C 0.43540 0.78098 0.19360
 H1937 H 0.39365 0.81990 0.14625
 H1938 H 0.36668 0.82986 0.20219
 H1939 H 0.45590 0.80324 0.24146
 H1940 H 0.45651 0.75776 0.19710
 H1941 H 0.39471 0.81448 0.21814
 H1942 H 0.42921 0.82003 0.22459
 H1943 H 0.42171 0.80440 0.16225
 H1944 H 0.42960 0.77442 0.18043
 C1945 C 0.91099 0.30857 0.19257
 C1946 C 0.91032 0.31023 0.17222
 C1947 C 0.89426 0.31907 0.16307
 C1948 C 0.87852 0.32644 0.17408
 C1949 C 0.87925 0.32488 0.19444
 C1950 C 0.89530 0.31606 0.20358
 C1951 C 0.92779 0.29874 0.20232
 C1952 C 0.93549 0.30647 0.21970
 C1953 C 0.95083 0.29681 0.22925
 C1954 C 0.95879 0.27918 0.22165
 C1955 C 0.95126 0.27160 0.20413
 C1956 C 0.93595 0.28128 0.19457
 H1957 H 0.89424 0.32032 0.14738
 H1958 H 0.86720 0.33009 0.20331
 H1959 H 0.95633 0.30308 0.24268
 H1960 H 0.95704 0.25803 0.19791
 H1961 H 0.89523 0.31470 0.21926
 H1962 H 0.92968 0.32004 0.22589
 H1963 H 0.92231 0.30484 0.16336
 H1964 H 0.93018 0.27483 0.18133
 C1965 C 0.91070 0.80757 0.69183
 C1966 C 0.90996 0.80927 0.67149
 C1967 C 0.89391 0.81821 0.66242
 C1968 C 0.87823 0.82563 0.67351
 C1969 C 0.87902 0.82398 0.69386
 C1970 C 0.89507 0.81507 0.70291
 C1971 C 0.92755 0.79778 0.70152
 C1972 C 0.93531 0.80560 0.71883
 C1973 C 0.95069 0.79601 0.72835
 C1974 C 0.95865 0.77835 0.72081
 C1975 C 0.95109 0.77068 0.70334
 C1976 C 0.93572 0.78031 0.69380
 H1977 H 0.89384 0.81951 0.64674
 H1978 H 0.86702 0.82921 0.70279
 H1979 H 0.95623 0.80235 0.74174
 H1980 H 0.95687 0.75709 0.69716
 H1981 H 0.89505 0.81368 0.71859
 H1982 H 0.92951 0.81919 0.72499
 H1983 H 0.92190 0.80386 0.66258
 H1984 H 0.92991 0.77381 0.68060
 C1985 C 0.59000 0.30797 0.30812
 C1986 C 0.59130 0.32876 0.30973
 C1987 C 0.60749 0.33760 0.31867
 C1988 C 0.62272 0.32586 0.32618
 C1989 C 0.62138 0.30509 0.32461
 C1990 C 0.60522 0.29625 0.31569
 C1991 C 0.57302 0.29850 0.29834
 C1992 C 0.56479 0.28096 0.30580
 C1993 C 0.54933 0.27158 0.29619
 C1994 C 0.54173 0.27953 0.27888
 C1995 C 0.54974 0.29725 0.27158
 C1996 C 0.56521 0.30663 0.28121
 H1997 H 0.60800 0.35364 0.31989
 H1998 H 0.63304 0.29565 0.32993
 H1999 H 0.54344 0.25799 0.30225
 H2000 H 0.54425 0.30374 0.25826
 H2001 H 0.60483 0.28023 0.31436
 H2002 H 0.57030 0.27449 0.31913
 H2003 H 0.57969 0.33817 0.30427
 H2004 H 0.57137 0.32001 0.27497
 C2005 C 0.58950 0.80743 0.80692
 C2006 C 0.59077 0.82822 0.80838
 C2007 C 0.60687 0.83717 0.81737
 C2008 C 0.62206 0.82550 0.82510
 C2009 C 0.62077 0.80472 0.82365
 C2010 C 0.60469 0.79579 0.81467
 C2011 C 0.57256 0.79784 0.79717
 C2012 C 0.56433 0.78037 0.80479
 C2013 C 0.54889 0.77088 0.79525
 C2014 C 0.54129 0.77866 0.77787
 C2015 C 0.54929 0.79631 0.77040
 C2016 C 0.56475 0.80580 0.77996
 H2017 H 0.60734 0.85321 0.81848
 H2018 H 0.63240 0.79534 0.82914
 H2019 H 0.54300 0.75736 0.80145
 H2020 H 0.54380 0.80266 0.75702
 H2021 H 0.60433 0.77976 0.81346
 H2022 H 0.56982 0.77403 0.81819
 H2023 H 0.57918 0.83758 0.80277
 H2024 H 0.57091 0.81912 0.77361
 C2025 C 0.08953 0.30619 0.80891
 C2026 C 0.09079 0.32697 0.81048
 C2027 C 0.10692 0.33587 0.81946
 C2028 C 0.12214 0.32418 0.82707
 C2029 C 0.12083 0.30340 0.82557
 C2030 C 0.10472 0.29451 0.81660
 C2031 C 0.07263 0.29667 0.79901
 C2032 C 0.06438 0.27911 0.80641
 C2033 C 0.04898 0.26972 0.79670
 C2034 C 0.04147 0.27767 0.77935
 C2035 C 0.04951 0.29541 0.77211
 C2036 C 0.06491 0.30480 0.78183
 H2037 H 0.10741 0.35191 0.82063
 H2038 H 0.13248 0.29400 0.83098
 H2039 H 0.04307 0.25613 0.80272
 H2040 H 0.04409 0.30191 0.75876
 H2041 H 0.10435 0.27848 0.81531
 H2042 H 0.06981 0.27264 0.81977
 H2043 H 0.07919 0.33636 0.80494
 H2044 H 0.07110 0.31818 0.77564
 C2045 C 0.08899 0.80652 0.30918
 C2046 C 0.09021 0.82731 0.31082
 C2047 C 0.10642 0.83622 0.31965
 C2048 C 0.12176 0.82454 0.32704
 C2049 C 0.12045 0.80376 0.32555
 C2050 C 0.10426 0.79486 0.31673
 C2051 C 0.07210 0.79702 0.29927
 C2052 C 0.06391 0.77938 0.30657
 C2053 C 0.04853 0.77001 0.29681
 C2054 C 0.04098 0.77806 0.27953
 C2055 C 0.04896 0.79586 0.27239
 C2056 C 0.06434 0.80523 0.28215
 H2057 H 0.10688 0.85225 0.32083
 H2058 H 0.13218 0.79438 0.33082
 H2059 H 0.04265 0.75636 0.30275
 H2060 H 0.04352 0.80244 0.25909
 H2061 H 0.10392 0.77883 0.31540
 H2062 H 0.06938 0.77284 0.31988
 H2063 H 0.07855 0.83668 0.30540
 H2064 H 0.07049 0.81867 0.27603
 C2065 C 0.58919 0.69274 0.69128
 C2066 C 0.60449 0.70436 0.68373
 C2067 C 0.62068 0.69541 0.67494
 C2068 C 0.62195 0.67463 0.67348
 C2069 C 0.60661 0.66299 0.68092
 C2070 C 0.59040 0.67195 0.68973
 C2071 C 0.57224 0.70232 0.70105
 C2072 C 0.56441 0.69424 0.71820
 C2073 C 0.54899 0.70370 0.72783
 C2074 C 0.54103 0.72145 0.72052
 C2075 C 0.54865 0.72934 0.70319
 C2076 C 0.56408 0.71989 0.69357
 H2077 H 0.63242 0.70477 0.66966
 H2078 H 0.60706 0.64695 0.67978
 H2079 H 0.54348 0.69725 0.74117
 H2080 H 0.54280 0.74295 0.69713
 H2081 H 0.57873 0.66261 0.69517
 H2082 H 0.57053 0.68085 0.72445
 H2083 H 0.60416 0.72039 0.68500
 H2084 H 0.56960 0.72632 0.68024
 C2085 C 0.58951 0.19398 0.19148
 C2086 C 0.60487 0.20552 0.18392
 C2087 C 0.62098 0.19648 0.17508
 C2088 C 0.62212 0.17569 0.17358
 C2089 C 0.60671 0.16414 0.18101
 C2090 C 0.59058 0.17319 0.18986
 C2091 C 0.57267 0.20364 0.20136
 C2092 C 0.56483 0.19551 0.21848
 C2093 C 0.54947 0.20498 0.22820
 C2094 C 0.54159 0.22281 0.22100
 C2095 C 0.54922 0.23078 0.20371
 C2096 C 0.56459 0.22130 0.19401
 H2097 H 0.63278 0.20576 0.16980
 H2098 H 0.60705 0.14810 0.17983
 H2099 H 0.54396 0.19847 0.24150
 H2100 H 0.54343 0.24445 0.19774
 H2101 H 0.57885 0.16391 0.19530
 H2102 H 0.57089 0.18205 0.22465
 H2103 H 0.60465 0.22155 0.18524
 H2104 H 0.57012 0.22778 0.18070
 C2105 C 0.08923 0.69320 0.19182
 C2106 C 0.10440 0.70488 0.18411
 C2107 C 0.12052 0.69601 0.17513
 C2108 C 0.12186 0.67523 0.17364
 C2109 C 0.10668 0.66352 0.18129
 C2110 C 0.09053 0.67241 0.19028
 C2111 C 0.07231 0.70271 0.20169
 C2112 C 0.06456 0.69459 0.21886
 C2113 C 0.04913 0.70397 0.22856
 C2114 C 0.04109 0.72170 0.22130
 C2115 C 0.04863 0.72966 0.20396
 C2116 C 0.06405 0.72027 0.19428
 H2117 H 0.13215 0.70541 0.16969
 H2118 H 0.10719 0.64748 0.18014
 H2119 H 0.04369 0.69747 0.24190
 H2120 H 0.04271 0.74324 0.19793
 H2121 H 0.07896 0.66302 0.19584
 H2122 H 0.07075 0.68121 0.22507
 H2123 H 0.10401 0.72091 0.18538
 H2124 H 0.06949 0.72674 0.18092
 C2125 C 0.08979 0.19249 0.69216
 C2126 C 0.09111 0.17170 0.69061
 C2127 C 0.10727 0.16283 0.68164
 C2128 C 0.12246 0.17455 0.67402
 C2129 C 0.12111 0.19533 0.67553
 C2130 C 0.10497 0.20419 0.68449
 C2131 C 0.07283 0.20199 0.70197
 C2132 C 0.06458 0.21952 0.69449
 C2133 C 0.04914 0.22892 0.70413
 C2134 C 0.04157 0.22101 0.72147
 C2135 C 0.04960 0.20330 0.72878
 C2136 C 0.06506 0.19389 0.71914
 H2137 H 0.10779 0.14679 0.68047
 H2138 H 0.13274 0.20475 0.67012
 H2139 H 0.04323 0.24249 0.69805
 H2140 H 0.04414 0.19683 0.74213
 H2141 H 0.10458 0.22022 0.68577
 H2142 H 0.07005 0.22596 0.68114
 H2143 H 0.07953 0.16230 0.69614
 H2144 H 0.07124 0.18053 0.72538
 C2145 C 0.41014 0.69387 0.30795
 C2146 C 0.40887 0.67309 0.30952
 C2147 C 0.39279 0.66423 0.31863
 C2148 C 0.37765 0.67596 0.32637
 C2149 C 0.37895 0.69673 0.32482
 C2150 C 0.39500 0.70558 0.31572
 C2151 C 0.42703 0.70337 0.29802
 C2152 C 0.43532 0.72091 0.30545
 C2153 C 0.45072 0.73027 0.29574
 C2154 C 0.45820 0.72231 0.27836
 C2155 C 0.45012 0.70460 0.27108
 C2156 C 0.43471 0.69523 0.28081
 H2157 H 0.39232 0.64820 0.31982
 H2158 H 0.36735 0.70616 0.33031
 H2159 H 0.45667 0.74385 0.30179
 H2160 H 0.45552 0.69810 0.25771
 H2161 H 0.39537 0.72161 0.31443
 H2162 H 0.42993 0.72738 0.31883
 H2163 H 0.42042 0.66368 0.30391
 H2164 H 0.42850 0.68186 0.27460
 C2165 C 0.41090 0.19232 0.80833
 C2166 C 0.41018 0.19067 0.82868
 C2167 C 0.39413 0.18176 0.83779
 C2168 C 0.37844 0.17435 0.82674
 C2169 C 0.37919 0.17600 0.80639
 C2170 C 0.39523 0.18486 0.79729
 C2171 C 0.42776 0.20203 0.79858
 C2172 C 0.43550 0.19411 0.78130
 C2173 C 0.45089 0.20363 0.77172
 C2174 C 0.45888 0.22130 0.77918
 C2175 C 0.45133 0.22906 0.79662
 C2176 C 0.43596 0.21951 0.80623
 H2177 H 0.39410 0.18048 0.85348
 H2178 H 0.36717 0.17078 0.79749
 H2179 H 0.45640 0.19721 0.75835
 H2180 H 0.45715 0.24266 0.80274
 H2181 H 0.39519 0.18623 0.78161
 H2182 H 0.42967 0.18051 0.77521
 H2183 H 0.42215 0.19606 0.83755
 H2184 H 0.43017 0.22608 0.81941
 C2185 C 0.91068 0.69191 0.80711
 C2186 C 0.89503 0.68440 0.79608
 C2187 C 0.87895 0.67561 0.80519
 C2188 C 0.87814 0.67410 0.82555
 C2189 C 0.89384 0.68151 0.83659
 C2190 C 0.90993 0.69033 0.82747
 C2191 C 0.92752 0.70167 0.79738
 C2192 C 0.93569 0.71915 0.80508
 C2193 C 0.95105 0.72875 0.79552
 C2194 C 0.95863 0.72106 0.77806
 C2195 C 0.95067 0.70341 0.77053
 C2196 C 0.93528 0.69383 0.78007
 H2197 H 0.86693 0.67037 0.79630
 H2198 H 0.89377 0.68031 0.85228
 H2199 H 0.95683 0.74234 0.80169
 H2200 H 0.95621 0.69705 0.75714
 H2201 H 0.92189 0.69574 0.83634
 H2202 H 0.92988 0.72567 0.81826
 H2203 H 0.89501 0.68571 0.78039
 H2204 H 0.92948 0.68024 0.77393
 C2205 C 0.91073 0.19182 0.30730
 C2206 C 0.91003 0.19003 0.32765
 C2207 C 0.89399 0.18110 0.33672
 C2208 C 0.87826 0.17378 0.32565
 C2209 C 0.87902 0.17547 0.30531
 C2210 C 0.89507 0.18437 0.29624
 C2211 C 0.92753 0.20172 0.29763
 C2212 C 0.93529 0.19405 0.28025
 C2213 C 0.95066 0.20374 0.27079
 C2214 C 0.95860 0.22134 0.27847
 C2215 C 0.95101 0.22886 0.29599
 C2216 C 0.93566 0.21915 0.30547
 H2217 H 0.89395 0.17976 0.35240
 H2218 H 0.86699 0.17030 0.29639
 H2219 H 0.95621 0.19751 0.25735
 H2220 H 0.95678 0.24240 0.30228
 H2221 H 0.89502 0.18582 0.28057
 H2222 H 0.92951 0.18050 0.27400
 H2223 H 0.92200 0.19538 0.33654
 H2224 H 0.92985 0.22554 0.31872
 C2225 C 0.30962 0.30592 0.58879
 C2226 C 0.31153 0.32668 0.58979
 C2227 C 0.32039 0.33567 0.60586
 C2228 C 0.32756 0.32408 0.62129
 C2229 C 0.32587 0.30331 0.62018
 C2230 C 0.31701 0.29433 0.60411
 C2231 C 0.29956 0.29637 0.57208
 C2232 C 0.30673 0.27857 0.56408
 C2233 C 0.29684 0.26922 0.54883
 C2234 C 0.27954 0.27744 0.54124
 C2235 C 0.27252 0.29538 0.54905
 C2236 C 0.28243 0.30474 0.56429
 H2237 H 0.32175 0.35169 0.60617
 H2238 H 0.33095 0.29400 0.63197
 H2239 H 0.30267 0.25545 0.54309
 H2240 H 0.25922 0.30209 0.54357
 H2241 H 0.31548 0.27832 0.60392
 H2242 H 0.32004 0.27190 0.56959
 H2243 H 0.30625 0.33599 0.57808
 H2244 H 0.27640 0.31831 0.57029
 C2245 C 0.30923 0.80644 0.08799
 C2246 C 0.31111 0.82722 0.08882
 C2247 C 0.31997 0.83634 0.10482
 C2248 C 0.32715 0.82489 0.12034
 C2249 C 0.32545 0.80410 0.11940
 C2250 C 0.31660 0.79499 0.10341
 C2251 C 0.29923 0.79674 0.07133
 C2252 C 0.30646 0.77889 0.06349
 C2253 C 0.29662 0.76938 0.04829
 C2254 C 0.27933 0.77750 0.04059
 C2255 C 0.27226 0.79550 0.04824
 C2256 C 0.28210 0.80501 0.06343
 H2257 H 0.32133 0.85237 0.10500
 H2258 H 0.33053 0.79490 0.13127
 H2259 H 0.30250 0.75557 0.04268
 H2260 H 0.25896 0.80213 0.04266
 H2261 H 0.31509 0.77897 0.10335
 H2262 H 0.31976 0.77229 0.06909
 H2263 H 0.30584 0.83642 0.07703
 H2264 H 0.27604 0.81861 0.06930
 C2265 C 0.80981 0.30660 0.08907
 C2266 C 0.81166 0.32738 0.08992
 C2267 C 0.82052 0.33651 0.10591
 C2268 C 0.82772 0.32506 0.12142
 C2269 C 0.82607 0.30427 0.12047
 C2270 C 0.81722 0.29515 0.10448
 C2271 C 0.79980 0.29690 0.07241
 C2272 C 0.80703 0.27907 0.06454
 C2273 C 0.79721 0.26959 0.04932
 C2274 C 0.77990 0.27770 0.04164
 C2275 C 0.77281 0.29566 0.04934
 C2276 C 0.78265 0.30516 0.06454
 H2277 H 0.82185 0.35254 0.10610
 H2278 H 0.83118 0.29507 0.13233
 H2279 H 0.80310 0.25580 0.04368
 H2280 H 0.75949 0.30229 0.04379
 H2281 H 0.81573 0.27913 0.10440
 H2282 H 0.82035 0.27248 0.07012
 H2283 H 0.80637 0.33658 0.07814
 H2284 H 0.77656 0.31874 0.07045
 C2285 C 0.80925 0.80634 0.58868
 C2286 C 0.81114 0.82711 0.58959
 C2287 C 0.82004 0.83618 0.60559
 C2288 C 0.82726 0.82467 0.62105
 C2289 C 0.82555 0.80389 0.62005
 C2290 C 0.81665 0.79483 0.60405
 C2291 C 0.79921 0.79670 0.57201
 C2292 C 0.80642 0.77889 0.56409
 C2293 C 0.79655 0.76943 0.54888
 C2294 C 0.77922 0.77756 0.54127
 C2295 C 0.77216 0.79552 0.54901
 C2296 C 0.78205 0.80498 0.56420
 H2297 H 0.82141 0.85220 0.60582
 H2298 H 0.83066 0.79463 0.63187
 H2299 H 0.80242 0.75565 0.54321
 H2300 H 0.75883 0.80217 0.54351
 H2301 H 0.81514 0.77882 0.60393
 H2302 H 0.81975 0.77228 0.56962
 H2303 H 0.80584 0.83636 0.57784
 H2304 H 0.77599 0.81856 0.57015
 C2305 C 0.30894 0.69416 0.41152
 C2306 C 0.31633 0.70582 0.39626
 C2307 C 0.32511 0.69692 0.38011
 C2308 C 0.32671 0.67614 0.37884
 C2309 C 0.31947 0.66447 0.39417
 C2310 C 0.31068 0.67338 0.41033
 C2311 C 0.29906 0.70366 0.42837
 C2312 C 0.28190 0.69539 0.43621
 C2313 C 0.27214 0.70477 0.45154
 C2314 C 0.27932 0.72263 0.45939
 C2315 C 0.29666 0.73072 0.45176
 C2316 C 0.30641 0.72135 0.43642
 H2317 H 0.33025 0.70630 0.36839
 H2318 H 0.32075 0.64844 0.39373
 H2319 H 0.25881 0.69816 0.45705
 H2320 H 0.30262 0.74442 0.45752
 H2321 H 0.30538 0.66401 0.42198
 H2322 H 0.27574 0.68191 0.43017
 H2323 H 0.31491 0.72184 0.39658
 H2324 H 0.31974 0.72794 0.43088
 C2325 C 0.30957 0.19318 0.91184
 C2326 C 0.31149 0.17242 0.91084
 C2327 C 0.32040 0.16344 0.89478
 C2328 C 0.32757 0.17504 0.87936
 C2329 C 0.32582 0.19581 0.88046
 C2330 C 0.31692 0.20478 0.89652
 C2331 C 0.29956 0.20274 0.92859
 C2332 C 0.30678 0.22051 0.93657
 C2333 C 0.29696 0.22989 0.95185
 C2334 C 0.27967 0.22171 0.95950
 C2335 C 0.27260 0.20378 0.95171
 C2336 C 0.28244 0.19440 0.93644
 H2337 H 0.32180 0.14742 0.89448
 H2338 H 0.33089 0.20512 0.86867
 H2339 H 0.30284 0.24365 0.95756
 H2340 H 0.25930 0.19711 0.95725
 H2341 H 0.31537 0.22079 0.89670
 H2342 H 0.32009 0.22716 0.93101
 H2343 H 0.30623 0.16311 0.92256
 H2344 H 0.27638 0.18085 0.93046
 C2345 C 0.80918 0.69408 0.91035
 C2346 C 0.81109 0.67330 0.90956
 C2347 C 0.82000 0.66414 0.89360
 C2348 C 0.82720 0.67556 0.87807
 C2349 C 0.82548 0.69635 0.87896
 C2350 C 0.81658 0.70550 0.89491
 C2351 C 0.79913 0.70380 0.92697
 C2352 C 0.80630 0.72167 0.93480
 C2353 C 0.79645 0.73115 0.95001
 C2354 C 0.77919 0.72299 0.95773
 C2355 C 0.77214 0.70500 0.95006
 C2356 C 0.78200 0.69551 0.93486
 H2357 H 0.82138 0.64812 0.89346
 H2358 H 0.83059 0.70553 0.86708
 H2359 H 0.80231 0.74495 0.95563
 H2360 H 0.75886 0.69833 0.95564
 H2361 H 0.81505 0.72151 0.89494
 H2362 H 0.81960 0.72828 0.92920
 H2363 H 0.80581 0.66412 0.92136
 H2364 H 0.77597 0.68190 0.92899
 C2365 C 0.80980 0.19335 0.41086
 C2366 C 0.81159 0.17256 0.40991
 C2367 C 0.82035 0.16348 0.39383
 C2368 C 0.82751 0.17497 0.37833
 C2369 C 0.82589 0.19576 0.37938
 C2370 C 0.81714 0.20484 0.39545
 C2371 C 0.79989 0.20301 0.42761
 C2372 C 0.80717 0.22081 0.43548
 C2373 C 0.79740 0.23029 0.45075
 C2374 C 0.78011 0.22219 0.45848
 C2375 C 0.77299 0.20423 0.45079
 C2376 C 0.78277 0.19475 0.43554
 H2377 H 0.82165 0.14745 0.39356
 H2378 H 0.83097 0.20501 0.36753
 H2379 H 0.80331 0.24407 0.45638
 H2380 H 0.75969 0.19761 0.45638
 H2381 H 0.81569 0.22086 0.39560
 H2382 H 0.82047 0.22740 0.42986
 H2383 H 0.80634 0.16332 0.42168
 H2384 H 0.77665 0.18119 0.42963
 C2385 C 0.69226 0.30747 0.41044
 C2386 C 0.68475 0.29585 0.39518
 C2387 C 0.67588 0.30480 0.37914
 C2388 C 0.67430 0.32558 0.37797
 C2389 C 0.68170 0.33721 0.39327
 C2390 C 0.69058 0.32825 0.40933
 C2391 C 0.70212 0.29789 0.42723
 C2392 C 0.71932 0.30607 0.43509
 C2393 C 0.72902 0.29664 0.45040
 C2394 C 0.72174 0.27882 0.45821
 C2395 C 0.70438 0.27081 0.45055
 C2396 C 0.69468 0.28024 0.43524
 H2397 H 0.67062 0.29546 0.36743
 H2398 H 0.68045 0.35324 0.39290
 H2399 H 0.74238 0.30318 0.45594
 H2400 H 0.69833 0.25715 0.45628
 H2401 H 0.69598 0.33758 0.42099
 H2402 H 0.72554 0.31953 0.42909
 H2403 H 0.68612 0.27983 0.39543
 H2404 H 0.68131 0.27373 0.42969
 C2405 C 0.69100 0.80776 0.91005
 C2406 C 0.68357 0.79603 0.89483
 C2407 C 0.67476 0.80487 0.87869
 C2408 C 0.67316 0.82564 0.87738
 C2409 C 0.68046 0.83738 0.89265
 C2410 C 0.68929 0.82853 0.90881
 C2411 C 0.70086 0.79831 0.92692
 C2412 C 0.71802 0.80658 0.93476
 C2413 C 0.72776 0.79722 0.95009
 C2414 C 0.72055 0.77939 0.95794
 C2415 C 0.70320 0.77131 0.95032
 C2416 C 0.69347 0.78067 0.93499
 H2417 H 0.66958 0.79544 0.86701
 H2418 H 0.67919 0.85340 0.89218
 H2419 H 0.74112 0.80381 0.95560
 H2420 H 0.69721 0.75764 0.95609
 H2421 H 0.69462 0.83795 0.92042
 H2422 H 0.72421 0.82003 0.92871
 H2423 H 0.68497 0.78002 0.89518
 H2424 H 0.68012 0.77409 0.92946
 C2425 C 0.19165 0.30644 0.91154
 C2426 C 0.18415 0.29471 0.89636
 C2427 C 0.17528 0.30353 0.88025
 C2428 C 0.17369 0.32430 0.87892
 C2429 C 0.18109 0.33605 0.89414
 C2430 C 0.18998 0.32721 0.91027
 C2431 C 0.20150 0.29699 0.92841
 C2432 C 0.21869 0.30521 0.93623
 C2433 C 0.22840 0.29586 0.95160
 C2434 C 0.22112 0.27808 0.95949
 C2435 C 0.20374 0.27005 0.95189
 C2436 C 0.19405 0.27939 0.93653
 H2437 H 0.17002 0.29409 0.86861
 H2438 H 0.17984 0.35208 0.89366
 H2439 H 0.24177 0.30242 0.95709
 H2440 H 0.19770 0.25641 0.95769
 H2441 H 0.19537 0.33664 0.92186
 H2442 H 0.22492 0.31863 0.93016
 H2443 H 0.18552 0.27869 0.89673
 H2444 H 0.18068 0.27285 0.93101
 C2445 C 0.19202 0.80731 0.41083
 C2446 C 0.19056 0.82809 0.40934
 C2447 C 0.18168 0.83683 0.39315
 C2448 C 0.17406 0.82498 0.37812
 C2449 C 0.17550 0.80422 0.37964
 C2450 C 0.18438 0.79549 0.39580
 C2451 C 0.20174 0.79794 0.42783
 C2452 C 0.19410 0.78049 0.43609
 C2453 C 0.20367 0.77120 0.45156
 C2454 C 0.22110 0.77914 0.45913
 C2455 C 0.22856 0.79678 0.45110
 C2456 C 0.21898 0.80608 0.43563
 H2457 H 0.18056 0.85286 0.39250
 H2458 H 0.17009 0.79470 0.36813
 H2459 H 0.19749 0.75768 0.45746
 H2460 H 0.24198 0.80327 0.45657
 H2461 H 0.18560 0.77946 0.39633
 H2462 H 0.18068 0.77403 0.43061
 H2463 H 0.19608 0.83759 0.42080
 H2464 H 0.22535 0.81937 0.42944
 C2465 C 0.69228 0.69188 0.58971
 C2466 C 0.67181 0.69020 0.59072
 C2467 C 0.66288 0.68134 0.60682
 C2468 C 0.67425 0.67401 0.62226
 C2469 C 0.69472 0.67568 0.62121
 C2470 C 0.70363 0.68449 0.60512
 C2471 C 0.70184 0.70155 0.57280
 C2472 C 0.71913 0.69362 0.56489
 C2473 C 0.72859 0.70313 0.54949
 C2474 C 0.72101 0.72081 0.54168
 C2475 C 0.70355 0.72858 0.54939
 C2476 C 0.69405 0.71903 0.56477
 H2477 H 0.64709 0.68002 0.60709
 H2478 H 0.70387 0.67052 0.63302
 H2479 H 0.74197 0.69671 0.54384
 H2480 H 0.69733 0.74219 0.54371
 H2481 H 0.71942 0.68589 0.60492
 H2482 H 0.72533 0.68002 0.57059
 H2483 H 0.66270 0.69554 0.57895
 H2484 H 0.68087 0.72560 0.57069
 C2485 C 0.69263 0.19235 0.08979
 C2486 C 0.67214 0.19080 0.09079
 C2487 C 0.66314 0.18204 0.10691
 C2488 C 0.67445 0.17469 0.12238
 C2489 C 0.69494 0.17623 0.12135
 C2490 C 0.70392 0.18494 0.10524
 C2491 C 0.70227 0.20192 0.07288
 C2492 C 0.71954 0.19390 0.06502
 C2493 C 0.72909 0.20334 0.04963
 C2494 C 0.72160 0.22104 0.04177
 C2495 C 0.70414 0.22888 0.04941
 C2496 C 0.69457 0.21941 0.06478
 H2497 H 0.64734 0.18083 0.10717
 H2498 H 0.70404 0.17105 0.13318
 H2499 H 0.74247 0.19686 0.04404
 H2500 H 0.69800 0.24251 0.04369
 H2501 H 0.71971 0.18624 0.10506
 H2502 H 0.72567 0.18028 0.07077
 H2503 H 0.66307 0.19616 0.07900
 H2504 H 0.68140 0.22605 0.07065
 C2505 C 0.19111 0.69294 0.08890
 C2506 C 0.18940 0.67217 0.09017
 C2507 C 0.18052 0.66336 0.10631
 C2508 C 0.17317 0.67513 0.12154
 C2509 C 0.17476 0.69589 0.12020
 C2510 C 0.18362 0.70469 0.10407
 C2511 C 0.20101 0.70234 0.07203
 C2512 C 0.19362 0.71995 0.06389
 C2513 C 0.20336 0.72924 0.04853
 C2514 C 0.22072 0.72114 0.04095
 C2515 C 0.22795 0.70335 0.04889
 C2516 C 0.21820 0.69406 0.06425
 H2517 H 0.17926 0.64733 0.10681
 H2518 H 0.16954 0.70534 0.13185
 H2519 H 0.19735 0.74288 0.04269
 H2520 H 0.24131 0.69674 0.04342
 H2521 H 0.18502 0.72071 0.10369
 H2522 H 0.18025 0.72654 0.06938
 H2523 H 0.19478 0.66273 0.07858
 H2524 H 0.22439 0.68064 0.07036
 C2525 C 0.19162 0.19263 0.58935
 C2526 C 0.18415 0.20431 0.60459
 C2527 C 0.17535 0.19542 0.62071
 C2528 C 0.17381 0.17465 0.62198
 C2529 C 0.18116 0.16296 0.60669
 C2530 C 0.18997 0.17185 0.59055
 C2531 C 0.20141 0.20214 0.57247
 C2532 C 0.21858 0.19394 0.56457
 C2533 C 0.22824 0.20334 0.54921
 C2534 C 0.22094 0.22115 0.54140
 C2535 C 0.20359 0.22917 0.54909
 C2536 C 0.19394 0.21978 0.56445
 H2537 H 0.17013 0.20482 0.63240
 H2538 H 0.17994 0.14692 0.60713
 H2539 H 0.24159 0.19678 0.54365
 H2540 H 0.19753 0.24283 0.54335
 H2541 H 0.19534 0.16247 0.57892
 H2542 H 0.22483 0.18050 0.57058
 H2543 H 0.18550 0.22033 0.60427
 H2544 H 0.18059 0.22631 0.57003
   
