data_POSCAR
  _audit_creation_date              2014-09-24
  _audit_creation_method            'ToBaCCo'
  _symmetry_space_group_name_H-M    'P1'
  _symmetry_Int_Tables_number       1
  _symmetry_cell_setting            triclinic
  loop_
  _symmetry_equiv_pos_as_xyz
 x,y,z
_cell_length_a 62.9679
_cell_length_b 62.9679
_cell_length_c 62.9679
_cell_angle_alpha 90.000000
_cell_angle_beta 90.000000
_cell_angle_gamma 90.000000
loop_
  _atom_site_label
  _atom_site_type_symbol
  _atom_site_fract_x
  _atom_site_fract_y
  _atom_site_fract_z
N1 N 0.17062 0.22366 0.22814
 N2 N 0.17578 0.20695 0.23976
 C3 C 0.16106 0.20538 0.25616
 C4 C 0.14544 0.22192 0.25539
 C5 C 0.15285 0.23283 0.23691
 H6 H 0.16162 0.19313 0.26818
 H7 H 0.14553 0.24681 0.23018
 Cu8 Cu 0.20274 0.18946 0.23059
 Cu9 Cu 0.18845 0.23238 0.20153
 Cu10 Cu 0.23329 0.20158 0.18799
 N11 N 0.22927 0.17056 0.22328
 N12 N 0.24115 0.17517 0.20659
 C13 C 0.25740 0.16034 0.20537
 C14 C 0.25641 0.14509 0.22215
 C15 C 0.23789 0.15286 0.23285
 H16 H 0.26948 0.16060 0.19316
 H17 H 0.23110 0.14579 0.24694
 N18 N 0.22425 0.22852 0.17002
 N19 N 0.20733 0.24016 0.17483
 C20 C 0.20586 0.25642 0.15998
 C21 C 0.22258 0.25569 0.14464
 C22 C 0.23356 0.23736 0.15230
 H23 H 0.19353 0.26836 0.16026
 H24 H 0.24771 0.23082 0.14514
 H25 H 0.20093 0.20316 0.19331
 H26 H 0.21761 0.22009 0.21008
 N27 N 0.67244 0.72549 0.73102
 N28 N 0.67781 0.70881 0.74264
 C29 C 0.66310 0.70714 0.75906
 C30 C 0.64730 0.72358 0.75835
 C31 C 0.65461 0.73452 0.73986
 H32 H 0.66379 0.69492 0.77111
 H33 H 0.64714 0.74843 0.73315
 Cu34 Cu 0.70503 0.69140 0.73349
 Cu35 Cu 0.68993 0.73450 0.70424
 Cu36 Cu 0.73451 0.70415 0.69029
 N37 N 0.73199 0.67279 0.72586
 N38 N 0.74280 0.67784 0.70856
 C39 C 0.75885 0.66321 0.70592
 C40 C 0.75941 0.64772 0.72238
 C41 C 0.74153 0.65489 0.73459
 H42 H 0.76966 0.66351 0.69257
 H43 H 0.73551 0.64688 0.74854
 N44 N 0.72541 0.73096 0.67236
 N45 N 0.70852 0.74256 0.67730
 C46 C 0.70701 0.75885 0.66245
 C47 C 0.72370 0.75817 0.64701
 C48 C 0.73467 0.73983 0.65463
 H49 H 0.69469 0.77081 0.66282
 H50 H 0.74880 0.73331 0.64742
 H51 H 0.70223 0.70527 0.69630
 H52 H 0.71908 0.72237 0.71285
 N53 N 0.32582 0.77435 0.73336
 N54 N 0.31894 0.79113 0.74397
 C55 C 0.33235 0.79412 0.76107
 C56 C 0.34918 0.77884 0.76200
 C57 C 0.34383 0.76671 0.74354
 H58 H 0.33027 0.80687 0.77239
 H59 H 0.35244 0.75284 0.73823
 Cu60 Cu 0.29245 0.80838 0.73297
 Cu61 Cu 0.30895 0.76421 0.70648
 Cu62 Cu 0.26429 0.79333 0.68931
 N63 N 0.26498 0.82549 0.72438
 N64 N 0.25481 0.82008 0.70681
 C65 C 0.23863 0.83454 0.70364
 C66 C 0.23743 0.85023 0.72002
 C67 C 0.25501 0.84333 0.73271
 H68 H 0.22815 0.83396 0.69005
 H69 H 0.26058 0.85153 0.74674
 N70 N 0.27475 0.76603 0.67239
 N71 N 0.29118 0.75480 0.67940
 C72 C 0.29352 0.73746 0.66616
 C73 C 0.27838 0.73699 0.64923
 C74 C 0.26691 0.75594 0.65438
 H75 H 0.30563 0.72552 0.66852
 H76 H 0.25320 0.76153 0.64569
 H77 H 0.29636 0.79286 0.69640
 H78 H 0.27916 0.77648 0.71326
 N79 N 0.82803 0.27538 0.23331
 N80 N 0.82089 0.29223 0.24362
 C81 C 0.83390 0.29547 0.26096
 C82 C 0.85086 0.28033 0.26237
 C83 C 0.84599 0.26802 0.24385
 H84 H 0.83148 0.30846 0.27190
 H85 H 0.85489 0.25425 0.23873
 Cu86 Cu 0.79476 0.30946 0.23192
 Cu87 Cu 0.81126 0.26477 0.20639
 Cu88 Cu 0.76591 0.29301 0.18939
 N89 N 0.76743 0.32659 0.22309
 N90 N 0.75619 0.31978 0.20670
 C91 C 0.73903 0.33318 0.20426
 C92 C 0.73874 0.35010 0.21942
 C93 C 0.75761 0.34473 0.23094
 H94 H 0.72718 0.33095 0.19203
 H95 H 0.76340 0.35342 0.24458
 N96 N 0.77662 0.26577 0.17257
 N97 N 0.79347 0.25501 0.17931
 C98 C 0.79612 0.23782 0.16590
 C99 C 0.78072 0.23696 0.14918
 C100 C 0.76881 0.25555 0.15461
 H101 H 0.80866 0.22628 0.16798
 H102 H 0.75490 0.26088 0.14606
 H103 H 0.79812 0.29291 0.19575
 H104 H 0.78151 0.27684 0.21344
 N105 N 0.82658 0.72428 0.26789
 N106 N 0.82131 0.70716 0.25694
 C107 C 0.83602 0.70514 0.24052
 C108 C 0.85170 0.72178 0.24065
 C109 C 0.84430 0.73319 0.25877
 H110 H 0.83534 0.69261 0.22880
 H111 H 0.85158 0.74742 0.26500
 Cu112 Cu 0.79369 0.69025 0.26652
 Cu113 Cu 0.80895 0.73429 0.29390
 Cu114 Cu 0.76482 0.70493 0.31048
 N115 N 0.76718 0.67180 0.27617
 N116 N 0.75603 0.67808 0.29285
 C117 C 0.73909 0.66440 0.29528
 C118 C 0.73869 0.64783 0.27977
 C119 C 0.75736 0.65372 0.26805
 H120 H 0.72740 0.66629 0.30772
 H121 H 0.76295 0.64549 0.25406
 N122 N 0.77475 0.73238 0.32755
 N123 N 0.79130 0.74351 0.32076
 C124 C 0.79380 0.76074 0.33406
 C125 C 0.77853 0.76137 0.35080
 C126 C 0.76686 0.74253 0.34553
 H127 H 0.80616 0.77245 0.33189
 H128 H 0.75307 0.73702 0.35414
 H129 H 0.79678 0.70517 0.30327
 H130 H 0.77936 0.72163 0.28654
 N131 N 0.32590 0.22408 -0.23424
 N132 N 0.32045 0.20618 -0.24376
 C133 C 0.33510 0.20237 -0.25962
 C134 C 0.35082 0.21869 -0.26124
 C135 C 0.34378 0.23208 -0.24433
 H136 H 0.33471 0.18836 -0.26954
 H137 H 0.35187 0.24635 -0.23923
 Cu138 Cu 0.29395 0.18897 -0.23297
 Cu139 Cu 0.30876 0.23391 -0.20756
 Cu140 Cu 0.26423 0.20419 -0.19045
 N141 N 0.26637 0.17186 -0.22516
 N142 N 0.25525 0.17715 -0.20813
 C143 C 0.23855 0.16288 -0.20629
 C144 C 0.23850 0.14726 -0.22284
 C145 C 0.25664 0.15447 -0.23443
 H146 H 0.22652 0.16408 -0.19410
 H147 H 0.26220 0.14730 -0.24902
 N148 N 0.27450 0.23183 -0.17360
 N149 N 0.29087 0.24311 -0.18068
 C150 C 0.29339 0.26040 -0.16746
 C151 C 0.27837 0.26097 -0.15049
 C152 C 0.26681 0.24199 -0.15553
 H153 H 0.30563 0.27219 -0.16983
 H154 H 0.25326 0.23633 -0.14663
 H155 H 0.29636 0.20537 -0.19670
 H156 H 0.27921 0.22084 -0.21439
 N157 N 0.67200 0.27480 -0.23321
 N158 N 0.67904 0.29131 -0.24417
 C159 C 0.66573 0.29408 -0.26137
 C160 C 0.64874 0.27898 -0.26209
 C161 C 0.65393 0.26716 -0.24333
 H162 H 0.66812 0.30646 -0.27302
 H163 H 0.64518 0.25345 -0.23781
 Cu164 Cu 0.70661 0.30769 -0.23462
 Cu165 Cu 0.68903 0.26466 -0.20616
 Cu166 Cu 0.73460 0.29345 -0.19124
 N167 N 0.73273 0.32654 -0.22507
 N168 N 0.74366 0.32030 -0.20828
 C169 C 0.76052 0.33396 -0.20555
 C170 C 0.76111 0.35049 -0.22105
 C171 C 0.74263 0.34461 -0.23307
 H172 H 0.77201 0.33207 -0.19294
 H173 H 0.73726 0.35281 -0.24717
 N174 N 0.72452 0.26675 -0.17380
 N175 N 0.70737 0.25563 -0.17899
 C176 C 0.70550 0.23922 -0.16424
 C177 C 0.72217 0.23940 -0.14863
 C178 C 0.73349 0.25757 -0.15610
 H179 H 0.69298 0.22748 -0.16481
 H180 H 0.74768 0.26379 -0.14876
 H181 H 0.70225 0.29350 -0.19777
 H182 H 0.71867 0.27575 -0.21402
 N183 N 0.17191 0.77485 0.26743
 N184 N 0.17896 0.79139 0.25649
 C185 C 0.16573 0.79407 0.23920
 C186 C 0.14879 0.77892 0.23848
 C187 C 0.15391 0.76715 0.25726
 H188 H 0.16811 0.80643 0.22752
 H189 H 0.14518 0.75341 0.26275
 Cu190 Cu 0.20605 0.80812 0.26687
 Cu191 Cu 0.18876 0.76468 0.29459
 Cu192 Cu 0.23411 0.79378 0.30976
 N193 N 0.23296 0.82637 0.27544
 N194 N 0.24395 0.82000 0.29215
 C195 C 0.26102 0.83341 0.29472
 C196 C 0.26170 0.84994 0.27923
 C197 C 0.24302 0.84433 0.26737
 H198 H 0.27252 0.83143 0.30731
 H199 H 0.23755 0.85269 0.25340
 N200 N 0.22423 0.76690 0.32703
 N201 N 0.20707 0.75579 0.32182
 C202 C 0.20513 0.73940 0.33656
 C203 C 0.22179 0.73955 0.35214
 C204 C 0.23318 0.75769 0.34472
 H205 H 0.19257 0.72770 0.33600
 H206 H 0.24737 0.76387 0.35209
 H207 H 0.20171 0.79318 0.30346
 H208 H 0.21835 0.77605 0.28687
 N209 N 0.47546 0.42112 0.48098
 N210 N 0.45799 0.42641 0.49139
 C211 C 0.45503 0.41180 0.50747
 C212 C 0.47143 0.39614 0.50838
 C213 C 0.48397 0.40323 0.49074
 H214 H 0.44156 0.41223 0.51812
 H215 H 0.49804 0.39523 0.48502
 Cu216 Cu 0.44054 0.45318 0.48195
 Cu217 Cu 0.48422 0.43907 0.45396
 Cu218 Cu 0.45254 0.48366 0.43981
 N219 N 0.42119 0.47942 0.47488
 N220 N 0.42574 0.49148 0.45831
 C221 C 0.41064 0.50756 0.45726
 C222 C 0.39527 0.50623 0.47402
 C223 C 0.40333 0.48770 0.48451
 H224 H 0.41073 0.51973 0.44515
 H225 H 0.39637 0.48068 0.49853
 N226 N 0.47979 0.47482 0.42190
 N227 N 0.49178 0.45817 0.42692
 C228 C 0.50806 0.45694 0.41200
 C229 C 0.50701 0.47350 0.39638
 C230 C 0.48842 0.48411 0.40402
 H231 H 0.52025 0.44485 0.41237
 H232 H 0.48154 0.49799 0.39667
 H233 H 0.47143 0.46818 0.46188
 H234 H 0.45509 0.45122 0.44498
 N235 N -0.02467 -0.07886 0.97933
 N236 N -0.04143 -0.07406 0.99106
 C237 C -0.04271 -0.08897 1.00734
 C238 C -0.02594 -0.10440 1.00643
 C239 C -0.01520 -0.09660 0.98797
 H240 H -0.05497 -0.08873 1.01936
 H241 H -0.00111 -0.10364 0.98117
 Cu242 Cu -0.05946 -0.04718 0.98221
 Cu243 Cu -0.01648 -0.06066 0.95262
 Cu244 Cu -0.04871 -0.01682 0.93927
 N245 N -0.07893 -0.02072 0.97533
 N246 N -0.07482 -0.00874 0.95855
 C247 C -0.09002 0.00726 0.95764
 C248 C -0.10503 0.00601 0.97470
 C249 C -0.09664 -0.01241 0.98524
 H250 H -0.09029 0.01924 0.94533
 H251 H -0.10324 -0.01941 0.99944
 N252 N -0.02140 -0.02486 0.92099
 N253 N -0.00926 -0.04144 0.92582
 C254 C 0.00694 -0.04255 0.91083
 C255 C 0.00571 -0.02599 0.89530
 C256 C -0.01291 -0.01546 0.90308
 H257 H 0.01914 -0.05463 0.91108
 H258 H -0.01991 -0.00160 0.89579
 H259 H -0.02945 -0.03178 0.96117
 H260 H -0.04602 -0.04914 0.94479
 N261 N 1.02670 0.57783 0.98113
 N262 N 1.04446 0.57263 0.99110
 C263 C 1.04770 0.58720 1.00716
 C264 C 1.03122 0.60275 1.00850
 C265 C 1.01830 0.59562 0.99116
 H266 H 1.06136 0.58676 1.01756
 H267 H 1.00398 0.60349 0.98588
 Cu268 Cu 1.06172 0.54587 0.98123
 Cu269 Cu 1.01725 0.55985 0.95438
 Cu270 Cu 1.04763 0.51433 0.94066
 N271 N 1.08094 0.51964 0.97357
 N272 N 1.07517 0.50668 0.95809
 C273 C 1.08994 0.49028 0.95704
 C274 C 1.10670 0.49268 0.97229
 C275 C 1.09959 0.51197 0.98213
 H276 H 1.08896 0.47749 0.94563
 H277 H 1.10753 0.51977 0.99518
 N278 N 1.02057 0.52362 0.92269
 N279 N 1.00904 0.54063 0.92759
 C280 C 0.99268 0.54208 0.91277
 C281 C 0.99320 0.52534 0.89733
 C282 C 1.01158 0.51434 0.90498
 H283 H 0.98082 0.55450 0.91307
 H284 H 1.01803 0.50018 0.89778
 H285 H 1.02974 0.53091 0.96282
 H286 H 1.04589 0.54692 0.94483
 N287 N 0.52754 0.07842 0.48049
 N288 N 0.54537 0.07333 0.49035
 C289 C 0.54876 0.08819 0.50615
 C290 C 0.53219 0.10367 0.50740
 C291 C 0.51920 0.09632 0.49026
 H292 H 0.56260 0.08807 0.51632
 H293 H 0.50497 0.10424 0.48479
 Cu294 Cu 0.56239 0.04636 0.48036
 Cu295 Cu 0.51851 0.06058 0.45375
 Cu296 Cu 0.54787 0.01492 0.43927
 N297 N 0.58116 0.01994 0.47242
 N298 N 0.57560 0.00726 0.45660
 C299 C 0.59039 -0.00915 0.45558
 C300 C 0.60675 -0.00712 0.47134
 C301 C 0.59950 0.01200 0.48133
 H302 H 0.58955 -0.02182 0.44402
 H303 H 0.60712 0.01957 0.49469
 N304 N 0.52064 0.02461 0.42140
 N305 N 0.50935 0.04140 0.42754
 C306 C 0.49225 0.04330 0.41396
 C307 C 0.49191 0.02751 0.39769
 C308 C 0.51071 0.01609 0.40357
 H309 H 0.48038 0.05560 0.41562
 H310 H 0.51629 0.00197 0.39555
 H311 H 0.53060 0.03134 0.46184
 H312 H 0.54692 0.04716 0.44382
 N313 N -0.02736 0.08022 0.51727
 N314 N -0.04492 0.07470 0.50716
 C315 C -0.04816 0.08915 0.49098
 C316 C -0.03181 0.10486 0.48972
 C317 C -0.01903 0.09801 0.50724
 H318 H -0.06180 0.08862 0.48056
 H319 H -0.00497 0.10619 0.51276
 Cu320 Cu -0.06260 0.04838 0.51767
 Cu321 Cu -0.01879 0.06312 0.54460
 Cu322 Cu -0.04844 0.01792 0.55969
 N323 N -0.08007 0.02086 0.52475
 N324 N -0.07495 0.00873 0.54113
 C325 C -0.08971 -0.00773 0.54217
 C326 C -0.10536 -0.00653 0.52556
 C327 C -0.09783 0.01232 0.51526
 H328 H -0.08933 -0.01991 0.55426
 H329 H -0.10515 0.01958 0.50156
 N330 N -0.02063 0.02719 0.57694
 N331 N -0.01001 0.04460 0.57139
 C332 C 0.00608 0.04763 0.58600
 C333 C 0.00688 0.03147 0.60188
 C334 C -0.01082 0.01893 0.59495
 H335 H 0.01679 0.06103 0.58547
 H336 H -0.01658 0.00504 0.60325
 H337 H -0.03116 0.03372 0.53680
 H338 H -0.04727 0.05020 0.55444
 N339 N 0.47305 0.57925 0.01746
 N340 N 0.45559 0.57328 0.00740
 C341 C 0.45210 0.58755 -0.00890
 C342 C 0.46813 0.60362 -0.01021
 C343 C 0.48102 0.59714 0.00733
 H344 H 0.43861 0.58654 -0.01948
 H345 H 0.49503 0.60551 0.01268
 Cu346 Cu 0.43921 0.54595 0.01762
 Cu347 Cu 0.48295 0.56225 0.04443
 Cu348 Cu 0.45459 0.51633 0.05980
 N349 N 0.42114 0.51899 0.02583
 N350 N 0.42778 0.50730 0.04199
 C351 C 0.41430 0.49013 0.04386
 C352 C 0.39754 0.49022 0.02851
 C353 C 0.40309 0.50936 0.01749
 H354 H 0.41642 0.47795 0.05579
 H355 H 0.39470 0.51539 0.00378
 N356 N 0.48186 0.52656 0.07704
 N357 N 0.49200 0.54423 0.07152
 C358 C 0.50804 0.54755 0.08614
 C359 C 0.50925 0.53131 0.10197
 C360 C 0.49187 0.51842 0.09498
 H361 H 0.51850 0.56116 0.08558
 H362 H 0.48651 0.50429 0.10313
 H363 H 0.47142 0.53249 0.03681
 H364 H 0.45468 0.54867 0.05420
 N365 N 0.52466 -0.07878 0.02038
 N366 N 0.54123 -0.07327 0.00873
 C367 C 0.54265 -0.08784 -0.00789
 C368 C 0.52611 -0.10361 -0.00722
 C369 C 0.51545 -0.09646 0.01146
 H370 H 0.55488 -0.08717 -0.01993
 H371 H 0.50163 -0.10396 0.01830
 Cu372 Cu 0.55928 -0.04647 0.01860
 Cu373 Cu 0.51629 -0.06195 0.04750
 Cu374 Cu 0.54517 -0.01681 0.06216
 N375 N 0.57705 -0.01900 0.02679
 N376 N 0.57171 -0.00824 0.04406
 C377 C 0.58630 0.00785 0.04691
 C378 C 0.60212 0.00849 0.03067
 C379 C 0.59507 -0.00936 0.01833
 H380 H 0.58574 0.01866 0.06024
 H381 H 0.60324 -0.01530 0.00445
 N382 N 0.51805 -0.02645 0.07978
 N383 N 0.50764 -0.04395 0.07436
 C384 C 0.49164 -0.04709 0.08901
 C385 C 0.49073 -0.03085 0.10478
 C386 C 0.50827 -0.01817 0.09776
 H387 H 0.48101 -0.06056 0.08852
 H388 H 0.51388 -0.00413 0.10590
 H389 H 0.52811 -0.03244 0.03893
 H390 H 0.54536 -0.04885 0.05589
 N391 N 1.02443 0.42189 0.51843
 N392 N 1.04169 0.42797 0.50808
 C393 C 1.04482 0.41372 0.49164
 C394 C 1.02864 0.39773 0.49053
 C395 C 1.01621 0.40410 0.50839
 H396 H 1.05823 0.41459 0.48096
 H397 H 1.00243 0.39560 0.51413
 Cu398 Cu 1.05853 0.45514 0.51853
 Cu399 Cu 1.01517 0.43828 0.54584
 Cu400 Cu 1.04470 0.48280 0.56257
 N401 N 1.07679 0.48203 0.52728
 N402 N 1.07154 0.49187 0.54510
 C403 C 1.08606 0.50784 0.54864
 C404 C 1.10175 0.50944 0.53226
 C405 C 1.09451 0.49235 0.51895
 H406 H 1.08509 0.51818 0.56230
 H407 H 1.10228 0.48744 0.50444
 N408 N 1.01734 0.47276 0.57951
 N409 N 1.00668 0.45560 0.57342
 C410 C 0.99057 0.45226 0.58792
 C411 C 0.98986 0.46804 0.60419
 C412 C 1.00760 0.48063 0.59767
 H413 H 0.97972 0.43899 0.58698
 H414 H 1.01337 0.49432 0.60628
 H415 H 1.02708 0.46814 0.53913
 H416 H 1.04397 0.45084 0.55531
 C417 C 0.35978 0.01875 0.24688
 C418 C 0.34818 -0.00290 0.25056
 C419 C 0.36012 -0.02076 0.25465
 C420 C 0.38515 -0.01435 0.25431
 C421 C 0.37467 0.02078 0.26665
 C422 C 0.38841 0.00435 0.27163
 C423 C 0.37583 0.01363 0.22839
 C424 C 0.38951 -0.00357 0.23127
 H425 H 0.33102 -0.00359 0.25031
 H426 H 0.39569 -0.02809 0.25747
 H427 H 0.37413 0.03500 0.27630
 H428 H 0.37580 0.02269 0.21380
 C429 C 0.13719 -0.02022 0.74407
 C430 C 0.14989 0.00080 0.74811
 C431 C 0.13872 0.01922 0.75202
 C432 C 0.11354 0.01411 0.75125
 C433 C 0.12218 -0.02186 0.76410
 C434 C 0.10908 -0.00451 0.76857
 C435 C 0.12098 -0.01405 0.72585
 C436 C 0.10839 0.00372 0.72844
 H437 H 0.16704 0.00101 0.74711
 H438 H 0.10405 0.02862 0.75409
 H439 H 0.12155 -0.03623 0.77346
 H440 H 0.11949 -0.02365 0.71168
 C441 C 0.63813 0.47883 0.24517
 C442 C 0.65135 0.49961 0.24922
 C443 C 0.64032 0.51830 0.25295
 C444 C 0.61499 0.51350 0.25199
 C445 C 0.62271 0.47768 0.26489
 C446 C 0.61000 0.49515 0.26932
 C447 C 0.62270 0.48534 0.22650
 C448 C 0.61007 0.50313 0.22906
 H449 H 0.66850 0.49927 0.24954
 H450 H 0.60548 0.52802 0.25460
 H451 H 0.62181 0.46339 0.27436
 H452 H 0.62225 0.47631 0.21190
 C453 C 0.86062 0.51941 0.74648
 C454 C 0.84810 0.49822 0.75016
 C455 C 0.85941 0.47994 0.75428
 C456 C 0.88453 0.48540 0.75394
 C457 C 0.87541 0.52117 0.76672
 C458 C 0.88869 0.50399 0.77129
 C459 C 0.87700 0.51349 0.72843
 C460 C 0.88968 0.49582 0.73116
 H461 H 0.83092 0.49821 0.75012
 H462 H 0.89427 0.47107 0.75672
 H463 H 0.87586 0.53556 0.77608
 H464 H 0.87823 0.52293 0.71413
 C465 C 0.24603 0.35892 0.01803
 C466 C 0.24983 0.34766 -0.00373
 C467 C 0.25374 0.35988 -0.02144
 C468 C 0.25319 0.38492 -0.01467
 C469 C 0.26567 0.37396 0.02028
 C470 C 0.27056 0.38797 0.00406
 C471 C 0.22742 0.37480 0.01311
 C472 C 0.23010 0.38884 -0.00380
 H473 H 0.24980 0.33051 -0.00459
 H474 H 0.25613 0.39573 -0.02827
 H475 H 0.27537 0.37322 0.03445
 H476 H 0.21366 0.37578 0.02334
 C477 C 0.74650 0.13788 -0.02000
 C478 C 0.75013 0.15017 0.00140
 C479 C 0.75336 0.13868 0.01976
 C480 C 0.75206 0.11359 0.01412
 C481 C 0.76600 0.12212 -0.02104
 C482 C 0.76976 0.10883 -0.00389
 C483 C 0.72732 0.12260 -0.01476
 C484 C 0.72928 0.10944 0.00294
 H485 H 0.75062 0.16734 0.00155
 H486 H 0.75421 0.10363 0.02842
 H487 H 0.77566 0.12124 -0.03521
 H488 H 0.71307 0.12257 -0.02433
 C489 C 0.24494 0.63759 0.48034
 C490 C 0.24842 0.64988 0.50175
 C491 C 0.25147 0.63841 0.52014
 C492 C 0.25026 0.61331 0.51450
 C493 C 0.26443 0.62190 0.47941
 C494 C 0.26811 0.60864 0.49658
 C495 C 0.22576 0.62228 0.48542
 C496 C 0.22761 0.60916 0.50313
 H497 H 0.24896 0.66704 0.50185
 H498 H 0.25218 0.60328 0.52880
 H499 H 0.27421 0.62112 0.46533
 H500 H 0.21145 0.62238 0.47591
 C501 C 0.74741 0.86044 0.51943
 C502 C 0.75082 0.84852 0.49792
 C503 C 0.75357 0.86028 0.47969
 C504 C 0.75222 0.88537 0.48564
 C505 C 0.76676 0.87634 0.52048
 C506 C 0.77014 0.88995 0.50351
 C507 C 0.72810 0.87557 0.51468
 C508 C 0.72961 0.88901 0.49718
 H509 H 0.75147 0.83136 0.49758
 H510 H 0.75392 0.89561 0.47145
 H511 H 0.77660 0.87707 0.53453
 H512 H 0.71486 0.87674 0.52556
 C513 C 0.01853 0.24647 0.35820
 C514 C -0.00324 0.25047 0.34701
 C515 C -0.02075 0.25488 0.35932
 C516 C -0.01390 0.25433 0.38430
 C517 C 0.02111 0.26616 0.37304
 C518 C 0.00534 0.27109 0.38758
 C519 C 0.01341 0.22800 0.37432
 C520 C -0.00352 0.23107 0.38831
 H521 H -0.00433 0.25025 0.32986
 H522 H -0.02742 0.25764 0.39510
 H523 H 0.03567 0.27525 0.37234
 H524 H 0.02218 0.21323 0.37403
 C525 C -0.02002 0.74592 0.13887
 C526 C 0.00132 0.74951 0.15122
 C527 C 0.01970 0.75274 0.13979
 C528 C 0.01413 0.75155 0.11469
 C529 C -0.02106 0.76543 0.12317
 C530 C -0.00388 0.76923 0.10995
 C531 C -0.01476 0.72679 0.12354
 C532 C 0.00298 0.72881 0.11045
 H533 H 0.00142 0.75000 0.16838
 H534 H 0.02846 0.75372 0.10477
 H535 H -0.03521 0.77510 0.12232
 H536 H -0.02436 0.71255 0.12340
 C537 C 0.48044 0.24265 0.63949
 C538 C 0.50173 0.24728 0.65130
 C539 C 0.51934 0.25279 0.63942
 C540 C 0.51290 0.25294 0.61426
 C541 C 0.47703 0.26287 0.62557
 C542 C 0.49290 0.26896 0.61135
 C543 C 0.48675 0.22541 0.62245
 C544 C 0.50364 0.22951 0.60903
 H545 H 0.50230 0.24677 0.66846
 H546 H 0.52636 0.25731 0.60380
 H547 H 0.46215 0.27135 0.62666
 H548 H 0.47801 0.21070 0.62116
 C549 C 0.51905 0.74717 0.86003
 C550 C 0.49759 0.75068 0.84784
 C551 C 0.47929 0.75384 0.85942
 C552 C 0.48506 0.75274 0.88445
 C553 C 0.52016 0.76669 0.87568
 C554 C 0.50309 0.77046 0.88902
 C555 C 0.51393 0.72804 0.87540
 C556 C 0.49626 0.73003 0.88857
 H557 H 0.49735 0.75113 0.83067
 H558 H 0.47081 0.75484 0.89450
 H559 H 0.53428 0.77642 0.87636
 H560 H 0.52346 0.71375 0.87538
 C561 C 0.09730 0.22405 0.29958
 C562 C 0.08879 0.24347 0.29457
 C563 C 0.09750 0.25576 0.27817
 C564 C 0.11535 0.24821 0.26639
 C565 C 0.12551 0.22824 0.27021
 C566 C 0.11582 0.21599 0.28766
 O567 O 0.08619 0.21502 0.31592
 C568 C 0.07048 0.22906 0.32122
 C569 C 0.07160 0.24671 0.30848
 C570 C 0.05713 0.26344 0.31100
 C571 C 0.04098 0.26232 0.32686
 C572 C 0.03821 0.24469 0.34093
 C573 C 0.05383 0.22756 0.33768
 H574 H 0.09065 0.27107 0.27440
 H575 H 0.12132 0.25851 0.25405
 H576 H 0.12238 0.20066 0.29177
 H577 H 0.05822 0.27730 0.30089
 H578 H 0.03026 0.27571 0.32817
 H579 H 0.05313 0.21355 0.34759
 C580 C 0.59863 0.72544 0.80212
 C581 C 0.59081 0.74533 0.79786
 C582 C 0.60017 0.75800 0.78211
 C583 C 0.61794 0.75037 0.77023
 C584 C 0.62741 0.72992 0.77329
 C585 C 0.61708 0.71730 0.79009
 O586 O 0.58697 0.71607 0.81788
 C587 C 0.57163 0.73036 0.82360
 C588 C 0.57349 0.74851 0.81168
 C589 C 0.55941 0.76552 0.81472
 C590 C 0.54290 0.76416 0.83024
 C591 C 0.53941 0.74602 0.84347
 C592 C 0.55463 0.72862 0.83968
 H593 H 0.59388 0.77368 0.77893
 H594 H 0.62445 0.76099 0.75843
 H595 H 0.62306 0.70158 0.79361
 H596 H 0.56101 0.77975 0.80522
 H597 H 0.53242 0.77770 0.83187
 H598 H 0.55330 0.71415 0.84884
 C599 C 0.40336 0.76507 0.79577
 C600 C 0.39818 0.77379 0.81510
 C601 C 0.37842 0.78385 0.81781
 C602 C 0.36356 0.78511 0.80057
 C603 C 0.36732 0.77626 0.77996
 C604 C 0.38813 0.76583 0.77798
 O605 O 0.42329 0.75661 0.79648
 C606 C 0.43072 0.75994 0.81657
 C607 C 0.41582 0.77027 0.82866
 C608 C 0.42015 0.77492 0.85015
 C609 C 0.44013 0.76907 0.85960
 C610 C 0.45679 0.75875 0.84814
 C611 C 0.45135 0.75420 0.82583
 H612 H 0.37443 0.79082 0.83301
 H613 H 0.34861 0.79301 0.80360
 H614 H 0.39251 0.75873 0.76296
 H615 H 0.40830 0.78295 0.85966
 H616 H 0.44267 0.77309 0.87611
 H617 H 0.46282 0.74624 0.81585
 C618 C -0.09726 0.26515 0.29636
 C619 C -0.10051 0.27754 0.31404
 C620 C -0.11849 0.29069 0.31520
 C621 C -0.13356 0.29132 0.29812
 C622 C -0.13196 0.27863 0.27923
 C623 C -0.11290 0.26507 0.27887
 O624 O -0.07861 0.25429 0.29820
 C625 C -0.07010 0.25981 0.31737
 C626 C -0.08306 0.27386 0.32781
 C627 C -0.07737 0.28128 0.34821
 C628 C -0.05796 0.27443 0.35820
 C629 C -0.04321 0.26036 0.34827
 C630 C -0.05002 0.25304 0.32710
 H631 H -0.12091 0.30058 0.32905
 H632 H -0.14698 0.30182 0.30013
 H633 H -0.11006 0.25500 0.26525
 H634 H -0.08772 0.29226 0.35644
 H635 H -0.05417 0.28074 0.37373
 H636 H -0.03994 0.24226 0.31832
 C637 C -0.09945 0.72367 0.19691
 C638 C -0.09212 0.74383 0.20072
 C639 C -0.10184 0.75665 0.21610
 C640 C -0.11949 0.74889 0.22809
 C641 C -0.12849 0.72815 0.22553
 C642 C -0.11777 0.71537 0.20907
 O643 O -0.08750 0.71422 0.18140
 C644 C -0.07247 0.72874 0.17541
 C645 C -0.07481 0.74711 0.18689
 C646 C -0.06109 0.76435 0.18355
 C647 C -0.04445 0.76302 0.16816
 C648 C -0.04050 0.74469 0.15532
 C649 C -0.05535 0.72704 0.15943
 H650 H -0.09595 0.77254 0.21894
 H651 H -0.12627 0.75968 0.23957
 H652 H -0.12334 0.69942 0.20593
 H653 H -0.06305 0.77875 0.19273
 H654 H -0.03424 0.77673 0.16632
 H655 H -0.05363 0.71240 0.15062
 C656 C 0.40061 0.23552 0.70024
 C657 C 0.40941 0.21586 0.69680
 C658 C 0.40026 0.19768 0.70598
 C659 C 0.38167 0.19941 0.71897
 C660 C 0.37161 0.21914 0.72391
 C661 C 0.38183 0.23770 0.71405
 O662 O 0.41165 0.25071 0.68939
 C663 C 0.42773 0.24045 0.67905
 C664 C 0.42706 0.21909 0.68334
 C665 C 0.44255 0.20546 0.67488
 C666 C 0.45910 0.21361 0.66158
 C667 C 0.46076 0.23545 0.65539
 C668 C 0.44433 0.24907 0.66498
 H669 H 0.40720 0.18223 0.70306
 H670 H 0.37518 0.18493 0.72556
 H671 H 0.37518 0.25331 0.71669
 H672 H 0.44216 0.18869 0.67868
 H673 H 0.47089 0.20241 0.65608
 H674 H 0.44448 0.26593 0.66171
 C675 C 0.59500 0.26453 0.70351
 C676 C 0.59987 0.27416 0.68452
 C677 C 0.61929 0.28494 0.68223
 C678 C 0.63412 0.28603 0.69952
 C679 C 0.63066 0.27638 0.71983
 C680 C 0.61018 0.26521 0.72139
 O681 O 0.57541 0.25535 0.70241
 C682 C 0.56787 0.25918 0.68244
 C683 C 0.58234 0.27054 0.67080
 C684 C 0.57777 0.27591 0.64950
 C685 C 0.55797 0.26975 0.63981
 C686 C 0.54175 0.25827 0.65080
 C687 C 0.54749 0.25297 0.67290
 H688 H 0.62307 0.29259 0.66730
 H689 H 0.64880 0.29449 0.69674
 H690 H 0.60601 0.25746 0.73615
 H691 H 0.58930 0.28477 0.64034
 H692 H 0.55522 0.27437 0.62349
 H693 H 0.53645 0.24406 0.68256
 C694 C 0.09493 0.76475 0.20424
 C695 C 0.10035 0.77321 0.18486
 C696 C 0.12018 0.78316 0.18224
 C697 C 0.13484 0.78461 0.19963
 C698 C 0.13083 0.77608 0.22033
 C699 C 0.10995 0.76574 0.22222
 O700 O 0.07500 0.75629 0.20340
 C701 C 0.06781 0.75937 0.18317
 C702 C 0.08285 0.76957 0.17114
 C703 C 0.07872 0.77407 0.14957
 C704 C 0.05883 0.76817 0.13997
 C705 C 0.04208 0.75785 0.15130
 C706 C 0.04729 0.75350 0.17371
 H707 H 0.12438 0.78987 0.16698
 H708 H 0.14985 0.79243 0.19665
 H709 H 0.10536 0.75891 0.23729
 H710 H 0.09065 0.78206 0.14014
 H711 H 0.05642 0.77216 0.12343
 H712 H 0.03572 0.74561 0.18364
 C713 C 0.30072 0.09717 0.22450
 C714 C 0.29593 0.08884 0.24405
 C715 C 0.27953 0.09756 0.25636
 C716 C 0.26756 0.11526 0.24871
 C717 C 0.27125 0.12525 0.22863
 C718 C 0.28866 0.11555 0.21637
 O719 O 0.31704 0.08608 0.21542
 C720 C 0.32258 0.07055 0.22956
 C721 C 0.31002 0.07179 0.24734
 C722 C 0.31285 0.05754 0.26420
 C723 C 0.32882 0.04147 0.26308
 C724 C 0.34267 0.03858 0.24528
 C725 C 0.33910 0.05397 0.22802
 H726 H 0.27589 0.09082 0.27174
 H727 H 0.25520 0.12128 0.25897
 H728 H 0.29264 0.12200 0.20095
 H729 H 0.30291 0.05871 0.27817
 H730 H 0.33034 0.03089 0.27654
 H731 H 0.34878 0.05312 0.21387
 C732 C 0.79932 0.59912 0.73979
 C733 C 0.80131 0.58908 0.72054
 C734 C 0.79062 0.59689 0.70258
 C735 C 0.77760 0.61546 0.70406
 C736 C 0.77409 0.62682 0.72339
 C737 C 0.78549 0.61794 0.74178
 O738 O 0.81151 0.58914 0.75475
 C739 C 0.82122 0.57249 0.74475
 C740 C 0.81521 0.57181 0.72380
 C741 C 0.82268 0.55560 0.71048
 C742 C 0.83667 0.53962 0.71850
 C743 C 0.84463 0.53922 0.73983
 C744 C 0.83613 0.55646 0.75321
 H745 H 0.79242 0.58894 0.68744
 H746 H 0.76989 0.62097 0.68972
 H747 H 0.78402 0.62566 0.75705
 H748 H 0.81756 0.55499 0.69408
 H749 H 0.84132 0.52717 0.70762
 H750 H 0.84076 0.55729 0.76972
 C751 C 0.79514 0.40448 0.76502
 C752 C 0.81436 0.39925 0.77398
 C753 C 0.81693 0.37952 0.78408
 C754 C 0.79965 0.36474 0.78520
 C755 C 0.77911 0.36856 0.77619
 C756 C 0.77726 0.38934 0.76569
 O757 O 0.79605 0.42437 0.75648
 C758 C 0.81614 0.43171 0.76005
 C759 C 0.82800 0.41682 0.77062
 C760 C 0.84940 0.42109 0.77572
 C761 C 0.85901 0.44101 0.77002
 C762 C 0.84785 0.45761 0.75928
 C763 C 0.82561 0.45226 0.75434
 H764 H 0.83206 0.37549 0.79118
 H765 H 0.80260 0.34981 0.79316
 H766 H 0.76230 0.39378 0.75852
 H767 H 0.85867 0.40926 0.78404
 H768 H 0.87540 0.44354 0.77448
 H769 H 0.81583 0.46373 0.74612
 C770 C 0.29605 -0.09630 0.26531
 C771 C 0.31528 -0.10164 0.27417
 C772 C 0.31776 -0.12140 0.28424
 C773 C 0.30037 -0.13608 0.28540
 C774 C 0.27982 -0.13213 0.27647
 C775 C 0.27808 -0.11132 0.26601
 O776 O 0.29701 -0.07640 0.25682
 C777 C 0.31714 -0.06917 0.26032
 C778 C 0.32902 -0.08412 0.27079
 C779 C 0.35047 -0.07988 0.27577
 C780 C 0.36009 -0.05992 0.27010
 C781 C 0.34886 -0.04328 0.25952
 C782 C 0.32660 -0.04865 0.25464
 H783 H 0.33288 -0.12553 0.29130
 H784 H 0.30325 -0.15103 0.29335
 H785 H 0.26311 -0.10677 0.25892
 H786 H 0.35979 -0.09176 0.28397
 H787 H 0.37651 -0.05738 0.27444
 H788 H 0.31674 -0.03721 0.24649
 C789 C 0.19804 -0.10054 0.73742
 C790 C 0.19526 -0.09113 0.71796
 C791 C 0.20509 -0.09965 0.69981
 C792 C 0.21807 -0.11827 0.70133
 C793 C 0.22248 -0.12897 0.72085
 C794 C 0.21193 -0.11935 0.73942
 O795 O 0.18654 -0.08999 0.75256
 C796 C 0.17648 -0.07360 0.74244
 C797 C 0.18162 -0.07363 0.72126
 C798 C 0.17378 -0.05772 0.70778
 C799 C 0.16023 -0.04138 0.71586
 C800 C 0.15298 -0.04031 0.73743
 C801 C 0.16197 -0.05719 0.75099
 H802 H 0.20263 -0.09222 0.68451
 H803 H 0.22509 -0.12430 0.68684
 H804 H 0.21412 -0.12650 0.75489
 H805 H 0.17832 -0.05759 0.69121
 H806 H 0.15541 -0.02917 0.70479
 H807 H 0.15798 -0.05748 0.76769
 C808 C 0.70502 0.40444 0.23299
 C809 C 0.68517 0.39817 0.22646
 C810 C 0.68209 0.37777 0.21795
 C811 C 0.69953 0.36329 0.21596
 C812 C 0.72072 0.36805 0.22266
 C813 C 0.72309 0.38956 0.23156
 O814 O 0.70443 0.42492 0.24014
 C815 C 0.68386 0.43159 0.23819
 C816 C 0.67148 0.41561 0.23004
 C817 C 0.64956 0.41877 0.22716
 C818 C 0.63990 0.43868 0.23253
 C819 C 0.65143 0.45659 0.24048
 C820 C 0.67429 0.45235 0.24337
 H821 H 0.66644 0.37301 0.21268
 H822 H 0.69624 0.34782 0.20924
 H823 H 0.73858 0.39471 0.23690
 H824 H 0.63985 0.40600 0.22098
 H825 H 0.62293 0.44015 0.23022
 H826 H 0.68443 0.46474 0.24958
 C827 C 0.70486 0.59367 0.26514
 C828 C 0.68550 0.59888 0.27377
 C829 C 0.68277 0.61859 0.28390
 C830 C 0.70004 0.63339 0.28537
 C831 C 0.72074 0.62966 0.27668
 C832 C 0.72273 0.60887 0.26614
 O833 O 0.70408 0.57377 0.25654
 C834 C 0.68391 0.56640 0.25973
 C835 C 0.67189 0.58131 0.27011
 C836 C 0.65039 0.57707 0.27475
 C837 C 0.64082 0.55720 0.26879
 C838 C 0.65209 0.54053 0.25827
 C839 C 0.67448 0.54583 0.25381
 H840 H 0.66754 0.62259 0.29077
 H841 H 0.69694 0.64829 0.29334
 H842 H 0.73780 0.60447 0.25918
 H843 H 0.64097 0.58892 0.28289
 H844 H 0.62432 0.55477 0.27289
 H845 H 0.68437 0.53430 0.24580
 C846 C 0.19970 0.09491 0.77401
 C847 C 0.18945 0.09878 0.75511
 C848 C 0.19452 0.11706 0.74324
 C849 C 0.21022 0.13184 0.75075
 C850 C 0.22121 0.12956 0.77051
 C851 C 0.21542 0.11020 0.78227
 O852 O 0.19313 0.07603 0.78241
 C853 C 0.17836 0.06797 0.76872
 C854 C 0.17537 0.08149 0.75185
 C855 C 0.16044 0.07635 0.73594
 C856 C 0.14831 0.05701 0.73710
 C857 C 0.15076 0.04173 0.75370
 C858 C 0.16657 0.04780 0.76982
 H859 H 0.18672 0.11987 0.72818
 H860 H 0.21373 0.14552 0.74092
 H861 H 0.22316 0.10688 0.79726
 H862 H 0.15814 0.08703 0.72265
 H863 H 0.13732 0.05358 0.72431
 H864 H 0.16969 0.03708 0.78290
 C865 C 0.22438 0.29986 0.09660
 C866 C 0.24396 0.29523 0.08823
 C867 C 0.25646 0.27902 0.09700
 C868 C 0.24897 0.26705 0.11476
 C869 C 0.22886 0.27055 0.12477
 C870 C 0.21640 0.28779 0.11503
 O871 O 0.21512 0.31604 0.08545
 C872 C 0.22916 0.32163 0.06986
 C873 C 0.24705 0.30924 0.07109
 C874 C 0.26381 0.31208 0.05671
 C875 C 0.26246 0.32793 0.04055
 C876 C 0.24458 0.34168 0.03774
 C877 C 0.22743 0.33806 0.05323
 H878 H 0.27188 0.27552 0.09026
 H879 H 0.25939 0.25483 0.12079
 H880 H 0.20094 0.29161 0.12147
 H881 H 0.27784 0.30223 0.05785
 H882 H 0.27584 0.32947 0.02986
 H883 H 0.21320 0.34764 0.05242
 C884 C 0.72569 0.80196 0.59847
 C885 C 0.74568 0.79790 0.59082
 C886 C 0.75839 0.78220 0.60022
 C887 C 0.75070 0.77020 0.61789
 C888 C 0.73015 0.77311 0.62719
 C889 C 0.71748 0.78982 0.61680
 O890 O 0.71628 0.81768 0.58681
 C891 C 0.73065 0.82358 0.57163
 C892 C 0.74890 0.81183 0.57360
 C893 C 0.76602 0.81513 0.55970
 C894 C 0.76465 0.83074 0.54326
 C895 C 0.74639 0.84377 0.53969
 C896 C 0.72890 0.83972 0.55472
 H897 H 0.77414 0.77914 0.59405
 H898 H 0.76133 0.75845 0.62446
 H899 H 0.70168 0.79319 0.62264
 H900 H 0.78033 0.80578 0.56140
 H901 H 0.77826 0.83258 0.53292
 H902 H 0.71434 0.84871 0.55331
 C903 C 0.76465 0.79582 0.40451
 C904 C 0.77277 0.81528 0.39880
 C905 C 0.78238 0.81787 0.37882
 C906 C 0.78383 0.80037 0.36430
 C907 C 0.77561 0.77960 0.36861
 C908 C 0.76563 0.77774 0.38964
 O909 O 0.75657 0.79669 0.42458
 C910 C 0.75955 0.81699 0.43156
 C911 C 0.76929 0.82906 0.41627
 C912 C 0.77361 0.85072 0.42020
 C913 C 0.76804 0.86034 0.44018
 C914 C 0.75824 0.84892 0.45717
 C915 C 0.75401 0.82646 0.45213
 H916 H 0.78885 0.83317 0.37440
 H917 H 0.79143 0.80332 0.34917
 H918 H 0.75909 0.76261 0.39447
 H919 H 0.78122 0.86020 0.40805
 H920 H 0.77187 0.87693 0.44247
 H921 H 0.74649 0.81645 0.46387
 C922 C 0.26451 0.29565 -0.09687
 C923 C 0.27355 0.31481 -0.10221
 C924 C 0.28372 0.31713 -0.12195
 C925 C 0.28478 0.29969 -0.13658
 C926 C 0.27572 0.27919 -0.13260
 C927 C 0.26517 0.27761 -0.11182
 O928 O 0.25588 0.29675 -0.07705
 C929 C 0.25947 0.31688 -0.06985
 C930 C 0.27014 0.32864 -0.08474
 C931 C 0.27520 0.35009 -0.08050
 C932 C 0.26940 0.35981 -0.06061
 C933 C 0.25864 0.34868 -0.04402
 C934 C 0.25365 0.32644 -0.04942
 H935 H 0.29089 0.33218 -0.12611
 H936 H 0.29275 0.30250 -0.15154
 H937 H 0.25792 0.26273 -0.10725
 H938 H 0.28358 0.35932 -0.09233
 H939 H 0.27380 0.37623 -0.05805
 H940 H 0.24531 0.31665 -0.03807
 C941 C 0.72410 0.19580 -0.09960
 C942 C 0.74425 0.19966 -0.09227
 C943 C 0.75704 0.21505 -0.10206
 C944 C 0.74928 0.22695 -0.11976
 C945 C 0.72855 0.22434 -0.12876
 C946 C 0.71578 0.20790 -0.11797
 O947 O 0.71468 0.18031 -0.08759
 C948 C 0.72921 0.17438 -0.07253
 C949 C 0.74756 0.18589 -0.07491
 C950 C 0.76482 0.18258 -0.06119
 C951 C 0.76353 0.16722 -0.04451
 C952 C 0.74523 0.15435 -0.04049
 C953 C 0.72755 0.15842 -0.05536
 H954 H 0.77292 0.21795 -0.09615
 H955 H 0.76005 0.23841 -0.12660
 H956 H 0.69984 0.20472 -0.12353
 H957 H 0.77920 0.19177 -0.06321
 H958 H 0.77726 0.16542 -0.03432
 H959 H 0.71293 0.14960 -0.05362
 C960 C 0.22330 0.69578 0.40088
 C961 C 0.24338 0.69962 0.40842
 C962 C 0.25626 0.71506 0.39887
 C963 C 0.24867 0.72706 0.38116
 C964 C 0.22803 0.72446 0.37197
 C965 C 0.21516 0.70796 0.38251
 O966 O 0.21376 0.68023 0.41269
 C967 C 0.22814 0.67423 0.42785
 C968 C 0.24651 0.68576 0.42571
 C969 C 0.26365 0.68239 0.43955
 C970 C 0.26221 0.66695 0.45613
 C971 C 0.24386 0.65408 0.45990
 C972 C 0.22632 0.65820 0.44491
 H973 H 0.27208 0.71793 0.40495
 H974 H 0.25950 0.73857 0.37449
 H975 H 0.19929 0.70480 0.37675
 H976 H 0.27805 0.69160 0.43771
 H977 H 0.27584 0.66510 0.46643
 H978 H 0.21169 0.64936 0.44646
 C979 C 0.26428 0.70299 0.59521
 C980 C 0.27135 0.68320 0.60116
 C981 C 0.28033 0.68024 0.62139
 C982 C 0.28223 0.69769 0.63595
 C983 C 0.27512 0.71881 0.63138
 C984 C 0.26575 0.72105 0.61008
 O985 O 0.25657 0.70240 0.57496
 C986 C 0.25874 0.68194 0.56810
 C987 C 0.26759 0.66952 0.58365
 C988 C 0.27093 0.64767 0.57993
 C989 C 0.26527 0.63818 0.55991
 C990 C 0.25638 0.64989 0.54261
 C991 C 0.25312 0.67258 0.54745
 H992 H 0.28596 0.66467 0.62600
 H993 H 0.28921 0.69444 0.65131
 H994 H 0.26006 0.73646 0.60507
 H995 H 0.27781 0.63793 0.59230
 H996 H 0.26826 0.62139 0.55790
 H997 H 0.24625 0.68283 0.53551
 C998 C 0.76592 0.20282 0.09533
 C999 C 0.77460 0.18346 0.10051
 C1000 C 0.78494 0.18086 0.12015
 C1001 C 0.78655 0.19821 0.13487
 C1002 C 0.77775 0.21886 0.13114
 C1003 C 0.76703 0.22073 0.11044
 O1004 O 0.75718 0.20202 0.07551
 C1005 C 0.76030 0.18185 0.06814
 C1006 C 0.77077 0.16980 0.08297
 C1007 C 0.77531 0.14827 0.07864
 C1008 C 0.76920 0.13874 0.05876
 C1009 C 0.75863 0.15011 0.04219
 C1010 C 0.75425 0.17248 0.04760
 H1011 H 0.79186 0.16564 0.12416
 H1012 H 0.79471 0.19524 0.14969
 H1013 H 0.75997 0.23577 0.10604
 H1014 H 0.78350 0.13880 0.09042
 H1015 H 0.77324 0.12224 0.05621
 H1016 H 0.74621 0.18245 0.03617
 C1017 C 0.48884 0.34643 0.54734
 C1018 C 0.46914 0.33793 0.55106
 C1019 C 0.45093 0.34708 0.54198
 C1020 C 0.45262 0.36545 0.52872
 C1021 C 0.47232 0.37535 0.52338
 C1022 C 0.49097 0.36508 0.53320
 O1023 O 0.50398 0.33529 0.55833
 C1024 C 0.49358 0.31945 0.56903
 C1025 C 0.47223 0.32052 0.56478
 C1026 C 0.45825 0.30565 0.57355
 C1027 C 0.46592 0.28938 0.58732
 C1028 C 0.48770 0.28715 0.59375
 C1029 C 0.50186 0.30287 0.58361
 H1030 H 0.43547 0.34032 0.54521
 H1031 H 0.43806 0.37192 0.52225
 H1032 H 0.50659 0.37161 0.53030
 H1033 H 0.44150 0.30639 0.56974
 H1034 H 0.45423 0.27815 0.59293
 H1035 H 0.51865 0.30253 0.58722
 C1036 C -0.02328 0.84738 0.05070
 C1037 C -0.00427 0.83822 0.04514
 C1038 C 0.00759 0.84658 0.02821
 C1039 C 0.00007 0.86464 0.01657
 C1040 C -0.01949 0.87542 0.02104
 C1041 C -0.03129 0.86606 0.03896
 O1042 O -0.03208 0.83671 0.06741
 C1043 C -0.01838 0.82064 0.07242
 C1044 C -0.00108 0.82096 0.05920
 C1045 C 0.01514 0.80574 0.06160
 C1046 C 0.01383 0.78972 0.07780
 C1047 C -0.00355 0.78797 0.09234
 C1048 C -0.02004 0.80432 0.08908
 H1049 H 0.02255 0.83930 0.02389
 H1050 H 0.01001 0.87026 0.00378
 H1051 H -0.04629 0.87302 0.04361
 H1052 H 0.02875 0.80609 0.05111
 H1053 H 0.02673 0.77846 0.07876
 H1054 H -0.03388 0.80445 0.09923
 C1055 C 0.01294 0.65171 0.04774
 C1056 C 0.03246 0.66032 0.05233
 C1057 C 0.05096 0.65130 0.04366
 C1058 C 0.04970 0.63310 0.03002
 C1059 C 0.03017 0.62324 0.02389
 C1060 C 0.01127 0.63333 0.03328
 O1061 O -0.00266 0.66247 0.05828
 C1062 C 0.00717 0.67819 0.06956
 C1063 C 0.02870 0.67762 0.06622
 C1064 C 0.04196 0.69275 0.07602
 C1065 C 0.03321 0.70887 0.08958
 C1066 C 0.01108 0.71054 0.09439
 C1067 C -0.00204 0.69431 0.08381
 H1068 H 0.06631 0.65804 0.04746
 H1069 H 0.06445 0.62673 0.02390
 H1070 H -0.00425 0.62685 0.02978
 H1071 H 0.05892 0.69226 0.07325
 H1072 H 0.04413 0.72000 0.09680
 H1073 H -0.01902 0.69431 0.08641
 C1074 C 0.51440 0.15203 0.54727
 C1075 C 0.53301 0.16342 0.54812
 C1076 C 0.55088 0.15642 0.53666
 C1077 C 0.54990 0.13740 0.52411
 C1078 C 0.53116 0.12475 0.52187
 C1079 C 0.51292 0.13280 0.53402
 O1080 O 0.49939 0.16116 0.55994
 C1081 C 0.50863 0.17864 0.56881
 C1082 C 0.52918 0.18083 0.56190
 C1083 C 0.54151 0.19817 0.56891
 C1084 C 0.53286 0.21359 0.58339
 C1085 C 0.51182 0.21235 0.59182
 C1086 C 0.49964 0.19401 0.58388
 H1087 H 0.56554 0.16534 0.53747
 H1088 H 0.56410 0.13261 0.51568
 H1089 H 0.49809 0.12414 0.53354
 H1090 H 0.55767 0.19990 0.56330
 H1091 H 0.54304 0.22650 0.58838
 H1092 H 0.48348 0.19171 0.58918
 C1093 C -0.01367 0.15384 0.45063
 C1094 C -0.03310 0.16298 0.44673
 C1095 C -0.05156 0.15425 0.45579
 C1096 C -0.05033 0.13581 0.46913
 C1097 C -0.03085 0.12548 0.47457
 C1098 C -0.01201 0.13526 0.46479
 O1099 O 0.00188 0.16435 0.43977
 C1100 C -0.00788 0.18044 0.42900
 C1101 C -0.02932 0.18037 0.43296
 C1102 C -0.04244 0.19600 0.42377
 C1103 C -0.03366 0.21207 0.41015
 C1104 C -0.01166 0.21312 0.40465
 C1105 C 0.00132 0.19644 0.41466
 H1106 H -0.06685 0.16138 0.45251
 H1107 H -0.06503 0.12965 0.47558
 H1108 H 0.00345 0.12839 0.46777
 H1109 H -0.05931 0.19594 0.42706
 H1110 H -0.04444 0.22362 0.40340
 H1111 H 0.01821 0.19600 0.41153
 C1112 C 0.48620 0.65285 0.95097
 C1113 C 0.46662 0.66096 0.94576
 C1114 C 0.44809 0.65144 0.95383
 C1115 C 0.44940 0.63326 0.96750
 C1116 C 0.46900 0.62398 0.97427
 C1117 C 0.48789 0.63456 0.96550
 O1118 O 0.50185 0.66400 0.94093
 C1119 C 0.49199 0.67945 0.92935
 C1120 C 0.47038 0.67834 0.93200
 C1121 C 0.45707 0.69316 0.92180
 C1122 C 0.46586 0.70949 0.90853
 C1123 C 0.48808 0.71165 0.90441
 C1124 C 0.50125 0.69575 0.91538
 H1125 H 0.43270 0.65777 0.94953
 H1126 H 0.43465 0.62647 0.97315
 H1127 H 0.50346 0.62852 0.96953
 H1128 H 0.44005 0.69226 0.92403
 H1129 H 0.45493 0.72038 0.90096
 H1130 H 0.51830 0.69615 0.91329
 C1131 C 0.52322 0.84838 0.94828
 C1132 C 0.50398 0.83958 0.95359
 C1133 C 0.49203 0.84813 0.97034
 C1134 C 0.49973 0.86602 0.98208
 C1135 C 0.51956 0.87643 0.97792
 C1136 C 0.53143 0.86690 0.96015
 O1137 O 0.53202 0.83753 0.93169
 C1138 C 0.51808 0.82171 0.92653
 C1139 C 0.50063 0.82238 0.93953
 C1140 C 0.48414 0.80747 0.93697
 C1141 C 0.48535 0.79139 0.92084
 C1142 C 0.50288 0.78927 0.90655
 C1143 C 0.51962 0.80533 0.90993
 H1144 H 0.47687 0.84114 0.97443
 H1145 H 0.48966 0.87182 0.99469
 H1146 H 0.54662 0.87358 0.95572
 H1147 H 0.47042 0.80813 0.94730
 H1148 H 0.47223 0.78040 0.91973
 H1149 H 0.53357 0.80520 0.89994
 C1150 C 0.01065 0.34853 0.45137
 C1151 C 0.03005 0.33911 0.44842
 C1152 C 0.04837 0.34766 0.45792
 C1153 C 0.04707 0.36631 0.47086
 C1154 C 0.02763 0.37702 0.47549
 C1155 C 0.00888 0.36741 0.46520
 O1156 O -0.00462 0.33797 0.44001
 C1157 C 0.00536 0.32151 0.42989
 C1158 C 0.02660 0.32162 0.43487
 C1159 C 0.04012 0.30595 0.42679
 C1160 C 0.03213 0.28991 0.41291
 C1161 C 0.01052 0.28871 0.40572
 C1162 C -0.00320 0.30522 0.41516
 H1163 H 0.06363 0.34022 0.45524
 H1164 H 0.06165 0.37233 0.47769
 H1165 H -0.00653 0.37462 0.46755
 H1166 H 0.05674 0.30593 0.43116
 H1167 H 0.04343 0.27812 0.40760
 H1168 H -0.01982 0.30575 0.41084
 C1169 C 0.34678 0.55013 0.47709
 C1170 C 0.33750 0.54423 0.49594
 C1171 C 0.34587 0.52714 0.50758
 C1172 C 0.36404 0.51570 0.49999
 C1173 C 0.37494 0.52056 0.48060
 C1174 C 0.36557 0.53862 0.46903
 O1175 O 0.33608 0.56691 0.46846
 C1176 C 0.31987 0.57162 0.48211
 C1177 C 0.32013 0.55814 0.49921
 C1178 C 0.30472 0.56021 0.51532
 C1179 C 0.28860 0.57634 0.51408
 C1180 C 0.28695 0.59112 0.49691
 C1181 C 0.30347 0.58820 0.48054
 H1182 H 0.33852 0.52254 0.52242
 H1183 H 0.36966 0.50275 0.50973
 H1184 H 0.37261 0.54355 0.45416
 H1185 H 0.30501 0.54952 0.52876
 H1186 H 0.27718 0.57704 0.52686
 H1187 H 0.30370 0.59855 0.46685
 C1188 C 0.84822 0.04962 -0.02275
 C1189 C 0.83826 0.04338 -0.00437
 C1190 C 0.84592 0.02579 0.00700
 C1191 C 0.86410 0.01420 -0.00033
 C1192 C 0.87580 0.01942 -0.01920
 C1193 C 0.86708 0.03799 -0.03053
 O1194 O 0.83806 0.06682 -0.03123
 C1195 C 0.82150 0.07145 -0.01796
 C1196 C 0.82103 0.05751 -0.00124
 C1197 C 0.80519 0.05940 0.01446
 C1198 C 0.78937 0.07580 0.01321
 C1199 C 0.78841 0.09108 -0.00359
 C1200 C 0.80537 0.08834 -0.01955
 H1201 H 0.83798 0.02089 0.02144
 H1202 H 0.86899 0.00084 0.00924
 H1203 H 0.87465 0.04324 -0.04503
 H1204 H 0.80491 0.04834 0.02762
 H1205 H 0.77755 0.07628 0.02564
 H1206 H 0.80613 0.09907 -0.03293
 C1207 C 0.65158 0.04729 0.01255
 C1208 C 0.66029 0.05161 0.03208
 C1209 C 0.65121 0.04287 0.05053
 C1210 C 0.63284 0.02945 0.04920
 C1211 C 0.62287 0.02357 0.02964
 C1212 C 0.63302 0.03303 0.01080
 O1213 O 0.66242 0.05787 -0.00298
 C1214 C 0.67828 0.06891 0.00691
 C1215 C 0.67773 0.06538 0.02841
 C1216 C 0.69300 0.07492 0.04171
 C1217 C 0.70923 0.08842 0.03304
 C1218 C 0.71089 0.09343 0.01095
 C1219 C 0.69452 0.08310 -0.00222
 H1220 H 0.65801 0.04648 0.06589
 H1221 H 0.62642 0.02329 0.06390
 H1222 H 0.62645 0.02977 -0.00473
 H1223 H 0.69254 0.07200 0.05864
 H1224 H 0.72045 0.09544 0.04399
 H1225 H 0.69450 0.08584 -0.01917
 C1226 C 0.15128 0.54558 0.51390
 C1227 C 0.15609 0.55513 0.53292
 C1228 C 0.14392 0.55063 0.55104
 C1229 C 0.12643 0.53611 0.54997
 C1230 C 0.12041 0.52475 0.53114
 C1231 C 0.13381 0.52991 0.51263
 O1232 O 0.16455 0.55290 0.49835
 C1233 C 0.17802 0.56707 0.50782
 C1234 C 0.17362 0.56869 0.52909
 C1235 C 0.18613 0.58187 0.54218
 C1236 C 0.20350 0.59383 0.53348
 C1237 C 0.20880 0.59388 0.51143
 C1238 C 0.19527 0.57985 0.49846
 H1239 H 0.14766 0.55835 0.56594
 H1240 H 0.11788 0.53336 0.56460
 H1241 H 0.13050 0.52236 0.49756
 H1242 H 0.18270 0.58289 0.55899
 H1243 H 0.21267 0.60369 0.54417
 H1244 H 0.19823 0.57872 0.48158
 C1245 C 0.15209 0.44774 -0.02412
 C1246 C 0.16637 0.45796 -0.01118
 C1247 C 0.16180 0.47837 -0.00346
 C1248 C 0.14234 0.48879 -0.00897
 C1249 C 0.12655 0.47984 -0.02277
 C1250 C 0.13218 0.45845 -0.03052
 O1251 O 0.15942 0.42791 -0.02908
 C1252 C 0.17867 0.42574 -0.01924
 C1253 C 0.18366 0.44389 -0.00826
 C1254 C 0.20304 0.44533 0.00286
 C1255 C 0.21769 0.42786 0.00303
 C1256 C 0.21376 0.40817 -0.00749
 C1257 C 0.19331 0.40746 -0.01885
 H1258 H 0.17304 0.48626 0.00688
 H1259 H 0.13998 0.50449 -0.00246
 H1260 H 0.12129 0.45020 -0.04092
 H1261 H 0.20688 0.45973 0.01142
 H1262 H 0.23223 0.42960 0.01203
 H1263 H 0.18882 0.39302 -0.02700
 C1264 C 0.65240 0.94820 0.47498
 C1265 C 0.66531 0.95744 0.48993
 C1266 C 0.65984 0.97710 0.49884
 C1267 C 0.64081 0.98779 0.49250
 C1268 C 0.62631 0.97982 0.47682
 C1269 C 0.63283 0.95913 0.46793
 O1270 O 0.66057 0.92901 0.46896
 C1271 C 0.67893 0.92625 0.48024
 C1272 C 0.68249 0.94338 0.49323
 C1273 C 0.70054 0.94400 0.50641
 C1274 C 0.71535 0.92671 0.50660
 C1275 C 0.71303 0.90815 0.49381
 C1276 C 0.69394 0.90826 0.48030
 H1277 H 0.67006 0.98422 0.51068
 H1278 H 0.63772 1.00284 0.50011
 H1279 H 0.62292 0.95161 0.45609
 H1280 H 0.70317 0.95757 0.51662
 H1281 H 0.72879 0.92771 0.51729
 H1282 H 0.69068 0.89464 0.47035
 C1283 C 0.84831 0.94936 0.52276
 C1284 C 0.83790 0.95607 0.50480
 C1285 C 0.84515 0.97403 0.49378
 C1286 C 0.86340 0.98551 0.50104
 C1287 C 0.87554 0.97992 0.51954
 C1288 C 0.86726 0.96092 0.53049
 O1289 O 0.83849 0.93179 0.53088
 C1290 C 0.82171 0.92743 0.51780
 C1291 C 0.82076 0.94187 0.50155
 C1292 C 0.80471 0.94026 0.48603
 C1293 C 0.78915 0.92360 0.48699
 C1294 C 0.78861 0.90787 0.50337
 C1295 C 0.80580 0.91032 0.51914
 H1296 H 0.83687 0.97926 0.47966
 H1297 H 0.86799 0.99908 0.49162
 H1298 H 0.87524 0.95528 0.54461
 H1299 H 0.80410 0.95171 0.47322
 H1300 H 0.77722 0.92324 0.47466
 H1301 H 0.80692 0.89919 0.53216
 C1302 C 0.34361 0.45604 0.01364
 C1303 C 0.35026 0.43618 0.01964
 C1304 C 0.37070 0.43320 0.02810
 C1305 C 0.38488 0.45080 0.03060
 C1306 C 0.37978 0.47209 0.02455
 C1307 C 0.35819 0.47436 0.01568
 O1308 O 0.32308 0.45519 0.00648
 C1309 C 0.31681 0.43442 0.00788
 C1310 C 0.33311 0.42227 0.01576
 C1311 C 0.33047 0.40034 0.01856
 C1312 C 0.31069 0.39038 0.01356
 C1313 C 0.29242 0.40146 0.00573
 C1314 C 0.29612 0.42442 0.00273
 H1315 H 0.37572 0.41749 0.03292
 H1316 H 0.40039 0.44754 0.03724
 H1317 H 0.35276 0.48992 0.01085
 H1318 H 0.34346 0.39088 0.02467
 H1319 H 0.30961 0.37342 0.01621
 H1320 H 0.28320 0.43430 -0.00279
 C1321 C 0.55100 0.47588 0.34783
 C1322 C 0.54596 0.49525 0.33915
 C1323 C 0.52948 0.50745 0.34795
 C1324 C 0.51775 0.49988 0.36594
 C1325 C 0.52169 0.47996 0.37624
 C1326 C 0.53918 0.46784 0.36647
 O1327 O 0.56731 0.46679 0.33678
 C1328 C 0.57260 0.48068 0.32094
 C1329 C 0.55995 0.49838 0.32181
 C1330 C 0.56272 0.51485 0.30692
 C1331 C 0.57870 0.51338 0.29069
 C1332 C 0.59264 0.49558 0.28834
 C1333 C 0.58902 0.47884 0.30437
 H1334 H 0.52558 0.52271 0.34107
 H1335 H 0.50535 0.51010 0.37194
 H1336 H 0.54342 0.45255 0.37306
 H1337 H 0.55268 0.52878 0.30771
 H1338 H 0.57995 0.52652 0.27973
 H1339 H 0.59871 0.46468 0.30406
 C1340 C 0.05000 -0.02367 0.84706
 C1341 C 0.04430 -0.00484 0.83766
 C1342 C 0.02726 0.00702 0.84584
 C1343 C 0.01566 -0.00033 0.86399
 C1344 C 0.02026 -0.01969 0.87502
 C1345 C 0.03829 -0.03149 0.86585
 O1346 O 0.06681 -0.03248 0.83651
 C1347 C 0.07174 -0.01894 0.82026
 C1348 C 0.05836 -0.00176 0.82038
 C1349 C 0.06062 0.01431 0.80501
 C1350 C 0.07684 0.01298 0.78904
 C1351 C 0.09156 -0.00428 0.78744
 C1352 C 0.08844 -0.02064 0.80394
 H1353 H 0.02285 0.02185 0.83835
 H1354 H 0.00281 0.00960 0.86951
 H1355 H 0.04306 -0.04635 0.87304
 H1356 H 0.04998 0.02781 0.80520
 H1357 H 0.07762 0.02579 0.77767
 H1358 H 0.09874 -0.03437 0.80418
 C1359 C 0.04577 0.01357 0.65127
 C1360 C 0.05003 0.03311 0.66003
 C1361 C 0.04121 0.05153 0.65095
 C1362 C 0.02778 0.05016 0.63258
 C1363 C 0.02200 0.03057 0.62260
 C1364 C 0.03152 0.01178 0.63273
 O1365 O 0.05640 -0.00194 0.66207
 C1366 C 0.06739 0.00796 0.67794
 C1367 C 0.06381 0.02945 0.67746
 C1368 C 0.07333 0.04271 0.69281
 C1369 C 0.08689 0.03401 0.70900
 C1370 C 0.09198 0.01194 0.71050
 C1371 C 0.08162 -0.00117 0.69410
 H1372 H 0.04476 0.06691 0.65776
 H1373 H 0.02155 0.06484 0.62618
 H1374 H 0.02831 -0.00376 0.62615
 H1375 H 0.07037 0.05963 0.69241
 H1376 H 0.09390 0.04490 0.72029
 H1377 H 0.08440 -0.01812 0.69395
 C1378 C 0.54804 0.51334 0.15146
 C1379 C 0.55241 0.53288 0.16017
 C1380 C 0.54377 0.55133 0.15098
 C1381 C 0.53040 0.55000 0.13256
 C1382 C 0.52446 0.53042 0.12264
 C1383 C 0.53382 0.51160 0.13288
 O1384 O 0.55851 0.49778 0.16234
 C1385 C 0.56951 0.50764 0.17823
 C1386 C 0.56609 0.52916 0.17769
 C1387 C 0.57563 0.54238 0.19306
 C1388 C 0.58904 0.53360 0.20935
 C1389 C 0.59396 0.51150 0.21092
 C1390 C 0.58360 0.49844 0.19448
 H1391 H 0.54741 0.56670 0.15775
 H1392 H 0.52431 0.56470 0.12607
 H1393 H 0.53048 0.49605 0.12638
 H1394 H 0.57279 0.55932 0.19263
 H1395 H 0.59607 0.54446 0.22066
 H1396 H 0.58628 0.48147 0.19439
 C1397 C 0.45169 -0.01307 0.15390
 C1398 C 0.44801 -0.03255 0.16304
 C1399 C 0.45725 -0.05090 0.15429
 C1400 C 0.47053 -0.04952 0.13584
 C1401 C 0.47574 -0.02998 0.12550
 C1402 C 0.46579 -0.01125 0.13529
 O1403 O 0.44070 0.00236 0.16443
 C1404 C 0.43006 -0.00753 0.18053
 C1405 C 0.43424 -0.02893 0.18044
 C1406 C 0.42519 -0.04217 0.19605
 C1407 C 0.41150 -0.03354 0.21215
 C1408 C 0.40584 -0.01159 0.21326
 C1409 C 0.41568 0.00151 0.19658
 H1410 H 0.45415 -0.06623 0.16142
 H1411 H 0.47712 -0.06414 0.12965
 H1412 H 0.46857 0.00424 0.12840
 H1413 H 0.42862 -0.05901 0.19595
 H1414 H 0.40485 -0.04442 0.22367
 H1415 H 0.41239 0.01836 0.19615
 C1416 C 0.95149 0.48578 0.65375
 C1417 C 0.94704 0.46621 0.66233
 C1418 C 0.95550 0.44775 0.65302
 C1419 C 0.96881 0.44914 0.63458
 C1420 C 0.97479 0.46877 0.62484
 C1421 C 0.96561 0.48758 0.63517
 O1422 O 0.94118 0.50134 0.66473
 C1423 C 0.93020 0.49144 0.68058
 C1424 C 0.93348 0.46990 0.67990
 C1425 C 0.92394 0.45663 0.69521
 C1426 C 0.91065 0.46539 0.71156
 C1427 C 0.90588 0.48751 0.71321
 C1428 C 0.91625 0.50063 0.69687
 H1429 H 0.95178 0.43236 0.65970
 H1430 H 0.97481 0.43446 0.62796
 H1431 H 0.96899 0.50314 0.62873
 H1432 H 0.92668 0.43967 0.69466
 H1433 H 0.90356 0.45453 0.72283
 H1434 H 0.91368 0.51761 0.69689
 C1435 C 0.94844 0.52330 0.84940
 C1436 C 0.95367 0.50419 0.84028
 C1437 C 0.97048 0.49209 0.84855
 C1438 C 0.98237 0.49947 0.86650
 C1439 C 0.97830 0.51911 0.87726
 C1440 C 0.96047 0.53116 0.86800
 O1441 O 0.93178 0.53230 0.83877
 C1442 C 0.92647 0.51861 0.82275
 C1443 C 0.93947 0.50115 0.82313
 C1444 C 0.93684 0.48489 0.80802
 C1445 C 0.92063 0.48630 0.79207
 C1446 C 0.90623 0.50382 0.79018
 C1447 C 0.90973 0.52038 0.80643
 H1448 H 0.97452 0.47705 0.84128
 H1449 H 0.99504 0.48932 0.87205
 H1450 H 0.95610 0.54625 0.87496
 H1451 H 0.94718 0.47117 0.80843
 H1452 H 0.91961 0.47331 0.78094
 H1453 H 0.89972 0.53433 0.80646
 C1454 C 0.45708 0.01278 0.34418
 C1455 C 0.43740 0.01927 0.35091
 C1456 C 0.43473 0.02795 0.37129
 C1457 C 0.45247 0.03018 0.38533
 C1458 C 0.47359 0.02365 0.38013
 C1459 C 0.47553 0.01454 0.35862
 O1460 O 0.45594 0.00549 0.32371
 C1461 C 0.43516 0.00733 0.31756
 C1462 C 0.42330 0.01561 0.33388
 C1463 C 0.40143 0.01892 0.33136
 C1464 C 0.39124 0.01406 0.31167
 C1465 C 0.40204 0.00587 0.29339
 C1466 C 0.42492 0.00230 0.29697
 H1467 H 0.41916 0.03314 0.37638
 H1468 H 0.44946 0.03702 0.40080
 H1469 H 0.49095 0.00934 0.35312
 H1470 H 0.39220 0.02533 0.34436
 H1471 H 0.37434 0.01710 0.31066
 H1472 H 0.43458 -0.00357 0.28404
   
