data_POSCAR
  _audit_creation_date              2014-09-24
  _audit_creation_method            'ToBaCCo'
  _symmetry_space_group_name_H-M    'P1'
  _symmetry_Int_Tables_number       1
  _symmetry_cell_setting            triclinic
  loop_
  _symmetry_equiv_pos_as_xyz
 x,y,z
_cell_length_a 53.1017
_cell_length_b 52.8701
_cell_length_c 52.7847
_cell_angle_alpha 89.971500
_cell_angle_beta 89.998100
_cell_angle_gamma 90.013400
loop_
  _atom_site_label
  _atom_site_type_symbol
  _atom_site_fract_x
  _atom_site_fract_y
  _atom_site_fract_z
C1 C 0.22509 1.07939 -0.01351
 C2 C 0.22684 1.07959 0.01243
 C3 C 0.22205 1.05507 0.02052
 N4 N 0.21720 1.04004 0.00040
 C5 C 0.21934 1.05475 -0.02042
 C6 C 0.22105 1.04720 0.04610
 C7 C 0.21778 1.02174 0.05369
 C8 C 0.21177 1.01396 0.07808
 C9 C 0.21231 0.98795 0.07805
 C10 C 0.21870 0.98052 0.05367
 N11 N 0.22204 1.00123 0.03900
 C12 C 0.22328 0.95527 0.04622
 C13 C 0.22612 0.94739 0.02083
 C14 C 0.23324 0.92329 0.01335
 C15 C 0.23288 0.92316 -0.01263
 C16 C 0.22546 0.94717 -0.02020
 N17 N 0.22110 0.96182 0.00031
 C18 C 0.22159 0.95481 -0.04558
 C19 C 0.21526 0.97980 -0.05272
 C20 C 0.20637 0.98687 -0.07642
 C21 C 0.20437 1.01280 -0.07629
 C22 C 0.21220 1.02092 -0.05257
 N23 N 0.21880 1.00069 -0.03836
 C24 C 0.21520 1.04651 -0.04550
 H25 H 0.22772 1.09554 -0.02584
 H26 H 0.23100 1.09595 0.02401
 H27 H 0.22836 1.00135 -0.02124
 H28 H 0.20780 1.02580 0.09431
 H29 H 0.20889 0.97591 0.09428
 H30 H 0.23805 0.90740 0.02533
 H31 H 0.23727 0.90711 -0.02456
 H32 H 0.19827 1.02439 -0.09205
 H33 H 0.22999 1.00144 0.02106
 H34 H 0.20210 0.97465 -0.09229
 C35 C 0.70913 0.48715 0.57921
 C36 C 0.70932 0.51311 0.57909
 C37 C 0.71408 0.52048 0.55432
 N38 N 0.71689 0.49993 0.53940
 C39 C 0.71380 0.47953 0.55452
 C40 C 0.71797 0.54566 0.54638
 C41 C 0.72110 0.55307 0.52083
 C42 C 0.72939 0.57675 0.51311
 C43 C 0.72915 0.57676 0.48707
 C44 C 0.72075 0.55308 0.47954
 N45 N 0.71557 0.53887 0.50024
 C46 C 0.71734 0.54559 0.45406
 C47 C 0.71377 0.52030 0.44635
 C48 C 0.70914 0.51268 0.42165
 C49 C 0.70934 0.48672 0.42177
 C50 C 0.71408 0.47935 0.44654
 N51 N 0.71687 0.49991 0.46147
 C52 C 0.71803 0.45417 0.45447
 C53 C 0.72126 0.44680 0.48002
 C54 C 0.72979 0.42321 0.48775
 C55 C 0.72958 0.42322 0.51379
 C56 C 0.72094 0.44681 0.52132
 N57 N 0.71562 0.46095 0.50061
 C58 C 0.71742 0.45425 0.54680
 H59 H 0.70642 0.47525 0.59567
 H60 H 0.70676 0.52518 0.59545
 H61 H 0.70639 0.47826 0.50051
 H62 H 0.73504 0.59245 0.52499
 H63 H 0.73459 0.59245 0.47507
 H64 H 0.70643 0.52458 0.40519
 H65 H 0.70681 0.47466 0.40540
 H66 H 0.73521 0.40761 0.52580
 H67 H 0.70652 0.52147 0.50034
 H68 H 0.73561 0.40758 0.47587
 C69 C 0.76829 0.92173 0.98780
 C70 C 0.76837 0.92174 1.01379
 C71 C 0.77487 0.94604 1.02130
 N72 N 0.77891 0.96074 1.00074
 C73 C 0.77464 0.94604 0.98026
 C74 C 0.77817 0.95393 1.04667
 C75 C 0.78269 0.97933 1.05381
 C76 C 0.79047 0.98706 1.07771
 C77 C 0.79064 1.01307 1.07754
 C78 C 0.78300 1.02058 1.05354
 N79 N 0.77813 0.99991 1.03927
 C80 C 0.77880 1.04592 1.04616
 C81 C 0.77527 1.05381 1.02086
 C82 C 0.76887 1.07816 1.01351
 C83 C 0.76822 1.07817 0.98753
 C84 C 0.77431 1.05382 0.97983
 N85 N 0.77886 1.03908 1.00026
 C86 C 0.77671 1.04589 0.95437
 C87 C 0.78095 1.02050 0.94706
 C88 C 0.78782 1.01279 0.92288
 C89 C 0.78808 0.98678 0.92305
 C90 C 0.78135 0.97925 0.94732
 N91 N 0.77698 0.99991 0.96177
 C92 C 0.77746 0.95390 0.95486
 H93 H 0.76407 0.90565 0.97584
 H94 H 0.76418 0.90568 1.02577
 H95 H 0.76862 0.99990 0.97952
 H96 H 0.79521 0.97518 1.09372
 H97 H 0.79544 1.02509 1.09342
 H98 H 0.76515 1.09427 1.02559
 H99 H 0.76392 1.09429 0.97564
 H100 H 0.79229 0.97478 0.90700
 H101 H 0.76910 0.99991 1.02185
 H102 H 0.79184 1.02469 0.90667
 C103 C 0.26518 0.42194 0.48900
 C104 C 0.26661 0.42198 0.51496
 C105 C 0.27323 0.44635 0.52207
 N106 N 0.27604 0.46108 0.50135
 C107 C 0.27086 0.44630 0.48113
 C108 C 0.27780 0.45427 0.54719
 C109 C 0.28251 0.47960 0.55423
 C110 C 0.29162 0.48717 0.57767
 C111 C 0.29153 0.51319 0.57773
 C112 C 0.28233 0.52082 0.55434
 N113 N 0.27684 0.50021 0.54019
 C114 C 0.27742 0.54616 0.54742
 C115 C 0.27242 0.55401 0.52236
 C116 C 0.26531 0.57825 0.51533
 C117 C 0.26349 0.57825 0.48939
 C118 C 0.26951 0.55399 0.48145
 N119 N 0.27520 0.53932 0.50161
 C120 C 0.27092 0.54615 0.45594
 C121 C 0.27487 0.52088 0.44823
 C122 C 0.28067 0.51345 0.42370
 C123 C 0.28109 0.48743 0.42361
 C124 C 0.27551 0.47966 0.44809
 N125 N 0.27163 0.50016 0.46291
 C126 C 0.27234 0.45421 0.45564
 H127 H 0.26051 0.40581 0.47728
 H128 H 0.26323 0.40590 0.52717
 H129 H 0.26412 0.50002 0.48104
 H130 H 0.29747 0.47519 0.59323
 H131 H 0.29729 0.52512 0.59335
 H132 H 0.26184 0.59428 0.52757
 H133 H 0.25840 0.59429 0.47771
 H134 H 0.28472 0.47560 0.40729
 H135 H 0.26674 0.50017 0.52337
 H136 H 0.28393 0.52551 0.40744
 C137 C 1.07827 0.21534 -0.01301
 C138 C 1.07828 0.21558 0.01297
 C139 C 1.05378 0.22077 0.02048
 N140 N 1.03890 0.22386 -0.00007
 C141 C 1.05376 0.22048 -0.02059
 C142 C 1.04599 0.22461 0.04579
 C143 C 1.02056 0.22770 0.05322
 C144 C 1.01280 0.23570 0.07704
 C145 C 0.98693 0.23530 0.07701
 C146 C 0.97950 0.22711 0.05319
 N147 N 1.00010 0.22225 0.03890
 C148 C 0.95421 0.22346 0.04571
 C149 C 0.94641 0.22040 0.02035
 C150 C 0.92185 0.21572 0.01278
 C151 C 0.92178 0.21649 -0.01320
 C152 C 0.94633 0.22158 -0.02068
 N153 N 0.96128 0.22406 -0.00011
 C154 C 0.95412 0.22588 -0.04593
 C155 C 0.97959 0.22900 -0.05331
 C156 C 0.98737 0.23737 -0.07700
 C157 C 1.01323 0.23687 -0.07701
 C158 C 1.02069 0.22820 -0.05333
 N159 N 1.00005 0.22320 -0.03911
 C160 C 1.04601 0.22416 -0.04594
 H161 H 1.09454 0.21228 -0.02498
 H162 H 1.09456 0.21271 0.02498
 H163 H 0.99993 0.21395 -0.02177
 H164 H 1.02457 0.24117 0.09286
 H165 H 0.97497 0.24047 0.09279
 H166 H 0.90558 0.21261 0.02474
 H167 H 0.90543 0.21407 -0.02520
 H168 H 1.02519 0.24224 -0.09274
 H169 H 1.00019 0.21333 0.02139
 H170 H 0.97564 0.24309 -0.09275
 C171 C 0.48648 0.74246 0.57744
 C172 C 0.51232 0.74293 0.57735
 C173 C 0.51982 0.73634 0.55306
 N174 N 0.49946 0.73167 0.53844
 C175 C 0.47905 0.73565 0.55320
 C176 C 0.54504 0.73344 0.54518
 C177 C 0.55236 0.72881 0.51987
 C178 C 0.57631 0.72145 0.51238
 C179 C 0.57628 0.72094 0.48631
 C180 C 0.55232 0.72801 0.47858
 N181 N 0.53793 0.73285 0.49916
 C182 C 0.54496 0.73167 0.45310
 C183 C 0.51973 0.73468 0.44523
 C184 C 0.51219 0.74069 0.42080
 C185 C 0.48634 0.74084 0.42091
 C186 C 0.47895 0.73484 0.44539
 N187 N 0.49937 0.73084 0.46011
 C188 C 0.45375 0.73194 0.45339
 C189 C 0.44644 0.72779 0.47878
 C190 C 0.42246 0.72065 0.48644
 C191 C 0.42251 0.72065 0.51251
 C192 C 0.44650 0.72782 0.52007
 N193 N 0.46089 0.73220 0.49939
 C194 C 0.45387 0.73207 0.54542
 H195 H 0.47455 0.74659 0.59354
 H196 H 0.52422 0.74746 0.59336
 H197 H 0.47841 0.74084 0.49930
 H198 H 0.59226 0.71726 0.52444
 H199 H 0.59223 0.71630 0.47442
 H200 H 0.52403 0.74445 0.40455
 H201 H 0.47437 0.74476 0.40478
 H202 H 0.40654 0.71635 0.52452
 H203 H 0.52043 0.74154 0.49903
 H204 H 0.40646 0.71632 0.47448
 C205 C -0.01331 0.76337 -0.07980
 C206 C 0.01250 0.76283 -0.07957
 C207 C 0.01990 0.76900 -0.05512
 N208 N -0.00054 0.77353 -0.04055
 C209 C -0.02088 0.76989 -0.05549
 C210 C 0.04515 0.77149 -0.04700
 C211 C 0.05233 0.77523 -0.02144
 C212 C 0.07645 0.78155 -0.01346
 C213 C 0.07607 0.78164 0.01259
 C214 C 0.05176 0.77534 0.01989
 N215 N 0.03750 0.77133 -0.00096
 C216 C 0.04396 0.77164 0.04524
 C217 C 0.01868 0.76840 0.05280
 C218 C 0.01102 0.76177 0.07702
 C219 C -0.01481 0.76147 0.07672
 C220 C -0.02210 0.76806 0.05233
 N221 N -0.00158 0.77249 0.03785
 C222 C -0.04726 0.77130 0.04423
 C223 C -0.05415 0.77642 0.01886
 C224 C -0.07770 0.78483 0.01115
 C225 C -0.07733 0.78560 -0.01489
 C226 C -0.05358 0.77760 -0.02243
 N227 N -0.03964 0.77201 -0.00173
 C228 C -0.04612 0.77364 -0.04784
 H229 H -0.02516 0.75951 -0.09603
 H230 H 0.02447 0.75847 -0.09558
 H231 H -0.02252 0.76254 -0.00175
 H232 H 0.09276 0.78527 -0.02519
 H233 H 0.09205 0.78540 0.02477
 H234 H 0.02280 0.75761 0.09323
 H235 H -0.02685 0.75711 0.09268
 H236 H -0.09290 0.79104 -0.02694
 H237 H 0.01964 0.76341 -0.00120
 H238 H -0.09359 0.78960 0.02306
 C239 C 0.57777 0.27812 0.51343
 C240 C 0.57781 0.27794 0.48743
 C241 C 0.55327 0.27300 0.47990
 N242 N 0.53834 0.27000 0.50041
 C243 C 0.55321 0.27323 0.52092
 C244 C 0.54551 0.26936 0.45460
 C245 C 0.52013 0.26630 0.44705
 C246 C 0.51251 0.25847 0.42315
 C247 C 0.48663 0.25883 0.42306
 C248 C 0.47907 0.26687 0.44689
 N249 N 0.49962 0.27165 0.46129
 C250 C 0.45375 0.27056 0.45429
 C251 C 0.44593 0.27383 0.47962
 C252 C 0.42142 0.27883 0.48717
 C253 C 0.42137 0.27841 0.51317
 C254 C 0.44587 0.27320 0.52064
 N255 N 0.46078 0.27029 0.50011
 C256 C 0.45363 0.26927 0.54591
 C257 C 0.47897 0.26591 0.55342
 C258 C 0.48652 0.25782 0.57726
 C259 C 0.51240 0.25805 0.57738
 C260 C 0.52003 0.26622 0.55360
 N261 N 0.49952 0.27124 0.53923
 C262 C 0.54538 0.26980 0.54624
 H263 H 0.59403 0.28104 0.52543
 H264 H 0.59413 0.28072 0.47545
 H265 H 0.49953 0.28027 0.52177
 H266 H 0.52435 0.25316 0.40734
 H267 H 0.47473 0.25378 0.40719
 H268 H 0.40517 0.28200 0.47518
 H269 H 0.40510 0.28121 0.52519
 H270 H 0.52424 0.25286 0.59324
 H271 H 0.49968 0.28052 0.47882
 H272 H 0.47462 0.25242 0.59301
 C273 C 1.07947 -0.01305 0.23521
 C274 C 1.07961 0.01290 0.23521
 C275 C 1.05540 0.02056 0.22893
 N276 N 1.04062 0.00013 0.22486
 C277 C 1.05518 -0.02045 0.22896
 C278 C 1.04763 0.04599 0.22599
 C279 C 1.02238 0.05342 0.22175
 C280 C 1.01481 0.07755 0.21465
 C281 C 0.98891 0.07766 0.21494
 C282 C 0.98132 0.05362 0.22222
 N283 N 1.00183 0.03901 0.22630
 C284 C 0.95610 0.04646 0.22695
 C285 C 0.94812 0.02122 0.23039
 C286 C 0.92393 0.01396 0.23714
 C287 C 0.92380 -0.01199 0.23764
 C288 C 0.94790 -0.01972 0.23115
 N289 N 0.96261 0.00059 0.22646
 C290 C 0.95555 -0.04513 0.22843
 C291 C 0.98063 -0.05267 0.22361
 C292 C 0.98780 -0.07681 0.21626
 C293 C 1.01370 -0.07698 0.21545
 C294 C 1.02169 -0.05294 0.22240
 N295 N 1.00138 -0.03831 0.22738
 C296 C 1.04712 -0.04578 0.22603
 H297 H 1.09545 -0.02509 0.23929
 H298 H 1.09573 0.02478 0.23923
 H299 H 1.00173 -0.02072 0.23606
 H300 H 1.02674 0.09358 0.21025
 H301 H 0.97704 0.09379 0.21083
 H302 H 0.90799 0.02606 0.24113
 H303 H 0.90774 -0.02380 0.24210
 H304 H 1.02535 -0.09310 0.21073
 H305 H 1.00186 0.02141 0.23496
 H306 H 0.97566 -0.09275 0.21226
 C307 C 0.48767 0.57830 0.72589
 C308 C 0.51350 0.57828 0.72544
 C309 C 0.52103 0.55353 0.72974
 N310 N 0.50068 0.53853 0.73298
 C311 C 0.48025 0.55356 0.73049
 C312 C 0.54628 0.54560 0.73238
 C313 C 0.55387 0.52011 0.73514
 C314 C 0.57796 0.51247 0.74188
 C315 C 0.57795 0.48647 0.74183
 C316 C 0.55385 0.47887 0.73508
 N317 N 0.53941 0.49950 0.73071
 C318 C 0.54621 0.45340 0.73230
 C319 C 0.52091 0.44551 0.73012
 C320 C 0.51325 0.42074 0.72614
 C321 C 0.48743 0.42077 0.72709
 C322 C 0.48014 0.44555 0.73159
 N323 N 0.50064 0.46057 0.73359
 C324 C 0.45506 0.45352 0.73546
 C325 C 0.44766 0.47904 0.73838
 C326 C 0.42396 0.48678 0.74630
 C327 C 0.42395 0.51277 0.74586
 C328 C 0.44765 0.52027 0.73772
 N329 N 0.46186 0.49958 0.73290
 C330 C 0.45510 0.54569 0.73411
 H331 H 0.47573 0.59472 0.72352
 H332 H 0.52538 0.59469 0.72264
 H333 H 0.47925 0.49946 0.72396
 H334 H 0.59394 0.52437 0.74634
 H335 H 0.59391 0.47453 0.74627
 H336 H 0.52505 0.40430 0.72325
 H337 H 0.47542 0.40435 0.72504
 H338 H 0.40824 0.52477 0.75096
 H339 H 0.52156 0.49950 0.72274
 H340 H 0.40823 0.47494 0.75177
 C341 C 0.92334 0.98678 0.78001
 C342 C 0.92343 1.01271 0.77920
 C343 C 0.94813 1.02002 0.77481
 N344 N 0.96305 0.99942 0.77276
 C345 C 0.94800 0.97908 0.77605
 C346 C 0.95611 1.04519 0.77088
 C347 C 0.98159 1.05254 0.76819
 C348 C 0.98943 1.07625 0.76015
 C349 C 1.01529 1.07625 0.76094
 C350 C 1.02266 1.05251 0.76947
 N351 N 1.00195 1.03830 0.77410
 C352 C 1.04795 1.04506 0.77371
 C353 C 1.05557 1.01974 0.77767
 C354 C 1.07996 1.01214 0.78327
 C355 C 1.07987 0.98619 0.78334
 C356 C 1.05542 0.97872 0.77782
 N357 N 1.04068 0.99927 0.77428
 C358 C 1.04760 0.95342 0.77411
 C359 C 1.02219 0.94600 0.77069
 C360 C 1.01451 0.92209 0.76294
 C361 C 0.98864 0.92215 0.76288
 C362 C 0.98112 0.94609 0.77051
 N363 N 1.00167 0.96040 0.77553
 C364 C 0.95577 0.95369 0.77348
 H365 H 0.90692 0.97494 0.78270
 H366 H 0.90709 1.02478 0.78117
 H367 H 1.00166 0.97803 0.78416
 H368 H 0.97777 1.09203 0.75445
 H369 H 1.02729 1.09202 0.75592
 H370 H 1.09622 1.02406 0.78650
 H371 H 1.09604 0.97416 0.78665
 H372 H 0.97673 0.90633 0.75778
 H373 H 1.00168 1.02090 0.78319
 H374 H 1.02634 0.90618 0.75792
 C375 C 0.42203 0.48758 0.26887
 C376 C 0.42212 0.51352 0.26851
 C377 C 0.44675 0.52088 0.26381
 N378 N 0.46162 0.50033 0.26112
 C379 C 0.44662 0.47994 0.26436
 C380 C 0.45473 0.54610 0.26038
 C381 C 0.48013 0.55353 0.25755
 C382 C 0.48790 0.57749 0.25017
 C383 C 0.51377 0.57746 0.25076
 C384 C 0.52117 0.55347 0.25841
 N385 N 0.50053 0.53912 0.26280
 C386 C 0.54643 0.54591 0.26218
 C387 C 0.55416 0.52057 0.26545
 C388 C 0.57864 0.51297 0.27054
 C389 C 0.57856 0.48701 0.27041
 C390 C 0.55404 0.47961 0.26527
 N391 N 0.53924 0.50015 0.26209
 C392 C 0.54615 0.45434 0.26183
 C393 C 0.52078 0.44690 0.25847
 C394 C 0.51314 0.42293 0.25102
 C395 C 0.48725 0.42299 0.25097
 C396 C 0.47973 0.44700 0.25837
 N397 N 0.50028 0.46135 0.26319
 C398 C 0.45441 0.45460 0.26153
 H399 H 0.40567 0.47571 0.27176
 H400 H 0.40585 0.52558 0.27111
 H401 H 0.50029 0.47899 0.27175
 H402 H 0.47615 0.59342 0.24505
 H403 H 0.52572 0.59340 0.24621
 H404 H 0.59494 0.52487 0.27362
 H405 H 0.59479 0.47499 0.27340
 H406 H 0.47533 0.40709 0.24612
 H407 H 0.50034 0.52150 0.27142
 H408 H 0.52494 0.40695 0.24627
 O409 O 0.24862 0.18470 0.21500
 O410 O 0.27686 0.17777 0.24990
 O411 O 0.18361 0.21578 0.25067
 O412 O 0.17484 0.24851 0.27638
 O413 O 0.21373 0.25014 0.18384
 O414 O 0.24856 0.27817 0.17624
 O415 O 0.25117 0.28574 0.31483
 O416 O 0.22129 0.25312 0.32225
 O417 O 0.31442 0.25215 0.28375
 O418 O 0.32194 0.22277 0.24792
 O419 O 0.28368 0.31596 0.24976
 O420 O 0.24767 0.32378 0.22131
 O421 O 0.25091 0.31601 0.28413
 O422 O 0.22074 0.32328 0.24829
 O423 O 0.31400 0.28554 0.24973
 O424 O 0.32128 0.24918 0.22048
 O425 O 0.28446 0.25258 0.31461
 O426 O 0.24973 0.22267 0.32269
 O427 O 0.24850 0.21488 0.18413
 O428 O 0.27687 0.25005 0.17659
 O429 O 0.18358 0.25023 0.21458
 O430 O 0.17820 0.28059 0.24960
 O431 O 0.21389 0.18521 0.25031
 O432 O 0.24910 0.17835 0.27860
 Zr433 Zr 0.24807 0.20536 0.24907
 O434 O 0.27197 0.22711 0.27221
 Zr435 Zr 0.20386 0.24993 0.24893
 O436 O 0.22569 0.27349 0.27254
 Zr437 Zr 0.24790 0.24939 0.20405
 O438 O 0.27149 0.27328 0.22539
 Zr439 Zr 0.25017 0.25150 0.29471
 O440 O 0.22596 0.22766 0.27359
 Zr441 Zr 0.29396 0.25124 0.24962
 O442 O 0.27233 0.22709 0.22617
 Zr443 Zr 0.24961 0.29569 0.24985
 O444 O 0.22576 0.27406 0.22606
 O445 O 0.22467 0.22629 0.22558
 O446 O 0.27343 0.27501 0.27335
 C447 C 0.24854 0.19179 0.19173
 C448 C 0.19086 0.19261 0.25067
 C449 C 0.19072 0.25019 0.19133
 C450 C 0.25167 0.30882 0.30734
 C451 C 0.30740 0.25292 0.30700
 C452 C 0.30670 0.30866 0.25000
 H453 H 0.28258 0.21576 0.28255
 H454 H 0.28176 0.28369 0.21376
 H455 H 0.21382 0.21538 0.21498
 H456 H 0.21460 0.28393 0.28334
 H457 H 0.20823 0.24082 0.31698
 H458 H 0.18020 0.25908 0.29086
 H459 H 0.31797 0.26310 0.20841
 H460 H 0.28983 0.23787 0.18235
 H461 H 0.26349 0.21063 0.31898
 H462 H 0.23726 0.18435 0.29178
 H463 H 0.26066 0.31983 0.20849
 H464 H 0.23702 0.29159 0.18225
 H465 H 0.29014 0.18373 0.23816
 H466 H 0.31852 0.21048 0.26163
 H467 H 0.18322 0.29229 0.23585
 H468 H 0.20935 0.32042 0.26283
 O469 O 0.75324 0.81624 0.21628
 O470 O 0.72499 0.82331 0.25124
 O471 O 0.81772 0.78407 0.25149
 O472 O 0.82628 0.75097 0.27676
 O473 O 0.78659 0.75035 0.18455
 O474 O 0.75123 0.72309 0.17700
 O475 O 0.74913 0.71448 0.31551
 O476 O 0.77989 0.74628 0.32301
 O477 O 0.68667 0.74915 0.28511
 O478 O 0.67903 0.77863 0.24963
 O479 O 0.71643 0.68512 0.25034
 O480 O 0.75215 0.67705 0.22181
 O481 O 0.74883 0.68447 0.28460
 O482 O 0.77930 0.67718 0.24863
 O483 O 0.68645 0.71587 0.25083
 O484 O 0.67949 0.75270 0.22176
 O485 O 0.71681 0.74818 0.31577
 O486 O 0.75217 0.77764 0.32357
 O487 O 0.75274 0.78627 0.18524
 O488 O 0.72343 0.75178 0.17779
 O489 O 0.81700 0.74973 0.21501
 O490 O 0.82224 0.71912 0.25001
 O491 O 0.78780 0.81500 0.25167
 O492 O 0.75263 0.82206 0.28000
 Zr493 Zr 0.75338 0.79531 0.25026
 O494 O 0.72932 0.77368 0.27339
 Zr495 Zr 0.79702 0.75015 0.24957
 O496 O 0.77501 0.72669 0.27318
 Zr497 Zr 0.75264 0.75163 0.20499
 O498 O 0.72891 0.72786 0.22630
 Zr499 Zr 0.75094 0.74885 0.29561
 O500 O 0.77535 0.77252 0.27450
 Zr501 Zr 0.70687 0.75000 0.25080
 O502 O 0.72866 0.77409 0.22739
 Zr503 Zr 0.75069 0.70501 0.25046
 O504 O 0.77464 0.72651 0.22666
 O505 O 0.77638 0.77423 0.22651
 O506 O 0.72727 0.72583 0.27422
 C507 C 0.75323 0.80930 0.19296
 C508 C 0.81074 0.80733 0.25185
 C509 C 0.80964 0.74991 0.19182
 C510 C 0.74802 0.69149 0.30785
 C511 C 0.69383 0.74818 0.30831
 C512 C 0.69350 0.69267 0.25085
 H513 H 0.71893 0.78510 0.28386
 H514 H 0.71846 0.71766 0.21466
 H515 H 0.78739 0.78503 0.21596
 H516 H 0.78598 0.71600 0.28387
 H517 H 0.79314 0.75842 0.31787
 H518 H 0.82082 0.74052 0.29130
 H519 H 0.68257 0.73883 0.20959
 H520 H 0.71086 0.76430 0.18365
 H521 H 0.73814 0.78953 0.32044
 H522 H 0.76444 0.81581 0.29310
 H523 H 0.73929 0.68135 0.20896
 H524 H 0.76269 0.70947 0.18276
 H525 H 0.71169 0.81771 0.23936
 H526 H 0.68312 0.79117 0.26291
 H527 H 0.81702 0.70759 0.23620
 H528 H 0.79026 0.67924 0.26363
 O529 O 0.75180 0.18333 0.78471
 O530 O 0.72361 0.17615 0.74987
 O531 O 0.81674 0.21480 0.74880
 O532 O 0.82521 0.24780 0.72329
 O533 O 0.78605 0.24907 0.81576
 O534 O 0.75088 0.27678 0.82317
 O535 O 0.74872 0.28473 0.68491
 O536 O 0.77945 0.25189 0.67792
 O537 O 0.68578 0.25022 0.71547
 O538 O 0.67841 0.22058 0.75095
 O539 O 0.71576 0.31423 0.74969
 O540 O 0.75195 0.32184 0.77891
 O541 O 0.74847 0.31482 0.71574
 O542 O 0.77837 0.32245 0.75131
 O543 O 0.68570 0.28353 0.74938
 O544 O 0.67864 0.24699 0.77872
 O545 O 0.71587 0.25145 0.68477
 O546 O 0.74670 0.22216 0.67665
 O547 O 0.75162 0.21351 0.81552
 O548 O 0.72296 0.24823 0.82291
 O549 O 0.81630 0.24932 0.78512
 O550 O 0.82172 0.27948 0.74986
 O551 O 0.78670 0.18403 0.74967
 O552 O 0.75022 0.17637 0.72144
 Zr553 Zr 0.75230 0.20388 0.75050
 O554 O 0.72850 0.22561 0.72718
 Zr555 Zr 0.79614 0.24876 0.75067
 O556 O 0.77421 0.27240 0.72719
 Zr557 Zr 0.75197 0.24793 0.79547
 O558 O 0.72818 0.27161 0.77411
 Zr559 Zr 0.74999 0.25036 0.70487
 O560 O 0.77428 0.22631 0.72586
 Zr561 Zr 0.70607 0.24940 0.74971
 O562 O 0.72779 0.22544 0.77328
 Zr563 Zr 0.75004 0.29430 0.74988
 O564 O 0.77406 0.27273 0.77354
 O565 O 0.77546 0.22499 0.77404
 O566 O 0.72650 0.27350 0.72624
 C567 C 0.75176 0.19043 0.80797
 C568 C 0.80967 0.19157 0.74896
 C569 C 0.80908 0.24933 0.80836
 C570 C 0.74774 0.30776 0.69251
 C571 C 0.69289 0.25139 0.69227
 C572 C 0.69280 0.30672 0.74911
 H573 H 0.71832 0.21424 0.71639
 H574 H 0.71775 0.28188 0.78570
 H575 H 0.78640 0.21420 0.78468
 H576 H 0.78525 0.28299 0.71646
 H577 H 0.79119 0.23795 0.68208
 H578 H 0.81918 0.25730 0.70834
 H579 H 0.68166 0.26102 0.79073
 H580 H 0.71003 0.23610 0.81699
 H581 H 0.75815 0.20830 0.68160
 H582 H 0.76514 0.17865 0.71045
 H583 H 0.73812 0.31843 0.79100
 H584 H 0.76248 0.29022 0.81728
 H585 H 0.71034 0.18204 0.76164
 H586 H 0.68232 0.20830 0.73738
 H587 H 0.81651 0.29131 0.76341
 H588 H 0.79017 0.31938 0.73714
 O589 O 0.24989 0.81690 0.78568
 O590 O 0.27770 0.82392 0.75051
 O591 O 0.18510 0.78430 0.75087
 O592 O 0.17673 0.75125 0.72551
 O593 O 0.21623 0.75101 0.81776
 O594 O 0.25172 0.72394 0.82552
 O595 O 0.25400 0.71482 0.68698
 O596 O 0.22284 0.74645 0.67947
 O597 O 0.31619 0.74977 0.71708
 O598 O 0.32357 0.77970 0.75263
 O599 O 0.28677 0.68582 0.75213
 O600 O 0.25122 0.67763 0.78078
 O601 O 0.25436 0.68491 0.71802
 O602 O 0.22382 0.67774 0.75415
 O603 O 0.31664 0.71670 0.75134
 O604 O 0.32361 0.75346 0.78032
 O605 O 0.28597 0.74882 0.68650
 O606 O 0.25064 0.77779 0.67845
 O607 O 0.25041 0.78708 0.81689
 O608 O 0.27946 0.75254 0.82460
 O609 O 0.18594 0.75001 0.78718
 O610 O 0.18084 0.71939 0.75240
 O611 O 0.21487 0.81539 0.75066
 O612 O 0.24980 0.82255 0.72203
 Zr613 Zr 0.24939 0.79584 0.75185
 O614 O 0.27349 0.77424 0.72878
 Zr615 Zr 0.20596 0.75051 0.75274
 O616 O 0.22800 0.72704 0.72924
 Zr617 Zr 0.25029 0.75233 0.79735
 O618 O 0.27413 0.72860 0.77611
 Zr619 Zr 0.25192 0.74925 0.70670
 O620 O 0.22748 0.77292 0.72772
 Zr621 Zr 0.29606 0.75073 0.75145
 O622 O 0.27419 0.77477 0.77479
 Zr623 Zr 0.25244 0.70556 0.75206
 O624 O 0.22841 0.72705 0.77577
 O625 O 0.22650 0.77476 0.77574
 O626 O 0.27570 0.72642 0.72817
 C627 C 0.25008 0.81008 0.80903
 C628 C 0.19196 0.80760 0.75055
 C629 C 0.19319 0.75033 0.81038
 C630 C 0.25521 0.69186 0.69475
 C631 C 0.30896 0.74880 0.69391
 C632 C 0.30968 0.69347 0.75139
 H633 H 0.28383 0.78568 0.71825
 H634 H 0.28465 0.71847 0.78775
 H635 H 0.21553 0.78557 0.78632
 H636 H 0.21707 0.71626 0.71861
 H637 H 0.20968 0.75875 0.68446
 H638 H 0.18214 0.74064 0.71108
 H639 H 0.32066 0.73955 0.79249
 H640 H 0.29222 0.76478 0.81852
 H641 H 0.26409 0.79022 0.68200
 H642 H 0.23787 0.81627 0.70906
 H643 H 0.26402 0.68208 0.79363
 H644 H 0.24048 0.71017 0.81972
 H645 H 0.29128 0.81820 0.76201
 H646 H 0.32005 0.79160 0.73861
 H647 H 0.18614 0.70787 0.76619
 H648 H 0.21302 0.67948 0.73897
 O649 O 0.25210 0.31590 0.71741
 O650 O 0.22338 0.32324 0.75160
 O651 O 0.31582 0.28313 0.75385
 O652 O 0.32355 0.24976 0.77905
 O653 O 0.28556 0.24988 0.68613
 O654 O 0.24998 0.22292 0.67785
 O655 O 0.24525 0.21368 0.81591
 O656 O 0.27685 0.24546 0.82382
 O657 O 0.18389 0.24898 0.78491
 O658 O 0.17724 0.27911 0.74970
 O659 O 0.21364 0.18509 0.75046
 O660 O 0.25018 0.17741 0.72161
 O661 O 0.24514 0.18389 0.78477
 O662 O 0.27612 0.17620 0.74984
 O663 O 0.18388 0.21608 0.75092
 O664 O 0.17781 0.25310 0.72140
 O665 O 0.21358 0.24732 0.81599
 O666 O 0.24483 0.27638 0.82461
 O667 O 0.25189 0.28604 0.68627
 O668 O 0.22264 0.25200 0.67804
 O669 O 0.31540 0.24892 0.71716
 O670 O 0.31982 0.21832 0.75229
 O671 O 0.28619 0.31429 0.75303
 O672 O 0.24915 0.32205 0.78078
 Zr673 Zr 0.25153 0.29497 0.75134
 O674 O 0.22703 0.27335 0.77402
 Zr675 Zr 0.29478 0.24948 0.75133
 O676 O 0.27218 0.22594 0.77426
 Zr677 Zr 0.25122 0.25141 0.70591
 O678 O 0.22681 0.22780 0.72662
 Zr679 Zr 0.24794 0.24816 0.79637
 O680 O 0.27290 0.27202 0.77604
 Zr681 Zr 0.20463 0.25005 0.75093
 O682 O 0.22704 0.27400 0.72798
 Zr683 Zr 0.24808 0.20465 0.75092
 O684 O 0.27270 0.22611 0.72785
 O685 O 0.27475 0.27376 0.72794
 O686 O 0.22451 0.22557 0.77437
 C687 C 0.25242 0.30902 0.69408
 C688 C 0.30905 0.30644 0.75393
 C689 C 0.30847 0.24919 0.69384
 C690 C 0.24375 0.19080 0.80802
 C691 C 0.19072 0.24747 0.80819
 C692 C 0.19077 0.19282 0.75109
 H693 H 0.21684 0.28474 0.78478
 H694 H 0.21642 0.21776 0.71479
 H695 H 0.28605 0.28447 0.71760
 H696 H 0.28284 0.21508 0.78509
 H697 H 0.28905 0.25912 0.82005
 H698 H 0.31717 0.24025 0.79386
 H699 H 0.18048 0.23879 0.70965
 H700 H 0.20977 0.26417 0.68398
 H701 H 0.25731 0.28958 0.82041
 H702 H 0.26398 0.31965 0.79187
 H703 H 0.23639 0.18090 0.70951
 H704 H 0.26127 0.20922 0.68371
 H705 H 0.21010 0.31752 0.73975
 H706 H 0.18130 0.29137 0.76325
 H707 H 0.31461 0.20670 0.73855
 H708 H 0.28729 0.17862 0.76463
 O709 O 0.74966 0.68522 0.71396
 O710 O 0.77827 0.67779 0.74840
 O711 O 0.68501 0.71603 0.75056
 O712 O 0.67650 0.74869 0.77641
 O713 O 0.71505 0.75135 0.68378
 O714 O 0.75023 0.77900 0.67627
 O715 O 0.75283 0.78548 0.81469
 O716 O 0.72267 0.75212 0.82160
 O717 O 0.81604 0.75186 0.78319
 O718 O 0.82330 0.72249 0.74753
 O719 O 0.78549 0.81588 0.75033
 O720 O 0.74934 0.82375 0.72112
 O721 O 0.75280 0.81591 0.78415
 O722 O 0.72275 0.82372 0.74862
 O723 O 0.81570 0.78535 0.74987
 O724 O 0.82260 0.74908 0.71983
 O725 O 0.78618 0.75283 0.81413
 O726 O 0.75583 0.72290 0.82227
 O727 O 0.74941 0.71570 0.68340
 O728 O 0.77814 0.75048 0.67616
 O729 O 0.68505 0.75107 0.71466
 O730 O 0.67976 0.78067 0.75040
 O731 O 0.71515 0.68540 0.74922
 O732 O 0.75194 0.67757 0.77707
 Zr733 Zr 0.74947 0.70539 0.74832
 O734 O 0.77337 0.72698 0.77166
 Zr735 Zr 0.70545 0.75008 0.74892
 O736 O 0.72742 0.77355 0.77246
 Zr737 Zr 0.74930 0.74993 0.70377
 O738 O 0.77312 0.77352 0.72517
 Zr739 Zr 0.75190 0.75135 0.79436
 O740 O 0.72756 0.72743 0.77334
 Zr741 Zr 0.79548 0.75113 0.74916
 O742 O 0.77371 0.72729 0.72554
 Zr743 Zr 0.75131 0.79580 0.74980
 O744 O 0.72725 0.77438 0.72609
 O745 O 0.72605 0.72668 0.72516
 O746 O 0.77509 0.77484 0.77302
 C747 C 0.74936 0.69256 0.69077
 C748 C 0.69217 0.69284 0.75014
 C749 C 0.69209 0.75148 0.69138
 C750 C 0.75359 0.80858 0.80731
 C751 C 0.80908 0.75303 0.80642
 C752 C 0.80848 0.80848 0.75071
 H753 H 0.78369 0.71557 0.78227
 H754 H 0.78345 0.78398 0.71364
 H755 H 0.71502 0.71600 0.71450
 H756 H 0.71638 0.78393 0.78337
 H757 H 0.71111 0.73803 0.81743
 H758 H 0.68280 0.75757 0.79161
 H759 H 0.81971 0.76350 0.70824
 H760 H 0.79112 0.73832 0.68189
 H761 H 0.74468 0.70885 0.81718
 H762 H 0.73704 0.67954 0.78815
 H763 H 0.76327 0.82066 0.70908
 H764 H 0.73892 0.79251 0.68248
 H765 H 0.79144 0.68392 0.73663
 H766 H 0.81958 0.71009 0.76105
 H767 H 0.68472 0.79265 0.73687
 H768 H 0.71119 0.82060 0.76297
 O769 O 0.24879 0.68357 0.28411
 O770 O 0.22095 0.67641 0.24895
 O771 O 0.31405 0.71509 0.24804
 O772 O 0.32278 0.74828 0.22314
 O773 O 0.28316 0.74923 0.31532
 O774 O 0.24792 0.77702 0.32257
 O775 O 0.24697 0.78522 0.18456
 O776 O 0.27736 0.75180 0.17766
 O777 O 0.18338 0.75050 0.21462
 O778 O 0.17607 0.72065 0.25029
 O779 O 0.21323 0.81446 0.24876
 O780 O 0.24914 0.82186 0.27878
 O781 O 0.24667 0.81521 0.21549
 O782 O 0.27567 0.82282 0.25137
 O783 O 0.18313 0.78379 0.24831
 O784 O 0.17569 0.74752 0.27761
 O785 O 0.21363 0.75210 0.18410
 O786 O 0.24418 0.72296 0.17573
 O787 O 0.24844 0.71375 0.31492
 O788 O 0.22019 0.74843 0.32238
 O789 O 0.31350 0.74939 0.28477
 O790 O 0.31920 0.77960 0.24967
 O791 O 0.28407 0.68428 0.24898
 O792 O 0.24771 0.67652 0.22092
 Zr793 Zr 0.24965 0.70411 0.24990
 O794 O 0.22602 0.72592 0.22647
 Zr795 Zr 0.29350 0.74897 0.25031
 O796 O 0.27175 0.77271 0.22685
 Zr797 Zr 0.24916 0.74813 0.29492
 O798 O 0.22546 0.77183 0.27352
 Zr799 Zr 0.24763 0.75074 0.20435
 O800 O 0.27173 0.72658 0.22538
 Zr801 Zr 0.20349 0.74968 0.24893
 O802 O 0.22507 0.72570 0.27259
 Zr803 Zr 0.24750 0.79455 0.24950
 O804 O 0.27141 0.77292 0.27316
 O805 O 0.27275 0.72515 0.27359
 O806 O 0.22407 0.77385 0.22565
 C807 C 0.24846 0.69069 0.30737
 C808 C 0.30702 0.69187 0.24803
 C809 C 0.30620 0.74951 0.30796
 C810 C 0.24624 0.80822 0.19224
 C811 C 0.19062 0.75191 0.19148
 C812 C 0.19028 0.80697 0.24795
 H813 H 0.21590 0.71459 0.21558
 H814 H 0.21494 0.78209 0.28504
 H815 H 0.28363 0.71428 0.28423
 H816 H 0.28292 0.78330 0.21625
 H817 H 0.28875 0.73757 0.18180
 H818 H 0.31663 0.75740 0.20801
 H819 H 0.17878 0.76142 0.28975
 H820 H 0.20696 0.73680 0.31614
 H821 H 0.25461 0.70848 0.18113
 H822 H 0.26251 0.67897 0.20980
 H823 H 0.23484 0.81877 0.29038
 H824 H 0.25970 0.79037 0.31685
 H825 H 0.20760 0.68227 0.26064
 H826 H 0.17960 0.70875 0.23627
 H827 H 0.31414 0.79130 0.26340
 H828 H 0.28810 0.81931 0.23788
 O829 O 0.74977 0.31574 0.28537
 O830 O 0.77805 0.32311 0.25053
 O831 O 0.68542 0.28366 0.24942
 O832 O 0.67690 0.25046 0.22437
 O833 O 0.71625 0.24960 0.31665
 O834 O 0.75165 0.22234 0.32415
 O835 O 0.75392 0.21466 0.18566
 O836 O 0.72333 0.24671 0.17830
 O837 O 0.81658 0.24914 0.21642
 O838 O 0.82363 0.27907 0.25224
 O839 O 0.78710 0.18514 0.25020
 O840 O 0.75123 0.17690 0.27942
 O841 O 0.75423 0.18446 0.21642
 O842 O 0.72442 0.17654 0.25225
 O843 O 0.81693 0.21607 0.25019
 O844 O 0.82372 0.25241 0.27963
 O845 O 0.78649 0.24801 0.18571
 O846 O 0.75132 0.27775 0.17776
 O847 O 0.75026 0.28557 0.31625
 O848 O 0.77936 0.25106 0.32373
 O849 O 0.68600 0.24921 0.28602
 O850 O 0.68095 0.21873 0.25109
 O851 O 0.71527 0.31467 0.24964
 O852 O 0.75050 0.32211 0.22178
 Zr853 Zr 0.74969 0.29506 0.25128
 O854 O 0.77383 0.27368 0.22805
 Zr855 Zr 0.70614 0.24979 0.25160
 O856 O 0.72827 0.22652 0.22800
 Zr857 Zr 0.75032 0.25108 0.29633
 O858 O 0.77428 0.22757 0.27498
 Zr859 Zr 0.75230 0.24890 0.20571
 O860 O 0.72783 0.27238 0.22687
 Zr861 Zr 0.79627 0.24998 0.25064
 O862 O 0.77433 0.27376 0.27415
 Zr863 Zr 0.75265 0.20478 0.25065
 O864 O 0.72849 0.22605 0.27443
 O865 O 0.72662 0.27380 0.27486
 O866 O 0.77598 0.22588 0.22707
 C867 C 0.74982 0.30864 0.30864
 C868 C 0.69236 0.30694 0.24907
 C869 C 0.69323 0.24919 0.30924
 C870 C 0.75495 0.19163 0.19321
 C871 C 0.80944 0.24792 0.19323
 C872 C 0.81001 0.19284 0.24966
 H873 H 0.78422 0.28517 0.21764
 H874 H 0.78477 0.21733 0.28654
 H875 H 0.71555 0.28456 0.28539
 H876 H 0.71733 0.21587 0.21724
 H877 H 0.71016 0.25891 0.18350
 H878 H 0.68253 0.24026 0.20974
 H879 H 0.82068 0.23842 0.29169
 H880 H 0.79213 0.26338 0.31784
 H881 H 0.76540 0.28957 0.18094
 H882 H 0.73903 0.31579 0.20842
 H883 H 0.76486 0.18055 0.29165
 H884 H 0.74046 0.20863 0.31813
 H885 H 0.79143 0.31733 0.26223
 H886 H 0.82024 0.29099 0.23820
 H887 H 0.68622 0.20712 0.26482
 H888 H 0.71266 0.17946 0.23802
 C889 C 0.23984 0.13696 0.13794
 C890 C 0.21974 0.11956 0.14075
 C891 C 0.21526 0.10107 0.12173
 C892 C 0.23098 0.10002 0.10010
 C893 C 0.25113 0.11736 0.09734
 C894 C 0.25556 0.13589 0.11631
 C895 C 0.27579 0.15305 0.11313
 C896 C 0.29121 0.15193 0.09180
 C897 C 0.28689 0.13380 0.07324
 C898 C 0.26712 0.11667 0.07588
 C899 C 0.19499 0.08396 0.12488
 C900 C 0.17967 0.08498 0.14629
 C901 C 0.18414 0.10294 0.16497
 C902 C 0.20384 0.12015 0.16229
 C903 C 0.22670 0.08096 0.08080
 C904 C 0.22372 0.06516 0.06461
 C905 C 0.24396 0.15628 0.15700
 C906 C 0.24668 0.17247 0.17283
 H907 H 0.27992 0.16747 0.12706
 H908 H 0.30660 0.16519 0.08967
 H909 H 0.29893 0.13300 0.05671
 H910 H 0.26454 0.10292 0.06093
 H911 H 0.19077 0.06964 0.11086
 H912 H 0.16427 0.07173 0.14842
 H913 H 0.17227 0.10354 0.18163
 H914 H 0.20651 0.13382 0.17731
 C915 C 0.73875 0.63807 0.63710
 C916 C 0.71401 0.62852 0.63400
 C917 C 0.70918 0.60948 0.61564
 C918 C 0.72909 0.60027 0.60038
 C919 C 0.75378 0.60998 0.60334
 C920 C 0.75864 0.62888 0.62183
 C921 C 0.78348 0.63820 0.62457
 C922 C 0.80297 0.62917 0.60940
 C923 C 0.79821 0.61077 0.59122
 C924 C 0.77395 0.60121 0.58815
 C925 C 0.68436 0.60010 0.61296
 C926 C 0.66480 0.60940 0.62791
 C927 C 0.66947 0.62814 0.64575
 C928 C 0.69377 0.63760 0.64891
 C929 C 0.72429 0.58089 0.58156
 C930 C 0.72099 0.56483 0.56571
 C931 C 0.74364 0.65739 0.65595
 C932 C 0.74695 0.67346 0.67175
 H933 H 0.78809 0.65255 0.63843
 H934 H 0.82185 0.63652 0.61174
 H935 H 0.81341 0.60385 0.57945
 H936 H 0.77121 0.58692 0.57374
 H937 H 0.67981 0.58553 0.59931
 H938 H 0.64592 0.60203 0.62562
 H939 H 0.65422 0.63532 0.65729
 H940 H 0.69645 0.65211 0.66310
 C941 C 0.76377 0.86392 0.13917
 C942 C 0.77231 0.85672 0.11480
 C943 C 0.77671 0.87548 0.09600
 C944 C 0.77220 0.90128 0.10158
 C945 C 0.76426 0.90852 0.12614
 C946 C 0.76020 0.88980 0.14504
 C947 C 0.75256 0.89751 0.16954
 C948 C 0.74894 0.92300 0.17518
 C949 C 0.75272 0.94130 0.15665
 C950 C 0.76026 0.93425 0.13237
 C951 C 0.78557 0.86786 0.07190
 C952 C 0.78981 0.84243 0.06644
 C953 C 0.78531 0.82408 0.08474
 C954 C 0.77667 0.83102 0.10868
 C955 C 0.77498 0.92026 0.08187
 C956 C 0.77674 0.93602 0.06542
 C957 C 0.75905 0.84474 0.15827
 C958 C 0.75576 0.82865 0.17412
 H959 H 0.74937 0.88397 0.18458
 H960 H 0.74313 0.92857 0.19402
 H961 H 0.74981 0.96107 0.16110
 H962 H 0.76298 0.94917 0.11862
 H963 H 0.78950 0.88146 0.05710
 H964 H 0.79666 0.83696 0.04792
 H965 H 0.78869 0.80435 0.08043
 H966 H 0.77363 0.81606 0.12234
 C967 C 0.26447 0.36350 0.64068
 C968 C 0.27159 0.35609 0.61593
 C969 C 0.27636 0.37477 0.59718
 C970 C 0.27357 0.40070 0.60322
 C971 C 0.26730 0.40813 0.62820
 C972 C 0.26288 0.38945 0.64704
 C973 C 0.25688 0.39729 0.67196
 C974 C 0.25524 0.42287 0.67807
 C975 C 0.25940 0.44115 0.65960
 C976 C 0.26532 0.43397 0.63491
 C977 C 0.28382 0.36696 0.57266
 C978 C 0.28633 0.34139 0.56677
 C979 C 0.28142 0.32310 0.58504
 C980 C 0.27413 0.33024 0.60936
 C981 C 0.27598 0.41964 0.58350
 C982 C 0.27722 0.43536 0.56701
 C983 C 0.25919 0.34442 0.65967
 C984 C 0.25544 0.32837 0.67540
 H985 H 0.25348 0.38377 0.68697
 H986 H 0.25071 0.42854 0.69724
 H987 H 0.25807 0.46100 0.66443
 H988 H 0.26845 0.44887 0.62122
 H989 H 0.28802 0.38049 0.55789
 H990 H 0.29213 0.33575 0.54794
 H991 H 0.28342 0.30326 0.58039
 H992 H 0.27070 0.31532 0.62297
 C993 C 0.76020 0.13583 0.86211
 C994 C 0.78502 0.12837 0.86854
 C995 C 0.78894 0.10964 0.88746
 C996 C 0.76804 0.09852 0.89985
 C997 C 0.74323 0.10595 0.89337
 C998 C 0.73931 0.12465 0.87443
 C999 C 0.71436 0.13177 0.86826
 C1000 C 0.69385 0.12072 0.88045
 C1001 C 0.69767 0.10244 0.89899
 C1002 C 0.72203 0.09507 0.90546
 C1003 C 0.81389 0.10246 0.89356
 C1004 C 0.83440 0.11351 0.88134
 C1005 C 0.83058 0.13186 0.86287
 C1006 C 0.80621 0.13927 0.85646
 C1007 C 0.77191 0.07953 0.91935
 C1008 C 0.77449 0.06378 0.93568
 C1009 C 0.75625 0.15508 0.84290
 C1010 C 0.75361 0.17116 0.82695
 H1011 H 0.71044 0.14591 0.85397
 H1012 H 0.67489 0.12638 0.87549
 H1013 H 0.68167 0.09391 0.90841
 H1014 H 0.72401 0.08078 0.91999
 H1015 H 0.81781 0.08826 0.90779
 H1016 H 0.85337 0.10780 0.88622
 H1017 H 0.84656 0.14040 0.85344
 H1018 H 0.80422 0.15361 0.84196
 C1019 C 0.25489 0.63676 0.36239
 C1020 C 0.24688 0.61157 0.35822
 C1021 C 0.25059 0.59300 0.37733
 C1022 C 0.26228 0.59976 0.40046
 C1023 C 0.27043 0.62492 0.40457
 C1024 C 0.26666 0.64351 0.38550
 C1025 C 0.27488 0.66858 0.39007
 C1026 C 0.28654 0.67506 0.41281
 C1027 C 0.29038 0.65683 0.43139
 C1028 C 0.28243 0.63203 0.42744
 C1029 C 0.24249 0.56790 0.37273
 C1030 C 0.23108 0.56134 0.34988
 C1031 C 0.22744 0.57952 0.33121
 C1032 C 0.23519 0.60437 0.33523
 C1033 C 0.26566 0.58090 0.42011
 C1034 C 0.26822 0.56516 0.43641
 C1035 C 0.25165 0.65562 0.34270
 C1036 C 0.24965 0.67149 0.32644
 H1037 H 0.27244 0.68340 0.37615
 H1038 H 0.29280 0.69429 0.41595
 H1039 H 0.29960 0.66193 0.44896
 H1040 H 0.28586 0.61851 0.44245
 H1041 H 0.24493 0.55309 0.38666
 H1042 H 0.22503 0.54205 0.34666
 H1043 H 0.21855 0.57434 0.31350
 H1044 H 0.23194 0.61785 0.32014
 C1045 C 0.24119 0.86545 0.86229
 C1046 C 0.25730 0.86716 0.88358
 C1047 C 0.25273 0.88573 0.90249
 C1048 C 0.23198 0.90241 0.90006
 C1049 C 0.21588 0.90072 0.87875
 C1050 C 0.22059 0.88229 0.85972
 C1051 C 0.20440 0.88116 0.83843
 C1052 C 0.18413 0.89773 0.83605
 C1053 C 0.17935 0.91553 0.85480
 C1054 C 0.19499 0.91710 0.87595
 C1055 C 0.26915 0.88711 0.92358
 C1056 C 0.28941 0.87054 0.92598
 C1057 C 0.29384 0.85236 0.90751
 C1058 C 0.27805 0.85062 0.88650
 C1059 C 0.22747 0.92140 0.91939
 C1060 C 0.22435 0.93707 0.93569
 C1061 C 0.24536 0.84596 0.84338
 C1062 C 0.24813 0.82962 0.82773
 H1063 H 0.20727 0.86757 0.82338
 H1064 H 0.17206 0.89676 0.81955
 H1065 H 0.16348 0.92824 0.85293
 H1066 H 0.19052 0.93125 0.89004
 H1067 H 0.26654 0.90097 0.93841
 H1068 H 0.30174 0.87184 0.94226
 H1069 H 0.30962 0.83955 0.90945
 H1070 H 0.28231 0.83620 0.87260
 C1071 C 0.73908 0.36295 0.36253
 C1072 C 0.75934 0.37476 0.37531
 C1073 C 0.75441 0.39337 0.39407
 C1074 C 0.72925 0.40008 0.39992
 C1075 C 0.70898 0.38824 0.38716
 C1076 C 0.71391 0.36960 0.36841
 C1077 C 0.69333 0.35796 0.35594
 C1078 C 0.66861 0.36453 0.36186
 C1079 C 0.66380 0.38277 0.38017
 C1080 C 0.68368 0.39457 0.39273
 C1081 C 0.77499 0.40488 0.40665
 C1082 C 0.79970 0.39819 0.40084
 C1083 C 0.80451 0.38000 0.38247
 C1084 C 0.78463 0.36836 0.36978
 C1085 C 0.72437 0.41914 0.41907
 C1086 C 0.72106 0.43503 0.43510
 C1087 C 0.74404 0.34386 0.34345
 C1088 C 0.74738 0.32787 0.32756
 H1089 H 0.69609 0.34367 0.34154
 H1090 H 0.65311 0.35542 0.35215
 H1091 H 0.64456 0.38782 0.38468
 H1092 H 0.67901 0.40865 0.40684
 H1093 H 0.77224 0.41912 0.42110
 H1094 H 0.81521 0.40718 0.41065
 H1095 H 0.82374 0.37487 0.37801
 H1096 H 0.78931 0.35431 0.35564
 C1097 C 0.13644 0.24181 0.13704
 C1098 C 0.13810 0.25464 0.11355
 C1099 C 0.11958 0.25042 0.09457
 C1100 C 0.09947 0.23344 0.09921
 C1101 C 0.09789 0.22049 0.12265
 C1102 C 0.11643 0.22467 0.14162
 C1103 C 0.11447 0.21147 0.16488
 C1104 C 0.09472 0.19468 0.16929
 C1105 C 0.07663 0.19054 0.15073
 C1106 C 0.07808 0.20328 0.12765
 C1107 C 0.12169 0.26341 0.07120
 C1108 C 0.14152 0.28008 0.06671
 C1109 C 0.15961 0.28422 0.08528
 C1110 C 0.15802 0.27170 0.10847
 C1111 C 0.08025 0.22966 0.08002
 C1112 C 0.06425 0.22701 0.06402
 C1113 C 0.15558 0.24579 0.15629
 C1114 C 0.17157 0.24841 0.17228
 H1115 H 0.12814 0.21396 0.17988
 H1116 H 0.09350 0.18475 0.18720
 H1117 H 0.06139 0.17740 0.15423
 H1118 H 0.06355 0.19945 0.11379
 H1119 H 0.10811 0.26079 0.05615
 H1120 H 0.14286 0.28985 0.04872
 H1121 H 0.17498 0.29719 0.08171
 H1122 H 0.17255 0.27554 0.12231
 C1123 C 0.63754 0.74589 0.63709
 C1124 C 0.61810 0.76407 0.63491
 C1125 C 0.59915 0.76112 0.61614
 C1126 C 0.59980 0.74003 0.59962
 C1127 C 0.61914 0.72175 0.60190
 C1128 C 0.63809 0.72469 0.62068
 C1129 C 0.65727 0.70617 0.62257
 C1130 C 0.65769 0.68537 0.60638
 C1131 C 0.63910 0.68245 0.58808
 C1132 C 0.62001 0.70039 0.58576
 C1133 C 0.57984 0.77951 0.61439
 C1134 C 0.57929 0.80021 0.63071
 C1135 C 0.59785 0.80311 0.64904
 C1136 C 0.61708 0.78531 0.65120
 C1137 C 0.58062 0.73725 0.58024
 C1138 C 0.56456 0.73528 0.56423
 C1139 C 0.65680 0.74875 0.65638
 C1140 C 0.67286 0.75052 0.67240
 H1141 H 0.67213 0.70757 0.63653
 H1142 H 0.67254 0.67145 0.60801
 H1143 H 0.63949 0.66622 0.57559
 H1144 H 0.60597 0.69730 0.57123
 H1145 H 0.56497 0.77808 0.60044
 H1146 H 0.56437 0.81407 0.62913
 H1147 H 0.59735 0.81922 0.66167
 H1148 H 0.63110 0.78838 0.66576
 C1149 C 0.13806 0.75726 0.86393
 C1150 C 0.11800 0.77423 0.85896
 C1151 C 0.09898 0.77812 0.87750
 C1152 C 0.10008 0.76496 0.90084
 C1153 C 0.12025 0.74818 0.90588
 C1154 C 0.13922 0.74421 0.88732
 C1155 C 0.15904 0.72714 0.89269
 C1156 C 0.16018 0.71447 0.91582
 C1157 C 0.14173 0.71849 0.93405
 C1158 C 0.12195 0.73511 0.92925
 C1159 C 0.07918 0.79524 0.87217
 C1160 C 0.07816 0.80809 0.84912
 C1161 C 0.09665 0.80415 0.83092
 C1162 C 0.11643 0.78750 0.83570
 C1163 C 0.08022 0.76806 0.91946
 C1164 C 0.06379 0.76996 0.93511
 C1165 C 0.15774 0.75375 0.84518
 C1166 C 0.17402 0.75159 0.82942
 H1167 H 0.17383 0.72339 0.87909
 H1168 H 0.17546 0.70146 0.91961
 H1169 H 0.14273 0.70867 0.95202
 H1170 H 0.10809 0.73764 0.94406
 H1171 H 0.06436 0.79892 0.88575
 H1172 H 0.06292 0.82115 0.84535
 H1173 H 0.09572 0.81410 0.81301
 H1174 H 0.13039 0.78513 0.82096
 C1175 C 0.63875 0.25514 0.36361
 C1176 C 0.64078 0.27481 0.38171
 C1177 C 0.62157 0.27813 0.40017
 C1178 C 0.60055 0.26166 0.40053
 C1179 C 0.59861 0.24188 0.38253
 C1180 C 0.61774 0.23866 0.36398
 C1181 C 0.61533 0.21885 0.34612
 C1182 C 0.59464 0.20264 0.34660
 C1183 C 0.57598 0.20573 0.36479
 C1184 C 0.57785 0.22508 0.38260
 C1185 C 0.62392 0.29802 0.41796
 C1186 C 0.64476 0.31406 0.41766
 C1187 C 0.66363 0.31069 0.39974
 C1188 C 0.66172 0.29141 0.38185
 C1189 C 0.58106 0.26482 0.41955
 C1190 C 0.56488 0.26711 0.43541
 C1191 C 0.65808 0.25215 0.34439
 C1192 C 0.67412 0.25028 0.32835
 H1193 H 0.62940 0.21565 0.33163
 H1194 H 0.59311 0.18758 0.33280
 H1195 H 0.55996 0.19306 0.36512
 H1196 H 0.56288 0.22668 0.39640
 H1197 H 0.60974 0.30137 0.43229
 H1198 H 0.64628 0.32914 0.43143
 H1199 H 0.67985 0.32310 0.39970
 H1200 H 0.67686 0.28962 0.36825
 C1201 C 0.86263 0.75680 0.13613
 C1202 C 0.86280 0.77938 0.12163
 C1203 C 0.88099 0.78271 0.10216
 C1204 C 0.89899 0.76354 0.09743
 C1205 C 0.89884 0.74100 0.11194
 C1206 C 0.88057 0.73761 0.13132
 C1207 C 0.88077 0.71492 0.14556
 C1208 C 0.89853 0.69611 0.14081
 C1209 C 0.91642 0.69944 0.12188
 C1210 C 0.91667 0.72158 0.10756
 C1211 C 0.88077 0.80537 0.08786
 C1212 C 0.86319 0.82430 0.09280
 C1213 C 0.84553 0.82115 0.11198
 C1214 C 0.84516 0.79894 0.12620
 C1215 C 0.91792 0.76703 0.07791
 C1216 C 0.93403 0.76936 0.06199
 C1217 C 0.84409 0.75347 0.15605
 C1218 C 0.82852 0.75128 0.17251
 H1219 H 0.86724 0.71147 0.16050
 H1220 H 0.89841 0.67887 0.15188
 H1221 H 0.93018 0.68478 0.11827
 H1222 H 0.93097 0.72326 0.09306
 H1223 H 0.89418 0.80870 0.07278
 H1224 H 0.86330 0.84155 0.08173
 H1225 H 0.83205 0.83600 0.11585
 H1226 H 0.83096 0.79733 0.14083
 C1227 C 0.36253 0.25544 0.63909
 C1228 C 0.36223 0.27731 0.62356
 C1229 C 0.38066 0.28036 0.60427
 C1230 C 0.39940 0.26164 0.60078
 C1231 C 0.39975 0.23983 0.61637
 C1232 C 0.38124 0.23671 0.63556
 C1233 C 0.38195 0.21474 0.65088
 C1234 C 0.40045 0.19639 0.64737
 C1235 C 0.41858 0.19945 0.62862
 C1236 C 0.41832 0.22087 0.61324
 C1237 C 0.37990 0.30228 0.58888
 C1238 C 0.36158 0.32078 0.59258
 C1239 C 0.34370 0.31792 0.61159
 C1240 C 0.34385 0.29643 0.62688
 C1241 C 0.41839 0.26480 0.58127
 C1242 C 0.43431 0.26708 0.56516
 C1243 C 0.34364 0.25233 0.65872
 C1244 C 0.32774 0.25034 0.67489
 H1245 H 0.36826 0.21153 0.66573
 H1246 H 0.40072 0.17971 0.65926
 H1247 H 0.43291 0.18514 0.62596
 H1248 H 0.43281 0.22238 0.59890
 H1249 H 0.39345 0.30538 0.57388
 H1250 H 0.36130 0.33746 0.58068
 H1251 H 0.32965 0.33245 0.61451
 H1252 H 0.32947 0.29504 0.64134
 C1253 C 0.86290 0.24248 0.86335
 C1254 C 0.88403 0.25878 0.86428
 C1255 C 0.90282 0.25517 0.88313
 C1256 C 0.90047 0.23515 0.90082
 C1257 C 0.87928 0.21890 0.89995
 C1258 C 0.86038 0.22265 0.88124
 C1259 C 0.83923 0.20634 0.88094
 C1260 C 0.83680 0.18694 0.89866
 C1261 C 0.85539 0.18312 0.91678
 C1262 C 0.87644 0.19885 0.91750
 C1263 C 0.92365 0.27187 0.88380
 C1264 C 0.92594 0.29146 0.86628
 C1265 C 0.90762 0.29491 0.84779
 C1266 C 0.88686 0.27882 0.84672
 C1267 C 0.91976 0.23141 0.91998
 C1268 C 0.93583 0.22861 0.93591
 C1269 C 0.84394 0.24583 0.84379
 C1270 C 0.82813 0.24798 0.82755
 H1271 H 0.82430 0.20846 0.86715
 H1272 H 0.82039 0.17479 0.89832
 H1273 H 0.85347 0.16793 0.93040
 H1274 H 0.89039 0.19515 0.93197
 H1275 H 0.93833 0.27003 0.89788
 H1276 H 0.94201 0.30404 0.86707
 H1277 H 0.90948 0.31016 0.83423
 H1278 H 0.87307 0.28231 0.83204
 C1279 C 0.36048 0.74395 0.36241
 C1280 C 0.37812 0.76361 0.36643
 C1281 C 0.39728 0.76069 0.38497
 C1282 C 0.39853 0.73821 0.39951
 C1283 C 0.38089 0.71854 0.39550
 C1284 C 0.36183 0.72138 0.37682
 C1285 C 0.34454 0.70136 0.37295
 C1286 C 0.34612 0.67914 0.38707
 C1287 C 0.36465 0.67644 0.40546
 C1288 C 0.38188 0.69586 0.40973
 C1289 C 0.41489 0.78049 0.38848
 C1290 C 0.41352 0.80259 0.37415
 C1291 C 0.39468 0.80550 0.35611
 C1292 C 0.37713 0.78629 0.35220
 C1293 C 0.41794 0.73542 0.41861
 C1294 C 0.43416 0.73354 0.43444
 C1295 C 0.34120 0.74671 0.34317
 C1296 C 0.32521 0.74847 0.32710
 H1297 H 0.32970 0.70261 0.35896
 H1298 H 0.33288 0.66393 0.38373
 H1299 H 0.36571 0.65918 0.41645
 H1300 H 0.39600 0.69286 0.42420
 H1301 H 0.42991 0.77912 0.40227
 H1302 H 0.42715 0.81755 0.37707
 H1303 H 0.39366 0.82272 0.34505
 H1304 H 0.36284 0.78943 0.33793
 C1305 C 0.13688 0.13822 0.24260
 C1306 C 0.12837 0.13293 0.21772
 C1307 C 0.10987 0.11393 0.21371
 C1308 C 0.10003 0.10033 0.23460
 C1309 C 0.10858 0.10560 0.25946
 C1310 C 0.12706 0.12462 0.26347
 C1311 C 0.13535 0.12954 0.28847
 C1312 C 0.12567 0.11604 0.30895
 C1313 C 0.10758 0.09744 0.30505
 C1314 C 0.09906 0.09221 0.28064
 C1315 C 0.10165 0.10895 0.18870
 C1316 C 0.11151 0.12231 0.16820
 C1317 C 0.12965 0.14085 0.17210
 C1318 C 0.13802 0.14623 0.19653
 C1319 C 0.08117 0.08087 0.23064
 C1320 C 0.06548 0.06458 0.22807
 C1321 C 0.15589 0.15751 0.24661
 C1322 C 0.17180 0.17354 0.24917
 H1323 H 0.14939 0.14383 0.29246
 H1324 H 0.13223 0.12004 0.32795
 H1325 H 0.10012 0.08700 0.32102
 H1326 H 0.08498 0.07755 0.27859
 H1327 H 0.08757 0.09469 0.18473
 H1328 H 0.10504 0.11825 0.14919
 H1329 H 0.13726 0.15117 0.15612
 H1330 H 0.15213 0.16085 0.19858
 C1331 C 0.63792 0.63833 0.74434
 C1332 C 0.61452 0.64078 0.75695
 C1333 C 0.59570 0.62193 0.75385
 C1334 C 0.60042 0.60071 0.73819
 C1335 C 0.62373 0.59836 0.72539
 C1336 C 0.64255 0.61723 0.72848
 C1337 C 0.66572 0.61448 0.71549
 C1338 C 0.67017 0.59368 0.69992
 C1339 C 0.65173 0.57528 0.69683
 C1340 C 0.62875 0.57747 0.70941
 C1341 C 0.57242 0.62483 0.76659
 C1342 C 0.56788 0.64576 0.78196
 C1343 C 0.58631 0.66418 0.78503
 C1344 C 0.60940 0.66182 0.77272
 C1345 C 0.58141 0.58117 0.73560
 C1346 C 0.56551 0.56498 0.73387
 C1347 C 0.65706 0.65771 0.74728
 C1348 C 0.67303 0.67379 0.74913
 H1349 H 0.68062 0.62834 0.71719
 H1350 H 0.68798 0.59190 0.69009
 H1351 H 0.65524 0.55922 0.68463
 H1352 H 0.61499 0.56266 0.70643
 H1353 H 0.55747 0.61103 0.76478
 H1354 H 0.54996 0.64769 0.79154
 H1355 H 0.58269 0.68040 0.79699
 H1356 H 0.62314 0.67663 0.77569
 C1357 C 0.86385 0.13692 0.75486
 C1358 C 0.86070 0.11798 0.77360
 C1359 C 0.87967 0.09935 0.77720
 C1360 C 0.90154 0.09958 0.76184
 C1361 C 0.90452 0.11832 0.74289
 C1362 C 0.88567 0.13711 0.73947
 C1363 C 0.88915 0.15575 0.72053
 C1364 C 0.91061 0.15579 0.70534
 C1365 C 0.92899 0.13736 0.70859
 C1366 C 0.92607 0.11878 0.72710
 C1367 C 0.87621 0.08078 0.79621
 C1368 C 0.85449 0.08042 0.81103
 C1369 C 0.83582 0.09845 0.80731
 C1370 C 0.83885 0.11715 0.78896
 C1371 C 0.92086 0.08042 0.76535
 C1372 C 0.93688 0.06447 0.76804
 C1373 C 0.84480 0.15640 0.75177
 C1374 C 0.82887 0.17254 0.74992
 H1375 H 0.87534 0.17043 0.71723
 H1376 H 0.91297 0.17017 0.69093
 H1377 H 0.94559 0.13743 0.69670
 H1378 H 0.94082 0.10480 0.72883
 H1379 H 0.89020 0.06634 0.79981
 H1380 H 0.85212 0.06604 0.82544
 H1381 H 0.81890 0.09796 0.81875
 H1382 H 0.82384 0.13083 0.78689
 C1383 C 0.36223 0.63811 0.25046
 C1384 C 0.35776 0.61342 0.24112
 C1385 C 0.37681 0.59465 0.24318
 C1386 C 0.40019 0.60071 0.25455
 C1387 C 0.40469 0.62542 0.26381
 C1388 C 0.38564 0.64418 0.26180
 C1389 C 0.39051 0.66871 0.27136
 C1390 C 0.41357 0.67455 0.28253
 C1391 C 0.43223 0.65622 0.28443
 C1392 C 0.42795 0.63190 0.27521
 C1393 C 0.37190 0.57007 0.23376
 C1394 C 0.34882 0.56419 0.22266
 C1395 C 0.33019 0.58255 0.22067
 C1396 C 0.33450 0.60691 0.22976
 C1397 C 0.41954 0.58150 0.25678
 C1398 C 0.43555 0.56546 0.25853
 C1399 C 0.34260 0.65713 0.24890
 C1400 C 0.32631 0.67297 0.24811
 H1401 H 0.37661 0.68362 0.27030
 H1402 H 0.41697 0.69341 0.28975
 H1403 H 0.45011 0.66085 0.29310
 H1404 H 0.44304 0.61828 0.27714
 H1405 H 0.38581 0.55515 0.23485
 H1406 H 0.34538 0.54530 0.21557
 H1407 H 0.31229 0.57789 0.21204
 H1408 H 0.31944 0.62054 0.22777
 C1409 C 0.13735 0.86146 0.75814
 C1410 C 0.12892 0.86707 0.78298
 C1411 C 0.11055 0.88624 0.78684
 C1412 C 0.10062 0.89958 0.76583
 C1413 C 0.10894 0.89384 0.74098
 C1414 C 0.12737 0.87474 0.73714
 C1415 C 0.13541 0.86935 0.71215
 C1416 C 0.12549 0.88244 0.69152
 C1417 C 0.10746 0.90111 0.69526
 C1418 C 0.09921 0.90683 0.71965
 C1419 C 0.10252 0.89160 0.81183
 C1420 C 0.11229 0.87835 0.83244
 C1421 C 0.13019 0.85955 0.82867
 C1422 C 0.13848 0.85389 0.80428
 C1423 C 0.08170 0.91903 0.76961
 C1424 C 0.06583 0.93516 0.77208
 C1425 C 0.15651 0.84227 0.75433
 C1426 C 0.17260 0.82639 0.75192
 H1427 H 0.14939 0.85497 0.70828
 H1428 H 0.13184 0.87806 0.67253
 H1429 H 0.09980 0.91123 0.67917
 H1430 H 0.08515 0.92151 0.72157
 H1431 H 0.08862 0.90606 0.81570
 H1432 H 0.10593 0.88268 0.85143
 H1433 H 0.13770 0.84929 0.84473
 H1434 H 0.15242 0.83910 0.80234
 C1435 C 0.63800 0.36151 0.25250
 C1436 C 0.64020 0.38048 0.27131
 C1437 C 0.62136 0.39944 0.27350
 C1438 C 0.60051 0.39939 0.25677
 C1439 C 0.59840 0.38051 0.23787
 C1440 C 0.61716 0.36147 0.23577
 C1441 C 0.61460 0.34272 0.21681
 C1442 C 0.59409 0.34281 0.20035
 C1443 C 0.57577 0.36147 0.20234
 C1444 C 0.57781 0.38016 0.22083
 C1445 C 0.62390 0.41815 0.29252
 C1446 C 0.64457 0.41823 0.30878
 C1447 C 0.66309 0.39981 0.30652
 C1448 C 0.66098 0.38103 0.28813
 C1449 C 0.58133 0.41883 0.25888
 C1450 C 0.56537 0.43496 0.26039
 C1451 C 0.65708 0.34198 0.25051
 C1452 C 0.67307 0.32585 0.24938
 H1453 H 0.62840 0.32785 0.21448
 H1454 H 0.59242 0.32834 0.18595
 H1455 H 0.55988 0.36148 0.18949
 H1456 H 0.56313 0.39431 0.22156
 H1457 H 0.60999 0.43289 0.29500
 H1458 H 0.64625 0.43271 0.32318
 H1459 H 0.67919 0.40007 0.31911
 H1460 H 0.67583 0.36705 0.28721
 C1461 C 0.86476 0.86193 0.24486
 C1462 C 0.88848 0.85983 0.25690
 C1463 C 0.90710 0.87874 0.25296
 C1464 C 0.90187 0.89967 0.23706
 C1465 C 0.87814 0.90177 0.22500
 C1466 C 0.85954 0.88281 0.22886
 C1467 C 0.83601 0.88524 0.21647
 C1468 C 0.83097 0.90585 0.20079
 C1469 C 0.84912 0.92444 0.19712
 C1470 C 0.87247 0.92252 0.20903
 C1471 C 0.93071 0.87620 0.26517
 C1472 C 0.93576 0.85560 0.28084
 C1473 C 0.91753 0.83713 0.28470
 C1474 C 0.89413 0.83911 0.27291
 C1475 C 0.92079 0.91915 0.23343
 C1476 C 0.93657 0.93534 0.23086
 C1477 C 0.84586 0.84242 0.24848
 C1478 C 0.82997 0.82629 0.25069
 H1479 H 0.82126 0.87129 0.21875
 H1480 H 0.81286 0.90741 0.19148
 H1481 H 0.84509 0.94043 0.18496
 H1482 H 0.88599 0.93745 0.20557
 H1483 H 0.94552 0.89006 0.26273
 H1484 H 0.95391 0.85397 0.29004
 H1485 H 0.92153 0.82117 0.29690
 H1486 H 0.88056 0.82425 0.27648
 C1487 C 0.36348 0.36091 0.74933
 C1488 C 0.38758 0.35761 0.76030
 C1489 C 0.40632 0.37656 0.75717
 C1490 C 0.40080 0.39873 0.74317
 C1491 C 0.37669 0.40205 0.73220
 C1492 C 0.35799 0.38305 0.73523
 C1493 C 0.33408 0.38669 0.72392
 C1494 C 0.32880 0.40849 0.71003
 C1495 C 0.34706 0.42710 0.70716
 C1496 C 0.37076 0.42403 0.71809
 C1497 C 0.43034 0.37277 0.76818
 C1498 C 0.43567 0.35091 0.78191
 C1499 C 0.41732 0.33241 0.78502
 C1500 C 0.39352 0.33562 0.77439
 C1501 C 0.41991 0.41813 0.74015
 C1502 C 0.43585 0.43421 0.73786
 C1503 C 0.34447 0.34134 0.75200
 C1504 C 0.32846 0.32526 0.75348
 H1505 H 0.31923 0.37278 0.72564
 H1506 H 0.31043 0.41094 0.70148
 H1507 H 0.34286 0.44401 0.69639
 H1508 H 0.38436 0.43904 0.71531
 H1509 H 0.44524 0.38661 0.76627
 H1510 H 0.45414 0.34831 0.79019
 H1511 H 0.42155 0.31547 0.79573
 H1512 H 0.37986 0.32071 0.77732
 C1513 C 0.13616 0.23836 0.86204
 C1514 C 0.12017 0.25863 0.86895
 C1515 C 0.10153 0.25504 0.88793
 C1516 C 0.09909 0.23123 0.90000
 C1517 C 0.11500 0.21091 0.89301
 C1518 C 0.13353 0.21445 0.87389
 C1519 C 0.14904 0.19377 0.86702
 C1520 C 0.14631 0.17028 0.87869
 C1521 C 0.12837 0.16690 0.89756
 C1522 C 0.11283 0.18691 0.90472
 C1523 C 0.08567 0.27557 0.89442
 C1524 C 0.08821 0.29898 0.88253
 C1525 C 0.10650 0.30250 0.86403
 C1526 C 0.12235 0.28263 0.85724
 C1527 C 0.08017 0.22783 0.91957
 C1528 C 0.06427 0.22576 0.93575
 C1529 C 0.15533 0.24210 0.84281
 C1530 C 0.17138 0.24493 0.82692
 H1531 H 0.16339 0.19551 0.85255
 H1532 H 0.15827 0.15465 0.87315
 H1533 H 0.12644 0.14865 0.90668
 H1534 H 0.09909 0.18336 0.91944
 H1535 H 0.07115 0.27379 0.90868
 H1536 H 0.07592 0.31446 0.88772
 H1537 H 0.10841 0.32072 0.85487
 H1538 H 0.13627 0.28629 0.84272
 C1539 C 0.63889 0.74175 0.36225
 C1540 C 0.61771 0.75799 0.36166
 C1541 C 0.59835 0.75533 0.38007
 C1542 C 0.60020 0.73629 0.39886
 C1543 C 0.62125 0.71986 0.39929
 C1544 C 0.64079 0.72276 0.38109
 C1545 C 0.66191 0.70645 0.38225
 C1546 C 0.66356 0.68765 0.40070
 C1547 C 0.64424 0.68454 0.41819
 C1548 C 0.62332 0.70043 0.41763
 C1549 C 0.57745 0.77193 0.37918
 C1550 C 0.57566 0.79054 0.36057
 C1551 C 0.59455 0.79308 0.34252
 C1552 C 0.61538 0.77707 0.34298
 C1553 C 0.58071 0.73405 0.41804
 C1554 C 0.56450 0.73268 0.43397
 C1555 C 0.65852 0.74437 0.34327
 C1556 C 0.67467 0.74637 0.32735
 H1557 H 0.67737 0.70808 0.36899
 H1558 H 0.67987 0.67539 0.40139
 H1559 H 0.64550 0.66977 0.43234
 H1560 H 0.60878 0.69728 0.43165
 H1561 H 0.56228 0.77071 0.39281
 H1562 H 0.55954 0.80306 0.36016
 H1563 H 0.59308 0.80757 0.32810
 H1564 H 0.62960 0.77983 0.32856
 C1565 C 0.86396 0.76179 0.85986
 C1566 C 0.86709 0.78572 0.87150
 C1567 C 0.88560 0.78896 0.89067
 C1568 C 0.90098 0.76831 0.89789
 C1569 C 0.89820 0.74454 0.88585
 C1570 C 0.87960 0.74126 0.86681
 C1571 C 0.87710 0.71731 0.85509
 C1572 C 0.89261 0.69718 0.86194
 C1573 C 0.91084 0.70039 0.88055
 C1574 C 0.91369 0.72374 0.89244
 C1575 C 0.88825 0.81296 0.90222
 C1576 C 0.87317 0.83326 0.89488
 C1577 C 0.85522 0.83015 0.87597
 C1578 C 0.85206 0.80668 0.86441
 C1579 C 0.91971 0.77130 0.91765
 C1580 C 0.93556 0.77284 0.93391
 C1581 C 0.84456 0.75825 0.84088
 C1582 C 0.82837 0.75553 0.82515
 H1583 H 0.86323 0.71390 0.84048
 H1584 H 0.89047 0.67901 0.85275
 H1585 H 0.92286 0.68471 0.88580
 H1586 H 0.92817 0.72527 0.90677
 H1587 H 0.90201 0.81629 0.91698
 H1588 H 0.87542 0.85150 0.90391
 H1589 H 0.84356 0.84598 0.87033
 H1590 H 0.83779 0.80519 0.84985
 C1591 C 0.36211 0.25986 0.36111
 C1592 C 0.36413 0.28278 0.37485
 C1593 C 0.38282 0.28538 0.39397
 C1594 C 0.39950 0.26512 0.39909
 C1595 C 0.39765 0.24231 0.38515
 C1596 C 0.37887 0.23966 0.36614
 C1597 C 0.37736 0.21666 0.35251
 C1598 C 0.39393 0.19684 0.35750
 C1599 C 0.41230 0.19943 0.37607
 C1600 C 0.41423 0.22185 0.38979
 C1601 C 0.38435 0.30838 0.40759
 C1602 C 0.36803 0.32835 0.40232
 C1603 C 0.34993 0.32590 0.38346
 C1604 C 0.34783 0.30339 0.36991
 C1605 C 0.41856 0.26763 0.41866
 C1606 C 0.43450 0.26923 0.43486
 C1607 C 0.34277 0.25705 0.34186
 C1608 C 0.32665 0.25491 0.32592
 H1609 H 0.36340 0.21374 0.33787
 H1610 H 0.39251 0.17938 0.34689
 H1611 H 0.42514 0.18399 0.37987
 H1612 H 0.42885 0.22295 0.40403
 H1613 H 0.39817 0.31119 0.42239
 H1614 H 0.36948 0.34583 0.41289
 H1615 H 0.33738 0.34151 0.37938
 H1616 H 0.33335 0.30236 0.35552
 C1617 C 0.13635 0.76005 0.13723
 C1618 C 0.11559 0.77618 0.14199
 C1619 C 0.09686 0.77968 0.12308
 C1620 C 0.09897 0.76694 0.09959
 C1621 C 0.11994 0.75115 0.09468
 C1622 C 0.13863 0.74760 0.11361
 C1623 C 0.15929 0.73152 0.10837
 C1624 C 0.16152 0.71945 0.08501
 C1625 C 0.14334 0.72307 0.06643
 C1626 C 0.12273 0.73869 0.07110
 C1627 C 0.07634 0.79598 0.12819
 C1628 C 0.07435 0.80842 0.15139
 C1629 C 0.09256 0.80485 0.16997
 C1630 C 0.11302 0.78899 0.16541
 C1631 C 0.07934 0.76940 0.08065
 C1632 C 0.06320 0.77073 0.06465
 C1633 C 0.15554 0.75660 0.15648
 C1634 C 0.17154 0.75411 0.17246
 H1635 H 0.17392 0.72811 0.12222
 H1636 H 0.17745 0.70723 0.08131
 H1637 H 0.14519 0.71372 0.04829
 H1638 H 0.10912 0.74095 0.05601
 H1639 H 0.06171 0.79935 0.11432
 H1640 H 0.05859 0.82089 0.15498
 H1641 H 0.09090 0.81452 0.18797
 H1642 H 0.12675 0.78690 0.18041
 C1643 C 0.63804 0.25840 0.63831
 C1644 C 0.63917 0.27874 0.62087
 C1645 C 0.62009 0.28150 0.60217
 C1646 C 0.60000 0.26392 0.60103
 C1647 C 0.59883 0.24364 0.61853
 C1648 C 0.61791 0.24088 0.63722
 C1649 C 0.61634 0.22044 0.65449
 C1650 C 0.59648 0.20325 0.65336
 C1651 C 0.57783 0.20596 0.63509
 C1652 C 0.57891 0.22586 0.61781
 C1653 C 0.62165 0.30194 0.58491
 C1654 C 0.64151 0.31915 0.58606
 C1655 C 0.66019 0.31641 0.60429
 C1656 C 0.65910 0.29653 0.62160
 C1657 C 0.58069 0.26645 0.58170
 C1658 C 0.56464 0.26819 0.56562
 C1659 C 0.65753 0.25554 0.65740
 C1660 C 0.67369 0.25338 0.67330
 H1661 H 0.63040 0.21753 0.66903
 H1662 H 0.59557 0.18774 0.66672
 H1663 H 0.56244 0.19255 0.63427
 H1664 H 0.56398 0.22713 0.60393
 H1665 H 0.60758 0.30484 0.57036
 H1666 H 0.64243 0.33466 0.57270
 H1667 H 0.67564 0.32975 0.60500
 H1668 H 0.67404 0.29525 0.63548
 C1669 C 0.86345 0.23855 0.13892
 C1670 C 0.87754 0.25934 0.12973
 C1671 C 0.89606 0.25554 0.11068
 C1672 C 0.90033 0.23096 0.10091
 C1673 C 0.88636 0.21013 0.11024
 C1674 C 0.86784 0.21394 0.12930
 C1675 C 0.85409 0.19283 0.13835
 C1676 C 0.85864 0.16863 0.12893
 C1677 C 0.87673 0.16492 0.11027
 C1678 C 0.89047 0.18537 0.10094
 C1679 C 0.90997 0.27662 0.10182
 C1680 C 0.90568 0.30076 0.11150
 C1681 C 0.88754 0.30447 0.13011
 C1682 C 0.87358 0.28408 0.13919
 C1683 C 0.91913 0.22731 0.08130
 C1684 C 0.93495 0.22511 0.06507
 C1685 C 0.84444 0.24247 0.15826
 C1686 C 0.82854 0.24538 0.17427
 H1687 H 0.83979 0.19475 0.15281
 H1688 H 0.84799 0.15270 0.13610
 H1689 H 0.88013 0.14610 0.10298
 H1690 H 0.90436 0.18156 0.08643
 H1691 H 0.92430 0.27472 0.08738
 H1692 H 0.91649 0.31666 0.10452
 H1693 H 0.88428 0.32326 0.13756
 H1694 H 0.85969 0.28792 0.15368
 C1695 C 0.36265 0.74221 0.63885
 C1696 C 0.38088 0.76144 0.63530
 C1697 C 0.39942 0.75883 0.61608
 C1698 C 0.39954 0.73709 0.60043
 C1699 C 0.38135 0.71783 0.60400
 C1700 C 0.36289 0.72036 0.62333
 C1701 C 0.34504 0.70074 0.62672
 C1702 C 0.34549 0.67921 0.61150
 C1703 C 0.36343 0.67683 0.59247
 C1704 C 0.38119 0.69587 0.58867
 C1705 C 0.41757 0.77822 0.61301
 C1706 C 0.41735 0.79959 0.62845
 C1707 C 0.39915 0.80218 0.64718
 C1708 C 0.38108 0.78339 0.65065
 C1709 C 0.41845 0.73462 0.58075
 C1710 C 0.43441 0.73315 0.56460
 C1711 C 0.34374 0.74489 0.65850
 C1712 C 0.32796 0.74695 0.67476
 H1713 H 0.33063 0.70176 0.64118
 H1714 H 0.33187 0.66427 0.61448
 H1715 H 0.36362 0.66011 0.58065
 H1716 H 0.39482 0.69315 0.57367
 H1717 H 0.43211 0.77710 0.59869
 H1718 H 0.43139 0.81422 0.62585
 H1719 H 0.39904 0.81883 0.65911
 H1720 H 0.36731 0.78626 0.66549
 C1721 C 0.22711 0.13654 0.86038
 C1722 C 0.23113 0.11068 0.85482
 C1723 C 0.22649 0.09208 0.87366
 C1724 C 0.21764 0.09948 0.89785
 C1725 C 0.21212 0.12518 0.90286
 C1726 C 0.21698 0.14381 0.88409
 C1727 C 0.21161 0.16945 0.88960
 C1728 C 0.20150 0.17644 0.91293
 C1729 C 0.19663 0.15819 0.93126
 C1730 C 0.20192 0.13283 0.92642
 C1731 C 0.23102 0.06636 0.86783
 C1732 C 0.23964 0.05920 0.84395
 C1733 C 0.24403 0.07740 0.82545
 C1734 C 0.23991 0.10288 0.83073
 C1735 C 0.21564 0.08087 0.91792
 C1736 C 0.21496 0.06532 0.93459
 C1737 C 0.23367 0.15565 0.84185
 C1738 C 0.23883 0.17162 0.82645
 H1739 H 0.21490 0.18430 0.87588
 H1740 H 0.19730 0.19611 0.91675
 H1741 H 0.18870 0.16371 0.94932
 H1742 H 0.19774 0.11929 0.94122
 H1743 H 0.22782 0.05151 0.88156
 H1744 H 0.24292 0.03943 0.83978
 H1745 H 0.25069 0.07175 0.80692
 H1746 H 0.24356 0.11635 0.81573
 C1747 C 0.73650 0.63691 0.36153
 C1748 C 0.71144 0.63014 0.36777
 C1749 C 0.70685 0.61150 0.38664
 C1750 C 0.72734 0.59974 0.39915
 C1751 C 0.75239 0.60654 0.39290
 C1752 C 0.75698 0.62513 0.37400
 C1753 C 0.78217 0.63152 0.36800
 C1754 C 0.80228 0.61991 0.38036
 C1755 C 0.79780 0.60181 0.39892
 C1756 C 0.77319 0.59513 0.40520
 C1757 C 0.68166 0.60508 0.39259
 C1758 C 0.66156 0.61674 0.38025
 C1759 C 0.66604 0.63493 0.36178
 C1760 C 0.69066 0.64162 0.35552
 C1761 C 0.72283 0.58065 0.41842
 C1762 C 0.71989 0.56474 0.43454
 C1763 C 0.74119 0.65615 0.34246
 C1764 C 0.74473 0.67223 0.32666
 H1765 H 0.78661 0.64550 0.35370
 H1766 H 0.82143 0.62501 0.37551
 H1767 H 0.81348 0.59288 0.40849
 H1768 H 0.77071 0.58097 0.41979
 H1769 H 0.67724 0.59102 0.40682
 H1770 H 0.64241 0.61161 0.38503
 H1771 H 0.65038 0.64389 0.35220
 H1772 H 0.69317 0.65582 0.34097
 C1773 C 0.76541 0.13710 0.13941
 C1774 C 0.75473 0.11276 0.14254
 C1775 C 0.75860 0.09392 0.12377
 C1776 C 0.77308 0.09955 0.10196
 C1777 C 0.78416 0.12374 0.09904
 C1778 C 0.78031 0.14259 0.11784
 C1779 C 0.79152 0.16666 0.11450
 C1780 C 0.80609 0.17196 0.09319
 C1781 C 0.80990 0.15350 0.07484
 C1782 C 0.79907 0.12964 0.07761
 C1783 C 0.74774 0.06970 0.12730
 C1784 C 0.73344 0.06429 0.14876
 C1785 C 0.72962 0.08274 0.16711
 C1786 C 0.74009 0.10673 0.16413
 C1787 C 0.77590 0.08068 0.08223
 C1788 C 0.77758 0.06492 0.06585
 C1789 C 0.76116 0.15643 0.15843
 C1790 C 0.75795 0.17248 0.17429
 H1791 H 0.78922 0.18160 0.12832
 H1792 H 0.81459 0.19044 0.09097
 H1793 H 0.82132 0.15769 0.05838
 H1794 H 0.80256 0.11590 0.06284
 H1795 H 0.75023 0.05470 0.11359
 H1796 H 0.72529 0.04568 0.15117
 H1797 H 0.71849 0.07845 0.18375
 H1798 H 0.73660 0.12044 0.17894
 C1799 C 0.26725 0.63729 0.64122
 C1800 C 0.26522 0.61135 0.64759
 C1801 C 0.26890 0.59260 0.62865
 C1802 C 0.27475 0.59990 0.60351
 C1803 C 0.27791 0.62580 0.59743
 C1804 C 0.27400 0.64456 0.61631
 C1805 C 0.27696 0.67035 0.60970
 C1806 C 0.28383 0.67738 0.58521
 C1807 C 0.28785 0.65902 0.56681
 C1808 C 0.28491 0.63350 0.57273
 C1809 C 0.26656 0.56679 0.63541
 C1810 C 0.26095 0.55971 0.66021
 C1811 C 0.25744 0.57804 0.67874
 C1812 C 0.25948 0.60360 0.67260
 C1813 C 0.27647 0.58089 0.58373
 C1814 C 0.27724 0.56511 0.56724
 C1815 C 0.26242 0.65649 0.66027
 C1816 C 0.25871 0.67256 0.67603
 H1817 H 0.27423 0.68531 0.62340
 H1818 H 0.28619 0.69718 0.58053
 H1819 H 0.29330 0.66458 0.54785
 H1820 H 0.28837 0.61991 0.55782
 H1821 H 0.26915 0.55185 0.62167
 H1822 H 0.25933 0.53988 0.66507
 H1823 H 0.25313 0.57244 0.69798
 H1824 H 0.25663 0.61716 0.68768
 C1825 C 0.76359 0.86282 0.86150
 C1826 C 0.77708 0.85674 0.88383
 C1827 C 0.78084 0.87548 0.90276
 C1828 C 0.77114 0.90016 0.89919
 C1829 C 0.75811 0.90637 0.87663
 C1830 C 0.75430 0.88763 0.85773
 C1831 C 0.74119 0.89427 0.83535
 C1832 C 0.73212 0.91874 0.83173
 C1833 C 0.73584 0.93707 0.85022
 C1834 C 0.74866 0.93107 0.87245
 C1835 C 0.79431 0.86897 0.92497
 C1836 C 0.80386 0.84465 0.92834
 C1837 C 0.80019 0.82632 0.90983
 C1838 C 0.78698 0.83220 0.88779
 C1839 C 0.77404 0.91905 0.91890
 C1840 C 0.77590 0.93484 0.93525
 C1841 C 0.75944 0.84361 0.84233
 C1842 C 0.75635 0.82763 0.82637
 H1843 H 0.73784 0.88067 0.82041
 H1844 H 0.72216 0.92349 0.81448
 H1845 H 0.72878 0.95606 0.84732
 H1846 H 0.75113 0.94600 0.88625
 H1847 H 0.79766 0.88259 0.93989
 H1848 H 0.81418 0.84000 0.94540
 H1849 H 0.80772 0.80748 0.91251
 H1850 H 0.78470 0.81733 0.87390
 C1851 C 0.25964 0.36311 0.36191
 C1852 C 0.27162 0.35676 0.38503
 C1853 C 0.27483 0.37547 0.40410
 C1854 C 0.26599 0.40040 0.39995
 C1855 C 0.25426 0.40681 0.37673
 C1856 C 0.25108 0.38811 0.35765
 C1857 C 0.23930 0.39497 0.33459
 C1858 C 0.23092 0.41961 0.33048
 C1859 C 0.23403 0.43790 0.34913
 C1860 C 0.24553 0.43168 0.37203
 C1861 C 0.28692 0.36870 0.42702
 C1862 C 0.29556 0.34413 0.43102
 C1863 C 0.29234 0.32581 0.41242
 C1864 C 0.28056 0.33195 0.38965
 C1865 C 0.26860 0.41934 0.41968
 C1866 C 0.27047 0.43514 0.43603
 C1867 C 0.25632 0.34397 0.34247
 C1868 C 0.25388 0.32799 0.32638
 H1869 H 0.23645 0.38141 0.31951
 H1870 H 0.22197 0.42453 0.31273
 H1871 H 0.22750 0.45702 0.34584
 H1872 H 0.24754 0.44657 0.38594
 H1873 H 0.28987 0.38230 0.44205
 H1874 H 0.30482 0.33929 0.44864
 H1875 H 0.29915 0.30677 0.41559
 H1876 H 0.27862 0.31707 0.37571
 C1877 C 0.23824 0.86339 0.13870
 C1878 C 0.25478 0.86461 0.11771
 C1879 C 0.25133 0.88353 0.09892
 C1880 C 0.23129 0.90106 0.10121
 C1881 C 0.21470 0.89980 0.12216
 C1882 C 0.21824 0.88095 0.14103
 C1883 C 0.20152 0.88016 0.16193
 C1884 C 0.18188 0.89750 0.16409
 C1885 C 0.17830 0.91580 0.14553
 C1886 C 0.19448 0.91704 0.12477
 C1887 C 0.26815 0.88443 0.07812
 C1888 C 0.28774 0.86704 0.07590
 C1889 C 0.29108 0.84850 0.09426
 C1890 C 0.27487 0.84722 0.11498
 C1891 C 0.22790 0.92039 0.08202
 C1892 C 0.22553 0.93631 0.06586
 C1893 C 0.24161 0.84388 0.15770
 C1894 C 0.24408 0.82760 0.17345
 H1895 H 0.20348 0.86622 0.17681
 H1896 H 0.16938 0.89675 0.18027
 H1897 H 0.16294 0.92914 0.14725
 H1898 H 0.19096 0.93163 0.11083
 H1899 H 0.26637 0.89853 0.06338
 H1900 H 0.30039 0.86797 0.05984
 H1901 H 0.30633 0.83503 0.09246
 H1902 H 0.27827 0.83248 0.12879
 C1903 C 0.73649 0.36239 0.63882
 C1904 C 0.75673 0.37216 0.62435
 C1905 C 0.75214 0.39094 0.60564
 C1906 C 0.72733 0.39990 0.60153
 C1907 C 0.70707 0.39011 0.61597
 C1908 C 0.71166 0.37129 0.63467
 C1909 C 0.69110 0.36174 0.64883
 C1910 C 0.66671 0.37048 0.64459
 C1911 C 0.66224 0.38891 0.62636
 C1912 C 0.68212 0.39870 0.61216
 C1913 C 0.77269 0.40036 0.59138
 C1914 C 0.79706 0.39149 0.59549
 C1915 C 0.80154 0.37315 0.61381
 C1916 C 0.78168 0.36352 0.62813
 C1917 C 0.72283 0.41912 0.58238
 C1918 C 0.71992 0.43509 0.56631
 C1919 C 0.74116 0.34310 0.65784
 C1920 C 0.74462 0.32701 0.67364
 H1921 H 0.69362 0.34741 0.66325
 H1922 H 0.65120 0.36294 0.65556
 H1923 H 0.64326 0.39567 0.62319
 H1924 H 0.67772 0.41301 0.59818
 H1925 H 0.77019 0.41463 0.57690
 H1926 H 0.81255 0.39890 0.58441
 H1927 H 0.82050 0.36632 0.61694
 H1928 H 0.78611 0.34926 0.64214
 C1929 C 0.13703 0.13808 0.75951
 C1930 C 0.11812 0.13410 0.74105
 C1931 C 0.09993 0.11470 0.74461
 C1932 C 0.10074 0.09939 0.76664
 C1933 C 0.11960 0.10345 0.78517
 C1934 C 0.13779 0.12287 0.78161
 C1935 C 0.15646 0.12660 0.80042
 C1936 C 0.15713 0.11157 0.82211
 C1937 C 0.13936 0.09256 0.82556
 C1938 C 0.12077 0.08846 0.80737
 C1939 C 0.08123 0.11106 0.72583
 C1940 C 0.08048 0.12619 0.70423
 C1941 C 0.09825 0.14519 0.70078
 C1942 C 0.11690 0.14917 0.71891
 C1943 C 0.08210 0.07956 0.77006
 C1944 C 0.06627 0.06331 0.77214
 C1945 C 0.15576 0.15774 0.75578
 C1946 C 0.17155 0.17391 0.75314
 H1947 H 0.17069 0.14113 0.79859
 H1948 H 0.17154 0.11468 0.83629
 H1949 H 0.13998 0.08093 0.84244
 H1950 H 0.10734 0.07346 0.81088
 H1951 H 0.06701 0.09651 0.72759
 H1952 H 0.06604 0.12316 0.69008
 H1953 H 0.09759 0.15690 0.68397
 H1954 H 0.13031 0.16418 0.71538
 C1955 C 0.63894 0.63830 0.25509
 C1956 C 0.61809 0.63892 0.23838
 C1957 C 0.59914 0.62002 0.24006
 C1958 C 0.60103 0.60076 0.25863
 C1959 C 0.62181 0.60021 0.27542
 C1960 C 0.64094 0.61893 0.27352
 C1961 C 0.66178 0.61772 0.29020
 C1962 C 0.66364 0.59858 0.30828
 C1963 C 0.64476 0.58051 0.31039
 C1964 C 0.62404 0.58121 0.29419
 C1965 C 0.57864 0.62085 0.22294
 C1966 C 0.57681 0.63992 0.20480
 C1967 C 0.59527 0.65849 0.20325
 C1968 C 0.61572 0.65808 0.21979
 C1969 C 0.58176 0.58136 0.26020
 C1970 C 0.56573 0.56525 0.26126
 C1971 C 0.65827 0.65761 0.25332
 C1972 C 0.67432 0.67367 0.25198
 H1973 H 0.67688 0.63144 0.28941
 H1974 H 0.67980 0.59780 0.32076
 H1975 H 0.64619 0.56582 0.32460
 H1976 H 0.60985 0.56670 0.29654
 H1977 H 0.56385 0.60680 0.22333
 H1978 H 0.56100 0.64027 0.19186
 H1979 H 0.59378 0.67326 0.18912
 H1980 H 0.62962 0.67292 0.21780
 C1981 C 0.13629 0.86136 0.23947
 C1982 C 0.12708 0.87492 0.26064
 C1983 C 0.10864 0.89407 0.25719
 C1984 C 0.09947 0.89952 0.23258
 C1985 C 0.10868 0.88595 0.21140
 C1986 C 0.12715 0.86679 0.21485
 C1987 C 0.13609 0.85347 0.19340
 C1988 C 0.12709 0.85897 0.16922
 C1989 C 0.10902 0.87768 0.16585
 C1990 C 0.09985 0.89108 0.18663
 C1991 C 0.09976 0.90742 0.27867
 C1992 C 0.10880 0.90195 0.30283
 C1993 C 0.12681 0.88319 0.30620
 C1994 C 0.13593 0.86978 0.28542
 C1995 C 0.08058 0.91909 0.22927
 C1996 C 0.06490 0.93547 0.22736
 C1997 C 0.15531 0.84198 0.24299
 C1998 C 0.17120 0.82595 0.24563
 H1999 H 0.15012 0.83872 0.19506
 H2000 H 0.13415 0.84860 0.15303
 H2001 H 0.10207 0.88184 0.14703
 H2002 H 0.08580 0.90547 0.18308
 H2003 H 0.08576 0.92220 0.27704
 H2004 H 0.10178 0.91233 0.31904
 H2005 H 0.13377 0.87900 0.32501
 H2006 H 0.14995 0.85537 0.28900
 C2007 C 0.63815 0.36074 0.74224
 C2008 C 0.64256 0.38200 0.72651
 C2009 C 0.62367 0.40086 0.72382
 C2010 C 0.60046 0.39828 0.73676
 C2011 C 0.59589 0.37680 0.75213
 C2012 C 0.61483 0.35802 0.75495
 C2013 C 0.60988 0.33680 0.77054
 C2014 C 0.58684 0.33414 0.78290
 C2015 C 0.56828 0.35245 0.78005
 C2016 C 0.57265 0.37358 0.76488
 C2017 C 0.62853 0.42200 0.70809
 C2018 C 0.65138 0.42440 0.69532
 C2019 C 0.66985 0.40597 0.69795
 C2020 C 0.66558 0.38495 0.71330
 C2021 C 0.58140 0.41784 0.73464
 C2022 C 0.56547 0.43402 0.73333
 C2023 C 0.65753 0.34161 0.74520
 C2024 C 0.67363 0.32568 0.74733
 H2025 H 0.62372 0.32204 0.77333
 H2026 H 0.58336 0.31777 0.79472
 H2027 H 0.55038 0.35027 0.78963
 H2028 H 0.55760 0.38729 0.76325
 H2029 H 0.61474 0.43684 0.70546
 H2030 H 0.65477 0.44065 0.68331
 H2031 H 0.68754 0.40789 0.68793
 H2032 H 0.68048 0.37105 0.71464
 C2033 C 0.86493 0.13926 0.24158
 C2034 C 0.86640 0.11853 0.25850
 C2035 C 0.88525 0.09977 0.25507
 C2036 C 0.90244 0.10177 0.23465
 C2037 C 0.90096 0.12248 0.21770
 C2038 C 0.88217 0.14131 0.22119
 C2039 C 0.88112 0.16189 0.20404
 C2040 C 0.89818 0.16382 0.18406
 C2041 C 0.91646 0.14534 0.18058
 C2042 C 0.91793 0.12486 0.19715
 C2043 C 0.88641 0.07928 0.27232
 C2044 C 0.86936 0.07732 0.29229
 C2045 C 0.85087 0.09562 0.29558
 C2046 C 0.84933 0.11603 0.27896
 C2047 C 0.92161 0.08251 0.23121
 C2048 C 0.93736 0.06626 0.22891
 C2049 C 0.84554 0.15831 0.24500
 C2050 C 0.82934 0.17407 0.24751
 H2051 H 0.86719 0.17671 0.20590
 H2052 H 0.89724 0.17975 0.17122
 H2053 H 0.92961 0.14690 0.16498
 H2054 H 0.93249 0.11098 0.19370
 H2055 H 0.90048 0.06458 0.27060
 H2056 H 0.87051 0.06151 0.30527
 H2057 H 0.83765 0.09400 0.31111
 H2058 H 0.83463 0.12980 0.28232
 C2059 C 0.36391 0.63898 0.74509
 C2060 C 0.35882 0.61726 0.73023
 C2061 C 0.37742 0.59810 0.72766
 C2062 C 0.40104 0.60086 0.73979
 C2063 C 0.40621 0.62269 0.75443
 C2064 C 0.38757 0.64178 0.75713
 C2065 C 0.39315 0.66339 0.77193
 C2066 C 0.41648 0.66608 0.78369
 C2067 C 0.43473 0.64743 0.78102
 C2068 C 0.42976 0.62594 0.76659
 C2069 C 0.37185 0.57648 0.71287
 C2070 C 0.34862 0.57394 0.70084
 C2071 C 0.33049 0.59274 0.70323
 C2072 C 0.33541 0.61418 0.71776
 C2073 C 0.41999 0.58124 0.73738
 C2074 C 0.43588 0.56505 0.73571
 C2075 C 0.34485 0.65845 0.74787
 C2076 C 0.32889 0.67453 0.74983
 H2077 H 0.37957 0.67842 0.77455
 H2078 H 0.42043 0.68274 0.79494
 H2079 H 0.45283 0.64961 0.79019
 H2080 H 0.44457 0.61197 0.76507
 H2081 H 0.38536 0.56135 0.71043
 H2082 H 0.34468 0.55729 0.68958
 H2083 H 0.31251 0.59070 0.69379
 H2084 H 0.32070 0.62827 0.71907
 C2085 C 0.86248 0.86278 0.76000
 C2086 C 0.88071 0.85966 0.77934
 C2087 C 0.89980 0.87821 0.78275
 C2088 C 0.90038 0.89988 0.76699
 C2089 C 0.88171 0.90333 0.74814
 C2090 C 0.86274 0.88470 0.74461
 C2091 C 0.84428 0.88856 0.72565
 C2092 C 0.84451 0.91026 0.71066
 C2093 C 0.86305 0.92849 0.71412
 C2094 C 0.88150 0.92516 0.73259
 C2095 C 0.91794 0.87460 0.80206
 C2096 C 0.91706 0.85339 0.81776
 C2097 C 0.89827 0.83536 0.81457
 C2098 C 0.88030 0.83832 0.79556
 C2099 C 0.92014 0.91863 0.76997
 C2100 C 0.93640 0.93444 0.77187
 C2101 C 0.84341 0.84352 0.75607
 C2102 C 0.82751 0.82751 0.75318
 H2103 H 0.82944 0.87495 0.72229
 H2104 H 0.83019 0.91295 0.69632
 H2105 H 0.86313 0.94533 0.70245
 H2106 H 0.89549 0.93991 0.73458
 H2107 H 0.93288 0.88814 0.80529
 H2108 H 0.93103 0.85097 0.83249
 H2109 H 0.89763 0.81897 0.82686
 H2110 H 0.86605 0.82378 0.79382
 C2111 C 0.36121 0.36301 0.25454
 C2112 C 0.38377 0.35772 0.26784
 C2113 C 0.40289 0.37645 0.26954
 C2114 C 0.39928 0.40036 0.25803
 C2115 C 0.37659 0.40577 0.24502
 C2116 C 0.35750 0.38701 0.24325
 C2117 C 0.33498 0.39283 0.23015
 C2118 C 0.33140 0.41652 0.21914
 C2119 C 0.35006 0.43487 0.22089
 C2120 C 0.37245 0.42966 0.23364
 C2121 C 0.42532 0.37073 0.28285
 C2122 C 0.42871 0.34721 0.29428
 C2123 C 0.40996 0.32892 0.29270
 C2124 C 0.38772 0.33400 0.27964
 C2125 C 0.41889 0.41939 0.25949
 C2126 C 0.43510 0.43530 0.26052
 C2127 C 0.34182 0.34378 0.25255
 C2128 C 0.32575 0.32777 0.25114
 H2129 H 0.31990 0.37919 0.22831
 H2130 H 0.31404 0.42066 0.20921
 H2131 H 0.34719 0.45325 0.21232
 H2132 H 0.38639 0.44457 0.23450
 H2133 H 0.44043 0.38436 0.28462
 H2134 H 0.44596 0.34316 0.30442
 H2135 H 0.41266 0.31069 0.30164
 H2136 H 0.37370 0.31916 0.27894
   
