data_POSCAR
  _audit_creation_date              2014-09-24
  _audit_creation_method            'ToBaCCo'
  _symmetry_space_group_name_H-M    'P1'
  _symmetry_Int_Tables_number       1
  _symmetry_cell_setting            triclinic
  loop_
  _symmetry_equiv_pos_as_xyz
 x,y,z
_cell_length_a 50.5646
_cell_length_b 50.6110
_cell_length_c 50.5475
_cell_angle_alpha 89.927900
_cell_angle_beta 90.002800
_cell_angle_gamma 89.965600
loop_
  _atom_site_label
  _atom_site_type_symbol
  _atom_site_fract_x
  _atom_site_fract_y
  _atom_site_fract_z
C1 C 0.33863 1.37360 0.33881
 C2 C 0.35058 1.38521 0.31653
 C3 C 0.37291 1.37354 0.30435
 C4 C 0.38309 1.34994 0.31538
 C5 C 0.37160 1.33835 0.33776
 C6 C 0.34917 1.35008 0.34938
 C7 C 0.31613 1.38506 0.35049
 C8 C 0.30370 1.37325 0.37262
 C9 C 0.31477 1.34973 0.38291
 C10 C 0.33731 1.33828 0.37162
 C11 C 0.34831 1.31527 0.38251
 C12 C 0.37103 1.30367 0.37141
 C13 C 0.38238 1.31525 0.34880
 H14 H 0.34164 1.40281 0.30827
 H15 H 0.40067 1.34088 0.30718
 H16 H 0.30791 1.40264 0.34148
 H17 H 0.30643 1.34056 0.40039
 H18 H 0.33940 1.30663 0.40001
 H19 H 0.39951 1.30621 0.33963
 C20 C 0.33687 0.87288 0.83905
 C21 C 0.34907 0.88554 0.81755
 C22 C 0.37105 0.87410 0.80483
 C23 C 0.38078 0.84971 0.81397
 C24 C 0.36876 0.83680 0.83540
 C25 C 0.34668 0.84837 0.84792
 C26 C 0.31487 0.88430 0.85161
 C27 C 0.30215 0.87150 0.87300
 C28 C 0.31234 0.84688 0.88152
 C29 C 0.33435 0.83536 0.86924
 C30 C 0.34421 0.81095 0.87803
 C31 C 0.36613 0.79917 0.86559
 C32 C 0.37831 0.81234 0.84430
 H33 H 0.34155 0.90444 0.81080
 H34 H 0.39739 0.84046 0.80408
 H35 H 0.30725 0.90269 0.84378
 H36 H 0.30368 0.83680 0.89832
 H37 H 0.33492 0.80126 0.89474
 H38 H 0.39503 0.80335 0.83435
 C39 C 0.83709 1.37070 0.83564
 C40 C 0.84962 1.38259 0.81388
 C41 C 0.87311 1.37189 0.80313
 C42 C 0.88384 1.34898 0.81505
 C43 C 0.87185 1.33726 0.83713
 C44 C 0.84835 1.34810 0.84743
 C45 C 0.81318 1.38080 0.84551
 C46 C 0.80033 1.36862 0.86703
 C47 C 0.81219 1.34657 0.87914
 C48 C 0.83601 1.33620 0.86943
 C49 C 0.84755 1.31396 0.88128
 C50 C 0.87113 1.30306 0.87126
 C51 C 0.88304 1.31481 0.84902
 H52 H 0.84022 1.39952 0.80474
 H53 H 0.90217 1.34061 0.80780
 H54 H 0.80421 1.39777 0.83597
 H55 H 0.80291 1.33740 0.89614
 H56 H 0.83820 1.30521 0.89848
 H57 H 0.90085 1.30631 0.84068
 C58 C 0.83539 0.87044 0.33715
 C59 C 0.84495 0.88015 0.31299
 C60 C 0.86598 0.86751 0.29958
 C61 C 0.87772 0.84511 0.31154
 C62 C 0.86866 0.83545 0.33594
 C63 C 0.84730 0.84804 0.34868
 C64 C 0.81370 0.88249 0.34969
 C65 C 0.80377 0.87239 0.37366
 C66 C 0.81614 0.85032 0.38520
 C67 C 0.83771 0.83810 0.37288
 C68 C 0.84967 0.81594 0.38438
 C69 C 0.87112 0.80331 0.37201
 C70 C 0.88053 0.81322 0.34774
 H71 H 0.83505 0.89698 0.30416
 H72 H 0.89454 0.83548 0.30247
 H73 H 0.80415 0.89929 0.34041
 H74 H 0.80893 0.84258 0.40386
 H75 H 0.84235 0.80860 0.40316
 H76 H 0.89673 0.80336 0.33778
 C77 C 0.66394 0.63019 0.33497
 C78 C 0.65168 0.61851 0.31296
 C79 C 0.62829 0.62931 0.30200
 C80 C 0.61743 0.65215 0.31391
 C81 C 0.62913 0.66365 0.33624
 C82 C 0.65248 0.65268 0.34676
 C83 C 0.68768 0.61989 0.34522
 C84 C 0.70005 0.63178 0.36715
 C85 C 0.68804 0.65381 0.37908
 C86 C 0.66446 0.66431 0.36905
 C87 C 0.65285 0.68644 0.38091
 C88 C 0.62943 0.69748 0.37073
 C89 C 0.61776 0.68599 0.34823
 H90 H 0.66119 0.60167 0.30385
 H91 H 0.59919 0.66059 0.30649
 H92 H 0.69645 0.60259 0.33616
 H93 H 0.69742 0.66328 0.39586
 H94 H 0.66198 0.69493 0.39834
 H95 H 0.60002 0.69457 0.33981
 C96 C 0.66532 0.13134 0.83459
 C97 C 0.65519 0.12152 0.81068
 C98 C 0.63390 0.13418 0.79802
 C99 C 0.62252 0.15659 0.80983
 C100 C 0.63246 0.16658 0.83366
 C101 C 0.65396 0.15396 0.84613
 C102 C 0.68682 0.11899 0.84692
 C103 C 0.69751 0.12878 0.87084
 C104 C 0.68574 0.15146 0.88221
 C105 C 0.66428 0.16416 0.86993
 C106 C 0.65333 0.18729 0.88075
 C107 C 0.63214 0.20022 0.86811
 C108 C 0.62163 0.18945 0.84477
 H109 H 0.66388 0.10400 0.80195
 H110 H 0.60631 0.16672 0.80010
 H111 H 0.69476 0.10124 0.83800
 H112 H 0.69384 0.16018 0.89998
 H113 H 0.66133 0.19525 0.89896
 H114 H 0.60550 0.19939 0.83472
 C115 C 1.16250 0.62837 0.83686
 C116 C 1.14991 0.61522 0.81602
 C117 C 1.12720 0.62590 0.80400
 C118 C 1.11673 0.64977 0.81368
 C119 C 1.12905 0.66305 0.83473
 C120 C 1.15215 0.65240 0.84622
 C121 C 1.18576 0.61812 0.84788
 C122 C 1.19955 0.63179 0.86796
 C123 C 1.18856 0.65564 0.87752
 C124 C 1.16511 0.66596 0.86680
 C125 C 1.15467 0.68990 0.87608
 C126 C 1.13173 0.70082 0.86468
 C127 C 1.11901 0.68713 0.84405
 H128 H 1.15798 0.59668 0.80895
 H129 H 1.09947 0.65844 0.80439
 H130 H 1.19376 0.60009 0.83961
 H131 H 1.19780 0.66617 0.89368
 H132 H 1.16445 0.70001 0.89223
 H133 H 1.10155 0.69550 0.83483
 C134 C 1.16734 0.13183 0.33267
 C135 C 1.15725 0.12230 0.30862
 C136 C 1.13537 0.13455 0.29625
 C137 C 1.12371 0.15656 0.30886
 C138 C 1.13400 0.16661 0.33254
 C139 C 1.15578 0.15410 0.34461
 C140 C 1.18894 0.11939 0.34485
 C141 C 1.19943 0.12876 0.36903
 C142 C 1.18764 0.15130 0.38058
 C143 C 1.16616 0.16405 0.36846
 C144 C 1.15533 0.18707 0.37951
 C145 C 1.13418 0.20025 0.36708
 C146 C 1.12324 0.18946 0.34392
 H147 H 1.16612 0.10478 0.30014
 H148 H 1.10736 0.16690 0.29964
 H149 H 1.19703 0.10184 0.33567
 H150 H 1.19572 0.15986 0.39844
 H151 H 1.16394 0.19518 0.39738
 H152 H 1.10649 0.19899 0.33453
 C153 C 0.66587 1.36804 0.66554
 C154 C 0.65455 1.37820 0.68874
 C155 C 0.63165 1.36674 0.69963
 C156 C 0.61950 1.34553 0.68634
 C157 C 0.63046 1.33529 0.66301
 C158 C 0.65393 1.34638 0.65278
 C159 C 0.68940 1.37872 0.65540
 C160 C 0.70197 1.36742 0.63314
 C161 C 0.68950 1.34597 0.62042
 C162 C 0.66566 1.33557 0.62998
 C163 C 0.65362 1.31421 0.61720
 C164 C 0.63016 1.30301 0.62711
 C165 C 0.61871 1.31369 0.65012
 H166 H 0.66377 1.39490 0.69843
 H167 H 0.60192 1.33645 0.69457
 H168 H 0.69863 1.39492 0.66590
 H169 H 0.69785 1.33757 0.60259
 H170 H 0.66257 1.30627 0.59942
 H171 H 0.60100 1.30490 0.65835
 C172 C 0.66755 0.86580 1.16831
 C173 C 0.65653 0.87613 1.19152
 C174 C 0.63372 0.86481 1.20298
 C175 C 0.62166 0.84328 1.18989
 C176 C 0.63279 0.83246 1.16691
 C177 C 0.65583 0.84375 1.15607
 C178 C 0.69062 0.87678 1.15761
 C179 C 0.70251 0.86573 1.13505
 C180 C 0.69064 0.84379 1.12284
 C181 C 0.66747 0.83268 1.13327
 C182 C 0.65628 0.81012 1.12179
 C183 C 0.63374 0.79822 1.13295
 C184 C 0.62182 0.80986 1.15521
 H185 H 0.66565 0.89339 1.20023
 H186 H 0.60442 0.83378 1.19835
 H187 H 0.69985 0.89345 1.16739
 H188 H 0.69949 0.83527 1.10528
 H189 H 0.66574 0.80121 1.10474
 H190 H 0.60418 0.80113 1.16368
 C191 C 1.16189 1.37145 1.16196
 C192 C 1.14963 1.38384 1.18345
 C193 C 1.12617 1.37366 1.19441
 C194 C 1.11463 1.35112 1.18292
 C195 C 1.12657 1.33871 1.16112
 C196 C 1.15046 1.34874 1.15079
 C197 C 1.18575 1.38123 1.15192
 C198 C 1.19912 1.36832 1.13108
 C199 C 1.18725 1.34564 1.11988
 C200 C 1.16302 1.33595 1.12945
 C201 C 1.15125 1.31354 1.11811
 C202 C 1.12720 1.30361 1.12798
 C203 C 1.11512 1.31627 1.14964
 H204 H 1.15850 1.40146 1.19177
 H205 H 1.09674 1.34282 1.19127
 H206 H 1.19448 1.39828 1.16145
 H207 H 1.19627 1.33577 1.10318
 H208 H 1.16106 1.30358 1.10187
 H209 H 1.09658 1.30882 1.15739
 C210 C 1.16719 0.86776 0.66672
 C211 C 1.15541 0.87891 0.68924
 C212 C 1.13296 0.86723 0.70077
 C213 C 1.12173 0.84481 0.68885
 C214 C 1.13331 0.83347 0.66640
 C215 C 1.15631 0.84477 0.65544
 C216 C 1.19029 0.87869 0.65601
 C217 C 1.20348 0.86654 0.63457
 C218 C 1.19207 0.84365 0.62332
 C219 C 1.16869 0.83277 0.63357
 C220 C 1.15785 0.80966 0.62266
 C221 C 1.13500 0.79815 0.63364
 C222 C 1.12278 0.81040 0.65540
 H223 H 1.16395 0.89647 0.69801
 H224 H 1.10454 0.83553 0.69768
 H225 H 1.19873 0.89589 0.66553
 H226 H 1.20093 0.83436 0.60620
 H227 H 1.16730 0.80060 0.60571
 H228 H 1.10545 0.80151 0.66436
 C229 C 0.33615 0.62968 0.66392
 C230 C 0.34861 0.61730 0.68550
 C231 C 0.37200 0.62783 0.69632
 C232 C 0.38295 0.65077 0.68503
 C233 C 0.37066 0.66341 0.66371
 C234 C 0.34724 0.65285 0.65301
 C235 C 0.31249 0.61964 0.65344
 C236 C 0.29979 0.63246 0.63220
 C237 C 0.31124 0.65534 0.62130
 C238 C 0.33470 0.66573 0.63167
 C239 C 0.34544 0.68920 0.62147
 C240 C 0.36847 0.70020 0.63252
 C241 C 0.38115 0.68687 0.65340
 H242 H 0.33968 0.59991 0.69427
 H243 H 0.40111 0.65893 0.69295
 H244 H 0.30399 0.60183 0.66178
 H245 H 0.30142 0.66557 0.60520
 H246 H 0.33573 0.69895 0.60503
 H247 H 0.39877 0.69523 0.66227
 C248 C 0.33523 0.12959 1.16381
 C249 C 0.34548 0.11987 1.18765
 C250 C 0.36644 0.13281 1.20080
 C251 C 0.37745 0.15554 1.18878
 C252 C 0.36766 0.16519 1.16462
 C253 C 0.34628 0.15233 1.15222
 C254 C 0.31378 0.11702 1.15162
 C255 C 0.30283 0.12697 1.12802
 C256 C 0.31414 0.14962 1.11642
 C257 C 0.33585 0.16225 1.12830
 C258 C 0.34722 0.18473 1.11672
 C259 C 0.36893 0.19745 1.12864
 C260 C 0.37890 0.18760 1.15270
 H261 H 0.33610 0.10278 1.19650
 H262 H 0.39423 0.16544 1.19760
 H263 H 0.30559 0.09937 1.16058
 H264 H 0.30579 0.15776 1.09844
 H265 H 0.33940 0.19212 1.09816
 H266 H 0.39518 0.19759 1.16239
 C267 C 0.83680 0.62847 1.16171
 C268 C 0.84693 0.61885 1.18562
 C269 C 0.86857 0.63120 1.19795
 C270 C 0.88037 0.65321 1.18566
 C271 C 0.87045 0.66304 1.16162
 C272 C 0.84847 0.65069 1.14967
 C273 C 0.81491 0.61635 1.14987
 C274 C 0.80409 0.62629 1.12621
 C275 C 0.81587 0.64850 1.11427
 C276 C 0.83800 0.66068 1.12581
 C277 C 0.84968 0.68285 1.11399
 C278 C 0.87169 0.69527 1.12565
 C279 C 0.88194 0.68520 1.14950
 H280 H 0.83749 0.60205 1.19501
 H281 H 0.89733 0.66265 1.19470
 H282 H 0.80630 0.59906 1.15914
 H283 H 0.80754 0.65670 1.09630
 H284 H 0.84172 0.69034 1.09553
 H285 H 0.89852 0.69491 1.15896
 C286 C 0.83806 0.12744 0.66216
 C287 C 0.84986 0.11597 0.68460
 C288 C 0.87161 0.12811 0.69729
 C289 C 0.88110 0.15219 0.68678
 C290 C 0.86962 0.16366 0.66433
 C291 C 0.84811 0.15122 0.65185
 C292 C 0.81623 0.11545 0.65000
 C293 C 0.80438 0.12650 0.62718
 C294 C 0.81510 0.15015 0.61684
 C295 C 0.83659 0.16267 0.62915
 C296 C 0.84654 0.18668 0.61931
 C297 C 0.86786 0.19938 0.63190
 C298 C 0.87936 0.18754 0.65428
 H299 H 0.84126 0.09807 0.69253
 H300 H 0.89814 0.16181 0.69546
 H301 H 0.80905 0.09694 0.65801
 H302 H 0.80610 0.15973 0.59993
 H303 H 0.83776 0.19539 0.60180
 H304 H 0.89563 0.19724 0.66430
 C305 C 1.37021 0.33659 0.66357
 C306 C 1.38156 0.34859 0.68590
 C307 C 1.37080 0.37200 0.69672
 C308 C 1.34819 0.38306 0.68450
 C309 C 1.33708 0.37167 0.66182
 C310 C 1.34820 0.34843 0.65126
 C311 C 1.38042 0.31278 0.65353
 C312 C 1.36922 0.30066 0.63094
 C313 C 1.34786 0.31352 0.61832
 C314 C 1.33719 0.33694 0.62846
 C315 C 1.31530 0.34877 0.61627
 C316 C 1.30389 0.37186 0.62669
 C317 C 1.31496 0.38321 0.64955
 H318 H 1.39814 0.33888 0.69535
 H319 H 1.33970 0.40125 0.69192
 H320 H 1.39756 0.30422 0.66309
 H321 H 1.33842 0.30468 0.60127
 H322 H 1.30714 0.33995 0.59852
 H323 H 1.30615 0.40075 0.65808
 C324 C 1.36835 0.83372 1.16495
 C325 C 1.37873 0.84411 1.18845
 C326 C 1.36630 0.86540 1.20131
 C327 C 1.34338 0.87645 1.19006
 C328 C 1.33273 0.86613 1.16660
 C329 C 1.34528 0.84471 1.15395
 C330 C 1.38060 0.81224 1.15257
 C331 C 1.37037 0.80131 1.12898
 C332 C 1.34729 0.81275 1.11804
 C333 C 1.33460 0.83410 1.13049
 C334 C 1.31105 0.84465 1.12016
 C335 C 1.29813 0.86571 1.13295
 C336 C 1.30939 0.87656 1.15595
 H337 H 1.39621 0.83518 1.19707
 H338 H 1.33378 0.89311 1.19949
 H339 H 1.39867 0.80455 1.16114
 H340 H 1.33826 0.80445 1.10051
 H341 H 1.30277 0.83645 1.10219
 H342 H 1.29949 0.89265 1.16607
 C343 C 0.87075 0.33639 1.16261
 C344 C 0.88271 0.34852 1.18460
 C345 C 0.87104 0.37077 1.19662
 C346 C 0.84728 0.38081 1.18618
 C347 C 0.83499 0.36874 1.16457
 C348 C 0.84667 0.34643 1.15274
 C349 C 0.88234 0.31421 1.15054
 C350 C 0.87015 0.30162 1.12872
 C351 C 0.84587 0.31196 1.11939
 C352 C 0.83417 0.33413 1.13113
 C353 C 0.81012 0.34421 1.12149
 C354 C 0.79828 0.36641 1.13334
 C355 C 0.81101 0.37859 1.15481
 H356 H 0.90083 0.34033 1.19258
 H357 H 0.83827 0.39820 1.19486
 H358 H 0.90039 0.30641 1.15898
 H359 H 0.83626 0.30336 1.10231
 H360 H 0.80076 0.33487 1.10464
 H361 H 0.80197 0.39551 1.16434
 C362 C 0.87238 0.83810 0.66123
 C363 C 0.88319 0.84974 0.68403
 C364 C 0.87177 0.87263 0.69504
 C365 C 0.84922 0.88367 0.68299
 C366 C 0.83817 0.87229 0.66032
 C367 C 0.84979 0.84947 0.64936
 C368 C 0.88371 0.81526 0.65012
 C369 C 0.87279 0.80374 0.62723
 C370 C 0.85035 0.81539 0.61560
 C371 C 0.83879 0.83801 0.62650
 C372 C 0.81640 0.84937 0.61477
 C373 C 0.80461 0.87209 0.62559
 C374 C 0.81566 0.88343 0.64844
 H375 H 0.90028 0.84077 0.69334
 H376 H 0.84041 0.90144 0.69109
 H377 H 0.90077 0.80632 0.65951
 H378 H 0.84195 0.80697 0.59777
 H379 H 0.80826 0.84060 0.59699
 H380 H 0.80655 0.90068 0.65726
 C381 C 0.63138 0.66572 0.66469
 C382 C 0.62089 0.65572 0.68835
 C383 C 0.63323 0.63456 0.70160
 C384 C 0.65606 0.62315 0.69057
 C385 C 0.66688 0.63305 0.66702
 C386 C 0.65455 0.65444 0.65404
 C387 C 0.61937 0.68720 0.65185
 C388 C 0.63018 0.69758 0.62839
 C389 C 0.65327 0.68609 0.61788
 C390 C 0.66559 0.66476 0.63060
 C391 C 0.68902 0.65388 0.62047
 C392 C 0.70166 0.63282 0.63352
 C393 C 0.69020 0.62228 0.65659
 H394 H 0.60343 0.66485 0.69678
 H395 H 0.66550 0.60654 0.70028
 H396 H 0.60195 0.69618 0.66050
 H397 H 0.66171 0.69379 0.59973
 H398 H 0.69744 0.66187 0.60244
 H399 H 0.69991 0.60619 0.66693
 C400 C 0.63033 1.16404 1.16424
 C401 C 0.61845 1.15113 1.18579
 C402 C 0.62890 1.12726 1.19556
 C403 C 0.65133 1.11628 1.18329
 C404 C 0.66337 1.12891 1.16175
 C405 C 0.65292 1.15296 1.15228
 C406 C 0.62020 1.18810 1.15482
 C407 C 0.63261 1.20181 1.13382
 C408 C 0.65509 1.19022 1.12194
 C409 C 0.66517 1.16599 1.13093
 C410 C 0.68738 1.15461 1.11882
 C411 C 0.69788 1.13050 1.12798
 C412 C 0.68578 1.11789 1.14965
 H413 H 0.60145 1.16003 1.19533
 H414 H 0.65937 1.09773 1.19043
 H415 H 0.60325 1.19660 1.16476
 H416 H 0.66449 1.19945 1.10507
 H417 H 0.69636 1.16449 1.10205
 H418 H 0.69396 1.09967 1.15740
 C419 C 0.12501 0.66015 1.16005
 C420 C 0.11371 0.64822 1.18249
 C421 C 0.12563 0.62597 1.19460
 C422 C 0.14915 0.61588 1.18336
 C423 C 0.16043 0.62737 1.16082
 C424 C 0.14844 0.64969 1.14925
 C425 C 0.11331 0.68259 1.14843
 C426 C 0.12482 0.69499 1.12611
 C427 C 0.14823 0.68395 1.11558
 C428 C 0.15993 0.66153 1.12683
 C429 C 0.18289 0.65065 1.11575
 C430 C 0.19477 0.62809 1.12686
 C431 C 0.18349 0.61670 1.14960
 H432 H 0.09618 0.65711 1.19093
 H433 H 0.15840 0.59837 1.19151
 H434 H 0.09581 0.69077 1.15761
 H435 H 0.15715 0.69223 1.09794
 H436 H 0.19129 0.65956 1.09815
 H437 H 0.19276 0.59968 1.15874
 C438 C 0.13037 1.16300 0.66445
 C439 C 0.11808 1.15015 0.68583
 C440 C 0.12938 1.12729 0.69735
 C441 C 0.15316 1.11746 0.68647
 C442 C 0.16539 1.12990 0.66495
 C443 C 0.15404 1.15277 0.65390
 C444 C 0.11972 1.18636 0.65392
 C445 C 0.13238 1.19968 0.63297
 C446 C 0.15555 1.18880 0.62206
 C447 C 0.16656 1.16559 0.63250
 C448 C 0.19020 1.15530 0.62220
 C449 C 0.20178 1.13256 0.63330
 C450 C 0.18907 1.11994 0.65460
 H451 H 0.10040 1.15890 0.69410
 H452 H 0.16202 1.09957 0.69423
 H453 H 0.10194 1.19461 0.66259
 H454 H 0.16518 1.19847 0.60553
 H455 H 0.19955 1.16505 0.60556
 H456 H 0.19796 1.10262 0.66358
 C457 C 1.36866 0.66592 0.33399
 C458 C 1.38130 0.65350 0.31270
 C459 C 1.37130 0.62988 0.30165
 C460 C 1.34819 0.61883 0.31289
 C461 C 1.33514 0.63130 0.33401
 C462 C 1.34544 0.65494 0.34456
 C463 C 1.37879 0.68947 0.34453
 C464 C 1.36574 0.70283 0.36532
 C465 C 1.34247 0.69143 0.37573
 C466 C 1.33236 0.66774 0.36554
 C467 C 1.30906 0.65689 0.37584
 C468 C 1.29836 0.63355 0.36526
 C469 C 1.31163 0.62077 0.34441
 H470 H 1.39942 0.66209 0.30518
 H471 H 1.33938 0.60122 0.30457
 H472 H 1.39632 0.69790 0.33556
 H473 H 1.33238 0.70040 0.39233
 H474 H 1.29882 0.66704 0.39169
 H475 H 1.30370 0.60259 0.33634
 C476 C 1.37053 1.16420 0.83573
 C477 C 1.38325 1.15240 0.81415
 C478 C 1.37353 1.12891 0.80292
 C479 C 1.35093 1.11703 0.81404
 C480 C 1.33812 1.12854 0.83586
 C481 C 1.34784 1.15235 0.84660
 C482 C 1.38007 1.18791 0.84631
 C483 C 1.36699 1.20067 0.86745
 C484 C 1.34430 1.18840 0.87826
 C485 C 1.33483 1.16435 0.86813
 C486 C 1.31249 1.15214 0.87920
 C487 C 1.30285 1.12818 0.86892
 C488 C 1.31570 1.11667 0.84706
 H489 H 1.40086 1.16156 0.80607
 H490 H 1.34296 1.09912 0.80547
 H491 H 1.39713 1.19697 0.83706
 H492 H 1.33428 1.19692 0.89513
 H493 H 1.30239 1.16151 0.89561
 H494 H 1.30847 1.09819 0.83901
 C495 C 0.86931 0.66384 0.83581
 C496 C 0.87945 0.65359 0.81209
 C497 C 0.86764 0.63152 0.80005
 C498 C 0.84588 0.61942 0.81241
 C499 C 0.83559 0.62947 0.83607
 C500 C 0.84719 0.65187 0.84780
 C501 C 0.88086 0.68602 0.84758
 C502 C 0.87046 0.69683 0.87103
 C503 C 0.84821 0.68485 0.88279
 C504 C 0.83655 0.66237 0.87138
 C505 C 0.81427 0.65037 0.88294
 C506 C 0.80264 0.62790 0.87131
 C507 C 0.81365 0.61759 0.84795
 H508 H 0.89656 0.66279 0.80305
 H509 H 0.83646 0.60252 0.80323
 H510 H 0.89814 0.69483 0.83845
 H511 H 0.83968 0.69320 0.90058
 H512 H 0.80580 0.65881 0.90071
 H513 H 0.80516 0.60011 0.83895
 C514 C 0.87070 1.16291 0.33509
 C515 C 0.88292 1.15129 0.31312
 C516 C 0.87402 1.12695 0.30275
 C517 C 0.85231 1.11452 0.31524
 C518 C 0.83979 1.12611 0.33716
 C519 C 0.84903 1.15036 0.34718
 C520 C 0.87986 1.18703 0.34503
 C521 C 0.86762 1.19902 0.36693
 C522 C 0.84591 1.18638 0.37894
 C523 C 0.83652 1.16215 0.36918
 C524 C 0.81469 1.14961 0.38090
 C525 C 0.80515 1.12550 0.37086
 C526 C 0.81792 1.11390 0.34903
 H527 H 0.89999 1.16105 0.30467
 H528 H 0.84421 1.09634 0.30746
 H529 H 0.89634 1.19674 0.33535
 H530 H 0.83648 1.19522 0.39602
 H531 H 0.80479 1.15893 0.39746
 H532 H 0.81089 1.09519 0.34134
 C533 C 0.63176 0.33572 0.33410
 C534 C 0.62126 0.34669 0.31095
 C535 C 0.63301 0.36893 0.29883
 C536 C 0.65516 0.38060 0.31129
 C537 C 0.66548 0.37017 0.33491
 C538 C 0.65389 0.34747 0.34619
 C539 C 0.62095 0.31256 0.34479
 C540 C 0.63215 0.30071 0.36732
 C541 C 0.65372 0.31300 0.37980
 C542 C 0.66465 0.33626 0.36936
 C543 C 0.68647 0.34819 0.38147
 C544 C 0.69810 0.37101 0.37060
 C545 C 0.68747 0.38184 0.34723
 H546 H 0.60469 0.33682 0.30166
 H547 H 0.66412 0.39826 0.30318
 H548 H 0.60440 0.30318 0.33493
 H549 H 0.66217 0.30434 0.39751
 H550 H 0.69439 0.33967 0.39950
 H551 H 0.69661 0.39903 0.33830
 C552 C 0.62914 0.83805 0.83598
 C553 C 0.61776 0.85078 0.81407
 C554 C 0.62817 0.87477 0.80461
 C555 C 0.65020 0.88594 0.81740
 C556 C 0.66174 0.87350 0.83933
 C557 C 0.65117 0.84947 0.84870
 C558 C 0.61911 0.81386 0.84511
 C559 C 0.63083 0.80081 0.86675
 C560 C 0.65250 0.81261 0.87958
 C561 C 0.66278 0.83676 0.87064
 C562 C 0.68466 0.84827 0.88317
 C563 C 0.69547 0.87220 0.87389
 C564 C 0.68382 0.88464 0.85187
 H565 H 0.60113 0.84170 0.80407
 H566 H 0.65827 0.90451 0.81038
 H567 H 0.60251 0.80489 0.83496
 H568 H 0.66137 0.80304 0.89659
 H569 H 0.69327 0.83856 0.90025
 H570 H 0.69220 0.90275 0.84411
 C571 C 0.12696 0.33844 0.83850
 C572 C 0.11590 0.35018 0.81584
 C573 C 0.12735 0.37293 0.80456
 C574 C 0.15005 0.38388 0.81635
 C575 C 0.16137 0.37237 0.83886
 C576 C 0.14987 0.34950 0.84991
 C577 C 0.11558 0.31572 0.84981
 C578 C 0.12697 0.30352 0.87231
 C579 C 0.15001 0.31492 0.88323
 C580 C 0.16132 0.33770 0.87236
 C581 C 0.18386 0.34897 0.88386
 C582 C 0.19538 0.37190 0.87315
 C583 C 0.18403 0.38341 0.85050
 H584 H 0.09864 0.34133 0.80677
 H585 H 0.15883 0.40161 0.80813
 H586 H 0.09843 0.30719 0.84031
 H587 H 0.15886 0.30667 0.90092
 H588 H 0.19226 0.34002 0.90145
 H589 H 0.19297 0.40076 0.84167
 C590 C 0.12847 0.83742 0.33735
 C591 C 0.11638 0.84973 0.31548
 C592 C 0.12845 0.87142 0.30255
 C593 C 0.15293 0.88056 0.31244
 C594 C 0.16510 0.86856 0.33423
 C595 C 0.15294 0.84686 0.34667
 C596 C 0.11659 0.81556 0.34976
 C597 C 0.12885 0.80277 0.37146
 C598 C 0.15331 0.81281 0.38054
 C599 C 0.16533 0.83459 0.36840
 C600 C 0.18962 0.84429 0.37776
 C601 C 0.20187 0.86603 0.36548
 C602 C 0.18937 0.87802 0.34369
 H603 H 0.09804 0.84153 0.30814
 H604 H 0.16241 0.89767 0.30374
 H605 H 0.09829 0.80810 0.34161
 H606 H 0.16290 0.80419 0.39765
 H607 H 0.19881 0.83506 0.39479
 H608 H 0.19876 0.89455 0.33380
 O609 O 0.97273 0.90463 0.86743
 O610 O 0.97266 0.87405 0.83638
 C611 C 0.96373 0.89552 0.84581
 C612 C 0.94229 0.90984 0.83191
 C613 C 0.93364 0.90175 0.80676
 H614 H 0.94298 0.88498 0.79731
 O615 O 1.02622 1.09525 0.86734
 O616 O 1.02636 1.12575 0.83615
 C617 C 1.03531 1.10430 0.84573
 C618 C 1.05681 1.08988 0.83199
 C619 C 1.06571 1.09798 0.80691
 H620 H 1.05669 1.11502 0.79764
 O621 O 0.86746 0.97424 0.90421
 O622 O 0.83634 0.97429 0.87364
 C623 C 0.84584 0.96526 0.89512
 C624 C 0.83206 0.94379 0.90956
 C625 C 0.80679 0.93511 0.90176
 H626 H 0.79704 0.94442 0.88511
 O627 O 1.13156 1.02529 0.90461
 O628 O 1.16243 1.02494 0.87379
 C629 C 1.15310 1.03417 0.89522
 C630 C 1.16712 1.05586 0.90900
 C631 C 1.19205 1.06426 0.90022
 H632 H 1.20151 1.05392 0.88404
 O633 O 0.90397 0.86795 0.97413
 O634 O 0.87301 0.83727 0.97419
 C635 C 0.89451 0.84651 0.96509
 C636 C 0.90847 0.83267 0.94340
 C637 C 0.90008 0.80768 0.93461
 H638 H 0.88337 0.79822 0.94407
 O639 O 1.09569 1.13143 0.97350
 O640 O 1.12650 1.16225 0.97350
 C641 C 1.10492 1.15297 0.96453
 C642 C 1.09068 1.16692 0.94299
 C643 C 1.09861 1.19221 0.93482
 H644 H 1.11438 1.20204 0.94541
 O645 O 0.90366 1.02595 0.86827
 O646 O 0.87281 1.02627 0.83743
 C647 C 0.89439 1.03514 0.84679
 C648 C 0.90877 1.05659 0.83287
 C649 C 0.90044 1.06544 0.80784
 H650 H 0.88327 1.05648 0.79874
 O651 O 1.09515 0.97362 0.86872
 O652 O 1.12608 0.97317 0.83796
 C653 C 1.10447 0.96440 0.84729
 C654 C 1.09042 0.94276 0.83350
 C655 C 1.10041 0.93246 0.80972
 H656 H 1.11769 0.94136 0.80076
 O657 O 1.02432 0.86844 0.90373
 O658 O 1.02421 0.83776 0.87279
 C659 C 1.03338 0.84703 0.89425
 C660 C 1.05543 0.83329 0.90779
 C661 C 1.06587 0.80989 0.89722
 H662 H 1.05709 0.80143 0.87961
 O663 O 0.97484 1.13187 0.90326
 O664 O 0.97472 1.16261 0.87231
 C665 C 0.96577 1.15336 0.89390
 C666 C 0.94420 1.16720 0.90812
 C667 C 0.93529 1.19224 0.89986
 H668 H 0.94455 1.20179 0.88307
 O669 O 0.86813 1.09600 0.97336
 O670 O 0.83730 1.12684 0.97327
 C671 C 0.84654 1.10527 0.96439
 C672 C 0.83241 1.09094 0.94313
 C673 C 0.80732 1.09928 0.93442
 H674 H 0.79829 1.11644 0.94342
 O675 O 1.13010 0.90370 0.97435
 O676 O 1.16103 0.87296 0.97463
 C677 C 1.15184 0.89458 0.96569
 C678 C 1.16620 0.90892 0.94453
 C679 C 1.19148 0.90071 0.93657
 H680 H 1.20100 0.88460 0.94699
 O681 O 0.97459 1.09488 0.86794
 O682 O 0.97461 1.12537 0.83674
 C683 C 0.96554 1.10397 0.84634
 C684 C 0.94380 1.08991 0.83260
 C685 C 0.93548 1.09810 0.80742
 H686 H 0.94603 1.11390 0.79757
 O687 O 1.02434 0.90496 0.86797
 O688 O 1.02429 0.87434 0.83697
 C689 C 1.03347 0.89567 0.84651
 C690 C 1.05561 0.90930 0.83303
 C691 C 1.06593 0.89925 0.80931
 H692 H 1.05701 0.88195 0.80043
 O693 O 1.13153 0.97362 0.90485
 O694 O 1.16257 0.97331 0.87421
 C695 C 1.15307 0.96444 0.89574
 C696 C 1.16681 0.94289 0.91014
 C697 C 1.19197 0.93411 0.90215
 H698 H 1.20144 0.94336 0.88532
 O699 O 0.86761 1.02568 0.90464
 O700 O 0.83653 1.02583 0.87403
 C701 C 0.84598 1.03466 0.89556
 C702 C 0.83209 1.05609 0.90980
 C703 C 0.80683 1.06424 0.90179
 H704 H 0.79696 1.05361 0.88606
 O705 O 0.90530 1.13125 0.97306
 O706 O 0.87460 1.16222 0.97299
 C707 C 0.89609 1.15278 0.96401
 C708 C 0.91019 1.16672 0.94247
 C709 C 0.90167 1.19169 0.93406
 H710 H 0.88536 1.20117 0.94421
 O711 O 1.09402 0.86738 0.97340
 O712 O 1.12482 0.83652 0.97323
 C713 C 1.10348 0.84609 0.96403
 C714 C 1.08990 0.83285 0.94169
 C715 C 1.10018 0.80950 0.93069
 H716 H 1.11751 0.80039 0.93939
 O717 O 1.09532 1.02508 0.86834
 O718 O 1.12604 1.02464 0.83737
 C719 C 1.10452 1.03377 0.84663
 C720 C 1.09038 1.05514 0.83239
 C721 C 1.09857 1.06308 0.80709
 H722 H 1.11443 1.05241 0.79747
 O723 O 0.90358 0.97442 0.86789
 O724 O 0.87269 0.97463 0.83708
 C725 C 0.89425 0.96559 0.84631
 C726 C 0.90835 0.94418 0.83220
 C727 C 0.90005 0.93596 0.80704
 H728 H 0.88385 0.94618 0.79744
 O729 O 1.02642 1.13137 0.90350
 O730 O 1.02645 1.16212 0.87255
 C731 C 1.03549 1.15282 0.89411
 C732 C 1.05702 1.16676 0.90830
 C733 C 1.06566 1.19182 0.89997
 H734 H 1.05648 1.20087 0.88287
 O735 O 0.97276 0.86867 0.90403
 O736 O 0.97265 0.83793 0.87315
 C737 C 0.96377 0.84717 0.89476
 C738 C 0.94239 0.83313 0.90900
 C739 C 0.93387 0.80816 0.90057
 H740 H 0.94381 0.79869 0.88414
 O741 O 1.13233 1.09573 0.97333
 O742 O 1.16343 1.12624 0.97326
 C743 C 1.15390 1.10485 0.96422
 C744 C 1.16759 1.09057 0.94257
 C745 C 1.19249 1.09889 0.93333
 H746 H 1.20189 1.11587 0.94230
 O747 O 0.86856 0.90493 0.97429
 O748 O 0.83746 0.87439 0.97465
 C749 C 0.84688 0.89582 0.96552
 C750 C 0.83274 0.90995 0.94411
 C751 C 0.80755 0.90163 0.93611
 H752 H 0.79807 0.88545 0.94647
 Cu753 Cu 0.99846 0.88977 0.88888
 Cu754 Cu 0.99839 0.85293 0.85170
 Cu755 Cu 1.00053 1.11031 0.88861
 Cu756 Cu 1.00052 1.14702 0.85129
 Cu757 Cu 0.88867 1.00003 0.88931
 Cu758 Cu 0.85149 1.00029 0.85244
 Cu759 Cu 1.11034 0.99943 0.88974
 Cu760 Cu 1.14739 0.99901 0.85275
 C761 C 0.92966 0.93119 0.84433
 H762 H 0.93598 0.93727 0.86387
 C763 C 0.91258 0.91479 0.79406
 C764 C 1.06923 1.06840 0.84450
 H765 H 1.06288 1.06241 0.86407
 C766 C 1.08650 1.08457 0.79411
 C767 C 0.84473 0.93119 0.93090
 H768 H 0.86432 0.93749 0.93682
 C769 C 0.79436 0.91402 0.91501
 C770 C 1.15519 1.06894 0.93035
 H771 H 1.13584 1.06266 0.93705
 C772 C 1.20498 1.08574 0.91219
 C773 C 0.92976 0.84508 0.93059
 H774 H 0.93608 0.86449 0.93700
 C775 C 0.91274 0.79520 0.91321
 C776 C 1.06961 1.15455 0.92986
 H777 H 1.06343 1.13500 0.93603
 C778 C 1.08633 1.20492 0.91325
 C779 C 0.93054 1.06890 0.84502
 H780 H 0.93678 1.06256 0.86452
 C781 C 0.91377 1.08611 0.79481
 C782 C 1.06786 0.93121 0.84486
 H783 H 1.06031 0.93876 0.86343
 C784 C 1.08847 0.91053 0.79762
 C785 C 1.06739 0.84447 0.93020
 H786 H 1.05965 0.86274 0.93822
 C787 C 1.08836 0.79795 0.90834
 C788 C 0.93163 1.15474 0.92958
 H789 H 0.93810 1.13530 0.93583
 C790 C 0.91401 1.20467 0.91280
 C791 C 0.84454 1.06928 0.93075
 H792 H 0.86411 1.06312 0.93693
 C793 C 0.79422 1.08594 0.91379
 C794 C 1.15421 0.93026 0.93144
 H795 H 1.13461 0.93656 0.93738
 C796 C 1.20462 0.91309 0.91536
 O797 O 1.02485 0.90394 1.13266
 O798 O 1.02489 0.87332 1.16373
 C799 C 1.03386 0.89481 1.15427
 C800 C 1.05530 0.90922 1.16809
 C801 C 1.06425 0.90101 1.19313
 H802 H 1.05528 0.88395 1.20240
 O803 O 0.97475 1.09536 1.13052
 O804 O 0.97494 1.12602 1.16149
 C805 C 0.96605 1.10443 1.15226
 C806 C 0.94492 1.09006 1.16656
 C807 C 0.93718 1.09798 1.19198
 H808 H 0.94781 1.11383 1.20164
 O809 O 0.86839 1.02636 1.09551
 O810 O 0.83738 1.02677 1.12617
 C811 C 0.84686 1.03558 1.10463
 C812 C 0.83315 1.05715 1.09023
 C813 C 0.80816 1.06624 1.09846
 H814 H 0.79856 1.05711 1.11530
 O815 O 1.12990 0.97296 1.09535
 O816 O 1.16078 0.97271 1.12615
 C817 C 1.15119 0.96354 1.10482
 C818 C 1.16453 0.94123 1.09133
 C819 C 1.18812 0.93073 1.10155
 H820 H 1.19681 0.93947 1.11906
 O821 O 1.09302 0.86709 1.02514
 O822 O 1.12350 0.83590 1.02500
 C823 C 1.10202 0.84538 1.03401
 C824 C 1.08784 0.83149 1.05559
 C825 C 1.09567 0.80611 1.06358
 H826 H 1.11117 0.79612 1.05271
 O827 O 0.90481 1.13207 1.02467
 O828 O 0.87411 1.16306 1.02455
 C829 C 0.89559 1.15366 1.03360
 C830 C 0.90960 1.16754 1.05522
 C831 C 0.90107 1.19249 1.06377
 H832 H 0.88501 1.20217 1.05341
 O833 O 0.90416 0.97435 1.13181
 O834 O 0.87325 0.97473 1.16258
 C835 C 0.89457 0.96528 1.15321
 C836 C 0.90788 0.94296 1.16684
 C837 C 0.89712 0.93225 1.19011
 H838 H 0.87928 0.94081 1.19828
 O839 O 1.09486 1.02571 1.13112
 O840 O 1.12595 1.02575 1.16171
 C841 C 1.10456 1.03502 1.15234
 C842 C 1.09136 1.05753 1.16564
 C843 C 1.10194 1.06829 1.18897
 H844 H 1.11870 1.05872 1.19821
 O845 O 0.97344 0.86777 1.09652
 O846 O 0.97333 0.83671 1.12715
 C847 C 0.96444 0.84616 1.10560
 C848 C 0.94312 0.83232 1.09103
 C849 C 0.93446 0.80707 1.09883
 H850 H 0.94360 0.79752 1.11568
 O851 O 1.02557 1.13193 1.09359
 O852 O 1.02544 1.16295 1.12421
 C853 C 1.03445 1.15354 1.10272
 C854 C 1.05604 1.16745 1.08865
 C855 C 1.06429 1.19252 1.09701
 H856 H 1.05374 1.20221 1.11292
 O857 O 0.86852 0.90456 1.02591
 O858 O 0.83761 0.87384 1.02628
 C859 C 0.84710 0.89529 1.03521
 C860 C 0.83359 0.90916 1.05719
 C861 C 0.81015 0.89891 1.06802
 H862 H 0.80116 0.88160 1.05924
 O863 O 1.13184 1.09495 1.02492
 O864 O 1.16301 1.12540 1.02509
 C865 C 1.15347 1.10390 1.03398
 C866 C 1.16725 1.08930 1.05540
 C867 C 1.19243 1.09721 1.06418
 H868 H 1.20200 1.11401 1.05500
 O869 O 1.02635 1.09633 1.13026
 O870 O 1.02654 1.12726 1.16095
 C871 C 1.03572 1.10589 1.15152
 C872 C 1.05796 1.09238 1.16499
 C873 C 1.06917 1.10320 1.18796
 H874 H 1.06115 1.12136 1.19589
 O875 O 0.97328 0.90413 1.13246
 O876 O 0.97304 0.87331 1.16334
 C877 C 0.96403 0.89481 1.15388
 C878 C 0.94193 0.90865 1.16733
 C879 C 0.93117 0.89855 1.19090
 H880 H 0.94040 0.88161 1.20015
 O881 O 1.13070 1.02466 1.09448
 O882 O 1.16185 1.02432 1.12501
 C883 C 1.15248 1.03335 1.10348
 C884 C 1.16671 1.05466 1.08919
 C885 C 1.19189 1.06275 1.09756
 H886 H 1.20140 1.05245 1.11376
 O887 O 0.86862 0.97481 1.09514
 O888 O 0.83763 0.97511 1.12583
 C889 C 0.84711 0.96584 1.10447
 C890 C 0.83355 0.94374 1.09091
 C891 C 0.81017 0.93316 1.10145
 H892 H 0.80162 0.94187 1.11905
 O893 O 1.09634 1.13192 1.02501
 O894 O 1.12721 1.16267 1.02521
 C895 C 1.10560 1.15341 1.03408
 C896 C 1.09114 1.16740 1.05542
 C897 C 1.09935 1.19243 1.06429
 H898 H 1.11645 1.20169 1.05534
 O899 O 0.90487 0.86847 1.02574
 O900 O 0.87404 0.83765 1.02573
 C901 C 0.89561 0.84691 1.03468
 C902 C 0.90970 0.83278 1.05612
 C903 C 0.90153 0.80750 1.06397
 H904 H 0.88564 0.79790 1.05331
 O905 O 1.09383 0.97409 1.13178
 O906 O 1.12465 0.97419 1.16265
 C907 C 1.10301 0.96531 1.15348
 C908 C 1.08880 0.94401 1.16776
 C909 C 1.09716 0.93585 1.19295
 H910 H 1.11316 0.94633 1.20253
 O911 O 0.90492 1.02600 1.13156
 O912 O 0.87413 1.02643 1.16245
 C913 C 0.89577 1.03513 1.15309
 C914 C 0.91030 1.05642 1.16696
 C915 C 0.90248 1.06495 1.19224
 H916 H 0.88561 1.05575 1.20167
 O917 O 0.97395 1.13216 1.09474
 O918 O 0.97384 1.16298 1.12554
 C919 C 0.96479 1.15360 1.10409
 C920 C 0.94314 1.16743 1.08997
 C921 C 0.93404 1.19225 1.09858
 H922 H 0.94301 1.20129 1.11576
 O923 O 1.02488 0.86778 1.09645
 O924 O 1.02495 0.83685 1.12721
 C925 C 1.03383 0.84618 1.10561
 C926 C 1.05495 0.83202 1.09100
 C927 C 1.06346 0.80681 1.09909
 H928 H 1.05453 0.79778 1.11632
 O929 O 1.12961 0.90285 1.02592
 O930 O 1.16022 0.87180 1.02621
 C931 C 1.15089 0.89328 1.03527
 C932 C 1.16443 0.90688 1.05738
 C933 C 1.18814 0.89677 1.06782
 H934 H 1.19724 0.87971 1.05867
 O935 O 0.86913 1.09543 1.02497
 O936 O 0.83832 1.12630 1.02485
 C937 C 0.84766 1.10482 1.03398
 C938 C 0.83371 1.09096 1.05567
 C939 C 0.80883 1.09974 1.06415
 H940 H 0.79941 1.11611 1.05401
 Cu941 Cu 0.99915 0.88899 1.11147
 Cu942 Cu 0.99908 0.85199 1.14852
 Cu943 Cu 1.00008 1.11086 1.10919
 Cu944 Cu 1.00014 1.14789 1.14615
 Cu945 Cu 0.88960 0.88953 0.99998
 Cu946 Cu 0.85239 0.85273 1.00024
 Cu947 Cu 1.10859 0.88832 0.99968
 Cu948 Cu 1.14545 0.85116 0.99977
 Cu949 Cu 0.88992 1.11058 0.99899
 Cu950 Cu 0.85300 1.14772 0.99890
 Cu951 Cu 1.11099 1.11045 0.99921
 Cu952 Cu 1.14816 1.14721 0.99929
 Cu953 Cu 0.88963 1.00045 1.11045
 Cu954 Cu 0.85249 1.00086 1.14735
 Cu955 Cu 1.10922 0.99937 1.11011
 Cu956 Cu 1.14642 0.99922 1.14694
 C957 C 1.06762 0.93081 1.15568
 H958 H 1.06121 0.93690 1.13615
 C959 C 1.08513 0.91430 1.20586
 C960 C 0.93162 1.06902 1.15438
 H961 H 0.93742 1.06293 1.13468
 C962 C 0.91592 1.08566 1.20506
 C963 C 0.84562 1.06951 1.06867
 H964 H 0.86500 1.06287 1.06240
 C965 C 0.79583 1.08755 1.08547
 C966 C 1.15293 0.92927 1.06913
 H967 H 1.13448 0.93697 1.06142
 C968 C 1.20005 0.90841 1.09007
 C969 C 1.06721 0.84411 1.06918
 H970 H 1.06115 0.86376 1.06318
 C971 C 1.08373 0.79352 1.08538
 C972 C 0.93086 1.15534 1.06822
 H973 H 0.93743 1.13601 1.06180
 C974 C 0.91306 1.20509 1.08549
 C975 C 0.93035 0.93106 1.15567
 H976 H 0.93836 0.93880 1.13736
 C977 C 0.90849 0.90996 1.20233
 C978 C 1.06916 1.06950 1.15403
 H979 H 1.06103 1.06143 1.13593
 C980 C 1.09125 1.09141 1.20016
 C981 C 0.93070 0.84490 1.06955
 H982 H 0.93693 0.86452 1.06368
 C983 C 0.91369 0.79441 1.08529
 C984 C 1.06936 1.15519 1.06764
 H985 H 1.06320 1.13572 1.06127
 C986 C 1.08594 1.20523 1.08507
 C987 C 0.84501 0.93174 1.06863
 H988 H 0.86333 0.93948 1.06070
 C989 C 0.79845 0.91060 1.09033
 C990 C 1.15468 1.06787 1.06791
 H991 H 1.13512 1.06192 1.06156
 C992 C 1.20497 1.08400 1.08524
 O993 O 0.97418 0.40357 0.36760
 O994 O 0.97409 0.37300 0.33655
 C995 C 0.96520 0.39451 0.34597
 C996 C 0.94387 0.40899 0.33203
 C997 C 0.93509 0.40084 0.30694
 H998 H 0.94423 0.38394 0.29753
 O999 O 1.02616 0.59603 0.36729
 O1000 O 1.02615 0.62669 0.33626
 C1001 C 1.03511 0.60517 0.34567
 C1002 C 1.05639 0.59066 0.33168
 C1003 C 1.06487 0.59860 0.30641
 H1004 H 1.05576 0.61564 0.29719
 O1005 O 0.86902 0.47423 0.40380
 O1006 O 0.83803 0.47423 0.37310
 C1007 C 0.84743 0.46524 0.39462
 C1008 C 0.83352 0.44379 0.40893
 C1009 C 0.80848 0.43498 0.40060
 H1010 H 0.79913 0.44417 0.38366
 O1011 O 1.13096 0.52538 0.40355
 O1012 O 1.16165 0.52544 0.37256
 C1013 C 1.15233 0.53453 0.39405
 C1014 C 1.16593 0.55659 0.40767
 C1015 C 1.18956 0.56703 0.39744
 H1016 H 1.19867 0.55782 0.38041
 O1017 O 0.90459 0.36768 0.47374
 O1018 O 0.87348 0.33716 0.47374
 C1019 C 0.89500 0.34635 0.46459
 C1020 C 0.90855 0.33268 0.44250
 C1021 C 0.89831 0.30906 0.43207
 H1022 H 0.88121 0.30002 0.44123
 O1023 O 1.09504 0.63177 0.47366
 O1024 O 1.12589 0.66257 0.47368
 C1025 C 1.10428 0.65338 0.46478
 C1026 C 1.09014 0.66754 0.44336
 C1027 C 1.09838 0.69275 0.43527
 H1028 H 1.11429 0.70238 0.44585
 O1029 O 0.90535 0.52588 0.36769
 O1030 O 0.87449 0.52590 0.33686
 C1031 C 0.89594 0.53503 0.34625
 C1032 C 0.90959 0.55708 0.33257
 C1033 C 0.89947 0.56727 0.30880
 H1034 H 0.88205 0.55838 0.30009
 O1035 O 1.09453 0.47379 0.36769
 O1036 O 1.12523 0.47369 0.33670
 C1037 C 1.10369 0.46481 0.34611
 C1038 C 1.08945 0.44346 0.33210
 C1039 C 1.09737 0.43564 0.30672
 H1040 H 1.11333 0.44611 0.29700
 O1041 O 1.02566 0.36732 0.40382
 O1042 O 1.02585 0.33657 0.37297
 C1043 C 1.03489 0.34595 0.39446
 C1044 C 1.05692 0.33245 0.40834
 C1045 C 1.06761 0.30881 0.39842
 H1046 H 1.05882 0.29964 0.38118
 O1047 O 0.97475 0.63215 0.40357
 O1048 O 0.97462 0.66322 0.37294
 C1049 C 0.96567 0.65371 0.39444
 C1050 C 0.94416 0.66745 0.40884
 C1051 C 0.93520 0.69246 0.40063
 H1052 H 0.94426 0.70183 0.38365
 O1053 O 0.86931 0.59523 0.47378
 O1054 O 0.83847 0.62605 0.47382
 C1055 C 0.84786 0.60464 0.46465
 C1056 C 0.83419 0.59097 0.44261
 C1057 C 0.81048 0.60109 0.43223
 H1058 H 0.80180 0.61860 0.44095
 O1059 O 1.13128 0.40436 0.47355
 O1060 O 1.16242 0.37383 0.47357
 C1061 C 1.15293 0.39530 0.46458
 C1062 C 1.16687 0.40956 0.44308
 C1063 C 1.19221 0.40163 0.43499
 H1064 H 1.20204 0.38583 0.44558
 O1065 O 0.97463 0.59610 0.36739
 O1066 O 0.97438 0.62693 0.33654
 C1067 C 0.96539 0.60544 0.34597
 C1068 C 0.94344 0.59157 0.33242
 C1069 C 0.93302 0.60145 0.30860
 H1070 H 0.94205 0.61853 0.29939
 O1071 O 1.02558 0.40346 0.36754
 O1072 O 1.02559 0.37292 0.33644
 C1073 C 1.03449 0.39442 0.34586
 C1074 C 1.05573 0.40893 0.33186
 C1075 C 1.06404 0.40123 0.30645
 H1076 H 1.05466 0.38457 0.29686
 O1077 O 1.13125 0.47375 0.40343
 O1078 O 1.16213 0.47374 0.37263
 C1079 C 1.15280 0.46473 0.39416
 C1080 C 1.16678 0.44326 0.40844
 C1081 C 1.19193 0.43466 0.40022
 H1082 H 1.20108 0.44388 0.38321
 O1083 O 0.86919 0.52579 0.40392
 O1084 O 0.83826 0.52584 0.37315
 C1085 C 0.84771 0.53491 0.39460
 C1086 C 0.83409 0.55688 0.40837
 C1087 C 0.81032 0.56725 0.39835
 H1088 H 0.80116 0.55809 0.38132
 O1089 O 0.90565 0.63133 0.47396
 O1090 O 0.87490 0.66225 0.47407
 C1091 C 0.89642 0.65293 0.46504
 C1092 C 0.91050 0.66702 0.44353
 C1093 C 0.90208 0.69213 0.43531
 H1094 H 0.88600 0.70168 0.44573
 O1095 O 1.09507 0.36810 0.47372
 O1096 O 1.12610 0.33746 0.47374
 C1097 C 1.10453 0.34668 0.46469
 C1098 C 1.09082 0.33282 0.44284
 C1099 C 1.10109 0.30914 0.43274
 H1100 H 1.11859 0.30055 0.44163
 O1101 O 1.09476 0.52530 0.36730
 O1102 O 1.12534 0.52513 0.33619
 C1103 C 1.10387 0.53417 0.34561
 C1104 C 1.08969 0.55566 0.33159
 C1105 C 1.09752 0.56351 0.30614
 H1106 H 1.11315 0.55272 0.29626
 O1107 O 0.90546 0.47422 0.36770
 O1108 O 0.87464 0.47426 0.33684
 C1109 C 0.89617 0.46525 0.34617
 C1110 C 0.91022 0.44367 0.33220
 C1111 C 0.90179 0.43533 0.30713
 H1112 H 0.88559 0.44555 0.29752
 O1113 O 1.02625 0.63235 0.40331
 O1114 O 1.02632 0.66331 0.37257
 C1115 C 1.03527 0.65390 0.39411
 C1116 C 1.05668 0.66777 0.40851
 C1117 C 1.06550 0.69285 0.40036
 H1118 H 1.05645 0.70214 0.38331
 O1119 O 0.97399 0.36751 0.40391
 O1120 O 0.97392 0.33673 0.37308
 C1121 C 0.96481 0.34614 0.39453
 C1122 C 0.94273 0.33262 0.40828
 C1123 C 0.93218 0.30908 0.39814
 H1124 H 0.94083 0.30043 0.38056
 O1125 O 1.13098 0.59521 0.47314
 O1126 O 1.16191 0.62591 0.47290
 C1127 C 1.15237 0.60453 0.46384
 C1128 C 1.16585 0.59082 0.44173
 C1129 C 1.18935 0.60106 0.43110
 H1130 H 1.19789 0.61872 0.43964
 O1131 O 0.86923 0.40472 0.47388
 O1132 O 0.83799 0.37433 0.47403
 C1133 C 0.84755 0.39573 0.46499
 C1134 C 0.83365 0.40996 0.44347
 C1135 C 0.80861 0.40161 0.43504
 H1136 H 0.79898 0.38544 0.44526
 Cu1137 Cu 0.99988 0.38849 0.38883
 Cu1138 Cu 0.99986 0.35163 0.35173
 Cu1139 Cu 1.00049 0.61109 0.38846
 Cu1140 Cu 1.00039 0.64813 0.35145
 Cu1141 Cu 0.89034 0.49998 0.38886
 Cu1142 Cu 0.85328 0.50002 0.35188
 Cu1143 Cu 1.10984 0.49954 0.38863
 Cu1144 Cu 1.14670 0.49947 0.35143
 C1145 C 0.93145 0.43056 0.34436
 H1146 H 0.93785 0.43672 0.36385
 C1147 C 0.91406 0.41394 0.29429
 C1148 C 1.06887 0.56912 0.34402
 H1149 H 1.06280 0.56321 0.36372
 C1150 C 1.08532 0.58500 0.29328
 C1151 C 0.84582 0.43125 0.43049
 H1152 H 0.86529 0.43762 0.43675
 C1153 C 0.79581 0.41390 0.41361
 C1154 C 1.15438 0.56846 0.42998
 H1155 H 1.13596 0.56076 0.43775
 C1156 C 1.20132 0.58945 0.40886
 C1157 C 0.93091 0.34414 0.43062
 H1158 H 0.93865 0.36255 0.43828
 C1159 C 0.90990 0.29717 0.40976
 C1160 C 1.06905 0.65539 0.43010
 H1161 H 1.06273 0.63585 0.43617
 C1162 C 1.08630 0.70564 0.41373
 C1163 C 0.93172 0.56923 0.34411
 H1164 H 0.93936 0.56176 0.36270
 C1165 C 0.91091 0.58955 0.29672
 C1166 C 1.06843 0.43019 0.34440
 H1167 H 1.06241 0.43600 0.36412
 C1168 C 1.08485 0.41456 0.29367
 C1169 C 1.06855 0.34417 0.43071
 H1170 H 1.06079 0.36266 0.43817
 C1171 C 1.08981 0.29710 0.41041
 C1172 C 0.93177 0.65499 0.43039
 H1173 H 0.93823 0.63552 0.43653
 C1174 C 0.91420 0.70508 0.41385
 C1175 C 0.84571 0.56872 0.43065
 H1176 H 0.86425 0.56109 0.43822
 C1177 C 0.79845 0.58950 0.40999
 C1178 C 1.15450 0.43063 0.42993
 H1179 H 1.13491 0.43678 0.43602
 C1180 C 1.20501 0.41395 0.41351
 O1181 O 1.02647 0.40386 0.63155
 O1182 O 1.02653 0.37318 0.66258
 C1183 C 1.03556 0.39462 0.65310
 C1184 C 1.05713 0.40880 0.66689
 C1185 C 1.06570 0.40081 0.69214
 H1186 H 1.05628 0.38414 0.70171
 O1187 O 0.97471 0.59546 0.63164
 O1188 O 0.97459 0.62624 0.66248
 C1189 C 0.96553 0.60482 0.65306
 C1190 C 0.94355 0.59104 0.66663
 C1191 C 0.93302 0.60103 0.69033
 H1192 H 0.94197 0.61818 0.69945
 O1193 O 0.86941 0.52523 0.59531
 O1194 O 0.83848 0.52523 0.62606
 C1195 C 0.84791 0.53432 0.60459
 C1196 C 0.83426 0.55630 0.59081
 C1197 C 0.81071 0.56677 0.60109
 H1198 H 0.80216 0.55811 0.61873
 O1199 O 1.13213 0.47402 0.59478
 O1200 O 1.16321 0.47401 0.62539
 C1201 C 1.15378 0.46508 0.60389
 C1202 C 1.16766 0.44370 0.58952
 C1203 C 1.19287 0.43505 0.59752
 H1204 H 1.20243 0.44437 0.61425
 O1205 O 1.09556 0.36788 0.52542
 O1206 O 1.12657 0.33723 0.52550
 C1207 C 1.10506 0.34650 0.53460
 C1208 C 1.09131 0.33283 0.55661
 C1209 C 1.10133 0.30910 0.56712
 H1210 H 1.11858 0.30003 0.55824
 O1211 O 0.90557 0.63123 0.52560
 O1212 O 0.87483 0.66216 0.52560
 C1213 C 0.89636 0.65279 0.53459
 C1214 C 0.91054 0.66680 0.55608
 C1215 C 0.90216 0.69187 0.56446
 H1216 H 0.88590 0.70143 0.55430
 O1217 O 0.90538 0.47385 0.63210
 O1218 O 0.87466 0.47392 0.66307
 C1219 C 0.89616 0.46491 0.65371
 C1220 C 0.91043 0.44348 0.66770
 C1221 C 0.90218 0.43473 0.69281
 H1222 H 0.88508 0.44383 0.70187
 O1223 O 1.09546 0.52508 0.63107
 O1224 O 1.12620 0.52496 0.66204
 C1225 C 1.10459 0.53386 0.65275
 C1226 C 1.09021 0.55500 0.66699
 C1227 C 1.09807 0.56263 0.69245
 H1228 H 1.11402 0.55207 0.70210
 O1229 O 0.97430 0.36832 0.59559
 O1230 O 0.97425 0.33751 0.62648
 C1231 C 0.96510 0.34694 0.60503
 C1232 C 0.94307 0.33335 0.59128
 C1233 C 0.93260 0.30975 0.60145
 H1234 H 0.94117 0.30117 0.61912
 O1235 O 1.02659 0.63124 0.59552
 O1236 O 1.02688 0.66192 0.62647
 C1237 C 1.03586 0.65256 0.60494
 C1238 C 1.05783 0.66614 0.59114
 C1239 C 1.06843 0.68964 0.60134
 H1240 H 1.05991 0.69824 0.61901
 O1241 O 0.86881 0.40421 0.52548
 O1242 O 0.83771 0.37367 0.52561
 C1243 C 0.84727 0.39505 0.53464
 C1244 C 0.83381 0.40884 0.55672
 C1245 C 0.81006 0.39891 0.56724
 H1246 H 0.80065 0.38226 0.55770
 O1247 O 1.13151 0.59507 0.52490
 O1248 O 1.16256 0.62564 0.52465
 C1249 C 1.15308 0.60429 0.53388
 C1250 C 1.16674 0.59058 0.55591
 C1251 C 1.19032 0.60083 0.56636
 H1252 H 1.19893 0.61837 0.55762
 O1253 O 1.02620 0.59515 0.63184
 O1254 O 1.02624 0.62561 0.66300
 C1255 C 1.03513 0.60411 0.65354
 C1256 C 1.05639 0.58950 0.66746
 C1257 C 1.06475 0.59709 0.69287
 H1258 H 1.05539 0.61377 0.70246
 O1259 O 0.97500 0.40458 0.63176
 O1260 O 0.97509 0.37391 0.66279
 C1261 C 0.96623 0.39550 0.65349
 C1262 C 0.94503 0.40985 0.66767
 C1263 C 0.93707 0.40188 0.69303
 H1264 H 0.94776 0.38611 0.70280
 O1265 O 1.13173 0.52554 0.59486
 O1266 O 1.16260 0.52564 0.62568
 C1267 C 1.15316 0.53471 0.60421
 C1268 C 1.16675 0.55667 0.59038
 C1269 C 1.19043 0.56713 0.60045
 H1270 H 1.19953 0.55805 0.61759
 O1271 O 0.86963 0.47360 0.59545
 O1272 O 0.83882 0.47359 0.62632
 C1273 C 0.84823 0.46447 0.60489
 C1274 C 0.83453 0.44252 0.59126
 C1275 C 0.81117 0.43193 0.60183
 H1276 H 0.80311 0.44026 0.61982
 O1277 O 1.09559 0.63146 0.52529
 O1278 O 1.12662 0.66208 0.52526
 C1279 C 1.10519 0.65276 0.53448
 C1280 C 1.09176 0.66627 0.55671
 C1281 C 1.10212 0.68977 0.56725
 H1282 H 1.11924 0.69883 0.55812
 O1283 O 0.90505 0.36805 0.52548
 O1284 O 0.87403 0.33744 0.52557
 C1285 C 0.89554 0.34671 0.53467
 C1286 C 0.90914 0.33313 0.55682
 C1287 C 0.89902 0.30944 0.56724
 H1288 H 0.88207 0.30027 0.55795
 O1289 O 1.09586 0.47360 0.63091
 O1290 O 1.12674 0.47352 0.66173
 C1291 C 1.10521 0.46455 0.65242
 C1292 C 1.09112 0.44307 0.66646
 C1293 C 1.09931 0.43495 0.69171
 H1294 H 1.11545 0.44523 0.70131
 O1295 O 0.90559 0.52542 0.63151
 O1296 O 0.87471 0.52545 0.66232
 C1297 C 0.89615 0.53455 0.65292
 C1298 C 0.90974 0.55657 0.66655
 C1299 C 0.89950 0.56684 0.69020
 H1300 H 0.88203 0.55799 0.69886
 O1301 O 0.97503 0.63168 0.59553
 O1302 O 0.97516 0.66266 0.62617
 C1303 C 0.96611 0.65328 0.60469
 C1304 C 0.94460 0.66714 0.59040
 C1305 C 0.93580 0.69218 0.59864
 H1306 H 0.94510 0.70157 0.61547
 O1307 O 1.02595 0.36808 0.59502
 O1308 O 1.02601 0.33727 0.62590
 C1309 C 1.03500 0.34659 0.60435
 C1310 C 1.05683 0.33284 0.59051
 C1311 C 1.06700 0.30907 0.60059
 H1312 H 1.05812 0.30032 0.61802
 O1313 O 1.13132 0.40456 0.52511
 O1314 O 1.16243 0.37400 0.52502
 C1315 C 1.15301 0.39548 0.53396
 C1316 C 1.16715 0.40974 0.55524
 C1317 C 1.19236 0.40150 0.56334
 H1318 H 1.20191 0.38531 0.55310
 O1319 O 0.86925 0.59504 0.52554
 O1320 O 0.83843 0.62588 0.52565
 C1321 C 0.84780 0.60439 0.53469
 C1322 C 0.83416 0.59058 0.55670
 C1323 C 0.81050 0.60070 0.56724
 H1324 H 0.80140 0.61782 0.55815
 Cu1325 Cu 1.00041 0.38927 0.61037
 Cu1326 Cu 1.00044 0.35230 0.64748
 Cu1327 Cu 1.00063 0.61032 0.61055
 Cu1328 Cu 1.00075 0.64722 0.64763
 Cu1329 Cu 0.89006 0.38918 0.49963
 Cu1330 Cu 0.85271 0.35256 0.49971
 Cu1331 Cu 1.11016 0.38926 0.49946
 Cu1332 Cu 1.14745 0.35251 0.49944
 Cu1333 Cu 0.89049 0.61009 0.49973
 Cu1334 Cu 0.85353 0.64713 0.49979
 Cu1335 Cu 1.11018 0.61030 0.49923
 Cu1336 Cu 1.14739 0.64709 0.49905
 Cu1337 Cu 0.89061 0.49949 0.61051
 Cu1338 Cu 0.85353 0.49955 0.64750
 Cu1339 Cu 1.11073 0.49955 0.60979
 Cu1340 Cu 1.14782 0.49954 0.64679
 C1341 C 1.06986 0.43006 0.65434
 H1342 H 1.06360 0.43611 0.63475
 C1343 C 1.08674 0.41387 0.70480
 C1344 C 0.93192 0.56866 0.65504
 H1345 H 0.93964 0.56111 0.63654
 C1346 C 0.91085 0.58916 0.70217
 C1347 C 0.84572 0.56821 0.56847
 H1348 H 0.86418 0.56056 0.56075
 C1349 C 0.79873 0.58909 0.58962
 C1350 C 1.15509 0.43103 0.56823
 H1351 H 1.13550 0.43730 0.56222
 C1352 C 1.20544 0.41396 0.58447
 C1353 C 1.06892 0.34439 0.56833
 H1354 H 1.06140 0.36294 0.56071
 C1355 C 1.08935 0.29714 0.58921
 C1356 C 0.93195 0.65474 0.56898
 H1357 H 0.93835 0.63528 0.56278
 C1358 C 0.91463 0.70480 0.58571
 C1359 C 0.93189 0.43094 0.65538
 H1360 H 0.93793 0.43713 0.63577
 C1361 C 0.91554 0.41402 0.70586
 C1362 C 1.06914 0.56832 0.65479
 H1363 H 1.06313 0.56265 0.63503
 C1364 C 1.08555 0.58367 0.70562
 C1365 C 0.93132 0.34477 0.56883
 H1366 H 0.93898 0.36323 0.56116
 C1367 C 0.91048 0.29769 0.58970
 C1368 C 1.06948 0.65475 0.56866
 H1369 H 1.06168 0.63639 0.56093
 C1370 C 1.09069 0.70151 0.58969
 C1371 C 0.84567 0.43089 0.56865
 H1372 H 0.86409 0.43852 0.56082
 C1373 C 0.79873 0.41003 0.59011
 C1374 C 1.15522 0.56837 0.56794
 H1375 H 1.13674 0.56067 0.56032
 C1376 C 1.20226 0.58940 0.58876
 O1377 O 0.59695 1.02666 0.63034
 O1378 O 0.62794 1.02690 0.66105
 C1379 C 0.60651 1.03604 0.65158
 C1380 C 0.59297 1.05835 0.66485
 C1381 C 0.60310 1.06895 0.68845
 H1382 H 0.62010 1.05981 0.69772
 O1383 O 0.40656 0.97513 0.63247
 O1384 O 0.37591 0.97572 0.66351
 C1385 C 0.39737 0.96653 0.65423
 C1386 C 0.41137 0.94516 0.66855
 C1387 C 0.40292 0.93726 0.69376
 H1388 H 0.38691 0.94787 0.70321
 O1389 O 0.52683 1.13305 0.59339
 O1390 O 0.52696 1.16417 0.62389
 C1391 C 0.53585 1.15467 0.60240
 C1392 C 0.55735 1.16841 0.58801
 C1393 C 0.56612 1.19352 0.59604
 H1394 H 0.55674 1.20312 0.61271
 O1395 O 0.47468 0.86937 0.59688
 O1396 O 0.47472 0.83864 0.62784
 C1397 C 0.46556 0.84800 0.60633
 C1398 C 0.44360 0.83435 0.59257
 C1399 C 0.43342 0.81058 0.60261
 H1400 H 0.44221 0.80183 0.62010
 O1401 O 0.63330 1.09570 0.52466
 O1402 O 0.66432 1.12631 0.52451
 C1403 C 0.65487 1.10490 0.53366
 C1404 C 0.66877 1.09059 0.55517
 C1405 C 0.69389 1.09871 0.56394
 H1406 H 0.70298 1.11585 0.55494
 O1407 O 0.36897 0.90522 0.52632
 O1408 O 0.33797 0.87461 0.52682
 C1409 C 0.34752 0.89608 0.53564
 C1410 C 0.33419 0.90994 0.55776
 C1411 C 0.31063 0.89987 0.56847
 H1412 H 0.30123 0.88313 0.55907
 O1413 O 0.47585 1.09663 0.63024
 O1414 O 0.47619 1.12737 0.66112
 C1415 C 0.46715 1.10583 0.65193
 C1416 C 0.44590 1.09161 0.66626
 C1417 C 0.43782 1.09992 0.69147
 H1418 H 0.44800 1.11620 0.70090
 O1419 O 0.52662 0.90525 0.63266
 O1420 O 0.52694 0.87473 0.66384
 C1421 C 0.53581 0.89620 0.65422
 C1422 C 0.55730 0.91069 0.66786
 C1423 C 0.56591 0.90304 0.69320
 H1424 H 0.55663 0.88637 0.70289
 O1425 O 0.63256 0.97425 0.59501
 O1426 O 0.66358 0.97410 0.62569
 C1427 C 0.65404 0.96508 0.60428
 C1428 C 0.66765 0.94340 0.59011
 C1429 C 0.69285 0.93466 0.59802
 H1430 H 0.70256 0.94403 0.61464
 O1431 O 0.37031 1.02632 0.59549
 O1432 O 0.33958 1.02669 0.62644
 C1433 C 0.34886 1.03549 0.60480
 C1434 C 0.33500 1.05721 0.59083
 C1435 C 0.31132 1.06748 0.60103
 H1436 H 0.30280 1.05883 0.61869
 O1437 O 0.40490 1.13219 0.52492
 O1438 O 0.37396 1.16291 0.52490
 C1439 C 0.39544 1.15359 0.53404
 C1440 C 0.40920 1.16728 0.55601
 C1441 C 0.39894 1.19079 0.56663
 H1442 H 0.38105 1.19910 0.55828
 O1443 O 0.59445 0.86879 0.52607
 O1444 O 0.62524 0.83790 0.52598
 C1445 C 0.60377 0.84728 0.53507
 C1446 C 0.58988 0.83331 0.55673
 C1447 C 0.59836 0.80823 0.56487
 H1448 H 0.61436 0.79866 0.55434
 O1449 O 0.40645 1.02668 0.63187
 O1450 O 0.37583 1.02715 0.66293
 C1451 C 0.39733 1.03595 0.65338
 C1452 C 0.41169 1.05751 0.66702
 C1453 C 0.40378 1.06620 0.69223
 H1454 H 0.38714 1.05683 0.70190
 O1455 O 0.59612 0.97509 0.63101
 O1456 O 0.62695 0.97527 0.66188
 C1457 C 0.60532 0.96636 0.65271
 C1458 C 0.59106 0.94521 0.66709
 C1459 C 0.59917 0.93752 0.69249
 H1460 H 0.61518 0.94807 0.70201
 O1461 O 0.52619 0.86842 0.59717
 O1462 O 0.52651 0.83757 0.62800
 C1463 C 0.53526 0.84686 0.60634
 C1464 C 0.55656 0.83296 0.59175
 C1465 C 0.56549 0.80785 0.59979
 H1466 H 0.55652 0.79836 0.61677
 O1467 O 0.47521 1.13273 0.59380
 O1468 O 0.47532 1.16358 0.62456
 C1469 C 0.46609 1.15415 0.60319
 C1470 C 0.44391 1.16768 0.58962
 C1471 C 0.43369 1.19148 0.59962
 H1472 H 0.44340 1.20079 0.61623
 O1473 O 0.36928 1.09560 0.52506
 O1474 O 0.33824 1.12623 0.52504
 C1475 C 0.34782 1.10488 0.53423
 C1476 C 0.33444 1.09120 0.55643
 C1477 C 0.31078 1.10125 0.56702
 H1478 H 0.30152 1.11830 0.55796
 O1479 O 0.63102 0.90459 0.52574
 O1480 O 0.66189 0.87378 0.52567
 C1481 C 0.65263 0.89531 0.53461
 C1482 C 0.66685 0.90942 0.55589
 C1483 C 0.69206 0.90108 0.56388
 H1484 H 0.70152 0.88488 0.55357
 O1485 O 0.47513 0.90480 0.63371
 O1486 O 0.47522 0.87433 0.66493
 C1487 C 0.46622 0.89579 0.65542
 C1488 C 0.44482 0.91032 0.66924
 C1489 C 0.43585 0.90241 0.69441
 H1490 H 0.44485 0.88549 0.70396
 O1491 O 0.52746 1.09673 0.62946
 O1492 O 0.52779 1.12773 0.66008
 C1493 C 0.53681 1.10624 0.65074
 C1494 C 0.55890 1.09261 0.66436
 C1495 C 0.56935 1.10294 0.68788
 H1496 H 0.56070 1.12060 0.69634
 O1497 O 0.37023 0.97468 0.59631
 O1498 O 0.33952 0.97501 0.62728
 C1499 C 0.34882 0.96567 0.60588
 C1500 C 0.33503 0.94364 0.59235
 C1501 C 0.31175 0.93293 0.60306
 H1502 H 0.30368 0.94123 0.62107
 O1503 O 0.63287 1.02570 0.59390
 O1504 O 0.66400 1.02555 0.62448
 C1505 C 0.65463 1.03443 0.60290
 C1506 C 0.66877 1.05568 0.58854
 C1507 C 0.69415 1.06351 0.59648
 H1508 H 0.70394 1.05263 0.61211
 O1509 O 0.40499 0.86885 0.52677
 O1510 O 0.37410 0.83812 0.52725
 C1511 C 0.39560 0.84756 0.53619
 C1512 C 0.40937 0.83414 0.55835
 C1513 C 0.39944 0.81039 0.56879
 H1514 H 0.38239 0.80117 0.55972
 O1515 O 0.59684 1.13169 0.52415
 O1516 O 0.62762 1.16254 0.52387
 C1517 C 0.60602 1.15334 0.53285
 C1518 C 0.59168 1.16762 0.55399
 C1519 C 0.60002 1.19274 0.56213
 H1520 H 0.61641 1.20214 0.55203
 Cu1521 Cu 0.61152 1.00039 0.60950
 Cu1522 Cu 0.64870 1.00044 0.64641
 Cu1523 Cu 0.39146 1.00067 0.61093
 Cu1524 Cu 0.35458 1.00119 0.64810
 Cu1525 Cu 0.50130 1.11171 0.60863
 Cu1526 Cu 0.50157 1.14881 0.64550
 Cu1527 Cu 0.50067 0.89002 0.61204
 Cu1528 Cu 0.50088 0.85320 0.64925
 C1529 C 0.57072 1.07018 0.65309
 H1530 H 0.56304 1.06237 0.63469
 C1531 C 0.59153 1.09139 0.70002
 C1532 C 0.43252 0.93181 0.65662
 H1533 H 0.43895 0.93774 0.63705
 C1534 C 0.41490 0.91587 0.70692
 C1535 C 0.57013 1.15576 0.56684
 H1536 H 0.56378 1.13623 0.56083
 C1537 C 0.58743 1.20590 0.58314
 C1538 C 0.43159 0.84585 0.57026
 H1539 H 0.43907 0.86440 0.56263
 C1540 C 0.41123 0.79856 0.59101
 C1541 C 0.65644 1.06904 0.56760
 H1542 H 0.63682 1.06308 0.56141
 C1543 C 0.70696 1.08514 0.58453
 C1544 C 0.34605 0.93205 0.56964
 H1545 H 0.36438 0.93973 0.56166
 C1546 C 0.29943 0.91090 0.59141
 C1547 C 0.43291 1.07021 0.65433
 H1548 H 0.43886 1.06387 0.63476
 C1549 C 0.41681 1.08736 0.70469
 C1550 C 0.56991 0.93190 0.65508
 H1551 H 0.56370 0.93763 0.63538
 C1552 C 0.58678 0.91647 0.70578
 C1553 C 0.65493 0.93075 0.56893
 H1554 H 0.63535 0.93711 0.56296
 C1555 C 0.70530 0.91354 0.58490
 C1556 C 0.34627 1.06903 0.56835
 H1557 H 0.36477 1.06148 0.56065
 C1558 C 0.29917 1.08961 0.58943
 C1559 C 0.43175 1.15595 0.56760
 H1560 H 0.43940 1.13748 0.55995
 C1561 C 0.41095 1.20308 0.58853
 C1562 C 0.56879 0.84539 0.57008
 H1563 H 0.56235 0.86489 0.56401
 C1564 C 0.58640 0.79528 0.58638
 O1565 O 0.59512 0.97396 0.36796
 O1566 O 0.62594 0.97348 0.33709
 C1567 C 0.60444 0.96461 0.34659
 C1568 C 0.59069 0.94250 0.33324
 C1569 C 0.60079 0.93180 0.30968
 H1570 H 0.61762 0.94113 0.30031
 O1571 O 0.40484 1.02596 0.36834
 O1572 O 0.37380 1.02600 0.33770
 C1573 C 0.39521 1.03523 0.34704
 C1574 C 0.40861 1.05745 0.33342
 C1575 C 0.39792 1.06822 0.31014
 H1576 H 0.38002 1.05980 0.30199
 O1577 O 0.47483 1.13225 0.40327
 O1578 O 0.47485 1.16321 0.37253
 C1579 C 0.46583 1.15383 0.39406
 C1580 C 0.44421 1.16763 0.40829
 C1581 C 0.43514 1.19257 0.39991
 H1582 H 0.44435 1.20204 0.38304
 O1583 O 0.52520 0.86744 0.40493
 O1584 O 0.52511 0.83639 0.37434
 C1585 C 0.53410 0.84580 0.39581
 C1586 C 0.55562 0.83195 0.41005
 C1587 C 0.56466 0.80705 0.40165
 H1588 H 0.55542 0.79760 0.38481
 O1589 O 0.63056 0.90476 0.47417
 O1590 O 0.66150 0.87402 0.47425
 C1591 C 0.65216 0.89554 0.46525
 C1592 C 0.66629 0.90970 0.44388
 C1593 C 0.69163 0.90162 0.43602
 H1594 H 0.70125 0.88564 0.44655
 O1595 O 0.36869 1.09585 0.47344
 O1596 O 0.33761 1.12643 0.47330
 C1597 C 0.34706 1.10494 0.46441
 C1598 C 0.33313 1.09048 0.44307
 C1599 C 0.30816 1.09881 0.43400
 H1600 H 0.29904 1.11604 0.44279
 O1601 O 0.52599 1.09566 0.36692
 O1602 O 0.52600 1.12617 0.33574
 C1603 C 0.53495 1.10469 0.34524
 C1604 C 0.55638 1.09021 0.33140
 C1605 C 0.56516 1.09818 0.30621
 H1606 H 0.55598 1.11500 0.29667
 O1607 O 0.47418 0.90424 0.36856
 O1608 O 0.47417 0.87343 0.33774
 C1609 C 0.46521 0.89497 0.34701
 C1610 C 0.44348 0.90888 0.33314
 C1611 C 0.43300 0.89858 0.30962
 H1612 H 0.44156 0.88089 0.30113
 O1613 O 0.63169 1.02550 0.40378
 O1614 O 0.66251 1.02513 0.37291
 C1615 C 0.65333 1.03421 0.39446
 C1616 C 0.66768 1.05545 0.40855
 C1617 C 0.69299 1.06322 0.40031
 H1618 H 0.70245 1.05273 0.38423
 O1619 O 0.36932 0.97365 0.40444
 O1620 O 0.33838 0.97360 0.37368
 C1621 C 0.34790 0.96445 0.39508
 C1622 C 0.33432 0.94236 0.40873
 C1623 C 0.31102 0.93165 0.39816
 H1624 H 0.30265 0.94015 0.38035
 O1625 O 0.59702 1.13129 0.47268
 O1626 O 0.62794 1.16201 0.47224
 C1627 C 0.60638 1.15264 0.46335
 C1628 C 0.59240 1.16624 0.44145
 C1629 C 0.60211 1.19016 0.43122
 H1630 H 0.61914 1.19937 0.44036
 O1631 O 0.40467 0.86802 0.47509
 O1632 O 0.37375 0.83731 0.47547
 C1633 C 0.39519 0.84656 0.46618
 C1634 C 0.40867 0.83294 0.44401
 C1635 C 0.39824 0.80952 0.43328
 H1636 H 0.38125 0.80041 0.44256
 O1637 O 0.40517 0.97424 0.36786
 O1638 O 0.37425 0.97426 0.33709
 C1639 C 0.39575 0.96518 0.34641
 C1640 C 0.40943 0.94317 0.33279
 C1641 C 0.39914 0.93249 0.30928
 H1642 H 0.38192 0.94143 0.30020
 O1643 O 0.59512 1.02552 0.36780
 O1644 O 0.62577 1.02510 0.33676
 C1645 C 0.60430 1.03425 0.34611
 C1646 C 0.59017 1.05566 0.33195
 C1647 C 0.59846 1.06369 0.30674
 H1648 H 0.61456 1.05326 0.29720
 O1649 O 0.47363 0.86835 0.40511
 O1650 O 0.47353 0.83750 0.37433
 C1651 C 0.46443 0.84698 0.39574
 C1652 C 0.44240 0.83341 0.40943
 C1653 C 0.43153 0.81024 0.39882
 H1654 H 0.43982 0.80211 0.38084
 O1655 O 0.52649 1.13142 0.40348
 O1656 O 0.52663 1.16214 0.37250
 C1657 C 0.53574 1.15273 0.39399
 C1658 C 0.55783 1.16628 0.40763
 C1659 C 0.56791 1.19012 0.39765
 H1660 H 0.55895 1.19893 0.38028
 O1661 O 0.36872 0.90437 0.47460
 O1662 O 0.33772 0.87375 0.47500
 C1663 C 0.34726 0.89498 0.46555
 C1664 C 0.33389 0.90839 0.44314
 C1665 C 0.31053 0.89795 0.43224
 H1666 H 0.30142 0.88080 0.44126
 O1667 O 0.63325 1.09521 0.47306
 O1668 O 0.66438 1.12571 0.47277
 C1669 C 0.65484 1.10424 0.46393
 C1670 C 0.66853 1.08979 0.44245
 C1671 C 0.69377 1.09754 0.43372
 H1672 H 0.70342 1.11422 0.44299
 O1673 O 0.52575 0.90401 0.36912
 O1674 O 0.52576 0.87307 0.33844
 C1675 C 0.53490 0.89450 0.34777
 C1676 C 0.55690 0.90806 0.33404
 C1677 C 0.56756 0.89739 0.31075
 H1678 H 0.55920 0.87944 0.30269
 O1679 O 0.47442 1.09565 0.36758
 O1680 O 0.47427 1.12642 0.33666
 C1681 C 0.46517 1.10502 0.34618
 C1682 C 0.44295 1.09139 0.33281
 C1683 C 0.43226 1.10156 0.30924
 H1684 H 0.44161 1.11840 0.29993
 O1685 O 0.36888 1.02521 0.40482
 O1686 O 0.33776 1.02506 0.37425
 C1687 C 0.34717 1.03401 0.39575
 C1688 C 0.33314 1.05545 0.40988
 C1689 C 0.30801 1.06365 0.40150
 H1690 H 0.29832 1.05303 0.38566
 O1691 O 0.63142 0.97403 0.40402
 O1692 O 0.66238 0.97368 0.37329
 C1693 C 0.65295 0.96488 0.39487
 C1694 C 0.66677 0.94347 0.40933
 C1695 C 0.69205 0.93490 0.40150
 H1696 H 0.70160 0.94420 0.38474
 O1697 O 0.59462 0.86821 0.47444
 O1698 O 0.62547 0.83738 0.47447
 C1699 C 0.60390 0.84664 0.46554
 C1700 C 0.58977 0.83252 0.44418
 C1701 C 0.59846 0.80763 0.43565
 H1702 H 0.61495 0.79825 0.44562
 O1703 O 0.40539 1.13164 0.47325
 O1704 O 0.37450 1.16242 0.47318
 C1705 C 0.39607 1.15312 0.46420
 C1706 C 0.41015 1.16712 0.44263
 C1707 C 0.40150 1.19203 0.43410
 H1708 H 0.38515 1.20147 0.44420
 Cu1709 Cu 0.61025 0.99980 0.38898
 Cu1710 Cu 0.64721 0.99938 0.35186
 Cu1711 Cu 0.39020 0.99977 0.38940
 Cu1712 Cu 0.35296 0.99976 0.35258
 Cu1713 Cu 0.61206 1.11037 0.49869
 Cu1714 Cu 0.64917 1.14725 0.49835
 Cu1715 Cu 0.60955 0.88968 0.50008
 Cu1716 Cu 0.64661 0.85265 0.50008
 Cu1717 Cu 0.39015 1.11075 0.49912
 Cu1718 Cu 0.35297 1.14759 0.49902
 Cu1719 Cu 0.38993 0.88968 0.50064
 Cu1720 Cu 0.35277 0.85288 0.50123
 Cu1721 Cu 0.50043 1.11069 0.38840
 Cu1722 Cu 0.50046 1.14758 0.35126
 Cu1723 Cu 0.49972 0.88910 0.39003
 Cu1724 Cu 0.49963 0.85201 0.35310
 C1725 C 0.56851 0.93069 0.34507
 H1726 H 0.56079 0.93863 0.36341
 C1727 C 0.58963 0.90896 0.29845
 C1728 C 0.43119 1.06913 0.34455
 H1729 H 0.43918 1.06134 0.36285
 C1730 C 0.40949 1.09035 0.29786
 C1731 C 0.43168 1.15521 0.42980
 H1732 H 0.43825 1.13584 0.43614
 C1733 C 0.41380 1.20499 0.41277
 C1734 C 0.56816 0.84437 0.43147
 H1735 H 0.56158 0.86374 0.43778
 C1736 C 0.58608 0.79468 0.41440
 C1737 C 0.65417 0.93084 0.43064
 H1738 H 0.63451 0.93703 0.43650
 C1739 C 0.70475 0.91403 0.41484
 C1740 C 0.34536 1.06871 0.43092
 H1741 H 0.36484 1.06254 0.43737
 C1742 C 0.29531 1.08542 0.41324
 C1743 C 0.56892 1.06883 0.34398
 H1744 H 0.56259 1.06284 0.36357
 C1745 C 0.58618 1.08493 0.29364
 C1746 C 0.43176 0.93136 0.34440
 H1747 H 0.43948 0.93913 0.36281
 C1748 C 0.41069 0.91006 0.29765
 C1749 C 0.65576 1.06862 0.42983
 H1750 H 0.63613 1.06282 0.43614
 C1751 C 0.70629 1.08424 0.41271
 C1752 C 0.34548 0.93073 0.43136
 H1753 H 0.36371 0.93863 0.43935
 C1754 C 0.29903 0.90935 0.40961
 C1755 C 0.57009 1.15459 0.42968
 H1756 H 0.56272 1.13595 0.43720
 C1757 C 0.59014 1.20215 0.40917
 C1758 C 0.43095 0.84451 0.43213
 H1759 H 0.43890 0.86273 0.44005
 C1760 C 0.40937 0.79813 0.41045
 O1761 O 0.47274 0.40415 0.86787
 O1762 O 0.47273 0.37337 0.83703
 C1763 C 0.46367 0.39484 0.84637
 C1764 C 0.44205 0.40897 0.83250
 C1765 C 0.43316 0.40060 0.80751
 H1766 H 0.44225 0.38349 0.79850
 O1767 O 0.52518 0.59500 0.86876
 O1768 O 0.52500 0.62566 0.83771
 C1769 C 0.53420 0.60431 0.84722
 C1770 C 0.55621 0.59071 0.83353
 C1771 C 0.56670 0.60125 0.81010
 H1772 H 0.55802 0.61890 0.80162
 O1773 O 0.36714 0.47413 0.90435
 O1774 O 0.33610 0.47415 0.87370
 C1775 C 0.34552 0.46519 0.89523
 C1776 C 0.33167 0.44380 0.90968
 C1777 C 0.30655 0.43501 0.90161
 H1778 H 0.29703 0.44420 0.88476
 O1779 O 0.63082 0.52481 0.90414
 O1780 O 0.66179 0.52470 0.87342
 C1781 C 0.65244 0.53370 0.89494
 C1782 C 0.66647 0.55516 0.90906
 C1783 C 0.69164 0.56339 0.90079
 H1784 H 0.70129 0.55316 0.88464
 O1785 O 0.40353 0.36839 0.97452
 O1786 O 0.37254 0.33775 0.97457
 C1787 C 0.39404 0.34699 0.96545
 C1788 C 0.40764 0.33330 0.94341
 C1789 C 0.39755 0.30955 0.93315
 H1790 H 0.38076 0.30035 0.94269
 O1791 O 0.59542 0.63196 0.97304
 O1792 O 0.62633 0.66267 0.97276
 C1793 C 0.60477 0.65337 0.96382
 C1794 C 0.59078 0.66700 0.94192
 C1795 C 0.60070 0.69064 0.93118
 H1796 H 0.61797 0.69974 0.93994
 O1797 O 0.40354 0.52525 0.86800
 O1798 O 0.37286 0.52543 0.83697
 C1799 C 0.39443 0.53425 0.84637
 C1800 C 0.40893 0.55551 0.83244
 C1801 C 0.40101 0.56408 0.80718
 H1802 H 0.38419 0.55485 0.79769
 O1803 O 0.59445 0.47354 0.86769
 O1804 O 0.62517 0.47353 0.83673
 C1805 C 0.60371 0.46447 0.84617
 C1806 C 0.58983 0.44255 0.83256
 C1807 C 0.59983 0.43196 0.80888
 H1808 H 0.61707 0.44081 0.79976
 O1809 O 0.52441 0.36833 0.90446
 O1810 O 0.52439 0.33732 0.87385
 C1811 C 0.53351 0.34682 0.89526
 C1812 C 0.55547 0.33320 0.90916
 C1813 C 0.56589 0.30950 0.89917
 H1814 H 0.55730 0.30083 0.88158
 O1815 O 0.47318 0.63114 0.90460
 O1816 O 0.47295 0.66162 0.87339
 C1817 C 0.46391 0.65240 0.89495
 C1818 C 0.44181 0.66609 0.90842
 C1819 C 0.43130 0.68947 0.89779
 H1820 H 0.44002 0.69788 0.88011
 O1821 O 0.36742 0.59534 0.97422
 O1822 O 0.33647 0.62607 0.97415
 C1823 C 0.34591 0.60461 0.96512
 C1824 C 0.33231 0.59082 0.94317
 C1825 C 0.30846 0.60074 0.93291
 H1826 H 0.29918 0.61755 0.94232
 O1827 O 0.63109 0.40383 0.97403
 O1828 O 0.66188 0.37297 0.97411
 C1829 C 0.65252 0.39439 0.96489
 C1830 C 0.66609 0.40806 0.94273
 C1831 C 0.68991 0.39816 0.93227
 H1832 H 0.69916 0.38111 0.94134
 O1833 O 0.47359 0.59461 0.86863
 O1834 O 0.47359 0.62507 0.83739
 C1835 C 0.46473 0.60357 0.84688
 C1836 C 0.44348 0.58923 0.83277
 C1837 C 0.43550 0.59731 0.80746
 H1838 H 0.44591 0.61334 0.79780
 O1839 O 0.52437 0.40443 0.86806
 O1840 O 0.52437 0.37351 0.83737
 C1841 C 0.53344 0.39501 0.84662
 C1842 C 0.55536 0.40869 0.83279
 C1843 C 0.56558 0.39848 0.80909
 H1844 H 0.55674 0.38102 0.80045
 O1845 O 0.63051 0.47327 0.90410
 O1846 O 0.66131 0.47319 0.87322
 C1847 C 0.65195 0.46414 0.89473
 C1848 C 0.66572 0.44226 0.90853
 C1849 C 0.68951 0.43216 0.89846
 H1850 H 0.69812 0.44100 0.88094
 O1851 O 0.36761 0.52568 0.90440
 O1852 O 0.33676 0.52587 0.87357
 C1853 C 0.34622 0.53492 0.89502
 C1854 C 0.33260 0.55690 0.90879
 C1855 C 0.30894 0.56731 0.89865
 H1856 H 0.30042 0.55876 0.88097
 O1857 O 0.40328 0.63174 0.97390
 O1858 O 0.37243 0.66256 0.97383
 C1859 C 0.39383 0.65312 0.96466
 C1860 C 0.40745 0.66652 0.94241
 C1861 C 0.39717 0.68993 0.93144
 H1862 H 0.37991 0.69904 0.94024
 O1863 O 0.59420 0.36835 0.97434
 O1864 O 0.62488 0.33737 0.97443
 C1865 C 0.60342 0.34682 0.96535
 C1866 C 0.58956 0.33316 0.94347
 C1867 C 0.59954 0.30935 0.93330
 H1868 H 0.61648 0.30018 0.94266
 O1869 O 0.59467 0.52519 0.86790
 O1870 O 0.62551 0.52531 0.83706
 C1871 C 0.60411 0.53445 0.84653
 C1872 C 0.59050 0.55668 0.83315
 C1873 C 0.60083 0.56763 0.80975
 H1874 H 0.61813 0.55887 0.80066
 O1875 O 0.40344 0.47386 0.86816
 O1876 O 0.37265 0.47396 0.83727
 C1877 C 0.39419 0.46497 0.84657
 C1878 C 0.40835 0.44353 0.83253
 C1879 C 0.40022 0.43541 0.80727
 H1880 H 0.38441 0.44604 0.79752
 O1881 O 0.52495 0.63157 0.90454
 O1882 O 0.52462 0.66220 0.87348
 C1883 C 0.53389 0.65300 0.89496
 C1884 C 0.55595 0.66682 0.90839
 C1885 C 0.56614 0.69043 0.89794
 H1886 H 0.55713 0.69900 0.88048
 O1887 O 0.47271 0.36844 0.90450
 O1888 O 0.47262 0.33754 0.87378
 C1889 C 0.46352 0.34703 0.89519
 C1890 C 0.44149 0.33349 0.90895
 C1891 C 0.43085 0.31004 0.89870
 H1892 H 0.43928 0.30169 0.88089
 O1893 O 0.63111 0.59525 0.97305
 O1894 O 0.66225 0.62574 0.97288
 C1895 C 0.65275 0.60425 0.96403
 C1896 C 0.66664 0.58976 0.94273
 C1897 C 0.69181 0.59781 0.93410
 H1898 H 0.70124 0.61465 0.94331
 O1899 O 0.36781 0.40514 0.97464
 O1900 O 0.33675 0.37457 0.97496
 C1901 C 0.34616 0.39600 0.96583
 C1902 C 0.33209 0.41008 0.94433
 C1903 C 0.30699 0.40168 0.93611
 H1904 H 0.29744 0.38552 0.94643
 Cu1905 Cu 0.49856 0.38943 0.88929
 Cu1906 Cu 0.49855 0.35230 0.85246
 Cu1907 Cu 0.49922 0.61004 0.88980
 Cu1908 Cu 0.49898 0.64674 0.85240
 Cu1909 Cu 0.38849 0.49968 0.88933
 Cu1910 Cu 0.35144 0.49984 0.85231
 Cu1911 Cu 0.60949 0.49920 0.88901
 Cu1912 Cu 0.64651 0.49918 0.85198
 C1913 C 0.42953 0.43047 0.84477
 H1914 H 0.43587 0.43664 0.86428
 C1915 C 0.41237 0.41386 0.79448
 C1916 C 0.56806 0.56826 0.84476
 H1917 H 0.56029 0.56028 0.86307
 C1918 C 0.58913 0.59004 0.79817
 C1919 C 0.34414 0.43132 0.93119
 H1920 H 0.36366 0.43770 0.93728
 C1921 C 0.29400 0.41397 0.91480
 C1922 C 0.65426 0.56829 0.93024
 H1923 H 0.63471 0.56222 0.93654
 C1924 C 0.70452 0.58468 0.91317
 C1925 C 0.42983 0.34490 0.93139
 H1926 H 0.43754 0.36334 0.93903
 C1927 C 0.40881 0.29784 0.91055
 C1928 C 0.56824 0.65542 0.93053
 H1929 H 0.56075 0.63697 0.93839
 C1930 C 0.58862 0.70243 0.90903
 C1931 C 0.43030 0.56810 0.84496
 H1932 H 0.43622 0.56194 0.86462
 C1933 C 0.41425 0.58497 0.79446
 C1934 C 0.56744 0.43090 0.84421
 H1935 H 0.55992 0.43861 0.86272
 C1936 C 0.58794 0.40980 0.79709
 C1937 C 0.56734 0.34478 0.93145
 H1938 H 0.55978 0.36335 0.93894
 C1939 C 0.58807 0.29750 0.91096
 C1940 C 0.42992 0.65492 0.93089
 H1941 H 0.43769 0.63664 0.93891
 C1942 C 0.40889 0.70148 0.90899
 C1943 C 0.34406 0.56870 0.93116
 H1944 H 0.36262 0.56115 0.93875
 C1945 C 0.29675 0.58933 0.91044
 C1946 C 0.65431 0.43026 0.93083
 H1947 H 0.63574 0.43773 0.93845
 C1948 C 0.70173 0.41004 0.91002
 O1949 O 0.52505 0.40504 1.13169
 O1950 O 0.52524 0.37448 1.16282
 C1951 C 0.53433 0.39582 1.15316
 C1952 C 0.55637 0.40970 1.16659
 C1953 C 0.56722 0.39952 1.19006
 H1954 H 0.55905 0.38160 1.19843
 O1955 O 0.47372 0.59554 1.13094
 O1956 O 0.47371 0.62646 1.16166
 C1957 C 0.46475 0.60488 1.15246
 C1958 C 0.44328 0.59083 1.16661
 C1959 C 0.43532 0.59902 1.19189
 H1960 H 0.44604 0.61483 1.20152
 O1961 O 0.36700 0.52600 1.09596
 O1962 O 0.33607 0.52613 1.12671
 C1963 C 0.34542 0.53502 1.10512
 C1964 C 0.33157 0.55649 1.09073
 C1965 C 0.30646 0.56529 1.09886
 H1966 H 0.29694 0.55602 1.11566
 O1967 O 0.63060 0.47452 1.09524
 O1968 O 0.66157 0.47448 1.12596
 C1969 C 0.65201 0.46528 1.10463
 C1970 C 0.66549 0.44307 1.09108
 C1971 C 0.68893 0.43245 1.10151
 H1972 H 0.69753 0.44111 1.11911
 O1973 O 0.59463 0.36812 1.02598
 O1974 O 0.62532 0.33715 1.02614
 C1975 C 0.60390 0.34665 1.03521
 C1976 C 0.59016 0.33323 1.05740
 C1977 C 0.60038 0.30974 1.06821
 H1978 H 0.61731 0.30051 1.05895
 O1979 O 0.40357 0.63179 1.02556
 O1980 O 0.37281 0.66269 1.02561
 C1981 C 0.39436 0.65333 1.03456
 C1982 C 0.40871 0.66725 1.05594
 C1983 C 0.40031 0.69220 1.06485
 H1984 H 0.38307 0.70121 1.05592
 O1985 O 0.40356 0.47496 1.13254
 O1986 O 0.37301 0.47505 1.16367
 C1987 C 0.39448 0.46604 1.15421
 C1988 C 0.40888 0.44461 1.16812
 C1989 C 0.40082 0.43594 1.19331
 H1990 H 0.38386 0.44512 1.20257
 O1991 O 0.59534 0.52684 1.13137
 O1992 O 0.62625 0.52687 1.16214
 C1993 C 0.60476 0.53594 1.15281
 C1994 C 0.59065 0.55752 1.16671
 C1995 C 0.59917 0.56649 1.19163
 H1996 H 0.61643 0.55755 1.20057
 O1997 O 0.47315 0.36850 1.09632
 O1998 O 0.47310 0.33781 1.12732
 C1999 C 0.46408 0.34705 1.10575
 C2000 C 0.44247 0.33317 1.09158
 C2001 C 0.43338 0.30826 1.10004
 H2002 H 0.44241 0.29897 1.11710
 O2003 O 0.52560 0.63146 1.09470
 O2004 O 0.52572 0.66236 1.12542
 C2005 C 0.53480 0.65288 1.10399
 C2006 C 0.55684 0.66641 1.09019
 C2007 C 0.56740 0.69001 1.10028
 H2008 H 0.55842 0.69909 1.11746
 O2009 O 0.36774 0.40486 1.02630
 O2010 O 0.33689 0.37407 1.02654
 C2011 C 0.34631 0.39552 1.03553
 C2012 C 0.33272 0.40922 1.05756
 C2013 C 0.30891 0.39922 1.06779
 H2014 H 0.29965 0.38252 1.05819
 O2015 O 0.63170 0.59569 1.02451
 O2016 O 0.66285 0.62618 1.02443
 C2017 C 0.65338 0.60473 1.03343
 C2018 C 0.66726 0.59030 1.05485
 C2019 C 0.69258 0.59811 1.06336
 H2020 H 0.70224 0.61472 1.05392
 O2021 O 0.52529 0.59559 1.13128
 O2022 O 0.52519 0.62641 1.16209
 C2023 C 0.53419 0.60487 1.15285
 C2024 C 0.55576 0.59085 1.16688
 C2025 C 0.56404 0.59910 1.19204
 H2026 H 0.55339 0.61486 1.20181
 O2027 O 0.47345 0.40543 1.13196
 O2028 O 0.47362 0.37494 1.16316
 C2029 C 0.46468 0.39646 1.15373
 C2030 C 0.44343 0.41084 1.16789
 C2031 C 0.43552 0.40288 1.19328
 H2032 H 0.44614 0.38703 1.20299
 O2033 O 0.63081 0.52611 1.09433
 O2034 O 0.66188 0.52603 1.12497
 C2035 C 0.65252 0.53490 1.10337
 C2036 C 0.66671 0.55605 1.08895
 C2037 C 0.69199 0.56400 1.09707
 H2038 H 0.70154 0.55373 1.11328
 O2039 O 0.36766 0.47443 1.09617
 O2040 O 0.33690 0.47435 1.12709
 C2041 C 0.34634 0.46517 1.10567
 C2042 C 0.33287 0.44303 1.09203
 C2043 C 0.30936 0.43240 1.10227
 H2044 H 0.30091 0.44082 1.12005
 O2045 O 0.59507 0.63138 1.02465
 O2046 O 0.62600 0.66207 1.02462
 C2047 C 0.60452 0.65274 1.03376
 C2048 C 0.59084 0.66635 1.05580
 C2049 C 0.60110 0.68990 1.06619
 H2050 H 0.61866 0.69852 1.05746
 O2051 O 0.40415 0.36884 1.02618
 O2052 O 0.37337 0.33798 1.02618
 C2053 C 0.39488 0.34732 1.03519
 C2054 C 0.40887 0.33337 1.05684
 C2055 C 0.40027 0.30844 1.06533
 H2056 H 0.38415 0.29890 1.05498
 O2057 O 0.59427 0.47529 1.13131
 O2058 O 0.62519 0.47529 1.16207
 C2059 C 0.60362 0.46631 1.15283
 C2060 C 0.58989 0.44444 1.16667
 C2061 C 0.60000 0.43438 1.19052
 H2062 H 0.61662 0.44418 1.19973
 O2063 O 0.40344 0.52649 1.13190
 O2064 O 0.37278 0.52674 1.16293
 C2065 C 0.39423 0.53571 1.15337
 C2066 C 0.40853 0.55732 1.16701
 C2067 C 0.40039 0.56625 1.19206
 H2068 H 0.38334 0.55724 1.20133
 O2069 O 0.47397 0.63170 1.09449
 O2070 O 0.47407 0.66276 1.12505
 C2071 C 0.46509 0.65336 1.10355
 C2072 C 0.44362 0.66734 1.08933
 C2073 C 0.43541 0.69252 1.09749
 H2074 H 0.44605 0.70228 1.11328
 O2075 O 0.52485 0.36880 1.09574
 O2076 O 0.52490 0.33818 1.12681
 C2077 C 0.53403 0.34746 1.10529
 C2078 C 0.55614 0.33377 1.09175
 C2079 C 0.56694 0.31057 1.10252
 H2080 H 0.55854 0.30245 1.12047
 O2081 O 0.63065 0.40447 1.02577
 O2082 O 0.66142 0.37358 1.02597
 C2083 C 0.65204 0.39506 1.03500
 C2084 C 0.66557 0.40875 1.05708
 C2085 C 0.68905 0.39843 1.06783
 H2086 H 0.69809 0.38121 1.05891
 O2087 O 0.36758 0.59537 1.02580
 O2088 O 0.33661 0.62608 1.02578
 C2089 C 0.34601 0.60458 1.03479
 C2090 C 0.33201 0.59044 1.05630
 C2091 C 0.30691 0.59882 1.06456
 H2092 H 0.29736 0.61503 1.05431
 Cu2093 Cu 0.49903 0.38997 1.11079
 Cu2094 Cu 0.49915 0.35327 1.14814
 Cu2095 Cu 0.49963 0.61048 1.10977
 Cu2096 Cu 0.49962 0.64763 1.14661
 Cu2097 Cu 0.38892 0.38987 1.00038
 Cu2098 Cu 0.35178 0.35301 1.00058
 Cu2099 Cu 0.60960 0.38931 1.00001
 Cu2100 Cu 0.64646 0.35217 1.00016
 Cu2101 Cu 0.38858 0.61052 0.99990
 Cu2102 Cu 0.35147 0.64744 0.99991
 Cu2103 Cu 0.61022 0.61053 0.99880
 Cu2104 Cu 0.64742 0.64731 0.99865
 Cu2105 Cu 0.38847 0.50049 1.11106
 Cu2106 Cu 0.35157 0.50060 1.14819
 Cu2107 Cu 0.60964 0.50075 1.11000
 Cu2108 Cu 0.64684 0.50070 1.14686
 C2109 C 0.56783 0.43222 1.15508
 H2110 H 0.56007 0.43975 1.13657
 C2111 C 0.58915 0.41161 1.20222
 C2112 C 0.43002 0.56972 1.15452
 H2113 H 0.43606 0.56334 1.13498
 C2114 C 0.41381 0.58702 1.20486
 C2115 C 0.34406 0.56908 1.06930
 H2116 H 0.36356 0.56270 1.06317
 C2117 C 0.29390 0.58643 1.08579
 C2118 C 0.65408 0.43121 1.06872
 H2119 H 0.63574 0.43901 1.06084
 C2120 C 0.70078 0.41002 1.09018
 C2121 C 0.56782 0.34488 1.06912
 H2122 H 0.56001 0.36315 1.06110
 C2123 C 0.58916 0.29839 1.09105
 C2124 C 0.43042 0.65506 1.06828
 H2125 H 0.43662 0.63557 1.06195
 C2126 C 0.41365 0.70517 1.08555
 C2127 C 0.43025 0.43197 1.15566
 H2128 H 0.43621 0.43814 1.13601
 C2129 C 0.41415 0.41515 1.20623
 C2130 C 0.56891 0.56980 1.15459
 H2131 H 0.56262 0.56339 1.13515
 C2132 C 0.58583 0.58717 1.20469
 C2133 C 0.43016 0.34543 1.06987
 H2134 H 0.43671 0.36479 1.06350
 C2135 C 0.41229 0.29564 1.08693
 C2136 C 0.56856 0.65487 1.06779
 H2137 H 0.56082 0.63643 1.06017
 C2138 C 0.58969 0.70178 1.08856
 C2139 C 0.34436 0.43134 1.06961
 H2140 H 0.36284 0.43900 1.06196
 C2141 C 0.29719 0.41040 1.09038
 C2142 C 0.65463 0.56912 1.06765
 H2143 H 0.63498 0.56324 1.06150
 C2144 C 0.70514 0.58500 1.08446
 C2145 C 1.09957 1.13114 1.26341
 C2146 C 1.12556 1.12553 1.27155
 C2147 C 1.14147 1.11135 1.25333
 C2148 C 1.13075 1.10105 1.22976
 C2149 C 1.10362 1.10404 1.22378
 C2150 C 1.08895 1.12056 1.24044
 C2151 C 1.06256 1.11619 1.25286
 C2152 C 1.07408 1.12771 1.27805
 H2153 H 1.16232 1.10822 1.25689
 H2154 H 1.14379 1.09042 1.21658
 H2155 H 1.05743 1.09489 1.25457
 H2156 H 1.04697 1.12886 1.24392
 H2157 H 1.07563 1.11313 1.29446
 H2158 H 1.06499 1.14693 1.28356
 C2159 C 1.13127 0.59838 0.76304
 C2160 C 1.11530 0.61238 0.78078
 C2161 C 1.08788 0.61304 0.77543
 C2162 C 1.07777 0.60281 0.75149
 C2163 C 1.09487 0.59177 0.73233
 C2164 C 1.12138 0.58841 0.73958
 C2165 C 1.14607 0.59501 0.72478
 C2166 C 1.15694 0.60595 0.75056
 H2167 H 1.07433 0.62218 0.78925
 H2168 H 1.05676 0.60436 0.74772
 H2169 H 1.14287 0.61038 0.70937
 H2170 H 1.15670 0.57704 0.71793
 H2171 H 1.16006 0.62770 0.75016
 H2172 H 1.17377 0.59426 0.75851
 C2173 C 0.59713 1.12735 0.76547
 C2174 C 0.62386 1.12470 0.77213
 C2175 C 0.64085 1.11401 0.75272
 C2176 C 0.63060 1.10365 0.72896
 C2177 C 0.60308 1.10367 0.72407
 C2178 C 0.58705 1.11713 0.74217
 C2179 C 0.56192 1.10872 0.75517
 C2180 C 0.57299 1.11995 0.78077
 H2181 H 0.66199 1.11317 0.75603
 H2182 H 0.64420 1.09524 0.71475
 H2183 H 0.55950 1.08689 0.75557
 H2184 H 0.54456 1.11990 0.74761
 H2185 H 0.57702 1.10465 0.79605
 H2186 H 0.56200 1.13758 0.78790
 C2187 C 0.59893 0.63250 1.26324
 C2188 C 0.61583 0.61771 1.27965
 C2189 C 0.61919 0.59073 1.27282
 C2190 C 0.60852 0.58037 1.24921
 C2191 C 0.59459 0.59668 1.23128
 C2192 C 0.58889 0.62239 1.23979
 C2193 C 0.59202 0.64806 1.22557
 C2194 C 0.60303 0.65920 1.25115
 H2195 H 0.62997 0.57735 1.28555
 H2196 H 0.61184 0.55971 1.24488
 H2197 H 0.57269 0.65690 1.21997
 H2198 H 0.60686 0.64704 1.20937
 H2199 H 0.59000 0.67446 1.26009
 H2200 H 0.62428 0.66471 1.24983
 C2201 C 0.86984 0.90315 1.26653
 C2202 C 0.87463 0.87697 1.27456
 C2203 C 0.88771 0.86055 1.25597
 C2204 C 0.89788 0.87089 1.23215
 C2205 C 0.89584 0.89809 1.22622
 C2206 C 0.88027 0.91336 1.24326
 C2207 C 0.88594 0.93954 1.25549
 C2208 C 0.87460 0.92847 1.28101
 H2209 H 0.89010 0.83961 1.25944
 H2210 H 0.90773 0.85749 1.21871
 H2211 H 0.87364 0.95558 1.24683
 H2212 H 0.90747 0.94386 1.25664
 H2213 H 0.85587 0.93830 1.28699
 H2214 H 0.88953 0.92638 1.29703
 C2215 C 0.90259 0.36874 0.76453
 C2216 C 0.88574 0.38356 0.78091
 C2217 C 0.88248 0.41056 0.77410
 C2218 C 0.89315 0.42094 0.75048
 C2219 C 0.90697 0.40460 0.73254
 C2220 C 0.91262 0.37886 0.74106
 C2221 C 0.90941 0.35321 0.72689
 C2222 C 0.89842 0.34207 0.75249
 H2223 H 0.87171 0.42393 0.78683
 H2224 H 0.88988 0.44161 0.74614
 H2225 H 0.92872 0.34432 0.72127
 H2226 H 0.89455 0.35428 0.71070
 H2227 H 0.91143 0.32677 0.76144
 H2228 H 0.87716 0.33660 0.75120
 C2229 C 0.36802 0.90204 0.76390
 C2230 C 0.38341 0.88751 0.78173
 C2231 C 0.41086 0.88608 0.77660
 C2232 C 0.42150 0.89606 0.75277
 C2233 C 0.40494 0.90765 0.73344
 C2234 C 0.37844 0.91174 0.74049
 C2235 C 0.35367 0.90591 0.72550
 C2236 C 0.34225 0.89528 0.75121
 H2237 H 0.42401 0.87650 0.79053
 H2238 H 0.44250 0.89394 0.74924
 H2239 H 0.35654 0.89046 0.71015
 H2240 H 0.34365 0.92419 0.71854
 H2241 H 0.33846 0.87364 0.75081
 H2242 H 0.32572 0.90748 0.75902
 C2243 C 0.40090 0.36977 1.26468
 C2244 C 0.38505 0.38498 1.28170
 C2245 C 0.38248 0.41214 1.27516
 C2246 C 0.39283 0.42236 1.25131
 C2247 C 0.40573 0.40576 1.23295
 C2248 C 0.41070 0.37978 1.24108
 C2249 C 0.40627 0.35445 1.22669
 C2250 C 0.39548 0.34340 1.25243
 H2251 H 0.37256 0.42579 1.28826
 H2252 H 0.39009 0.44315 1.24714
 H2253 H 0.42512 0.34498 1.22052
 H2254 H 0.39108 0.35623 1.21088
 H2255 H 0.40814 0.32752 1.26086
 H2256 H 0.37401 0.33872 1.25159
 C2257 C 0.89936 1.13199 0.73714
 C2258 C 0.88385 1.11667 0.71990
 C2259 C 0.88185 1.08938 0.72610
 C2260 C 0.89240 1.07907 0.74981
 C2261 C 0.90503 1.09569 0.76832
 C2262 C 0.90944 1.12185 0.76056
 C2263 C 0.90449 1.14684 0.77536
 C2264 C 0.89336 1.15803 0.74982
 H2265 H 0.87224 1.07568 0.71282
 H2266 H 0.89007 1.05819 0.75379
 H2267 H 0.92315 1.15659 0.78163
 H2268 H 0.88940 1.14448 0.79119
 H2269 H 0.90561 1.17433 0.74163
 H2270 H 0.87179 1.16222 0.75079
 C2271 C 0.87608 0.59450 0.23053
 C2272 C 0.87813 0.62130 0.22394
 C2273 C 0.88810 0.63845 0.24358
 C2274 C 0.89831 0.62836 0.26752
 C2275 C 0.89883 0.60087 0.27241
 C2276 C 0.88611 0.58460 0.25403
 C2277 C 0.89540 0.55974 0.24117
 C2278 C 0.88440 0.57062 0.21536
 H2279 H 0.88844 0.65959 0.24036
 H2280 H 0.90616 0.64209 0.28191
 H2281 H 0.88451 0.54212 0.24847
 H2282 H 0.91732 0.55785 0.24123
 H2283 H 0.86719 0.55923 0.20784
 H2284 H 0.89991 0.57505 0.20041
 C2285 C 0.37102 1.09710 0.23363
 C2286 C 0.37562 1.12331 0.22561
 C2287 C 0.38881 1.13973 0.24412
 C2288 C 0.39907 1.12940 0.26792
 C2289 C 0.39699 1.10222 0.27390
 C2290 C 0.38149 1.08691 0.25688
 C2291 C 0.38733 1.06077 0.24464
 C2292 C 0.37596 1.07181 0.21913
 H2293 H 0.39114 1.16068 0.24064
 H2294 H 0.40895 1.14279 0.28133
 H2295 H 0.37511 1.04467 0.25327
 H2296 H 0.40889 1.05655 0.24351
 H2297 H 0.35731 1.06189 0.21311
 H2298 H 0.39090 1.07400 0.20312
 C2299 C 0.39875 0.63144 0.73785
 C2300 C 0.38491 0.61569 0.71982
 C2301 C 0.38433 0.58821 0.72483
 C2302 C 0.39463 0.57781 0.74866
 C2303 C 0.40571 0.59465 0.76801
 C2304 C 0.40883 0.62126 0.76117
 C2305 C 0.40200 0.64561 0.77635
 C2306 C 0.39092 0.65680 0.75073
 H2307 H 0.37534 0.57483 0.71079
 H2308 H 0.39321 0.55676 0.75215
 H2309 H 0.41989 0.65625 0.78338
 H2310 H 0.38665 0.64202 0.79169
 H2311 H 0.40246 0.67386 0.74307
 H2312 H 0.36913 0.65972 0.75116
 C2313 C 1.09505 0.87540 0.73176
 C2314 C 1.12208 0.87725 0.72611
 C2315 C 1.13869 0.88708 0.74627
 C2316 C 1.12795 0.89744 0.76978
 C2317 C 1.10030 0.89828 0.77370
 C2318 C 1.08447 0.88564 0.75486
 C2319 C 1.06014 0.89513 0.74110
 C2320 C 1.07175 0.88390 0.71574
 H2321 H 1.15996 0.88714 0.74380
 H2322 H 1.14131 0.90513 0.78461
 H2323 H 1.05848 0.91705 0.74097
 H2324 H 1.04215 0.88447 0.74785
 H2325 H 1.07685 0.89928 0.70085
 H2326 H 1.06043 0.86679 0.70792
 C2327 C 1.13065 0.39945 0.23648
 C2328 C 1.11445 0.38644 0.21819
 C2329 C 1.08697 0.38638 0.22337
 C2330 C 1.07696 0.39622 0.24753
 C2331 C 1.09419 0.40640 0.26702
 C2332 C 1.12083 0.40914 0.26009
 C2333 C 1.14515 0.40143 0.27497
 C2334 C 1.15594 0.39076 0.24903
 H2335 H 1.07325 0.37810 0.20920
 H2336 H 1.05589 0.39516 0.25115
 H2337 H 1.14132 0.38580 0.28997
 H2338 H 1.15621 0.41890 0.28236
 H2339 H 1.15839 0.36892 0.24894
 H2340 H 1.17322 0.40210 0.24156
 C2341 C 0.59729 0.86955 0.23496
 C2342 C 0.62365 0.87410 0.22744
 C2343 C 0.63979 0.88734 0.24615
 C2344 C 0.62906 0.89796 0.26952
 C2345 C 0.60174 0.89616 0.27486
 C2346 C 0.58668 0.88041 0.25782
 C2347 C 0.56075 0.88605 0.24494
 C2348 C 0.57226 0.87423 0.21986
 H2349 H 0.66086 0.88946 0.24315
 H2350 H 0.64225 0.90789 0.28310
 H2351 H 0.55658 0.90757 0.24333
 H2352 H 0.54447 0.87401 0.25349
 H2353 H 0.57477 0.88887 0.20363
 H2354 H 0.56247 0.85548 0.21400
 C2355 C 0.59393 0.37465 0.73112
 C2356 C 0.62099 0.37607 0.72542
 C2357 C 0.63776 0.38548 0.74570
 C2358 C 0.62719 0.39602 0.76923
 C2359 C 0.59957 0.39735 0.77315
 C2360 C 0.58354 0.38496 0.75430
 C2361 C 0.55930 0.39482 0.74063
 C2362 C 0.57070 0.38353 0.71520
 H2363 H 0.65902 0.38523 0.74327
 H2364 H 0.64065 0.40353 0.78407
 H2365 H 0.55793 0.41675 0.74059
 H2366 H 0.54119 0.38436 0.74740
 H2367 H 0.57597 0.39889 0.70036
 H2368 H 0.55912 0.36661 0.70734
 C2369 C 1.26115 1.10031 1.13200
 C2370 C 1.27942 1.11369 1.11605
 C2371 C 1.27471 1.11349 1.08847
 C2372 C 1.25095 1.10308 1.07810
 C2373 C 1.23136 1.09254 1.09505
 C2374 C 1.23791 1.09005 1.12183
 C2375 C 1.22248 1.09748 1.14588
 C2376 C 1.24799 1.10876 1.15705
 H2377 H 1.28893 1.12200 1.07493
 H2378 H 1.24768 1.10398 1.05696
 H2379 H 1.21530 1.07988 1.15691
 H2380 H 1.20721 1.11275 1.14173
 H2381 H 1.25543 1.09764 1.17451
 H2382 H 1.24756 1.13060 1.15940
 C2383 C 1.26763 0.62555 0.59505
 C2384 C 1.27410 0.62275 0.62183
 C2385 C 1.25460 0.61188 0.63861
 C2386 C 1.23094 0.60154 0.62810
 C2387 C 1.22623 0.60170 0.60053
 C2388 C 1.24443 0.61531 0.58471
 C2389 C 1.25767 0.60711 0.55964
 C2390 C 1.28313 0.61836 0.57099
 H2391 H 1.25775 0.61092 0.65977
 H2392 H 1.21665 0.59305 0.64159
 H2393 H 1.25022 0.61836 0.54227
 H2394 H 1.25815 0.58529 0.55710
 H2395 H 1.29030 0.63609 0.56015
 H2396 H 1.29843 0.60309 0.57505
 C2397 C 0.76573 1.09712 0.62991
 C2398 C 0.78217 1.11410 0.61530
 C2399 C 0.77533 1.11784 0.58833
 C2400 C 0.75163 1.10750 0.57784
 C2401 C 0.73366 1.09352 0.59403
 C2402 C 0.74220 1.08742 0.61969
 C2403 C 0.72808 1.09029 0.64546
 C2404 C 0.75376 1.10093 0.65672
 H2405 H 0.78809 1.12875 0.57508
 H2406 H 0.74727 1.11114 0.55721
 H2407 H 0.72237 1.07091 0.65408
 H2408 H 0.71199 1.10526 0.64467
 H2409 H 0.76266 1.08763 0.67181
 H2410 H 0.75260 1.12209 0.66253
 C2411 C 0.76183 0.60075 1.13072
 C2412 C 0.78031 0.61349 1.11451
 C2413 C 0.77542 0.61315 1.08696
 C2414 C 0.75136 0.60321 1.07684
 C2415 C 0.73167 0.59331 1.09402
 C2416 C 0.73830 0.59095 1.12079
 C2417 C 0.72318 0.59904 1.14481
 C2418 C 0.74901 0.60982 1.15572
 H2419 H 0.78977 0.62116 1.07325
 H2420 H 0.74797 0.60396 1.05571
 H2421 H 0.71563 0.58174 1.15608
 H2422 H 0.70826 0.61463 1.14056
 H2423 H 0.75626 0.59873 1.17328
 H2424 H 0.74913 0.63169 1.15781
 C2425 C 1.26221 0.86718 0.90066
 C2426 C 1.27973 0.88279 0.88572
 C2427 C 1.27383 0.91021 0.88454
 C2428 C 1.25008 0.92039 0.89509
 C2429 C 1.23124 0.90356 0.90694
 C2430 C 1.23875 0.87722 0.91077
 C2431 C 1.22383 0.85247 0.90505
 C2432 C 1.24938 0.84139 0.89390
 H2433 H 1.28732 0.92409 0.87550
 H2434 H 1.24630 0.94136 0.89329
 H2435 H 1.20816 0.85533 0.88987
 H2436 H 1.21730 0.84228 0.92342
 H2437 H 1.24859 0.83778 0.87221
 H2438 H 1.25733 0.82472 0.90583
 C2439 C 1.26382 0.36908 0.40029
 C2440 C 1.28080 0.38445 0.38452
 C2441 C 1.27399 0.41154 0.38185
 C2442 C 1.25001 0.42152 0.39211
 C2443 C 1.23177 0.40476 0.40502
 C2444 C 1.24010 0.37886 0.41001
 C2445 C 1.22594 0.35341 0.40550
 C2446 C 1.25181 0.34261 0.39479
 H2447 H 1.28699 0.42532 0.37196
 H2448 H 1.24566 0.44227 0.38934
 H2449 H 1.21017 0.35508 0.39025
 H2450 H 1.21978 0.34386 0.42433
 H2451 H 1.25108 0.33796 0.37331
 H2452 H 1.26031 0.32678 0.40747
 C2453 C 0.76240 0.86834 0.40064
 C2454 C 0.78016 0.88423 0.38657
 C2455 C 0.77463 0.91158 0.38549
 C2456 C 0.75058 0.92168 0.39548
 C2457 C 0.73144 0.90464 0.40667
 C2458 C 0.73880 0.87821 0.41034
 C2459 C 0.72420 0.85340 0.40389
 C2460 C 0.75013 0.84256 0.39324
 H2461 H 0.78846 0.92507 0.37629
 H2462 H 0.74676 0.94264 0.39370
 H2463 H 0.70892 0.85638 0.38834
 H2464 H 0.71725 0.84293 0.42193
 H2465 H 0.74994 0.83922 0.37150
 H2466 H 0.75807 0.82590 0.40519
 C2467 C 0.76763 0.40534 0.87442
 C2468 C 0.77422 0.37854 0.87630
 C2469 C 0.75462 0.36135 0.88639
 C2470 C 0.73085 0.37136 0.89701
 C2471 C 0.72602 0.39884 0.89778
 C2472 C 0.74426 0.41517 0.88483
 C2473 C 0.75725 0.43999 0.89402
 C2474 C 0.78289 0.42920 0.88261
 H2475 H 0.75778 0.34020 0.88661
 H2476 H 0.71654 0.35759 0.90498
 H2477 H 0.75750 0.44178 0.91594
 H2478 H 0.74978 0.45766 0.88328
 H2479 H 0.79807 0.42470 0.89789
 H2480 H 0.79017 0.44069 0.86532
 C2481 C 0.73354 0.90355 1.12709
 C2482 C 0.72789 0.87656 1.12511
 C2483 C 0.74784 0.86006 1.11468
 C2484 C 0.77109 0.87093 1.10385
 C2485 C 0.77491 0.89857 1.10311
 C2486 C 0.75637 0.91423 1.11639
 C2487 C 0.74237 0.93865 1.10749
 C2488 C 0.71730 0.92691 1.11924
 H2489 H 0.74534 0.83883 1.11441
 H2490 H 0.78575 0.85768 1.09565
 H2491 H 0.74172 0.94055 1.08558
 H2492 H 0.74936 0.95650 1.11818
 H2493 H 0.70207 0.92198 1.10416
 H2494 H 0.70989 0.93802 1.13669
 C2495 C 0.73524 0.40279 0.62990
 C2496 C 0.72682 0.37695 0.62431
 C2497 C 0.74491 0.36076 0.61029
 C2498 C 0.76860 0.37111 0.59996
 C2499 C 0.77485 0.39814 0.60273
 C2500 C 0.75835 0.41308 0.61922
 C2501 C 0.74624 0.43959 0.61476
 C2502 C 0.72092 0.42842 0.62640
 H2503 H 0.74113 0.33994 0.60732
 H2504 H 0.78167 0.35783 0.58948
 H2505 H 0.74457 0.44468 0.59341
 H2506 H 0.75536 0.45509 0.62736
 H2507 H 0.70448 0.42706 0.61183
 H2508 H 0.71553 0.43760 0.64562
 C2509 C 0.23554 0.90296 0.63022
 C2510 C 0.22801 0.87665 0.62541
 C2511 C 0.24685 0.86062 0.61221
 C2512 C 0.27039 0.87140 0.60198
 C2513 C 0.27580 0.89868 0.60409
 C2514 C 0.25857 0.91361 0.61976
 C2515 C 0.24583 0.93960 0.61415
 C2516 C 0.22056 0.92804 0.62553
 H2517 H 0.24383 0.83961 0.60984
 H2518 H 0.28406 0.85827 0.59208
 H2519 H 0.24455 0.94397 0.59263
 H2520 H 0.25421 0.95573 0.62647
 H2521 H 0.20455 0.92571 0.61063
 H2522 H 0.21442 0.93768 0.64430
 C2523 C 0.23208 0.40391 1.12723
 C2524 C 0.22409 0.37775 1.12236
 C2525 C 0.24283 0.36126 1.10959
 C2526 C 0.26692 0.37149 1.09999
 C2527 C 0.27295 0.39863 1.10232
 C2528 C 0.25561 0.41399 1.11740
 C2529 C 0.24363 0.44022 1.11128
 C2530 C 0.21780 0.42929 1.12195
 H2531 H 0.23932 0.34034 1.10711
 H2532 H 0.28052 0.35805 1.09042
 H2533 H 0.24308 0.44450 1.08970
 H2534 H 0.25199 0.45624 1.12376
 H2535 H 0.20219 0.42722 1.10659
 H2536 H 0.21132 0.43920 1.14047
 C2537 C 0.73657 1.09993 0.86774
 C2538 C 0.71965 1.11612 0.88269
 C2539 C 0.72589 1.11869 0.90995
 C2540 C 0.74944 1.10800 0.92050
 C2541 C 0.76775 1.09472 0.90414
 C2542 C 0.75986 1.08977 0.87808
 C2543 C 0.77465 1.09383 0.85287
 C2544 C 0.74926 1.10502 0.84145
 H2545 H 0.71280 1.12892 0.92340
 H2546 H 0.75346 1.11080 0.94133
 H2547 H 0.78061 1.07485 0.84357
 H2548 H 0.79070 1.10873 0.85475
 H2549 H 0.74083 1.09247 0.82552
 H2550 H 0.75053 1.12644 0.83665
 C2551 C 0.73237 0.62451 0.40418
 C2552 C 0.72585 0.62199 0.37737
 C2553 C 0.74550 0.61160 0.36046
 C2554 C 0.76939 0.60152 0.37082
 C2555 C 0.77422 0.60152 0.39837
 C2556 C 0.75581 0.61459 0.41436
 C2557 C 0.74284 0.60583 0.43938
 C2558 C 0.71711 0.61670 0.42822
 H2559 H 0.74236 0.61089 0.33929
 H2560 H 0.78378 0.59339 0.35724
 H2561 H 0.75010 0.61702 0.45683
 H2562 H 0.74282 0.58398 0.44171
 H2563 H 0.70960 0.63414 0.43926
 H2564 H 0.70213 0.60118 0.42405
 C2565 C 0.23844 1.09973 0.36627
 C2566 C 0.22131 1.11585 0.38108
 C2567 C 0.22706 1.11810 0.40849
 C2568 C 0.25042 1.10733 0.41933
 C2569 C 0.26901 1.09423 0.40317
 C2570 C 0.26154 1.08947 0.37694
 C2571 C 0.27675 1.09366 0.35200
 C2572 C 0.25156 1.10497 0.34024
 H2573 H 0.21374 1.12816 0.42183
 H2574 H 0.25411 1.10993 0.44025
 H2575 H 0.28283 1.07472 0.34269
 H2576 H 0.29279 1.10851 0.35424
 H2577 H 0.24337 1.09254 0.32409
 H2578 H 0.25295 1.12642 0.33560
 C2579 C 0.23155 0.59552 0.87377
 C2580 C 0.22418 0.62207 0.87737
 C2581 C 0.24331 0.63867 0.88941
 C2582 C 0.26713 0.62832 0.89954
 C2583 C 0.27257 0.60100 0.89836
 C2584 C 0.25489 0.58536 0.88401
 C2585 C 0.24237 0.55973 0.89140
 C2586 C 0.21674 0.57075 0.88030
 H2587 H 0.24039 0.65977 0.89088
 H2588 H 0.28106 0.64181 0.90854
 H2589 H 0.24183 0.55649 0.91315
 H2590 H 0.25036 0.54297 0.87966
 H2591 H 0.20126 0.57392 0.89560
 H2592 H 0.20996 0.56011 0.86232
 C2593 C 1.10016 1.26225 1.13152
 C2594 C 1.11459 1.27998 1.11595
 C2595 C 1.11608 1.27463 1.08855
 C2596 C 1.10611 1.25075 1.07812
 C2597 C 1.09447 1.23163 1.09486
 C2598 C 1.09046 1.23881 1.12131
 C2599 C 1.09645 1.22398 1.14616
 C2600 C 1.10709 1.24973 1.15736
 H2601 H 1.12554 1.28849 1.07526
 H2602 H 1.10817 1.24708 1.05714
 H2603 H 1.11194 1.20863 1.14333
 H2604 H 1.07821 1.21707 1.15630
 H2605 H 1.12877 1.24936 1.16105
 H2606 H 1.09494 1.25761 1.17389
 C2607 C 1.09731 0.76703 0.62519
 C2608 C 1.12434 0.77278 0.62340
 C2609 C 1.14097 0.75278 0.61324
 C2610 C 1.13023 0.72937 0.60263
 C2611 C 1.10260 0.72535 0.60195
 C2612 C 1.08677 0.74402 0.61482
 C2613 C 1.06236 0.75775 0.60553
 C2614 C 1.07393 0.78303 0.61690
 H2615 H 1.16223 0.75527 0.61311
 H2616 H 1.14358 0.71467 0.59464
 H2617 H 1.04443 0.75087 0.61623
 H2618 H 1.06061 0.75803 0.58359
 H2619 H 1.06263 0.79068 0.63413
 H2620 H 1.07892 0.79801 0.60159
 C2621 C 0.63423 1.26168 0.60011
 C2622 C 0.61824 1.27986 0.61350
 C2623 C 0.59066 1.27533 0.61301
 C2624 C 0.58028 1.25176 0.60230
 C2625 C 0.59724 1.23218 0.59183
 C2626 C 0.62406 1.23859 0.58961
 C2627 C 0.64797 1.22301 0.59720
 C2628 C 0.65915 1.24837 0.60875
 H2629 H 0.57714 1.28955 0.62155
 H2630 H 0.55912 1.24860 0.60298
 H2631 H 0.65912 1.21590 0.57965
 H2632 H 0.64364 1.20768 0.61237
 H2633 H 0.67672 1.25580 0.59782
 H2634 H 0.66131 1.24780 0.63064
 C2635 C 0.62572 0.76711 1.09514
 C2636 C 0.62371 0.77288 1.12213
 C2637 C 0.61345 0.75292 1.13877
 C2638 C 0.60282 0.72955 1.12804
 C2639 C 0.60215 0.72556 1.10041
 C2640 C 0.61523 0.74413 1.08459
 C2641 C 0.60617 0.75791 1.06010
 C2642 C 0.61768 0.78313 1.07168
 H2643 H 0.61322 0.75548 1.16002
 H2644 H 0.59477 0.71490 1.14141
 H2645 H 0.58426 0.75834 1.05824
 H2646 H 0.61691 0.75094 1.04223
 H2647 H 0.60246 0.79823 1.07656
 H2648 H 0.63502 0.79065 1.06046
 C2649 C 0.86699 1.26069 0.89674
 C2650 C 0.88299 1.27935 0.88404
 C2651 C 0.91060 1.27478 0.88444
 C2652 C 0.92100 1.25083 0.89434
 C2653 C 0.90406 1.23095 0.90419
 C2654 C 0.87721 1.23726 0.90651
 C2655 C 0.85339 1.22190 0.89831
 C2656 C 0.84217 1.24763 0.88755
 H2657 H 0.92415 1.28931 0.87650
 H2658 H 0.94217 1.24770 0.89366
 H2659 H 0.84221 1.21414 0.91558
 H2660 H 0.85785 1.20712 0.88267
 H2661 H 0.82452 1.25462 0.89864
 H2662 H 0.84011 1.24782 0.86565
 C2663 C 0.86772 0.76204 0.39919
 C2664 C 0.88324 0.77967 0.38457
 C2665 C 0.91062 0.77431 0.38309
 C2666 C 0.92110 0.75054 0.39336
 C2667 C 0.90441 0.73149 0.40522
 C2668 C 0.87795 0.73869 0.40914
 C2669 C 0.85314 0.72382 0.40327
 C2670 C 0.84191 0.74948 0.39237
 H2671 H 0.92385 0.78810 0.37346
 H2672 H 0.94209 0.74690 0.39135
 H2673 H 0.84300 0.71705 0.42158
 H2674 H 0.85600 0.70834 0.38793
 H2675 H 0.82537 0.75746 0.40444
 H2676 H 0.83822 0.74894 0.37069
 C2677 C 0.36692 1.26132 0.39698
 C2678 C 0.38283 1.27968 0.38374
 C2679 C 0.41037 1.27482 0.38357
 C2680 C 0.42076 1.25091 0.39357
 C2681 C 0.40386 1.23128 0.40404
 C2682 C 0.37711 1.23788 0.40679
 C2683 C 0.35296 1.22270 0.39923
 C2684 C 0.34178 1.24844 0.38845
 H2685 H 0.42388 1.28915 0.37520
 H2686 H 0.44188 1.24763 0.39254
 H2687 H 0.34205 1.21522 0.41680
 H2688 H 0.35695 1.20772 0.38365
 H2689 H 0.32445 1.25574 0.39983
 H2690 H 0.33926 1.24845 0.36660
 C2691 C 0.40316 0.76679 0.87261
 C2692 C 0.37626 0.77305 0.87453
 C2693 C 0.35932 0.75329 0.88471
 C2694 C 0.36969 0.72972 0.89545
 C2695 C 0.39727 0.72531 0.89626
 C2696 C 0.41334 0.74363 0.88313
 C2697 C 0.43808 0.75695 0.89212
 C2698 C 0.42690 0.78237 0.88058
 H2699 H 0.33812 0.75623 0.88502
 H2700 H 0.35613 0.71531 0.90358
 H2701 H 0.45580 0.74965 0.88135
 H2702 H 0.43999 0.75734 0.91403
 H2703 H 0.43822 0.78968 0.86320
 H2704 H 0.42231 0.79756 0.89579
 C2705 C 1.09421 0.73240 0.87267
 C2706 C 1.12129 0.72674 0.87378
 C2707 C 1.13813 0.74697 0.88314
 C2708 C 1.12761 0.77039 0.89396
 C2709 C 1.10000 0.77422 0.89559
 C2710 C 1.08389 0.75547 0.88321
 C2711 C 1.05975 0.74175 0.89320
 C2712 C 1.07108 0.71642 0.88166
 H2713 H 1.15939 0.74455 0.88272
 H2714 H 1.14109 0.78518 0.90151
 H2715 H 1.04154 0.74856 0.88293
 H2716 H 1.05857 0.74157 0.91517
 H2717 H 1.05936 0.70867 0.86477
 H2718 H 1.07651 0.70152 0.89691
 C2719 C 1.12534 0.23138 0.40480
 C2720 C 1.12438 0.22582 0.37769
 C2721 C 1.11504 0.24609 0.36083
 C2722 C 1.10414 0.26946 0.37131
 C2723 C 1.10240 0.27323 0.39891
 C2724 C 1.11469 0.25442 0.41509
 C2725 C 1.10453 0.24060 0.43912
 C2726 C 1.11619 0.21531 0.42782
 H2727 H 1.11564 0.24377 0.33956
 H2728 H 1.09670 0.28431 0.35778
 H2729 H 1.08255 0.24044 0.44012
 H2730 H 1.11464 0.24732 0.45743
 H2731 H 1.10100 0.20044 0.42223
 H2732 H 1.13299 0.20749 0.43966
 C2733 C 0.63337 0.73932 0.39701
 C2734 C 0.61746 0.72094 0.38381
 C2735 C 0.58985 0.72533 0.38436
 C2736 C 0.57932 0.74888 0.39500
 C2737 C 0.59615 0.76858 0.40540
 C2738 C 0.62305 0.76238 0.40748
 C2739 C 0.64677 0.77812 0.39967
 C2740 C 0.65810 0.75279 0.38817
 H2741 H 0.57638 0.71096 0.37604
 H2742 H 0.55813 0.75189 0.39444
 H2743 H 0.65795 0.78540 0.41713
 H2744 H 0.64220 0.79335 0.38447
 H2745 H 0.67581 0.74556 0.39901
 H2746 H 0.66012 0.75329 0.36626
 C2747 C 0.59479 0.23205 0.87518
 C2748 C 0.62153 0.22559 0.87830
 C2749 C 0.63815 0.24504 0.88938
 C2750 C 0.62752 0.26871 0.89951
 C2751 C 0.59996 0.27346 0.89895
 C2752 C 0.58431 0.25525 0.88524
 C2753 C 0.55917 0.24204 0.89325
 C2754 C 0.57067 0.21657 0.88221
 H2755 H 0.65930 0.24189 0.89054
 H2756 H 0.64089 0.28301 0.90809
 H2757 H 0.54193 0.24943 0.88178
 H2758 H 0.55639 0.24164 0.91507
 H2759 H 0.56005 0.20934 0.86438
 H2760 H 0.57458 0.20134 0.89760
 C2761 C 0.86772 0.73688 1.09898
 C2762 C 0.88354 0.71897 1.11294
 C2763 C 0.91093 0.72440 1.11413
 C2764 C 0.92113 0.74850 1.10442
 C2765 C 0.90416 0.76777 1.09336
 C2766 C 0.87771 0.76053 1.08952
 C2767 C 0.85288 0.77513 1.09604
 C2768 C 0.84193 0.74915 1.10641
 H2769 H 0.92439 0.71045 1.12321
 H2770 H 0.94212 0.75225 1.10629
 H2771 H 0.84251 0.78231 1.07802
 H2772 H 0.85583 0.79023 1.11173
 H2773 H 0.82528 0.74141 1.09434
 H2774 H 0.83849 0.74913 1.12814
 C2775 C 0.90464 0.23197 0.62525
 C2776 C 0.87794 0.22526 0.62234
 C2777 C 0.86102 0.24469 0.61154
 C2778 C 0.87134 0.26854 0.60141
 C2779 C 0.89885 0.27352 0.60176
 C2780 C 0.91477 0.25535 0.61527
 C2781 C 0.94002 0.24249 0.60702
 C2782 C 0.92890 0.21681 0.61798
 H2783 H 0.83991 0.24136 0.61048
 H2784 H 0.85778 0.28277 0.59293
 H2785 H 0.95725 0.24997 0.61844
 H2786 H 0.94268 0.24229 0.58518
 H2787 H 0.93973 0.20954 0.63569
 H2788 H 0.92508 0.20167 0.60252
 C2789 C 0.40583 0.73197 0.62478
 C2790 C 0.37881 0.72609 0.62326
 C2791 C 0.36184 0.74637 0.61423
 C2792 C 0.37220 0.77020 0.60420
 C2793 C 0.39978 0.77439 0.60304
 C2794 C 0.41600 0.75543 0.61500
 C2795 C 0.44035 0.74224 0.60480
 C2796 C 0.42918 0.71647 0.61551
 H2797 H 0.34060 0.74375 0.61443
 H2798 H 0.35862 0.78508 0.59693
 H2799 H 0.45841 0.74888 0.61541
 H2800 H 0.44169 0.74278 0.58285
 H2801 H 0.44085 0.70828 0.63225
 H2802 H 0.42401 0.70202 0.59978
 C2803 C 0.36549 0.23887 1.10151
 C2804 C 0.38101 0.22102 1.11587
 C2805 C 0.40845 0.22624 1.11721
 C2806 C 0.41898 0.25007 1.10718
 C2807 C 0.40232 0.26932 1.09563
 C2808 C 0.37580 0.26228 1.09176
 C2809 C 0.35108 0.27723 1.09789
 C2810 C 0.33978 0.25152 1.10858
 H2811 H 0.42170 0.21229 1.12660
 H2812 H 0.43999 0.25360 1.10912
 H2813 H 0.34090 0.28424 1.07970
 H2814 H 0.35409 0.29253 1.11338
 H2815 H 0.32314 0.24376 1.09650
 H2816 H 0.33620 0.25186 1.13028
 C2817 C 1.13254 1.09828 0.73634
 C2818 C 1.11756 1.11451 0.71942
 C2819 C 1.09031 1.11702 0.72561
 C2820 C 1.07977 1.10630 0.74915
 C2821 C 1.09616 1.09310 0.76754
 C2822 C 1.12222 1.08813 0.75966
 C2823 C 1.14745 1.09216 0.77442
 C2824 C 1.15883 1.10332 0.74899
 H2825 H 1.07686 1.12726 0.71250
 H2826 H 1.05893 1.10905 0.75311
 H2827 H 1.15676 1.07317 0.78039
 H2828 H 1.14558 1.10706 0.79046
 H2829 H 1.17474 1.09074 0.74054
 H2830 H 1.16363 1.12473 0.75024
 C2831 C 1.12997 0.59803 0.23429
 C2832 C 1.11450 0.61382 0.21739
 C2833 C 1.08739 0.61632 0.22421
 C2834 C 1.07749 0.60603 0.24820
 C2835 C 1.09437 0.59324 0.26642
 C2836 C 1.12027 0.58826 0.25803
 C2837 C 1.14579 0.59273 0.27212
 C2838 C 1.15651 0.60349 0.24623
 H2839 H 1.07354 0.62617 0.21121
 H2840 H 1.05673 0.60874 0.25261
 H2841 H 1.15535 0.57391 0.27824
 H2842 H 1.14419 0.60792 0.28792
 H2843 H 1.17231 0.59086 0.23766
 H2844 H 1.16118 0.62495 0.24697
 C2845 C 0.63265 1.09985 0.23673
 C2846 C 0.61687 1.11388 0.21883
 C2847 C 0.58940 1.11459 0.22392
 C2848 C 0.57903 1.10440 0.24778
 C2849 C 0.59590 1.09330 0.26712
 C2850 C 0.62249 1.08991 0.26014
 C2851 C 0.64705 1.09648 0.27516
 C2852 C 0.65820 1.10739 0.24945
 H2853 H 0.57600 1.12372 0.20993
 H2854 H 0.55798 1.10595 0.25131
 H2855 H 0.65758 1.07850 0.28219
 H2856 H 0.64372 1.11188 0.29049
 H2857 H 0.67509 1.09566 0.24171
 H2858 H 0.66135 1.12913 0.24981
 C2859 C 0.59548 0.62628 0.73285
 C2860 C 0.62258 0.62501 0.72730
 C2861 C 0.63926 0.61524 0.74751
 C2862 C 0.62858 0.60425 0.77080
 C2863 C 0.60094 0.60283 0.77452
 C2864 C 0.58499 0.61555 0.75578
 C2865 C 0.56085 0.60592 0.74183
 C2866 C 0.57237 0.61768 0.71665
 H2867 H 0.66054 0.61551 0.74517
 H2868 H 0.64195 0.59644 0.78560
 H2869 H 0.54268 0.61623 0.74866
 H2870 H 0.55952 0.58399 0.74143
 H2871 H 0.56079 0.63474 0.70900
 H2872 H 0.57775 0.60260 0.70160
 C2873 C 0.86687 0.89873 0.73692
 C2874 C 0.88315 0.88532 0.71900
 C2875 C 0.91059 0.88533 0.72430
 C2876 C 0.92050 0.89568 0.74826
 C2877 C 0.90321 0.90625 0.76751
 C2878 C 0.87658 0.90887 0.76042
 C2879 C 0.85218 0.90144 0.77530
 C2880 C 0.84152 0.89031 0.74950
 H2881 H 0.92437 0.87681 0.71032
 H2882 H 0.94157 0.89473 0.75192
 H2883 H 0.84107 0.91904 0.78231
 H2884 H 0.85594 0.88608 0.79060
 H2885 H 0.82429 0.90152 0.74171
 H2886 H 0.83908 0.86847 0.74979
 C2887 C 0.86715 0.39689 0.23859
 C2888 C 0.88309 0.38368 0.22019
 C2889 C 0.91068 0.38405 0.22474
 C2890 C 0.92110 0.39459 0.24842
 C2891 C 0.90420 0.40509 0.26805
 C2892 C 0.87737 0.40729 0.26172
 C2893 C 0.85355 0.39960 0.27737
 C2894 C 0.84232 0.38814 0.25197
 H2895 H 0.92419 0.37569 0.21042
 H2896 H 0.94226 0.39388 0.25159
 H2897 H 0.84239 0.41709 0.28460
 H2898 H 0.85800 0.38440 0.29265
 H2899 H 0.82467 0.39903 0.24466
 H2900 H 0.84023 0.36627 0.25247
 C2901 C 0.40408 0.87393 0.23241
 C2902 C 0.37699 0.87537 0.22682
 C2903 C 0.36037 0.88541 0.24691
 C2904 C 0.37114 0.89637 0.27017
 C2905 C 0.39879 0.89749 0.27395
 C2906 C 0.41464 0.88462 0.25529
 C2907 C 0.43886 0.89404 0.24131
 C2908 C 0.42727 0.88232 0.21617
 H2909 H 0.33910 0.88529 0.24456
 H2910 H 0.35781 0.90431 0.28491
 H2911 H 0.45695 0.88360 0.24820
 H2912 H 0.44036 0.91596 0.24082
 H2913 H 0.43872 0.86517 0.20861
 H2914 H 0.42200 0.89742 0.20106
 C2915 C 0.36734 0.40113 0.73555
 C2916 C 0.38224 0.38430 0.71922
 C2917 C 0.40919 0.38091 0.72622
 C2918 C 0.41943 0.39146 0.74992
 C2919 C 0.40300 0.40529 0.76779
 C2920 C 0.37732 0.41103 0.75912
 C2921 C 0.35153 0.40783 0.77311
 C2922 C 0.34054 0.39699 0.74739
 H2923 H 0.42265 0.37017 0.71354
 H2924 H 0.44010 0.38814 0.75434
 H2925 H 0.34264 0.42712 0.77873
 H2926 H 0.35243 0.39291 0.78926
 H2927 H 0.32533 0.41006 0.73838
 H2928 H 0.33500 0.37576 0.74858
 C2929 C 1.13179 0.89942 1.26279
 C2930 C 1.11665 0.88393 1.28025
 C2931 C 1.08922 0.88215 1.27451
 C2932 C 1.07859 0.89290 1.25100
 C2933 C 1.09501 0.90552 1.23226
 C2934 C 1.12134 0.90971 1.23959
 C2935 C 1.14608 0.90470 1.22433
 C2936 C 1.15761 0.89334 1.24961
 H2937 H 1.07566 0.87254 1.28795
 H2938 H 1.05763 0.89070 1.24735
 H2939 H 1.15586 0.92332 1.21800
 H2940 H 1.14337 0.88974 1.20846
 H2941 H 1.17414 0.90542 1.25757
 H2942 H 1.16164 0.87176 1.24845
 C2943 C 1.13226 0.39860 0.76236
 C2944 C 1.11596 0.38544 0.78046
 C2945 C 1.08853 0.38531 0.77504
 C2946 C 1.07868 0.39525 0.75084
 C2947 C 1.09603 0.40556 0.73148
 C2948 C 1.12261 0.40834 0.73865
 C2949 C 1.14709 0.40075 0.72400
 C2950 C 1.15769 0.39004 0.75003
 H2951 H 1.07472 0.37697 0.78910
 H2952 H 1.05764 0.39420 0.74711
 H2953 H 1.15817 0.41827 0.71671
 H2954 H 1.14345 0.38515 0.70896
 H2955 H 1.17485 0.40142 0.75769
 H2956 H 1.16022 0.36821 0.75015
 C2957 C 0.63250 0.90208 0.76344
 C2958 C 0.61649 0.88810 0.78116
 C2959 C 0.58909 0.88742 0.77574
 C2960 C 0.57903 0.89753 0.75173
 C2961 C 0.59616 0.90847 0.73253
 C2962 C 0.62265 0.91192 0.73984
 C2963 C 0.64742 0.90528 0.72520
 C2964 C 0.65823 0.89450 0.75111
 H2965 H 0.57553 0.87834 0.78960
 H2966 H 0.55802 0.89597 0.74795
 H2967 H 0.65801 0.92323 0.71824
 H2968 H 0.64432 0.88982 0.70990
 H2969 H 0.67499 0.90627 0.75905
 H2970 H 0.66142 0.87276 0.75089
 C2971 C 0.59711 0.37295 1.26622
 C2972 C 0.62311 0.37848 1.27435
 C2973 C 0.63904 0.39266 1.25616
 C2974 C 0.62842 0.40271 1.23241
 C2975 C 0.60134 0.39956 1.22626
 C2976 C 0.58657 0.38330 1.24309
 C2977 C 0.56018 0.38799 1.25540
 C2978 C 0.57162 0.37671 1.28078
 H2979 H 0.65988 0.39580 1.25978
 H2980 H 0.64154 0.41317 1.21916
 H2981 H 0.54454 0.37530 1.24663
 H2982 H 0.55516 0.40934 1.25680
 H2983 H 0.56243 0.35761 1.28656
 H2984 H 0.57322 0.39148 1.29697
 C2985 C 0.90186 1.13116 1.26299
 C2986 C 0.88665 1.11562 1.28033
 C2987 C 0.88507 1.08829 1.27425
 C2988 C 0.89554 1.07816 1.25045
 C2989 C 0.90766 1.09500 1.23177
 C2990 C 0.91186 1.12119 1.23948
 C2991 C 0.90654 1.14617 1.22473
 C2992 C 0.89550 1.15718 1.25035
 H2993 H 0.87576 1.07445 1.28762
 H2994 H 0.89344 1.05726 1.24650
 H2995 H 0.89135 1.14371 1.20901
 H2996 H 0.92505 1.15613 1.21832
 H2997 H 0.87388 1.16116 1.24955
 H2998 H 0.90765 1.17358 1.25846
 C2999 C 0.87542 0.59453 0.76797
 C3000 C 0.87731 0.62139 0.77424
 C3001 C 0.88735 0.63841 0.75448
 C3002 C 0.89784 0.62815 0.73077
 C3003 C 0.89855 0.60062 0.72625
 C3004 C 0.88572 0.58446 0.74470
 C3005 C 0.89501 0.55977 0.75794
 C3006 C 0.88370 0.57083 0.78351
 H3007 H 0.88757 0.65958 0.75745
 H3008 H 0.90575 0.64178 0.71628
 H3009 H 0.91693 0.55798 0.75811
 H3010 H 0.88427 0.54202 0.75074
 H3011 H 0.89904 0.57548 0.79856
 H3012 H 0.86647 0.55943 0.79100
 C3013 C 0.40016 1.13351 0.76124
 C3014 C 0.38701 1.11729 0.77945
 C3015 C 0.38760 1.08979 0.77460
 C3016 C 0.39811 1.07972 0.75076
 C3017 C 0.40833 1.09690 0.73121
 C3018 C 0.41051 1.12363 0.73790
 C3019 C 0.40272 1.14767 0.72263
 C3020 C 0.39134 1.15852 0.74825
 H3021 H 0.37930 1.07608 0.78878
 H3022 H 0.39749 1.05862 0.74740
 H3023 H 0.38744 1.14347 0.70737
 H3024 H 0.42017 1.15893 0.71546
 H3025 H 0.36945 1.16063 0.74790
 H3026 H 0.40227 1.17602 0.75576
 C3027 C 0.40053 0.63288 1.26283
 C3028 C 0.38413 0.61801 1.27966
 C3029 C 0.38138 0.59083 1.27337
 C3030 C 0.39201 0.58031 1.24981
 C3031 C 0.40534 0.59664 1.23146
 C3032 C 0.41057 0.62258 1.23947
 C3033 C 0.40679 0.64792 1.22483
 C3034 C 0.39575 0.65928 1.25030
 H3035 H 0.37100 0.57745 1.28642
 H3036 H 0.38907 0.55953 1.24579
 H3037 H 0.39184 0.64633 1.20877
 H3038 H 0.42589 0.65705 1.21891
 H3039 H 0.37438 0.66434 1.24905
 H3040 H 0.40851 0.67497 1.25884
 C3041 C 1.13104 1.26380 0.90015
 C3042 C 1.11577 1.28057 0.88403
 C3043 C 1.08878 1.27358 0.88096
 C3044 C 1.07878 1.24967 0.89131
 C3045 C 1.09548 1.23163 0.90464
 C3046 C 1.12127 1.24012 0.90992
 C3047 C 1.14691 1.22611 0.90584
 C3048 C 1.15769 1.25195 0.89509
 H3049 H 1.07509 1.28643 0.87072
 H3050 H 1.05808 1.24523 0.88830
 H3051 H 1.14558 1.21026 0.89068
 H3052 H 1.15625 1.22011 0.92483
 H3053 H 1.16267 1.25114 0.87368
 H3054 H 1.17328 1.26062 0.90792
 C3055 C 1.13252 0.76296 0.39934
 C3056 C 1.11722 0.78041 0.38396
 C3057 C 1.08982 0.77451 0.38219
 C3058 C 1.07940 0.75085 0.39271
 C3059 C 1.09598 0.73213 0.40514
 C3060 C 1.12225 0.73962 0.40942
 C3061 C 1.14712 0.72462 0.40430
 C3062 C 1.15845 0.75006 0.39316
 H3063 H 1.07614 0.78792 0.37271
 H3064 H 1.05846 0.74707 0.39049
 H3065 H 1.14455 0.70888 0.38918
 H3066 H 1.15695 0.71820 0.42290
 H3067 H 1.16251 0.74912 0.37156
 H3068 H 1.17491 0.75804 0.40535
 C3069 C 0.59524 1.26834 0.37437
 C3070 C 0.62201 1.27489 0.37682
 C3071 C 0.63911 1.25525 0.38691
 C3072 C 0.62897 1.23132 0.39693
 C3073 C 0.60146 1.22647 0.39719
 C3074 C 0.58526 1.24485 0.38429
 C3075 C 0.56027 1.25770 0.39332
 C3076 C 0.57123 1.28349 0.38243
 H3077 H 0.66026 1.25847 0.38749
 H3078 H 0.64268 1.21692 0.40486
 H3079 H 0.55816 1.25761 0.41522
 H3080 H 0.54275 1.25043 0.38223
 H3081 H 0.57549 1.29841 0.39799
 H3082 H 0.56000 1.29103 0.36508
 C3083 C 0.59389 0.76824 0.87337
 C3084 C 0.62074 0.77462 0.87546
 C3085 C 0.63780 0.75481 0.88536
 C3086 C 0.62758 0.73104 0.89573
 C3087 C 0.60003 0.72646 0.89648
 C3088 C 0.58384 0.74488 0.88358
 C3089 C 0.55901 0.75796 0.89271
 C3090 C 0.57004 0.78359 0.88152
 H3091 H 0.65897 0.75787 0.88573
 H3092 H 0.64125 0.71659 0.90363
 H3093 H 0.55708 0.75806 0.91463
 H3094 H 0.54135 0.75071 0.88183
 H3095 H 0.57452 0.79861 0.89692
 H3096 H 0.55870 0.79107 0.86421
 C3097 C 0.86653 1.26201 1.10066
 C3098 C 0.88176 1.27928 1.11623
 C3099 C 0.90916 1.27339 1.11801
 C3100 C 0.91968 1.24993 1.10720
 C3101 C 0.90319 1.23135 1.09452
 C3102 C 0.87688 1.23882 1.09033
 C3103 C 0.85207 1.22370 1.09531
 C3104 C 0.84065 1.24896 1.10671
 H3105 H 0.92278 1.28672 1.12765
 H3106 H 0.94064 1.24620 1.10937
 H3107 H 0.85470 1.20777 1.11027
 H3108 H 0.84225 1.21749 1.07665
 H3109 H 0.83661 1.24774 1.12831
 H3110 H 0.82416 1.25707 1.09462
 C3111 C 0.86846 0.76159 0.60157
 C3112 C 0.88448 0.77963 0.61510
 C3113 C 0.91194 0.77441 0.61551
 C3114 C 0.92209 0.75049 0.60529
 C3115 C 0.90503 0.73120 0.59444
 C3116 C 0.87840 0.73816 0.59157
 C3117 C 0.85401 0.72319 0.59882
 C3118 C 0.84310 0.74893 0.60979
 H3119 H 0.92554 0.78845 0.62417
 H3120 H 0.94317 0.74694 0.60647
 H3121 H 0.85770 0.70796 0.61427
 H3122 H 0.84311 0.71609 0.58110
 H3123 H 0.84043 0.74869 0.63163
 H3124 H 0.82594 0.75660 0.59837
 C3125 C 0.37330 1.26775 0.59529
 C3126 C 0.37843 1.27591 0.62138
 C3127 C 0.39184 1.25748 0.63774
 C3128 C 0.40166 1.23351 0.62746
 C3129 C 0.39895 1.22729 0.60036
 C3130 C 0.38336 1.24435 0.58514
 C3131 C 0.38887 1.25635 0.55875
 C3132 C 0.37794 1.28202 0.56976
 H3133 H 0.39460 1.26110 0.65863
 H3134 H 0.41164 1.22014 0.64086
 H3135 H 0.37629 1.24775 0.54292
 H3136 H 0.41036 1.25722 0.55417
 H3137 H 0.35918 1.28816 0.56008
 H3138 H 0.39307 1.29786 0.57156
 C3139 C 0.39966 0.76258 1.13177
 C3140 C 0.38307 0.77932 1.11700
 C3141 C 0.38020 0.77309 1.08979
 C3142 C 0.39107 0.74973 1.07912
 C3143 C 0.40477 0.73153 1.09532
 C3144 C 0.40995 0.73943 1.12133
 C3145 C 0.40634 0.72460 1.14660
 C3146 C 0.39502 0.74985 1.15813
 H3147 H 0.36961 0.78607 1.07649
 H3148 H 0.38809 0.74575 1.05831
 H3149 H 0.42550 0.71883 1.15571
 H3150 H 0.39157 0.70842 1.14490
 H3151 H 0.40770 0.75841 1.17391
 H3152 H 0.37366 0.74836 1.16317
 C3153 C 0.89588 0.73916 0.86665
 C3154 C 0.88301 0.72070 0.88278
 C3155 C 0.88342 0.72543 0.91034
 C3156 C 0.89370 0.74928 0.92057
 C3157 C 0.90387 0.76894 0.90349
 C3158 C 0.90600 0.76248 0.87667
 C3159 C 0.89792 0.77785 0.85277
 C3160 C 0.88679 0.75223 0.84176
 H3161 H 0.87531 0.71108 0.92399
 H3162 H 0.89310 0.75251 0.94172
 H3163 H 0.91524 0.78529 0.84147
 H3164 H 0.88250 0.79288 0.85719
 H3165 H 0.89772 0.74499 0.82411
 H3166 H 0.86489 0.75236 0.83977
 C3167 C 0.90432 0.23151 0.37428
 C3168 C 0.87755 0.22490 0.37668
 C3169 C 0.86053 0.24433 0.38730
 C3170 C 0.87078 0.26811 0.39766
 C3171 C 0.89831 0.27301 0.39770
 C3172 C 0.91437 0.25481 0.38445
 C3173 C 0.93943 0.24182 0.39312
 C3174 C 0.92839 0.21623 0.38195
 H3175 H 0.83940 0.24108 0.38802
 H3176 H 0.85716 0.28235 0.40596
 H3177 H 0.94171 0.24155 0.41500
 H3178 H 0.95687 0.24927 0.38200
 H3179 H 0.92424 0.20105 0.39733
 H3180 H 0.93950 0.20898 0.36442
 C3181 C 0.40210 0.73468 0.37106
 C3182 C 0.37560 0.72727 0.37496
 C3183 C 0.35930 0.74594 0.38813
 C3184 C 0.36996 0.76920 0.39911
 C3185 C 0.39731 0.77451 0.39768
 C3186 C 0.41257 0.75742 0.38217
 C3187 C 0.43833 0.74446 0.38833
 C3188 C 0.42697 0.71948 0.37625
 H3189 H 0.33820 0.74303 0.38992
 H3190 H 0.35669 0.78276 0.40897
 H3191 H 0.44205 0.74281 0.40996
 H3192 H 0.45489 0.75293 0.37661
 H3193 H 0.42410 0.70326 0.39084
 H3194 H 0.43717 0.71359 0.35769
 C3195 C 0.40252 0.23353 0.87239
 C3196 C 0.37634 0.22536 0.87696
 C3197 C 0.35981 0.24363 0.89037
 C3198 C 0.36999 0.26743 0.90067
 C3199 C 0.39712 0.27365 0.89842
 C3200 C 0.41254 0.25675 0.88289
 C3201 C 0.43880 0.24463 0.88873
 C3202 C 0.42792 0.21914 0.87731
 H3203 H 0.33889 0.24000 0.89278
 H3204 H 0.35649 0.28070 0.91063
 H3205 H 0.44300 0.24346 0.91029
 H3206 H 0.45487 0.25336 0.87653
 H3207 H 0.42582 0.20310 0.89222
 H3208 H 0.43791 0.21323 0.85864
 C3209 C 1.12864 0.73472 1.09822
 C3210 C 1.11345 0.71784 1.11429
 C3211 C 1.08640 0.72472 1.11732
 C3212 C 1.07631 0.74867 1.10709
 C3213 C 1.09294 0.76678 1.09383
 C3214 C 1.11875 0.75838 1.08851
 C3215 C 1.14431 0.77251 1.09258
 C3216 C 1.15523 0.74670 1.10329
 H3217 H 1.07274 0.71181 1.12748
 H3218 H 1.05561 0.75311 1.11015
 H3219 H 1.14291 0.78833 1.10776
 H3220 H 1.15359 0.77857 1.07358
 H3221 H 1.16021 0.74751 1.12470
 H3222 H 1.17088 0.73812 1.09045
 C3223 C 1.09484 0.23112 0.62430
 C3224 C 1.12191 0.22541 0.62330
 C3225 C 1.13882 0.24562 0.61399
 C3226 C 1.12841 0.26913 0.60322
 C3227 C 1.10083 0.27309 0.60157
 C3228 C 1.08461 0.25428 0.61379
 C3229 C 1.06052 0.24066 0.60360
 C3230 C 1.07174 0.21524 0.61511
 H3231 H 1.16008 0.24318 0.61454
 H3232 H 1.14198 0.28394 0.59582
 H3233 H 1.05947 0.24064 0.58162
 H3234 H 1.04226 0.24744 0.61379
 H3235 H 1.07722 0.20043 0.59984
 H3236 H 1.05990 0.20740 0.63190
 C3237 C 0.63353 0.73901 0.60133
 C3238 C 0.61791 0.72078 0.61508
 C3239 C 0.59035 0.72553 0.61565
 C3240 C 0.57973 0.74935 0.60564
 C3241 C 0.59642 0.76894 0.59480
 C3242 C 0.62311 0.76234 0.59151
 C3243 C 0.64741 0.77762 0.59837
 C3244 C 0.65884 0.75201 0.60917
 H3245 H 0.57705 0.71131 0.62452
 H3246 H 0.55863 0.75265 0.60712
 H3247 H 0.64376 0.79276 0.61388
 H3248 H 0.65793 0.78492 0.58049
 H3249 H 0.66185 0.75223 0.63096
 H3250 H 0.67593 0.74461 0.59748
 C3251 C 0.59660 0.23448 1.13005
 C3252 C 0.62288 0.22673 1.12527
 C3253 C 0.63913 0.24549 1.11219
 C3254 C 0.62854 0.26912 1.10188
 C3255 C 0.60125 0.27470 1.10384
 C3256 C 0.58615 0.25758 1.11951
 C3257 C 0.56005 0.24508 1.11391
 C3258 C 0.57139 0.21974 1.12537
 H3259 H 0.66014 0.24229 1.10987
 H3260 H 0.64180 0.28267 1.09199
 H3261 H 0.55572 0.24380 1.09238
 H3262 H 0.54394 0.25361 1.12618
 H3263 H 0.57362 0.20371 1.11052
 H3264 H 0.56164 0.21374 1.14415
 C3265 C 1.26160 1.10083 0.86528
 C3266 C 1.27944 1.11504 0.88091
 C3267 C 1.27439 1.11589 0.90840
 C3268 C 1.25064 1.10564 0.91892
 C3269 C 1.23133 1.09434 0.90219
 C3270 C 1.23826 1.09085 0.87559
 C3271 C 1.22316 1.09724 0.85101
 C3272 C 1.24878 1.10818 0.83971
 H3273 H 1.28836 1.12511 0.92171
 H3274 H 1.24720 1.10726 0.93998
 H3275 H 1.20776 1.11260 0.85427
 H3276 H 1.21620 1.07918 0.84063
 H3277 H 1.24829 1.12990 0.83640
 H3278 H 1.25655 1.09639 0.82288
 C3279 C 1.26625 0.62631 0.40232
 C3280 C 1.27289 0.62330 0.37563
 C3281 C 1.25372 0.61180 0.35892
 C3282 C 1.23017 0.60122 0.36946
 C3283 C 1.22528 0.60173 0.39699
 C3284 C 1.24319 0.61581 0.41269
 C3285 C 1.25644 0.60811 0.43794
 C3286 C 1.28176 0.61965 0.42655
 H3287 H 1.25703 0.61062 0.33780
 H3288 H 1.21609 0.59234 0.35603
 H3289 H 1.25726 0.58633 0.44079
 H3290 H 1.24873 0.61944 0.45512
 H3291 H 1.29733 0.60459 0.42278
 H3292 H 1.28858 0.63762 0.43717
 C3293 C 0.76387 1.09840 0.36680
 C3294 C 0.78162 1.11246 0.38268
 C3295 C 0.77618 1.11342 0.41008
 C3296 C 0.75218 1.10341 0.42024
 C3297 C 0.73298 1.09231 0.40322
 C3298 C 0.74029 1.08868 0.37674
 C3299 C 0.72564 1.09517 0.35191
 C3300 C 0.75155 1.10582 0.34101
 H3301 H 0.79003 1.12260 0.42356
 H3302 H 0.74843 1.10512 0.44125
 H3303 H 0.71036 1.11069 0.35490
 H3304 H 0.71867 1.07717 0.34146
 H3305 H 0.75133 1.12754 0.33764
 H3306 H 0.75947 1.09391 0.32433
 C3307 C 0.76079 0.60170 0.86689
 C3308 C 0.77893 0.61499 0.88304
 C3309 C 0.77406 0.61458 0.91057
 C3310 C 0.75031 0.60395 0.92073
 C3311 C 0.73090 0.59342 0.90360
 C3312 C 0.73756 0.59123 0.87684
 C3313 C 0.72220 0.59888 0.85280
 C3314 C 0.74771 0.61041 0.84186
 H3315 H 0.78820 0.62300 0.92424
 H3316 H 0.74691 0.60464 0.94186
 H3317 H 0.70684 0.61403 0.85701
 H3318 H 0.71515 0.58137 0.84157
 H3319 H 0.74720 0.63227 0.83972
 H3320 H 0.75528 0.59953 0.82433
 C3321 C 1.26566 0.90256 1.12600
 C3322 C 1.27239 0.87590 1.12312
 C3323 C 1.25305 0.85901 1.11219
 C3324 C 1.22924 0.86932 1.10193
 C3325 C 1.22423 0.89680 1.10221
 C3326 C 1.24233 0.91270 1.11581
 C3327 C 1.25529 0.93790 1.10761
 C3328 C 1.28089 0.92677 1.11880
 H3329 H 1.25642 0.83792 1.11118
 H3330 H 1.21507 0.85576 1.09342
 H3331 H 1.24771 0.95513 1.11892
 H3332 H 1.25568 0.94053 1.08577
 H3333 H 1.28801 0.93759 1.13654
 H3334 H 1.29619 0.92292 1.10346
 C3335 C 1.26205 0.36762 0.60041
 C3336 C 1.28026 0.38365 0.61368
 C3337 C 1.27533 0.41115 0.61361
 C3338 C 1.25142 0.42137 0.60338
 C3339 C 1.23190 0.40433 0.59297
 C3340 C 1.23864 0.37763 0.59037
 C3341 C 1.22348 0.35347 0.59794
 C3342 C 1.24920 0.34247 0.60897
 H3343 H 1.28952 0.42473 0.62206
 H3344 H 1.24800 0.44245 0.60433
 H3345 H 1.21621 0.34246 0.58037
 H3346 H 1.20833 0.35744 0.61338
 H3347 H 1.25668 0.32514 0.59774
 H3348 H 1.24902 0.34004 0.63084
 C3349 C 0.76244 0.86749 0.59991
 C3350 C 0.78072 0.88365 0.61293
 C3351 C 0.77560 0.91111 0.61297
 C3352 C 0.75147 0.92117 0.60316
 C3353 C 0.73190 0.90401 0.59307
 C3354 C 0.73878 0.87736 0.59030
 C3355 C 0.72394 0.85306 0.59807
 C3356 C 0.74993 0.84223 0.60864
 H3357 H 0.78983 0.92478 0.62121
 H3358 H 0.74794 0.94224 0.60416
 H3359 H 0.71645 0.84203 0.58061
 H3360 H 0.70903 0.85688 0.61379
 H3361 H 0.75735 0.82499 0.59724
 H3362 H 0.75014 0.83975 0.63050
 C3363 C 0.76638 0.40370 1.12586
 C3364 C 0.77244 0.37678 1.12386
 C3365 C 0.75254 0.36003 1.11372
 C3366 C 0.72893 0.37061 1.10324
 C3367 C 0.72465 0.39820 1.10264
 C3368 C 0.74320 0.41408 1.11559
 C3369 C 0.75665 0.43871 1.10648
 C3370 C 0.78211 0.42731 1.11775
 H3371 H 0.75532 0.33883 1.11337
 H3372 H 0.71435 0.35719 1.09521
 H3373 H 0.74958 0.45644 1.11734
 H3374 H 0.75686 0.44066 1.08457
 H3375 H 0.78967 0.43852 1.13507
 H3376 H 0.79713 0.42262 1.10239
 C3377 C 0.74032 1.13481 1.10248
 C3378 C 0.72147 1.11873 1.11483
 C3379 C 0.72570 1.09112 1.11372
 C3380 C 0.74954 1.08070 1.10358
 C3381 C 0.76962 1.09762 1.09413
 C3382 C 0.76363 1.12457 1.09241
 C3383 C 0.77932 1.14798 1.10109
 C3384 C 0.75374 1.15922 1.11218
 H3385 H 0.71102 1.07753 1.12129
 H3386 H 0.75245 1.05951 1.10379
 H3387 H 0.78714 1.15946 1.08405
 H3388 H 0.79413 1.14298 1.11658
 H3389 H 0.74692 1.17720 1.10153
 H3390 H 0.75366 1.16076 1.13413
 C3391 C 0.73373 0.59558 0.62656
 C3392 C 0.72730 0.62234 0.62378
 C3393 C 0.74672 0.63902 0.61263
 C3394 C 0.77023 0.62845 0.60199
 C3395 C 0.77485 0.60091 0.60210
 C3396 C 0.75678 0.58518 0.61600
 C3397 C 0.74338 0.56017 0.60801
 C3398 C 0.71809 0.57158 0.61961
 H3399 H 0.74361 0.66016 0.61167
 H3400 H 0.78445 0.64186 0.59330
 H3401 H 0.75093 0.54281 0.61921
 H3402 H 0.74261 0.55760 0.58618
 H3403 H 0.71113 0.56081 0.63747
 H3404 H 0.70260 0.57566 0.60452
 C3405 C 0.23351 1.09531 0.62501
 C3406 C 0.22749 1.12227 0.62343
 C3407 C 0.24740 1.13916 0.61348
 C3408 C 0.27094 1.12875 0.60276
 C3409 C 0.27519 1.10118 0.60180
 C3410 C 0.25666 1.08508 0.61455
 C3411 C 0.24318 1.06064 0.60508
 C3412 C 0.21775 1.07186 0.61653
 H3413 H 0.24469 1.16038 0.61351
 H3414 H 0.28553 1.14227 0.59489
 H3415 H 0.25025 1.04271 0.61565
 H3416 H 0.24295 1.05909 0.58313
 H3417 H 0.21019 1.06035 0.63368
 H3418 H 0.20272 1.07685 0.60126
 C3419 C 0.23700 0.63264 1.10121
 C3420 C 0.21879 0.61654 1.11443
 C3421 C 0.22390 0.58907 1.11459
 C3422 C 0.24793 0.57895 1.10464
 C3423 C 0.26743 0.59605 1.09426
 C3424 C 0.26057 0.62271 1.09146
 C3425 C 0.27551 0.64698 1.09904
 C3426 C 0.24963 0.65788 1.10976
 H3427 H 0.20969 0.57543 1.12295
 H3428 H 0.25143 0.55788 1.10569
 H3429 H 0.28290 0.65798 1.08148
 H3430 H 0.29053 0.64315 1.11465
 H3431 H 0.24215 0.67513 1.09835
 H3432 H 0.24958 0.66038 1.13161
 C3433 C 0.73784 0.86756 0.89938
 C3434 C 0.71911 0.88379 0.88705
 C3435 C 0.72377 0.91135 0.88779
 C3436 C 0.74789 0.92149 0.89750
 C3437 C 0.76784 0.90434 0.90687
 C3438 C 0.76143 0.87753 0.90902
 C3439 C 0.77662 0.85373 0.90046
 C3440 C 0.75073 0.84278 0.88985
 H3441 H 0.70922 0.92507 0.88016
 H3442 H 0.75113 0.94262 0.89699
 H3443 H 0.78448 0.84234 0.91756
 H3444 H 0.79131 0.85826 0.88472
 H3445 H 0.74375 0.82507 0.90083
 H3446 H 0.75035 0.84095 0.86793
 C3447 C 0.73960 0.36720 0.39748
 C3448 C 0.72155 0.38301 0.38366
 C3449 C 0.72642 0.41051 0.38329
 C3450 C 0.75014 0.42092 0.39372
 C3451 C 0.76953 0.40408 0.40476
 C3452 C 0.76283 0.37741 0.40769
 C3453 C 0.77817 0.35317 0.40074
 C3454 C 0.75265 0.34196 0.38952
 H3455 H 0.71233 0.42392 0.37436
 H3456 H 0.75350 0.44200 0.39247
 H3457 H 0.78522 0.34242 0.41859
 H3458 H 0.79352 0.35695 0.38545
 H3459 H 0.74505 0.32478 0.40093
 H3460 H 0.75315 0.33922 0.36770
 C3461 C 0.23408 0.90305 0.37269
 C3462 C 0.22775 0.87623 0.37501
 C3463 C 0.24729 0.85945 0.38589
 C3464 C 0.27076 0.86997 0.39672
 C3465 C 0.27526 0.89752 0.39696
 C3466 C 0.25710 0.91336 0.38331
 C3467 C 0.24366 0.93825 0.39167
 C3468 C 0.21837 0.92693 0.38001
 H3469 H 0.24431 0.83829 0.38657
 H3470 H 0.28504 0.85653 0.40530
 H3471 H 0.25113 0.95575 0.38067
 H3472 H 0.24295 0.94053 0.41354
 H3473 H 0.21132 0.93794 0.36233
 H3474 H 0.20295 0.92262 0.39510
 C3475 C 0.23747 0.36754 0.89906
 C3476 C 0.21919 0.38359 0.88585
 C3477 C 0.22408 0.41109 0.88585
 C3478 C 0.24801 0.42131 0.89593
 C3479 C 0.26759 0.40427 0.90630
 C3480 C 0.26092 0.37756 0.90897
 C3481 C 0.27608 0.35342 0.90136
 C3482 C 0.25033 0.34242 0.89046
 H3483 H 0.20981 0.42469 0.87749
 H3484 H 0.25139 0.44240 0.89496
 H3485 H 0.28346 0.34240 0.91891
 H3486 H 0.29115 0.35742 0.88584
 H3487 H 0.24294 0.32507 0.90175
 H3488 H 0.25041 0.34001 0.86860
   
