data_POSCAR
  _audit_creation_date              2014-09-24
  _audit_creation_method            'ToBaCCo'
  _symmetry_space_group_name_H-M    'P1'
  _symmetry_Int_Tables_number       1
  _symmetry_cell_setting            triclinic
  loop_
  _symmetry_equiv_pos_as_xyz
 x,y,z
_cell_length_a 37.9269
_cell_length_b 37.9988
_cell_length_c 37.8890
_cell_angle_alpha 89.858500
_cell_angle_beta 89.959800
_cell_angle_gamma 90.129200
loop_
  _atom_site_label
  _atom_site_type_symbol
  _atom_site_fract_x
  _atom_site_fract_y
  _atom_site_fract_z
C1 C 0.20589 1.09892 -0.01607
 C2 C 0.20781 1.09886 0.02005
 C3 C 0.23325 1.07425 0.02923
 N4 N 0.24514 1.05766 0.00010
 C5 C 0.22888 1.07318 -0.02744
 C6 C 0.24737 1.06816 0.06329
 C7 C 0.25575 1.03259 0.07280
 C8 C 0.27283 1.02155 0.10334
 C9 C 0.27333 0.98554 0.10291
 C10 C 0.25473 0.97484 0.07342
 N11 N 0.24497 1.00357 0.05461
 C12 C 0.24545 0.93939 0.06574
 C13 C 0.24471 0.92717 0.03011
 C14 C 0.24489 0.89209 0.02005
 C15 C 0.24514 0.89135 -0.01587
 C16 C 0.24690 0.92594 -0.02749
 N17 N 0.24617 0.94784 0.00084
 C18 C 0.24745 0.93675 -0.06371
 C19 C 0.23727 0.97169 -0.07285
 C20 C 0.21982 0.98128 -0.10368
 C21 C 0.21816 1.01725 -0.10434
 C22 C 0.23298 1.02881 -0.07313
 N23 N 0.24404 1.00097 -0.05369
 C24 C 0.23470 1.06443 -0.06287
 H25 H 0.18877 1.11513 -0.03213
 H26 H 0.19214 1.11506 0.03748
 H27 H 0.25877 1.00227 -0.03055
 H28 H 0.28328 1.03675 0.12487
 H29 H 0.28579 0.96919 0.12267
 H30 H 0.24592 0.86875 0.03628
 H31 H 0.24327 0.86748 -0.03117
 H32 H 0.20606 1.03284 -0.12491
 H33 H 0.22837 1.00325 0.03269
 H34 H 0.20893 0.96420 -0.12372
 C35 C 0.78096 0.48379 0.59980
 C36 C 0.77988 0.51978 0.59876
 C37 C 0.75602 0.52890 0.57254
 N38 N 0.74461 0.49968 0.55573
 C39 C 0.75944 0.47225 0.57280
 C40 C 0.74279 0.56306 0.56540
 C41 C 0.73360 0.57176 0.52986
 C42 C 0.71590 0.60173 0.51853
 C43 C 0.71459 0.60051 0.48247
 C44 C 0.73347 0.57126 0.47203
 N45 N 0.74401 0.55318 0.50098
 C46 C 0.74259 0.56337 0.43657
 C47 C 0.74399 0.52784 0.42474
 C48 C 0.74322 0.51744 0.38970
 C49 C 0.74460 0.48163 0.38938
 C50 C 0.74471 0.47054 0.42426
 N51 N 0.74457 0.49900 0.44588
 C52 C 0.74724 0.43485 0.43557
 C53 C 0.75693 0.42688 0.47084
 C54 C 0.77705 0.39813 0.48109
 C55 C 0.77745 0.39766 0.51721
 C56 C 0.75888 0.42695 0.52812
 N57 N 0.74707 0.44520 0.49979
 C58 C 0.75464 0.43679 0.56366
 H59 H 0.79708 0.46804 0.61726
 H60 H 0.79539 0.53708 0.61524
 H61 H 0.73016 0.46678 0.50046
 H62 H 0.70540 0.62338 0.53330
 H63 H 0.70166 0.61974 0.46586
 H64 H 0.74109 0.53344 0.36622
 H65 H 0.74653 0.46619 0.36560
 H66 H 0.79114 0.37866 0.53346
 H67 H 0.76104 0.53168 0.50086
 H68 H 0.79064 0.37954 0.46437
 C69 C 0.74762 1.01673 1.11192
 C70 C 0.74941 0.98084 1.11167
 C71 C 0.74921 0.97048 1.07656
 N72 N 0.74789 0.99927 1.05542
 C73 C 0.74708 1.02767 1.07697
 C74 C 0.75275 0.93527 1.06426
 C75 C 0.76341 0.92974 1.02890
 C76 C 0.78820 0.90523 1.01812
 C77 C 0.78853 0.90594 0.98191
 C78 C 0.76399 0.93086 0.97163
 N79 N 0.74974 0.94638 1.00041
 C80 C 0.75401 0.93762 0.93639
 C81 C 0.74991 0.97281 0.92480
 C82 C 0.74965 0.98379 0.88987
 C83 C 0.74731 1.01962 0.89022
 C84 C 0.74664 1.02970 0.92536
 N85 N 0.74814 1.00098 0.94646
 C86 C 0.74251 1.06461 0.93765
 C87 C 0.73245 1.07037 0.97298
 C88 C 0.70805 1.09512 0.98389
 C89 C 0.70819 1.09454 1.02010
 C90 C 0.73274 1.06946 1.03017
 N91 N 0.74641 1.05373 1.00129
 C92 C 0.74379 1.06311 1.06521
 H93 H 0.74605 1.03251 1.13555
 H94 H 0.75169 0.96473 1.13508
 H95 H 0.76719 1.03575 1.00098
 H96 H 0.80430 0.88848 1.03466
 H97 H 0.80490 0.88987 0.96502
 H98 H 0.75187 0.96811 0.86623
 H99 H 0.74543 1.03591 0.86689
 H100 H 0.69236 1.11099 1.03715
 H101 H 0.72893 0.96433 1.00052
 H102 H 0.69193 1.11194 0.96743
 C103 C 0.26031 0.51948 0.61239
 C104 C 0.26241 0.48358 0.61257
 C105 C 0.26294 0.47311 0.57765
 N106 N 0.26140 0.50160 0.55614
 C107 C 0.25858 0.53011 0.57730
 C108 C 0.26703 0.43804 0.56584
 C109 C 0.27572 0.43197 0.53038
 C110 C 0.30104 0.40868 0.51848
 C111 C 0.29829 0.40813 0.48225
 C112 C 0.27074 0.43045 0.47347
 N113 N 0.25832 0.44618 0.50287
 C114 C 0.25518 0.43494 0.43994
 C115 C 0.24453 0.46953 0.43066
 C116 C 0.22281 0.47952 0.40298
 C117 C 0.22135 0.51554 0.40353
 C118 C 0.24419 0.52671 0.42970
 N119 N 0.25745 0.49855 0.44692
 C120 C 0.25547 0.56175 0.43593
 C121 C 0.26360 0.57232 0.47125
 C122 C 0.27812 0.60437 0.48146
 C123 C 0.27954 0.60449 0.51753
 C124 C 0.26389 0.57367 0.52914
 N125 N 0.25507 0.55373 0.50082
 C126 C 0.25654 0.56554 0.56509
 H127 H 0.26193 0.53547 0.63584
 H128 H 0.26512 0.46747 0.63596
 H129 H 0.24034 0.53056 0.50166
 H130 H 0.31930 0.39356 0.53435
 H131 H 0.31459 0.39288 0.46456
 H132 H 0.20905 0.46357 0.38400
 H133 H 0.20527 0.53152 0.38625
 H134 H 0.29058 0.62547 0.53331
 H135 H 0.23627 0.46255 0.50443
 H136 H 0.28617 0.62659 0.46578
 C137 C 1.11224 0.24161 -0.01906
 C138 C 1.11265 0.24168 0.01691
 C139 C 1.07790 0.24339 0.02813
 N140 N 1.05622 0.24301 -0.00041
 C141 C 1.07714 0.24177 -0.02950
 C142 C 1.06670 0.24379 0.06419
 C143 C 1.03175 0.23348 0.07298
 C144 C 1.02196 0.21517 0.10330
 C145 C 0.98587 0.21459 0.10427
 C146 C 0.97457 0.23113 0.07381
 N147 N 1.00259 0.24193 0.05441
 C148 C 0.93900 0.23453 0.06395
 C149 C 0.92999 0.22983 0.02846
 C150 C 0.90324 0.20820 0.01660
 C151 C 0.90385 0.21055 -0.01949
 C152 C 0.92973 0.23507 -0.02809
 N153 N 0.94656 0.24578 0.00132
 C154 C 0.93628 0.25011 -0.06169
 C155 C 0.97209 0.25778 -0.07105
 C156 C 0.98367 0.27595 -0.10082
 C157 C 1.01968 0.27525 -0.10053
 C158 C 1.02982 0.25470 -0.07212
 N159 N 1.00078 0.24508 -0.05358
 C160 C 1.06498 0.24353 -0.06524
 H161 H 1.13576 0.24272 -0.03507
 H162 H 1.13637 0.23990 0.03257
 H163 H 1.00047 0.22738 -0.03250
 H164 H 1.03903 0.20344 0.12291
 H165 H 0.96990 0.20227 0.12450
 H166 H 0.88603 0.19162 0.03226
 H167 H 0.88700 0.19596 -0.03728
 H168 H 1.03641 0.28797 -0.11989
 H169 H 1.00179 0.25774 0.03193
 H170 H 0.96899 0.28794 -0.12190
 C171 C 0.48249 0.73868 0.60986
 C172 C 0.51841 0.74087 0.60954
 C173 C 0.52895 0.74160 0.57439
 N174 N 0.50033 0.73842 0.55335
 C175 C 0.47186 0.73745 0.57499
 C176 C 0.56445 0.74302 0.56223
 C177 C 0.57267 0.73491 0.52653
 C178 C 0.60307 0.71824 0.51548
 C179 C 0.60330 0.71923 0.47936
 C180 C 0.57180 0.73456 0.46862
 N181 N 0.55324 0.74394 0.49791
 C182 C 0.56168 0.74254 0.43308
 C183 C 0.52698 0.75486 0.42661
 C184 C 0.51663 0.77771 0.40010
 C185 C 0.48050 0.77785 0.39990
 C186 C 0.46971 0.75699 0.42803
 N187 N 0.49831 0.74306 0.44424
 C188 C 0.43468 0.74787 0.43762
 C189 C 0.42968 0.73173 0.47084
 C190 C 0.40641 0.70466 0.47896
 C191 C 0.40650 0.70124 0.51515
 C192 C 0.43034 0.72581 0.52770
 N193 N 0.44543 0.74326 0.50058
 C194 C 0.43662 0.73347 0.56336
 H195 H 0.46649 0.73660 0.63340
 H196 H 0.53446 0.74011 0.63304
 H197 H 0.46240 0.76486 0.50255
 H198 H 0.62353 0.70673 0.53166
 H199 H 0.62536 0.71031 0.46401
 H200 H 0.53319 0.79285 0.38243
 H201 H 0.46504 0.79196 0.38077
 H202 H 0.39075 0.68301 0.53053
 H203 H 0.53051 0.75929 0.49847
 H204 H 0.39070 0.68924 0.46082
 C205 C -0.01730 0.75406 -0.11180
 C206 C 0.01860 0.75461 -0.11183
 C207 C 0.02952 0.75200 -0.07699
 N208 N 0.00072 0.75154 -0.05559
 C209 C -0.02815 0.75308 -0.07682
 C210 C 0.06552 0.75175 -0.06549
 C211 C 0.07395 0.76135 -0.03022
 C212 C 0.10406 0.77966 -0.01999
 C213 C 0.10443 0.78029 0.01611
 C214 C 0.07390 0.76364 0.02709
 N215 N 0.05498 0.75278 -0.00122
 C216 C 0.06349 0.76054 0.06264
 C217 C 0.02791 0.76548 0.07111
 C218 C 0.01580 0.78751 0.09737
 C219 C -0.02023 0.78554 0.09621
 C220 C -0.02864 0.76081 0.07058
 N221 N 0.00091 0.74962 0.05432
 C222 C -0.06228 0.74603 0.06392
 C223 C -0.07129 0.73806 0.02807
 C224 C -0.10112 0.72018 0.01636
 C225 C -0.10031 0.72048 -0.01972
 C226 C -0.07150 0.74051 -0.02983
 N227 N -0.05327 0.75017 -0.00066
 C228 C -0.06406 0.75137 -0.06511
 H229 H -0.03297 0.75335 -0.13555
 H230 H 0.03432 0.75763 -0.13542
 H231 H -0.03198 0.76759 -0.00035
 H232 H 0.12381 0.79172 -0.03673
 H233 H 0.12425 0.79288 0.03227
 H234 H 0.03125 0.80415 0.11460
 H235 H -0.03813 0.80047 0.11260
 H236 H -0.11961 0.70793 -0.03653
 H237 H 0.03239 0.73715 -0.00065
 H238 H -0.12255 0.70867 0.03096
 C239 C 0.61241 0.25736 0.51754
 C240 C 0.61206 0.25663 0.48147
 C241 C 0.57715 0.25275 0.47121
 N242 N 0.55632 0.25045 0.50016
 C243 C 0.57775 0.25371 0.52857
 C244 C 0.56511 0.24760 0.43611
 C245 C 0.52969 0.23754 0.43028
 C246 C 0.51855 0.21269 0.40599
 C247 C 0.48235 0.21366 0.40581
 C248 C 0.47246 0.23894 0.43012
 N249 N 0.50142 0.25240 0.44607
 C250 C 0.43750 0.24993 0.43657
 C251 C 0.42631 0.25447 0.47200
 C252 C 0.39167 0.25809 0.48303
 C253 C 0.39203 0.25765 0.51907
 C254 C 0.42693 0.25384 0.52936
 N255 N 0.44775 0.25138 0.50044
 C256 C 0.43885 0.24874 0.56453
 C257 C 0.47408 0.23833 0.57053
 C258 C 0.48476 0.21337 0.59499
 C259 C 0.52098 0.21368 0.59500
 C260 C 0.53132 0.23877 0.57051
 N261 N 0.50261 0.25267 0.55454
 C262 C 0.56647 0.24936 0.56402
 H263 H 0.63609 0.25802 0.53333
 H264 H 0.63551 0.25656 0.46530
 H265 H 0.50249 0.27354 0.53655
 H266 H 0.53485 0.19567 0.38999
 H267 H 0.46523 0.19744 0.38976
 H268 H 0.36792 0.25846 0.46733
 H269 H 0.36857 0.25763 0.53521
 H270 H 0.53781 0.19722 0.61111
 H271 H 0.50193 0.27332 0.46389
 H272 H 0.46816 0.19661 0.61112
 C273 C 1.11089 -0.01836 0.24764
 C274 C 1.11134 0.01751 0.24622
 C275 C 1.07668 0.02868 0.24940
 N276 N 1.05500 0.00039 0.25185
 C277 C 1.07586 -0.02852 0.25084
 C278 C 1.06528 0.06433 0.24833
 C279 C 1.02983 0.07164 0.23880
 C280 C 1.01950 0.09866 0.21644
 C281 C 0.98336 0.09837 0.21572
 C282 C 0.97245 0.07118 0.23760
 N283 N 1.00096 0.05407 0.25064
 C284 C 0.93680 0.06358 0.24578
 C285 C 0.92497 0.02818 0.24737
 C286 C 0.89025 0.01727 0.24354
 C287 C 0.89013 -0.01857 0.24607
 C288 C 0.92487 -0.02880 0.25068
 N289 N 0.94615 -0.00012 0.25136
 C290 C 0.93648 -0.06368 0.25694
 C291 C 0.97154 -0.06919 0.26777
 C292 C 0.98212 -0.09253 0.29378
 C293 C 1.01832 -0.09237 0.29359
 C294 C 1.02865 -0.06892 0.26743
 N295 N 1.00001 -0.05367 0.25284
 C296 C 1.06358 -0.06363 0.25568
 H297 H 1.13425 -0.03456 0.24742
 H298 H 1.13487 0.03315 0.24242
 H299 H 0.99994 -0.03678 0.23103
 H300 H 1.03630 0.11661 0.20188
 H301 H 0.96694 0.11605 0.20051
 H302 H 0.86711 0.03306 0.23861
 H303 H 0.86665 -0.03469 0.24548
 H304 H 1.03519 -0.10806 0.31042
 H305 H 1.00064 0.03414 0.26964
 H306 H 0.96544 -0.10819 0.31092
 C307 C 0.48055 0.59820 0.70631
 C308 C 0.51670 0.59899 0.70577
 C309 C 0.52763 0.57311 0.72892
 N310 N 0.49980 0.55687 0.74400
 C311 C 0.47088 0.57314 0.73124
 C312 C 0.56290 0.56450 0.73563
 C313 C 0.57333 0.52903 0.73312
 C314 C 0.60479 0.51799 0.71846
 C315 C 0.60392 0.48198 0.71863
 C316 C 0.57272 0.47184 0.73505
 N317 N 0.55356 0.50083 0.74265
 C318 C 0.56334 0.43665 0.74365
 C319 C 0.52739 0.42564 0.74341
 C320 C 0.51618 0.39103 0.74093
 C321 C 0.48030 0.39136 0.74202
 C322 C 0.46992 0.42634 0.74343
 N323 N 0.49895 0.44726 0.74441
 C324 C 0.43437 0.43825 0.74630
 C325 C 0.42711 0.47386 0.75518
 C326 C 0.39869 0.48502 0.77512
 C327 C 0.39802 0.52101 0.77337
 C328 C 0.42757 0.53153 0.75437
 N329 N 0.44531 0.50236 0.74360
 C330 C 0.43667 0.56672 0.74464
 H331 H 0.46346 0.61416 0.69000
 H332 H 0.53307 0.61564 0.68929
 H333 H 0.46643 0.50184 0.72595
 H334 H 0.62560 0.53401 0.70730
 H335 H 0.62401 0.46527 0.70735
 H336 H 0.53174 0.36747 0.73785
 H337 H 0.46441 0.36780 0.74288
 H338 H 0.37722 0.53653 0.78466
 H339 H 0.53013 0.50156 0.75695
 H340 H 0.37982 0.46900 0.78934
 C341 C 1.02096 1.09913 0.71572
 C342 C 0.98482 1.09884 0.71558
 C343 C 0.97422 1.07285 0.73891
 N344 N 1.00274 1.05546 0.75117
 C345 C 1.03157 1.07144 0.73721
 C346 C 0.93947 1.06684 0.75146
 C347 C 0.92897 1.03168 0.76018
 C348 C 0.89740 1.02172 0.77602
 C349 C 0.89707 0.98574 0.77779
 C350 C 0.92729 0.97394 0.76118
 N351 N 0.94708 1.00207 0.75129
 C352 C 0.93507 0.93798 0.75424
 C353 C 0.97053 0.92565 0.75509
 C354 C 0.98071 0.89061 0.75763
 C355 C 1.01667 0.89001 0.75812
 C356 C 1.02779 0.92470 0.75685
 N357 N 0.99951 0.94647 0.75577
 C358 C 1.06331 0.93620 0.75941
 C359 C 1.06955 0.97169 0.76780
 C360 C 1.09244 0.98370 0.79356
 C361 C 1.09275 1.01982 0.79088
 C362 C 1.07076 1.02848 0.76287
 N363 N 1.05531 0.99906 0.75023
 C364 C 1.06654 1.06197 0.74704
 H365 H 1.03647 1.11799 0.70123
 H366 H 0.96840 1.11613 0.69998
 H367 H 1.03901 0.99745 0.72806
 H368 H 0.87573 1.03768 0.78486
 H369 H 0.87644 0.97015 0.78990
 H370 H 0.96445 0.86748 0.76086
 H371 H 1.03243 0.86653 0.76114
 H372 H 1.10784 1.03756 0.80732
 H373 H 0.96980 1.00102 0.73584
 H374 H 1.10739 0.96799 0.81211
 C375 C 0.51727 0.60046 0.21657
 C376 C 0.48120 0.60032 0.21776
 C377 C 0.47147 0.57434 0.24167
 N378 N 0.50031 0.55689 0.25312
 C379 C 0.52817 0.57328 0.23820
 C380 C 0.43714 0.56793 0.25493
 C381 C 0.42766 0.53256 0.26401
 C382 C 0.39739 0.52180 0.28174
 C383 C 0.39804 0.48581 0.28330
 C384 C 0.42723 0.47480 0.26448
 N385 N 0.44582 0.50338 0.25375
 C386 C 0.43473 0.43920 0.25577
 C387 C 0.47017 0.42682 0.25419
 C388 C 0.48002 0.39167 0.25457
 C389 C 0.51585 0.39071 0.25305
 C390 C 0.52757 0.42525 0.25334
 N391 N 0.49945 0.44735 0.25374
 C392 C 0.56354 0.43583 0.25102
 C393 C 0.57223 0.47093 0.24148
 C394 C 0.60158 0.48081 0.22184
 C395 C 0.60256 0.51680 0.22140
 C396 C 0.57295 0.52806 0.23940
 N397 N 0.55408 0.50006 0.25098
 C398 C 0.56346 0.56362 0.24339
 H399 H 0.53350 0.61755 0.20043
 H400 H 0.46424 0.61722 0.20232
 H401 H 0.53218 0.50106 0.26757
 H402 H 0.37595 0.53699 0.29219
 H403 H 0.37857 0.46965 0.29654
 H404 H 0.46366 0.36846 0.25648
 H405 H 0.53087 0.36675 0.25071
 H406 H 0.62212 0.53273 0.20804
 H407 H 0.46750 0.50282 0.23682
 H408 H 0.62026 0.46392 0.20857
 O409 O 0.25076 0.16167 0.19936
 O410 O 0.28813 0.14956 0.24764
 O411 O 0.15807 0.20262 0.25320
 O412 O 0.14482 0.24683 0.28785
 O413 O 0.19971 0.25359 0.15992
 O414 O 0.24715 0.29309 0.14984
 O415 O 0.25319 0.29650 0.34377
 O416 O 0.21292 0.25015 0.35338
 O417 O 0.34199 0.25291 0.29693
 O418 O 0.35388 0.21692 0.24710
 O419 O 0.29571 0.34371 0.25301
 O420 O 0.24588 0.35600 0.21713
 O421 O 0.25018 0.34033 0.30295
 O422 O 0.20700 0.35072 0.25288
 O423 O 0.33904 0.30253 0.25136
 O424 O 0.34846 0.25211 0.20763
 O425 O 0.30096 0.25084 0.34063
 O426 O 0.25278 0.20824 0.35091
 O427 O 0.24918 0.20534 0.15824
 O428 O 0.28789 0.25571 0.14948
 O429 O 0.15791 0.25259 0.20301
 O430 O 0.15073 0.29262 0.25475
 O431 O 0.20024 0.16030 0.24915
 O432 O 0.25061 0.14989 0.28811
 Zr433 Zr 0.24845 0.18853 0.24792
 O434 O 0.28245 0.21811 0.28044
 Zr435 Zr 0.18637 0.24998 0.25072
 O436 O 0.21685 0.28136 0.28487
 Zr437 Zr 0.24739 0.25215 0.18773
 O438 O 0.27981 0.28512 0.21822
 Zr439 Zr 0.25228 0.25018 0.31382
 O440 O 0.21796 0.21807 0.28362
 Zr441 Zr 0.31229 0.25381 0.25018
 O442 O 0.28211 0.22048 0.21708
 Zr443 Zr 0.24908 0.31420 0.25398
 O444 O 0.21619 0.28501 0.21970
 O445 O 0.21513 0.21840 0.21653
 O446 O 0.28373 0.28502 0.28510
 C447 C 0.25063 0.17273 0.16725
 C448 C 0.16788 0.17035 0.25184
 C449 C 0.16758 0.25392 0.17049
 C450 C 0.25214 0.32912 0.33493
 C451 C 0.33302 0.25192 0.32959
 C452 C 0.32820 0.33457 0.25200
 H453 H 0.29785 0.20195 0.29381
 H454 H 0.29357 0.30053 0.20227
 H455 H 0.19999 0.20351 0.20137
 H456 H 0.20121 0.29479 0.30077
 H457 H 0.19439 0.23352 0.34558
 H458 H 0.15370 0.25701 0.31013
 H459 H 0.34555 0.27390 0.19359
 H460 H 0.30582 0.23793 0.15593
 H461 H 0.27220 0.19208 0.34472
 H462 H 0.23337 0.15701 0.30637
 H463 H 0.26068 0.34962 0.19663
 H464 H 0.23094 0.31137 0.15888
 H465 H 0.30760 0.15902 0.23297
 H466 H 0.34708 0.19632 0.26158
 H467 H 0.15569 0.30871 0.23475
 H468 H 0.19266 0.34715 0.27442
 O469 O 0.75317 0.83803 0.19680
 O470 O 0.71398 0.85019 0.24438
 O471 O 0.84327 0.79538 0.25165
 O472 O 0.85494 0.75023 0.28663
 O473 O 0.80224 0.74451 0.15777
 O474 O 0.75331 0.70679 0.14734
 O475 O 0.74866 0.70241 0.34100
 O476 O 0.78724 0.74916 0.35084
 O477 O 0.65857 0.74751 0.29394
 O478 O 0.64931 0.78739 0.24329
 O479 O 0.70152 0.65780 0.25017
 O480 O 0.75231 0.64464 0.21310
 O481 O 0.74724 0.65902 0.29979
 O482 O 0.78956 0.64672 0.25054
 O483 O 0.65966 0.70039 0.24693
 O484 O 0.65121 0.75062 0.20546
 O485 O 0.69937 0.74625 0.33781
 O486 O 0.74722 0.79071 0.34818
 O487 O 0.75310 0.79482 0.15530
 O488 O 0.71429 0.74564 0.14583
 O489 O 0.84332 0.74592 0.20144
 O490 O 0.84933 0.70529 0.25211
 O491 O 0.80178 0.83843 0.24850
 O492 O 0.75125 0.85009 0.28496
 Zr493 Zr 0.75344 0.81101 0.24541
 O494 O 0.71876 0.78209 0.27798
 Zr495 Zr 0.81421 0.74841 0.24857
 O496 O 0.78269 0.71715 0.28198
 Zr497 Zr 0.75402 0.74785 0.18489
 O498 O 0.72008 0.71584 0.21506
 Zr499 Zr 0.74807 0.74887 0.31114
 O500 O 0.78304 0.78065 0.28126
 Zr501 Zr 0.68831 0.74776 0.24710
 O502 O 0.71967 0.78009 0.21402
 Zr503 Zr 0.74953 0.68547 0.25090
 O504 O 0.78386 0.71415 0.21732
 O505 O 0.78658 0.78082 0.21413
 O506 O 0.71574 0.71537 0.28199
 C507 C 0.75247 0.82732 0.16461
 C508 C 0.83390 0.82785 0.25115
 C509 C 0.83424 0.74421 0.16882
 C510 C 0.74788 0.66992 0.33189
 C511 C 0.66738 0.74618 0.32665
 C512 C 0.66932 0.66807 0.24863
 H513 H 0.70372 0.79837 0.29154
 H514 H 0.70592 0.70103 0.19899
 H515 H 0.80227 0.79551 0.19924
 H516 H 0.79806 0.70313 0.29767
 H517 H 0.80585 0.76572 0.34293
 H518 H 0.84570 0.73910 0.30837
 H519 H 0.65567 0.73066 0.18937
 H520 H 0.69602 0.76284 0.15279
 H521 H 0.72571 0.80486 0.34431
 H522 H 0.76582 0.84141 0.30481
 H523 H 0.73542 0.65027 0.19404
 H524 H 0.76851 0.68787 0.15687
 H525 H 0.69486 0.84103 0.22915
 H526 H 0.65394 0.80497 0.26192
 H527 H 0.84301 0.68875 0.23296
 H528 H 0.80529 0.65120 0.27085
 O529 O 0.75050 0.16286 0.80364
 O530 O 0.71445 0.15062 0.75371
 O531 O 0.84362 0.20612 0.75325
 O532 O 0.85654 0.25114 0.71822
 O533 O 0.79879 0.25514 0.84503
 O534 O 0.75008 0.29354 0.85415
 O535 O 0.75083 0.30021 0.66080
 O536 O 0.79115 0.25401 0.65180
 O537 O 0.66025 0.25271 0.70446
 O538 O 0.64861 0.21449 0.75397
 O539 O 0.70250 0.34348 0.75092
 O540 O 0.75215 0.35610 0.78932
 O541 O 0.74986 0.34303 0.70257
 O542 O 0.79036 0.35453 0.75299
 O543 O 0.66026 0.30097 0.75077
 O544 O 0.65073 0.25011 0.79298
 O545 O 0.70237 0.25320 0.66179
 O546 O 0.75126 0.21239 0.65168
 O547 O 0.74997 0.20582 0.84537
 O548 O 0.71061 0.25470 0.85380
 O549 O 0.84188 0.25577 0.80326
 O550 O 0.84978 0.29632 0.75265
 O551 O 0.80218 0.16279 0.75555
 O552 O 0.75396 0.15182 0.71498
 Zr553 Zr 0.75368 0.19018 0.75530
 O554 O 0.72015 0.21938 0.72199
 Zr555 Zr 0.81454 0.25304 0.75491
 O556 O 0.78422 0.28447 0.72059
 Zr557 Zr 0.75180 0.25287 0.81621
 O558 O 0.71921 0.28516 0.78531
 Zr559 Zr 0.75042 0.25306 0.68995
 O560 O 0.78446 0.22107 0.72074
 Zr561 Zr 0.68857 0.25343 0.75198
 O562 O 0.71861 0.22067 0.78565
 Zr563 Zr 0.75021 0.31578 0.75092
 O564 O 0.78313 0.28689 0.78542
 O565 O 0.78548 0.22033 0.78797
 O566 O 0.71723 0.28629 0.71830
 C567 C 0.74927 0.17342 0.83585
 C568 C 0.83438 0.17356 0.75404
 C569 C 0.83124 0.25614 0.83549
 C570 C 0.75025 0.33263 0.67035
 C571 C 0.67000 0.25290 0.67203
 C572 C 0.67023 0.33329 0.75097
 H573 H 0.70558 0.20306 0.70791
 H574 H 0.70457 0.29979 0.80107
 H575 H 0.80045 0.20560 0.80345
 H576 H 0.80005 0.29868 0.70547
 H577 H 0.80950 0.23742 0.66005
 H578 H 0.84837 0.26293 0.69643
 H579 H 0.65341 0.27114 0.80809
 H580 H 0.69270 0.23731 0.84620
 H581 H 0.73307 0.19480 0.65798
 H582 H 0.77085 0.16017 0.69685
 H583 H 0.73485 0.35015 0.80796
 H584 H 0.76634 0.31219 0.84575
 H585 H 0.69471 0.15914 0.76849
 H586 H 0.65532 0.19547 0.73754
 H587 H 0.84295 0.31267 0.77177
 H588 H 0.80681 0.35024 0.73320
 O589 O 0.25449 0.84453 0.79824
 O590 O 0.29096 0.85453 0.74752
 O591 O 0.15997 0.80349 0.75208
 O592 O 0.14588 0.75873 0.71574
 O593 O 0.20485 0.75081 0.84234
 O594 O 0.25493 0.71447 0.85116
 O595 O 0.24687 0.70598 0.65762
 O596 O 0.20744 0.75287 0.64967
 O597 O 0.33979 0.74961 0.69751
 O598 O 0.35236 0.79245 0.74683
 O599 O 0.29895 0.66247 0.74773
 O600 O 0.24850 0.65181 0.78794
 O601 O 0.25115 0.66350 0.69980
 O602 O 0.21122 0.65191 0.75056
 O603 O 0.34118 0.70492 0.74626
 O604 O 0.35407 0.75497 0.78442
 O605 O 0.29619 0.74964 0.65638
 O606 O 0.24883 0.79369 0.64762
 O607 O 0.25341 0.80224 0.84090
 O608 O 0.29355 0.75375 0.84929
 O609 O 0.16124 0.75302 0.80119
 O610 O 0.15057 0.71367 0.75227
 O611 O 0.20289 0.84545 0.75092
 O612 O 0.25017 0.85503 0.71011
 Zr613 Zr 0.25018 0.81663 0.75057
 O614 O 0.28178 0.78648 0.71641
 Zr615 Zr 0.18768 0.75540 0.75255
 O616 O 0.21648 0.72247 0.71842
 Zr617 Zr 0.25160 0.75461 0.81258
 O618 O 0.28319 0.72165 0.78122
 Zr619 Zr 0.24959 0.75308 0.68621
 O620 O 0.21754 0.78641 0.71733
 Zr621 Zr 0.31339 0.75243 0.74630
 O622 O 0.28493 0.78567 0.78072
 Zr623 Zr 0.25115 0.69088 0.74810
 O624 O 0.21924 0.72097 0.78261
 O625 O 0.21819 0.78761 0.78453
 O626 O 0.28321 0.71976 0.71413
 C627 C 0.25504 0.83452 0.83068
 C628 C 0.17040 0.83578 0.75147
 C629 C 0.17224 0.75043 0.83314
 C630 C 0.24867 0.67369 0.66749
 C631 C 0.32876 0.74829 0.66547
 C632 C 0.33132 0.67263 0.74687
 H633 H 0.29627 0.80217 0.70146
 H634 H 0.29805 0.70705 0.79687
 H635 H 0.20364 0.80247 0.80024
 H636 H 0.20002 0.70828 0.70406
 H637 H 0.19022 0.77064 0.65787
 H638 H 0.15237 0.74415 0.69515
 H639 H 0.34851 0.73758 0.80309
 H640 H 0.31126 0.77100 0.84080
 H641 H 0.26979 0.80883 0.65094
 H642 H 0.23410 0.84622 0.69153
 H643 H 0.26801 0.65620 0.80468
 H644 H 0.23922 0.69524 0.84318
 H645 H 0.31052 0.84553 0.76225
 H646 H 0.34904 0.80739 0.72568
 H647 H 0.15926 0.69569 0.76907
 H648 H 0.19398 0.65688 0.73163
 O649 O 0.24965 0.33899 0.69811
 O650 O 0.20696 0.34812 0.74464
 O651 O 0.33937 0.30122 0.75174
 O652 O 0.35143 0.25771 0.79091
 O653 O 0.30303 0.24796 0.66007
 O654 O 0.25530 0.20760 0.64859
 O655 O 0.24544 0.20227 0.84139
 O656 O 0.28551 0.24949 0.85148
 O657 O 0.15706 0.24302 0.79423
 O658 O 0.14744 0.28451 0.74254
 O659 O 0.20434 0.15638 0.74989
 O660 O 0.25739 0.14669 0.71277
 O661 O 0.24715 0.15918 0.79992
 O662 O 0.29222 0.14867 0.75299
 O663 O 0.16054 0.19689 0.74579
 O664 O 0.14908 0.24582 0.70628
 O665 O 0.19760 0.24692 0.83826
 O666 O 0.24369 0.28999 0.84999
 O667 O 0.25345 0.29600 0.65653
 O668 O 0.21526 0.24614 0.64583
 O669 O 0.34346 0.25063 0.70438
 O670 O 0.35083 0.21152 0.75455
 O671 O 0.29538 0.34179 0.74837
 O672 O 0.24469 0.35038 0.78614
 Zr673 Zr 0.24893 0.31164 0.74642
 O674 O 0.21551 0.28102 0.77860
 Zr675 Zr 0.31303 0.25230 0.75077
 O676 O 0.28245 0.21903 0.78331
 Zr677 Zr 0.25390 0.24883 0.68593
 O678 O 0.22077 0.21535 0.71541
 Zr679 Zr 0.24614 0.24916 0.81196
 O680 O 0.27972 0.28304 0.78280
 Zr681 Zr 0.18699 0.24551 0.74723
 O682 O 0.21728 0.27922 0.71435
 Zr683 Zr 0.25105 0.18620 0.75153
 O684 O 0.28479 0.21665 0.71891
 O685 O 0.28408 0.28292 0.71599
 O686 O 0.21562 0.21448 0.78228
 C687 C 0.25203 0.32847 0.66597
 C688 C 0.32807 0.33312 0.74997
 C689 C 0.33491 0.24889 0.67162
 C690 C 0.24549 0.16980 0.83205
 C691 C 0.16583 0.24400 0.82703
 C692 C 0.17171 0.16507 0.74764
 H693 H 0.19962 0.29659 0.79204
 H694 H 0.20757 0.20002 0.69902
 H695 H 0.29947 0.29796 0.70119
 H696 H 0.29785 0.20544 0.79935
 H697 H 0.30300 0.26763 0.84455
 H698 H 0.34441 0.24218 0.81070
 H699 H 0.15727 0.22935 0.68786
 H700 H 0.19649 0.26295 0.65245
 H701 H 0.22504 0.30668 0.84286
 H702 H 0.26116 0.34343 0.80517
 H703 H 0.23905 0.15032 0.69458
 H704 H 0.27201 0.18988 0.65787
 H705 H 0.18959 0.33868 0.72761
 H706 H 0.14899 0.30008 0.76337
 H707 H 0.34404 0.19335 0.73714
 H708 H 0.30714 0.15381 0.77376
 O709 O 0.74932 0.66016 0.70262
 O710 O 0.78682 0.64951 0.75179
 O711 O 0.65698 0.70276 0.74928
 O712 O 0.64281 0.74774 0.78405
 O713 O 0.70255 0.75295 0.65794
 O714 O 0.75228 0.78932 0.64815
 O715 O 0.74817 0.79847 0.84265
 O716 O 0.70808 0.75307 0.85201
 O717 O 0.83909 0.75355 0.80084
 O718 O 0.85331 0.71656 0.75337
 O719 O 0.79541 0.84343 0.75110
 O720 O 0.74636 0.85482 0.71401
 O721 O 0.74984 0.84125 0.80064
 O722 O 0.70682 0.85083 0.74932
 O723 O 0.83843 0.80192 0.75295
 O724 O 0.84894 0.74937 0.71145
 O725 O 0.79612 0.75376 0.84270
 O726 O 0.74716 0.71018 0.85130
 O727 O 0.74890 0.70188 0.65946
 O728 O 0.79160 0.75031 0.65135
 O729 O 0.65892 0.75167 0.69919
 O730 O 0.64986 0.79314 0.74932
 O731 O 0.69927 0.66032 0.74911
 O732 O 0.74754 0.65138 0.79153
 Zr733 Zr 0.74723 0.68854 0.74990
 O734 O 0.78018 0.71869 0.78278
 Zr735 Zr 0.68543 0.75026 0.74810
 O736 O 0.71482 0.78241 0.78252
 Zr737 Zr 0.74911 0.74995 0.68754
 O738 O 0.78046 0.78370 0.71841
 Zr739 Zr 0.74870 0.75173 0.81379
 O740 O 0.71526 0.71909 0.78327
 Zr741 Zr 0.81146 0.75325 0.75267
 O742 O 0.78241 0.71902 0.71935
 Zr743 Zr 0.74864 0.81409 0.75211
 O744 O 0.71699 0.78407 0.71732
 O745 O 0.71547 0.71773 0.71627
 O746 O 0.78167 0.78553 0.78543
 C747 C 0.74896 0.66964 0.67007
 C748 C 0.66689 0.67042 0.74903
 C749 C 0.66997 0.75302 0.66710
 C750 C 0.74927 0.83078 0.83296
 C751 C 0.82865 0.75420 0.83312
 C752 C 0.82784 0.83405 0.75161
 H753 H 0.79492 0.70285 0.79726
 H754 H 0.79491 0.79851 0.70249
 H755 H 0.70049 0.70294 0.70090
 H756 H 0.69873 0.79645 0.79740
 H757 H 0.68943 0.73677 0.84377
 H758 H 0.65049 0.75974 0.80587
 H759 H 0.84668 0.77058 0.69644
 H760 H 0.80776 0.73120 0.65860
 H761 H 0.76830 0.69535 0.84807
 H762 H 0.72886 0.65859 0.80827
 H763 H 0.76216 0.84812 0.69438
 H764 H 0.73665 0.80866 0.65588
 H765 H 0.80607 0.65776 0.73613
 H766 H 0.84462 0.69526 0.76567
 H767 H 0.65630 0.80898 0.72954
 H768 H 0.69275 0.84878 0.77123
 O769 O 0.25011 0.65873 0.29713
 O770 O 0.21264 0.64880 0.24708
 O771 O 0.34061 0.70688 0.25144
 O772 O 0.35190 0.75356 0.21645
 O773 O 0.29452 0.75070 0.34399
 O774 O 0.24391 0.78647 0.35494
 O775 O 0.24529 0.80351 0.16219
 O776 O 0.28726 0.75962 0.15081
 O777 O 0.15637 0.75120 0.20255
 O778 O 0.14625 0.70918 0.25050
 O779 O 0.19528 0.84028 0.25313
 O780 O 0.24469 0.85195 0.29401
 O781 O 0.24192 0.84406 0.20607
 O782 O 0.28249 0.85450 0.25672
 O783 O 0.15436 0.79650 0.25148
 O784 O 0.14595 0.74382 0.29059
 O785 O 0.19890 0.75649 0.16055
 O786 O 0.24910 0.71598 0.14891
 O787 O 0.24893 0.69915 0.34136
 O788 O 0.20611 0.74545 0.35222
 O789 O 0.33758 0.75481 0.30231
 O790 O 0.34484 0.79727 0.25405
 O791 O 0.30000 0.66267 0.25016
 O792 O 0.25268 0.65296 0.20811
 Zr793 Zr 0.25118 0.68892 0.25057
 O794 O 0.21703 0.71879 0.21863
 Zr795 Zr 0.31043 0.75330 0.25382
 O796 O 0.27926 0.78579 0.22123
 Zr797 Zr 0.24753 0.74798 0.31492
 O798 O 0.21390 0.78086 0.28557
 Zr799 Zr 0.24665 0.75500 0.18883
 O800 O 0.28142 0.72232 0.21791
 Zr801 Zr 0.18432 0.75002 0.25042
 O802 O 0.21526 0.71653 0.28259
 Zr803 Zr 0.24397 0.81426 0.25295
 O804 O 0.27779 0.78453 0.28593
 O805 O 0.28205 0.71828 0.28485
 O806 O 0.21223 0.78537 0.21879
 C807 C 0.24977 0.66730 0.32993
 C808 C 0.33194 0.67410 0.25074
 C809 C 0.32696 0.75319 0.33453
 C810 C 0.24291 0.83532 0.17334
 C811 C 0.16650 0.75420 0.17034
 C812 C 0.16334 0.82909 0.25238
 H813 H 0.20307 0.70287 0.20351
 H814 H 0.19871 0.79422 0.30193
 H815 H 0.29758 0.70351 0.29969
 H816 H 0.29459 0.80135 0.20694
 H817 H 0.30620 0.74325 0.15811
 H818 H 0.34407 0.76797 0.19616
 H819 H 0.14914 0.76314 0.30775
 H820 H 0.18936 0.72739 0.34364
 H821 H 0.22939 0.69927 0.15244
 H822 H 0.26949 0.66273 0.19063
 H823 H 0.22592 0.84561 0.31101
 H824 H 0.25911 0.80633 0.34740
 H825 H 0.19329 0.65562 0.26321
 H826 H 0.15287 0.69215 0.23196
 H827 H 0.33654 0.81322 0.27291
 H828 H 0.29912 0.85169 0.23681
 O829 O 0.75058 0.33929 0.29919
 O830 O 0.79092 0.35008 0.25031
 O831 O 0.65943 0.29888 0.24687
 O832 O 0.64819 0.25457 0.20837
 O833 O 0.69975 0.24668 0.33828
 O834 O 0.74903 0.20732 0.34799
 O835 O 0.75135 0.20283 0.15579
 O836 O 0.71148 0.25163 0.14736
 O837 O 0.84225 0.24714 0.20035
 O838 O 0.85103 0.29047 0.25073
 O839 O 0.80053 0.15976 0.24514
 O840 O 0.74852 0.14799 0.28586
 O841 O 0.75182 0.15977 0.19755
 O842 O 0.71344 0.14643 0.24634
 O843 O 0.84237 0.20246 0.24928
 O844 O 0.85258 0.25168 0.28764
 O845 O 0.80050 0.24723 0.15736
 O846 O 0.75948 0.28899 0.14584
 O847 O 0.74789 0.29586 0.34060
 O848 O 0.78757 0.24762 0.35049
 O849 O 0.65827 0.24873 0.29496
 O850 O 0.65044 0.20934 0.24497
 O851 O 0.70216 0.34082 0.25081
 O852 O 0.75198 0.35289 0.21198
 Zr853 Zr 0.74966 0.31257 0.25054
 O854 O 0.78273 0.28325 0.21706
 Zr855 Zr 0.68748 0.25101 0.24781
 O856 O 0.71828 0.21853 0.21504
 Zr857 Zr 0.74815 0.24913 0.31109
 O858 O 0.78199 0.21745 0.28083
 Zr859 Zr 0.75267 0.24978 0.18496
 O860 O 0.71902 0.28298 0.21476
 Zr861 Zr 0.81348 0.24922 0.24791
 O862 O 0.78299 0.28121 0.28185
 Zr863 Zr 0.75188 0.18688 0.24587
 O864 O 0.71751 0.21602 0.27890
 O865 O 0.71628 0.28247 0.28188
 O866 O 0.78529 0.21649 0.21393
 C867 C 0.74898 0.32839 0.33133
 C868 C 0.66975 0.33111 0.24908
 C869 C 0.66760 0.24717 0.32752
 C870 C 0.75134 0.17037 0.16533
 C871 C 0.83268 0.24644 0.16781
 C872 C 0.83280 0.17018 0.24737
 H873 H 0.79724 0.29931 0.20245
 H874 H 0.79635 0.20281 0.29689
 H875 H 0.70093 0.29697 0.29710
 H876 H 0.70253 0.20439 0.19985
 H877 H 0.69651 0.27206 0.15348
 H878 H 0.65661 0.24113 0.18772
 H879 H 0.84547 0.23524 0.30665
 H880 H 0.80574 0.26505 0.34348
 H881 H 0.74843 0.31053 0.15517
 H882 H 0.73186 0.34928 0.19574
 H883 H 0.76899 0.15101 0.30175
 H884 H 0.73221 0.18938 0.33929
 H885 H 0.80861 0.34183 0.26764
 H886 H 0.84903 0.30485 0.22903
 H887 H 0.65748 0.19173 0.26291
 H888 H 0.69429 0.15367 0.23019
 C889 C 0.24986 0.09685 0.08915
 C890 C 0.22127 0.09273 0.11766
 C891 C 0.22182 0.11779 0.14303
 C892 C 0.25084 0.14544 0.13833
 C893 C 0.28529 0.12443 0.13565
 C894 C 0.28515 0.09980 0.10941
 C895 C 0.24589 0.13514 0.07530
 C896 C 0.24547 0.16016 0.10089
 H897 H 0.20212 0.07142 0.11800
 H898 H 0.20351 0.11755 0.16498
 H899 H 0.30880 0.13060 0.15076
 H900 H 0.30905 0.08615 0.10169
 H901 H 0.24909 0.14300 0.04795
 H902 H 0.24590 0.18800 0.09440
 C903 C 0.74237 0.59131 0.59496
 C904 C 0.77366 0.61677 0.59033
 C905 C 0.77592 0.64241 0.61511
 C906 C 0.74664 0.64093 0.64278
 C907 C 0.71197 0.64133 0.62177
 C908 C 0.70933 0.61486 0.59757
 C909 C 0.74493 0.57774 0.63342
 C910 C 0.74814 0.60339 0.65809
 H911 H 0.79273 0.61462 0.56906
 H912 H 0.79678 0.66202 0.61499
 H913 H 0.68984 0.65821 0.62826
 H914 H 0.68425 0.60845 0.58539
 H915 H 0.73894 0.55100 0.64153
 H916 H 0.74706 0.59727 0.68607
 C917 C 0.75171 0.90582 0.08916
 C918 C 0.78559 0.90353 0.11127
 C919 C 0.78556 0.87729 0.13560
 C920 C 0.75179 0.85517 0.13622
 C921 C 0.72160 0.88158 0.14090
 C922 C 0.72109 0.90750 0.11607
 C923 C 0.74684 0.86836 0.07357
 C924 C 0.74747 0.84200 0.09808
 H925 H 0.80829 0.92056 0.10729
 H926 H 0.80830 0.87169 0.15187
 H927 H 0.70111 0.87891 0.16076
 H928 H 0.69979 0.92650 0.11472
 H929 H 0.74037 0.86297 0.04622
 H930 H 0.74265 0.81473 0.09107
 C931 C 0.26294 0.40703 0.59167
 C932 C 0.29376 0.40390 0.61774
 C933 C 0.28988 0.37773 0.64197
 C934 C 0.25559 0.35649 0.63809
 C935 C 0.22593 0.38380 0.63917
 C936 C 0.22950 0.40986 0.61477
 C937 C 0.25928 0.36982 0.57542
 C938 C 0.25586 0.34349 0.59967
 H939 H 0.31693 0.42071 0.61694
 H940 H 0.30976 0.37224 0.66186
 H941 H 0.20331 0.38203 0.65666
 H942 H 0.20961 0.43010 0.61140
 H943 H 0.25659 0.36449 0.54746
 H944 H 0.25140 0.31635 0.59196
 C945 C 0.74467 0.09555 0.91147
 C946 C 0.71223 0.09754 0.88724
 C947 C 0.71383 0.12348 0.86255
 C948 C 0.74760 0.14563 0.86413
 C949 C 0.74945 0.15909 0.90240
 C950 C 0.74842 0.13297 0.92709
 C951 C 0.77681 0.09347 0.88654
 C952 C 0.77792 0.11916 0.86157
 H953 H 0.68968 0.08004 0.88958
 H954 H 0.69268 0.12812 0.84381
 H955 H 0.75393 0.18638 0.90956
 H956 H 0.75324 0.13856 0.95472
 H957 H 0.79764 0.07408 0.88909
 H958 H 0.79924 0.12124 0.84264
 C959 C 0.25568 0.58912 0.40544
 C960 C 0.22443 0.61450 0.40953
 C961 C 0.22243 0.63990 0.38443
 C962 C 0.25191 0.63830 0.35696
 C963 C 0.28644 0.63890 0.37817
 C964 C 0.28881 0.61267 0.40271
 C965 C 0.25319 0.57520 0.36709
 C966 C 0.25033 0.60074 0.34202
 H967 H 0.20510 0.61240 0.43059
 H968 H 0.20151 0.65936 0.38409
 H969 H 0.30847 0.65618 0.37203
 H970 H 0.31340 0.60707 0.41623
 H971 H 0.25925 0.54846 0.35929
 H972 H 0.25162 0.59460 0.31409
 C973 C 0.25168 0.91046 0.90824
 C974 C 0.21678 0.89102 0.90124
 C975 C 0.21851 0.86620 0.87570
 C976 C 0.25494 0.86250 0.85873
 C977 C 0.26469 0.89966 0.84582
 C978 C 0.26393 0.92442 0.87170
 C979 C 0.27938 0.88127 0.91494
 C980 C 0.28045 0.85588 0.88952
 H981 H 0.19248 0.89648 0.91536
 H982 H 0.19575 0.85058 0.86808
 H983 H 0.27489 0.90545 0.81966
 H984 H 0.27462 0.95058 0.86720
 H985 H 0.29822 0.88174 0.93649
 H986 H 0.29953 0.83464 0.89000
 C987 C 0.74583 0.40492 0.40803
 C988 C 0.71704 0.40853 0.37940
 C989 C 0.71834 0.38333 0.35389
 C990 C 0.74741 0.35581 0.35978
 C991 C 0.78170 0.37682 0.36283
 C992 C 0.78092 0.40221 0.38789
 C993 C 0.73839 0.36734 0.42215
 C994 C 0.74003 0.34172 0.39718
 H995 H 0.69605 0.42788 0.38031
 H996 H 0.69887 0.38170 0.33295
 H997 H 0.80485 0.37197 0.34671
 H998 H 0.80348 0.41905 0.39311
 H999 H 0.72870 0.36159 0.44849
 H1000 H 0.73300 0.31463 0.40308
 C1001 C 0.09247 0.24849 0.09251
 C1002 C 0.11254 0.21416 0.09983
 C1003 C 0.13704 0.21655 0.12568
 C1004 C 0.13971 0.25303 0.14252
 C1005 C 0.14614 0.27866 0.11172
 C1006 C 0.12113 0.27685 0.08597
 C1007 C 0.07776 0.26032 0.12886
 C1008 C 0.10224 0.26176 0.15505
 H1009 H 0.10775 0.18977 0.08572
 H1010 H 0.15309 0.19425 0.13362
 H1011 H 0.16702 0.29826 0.11141
 H1012 H 0.12057 0.29548 0.06421
 H1013 H 0.05128 0.27027 0.13303
 H1014 H 0.09600 0.27173 0.18113
 C1015 C 0.59435 0.74779 0.58948
 C1016 C 0.60007 0.71370 0.61059
 C1017 C 0.62503 0.71602 0.63601
 C1018 C 0.64279 0.75212 0.63835
 C1019 C 0.65669 0.75969 0.60089
 C1020 C 0.63130 0.75820 0.57552
 C1021 C 0.58777 0.77683 0.61726
 C1022 C 0.61266 0.77857 0.64312
 H1023 H 0.58556 0.68953 0.60575
 H1024 H 0.63179 0.69388 0.65284
 H1025 H 0.68314 0.76906 0.59518
 H1026 H 0.63649 0.76773 0.54901
 H1027 H 0.56638 0.79570 0.61564
 H1028 H 0.61211 0.79842 0.66367
 C1029 C 0.09415 0.74902 0.90866
 C1030 C 0.08840 0.72265 0.87817
 C1031 C 0.11421 0.72322 0.85316
 C1032 C 0.14453 0.74882 0.86143
 C1033 C 0.12727 0.78469 0.86682
 C1034 C 0.10108 0.78483 0.89105
 C1035 C 0.13062 0.73677 0.92279
 C1036 C 0.15701 0.73751 0.89831
 H1037 H 0.06730 0.70330 0.87756
 H1038 H 0.11448 0.70498 0.83115
 H1039 H 0.13650 0.80859 0.85426
 H1040 H 0.08744 0.80886 0.89830
 H1041 H 0.13480 0.72544 0.94877
 H1042 H 0.18331 0.72784 0.90402
 C1043 C 0.59158 0.24819 0.40521
 C1044 C 0.61660 0.28029 0.40526
 C1045 C 0.64179 0.27954 0.37967
 C1046 C 0.63921 0.24745 0.35525
 C1047 C 0.64044 0.21535 0.37973
 C1048 C 0.61567 0.21570 0.40562
 C1049 C 0.57628 0.24953 0.36735
 C1050 C 0.60109 0.24858 0.34136
 H1051 H 0.61376 0.30255 0.42293
 H1052 H 0.66057 0.30086 0.37593
 H1053 H 0.65905 0.19389 0.37673
 H1054 H 0.61316 0.19448 0.42470
 H1055 H 0.54887 0.25469 0.36113
 H1056 H 0.59414 0.25149 0.31372
 C1057 C 0.91170 0.74343 0.09249
 C1058 C 0.88967 0.70919 0.09446
 C1059 C 0.86353 0.70964 0.11927
 C1060 C 0.86290 0.74341 0.14147
 C1061 C 0.90055 0.74618 0.15619
 C1062 C 0.92592 0.74518 0.13089
 C1063 C 0.88486 0.77357 0.08954
 C1064 C 0.85971 0.77362 0.11491
 H1065 H 0.89682 0.68502 0.08106
 H1066 H 0.84770 0.68656 0.12532
 H1067 H 0.90708 0.74445 0.18402
 H1068 H 0.95313 0.74047 0.13828
 H1069 H 0.88579 0.79362 0.06908
 H1070 H 0.83934 0.79363 0.11607
 C1071 C 0.41219 0.24951 0.59524
 C1072 C 0.38763 0.28186 0.59479
 C1073 C 0.36206 0.28129 0.61999
 C1074 C 0.36385 0.24913 0.64450
 C1075 C 0.36256 0.21708 0.62011
 C1076 C 0.38769 0.21723 0.59461
 C1077 C 0.42700 0.25059 0.63331
 C1078 C 0.40179 0.24985 0.65897
 H1079 H 0.39103 0.30413 0.57709
 H1080 H 0.34354 0.30278 0.62342
 H1081 H 0.34368 0.19574 0.62294
 H1082 H 0.39023 0.19597 0.57569
 H1083 H 0.45443 0.25528 0.63986
 H1084 H 0.40835 0.25253 0.68671
 C1085 C 0.90765 0.25367 0.91262
 C1086 C 0.90598 0.28873 0.89186
 C1087 C 0.88121 0.28939 0.86574
 C1088 C 0.85873 0.25580 0.86395
 C1089 C 0.88491 0.22557 0.85955
 C1090 C 0.91026 0.22452 0.88465
 C1091 C 0.86934 0.25155 0.92693
 C1092 C 0.84405 0.25168 0.90159
 H1093 H 0.91989 0.31246 0.89970
 H1094 H 0.87550 0.31301 0.85063
 H1095 H 0.88351 0.20632 0.83844
 H1096 H 0.93045 0.20430 0.88482
 H1097 H 0.86200 0.25547 0.95431
 H1098 H 0.81629 0.25338 0.90833
 C1099 C 0.40409 0.75077 0.41101
 C1100 C 0.40852 0.72371 0.38127
 C1101 C 0.38286 0.72455 0.35640
 C1102 C 0.35467 0.75259 0.36290
 C1103 C 0.34077 0.74494 0.40031
 C1104 C 0.36636 0.74467 0.42543
 C1105 C 0.40011 0.78672 0.39240
 C1106 C 0.37492 0.78740 0.36672
 H1107 H 0.43007 0.70497 0.38016
 H1108 H 0.38252 0.70656 0.33416
 H1109 H 0.31302 0.74353 0.40722
 H1110 H 0.35928 0.74510 0.45315
 H1111 H 0.41297 0.81064 0.40129
 H1112 H 0.36771 0.81143 0.35297
 C1113 C 0.09121 0.09290 0.25041
 C1114 C 0.07685 0.12994 0.25951
 C1115 C 0.10186 0.15576 0.25972
 C1116 C 0.13944 0.14246 0.25194
 C1117 C 0.14524 0.11330 0.27937
 C1118 C 0.11982 0.08792 0.27915
 C1119 C 0.11144 0.09790 0.21556
 C1120 C 0.13637 0.12359 0.21640
 H1121 H 0.05003 0.13520 0.26793
 H1122 H 0.09568 0.18255 0.26737
 H1123 H 0.16628 0.11372 0.29877
 H1124 H 0.11919 0.06715 0.29887
 H1125 H 0.10574 0.08314 0.19172
 H1126 H 0.15136 0.13106 0.19320
 C1127 C 0.59067 0.59367 0.73911
 C1128 C 0.62065 0.58423 0.76502
 C1129 C 0.64577 0.60959 0.76846
 C1130 C 0.63879 0.64251 0.74605
 C1131 C 0.63451 0.62888 0.70813
 C1132 C 0.60928 0.60360 0.70445
 C1133 C 0.57662 0.62886 0.75376
 C1134 C 0.60163 0.65436 0.75708
 H1135 H 0.62155 0.55998 0.78020
 H1136 H 0.66799 0.60683 0.78630
 H1137 H 0.65003 0.63841 0.68597
 H1138 H 0.60307 0.59176 0.67916
 H1139 H 0.54962 0.63311 0.76222
 H1140 H 0.59563 0.68003 0.76803
 C1141 C 0.91238 0.09750 0.75351
 C1142 C 0.92631 0.13568 0.74938
 C1143 C 0.90077 0.16079 0.74870
 C1144 C 0.86326 0.14617 0.75393
 C1145 C 0.85871 0.11858 0.72493
 C1146 C 0.88408 0.09344 0.72474
 C1147 C 0.89189 0.10044 0.78862
 C1148 C 0.86585 0.12521 0.78855
 H1149 H 0.95352 0.14351 0.75325
 H1150 H 0.90733 0.18860 0.74936
 H1151 H 0.83734 0.11889 0.70589
 H1152 H 0.88420 0.07236 0.70544
 H1153 H 0.89947 0.08674 0.81261
 H1154 H 0.85133 0.13196 0.81220
 C1155 C 0.40963 0.59821 0.25577
 C1156 C 0.42390 0.63643 0.25314
 C1157 C 0.39857 0.66161 0.25051
 C1158 C 0.36082 0.64695 0.25246
 C1159 C 0.35859 0.61962 0.22299
 C1160 C 0.38376 0.59438 0.22478
 C1161 C 0.38646 0.60096 0.28914
 C1162 C 0.36043 0.62565 0.28704
 H1163 H 0.45095 0.64395 0.25857
 H1164 H 0.40503 0.68943 0.25153
 H1165 H 0.33884 0.62012 0.20226
 H1166 H 0.38535 0.57335 0.20549
 H1167 H 0.39280 0.58827 0.31403
 H1168 H 0.34389 0.63220 0.30947
 C1169 C 0.09241 0.91125 0.75693
 C1170 C 0.08934 0.88603 0.72507
 C1171 C 0.11508 0.86118 0.72339
 C1172 C 0.14246 0.86398 0.75299
 C1173 C 0.15598 0.90215 0.75049
 C1174 C 0.12996 0.92679 0.75210
 C1175 C 0.09531 0.88735 0.78956
 C1176 C 0.12114 0.86275 0.78736
 H1177 H 0.06927 0.88830 0.70477
 H1178 H 0.11665 0.84227 0.70201
 H1179 H 0.18327 0.90930 0.74557
 H1180 H 0.13573 0.95439 0.74751
 H1181 H 0.07857 0.88979 0.81268
 H1182 H 0.12630 0.84430 0.80846
 C1183 C 0.59308 0.40780 0.25245
 C1184 C 0.63061 0.42139 0.26090
 C1185 C 0.65613 0.39640 0.25915
 C1186 C 0.64201 0.35933 0.25072
 C1187 C 0.61379 0.35292 0.27919
 C1188 C 0.58868 0.37855 0.28059
 C1189 C 0.59638 0.38849 0.21698
 C1190 C 0.62169 0.36334 0.21612
 H1191 H 0.63634 0.44741 0.27118
 H1192 H 0.68316 0.40204 0.26671
 H1193 H 0.61485 0.33150 0.29819
 H1194 H 0.56892 0.37911 0.30132
 H1195 H 0.57997 0.39431 0.19424
 H1196 H 0.62688 0.34773 0.19273
 C1197 C 0.91012 0.90541 0.25533
 C1198 C 0.88760 0.90538 0.22145
 C1199 C 0.86245 0.87986 0.22052
 C1200 C 0.86236 0.85559 0.25289
 C1201 C 0.90045 0.84174 0.25481
 C1202 C 0.92537 0.86763 0.25557
 C1203 C 0.88359 0.90594 0.28605
 C1204 C 0.85872 0.88014 0.28471
 H1205 H 0.89204 0.92307 0.19934
 H1206 H 0.84549 0.87610 0.19792
 H1207 H 0.90754 0.81415 0.25282
 H1208 H 0.95309 0.86134 0.25277
 H1209 H 0.88455 0.92498 0.30734
 H1210 H 0.83849 0.87721 0.30480
 C1211 C 0.40399 0.41089 0.74561
 C1212 C 0.36598 0.42466 0.74011
 C1213 C 0.34056 0.39936 0.74227
 C1214 C 0.35521 0.36203 0.74819
 C1215 C 0.38164 0.35727 0.71782
 C1216 C 0.40654 0.38312 0.71597
 C1217 C 0.40273 0.38991 0.78037
 C1218 C 0.37754 0.36455 0.78165
 H1219 H 0.35963 0.45090 0.73080
 H1220 H 0.31316 0.40502 0.73632
 H1221 H 0.37946 0.33678 0.69800
 H1222 H 0.42506 0.38479 0.69417
 H1223 H 0.42032 0.39486 0.80241
 H1224 H 0.37365 0.34792 0.80468
 C1225 C 0.09035 0.24158 0.90549
 C1226 C 0.07542 0.23359 0.86815
 C1227 C 0.09984 0.23489 0.84171
 C1228 C 0.13746 0.24234 0.85480
 C1229 C 0.13491 0.27684 0.87537
 C1230 C 0.11056 0.27649 0.90152
 C1231 C 0.11889 0.21271 0.90873
 C1232 C 0.14383 0.21370 0.88282
 H1233 H 0.04885 0.22420 0.86316
 H1234 H 0.09340 0.22784 0.81473
 H1235 H 0.15086 0.29991 0.86960
 H1236 H 0.10587 0.29934 0.91802
 H1237 H 0.11839 0.19194 0.92846
 H1238 H 0.16477 0.19435 0.88111
 C1239 C 0.58922 0.74151 0.40266
 C1240 C 0.57519 0.74346 0.36428
 C1241 C 0.60070 0.74576 0.33909
 C1242 C 0.63841 0.74423 0.35392
 C1243 C 0.64038 0.77404 0.38089
 C1244 C 0.61501 0.77259 0.40609
 C1245 C 0.61253 0.70828 0.40050
 C1246 C 0.63874 0.71010 0.37580
 H1247 H 0.54824 0.73765 0.35672
 H1248 H 0.59439 0.74410 0.31120
 H1249 H 0.66011 0.79478 0.38016
 H1250 H 0.61323 0.79217 0.42683
 H1251 H 0.60661 0.68390 0.41429
 H1252 H 0.65570 0.68788 0.36994
 C1253 C 0.90697 0.75401 0.90914
 C1254 C 0.90258 0.71944 0.88849
 C1255 C 0.87667 0.71989 0.86382
 C1256 C 0.85675 0.75477 0.86140
 C1257 C 0.84354 0.76198 0.89910
 C1258 C 0.86969 0.76244 0.92378
 C1259 C 0.91092 0.78319 0.88082
 C1260 C 0.88536 0.78287 0.85552
 H1261 H 0.91865 0.69626 0.89309
 H1262 H 0.87073 0.69719 0.84750
 H1263 H 0.81673 0.76969 0.90540
 H1264 H 0.86459 0.77177 0.95034
 H1265 H 0.93104 0.80355 0.88153
 H1266 H 0.88467 0.80199 0.83431
 C1267 C 0.41039 0.25131 0.40620
 C1268 C 0.42507 0.25308 0.36812
 C1269 C 0.39982 0.25290 0.34254
 C1270 C 0.36185 0.25192 0.35702
 C1271 C 0.36062 0.21942 0.38103
 C1272 C 0.38583 0.21906 0.40647
 C1273 C 0.38574 0.28363 0.40724
 C1274 C 0.36011 0.28358 0.38205
 H1275 H 0.45256 0.25755 0.36156
 H1276 H 0.40640 0.25598 0.31482
 H1277 H 0.34167 0.19819 0.37802
 H1278 H 0.38834 0.19749 0.42513
 H1279 H 0.38909 0.30546 0.42536
 H1280 H 0.34150 0.30506 0.37907
 C1281 C 0.09114 0.75903 0.09213
 C1282 C 0.10564 0.79503 0.10358
 C1283 C 0.13029 0.79324 0.12966
 C1284 C 0.13860 0.75564 0.14204
 C1285 C 0.10265 0.74007 0.15268
 C1286 C 0.07800 0.74161 0.12663
 C1287 C 0.12393 0.73703 0.08258
 C1288 C 0.14869 0.73552 0.10844
 H1289 H 0.09651 0.81987 0.09277
 H1290 H 0.14168 0.81659 0.14154
 H1291 H 0.09727 0.72775 0.17800
 H1292 H 0.05190 0.73032 0.13001
 H1293 H 0.12693 0.72271 0.05801
 H1294 H 0.17267 0.72021 0.10566
 C1295 C 0.59344 0.25107 0.59451
 C1296 C 0.61835 0.21920 0.59465
 C1297 C 0.64338 0.22000 0.62028
 C1298 C 0.64159 0.25249 0.64410
 C1299 C 0.64310 0.28417 0.61893
 C1300 C 0.61777 0.28372 0.59342
 C1301 C 0.57845 0.25270 0.63246
 C1302 C 0.60347 0.25290 0.65822
 H1303 H 0.61625 0.19757 0.57609
 H1304 H 0.66259 0.19911 0.62355
 H1305 H 0.66094 0.30625 0.62235
 H1306 H 0.61421 0.30554 0.57524
 H1307 H 0.55094 0.25710 0.63883
 H1308 H 0.59658 0.25613 0.68583
 C1309 C 0.91004 0.23744 0.09200
 C1310 C 0.87578 0.25490 0.07869
 C1311 C 0.85020 0.25783 0.10363
 C1312 C 0.86097 0.24352 0.14005
 C1313 C 0.87259 0.20541 0.13323
 C1314 C 0.89812 0.20222 0.10812
 C1315 C 0.92053 0.26052 0.12382
 C1316 C 0.89506 0.26348 0.14891
 H1317 H 0.87229 0.26544 0.05228
 H1318 H 0.82517 0.27053 0.09816
 H1319 H 0.86143 0.18282 0.14685
 H1320 H 0.90878 0.17692 0.10030
 H1321 H 0.94552 0.27434 0.12597
 H1322 H 0.89851 0.27954 0.17232
 C1323 C 0.40583 0.73724 0.58957
 C1324 C 0.36819 0.74040 0.57408
 C1325 C 0.34235 0.74367 0.59888
 C1326 C 0.35622 0.74430 0.63705
 C1327 C 0.37772 0.71030 0.64077
 C1328 C 0.40340 0.70656 0.61600
 C1329 C 0.40893 0.77078 0.61230
 C1330 C 0.38343 0.77415 0.63726
 H1331 H 0.36217 0.74296 0.54624
 H1332 H 0.31495 0.74773 0.59169
 H1333 H 0.37274 0.69049 0.66090
 H1334 H 0.42031 0.68357 0.61499
 H1335 H 0.42891 0.79089 0.60827
 H1336 H 0.38194 0.79683 0.65458
 C1337 C 0.23723 0.09356 0.90914
 C1338 C 0.20227 0.10244 0.89070
 C1339 C 0.20521 0.12761 0.86517
 C1340 C 0.24276 0.14218 0.86051
 C1341 C 0.25376 0.15464 0.89750
 C1342 C 0.25122 0.12927 0.92276
 C1343 C 0.26311 0.08454 0.87904
 C1344 C 0.26583 0.10976 0.85369
 H1345 H 0.17729 0.09006 0.89728
 H1346 H 0.18277 0.13652 0.84980
 H1347 H 0.26419 0.18064 0.90317
 H1348 H 0.25993 0.13396 0.94962
 H1349 H 0.27884 0.06072 0.87824
 H1350 H 0.28365 0.10726 0.83139
 C1351 C 0.74559 0.59352 0.40918
 C1352 C 0.71121 0.59766 0.38810
 C1353 C 0.71224 0.62298 0.36282
 C1354 C 0.74749 0.64253 0.36058
 C1355 C 0.75427 0.65641 0.39810
 C1356 C 0.75410 0.63079 0.42330
 C1357 C 0.77500 0.58870 0.38135
 C1358 C 0.77550 0.61383 0.35567
 H1359 H 0.68776 0.58192 0.39293
 H1360 H 0.68974 0.62887 0.34614
 H1361 H 0.76210 0.68324 0.40403
 H1362 H 0.76322 0.63626 0.44985
 H1363 H 0.79501 0.56836 0.38282
 H1364 H 0.79546 0.61445 0.33512
 C1365 C 0.74653 0.09221 0.09019
 C1366 C 0.71362 0.09534 0.11371
 C1367 C 0.71545 0.12136 0.13815
 C1368 C 0.74991 0.14248 0.13721
 C1369 C 0.77930 0.11505 0.14069
 C1370 C 0.77807 0.08932 0.11584
 C1371 C 0.75199 0.12958 0.07445
 C1372 C 0.75316 0.15574 0.09894
 H1373 H 0.69058 0.07852 0.11113
 H1374 H 0.69402 0.12669 0.15638
 H1375 H 0.80006 0.11644 0.16018
 H1376 H 0.79848 0.06942 0.11391
 H1377 H 0.75782 0.13498 0.04692
 H1378 H 0.75883 0.18284 0.09174
 C1379 C 0.25223 0.59576 0.59208
 C1380 C 0.28742 0.60382 0.61043
 C1381 C 0.28581 0.62975 0.63488
 C1382 C 0.24911 0.64573 0.63944
 C1383 C 0.23831 0.65785 0.60221
 C1384 C 0.23919 0.63166 0.57770
 C1385 C 0.22544 0.58888 0.62209
 C1386 C 0.22441 0.61453 0.64714
 H1387 H 0.31200 0.59079 0.60384
 H1388 H 0.30903 0.63919 0.64864
 H1389 H 0.22767 0.68368 0.59625
 H1390 H 0.22806 0.63549 0.55160
 H1391 H 0.20707 0.56694 0.62238
 H1392 H 0.20579 0.61391 0.66890
 C1393 C 0.75226 0.90742 0.90948
 C1394 C 0.72048 0.90992 0.88411
 C1395 C 0.71978 0.88470 0.85870
 C1396 C 0.75020 0.85833 0.86134
 C1397 C 0.78393 0.88061 0.86053
 C1398 C 0.78507 0.90605 0.88565
 C1399 C 0.74839 0.86973 0.92446
 C1400 C 0.74787 0.84414 0.89942
 H1401 H 0.69949 0.92911 0.88677
 H1402 H 0.69855 0.88271 0.83960
 H1403 H 0.80534 0.87647 0.84198
 H1404 H 0.80751 0.92359 0.88854
 H1405 H 0.74319 0.86355 0.95194
 H1406 H 0.74350 0.81671 0.90619
 C1407 C 0.25354 0.40460 0.41296
 C1408 C 0.21732 0.39901 0.39536
 C1409 C 0.21719 0.37444 0.36920
 C1410 C 0.25288 0.35622 0.36384
 C1411 C 0.27934 0.38599 0.35707
 C1412 C 0.27958 0.41110 0.38248
 C1413 C 0.26200 0.36701 0.42638
 C1414 C 0.26232 0.34202 0.40069
 H1415 H 0.19302 0.41049 0.40509
 H1416 H 0.19314 0.36634 0.35595
 H1417 H 0.29676 0.38707 0.33433
 H1418 H 0.29725 0.43360 0.38129
 H1419 H 0.26247 0.35921 0.45389
 H1420 H 0.26538 0.31429 0.40690
 C1421 C 0.24271 0.91228 0.09631
 C1422 C 0.21392 0.88378 0.09178
 C1423 C 0.21427 0.85823 0.11707
 C1424 C 0.24214 0.86404 0.14586
 C1425 C 0.27724 0.86716 0.12617
 C1426 C 0.27756 0.89216 0.10059
 C1427 C 0.23395 0.92636 0.13365
 C1428 C 0.23440 0.90135 0.15954
 H1429 H 0.19388 0.88450 0.07135
 H1430 H 0.19536 0.83682 0.11740
 H1431 H 0.30017 0.85115 0.13209
 H1432 H 0.30084 0.89741 0.08471
 H1433 H 0.22436 0.95270 0.13894
 H1434 H 0.22645 0.90715 0.18643
 C1435 C 0.75350 0.40858 0.59263
 C1436 C 0.78987 0.39565 0.60488
 C1437 C 0.78852 0.37054 0.63056
 C1438 C 0.75097 0.36040 0.64191
 C1439 C 0.73341 0.39530 0.65240
 C1440 C 0.73457 0.42033 0.62669
 C1441 C 0.73322 0.37491 0.58208
 C1442 C 0.73225 0.34972 0.60762
 H1443 H 0.81458 0.40541 0.59417
 H1444 H 0.81211 0.35890 0.64180
 H1445 H 0.71999 0.39960 0.67734
 H1446 H 0.72200 0.44575 0.62995
 H1447 H 0.72001 0.37140 0.55693
 H1448 H 0.71882 0.32478 0.60386
 C1449 C 0.09546 0.08751 0.74603
 C1450 C 0.08978 0.11652 0.77374
 C1451 C 0.11518 0.14166 0.77434
 C1452 C 0.14445 0.13624 0.74707
 C1453 C 0.15855 0.09901 0.75433
 C1454 C 0.13328 0.07356 0.75303
 C1455 C 0.10073 0.10690 0.71056
 C1456 C 0.12556 0.13291 0.71140
 H1457 H 0.06763 0.11692 0.79192
 H1458 H 0.11470 0.16332 0.79298
 H1459 H 0.18633 0.09255 0.75644
 H1460 H 0.14085 0.04609 0.75190
 H1461 H 0.08939 0.09812 0.68580
 H1462 H 0.13371 0.14703 0.68782
 C1463 C 0.59203 0.59209 0.24487
 C1464 C 0.60618 0.60358 0.20862
 C1465 C 0.63174 0.62870 0.21018
 C1466 C 0.64103 0.64034 0.24782
 C1467 C 0.60582 0.65173 0.26432
 C1468 C 0.58033 0.62653 0.26298
 C1469 C 0.62493 0.58124 0.26623
 C1470 C 0.65055 0.60627 0.26752
 H1471 H 0.59680 0.59283 0.18381
 H1472 H 0.64423 0.63942 0.18669
 H1473 H 0.60166 0.67685 0.27726
 H1474 H 0.55463 0.63038 0.27497
 H1475 H 0.62741 0.55643 0.28027
 H1476 H 0.67472 0.60259 0.28241
 C1477 C 0.08813 0.90690 0.25406
 C1478 C 0.11246 0.90744 0.22130
 C1479 C 0.13729 0.88168 0.22105
 C1480 C 0.13500 0.85658 0.25275
 C1481 C 0.13717 0.88010 0.28546
 C1482 C 0.11282 0.90613 0.28621
 C1483 C 0.07225 0.86925 0.25217
 C1484 C 0.09676 0.84305 0.25206
 H1485 H 0.10940 0.92559 0.19933
 H1486 H 0.15550 0.87823 0.19919
 H1487 H 0.15605 0.87624 0.30665
 H1488 H 0.11097 0.92446 0.30809
 H1489 H 0.04459 0.86344 0.24774
 H1490 H 0.08948 0.81560 0.24883
 C1491 C 0.59285 0.40893 0.74770
 C1492 C 0.62912 0.42276 0.76030
 C1493 C 0.65497 0.39805 0.76089
 C1494 C 0.64218 0.36107 0.75048
 C1495 C 0.61123 0.35390 0.77572
 C1496 C 0.58582 0.37922 0.77480
 C1497 C 0.60005 0.39025 0.71249
 C1498 C 0.62558 0.36538 0.71396
 H1499 H 0.63343 0.44868 0.77147
 H1500 H 0.68099 0.40370 0.77139
 H1501 H 0.61056 0.33226 0.79447
 H1502 H 0.56404 0.37928 0.79340
 H1503 H 0.58603 0.39624 0.68824
 H1504 H 0.63336 0.35015 0.69103
 C1505 C 0.90958 0.09360 0.24719
 C1506 C 0.88066 0.08855 0.27554
 C1507 C 0.85523 0.11374 0.27529
 C1508 C 0.86133 0.14268 0.24767
 C1509 C 0.89877 0.15637 0.25573
 C1510 C 0.92382 0.13073 0.25599
 C1511 C 0.88988 0.09806 0.21205
 C1512 C 0.86488 0.12357 0.21233
 H1513 H 0.88107 0.06785 0.29532
 H1514 H 0.83392 0.11412 0.29442
 H1515 H 0.90481 0.18330 0.26310
 H1516 H 0.95057 0.13618 0.26452
 H1517 H 0.89611 0.08318 0.18844
 H1518 H 0.85036 0.13088 0.18886
 C1519 C 0.40917 0.59677 0.74672
 C1520 C 0.38957 0.60059 0.78225
 C1521 C 0.36326 0.62510 0.78205
 C1522 C 0.35980 0.64499 0.74687
 C1523 C 0.39707 0.65963 0.74012
 C1524 C 0.42272 0.63482 0.74098
 C1525 C 0.38014 0.59150 0.71887
 C1526 C 0.35458 0.61644 0.71897
 H1527 H 0.39794 0.58786 0.80650
 H1528 H 0.34861 0.63195 0.80566
 H1529 H 0.40355 0.68746 0.73941
 H1530 H 0.44995 0.64299 0.74384
 H1531 H 0.37960 0.56948 0.70067
 H1532 H 0.33221 0.61543 0.70122
 C1533 C 0.90473 0.91084 0.75156
 C1534 C 0.86800 0.92448 0.74017
 C1535 C 0.84216 0.89947 0.74057
 C1536 C 0.85539 0.86258 0.75096
 C1537 C 0.88551 0.85552 0.72485
 C1538 C 0.91076 0.88102 0.72454
 C1539 C 0.89857 0.89247 0.78722
 C1540 C 0.87298 0.86753 0.78689
 H1541 H 0.86325 0.95038 0.72907
 H1542 H 0.81573 0.90488 0.73105
 H1543 H 0.88563 0.83377 0.70631
 H1544 H 0.93189 0.88111 0.70520
 H1545 H 0.91244 0.89959 0.81123
 H1546 H 0.86457 0.85398 0.81066
 C1547 C 0.40432 0.41206 0.25320
 C1548 C 0.36674 0.42604 0.24578
 C1549 C 0.34125 0.40073 0.24595
 C1550 C 0.35553 0.36327 0.25195
 C1551 C 0.38364 0.35898 0.22313
 C1552 C 0.40861 0.38479 0.22327
 C1553 C 0.40099 0.39052 0.28748
 C1554 C 0.37585 0.36511 0.28675
 H1555 H 0.36091 0.45251 0.23680
 H1556 H 0.31421 0.40655 0.23864
 H1557 H 0.38272 0.33877 0.20295
 H1558 H 0.42855 0.38667 0.20278
 H1559 H 0.41718 0.39514 0.31064
 H1560 H 0.37057 0.34808 0.30921
   
