data_POSCAR
  _audit_creation_date              2014-09-24
  _audit_creation_method            'ToBaCCo'
  _symmetry_space_group_name_H-M    'P1'
  _symmetry_Int_Tables_number       1
  _symmetry_cell_setting            triclinic
  loop_
  _symmetry_equiv_pos_as_xyz
 x,y,z
_cell_length_a 105.6639
_cell_length_b 105.8036
_cell_length_c 105.9966
_cell_angle_alpha 89.986000
_cell_angle_beta 89.965900
_cell_angle_gamma 89.962400
loop_
  _atom_site_label
  _atom_site_type_symbol
  _atom_site_fract_x
  _atom_site_fract_y
  _atom_site_fract_z
N1 N 0.35229 0.31751 0.32630
 N2 N 0.35255 0.32673 0.31797
 C3 C 0.36280 0.32529 0.31053
 C4 C 0.36926 0.31462 0.31445
 C5 C 0.36232 0.30990 0.32444
 H6 H 0.36551 0.33161 0.30298
 H7 H 0.36459 0.30172 0.33011
 Cu8 Cu 0.33972 0.33994 0.31811
 Cu9 Cu 0.33954 0.31654 0.33954
 Cu10 Cu 0.31651 0.33989 0.33984
 N11 N 0.32659 0.35284 0.31819
 N12 N 0.31748 0.35266 0.32664
 C13 C 0.30989 0.36271 0.32485
 C14 C 0.31452 0.36958 0.31478
 C15 C 0.32511 0.36306 0.31074
 H16 H 0.30175 0.36502 0.33061
 H17 H 0.33133 0.36570 0.30307
 N18 N 0.31719 0.32618 0.35241
 N19 N 0.32591 0.31723 0.35221
 C20 C 0.32427 0.30966 0.36230
 C21 C 0.31410 0.31410 0.36918
 C22 C 0.30981 0.32455 0.36266
 H23 H 0.33026 0.30173 0.36472
 H24 H 0.30209 0.33069 0.36539
 H25 H 0.32551 0.32594 0.32966
 H26 H 0.33558 0.33569 0.34036
 N27 N 0.35236 0.81757 -0.17400
 N28 N 0.35224 0.82634 -0.18277
 C29 C 0.36247 0.82486 -0.19025
 C30 C 0.36932 0.81460 -0.18587
 C31 C 0.36261 0.81017 -0.17559
 H32 H 0.36489 0.83090 -0.19812
 H33 H 0.36515 0.80233 -0.16955
 Cu34 Cu 0.33907 0.83922 -0.18335
 Cu35 Cu 0.33976 0.81688 -0.16065
 Cu36 Cu 0.31709 0.84047 -0.16018
 N37 N 0.32647 0.85263 -0.18252
 N38 N 0.31797 0.85312 -0.17347
 C39 C 0.31081 0.86355 -0.17497
 C40 C 0.31509 0.86994 -0.18552
 C41 C 0.32501 0.86274 -0.19011
 H42 H 0.30317 0.86637 -0.16878
 H43 H 0.33084 0.86484 -0.19823
 N44 N 0.31772 0.82683 -0.14754
 N45 N 0.32630 0.81775 -0.14783
 C46 C 0.32461 0.81016 -0.13777
 C47 C 0.31454 0.81470 -0.13082
 C48 C 0.31036 0.82525 -0.13727
 H49 H 0.33047 0.80211 -0.13545
 H50 H 0.30269 0.83144 -0.13452
 H51 H 0.32533 0.82595 -0.17034
 H52 H 0.33615 0.83611 -0.16076
 N53 N 0.85200 0.31775 -0.17399
 N54 N 0.85221 0.32686 -0.18243
 C55 C 0.86245 0.32535 -0.18989
 C56 C 0.86893 0.31474 -0.18587
 C57 C 0.86203 0.31012 -0.17581
 H58 H 0.86515 0.33161 -0.19749
 H59 H 0.86434 0.30202 -0.17003
 Cu60 Cu 0.83937 0.34006 -0.18226
 Cu61 Cu 0.83935 0.31695 -0.16063
 Cu62 Cu 0.81662 0.34066 -0.16013
 N63 N 0.82650 0.35322 -0.18211
 N64 N 0.81764 0.35340 -0.17339
 C65 C 0.81027 0.36365 -0.17508
 C66 C 0.81478 0.37024 -0.18541
 C67 C 0.82506 0.36335 -0.18968
 H68 H 0.80235 0.36622 -0.16914
 H69 H 0.83112 0.36568 -0.19756
 N70 N 0.81725 0.32692 -0.14757
 N71 N 0.82583 0.31784 -0.14784
 C72 C 0.82414 0.31028 -0.13775
 C73 C 0.81408 0.31485 -0.13081
 C74 C 0.80990 0.32538 -0.13728
 H75 H 0.83000 0.30223 -0.13540
 H76 H 0.80228 0.33161 -0.13450
 H77 H 0.82520 0.32641 -0.17028
 H78 H 0.83561 0.33614 -0.15991
 N79 N 0.85189 0.81771 0.32612
 N80 N 0.85208 0.82681 0.31768
 C81 C 0.86232 0.82532 0.31021
 C82 C 0.86882 0.81471 0.31422
 C83 C 0.86193 0.81010 0.32429
 H84 H 0.86501 0.83156 0.30257
 H85 H 0.86425 0.80201 0.33007
 Cu86 Cu 0.83925 0.84001 0.31774
 Cu87 Cu 0.83925 0.81690 0.33947
 Cu88 Cu 0.81650 0.84059 0.33996
 N89 N 0.82633 0.85313 0.31797
 N90 N 0.81748 0.85332 0.32670
 C91 C 0.81011 0.86356 0.32498
 C92 C 0.81460 0.87014 0.31463
 C93 C 0.82488 0.86325 0.31038
 H94 H 0.80218 0.86612 0.33091
 H95 H 0.83094 0.86558 0.30247
 N96 N 0.81715 0.82686 0.35254
 N97 N 0.82573 0.81778 0.35226
 C98 C 0.82405 0.81020 0.36233
 C99 C 0.81399 0.81475 0.36928
 C100 C 0.80980 0.82529 0.36283
 H101 H 0.82992 0.80216 0.36467
 H102 H 0.80215 0.83149 0.36560
 H103 H 0.82508 0.82630 0.32982
 H104 H 0.83550 0.83605 0.34015
 N105 N 0.64771 0.68260 0.32639
 N106 N 0.64768 0.67364 0.31780
 C107 C 0.63739 0.67504 0.31041
 C108 C 0.63067 0.68543 0.31463
 C109 C 0.63749 0.69001 0.32476
 H110 H 0.63485 0.66890 0.30267
 H111 H 0.63503 0.69798 0.33065
 Cu112 Cu 0.66083 0.66074 0.31737
 Cu113 Cu 0.66044 0.68353 0.33959
 Cu114 Cu 0.68350 0.66029 0.33975
 N115 N 0.67367 0.64753 0.31794
 N116 N 0.68258 0.64753 0.32659
 C117 C 0.68997 0.63730 0.32501
 C118 C 0.68542 0.63050 0.31486
 C119 C 0.67508 0.63724 0.31057
 H120 H 0.69792 0.63483 0.33094
 H121 H 0.66898 0.63473 0.30278
 N122 N 0.68285 0.67397 0.35233
 N123 N 0.67408 0.68287 0.35223
 C124 C 0.67575 0.69042 0.36233
 C125 C 0.68602 0.68603 0.36909
 C126 C 0.69032 0.67563 0.36250
 H127 H 0.66976 0.69833 0.36480
 H128 H 0.69813 0.66956 0.36512
 H129 H 0.67468 0.67452 0.32969
 H130 H 0.66436 0.66439 0.33982
 N131 N 0.64775 0.18218 -0.17375
 N132 N 0.64748 0.17294 -0.18204
 C133 C 0.63721 0.17434 -0.18945
 C134 C 0.63075 0.18501 -0.18555
 C135 C 0.63770 0.18977 -0.17561
 H136 H 0.63448 0.16799 -0.19697
 H137 H 0.63544 0.19798 -0.16996
 Cu138 Cu 0.66033 0.15976 -0.18192
 Cu139 Cu 0.66054 0.18323 -0.16057
 Cu140 Cu 0.68363 0.15995 -0.16035
 N141 N 0.67347 0.14686 -0.18186
 N142 N 0.68264 0.14712 -0.17347
 C143 C 0.69025 0.13709 -0.17525
 C144 C 0.68557 0.13012 -0.18524
 C145 C 0.67493 0.13660 -0.18926
 H146 H 0.69844 0.13487 -0.16954
 H147 H 0.66866 0.13392 -0.19685
 N148 N 0.68299 0.17369 -0.14783
 N149 N 0.67423 0.18260 -0.14796
 C150 C 0.67589 0.19016 -0.13786
 C151 C 0.68613 0.18575 -0.13107
 C152 C 0.69043 0.17534 -0.13764
 H153 H 0.66988 0.19805 -0.13538
 H154 H 0.69818 0.16923 -0.13497
 H155 H 0.67449 0.17388 -0.17050
 H156 H 0.66452 0.16412 -0.15971
 N157 N 0.14760 0.68252 -0.17360
 N158 N 0.14736 0.67336 -0.18198
 C159 C 0.13712 0.67484 -0.18942
 C160 C 0.13064 0.68547 -0.18544
 C161 C 0.13756 0.69013 -0.17542
 H162 H 0.13443 0.66857 -0.19701
 H163 H 0.13528 0.69828 -0.16970
 Cu164 Cu 0.16021 0.66017 -0.18194
 Cu165 Cu 0.16038 0.68350 -0.16040
 Cu166 Cu 0.18354 0.66027 -0.16040
 N167 N 0.17336 0.64728 -0.18196
 N168 N 0.18253 0.64749 -0.17358
 C169 C 0.19012 0.63744 -0.17540
 C170 C 0.18543 0.63054 -0.18542
 C171 C 0.17481 0.63704 -0.18940
 H172 H 0.19828 0.63514 -0.16969
 H173 H 0.16853 0.63438 -0.19700
 N174 N 0.18290 0.67396 -0.14781
 N175 N 0.17408 0.68280 -0.14780
 C176 C 0.17574 0.69027 -0.13763
 C177 C 0.18606 0.68588 -0.13095
 C178 C 0.19040 0.67557 -0.13767
 H179 H 0.16969 0.69809 -0.13504
 H180 H 0.19823 0.66950 -0.13511
 H181 H 0.17434 0.67427 -0.17046
 H182 H 0.16442 0.66441 -0.15971
 N183 N 0.14715 0.18224 0.32680
 N184 N 0.14740 0.17347 0.31801
 C185 C 0.13728 0.17496 0.31041
 C186 C 0.13035 0.18515 0.31473
 C187 C 0.13687 0.18957 0.32512
 H188 H 0.13497 0.16897 0.30248
 H189 H 0.13422 0.19741 0.33111
 Cu190 Cu 0.16055 0.16062 0.31784
 Cu191 Cu 0.15986 0.18320 0.34009
 Cu192 Cu 0.18359 0.16049 0.33957
 N193 N 0.17374 0.14779 0.31768
 N194 N 0.18282 0.14793 0.32616
 C195 C 0.19042 0.13789 0.32435
 C196 C 0.18583 0.13106 0.31424
 C197 C 0.17525 0.13759 0.31019
 H198 H 0.19849 0.13552 0.33016
 H199 H 0.16901 0.13495 0.30255
 N200 N 0.18267 0.17394 0.35240
 N201 N 0.17358 0.18252 0.35269
 C202 C 0.17514 0.18983 0.36299
 C203 C 0.18568 0.18562 0.36945
 C204 C 0.19023 0.17558 0.36249
 H205 H 0.16893 0.19746 0.36578
 H206 H 0.19827 0.16971 0.36483
 H207 H 0.17419 0.17468 0.32997
 H208 H 0.16440 0.16423 0.34024
 N209 N 0.64760 0.31770 0.67350
 N210 N 0.64785 0.32647 0.68229
 C211 C 0.63774 0.32498 0.68990
 C212 C 0.63082 0.31478 0.68560
 C213 C 0.63734 0.31036 0.67520
 H214 H 0.63539 0.33102 0.69779
 H215 H 0.63466 0.30256 0.66918
 Cu216 Cu 0.66087 0.33948 0.68231
 Cu217 Cu 0.66015 0.31687 0.66007
 Cu218 Cu 0.68346 0.33997 0.66000
 N219 N 0.67395 0.35241 0.68220
 N220 N 0.68280 0.35248 0.67346
 C221 C 0.69028 0.36262 0.67515
 C222 C 0.68586 0.36929 0.68545
 C223 C 0.67550 0.36256 0.68973
 H224 H 0.69816 0.36515 0.66915
 H225 H 0.66943 0.36504 0.69756
 N226 N 0.68248 0.32651 0.64717
 N227 N 0.67366 0.31767 0.64727
 C228 C 0.67522 0.31018 0.63711
 C229 C 0.68544 0.31456 0.63028
 C230 C 0.68984 0.32490 0.63690
 H231 H 0.66921 0.30230 0.63465
 H232 H 0.69767 0.33092 0.63427
 H233 H 0.67453 0.32569 0.66986
 H234 H 0.66432 0.33596 0.65981
 N235 N 0.64749 0.81769 1.17324
 N236 N 0.64765 0.82645 1.18203
 C237 C 0.63740 0.82504 1.18947
 C238 C 0.63050 0.81487 1.18507
 C239 C 0.63716 0.81040 1.17479
 H240 H 0.63501 0.83105 1.19737
 H241 H 0.63456 0.80258 1.16875
 Cu242 Cu 0.66092 0.83919 1.18267
 Cu243 Cu 0.66024 0.81677 1.16002
 Cu244 Cu 0.68362 0.83964 1.16033
 N245 N 0.67385 0.85228 1.18226
 N246 N 0.68276 0.85229 1.17360
 C247 C 0.69020 0.86247 1.17523
 C248 C 0.68568 0.86923 1.18542
 C249 C 0.67532 0.86251 1.18970
 H250 H 0.69814 0.86495 1.16929
 H251 H 0.66921 0.86501 1.19750
 N252 N 0.68289 0.82610 1.14762
 N253 N 0.67392 0.81744 1.14742
 C254 C 0.67555 0.81005 1.13718
 C255 C 0.68604 0.81430 1.13067
 C256 C 0.69049 0.82444 1.13755
 H257 H 0.66941 0.80235 1.13447
 H258 H 0.69848 0.83036 1.13517
 H259 H 0.67450 0.82541 1.17012
 H260 H 0.66435 0.83590 1.16015
 N261 N 0.14783 0.31749 1.17357
 N262 N 0.14774 0.32656 1.18205
 C263 C 0.13752 0.32514 1.18955
 C264 C 0.13094 0.31460 1.18554
 C265 C 0.13775 0.30996 1.17543
 H266 H 0.13492 0.33137 1.19722
 H267 H 0.13538 0.30186 1.16968
 Cu268 Cu 0.16077 0.33952 1.18190
 Cu269 Cu 0.16044 0.31663 1.16016
 Cu270 Cu 0.18320 0.34039 1.15959
 N271 N 0.17340 0.35287 1.18167
 N272 N 0.18215 0.35315 1.17284
 C273 C 0.18946 0.36343 1.17452
 C274 C 0.18504 0.36993 1.18492
 C275 C 0.17485 0.36299 1.18925
 H276 H 0.19734 0.36605 1.16854
 H277 H 0.16889 0.36525 1.19724
 N278 N 0.18251 0.32663 1.14701
 N279 N 0.17396 0.31753 1.14731
 C280 C 0.17564 0.30997 1.13722
 C281 C 0.18565 0.31457 1.13024
 C282 C 0.18981 0.32511 1.13668
 H283 H 0.16981 0.30191 1.13489
 H284 H 0.19739 0.33137 1.13386
 H285 H 0.17487 0.32586 1.16964
 H286 H 0.16437 0.33568 1.15953
 N287 N 0.14776 0.81746 0.67351
 N288 N 0.14762 0.82657 0.68195
 C289 C 0.13737 0.82517 0.68940
 C290 C 0.13079 0.81463 0.68537
 C291 C 0.13765 0.80995 0.67531
 H292 H 0.13472 0.83146 0.69699
 H293 H 0.13527 0.80186 0.66953
 Cu294 Cu 0.16052 0.83968 0.68182
 Cu295 Cu 0.16043 0.81655 0.66016
 Cu296 Cu 0.18339 0.83999 0.65987
 N297 N 0.17344 0.85278 0.68170
 N298 N 0.18243 0.85272 0.67312
 C299 C 0.18992 0.86286 0.67481
 C300 C 0.18536 0.86965 0.68497
 C301 C 0.17490 0.86300 0.68915
 H302 H 0.19794 0.86527 0.66894
 H303 H 0.16875 0.86556 0.69690
 N304 N 0.18272 0.82631 0.64727
 N305 N 0.17403 0.81733 0.64744
 C306 C 0.17570 0.80982 0.63731
 C307 C 0.18585 0.81432 0.63045
 C308 C 0.19010 0.82475 0.63702
 H309 H 0.16977 0.80186 0.63487
 H310 H 0.19780 0.83091 0.63433
 H311 H 0.17459 0.82573 0.66998
 H312 H 0.16437 0.83561 0.65955
 N313 N 0.35256 0.68246 0.67326
 N314 N 0.35229 0.67369 0.68206
 C315 C 0.36239 0.67515 0.68967
 C316 C 0.36935 0.68533 0.68536
 C317 C 0.36285 0.68977 0.67496
 H318 H 0.36470 0.66913 0.69758
 H319 H 0.36553 0.69758 0.66895
 Cu320 Cu 0.33910 0.66087 0.68207
 Cu321 Cu 0.33996 0.68335 0.65985
 Cu322 Cu 0.31657 0.66028 0.65986
 N323 N 0.32615 0.64780 0.68202
 N324 N 0.31731 0.64769 0.67329
 C325 C 0.30988 0.63750 0.67497
 C326 C 0.31433 0.63086 0.68528
 C327 C 0.32464 0.63764 0.68956
 H328 H 0.30200 0.63495 0.66899
 H329 H 0.33072 0.63518 0.69738
 N330 N 0.31750 0.67382 0.64708
 N331 N 0.32639 0.68260 0.64709
 C332 C 0.32481 0.69007 0.63692
 C333 C 0.31448 0.68576 0.63020
 C334 C 0.31006 0.67548 0.63690
 H335 H 0.33087 0.69790 0.63438
 H336 H 0.30215 0.66952 0.63435
 H337 H 0.32547 0.67463 0.66961
 H338 H 0.33568 0.66431 0.65961
 N339 N 0.35254 0.18246 1.17315
 N340 N 0.35207 0.17395 1.18217
 C341 C 0.36218 0.17543 1.18977
 C342 C 0.36934 0.18536 1.18522
 C343 C 0.36295 0.18963 1.17469
 H344 H 0.36433 0.16957 1.19785
 H345 H 0.36578 0.19725 1.16850
 Cu346 Cu 0.33871 0.16130 1.18292
 Cu347 Cu 0.34000 0.18318 1.15976
 Cu348 Cu 0.31705 0.15991 1.15949
 N349 N 0.32619 0.14784 1.18194
 N350 N 0.31779 0.14731 1.17282
 C351 C 0.31069 0.13684 1.17426
 C352 C 0.31488 0.13048 1.18484
 C353 C 0.32471 0.13771 1.18950
 H354 H 0.30315 0.13396 1.16798
 H355 H 0.33047 0.13560 1.19767
 N356 N 0.31785 0.17345 1.14679
 N357 N 0.32656 0.18239 1.14696
 C358 C 0.32492 0.18995 1.13686
 C359 C 0.31476 0.18549 1.13000
 C360 C 0.31048 0.17504 1.13654
 H361 H 0.33083 0.19794 1.13448
 H362 H 0.30274 0.16893 1.13386
 H363 H 0.32533 0.17453 1.16951
 H364 H 0.33612 0.16399 1.16026
 N365 N 0.85240 0.68243 1.17322
 N366 N 0.85194 0.67391 1.18224
 C367 C 0.86205 0.67538 1.18983
 C368 C 0.86921 0.68532 1.18529
 C369 C 0.86281 0.68960 1.17476
 H370 H 0.86422 0.66951 1.19790
 H371 H 0.86564 0.69723 1.16858
 Cu372 Cu 0.83860 0.66124 1.18297
 Cu373 Cu 0.83985 0.68316 1.15985
 Cu374 Cu 0.81688 0.65990 1.15958
 N375 N 0.82606 0.64781 1.18202
 N376 N 0.81762 0.64731 1.17292
 C377 C 0.81047 0.63688 1.17440
 C378 C 0.81469 0.63050 1.18497
 C379 C 0.82458 0.63768 1.18958
 H380 H 0.80288 0.63404 1.16818
 H381 H 0.83037 0.63555 1.19771
 N382 N 0.81769 0.67345 1.14688
 N383 N 0.82641 0.68237 1.14706
 C384 C 0.82481 0.68991 1.13695
 C385 C 0.81464 0.68548 1.13008
 C386 C 0.81032 0.67506 1.13663
 H387 H 0.83077 0.69786 1.13455
 H388 H 0.80255 0.66898 1.13396
 H389 H 0.82517 0.67450 1.16962
 H390 H 0.83596 0.66399 1.16033
 N391 N 0.85272 0.18228 0.67295
 N392 N 0.85233 0.17366 0.68189
 C393 C 0.86243 0.17514 0.68949
 C394 C 0.86950 0.18518 0.68505
 C395 C 0.86307 0.18951 0.67455
 H396 H 0.86467 0.16922 0.69751
 H397 H 0.86585 0.19720 0.66843
 Cu398 Cu 0.83905 0.16095 0.68206
 Cu399 Cu 0.84014 0.18306 0.65948
 Cu400 Cu 0.81656 0.16016 0.65985
 N401 N 0.82611 0.14789 0.68215
 N402 N 0.81729 0.14768 0.67340
 C403 C 0.80994 0.13743 0.67510
 C404 C 0.81440 0.13088 0.68547
 C405 C 0.82464 0.13777 0.68974
 H406 H 0.80214 0.13476 0.66908
 H407 H 0.83073 0.13538 0.69759
 N408 N 0.81755 0.17358 0.64696
 N409 N 0.82657 0.18222 0.64674
 C410 C 0.82502 0.18954 0.63645
 C411 C 0.81456 0.18528 0.62992
 C412 C 0.81003 0.17520 0.63683
 H413 H 0.83116 0.19725 0.63375
 H414 H 0.80202 0.16931 0.63446
 H415 H 0.82555 0.17463 0.66939
 H416 H 0.83568 0.16405 0.65958
 N417 N 0.31727 0.35203 0.67361
 N418 N 0.32631 0.35212 0.68213
 C419 C 0.32479 0.36228 0.68965
 C420 C 0.31425 0.36886 0.68559
 C421 C 0.30969 0.36209 0.67543
 H422 H 0.33102 0.36490 0.69731
 H423 H 0.30165 0.36450 0.66959
 Cu424 Cu 0.33954 0.33933 0.68193
 Cu425 Cu 0.31654 0.33950 0.66016
 Cu426 Cu 0.34033 0.31685 0.65957
 N427 N 0.35273 0.32651 0.68173
 N428 N 0.35302 0.31779 0.67289
 C429 C 0.36332 0.31048 0.67455
 C430 C 0.36980 0.31485 0.68498
 C431 C 0.36283 0.32501 0.68934
 H432 H 0.36599 0.30267 0.66853
 H433 H 0.36512 0.33096 0.69731
 N434 N 0.32662 0.31754 0.64696
 N435 N 0.31750 0.32608 0.64729
 C436 C 0.30992 0.32443 0.63722
 C437 C 0.31450 0.31443 0.63022
 C438 C 0.32507 0.31025 0.63664
 H439 H 0.30183 0.33026 0.63493
 H440 H 0.33129 0.30264 0.63384
 H441 H 0.32595 0.32527 0.66973
 H442 H 0.33573 0.33579 0.65953
 N443 N 0.31756 0.85261 0.17333
 N444 N 0.32663 0.85273 0.18183
 C445 C 0.32519 0.86299 0.18925
 C446 C 0.31466 0.86959 0.18514
 C447 C 0.31004 0.86272 0.17507
 H448 H 0.33143 0.86563 0.19689
 H449 H 0.30198 0.86511 0.16925
 Cu450 Cu 0.33970 0.83977 0.18173
 Cu451 Cu 0.31665 0.83993 0.16000
 Cu452 Cu 0.34008 0.81696 0.15974
 N453 N 0.35284 0.82688 0.18162
 N454 N 0.35282 0.81793 0.17301
 C455 C 0.36301 0.81048 0.17469
 C456 C 0.36981 0.81505 0.18483
 C457 C 0.36311 0.82545 0.18904
 H458 H 0.36546 0.80250 0.16881
 H459 H 0.36565 0.83159 0.19679
 N460 N 0.32639 0.81765 0.14712
 N461 N 0.31742 0.82635 0.14729
 C462 C 0.30984 0.82467 0.13722
 C463 C 0.31429 0.81449 0.13038
 C464 C 0.32477 0.81024 0.13691
 H465 H 0.30186 0.83060 0.13482
 H466 H 0.33091 0.80252 0.13422
 H467 H 0.32587 0.82579 0.16976
 H468 H 0.33582 0.83601 0.15939
 N469 N 0.81746 0.35253 0.17327
 N470 N 0.82661 0.35275 0.18167
 C471 C 0.82517 0.36301 0.18908
 C472 C 0.81455 0.36950 0.18508
 C473 C 0.80987 0.36258 0.17507
 H474 H 0.83145 0.36570 0.19667
 H475 H 0.80172 0.36488 0.16934
 Cu476 Cu 0.83976 0.33987 0.18158
 Cu477 Cu 0.81650 0.33980 0.16002
 Cu478 Cu 0.83991 0.31681 0.15980
 N479 N 0.85279 0.32687 0.18151
 N480 N 0.85268 0.31782 0.17301
 C481 C 0.86282 0.31032 0.17475
 C482 C 0.86966 0.31495 0.18483
 C483 C 0.86305 0.32545 0.18893
 H484 H 0.86521 0.30225 0.16895
 H485 H 0.86564 0.33165 0.19661
 N486 N 0.82619 0.31745 0.14723
 N487 N 0.81722 0.32615 0.14738
 C488 C 0.80965 0.32446 0.13729
 C489 C 0.81412 0.31428 0.13047
 C490 C 0.82458 0.31003 0.13702
 H491 H 0.80169 0.33040 0.13485
 H492 H 0.83073 0.30232 0.13434
 H493 H 0.82579 0.32576 0.16990
 H494 H 0.83564 0.33586 0.15932
 N495 N 0.81791 0.85325 0.67292
 N496 N 0.82703 0.85344 0.68135
 C497 C 0.82559 0.86371 0.68875
 C498 C 0.81501 0.87025 0.68469
 C499 C 0.81037 0.86335 0.67466
 H500 H 0.83180 0.86634 0.69641
 H501 H 0.80223 0.86564 0.66891
 Cu502 Cu 0.84005 0.84042 0.68147
 Cu503 Cu 0.81682 0.84037 0.65983
 Cu504 Cu 0.83977 0.81691 0.66021
 N505 N 0.85290 0.82722 0.68163
 N506 N 0.85256 0.81794 0.67338
 C507 C 0.86256 0.81030 0.67525
 C508 C 0.86957 0.81507 0.68515
 C509 C 0.86318 0.82580 0.68902
 H510 H 0.86475 0.80205 0.66964
 H511 H 0.86596 0.83216 0.69650
 N512 N 0.82608 0.81755 0.64759
 N513 N 0.81742 0.82655 0.64737
 C514 C 0.81003 0.82494 0.63714
 C515 C 0.81424 0.81442 0.63066
 C516 C 0.82438 0.80994 0.63754
 H517 H 0.80238 0.83113 0.63437
 H518 H 0.83029 0.80195 0.63516
 H519 H 0.82573 0.82634 0.67008
 H520 H 0.83577 0.83601 0.65930
 N521 N 0.68215 0.64707 0.67317
 N522 N 0.67344 0.64740 0.68204
 C523 C 0.67491 0.63730 0.68963
 C524 C 0.68502 0.63028 0.68523
 C525 C 0.68941 0.63674 0.67479
 H526 H 0.66894 0.63504 0.69762
 H527 H 0.69718 0.63401 0.66873
 Cu528 Cu 0.66068 0.66066 0.68222
 Cu529 Cu 0.68307 0.65972 0.65980
 Cu530 Cu 0.66032 0.68343 0.66028
 N531 N 0.64773 0.67373 0.68236
 N532 N 0.64776 0.68270 0.67376
 C533 C 0.63763 0.69021 0.67552
 C534 C 0.63087 0.68569 0.68573
 C535 C 0.63754 0.67524 0.68988
 H536 H 0.63516 0.69817 0.66962
 H537 H 0.63498 0.66907 0.69760
 N538 N 0.67377 0.68246 0.64741
 N539 N 0.68236 0.67339 0.64715
 C540 C 0.68974 0.67496 0.63689
 C541 C 0.68557 0.68550 0.63042
 C542 C 0.67548 0.69004 0.63735
 H543 H 0.69742 0.66878 0.63416
 H544 H 0.66965 0.69811 0.63502
 H545 H 0.67459 0.67413 0.66979
 H546 H 0.66402 0.66423 0.65975
 N547 N 0.68267 0.14726 0.17322
 N548 N 0.67390 0.14751 0.18202
 C549 C 0.67542 0.13744 0.18965
 C550 C 0.68564 0.13052 0.18535
 C551 C 0.69004 0.13701 0.17493
 H552 H 0.66938 0.13510 0.19755
 H553 H 0.69785 0.13433 0.16889
 Cu554 Cu 0.66081 0.16045 0.18211
 Cu555 Cu 0.68344 0.15982 0.15981
 Cu556 Cu 0.66017 0.18295 0.15971
 N557 N 0.64783 0.17351 0.18196
 N558 N 0.64757 0.18221 0.17310
 C559 C 0.63729 0.18956 0.17476
 C560 C 0.63079 0.18523 0.18521
 C561 C 0.63773 0.17507 0.18958
 H562 H 0.63460 0.19731 0.16867
 H563 H 0.63540 0.16909 0.19753
 N564 N 0.67371 0.18209 0.14695
 N565 N 0.68261 0.17332 0.14702
 C566 C 0.69009 0.17494 0.13684
 C567 C 0.68564 0.18516 0.13007
 C568 C 0.67528 0.18949 0.13673
 H569 H 0.69800 0.16896 0.13434
 H570 H 0.66919 0.19728 0.13412
 H571 H 0.67452 0.17415 0.16966
 H572 H 0.66430 0.16387 0.15963
 N573 N 0.18220 0.64724 0.17290
 N574 N 0.17319 0.64719 0.18147
 C575 C 0.17465 0.63697 0.18894
 C576 C 0.18512 0.63033 0.18479
 C577 C 0.18970 0.63711 0.17464
 H578 H 0.16849 0.63443 0.19668
 H579 H 0.19775 0.63470 0.16881
 Cu580 Cu 0.16026 0.66029 0.18162
 Cu581 Cu 0.18318 0.65999 0.15966
 Cu582 Cu 0.16022 0.68347 0.16004
 N583 N 0.14734 0.67341 0.18176
 N584 N 0.14753 0.68255 0.17335
 C585 C 0.13747 0.69013 0.17519
 C586 C 0.13059 0.68547 0.18525
 C587 C 0.13711 0.67487 0.18924
 H588 H 0.13514 0.69825 0.16945
 H589 H 0.13445 0.66860 0.19684
 N590 N 0.17382 0.68271 0.14731
 N591 N 0.18250 0.67372 0.14708
 C592 C 0.18988 0.67534 0.13683
 C593 C 0.18563 0.68583 0.13034
 C594 C 0.17549 0.69029 0.13723
 H595 H 0.19760 0.66920 0.13410
 H596 H 0.16955 0.69827 0.13485
 H597 H 0.17441 0.67418 0.16981
 H598 H 0.16419 0.66439 0.15933
 N599 N 0.18198 0.14652 0.67285
 N600 N 0.17349 0.14703 0.68191
 C601 C 0.17495 0.13692 0.68950
 C602 C 0.18485 0.12971 0.68493
 C603 C 0.18912 0.13607 0.67436
 H604 H 0.16915 0.13483 0.69764
 H605 H 0.19675 0.13322 0.66818
 Cu606 Cu 0.16093 0.16048 0.68276
 Cu607 Cu 0.18289 0.15920 0.65957
 Cu608 Cu 0.16031 0.18287 0.66013
 N609 N 0.14784 0.17344 0.68228
 N610 N 0.14774 0.18222 0.67351
 C611 C 0.13751 0.18964 0.67514
 C612 C 0.13083 0.18524 0.68544
 C613 C 0.13764 0.17496 0.68978
 H614 H 0.13493 0.19746 0.66909
 H615 H 0.13520 0.16893 0.69765
 N616 N 0.17372 0.18196 0.64728
 N617 N 0.18227 0.17287 0.64696
 C618 C 0.18964 0.17447 0.63669
 C619 C 0.18549 0.18506 0.63029
 C620 C 0.17543 0.18960 0.63726
 H621 H 0.19731 0.16829 0.63392
 H622 H 0.16961 0.19769 0.63499
 H623 H 0.17472 0.17368 0.66975
 H624 H 0.16386 0.16359 0.66015
 N625 N 0.31724 0.64781 0.32606
 N626 N 0.32612 0.64789 0.31736
 C627 C 0.32468 0.63770 0.30988
 C628 C 0.31436 0.63091 0.31415
 C629 C 0.30984 0.63759 0.32439
 H630 H 0.33080 0.63523 0.30208
 H631 H 0.30196 0.63503 0.33038
 Cu632 Cu 0.33912 0.66089 0.31699
 Cu633 Cu 0.31652 0.66037 0.33942
 Cu634 Cu 0.34024 0.68296 0.33993
 N635 N 0.35250 0.67349 0.31769
 N636 N 0.35293 0.68203 0.32668
 C637 C 0.36337 0.68916 0.32517
 C638 C 0.36981 0.68484 0.31467
 C639 C 0.36266 0.67491 0.31013
 H640 H 0.36618 0.69681 0.33132
 H641 H 0.36483 0.66904 0.30206
 N642 N 0.32653 0.68234 0.35253
 N643 N 0.31742 0.67381 0.35225
 C644 C 0.30984 0.67549 0.36233
 C645 C 0.31443 0.68551 0.36929
 C646 C 0.32499 0.68966 0.36283
 H647 H 0.30177 0.66966 0.36467
 H648 H 0.33123 0.69726 0.36561
 H649 H 0.32576 0.67471 0.32983
 H650 H 0.33579 0.66396 0.33959
 N651 N 0.31748 0.14744 0.82616
 N652 N 0.32677 0.14707 0.81790
 C653 C 0.32530 0.13681 0.81050
 C654 C 0.31453 0.13048 0.81437
 C655 C 0.30978 0.13750 0.82428
 H656 H 0.33168 0.13399 0.80303
 H657 H 0.30152 0.13534 0.82989
 Cu658 Cu 0.34008 0.15977 0.81808
 Cu659 Cu 0.31653 0.16016 0.83940
 Cu660 Cu 0.34003 0.18299 0.83977
 N661 N 0.35303 0.17284 0.81816
 N662 N 0.35284 0.18195 0.82660
 C663 C 0.36293 0.18950 0.82481
 C664 C 0.36981 0.18486 0.81475
 C665 C 0.36328 0.17429 0.81072
 H666 H 0.36524 0.19763 0.83055
 H667 H 0.36591 0.16808 0.80306
 N668 N 0.32627 0.18238 0.85231
 N669 N 0.31724 0.17377 0.85207
 C670 C 0.30962 0.17547 0.86213
 C671 C 0.31415 0.18554 0.86905
 C672 C 0.32468 0.18973 0.86258
 H673 H 0.30159 0.16959 0.86449
 H674 H 0.33090 0.19735 0.86535
 H675 H 0.32604 0.17403 0.82951
 H676 H 0.33573 0.16396 0.84029
 N677 N 0.81748 0.64764 0.82625
 N678 N 0.82657 0.64747 0.81778
 C679 C 0.82506 0.63727 0.81030
 C680 C 0.81447 0.63076 0.81435
 C681 C 0.80987 0.63761 0.82445
 H682 H 0.83131 0.63460 0.80266
 H683 H 0.80178 0.63528 0.83025
 Cu684 Cu 0.83974 0.66031 0.81794
 Cu685 Cu 0.81668 0.66023 0.83965
 Cu686 Cu 0.84038 0.68292 0.84017
 N687 N 0.85289 0.67317 0.81809
 N688 N 0.85310 0.68195 0.82687
 C689 C 0.86336 0.68930 0.82518
 C690 C 0.86991 0.68487 0.81480
 C691 C 0.86300 0.67466 0.81049
 H692 H 0.86598 0.69716 0.83115
 H693 H 0.86534 0.66866 0.80257
 N694 N 0.82666 0.68225 0.85278
 N695 N 0.81757 0.67368 0.85248
 C696 C 0.80998 0.67534 0.86255
 C697 C 0.81452 0.68538 0.86952
 C698 C 0.82508 0.68956 0.86307
 H699 H 0.80192 0.66949 0.86488
 H700 H 0.83128 0.69720 0.86585
 H701 H 0.82610 0.67439 0.83004
 H702 H 0.83588 0.66394 0.84032
 N703 N 0.81760 0.14738 0.32641
 N704 N 0.82660 0.14728 0.31783
 C705 C 0.82510 0.13707 0.31037
 C706 C 0.81460 0.13048 0.31453
 C707 C 0.81006 0.13729 0.32468
 H708 H 0.83126 0.13448 0.30265
 H709 H 0.80204 0.13490 0.33056
 Cu710 Cu 0.83966 0.16023 0.31780
 Cu711 Cu 0.81677 0.16003 0.33974
 Cu712 Cu 0.84012 0.18308 0.33975
 N713 N 0.85269 0.17322 0.31776
 N714 N 0.85281 0.18211 0.32643
 C715 C 0.86302 0.18951 0.32469
 C716 C 0.86964 0.18501 0.31439
 C717 C 0.86283 0.17470 0.31017
 H718 H 0.86558 0.19743 0.33061
 H719 H 0.86525 0.16861 0.30235
 N720 N 0.82647 0.18239 0.35244
 N721 N 0.81761 0.17360 0.35246
 C722 C 0.81015 0.17525 0.36265
 C723 C 0.81455 0.18555 0.36932
 C724 C 0.82487 0.18988 0.36259
 H725 H 0.80228 0.16925 0.36522
 H726 H 0.83092 0.19771 0.36512
 H727 H 0.82585 0.17421 0.32986
 H728 H 0.83590 0.16404 0.34017
 N729 N 0.68234 0.35277 0.32652
 N730 N 0.67356 0.35261 0.31773
 C731 C 0.67498 0.36284 0.31029
 C732 C 0.68517 0.36973 0.31468
 C733 C 0.68964 0.36308 0.32496
 H734 H 0.66896 0.36523 0.30239
 H735 H 0.69748 0.36566 0.33098
 Cu736 Cu 0.66081 0.33934 0.31707
 Cu737 Cu 0.68325 0.34002 0.33969
 Cu738 Cu 0.66039 0.31662 0.33939
 N739 N 0.64767 0.32645 0.31753
 N740 N 0.64769 0.31750 0.32614
 C741 C 0.63747 0.31010 0.32450
 C742 C 0.63066 0.31468 0.31437
 C743 C 0.63739 0.32505 0.31014
 H744 H 0.63501 0.30213 0.33041
 H745 H 0.63485 0.33121 0.30240
 N746 N 0.67397 0.31735 0.35207
 N747 N 0.68263 0.32633 0.35225
 C748 C 0.69005 0.32472 0.36246
 C749 C 0.68582 0.31426 0.36900
 C750 C 0.67566 0.30978 0.36216
 H751 H 0.69776 0.33087 0.36515
 H752 H 0.66973 0.30182 0.36459
 H753 H 0.67466 0.32569 0.32955
 H754 H 0.66415 0.33579 0.33954
 N755 N 0.68239 0.85289 0.82661
 N756 N 0.67360 0.85269 0.81782
 C757 C 0.67507 0.86284 0.81029
 C758 C 0.68528 0.86973 0.81461
 C759 C 0.68973 0.86315 0.82495
 H760 H 0.66901 0.86522 0.80241
 H761 H 0.69757 0.86578 0.83097
 Cu762 Cu 0.66062 0.83966 0.81759
 Cu763 Cu 0.68321 0.84026 0.83996
 Cu764 Cu 0.66037 0.81676 0.83956
 N765 N 0.64775 0.82651 0.81758
 N766 N 0.64780 0.81751 0.82614
 C767 C 0.63767 0.81000 0.82437
 C768 C 0.63089 0.81458 0.81421
 C769 C 0.63754 0.82505 0.81010
 H770 H 0.63521 0.80201 0.83025
 H771 H 0.63496 0.83126 0.80242
 N772 N 0.67382 0.81764 0.85239
 N773 N 0.68246 0.82665 0.85263
 C774 C 0.68979 0.82508 0.86292
 C775 C 0.68554 0.81459 0.86942
 C776 C 0.67546 0.81008 0.86248
 H777 H 0.69748 0.83123 0.86565
 H778 H 0.66956 0.80207 0.86483
 H779 H 0.67459 0.82599 0.82981
 H780 H 0.66414 0.83593 0.84000
 N781 N 0.18215 0.35290 0.82675
 N782 N 0.17325 0.35287 0.81808
 C783 C 0.17466 0.36313 0.81067
 C784 C 0.18499 0.36989 0.81495
 C785 C 0.18953 0.36314 0.82514
 H786 H 0.16859 0.36560 0.80284
 H787 H 0.19749 0.36561 0.83106
 Cu788 Cu 0.16046 0.33965 0.81753
 Cu789 Cu 0.18313 0.34008 0.83987
 Cu790 Cu 0.16026 0.31663 0.83948
 N791 N 0.14741 0.32667 0.81780
 N792 N 0.14752 0.31759 0.82627
 C793 C 0.13738 0.31010 0.82453
 C794 C 0.13051 0.31478 0.81447
 C795 C 0.13713 0.32528 0.81040
 H796 H 0.13500 0.30202 0.83030
 H797 H 0.13453 0.33152 0.80274
 N798 N 0.17388 0.31731 0.85214
 N799 N 0.18252 0.32633 0.85239
 C800 C 0.18989 0.32470 0.86264
 C801 C 0.18569 0.31417 0.86909
 C802 C 0.17558 0.30969 0.86217
 H803 H 0.19754 0.33088 0.86542
 H804 H 0.16967 0.30169 0.86454
 H805 H 0.17443 0.32586 0.82970
 H806 H 0.16404 0.33581 0.83994
 N807 N 0.18228 0.85287 0.32648
 N808 N 0.17329 0.85289 0.31790
 C809 C 0.17476 0.86305 0.31038
 C810 C 0.18521 0.86973 0.31451
 C811 C 0.18977 0.86301 0.32471
 H812 H 0.16861 0.86556 0.30262
 H813 H 0.19780 0.86545 0.33055
 Cu814 Cu 0.16028 0.83989 0.31782
 Cu815 Cu 0.18323 0.84014 0.33973
 Cu816 Cu 0.16028 0.81669 0.33942
 N817 N 0.14743 0.82673 0.31770
 N818 N 0.14759 0.81759 0.32612
 C819 C 0.13752 0.81003 0.32427
 C820 C 0.13068 0.81470 0.31420
 C821 C 0.13722 0.82528 0.31022
 H822 H 0.13518 0.80191 0.33001
 H823 H 0.13458 0.83156 0.30260
 N824 N 0.17386 0.81747 0.35214
 N825 N 0.18253 0.82646 0.35234
 C826 C 0.18988 0.82488 0.36261
 C827 C 0.18562 0.81442 0.36914
 C828 C 0.17550 0.80993 0.36225
 H829 H 0.19756 0.83104 0.36534
 H830 H 0.16956 0.80196 0.36466
 H831 H 0.17439 0.82600 0.32962
 H832 H 0.16418 0.83583 0.34012
 C833 C 0.24311 1.02692 0.25899
 C834 C 0.25171 1.03329 0.25128
 C835 C 0.25939 1.02685 0.24271
 C836 C 0.25872 1.01354 0.24192
 C837 C 0.25022 1.00689 0.24991
 C838 C 0.24230 1.01361 0.25843
 C839 C 0.23400 1.00684 0.26629
 C840 C 0.23353 0.99367 0.26587
 C841 C 0.24130 0.98685 0.25753
 C842 C 0.24971 0.99351 0.24946
 C843 C 0.26645 1.00671 0.23355
 C844 C 0.26592 0.99356 0.23308
 C845 C 0.25767 0.98679 0.24098
 C846 C 0.25702 0.97346 0.24057
 C847 C 0.24864 0.96706 0.24849
 C848 C 0.24091 0.97352 0.25700
 H849 H 0.22787 1.01167 0.27290
 H850 H 0.22702 0.98887 0.27214
 H851 H 0.27303 1.01150 0.22735
 H852 H 0.27206 0.98872 0.22647
 H853 H 0.25226 1.04353 0.25179
 H854 H 0.24827 0.95681 0.24817
 C855 C 0.25781 0.47322 0.74126
 C856 C 0.24977 0.46680 0.74949
 C857 C 0.24180 0.47326 0.75778
 C858 C 0.24173 0.48660 0.75787
 C859 C 0.24991 0.49328 0.74958
 C860 C 0.25801 0.48657 0.74123
 C861 C 0.26603 0.49336 0.73311
 C862 C 0.26618 0.50653 0.73324
 C863 C 0.25830 0.51336 0.74148
 C864 C 0.25005 0.50668 0.74970
 C865 C 0.23381 0.49343 0.76607
 C866 C 0.23395 0.50660 0.76618
 C867 C 0.24201 0.51339 0.75810
 C868 C 0.24241 0.52674 0.75829
 C869 C 0.25064 0.53315 0.75023
 C870 C 0.25849 0.52669 0.74183
 H871 H 0.27228 0.48852 0.72662
 H872 H 0.27256 0.51135 0.72685
 H873 H 0.22747 0.48861 0.77250
 H874 H 0.22773 0.51144 0.77272
 H875 H 0.24973 0.45653 0.74947
 H876 H 0.25088 0.54341 0.75043
 C877 C 0.75963 -0.02677 0.25664
 C878 C 0.75191 -0.03318 0.24810
 C879 C 0.74329 -0.02676 0.24045
 C880 C 0.74247 -0.01345 0.24109
 C881 C 0.75044 -0.00677 0.24957
 C882 C 0.75901 -0.01346 0.25745
 C883 C 0.76680 -0.00668 0.26578
 C884 C 0.76621 0.00647 0.26639
 C885 C 0.75779 0.01328 0.25869
 C886 C 0.74982 0.00660 0.25020
 C887 C 0.73406 -0.00664 0.23338
 C888 C 0.73345 0.00650 0.23400
 C889 C 0.74122 0.01329 0.24235
 C890 C 0.74050 0.02659 0.24327
 C891 C 0.74820 0.03298 0.25184
 C892 C 0.75691 0.02658 0.25939
 H893 H 0.77346 -0.01150 0.27188
 H894 H 0.77237 0.01127 0.27299
 H895 H 0.72790 -0.01145 0.22679
 H896 H 0.72678 0.01132 0.22792
 H897 H 0.75242 -0.04341 0.24759
 H898 H 0.74761 0.04321 0.25244
 C899 C 0.75967 0.47332 0.75668
 C900 C 0.75198 0.46692 0.74811
 C901 C 0.74335 0.47334 0.74048
 C902 C 0.74250 0.48664 0.74114
 C903 C 0.75045 0.49332 0.74964
 C904 C 0.75902 0.48663 0.75751
 C905 C 0.76680 0.49342 0.76585
 C906 C 0.76618 0.50657 0.76648
 C907 C 0.75774 0.51337 0.75880
 C908 C 0.74980 0.50670 0.75029
 C909 C 0.73406 0.49344 0.73346
 C910 C 0.73340 0.50658 0.73411
 C911 C 0.74117 0.51338 0.74246
 C912 C 0.74041 0.52667 0.74340
 C913 C 0.74809 0.53306 0.75199
 C914 C 0.75682 0.52667 0.75954
 H915 H 0.77346 0.48861 0.77195
 H916 H 0.77233 0.51137 0.77309
 H917 H 0.72790 0.48863 0.72685
 H918 H 0.72669 0.51139 0.72806
 H919 H 0.75250 0.45669 0.74758
 H920 H 0.74748 0.54329 0.75261
 C921 C 0.25714 0.47335 0.25889
 C922 C 0.24861 0.46698 0.25113
 C923 C 0.24094 0.47342 0.24257
 C924 C 0.24152 0.48674 0.24185
 C925 C 0.24997 0.49339 0.24989
 C926 C 0.25791 0.48667 0.25837
 C927 C 0.26616 0.49344 0.26627
 C928 C 0.26654 0.50661 0.26594
 C929 C 0.25870 0.51344 0.25769
 C930 C 0.25038 0.50678 0.24953
 C931 C 0.23375 0.49358 0.23354
 C932 C 0.23417 0.50674 0.23317
 C933 C 0.24237 0.51351 0.24112
 C934 C 0.24284 0.52685 0.24089
 C935 C 0.25106 0.53326 0.24896
 C936 C 0.25888 0.52678 0.25737
 H937 H 0.27232 0.48860 0.27285
 H938 H 0.27300 0.51140 0.27225
 H939 H 0.22720 0.48880 0.22731
 H940 H 0.22797 0.51159 0.22664
 H941 H 0.24809 0.45674 0.25161
 H942 H 0.25127 0.54352 0.24879
 C943 C 0.74317 1.02701 0.75936
 C944 C 0.75178 1.03335 0.75163
 C945 C 0.75944 1.02686 0.74307
 C946 C 0.75875 1.01356 0.74232
 C947 C 0.75022 1.00695 0.75030
 C948 C 0.74232 1.01370 0.75881
 C949 C 0.73397 1.00697 0.76664
 C950 C 0.73337 0.99381 0.76615
 C951 C 0.74108 0.98695 0.75779
 C952 C 0.74959 0.99356 0.74979
 C953 C 0.76646 1.00670 0.73395
 C954 C 0.76582 0.99355 0.73343
 C955 C 0.75747 0.98681 0.74126
 C956 C 0.75660 0.97351 0.74069
 C957 C 0.74804 0.96716 0.74846
 C958 C 0.74042 0.97364 0.75705
 H959 H 0.72786 1.01183 0.77326
 H960 H 0.72677 0.98905 0.77236
 H961 H 0.77308 1.01145 0.72777
 H962 H 0.77191 0.98869 0.72679
 H963 H 0.75233 1.04358 0.75209
 H964 H 0.74748 0.95693 0.74799
 C965 C 0.75700 0.47334 0.24069
 C966 C 0.74861 0.46696 0.24863
 C967 C 0.74089 0.47343 0.25713
 C968 C 0.74132 0.48676 0.25766
 C969 C 0.74973 0.49340 0.24958
 C970 C 0.75767 0.48667 0.24109
 C971 C 0.76592 0.49343 0.23318
 C972 C 0.76645 0.50659 0.23363
 C973 C 0.75872 0.51343 0.24199
 C974 C 0.75025 0.50679 0.25001
 C975 C 0.73356 0.49360 0.26600
 C976 C 0.73405 0.50676 0.26641
 C977 C 0.74234 0.51352 0.25853
 C978 C 0.74314 0.52683 0.25908
 C979 C 0.75171 0.53320 0.25133
 C980 C 0.75938 0.52675 0.24276
 H981 H 0.77206 0.48858 0.22658
 H982 H 0.77301 0.51136 0.22740
 H983 H 0.72704 0.48881 0.27227
 H984 H 0.72794 0.51160 0.27304
 H985 H 0.74823 0.45671 0.24832
 H986 H 0.75225 0.54344 0.25182
 C987 C 0.24039 0.02637 0.74364
 C988 C 0.24803 0.03274 0.75229
 C989 C 0.25680 0.02635 0.75978
 C990 C 0.25782 0.01306 0.75894
 C991 C 0.24991 0.00640 0.75040
 C992 C 0.24123 0.01308 0.74262
 C993 C 0.23347 0.00630 0.73426
 C994 C 0.23418 -0.00684 0.73355
 C995 C 0.24269 -0.01364 0.74116
 C996 C 0.25064 -0.00697 0.74966
 C997 C 0.26633 0.00626 0.76655
 C998 C 0.26708 -0.00688 0.76580
 C999 C 0.25932 -0.01366 0.75743
 C1000 C 0.26010 -0.02696 0.75645
 C1001 C 0.25239 -0.03334 0.74787
 C1002 C 0.24362 -0.02693 0.74039
 H1003 H 0.22673 0.01109 0.72824
 H1004 H 0.22803 -0.01164 0.72694
 H1005 H 0.27246 0.01105 0.77319
 H1006 H 0.27381 -0.01168 0.77181
 H1007 H 0.24736 0.04296 0.75297
 H1008 H 0.25299 -0.04357 0.74725
 C1009 C 0.25712 0.24084 0.97303
 C1010 C 0.24848 0.24848 0.96664
 C1011 C 0.24071 0.25701 0.97305
 C1012 C 0.24129 0.25778 0.98633
 C1013 C 0.24987 0.24989 0.99299
 C1014 C 0.25793 0.24147 0.98632
 C1015 C 0.26634 0.23374 0.99310
 C1016 C 0.26677 0.23417 1.00623
 C1017 C 0.25876 0.24231 1.01303
 C1018 C 0.25027 0.25028 1.00636
 C1019 C 0.23334 0.26598 0.99313
 C1020 C 0.23370 0.26633 1.00626
 C1021 C 0.24205 0.25854 1.01304
 C1022 C 0.24234 0.25864 1.02635
 C1023 C 0.25081 0.25084 1.03278
 C1024 C 0.25899 0.24273 1.02634
 H1025 H 0.27259 0.22721 0.98829
 H1026 H 0.27338 0.22800 1.01104
 H1027 H 0.22667 0.27209 0.98833
 H1028 H 0.22732 0.27273 1.01109
 H1029 H 0.24794 0.24795 0.95643
 H1030 H 0.25096 0.25099 1.04302
 C1031 C 0.24238 0.75873 0.52636
 C1032 C 0.25070 0.75076 0.53277
 C1033 C 0.25886 0.74266 0.52631
 C1034 C 0.25877 0.74241 0.51300
 C1035 C 0.25038 0.75051 0.50634
 C1036 C 0.24218 0.75877 0.51305
 C1037 C 0.23393 0.76668 0.50628
 C1038 C 0.23362 0.76641 0.49314
 C1039 C 0.24153 0.75819 0.48633
 C1040 C 0.25004 0.75021 0.49297
 C1041 C 0.26675 0.73426 0.50618
 C1042 C 0.26640 0.73394 0.49304
 C1043 C 0.25807 0.74178 0.48627
 C1044 C 0.25730 0.74123 0.47298
 C1045 C 0.24873 0.74896 0.46661
 C1046 C 0.24098 0.75749 0.47304
 H1047 H 0.22758 0.77309 0.51112
 H1048 H 0.22702 0.77260 0.48836
 H1049 H 0.27327 0.72800 0.51098
 H1050 H 0.27263 0.72740 0.48822
 H1051 H 0.25076 0.75079 0.54302
 H1052 H 0.24821 0.74848 0.45639
 C1053 C 0.25961 0.75677 -0.02693
 C1054 C 0.25173 0.74833 -0.03329
 C1055 C 0.24310 0.74073 -0.02684
 C1056 C 0.24243 0.74128 -0.01355
 C1057 C 0.25049 0.74971 -0.00692
 C1058 C 0.25907 0.75757 -0.01364
 C1059 C 0.26694 0.76587 -0.00689
 C1060 C 0.26637 0.76650 0.00624
 C1061 C 0.25794 0.75883 0.01306
 C1062 C 0.24995 0.75032 0.00643
 C1063 C 0.23403 0.73358 -0.00673
 C1064 C 0.23351 0.73415 0.00640
 C1065 C 0.24136 0.74247 0.01314
 C1066 C 0.24071 0.74336 0.02642
 C1067 C 0.24843 0.75196 0.03277
 C1068 C 0.25708 0.75955 0.02634
 H1069 H 0.27361 0.77194 -0.01172
 H1070 H 0.27256 0.77310 0.01101
 H1071 H 0.22778 0.72704 -0.01151
 H1072 H 0.22684 0.72808 0.01122
 H1073 H 0.25213 0.74785 -0.04352
 H1074 H 0.24788 0.75255 0.04298
 C1075 C 0.24341 0.24021 0.47336
 C1076 C 0.25209 0.24782 0.46697
 C1077 C 0.25967 0.25652 0.47335
 C1078 C 0.25886 0.25750 0.48662
 C1079 C 0.25027 0.24962 0.49328
 C1080 C 0.24242 0.24101 0.48662
 C1081 C 0.23398 0.23331 0.49340
 C1082 C 0.23323 0.23405 0.50651
 C1083 C 0.24090 0.24250 0.51329
 C1084 C 0.24951 0.25037 0.50662
 C1085 C 0.26653 0.26596 0.49339
 C1086 C 0.26579 0.26669 0.50649
 C1087 C 0.25735 0.25899 0.51328
 C1088 C 0.25633 0.25982 0.52654
 C1089 C 0.24764 0.25223 0.53292
 C1090 C 0.24007 0.24352 0.52655
 H1091 H 0.22791 0.22661 0.48862
 H1092 H 0.22654 0.22797 0.51130
 H1093 H 0.27321 0.27205 0.48859
 H1094 H 0.27184 0.27340 0.51128
 H1095 H 0.25273 0.24719 0.45677
 H1096 H 0.24698 0.25288 0.54312
 C1097 C 0.75649 0.74025 0.97324
 C1098 C 0.74781 0.74785 0.96685
 C1099 C 0.74022 0.75657 0.97322
 C1100 C 0.74103 0.75758 0.98648
 C1101 C 0.74964 0.74971 0.99315
 C1102 C 0.75749 0.74108 0.98650
 C1103 C 0.76592 0.73337 0.99328
 C1104 C 0.76665 0.73412 1.00639
 C1105 C 0.75897 0.74260 1.01315
 C1106 C 0.75038 0.75047 1.00649
 C1107 C 0.73335 0.76605 0.99325
 C1108 C 0.73408 0.76679 1.00636
 C1109 C 0.74252 0.75909 1.01314
 C1110 C 0.74350 0.75990 1.02640
 C1111 C 0.75218 0.75230 1.03279
 C1112 C 0.75977 0.74360 1.02641
 H1113 H 0.77198 0.72665 0.98850
 H1114 H 0.77333 0.72803 1.01118
 H1115 H 0.72666 0.77213 0.98845
 H1116 H 0.72800 0.77349 1.01114
 H1117 H 0.74717 0.74721 0.95665
 H1118 H 0.75281 0.75294 1.04299
 C1119 C 0.74079 0.25726 0.52641
 C1120 C 0.74854 0.24873 0.53283
 C1121 C 0.75709 0.24099 0.52643
 C1122 C 0.75786 0.24154 0.51314
 C1123 C 0.74983 0.24997 0.50646
 C1124 C 0.74132 0.25796 0.51312
 C1125 C 0.73341 0.26617 0.50631
 C1126 C 0.73372 0.26645 0.49317
 C1127 C 0.74199 0.25856 0.48639
 C1128 C 0.75019 0.25030 0.49309
 C1129 C 0.76621 0.23373 0.50637
 C1130 C 0.76660 0.23409 0.49323
 C1131 C 0.75861 0.24223 0.48643
 C1132 C 0.75878 0.24255 0.47311
 C1133 C 0.75061 0.25066 0.46666
 C1134 C 0.74224 0.25857 0.47308
 H1135 H 0.72681 0.27236 0.51111
 H1136 H 0.72736 0.27285 0.48834
 H1137 H 0.77244 0.22718 0.51118
 H1138 H 0.77315 0.22785 0.48843
 H1139 H 0.74804 0.24824 0.54305
 H1140 H 0.75071 0.25073 0.45642
 C1141 C 0.75779 0.25856 0.02638
 C1142 C 0.74968 0.25039 0.03282
 C1143 C 0.74173 0.24208 0.02639
 C1144 C 0.74170 0.24193 0.01307
 C1145 C 0.74994 0.25016 0.00639
 C1146 C 0.75808 0.25848 0.01307
 C1147 C 0.76618 0.26652 0.00627
 C1148 C 0.76632 0.26637 -0.00688
 C1149 C 0.75831 0.25825 -0.01367
 C1150 C 0.75002 0.25007 -0.00699
 C1151 C 0.73369 0.23380 0.00629
 C1152 C 0.73372 0.23378 -0.00686
 C1153 C 0.74182 0.24182 -0.01366
 C1154 C 0.74194 0.24189 -0.02698
 C1155 C 0.75024 0.24986 -0.03342
 C1156 C 0.75839 0.25797 -0.02699
 H1157 H 0.77248 0.27298 0.01108
 H1158 H 0.77276 0.27270 -0.01170
 H1159 H 0.72731 0.22742 0.01111
 H1160 H 0.72735 0.22738 -0.01168
 H1161 H 0.74959 0.25047 0.04306
 H1162 H 0.75031 0.24978 -0.04366
 C1163 C 0.74182 0.74201 0.47332
 C1164 C 0.75025 0.74982 0.46686
 C1165 C 0.75848 0.75788 0.47326
 C1166 C 0.75842 0.75819 0.48657
 C1167 C 0.74998 0.75019 0.49329
 C1168 C 0.74163 0.74206 0.48664
 C1169 C 0.73334 0.73423 0.49346
 C1170 C 0.73328 0.73434 0.50661
 C1171 C 0.74151 0.74227 0.51337
 C1172 C 0.74993 0.75029 0.50666
 C1173 C 0.76663 0.76613 0.49333
 C1174 C 0.76658 0.76623 0.50648
 C1175 C 0.75831 0.75838 0.51331
 C1176 C 0.75824 0.75831 0.52662
 C1177 C 0.74986 0.75044 0.53309
 C1178 C 0.74152 0.74249 0.52669
 H1179 H 0.72684 0.72795 0.48867
 H1180 H 0.72672 0.72815 0.51145
 H1181 H 0.77319 0.77232 0.48850
 H1182 H 0.77310 0.77249 0.51128
 H1183 H 0.75035 0.74968 0.45661
 H1184 H 0.74986 0.75048 0.54334
 C1185 C 1.02683 0.24184 0.25771
 C1186 C 1.03326 0.24975 0.24935
 C1187 C 1.02681 0.25820 0.24156
 C1188 C 1.01346 0.25869 0.24188
 C1189 C 1.00677 0.25052 0.25015
 C1190 C 1.01348 0.24214 0.25821
 C1191 C 1.00667 0.23408 0.26628
 C1192 C 0.99348 0.23404 0.26626
 C1193 C 0.98666 0.24208 0.25818
 C1194 C 0.99335 0.25049 0.25014
 C1195 C 1.00664 0.26688 0.23396
 C1196 C 0.99345 0.26688 0.23396
 C1197 C 0.98664 0.25867 0.24187
 C1198 C 0.97329 0.25813 0.24153
 C1199 C 0.96687 0.24963 0.24929
 C1200 C 0.97331 0.24172 0.25765
 H1201 H 1.01151 0.22760 0.27255
 H1202 H 0.98866 0.22754 0.27251
 H1203 H 1.01146 0.27324 0.22756
 H1204 H 0.98862 0.27325 0.22758
 H1205 H 1.04352 0.24938 0.24896
 H1206 H 0.95661 0.24922 0.24889
 C1207 C 0.47340 0.25831 0.74208
 C1208 C 0.46697 0.25038 0.75042
 C1209 C 0.47342 0.24188 0.75816
 C1210 C 0.48677 0.24137 0.75782
 C1211 C 0.49346 0.24956 0.74956
 C1212 C 0.48675 0.25798 0.74154
 C1213 C 0.49356 0.26604 0.73348
 C1214 C 0.50675 0.26605 0.73348
 C1215 C 0.51358 0.25799 0.74154
 C1216 C 0.50688 0.24958 0.74957
 C1217 C 0.49359 0.23316 0.76573
 C1218 C 0.50678 0.23319 0.76574
 C1219 C 0.51359 0.24141 0.75784
 C1220 C 0.52694 0.24196 0.75821
 C1221 C 0.53336 0.25046 0.75045
 C1222 C 0.52693 0.25835 0.74208
 H1223 H 0.48873 0.27256 0.72725
 H1224 H 0.51157 0.27256 0.72723
 H1225 H 0.48877 0.22678 0.77211
 H1226 H 0.51161 0.22683 0.77214
 H1227 H 0.45671 0.25076 0.75082
 H1228 H 0.54362 0.25087 0.75086
 C1229 C -0.02686 0.24095 0.74276
 C1230 C -0.03326 0.24873 0.75127
 C1231 C -0.02682 0.25730 0.75893
 C1232 C -0.01348 0.25799 0.75837
 C1233 C -0.00681 0.24998 0.74990
 C1234 C -0.01353 0.24151 0.74195
 C1235 C -0.00674 0.23366 0.73366
 C1236 C 0.00645 0.23401 0.73326
 C1237 C 0.01329 0.24217 0.74118
 C1238 C 0.00661 0.25028 0.74954
 C1239 C -0.00664 0.26622 0.76622
 C1240 C 0.00655 0.26649 0.76589
 C1241 C 0.01334 0.25856 0.75768
 C1242 C 0.02670 0.25853 0.75746
 C1243 C 0.03313 0.25058 0.74913
 C1244 C 0.02665 0.24246 0.74102
 H1245 H -0.01157 0.22710 0.72748
 H1246 H 0.01126 0.22775 0.72675
 H1247 H -0.01144 0.27242 0.77279
 H1248 H 0.01140 0.27291 0.77220
 H1249 H -0.04351 0.24825 0.75179
 H1250 H 0.04340 0.25064 0.74903
 C1251 C 0.52680 0.25785 0.25813
 C1252 C 0.53324 0.24937 0.25035
 C1253 C 0.52681 0.24144 0.24202
 C1254 C 0.51345 0.24178 0.24151
 C1255 C 0.50675 0.25018 0.24955
 C1256 C 0.51345 0.25835 0.25782
 C1257 C 0.50663 0.26654 0.26575
 C1258 C 0.49343 0.26654 0.26576
 C1259 C 0.48662 0.25836 0.25784
 C1260 C 0.49332 0.25019 0.24956
 C1261 C 0.50664 0.23374 0.23344
 C1262 C 0.49344 0.23374 0.23345
 C1263 C 0.48662 0.24179 0.24152
 C1264 C 0.47327 0.24146 0.24205
 C1265 C 0.46683 0.24938 0.25041
 C1266 C 0.47327 0.25785 0.25818
 H1267 H 0.51145 0.27289 0.27215
 H1268 H 0.48861 0.27289 0.27217
 H1269 H 0.51146 0.22725 0.22717
 H1270 H 0.48862 0.22725 0.22720
 H1271 H 0.54350 0.24899 0.25072
 H1272 H 0.45657 0.24900 0.25081
 C1273 C 1.02679 0.74319 0.75901
 C1274 C 1.03321 0.75145 0.75099
 C1275 C 1.02673 0.75920 0.74252
 C1276 C 1.01338 0.75892 0.74210
 C1277 C 1.00672 0.75056 0.75021
 C1278 C 1.01344 0.74261 0.75868
 C1279 C 1.00666 0.73438 0.76659
 C1280 C 0.99348 0.73386 0.76611
 C1281 C 0.98665 0.74157 0.75774
 C1282 C 0.99331 0.75006 0.74975
 C1283 C 1.00656 0.76669 0.73378
 C1284 C 0.99338 0.76622 0.73334
 C1285 C 0.98660 0.75793 0.74120
 C1286 C 0.97328 0.75707 0.74057
 C1287 C 0.96689 0.74849 0.74827
 C1288 C 0.97333 0.74087 0.75689
 H1289 H 1.01150 0.72824 0.77318
 H1290 H 0.98869 0.72728 0.77231
 H1291 H 1.01136 0.77319 0.72751
 H1292 H 0.98856 0.77231 0.72670
 H1293 H 1.04348 0.75173 0.75121
 H1294 H 0.95665 0.74790 0.74772
 C1295 C 0.52682 0.74307 0.25907
 C1296 C 0.53325 0.75141 0.25113
 C1297 C 0.52678 0.75919 0.24268
 C1298 C 0.51343 0.75887 0.24220
 C1299 C 0.50676 0.75046 0.25025
 C1300 C 0.51347 0.74247 0.25869
 C1301 C 0.50668 0.73419 0.26654
 C1302 C 0.49351 0.73366 0.26604
 C1303 C 0.48668 0.74141 0.25770
 C1304 C 0.49335 0.74995 0.24977
 C1305 C 0.50661 0.76668 0.23391
 C1306 C 0.49344 0.76621 0.23347
 C1307 C 0.48665 0.75788 0.24127
 C1308 C 0.47333 0.75704 0.24063
 C1309 C 0.46694 0.74837 0.24823
 C1310 C 0.47336 0.74070 0.25682
 H1311 H 0.51152 0.72802 0.27311
 H1312 H 0.48871 0.72704 0.27219
 H1313 H 0.51143 0.77321 0.22767
 H1314 H 0.48862 0.77235 0.22686
 H1315 H 0.54351 0.75171 0.25139
 H1316 H 0.45670 0.74776 0.24763
 C1317 C -0.02695 0.74088 0.24281
 C1318 C -0.03338 0.74859 0.25136
 C1319 C -0.02699 0.75719 0.25903
 C1320 C -0.01366 0.75797 0.25846
 C1321 C -0.00695 0.75003 0.24996
 C1322 C -0.01362 0.74154 0.24199
 C1323 C -0.00679 0.73378 0.23365
 C1324 C 0.00639 0.73427 0.23319
 C1325 C 0.01319 0.74248 0.24110
 C1326 C 0.00647 0.75047 0.24954
 C1327 C -0.00686 0.76624 0.26631
 C1328 C 0.00632 0.76662 0.26594
 C1329 C 0.01315 0.75881 0.25766
 C1330 C 0.02651 0.75902 0.25728
 C1331 C 0.03297 0.75123 0.24883
 C1332 C 0.02654 0.74301 0.24078
 H1333 H -0.01158 0.72720 0.22747
 H1334 H 0.01123 0.72811 0.22661
 H1335 H -0.01170 0.77238 0.27291
 H1336 H 0.01114 0.77308 0.27224
 H1337 H -0.04363 0.74804 0.25189
 H1338 H 0.04324 0.75146 0.24862
 C1339 C 0.47307 0.75784 0.75890
 C1340 C 0.46661 0.74933 0.75119
 C1341 C 0.47302 0.74142 0.74280
 C1342 C 0.48636 0.74183 0.74213
 C1343 C 0.49309 0.75026 0.75011
 C1344 C 0.48642 0.75837 0.75849
 C1345 C 0.49327 0.76658 0.76635
 C1346 C 0.50646 0.76677 0.76609
 C1347 C 0.51325 0.75878 0.75793
 C1348 C 0.50651 0.75049 0.74981
 C1349 C 0.49315 0.73390 0.73391
 C1350 C 0.50634 0.73417 0.73358
 C1351 C 0.51319 0.74233 0.74150
 C1352 C 0.52655 0.74259 0.74136
 C1353 C 0.53303 0.75074 0.74943
 C1354 C 0.52661 0.75874 0.75772
 H1355 H 0.48846 0.77286 0.77284
 H1356 H 0.51132 0.77320 0.77239
 H1357 H 0.48830 0.72737 0.72772
 H1358 H 0.51115 0.72787 0.72711
 H1359 H 0.45635 0.74896 0.75162
 H1360 H 0.54331 0.75079 0.74934
 C1361 C 0.40348 0.30036 0.30061
 N1362 N 0.39724 0.29438 0.31007
 N1363 N 0.38634 0.29893 0.31445
 C1364 C 0.38125 0.30962 0.30950
 N1365 N 0.38748 0.31562 0.30003
 N1366 N 0.39840 0.31107 0.29565
 C1367 C 0.41534 0.29511 0.29562
 N1368 N 0.42175 0.30104 0.28622
 N1369 N 0.43221 0.29593 0.28137
 C1370 C 0.43664 0.28470 0.28575
 N1371 N 0.43029 0.27884 0.29522
 N1372 N 0.41986 0.28396 0.30009
 C1373 C 0.44743 0.27842 0.27965
 N1374 N 0.45048 0.26637 0.28284
 N1375 N 0.45927 0.26006 0.27641
 C1376 C 0.46547 0.26562 0.26667
 N1377 N 0.46258 0.27774 0.26359
 N1378 N 0.45373 0.28404 0.26999
 C1379 C 0.40300 0.80071 0.80052
 N1380 N 0.39724 0.79523 0.81057
 N1381 N 0.38633 0.79975 0.81497
 C1382 C 0.38073 0.80989 0.80945
 N1383 N 0.38649 0.81538 0.79938
 N1384 N 0.39742 0.81086 0.79499
 C1385 C 0.41490 0.79550 0.79555
 N1386 N 0.42086 0.80100 0.78561
 N1387 N 0.43137 0.79592 0.78082
 C1388 C 0.43631 0.78517 0.78581
 N1389 N 0.43041 0.77975 0.79582
 N1390 N 0.41993 0.78484 0.80062
 C1391 C 0.44716 0.77886 0.77983
 N1392 N 0.45074 0.76717 0.78370
 N1393 N 0.45959 0.76075 0.77743
 C1394 C 0.46529 0.76587 0.76717
 N1395 N 0.46186 0.77764 0.76339
 N1396 N 0.45297 0.78404 0.76963
 C1397 C -0.09681 0.30033 0.80049
 N1398 N -0.10187 0.31099 0.79543
 N1399 N -0.11280 0.31559 0.79973
 C1400 C -0.11907 0.30968 0.80924
 N1401 N -0.11400 0.29904 0.81430
 N1402 N -0.10310 0.29444 0.80999
 C1403 C -0.08494 0.29500 0.79562
 N1404 N -0.08051 0.28386 0.80018
 N1405 N -0.07005 0.27867 0.79545
 C1406 C -0.06358 0.28446 0.78602
 N1407 N -0.06792 0.29568 0.78153
 N1408 N -0.07841 0.30086 0.78625
 C1409 C -0.05275 0.27808 0.78008
 N1410 N -0.04618 0.28369 0.77058
 N1411 N -0.03728 0.27731 0.76432
 C1412 C -0.03462 0.26513 0.76737
 N1413 N -0.04110 0.25959 0.77693
 N1414 N -0.04993 0.26597 0.78323
 C1415 C -0.09692 0.80031 0.30060
 N1416 N -0.10198 0.81095 0.29551
 N1417 N -0.11292 0.81555 0.29981
 C1418 C -0.11918 0.80966 0.30934
 N1419 N -0.11410 0.79903 0.31441
 N1420 N -0.10319 0.79443 0.31011
 C1421 C -0.08504 0.79498 0.29573
 N1422 N -0.08063 0.78384 0.30030
 N1423 N -0.07018 0.77863 0.29556
 C1424 C -0.06370 0.78441 0.28613
 N1425 N -0.06803 0.79564 0.28164
 N1426 N -0.07851 0.80084 0.28637
 C1427 C -0.05290 0.77801 0.28018
 N1428 N -0.04628 0.78362 0.27072
 N1429 N -0.03740 0.77722 0.26445
 C1430 C -0.03482 0.76502 0.26745
 N1431 N -0.04134 0.75947 0.27698
 N1432 N -0.05015 0.76587 0.28328
 C1433 C 0.59640 0.69971 0.30095
 N1434 N 0.60166 0.68924 0.29570
 N1435 N 0.61258 0.68466 0.30003
 C1436 C 0.61863 0.69040 0.30977
 N1437 N 0.61336 0.70085 0.31502
 N1438 N 0.60246 0.70543 0.31068
 C1439 C 0.58456 0.70505 0.29601
 N1440 N 0.57993 0.71603 0.30077
 N1441 N 0.56954 0.72125 0.29595
 C1442 C 0.56332 0.71566 0.28624
 N1443 N 0.56786 0.70460 0.28156
 N1444 N 0.57829 0.69938 0.28636
 C1445 C 0.55258 0.72209 0.28022
 N1446 N 0.54636 0.71669 0.27039
 N1447 N 0.53755 0.72313 0.26408
 C1448 C 0.53462 0.73517 0.26742
 N1449 N 0.54075 0.74051 0.27731
 N1450 N 0.54950 0.73407 0.28365
 C1451 C 0.59649 0.19923 0.80068
 N1452 N 0.60277 0.20525 0.81009
 N1453 N 0.61368 0.20070 0.81445
 C1454 C 0.61874 0.18999 0.80953
 N1455 N 0.61248 0.18396 0.80011
 N1456 N 0.60154 0.18850 0.79576
 C1457 C 0.58464 0.20450 0.79572
 N1458 N 0.57817 0.19855 0.78638
 N1459 N 0.56773 0.20370 0.78153
 C1460 C 0.56339 0.21499 0.78586
 N1461 N 0.56980 0.22086 0.79527
 N1462 N 0.58020 0.21570 0.80013
 C1463 C 0.55266 0.22133 0.77974
 N1464 N 0.54975 0.23343 0.78282
 N1465 N 0.54100 0.23978 0.77637
 C1466 C 0.53472 0.23420 0.76671
 N1467 N 0.53748 0.22203 0.76372
 N1468 N 0.54628 0.21569 0.77014
 C1469 C 1.09653 0.69997 0.80074
 N1470 N 1.10161 0.68931 0.79568
 N1471 N 1.11249 0.68468 0.80005
 C1472 C 1.11869 0.69054 0.80962
 N1473 N 1.11360 0.70118 0.81467
 N1474 N 1.10274 0.70582 0.81029
 C1475 C 1.08470 0.70532 0.79580
 N1476 N 1.08018 0.71639 0.80046
 N1477 N 1.06977 0.72160 0.79567
 C1478 C 1.06343 0.71591 0.78610
 N1479 N 1.06787 0.70477 0.78152
 N1480 N 1.07831 0.69956 0.78629
 C1481 C 1.05266 0.72231 0.78011
 N1482 N 1.04636 0.71685 0.77037
 N1483 N 1.03751 0.72326 0.76408
 C1484 C 1.03461 0.73532 0.76737
 N1485 N 1.04081 0.74072 0.77719
 N1486 N 1.04961 0.73431 0.78350
 C1487 C 1.09616 0.19879 0.30027
 N1488 N 1.10128 0.20395 0.31082
 N1489 N 1.11218 0.19961 0.31543
 C1490 C 1.11835 0.18996 0.30964
 N1491 N 1.11322 0.18479 0.29911
 N1492 N 1.10234 0.18914 0.29449
 C1493 C 1.08435 0.20380 0.29496
 N1494 N 1.07991 0.19939 0.28378
 N1495 N 1.06956 0.20435 0.27861
 C1496 C 1.06321 0.21385 0.28445
 N1497 N 1.06755 0.21817 0.29571
 N1498 N 1.07794 0.21323 0.30087
 C1499 C 1.05252 0.22007 0.27813
 N1500 N 1.04606 0.22958 0.28386
 N1501 N 1.03728 0.23608 0.27758
 C1502 C 1.03463 0.23326 0.26537
 N1503 N 1.04100 0.22369 0.25969
 N1504 N 1.04972 0.21715 0.26598
 C1505 C 0.59646 0.30131 0.69984
 N1506 N 0.60161 0.29617 0.68928
 N1507 N 0.61257 0.30045 0.68476
 C1508 C 0.61877 0.31002 0.69062
 N1509 N 0.61361 0.31518 0.70116
 N1510 N 0.60267 0.31088 0.70571
 C1511 C 0.58460 0.29634 0.70509
 N1512 N 0.58014 0.30071 0.71627
 N1513 N 0.56973 0.29579 0.72138
 C1514 C 0.56336 0.28637 0.71547
 N1515 N 0.56773 0.28209 0.70420
 N1516 N 0.57817 0.28699 0.69910
 C1517 C 0.55263 0.28017 0.72174
 N1518 N 0.54615 0.27072 0.71596
 N1519 N 0.53735 0.26421 0.72221
 C1520 C 0.53471 0.26697 0.73444
 N1521 N 0.54109 0.27649 0.74016
 N1522 N 0.54983 0.28303 0.73390
 C1523 C 0.59618 0.80116 0.19917
 N1524 N 0.60189 0.79547 0.18920
 N1525 N 0.61281 0.79986 0.18469
 C1526 C 0.61844 0.81007 0.19002
 N1527 N 0.61273 0.81578 0.19998
 N1528 N 0.60180 0.81140 0.20448
 C1529 C 0.58436 0.79608 0.20440
 N1530 N 0.57880 0.80161 0.21454
 N1531 N 0.56843 0.79664 0.21968
 C1532 C 0.56321 0.78597 0.21483
 N1533 N 0.56869 0.78051 0.20460
 N1534 N 0.57907 0.78548 0.19947
 C1535 C 0.55249 0.77985 0.22118
 N1536 N 0.54795 0.76863 0.21692
 N1537 N 0.53917 0.76238 0.22344
 C1538 C 0.53454 0.76717 0.23438
 N1539 N 0.53897 0.77844 0.23858
 N1540 N 0.54774 0.78470 0.23206
 C1541 C 1.09657 0.30062 0.19925
 N1542 N 1.10271 0.29470 0.18967
 N1543 N 1.11366 0.29916 0.18534
 C1544 C 1.11892 0.30967 0.19047
 N1545 N 1.11280 0.31559 0.20007
 N1546 N 1.10182 0.31114 0.20439
 C1547 C 1.08466 0.29546 0.20418
 N1548 N 1.07835 0.30134 0.21368
 N1549 N 1.06787 0.29626 0.21852
 C1550 C 1.06333 0.28514 0.21402
 N1551 N 1.06958 0.27934 0.20445
 N1552 N 1.08003 0.28442 0.19959
 C1553 C 1.05256 0.27886 0.22012
 N1554 N 1.04942 0.26687 0.21682
 N1555 N 1.04065 0.26054 0.22324
 C1556 C 1.03458 0.26602 0.23311
 N1557 N 1.03756 0.27807 0.23632
 N1558 N 1.04639 0.28439 0.22992
 C1559 C 1.09647 0.80080 0.69935
 N1560 N 1.10242 0.79492 0.68963
 N1561 N 1.11335 0.79933 0.68518
 C1562 C 1.11876 0.80976 0.69032
 N1563 N 1.11281 0.81565 0.70004
 N1564 N 1.10187 0.81124 0.70448
 C1565 C 1.08459 0.79574 0.70446
 N1566 N 1.07872 0.80150 0.71429
 N1567 N 1.06825 0.79658 0.71929
 C1568 C 1.06325 0.78573 0.71461
 N1569 N 1.06906 0.78004 0.70470
 N1570 N 1.07952 0.78496 0.69969
 C1571 C 1.05246 0.77966 0.72088
 N1572 N 1.04825 0.76821 0.71692
 N1573 N 1.03946 0.76200 0.72345
 C1574 C 1.03448 0.76707 0.73411
 N1575 N 1.03854 0.77859 0.73799
 N1576 N 1.04734 0.78480 0.73146
 C1577 C 0.40349 0.69895 0.69995
 N1578 N 0.39841 0.70413 0.68939
 N1579 N 0.38753 0.69980 0.68474
 C1580 C 0.38135 0.69013 0.69048
 N1581 N 0.38645 0.68494 0.70103
 N1582 N 0.39731 0.68929 0.70569
 C1583 C 0.41529 0.70394 0.70533
 N1584 N 0.41971 0.69945 0.71648
 N1585 N 0.43007 0.70433 0.72170
 C1586 C 0.43647 0.71383 0.71591
 N1587 N 0.43213 0.71824 0.70468
 N1588 N 0.42173 0.71338 0.69948
 C1589 C 0.44720 0.71993 0.72227
 N1590 N 0.45372 0.72942 0.71658
 N1591 N 0.46256 0.73581 0.72290
 C1592 C 0.46519 0.73291 0.73509
 N1593 N 0.45875 0.72336 0.74072
 N1594 N 0.44999 0.71693 0.73440
 C1595 C 0.40364 0.19879 0.19963
 N1596 N 0.39728 0.18936 0.20557
 N1597 N 0.38637 0.18507 0.20096
 C1598 C 0.38139 0.19009 0.19028
 N1599 N 0.38775 0.19952 0.18433
 N1600 N 0.39868 0.20379 0.18893
 C1601 C 0.41548 0.20374 0.20495
 N1602 N 0.42202 0.21303 0.19896
 N1603 N 0.43245 0.21789 0.20411
 C1604 C 0.43672 0.21363 0.21542
 N1605 N 0.43024 0.20428 0.22134
 N1606 N 0.41984 0.19940 0.21619
 C1607 C 0.44747 0.21977 0.22171
 N1608 N 0.45023 0.21690 0.23388
 N1609 N 0.45900 0.22339 0.24014
 C1610 C 0.46546 0.23286 0.23441
 N1611 N 0.46286 0.23563 0.22218
 N1612 N 0.45403 0.22917 0.21593
 C1613 C -0.09650 0.69871 0.19976
 N1614 N -0.10284 0.68922 0.20562
 N1615 N -0.11374 0.68495 0.20100
 C1616 C -0.11874 0.69005 0.19036
 N1617 N -0.11241 0.69954 0.18448
 N1618 N -0.10149 0.70380 0.18910
 C1619 C -0.08466 0.70362 0.20513
 N1620 N -0.07812 0.71298 0.19926
 N1621 N -0.06770 0.71778 0.20448
 C1622 C -0.06344 0.71338 0.21574
 N1623 N -0.06993 0.70396 0.22154
 N1624 N -0.08032 0.69914 0.21632
 C1625 C -0.05270 0.71944 0.22214
 N1626 N -0.05003 0.71647 0.23431
 N1627 N -0.04128 0.72288 0.24068
 C1628 C -0.03474 0.73236 0.23506
 N1629 N -0.03725 0.73522 0.22283
 N1630 N -0.04607 0.72886 0.21647
 C1631 C -0.09634 0.19866 0.69971
 N1632 N -0.10128 0.20375 0.68903
 N1633 N -0.11217 0.19947 0.68435
 C1634 C -0.11850 0.18994 0.69017
 N1635 N -0.11353 0.18483 0.70082
 N1636 N -0.10267 0.18914 0.70551
 C1637 C -0.08455 0.20360 0.70514
 N1638 N -0.08030 0.19919 0.71639
 N1639 N -0.06993 0.20402 0.72165
 C1640 C -0.06337 0.21337 0.71582
 N1641 N -0.06755 0.21770 0.70449
 N1642 N -0.07795 0.21290 0.69925
 C1643 C -0.05265 0.21943 0.72221
 N1644 N -0.04593 0.22875 0.71647
 N1645 N -0.03711 0.23514 0.72280
 C1646 C -0.03468 0.23241 0.73507
 N1647 N -0.04131 0.22302 0.74076
 N1648 N -0.05006 0.21659 0.73443
 C1649 C 0.30012 0.40368 0.30092
 N1650 N 0.29421 0.39748 0.31046
 N1651 N 0.29882 0.38663 0.31485
 C1652 C 0.30948 0.38153 0.30984
 N1653 N 0.31540 0.38772 0.30028
 N1654 N 0.31080 0.39860 0.29590
 C1655 C 0.29478 0.41549 0.29594
 N1656 N 0.30067 0.42193 0.28653
 N1657 N 0.29547 0.43236 0.28172
 C1658 C 0.28423 0.43672 0.28616
 N1659 N 0.27842 0.43032 0.29563
 N1660 N 0.28362 0.41993 0.30046
 C1661 C 0.27785 0.44748 0.28014
 N1662 N 0.26573 0.45034 0.28328
 N1663 N 0.25936 0.45914 0.27693
 C1664 C 0.26493 0.46553 0.26733
 N1665 N 0.27712 0.46283 0.26430
 N1666 N 0.28349 0.45397 0.27061
 C1667 C 0.30186 -0.09652 0.80001
 N1668 N 0.31153 -0.10277 0.79433
 N1669 N 0.31582 -0.11363 0.79905
 C1670 C 0.31058 -0.11868 0.80960
 N1671 N 0.30090 -0.11243 0.81529
 N1672 N 0.29662 -0.10155 0.81058
 C1673 C 0.29696 -0.08474 0.79455
 N1674 N 0.28752 -0.07819 0.80029
 N1675 N 0.28276 -0.06779 0.79499
 C1676 C 0.28728 -0.06357 0.78375
 N1677 N 0.29678 -0.07008 0.77807
 N1678 N 0.30156 -0.08043 0.78339
 C1679 C 0.28130 -0.05284 0.77727
 N1680 N 0.28434 -0.05023 0.76510
 N1681 N 0.27802 -0.04144 0.75868
 C1682 C 0.26857 -0.03479 0.76424
 N1683 N 0.26563 -0.03725 0.77647
 N1684 N 0.27191 -0.04611 0.78288
 C1685 C 0.80130 0.40367 0.80014
 N1686 N 0.79578 0.39835 0.81042
 N1687 N 0.80014 0.38750 0.81510
 C1688 C 0.81017 0.38156 0.80968
 N1689 N 0.81568 0.38691 0.79940
 N1690 N 0.81131 0.39774 0.79471
 C1691 C 0.79635 0.41547 0.79475
 N1692 N 0.80132 0.42019 0.78391
 N1693 N 0.79652 0.43058 0.77868
 C1694 C 0.78662 0.43670 0.78412
 N1695 N 0.78173 0.43206 0.79503
 N1696 N 0.78652 0.42164 0.80025
 C1697 C 0.78066 0.44746 0.77768
 N1698 N 0.77080 0.45373 0.78304
 N1699 N 0.76456 0.46259 0.77661
 C1700 C 0.76800 0.46551 0.76461
 N1701 N 0.77791 0.45933 0.75931
 N1702 N 0.78419 0.45054 0.76576
 C1703 C 0.80116 -0.09640 0.30020
 N1704 N 0.81115 -0.10235 0.29477
 N1705 N 0.81551 -0.11319 0.29946
 C1706 C 0.81000 -0.11853 0.30973
 N1707 N 0.79998 -0.11258 0.31516
 N1708 N 0.79563 -0.10172 0.31048
 C1709 C 0.79622 -0.08460 0.29480
 N1710 N 0.78636 -0.07844 0.30027
 N1711 N 0.78159 -0.06803 0.29502
 C1712 C 0.78652 -0.06339 0.28412
 N1713 N 0.79644 -0.06950 0.27872
 N1714 N 0.80123 -0.07988 0.28398
 C1715 C 0.78057 -0.05264 0.27768
 N1716 N 0.78416 -0.04951 0.26578
 N1717 N 0.77790 -0.04071 0.25932
 C1718 C 0.76794 -0.03458 0.26459
 N1719 N 0.76444 -0.03755 0.27655
 N1720 N 0.77067 -0.04641 0.28300
 C1721 C 0.30053 0.59659 0.69934
 N1722 N 0.31064 0.60229 0.70480
 N1723 N 0.31504 0.61321 0.70033
 C1724 C 0.30946 0.61884 0.69025
 N1725 N 0.29935 0.61313 0.68479
 N1726 N 0.29495 0.60221 0.68926
 C1727 C 0.29548 0.58471 0.70447
 N1728 N 0.28516 0.57919 0.69923
 N1729 N 0.28024 0.56872 0.70422
 C1730 C 0.28551 0.56338 0.71462
 N1731 N 0.29590 0.56884 0.71979
 N1732 N 0.30082 0.57930 0.71480
 C1733 C 0.27941 0.55255 0.72081
 N1734 N 0.28393 0.54807 0.73194
 N1735 N 0.27762 0.53923 0.73830
 C1736 C 0.26664 0.53445 0.73369
 N1737 N 0.26220 0.53880 0.72250
 N1738 N 0.26850 0.54766 0.71614
 C1739 C 0.30144 1.09626 0.19938
 N1740 N 0.29636 1.10122 0.18871
 N1741 N 0.30064 1.11212 0.18406
 C1742 C 0.31015 1.11845 0.18992
 N1743 N 0.31523 1.11347 0.20057
 N1744 N 0.31095 1.10259 0.20522
 C1745 C 0.29655 1.08443 0.20476
 N1746 N 0.30114 1.08002 0.21588
 N1747 N 0.29635 1.06963 0.22111
 C1748 C 0.28684 1.06320 0.21539
 N1749 N 0.28233 1.06751 0.20419
 N1750 N 0.28711 1.07794 0.19896
 C1751 C 0.28080 1.05248 0.22183
 N1752 N 0.27124 1.04596 0.21627
 N1753 N 0.26487 1.03719 0.22269
 C1754 C 0.26787 1.03460 0.23488
 N1755 N 0.27751 1.04102 0.24037
 N1756 N 0.28392 1.04973 0.23394
 C1757 C 0.80133 0.59623 0.19947
 N1758 N 0.81085 0.60256 0.20530
 N1759 N 0.81510 0.61346 0.20066
 C1760 C 0.80996 0.61847 0.19005
 N1761 N 0.80043 0.61216 0.18421
 N1762 N 0.79619 0.60124 0.18884
 C1763 C 0.79647 0.58438 0.20483
 N1764 N 0.78697 0.57795 0.19907
 N1765 N 0.78220 0.56751 0.20429
 C1766 C 0.78678 0.56313 0.21544
 N1767 N 0.79635 0.56951 0.22111
 N1768 N 0.80113 0.57991 0.21589
 C1769 C 0.78074 0.55240 0.22186
 N1770 N 0.78395 0.54955 0.23393
 N1771 N 0.77756 0.54083 0.24035
 C1772 C 0.76784 0.53450 0.23490
 N1773 N 0.76474 0.53719 0.22276
 N1774 N 0.77109 0.54598 0.21635
 C1775 C 0.80096 1.09660 0.69986
 N1776 N 0.81078 1.10266 0.70547
 N1777 N 0.81505 1.11358 0.70088
 C1778 C 0.80963 1.11886 0.69053
 N1779 N 0.79981 1.11279 0.68491
 N1780 N 0.79555 1.10186 0.68950
 C1781 C 0.79610 1.08472 0.70516
 N1782 N 0.78638 1.07848 0.69956
 N1783 N 0.78166 1.06799 0.70471
 C1784 C 0.78650 1.06337 0.71565
 N1785 N 0.79628 1.06956 0.72118
 N1786 N 0.80102 1.08001 0.71602
 C1787 C 0.78056 1.05257 0.72204
 N1788 N 0.78407 1.04947 0.73396
 N1789 N 0.77776 1.04071 0.74041
 C1790 C 0.76782 1.03459 0.73512
 N1791 N 0.76441 1.03752 0.72312
 N1792 N 0.77069 1.04634 0.71668
 C1793 C 0.69976 0.59631 0.30112
 N1794 N 0.70551 0.60239 0.31082
 N1795 N 0.70090 0.61325 0.31520
 C1796 C 0.69040 0.61848 0.31000
 N1797 N 0.68463 0.61241 0.30029
 N1798 N 0.68923 0.60152 0.29592
 C1799 C 0.70515 0.58453 0.29613
 N1800 N 0.69938 0.57814 0.28663
 N1801 N 0.70463 0.56774 0.28181
 C1802 C 0.71583 0.56336 0.28633
 N1803 N 0.72154 0.56971 0.29589
 N1804 N 0.71627 0.58007 0.30072
 C1805 C 0.72228 0.55264 0.28031
 N1806 N 0.73443 0.54987 0.28341
 N1807 N 0.74086 0.54111 0.27707
 C1808 C 0.73532 0.53466 0.26750
 N1809 N 0.72310 0.53727 0.26449
 N1810 N 0.71669 0.54609 0.27080
 C1811 C 0.69984 1.09670 0.80110
 N1812 N 0.70557 1.10277 0.81081
 N1813 N 0.70093 1.11360 0.81523
 C1814 C 0.69040 1.11881 0.81006
 N1815 N 0.68466 1.11275 0.80032
 N1816 N 0.68930 1.10189 0.79591
 C1817 C 0.70522 1.08492 0.79611
 N1818 N 0.69947 1.07857 0.78657
 N1819 N 0.70471 1.06816 0.78176
 C1820 C 0.71587 1.06372 0.78634
 N1821 N 0.72154 1.07002 0.79595
 N1822 N 0.71629 1.08040 0.80077
 C1823 C 0.72229 1.05297 0.78036
 N1824 N 0.73435 1.05004 0.78366
 N1825 N 0.74077 1.04122 0.77738
 C1826 C 0.73531 1.03488 0.76769
 N1827 N 0.72318 1.03766 0.76448
 N1828 N 0.71678 1.04654 0.77073
 C1829 C 0.19977 0.59643 0.80066
 N1830 N 0.20569 0.60259 0.81021
 N1831 N 0.20111 0.61345 0.81462
 C1832 C 0.19046 0.61858 0.80962
 N1833 N 0.18452 0.61243 0.80007
 N1834 N 0.18910 0.60155 0.79566
 C1835 C 0.20506 0.58460 0.79565
 N1836 N 0.19919 0.57829 0.78616
 N1837 N 0.20432 0.56786 0.78129
 C1838 C 0.21549 0.56336 0.78576
 N1839 N 0.22129 0.56961 0.79532
 N1840 N 0.21615 0.58002 0.80020
 C1841 C 0.22179 0.55258 0.77967
 N1842 N 0.23377 0.54939 0.78299
 N1843 N 0.24010 0.54059 0.77659
 C1844 C 0.23461 0.53454 0.76674
 N1845 N 0.22256 0.53758 0.76350
 N1846 N 0.21624 0.54643 0.76988
 C1847 C 0.20011 1.09679 0.30066
 N1848 N 0.18950 1.10191 0.29555
 N1849 N 0.18494 1.11285 0.29983
 C1850 C 0.19084 1.11906 0.30937
 N1851 N 0.20143 1.11393 0.31448
 N1852 N 0.20600 1.10301 0.31019
 C1853 C 0.20541 1.08492 0.29579
 N1854 N 0.21654 1.08045 0.30037
 N1855 N 0.22173 1.07002 0.29560
 C1856 C 0.21595 1.06362 0.28613
 N1857 N 0.20474 1.06800 0.28163
 N1858 N 0.19956 1.07846 0.28638
 C1859 C 0.22234 1.05284 0.28015
 N1860 N 0.21672 1.04629 0.27066
 N1861 N 0.22310 1.03741 0.26438
 C1862 C 0.23529 1.03475 0.26741
 N1863 N 0.24086 1.04121 0.27697
 N1864 N 0.23447 1.05002 0.28328
 C1865 C 0.70005 0.40353 0.69915
 N1866 N 0.68969 0.39817 0.70452
 N1867 N 0.68515 0.38725 0.70019
 C1868 C 0.69083 0.38129 0.69035
 N1869 N 0.70118 0.38666 0.68498
 N1870 N 0.70571 0.39756 0.68932
 C1871 C 0.70534 0.41539 0.70406
 N1872 N 0.71622 0.42011 0.69915
 N1873 N 0.72141 0.43053 0.70390
 C1874 C 0.71587 0.43669 0.71369
 N1875 N 0.70491 0.43206 0.71852
 N1876 N 0.69973 0.42159 0.71379
 C1877 C 0.72228 0.44748 0.71960
 N1878 N 0.71692 0.45373 0.72944
 N1879 N 0.72336 0.46260 0.73564
 C1880 C 0.73538 0.46555 0.73219
 N1881 N 0.74069 0.45939 0.72229
 N1882 N 0.73423 0.45059 0.71605
 C1883 C 0.69987 -0.09648 0.19900
 N1884 N 0.68945 -0.10177 0.20432
 N1885 N 0.68491 -0.11270 0.20003
 C1886 C 0.69064 -0.11874 0.19026
 N1887 N 0.70103 -0.11343 0.18494
 N1888 N 0.70558 -0.10252 0.18924
 C1889 C 0.70520 -0.08464 0.20391
 N1890 N 0.71613 -0.07998 0.19906
 N1891 N 0.72136 -0.06959 0.20385
 C1892 C 0.71582 -0.06342 0.21362
 N1893 N 0.70480 -0.06798 0.21839
 N1894 N 0.69957 -0.07841 0.21362
 C1895 C 0.72225 -0.05265 0.21957
 N1896 N 0.71685 -0.04634 0.22935
 N1897 N 0.72329 -0.03747 0.23555
 C1898 C 0.73533 -0.03457 0.23215
 N1899 N 0.74068 -0.04079 0.22232
 N1900 N 0.73423 -0.04961 0.21609
 C1901 C 0.19875 0.40402 0.19946
 N1902 N 0.20400 0.39886 0.18897
 N1903 N 0.19965 0.38798 0.18435
 C1904 C 0.18990 0.38188 0.19006
 N1905 N 0.18466 0.38704 0.20055
 N1906 N 0.18902 0.39790 0.20518
 C1907 C 0.20370 0.41584 0.20478
 N1908 N 0.19902 0.42039 0.21581
 N1909 N 0.20387 0.43077 0.22101
 C1910 C 0.21352 0.43704 0.21533
 N1911 N 0.21811 0.43258 0.20422
 N1912 N 0.21328 0.42217 0.19903
 C1913 C 0.21959 0.44775 0.22173
 N1914 N 0.22928 0.45413 0.21621
 N1915 N 0.23564 0.46293 0.22261
 C1916 C 0.23249 0.46567 0.23472
 N1917 N 0.22273 0.45938 0.24018
 N1918 N 0.21634 0.45065 0.23378
 C1919 C 0.19985 -0.09632 0.69886
 N1920 N 0.18940 -0.10159 0.70417
 N1921 N 0.18476 -0.11244 0.69977
 C1922 C 0.19042 -0.11841 0.68992
 N1923 N 0.20085 -0.11313 0.68462
 N1924 N 0.20549 -0.10230 0.68903
 C1925 C 0.20521 -0.08452 0.70381
 N1926 N 0.21613 -0.07986 0.69892
 N1927 N 0.22137 -0.06947 0.70369
 C1928 C 0.21585 -0.06329 0.71348
 N1929 N 0.20485 -0.06786 0.71829
 N1930 N 0.19962 -0.07829 0.71353
 C1931 C 0.22235 -0.05257 0.71944
 N1932 N 0.21701 -0.04627 0.72926
 N1933 N 0.22354 -0.03749 0.73550
 C1934 C 0.23561 -0.03470 0.73211
 N1935 N 0.24089 -0.04091 0.72223
 N1936 N 0.23435 -0.04962 0.71595
 C1937 C 0.30083 0.29983 0.40354
 N1938 N 0.31048 0.29407 0.39732
 N1939 N 0.31469 0.29863 0.38639
 C1940 C 0.30937 0.30909 0.38123
 N1941 N 0.29971 0.31487 0.38742
 N1942 N 0.29551 0.31031 0.39838
 C1943 C 0.29606 0.29452 0.41543
 N1944 N 0.28657 0.30027 0.42190
 N1945 N 0.28193 0.29508 0.43239
 C1946 C 0.28661 0.28396 0.43678
 N1947 N 0.29617 0.27829 0.43035
 N1948 N 0.30083 0.28349 0.41990
 C1949 C 0.28072 0.27751 0.44756
 N1950 N 0.28393 0.26539 0.45027
 N1951 N 0.27765 0.25893 0.45904
 C1952 C 0.26806 0.26440 0.46556
 N1953 N 0.26497 0.27660 0.46302
 N1954 N 0.27120 0.28305 0.45417
 C1955 C 0.30109 0.80013 -0.09665
 N1956 N 0.29593 0.81078 -0.10163
 N1957 N 0.30018 0.81544 -0.11253
 C1958 C 0.30974 0.80961 -0.11883
 N1959 N 0.31490 0.79898 -0.11382
 N1960 N 0.31063 0.79432 -0.10296
 C1961 C 0.29624 0.79472 -0.08482
 N1962 N 0.30082 0.78354 -0.08052
 N1963 N 0.29610 0.77827 -0.07013
 C1964 C 0.28668 0.78402 -0.06359
 N1965 N 0.28217 0.79528 -0.06780
 N1966 N 0.28688 0.80054 -0.07823
 C1967 C 0.28075 0.77757 -0.05283
 N1968 N 0.27135 0.78321 -0.04611
 N1969 N 0.26510 0.77680 -0.03725
 C1970 C 0.26805 0.76456 -0.03477
 N1971 N 0.27751 0.75898 -0.04140
 N1972 N 0.28380 0.76539 -0.05019
 C1973 C 0.80055 0.30070 -0.09652
 N1974 N 0.79536 0.31123 -0.10169
 N1975 N 0.79965 0.31575 -0.11263
 C1976 C 0.80928 0.30988 -0.11878
 N1977 N 0.81448 0.29937 -0.11359
 N1978 N 0.81018 0.29485 -0.10267
 C1979 C 0.79564 0.29547 -0.08465
 N1980 N 0.80036 0.28449 -0.08000
 N1981 N 0.79555 0.27938 -0.06957
 C1982 C 0.78587 0.28509 -0.06336
 N1983 N 0.78124 0.29616 -0.06793
 N1984 N 0.78604 0.30126 -0.07838
 C1985 C 0.77980 0.27878 -0.05262
 N1986 N 0.76981 0.28419 -0.04661
 N1987 N 0.76341 0.27782 -0.03784
 C1988 C 0.76681 0.26584 -0.03474
 N1989 N 0.77686 0.26049 -0.04063
 N1990 N 0.78329 0.26687 -0.04936
 C1991 C 0.80056 0.80050 0.40358
 N1992 N 0.81012 0.79462 0.39734
 N1993 N 0.81438 0.79918 0.38642
 C1994 C 0.80921 0.80975 0.38131
 N1995 N 0.79964 0.81563 0.38754
 N1996 N 0.79539 0.81108 0.39848
 C1997 C 0.79568 0.79523 0.41544
 N1998 N 0.78621 0.80109 0.42184
 N1999 N 0.78143 0.79597 0.43230
 C2000 C 0.78597 0.78481 0.43674
 N2001 N 0.79552 0.77903 0.43040
 N2002 N 0.80031 0.78416 0.41997
 C2003 C 0.77992 0.77850 0.44750
 N2004 N 0.78319 0.76648 0.45055
 N2005 N 0.77677 0.76014 0.45932
 C2006 C 0.76696 0.76565 0.46547
 N2007 N 0.76379 0.77774 0.46258
 N2008 N 0.77018 0.78407 0.45376
 C2009 C 0.69891 0.30026 0.59602
 N2010 N 0.70423 0.31071 0.60122
 N2011 N 0.69996 0.31528 0.61215
 C2012 C 0.69023 0.30955 0.61826
 N2013 N 0.68491 0.29911 0.61304
 N2014 N 0.68919 0.29454 0.60214
 C2015 C 0.70379 0.29497 0.58416
 N2016 N 0.69908 0.28394 0.57962
 N2017 N 0.70385 0.27877 0.56920
 C2018 C 0.71345 0.28447 0.56287
 N2019 N 0.71807 0.29559 0.56732
 N2020 N 0.71331 0.30075 0.57778
 C2021 C 0.71946 0.27809 0.55212
 N2022 N 0.72907 0.28365 0.54567
 N2023 N 0.73541 0.27726 0.53686
 C2024 C 0.73233 0.26510 0.53417
 N2025 N 0.72265 0.25959 0.54053
 N2026 N 0.71627 0.26600 0.54928
 C2027 C 0.70034 0.80104 1.09632
 N2028 N 0.68985 0.79573 1.10149
 N2029 N 0.68529 0.79992 1.11245
 C2030 C 0.69108 0.80955 1.11865
 N2031 N 0.70156 0.81485 1.11347
 N2032 N 0.70612 0.81066 1.10253
 C2033 C 0.70562 0.79629 1.08441
 N2034 N 0.71665 0.80106 1.07989
 N2035 N 0.72182 0.79641 1.06941
 C2036 C 0.71611 0.78689 1.06300
 N2037 N 0.70499 0.78222 1.06742
 N2038 N 0.69983 0.78684 1.07794
 C2039 C 0.72253 0.78100 1.05219
 N2040 N 0.71698 0.77148 1.04563
 N2041 N 0.72342 0.76523 1.03679
 C2042 C 0.73561 0.76831 1.03418
 N2043 N 0.74110 0.77791 1.04064
 N2044 N 0.73465 0.78420 1.04942
 C2045 C 0.19937 0.30042 1.09601
 N2046 N 0.18979 0.29449 1.10217
 N2047 N 0.18542 0.29902 1.11306
 C2048 C 0.19049 0.30960 1.11822
 N2049 N 0.20007 0.31553 1.11206
 N2050 N 0.20443 0.31102 1.10116
 C2051 C 0.20439 0.29524 1.08416
 N2052 N 0.21391 0.30118 1.07793
 N2053 N 0.21881 0.29618 1.06748
 C2054 C 0.21435 0.28508 1.06286
 N2055 N 0.20476 0.27920 1.06903
 N2056 N 0.19984 0.28420 1.07947
 C2057 C 0.22055 0.27894 1.05208
 N2058 N 0.21713 0.26709 1.04856
 N2059 N 0.22368 0.26088 1.03979
 C2060 C 0.23379 0.26636 1.03412
 N2061 N 0.23713 0.27827 1.03748
 N2062 N 0.23059 0.28447 1.04628
 C2063 C 0.19949 0.80046 0.59609
 N2064 N 0.18981 0.79458 0.60213
 N2065 N 0.18546 0.79901 0.61307
 C2066 C 0.19067 0.80944 0.61840
 N2067 N 0.20034 0.81534 0.61235
 N2068 N 0.20468 0.81092 0.60140
 C2069 C 0.20451 0.79535 0.58422
 N2070 N 0.21418 0.80119 0.57814
 N2071 N 0.21911 0.79622 0.56768
 C2072 C 0.21452 0.78523 0.56292
 N2073 N 0.20477 0.77945 0.56894
 N2074 N 0.19983 0.78443 0.57938
 C2075 C 0.22072 0.77910 0.55213
 N2076 N 0.21713 0.76735 0.54847
 N2077 N 0.22364 0.76113 0.53968
 C2078 C 0.23389 0.76650 0.53414
 N2079 N 0.23740 0.77832 0.53766
 N2080 N 0.23089 0.78453 0.54648
 C2081 C 0.30078 0.69983 0.59595
 N2082 N 0.29528 0.68964 0.60147
 N2083 N 0.29963 0.68516 0.61239
 C2084 C 0.30963 0.69072 0.61819
 N2085 N 0.31514 0.70090 0.61267
 N2086 N 0.31078 0.70539 0.60176
 C2087 C 0.29580 0.70501 0.58409
 N2088 N 0.30097 0.71556 0.57895
 N2089 N 0.29611 0.72062 0.56851
 C2090 C 0.28594 0.71529 0.56280
 N2091 N 0.28084 0.70465 0.56786
 N2092 N 0.28570 0.69959 0.57831
 C2093 C 0.27987 0.72157 0.55202
 N2094 N 0.26927 0.71665 0.54672
 N2095 N 0.26296 0.72307 0.53792
 C2096 C 0.26709 0.73457 0.53404
 N2097 N 0.27776 0.73943 0.53923
 N2098 N 0.28408 0.73301 0.54801
 C2099 C 0.30107 0.19984 1.09586
 N2100 N 0.31082 0.20557 1.10192
 N2101 N 0.31517 0.20098 1.11278
 C2102 C 0.30991 0.19052 1.11802
 N2103 N 0.30015 0.18479 1.11197
 N2104 N 0.29580 0.18937 1.10109
 C2105 C 0.29611 0.20513 1.08404
 N2106 N 0.28646 0.19941 1.07782
 N2107 N 0.28165 0.20454 1.06738
 C2108 C 0.28635 0.21557 1.06278
 N2109 N 0.29607 0.22122 1.06896
 N2110 N 0.30089 0.21608 1.07937
 C2111 C 0.28030 0.22191 1.05203
 N2112 N 0.28380 0.23382 1.04880
 N2113 N 0.27741 0.24021 1.04005
 C2114 C 0.26741 0.23485 1.03409
 N2115 N 0.26401 0.22288 1.03717
 N2116 N 0.27037 0.21650 1.04597
 C2117 C 0.80117 0.69998 1.09592
 N2118 N 0.79590 0.68945 1.10103
 N2119 N 0.80017 0.68481 1.11192
 C2120 C 0.80985 0.69055 1.11809
 N2121 N 0.81512 0.70105 1.11297
 N2122 N 0.81084 0.70570 1.10211
 C2123 C 0.79631 0.70538 1.08412
 N2124 N 0.80101 0.71646 1.07971
 N2125 N 0.79629 0.72174 1.06933
 C2126 C 0.78673 0.71609 1.06291
 N2127 N 0.78210 0.70492 1.06723
 N2128 N 0.78681 0.69966 1.07765
 C2129 C 0.78082 0.72257 1.05218
 N2130 N 0.77135 0.71703 1.04552
 N2131 N 0.76511 0.72350 1.03669
 C2132 C 0.76816 0.73571 1.03421
 N2133 N 0.77770 0.74120 1.04077
 N2134 N 0.78397 0.73471 1.04953
 C2135 C 0.80025 0.19875 0.59568
 N2136 N 0.81084 0.20391 0.60077
 N2137 N 0.81542 0.19964 0.61169
 C2138 C 0.80956 0.19007 0.61790
 N2139 N 0.79898 0.18490 0.61280
 N2140 N 0.79440 0.18919 0.60191
 C2141 C 0.79491 0.20366 0.58387
 N2142 N 0.78375 0.19912 0.57947
 N2143 N 0.77852 0.20395 0.56910
 C2144 C 0.78430 0.21344 0.56270
 N2145 N 0.79555 0.21789 0.56701
 N2146 N 0.80077 0.21308 0.57741
 C2147 C 0.77788 0.21951 0.55202
 N2148 N 0.78352 0.22902 0.54550
 N2149 N 0.77712 0.23542 0.53674
 C2150 C 0.76488 0.23250 0.53419
 N2151 N 0.75929 0.22292 0.54062
 N2152 N 0.76570 0.21649 0.54931
 C2153 C 0.69960 0.69997 0.40345
 N2154 N 0.68974 0.70568 0.39752
 N2155 N 0.68543 0.70124 0.38658
 C2156 C 0.69085 0.69097 0.38113
 N2157 N 0.70071 0.68525 0.38704
 N2158 N 0.70501 0.68968 0.39800
 C2159 C 0.70455 0.70507 0.41535
 N2160 N 0.71451 0.69947 0.42121
 N2161 N 0.71937 0.70445 0.43169
 C2162 C 0.71444 0.71518 0.43671
 N2163 N 0.70440 0.72070 0.43091
 N2164 N 0.69953 0.71573 0.42044
 C2165 C 0.72055 0.72133 0.44753
 N2166 N 0.71645 0.73278 0.45163
 N2167 N 0.72285 0.73906 0.46046
 C2168 C 0.73349 0.73405 0.46559
 N2169 N 0.73751 0.72254 0.46162
 N2170 N 0.73112 0.71626 0.45278
 C2171 C 0.69968 0.19972 -0.09673
 N2172 N 0.70504 0.18937 -0.10211
 N2173 N 0.70074 0.18492 -0.11306
 C2174 C 0.69095 0.19069 -0.11904
 N2175 N 0.68559 0.20103 -0.11366
 N2176 N 0.68990 0.20548 -0.10272
 C2177 C 0.70461 0.20484 -0.08483
 N2178 N 0.69969 0.21560 -0.07987
 N2179 N 0.70454 0.22061 -0.06941
 C2180 C 0.71445 0.21500 -0.06348
 N2181 N 0.71928 0.20415 -0.06836
 N2182 N 0.71444 0.19916 -0.07884
 C2183 C 0.72057 0.22119 -0.05269
 N2184 N 0.73096 0.21599 -0.04721
 N2185 N 0.73738 0.22229 -0.03841
 C2186 C 0.73357 0.23397 -0.03473
 N2187 N 0.72311 0.23911 -0.04008
 N2188 N 0.71668 0.23280 -0.04886
 C2189 C 0.20004 0.69944 -0.09662
 N2190 N 0.18994 0.70506 -0.10220
 N2191 N 0.18548 0.70076 -0.11315
 C2192 C 0.19099 0.69070 -0.11891
 N2193 N 0.20108 0.68508 -0.11332
 N2194 N 0.20554 0.68938 -0.10238
 C2195 C 0.20519 0.70435 -0.08471
 N2196 N 0.21562 0.69901 -0.07948
 N2197 N 0.22067 0.70378 -0.06900
 C2198 C 0.21544 0.71404 -0.06334
 N2199 N 0.20493 0.71931 -0.06849
 N2200 N 0.19988 0.71454 -0.07899
 C2201 C 0.22176 0.71999 -0.05253
 N2202 N 0.21690 0.73057 -0.04713
 N2203 N 0.22338 0.73679 -0.03832
 C2204 C 0.23492 0.73259 -0.03455
 N2205 N 0.23972 0.72195 -0.03984
 N2206 N 0.23322 0.71571 -0.04861
 C2207 C 0.20002 0.19889 0.40375
 N2208 N 0.18945 0.20413 0.39867
 N2209 N 0.18487 0.19994 0.38773
 C2210 C 0.19070 0.19036 0.38148
 N2211 N 0.20125 0.18512 0.38657
 N2212 N 0.20584 0.18933 0.39748
 C2213 C 0.20535 0.20367 0.41561
 N2214 N 0.21644 0.19897 0.42004
 N2215 N 0.22167 0.20366 0.43046
 C2216 C 0.21597 0.21318 0.43689
 N2217 N 0.20479 0.21780 0.43256
 N2218 N 0.19957 0.21312 0.42211
 C2219 C 0.22244 0.21911 0.44763
 N2220 N 0.21686 0.22858 0.45426
 N2221 N 0.22332 0.23484 0.46307
 C2222 C 0.23555 0.23181 0.46558
 N2223 N 0.24106 0.22227 0.45904
 N2224 N 0.23460 0.21597 0.45029
 C2225 C 0.30016 0.40313 0.69938
 N2226 N 0.29435 0.39713 0.68967
 N2227 N 0.29884 0.38620 0.68530
 C2228 C 0.30928 0.38086 0.69051
 N2229 N 0.31510 0.38685 0.70024
 N2230 N 0.31061 0.39779 0.70460
 C2231 C 0.29501 0.41503 0.70434
 N2232 N 0.30069 0.42104 0.71413
 N2233 N 0.29566 0.43154 0.71896
 C2234 C 0.28480 0.43642 0.71415
 N2235 N 0.27919 0.43046 0.70429
 N2236 N 0.28422 0.41998 0.69945
 C2237 C 0.27858 0.44727 0.72019
 N2238 N 0.26696 0.45107 0.71628
 N2239 N 0.26063 0.45994 0.72260
 C2240 C 0.26577 0.46542 0.73296
 N2241 N 0.27746 0.46176 0.73679
 N2242 N 0.28378 0.45286 0.73049
 C2243 C 0.30034 0.90385 0.19874
 N2244 N 0.31092 0.89870 0.20390
 N2245 N 0.31551 0.88778 0.19959
 C2246 C 0.30967 0.88162 0.18998
 N2247 N 0.29912 0.88678 0.18482
 N2248 N 0.29452 0.89768 0.18913
 C2249 C 0.29498 0.91567 0.20368
 N2250 N 0.28388 0.92017 0.19906
 N2251 N 0.27865 0.93055 0.20387
 C2252 C 0.28435 0.93688 0.21344
 N2253 N 0.29553 0.93247 0.21799
 N2254 N 0.30075 0.92205 0.21319
 C2255 C 0.27792 0.94763 0.21945
 N2256 N 0.28345 0.95404 0.22908
 N2257 N 0.27703 0.96289 0.23537
 C2258 C 0.26489 0.96565 0.23220
 N2259 N 0.25943 0.95933 0.22250
 N2260 N 0.26585 0.95055 0.21618
 C2261 C 0.80017 0.40369 0.19877
 N2262 N 0.79429 0.39747 0.18923
 N2263 N 0.79889 0.38659 0.18490
 C2264 C 0.80952 0.38149 0.18997
 N2265 N 0.81542 0.38769 0.19951
 N2266 N 0.81082 0.39860 0.20384
 C2267 C 0.79482 0.41551 0.20371
 N2268 N 0.80065 0.42194 0.21315
 N2269 N 0.79543 0.43236 0.21796
 C2270 C 0.78421 0.43673 0.21348
 N2271 N 0.77846 0.43036 0.20396
 N2272 N 0.78368 0.41997 0.19915
 C2273 C 0.77781 0.44748 0.21950
 N2274 N 0.76571 0.45037 0.21630
 N2275 N 0.75931 0.45915 0.22264
 C2276 C 0.76483 0.46551 0.23229
 N2277 N 0.77699 0.46277 0.23539
 N2278 N 0.78338 0.45392 0.22908
 C2279 C 0.80027 0.90418 0.69865
 N2280 N 0.79444 0.89795 0.68910
 N2281 N 0.79917 0.88716 0.68467
 C2282 C 0.80988 0.88216 0.68966
 N2283 N 0.81573 0.88838 0.69923
 N2284 N 0.81101 0.89920 0.70365
 C2285 C 0.79481 0.91594 0.70364
 N2286 N 0.80067 0.92252 0.71295
 N2287 N 0.79537 0.93290 0.71775
 C2288 C 0.78403 0.93709 0.71338
 N2289 N 0.77824 0.93056 0.70400
 N2290 N 0.78355 0.92021 0.69919
 C2291 C 0.77753 0.94777 0.71941
 N2292 N 0.76529 0.95033 0.71646
 N2293 N 0.75883 0.95904 0.72284
 C2294 C 0.76441 0.96566 0.73227
 N2295 N 0.77671 0.96327 0.73510
 N2296 N 0.78317 0.95449 0.72877
 C2297 C 0.69846 0.59610 0.69988
 N2298 N 0.70367 0.60111 0.68929
 N2299 N 0.69940 0.61201 0.68461
 C2300 C 0.68977 0.61827 0.69036
 N2301 N 0.68454 0.61324 0.70092
 N2302 N 0.68883 0.60237 0.70561
 C2303 C 0.70337 0.58432 0.70534
 N2304 N 0.69884 0.58006 0.71654
 N2305 N 0.70365 0.56971 0.72185
 C2306 C 0.71310 0.56318 0.71613
 N2307 N 0.71755 0.56736 0.70485
 N2308 N 0.71277 0.57775 0.69955
 C2309 C 0.71911 0.55247 0.72260
 N2310 N 0.72845 0.54569 0.71695
 N2311 N 0.73476 0.53686 0.72336
 C2312 C 0.73192 0.53449 0.73563
 N2313 N 0.72252 0.54118 0.74123
 N2314 N 0.71616 0.54994 0.73481
 C2315 C 0.69893 0.09625 0.19990
 N2316 N 0.70426 0.10133 0.18939
 N2317 N 0.70005 0.11227 0.18476
 C2318 C 0.69038 0.11851 0.19046
 N2319 N 0.68506 0.11342 0.20095
 N2320 N 0.68928 0.10251 0.20560
 C2321 C 0.70374 0.08440 0.20528
 N2322 N 0.69909 0.08004 0.21639
 N2323 N 0.70382 0.06963 0.22166
 C2324 C 0.71331 0.06313 0.21596
 N2325 N 0.71787 0.06740 0.20476
 N2326 N 0.71317 0.07785 0.19951
 C2327 C 0.71927 0.05240 0.22243
 N2328 N 0.72871 0.04570 0.21683
 N2329 N 0.73500 0.03687 0.22325
 C2330 C 0.73205 0.03440 0.23547
 N2331 N 0.72255 0.04101 0.24102
 N2332 N 0.71622 0.04978 0.23459
 C2333 C 0.19950 0.59626 0.19877
 N2334 N 0.20522 0.60225 0.18898
 N2335 N 0.20061 0.61309 0.18455
 C2336 C 0.19014 0.61838 0.18976
 N2337 N 0.18441 0.61240 0.19956
 N2338 N 0.18901 0.60154 0.20399
 C2339 C 0.20484 0.58447 0.20379
 N2340 N 0.19919 0.57831 0.21352
 N2341 N 0.20440 0.56792 0.21839
 C2342 C 0.21544 0.56331 0.21369
 N2343 N 0.22101 0.56941 0.20389
 N2344 N 0.21579 0.57978 0.19901
 C2345 C 0.22185 0.55260 0.21976
 N2346 N 0.23372 0.54928 0.21614
 N2347 N 0.24016 0.54053 0.22249
 C2348 C 0.23490 0.53465 0.23258
 N2349 N 0.22297 0.53782 0.23611
 N2350 N 0.21653 0.54662 0.22979
 C2351 C 0.19831 0.09562 0.69979
 N2352 N 0.20334 0.10043 0.68901
 N2353 N 0.19905 0.11129 0.68426
 C2354 C 0.18959 0.11772 0.69010
 N2355 N 0.18455 0.11288 0.70084
 N2356 N 0.18884 0.10206 0.70561
 C2357 C 0.20324 0.08388 0.70533
 N2358 N 0.19889 0.07981 0.71668
 N2359 N 0.20372 0.06951 0.72206
 C2360 C 0.21303 0.06283 0.71628
 N2361 N 0.21730 0.06681 0.70486
 N2362 N 0.21250 0.07715 0.69948
 C2363 C 0.21906 0.05216 0.72282
 N2364 N 0.22820 0.04516 0.71710
 N2365 N 0.23451 0.03635 0.72353
 C2366 C 0.23188 0.03421 0.73589
 N2367 N 0.22268 0.04113 0.74156
 N2368 N 0.21633 0.04987 0.73512
 C2369 C 0.30062 0.59659 0.30022
 N2370 N 0.29479 0.60245 0.31002
 N2371 N 0.29919 0.61338 0.31445
 C2372 C 0.30954 0.61887 0.30922
 N2373 N 0.31538 0.61300 0.29942
 N2374 N 0.31100 0.60206 0.29500
 C2375 C 0.29554 0.58472 0.29513
 N2376 N 0.30125 0.57889 0.28524
 N2377 N 0.29630 0.56844 0.28026
 C2378 C 0.28548 0.56342 0.28502
 N2379 N 0.27983 0.56919 0.29498
 N2380 N 0.28479 0.57963 0.29996
 C2381 C 0.27938 0.55261 0.27881
 N2382 N 0.26795 0.54838 0.28285
 N2383 N 0.26173 0.53955 0.27639
 C2384 C 0.26679 0.53454 0.26574
 N2385 N 0.27828 0.53863 0.26177
 N2386 N 0.28450 0.54747 0.26823
 C2387 C 0.30015 0.09621 0.80096
 N2388 N 0.31088 0.10116 0.79593
 N2389 N 0.31548 0.11211 0.80016
 C2390 C 0.30948 0.11849 0.80954
 N2391 N 0.29876 0.11353 0.81455
 N2392 N 0.29417 0.10261 0.81032
 C2393 C 0.29480 0.08434 0.79616
 N2394 N 0.28359 0.08004 0.80069
 N2395 N 0.27835 0.06961 0.79600
 C2396 C 0.28416 0.06303 0.78666
 N2397 N 0.29546 0.06724 0.78222
 N2398 N 0.30070 0.07770 0.78689
 C2399 C 0.27772 0.05225 0.78076
 N2400 N 0.28334 0.04551 0.77140
 N2401 N 0.27691 0.03663 0.76519
 C2402 C 0.26466 0.03416 0.76817
 N2403 N 0.25910 0.04081 0.77760
 N2404 N 0.26554 0.04962 0.78385
 C2405 C 0.80010 0.59652 0.80081
 N2406 N 0.79424 0.60277 0.81034
 N2407 N 0.79883 0.61367 0.81462
 C2408 C 0.80943 0.61877 0.80949
 N2409 N 0.81531 0.61253 0.79994
 N2410 N 0.81072 0.60160 0.79567
 C2411 C 0.79478 0.58464 0.79598
 N2412 N 0.80060 0.57814 0.78657
 N2413 N 0.79540 0.56767 0.78188
 C2414 C 0.78420 0.56332 0.78644
 N2415 N 0.77846 0.56977 0.79591
 N2416 N 0.78367 0.58021 0.80062
 C2417 C 0.77777 0.55254 0.78053
 N2418 N 0.76564 0.54979 0.78371
 N2419 N 0.75919 0.54100 0.77746
 C2420 C 0.76470 0.53447 0.76791
 N2421 N 0.77690 0.53705 0.76483
 N2422 N 0.78334 0.54592 0.77105
 C2423 C 0.80026 0.09630 0.30084
 N2424 N 0.81082 0.10146 0.29566
 N2425 N 0.81540 0.11237 0.29999
 C2426 C 0.80958 0.11850 0.30964
 N2427 N 0.79904 0.11332 0.31482
 N2428 N 0.79446 0.10244 0.31048
 C2429 C 0.79494 0.08446 0.29593
 N2430 N 0.78388 0.07994 0.30062
 N2431 N 0.77868 0.06953 0.29586
 C2432 C 0.78436 0.06320 0.28628
 N2433 N 0.79550 0.06763 0.28166
 N2434 N 0.80071 0.07807 0.28641
 C2435 C 0.77793 0.05243 0.28033
 N2436 N 0.78343 0.04592 0.27075
 N2437 N 0.77699 0.03706 0.26453
 C2438 C 0.76483 0.03438 0.26773
 N2439 N 0.75939 0.04081 0.27738
 N2440 N 0.76584 0.04960 0.28363
 C2441 C 0.69898 0.40393 0.30046
 N2442 N 0.68884 0.39821 0.29505
 N2443 N 0.68444 0.38733 0.29959
 C2444 C 0.69002 0.38175 0.30969
 N2445 N 0.70015 0.38747 0.31511
 N2446 N 0.70456 0.39836 0.31057
 C2447 C 0.70404 0.41575 0.29522
 N2448 N 0.71443 0.42128 0.30034
 N2449 N 0.71934 0.43169 0.29523
 C2450 C 0.71402 0.43697 0.28483
 N2451 N 0.70356 0.43151 0.27978
 N2452 N 0.69864 0.42111 0.28490
 C2453 C 0.72009 0.44773 0.27849
 N2454 N 0.71556 0.45204 0.26730
 N2455 N 0.72183 0.46081 0.26081
 C2456 C 0.73279 0.46570 0.26535
 N2457 N 0.73726 0.46152 0.27660
 N2458 N 0.73099 0.45272 0.28308
 C2459 C 0.69872 0.90400 0.80025
 N2460 N 0.68887 0.89798 0.79466
 N2461 N 0.68459 0.88706 0.79925
 C2462 C 0.69003 0.88176 0.80957
 N2463 N 0.69988 0.88778 0.81517
 N2464 N 0.70415 0.89871 0.81058
 C2465 C 0.70362 0.91586 0.79495
 N2466 N 0.71347 0.92196 0.80048
 N2467 N 0.71825 0.93242 0.79533
 C2468 C 0.71334 0.93715 0.78447
 N2469 N 0.70343 0.93110 0.77901
 N2470 N 0.69864 0.92067 0.78417
 C2471 C 0.71932 0.94793 0.77810
 N2472 N 0.71566 0.95121 0.76627
 N2473 N 0.72197 0.95998 0.75983
 C2474 C 0.73207 0.96592 0.76504
 N2475 N 0.73563 0.96279 0.77694
 N2476 N 0.72935 0.95397 0.78337
 C2477 C 0.19919 0.40396 0.80078
 N2478 N 0.20496 0.39805 0.81059
 N2479 N 0.20041 0.38721 0.81511
 C2480 C 0.18995 0.38187 0.80996
 N2481 N 0.18417 0.38777 0.80015
 N2482 N 0.18871 0.39862 0.79564
 C2483 C 0.20446 0.41572 0.79563
 N2484 N 0.19874 0.42174 0.78585
 N2485 N 0.20385 0.43211 0.78086
 C2486 C 0.21486 0.43685 0.78547
 N2487 N 0.22051 0.43088 0.79531
 N2488 N 0.21539 0.42053 0.80031
 C2489 C 0.22112 0.44757 0.77926
 N2490 N 0.23287 0.45122 0.78294
 N2491 N 0.23918 0.45998 0.77648
 C2492 C 0.23393 0.46551 0.76619
 N2493 N 0.22212 0.46200 0.76259
 N2494 N 0.21581 0.45321 0.76904
 C2495 C 0.19918 0.90382 0.30018
 N2496 N 0.20490 0.89809 0.31013
 N2497 N 0.20045 0.88723 0.31468
 C2498 C 0.19014 0.88168 0.30944
 N2499 N 0.18441 0.88740 0.29950
 N2500 N 0.18886 0.89826 0.29494
 C2501 C 0.20425 0.91564 0.29497
 N2502 N 0.19874 0.92114 0.28478
 N2503 N 0.20364 0.93157 0.27971
 C2504 C 0.21421 0.93691 0.28466
 N2505 N 0.21966 0.93148 0.29492
 N2506 N 0.21476 0.92104 0.29999
 C2507 C 0.22026 0.94770 0.27835
 N2508 N 0.23126 0.95257 0.28285
 N2509 N 0.23747 0.96141 0.27638
 C2510 C 0.23286 0.96576 0.26525
 N2511 N 0.22181 0.96100 0.26082
 N2512 N 0.21558 0.95219 0.26730
 C2513 C 0.40393 0.30114 0.69953
 N2514 N 0.39771 0.31075 0.70534
 N2515 N 0.38685 0.31512 0.70069
 C2516 C 0.38178 0.31001 0.69010
 N2517 N 0.38798 0.30039 0.68429
 N2518 N 0.39886 0.29603 0.68892
 C2519 C 0.41573 0.29613 0.70487
 N2520 N 0.42222 0.28678 0.69893
 N2521 N 0.43263 0.28189 0.70409
 C2522 C 0.43693 0.28619 0.71537
 N2523 N 0.43050 0.29562 0.72124
 N2524 N 0.42012 0.30052 0.71607
 C2525 C 0.44765 0.28004 0.72168
 N2526 N 0.45044 0.28294 0.73384
 N2527 N 0.45919 0.27644 0.74012
 C2528 C 0.46560 0.26690 0.73443
 N2529 N 0.46298 0.26410 0.72221
 N2530 N 0.45416 0.27057 0.71594
 C2531 C 0.40401 0.80068 0.19859
 N2532 N 0.39883 0.81123 0.20376
 N2533 N 0.38792 0.81584 0.19939
 C2534 C 0.38182 0.81005 0.18972
 N2535 N 0.38702 0.79953 0.18454
 N2536 N 0.39790 0.79492 0.18892
 C2537 C 0.41580 0.79529 0.20357
 N2538 N 0.42024 0.78416 0.19900
 N2539 N 0.43059 0.77889 0.20384
 C2540 C 0.43695 0.78457 0.21340
 N2541 N 0.43261 0.79579 0.21790
 N2542 N 0.42221 0.80106 0.21307
 C2543 C 0.44763 0.77807 0.21944
 N2544 N 0.45422 0.78361 0.22895
 N2545 N 0.46301 0.77713 0.23526
 C2546 C 0.46552 0.76491 0.23225
 N2547 N 0.45903 0.75943 0.22268
 N2548 N 0.45031 0.76592 0.21633
 C2549 C 0.90384 0.30075 0.19876
 N2550 N 0.89866 0.31136 0.20379
 N2551 N 0.88776 0.31590 0.19937
 C2552 C 0.88165 0.30998 0.18977
 N2553 N 0.88685 0.29939 0.18474
 N2554 N 0.89773 0.29484 0.18917
 C2555 C 0.91565 0.29548 0.20382
 N2556 N 0.92022 0.28436 0.19934
 N2557 N 0.93060 0.27922 0.20428
 C2558 C 0.93686 0.28505 0.21383
 N2559 N 0.93238 0.29625 0.21822
 N2560 N 0.92196 0.30138 0.21329
 C2561 C 0.94758 0.27874 0.21999
 N2562 N 0.95384 0.28435 0.22967
 N2563 N 0.96264 0.27803 0.23611
 C2564 C 0.96551 0.26590 0.23305
 N2565 N 0.95934 0.26035 0.22330
 N2566 N 0.95060 0.26668 0.21683
 C2567 C 0.90373 0.80050 0.69879
 N2568 N 0.89883 0.81130 0.70373
 N2569 N 0.88792 0.81596 0.69942
 C2570 C 0.88154 0.80998 0.69004
 N2571 N 0.88646 0.79921 0.68512
 N2572 N 0.89733 0.79454 0.68943
 C2573 C 0.91555 0.79509 0.70367
 N2574 N 0.91972 0.78376 0.69931
 N2575 N 0.93011 0.77848 0.70406
 C2576 C 0.93679 0.78436 0.71328
 N2577 N 0.93271 0.79576 0.71755
 N2578 N 0.92228 0.80104 0.71282
 C2579 C 0.94752 0.77789 0.71926
 N2580 N 0.95435 0.78359 0.72850
 N2581 N 0.96317 0.77717 0.73482
 C2582 C 0.96546 0.76484 0.73210
 N2583 N 0.95872 0.75919 0.72279
 N2584 N 0.94998 0.76562 0.71643
 C2585 C 0.59637 0.30056 0.30060
 N2586 N 0.60244 0.29474 0.31027
 N2587 N 0.61335 0.29926 0.31465
 C2588 C 0.61862 0.30975 0.30949
 N2589 N 0.61255 0.31559 0.29981
 N2590 N 0.60162 0.31108 0.29544
 C2591 C 0.58452 0.29530 0.29560
 N2592 N 0.57820 0.30116 0.28609
 N2593 N 0.56777 0.29602 0.28122
 C2594 C 0.56327 0.28486 0.28570
 N2595 N 0.56954 0.27908 0.29527
 N2596 N 0.57994 0.28422 0.30016
 C2597 C 0.55254 0.27853 0.27958
 N2598 N 0.54952 0.26648 0.28278
 N2599 N 0.54078 0.26014 0.27635
 C2600 C 0.53459 0.26565 0.26659
 N2601 N 0.53744 0.27777 0.26348
 N2602 N 0.54625 0.28411 0.26988
 C2603 C 0.59655 0.80066 0.80035
 N2604 N 0.60254 0.79481 0.81006
 N2605 N 0.61347 0.79926 0.81446
 C2606 C 0.61885 0.80969 0.80929
 N2607 N 0.61287 0.81555 0.79958
 N2608 N 0.60192 0.81111 0.79518
 C2609 C 0.58467 0.79553 0.79530
 N2610 N 0.57863 0.80131 0.78558
 N2611 N 0.56816 0.79632 0.78065
 C2612 C 0.56333 0.78537 0.78530
 N2613 N 0.56930 0.77966 0.79510
 N2614 N 0.57976 0.78466 0.80003
 C2615 C 0.55251 0.77922 0.77913
 N2616 N 0.54874 0.76754 0.78285
 N2617 N 0.53991 0.76130 0.77641
 C2618 C 0.53443 0.76657 0.76611
 N2619 N 0.53806 0.77832 0.76247
 N2620 N 0.54692 0.78455 0.76890
 C2621 C 0.09629 0.30070 0.80049
 N2622 N 0.10150 0.31131 0.79549
 N2623 N 0.11241 0.31581 0.79993
 C2624 C 0.11850 0.30985 0.80952
 N2625 N 0.11327 0.29927 0.81453
 N2626 N 0.10238 0.29476 0.81008
 C2627 C 0.08447 0.29548 0.79540
 N2628 N 0.07980 0.28440 0.79989
 N2629 N 0.06942 0.27932 0.79490
 C2630 C 0.06327 0.28514 0.78528
 N2631 N 0.06785 0.29629 0.78087
 N2632 N 0.07826 0.30138 0.78585
 C2633 C 0.05252 0.27893 0.77906
 N2634 N 0.04669 0.28443 0.76904
 N2635 N 0.03786 0.27820 0.76256
 C2636 C 0.03452 0.26628 0.76593
 N2637 N 0.04025 0.26084 0.77601
 N2638 N 0.04904 0.26707 0.78250
 C2639 C 0.09648 0.80069 0.30010
 N2640 N 0.10180 0.81122 0.29504
 N2641 N 0.11271 0.81568 0.29951
 C2642 C 0.11869 0.80976 0.30919
 N2643 N 0.11336 0.79925 0.31425
 N2644 N 0.10247 0.79478 0.30978
 C2645 C 0.08461 0.79558 0.29500
 N2646 N 0.07962 0.78475 0.29973
 N2647 N 0.06916 0.77979 0.29476
 C2648 C 0.06328 0.78551 0.28490
 N2649 N 0.06822 0.79640 0.28024
 N2650 N 0.07868 0.80136 0.28521
 C2651 C 0.05244 0.77943 0.27869
 N2652 N 0.04721 0.78461 0.26819
 N2653 N 0.03833 0.77842 0.26175
 C2654 C 0.03429 0.76689 0.26566
 N2655 N 0.03941 0.76178 0.27623
 N2656 N 0.04828 0.76796 0.28267
 C2657 C 0.59655 0.69977 0.69954
 N2658 N 0.60193 0.68937 0.70481
 N2659 N 0.61287 0.68488 0.70044
 C2660 C 0.61884 0.69063 0.69065
 N2661 N 0.61344 0.70100 0.68536
 N2662 N 0.60251 0.70550 0.68974
 C2663 C 0.58466 0.70498 0.70453
 N2664 N 0.57973 0.71575 0.69960
 N2665 N 0.56927 0.72085 0.70444
 C2666 C 0.56331 0.71533 0.71436
 N2667 N 0.56817 0.70448 0.71922
 N2668 N 0.57865 0.69939 0.71439
 C2669 C 0.55247 0.72162 0.72038
 N2670 N 0.54679 0.71648 0.73067
 N2671 N 0.53790 0.72286 0.73694
 C2672 C 0.53433 0.73457 0.73309
 N2673 N 0.53990 0.73964 0.72273
 N2674 N 0.54875 0.73326 0.71645
 C2675 C 0.59652 0.19879 0.19961
 N2676 N 0.60165 0.20398 0.18907
 N2677 N 0.61258 0.19967 0.18448
 C2678 C 0.61877 0.19004 0.19028
 N2679 N 0.61363 0.18485 0.20081
 N2680 N 0.60272 0.18917 0.20541
 C2681 C 0.58465 0.20374 0.20490
 N2682 N 0.58016 0.19925 0.21603
 N2683 N 0.56973 0.20412 0.22117
 C2684 C 0.56337 0.21361 0.21533
 N2685 N 0.56778 0.21801 0.20413
 N2686 N 0.57823 0.21316 0.19900
 C2687 C 0.55260 0.21975 0.22162
 N2688 N 0.54623 0.22933 0.21593
 N2689 N 0.53740 0.23580 0.22219
 C2690 C 0.53460 0.23286 0.23434
 N2691 N 0.54088 0.22321 0.23998
 N2692 N 0.54965 0.21671 0.23371
 C2693 C 0.09639 0.69986 0.19904
 N2694 N 0.10255 0.70567 0.18943
 N2695 N 0.11344 0.70107 0.18506
 C2696 C 0.11860 0.69051 0.19018
 N2697 N 0.11245 0.68467 0.19981
 N2698 N 0.10154 0.68927 0.20417
 C2699 C 0.08453 0.70519 0.20398
 N2700 N 0.07818 0.69945 0.21353
 N2701 N 0.06772 0.70465 0.21831
 C2702 C 0.06324 0.71576 0.21369
 N2703 N 0.06954 0.72143 0.20407
 N2704 N 0.07997 0.71622 0.19928
 C2705 C 0.05244 0.72214 0.21968
 N2706 N 0.04930 0.73409 0.21622
 N2707 N 0.04048 0.74049 0.22253
 C2708 C 0.03436 0.73512 0.23242
 N2709 N 0.03735 0.72311 0.23578
 N2710 N 0.04622 0.71671 0.22950
 C2711 C 0.09652 0.19937 0.69924
 N2712 N 0.10238 0.20496 0.68931
 N2713 N 0.11330 0.20044 0.68492
 C2714 C 0.11878 0.19018 0.69034
 N2715 N 0.11292 0.18457 0.70027
 N2716 N 0.10199 0.18910 0.70465
 C2717 C 0.08466 0.20463 0.70425
 N2718 N 0.07870 0.19913 0.71419
 N2719 N 0.06824 0.20426 0.71903
 C2720 C 0.06336 0.21506 0.71410
 N2721 N 0.06926 0.22049 0.70409
 N2722 N 0.07969 0.21535 0.69924
 C2723 C 0.05254 0.22140 0.72012
 N2724 N 0.04882 0.23301 0.71613
 N2725 N 0.03998 0.23943 0.72240
 C2726 C 0.03443 0.23441 0.73278
 N2727 N 0.03801 0.22272 0.73669
 N2728 N 0.04688 0.21631 0.73044
 C2729 C 0.40404 0.69830 0.30013
 N2730 N 0.39777 0.68873 0.29434
 N2731 N 0.38689 0.68442 0.29900
 C2732 C 0.38185 0.68956 0.30960
 N2733 N 0.38812 0.69912 0.31541
 N2734 N 0.39902 0.70342 0.31076
 C2735 C 0.41583 0.70327 0.29472
 N2736 N 0.42235 0.71266 0.30057
 N2737 N 0.43273 0.71751 0.29531
 C2738 C 0.43696 0.71315 0.28401
 N2739 N 0.43049 0.70371 0.27823
 N2740 N 0.42014 0.69884 0.28350
 C2741 C 0.44765 0.71923 0.27757
 N2742 N 0.45023 0.71634 0.26536
 N2743 N 0.45895 0.72276 0.25896
 C2744 C 0.46557 0.73218 0.26458
 N2745 N 0.46316 0.73497 0.27685
 N2746 N 0.45436 0.72859 0.28325
 C2747 C 0.40391 0.19920 0.80077
 N2748 N 0.39881 0.18853 0.79579
 N2749 N 0.38793 0.18395 0.80022
 C2750 C 0.38176 0.18989 0.80978
 N2751 N 0.38687 0.20054 0.81475
 N2752 N 0.39773 0.20512 0.81032
 C2753 C 0.41572 0.20448 0.79574
 N2754 N 0.42025 0.21561 0.80021
 N2755 N 0.43064 0.22075 0.79531
 C2756 C 0.43695 0.21492 0.78578
 N2757 N 0.43251 0.20371 0.78139
 N2758 N 0.42209 0.19858 0.78628
 C2759 C 0.44769 0.22123 0.77965
 N2760 N 0.45397 0.21564 0.76995
 N2761 N 0.46278 0.22197 0.76353
 C2762 C 0.46564 0.23408 0.76664
 N2763 N 0.45946 0.23961 0.77640
 N2764 N 0.45071 0.23328 0.78284
 C2765 C 0.90403 0.69850 0.80017
 N2766 N 0.89789 0.68878 0.79450
 N2767 N 0.88703 0.68443 0.79917
 C2768 C 0.88188 0.68969 0.80966
 N2769 N 0.88802 0.69941 0.81535
 N2770 N 0.89890 0.70375 0.81069
 C2771 C 0.91582 0.70347 0.79477
 N2772 N 0.92222 0.71298 0.80054
 N2773 N 0.93261 0.71783 0.79529
 C2774 C 0.93695 0.71336 0.78409
 N2775 N 0.93059 0.70379 0.77839
 N2776 N 0.92025 0.69891 0.78365
 C2777 C 0.94764 0.71944 0.77766
 N2778 N 0.95036 0.71641 0.76552
 N2779 N 0.95909 0.72282 0.75912
 C2780 C 0.96556 0.73238 0.76468
 N2781 N 0.96299 0.73532 0.77688
 N2782 N 0.95419 0.72894 0.78327
 C2783 C 0.90385 0.19876 0.30005
 N2784 N 0.89859 0.20399 0.31051
 N2785 N 0.88768 0.19962 0.31506
 C2786 C 0.88164 0.18987 0.30933
 N2787 N 0.88691 0.18463 0.29888
 N2788 N 0.89780 0.18902 0.29431
 C2789 C 0.91568 0.20379 0.29478
 N2790 N 0.92025 0.19929 0.28369
 N2791 N 0.93064 0.20423 0.27857
 C2792 C 0.93691 0.21379 0.28438
 N2793 N 0.93243 0.21819 0.29556
 N2794 N 0.92200 0.21328 0.30067
 C2795 C 0.94763 0.21997 0.27809
 N2796 N 0.95396 0.22958 0.28377
 N2797 N 0.96275 0.23607 0.27749
 C2798 C 0.96554 0.23315 0.26533
 N2799 N 0.95930 0.22347 0.25971
 N2800 N 0.95057 0.21694 0.26600
 C2801 C 0.30000 0.30119 0.59597
 N2802 N 0.29415 0.31068 0.60233
 N2803 N 0.29879 0.31487 0.61322
 C2804 C 0.30943 0.30971 0.61820
 N2805 N 0.31530 0.30021 0.61186
 N2806 N 0.31066 0.29602 0.60094
 C2807 C 0.29459 0.29640 0.58414
 N2808 N 0.30042 0.28708 0.57751
 N2809 N 0.29513 0.28242 0.56708
 C2810 C 0.28383 0.28691 0.56292
 N2811 N 0.27808 0.29630 0.56951
 N2812 N 0.28337 0.30098 0.57989
 C2813 C 0.27732 0.28099 0.55222
 N2814 N 0.26506 0.28394 0.54977
 N2815 N 0.25858 0.27762 0.54105
 C2816 C 0.26417 0.26826 0.53432
 N2817 N 0.27649 0.26542 0.53660
 N2818 N 0.28296 0.27169 0.54539
 C2819 C 0.30007 0.80107 0.09608
 N2820 N 0.29428 0.81072 0.10224
 N2821 N 0.29881 0.81497 0.11316
 C2822 C 0.30929 0.80969 0.11837
 N2823 N 0.31509 0.80002 0.11223
 N2824 N 0.31056 0.79578 0.10128
 C2825 C 0.29482 0.79624 0.08420
 N2826 N 0.30062 0.78674 0.07780
 N2827 N 0.29547 0.78203 0.06732
 C2828 C 0.28435 0.78667 0.06287
 N2829 N 0.27863 0.79625 0.06920
 N2830 N 0.28379 0.80097 0.07964
 C2831 C 0.27797 0.78072 0.05209
 N2832 N 0.26589 0.78398 0.04921
 N2833 N 0.25947 0.77766 0.04044
 C2834 C 0.26496 0.76798 0.03409
 N2835 N 0.27711 0.76481 0.03681
 N2836 N 0.28351 0.77109 0.04565
 C2837 C 0.80008 0.30070 0.09616
 N2838 N 0.79427 0.31042 0.10221
 N2839 N 0.79874 0.31472 0.11313
 C2840 C 0.80917 0.30945 0.11845
 N2841 N 0.81499 0.29973 0.11241
 N2842 N 0.81052 0.29543 0.10147
 C2843 C 0.79492 0.29578 0.08428
 N2844 N 0.80070 0.28610 0.07813
 N2845 N 0.79566 0.28128 0.06766
 C2846 C 0.78467 0.28598 0.06294
 N2847 N 0.77897 0.29573 0.06903
 N2848 N 0.78401 0.30056 0.07948
 C2849 C 0.77844 0.27990 0.05215
 N2850 N 0.76662 0.28351 0.04867
 N2851 N 0.76031 0.27711 0.03989
 C2852 C 0.76565 0.26697 0.03414
 N2853 N 0.77754 0.26345 0.03747
 N2854 N 0.78385 0.26984 0.04630
 C2855 C 0.80060 0.80029 0.59642
 N2856 N 0.79541 0.81080 0.60164
 N2857 N 0.79975 0.81531 0.61256
 C2858 C 0.80941 0.80945 0.61864
 N2859 N 0.81461 0.79896 0.61341
 N2860 N 0.81027 0.79444 0.60251
 C2861 C 0.79564 0.79511 0.58456
 N2862 N 0.80032 0.78414 0.57982
 N2863 N 0.79549 0.77913 0.56936
 C2864 C 0.78585 0.78494 0.56319
 N2865 N 0.78124 0.79597 0.56785
 N2866 N 0.78606 0.80097 0.57834
 C2867 C 0.77977 0.77877 0.55236
 N2868 N 0.76976 0.78426 0.54648
 N2869 N 0.76333 0.77801 0.53765
 C2870 C 0.76674 0.76609 0.53435
 N2871 N 0.77684 0.76067 0.54011
 N2872 N 0.78329 0.76693 0.54890
 C2873 C 0.30021 0.69891 0.40361
 N2874 N 0.29426 0.68944 0.39732
 N2875 N 0.29881 0.68519 0.38640
 C2876 C 0.30944 0.69028 0.38132
 N2877 N 0.31539 0.69976 0.38759
 N2878 N 0.31085 0.70400 0.39854
 C2879 C 0.29492 0.70378 0.41546
 N2880 N 0.30086 0.71312 0.42196
 N2881 N 0.29568 0.71792 0.43238
 C2882 C 0.28439 0.71355 0.43668
 N2883 N 0.27853 0.70414 0.43024
 N2884 N 0.28372 0.69932 0.41985
 C2885 C 0.27799 0.71965 0.44736
 N2886 N 0.26578 0.71673 0.45004
 N2887 N 0.25940 0.72320 0.45874
 C2888 C 0.26505 0.73270 0.46520
 N2889 N 0.27732 0.73552 0.46268
 N2890 N 0.28370 0.72909 0.45392
 C2891 C 0.30003 0.19881 0.90348
 N2892 N 0.31058 0.20401 0.89832
 N2893 N 0.31508 0.19981 0.88734
 C2894 C 0.30918 0.19027 0.88112
 N2895 N 0.29866 0.18506 0.88629
 N2896 N 0.29415 0.18927 0.89724
 C2897 C 0.29477 0.20365 0.91536
 N2898 N 0.28363 0.19909 0.91983
 N2899 N 0.27846 0.20388 0.93024
 C2900 C 0.28427 0.21335 0.93663
 N2901 N 0.29550 0.21781 0.93227
 N2902 N 0.30066 0.21304 0.92182
 C2903 C 0.27788 0.21941 0.94735
 N2904 N 0.28353 0.22891 0.95387
 N2905 N 0.27715 0.23529 0.96266
 C2906 C 0.26492 0.23235 0.96526
 N2907 N 0.25932 0.22278 0.95884
 N2908 N 0.26572 0.21637 0.95011
 C2909 C 0.80005 0.69867 0.90379
 N2910 N 0.79422 0.68916 0.89747
 N2911 N 0.79885 0.68494 0.88657
 C2912 C 0.80946 0.69012 0.88154
 N2913 N 0.81531 0.69964 0.88784
 N2914 N 0.81069 0.70385 0.89877
 C2915 C 0.79467 0.70347 0.91563
 N2916 N 0.80050 0.71282 0.92221
 N2917 N 0.79523 0.71751 0.93265
 C2918 C 0.78396 0.71301 0.93687
 N2919 N 0.77821 0.70360 0.93035
 N2920 N 0.78348 0.69889 0.91995
 C2921 C 0.77747 0.71897 0.94758
 N2922 N 0.76523 0.71601 0.95011
 N2923 N 0.75875 0.72237 0.95882
 C2924 C 0.76433 0.73179 0.96546
 N2925 N 0.77663 0.73464 0.96311
 N2926 N 0.78310 0.72833 0.95432
 C2927 C 0.80089 0.19962 0.40361
 N2928 N 0.79542 0.18938 0.39816
 N2929 N 0.79976 0.18489 0.38723
 C2930 C 0.80970 0.19051 0.38135
 N2931 N 0.81516 0.20074 0.38681
 N2932 N 0.81082 0.20523 0.39772
 C2933 C 0.79592 0.20483 0.41547
 N2934 N 0.80096 0.21552 0.42045
 N2935 N 0.79609 0.22062 0.43087
 C2936 C 0.78606 0.21519 0.43674
 N2937 N 0.78110 0.20441 0.43184
 N2938 N 0.78595 0.19931 0.42141
 C2939 C 0.77997 0.22151 0.44748
 N2940 N 0.76958 0.21642 0.45305
 N2941 N 0.76322 0.22284 0.46182
 C2942 C 0.76708 0.23454 0.46538
 N2943 N 0.77754 0.23957 0.45992
 N2944 N 0.78391 0.23314 0.45118
 C2945 C 0.69946 0.30031 0.40332
 N2946 N 0.68980 0.29443 0.39727
 N2947 N 0.68546 0.29888 0.38633
 C2948 C 0.69066 0.30934 0.38103
 N2949 N 0.70032 0.31522 0.38708
 N2950 N 0.70465 0.31078 0.39803
 C2951 C 0.70445 0.29520 0.41520
 N2952 N 0.71411 0.30105 0.42129
 N2953 N 0.71902 0.29607 0.43175
 C2954 C 0.71443 0.28508 0.43652
 N2955 N 0.70469 0.27930 0.43049
 N2956 N 0.69977 0.28428 0.42005
 C2957 C 0.72062 0.27895 0.44730
 N2958 N 0.71700 0.26721 0.45100
 N2959 N 0.72350 0.26100 0.45979
 C2960 C 0.73376 0.26635 0.46530
 N2961 N 0.73729 0.27815 0.46175
 N2962 N 0.73081 0.28436 0.45293
 C2963 C 0.69884 0.80015 0.90368
 N2964 N 0.68925 0.79438 0.89741
 N2965 N 0.68503 0.79901 0.88652
 C2966 C 0.69028 0.80954 0.88144
 N2967 N 0.69988 0.81534 0.88769
 N2968 N 0.70409 0.81072 0.89861
 C2969 C 0.70366 0.79476 0.91551
 N2970 N 0.71309 0.80052 0.92204
 N2971 N 0.71778 0.79524 0.93246
 C2972 C 0.71320 0.78403 0.93672
 N2973 N 0.70371 0.77835 0.93024
 N2974 N 0.69900 0.78363 0.91986
 C2975 C 0.71912 0.77754 0.94745
 N2976 N 0.71604 0.76537 0.95005
 N2977 N 0.72233 0.75890 0.95880
 C2978 C 0.73181 0.76442 0.96542
 N2979 N 0.73478 0.77667 0.96299
 N2980 N 0.72853 0.78312 0.95417
 C2981 C 0.19891 0.29995 0.90346
 N2982 N 0.18938 0.29409 0.89718
 N2983 N 0.18519 0.29863 0.88624
 C2984 C 0.19042 0.30917 0.88113
 N2985 N 0.19996 0.31504 0.88739
 N2986 N 0.20413 0.31051 0.89836
 C2987 C 0.20370 0.29467 0.91534
 N2988 N 0.21306 0.30055 0.92187
 N2989 N 0.21777 0.29537 0.93233
 C2990 C 0.21329 0.28414 0.93663
 N2991 N 0.20386 0.27834 0.93016
 N2992 N 0.19912 0.28353 0.91974
 C2993 C 0.21929 0.27774 0.94736
 N2994 N 0.21631 0.26555 0.95002
 N2995 N 0.22271 0.25916 0.95875
 C2996 C 0.23219 0.26477 0.96528
 N2997 N 0.23506 0.27703 0.96279
 N2998 N 0.22870 0.28341 0.95399
 C2999 C 0.19895 0.80028 0.40350
 N3000 N 0.18936 0.79443 0.39730
 N3001 N 0.18513 0.79896 0.38636
 C3002 C 0.19036 0.80946 0.38119
 N3003 N 0.19996 0.81532 0.38738
 N3004 N 0.20418 0.81080 0.39834
 C3005 C 0.20379 0.79503 0.41538
 N3006 N 0.21322 0.80089 0.42181
 N3007 N 0.21797 0.79575 0.43228
 C3008 C 0.21343 0.78459 0.43670
 N3009 N 0.20392 0.77880 0.43032
 N3010 N 0.19916 0.78395 0.41989
 C3011 C 0.21946 0.77823 0.44744
 N3012 N 0.21638 0.76610 0.45025
 N3013 N 0.22282 0.75971 0.45896
 C3014 C 0.23246 0.76528 0.46530
 N3015 N 0.23543 0.77747 0.46267
 N3016 N 0.22903 0.78385 0.45389
 C3017 C 0.69917 0.69982 0.59622
 N3018 N 0.70434 0.68925 0.60134
 N3019 N 0.70003 0.68468 0.61225
 C3020 C 0.69041 0.69054 0.61843
 N3021 N 0.68525 0.70110 0.61330
 N3022 N 0.68956 0.70567 0.60241
 C3023 C 0.70410 0.70510 0.58437
 N3024 N 0.69945 0.71614 0.57979
 N3025 N 0.70430 0.72129 0.56939
 C3026 C 0.71393 0.71555 0.56314
 N3027 N 0.71849 0.70443 0.56764
 N3028 N 0.71365 0.69929 0.57806
 C3029 C 0.72004 0.72187 0.55241
 N3030 N 0.72993 0.71637 0.54633
 N3031 N 0.73636 0.72269 0.53754
 C3032 C 0.73306 0.73470 0.53448
 N3033 N 0.72310 0.74015 0.54046
 N3034 N 0.71666 0.73382 0.54921
 C3035 C 0.69965 0.19915 0.09590
 N3036 N 0.70536 0.18922 0.10170
 N3037 N 0.70089 0.18476 0.11258
 C3038 C 0.69057 0.19008 0.11807
 N3039 N 0.68487 0.20001 0.11227
 N3040 N 0.68933 0.20447 0.10139
 C3041 C 0.70477 0.20426 0.08407
 N3042 N 0.69915 0.21427 0.07832
 N3043 N 0.70412 0.21926 0.06789
 C3044 C 0.71488 0.21440 0.06281
 N3045 N 0.72042 0.20432 0.06849
 N3046 N 0.71545 0.19932 0.07891
 C3047 C 0.72103 0.22063 0.05206
 N3048 N 0.73248 0.21656 0.04789
 N3049 N 0.73877 0.22304 0.03913
 C3050 C 0.73378 0.23374 0.03413
 N3051 N 0.72227 0.23774 0.03816
 N3052 N 0.71598 0.23126 0.04694
 C3053 C 0.19907 0.70024 0.09611
 N3054 N 0.20427 0.68964 0.10117
 N3055 N 0.20001 0.68504 0.11209
 C3056 C 0.19042 0.69087 0.11833
 N3057 N 0.18522 0.70144 0.11325
 N3058 N 0.18949 0.70605 0.10236
 C3059 C 0.20393 0.70559 0.08427
 N3060 N 0.19934 0.71674 0.07991
 N3061 N 0.20408 0.72196 0.06950
 C3062 C 0.21352 0.71618 0.06300
 N3063 N 0.21803 0.70494 0.06728
 N3064 N 0.21331 0.69974 0.07773
 C3065 C 0.21947 0.72259 0.05225
 N3066 N 0.22885 0.71693 0.04554
 N3067 N 0.23515 0.72332 0.03669
 C3068 C 0.23225 0.73558 0.03424
 N3069 N 0.22280 0.74119 0.04085
 N3070 N 0.21647 0.73479 0.04963
 C3071 C 0.19888 0.19974 0.59614
 N3072 N 0.20404 0.18906 0.60107
 N3073 N 0.19982 0.18437 0.61197
 C3074 C 0.19029 0.19020 0.61832
 N3075 N 0.18513 0.20085 0.61337
 N3076 N 0.18936 0.20554 0.60250
 C3077 C 0.20368 0.20519 0.58432
 N3078 N 0.19908 0.21640 0.58010
 N3079 N 0.20376 0.22171 0.56971
 C3080 C 0.21315 0.21599 0.56310
 N3081 N 0.21766 0.20470 0.56723
 N3082 N 0.21301 0.19939 0.57766
 C3083 C 0.21903 0.22251 0.55236
 N3084 N 0.22834 0.21690 0.54551
 N3085 N 0.23456 0.22337 0.53666
 C3086 C 0.23166 0.23566 0.53436
 N3087 N 0.22228 0.24121 0.54112
 N3088 N 0.21602 0.23473 0.54989
   
