data_POSCAR
  _audit_creation_date              2014-09-24
  _audit_creation_method            'ToBaCCo'
  _symmetry_space_group_name_H-M    'P1'
  _symmetry_Int_Tables_number       1
  _symmetry_cell_setting            triclinic
  loop_
  _symmetry_equiv_pos_as_xyz
 x,y,z
_cell_length_a 69.7635
_cell_length_b 69.6804
_cell_length_c 71.0088
_cell_angle_alpha 90.186100
_cell_angle_beta 89.604900
_cell_angle_gamma 89.990100
loop_
  _atom_site_label
  _atom_site_type_symbol
  _atom_site_fract_x
  _atom_site_fract_y
  _atom_site_fract_z
C1 C 0.41157 0.01509 0.27540
 H2 H 0.41243 0.02637 0.26499
 C3 C 0.42298 0.01598 0.29153
 H4 H 0.43263 0.02798 0.29357
 C5 C 0.39792 -0.01427 0.28561
 H6 H 0.38802 -0.02595 0.28346
 C7 C 0.40904 -0.01392 0.30189
 H8 H 0.40769 -0.02539 0.31208
 N9 N 0.39958 -0.00006 0.27257
 C10 C 0.39292 -0.00595 0.21159
 H11 H 0.37749 -0.00718 0.21078
 C12 C 0.40400 -0.00639 0.19513
 H13 H 0.39709 -0.00801 0.18160
 C14 C 0.42078 -0.00202 0.23015
 H15 H 0.42732 -0.00041 0.24379
 C16 C 0.43240 -0.00239 0.21400
 H17 H 0.44780 -0.00093 0.21529
 Zn18 Zn 0.38487 -0.00132 0.25005
 N19 N 0.40137 -0.00337 0.22864
 C20 C 0.37309 0.03360 0.23320
 N21 N 0.37000 0.02171 0.24812
 C22 C 0.35740 0.02663 0.26208
 C23 C 0.34719 0.04395 0.26117
 C24 C 0.36320 0.05097 0.23176
 C25 C 0.37883 -0.04088 0.24945
 C26 C 0.36893 -0.05826 0.25075
 C27 C 0.33933 -0.04045 0.25379
 C28 C 0.34985 -0.02335 0.25242
 N29 N 0.36930 -0.02387 0.25060
 H30 H 0.38351 0.02988 0.22250
 H31 H 0.35546 0.01721 0.27402
 H32 H 0.33729 0.04778 0.27238
 H33 H 0.36592 0.06030 0.21986
 H34 H 0.39427 -0.04092 0.24789
 H35 H 0.37684 -0.07165 0.25009
 H36 H 0.32389 -0.03984 0.25549
 H37 H 0.34248 -0.00973 0.25307
 C38 C 0.42390 -0.00437 0.19632
 C39 C 0.42180 0.00123 0.30483
 C40 C 0.34899 -0.05811 0.25312
 C41 C 0.35014 0.05626 0.24585
 C42 C 0.08768 0.01413 0.72386
 H43 H 0.08670 0.02563 0.73409
 C44 C 0.07624 0.01450 0.70775
 H45 H 0.06645 0.02633 0.70552
 C46 C 0.10163 -0.01533 0.71412
 H47 H 0.11166 -0.02686 0.71645
 C48 C 0.09050 -0.01550 0.69786
 H49 H 0.09195 -0.02720 0.68787
 N50 N 0.09982 -0.00084 0.72693
 C51 C 0.10617 -0.00546 0.78797
 H52 H 0.12160 -0.00664 0.78888
 C53 C 0.09501 -0.00547 0.80437
 H54 H 0.10185 -0.00671 0.81797
 C55 C 0.07841 -0.00205 0.76919
 H56 H 0.07195 -0.00078 0.75549
 C57 C 0.06671 -0.00199 0.78527
 H58 H 0.05132 -0.00055 0.78387
 Zn59 Zn 0.11440 -0.00152 0.74952
 N60 N 0.09782 -0.00330 0.77084
 C61 C 0.12587 0.03371 0.76611
 N62 N 0.12903 0.02165 0.75126
 C63 C 0.14167 0.02640 0.73732
 C64 C 0.15194 0.04368 0.73822
 C65 C 0.13580 0.05105 0.76753
 C66 C 0.12102 -0.04098 0.75054
 C67 C 0.13124 -0.05819 0.74930
 C68 C 0.16050 -0.03993 0.74623
 C69 C 0.14971 -0.02299 0.74752
 N70 N 0.13027 -0.02382 0.74929
 H71 H 0.11540 0.03013 0.77678
 H72 H 0.14367 0.01683 0.72544
 H73 H 0.16193 0.04735 0.72706
 H74 H 0.13307 0.06051 0.77939
 H75 H 0.10558 -0.04127 0.75206
 H76 H 0.12365 -0.07174 0.74997
 H77 H 0.17592 -0.03916 0.74451
 H78 H 0.15686 -0.00927 0.74683
 C79 C 0.07512 -0.00345 0.80303
 C80 C 0.07755 -0.00057 0.69471
 C81 C 0.15114 -0.05770 0.74692
 C82 C 0.14897 0.05612 0.75350
 C83 C 0.58798 0.51332 0.22391
 H84 H 0.58697 0.52481 0.23416
 C85 C 0.57658 0.51372 0.20777
 H86 H 0.56680 0.52556 0.20553
 C87 C 0.60194 0.48387 0.21417
 H88 H 0.61196 0.47233 0.21652
 C89 C 0.59085 0.48372 0.19789
 H90 H 0.59232 0.47203 0.18788
 N91 N 0.60009 0.49834 0.22700
 C92 C 0.60629 0.49363 0.28803
 H93 H 0.62172 0.49243 0.28897
 C94 C 0.59509 0.49361 0.30441
 H95 H 0.60190 0.49234 0.31801
 C96 C 0.57857 0.49712 0.26920
 H97 H 0.57214 0.49842 0.25549
 C98 C 0.56684 0.49717 0.28526
 H99 H 0.55146 0.49864 0.28384
 Zn100 Zn 0.61461 0.49764 0.24962
 N101 N 0.59797 0.49583 0.27089
 C102 C 0.62602 0.53284 0.26628
 N103 N 0.62923 0.52079 0.25143
 C104 C 0.64192 0.52556 0.23754
 C105 C 0.65217 0.54285 0.23848
 C106 C 0.63593 0.55018 0.26775
 C107 C 0.62121 0.45818 0.25062
 C108 C 0.63142 0.44097 0.24943
 C109 C 0.66071 0.45922 0.24648
 C110 C 0.64992 0.47616 0.24773
 N111 N 0.63047 0.47533 0.24942
 H112 H 0.61552 0.52925 0.27691
 H113 H 0.64396 0.51601 0.22565
 H114 H 0.66219 0.54654 0.22735
 H115 H 0.63316 0.55963 0.27961
 H116 H 0.60576 0.45790 0.25209
 H117 H 0.62383 0.42742 0.25007
 H118 H 0.67614 0.45998 0.24484
 H119 H 0.65707 0.48988 0.24707
 C120 C 0.57521 0.49566 0.30303
 C121 C 0.57792 0.49867 0.19472
 C122 C 0.65134 0.44145 0.24714
 C123 C 0.64914 0.55528 0.25376
 C124 C 0.91320 0.51583 0.77624
 H125 H 0.91410 0.52707 0.76580
 C126 C 0.92454 0.51678 0.79242
 H127 H 0.93417 0.52881 0.79442
 C128 C 0.89948 0.48653 0.78651
 H129 H 0.88955 0.47486 0.78437
 C130 C 0.91051 0.48692 0.80284
 H131 H 0.90906 0.47547 0.81305
 N132 N 0.90119 0.50069 0.77343
 C133 C 0.89433 0.49471 0.71247
 H134 H 0.87890 0.49343 0.71175
 C135 C 0.90531 0.49425 0.69594
 H136 H 0.89831 0.49256 0.68246
 C137 C 0.92229 0.49877 0.73085
 H138 H 0.92890 0.50046 0.74445
 C139 C 0.93381 0.49839 0.71463
 H140 H 0.94921 0.49991 0.71582
 Zn141 Zn 0.88645 0.49941 0.75092
 N142 N 0.90287 0.49736 0.72946
 C143 C 0.87461 0.53431 0.73407
 N144 N 0.87157 0.52244 0.74901
 C145 C 0.85899 0.52736 0.76299
 C146 C 0.84875 0.54465 0.76208
 C147 C 0.86468 0.55166 0.73263
 C148 C 0.88037 0.45984 0.75039
 C149 C 0.87042 0.44249 0.75166
 C150 C 0.84087 0.46034 0.75460
 C151 C 0.85141 0.47743 0.75327
 N152 N 0.87086 0.47688 0.75151
 H153 H 0.88501 0.53060 0.72336
 H154 H 0.85708 0.51795 0.77494
 H155 H 0.83885 0.54848 0.77330
 H156 H 0.86736 0.56098 0.72071
 H157 H 0.89581 0.45977 0.74886
 H158 H 0.87822 0.42906 0.75103
 H159 H 0.82543 0.46088 0.75626
 H160 H 0.84405 0.49106 0.75388
 C161 C 0.92521 0.49633 0.69700
 C162 C 0.92328 0.50209 0.80580
 C163 C 0.85050 0.44269 0.75396
 C164 C 0.85164 0.55695 0.74674
 C165 C 0.22355 0.39539 0.98485
 H166 H 0.23424 0.39580 0.97375
 C167 C 0.20657 0.40590 0.98306
 H168 H 0.20427 0.41455 0.97063
 C169 C 0.21311 0.38302 1.01424
 H170 H 0.21546 0.37371 1.02614
 C171 C 0.19592 0.39330 1.01299
 H172 H 0.18524 0.39205 1.02407
 N173 N 0.22651 0.38420 1.00025
 C174 C 0.28848 0.37319 1.00152
 H175 H 0.28819 0.35767 1.00173
 C176 C 0.30596 0.38287 1.00283
 H177 H 0.31917 0.37478 1.00389
 C178 C 0.27158 0.40268 1.00041
 H179 H 0.25813 0.41034 0.99983
 C180 C 0.28880 0.41295 1.00171
 H181 H 0.28856 0.42849 1.00191
 Zn182 Zn 0.24878 0.36834 1.00033
 N183 N 0.27173 0.38313 1.00029
 C184 C 0.26144 0.35276 0.96508
 N185 N 0.24740 0.35258 0.97850
 C186 C 0.23131 0.34177 0.97633
 C187 C 0.22893 0.33039 0.96027
 C188 C 0.25962 0.34158 0.94879
 C189 C 0.25142 0.36197 1.03917
 C190 C 0.25375 0.35141 1.05570
 C191 C 0.25241 0.32224 1.03727
 C192 C 0.25009 0.33334 1.02107
 N193 N 0.24961 0.35285 1.02229
 H194 H 0.27391 0.36175 0.96683
 H195 H 0.22025 0.34211 0.98708
 H196 H 0.21603 0.32192 0.95865
 H197 H 0.27079 0.34190 0.93811
 H198 H 0.25138 0.37749 1.03972
 H199 H 0.25532 0.35881 1.06904
 H200 H 0.25295 0.30674 1.03616
 H201 H 0.24915 0.32635 1.00751
 C202 C 0.30616 0.40294 1.00300
 C203 C 0.19253 0.40474 0.99718
 C204 C 0.25436 0.33136 1.05473
 C205 C 0.24321 0.33031 0.94635
 C206 C 0.77492 0.10428 0.98400
 H207 H 0.76450 0.10374 0.97280
 C208 C 0.79200 0.09383 0.98238
 H209 H 0.79460 0.08510 0.96996
 C210 C 0.78461 0.11694 1.01346
 H211 H 0.78195 0.12634 1.02532
 C212 C 0.80187 0.10673 1.01241
 H213 H 0.81225 0.10817 1.02361
 N214 N 0.77155 0.11558 0.99935
 C215 C 0.70948 0.12627 1.00020
 H216 H 0.70962 0.14179 1.00033
 C217 C 0.69206 0.11643 1.00147
 H218 H 0.67876 0.12440 1.00243
 C219 C 0.72667 0.09693 0.99934
 H220 H 0.74021 0.08939 0.99888
 C221 C 0.70953 0.08651 1.00060
 H222 H 0.70993 0.07097 1.00089
 Zn223 Zn 0.74925 0.13138 0.99929
 N224 N 0.72634 0.11647 0.99911
 C225 C 0.73741 0.14664 0.96387
 N226 N 0.75109 0.14701 0.97745
 C227 C 0.76727 0.15774 0.97536
 C228 C 0.77013 0.16878 0.95918
 C229 C 0.73972 0.15748 0.94745
 C230 C 0.74590 0.13769 1.03811
 C231 C 0.74389 0.14818 1.05481
 C232 C 0.74617 0.17745 1.03680
 C233 C 0.74815 0.16641 1.02039
 N234 N 0.74809 0.14688 1.02135
 H235 H 0.72487 0.13771 0.96556
 H236 H 0.77806 0.15754 0.98623
 H237 H 0.78312 0.17716 0.95760
 H238 H 0.72885 0.15698 0.93664
 H239 H 0.74556 0.12218 1.03844
 H240 H 0.74215 0.14071 1.06807
 H241 H 0.74619 0.19297 1.03592
 H242 H 0.74943 0.17347 1.00693
 C243 C 0.69205 0.09635 1.00176
 C244 C 0.80570 0.09518 0.99665
 C245 C 0.74398 0.16824 1.05416
 C246 C 0.75626 0.16861 0.94506
 C247 C 0.27453 0.60491 0.48347
 H248 H 0.26413 0.60437 0.47225
 C249 C 0.29157 0.59440 0.48191
 H250 H 0.29421 0.58562 0.46955
 C251 C 0.28420 0.61760 0.51293
 H252 H 0.28154 0.62703 0.52476
 C253 C 0.30142 0.60732 0.51192
 H254 H 0.31181 0.60871 0.52311
 N255 N 0.27115 0.61624 0.49880
 C256 C 0.20909 0.62693 0.49962
 H257 H 0.20921 0.64246 0.49973
 C258 C 0.19167 0.61708 0.50090
 H259 H 0.17836 0.62504 0.50184
 C260 C 0.22630 0.59760 0.49879
 H261 H 0.23984 0.59007 0.49835
 C262 C 0.20917 0.58717 0.50006
 H263 H 0.20957 0.57164 0.50038
 Zn264 Zn 0.24886 0.63206 0.49870
 N265 N 0.22596 0.61715 0.49855
 C266 C 0.23701 0.64728 0.46326
 N267 N 0.25070 0.64765 0.47683
 C268 C 0.26687 0.65839 0.47472
 C269 C 0.26971 0.66944 0.45854
 C270 C 0.23929 0.65813 0.44685
 C271 C 0.24551 0.63844 0.53751
 C272 C 0.24351 0.64895 0.55420
 C273 C 0.24582 0.67819 0.53615
 C274 C 0.24778 0.66712 0.51976
 N275 N 0.24770 0.64760 0.52074
 H276 H 0.22446 0.63835 0.46498
 H277 H 0.27768 0.65820 0.48557
 H278 H 0.28269 0.67782 0.45694
 H279 H 0.22840 0.65762 0.43605
 H280 H 0.24516 0.62292 0.53787
 H281 H 0.24177 0.64150 0.56748
 H282 H 0.24585 0.69370 0.53525
 H283 H 0.24906 0.67417 0.50628
 C284 C 0.19168 0.59700 0.50121
 C285 C 0.30523 0.59572 0.49621
 C286 C 0.24363 0.66901 0.55353
 C287 C 0.25581 0.66927 0.44443
 C288 C 0.72352 0.89464 0.48500
 H289 H 0.73421 0.89504 0.47390
 C290 C 0.70650 0.90507 0.48316
 H291 H 0.70417 0.91366 0.47069
 C292 C 0.71313 0.88236 0.51444
 H293 H 0.71552 0.87311 0.52638
 C294 C 0.69590 0.89257 0.51314
 H295 H 0.68522 0.89132 0.52422
 N296 N 0.72653 0.88353 0.50045
 C297 C 0.78854 0.87281 0.50174
 H298 H 0.78833 0.85729 0.50199
 C299 C 0.80598 0.88259 0.50300
 H300 H 0.81923 0.87456 0.50408
 C301 C 0.77150 0.90222 0.50055
 H302 H 0.75801 0.90981 0.49995
 C303 C 0.78867 0.91257 0.50180
 H304 H 0.78835 0.92812 0.50195
 Zn305 Zn 0.74886 0.86776 0.50059
 N306 N 0.77175 0.88267 0.50048
 C307 C 0.76155 0.85215 0.46537
 N308 N 0.74755 0.85192 0.47881
 C309 C 0.73150 0.84102 0.47670
 C310 C 0.72915 0.82961 0.46065
 C311 C 0.75976 0.84094 0.44909
 C312 C 0.75155 0.86158 0.53946
 C313 C 0.75394 0.85111 0.55603
 C314 C 0.75273 0.82185 0.53774
 C315 C 0.75035 0.83287 0.52149
 N316 N 0.74977 0.85238 0.52262
 H317 H 0.77399 0.86120 0.46708
 H318 H 0.72046 0.84133 0.48746
 H319 H 0.71628 0.82108 0.45906
 H320 H 0.77090 0.84131 0.43839
 H321 H 0.75143 0.87710 0.53993
 H322 H 0.75549 0.85858 0.56934
 H323 H 0.75335 0.80635 0.53670
 H324 H 0.74943 0.82581 0.50796
 C325 C 0.80608 0.90266 0.50311
 C326 C 0.69247 0.90392 0.49729
 C327 C 0.75465 0.83106 0.55516
 C328 C 0.74339 0.82960 0.44670
 C329 C 0.01463 0.27527 0.38669
 H330 H 0.02755 0.26667 0.38660
 C331 C 0.01386 0.29222 0.39708
 H332 H 0.02620 0.29681 0.40511
 C333 C -0.01722 0.28001 0.37604
 H334 H -0.02915 0.27535 0.36758
 C335 C -0.01859 0.29709 0.38623
 H336 H -0.03163 0.30551 0.38575
 N337 N -0.00084 0.26944 0.37665
 C338 C 0.00511 0.20812 0.37086
 H339 H 0.00431 0.20680 0.35570
 C340 C 0.00638 0.19178 0.38197
 H341 H 0.00659 0.17772 0.37538
 C342 C 0.00520 0.22809 0.39804
 H343 H 0.00431 0.24223 0.40423
 C344 C 0.00646 0.21210 0.40970
 H345 H 0.00669 0.21396 0.42486
 Zn346 Zn 0.00179 0.24669 0.36282
 N347 N 0.00470 0.22579 0.37902
 C348 C 0.03838 0.23711 0.34923
 N349 N 0.02342 0.24945 0.34739
 C350 C 0.02443 0.26496 0.33582
 C351 C 0.04114 0.26860 0.32554
 C352 C 0.05526 0.24018 0.33919
 C353 C -0.03626 0.23783 0.35881
 C354 C -0.05345 0.23433 0.34965
 C355 C -0.03710 0.23883 0.31980
 C356 C -0.02014 0.24221 0.32955
 N357 N -0.02019 0.24201 0.34871
 H358 H 0.03751 0.22524 0.35890
 H359 H 0.01241 0.27474 0.33501
 H360 H 0.04208 0.28115 0.31662
 H361 H 0.06727 0.23050 0.34097
 H362 H -0.03570 0.23752 0.37403
 H363 H -0.06633 0.23148 0.35778
 H364 H -0.03722 0.23947 0.30456
 H365 H -0.00707 0.24517 0.32186
 C366 C 0.00702 0.19383 0.40154
 C367 C -0.00292 0.30315 0.39684
 C368 C -0.05387 0.23502 0.33001
 C369 C 0.05667 0.25613 0.32743
 C370 C 0.01571 0.72582 0.11742
 H371 H 0.02819 0.73497 0.11850
 C372 C 0.01656 0.70904 0.10674
 H373 H 0.02972 0.70516 0.09947
 C374 C -0.01673 0.71956 0.12571
 H375 H -0.02956 0.72358 0.13333
 C376 C -0.01649 0.70265 0.11519
 H377 H -0.02919 0.69374 0.11456
 N378 N -0.00084 0.73085 0.12638
 C379 C 0.00097 0.79244 0.13239
 H380 H -0.00137 0.79375 0.14742
 C381 C 0.00235 0.80882 0.12130
 H382 H 0.00111 0.82289 0.12774
 C383 C 0.00488 0.77248 0.10546
 H384 H 0.00543 0.75830 0.09931
 C385 C 0.00632 0.78850 0.09385
 H386 H 0.00815 0.78668 0.07878
 Zn387 Zn -0.00072 0.75367 0.14035
 N388 N 0.00242 0.77476 0.12436
 C389 C 0.03376 0.76546 0.15684
 N390 N 0.01958 0.75210 0.15734
 C391 C 0.02066 0.73637 0.16859
 C392 C 0.03678 0.73342 0.17974
 C393 C 0.05002 0.76313 0.16780
 C394 C -0.03949 0.76044 0.14167
 C395 C -0.05756 0.76302 0.14965
 C396 C -0.04352 0.75917 0.18052
 C397 C -0.02565 0.75668 0.17192
 N398 N -0.02411 0.75704 0.15282
 H399 H 0.03289 0.77755 0.14743
 H400 H 0.00930 0.72581 0.16836
 H401 H 0.03793 0.72059 0.18822
 H402 H 0.06154 0.77353 0.16692
 H403 H -0.03767 0.76091 0.12654
 H404 H -0.06980 0.76534 0.14060
 H405 H -0.04476 0.75849 0.19574
 H406 H -0.01312 0.75434 0.18045
 C407 C 0.00502 0.80676 0.10190
 C408 C 0.00027 0.69747 0.10557
 C409 C -0.05959 0.76222 0.16922
 C410 C 0.05163 0.74686 0.17909
 C411 C 0.51686 0.22488 0.61624
 H412 H 0.52948 0.23384 0.61732
 C413 C 0.51740 0.20818 0.60543
 H414 H 0.53045 0.20415 0.59807
 C415 C 0.48439 0.21903 0.62469
 H416 H 0.47167 0.22317 0.63243
 C417 C 0.48432 0.20220 0.61405
 H418 H 0.47149 0.19347 0.61345
 N419 N 0.50045 0.23008 0.62535
 C420 C 0.50327 0.29156 0.63194
 H421 H 0.50110 0.29274 0.64700
 C422 C 0.50471 0.30803 0.62099
 H423 H 0.50368 0.32205 0.62757
 C424 C 0.50663 0.27182 0.60478
 H425 H 0.50692 0.25770 0.59849
 C426 C 0.50812 0.28794 0.59330
 H427 H 0.50972 0.28625 0.57820
 Zn428 Zn 0.50102 0.25275 0.63953
 N429 N 0.50439 0.27394 0.62372
 C430 C 0.53579 0.26383 0.65588
 N431 N 0.52140 0.25070 0.65638
 C432 C 0.52226 0.23491 0.66758
 C433 C 0.53834 0.23170 0.67872
 C434 C 0.55201 0.26122 0.66683
 C435 C 0.46238 0.26013 0.64115
 C436 C 0.44442 0.26300 0.64927
 C437 C 0.45858 0.25874 0.68000
 C438 C 0.47634 0.25597 0.67129
 N439 N 0.47777 0.25639 0.65218
 H440 H 0.53509 0.27596 0.64651
 H441 H 0.51073 0.22453 0.66734
 H442 H 0.53929 0.21884 0.68719
 H443 H 0.56368 0.27147 0.66598
 H444 H 0.46410 0.26065 0.62601
 H445 H 0.43211 0.26558 0.64040
 H446 H 0.45732 0.25801 0.69520
 H447 H 0.48888 0.25336 0.67974
 C448 C 0.50711 0.30614 0.60154
 C449 C 0.50094 0.19685 0.60430
 C450 C 0.44253 0.26214 0.66882
 C451 C 0.55337 0.24492 0.67810
 C452 C 0.51468 0.77601 0.88518
 H453 H 0.52756 0.76737 0.88517
 C454 C 0.51396 0.79305 0.89543
 H455 H 0.52631 0.79765 0.90344
 C456 C 0.48284 0.78077 0.87450
 H457 H 0.47089 0.77605 0.86609
 C458 C 0.48152 0.79793 0.88456
 H459 H 0.46849 0.80637 0.88404
 N460 N 0.49918 0.77014 0.87520
 C461 C 0.50476 0.70871 0.87034
 H462 H 0.50399 0.70715 0.85521
 C463 C 0.50592 0.69255 0.88172
 H464 H 0.50608 0.67838 0.87540
 C465 C 0.50491 0.72912 0.89721
 H466 H 0.50408 0.74336 0.90318
 C467 C 0.50606 0.71331 0.90912
 H468 H 0.50627 0.71536 0.92425
 Zn469 Zn 0.50169 0.74718 0.86170
 N470 N 0.50444 0.72652 0.87822
 C471 C 0.53826 0.73719 0.84833
 N472 N 0.52338 0.74959 0.84628
 C473 C 0.52453 0.76496 0.83456
 C474 C 0.54134 0.76843 0.82437
 C475 C 0.55523 0.74008 0.83839
 C476 C 0.46362 0.73845 0.85774
 C477 C 0.44643 0.73491 0.84861
 C478 C 0.46282 0.73896 0.81872
 C479 C 0.47979 0.74238 0.82845
 N480 N 0.47972 0.74242 0.84761
 H481 H 0.53728 0.72542 0.85812
 H482 H 0.51258 0.77479 0.83358
 H483 H 0.54241 0.78091 0.81536
 H484 H 0.56719 0.73039 0.84036
 H485 H 0.46416 0.73833 0.87297
 H486 H 0.43352 0.73223 0.85676
 H487 H 0.46272 0.73942 0.80347
 H488 H 0.49288 0.74518 0.82074
 C489 C 0.50654 0.69493 0.90123
 C490 C 0.49721 0.80401 0.89513
 C491 C 0.44603 0.73536 0.82897
 C492 C 0.55681 0.75593 0.82650
 C493 C -0.23494 0.66320 0.97538
 H494 H -0.22380 0.66413 0.98587
 C495 C -0.23404 0.67476 0.95930
 H496 H -0.22216 0.68459 0.95736
 C497 C -0.26399 0.64925 0.96493
 H498 H -0.27555 0.63917 0.96698
 C499 C -0.26362 0.66050 0.94870
 H500 H -0.27496 0.65909 0.93843
 N501 N -0.24996 0.65100 0.97807
 C502 C -0.25640 0.64402 1.03897
 H503 H -0.25745 0.62855 1.03977
 C504 C -0.25710 0.65504 1.05543
 H505 H -0.25872 0.64801 1.06894
 C506 C -0.25268 0.67202 1.02041
 H507 H -0.25105 0.67862 1.00677
 C508 C -0.25331 0.68360 1.03654
 H509 H -0.25201 0.69904 1.03520
 Zn510 Zn -0.25129 0.63616 1.00055
 N511 N -0.25379 0.65257 1.02193
 C512 C -0.21645 0.62477 1.01765
 N513 N -0.22812 0.62159 1.00264
 C514 C -0.22289 0.60910 0.98872
 C515 C -0.20548 0.59908 0.98975
 C516 C -0.19900 0.61508 1.01922
 C517 C -0.29071 0.62957 1.00084
 C518 C -0.30790 0.61941 0.99938
 C519 C -0.28967 0.59006 0.99648
 C520 C -0.27275 0.60081 0.99800
 N521 N -0.27356 0.62027 0.99982
 H522 H -0.22041 0.63512 1.02832
 H523 H -0.23214 0.60708 0.97671
 H524 H -0.20141 0.58926 0.97857
 H525 H -0.18985 0.61788 1.03118
 H526 H -0.29099 0.64502 1.00241
 H527 H -0.32142 0.62704 0.99992
 H528 H -0.28891 0.57463 0.99476
 H529 H -0.25904 0.59362 0.99746
 C530 C -0.25529 0.67501 1.05424
 C531 C -0.24862 0.67350 0.94591
 C532 C -0.30742 0.59948 0.99700
 C533 C -0.19340 0.60213 1.00516
 C534 C -0.23566 0.33732 0.52633
 H535 H -0.22407 0.33639 0.51616
 C536 C -0.23535 0.32644 0.54188
 H537 H -0.22349 0.31673 0.54426
 C538 C -0.26533 0.35196 0.53524
 H539 H -0.27688 0.36193 0.53283
 C540 C -0.26556 0.34031 0.55255
 H541 H -0.27738 0.34189 0.56243
 N542 N -0.25146 0.35014 0.52295
 C543 C -0.25563 0.35637 0.46182
 H544 H -0.25695 0.37180 0.46084
 C545 C -0.25545 0.34518 0.44546
 H546 H -0.25670 0.35201 0.43184
 C547 C -0.25203 0.32862 0.48072
 H548 H -0.25075 0.32219 0.49445
 C549 C -0.25179 0.31689 0.46468
 H550 H -0.25020 0.30151 0.46614
 Zn551 Zn -0.25200 0.36469 0.50025
 N552 N -0.25349 0.34804 0.47899
 C553 C -0.21672 0.37632 0.48376
 N554 N -0.22891 0.37946 0.49853
 C555 C -0.22433 0.39217 0.51241
 C556 C -0.20710 0.40252 0.51154
 C557 C -0.19943 0.38634 0.48235
 C558 C -0.29146 0.37111 0.49892
 C559 C -0.30873 0.38123 0.50003
 C560 C -0.29068 0.41065 0.50313
 C561 C -0.27369 0.39994 0.50196
 N562 N -0.27439 0.38047 0.50024
 H563 H -0.22017 0.36581 0.47312
 H564 H -0.23399 0.39416 0.52424
 H565 H -0.20357 0.41257 0.52266
 H566 H -0.18987 0.38361 0.47055
 H567 H -0.29164 0.35566 0.49745
 H568 H -0.32219 0.37350 0.49931
 H569 H -0.28997 0.42610 0.50482
 H570 H -0.26003 0.40717 0.50272
 C571 C -0.25326 0.32528 0.44688
 C572 C -0.25128 0.32790 0.55569
 C573 C -0.30839 0.40118 0.50237
 C574 C -0.19453 0.39957 0.49633
 C575 C 0.26401 -0.16201 0.02579
 H576 H 0.27562 -0.16300 0.01565
 C577 C 0.26423 -0.17286 0.04135
 H578 H 0.27604 -0.18262 0.04379
 C579 C 0.23438 -0.14723 0.03459
 H580 H 0.22287 -0.13722 0.03213
 C581 C 0.23404 -0.15885 0.05192
 H582 H 0.22220 -0.15720 0.06177
 N583 N 0.24827 -0.14913 0.02234
 C584 C 0.24421 -0.14296 -0.03880
 H585 H 0.24290 -0.12752 -0.03979
 C586 C 0.24439 -0.15415 -0.05516
 H587 H 0.24316 -0.14732 -0.06879
 C588 C 0.24778 -0.17070 -0.01990
 H589 H 0.24905 -0.17713 -0.00616
 C590 C 0.24803 -0.18243 -0.03593
 H591 H 0.24960 -0.19782 -0.03447
 Zn592 Zn 0.24781 -0.13461 -0.00039
 N593 N 0.24634 -0.15128 -0.02163
 C594 C 0.28312 -0.12305 -0.01684
 N595 N 0.27092 -0.11987 -0.00208
 C596 C 0.27551 -0.10715 0.01179
 C597 C 0.29275 -0.09683 0.01091
 C598 C 0.30043 -0.11306 -0.01825
 C599 C 0.20837 -0.12819 -0.00184
 C600 C 0.19110 -0.11809 -0.00070
 C601 C 0.20911 -0.08867 0.00258
 C602 C 0.22611 -0.09936 0.00137
 N603 N 0.22544 -0.11882 -0.00045
 H604 H 0.27967 -0.13357 -0.02747
 H605 H 0.26584 -0.10513 0.02361
 H606 H 0.29629 -0.08678 0.02202
 H607 H 0.30999 -0.11582 -0.03004
 H608 H 0.20821 -0.14364 -0.00338
 H609 H 0.17765 -0.12583 -0.00147
 H610 H 0.20980 -0.07323 0.00436
 H611 H 0.23977 -0.09212 0.00221
 C612 C 0.24657 -0.17404 -0.05374
 C613 C 0.24827 -0.17131 0.05512
 C614 C 0.19142 -0.09816 0.00175
 C615 C 0.30534 -0.09982 -0.00428
 C616 C 0.26505 1.16260 0.47446
 H617 H 0.27624 1.16355 0.48490
 C618 C 0.26588 1.17415 0.45837
 H619 H 0.27775 1.18398 0.45639
 C620 C 0.23595 1.14864 0.46415
 H621 H 0.22440 1.13857 0.46626
 C622 C 0.23625 1.15988 0.44791
 H623 H 0.22486 1.15847 0.43770
 N624 N 0.25004 1.15041 0.47723
 C625 C 0.24381 1.14371 0.53817
 H626 H 0.24279 1.12825 0.53908
 C627 C 0.24316 1.15484 0.55457
 H628 H 0.24161 1.14793 0.56814
 C629 C 0.24740 1.17161 0.51945
 H630 H 0.24897 1.17814 0.50577
 C631 C 0.24682 1.18327 0.53552
 H632 H 0.24809 1.19870 0.53413
 Zn633 Zn 0.24878 1.13566 0.49977
 N634 N 0.24634 1.15216 0.52108
 C635 C 0.28366 1.12433 0.51682
 N636 N 0.27195 1.12109 0.50186
 C637 C 0.27713 1.10853 0.48798
 C638 C 0.29452 1.09849 0.48901
 C639 C 0.30110 1.11461 0.51839
 C640 C 0.20936 1.12905 0.50019
 C641 C 0.19217 1.11886 0.49882
 C642 C 0.21041 1.08952 0.49601
 C643 C 0.22733 1.10029 0.49743
 N644 N 0.22650 1.11975 0.49917
 H645 H 0.27975 1.13473 0.52745
 H646 H 0.26785 1.10646 0.47600
 H647 H 0.29855 1.08860 0.47787
 H648 H 0.31028 1.11744 0.53032
 H649 H 0.20907 1.14450 0.50169
 H650 H 0.17865 1.12649 0.49935
 H651 H 0.21117 1.07408 0.49436
 H652 H 0.24104 1.09310 0.49690
 C653 C 0.24493 1.17478 0.55325
 C654 C 0.25123 1.17288 0.44505
 C655 C 0.19266 1.09893 0.49653
 C656 C 0.30664 1.10158 0.50439
 C657 C 0.14431 0.47455 0.26398
 H658 H 0.14458 0.48519 0.27510
 C659 C 0.15491 0.45760 0.26577
 H660 H 0.16348 0.45528 0.27822
 C661 C 0.13223 0.46419 0.23453
 H662 H 0.12301 0.46656 0.22260
 C663 C 0.14261 0.44704 0.23577
 H664 H 0.14151 0.43641 0.22467
 N665 N 0.13323 0.47754 0.24855
 C666 C 0.12203 0.53958 0.24730
 H667 H 0.10653 0.53926 0.24703
 C668 C 0.13168 0.55712 0.24608
 H669 H 0.12357 0.57033 0.24502
 C670 C 0.15152 0.52273 0.24850
 H671 H 0.15920 0.50928 0.24909
 C672 C 0.16174 0.54001 0.24729
 H673 H 0.17727 0.53980 0.24716
 Zn674 Zn 0.11728 0.49979 0.24843
 N675 N 0.13199 0.52283 0.24854
 C676 C 0.10157 0.51223 0.28371
 N677 N 0.10141 0.49827 0.27025
 C678 C 0.09061 0.48213 0.27242
 C679 C 0.07927 0.47963 0.28854
 C680 C 0.09043 0.51029 0.30006
 C681 C 0.11125 0.50259 0.20956
 C682 C 0.10087 0.50491 0.19295
 C683 C 0.07153 0.50328 0.21119
 C684 C 0.08249 0.50098 0.22747
 N685 N 0.10199 0.50065 0.22637
 H686 H 0.11054 0.52474 0.28196
 H687 H 0.09096 0.47112 0.26165
 H688 H 0.07084 0.46669 0.29018
 H689 H 0.09076 0.52139 0.31076
 H690 H 0.12675 0.50265 0.20912
 H691 H 0.10848 0.50656 0.17968
 H692 H 0.05602 0.50368 0.21229
 H693 H 0.07538 0.49992 0.24098
 C694 C 0.15172 0.55738 0.24600
 C695 C 0.15395 0.44363 0.25161
 C696 C 0.08080 0.50537 0.19375
 C697 C 0.07921 0.49382 0.30252
 C698 C -0.14388 1.02354 0.26590
 H699 H -0.14441 1.01301 0.27706
 C700 C -0.15426 1.04064 0.26766
 H701 H -0.16294 1.04321 0.28013
 C702 C -0.13133 1.03344 0.23638
 H703 H -0.12200 1.03084 0.22444
 C704 C -0.14149 1.05072 0.23759
 H705 H -0.14011 1.06123 0.22645
 N706 N -0.13267 1.02025 0.25045
 C707 C -0.12239 0.95809 0.24928
 H708 H -0.10688 0.95811 0.24908
 C709 C -0.13236 0.94074 0.24798
 H710 H -0.12450 0.92736 0.24693
 C711 C -0.15156 0.97553 0.25034
 H712 H -0.15898 0.98913 0.25088
 C713 C -0.16210 0.95846 0.24906
 H714 H -0.17762 0.95898 0.24883
 Zn715 Zn -0.11701 0.99785 0.25032
 N716 N -0.13204 0.97504 0.25048
 C717 C -0.10173 0.98563 0.28558
 N718 N -0.10136 0.99944 0.27206
 C719 C -0.09057 1.01558 0.27413
 C720 C -0.07946 1.01827 0.29023
 C721 C -0.09082 0.98776 0.30192
 C722 C -0.11075 0.99479 0.21147
 C723 C -0.10029 0.99278 0.19473
 C724 C -0.07104 0.99464 0.21268
 C725 C -0.08206 0.99662 0.22911
 N726 N -0.10156 0.99676 0.22821
 H727 H -0.11071 0.97312 0.28389
 H728 H -0.09077 1.02647 0.26331
 H729 H -0.07105 1.03123 0.29181
 H730 H -0.09133 0.97680 0.31269
 H731 H -0.12625 0.99460 0.21119
 H732 H -0.10780 0.99119 0.18150
 H733 H -0.05553 0.99449 0.21357
 H734 H -0.07501 0.99773 0.24256
 C735 C -0.15240 0.94090 0.24778
 C736 C -0.15295 1.05444 0.25344
 C737 C -0.08024 0.99265 0.19532
 C738 C -0.07963 1.00426 0.30429
 C739 C 0.35523 0.52410 -0.23377
 H740 H 0.35464 0.51366 -0.22254
 C741 C 0.34489 0.54125 -0.23216
 H742 H 0.33619 0.54393 -0.21973
 C743 C 0.36791 0.53376 -0.26332
 H744 H 0.37727 0.53106 -0.27521
 C745 C 0.35779 0.55109 -0.26226
 H746 H 0.35923 0.56151 -0.27346
 N747 N 0.36649 0.52068 -0.24917
 C748 C 0.37732 0.45753 -0.24999
 H749 H 0.39283 0.45760 -0.24989
 C750 C 0.36783 0.44089 -0.25139
 H751 H 0.37569 0.42751 -0.25234
 C752 C 0.34838 0.47586 -0.24914
 H753 H 0.34091 0.48943 -0.24887
 C754 C 0.33729 0.45779 -0.25056
 H755 H 0.32177 0.45840 -0.25088
 Zn756 Zn 0.38210 0.49825 -0.24909
 N757 N 0.36707 0.47543 -0.24885
 C758 C 0.39733 0.48617 -0.21377
 N759 N 0.39769 0.49994 -0.22733
 C760 C 0.40846 0.51610 -0.22529
 C761 C 0.41958 0.51883 -0.20921
 C762 C 0.40825 0.48834 -0.19745
 C763 C 0.38854 0.49492 -0.28791
 C764 C 0.39909 0.49283 -0.30458
 C765 C 0.42824 0.49479 -0.28650
 C766 C 0.41714 0.49686 -0.27014
 N767 N 0.39764 0.49700 -0.27113
 H768 H 0.38837 0.47364 -0.21544
 H769 H 0.40826 0.52696 -0.23614
 H770 H 0.42800 0.53180 -0.20767
 H771 H 0.40777 0.47740 -0.18666
 H772 H 0.37304 0.49474 -0.28827
 H773 H 0.39170 0.49117 -0.31786
 H774 H 0.44373 0.49465 -0.28559
 H775 H 0.42413 0.49804 -0.25666
 C776 C 0.34664 0.44098 -0.25179
 C777 C 0.34629 0.55494 -0.24647
 C778 C 0.41913 0.49271 -0.30388
 C779 C 0.41944 0.50485 -0.19512
 C780 C 0.64664 -0.02576 -0.23472
 H781 H 0.64714 -0.01499 -0.22372
 C782 C 0.65665 -0.04208 -0.23295
 H783 H 0.66530 -0.04442 -0.22056
 C784 C 0.63389 -0.03535 -0.26443
 H785 H 0.62450 -0.03308 -0.27624
 C786 C 0.64480 -0.05351 -0.26313
 H787 H 0.64356 -0.06408 -0.27430
 N788 N 0.63490 -0.02256 -0.25101
 C789 C 0.62373 0.03947 -0.25213
 H790 H 0.60823 0.03918 -0.25236
 C791 C 0.63340 0.05699 -0.25337
 H792 H 0.62527 0.07020 -0.25441
 C793 C 0.65319 0.02256 -0.25100
 H794 H 0.66083 0.00909 -0.25043
 C795 C 0.66345 0.03981 -0.25223
 H796 H 0.67898 0.03952 -0.25239
 Zn797 Zn 0.61893 -0.00033 -0.25102
 N798 N 0.63366 0.02270 -0.25091
 C799 C 0.60324 0.01209 -0.21572
 N800 N 0.60313 -0.00189 -0.22916
 C801 C 0.59237 -0.01804 -0.22699
 C802 C 0.58096 -0.02052 -0.21091
 C803 C 0.59204 0.01017 -0.19942
 C804 C 0.61269 0.00261 -0.28987
 C805 C 0.60220 0.00492 -0.30641
 C806 C 0.57299 0.00318 -0.28802
 C807 C 0.58404 0.00089 -0.27180
 N808 N 0.60353 0.00060 -0.27300
 H809 H 0.61219 0.02462 -0.21747
 H810 H 0.59276 -0.02907 -0.23775
 H811 H 0.57252 -0.03347 -0.20928
 H812 H 0.59230 0.02131 -0.18874
 H813 H 0.62819 0.00270 -0.29040
 H814 H 0.60964 0.00663 -0.31974
 H815 H 0.55750 0.00354 -0.28692
 H816 H 0.57700 -0.00022 -0.25826
 C817 C 0.65346 0.05721 -0.25351
 C818 C 0.65558 -0.05688 -0.24790
 C819 C 0.58216 0.00531 -0.30547
 C820 C 0.58081 -0.00629 -0.19697
 C821 C 0.02595 0.26591 0.86588
 H822 H 0.01701 0.27860 0.86571
 C823 C 0.04317 0.26560 0.85586
 H824 H 0.04759 0.27806 0.84784
 C825 C 0.03123 0.23413 0.87668
 H826 H 0.02662 0.22202 0.88501
 C827 C 0.04857 0.23322 0.86686
 H828 H 0.05725 0.22034 0.86747
 N829 N 0.02024 0.25023 0.87577
 C830 C -0.04134 0.25412 0.87908
 H831 H -0.04332 0.25327 0.89418
 C832 C -0.05717 0.25487 0.86732
 H833 H -0.07150 0.25465 0.87330
 C834 C -0.02021 0.25486 0.85272
 H835 H -0.00580 0.25443 0.84710
 C836 C -0.03568 0.25561 0.84042
 H837 H -0.03320 0.25593 0.82535
 Zn838 Zn -0.00314 0.25205 0.88870
 N839 N -0.02334 0.25429 0.87165
 C840 C -0.01449 0.28834 0.90182
 N841 N -0.00181 0.27374 0.90419
 C842 C 0.01315 0.27522 0.91629
 C843 C 0.01592 0.29210 0.92654
 C844 C -0.01229 0.30538 0.91180
 C845 C -0.01096 0.21370 0.89235
 C846 C -0.01441 0.19635 0.90135
 C847 C -0.01176 0.21265 0.93138
 C848 C -0.00840 0.22978 0.92178
 N849 N -0.00772 0.22984 0.90263
 H850 H -0.02592 0.28710 0.89174
 H851 H 0.02322 0.26349 0.91753
 H852 H 0.02810 0.29346 0.93583
 H853 H -0.02217 0.31713 0.90955
 H854 H -0.01059 0.21433 0.87713
 H855 H -0.01654 0.18343 0.89309
 H856 H -0.01185 0.21246 0.94663
 H857 H -0.00617 0.24291 0.92960
 C858 C -0.05426 0.25559 0.84786
 C859 C 0.05446 0.24907 0.85631
 C860 C -0.01464 0.19583 0.92099
 C861 C 0.00316 0.30731 0.92406
 C862 C 0.47588 0.26436 0.13650
 H863 H 0.48466 0.27714 0.13577
 C864 C 0.45909 0.26437 0.14720
 H865 H 0.45481 0.27718 0.15482
 C866 C 0.47052 0.23205 0.12717
 H867 H 0.47487 0.21962 0.11911
 C868 C 0.45360 0.23145 0.13770
 H869 H 0.44500 0.21850 0.13786
 N870 N 0.48134 0.24829 0.12697
 C871 C 0.54264 0.25266 0.12007
 H872 H 0.54379 0.25105 0.10494
 C873 C 0.55910 0.25411 0.13092
 H874 H 0.57309 0.25364 0.12421
 C875 C 0.52298 0.25461 0.14746
 H876 H 0.50890 0.25436 0.15385
 C877 C 0.53910 0.25608 0.15885
 H878 H 0.53745 0.25711 0.17400
 Zn879 Zn 0.50392 0.24977 0.11270
 N880 N 0.52507 0.25308 0.12844
 C881 C 0.51411 0.28539 0.09732
 N882 N 0.50137 0.27066 0.09644
 C883 C 0.48564 0.27144 0.08524
 C884 C 0.48214 0.28771 0.07439
 C885 C 0.51120 0.30183 0.08669
 C886 C 0.51197 0.21128 0.10994
 C887 C 0.51500 0.19359 0.10131
 C888 C 0.51045 0.20871 0.07102
 C889 C 0.50753 0.22618 0.08024
 N890 N 0.50799 0.22699 0.09938
 H891 H 0.52618 0.28474 0.10670
 H892 H 0.47558 0.25963 0.08518
 H893 H 0.46938 0.28853 0.06583
 H894 H 0.52116 0.31370 0.08775
 H895 H 0.51250 0.21251 0.12512
 H896 H 0.51771 0.18101 0.10982
 H897 H 0.50963 0.20793 0.05580
 H898 H 0.50474 0.23897 0.07216
 C899 C 0.55725 0.25579 0.15045
 C900 C 0.44794 0.24774 0.14780
 C901 C 0.51405 0.19232 0.08172
 C902 C 0.49499 0.30304 0.07533
 C903 C -0.02480 0.76504 0.63736
 H904 H -0.01606 0.77783 0.63651
 C905 C -0.04079 0.76501 0.64777
 H906 H -0.04506 0.77780 0.65542
 C907 C -0.02941 0.73248 0.62752
 H908 H -0.02515 0.72007 0.61939
 C909 C -0.04715 0.73178 0.63884
 H910 H -0.05562 0.71874 0.63904
 N911 N -0.01910 0.74806 0.62722
 C912 C 0.04207 0.75292 0.61969
 H913 H 0.04311 0.75136 0.60455
 C914 C 0.05861 0.75448 0.63041
 H915 H 0.07255 0.75414 0.62359
 C916 C 0.02263 0.75463 0.64724
 H917 H 0.00860 0.75425 0.65374
 C918 C 0.03883 0.75621 0.65850
 H919 H 0.03730 0.75719 0.67367
 Zn920 Zn 0.00329 0.74977 0.61268
 N921 N 0.02457 0.75317 0.62821
 C922 C 0.01302 0.78556 0.59743
 N923 N 0.00038 0.77074 0.59660
 C924 C -0.01549 0.77149 0.58558
 C925 C -0.01922 0.78780 0.57486
 C926 C 0.00988 0.80203 0.58693
 C927 C 0.01167 0.71137 0.60958
 C928 C 0.01476 0.69378 0.60080
 C929 C 0.00967 0.70904 0.57066
 C930 C 0.00670 0.72642 0.58004
 N931 N 0.00739 0.72711 0.59917
 H932 H 0.02521 0.78492 0.60667
 H933 H -0.02548 0.75962 0.58556
 H934 H -0.03207 0.78858 0.56642
 H935 H 0.01980 0.81396 0.58794
 H936 H 0.01238 0.71251 0.62476
 H937 H 0.01770 0.68117 0.60919
 H938 H 0.00867 0.70835 0.55546
 H939 H 0.00368 0.73923 0.57207
 C940 C 0.05691 0.75609 0.64996
 C941 C -0.05253 0.74741 0.64855
 C942 C 0.01357 0.69262 0.58122
 C943 C -0.00645 0.80321 0.57574
 C944 C 0.52518 0.76493 0.36510
 H945 H 0.51628 0.77764 0.36489
 C946 C 0.54247 0.76459 0.35521
 H947 H 0.54699 0.77704 0.34723
 C948 C 0.53031 0.73313 0.37593
 H949 H 0.52562 0.72104 0.38423
 C950 C 0.54771 0.73218 0.36622
 H951 H 0.55636 0.71929 0.36690
 N952 N 0.51936 0.74926 0.37496
 C953 C 0.45779 0.75343 0.37813
 H954 H 0.45577 0.75256 0.39323
 C955 C 0.44199 0.75431 0.36634
 H956 H 0.42764 0.75417 0.37229
 C957 C 0.47897 0.75413 0.35181
 H958 H 0.49339 0.75363 0.34622
 C959 C 0.46353 0.75501 0.33949
 H960 H 0.46604 0.75537 0.32442
 Zn961 Zn 0.49595 0.75117 0.38782
 N962 N 0.47581 0.75353 0.37073
 C963 C 0.48473 0.78750 0.40099
 N964 N 0.49735 0.77284 0.40334
 C965 C 0.51229 0.77423 0.41548
 C966 C 0.51509 0.79105 0.42579
 C967 C 0.48697 0.80449 0.41104
 C968 C 0.48800 0.71282 0.39147
 C969 C 0.48456 0.69548 0.40047
 C970 C 0.48721 0.71180 0.43049
 C971 C 0.49056 0.72892 0.42089
 N972 N 0.49125 0.72897 0.40173
 H973 H 0.47332 0.78633 0.39088
 H974 H 0.52231 0.76246 0.41670
 H975 H 0.52725 0.79233 0.43512
 H976 H 0.47713 0.81629 0.40881
 H977 H 0.48838 0.71345 0.37625
 H978 H 0.48245 0.68255 0.39222
 H979 H 0.48714 0.71162 0.44575
 H980 H 0.49280 0.74205 0.42870
 C981 C 0.44494 0.75508 0.34689
 C982 C 0.55372 0.74803 0.35573
 C983 C 0.48434 0.69497 0.42012
 C984 C 0.50238 0.80632 0.42334
 Zr985 Zr 0.01348 -0.01794 1.02509
 O986 O 0.03200 -0.00739 1.04624
 O987 O 0.01112 -0.04692 1.03236
 O988 O 0.00061 -0.01925 1.05217
 O989 O 0.04909 -0.02320 0.99110
 O990 O -0.02865 -0.00518 1.04809
 O991 O 0.04172 -0.02878 1.02202
 O992 O -0.01013 -0.05893 1.01099
 O993 O -0.01547 -0.02374 1.01980
 O994 O 0.01243 -0.03106 0.99859
 O995 O -0.00053 0.00878 1.02638
 O996 O 0.02661 0.00156 1.00630
 Zr997 Zr -0.01868 0.00960 0.97427
 Zr998 Zr -0.02915 0.00300 1.01965
 Zr999 Zr 0.02398 -0.01133 0.97969
 Zr1000 Zr -0.01636 -0.03585 0.99292
 O1001 O 0.04788 0.00571 0.97203
 O1002 O -0.04282 -0.04650 1.00341
 O1003 O -0.00463 -0.01721 0.97269
 O1004 O -0.03147 -0.00990 0.99309
 O1005 O -0.01773 0.02292 1.00072
 O1006 O 0.01023 0.01525 0.97972
 C1007 C 0.00092 -0.06044 1.02531
 C1008 C 0.05316 -0.02928 1.00768
 C1009 C -0.01588 -0.01343 1.05818
 O1010 O -0.05426 -0.01304 1.02542
 O1011 O -0.05300 0.01782 1.00896
 O1012 O -0.04611 0.02219 0.97777
 C1013 C -0.05700 0.02401 0.99241
 O1014 O 0.03178 0.03168 1.02799
 Zr1015 Zr 0.01120 0.02748 1.00643
 O1016 O -0.01686 0.03875 0.96736
 O1017 O -0.03456 0.02727 1.03687
 O1018 O -0.00009 0.04837 1.02526
 O1019 O 0.03627 0.04005 0.99475
 O1020 O 0.00222 0.05116 0.99042
 C1021 C -0.00848 0.05267 0.97585
 O1022 O -0.03822 -0.00070 0.95391
 O1023 O 0.03077 -0.03649 0.96425
 O1024 O -0.00664 0.00922 0.94681
 O1025 O 0.02205 -0.00609 0.95065
 O1026 O -0.00460 -0.05817 0.97606
 O1027 O -0.03409 -0.04095 0.96920
 C1028 C 0.00923 0.00208 0.94054
 H1029 H 0.01968 -0.04326 0.99796
 H1030 H -0.04502 -0.01231 0.98977
 H1031 H 0.01613 0.02391 0.97029
 H1032 H 0.00062 0.01460 1.03906
 H1033 H -0.04311 -0.06049 1.00088
 H1034 H -0.06190 -0.00548 1.03462
 H1035 H -0.04718 0.02519 1.04301
 H1036 H 0.00680 0.06056 1.02286
 H1037 H -0.01204 -0.06999 0.97873
 H1038 H 0.04332 -0.03420 0.95803
 H1039 H 0.05555 -0.00192 0.96291
 H1040 H 0.03596 0.05391 0.99790
 H1041 H -0.03931 -0.05415 0.96982
 H1042 H -0.04159 0.01028 0.94571
 H1043 H 0.03548 -0.01842 1.05434
 H1044 H 0.03481 0.04552 1.02909
 Zr1045 Zr 0.51382 0.48179 0.52520
 O1046 O 0.53232 0.49248 0.54630
 O1047 O 0.51155 0.45283 0.53257
 O1048 O 0.50096 0.48053 0.55229
 O1049 O 0.54941 0.47643 0.49121
 O1050 O 0.47167 0.49453 0.54817
 O1051 O 0.54207 0.47098 0.52215
 O1052 O 0.49031 0.44068 0.51127
 O1053 O 0.48487 0.47591 0.51996
 O1054 O 0.51277 0.46855 0.49875
 O1055 O 0.49976 0.50848 0.52639
 O1056 O 0.52690 0.50123 0.50633
 Zr1057 Zr 0.48157 0.50904 0.47429
 Zr1058 Zr 0.47114 0.50262 0.51971
 Zr1059 Zr 0.52427 0.48823 0.47977
 Zr1060 Zr 0.48398 0.46368 0.49312
 O1061 O 0.54814 0.50528 0.47203
 O1062 O 0.45757 0.45302 0.50371
 O1063 O 0.49567 0.48225 0.47281
 O1064 O 0.46882 0.48960 0.49320
 O1065 O 0.48252 0.52248 0.50069
 O1066 O 0.51047 0.51477 0.47969
 C1067 C 0.50140 0.43925 0.52557
 C1068 C 0.55350 0.47042 0.50780
 C1069 C 0.48445 0.48633 0.55828
 O1070 O 0.44605 0.48658 0.52553
 O1071 O 0.44727 0.51738 0.50897
 O1072 O 0.45413 0.52162 0.47776
 C1073 C 0.44326 0.52350 0.49240
 O1074 O 0.53202 0.53146 0.52789
 Zr1075 Zr 0.51144 0.52712 0.50636
 O1076 O 0.48333 0.53816 0.46726
 O1077 O 0.46571 0.52694 0.53685
 O1078 O 0.50012 0.54807 0.52511
 O1079 O 0.53647 0.53969 0.49459
 O1080 O 0.50239 0.55072 0.49025
 C1081 C 0.49167 0.55214 0.47569
 O1082 O 0.46203 0.49860 0.45400
 O1083 O 0.53110 0.46302 0.46442
 O1084 O 0.49358 0.50856 0.44682
 O1085 O 0.52231 0.49334 0.45071
 O1086 O 0.49576 0.44131 0.47633
 O1087 O 0.46623 0.45845 0.46945
 C1088 C 0.50946 0.50143 0.44058
 H1089 H 0.52005 0.45636 0.49816
 H1090 H 0.45527 0.48715 0.48990
 H1091 H 0.51634 0.52340 0.47023
 H1092 H 0.50090 0.51436 0.53905
 H1093 H 0.45730 0.43902 0.50124
 H1094 H 0.43840 0.49416 0.53471
 H1095 H 0.45309 0.52486 0.54300
 H1096 H 0.50698 0.56027 0.52265
 H1097 H 0.48834 0.42950 0.47905
 H1098 H 0.54364 0.46530 0.45818
 H1099 H 0.55581 0.49762 0.46293
 H1100 H 0.53613 0.55357 0.49769
 H1101 H 0.46102 0.44525 0.47015
 H1102 H 0.45863 0.50954 0.44575
 H1103 H 0.53583 0.48149 0.55444
 H1104 H 0.53503 0.54531 0.52891
 Zr1105 Zr 0.48661 1.02218 0.52568
 O1106 O 0.46772 1.01242 0.54707
 O1107 O 0.49025 1.05100 0.53320
 O1108 O 0.49958 1.02283 0.55260
 O1109 O 0.45115 1.02869 0.49223
 O1110 O 0.52829 1.00772 0.54789
 O1111 O 0.45871 1.03397 0.52308
 O1112 O 0.51202 1.06214 0.51167
 O1113 O 0.51575 1.02686 0.51994
 O1114 O 0.48809 1.03529 0.49925
 O1115 O 0.49960 0.99494 0.52655
 O1116 O 0.47274 1.00321 0.50694
 Zr1117 Zr 0.51760 0.99342 0.47410
 Zr1118 Zr 0.52840 0.99963 0.51938
 Zr1119 Zr 0.47581 1.01600 0.48036
 Zr1120 Zr 0.51704 1.03896 0.49313
 O1121 O 0.45123 0.99995 0.47294
 O1122 O 0.54402 1.04853 0.50303
 O1123 O 0.50460 1.02078 0.47293
 O1124 O 0.53115 1.01244 0.49286
 O1125 O 0.51620 0.98016 0.50050
 O1126 O 0.48852 0.98891 0.48002
 C1127 C 0.50113 1.06405 0.52623
 C1128 C 0.44726 1.03482 0.50891
 C1129 C 0.51586 1.01637 0.55829
 O1130 O 0.55407 1.01476 0.52488
 O1131 O 0.55169 0.98400 0.50822
 O1132 O 0.54462 0.97989 0.47710
 C1133 C 0.55546 0.97769 0.49157
 O1134 O 0.46644 0.97331 0.52851
 Zr1135 Zr 0.48713 0.97673 0.50666
 O1136 O 0.51473 0.96433 0.46712
 O1137 O 0.53295 0.97511 0.53629
 O1138 O 0.49765 0.95541 0.52518
 O1139 O 0.46158 0.96514 0.49529
 O1140 O 0.49517 0.95273 0.49038
 C1141 C 0.50580 0.95077 0.47567
 O1142 O 0.53739 1.00300 0.45344
 O1143 O 0.47006 1.04146 0.46523
 O1144 O 0.50538 0.99412 0.44687
 O1145 O 0.47737 1.01061 0.45127
 O1146 O 0.50596 1.06181 0.47681
 O1147 O 0.53474 1.04344 0.46906
 C1148 C 0.48975 1.00181 0.44091
 H1149 H 0.48131 1.04777 0.49888
 H1150 H 0.54477 1.01436 0.48934
 H1151 H 0.48226 0.98047 0.47066
 H1152 H 0.49826 0.98914 0.53920
 H1153 H 0.54484 1.06250 0.50059
 H1154 H 0.56147 1.00690 0.53388
 H1155 H 0.54565 0.97672 0.54226
 H1156 H 0.49028 0.94349 0.52282
 H1157 H 0.51385 1.07332 0.47947
 H1158 H 0.45741 1.03971 0.45920
 H1159 H 0.44385 1.00790 0.46400
 H1160 H 0.46136 0.95127 0.49834
 H1161 H 0.54033 1.05649 0.46959
 H1162 H 0.54032 0.99189 0.44513
 H1163 H 0.46472 1.02359 0.55528
 H1164 H 0.46289 0.95960 0.52957
 Zr1165 Zr -0.01324 0.52304 1.02625
 O1166 O -0.03216 0.51316 1.04755
 O1167 O -0.00961 0.55182 1.03396
 O1168 O -0.00031 0.52351 1.05319
 O1169 O -0.04866 0.52976 0.99279
 O1170 O 0.02841 0.50843 1.04842
 O1171 O -0.04114 0.53484 1.02368
 O1172 O 0.01219 0.56309 1.01253
 O1173 O 0.01590 0.52777 1.02057
 O1174 O -0.01173 0.53633 0.99990
 O1175 O -0.00025 0.49581 1.02696
 O1176 O -0.02708 0.50420 1.00737
 Zr1177 Zr 0.01782 0.49463 0.97453
 Zr1178 Zr 0.02856 0.50055 1.01985
 Zr1179 Zr -0.02398 0.51716 0.98087
 Zr1180 Zr 0.01722 0.54004 0.99383
 O1181 O -0.04855 0.50115 0.97332
 O1182 O 0.04419 0.54956 1.00381
 O1183 O 0.00481 0.52199 0.97350
 O1184 O 0.03133 0.51353 0.99342
 O1185 O 0.01639 0.48120 1.00084
 O1186 O -0.01127 0.49007 0.98038
 C1187 C 0.00129 0.56491 1.02708
 C1188 C -0.05258 0.53577 1.00951
 C1189 C 0.01596 0.51700 1.05886
 O1190 O 0.05421 0.51565 1.02549
 O1191 O 0.05186 0.48500 1.00862
 O1192 O 0.04484 0.48109 0.97746
 C1193 C 0.05566 0.47880 0.99194
 O1194 O -0.03342 0.47418 1.02874
 Zr1195 Zr -0.01269 0.47772 1.00695
 O1196 O 0.01499 0.46557 0.96738
 O1197 O 0.03310 0.47592 1.03661
 O1198 O -0.00221 0.45629 1.02536
 O1199 O -0.03821 0.46619 0.99546
 O1200 O -0.00460 0.45382 0.99054
 C1201 C 0.00607 0.45195 0.97585
 O1202 O 0.03762 0.50436 0.95394
 O1203 O -0.02971 0.54271 0.96589
 O1204 O 0.00562 0.49546 0.94729
 O1205 O -0.02240 0.51192 0.95174
 O1206 O 0.00615 0.56301 0.97766
 O1207 O 0.03494 0.54468 0.96980
 C1208 C -0.01001 0.50318 0.94135
 H1209 H -0.01851 0.54881 0.99960
 H1210 H 0.04496 0.51547 0.98992
 H1211 H -0.01751 0.48168 0.97096
 H1212 H -0.00160 0.48992 1.03957
 H1213 H 0.04502 0.56354 1.00145
 H1214 H 0.06161 0.50773 1.03444
 H1215 H 0.04580 0.47749 1.04260
 H1216 H -0.00957 0.44439 1.02292
 H1217 H 0.01404 0.57450 0.98040
 H1218 H -0.04235 0.54100 0.95983
 H1219 H -0.05593 0.50916 0.96442
 H1220 H -0.03843 0.45230 0.99843
 H1221 H 0.04052 0.55773 0.97041
 H1222 H 0.04056 0.49330 0.94557
 H1223 H -0.03517 0.52427 1.05583
 H1224 H -0.03697 0.46046 1.02971
 Zr1225 Zr -0.01523 0.47994 0.47352
 O1226 O -0.03415 0.49068 0.45287
 O1227 O -0.01254 0.45117 0.46540
 O1228 O -0.00263 0.47933 0.44626
 O1229 O -0.05030 0.47348 0.50783
 O1230 O 0.02649 0.49368 0.45041
 O1231 O -0.04331 0.46869 0.47667
 O1232 O 0.00924 0.43907 0.48611
 O1233 O 0.01387 0.47444 0.47833
 O1234 O -0.01366 0.46628 0.49965
 O1235 O -0.00161 0.50687 0.47277
 O1236 O -0.02838 0.49885 0.49299
 Zr1237 Zr 0.01719 0.50686 0.52469
 Zr1238 Zr 0.02718 0.50135 0.47903
 Zr1239 Zr -0.02522 0.48545 0.51923
 Zr1240 Zr 0.01527 0.46178 0.50486
 O1241 O -0.04931 0.50194 0.52759
 O1242 O 0.04179 0.45175 0.49387
 O1243 O 0.00355 0.47982 0.52574
 O1244 O 0.03002 0.48794 0.50520
 O1245 O 0.01571 0.52071 0.49861
 O1246 O -0.01186 0.51221 0.51971
 C1247 C -0.00196 0.43770 0.47188
 C1248 C -0.05455 0.46774 0.49115
 C1249 C 0.01374 0.48544 0.44024
 O1250 O 0.05246 0.48581 0.47259
 O1251 O 0.05092 0.51634 0.48981
 O1252 O 0.04439 0.51994 0.52119
 C1253 C 0.05504 0.52225 0.50646
 O1254 O -0.03423 0.52937 0.47214
 Zr1255 Zr -0.01335 0.52498 0.49336
 O1256 O 0.01506 0.53582 0.53239
 O1257 O 0.03199 0.52602 0.46235
 O1258 O -0.00254 0.54642 0.47499
 O1259 O -0.03847 0.53694 0.50563
 O1260 O -0.00454 0.54844 0.50994
 C1261 C 0.00634 0.54979 0.52440
 O1262 O 0.03710 0.49636 0.54453
 O1263 O -0.03135 0.45988 0.53410
 O1264 O 0.00543 0.50591 0.55226
 O1265 O -0.02308 0.49028 0.54838
 O1266 O 0.00400 0.43889 0.52113
 O1267 O 0.03331 0.45640 0.52826
 C1268 C -0.01030 0.49852 0.55853
 H1269 H -0.02072 0.45396 0.50001
 H1270 H 0.04364 0.48565 0.50831
 H1271 H -0.01778 0.52060 0.52941
 H1272 H -0.00299 0.51293 0.46026
 H1273 H 0.04231 0.43771 0.49599
 H1274 H 0.05989 0.49366 0.46350
 H1275 H 0.04458 0.52425 0.45602
 H1276 H -0.00956 0.55847 0.47780
 H1277 H 0.01157 0.42725 0.51803
 H1278 H -0.04386 0.46183 0.54053
 H1279 H -0.05675 0.49400 0.53661
 H1280 H -0.03839 0.55087 0.50286
 H1281 H 0.03865 0.44327 0.52725
 H1282 H 0.04043 0.50721 0.55298
 H1283 H -0.03756 0.47977 0.44452
 H1284 H -0.03743 0.54319 0.47143
 Zr1285 Zr 0.48493 -0.01989 -0.02671
 O1286 O 0.46614 -0.00895 -0.04736
 O1287 O 0.48755 -0.04861 -0.03500
 O1288 O 0.49765 -0.02042 -0.05391
 O1289 O 0.44971 -0.02643 0.00744
 O1290 O 0.52681 -0.00621 -0.04956
 O1291 O 0.45680 -0.03106 -0.02372
 O1292 O 0.50922 -0.06092 -0.01429
 O1293 O 0.51398 -0.02553 -0.02182
 O1294 O 0.48635 -0.03372 -0.00065
 O1295 O 0.49866 0.00699 -0.02725
 O1296 O 0.47178 -0.00105 -0.00717
 Zr1297 Zr 0.51725 0.00660 0.02474
 Zr1298 Zr 0.52740 0.00132 -0.02092
 Zr1299 Zr 0.47479 -0.01461 0.01900
 Zr1300 Zr 0.51524 -0.03836 0.00464
 O1301 O 0.45072 0.00191 0.02736
 O1302 O 0.54178 -0.04842 -0.00629
 O1303 O 0.50351 -0.02039 0.02558
 O1304 O 0.53008 -0.01226 0.00519
 O1305 O 0.51593 0.02061 -0.00126
 O1306 O 0.48825 0.01209 0.01968
 C1307 C 0.49807 -0.06216 -0.02857
 C1308 C 0.44550 -0.03206 -0.00929
 C1309 C 0.51408 -0.01436 -0.05983
 O1310 O 0.55266 -0.01426 -0.02733
 O1311 O 0.55114 0.01616 -0.00997
 O1312 O 0.54452 0.01960 0.02141
 C1313 C 0.55523 0.02196 0.00673
 O1314 O 0.46614 0.02963 -0.02788
 Zr1315 Zr 0.48691 0.02503 -0.00661
 O1316 O 0.51519 0.03552 0.03260
 O1317 O 0.53236 0.02606 -0.03746
 O1318 O 0.49789 0.04653 -0.02480
 O1319 O 0.46178 0.03700 0.00563
 O1320 O 0.49573 0.04834 0.01016
 C1321 C 0.50655 0.04957 0.02467
 O1322 O 0.53704 -0.00410 0.04460
 O1323 O 0.46851 -0.04026 0.03370
 O1324 O 0.50538 0.00554 0.05225
 O1325 O 0.47682 -0.00996 0.04817
 O1326 O 0.50381 -0.06131 0.02072
 O1327 O 0.53314 -0.04395 0.02809
 C1328 C 0.48959 -0.00182 0.05842
 H1329 H 0.47924 -0.04601 -0.00039
 H1330 H 0.54369 -0.01461 0.00833
 H1331 H 0.48232 0.02044 0.02940
 H1332 H 0.49735 0.01312 -0.03973
 H1333 H 0.54223 -0.06248 -0.00425
 H1334 H 0.56014 -0.00639 -0.03635
 H1335 H 0.54496 0.02427 -0.04375
 H1336 H 0.49091 0.05859 -0.02195
 H1337 H 0.51134 -0.07296 0.01757
 H1338 H 0.45599 -0.03830 0.04009
 H1339 H 0.44322 -0.00605 0.03630
 H1340 H 0.46192 0.05095 0.00294
 H1341 H 0.53844 -0.05710 0.02703
 H1342 H 0.54038 0.00669 0.05312
 H1343 H 0.46271 -0.01979 -0.05579
 H1344 H 0.46301 0.04347 -0.02853
 Zr1345 Zr 0.51387 0.51852 -0.02552
 O1346 O 0.53231 0.50866 -0.04730
 O1347 O 0.51126 0.54767 -0.03204
 O1348 O 0.50080 0.52024 -0.05233
 O1349 O 0.54973 0.52316 0.00782
 O1350 O 0.47166 0.50593 -0.04791
 O1351 O 0.54208 0.52945 -0.02279
 O1352 O 0.49019 0.55906 -0.00989
 O1353 O 0.48493 0.52405 -0.01948
 O1354 O 0.51296 0.53100 0.00130
 O1355 O 0.50001 0.49176 -0.02709
 O1356 O 0.52726 0.49866 -0.00747
 Zr1357 Zr 0.48228 0.48958 0.02538
 Zr1358 Zr 0.47141 0.49723 -0.01962
 Zr1359 Zr 0.52478 0.51088 0.01949
 Zr1360 Zr 0.48419 0.53549 0.00771
 O1361 O 0.54882 0.49377 0.02624
 O1362 O 0.45761 0.54624 -0.00201
 O1363 O 0.49620 0.51644 0.02724
 O1364 O 0.46923 0.50947 0.00728
 O1365 O 0.48310 0.47692 -0.00140
 O1366 O 0.51117 0.48423 0.01917
 C1367 C 0.50111 0.56098 -0.02440
 C1368 C 0.55364 0.52966 -0.00869
 C1369 C 0.48432 0.51438 -0.05812
 O1370 O 0.44622 0.51331 -0.02453
 O1371 O 0.44771 0.48207 -0.00877
 O1372 O 0.45487 0.47696 0.02216
 C1373 C 0.44388 0.47546 0.00771
 O1374 O 0.53245 0.46909 -0.02990
 Zr1375 Zr 0.51200 0.47266 -0.00784
 O1376 O 0.48429 0.46027 0.03153
 O1377 O 0.46596 0.47329 -0.03720
 O1378 O 0.50072 0.45216 -0.02692
 O1379 O 0.53721 0.45995 0.00307
 O1380 O 0.50322 0.44855 0.00776
 C1381 C 0.49265 0.44661 0.02250
 O1382 O 0.46286 0.49927 0.04639
 O1383 O 0.53158 0.53572 0.03534
 O1384 O 0.49457 0.48945 0.05259
 O1385 O 0.52313 0.50501 0.04844
 O1386 O 0.49596 0.55743 0.02487
 O1387 O 0.46660 0.53992 0.03189
 C1388 C 0.51045 0.49655 0.05865
 H1389 H 0.52015 0.54322 0.00206
 H1390 H 0.45570 0.51173 0.01094
 H1391 H 0.51719 0.47539 0.02828
 H1392 H 0.50109 0.48621 -0.03991
 H1393 H 0.45725 0.56017 0.00085
 H1394 H 0.43852 0.50592 -0.03371
 H1395 H 0.45328 0.47545 -0.04304
 H1396 H 0.50772 0.43996 -0.02496
 H1397 H 0.48843 0.56927 0.02266
 H1398 H 0.54420 0.53335 0.04122
 H1399 H 0.55653 0.50123 0.03536
 H1400 H 0.53694 0.44616 -0.00037
 H1401 H 0.46129 0.55310 0.03167
 H1402 H 0.45963 0.48806 0.05440
 H1403 H 0.53564 0.51991 -0.05521
 H1404 H 0.53560 0.45530 -0.03133
 Zr1405 Zr 0.01392 1.01805 0.47435
 O1406 O 0.03241 1.00789 0.45273
 O1407 O 0.01150 1.04715 0.46757
 O1408 O 0.00098 1.01962 0.44747
 O1409 O 0.04966 1.02281 0.50779
 O1410 O -0.02826 1.00550 0.45189
 O1411 O 0.04216 1.02887 0.47710
 O1412 O -0.00960 1.05883 0.48954
 O1413 O -0.01501 1.02378 0.48022
 O1414 O 0.01297 1.03076 0.50107
 O1415 O -0.00007 0.99135 0.47294
 O1416 O 0.02714 0.99827 0.49262
 Zr1417 Zr -0.01802 0.98972 0.52536
 Zr1418 Zr -0.02867 0.99703 0.48025
 Zr1419 Zr 0.02461 1.01074 0.51946
 Zr1420 Zr -0.01580 1.03545 0.50731
 O1421 O 0.04853 0.99357 0.52643
 O1422 O -0.04229 1.04626 0.49740
 O1423 O -0.00398 1.01651 0.52706
 O1424 O -0.03090 1.00950 0.50704
 O1425 O -0.01716 0.97683 0.49869
 O1426 O 0.01087 0.98416 0.51932
 C1427 C 0.00138 1.06057 0.47505
 C1428 C 0.05367 1.02916 0.49125
 C1429 C -0.01551 1.01381 0.44166
 O1430 O -0.05377 1.01318 0.47512
 O1431 O -0.05247 0.98205 0.49113
 O1432 O -0.04547 0.97719 0.52213
 C1433 C -0.05640 0.97558 0.50764
 O1434 O 0.03228 0.96849 0.47047
 Zr1435 Zr 0.01174 0.97235 0.49240
 O1436 O -0.01622 0.96045 0.53176
 O1437 O -0.03416 0.97298 0.46282
 O1438 O 0.00047 0.95176 0.47342
 O1439 O 0.03681 0.95959 0.50355
 O1440 O 0.00272 0.94842 0.50814
 C1441 C -0.00793 0.94667 0.52285
 O1442 O -0.03748 0.99970 0.54621
 O1443 O 0.03147 1.03567 0.53514
 O1444 O -0.00584 0.98974 0.55262
 O1445 O 0.02281 1.00511 0.54845
 O1446 O -0.00401 1.05749 0.52433
 O1447 O -0.03347 1.04018 0.53139
 C1448 C 0.01006 0.99681 0.55869
 H1449 H 0.02021 1.04295 0.50175
 H1450 H -0.04444 1.01187 0.51063
 H1451 H 0.01679 0.97536 0.52851
 H1452 H 0.00104 0.98569 0.46017
 H1453 H -0.04258 1.06021 0.50014
 H1454 H -0.06146 1.00575 0.46596
 H1455 H -0.04681 0.97515 0.45692
 H1456 H 0.00738 0.93953 0.47551
 H1457 H -0.01146 1.06935 0.52199
 H1458 H 0.04406 1.03329 0.54110
 H1459 H 0.05625 1.00106 0.53552
 H1460 H 0.03648 0.94577 0.50022
 H1461 H -0.03872 1.05338 0.53104
 H1462 H -0.04080 0.98858 0.55430
 H1463 H 0.03583 1.01905 0.44474
 H1464 H 0.03538 0.95468 0.46917
 Zr1465 Zr 0.73322 0.26287 0.22496
 O1466 O 0.74374 0.28132 0.20362
 O1467 O 0.70428 0.26041 0.21778
 O1468 O 0.73200 0.24982 0.19800
 O1469 O 0.72775 0.29869 0.25863
 O1470 O 0.74615 0.22060 0.20231
 O1471 O 0.72229 0.29111 0.22778
 O1472 O 0.69229 0.23925 0.23937
 O1473 O 0.72748 0.23390 0.23051
 O1474 O 0.72005 0.26193 0.25150
 O1475 O 0.75995 0.24893 0.22376
 O1476 O 0.75260 0.27619 0.24361
 Zr1477 Zr 0.76069 0.23107 0.27606
 Zr1478 Zr 0.75424 0.22030 0.23076
 Zr1479 Zr 0.73967 0.27367 0.27027
 Zr1480 Zr 0.71534 0.23312 0.25743
 O1481 O 0.75660 0.29770 0.27767
 O1482 O 0.70480 0.20657 0.24714
 O1483 O 0.73386 0.24505 0.27753
 O1484 O 0.74130 0.21808 0.25736
 O1485 O 0.77405 0.23191 0.24957
 O1486 O 0.76626 0.25999 0.27034
 C1487 C 0.69078 0.25025 0.22497
 C1488 C 0.72170 0.30264 0.24202
 C1489 C 0.73789 0.23330 0.19212
 O1490 O 0.73832 0.19508 0.22524
 O1491 O 0.76910 0.19655 0.24165
 O1492 O 0.77336 0.20363 0.27278
 C1493 C 0.77526 0.19267 0.25823
 O1494 O 0.78273 0.28134 0.22185
 Zr1495 Zr 0.77854 0.26085 0.24360
 O1496 O 0.78977 0.23303 0.28291
 O1497 O 0.77855 0.21487 0.21356
 O1498 O 0.79949 0.24950 0.22485
 O1499 O 0.79098 0.28605 0.25504
 O1500 O 0.80218 0.25202 0.25966
 C1501 C 0.80367 0.24140 0.27433
 O1502 O 0.75041 0.21158 0.29659
 O1503 O 0.71448 0.28048 0.28568
 O1504 O 0.76017 0.24328 0.30342
 O1505 O 0.74483 0.27193 0.29933
 O1506 O 0.69298 0.24490 0.27425
 O1507 O 0.71025 0.21545 0.28129
 C1508 C 0.75299 0.25918 0.30955
 H1509 H 0.70784 0.26915 0.25208
 H1510 H 0.73893 0.20453 0.26081
 H1511 H 0.77486 0.26597 0.27970
 H1512 H 0.76579 0.25003 0.21107
 H1513 H 0.69082 0.20625 0.24968
 H1514 H 0.74592 0.18740 0.21611
 H1515 H 0.77653 0.20219 0.20754
 H1516 H 0.81164 0.25646 0.22717
 H1517 H 0.68121 0.23740 0.27167
 H1518 H 0.71671 0.29309 0.29177
 H1519 H 0.74892 0.30541 0.28672
 H1520 H 0.80484 0.28577 0.25188
 H1521 H 0.69708 0.21017 0.28071
 H1522 H 0.76137 0.20829 0.30482
 H1523 H 0.73274 0.28472 0.19550
 H1524 H 0.79654 0.28441 0.22070
 Zr1525 Zr 0.77221 0.73690 0.72492
 O1526 O 0.76209 0.71791 0.70387
 O1527 O 0.80106 0.73989 0.71724
 O1528 O 0.77304 0.74954 0.69780
 O1529 O 0.77820 0.70169 0.75886
 O1530 O 0.75848 0.77862 0.70216
 O1531 O 0.78356 0.70884 0.72788
 O1532 O 0.81262 0.76165 0.73846
 O1533 O 0.77742 0.76606 0.73019
 O1534 O 0.78534 0.73847 0.75127
 O1535 O 0.74524 0.75039 0.72398
 O1536 O 0.75304 0.72356 0.74394
 Zr1537 Zr 0.74411 0.76904 0.77615
 Zr1538 Zr 0.75045 0.77922 0.73070
 Zr1539 Zr 0.76589 0.72672 0.77041
 Zr1540 Zr 0.78954 0.76744 0.75694
 O1541 O 0.74940 0.70249 0.77822
 O1542 O 0.79959 0.79411 0.74648
 O1543 O 0.77119 0.75554 0.77739
 O1544 O 0.76331 0.78205 0.75711
 O1545 O 0.73082 0.76756 0.74983
 O1546 O 0.73906 0.73994 0.77070
 C1547 C 0.81433 0.75053 0.72408
 C1548 C 0.78428 0.69753 0.74222
 C1549 C 0.76685 0.76588 0.69190
 O1550 O 0.76599 0.80458 0.72476
 O1551 O 0.73520 0.80291 0.74158
 O1552 O 0.73102 0.79626 0.77282
 C1553 C 0.72895 0.80697 0.75819
 O1554 O 0.72306 0.71752 0.72263
 Zr1555 Zr 0.72685 0.73846 0.74412
 O1556 O 0.71501 0.76681 0.78329
 O1557 O 0.72604 0.78401 0.71382
 O1558 O 0.70575 0.74909 0.72549
 O1559 O 0.71478 0.71327 0.75599
 O1560 O 0.70303 0.74724 0.76033
 C1561 C 0.70128 0.75810 0.77488
 O1562 O 0.75408 0.78891 0.79646
 O1563 O 0.79119 0.72066 0.78556
 O1564 O 0.74460 0.75711 0.80356
 O1565 O 0.76054 0.72872 0.79949
 O1566 O 0.81214 0.75620 0.77341
 O1567 O 0.79435 0.78543 0.78067
 C1568 C 0.75201 0.74139 0.80971
 H1569 H 0.79768 0.73147 0.75172
 H1570 H 0.76546 0.79569 0.76043
 H1571 H 0.73052 0.73395 0.78019
 H1572 H 0.73941 0.74900 0.71138
 H1573 H 0.81356 0.79471 0.74883
 H1574 H 0.75827 0.81203 0.71568
 H1575 H 0.72786 0.79663 0.70765
 H1576 H 0.69371 0.74196 0.72802
 H1577 H 0.82378 0.76385 0.77059
 H1578 H 0.78921 0.70811 0.79179
 H1579 H 0.75720 0.69505 0.78724
 H1580 H 0.70092 0.71330 0.75301
 H1581 H 0.80746 0.79085 0.77995
 H1582 H 0.74305 0.79215 0.80478
 H1583 H 0.77318 0.71461 0.69565
 H1584 H 0.70931 0.71415 0.72172
 Zr1585 Zr 0.22942 0.23549 0.77597
 O1586 O 0.24017 0.21638 0.79649
 O1587 O 0.20080 0.23844 0.78447
 O1588 O 0.22910 0.24800 0.80321
 O1589 O 0.22238 0.20057 0.74175
 O1590 O 0.24365 0.27705 0.79890
 O1591 O 0.21794 0.20748 0.77296
 O1592 O 0.18875 0.26052 0.76398
 O1593 O 0.22416 0.26468 0.77123
 O1594 O 0.21553 0.23729 0.75002
 O1595 O 0.25644 0.24887 0.77641
 O1596 O 0.24801 0.22224 0.75626
 Zr1597 Zr 0.25615 0.26791 0.72449
 Zr1598 Zr 0.25114 0.27777 0.77022
 Zr1599 Zr 0.23442 0.22563 0.73020
 Zr1600 Zr 0.21127 0.26632 0.74487
 O1601 O 0.25056 0.20139 0.72160
 O1602 O 0.20161 0.29296 0.75590
 O1603 O 0.22900 0.25452 0.72376
 O1604 O 0.23753 0.28084 0.74421
 O1605 O 0.27020 0.26620 0.75040
 O1606 O 0.26126 0.23876 0.72940
 C1607 C 0.18741 0.24927 0.77823
 C1608 C 0.21679 0.19629 0.75850
 C1609 C 0.23536 0.26433 0.80915
 O1610 O 0.23593 0.30321 0.77682
 O1611 O 0.26623 0.30143 0.75927
 O1612 O 0.26949 0.29501 0.72784
 C1613 C 0.27202 0.30558 0.74255
 O1614 O 0.27864 0.21604 0.77677
 Zr1615 Zr 0.27424 0.23704 0.75560
 O1616 O 0.28498 0.26553 0.71642
 O1617 O 0.27595 0.28228 0.78663
 O1618 O 0.29592 0.24763 0.77367
 O1619 O 0.28583 0.21181 0.74321
 O1620 O 0.29759 0.24567 0.73869
 C1621 C 0.29891 0.25660 0.72421
 O1622 O 0.24566 0.28802 0.70478
 O1623 O 0.20867 0.21980 0.71567
 O1624 O 0.25488 0.25625 0.69695
 O1625 O 0.23901 0.22785 0.70101
 O1626 O 0.18812 0.25527 0.72895
 O1627 O 0.20585 0.28445 0.72149
 C1628 C 0.24731 0.24059 0.69077
 H1629 H 0.20316 0.23033 0.74982
 H1630 H 0.23535 0.29451 0.74114
 H1631 H 0.26950 0.23279 0.71961
 H1632 H 0.26258 0.24739 0.78884
 H1633 H 0.18757 0.29362 0.75394
 H1634 H 0.24391 0.31053 0.78583
 H1635 H 0.27434 0.29487 0.79298
 H1636 H 0.30787 0.24051 0.77071
 H1637 H 0.17660 0.26295 0.73222
 H1638 H 0.21044 0.20729 0.70921
 H1639 H 0.24248 0.19407 0.71268
 H1640 H 0.29977 0.21175 0.74580
 H1641 H 0.19278 0.28990 0.72263
 H1642 H 0.25645 0.29129 0.69621
 H1643 H 0.22932 0.21302 0.80497
 H1644 H 0.29243 0.21273 0.77732
 Zr1645 Zr 0.26931 0.76415 0.27457
 O1646 O 0.26012 0.78251 0.29668
 O1647 O 0.29849 0.76104 0.28048
 O1648 O 0.27120 0.75076 0.30127
 O1649 O 0.27384 0.80039 0.24140
 O1650 O 0.25641 0.72184 0.29692
 O1651 O 0.28051 0.79231 0.27182
 O1652 O 0.30922 0.74004 0.25798
 O1653 O 0.27432 0.73517 0.26823
 O1654 O 0.28133 0.76338 0.24751
 O1655 O 0.24241 0.75065 0.27654
 O1656 O 0.24938 0.77804 0.25698
 Zr1657 Zr 0.23914 0.73351 0.22401
 Zr1658 Zr 0.24734 0.72202 0.26878
 Zr1659 Zr 0.26112 0.77568 0.22978
 Zr1660 Zr 0.28530 0.73458 0.24082
 O1661 O 0.24425 0.80003 0.22346
 O1662 O 0.29582 0.70771 0.25015
 O1663 O 0.26613 0.74707 0.22174
 O1664 O 0.25910 0.71997 0.24164
 O1665 O 0.22694 0.73422 0.25103
 O1666 O 0.23432 0.76244 0.23050
 C1667 C 0.31152 0.75078 0.27253
 C1668 C 0.28062 0.80405 0.25781
 C1669 C 0.26518 0.73430 0.30707
 O1670 O 0.26315 0.69654 0.27324
 O1671 O 0.23173 0.69860 0.25805
 O1672 O 0.22623 0.70619 0.22728
 C1673 C 0.22482 0.69503 0.24168
 O1674 O 0.22032 0.78345 0.27998
 Zr1675 Zr 0.22321 0.76315 0.25773
 O1676 O 0.20977 0.73600 0.21847
 O1677 O 0.22360 0.71670 0.28673
 O1678 O 0.20288 0.75199 0.27716
 O1679 O 0.21071 0.78867 0.24720
 O1680 O 0.19874 0.75485 0.24260
 C1681 C 0.19640 0.74444 0.22784
 O1682 O 0.24816 0.71415 0.20267
 O1683 O 0.28580 0.78235 0.21356
 O1684 O 0.23881 0.74610 0.19688
 O1685 O 0.25485 0.77440 0.20091
 O1686 O 0.30709 0.74624 0.22331
 O1687 O 0.28909 0.71716 0.21644
 C1688 C 0.24609 0.76194 0.19077
 H1689 H 0.29362 0.77042 0.24657
 H1690 H 0.26112 0.70643 0.23785
 H1691 H 0.22542 0.76868 0.22160
 H1692 H 0.23708 0.75168 0.28946
 H1693 H 0.30967 0.70717 0.24701
 H1694 H 0.25580 0.68883 0.28251
 H1695 H 0.22566 0.70392 0.29245
 H1696 H 0.19077 0.75922 0.27549
 H1697 H 0.31885 0.73852 0.22523
 H1698 H 0.28352 0.79508 0.20780
 H1699 H 0.25167 0.80776 0.21426
 H1700 H 0.19699 0.78858 0.25092
 H1701 H 0.30218 0.71167 0.21637
 H1702 H 0.23678 0.71119 0.19486
 H1703 H 0.27154 0.78559 0.30437
 H1704 H 0.20663 0.78683 0.28168
 Zr1705 Zr 0.23305 0.76375 0.72429
 O1706 O 0.24362 0.78220 0.70297
 O1707 O 0.20412 0.76133 0.71708
 O1708 O 0.23183 0.75072 0.69732
 O1709 O 0.22760 0.79955 0.75798
 O1710 O 0.24594 0.72147 0.70163
 O1711 O 0.22214 0.79200 0.72713
 O1712 O 0.19210 0.74017 0.73865
 O1713 O 0.22728 0.73479 0.72983
 O1714 O 0.21987 0.76281 0.75082
 O1715 O 0.25976 0.74977 0.72310
 O1716 O 0.25244 0.77703 0.74296
 Zr1717 Zr 0.26045 0.73188 0.77538
 Zr1718 Zr 0.25401 0.72114 0.73007
 Zr1719 Zr 0.23950 0.77451 0.76961
 Zr1720 Zr 0.21511 0.73401 0.75673
 O1721 O 0.25646 0.79851 0.77702
 O1722 O 0.20454 0.70747 0.74644
 O1723 O 0.23364 0.74590 0.77685
 O1724 O 0.24106 0.71893 0.75667
 O1725 O 0.27382 0.73272 0.74890
 O1726 O 0.26607 0.76079 0.76968
 C1727 C 0.19061 0.75117 0.72425
 C1728 C 0.22156 0.80352 0.74138
 C1729 C 0.23769 0.73419 0.69143
 O1730 O 0.23805 0.69596 0.72453
 O1731 O 0.26882 0.69736 0.74097
 O1732 O 0.27307 0.70442 0.77210
 C1733 C 0.27495 0.69345 0.75755
 O1734 O 0.28258 0.78216 0.72121
 Zr1735 Zr 0.27836 0.76165 0.74294
 O1736 O 0.28954 0.73377 0.78224
 O1737 O 0.27832 0.71569 0.71290
 O1738 O 0.29930 0.75030 0.72419
 O1739 O 0.29085 0.78681 0.75442
 O1740 O 0.30198 0.75276 0.75900
 C1741 C 0.30346 0.74212 0.77365
 O1742 O 0.25013 0.71240 0.79591
 O1743 O 0.21432 0.78135 0.78502
 O1744 O 0.25995 0.74407 0.80274
 O1745 O 0.24465 0.77275 0.79867
 O1746 O 0.19276 0.74582 0.77353
 O1747 O 0.20998 0.71634 0.78059
 C1748 C 0.25279 0.75998 0.80888
 H1749 H 0.20767 0.77005 0.75140
 H1750 H 0.23865 0.70538 0.76011
 H1751 H 0.27468 0.76676 0.77905
 H1752 H 0.26562 0.75087 0.71041
 H1753 H 0.19056 0.70717 0.74897
 H1754 H 0.24565 0.68826 0.71540
 H1755 H 0.27629 0.70301 0.70687
 H1756 H 0.31146 0.75724 0.72651
 H1757 H 0.18098 0.73834 0.77094
 H1758 H 0.21656 0.79395 0.79112
 H1759 H 0.24879 0.80623 0.78608
 H1760 H 0.30470 0.78651 0.75126
 H1761 H 0.19681 0.71109 0.78001
 H1762 H 0.26108 0.70909 0.80413
 H1763 H 0.23263 0.78562 0.69485
 H1764 H 0.29640 0.78522 0.72008
 Zr1765 Zr 0.27134 0.23654 0.22418
 O1766 O 0.26114 0.21759 0.20314
 O1767 O 0.30020 0.23945 0.21647
 O1768 O 0.27220 0.24919 0.19708
 O1769 O 0.27728 0.20129 0.25810
 O1770 O 0.25772 0.27831 0.20147
 O1771 O 0.28262 0.20843 0.22712
 O1772 O 0.31183 0.26119 0.23767
 O1773 O 0.27663 0.26567 0.22947
 O1774 O 0.28452 0.23806 0.25052
 O1775 O 0.24441 0.25009 0.22329
 O1776 O 0.25216 0.22324 0.24322
 Zr1777 Zr 0.24340 0.26872 0.27547
 Zr1778 Zr 0.24970 0.27891 0.23001
 Zr1779 Zr 0.26506 0.22635 0.26967
 Zr1780 Zr 0.28879 0.26702 0.25620
 O1781 O 0.24851 0.20216 0.27750
 O1782 O 0.29890 0.29366 0.24575
 O1783 O 0.27044 0.25514 0.27667
 O1784 O 0.26261 0.28169 0.25641
 O1785 O 0.23006 0.26729 0.24917
 O1786 O 0.23827 0.23964 0.27001
 C1787 C 0.31349 0.25007 0.22328
 C1788 C 0.28332 0.19711 0.24145
 C1789 C 0.26606 0.26556 0.19120
 O1790 O 0.26529 0.30425 0.22409
 O1791 O 0.23449 0.30261 0.24091
 O1792 O 0.23034 0.29596 0.27215
 C1793 C 0.22827 0.30667 0.25753
 O1794 O 0.22213 0.21729 0.22196
 Zr1795 Zr 0.22601 0.23820 0.24345
 O1796 O 0.21431 0.26656 0.28266
 O1797 O 0.22530 0.28376 0.21313
 O1798 O 0.20491 0.24890 0.22485
 O1799 O 0.21389 0.21305 0.25533
 O1800 O 0.20224 0.24705 0.25970
 C1801 C 0.20054 0.25790 0.27426
 O1802 O 0.25345 0.28857 0.29576
 O1803 O 0.29037 0.22021 0.28478
 O1804 O 0.24391 0.25679 0.30288
 O1805 O 0.25977 0.22835 0.29877
 O1806 O 0.31140 0.25571 0.27262
 O1807 O 0.29369 0.28497 0.27994
 C1808 C 0.25129 0.24105 0.30900
 H1809 H 0.29684 0.23102 0.25094
 H1810 H 0.26479 0.29533 0.25973
 H1811 H 0.22972 0.23366 0.27951
 H1812 H 0.23856 0.24873 0.21069
 H1813 H 0.31288 0.29423 0.24808
 H1814 H 0.25757 0.31171 0.21501
 H1815 H 0.22714 0.29637 0.20698
 H1816 H 0.19286 0.24181 0.22739
 H1817 H 0.32305 0.26333 0.26978
 H1818 H 0.28835 0.20766 0.29101
 H1819 H 0.25631 0.19470 0.28651
 H1820 H 0.20002 0.21311 0.25236
 H1821 H 0.30680 0.29035 0.27920
 H1822 H 0.24244 0.29184 0.30409
 H1823 H 0.27220 0.21425 0.19491
 H1824 H 0.20836 0.21396 0.22107
 Zr1825 Zr 0.72931 0.73477 0.27632
 O1826 O 0.74012 0.71570 0.29682
 O1827 O 0.70071 0.73771 0.28489
 O1828 O 0.72906 0.74731 0.30355
 O1829 O 0.72219 0.69984 0.24213
 O1830 O 0.74360 0.77636 0.29919
 O1831 O 0.71784 0.70676 0.27336
 O1832 O 0.68859 0.75976 0.26441
 O1833 O 0.72402 0.76397 0.27158
 O1834 O 0.71535 0.73656 0.25040
 O1835 O 0.75633 0.74817 0.27667
 O1836 O 0.74784 0.72152 0.25657
 Zr1837 Zr 0.75588 0.76717 0.22475
 Zr1838 Zr 0.75100 0.77705 0.27048
 Zr1839 Zr 0.73417 0.72490 0.23054
 Zr1840 Zr 0.71106 0.76559 0.24526
 O1841 O 0.75030 0.70066 0.22189
 O1842 O 0.70142 0.79222 0.25632
 O1843 O 0.72873 0.75377 0.22410
 O1844 O 0.73732 0.78011 0.24451
 O1845 O 0.77001 0.76548 0.25061
 O1846 O 0.76101 0.73803 0.22966
 C1847 C 0.68729 0.74851 0.27867
 C1848 C 0.71665 0.69556 0.25890
 C1849 C 0.73534 0.76364 0.30947
 O1850 O 0.73581 0.80251 0.27711
 O1851 O 0.76607 0.80071 0.25947
 O1852 O 0.76924 0.79426 0.22804
 C1853 C 0.77182 0.80484 0.24274
 O1854 O 0.77854 0.71534 0.27700
 Zr1855 Zr 0.77407 0.73633 0.25582
 O1856 O 0.78468 0.76478 0.21658
 O1857 O 0.77586 0.78158 0.28682
 O1858 O 0.79581 0.74694 0.27381
 O1859 O 0.78562 0.71108 0.24342
 O1860 O 0.79736 0.74493 0.23882
 C1861 C 0.79864 0.75585 0.22433
 O1862 O 0.74532 0.78727 0.20507
 O1863 O 0.70838 0.71905 0.21608
 O1864 O 0.75453 0.75550 0.19722
 O1865 O 0.73868 0.72710 0.20133
 O1866 O 0.68787 0.75453 0.22939
 O1867 O 0.70556 0.78372 0.22190
 C1868 C 0.74694 0.73984 0.19107
 H1869 H 0.70298 0.72960 0.25024
 H1870 H 0.73512 0.79378 0.24144
 H1871 H 0.76922 0.73205 0.21984
 H1872 H 0.76251 0.74669 0.28909
 H1873 H 0.68738 0.79287 0.25441
 H1874 H 0.74382 0.80983 0.28609
 H1875 H 0.77427 0.79417 0.29317
 H1876 H 0.80775 0.73982 0.27082
 H1877 H 0.67636 0.76221 0.23268
 H1878 H 0.71013 0.70654 0.20962
 H1879 H 0.74219 0.69332 0.21301
 H1880 H 0.79957 0.71102 0.24596
 H1881 H 0.69250 0.78917 0.22308
 H1882 H 0.75609 0.79054 0.19645
 H1883 H 0.72930 0.71233 0.30533
 H1884 H 0.79234 0.71204 0.27751
 Zr1885 Zr 0.77022 0.26313 0.77506
 O1886 O 0.76083 0.28146 0.79711
 O1887 O 0.79939 0.26018 0.78111
 O1888 O 0.77207 0.24977 0.80178
 O1889 O 0.77473 0.29937 0.74189
 O1890 O 0.75746 0.22077 0.79739
 O1891 O 0.78130 0.29133 0.77235
 O1892 O 0.81033 0.23923 0.75866
 O1893 O 0.77542 0.23417 0.76876
 O1894 O 0.78236 0.26240 0.74805
 O1895 O 0.74339 0.24948 0.77693
 O1896 O 0.75030 0.27691 0.75738
 Zr1897 Zr 0.74045 0.23230 0.72439
 Zr1898 Zr 0.74851 0.22088 0.76921
 Zr1899 Zr 0.76217 0.27459 0.73023
 Zr1900 Zr 0.78652 0.23362 0.74140
 O1901 O 0.74520 0.29886 0.72386
 O1902 O 0.79714 0.20681 0.75078
 O1903 O 0.76737 0.24601 0.72222
 O1904 O 0.76040 0.21887 0.74212
 O1905 O 0.72813 0.23296 0.75136
 O1906 O 0.73543 0.26121 0.73085
 C1907 C 0.81251 0.24998 0.77321
 C1908 C 0.78142 0.30306 0.75833
 C1909 C 0.76610 0.23328 0.80757
 O1910 O 0.76443 0.19548 0.77374
 O1911 O 0.73305 0.19739 0.75843
 O1912 O 0.72765 0.20492 0.72763
 C1913 C 0.72622 0.19377 0.74203
 O1914 O 0.72111 0.28217 0.78025
 Zr1915 Zr 0.72420 0.26186 0.75804
 O1916 O 0.71110 0.23460 0.71873
 O1917 O 0.72473 0.21544 0.78707
 O1918 O 0.70385 0.25062 0.77739
 O1919 O 0.71159 0.28729 0.74743
 O1920 O 0.69985 0.25339 0.74282
 C1921 C 0.69763 0.24295 0.72806
 O1922 O 0.74968 0.21298 0.70311
 O1923 O 0.78687 0.28137 0.71409
 O1924 O 0.74013 0.24489 0.69726
 O1925 O 0.75599 0.27328 0.70135
 O1926 O 0.80833 0.24539 0.72398
 O1927 O 0.79050 0.21622 0.71704
 C1928 C 0.74732 0.26077 0.69118
 H1929 H 0.79462 0.26951 0.74716
 H1930 H 0.76251 0.20534 0.73834
 H1931 H 0.72654 0.26739 0.72191
 H1932 H 0.73800 0.25049 0.78983
 H1933 H 0.81101 0.20636 0.74770
 H1934 H 0.75708 0.18774 0.78297
 H1935 H 0.72684 0.20267 0.79280
 H1936 H 0.69171 0.25778 0.77567
 H1937 H 0.82012 0.23773 0.72595
 H1938 H 0.78455 0.29408 0.70832
 H1939 H 0.75262 0.30662 0.71468
 H1940 H 0.69786 0.28712 0.75109
 H1941 H 0.80362 0.21079 0.71702
 H1942 H 0.73836 0.20995 0.69525
 H1943 H 0.77220 0.28460 0.80486
 H1944 H 0.70739 0.28549 0.78188
 C1945 C 0.46289 1.01836 0.37722
 C1946 C 0.47178 1.01193 0.35815
 C1947 C 0.45320 1.00100 0.35372
 C1948 C 0.44421 1.00744 0.37252
 C1949 C 0.47082 1.00008 0.38642
 C1950 C 0.45224 0.98917 0.38193
 C1951 C 0.47988 0.99362 0.36766
 C1952 C 0.46112 0.98271 0.36290
 C1953 C 0.44263 1.00146 0.33590
 C1954 C 0.43337 1.00159 0.32159
 C1955 C 0.47945 0.99994 0.40523
 C1956 C 0.48509 1.00039 0.42126
 H1957 H 0.46371 1.03304 0.38328
 H1958 H 0.47970 1.02133 0.34819
 H1959 H 0.42945 1.01314 0.37439
 H1960 H 0.44428 0.97978 0.39187
 H1961 H 0.49464 0.98793 0.36585
 H1962 H 0.46027 0.96804 0.35683
 C1963 C -0.04433 0.51601 0.88130
 C1964 C -0.03424 0.51877 0.86200
 C1965 C -0.04623 0.50219 0.85399
 C1966 C -0.05642 0.49945 0.87304
 C1967 C -0.02880 0.50142 0.88679
 C1968 C -0.04080 0.48486 0.87875
 C1969 C -0.01854 0.50417 0.86776
 C1970 C -0.03071 0.48757 0.85942
 C1971 C -0.05670 0.50252 0.83610
 C1972 C -0.06588 0.50253 0.82174
 C1973 C -0.02025 0.50135 0.90564
 C1974 C -0.01466 0.50181 0.92169
 H1975 H -0.04986 0.52773 0.89047
 H1976 H -0.03166 0.53274 0.85496
 H1977 H -0.07210 0.49754 0.87509
 H1978 H -0.04340 0.47089 0.88579
 H1979 H -0.00287 0.50608 0.86578
 H1980 H -0.02522 0.47587 0.85022
 C1981 C 0.04625 -0.00761 0.88175
 C1982 C 0.03756 -0.01710 0.86405
 C1983 C 0.04409 0.00026 0.85237
 C1984 C 0.05289 0.00973 0.86986
 C1985 C 0.02706 0.00261 0.88551
 C1986 C 0.03359 0.01998 0.87385
 C1987 C 0.01820 -0.00688 0.86805
 C1988 C 0.02489 0.01050 0.85604
 C1989 C 0.05441 -0.00118 0.83434
 C1990 C 0.06356 -0.00233 0.81990
 C1991 C 0.01881 0.00336 0.90457
 C1992 C 0.01352 0.00325 0.92078
 H1993 H 0.05499 -0.01505 0.89251
 H1994 H 0.03931 -0.03237 0.85986
 H1995 H 0.06727 0.01652 0.87046
 H1996 H 0.03184 0.03524 0.87805
 H1997 H 0.00382 -0.01367 0.86749
 H1998 H 0.01621 0.01793 0.84523
 C1999 C 0.54725 0.50977 0.38099
 C2000 C 0.55217 0.49086 0.37059
 C2001 C 0.54417 0.49942 0.35235
 C2002 C 0.53937 0.51835 0.36252
 C2003 C 0.52721 0.50180 0.38552
 C2004 C 0.51914 0.51039 0.36732
 C2005 C 0.53202 0.48288 0.37534
 C2006 C 0.52412 0.49143 0.35681
 C2007 C 0.55448 0.49796 0.33432
 C2008 C 0.56363 0.49680 0.31989
 C2009 C 0.51899 0.50259 0.40459
 C2010 C 0.51373 0.50253 0.42080
 H2011 H 0.55669 0.51735 0.39111
 H2012 H 0.56583 0.48280 0.37180
 H2013 H 0.54252 0.53293 0.35706
 H2014 H 0.50547 0.51844 0.36619
 H2015 H 0.52890 0.46829 0.38078
 H2016 H 0.51473 0.48385 0.34667
 C2017 C 0.55005 0.50105 0.11586
 C2018 C 0.54397 0.51404 0.13256
 C2019 C 0.54652 0.49693 0.14590
 C2020 C 0.55272 0.48396 0.12941
 C2021 C 0.52899 0.49517 0.11320
 C2022 C 0.53154 0.47804 0.12652
 C2023 C 0.52276 0.50817 0.12967
 C2024 C 0.52546 0.49103 0.14333
 C2025 C 0.55707 0.49791 0.16370
 C2026 C 0.56633 0.49848 0.17798
 C2027 C 0.52046 0.49469 0.09437
 C2028 C 0.51494 0.49504 0.07830
 H2029 H 0.56012 0.50516 0.10438
 H2030 H 0.54919 0.52885 0.13518
 H2031 H 0.56518 0.47403 0.12944
 H2032 H 0.52632 0.46323 0.12387
 H2033 H 0.51031 0.51809 0.12960
 H2034 H 0.51545 0.48694 0.15486
 C2035 C 0.02098 1.00691 0.63047
 C2036 C 0.02579 0.98944 0.64312
 C2037 C 0.04606 0.99758 0.64596
 C2038 C 0.04140 1.01503 0.63363
 C2039 C 0.02850 0.99570 0.61327
 C2040 C 0.04877 1.00382 0.61620
 C2041 C 0.03316 0.97823 0.62558
 C2042 C 0.05354 0.98639 0.62873
 C2043 C 0.05663 0.99861 0.66374
 C2044 C 0.06592 0.99922 0.67800
 C2045 C 0.01997 0.99514 0.59444
 C2046 C 0.01448 0.99541 0.57836
 H2047 H 0.00746 1.01531 0.63101
 H2048 H 0.01644 0.98355 0.65442
 H2049 H 0.04490 1.03017 0.63709
 H2050 H 0.05817 1.00973 0.60495
 H2051 H 0.02966 0.96310 0.62210
 H2052 H 0.06706 0.97799 0.62815
 C2053 C -0.03541 0.51723 0.62450
 C2054 C -0.05394 0.50597 0.62925
 C2055 C -0.04439 0.49830 0.64716
 C2056 C -0.02596 0.50956 0.64271
 C2057 C -0.02778 0.49962 0.61375
 C2058 C -0.01817 0.49193 0.63162
 C2059 C -0.04620 0.48838 0.61827
 C2060 C -0.03676 0.48069 0.63640
 C2061 C -0.05447 0.49748 0.66536
 C2062 C -0.06343 0.49686 0.67996
 C2063 C -0.01972 0.49994 0.59459
 C2064 C -0.01453 0.49965 0.57834
 H2065 H -0.03476 0.53228 0.61944
 H2066 H -0.06875 0.51171 0.62842
 H2067 H -0.01773 0.51827 0.65298
 H2068 H -0.00336 0.48619 0.63240
 H2069 H -0.05448 0.47966 0.60805
 H2070 H -0.03742 0.46564 0.64144
 C2071 C 0.45469 0.01178 0.11953
 C2072 C 0.44467 -0.00608 0.12791
 C2073 C 0.45474 -0.00230 0.14674
 C2074 C 0.46466 0.01558 0.13861
 C2075 C 0.47169 -0.00091 0.11350
 C2076 C 0.48184 0.00288 0.13228
 C2077 C 0.46176 -0.01877 0.12166
 C2078 C 0.47174 -0.01502 0.14074
 C2079 C 0.44448 -0.00316 0.16484
 C2080 C 0.43538 -0.00381 0.17935
 C2081 C 0.47993 -0.00053 0.09441
 C2082 C 0.48525 -0.00076 0.07821
 H2083 H 0.44775 0.02284 0.11065
 H2084 H 0.42929 -0.00979 0.12625
 H2085 H 0.46573 0.02972 0.14578
 H2086 H 0.49721 0.00659 0.13388
 H2087 H 0.46065 -0.03292 0.11451
 H2088 H 0.47864 -0.02607 0.14965
 C2089 C 0.37329 0.45759 0.00270
 C2090 C 0.36900 0.43940 -0.00913
 C2091 C 0.35804 0.43092 0.00774
 C2092 C 0.36206 0.44897 0.01958
 C2093 C 0.39168 0.44801 0.00993
 C2094 C 0.38075 0.43954 0.02683
 C2095 C 0.38763 0.42996 -0.00190
 C2096 C 0.37642 0.42133 0.01497
 C2097 C 0.33935 0.42125 0.00619
 C2098 C 0.32414 0.41309 0.00475
 C2099 C 0.41046 0.45763 0.01039
 C2100 C 0.42580 0.46567 0.00980
 H2101 H 0.37216 0.47261 -0.00233
 H2102 H 0.36402 0.43929 -0.02395
 H2103 H 0.35136 0.45672 0.02840
 H2104 H 0.38576 0.43966 0.04163
 H2105 H 0.39831 0.42219 -0.01073
 H2106 H 0.37755 0.40630 0.01999
 C2107 C -0.12697 0.95754 0.50244
 C2108 C -0.13114 0.93918 0.49082
 C2109 C -0.14217 0.93089 0.50775
 C2110 C -0.13826 0.94912 0.51937
 C2111 C -0.10859 0.94812 0.50989
 C2112 C -0.11958 0.93984 0.52684
 C2113 C -0.11252 0.92989 0.49828
 C2114 C -0.12380 0.92146 0.51520
 C2115 C -0.16081 0.92114 0.50623
 C2116 C -0.17599 0.91290 0.50482
 C2117 C -0.08983 0.95779 0.51033
 C2118 C -0.07449 0.96584 0.50974
 H2119 H -0.12811 0.97248 0.49720
 H2120 H -0.13604 0.93884 0.47599
 H2121 H -0.14903 0.95696 0.52803
 H2122 H -0.11466 0.94019 0.54167
 H2123 H -0.10177 0.92204 0.48961
 H2124 H -0.12265 0.90651 0.52043
 C2125 C -0.12489 0.04958 0.97505
 C2126 C -0.14009 0.04639 0.99077
 C2127 C -0.14305 0.06822 0.99212
 C2128 C -0.12814 0.07157 0.97641
 C2129 C -0.10931 0.05121 0.99018
 C2130 C -0.11227 0.07303 0.99153
 C2131 C -0.12424 0.04788 1.00587
 C2132 C -0.12745 0.06982 1.00723
 C2133 C -0.16181 0.07780 0.99356
 C2134 C -0.17713 0.08584 0.99496
 C2135 C -0.09050 0.04164 0.98981
 C2136 C -0.07512 0.03367 0.99041
 H2137 H -0.12366 0.04118 0.96178
 H2138 H -0.15170 0.03551 0.99048
 H2139 H -0.12992 0.08142 0.96429
 H2140 H -0.10067 0.08392 0.99182
 H2141 H -0.12248 0.03804 1.01800
 H2142 H -0.12866 0.07822 1.02050
 C2143 C 0.38111 0.55738 0.50837
 C2144 C 0.37619 0.57676 0.49895
 C2145 C 0.35735 0.56800 0.49182
 C2146 C 0.36203 0.54875 0.50125
 C2147 C 0.39101 0.55083 0.49003
 C2148 C 0.37218 0.54205 0.48289
 C2149 C 0.38635 0.57008 0.48059
 C2150 C 0.36721 0.56146 0.47345
 C2151 C 0.33862 0.57767 0.49317
 C2152 C 0.32334 0.58577 0.49450
 C2153 C 0.40979 0.54119 0.48973
 C2154 C 0.42514 0.53318 0.49038
 H2155 H 0.38700 0.55564 0.52275
 H2156 H 0.37768 0.59112 0.50559
 H2157 H 0.35188 0.54006 0.50978
 H2158 H 0.37070 0.52769 0.47626
 H2159 H 0.39652 0.57876 0.47207
 H2160 H 0.36130 0.56322 0.45909
 C2161 C 0.10931 0.57236 0.50736
 C2162 C 0.12553 0.57106 0.52212
 C2163 C 0.14017 0.56823 0.50606
 C2164 C 0.12421 0.56967 0.49130
 C2165 C 0.10685 0.55045 0.50837
 C2166 C 0.12152 0.54765 0.49232
 C2167 C 0.12279 0.54899 0.52315
 C2168 C 0.13772 0.54633 0.50706
 C2169 C 0.15869 0.57825 0.50444
 C2170 C 0.17379 0.58666 0.50297
 C2171 C 0.08825 0.54048 0.50893
 C2172 C 0.07302 0.53221 0.50843
 H2173 H 0.09746 0.58299 0.50752
 H2174 H 0.12735 0.58080 0.53438
 H2175 H 0.12495 0.57825 0.47817
 H2176 H 0.11972 0.53792 0.48005
 H2177 H 0.12203 0.54040 0.53627
 H2178 H 0.14957 0.53570 0.50690
 C2179 C 0.62667 0.03978 0.00833
 C2180 C 0.63308 0.05311 -0.00796
 C2181 C 0.64049 0.06766 0.00658
 C2182 C 0.63435 0.05449 0.02288
 C2183 C 0.60712 0.04998 0.00885
 C2184 C 0.61450 0.06454 0.02340
 C2185 C 0.61330 0.06316 -0.00743
 C2186 C 0.62094 0.07786 0.00709
 C2187 C 0.65904 0.07764 0.00498
 C2188 C 0.67415 0.08602 0.00352
 C2189 C 0.58849 0.04007 0.00936
 C2190 C 0.57323 0.03185 0.00880
 H2191 H 0.62888 0.02401 0.00887
 H2192 H 0.64086 0.04848 -0.02088
 H2193 H 0.64321 0.05099 0.03533
 H2194 H 0.60670 0.06916 0.03632
 H2195 H 0.60447 0.06668 -0.01990
 H2196 H 0.61874 0.09363 0.00655
 C2197 C 0.62606 0.95708 0.48123
 C2198 C 0.63619 0.95179 0.49986
 C2199 C 0.64055 0.93174 0.49183
 C2200 C 0.63070 0.93686 0.47319
 C2201 C 0.60713 0.94923 0.48931
 C2202 C 0.61147 0.92917 0.48127
 C2203 C 0.61702 0.94408 0.50792
 C2204 C 0.62162 0.92390 0.49990
 C2205 C 0.65917 0.92196 0.49360
 C2206 C 0.67439 0.91384 0.49526
 C2207 C 0.58850 0.95915 0.48874
 C2208 C 0.57331 0.96750 0.48933
 H2209 H 0.62772 0.97081 0.47351
 H2210 H 0.64650 0.96102 0.50755
 H2211 H 0.63651 0.93381 0.45890
 H2212 H 0.60114 0.91995 0.47360
 H2213 H 0.61124 0.94712 0.52222
 H2214 H 0.61994 0.91017 0.50763
 C2215 C 0.12238 0.44963 0.97363
 C2216 C 0.13818 0.45432 0.98819
 C2217 C 0.14070 0.43274 0.99189
 C2218 C 0.12519 0.42788 0.97734
 C2219 C 0.10731 0.45031 0.98951
 C2220 C 0.10983 0.42873 0.99321
 C2221 C 0.12284 0.45514 1.00404
 C2222 C 0.12561 0.43344 1.00775
 C2223 C 0.15930 0.42291 0.99360
 C2224 C 0.17449 0.41473 0.99521
 C2225 C 0.08869 0.46026 0.98901
 C2226 C 0.07350 0.46861 0.98965
 H2227 H 0.12088 0.45636 0.95957
 H2228 H 0.15001 0.46478 0.98617
 H2229 H 0.12633 0.41655 0.96636
 H2230 H 0.09800 0.41827 0.99524
 H2231 H 0.12173 0.46646 1.01504
 H2232 H 0.12708 0.42672 1.02182
 C2233 C -0.00555 0.36658 0.45382
 C2234 C -0.02063 0.36078 0.43892
 C2235 C -0.00433 0.35364 0.42607
 C2236 C 0.01073 0.35912 0.44079
 C2237 C -0.00385 0.38631 0.44442
 C2238 C 0.01243 0.37915 0.43156
 C2239 C -0.01892 0.38083 0.42970
 C2240 C -0.00263 0.37338 0.41668
 C2241 C -0.00425 0.33558 0.41577
 C2242 C -0.00383 0.32075 0.40717
 C2243 C -0.00334 0.40452 0.45443
 C2244 C -0.00276 0.41964 0.46250
 H2245 H -0.00674 0.36407 0.46921
 H2246 H -0.03420 0.35296 0.44177
 H2247 H 0.02290 0.34994 0.44519
 H2248 H 0.02601 0.38695 0.42870
 H2249 H -0.03108 0.39002 0.42530
 H2250 H -0.00143 0.37590 0.40129
 C2251 C 0.48835 -0.11555 -0.07660
 C2252 C 0.50630 -0.12751 -0.08190
 C2253 C 0.49578 -0.14567 -0.07535
 C2254 C 0.47782 -0.13401 -0.07022
 C2255 C 0.49624 -0.11324 -0.05660
 C2256 C 0.48571 -0.13138 -0.05003
 C2257 C 0.51419 -0.12491 -0.06174
 C2258 C 0.50367 -0.14336 -0.05535
 C2259 C 0.49587 -0.16362 -0.08584
 C2260 C 0.49630 -0.17839 -0.09452
 C2261 C 0.49672 -0.09515 -0.04636
 C2262 C 0.49729 -0.08013 -0.03811
 H2263 H 0.48207 -0.10386 -0.08517
 H2264 H 0.51474 -0.12618 -0.09514
 H2265 H 0.46289 -0.13802 -0.07387
 H2266 H 0.47727 -0.13269 -0.03678
 H2267 H 0.52912 -0.12092 -0.05810
 H2268 H 0.50995 -0.15505 -0.04678
 C2269 C -0.00051 -0.13187 1.04302
 C2270 C 0.01758 -0.14008 1.05269
 C2271 C 0.00535 -0.14458 1.07017
 C2272 C -0.01270 -0.13670 1.06069
 C2273 C 0.00395 -0.11217 1.05166
 C2274 C -0.00826 -0.11671 1.06914
 C2275 C 0.02201 -0.12004 1.06114
 C2276 C 0.00980 -0.12486 1.07878
 C2277 C 0.00575 -0.16228 1.08093
 C2278 C 0.00565 -0.17656 1.09028
 C2279 C 0.00296 -0.09394 1.04183
 C2280 C 0.00203 -0.07870 1.03412
 H2281 H -0.00476 -0.13445 1.02819
 H2282 H 0.02819 -0.14995 1.04611
 H2283 H -0.02694 -0.14381 1.06066
 H2284 H -0.01888 -0.10687 1.07575
 H2285 H 0.03624 -0.11291 1.06117
 H2286 H 0.01404 -0.12225 1.09361
 C2287 C 0.50441 0.38581 0.57338
 C2288 C 0.48999 0.36908 0.57143
 C2289 C 0.50691 0.35503 0.57017
 C2290 C 0.52134 0.37150 0.57228
 C2291 C 0.50499 0.38752 0.55184
 C2292 C 0.52193 0.37350 0.55056
 C2293 C 0.49056 0.37106 0.54974
 C2294 C 0.50750 0.35670 0.54863
 C2295 C 0.50756 0.33727 0.58082
 C2296 C 0.50761 0.32292 0.59006
 C2297 C 0.50375 0.40577 0.54208
 C2298 C 0.50265 0.42100 0.53439
 H2299 H 0.50310 0.39802 0.58339
 H2300 H 0.47690 0.36700 0.58016
 H2301 H 0.53399 0.37141 0.58168
 H2302 H 0.53501 0.37561 0.54183
 H2303 H 0.47791 0.37115 0.54034
 H2304 H 0.50880 0.34447 0.53865
 C2305 C 0.51647 1.13104 0.55195
 C2306 C 0.50029 1.14627 0.55167
 C2307 C 0.50124 1.14747 0.57323
 C2308 C 0.51742 1.13255 0.57369
 C2309 C 0.50121 1.11532 0.55401
 C2310 C 0.50216 1.11653 0.57557
 C2311 C 0.48503 1.13023 0.55355
 C2312 C 0.48599 1.13173 0.57528
 C2313 C 0.50122 1.16517 0.58413
 C2314 C 0.50113 1.17966 0.59328
 C2315 C 0.50117 1.09727 0.54366
 C2316 C 0.50115 1.08219 0.53550
 H2317 H 0.52897 1.13049 0.54221
 H2318 H 0.49952 1.15876 0.54204
 H2319 H 0.53071 1.13376 0.58212
 H2320 H 0.50293 1.10406 0.58522
 H2321 H 0.47174 1.12900 0.54512
 H2322 H 0.47349 1.13227 0.58502
 C2323 C -0.01417 0.63156 1.05361
 C2324 C -0.01481 0.63297 1.07537
 C2325 C 0.00118 0.64808 1.07453
 C2326 C 0.00182 0.64698 1.05294
 C2327 C 0.00130 0.61600 1.05518
 C2328 C 0.01730 0.63110 1.05433
 C2329 C 0.00066 0.61712 1.07676
 C2330 C 0.01665 0.63251 1.07609
 C2331 C 0.00101 0.66576 1.08546
 C2332 C 0.00074 0.68025 1.09460
 C2333 C 0.00132 0.59801 1.04474
 C2334 C 0.00131 0.58298 1.03648
 H2335 H -0.02681 0.63090 1.04422
 H2336 H -0.02798 0.63399 1.08417
 H2337 H 0.00230 0.65951 1.04333
 H2338 H 0.03047 0.63006 1.04552
 H2339 H 0.00018 0.60461 1.08639
 H2340 H 0.02929 0.63316 1.08548
 C2341 C 0.52297 0.62308 -0.05569
 C2342 C 0.51370 0.62721 -0.07500
 C2343 C 0.50603 0.64627 -0.06710
 C2344 C 0.51532 0.64247 -0.04794
 C2345 C 0.50426 0.61345 -0.04931
 C2346 C 0.49657 0.63248 -0.04137
 C2347 C 0.49499 0.61730 -0.06846
 C2348 C 0.48732 0.63662 -0.06071
 C2349 C 0.50669 0.66410 -0.07762
 C2350 C 0.50684 0.67839 -0.08696
 C2351 C 0.50313 0.59496 -0.03997
 C2352 C 0.50217 0.57950 -0.03270
 H2353 H 0.53759 0.61723 -0.05348
 H2354 H 0.52075 0.62531 -0.08894
 H2355 H 0.52367 0.65309 -0.03969
 H2356 H 0.48952 0.63435 -0.02743
 H2357 H 0.48663 0.60671 -0.07674
 H2358 H 0.47270 0.64245 -0.06291
 C2359 C -0.00046 1.11568 0.42915
 C2360 C -0.01178 1.13394 0.43473
 C2361 C 0.00662 1.14575 0.43216
 C2362 C 0.01795 1.12775 0.42643
 C2363 C 0.00480 1.11290 0.44991
 C2364 C 0.02322 1.12469 0.44736
 C2365 C -0.00654 1.13089 0.45565
 C2366 C 0.01189 1.14302 0.45292
 C2367 C 0.00725 1.16363 0.42172
 C2368 C 0.00735 1.17800 0.41249
 C2369 C 0.00362 1.09444 0.45928
 C2370 C 0.00258 1.07902 0.46663
 H2371 H -0.00555 1.10420 0.41953
 H2372 H -0.02613 1.13800 0.42939
 H2373 H 0.02802 1.12674 0.41430
 H2374 H 0.03756 1.12059 0.45270
 H2375 H -0.01661 1.13188 0.46779
 H2376 H 0.01698 1.15453 0.46251
 C2377 C 0.75835 0.73167 0.88252
 C2378 C 0.74054 0.72418 0.89349
 C2379 C 0.75116 0.70521 0.89711
 C2380 C 0.76894 0.71254 0.88647
 C2381 C 0.75022 0.72288 0.86438
 C2382 C 0.76081 0.70392 0.86807
 C2383 C 0.73243 0.71555 0.87502
 C2384 C 0.74305 0.69648 0.87893
 C2385 C 0.75162 0.69457 0.91492
 C2386 C 0.75174 0.68521 0.92920
 C2387 C 0.75009 0.73146 0.84551
 C2388 C 0.75056 0.73698 0.82942
 H2389 H 0.76460 0.74626 0.88381
 H2390 H 0.73220 0.73240 0.90416
 H2391 H 0.78397 0.71118 0.89132
 H2392 H 0.76916 0.69564 0.85744
 H2393 H 0.71741 0.71689 0.87015
 H2394 H 0.73679 0.68190 0.87759
 C2395 C 0.25609 0.20155 0.36639
 C2396 C 0.26824 0.20790 0.38344
 C2397 C 0.25075 0.20470 0.39632
 C2398 C 0.23862 0.19824 0.37947
 C2399 C 0.24967 0.22247 0.36364
 C2400 C 0.23216 0.21927 0.37651
 C2401 C 0.26183 0.22897 0.38047
 C2402 C 0.24431 0.22562 0.39367
 C2403 C 0.25130 0.19401 0.41410
 C2404 C 0.25150 0.18462 0.42836
 C2405 C 0.24946 0.23109 0.34480
 C2406 C 0.24989 0.23663 0.32872
 H2407 H 0.26093 0.19169 0.35499
 H2408 H 0.28308 0.20310 0.38644
 H2409 H 0.22910 0.18547 0.37920
 H2410 H 0.21732 0.22406 0.37349
 H2411 H 0.27134 0.24173 0.38070
 H2412 H 0.23948 0.23542 0.40511
 C2413 C 0.74157 0.26954 0.38127
 C2414 C 0.75874 0.27392 0.39439
 C2415 C 0.75078 0.29426 0.39760
 C2416 C 0.73362 0.29002 0.38480
 C2417 C 0.75327 0.27722 0.36450
 C2418 C 0.74533 0.29756 0.36779
 C2419 C 0.77045 0.28146 0.37728
 C2420 C 0.76247 0.30191 0.38081
 C2421 C 0.74924 0.30457 0.41561
 C2422 C 0.74801 0.31372 0.43004
 C2423 C 0.75411 0.26895 0.34547
 C2424 C 0.75407 0.26359 0.32929
 H2425 H 0.73301 0.25611 0.38127
 H2426 H 0.76424 0.26430 0.40556
 H2427 H 0.71846 0.29366 0.38803
 H2428 H 0.73982 0.30723 0.35668
 H2429 H 0.78561 0.27783 0.37401
 H2430 H 0.77102 0.31534 0.38076
 C2431 C 0.24138 0.77026 0.88061
 C2432 C 0.25856 0.77462 0.89374
 C2433 C 0.25060 0.79496 0.89697
 C2434 C 0.23344 0.79074 0.88417
 C2435 C 0.25308 0.77796 0.86385
 C2436 C 0.24514 0.79829 0.86717
 C2437 C 0.27027 0.78218 0.87663
 C2438 C 0.26228 0.80263 0.88018
 C2439 C 0.24907 0.80525 0.91500
 C2440 C 0.24784 0.81439 0.92942
 C2441 C 0.25391 0.76971 0.84481
 C2442 C 0.25387 0.76437 0.82863
 H2443 H 0.23282 0.75683 0.88061
 H2444 H 0.26406 0.76499 0.90489
 H2445 H 0.21827 0.79437 0.88742
 H2446 H 0.23962 0.80798 0.85607
 H2447 H 0.28542 0.77855 0.87335
 H2448 H 0.27084 0.81606 0.88015
 C2449 C 0.22769 0.79101 0.12684
 C2450 C 0.24111 0.80801 0.12202
 C2451 C 0.24646 0.79811 0.10334
 C2452 C 0.23303 0.78121 0.10787
 C2453 C 0.24460 0.78070 0.13619
 C2454 C 0.24996 0.77074 0.11754
 C2455 C 0.25800 0.79760 0.13158
 C2456 C 0.26337 0.78781 0.11268
 C2457 C 0.24748 0.80858 0.08544
 C2458 C 0.24806 0.81780 0.07107
 C2459 C 0.24410 0.77217 0.15507
 C2460 C 0.24447 0.76659 0.17114
 H2461 H 0.21299 0.79222 0.13283
 H2462 H 0.23751 0.82344 0.12372
 H2463 H 0.22277 0.77458 0.09791
 H2464 H 0.25356 0.75531 0.11588
 H2465 H 0.26827 0.80429 0.14151
 H2466 H 0.27807 0.78662 0.10670
 C2467 C 0.76044 0.27521 0.62108
 C2468 C 0.74411 0.27550 0.60634
 C2469 C 0.74725 0.29719 0.60384
 C2470 C 0.76356 0.29703 0.61827
 C2471 C 0.74564 0.27965 0.63664
 C2472 C 0.74878 0.30134 0.63404
 C2473 C 0.72931 0.27980 0.62224
 C2474 C 0.73247 0.30162 0.61941
 C2475 C 0.74814 0.30772 0.58597
 C2476 C 0.74862 0.31697 0.57162
 C2477 C 0.74525 0.27107 0.65550
 C2478 C 0.74568 0.26545 0.67156
 H2479 H 0.77193 0.26422 0.62194
 H2480 H 0.74223 0.26498 0.59474
 H2481 H 0.77765 0.30422 0.61649
 H2482 H 0.75067 0.31192 0.64561
 H2483 H 0.71522 0.27261 0.62404
 H2484 H 0.72099 0.31261 0.61858
 C2485 C 0.25552 0.20244 0.63164
 C2486 C 0.23700 0.19822 0.62055
 C2487 C 0.24677 0.20580 0.60261
 C2488 C 0.26532 0.20991 0.61347
 C2489 C 0.24814 0.22283 0.63574
 C2490 C 0.25795 0.23047 0.61783
 C2491 C 0.22960 0.21872 0.62487
 C2492 C 0.23937 0.22619 0.60663
 C2493 C 0.24595 0.19547 0.58458
 C2494 C 0.24536 0.18632 0.57013
 C2495 C 0.24854 0.23108 0.65478
 C2496 C 0.24833 0.23635 0.67098
 H2497 H 0.26220 0.19274 0.64209
 H2498 H 0.22837 0.18487 0.62153
 H2499 H 0.28001 0.20615 0.60860
 H2500 H 0.26657 0.24382 0.61691
 H2501 H 0.21491 0.22245 0.62974
 H2502 H 0.23270 0.23585 0.59615
 C2503 C 0.73602 0.72950 0.11925
 C2504 C 0.75355 0.72582 0.10613
 C2505 C 0.74640 0.70522 0.10282
 C2506 C 0.72889 0.70875 0.11561
 C2507 C 0.74774 0.72215 0.13600
 C2508 C 0.74060 0.70156 0.13260
 C2509 C 0.76526 0.71862 0.12323
 C2510 C 0.75810 0.69791 0.11959
 C2511 C 0.74562 0.69495 0.08475
 C2512 C 0.74508 0.68584 0.07028
 C2513 C 0.74812 0.73035 0.15507
 C2514 C 0.74792 0.73560 0.17127
 H2515 H 0.72697 0.74260 0.11930
 H2516 H 0.75886 0.73569 0.09502
 H2517 H 0.71392 0.70458 0.11232
 H2518 H 0.73528 0.69163 0.14365
 H2519 H 0.78023 0.72279 0.12653
 H2520 H 0.76715 0.68481 0.11959
 C2521 C 0.17972 0.63703 0.22740
 C2522 C 0.18945 0.61733 0.22369
 C2523 C 0.17972 0.60937 0.24152
 C2524 C 0.16985 0.62876 0.24524
 C2525 C 0.19695 0.64300 0.23946
 C2526 C 0.18721 0.63501 0.25728
 C2527 C 0.20682 0.62361 0.23574
 C2528 C 0.19694 0.61537 0.25357
 C2529 C 0.17001 0.59066 0.24299
 C2530 C 0.16184 0.57541 0.24436
 C2531 C 0.20667 0.66175 0.23903
 C2532 C 0.21484 0.67705 0.23962
 H2533 H 0.17272 0.64609 0.21662
 H2534 H 0.19030 0.60987 0.20987
 H2535 H 0.15455 0.63073 0.24919
 H2536 H 0.18634 0.64244 0.27111
 H2537 H 0.22212 0.62165 0.23180
 H2538 H 0.20395 0.60632 0.26436
 C2539 C 0.69958 0.12808 0.75677
 C2540 C 0.67765 0.12492 0.75573
 C2541 C 0.68106 0.10814 0.74199
 C2542 C 0.70287 0.11106 0.74305
 C2543 C 0.69836 0.14174 0.73985
 C2544 C 0.70180 0.12498 0.72610
 C2545 C 0.67655 0.13883 0.73880
 C2546 C 0.67982 0.12178 0.72505
 C2547 C 0.67130 0.08947 0.74351
 C2548 C 0.66307 0.07425 0.74491
 C2549 C 0.70811 0.16047 0.73939
 C2550 C 0.71628 0.17577 0.73997
 H2551 H 0.70780 0.13082 0.76984
 H2552 H 0.66765 0.12474 0.76796
 H2553 H 0.71363 0.09947 0.74483
 H2554 H 0.71180 0.12518 0.71388
 H2555 H 0.66579 0.15041 0.73702
 H2556 H 0.67159 0.11901 0.71200
 C2557 C 0.82215 0.13579 0.26926
 C2558 C 0.81380 0.11670 0.27694
 C2559 C 0.81962 0.10668 0.25843
 C2560 C 0.82811 0.12548 0.25075
 C2561 C 0.80258 0.14041 0.26055
 C2562 C 0.80842 0.13036 0.24207
 C2563 C 0.79407 0.12162 0.26823
 C2564 C 0.80006 0.11132 0.24973
 C2565 C 0.82920 0.08792 0.25687
 C2566 C 0.83721 0.07260 0.25536
 C2567 C 0.79298 0.15921 0.26096
 C2568 C 0.78497 0.17457 0.26034
 H2569 H 0.83115 0.14603 0.27731
 H2570 H 0.81610 0.11088 0.29128
 H2571 H 0.84220 0.12691 0.24352
 H2572 H 0.80613 0.13614 0.22771
 H2573 H 0.77999 0.12020 0.27546
 H2574 H 0.79105 0.10110 0.24167
 C2575 C 0.31414 0.63397 0.74319
 C2576 C 0.32955 0.62667 0.75703
 C2577 C 0.31903 0.60731 0.75813
 C2578 C 0.30375 0.61437 0.74428
 C2579 C 0.30209 0.64110 0.76003
 C2580 C 0.29157 0.62174 0.76113
 C2581 C 0.31737 0.63407 0.77390
 C2582 C 0.30699 0.61441 0.77499
 C2583 C 0.32854 0.58850 0.75669
 C2584 C 0.33651 0.57315 0.75530
 C2585 C 0.29256 0.65994 0.76035
 C2586 C 0.28460 0.67533 0.75968
 H2587 H 0.31702 0.64219 0.73011
 H2588 H 0.34526 0.62853 0.75531
 H2589 H 0.29823 0.60611 0.73207
 H2590 H 0.27585 0.61988 0.76284
 H2591 H 0.32288 0.64235 0.78610
 H2592 H 0.30413 0.60616 0.78806
 C2593 C 0.31986 0.36030 0.75038
 C2594 C 0.32669 0.37252 0.73342
 C2595 C 0.31839 0.39050 0.74308
 C2596 C 0.31171 0.37854 0.76004
 C2597 C 0.30049 0.35726 0.74059
 C2598 C 0.29222 0.37526 0.75025
 C2599 C 0.30716 0.36920 0.72360
 C2600 C 0.29903 0.38749 0.73329
 C2601 C 0.32845 0.40899 0.74481
 C2602 C 0.33687 0.42407 0.74640
 C2603 C 0.29044 0.33870 0.73999
 C2604 C 0.28209 0.32350 0.74049
 H2605 H 0.32836 0.34895 0.75740
 H2606 H 0.34098 0.37155 0.72652
 H2607 H 0.31365 0.38252 0.77506
 H2608 H 0.27793 0.37624 0.75716
 H2609 H 0.30521 0.36518 0.70860
 H2610 H 0.29053 0.39885 0.72628
 C2611 C 0.81970 0.85949 0.25050
 C2612 C 0.82674 0.87149 0.23347
 C2613 C 0.81845 0.88962 0.24288
 C2614 C 0.81156 0.87787 0.25991
 C2615 C 0.80041 0.85644 0.24058
 C2616 C 0.79214 0.87459 0.24998
 C2617 C 0.80729 0.86816 0.22352
 C2618 C 0.79917 0.88660 0.23294
 C2619 C 0.82861 0.90806 0.24450
 C2620 C 0.83713 0.92309 0.24599
 C2621 C 0.79030 0.83792 0.24006
 C2622 C 0.78191 0.82275 0.24063
 H2623 H 0.82808 0.84818 0.25771
 H2624 H 0.84109 0.87038 0.22671
 H2625 H 0.81338 0.88201 0.27490
 H2626 H 0.77779 0.87571 0.25676
 H2627 H 0.80545 0.86399 0.20854
 H2628 H 0.79079 0.89793 0.22575
 C2629 C 0.70882 0.87646 0.74970
 C2630 C 0.68898 0.87971 0.74061
 C2631 C 0.68314 0.89227 0.75754
 C2632 C 0.70285 0.88928 0.76663
 C2633 C 0.70073 0.85886 0.76007
 C2634 C 0.69490 0.87139 0.77703
 C2635 C 0.68101 0.86187 0.75098
 C2636 C 0.67503 0.87468 0.76791
 C2637 C 0.67328 0.91087 0.75575
 C2638 C 0.66506 0.92606 0.75406
 C2639 C 0.71065 0.84020 0.76070
 C2640 C 0.71892 0.82495 0.76022
 H2641 H 0.72283 0.87705 0.74221
 H2642 H 0.68648 0.88328 0.72560
 H2643 H 0.71178 0.90072 0.77303
 H2644 H 0.69742 0.86780 0.79203
 H2645 H 0.67208 0.85044 0.74457
 H2646 H 0.66101 0.87410 0.77539
 C2647 C 0.17918 0.36220 0.26586
 C2648 C 0.18575 0.38109 0.27546
 C2649 C 0.18226 0.39188 0.25693
 C2650 C 0.17554 0.37327 0.24733
 C2651 C 0.19995 0.35852 0.25944
 C2652 C 0.19643 0.36933 0.24093
 C2653 C 0.20669 0.37711 0.26905
 C2654 C 0.20302 0.38818 0.25051
 C2655 C 0.17233 0.41045 0.25519
 C2656 C 0.16406 0.42562 0.25358
 C2657 C 0.20992 0.33989 0.26006
 C2658 C 0.21822 0.32465 0.25957
 H2659 H 0.16945 0.35136 0.27220
 H2660 H 0.18126 0.38611 0.28968
 H2661 H 0.16265 0.37184 0.23835
 H2662 H 0.20091 0.36434 0.22670
 H2663 H 0.21958 0.37853 0.27802
 H2664 H 0.21276 0.39901 0.24416
 C2665 C 0.12792 0.23020 0.81614
 C2666 C 0.12409 0.24199 0.83431
 C2667 C 0.10459 0.24796 0.82637
 C2668 C 0.10810 0.23617 0.80838
 C2669 C 0.13671 0.24814 0.80705
 C2670 C 0.11721 0.25411 0.79911
 C2671 C 0.13318 0.25992 0.82504
 C2672 C 0.11339 0.26589 0.81728
 C2673 C 0.08677 0.24808 0.83711
 C2674 C 0.07206 0.24842 0.84592
 C2675 C 0.15463 0.24841 0.79649
 C2676 C 0.16954 0.24876 0.78800
 H2677 H 0.13416 0.21555 0.81550
 H2678 H 0.12665 0.23701 0.84891
 H2679 H 0.09754 0.22641 0.80171
 H2680 H 0.11465 0.25909 0.78450
 H2681 H 0.14374 0.26968 0.83172
 H2682 H 0.10716 0.28054 0.81791
 C2683 C 0.62762 0.72925 0.31626
 C2684 C 0.62360 0.74100 0.33442
 C2685 C 0.60417 0.74696 0.32631
 C2686 C 0.60787 0.73521 0.30833
 C2687 C 0.63647 0.74723 0.30729
 C2688 C 0.61704 0.75318 0.29918
 C2689 C 0.63276 0.75896 0.32527
 C2690 C 0.61303 0.76492 0.31733
 C2691 C 0.58624 0.74705 0.33687
 C2692 C 0.57143 0.74737 0.34552
 C2693 C 0.65447 0.74755 0.29686
 C2694 C 0.66941 0.74795 0.28843
 H2695 H 0.63389 0.71461 0.31565
 H2696 H 0.62603 0.73599 0.34904
 H2697 H 0.59739 0.72545 0.30154
 H2698 H 0.61462 0.75819 0.28456
 H2699 H 0.64323 0.76872 0.33206
 H2700 H 0.60678 0.77956 0.31794
 C2701 C 0.62525 0.27093 0.20008
 C2702 C 0.62298 0.26960 0.17843
 C2703 C 0.60628 0.25556 0.18133
 C2704 C 0.60822 0.25689 0.20281
 C2705 C 0.63891 0.25368 0.19924
 C2706 C 0.62222 0.23963 0.20215
 C2707 C 0.63693 0.25235 0.17777
 C2708 C 0.61997 0.23833 0.18052
 C2709 C 0.58845 0.25621 0.17090
 C2710 C 0.57406 0.25627 0.16180
 C2711 C 0.65722 0.25247 0.20878
 C2712 C 0.67250 0.25142 0.21631
 H2713 H 0.62771 0.28429 0.20827
 H2714 H 0.62301 0.28192 0.16855
 H2715 H 0.59615 0.25879 0.21291
 H2716 H 0.62220 0.22732 0.21202
 H2717 H 0.64898 0.25045 0.16764
 H2718 H 0.61754 0.22495 0.17233
 C2719 C 0.12483 0.77150 0.69962
 C2720 C 0.12258 0.77054 0.67794
 C2721 C 0.10611 0.75619 0.68059
 C2722 C 0.10802 0.75715 0.70209
 C2723 C 0.13876 0.75448 0.69847
 C2724 C 0.12229 0.74013 0.70112
 C2725 C 0.13680 0.75352 0.67698
 C2726 C 0.12006 0.73919 0.67947
 C2727 C 0.08825 0.75673 0.67021
 C2728 C 0.07380 0.75669 0.66118
 C2729 C 0.15708 0.75335 0.70801
 C2730 C 0.17235 0.75233 0.71556
 H2731 H 0.12708 0.78475 0.70804
 H2732 H 0.12241 0.78304 0.66829
 H2733 H 0.09593 0.75867 0.71222
 H2734 H 0.12246 0.72763 0.71077
 H2735 H 0.14888 0.75200 0.66682
 H2736 H 0.11784 0.72593 0.67105
 C2737 C 0.88446 0.73983 0.70440
 C2738 C 0.88761 0.72995 0.68505
 C2739 C 0.89847 0.74782 0.67828
 C2740 C 0.89564 0.75769 0.69745
 C2741 C 0.86593 0.74876 0.69688
 C2742 C 0.87679 0.76663 0.69011
 C2743 C 0.86878 0.73889 0.67771
 C2744 C 0.87993 0.75675 0.67078
 C2745 C 0.91639 0.74746 0.66771
 C2746 C 0.93104 0.74734 0.65879
 C2747 C 0.84770 0.74936 0.70692
 C2748 C 0.83252 0.74990 0.71491
 H2749 H 0.88603 0.73290 0.71836
 H2750 H 0.89233 0.71489 0.68281
 H2751 H 0.90694 0.76540 0.70539
 H2752 H 0.87208 0.78169 0.69234
 H2753 H 0.85748 0.73118 0.66976
 H2754 H 0.87833 0.76368 0.65683
 C2755 C 0.36888 0.25908 0.17757
 C2756 C 0.38830 0.26606 0.18547
 C2757 C 0.39777 0.24777 0.17769
 C2758 C 0.37864 0.24079 0.16962
 C2759 C 0.36512 0.24845 0.19612
 C2760 C 0.37458 0.23016 0.18834
 C2761 C 0.38424 0.25543 0.20420
 C2762 C 0.39403 0.23713 0.19624
 C2763 C 0.41576 0.24756 0.16724
 C2764 C 0.43049 0.24756 0.15845
 C2765 C 0.34686 0.24894 0.20611
 C2766 C 0.33167 0.24943 0.21408
 H2767 H 0.35830 0.26809 0.17005
 H2768 H 0.39420 0.28079 0.18413
 H2769 H 0.37660 0.23477 0.15528
 H2770 H 0.36867 0.21543 0.18968
 H2771 H 0.38627 0.26145 0.21854
 H2772 H 0.40462 0.22812 0.20374
 C2773 C 0.38371 0.75598 0.28704
 C2774 C 0.38896 0.77087 0.30245
 C2775 C 0.39697 0.75452 0.31448
 C2776 C 0.39207 0.73964 0.29928
 C2777 C 0.36421 0.75306 0.29675
 C2778 C 0.37225 0.73673 0.30879
 C2779 C 0.36914 0.76792 0.31195
 C2780 C 0.37744 0.75160 0.32413
 C2781 C 0.41468 0.75509 0.32512
 C2782 C 0.42876 0.75526 0.33469
 C2783 C 0.34570 0.75218 0.28754
 C2784 C 0.33016 0.75149 0.28048
 H2785 H 0.38598 0.75776 0.27165
 H2786 H 0.39610 0.78489 0.29999
 H2787 H 0.40177 0.72806 0.29423
 H2788 H 0.36512 0.72271 0.31127
 H2789 H 0.35945 0.77951 0.31702
 H2790 H 0.37511 0.74982 0.33951
 C2791 C 0.88459 0.25579 0.78796
 C2792 C 0.88965 0.27075 0.80336
 C2793 C 0.89778 0.25451 0.81545
 C2794 C 0.89306 0.23955 0.80026
 C2795 C 0.86509 0.25269 0.79762
 C2796 C 0.87325 0.23646 0.80972
 C2797 C 0.86983 0.26763 0.81282
 C2798 C 0.87825 0.25141 0.82505
 C2799 C 0.91546 0.25527 0.82612
 C2800 C 0.92954 0.25559 0.83568
 C2801 C 0.84661 0.25164 0.78836
 C2802 C 0.83111 0.25082 0.78124
 H2803 H 0.88688 0.25756 0.77258
 H2804 H 0.89666 0.28483 0.80090
 H2805 H 0.90289 0.22806 0.79526
 H2806 H 0.86625 0.22238 0.81220
 H2807 H 0.86002 0.27913 0.81784
 H2808 H 0.87590 0.24964 0.84043
 C2809 C 0.55686 1.01717 0.61547
 C2810 C 0.55425 1.03079 0.63255
 C2811 C 0.55213 1.01320 0.64541
 C2812 C 0.55487 0.99958 0.62854
 C2813 C 0.53502 1.01712 0.61267
 C2814 C 0.53293 0.99953 0.62554
 C2815 C 0.53224 1.03079 0.62949
 C2816 C 0.53029 1.01315 0.64268
 C2817 C 0.56231 1.01057 0.66327
 C2818 C 0.57115 1.00819 0.67763
 C2819 C 0.52652 1.01838 0.59384
 C2820 C 0.52082 1.01822 0.57782
 H2821 H 0.56774 1.01886 0.60411
 H2822 H 0.56315 1.04362 0.63560
 H2823 H 0.56426 0.98672 0.62828
 H2824 H 0.52404 0.98669 0.62249
 H2825 H 0.52284 1.04364 0.62969
 H2826 H 0.51945 1.01144 0.65407
 C2827 C 0.05620 0.51201 1.11584
 C2828 C 0.05797 0.52785 1.13103
 C2829 C 0.05197 0.51318 1.14608
 C2830 C 0.05033 0.49732 1.13109
 C2831 C 0.03498 0.51733 1.11331
 C2832 C 0.02898 0.50265 1.12835
 C2833 C 0.03660 0.53323 1.12826
 C2834 C 0.03074 0.51851 1.14364
 C2835 C 0.06209 0.51045 1.16396
 C2836 C 0.07089 0.50801 1.17835
 C2837 C 0.02654 0.51873 1.09446
 C2838 C 0.02088 0.51870 1.07842
 H2839 H 0.06663 0.50936 1.10424
 H2840 H 0.07001 0.53818 1.13228
 H2841 H 0.05607 0.48253 1.13238
 H2842 H 0.01695 0.49232 1.12709
 H2843 H 0.03085 0.54802 1.12692
 H2844 H 0.02037 0.52114 1.15528
 C2845 C -0.03894 0.00321 1.12322
 C2846 C -0.05914 -0.00452 1.12811
 C2847 C -0.05110 -0.01318 1.14629
 C2848 C -0.03099 -0.00544 1.14166
 C2849 C -0.03443 -0.01575 1.11297
 C2850 C -0.02632 -0.02445 1.13111
 C2851 C -0.05454 -0.02348 1.11765
 C2852 C -0.04661 -0.03217 1.13608
 C2853 C -0.06109 -0.01130 1.16447
 C2854 C -0.06986 -0.00950 1.17909
 C2855 C -0.02619 -0.01630 1.09389
 C2856 C -0.02068 -0.01567 1.07776
 H2857 H -0.03570 0.01777 1.11776
 H2858 H -0.07271 0.00370 1.12702
 H2859 H -0.02141 0.00203 1.15172
 H2860 H -0.01274 -0.03266 1.13214
 H2861 H -0.06415 -0.03095 1.10761
 H2862 H -0.04988 -0.04671 1.14157
 C2863 C 0.46028 0.46677 0.62530
 C2864 C 0.46868 0.47725 0.64272
 C2865 C 0.44904 0.48665 0.64629
 C2866 C 0.44052 0.47619 0.62920
 C2867 C 0.46583 0.48406 0.61304
 C2868 C 0.44620 0.49344 0.61670
 C2869 C 0.47437 0.49453 0.63012
 C2870 C 0.45460 0.50391 0.63400
 C2871 C 0.43899 0.48855 0.66444
 C2872 C 0.43017 0.49038 0.67902
 C2873 C 0.47412 0.48350 0.59398
 C2874 C 0.47965 0.48412 0.57786
 H2875 H 0.46273 0.45148 0.62154
 H2876 H 0.47783 0.47061 0.65365
 H2877 H 0.42648 0.46870 0.62897
 H2878 H 0.43699 0.50009 0.60583
 H2879 H 0.48841 0.50203 0.63032
 H2880 H 0.45215 0.51920 0.63772
 C2881 C 0.44907 0.52889 -0.11948
 C2882 C 0.45932 0.53067 -0.13885
 C2883 C 0.44880 0.51252 -0.14556
 C2884 C 0.43844 0.51076 -0.12648
 C2885 C 0.46554 0.51612 -0.11258
 C2886 C 0.45500 0.49801 -0.11936
 C2887 C 0.47596 0.51789 -0.13163
 C2888 C 0.46526 0.49974 -0.13867
 C2889 C 0.43885 0.51003 -0.16357
 C2890 C 0.43019 0.50772 -0.17807
 C2891 C 0.47386 0.51710 -0.09366
 C2892 C 0.47945 0.51665 -0.07762
 H2893 H 0.44251 0.54092 -0.11143
 H2894 H 0.46099 0.54409 -0.14708
 H2895 H 0.42293 0.50777 -0.12450
 H2896 H 0.45329 0.48456 -0.11118
 H2897 H 0.49148 0.52087 -0.13356
 H2898 H 0.47181 0.48770 -0.14671
 C2899 C -0.02652 1.00249 0.37102
 C2900 C -0.04721 0.99522 0.36777
 C2901 C -0.05050 1.01184 0.35400
 C2902 C -0.02993 1.01912 0.35694
 C2903 C -0.03396 1.01538 0.38708
 C2904 C -0.03724 1.03205 0.37335
 C2905 C -0.05453 1.00812 0.38404
 C2906 C -0.05794 1.02473 0.37006
 C2907 C -0.06035 1.00938 0.33593
 C2908 C -0.06893 1.00710 0.32139
 C2909 C -0.02577 1.01638 0.40605
 C2910 C -0.02028 1.01598 0.42213
 H2911 H -0.01348 0.99337 0.37158
 H2912 H -0.05142 0.98005 0.36534
 H2913 H -0.01990 1.02360 0.34558
 H2914 H -0.03303 1.04720 0.37582
 H2915 H -0.06461 1.00361 0.39536
 H2916 H -0.07098 1.03384 0.36952
 C2917 C 0.02457 0.49583 0.36894
 C2918 C 0.04494 0.50401 0.36549
 C2919 C 0.04932 0.48703 0.35228
 C2920 C 0.02908 0.47884 0.35542
 C2921 C 0.03237 0.48398 0.38542
 C2922 C 0.03674 0.46697 0.37225
 C2923 C 0.05261 0.49216 0.38219
 C2924 C 0.05710 0.47520 0.36877
 C2925 C 0.05942 0.48919 0.33418
 C2926 C 0.06823 0.49123 0.31962
 C2927 C 0.02401 0.48315 0.40445
 C2928 C 0.01847 0.48353 0.42059
 H2929 H 0.01108 0.50428 0.36917
 H2930 H 0.04841 0.51926 0.36257
 H2931 H 0.01950 0.47339 0.34419
 H2932 H 0.03326 0.45173 0.37520
 H2933 H 0.06224 0.49763 0.39337
 H2934 H 0.07060 0.46675 0.36856
 C2935 C 0.55283 -0.02460 -0.11931
 C2936 C 0.54466 -0.03199 -0.13824
 C2937 C 0.55043 -0.01290 -0.14748
 C2938 C 0.55871 -0.00553 -0.12881
 C2939 C 0.53316 -0.01585 -0.11449
 C2940 C 0.53895 0.00321 -0.12379
 C2941 C 0.52481 -0.02326 -0.13312
 C2942 C 0.53076 -0.00414 -0.14270
 C2943 C 0.56073 -0.01081 -0.16548
 C2944 C 0.56969 -0.00882 -0.17995
 C2945 C 0.52460 -0.01665 -0.09555
 C2946 C 0.51892 -0.01625 -0.07945
 H2947 H 0.56183 -0.03306 -0.10953
 H2948 H 0.54714 -0.04646 -0.14437
 H2949 H 0.57274 0.00179 -0.12717
 H2950 H 0.53651 0.01770 -0.11768
 H2951 H 0.51077 -0.03057 -0.13470
 H2952 H 0.52179 0.00432 -0.15250
 C2953 C 0.61670 0.56039 0.00747
 C2954 C 0.63577 0.55167 0.00015
 C2955 C 0.64097 0.57116 -0.00858
 C2956 C 0.62213 0.57999 -0.00125
 C2957 C 0.60704 0.55467 -0.01114
 C2958 C 0.61222 0.57416 -0.01987
 C2959 C 0.62585 0.54581 -0.01848
 C2960 C 0.63134 0.56546 -0.02721
 C2961 C 0.65970 0.58071 -0.00677
 C2962 C 0.67484 0.58897 -0.00508
 C2963 C 0.58797 0.54561 -0.01169
 C2964 C 0.57227 0.53828 -0.01105
 H2965 H 0.61051 0.55824 0.02175
 H2966 H 0.64561 0.54250 0.00842
 H2967 H 0.62074 0.59412 0.00589
 H2968 H 0.60238 0.58334 -0.02813
 H2969 H 0.62722 0.53167 -0.02561
 H2970 H 0.63756 0.56763 -0.04148
 C2971 C 0.12628 1.04393 0.48452
 C2972 C 0.13286 1.06171 0.47306
 C2973 C 0.14105 1.07055 0.49117
 C2974 C 0.13477 1.05294 0.50263
 C2975 C 0.10712 1.05404 0.48873
 C2976 C 0.11536 1.06290 0.50682
 C2977 C 0.11339 1.07166 0.47727
 C2978 C 0.12188 1.08063 0.49538
 C2979 C 0.15979 1.08011 0.49291
 C2980 C 0.17492 1.08840 0.49454
 C2981 C 0.08805 1.04500 0.48822
 C2982 C 0.07234 1.03770 0.48888
 H2983 H 0.12793 1.02875 0.48001
 H2984 H 0.14025 1.06129 0.45917
 H2985 H 0.14371 1.04531 0.51310
 H2986 H 0.10800 1.06334 0.52073
 H2987 H 0.10444 1.07928 0.46681
 H2988 H 0.12021 1.09581 0.49989
 C2989 C 0.11802 -0.05667 0.99125
 C2990 C 0.13637 -0.04967 1.00131
 C2991 C 0.14064 -0.07047 1.00707
 C2992 C 0.12253 -0.07758 0.99699
 C2993 C 0.10667 -0.05401 1.00973
 C2994 C 0.11094 -0.07482 1.01548
 C2995 C 0.12475 -0.04686 1.01982
 C2996 C 0.12932 -0.06783 1.02556
 C2997 C 0.15939 -0.08000 1.00524
 C2998 C 0.17456 -0.08827 1.00359
 C2999 C 0.08758 -0.04500 1.01038
 C3000 C 0.07185 -0.03775 1.00986
 H3001 H 0.11320 -0.05200 0.97712
 H3002 H 0.14699 -0.03940 0.99544
 H3003 H 0.12176 -0.09029 0.98755
 H3004 H 0.10032 -0.08509 1.02134
 H3005 H 0.12549 -0.03415 1.02925
 H3006 H 0.13416 -0.07251 1.03968
 C3007 C 0.62555 0.45590 0.50408
 C3008 C 0.63614 0.44601 0.52056
 C3009 C 0.64088 0.42901 0.50746
 C3010 C 0.63058 0.43877 0.49100
 C3011 C 0.60697 0.44561 0.50998
 C3012 C 0.61176 0.42861 0.49691
 C3013 C 0.61724 0.43586 0.52647
 C3014 C 0.62230 0.41872 0.51336
 C3015 C 0.65962 0.41941 0.50572
 C3016 C 0.67477 0.41110 0.50414
 C3017 C 0.58791 0.45467 0.51057
 C3018 C 0.57219 0.46195 0.51001
 H3019 H 0.62672 0.47130 0.50028
 H3020 H 0.64635 0.45311 0.53026
 H3021 H 0.63621 0.43990 0.47638
 H3022 H 0.60157 0.42149 0.48719
 H3023 H 0.61159 0.43474 0.54107
 H3024 H 0.62112 0.40332 0.51715
 C3025 C -0.12679 0.45207 0.48226
 C3026 C -0.13243 0.43249 0.47343
 C3027 C -0.14216 0.42684 0.49211
 C3028 C -0.13682 0.44627 0.50095
 C3029 C -0.10808 0.44303 0.48933
 C3030 C -0.11785 0.43736 0.50799
 C3031 C -0.11342 0.42360 0.48049
 C3032 C -0.12344 0.41782 0.49917
 C3033 C -0.16105 0.41755 0.49383
 C3034 C -0.17641 0.40959 0.49514
 C3035 C -0.08896 0.45195 0.48856
 C3036 C -0.07322 0.45920 0.48900
 H3037 H -0.12800 0.46624 0.47526
 H3038 H -0.13861 0.43041 0.45921
 H3039 H -0.14660 0.45552 0.50940
 H3040 H -0.11168 0.43943 0.52222
 H3041 H -0.10364 0.41435 0.47205
 H3042 H -0.12221 0.40366 0.50618
 C3043 C 0.38837 -0.07768 -0.00598
 C3044 C 0.37221 -0.07123 0.00769
 C3045 C 0.35776 -0.07267 -0.00850
 C3046 C 0.37367 -0.07925 -0.02218
 C3047 C 0.39190 -0.05659 -0.01127
 C3048 C 0.37748 -0.05801 -0.02749
 C3049 C 0.37598 -0.05001 0.00240
 C3050 C 0.36127 -0.05157 -0.01379
 C3051 C 0.33885 -0.08190 -0.00679
 C3052 C 0.32348 -0.08984 -0.00547
 C3053 C 0.41105 -0.04773 -0.01202
 C3054 C 0.42681 -0.04053 -0.01153
 H3055 H 0.39968 -0.08838 -0.00281
 H3056 H 0.36989 -0.07672 0.02218
 H3057 H 0.37255 -0.09139 -0.03227
 H3058 H 0.37982 -0.05251 -0.04197
 H3059 H 0.37709 -0.03788 0.01250
 H3060 H 0.34994 -0.04088 -0.01696
 C3061 C 0.38188 1.06037 0.49326
 C3062 C 0.36392 1.05412 0.50463
 C3063 C 0.35948 1.07534 0.50875
 C3064 C 0.37718 1.08169 0.49737
 C3065 C 0.39377 1.05963 0.51141
 C3066 C 0.38933 1.08085 0.51553
 C3067 C 0.37608 1.05325 0.52281
 C3068 C 0.37134 1.07462 0.52692
 C3069 C 0.34044 1.08430 0.50704
 C3070 C 0.32495 1.09196 0.50568
 C3071 C 0.41296 1.05086 0.51205
 C3072 C 0.42870 1.04358 0.51141
 H3073 H 0.38637 1.05443 0.47939
 H3074 H 0.35332 1.04320 0.50009
 H3075 H 0.37749 1.09345 0.48685
 H3076 H 0.39993 1.09178 0.52006
 H3077 H 0.37579 1.04149 0.53331
 H3078 H 0.36682 1.08058 0.54077
 C3079 C -0.11642 0.57114 1.02820
 C3080 C -0.12207 0.58715 1.01417
 C3081 C -0.14049 0.57603 1.00947
 C3082 C -0.13514 0.56015 1.02349
 C3083 C -0.10615 0.56043 1.01209
 C3084 C -0.12456 0.54931 1.00739
 C3085 C -0.11153 0.57631 0.99809
 C3086 C -0.13019 0.56532 0.99338
 C3087 C -0.15955 0.58494 1.00779
 C3088 C -0.17506 0.59255 1.00645
 C3089 C -0.08692 0.55171 1.01270
 C3090 C -0.07117 0.54448 1.01204
 H3091 H -0.11059 0.57346 1.04253
 H3092 H -0.12120 0.60282 1.01692
 H3093 H -0.14504 0.55356 1.03392
 H3094 H -0.12543 0.53365 1.00464
 H3095 H -0.10165 0.58292 0.98765
 H3096 H -0.13599 0.56298 0.97904
 C3097 C 0.00450 0.62146 0.53519
 C3098 C -0.00381 0.62851 0.55424
 C3099 C 0.01507 0.63913 0.55796
 C3100 C 0.02342 0.63240 0.53902
 C3101 C 0.01277 0.60389 0.54526
 C3102 C 0.03168 0.61446 0.54896
 C3103 C 0.00444 0.61065 0.56419
 C3104 C 0.02335 0.62156 0.56804
 C3105 C 0.01552 0.65855 0.56546
 C3106 C 0.01505 0.67430 0.57228
 C3107 C 0.01091 0.58439 0.53819
 C3108 C 0.00895 0.56846 0.53211
 H3109 H -0.00328 0.62112 0.52161
 H3110 H -0.01837 0.63457 0.55648
 H3111 H 0.03121 0.64163 0.52881
 H3112 H 0.04622 0.60836 0.54671
 H3113 H -0.00336 0.60145 0.57442
 H3114 H 0.03112 0.62191 0.58162
 C3115 C 0.50524 0.12121 0.03560
 C3116 C 0.49654 0.12833 0.05445
 C3117 C 0.51543 0.13874 0.05864
 C3118 C 0.52417 0.13194 0.03989
 C3119 C 0.51306 0.10353 0.04585
 C3120 C 0.53199 0.11390 0.05001
 C3121 C 0.50434 0.11037 0.06458
 C3122 C 0.52326 0.12107 0.06890
 C3123 C 0.51592 0.15816 0.06614
 C3124 C 0.51549 0.17393 0.07290
 C3125 C 0.51117 0.08407 0.03869
 C3126 C 0.50918 0.06818 0.03251
 H3127 H 0.49779 0.12096 0.02183
 H3128 H 0.48199 0.13454 0.05635
 H3129 H 0.53231 0.14108 0.02988
 H3130 H 0.54651 0.10764 0.04810
 H3131 H 0.49619 0.10125 0.07461
 H3132 H 0.53069 0.12133 0.08267
 C3133 C -0.03385 0.11814 0.95339
 C3134 C -0.02496 0.13581 0.96340
 C3135 C -0.01704 0.14260 0.94435
 C3136 C -0.02594 0.12531 0.93421
 C3137 C -0.01504 0.10716 0.95637
 C3138 C -0.00714 0.11400 0.93733
 C3139 C -0.00615 0.12446 0.96650
 C3140 C 0.00173 0.13158 0.94735
 C3141 C -0.01725 0.16206 0.93705
 C3142 C -0.01651 0.17774 0.93019
 C3143 C -0.01325 0.08753 0.96298
 C3144 C -0.01124 0.07148 0.96864
 H3145 H -0.04843 0.11228 0.95595
 H3146 H -0.03228 0.14506 0.97398
 H3147 H -0.03410 0.12596 0.92087
 H3148 H 0.00019 0.10479 0.92673
 H3149 H 0.00202 0.12381 0.97984
 H3150 H 0.01634 0.13738 0.94481
 C3151 C 0.49702 0.61468 0.43986
 C3152 C 0.47882 0.62392 0.43151
 C3153 C 0.48238 0.64181 0.44367
 C3154 C 0.50057 0.63284 0.45190
 C3155 C 0.48474 0.60648 0.45591
 C3156 C 0.48830 0.62436 0.46809
 C3157 C 0.46652 0.61540 0.44769
 C3158 C 0.47006 0.63366 0.45973
 C3159 C 0.48198 0.66122 0.43626
 C3160 C 0.48259 0.67688 0.42935
 C3161 C 0.48671 0.58691 0.46265
 C3162 C 0.48883 0.57090 0.46839
 H3163 H 0.50810 0.60663 0.43178
 H3164 H 0.47489 0.62404 0.41638
 H3165 H 0.51453 0.64028 0.45356
 H3166 H 0.49224 0.62422 0.48321
 H3167 H 0.45259 0.60791 0.44605
 H3168 H 0.45900 0.64175 0.46778
 C3169 C 0.50231 0.88899 0.43733
 C3170 C 0.52012 0.87583 0.43558
 C3171 C 0.50887 0.85983 0.44554
 C3172 C 0.49107 0.87270 0.44717
 C3173 C 0.50943 0.89571 0.45663
 C3174 C 0.49820 0.87970 0.46658
 C3175 C 0.52728 0.88290 0.45503
 C3176 C 0.51600 0.86651 0.46486
 C3177 C 0.50760 0.84018 0.43875
 C3178 C 0.50563 0.82441 0.43225
 C3179 C 0.50892 0.91559 0.46287
 C3180 C 0.50777 0.93182 0.46839
 H3181 H 0.49670 0.89848 0.42611
 H3182 H 0.52914 0.87393 0.42277
 H3183 H 0.47619 0.86823 0.44390
 H3184 H 0.48916 0.88159 0.47939
 H3185 H 0.54214 0.88743 0.45832
 H3186 H 0.52160 0.85699 0.47606
 C3187 C 0.00116 0.38043 0.96831
 C3188 C -0.00849 0.37293 0.95018
 C3189 C 0.00951 0.36097 0.94593
 C3190 C 0.01918 0.36814 0.96396
 C3191 C 0.00993 0.39692 0.95683
 C3192 C 0.02797 0.38501 0.95260
 C3193 C 0.00027 0.38969 0.93882
 C3194 C 0.01828 0.37745 0.93445
 C3195 C 0.00830 0.34127 0.93926
 C3196 C 0.00638 0.32546 0.93286
 C3197 C 0.00932 0.41681 0.96300
 C3198 C 0.00811 0.43304 0.96851
 H3199 H -0.00589 0.38196 0.98229
 H3200 H -0.02348 0.36769 0.94915
 H3201 H 0.02691 0.35900 0.97418
 H3202 H 0.04293 0.39031 0.95365
 H3203 H -0.00748 0.39880 0.92858
 H3204 H 0.02532 0.37592 0.92046
 C3205 C 0.49366 0.37437 0.02837
 C3206 C 0.50553 0.36659 0.04500
 C3207 C 0.48773 0.35573 0.05200
 C3208 C 0.47583 0.36318 0.03547
 C3209 C 0.48763 0.39149 0.04072
 C3210 C 0.46978 0.38071 0.04770
 C3211 C 0.49949 0.38397 0.05723
 C3212 C 0.48168 0.37286 0.06434
 C3213 C 0.48897 0.33623 0.05906
 C3214 C 0.49118 0.32069 0.06591
 C3215 C 0.48855 0.41135 0.03458
 C3216 C 0.49012 0.42759 0.02931
 H3217 H 0.49861 0.37531 0.01351
 H3218 H 0.52021 0.36051 0.04394
 H3219 H 0.46614 0.35435 0.02665
 H3220 H 0.45512 0.38684 0.04875
 H3221 H 0.50919 0.39275 0.06609
 H3222 H 0.47675 0.37194 0.07921
 C3223 C -0.01071 0.88541 0.56172
 C3224 C -0.02778 0.87138 0.55967
 C3225 C -0.01381 0.85592 0.55253
 C3226 C 0.00323 0.86968 0.55470
 C3227 C -0.01358 0.89168 0.54125
 C3228 C 0.00038 0.87619 0.53414
 C3229 C -0.03067 0.87799 0.53904
 C3230 C -0.01667 0.86214 0.53205
 C3231 C -0.01265 0.83640 0.55958
 C3232 C -0.01041 0.82086 0.56639
 C3233 C -0.01243 0.91151 0.53508
 C3234 C -0.01067 0.92772 0.52975
 H3235 H -0.00824 0.89523 0.57381
 H3236 H -0.03936 0.86908 0.57022
 H3237 H 0.01719 0.86599 0.56119
 H3238 H 0.01198 0.87846 0.52360
 H3239 H -0.04459 0.88177 0.53253
 H3240 H -0.01913 0.85230 0.51998
 C3241 C 0.25119 0.29919 0.13220
 C3242 C 0.26654 0.31175 0.12244
 C3243 C 0.26254 0.30124 0.10382
 C3244 C 0.24715 0.28878 0.11337
 C3245 C 0.26670 0.28420 0.13661
 C3246 C 0.26269 0.27364 0.11802
 C3247 C 0.28210 0.29667 0.12707
 C3248 C 0.27809 0.28626 0.10814
 C3249 C 0.25980 0.31141 0.08596
 C3250 C 0.25733 0.32029 0.07160
 C3251 C 0.26803 0.27580 0.15550
 C3252 C 0.26791 0.27025 0.17159
 H3253 H 0.24011 0.30446 0.14227
 H3254 H 0.26807 0.32752 0.12412
 H3255 H 0.23274 0.28566 0.10760
 H3256 H 0.26116 0.25786 0.11639
 H3257 H 0.29650 0.29979 0.13287
 H3258 H 0.28913 0.28105 0.09803
 C3259 C 0.78331 0.78643 0.62242
 C3260 C 0.76896 0.78014 0.60695
 C3261 C 0.76305 0.80123 0.60438
 C3262 C 0.77735 0.80766 0.61951
 C3263 C 0.76731 0.78435 0.63725
 C3264 C 0.76141 0.80543 0.63459
 C3265 C 0.75300 0.77792 0.62212
 C3266 C 0.74709 0.79912 0.61925
 C3267 C 0.76023 0.81130 0.58647
 C3268 C 0.75770 0.82009 0.57208
 C3269 C 0.76872 0.77603 0.65617
 C3270 C 0.76865 0.77054 0.67227
 H3271 H 0.79822 0.78111 0.62389
 H3272 H 0.77202 0.76983 0.59536
 H3273 H 0.78732 0.82001 0.61829
 H3274 H 0.75833 0.81580 0.64613
 H3275 H 0.74302 0.76557 0.62336
 H3276 H 0.73218 0.80444 0.61783
 C3277 C 0.22220 0.71992 0.62009
 C3278 C 0.24002 0.72044 0.60686
 C3279 C 0.23786 0.69875 0.60345
 C3280 C 0.22007 0.69807 0.61634
 C3281 C 0.23541 0.71543 0.63674
 C3282 C 0.23325 0.69375 0.63326
 C3283 C 0.25318 0.71610 0.62383
 C3284 C 0.25102 0.69432 0.62015
 C3285 C 0.23967 0.68877 0.58527
 C3286 C 0.24141 0.68001 0.57066
 C3287 C 0.23488 0.72371 0.65579
 C3288 C 0.23551 0.72928 0.67189
 H3289 H 0.21034 0.73054 0.62026
 H3290 H 0.24285 0.73132 0.59580
 H3291 H 0.20647 0.69053 0.61308
 H3292 H 0.23043 0.68283 0.64429
 H3293 H 0.26679 0.72362 0.62708
 H3294 H 0.26289 0.68370 0.62004
 C3295 C 0.74249 0.19385 0.13403
 C3296 C 0.72553 0.19069 0.12045
 C3297 C 0.73815 0.19791 0.10412
 C3298 C 0.75511 0.20095 0.11748
 C3299 C 0.73563 0.21457 0.13742
 C3300 C 0.74826 0.22179 0.12109
 C3301 C 0.71863 0.21154 0.12409
 C3302 C 0.73128 0.21863 0.10742
 C3303 C 0.73998 0.18795 0.08593
 C3304 C 0.74175 0.17921 0.07131
 C3305 C 0.73509 0.22283 0.15647
 C3306 C 0.73571 0.22839 0.17257
 H3307 H 0.74709 0.18371 0.14514
 H3308 H 0.71622 0.17778 0.12004
 H3309 H 0.77013 0.19650 0.11463
 H3310 H 0.75758 0.23469 0.12153
 H3311 H 0.70362 0.21600 0.12699
 H3312 H 0.72669 0.22872 0.09626
 C3313 C 0.76935 0.19256 0.86544
 C3314 C 0.78225 0.19651 0.88268
 C3315 C 0.76421 0.19769 0.89519
 C3316 C 0.75132 0.19362 0.87819
 C3317 C 0.76786 0.21430 0.86206
 C3318 C 0.74983 0.21545 0.87460
 C3319 C 0.78080 0.21842 0.87903
 C3320 C 0.76272 0.21943 0.89187
 C3321 C 0.76165 0.18783 0.91330
 C3322 C 0.75926 0.17927 0.92789
 C3323 C 0.76887 0.22261 0.84309
 C3324 C 0.76842 0.22825 0.82704
 H3325 H 0.77211 0.18157 0.85440
 H3326 H 0.79557 0.18860 0.88618
 H3327 H 0.73916 0.18334 0.87797
 H3328 H 0.73650 0.22334 0.87112
 H3329 H 0.79294 0.22871 0.87918
 H3330 H 0.75993 0.23039 0.90294
 C3331 C 0.25424 0.72253 0.37763
 C3332 C 0.24701 0.70179 0.38088
 C3333 C 0.26361 0.69845 0.39460
 C3334 C 0.27084 0.71908 0.39165
 C3335 C 0.26714 0.71518 0.36152
 C3336 C 0.28378 0.71186 0.37520
 C3337 C 0.25992 0.69455 0.36456
 C3338 C 0.27651 0.69110 0.37849
 C3339 C 0.26112 0.68855 0.41269
 C3340 C 0.25877 0.67995 0.42727
 C3341 C 0.26808 0.72354 0.34256
 C3342 C 0.26757 0.72923 0.32652
 H3343 H 0.24511 0.73557 0.37711
 H3344 H 0.23187 0.69754 0.38334
 H3345 H 0.27530 0.72908 0.40300
 H3346 H 0.29892 0.71611 0.37268
 H3347 H 0.25544 0.68451 0.35325
 H3348 H 0.28562 0.67806 0.37899
 C3349 C 0.72086 0.77828 0.38116
 C3350 C 0.73878 0.77768 0.39401
 C3351 C 0.73693 0.79944 0.39719
 C3352 C 0.71905 0.80020 0.38468
 C3353 C 0.73399 0.78237 0.36418
 C3354 C 0.73214 0.80412 0.36743
 C3355 C 0.75186 0.78163 0.37670
 C3356 C 0.75001 0.80348 0.38017
 C3357 C 0.73900 0.80963 0.41520
 C3358 C 0.74095 0.81852 0.42968
 C3359 C 0.73317 0.77395 0.34521
 C3360 C 0.73352 0.76838 0.32910
 H3361 H 0.70887 0.76781 0.38137
 H3362 H 0.74156 0.76691 0.40515
 H3363 H 0.70558 0.80796 0.38814
 H3364 H 0.72937 0.81494 0.35633
 H3365 H 0.76534 0.77388 0.37326
 H3366 H 0.76201 0.81394 0.37990
 C3367 C 0.22072 0.27899 0.88081
 C3368 C 0.23861 0.27837 0.89370
 C3369 C 0.23678 0.30014 0.89686
 C3370 C 0.21893 0.30091 0.88431
 C3371 C 0.23389 0.28305 0.86385
 C3372 C 0.23206 0.30481 0.86709
 C3373 C 0.25172 0.28229 0.87642
 C3374 C 0.24990 0.30415 0.87986
 C3375 C 0.23883 0.31034 0.91486
 C3376 C 0.24077 0.31924 0.92934
 C3377 C 0.23310 0.27462 0.84489
 C3378 C 0.23349 0.26906 0.82878
 H3379 H 0.20871 0.26854 0.88100
 H3380 H 0.24134 0.26761 0.90485
 H3381 H 0.20546 0.30870 0.88773
 H3382 H 0.22934 0.31562 0.85597
 H3383 H 0.26521 0.27452 0.87301
 H3384 H 0.26192 0.31459 0.87961
 C3385 C 0.82601 0.36158 0.76948
 C3386 C 0.83143 0.37201 0.75096
 C3387 C 0.82267 0.39064 0.75889
 C3388 C 0.81739 0.38050 0.77742
 C3389 C 0.80639 0.35653 0.76108
 C3390 C 0.79761 0.37514 0.76902
 C3391 C 0.81170 0.36671 0.74257
 C3392 C 0.80306 0.38558 0.75049
 C3393 C 0.83207 0.40951 0.75730
 C3394 C 0.84019 0.42477 0.75580
 C3395 C 0.79741 0.33740 0.76147
 C3396 C 0.79010 0.32168 0.76074
 H3397 H 0.83538 0.35156 0.77732
 H3398 H 0.84541 0.37087 0.74348
 H3399 H 0.81980 0.38635 0.79177
 H3400 H 0.78362 0.37626 0.77649
 H3401 H 0.80930 0.36088 0.72821
 H3402 H 0.79369 0.39560 0.74264
 C3403 C 0.32533 0.86253 0.26881
 C3404 C 0.33078 0.87286 0.25025
 C3405 C 0.32204 0.89154 0.25808
 C3406 C 0.31672 0.88150 0.27665
 C3407 C 0.30572 0.85746 0.26041
 C3408 C 0.29695 0.87612 0.26825
 C3409 C 0.31106 0.86754 0.24186
 C3410 C 0.30243 0.88646 0.24968
 C3411 C 0.33147 0.91038 0.25641
 C3412 C 0.33964 0.92562 0.25485
 C3413 C 0.29671 0.83834 0.26088
 C3414 C 0.28936 0.82264 0.26019
 H3415 H 0.33468 0.85254 0.27671
 H3416 H 0.34477 0.87167 0.24279
 H3417 H 0.31913 0.88742 0.29097
 H3418 H 0.28296 0.87729 0.27570
 H3419 H 0.30867 0.86164 0.22753
 H3420 H 0.29309 0.89645 0.24177
 C3421 C 0.17631 0.86033 0.74718
 C3422 C 0.18409 0.87770 0.75840
 C3423 C 0.17974 0.89074 0.74154
 C3424 C 0.17183 0.87360 0.73032
 C3425 C 0.19649 0.85688 0.73901
 C3426 C 0.19216 0.86989 0.72212
 C3427 C 0.20440 0.87403 0.75022
 C3428 C 0.19993 0.88734 0.73336
 C3429 C 0.17007 0.90944 0.74332
 C3430 C 0.16171 0.92456 0.74496
 C3431 C 0.20565 0.83786 0.73844
 C3432 C 0.21300 0.82217 0.73906
 H3433 H 0.16664 0.84905 0.75284
 H3434 H 0.18071 0.88106 0.77335
 H3435 H 0.15831 0.87359 0.72215
 H3436 H 0.19555 0.86649 0.70718
 H3437 H 0.21790 0.87404 0.75840
 H3438 H 0.20957 0.89864 0.72770
 C3439 C 0.70505 0.37466 0.23144
 C3440 C 0.68506 0.37967 0.22334
 C3441 C 0.67993 0.38987 0.24194
 C3442 C 0.69974 0.38516 0.25005
 C3443 C 0.69665 0.35600 0.23952
 C3444 C 0.69149 0.36624 0.25810
 C3445 C 0.67683 0.36071 0.23142
 C3446 C 0.67156 0.37120 0.25002
 C3447 C 0.67026 0.40858 0.24366
 C3448 C 0.66191 0.42371 0.24524
 C3449 C 0.70579 0.33697 0.23902
 C3450 C 0.71315 0.32128 0.23968
 H3451 H 0.71890 0.37590 0.22375
 H3452 H 0.68233 0.38540 0.20903
 H3453 H 0.70908 0.39537 0.25774
 H3454 H 0.69421 0.36054 0.27242
 H3455 H 0.66749 0.35050 0.22373
 H3456 H 0.65772 0.36992 0.25771
 C3457 C 0.69396 0.62600 0.27571
 C3458 C 0.67212 0.62216 0.27418
 C3459 C 0.67609 0.60778 0.25814
 C3460 C 0.69778 0.61131 0.25965
 C3461 C 0.69208 0.64196 0.26095
 C3462 C 0.69604 0.62756 0.24492
 C3463 C 0.67039 0.63841 0.25944
 C3464 C 0.67424 0.62377 0.24340
 C3465 C 0.66692 0.58884 0.25638
 C3466 C 0.65905 0.57345 0.25502
 C3467 C 0.70091 0.66112 0.26170
 C3468 C 0.70812 0.67689 0.26119
 H3469 H 0.70213 0.62709 0.28902
 H3470 H 0.66217 0.61976 0.28621
 H3471 H 0.70898 0.59999 0.25968
 H3472 H 0.70597 0.62995 0.23287
 H3473 H 0.65919 0.64972 0.25939
 H3474 H 0.66607 0.62270 0.23007
 C3475 C 0.18014 0.13587 0.74367
 C3476 C 0.19103 0.11651 0.74388
 C3477 C 0.17602 0.10859 0.75776
 C3478 C 0.16501 0.12771 0.75753
 C3479 C 0.19210 0.14273 0.76052
 C3480 C 0.17709 0.13483 0.77441
 C3481 C 0.20312 0.12362 0.76075
 C3482 C 0.18797 0.11541 0.77463
 C3483 C 0.16680 0.08967 0.75604
 C3484 C 0.15890 0.07429 0.75471
 C3485 C 0.20098 0.16188 0.76126
 C3486 C 0.20822 0.17763 0.76075
 H3487 H 0.17697 0.14447 0.73093
 H3488 H 0.19668 0.10884 0.73130
 H3489 H 0.14924 0.12923 0.75616
 H3490 H 0.17144 0.14252 0.78699
 H3491 H 0.21889 0.12211 0.76212
 H3492 H 0.19113 0.10679 0.78736
 C3493 C 0.32425 0.13822 0.25265
 C3494 C 0.31353 0.11960 0.25819
 C3495 C 0.32357 0.10905 0.24184
 C3496 C 0.33442 0.12742 0.23630
 C3497 C 0.30779 0.14336 0.23927
 C3498 C 0.31783 0.13283 0.22290
 C3499 C 0.29695 0.12498 0.24481
 C3500 C 0.30711 0.11415 0.22845
 C3501 C 0.33261 0.09001 0.24345
 C3502 C 0.34037 0.07454 0.24470
 C3503 C 0.29904 0.16259 0.23862
 C3504 C 0.29187 0.17840 0.23916
 H3505 H 0.33127 0.14829 0.26260
 H3506 H 0.31183 0.11402 0.27273
 H3507 H 0.34994 0.12828 0.23284
 H3508 H 0.31953 0.13843 0.20837
 H3509 H 0.28143 0.12413 0.24827
 H3510 H 0.30011 0.10406 0.21851
 C3511 C 0.82550 0.63670 0.72750
 C3512 C 0.83564 0.62872 0.74518
 C3513 C 0.82488 0.60963 0.74268
 C3514 C 0.81487 0.61731 0.72500
 C3515 C 0.80896 0.64387 0.74009
 C3516 C 0.79819 0.62479 0.73759
 C3517 C 0.81899 0.63616 0.75775
 C3518 C 0.80835 0.61682 0.75527
 C3519 C 0.83400 0.59063 0.74431
 C3520 C 0.84181 0.57519 0.74558
 C3521 C 0.80013 0.66307 0.73942
 C3522 C 0.79290 0.67884 0.73995
 H3523 H 0.83248 0.64503 0.71605
 H3524 H 0.85113 0.63020 0.74835
 H3525 H 0.81323 0.60937 0.71153
 H3526 H 0.78270 0.62333 0.73442
 H3527 H 0.82064 0.64408 0.77123
 H3528 H 0.80137 0.60851 0.76672
 C3529 C 0.85990 0.77670 0.18892
 C3530 C 0.87787 0.77965 0.20134
 C3531 C 0.88796 0.76349 0.19041
 C3532 C 0.87036 0.76056 0.17786
 C3533 C 0.85262 0.76160 0.20293
 C3534 C 0.86275 0.74547 0.19200
 C3535 C 0.87021 0.76454 0.21549
 C3536 C 0.88064 0.74842 0.20442
 C3537 C 0.90749 0.76381 0.18317
 C3538 C 0.92341 0.76334 0.17672
 C3539 C 0.83312 0.76000 0.21006
 C3540 C 0.81722 0.75824 0.21632
 H3541 H 0.85108 0.78826 0.18266
 H3542 H 0.88439 0.79368 0.20508
 H3543 H 0.87072 0.75894 0.16231
 H3544 H 0.85627 0.73144 0.18824
 H3545 H 0.86984 0.76615 0.23104
 H3546 H 0.88944 0.73684 0.21070
 C3547 C 0.35875 0.26879 0.68319
 C3548 C 0.37480 0.28132 0.69187
 C3549 C 0.38841 0.26405 0.69072
 C3550 C 0.37270 0.25155 0.68191
 C3551 C 0.35300 0.26231 0.70306
 C3552 C 0.36664 0.24506 0.70189
 C3553 C 0.36868 0.27482 0.71189
 C3554 C 0.38264 0.25757 0.71058
 C3555 C 0.40797 0.26426 0.68355
 C3556 C 0.42390 0.26366 0.67715
 C3557 C 0.33345 0.26075 0.71009
 C3558 C 0.31753 0.25901 0.71627
 H3559 H 0.34865 0.27335 0.67205
 H3560 H 0.37848 0.29621 0.68768
 H3561 H 0.37464 0.24199 0.66951
 H3562 H 0.36300 0.23016 0.70606
 H3563 H 0.36671 0.28436 0.72430
 H3564 H 0.39273 0.25299 0.72173
 C3565 C 0.37550 0.74157 0.78176
 C3566 C 0.38321 0.75194 0.79945
 C3567 C 0.39308 0.73323 0.80534
 C3568 C 0.38570 0.72282 0.78776
 C3569 C 0.35778 0.73544 0.79319
 C3570 C 0.36761 0.71670 0.79906
 C3571 C 0.36522 0.74582 0.81076
 C3572 C 0.37536 0.72709 0.81676
 C3573 C 0.41245 0.73290 0.81273
 C3574 C 0.42804 0.73357 0.81966
 C3575 C 0.33823 0.73732 0.78654
 C3576 C 0.32223 0.73937 0.78086
 H3577 H 0.37524 0.74756 0.76730
 H3578 H 0.38989 0.76639 0.79968
 H3579 H 0.39441 0.71338 0.77843
 H3580 H 0.36087 0.70227 0.79881
 H3581 H 0.35655 0.75528 0.82011
 H3582 H 0.37561 0.72111 0.83123
 C3583 C 0.87568 0.24140 0.28275
 C3584 C 0.88322 0.25155 0.30064
 C3585 C 0.89323 0.23284 0.30627
 C3586 C 0.88603 0.22265 0.28850
 C3587 C 0.85798 0.23493 0.29400
 C3588 C 0.86794 0.21619 0.29962
 C3589 C 0.86523 0.24510 0.31176
 C3590 C 0.87552 0.22637 0.31752
 C3591 C 0.91257 0.23256 0.31372
 C3592 C 0.92815 0.23324 0.32069
 C3593 C 0.83844 0.23674 0.28728
 C3594 C 0.82244 0.23872 0.28156
 H3595 H 0.87544 0.24762 0.26838
 H3596 H 0.88977 0.26606 0.30112
 H3597 H 0.89486 0.21343 0.27907
 H3598 H 0.86134 0.20170 0.29912
 H3599 H 0.85643 0.25432 0.32122
 H3600 H 0.87575 0.22016 0.33189
 C3601 C 0.13655 0.24753 0.30569
 C3602 C 0.12721 0.26335 0.31799
 C3603 C 0.10987 0.26331 0.30477
 C3604 C 0.11897 0.24748 0.29258
 C3605 C 0.14568 0.26319 0.29343
 C3606 C 0.12837 0.26316 0.28020
 C3607 C 0.13665 0.27905 0.30563
 C3608 C 0.11893 0.27902 0.29252
 C3609 C 0.09027 0.26215 0.31173
 C3610 C 0.07459 0.25997 0.31837
 C3611 C 0.16551 0.26214 0.28711
 C3612 C 0.18168 0.26048 0.28155
 H3613 H 0.14405 0.23461 0.31104
 H3614 H 0.12644 0.26343 0.33361
 H3615 H 0.11143 0.23454 0.28728
 H3616 H 0.12916 0.26306 0.26458
 H3617 H 0.14423 0.29197 0.31091
 H3618 H 0.11137 0.29191 0.28720
 C3619 C 0.63689 0.74714 0.80527
 C3620 C 0.62746 0.76258 0.81796
 C3621 C 0.61031 0.76309 0.80453
 C3622 C 0.61949 0.74763 0.79194
 C3623 C 0.64627 0.76316 0.79366
 C3624 C 0.62914 0.76367 0.78021
 C3625 C 0.63715 0.77864 0.80625
 C3626 C 0.61961 0.77916 0.79292
 C3627 C 0.59062 0.76187 0.81122
 C3628 C 0.57485 0.75970 0.81765
 C3629 C 0.66617 0.76221 0.78755
 C3630 C 0.68238 0.76063 0.78211
 H3631 H 0.64425 0.73400 0.81029
 H3632 H 0.62648 0.76213 0.83356
 H3633 H 0.61196 0.73492 0.78612
 H3634 H 0.63015 0.76411 0.76461
 H3635 H 0.64472 0.79134 0.81205
 H3636 H 0.61220 0.79227 0.78793
 C3637 C 0.62701 0.25221 0.71850
 C3638 C 0.62005 0.25491 0.69808
 C3639 C 0.60622 0.23799 0.70084
 C3640 C 0.61288 0.23528 0.72119
 C3641 C 0.64219 0.23804 0.71118
 C3642 C 0.62844 0.22107 0.71398
 C3643 C 0.63548 0.24075 0.69084
 C3644 C 0.62138 0.22381 0.69349
 C3645 C 0.58660 0.23914 0.69418
 C3646 C 0.57102 0.24125 0.68750
 C3647 C 0.66217 0.23899 0.71679
 C3648 C 0.67851 0.24053 0.72165
 H3649 H 0.62962 0.26391 0.72882
 H3650 H 0.61633 0.26884 0.69150
 H3651 H 0.60331 0.23303 0.73354
 H3652 H 0.63224 0.20717 0.72057
 H3653 H 0.64502 0.24301 0.67847
 H3654 H 0.61874 0.21212 0.68317
 C3655 C 0.12577 0.75416 0.21887
 C3656 C 0.11860 0.75701 0.19853
 C3657 C 0.10473 0.74013 0.20135
 C3658 C 0.11159 0.73728 0.22162
 C3659 C 0.14081 0.73996 0.21132
 C3660 C 0.12701 0.72304 0.21418
 C3661 C 0.13390 0.74281 0.19107
 C3662 C 0.11975 0.72592 0.19378
 C3663 C 0.08504 0.74132 0.19489
 C3664 C 0.06938 0.74336 0.18836
 C3665 C 0.16084 0.74076 0.21676
 C3666 C 0.17723 0.74216 0.22151
 H3667 H 0.12854 0.76579 0.22922
 H3668 H 0.11487 0.77099 0.19206
 H3669 H 0.10214 0.73501 0.23405
 H3670 H 0.13082 0.70908 0.22066
 H3671 H 0.14332 0.74510 0.17861
 H3672 H 0.11696 0.71430 0.18343
   
