data_POSCAR
  _audit_creation_date              2014-09-24
  _audit_creation_method            'ToBaCCo'
  _symmetry_space_group_name_H-M    'P1'
  _symmetry_Int_Tables_number       1
  _symmetry_cell_setting            triclinic
  loop_
  _symmetry_equiv_pos_as_xyz
 x,y,z
_cell_length_a 67.6368
_cell_length_b 67.5838
_cell_length_c 67.4593
_cell_angle_alpha 89.947000
_cell_angle_beta 89.989500
_cell_angle_gamma 89.931300
loop_
  _atom_site_label
  _atom_site_type_symbol
  _atom_site_fract_x
  _atom_site_fract_y
  _atom_site_fract_z
N1 N 0.35913 1.34643 0.30472
 N2 N 0.34516 1.36000 0.30477
 C3 C 0.34807 1.37244 0.28941
 C4 C 0.36468 1.36620 0.27936
 C5 C 0.37141 1.34974 0.28936
 H6 H 0.33886 1.38504 0.28580
 H7 H 0.38424 1.34088 0.28577
 Cu8 Cu 0.32460 1.35996 0.32497
 Cu9 Cu 0.36038 1.32544 0.32449
 Cu10 Cu 0.32407 1.32540 0.36081
 N11 N 0.30441 1.35997 0.34553
 N12 N 0.30432 1.34639 0.35953
 C13 C 0.28898 1.34970 0.37181
 C14 C 0.27901 1.36616 0.36506
 C15 C 0.28907 1.37241 0.34843
 H16 H 0.28536 1.34083 0.38466
 H17 H 0.28549 1.38502 0.33921
 N18 N 0.34528 1.30541 0.35955
 N19 N 0.35910 1.30544 0.34571
 C20 C 0.37136 1.29000 0.34880
 C21 C 0.36486 1.27991 0.36528
 C22 C 0.34837 1.28995 0.37180
 H23 H 0.38408 1.28635 0.33979
 H24 H 0.33938 1.28626 0.38453
 H25 H 0.33047 1.32482 0.33085
 H26 H 0.34625 1.34097 0.34673
 N27 N 0.35908 0.84582 0.80484
 N28 N 0.34523 0.85950 0.80500
 C29 C 0.34804 0.87181 0.78953
 C30 C 0.36446 0.86539 0.77927
 C31 C 0.37118 0.84896 0.78930
 H32 H 0.33895 0.88451 0.78600
 H33 H 0.38394 0.84003 0.78562
 Cu34 Cu 0.32505 0.86003 0.82556
 Cu35 Cu 0.36048 0.82504 0.82477
 Cu36 Cu 0.32423 0.82499 0.86107
 N37 N 0.30452 0.85947 0.84576
 N38 N 0.30433 0.84578 0.85964
 C39 C 0.28881 0.84891 0.87174
 C40 C 0.27880 0.86536 0.86499
 C41 C 0.28907 0.87178 0.84855
 H42 H 0.28510 0.83997 0.88452
 H43 H 0.28556 0.88447 0.83943
 N44 N 0.34559 0.80518 0.85997
 N45 N 0.35941 0.80521 0.84613
 C46 C 0.37173 0.78983 0.84926
 C47 C 0.36527 0.77977 0.86578
 C48 C 0.34875 0.78978 0.87228
 H49 H 0.38441 0.78617 0.84023
 H50 H 0.33974 0.78606 0.88499
 H51 H 0.33052 0.82481 0.83108
 H52 H 0.34651 0.84059 0.84716
 N53 N 0.85971 1.34619 0.80444
 N54 N 0.84573 1.35976 0.80448
 C55 C 0.84864 1.37219 0.78911
 C56 C 0.86525 1.36593 0.77907
 C57 C 0.87199 1.34949 0.78908
 H58 H 0.83943 1.38477 0.78549
 H59 H 0.88483 1.34063 0.78549
 Cu60 Cu 0.82518 1.35973 0.82466
 Cu61 Cu 0.86096 1.32522 0.82421
 Cu62 Cu 0.82466 1.32521 0.86054
 N63 N 0.80499 1.35975 0.84522
 N64 N 0.80492 1.34620 0.85924
 C65 C 0.78956 1.34951 0.87150
 C66 C 0.77956 1.36595 0.86474
 C67 C 0.78964 1.37217 0.84811
 H68 H 0.78594 1.34066 0.88435
 H69 H 0.78603 1.38475 0.83887
 N70 N 0.84587 1.30522 0.85928
 N71 N 0.85969 1.30522 0.84544
 C72 C 0.87192 1.28977 0.84853
 C73 C 0.86541 1.27970 0.86503
 C74 C 0.84895 1.28977 0.87154
 H75 H 0.88463 1.28610 0.83952
 H76 H 0.83995 1.28610 0.88427
 H77 H 0.83103 1.32460 0.83057
 H78 H 0.84682 1.34078 0.84644
 N79 N 0.85955 0.84589 0.30441
 N80 N 0.84570 0.85958 0.30458
 C81 C 0.84853 0.87192 0.28912
 C82 C 0.86496 0.86550 0.27890
 C83 C 0.87168 0.84904 0.28889
 H84 H 0.83943 0.88463 0.28562
 H85 H 0.88445 0.84011 0.28522
 Cu86 Cu 0.82552 0.86011 0.32513
 Cu87 Cu 0.86094 0.82509 0.32432
 Cu88 Cu 0.82468 0.82504 0.36059
 N89 N 0.80497 0.85953 0.34532
 N90 N 0.80479 0.84583 0.35918
 C91 C 0.78927 0.84896 0.37129
 C92 C 0.77927 0.86542 0.36457
 C93 C 0.78953 0.87184 0.34813
 H94 H 0.78557 0.84001 0.38407
 H95 H 0.78603 0.88455 0.33903
 N96 N 0.84603 0.80521 0.35951
 N97 N 0.85986 0.80523 0.34568
 C98 C 0.87218 0.78986 0.34884
 C99 C 0.86572 0.77982 0.36537
 C100 C 0.84919 0.78982 0.37184
 H101 H 0.88488 0.78621 0.33982
 H102 H 0.84018 0.78613 0.38455
 H103 H 0.83100 0.82488 0.33058
 H104 H 0.84699 0.84064 0.34668
 N105 N 0.64046 0.65427 0.30506
 N106 N 0.65442 0.64069 0.30513
 C107 C 0.65152 0.62830 0.28976
 C108 C 0.63492 0.63454 0.27969
 C109 C 0.62821 0.65099 0.28968
 H110 H 0.66069 0.61569 0.28616
 H111 H 0.61539 0.65986 0.28605
 Cu112 Cu 0.67500 0.64071 0.32526
 Cu113 Cu 0.63920 0.67525 0.32479
 Cu114 Cu 0.67549 0.67524 0.36108
 N115 N 0.69511 0.64067 0.34584
 N116 N 0.69520 0.65424 0.35982
 C117 C 0.71057 0.65093 0.37207
 C118 C 0.72053 0.63446 0.36534
 C119 C 0.71044 0.62824 0.34874
 H120 H 0.71423 0.65979 0.38489
 H121 H 0.71402 0.61564 0.33954
 N122 N 0.65430 0.69522 0.35982
 N123 N 0.64047 0.69521 0.34599
 C124 C 0.62822 0.71064 0.34908
 C125 C 0.63474 0.72070 0.36555
 C126 C 0.65122 0.71065 0.37207
 H127 H 0.61550 0.71429 0.34008
 H128 H 0.66021 0.71432 0.38479
 H129 H 0.66916 0.67585 0.33105
 H130 H 0.65337 0.65966 0.34695
 N131 N 0.64020 0.15395 0.80443
 N132 N 0.65417 0.14036 0.80451
 C133 C 0.65124 0.12791 0.78920
 C134 C 0.63463 0.13415 0.77914
 C135 C 0.62791 0.15062 0.78910
 H136 H 0.66044 0.11531 0.78561
 H137 H 0.61508 0.15948 0.78548
 Cu138 Cu 0.67477 0.14043 0.82463
 Cu139 Cu 0.63898 0.17496 0.82414
 Cu140 Cu 0.67528 0.17499 0.86042
 N141 N 0.69492 0.14040 0.84522
 N142 N 0.69500 0.15399 0.85919
 C143 C 0.71036 0.15068 0.87146
 C144 C 0.72036 0.13422 0.86475
 C145 C 0.71027 0.12799 0.84815
 H146 H 0.71398 0.15955 0.88428
 H147 H 0.71386 0.11538 0.83896
 N148 N 0.65409 0.19498 0.85914
 N149 N 0.64026 0.19497 0.84531
 C150 C 0.62801 0.21041 0.84840
 C151 C 0.63453 0.22048 0.86488
 C152 C 0.65101 0.21041 0.87139
 H153 H 0.61529 0.21408 0.83941
 H154 H 0.66000 0.21408 0.88411
 H155 H 0.66893 0.17557 0.83043
 H156 H 0.65314 0.15940 0.84635
 N157 N 1.14075 0.65448 0.80465
 N158 N 1.15461 0.64081 0.80483
 C159 C 1.15180 0.62851 0.78937
 C160 C 1.13537 0.63491 0.77912
 C161 C 1.12865 0.65134 0.78912
 H162 H 1.16091 0.61582 0.78586
 H163 H 1.11588 0.66026 0.78543
 Cu164 Cu 1.17481 0.64029 0.82537
 Cu165 Cu 1.13935 0.67526 0.82455
 Cu166 Cu 1.17562 0.67530 0.86082
 N167 N 1.19536 0.64084 0.84556
 N168 N 1.19553 0.65452 0.85942
 C169 C 1.21107 0.65139 0.87152
 C170 C 1.22108 0.63495 0.86480
 C171 C 1.21082 0.62854 0.84837
 H172 H 1.21476 0.66032 0.88429
 H173 H 1.21432 0.61585 0.83927
 N174 N 1.15426 0.69510 0.85972
 N175 N 1.14043 0.69508 0.84589
 C176 C 1.12812 0.71046 0.84903
 C177 C 1.13460 0.72049 0.86553
 C178 C 1.15111 0.71048 0.87202
 H179 H 1.11542 0.71413 0.84001
 H180 H 1.16013 0.71418 0.88472
 H181 H 1.16930 0.67551 0.83083
 H182 H 1.15332 0.65971 0.84694
 N183 N 1.14060 0.15407 0.30494
 N184 N 1.15420 0.14014 0.30534
 C185 C 1.15112 0.12760 0.29013
 C186 C 1.13477 0.13411 0.27980
 C187 C 1.12840 0.15087 0.28950
 H188 H 1.16005 0.11476 0.28675
 H189 H 1.11584 0.16000 0.28564
 Cu190 Cu 1.17492 0.14011 0.32536
 Cu191 Cu 1.13959 0.17525 0.32449
 Cu192 Cu 1.17338 0.17277 0.36294
 N193 N 1.19532 0.14067 0.34570
 N194 N 1.19472 0.15361 0.36025
 C195 C 1.21028 0.15063 0.37234
 C196 C 1.22114 0.13506 0.36488
 C197 C 1.21134 0.12902 0.34803
 H198 H 1.21331 0.15895 0.38568
 H199 H 1.21545 0.11690 0.33841
 N200 N 1.15368 0.19409 0.36051
 N201 N 1.14091 0.19513 0.34574
 C202 C 1.12940 0.21123 0.34825
 C203 C 1.13535 0.22067 0.36530
 C204 C 1.15071 0.20955 0.37277
 H205 H 1.11744 0.21563 0.33857
 H206 H 1.15899 0.21243 0.38618
 H207 H 1.16927 0.17479 0.33276
 H208 H 1.15179 0.15817 0.34638
 N209 N 0.64075 1.34564 0.69520
 N210 N 0.65461 1.35928 0.69502
 C211 C 0.65180 1.37158 0.71049
 C212 C 0.63538 1.36521 0.72073
 C213 C 0.62865 1.34879 0.71073
 H214 H 0.66089 1.38425 0.71400
 H215 H 0.61589 1.33990 0.71443
 Cu216 Cu 0.67479 1.35973 0.67448
 Cu217 Cu 0.63934 1.32486 0.67530
 Cu218 Cu 0.67559 1.32478 0.63900
 N219 N 0.69528 1.35921 0.65426
 N220 N 0.69546 1.34553 0.64039
 C221 C 0.71097 1.34865 0.62828
 C222 C 0.72095 1.36508 0.63499
 C223 C 0.71072 1.37149 0.65144
 H224 H 0.71466 1.33972 0.61550
 H225 H 0.71422 1.38418 0.66054
 N226 N 0.65425 1.30500 0.64012
 N227 N 0.64043 1.30504 0.65396
 C228 C 0.62813 1.28969 0.65083
 C229 C 0.63461 1.27964 0.63433
 C230 C 0.65111 1.28962 0.62783
 H231 H 0.61544 1.28604 0.65987
 H232 H 0.66013 1.28591 0.61512
 H233 H 0.66926 1.32454 0.66900
 H234 H 0.65328 1.34041 0.65292
 N235 N 0.64042 0.84587 1.19502
 N236 N 0.65426 0.85954 1.19491
 C237 C 0.65139 0.87182 1.21038
 C238 C 0.63482 0.86553 1.22044
 C239 C 0.62821 0.84906 1.21046
 H240 H 0.66050 0.88447 1.21396
 H241 H 0.61540 0.84021 1.21408
 Cu242 Cu 0.67477 0.85984 1.17471
 Cu243 Cu 0.63920 0.82498 1.17526
 Cu244 Cu 0.67539 0.82495 1.13907
 N245 N 0.69497 0.85952 1.15419
 N246 N 0.69512 0.84585 1.14033
 C247 C 0.71054 0.84903 1.12812
 C248 C 0.72048 0.86551 1.13475
 C249 C 0.71040 0.87181 1.15134
 H250 H 0.71419 0.84016 1.11529
 H251 H 0.71394 0.88446 1.16048
 N252 N 0.65428 0.80499 1.14028
 N253 N 0.64045 0.80501 1.15411
 C254 C 0.62819 0.78962 1.15099
 C255 C 0.63467 0.77959 1.13447
 C256 C 0.65119 0.78959 1.12800
 H257 H 0.61544 0.78602 1.15995
 H258 H 0.66016 0.78595 1.11525
 H259 H 0.66914 0.82474 1.16910
 H260 H 0.65320 0.84076 1.15305
 N261 N 1.14068 1.34575 1.19491
 N262 N 1.15454 1.35940 1.19483
 C263 C 1.15161 1.37172 1.21024
 C264 C 1.13507 1.36540 1.22032
 C265 C 1.12844 1.34895 1.21032
 H266 H 1.16071 1.38437 1.21384
 H267 H 1.11567 1.34004 1.21396
 Cu268 Cu 1.17504 1.35972 1.17460
 Cu269 Cu 1.13948 1.32483 1.17517
 Cu270 Cu 1.17563 1.32481 1.13894
 N271 N 1.19521 1.35939 1.15405
 N272 N 1.19532 1.34574 1.14015
 C273 C 1.21068 1.34895 1.12788
 C274 C 1.22064 1.36541 1.13453
 C275 C 1.21057 1.37173 1.15111
 H276 H 1.21433 1.34003 1.11509
 H277 H 1.21414 1.38438 1.16023
 N278 N 1.15453 1.30486 1.14018
 N279 N 1.14071 1.30487 1.15401
 C280 C 1.12849 1.28945 1.15095
 C281 C 1.13500 1.27937 1.13447
 C282 C 1.15146 1.28942 1.12793
 H283 H 1.11578 1.28582 1.15997
 H284 H 1.16046 1.28575 1.11520
 H285 H 1.16941 1.32466 1.16896
 H286 H 1.15345 1.34072 1.15293
 N287 N 1.14032 0.84580 0.69490
 N288 N 1.15422 0.85941 0.69477
 C289 C 1.15134 0.87179 0.71016
 C290 C 1.13478 0.86555 0.72027
 C291 C 1.12813 0.84906 0.71034
 H292 H 1.16047 0.88443 0.71371
 H293 H 1.11533 0.84018 0.71401
 Cu294 Cu 1.17475 0.85939 0.67459
 Cu295 Cu 1.13915 0.82477 0.67521
 Cu296 Cu 1.17545 0.82476 0.63889
 N297 N 1.19491 0.85942 0.65403
 N298 N 1.19508 0.84580 0.64010
 C299 C 1.21049 0.84907 0.62790
 C300 C 1.22037 0.86558 0.63458
 C301 C 1.21025 0.87181 0.65117
 H302 H 1.21419 0.84019 0.61508
 H303 H 1.21377 0.88446 0.66033
 N304 N 1.15430 0.80475 0.64018
 N305 N 1.14047 0.80477 0.65402
 C306 C 1.12825 0.78934 0.65094
 C307 C 1.13477 0.77927 0.63446
 C308 C 1.15124 0.78931 0.62794
 H309 H 1.11552 0.78572 0.65993
 H310 H 1.16022 0.78566 0.61519
 H311 H 1.16902 0.82427 0.66883
 H312 H 1.15315 0.84033 0.65289
 N313 N 0.35914 0.65433 0.69499
 N314 N 0.34543 0.64054 0.69473
 C315 C 0.34830 0.62822 0.71020
 C316 C 0.36460 0.63474 0.72054
 C317 C 0.37119 0.65126 0.71058
 H318 H 0.33930 0.61546 0.71367
 H319 H 0.38383 0.66029 0.71436
 Cu320 Cu 0.32530 0.63993 0.67414
 Cu321 Cu 0.36041 0.67521 0.67514
 Cu322 Cu 0.32422 0.67526 0.63887
 N323 N 0.30474 0.64058 0.65397
 N324 N 0.30444 0.65438 0.64020
 C325 C 0.28888 0.65131 0.62815
 C326 C 0.27899 0.63477 0.63479
 C327 C 0.28934 0.62826 0.65114
 H328 H 0.28507 0.66034 0.61546
 H329 H 0.28592 0.61550 0.66019
 N330 N 0.34543 0.69515 0.64003
 N331 N 0.35924 0.69512 0.65388
 C332 C 0.37147 0.71054 0.65080
 C333 C 0.36497 0.72063 0.63430
 C334 C 0.34851 0.71060 0.62777
 H335 H 0.38415 0.71419 0.65983
 H336 H 0.33950 0.71430 0.61506
 H337 H 0.33049 0.67514 0.66881
 H338 H 0.34665 0.65955 0.65261
 N339 N 0.35930 0.15440 1.19500
 N340 N 0.34558 0.14062 1.19474
 C341 C 0.34842 0.12830 1.21020
 C342 C 0.36473 0.13480 1.22054
 C343 C 0.37134 0.15131 1.21059
 H344 H 0.33941 0.11555 1.21367
 H345 H 0.38400 0.16032 1.21436
 Cu346 Cu 0.32546 0.14003 1.17415
 Cu347 Cu 0.36058 0.17528 1.17516
 Cu348 Cu 0.32437 0.17532 1.13887
 N349 N 0.30493 0.14064 1.15396
 N350 N 0.30463 0.15443 1.14018
 C351 C 0.28909 0.15133 1.12811
 C352 C 0.27922 0.13480 1.13477
 C353 C 0.28955 0.12830 1.15113
 H354 H 0.28530 0.16035 1.11541
 H355 H 0.28612 0.11555 1.16019
 N356 N 0.34557 0.19522 1.14005
 N357 N 0.35938 0.19519 1.15390
 C358 C 0.37163 0.21059 1.15079
 C359 C 0.36515 0.22065 1.13428
 C360 C 0.34867 0.21064 1.12777
 H361 H 0.38433 0.21423 1.15981
 H362 H 0.33968 0.21433 1.11503
 H363 H 0.33068 0.17526 1.16883
 H364 H 0.34684 0.15967 1.15265
 N365 N 0.85957 0.65393 1.19484
 N366 N 0.84567 0.64030 1.19470
 C367 C 0.84860 0.62786 1.21003
 C368 C 0.86510 0.63414 1.22020
 C369 C 0.87177 0.65063 1.21026
 H370 H 0.83947 0.61521 1.21356
 H371 H 0.88453 0.65953 1.21396
 Cu372 Cu 0.82542 0.64034 1.17425
 Cu373 Cu 0.86078 0.67503 1.17517
 Cu374 Cu 0.82445 0.67512 1.13879
 N375 N 0.80501 0.64038 1.15397
 N376 N 0.80484 0.65405 1.14003
 C377 C 0.78945 0.65078 1.12781
 C378 C 0.77957 0.63427 1.13451
 C379 C 0.78975 0.62795 1.15104
 H380 H 0.78572 0.65970 1.11502
 H381 H 0.78626 0.61529 1.16020
 N382 N 0.84557 0.69515 1.14016
 N383 N 0.85940 0.69510 1.15401
 C384 C 0.87157 0.71058 1.15100
 C385 C 0.86501 0.72073 1.13456
 C386 C 0.84859 0.71067 1.12799
 H387 H 0.88426 0.71422 1.16002
 H388 H 0.83959 0.71439 1.11527
 H389 H 0.83097 0.67549 1.16868
 H390 H 0.84694 0.65964 1.15263
 N391 N 0.85915 0.15421 0.69505
 N392 N 0.84539 0.14047 0.69483
 C393 C 0.84821 0.12818 0.71032
 C394 C 0.86456 0.13465 0.72063
 C395 C 0.87120 0.15113 0.71064
 H396 H 0.83920 0.11543 0.71379
 H397 H 0.88390 0.16009 0.71437
 Cu398 Cu 0.82529 0.13981 0.67422
 Cu399 Cu 0.86046 0.17502 0.67517
 Cu400 Cu 0.82427 0.17511 0.63892
 N401 N 0.80470 0.14054 0.65408
 N402 N 0.80444 0.15431 0.64028
 C403 C 0.78886 0.15126 0.62823
 C404 C 0.77892 0.13477 0.63491
 C405 C 0.78925 0.12827 0.65129
 H406 H 0.78511 0.16024 0.61550
 H407 H 0.78582 0.11552 0.66034
 N408 N 0.84553 0.19495 0.64004
 N409 N 0.85934 0.19491 0.65388
 C410 C 0.87162 0.21028 0.65076
 C411 C 0.86515 0.22036 0.63425
 C412 C 0.84866 0.21036 0.62774
 H413 H 0.88432 0.21392 0.65978
 H414 H 0.83966 0.21407 0.61502
 H415 H 0.83045 0.17512 0.66896
 H416 H 0.84657 0.15954 0.65277
 N417 N 1.34617 0.35912 0.69476
 N418 N 1.35980 0.34521 0.69466
 C419 C 1.37223 0.34817 0.70999
 C420 C 1.36594 0.36474 0.72009
 C421 C 1.34944 0.37138 0.71013
 H422 H 1.38486 0.33902 0.71357
 H423 H 1.34051 0.38414 0.71381
 Cu424 Cu 1.35976 0.32455 0.67459
 Cu425 Cu 1.32513 0.36031 0.67509
 Cu426 Cu 1.32512 0.32405 0.63884
 N427 N 1.35980 0.30450 0.65393
 N428 N 1.34615 0.30439 0.64002
 C429 C 1.34942 0.28902 0.62775
 C430 C 1.36592 0.27911 0.63442
 C431 C 1.37224 0.28919 0.65098
 H432 H 1.34047 0.28533 0.61499
 H433 H 1.38488 0.28563 0.66014
 N434 N 1.30510 0.34519 0.64012
 N435 N 1.30511 0.35902 0.65395
 C436 C 1.28969 0.37128 0.65087
 C437 C 1.27961 0.36478 0.63440
 C438 C 1.28966 0.34829 0.62788
 H439 H 1.28607 0.38402 0.65986
 H440 H 1.28600 0.33931 0.61514
 H441 H 1.32471 0.33042 0.66882
 H442 H 1.34083 0.34626 0.65288
 N443 N 1.34632 0.85923 1.19540
 N444 N 1.36010 0.84547 1.19514
 C445 C 1.37247 0.84834 1.21055
 C446 C 1.36595 0.86471 1.22084
 C447 C 1.34942 0.87134 1.21093
 H448 H 1.38522 0.83930 1.21401
 H449 H 1.34039 0.88402 1.21468
 Cu450 Cu 1.36063 0.82528 1.17459
 Cu451 Cu 1.32542 0.86050 1.17562
 Cu452 Cu 1.32540 0.82425 1.13934
 N453 N 1.36009 0.80472 1.15440
 N454 N 1.34630 0.80445 1.14063
 C455 C 1.34942 0.78892 1.12852
 C456 C 1.36595 0.77902 1.13516
 C457 C 1.37245 0.78932 1.15153
 H458 H 1.34039 0.78517 1.11583
 H459 H 1.38520 0.78587 1.16057
 N460 N 1.30549 0.84550 1.14054
 N461 N 1.30550 0.85932 1.15438
 C462 C 1.29010 0.87160 1.15127
 C463 C 1.28005 0.86512 1.13477
 C464 C 1.29008 0.84862 1.12827
 H465 H 1.28644 0.88431 1.16028
 H466 H 1.28641 0.83962 1.11555
 H467 H 1.32540 0.83057 1.16931
 H468 H 1.34097 0.84670 1.15311
 N469 N 0.84620 0.35991 1.19543
 N470 N 0.85979 0.34598 1.19530
 C471 C 0.87233 0.34893 1.21053
 C472 C 0.86599 0.36542 1.22071
 C473 C 0.84948 0.37214 1.21084
 H474 H 0.88496 0.33978 1.21402
 H475 H 0.84058 0.38489 1.21459
 Cu476 Cu 0.85994 0.32566 1.17490
 Cu477 Cu 0.82516 0.36112 1.17576
 Cu478 Cu 0.82515 0.32479 1.13942
 N479 N 0.85977 0.30524 1.15460
 N480 N 0.84620 0.30511 1.14065
 C481 C 0.84947 0.28968 1.12845
 C482 C 0.86597 0.27976 1.13516
 C483 C 0.87229 0.28998 1.15165
 H484 H 0.84058 0.28592 1.11570
 H485 H 0.88491 0.28648 1.16081
 N486 N 0.80511 0.34594 1.14078
 N487 N 0.80510 0.35977 1.15462
 C488 C 0.78962 0.37197 1.15157
 C489 C 0.77953 0.36542 1.13512
 C490 C 0.78963 0.34898 1.12857
 H491 H 0.78594 0.38468 1.16058
 H492 H 0.78596 0.33998 1.11586
 H493 H 0.82480 0.33127 1.16929
 H494 H 0.84056 0.34721 1.15327
 N495 N 0.84562 0.85949 0.69509
 N496 N 0.85910 0.84543 0.69512
 C497 C 0.87147 0.84831 0.71050
 C498 C 0.86533 0.86499 0.72050
 C499 C 0.84896 0.87178 0.71043
 H500 H 0.88401 0.83906 0.71417
 H501 H 0.84019 0.88469 0.71397
 Cu502 Cu 0.85907 0.82482 0.67500
 Cu503 Cu 0.82474 0.86083 0.67526
 Cu504 Cu 0.82474 0.82453 0.63897
 N505 N 0.85911 0.80470 0.65440
 N506 N 0.84563 0.80470 0.64033
 C507 C 0.84898 0.78937 0.62805
 C508 C 0.86537 0.77932 0.63484
 C509 C 0.87150 0.78933 0.65153
 H510 H 0.84022 0.78581 0.61513
 H511 H 0.88404 0.78568 0.66079
 N512 N 0.80485 0.84582 0.64014
 N513 N 0.80486 0.85966 0.65397
 C514 C 0.78948 0.87195 0.65084
 C515 C 0.77943 0.86548 0.63434
 C516 C 0.78945 0.84896 0.62784
 H517 H 0.78582 0.88467 0.65985
 H518 H 0.78577 0.83996 0.61513
 H519 H 0.82405 0.83091 0.66895
 H520 H 0.84040 0.84663 0.65315
 N521 N 0.65438 0.64038 0.69487
 N522 N 0.64082 0.65435 0.69479
 C523 C 0.62841 0.65145 0.71015
 C524 C 0.63462 0.63483 0.72023
 C525 C 0.65104 0.62809 0.71022
 H526 H 0.61581 0.66065 0.71374
 H527 H 0.65990 0.61526 0.71387
 Cu528 Cu 0.64083 0.67493 0.67463
 Cu529 Cu 0.67537 0.63914 0.67512
 Cu530 Cu 0.67537 0.67548 0.63880
 N531 N 0.64080 0.69509 0.65405
 N532 N 0.65436 0.69520 0.64007
 C533 C 0.65100 0.71056 0.62779
 C534 C 0.63457 0.72054 0.63455
 C535 C 0.62838 0.71043 0.65118
 H536 H 0.65985 0.71424 0.61495
 H537 H 0.61578 0.71400 0.66039
 N538 N 0.69534 0.65428 0.64006
 N539 N 0.69534 0.64043 0.65390
 C540 C 0.71076 0.62818 0.65082
 C541 C 0.72083 0.63471 0.63434
 C542 C 0.71078 0.65119 0.62780
 H543 H 0.71441 0.61545 0.65983
 H544 H 0.71445 0.66020 0.61507
 H545 H 0.67593 0.66908 0.66879
 H546 H 0.65978 0.65328 0.65290
 N547 N 0.65431 1.14026 1.19574
 N548 N 0.64061 1.15411 1.19552
 C549 C 0.62828 1.15130 1.21097
 C550 C 0.63470 1.13488 1.22124
 C551 C 0.65114 1.12812 1.21126
 H552 H 0.61559 1.16042 1.21446
 H553 H 0.66008 1.11536 1.21497
 Cu554 Cu 0.63993 1.17424 1.17489
 Cu555 Cu 0.67513 1.13894 1.17588
 Cu556 Cu 0.67516 1.17522 1.13958
 N557 N 0.64065 1.19487 1.15475
 N558 N 0.65436 1.19508 1.14091
 C559 C 0.65121 1.21060 1.12877
 C560 C 0.63477 1.22061 1.13549
 C561 C 0.62835 1.21033 1.15192
 H562 H 0.66016 1.21431 1.11601
 H563 H 0.61566 1.21384 1.16103
 N564 N 0.69500 1.15391 1.14072
 N565 N 0.69499 1.14007 1.15456
 C566 C 0.71039 1.12779 1.15144
 C567 C 0.72044 1.13431 1.13494
 C568 C 0.71039 1.15080 1.12843
 H569 H 0.71408 1.11508 1.16048
 H570 H 0.71408 1.15983 1.11572
 H571 H 0.67517 1.16893 1.16961
 H572 H 0.65958 1.15283 1.15343
 N573 N 0.15404 0.64081 1.19557
 N574 N 0.14036 0.65468 1.19539
 C575 C 0.12804 0.65183 1.21085
 C576 C 0.13446 0.63538 1.22108
 C577 C 0.15090 0.62866 1.21108
 H578 H 0.11534 0.66093 1.21435
 H579 H 0.15983 0.61588 1.21475
 Cu580 Cu 0.13984 0.67489 1.17483
 Cu581 Cu 0.17482 0.63944 1.17565
 Cu582 Cu 0.17484 0.67575 1.13936
 N583 N 0.14038 0.69546 1.15463
 N584 N 0.15407 0.69565 1.14076
 C585 C 0.15094 0.71118 1.12862
 C586 C 0.13450 0.72115 1.13536
 C587 C 0.12807 0.71091 1.15181
 H588 H 0.15988 0.71486 1.11584
 H589 H 0.11537 0.71440 1.16091
 N590 N 0.19465 0.65440 1.14045
 N591 N 0.19464 0.64055 1.15428
 C592 C 0.20999 0.62822 1.15111
 C593 C 0.22000 0.63471 1.13457
 C594 C 0.21000 0.65125 1.12811
 H595 H 0.21366 0.61550 1.16013
 H596 H 0.21368 0.66028 1.11539
 H597 H 0.17504 0.66941 1.16937
 H598 H 0.15927 0.65341 1.15328
 N599 N 0.15363 1.14069 0.69530
 N600 N 0.13996 1.15457 0.69522
 C601 C 0.12762 1.15162 0.71064
 C602 C 0.13401 1.13509 0.72075
 C603 C 0.15046 1.12843 0.71074
 H604 H 0.11497 1.16075 0.71423
 H605 H 0.15940 1.11565 0.71438
 Cu606 Cu 0.13960 1.17513 0.67499
 Cu607 Cu 0.17458 1.13951 0.67554
 Cu608 Cu 0.17457 1.17565 0.63934
 N609 N 0.13995 1.19530 0.65439
 N610 N 0.15362 1.19538 0.64050
 C611 C 0.15044 1.21079 0.62821
 C612 C 0.13397 1.22077 0.63487
 C613 C 0.12759 1.21068 0.65143
 H614 H 0.15938 1.21443 0.61542
 H615 H 0.11494 1.21427 0.66056
 N616 N 0.19455 1.15450 0.64053
 N617 N 0.19454 1.14068 0.65437
 C618 C 0.20995 1.12840 0.65128
 C619 C 0.22005 1.13492 0.63479
 C620 C 0.20997 1.15140 0.62825
 H621 H 0.21360 1.11569 0.66031
 H622 H 0.21363 1.16041 0.61552
 H623 H 0.17464 1.16947 0.66941
 H624 H 0.15866 1.15349 0.65338
 N625 N 1.34608 0.64102 0.30531
 N626 N 1.35964 0.65497 0.30539
 C627 C 1.37207 0.65204 0.29004
 C628 C 1.36584 0.63546 0.27995
 C629 C 1.34941 0.62876 0.28995
 H630 H 1.38466 0.66121 0.28645
 H631 H 1.34056 0.61595 0.28630
 Cu632 Cu 1.35958 0.67557 0.32550
 Cu633 Cu 1.32510 0.63977 0.32505
 Cu634 Cu 1.32502 0.67601 0.36136
 N635 N 1.35957 0.69563 0.34615
 N636 N 1.34599 0.69572 0.36013
 C637 C 1.34928 0.71105 0.37242
 C638 C 1.36573 0.72099 0.36569
 C639 C 1.37200 0.71093 0.34908
 H640 H 1.34040 0.71470 0.38525
 H641 H 1.38461 0.71449 0.33989
 N642 N 1.30507 0.65484 0.36008
 N643 N 1.30512 0.64102 0.34624
 C644 C 1.28974 0.62875 0.34933
 C645 C 1.27965 0.63523 0.36582
 C646 C 1.28965 0.65171 0.37235
 H647 H 1.28613 0.61602 0.34033
 H648 H 1.28596 0.66069 0.38509
 H649 H 1.32444 0.66978 0.33131
 H650 H 1.34064 0.65394 0.34720
 N651 N 1.34572 1.14069 0.80486
 N652 N 1.35950 1.15440 0.80514
 C653 C 1.37181 1.15156 0.78968
 C654 C 1.36531 1.13526 0.77933
 C655 C 1.34880 1.12865 0.78927
 H656 H 1.38457 1.16057 0.78624
 H657 H 1.33978 1.11600 0.78548
 Cu658 Cu 1.36016 1.17452 0.82576
 Cu659 Cu 1.32486 1.13940 0.82470
 Cu660 Cu 1.32484 1.17562 0.86097
 N661 N 1.35950 1.19507 0.84591
 N662 N 1.34571 1.19539 0.85966
 C663 C 1.34879 1.21095 0.87171
 C664 C 1.36531 1.22083 0.86507
 C665 C 1.37182 1.21048 0.84874
 H666 H 1.33976 1.21476 0.88439
 H667 H 1.38457 1.21390 0.83970
 N668 N 1.30497 1.15441 0.85981
 N669 N 1.30498 1.14059 0.84598
 C670 C 1.28959 1.12834 0.84908
 C671 C 1.27953 1.13484 0.86557
 C672 C 1.28955 1.15132 0.87209
 H673 H 1.28593 1.11565 0.84006
 H674 H 1.28586 1.16033 0.88480
 H675 H 1.32496 1.16930 0.83099
 H676 H 1.34050 1.15310 0.84721
 N677 N 0.84592 0.64048 0.80503
 N678 N 0.85948 0.65443 0.80510
 C679 C 0.87189 0.65151 0.78973
 C680 C 0.86567 0.63493 0.77965
 C681 C 0.84922 0.62824 0.78965
 H682 H 0.88448 0.66069 0.78613
 H683 H 0.84037 0.61543 0.78602
 Cu684 Cu 0.85942 0.67500 0.82525
 Cu685 Cu 0.82494 0.63925 0.82479
 Cu686 Cu 0.82489 0.67552 0.86109
 N687 N 0.85943 0.69513 0.84584
 N688 N 0.84585 0.69522 0.85982
 C689 C 0.84914 0.71059 0.87206
 C690 C 0.86558 0.72054 0.86534
 C691 C 0.87183 0.71045 0.84874
 H692 H 0.84027 0.71424 0.88489
 H693 H 0.88442 0.71403 0.83954
 N694 N 0.80493 0.65435 0.85982
 N695 N 0.80496 0.64053 0.84599
 C696 C 0.78955 0.62829 0.84907
 C697 C 0.77947 0.63480 0.86556
 C698 C 0.78950 0.65127 0.87208
 H699 H 0.78591 0.61557 0.84007
 H700 H 0.78582 0.66027 0.88480
 H701 H 0.82432 0.66924 0.83107
 H702 H 0.84049 0.65340 0.84697
 N703 N 0.84555 1.14052 0.30472
 N704 N 0.85919 1.15438 0.30489
 C705 C 0.87153 1.15155 0.28945
 C706 C 0.86516 1.13513 0.27919
 C707 C 0.84872 1.12843 0.28919
 H708 H 0.88422 1.16063 0.28595
 H709 H 0.83979 1.11569 0.28548
 Cu710 Cu 0.85960 1.17460 0.32542
 Cu711 Cu 0.82474 1.13913 0.32465
 Cu712 Cu 0.82472 1.17541 0.36095
 N713 N 0.85917 1.19508 0.34567
 N714 N 0.84551 1.19527 0.35956
 C715 C 0.84867 1.21077 0.37168
 C716 C 0.86512 1.22072 0.36496
 C717 C 0.87151 1.21047 0.34851
 H718 H 0.83973 1.21449 0.38445
 H719 H 0.88421 1.21395 0.33941
 N720 N 0.80490 1.15411 0.35985
 N721 N 0.80492 1.14028 0.34601
 C722 C 0.78956 1.12799 0.34917
 C723 C 0.77953 1.13447 0.36570
 C724 C 0.78953 1.15098 0.37217
 H725 H 0.78589 1.11529 0.34016
 H726 H 0.78584 1.15999 0.38488
 H727 H 0.82440 1.16904 0.33095
 H728 H 0.84026 1.15304 0.34699
 N729 N 0.65390 0.35918 0.30465
 N730 N 0.64041 0.34515 0.30466
 C731 C 0.62802 0.34806 0.28927
 C732 C 0.63420 0.36472 0.27925
 C733 C 0.65058 0.37148 0.28929
 H734 H 0.61548 0.33884 0.28564
 H735 H 0.65937 0.38437 0.28573
 Cu736 Cu 0.64046 0.32455 0.32483
 Cu737 Cu 0.67479 0.36047 0.32449
 Cu738 Cu 0.67483 0.32417 0.36084
 N739 N 0.64045 0.30439 0.34545
 N740 N 0.65394 0.30436 0.35951
 C741 C 0.65062 0.28902 0.37182
 C742 C 0.63424 0.27901 0.36503
 C743 C 0.62806 0.28904 0.34834
 H744 H 0.65941 0.28545 0.38474
 H745 H 0.61551 0.28543 0.33909
 N746 N 0.69471 0.34544 0.35963
 N747 N 0.69469 0.35927 0.34578
 C748 C 0.71006 0.37154 0.34889
 C749 C 0.72011 0.36505 0.36542
 C750 C 0.71009 0.34855 0.37193
 H751 H 0.71371 0.38425 0.33986
 H752 H 0.71377 0.33954 0.38466
 H753 H 0.67549 0.33052 0.33086
 H754 H 0.65916 0.34628 0.34666
 N755 N 0.65432 0.85980 0.80514
 N756 N 0.64079 0.84583 0.80523
 C757 C 0.62837 0.84874 0.78987
 C758 C 0.63456 0.86534 0.77976
 C759 C 0.65100 0.87205 0.78975
 H760 H 0.61579 0.83956 0.78629
 H761 H 0.65983 0.88488 0.78610
 Cu762 Cu 0.64083 0.82525 0.82540
 Cu763 Cu 0.67528 0.86102 0.82491
 Cu764 Cu 0.67532 0.82468 0.86126
 N765 N 0.64082 0.80509 0.84599
 N766 N 0.65437 0.80496 0.85999
 C767 C 0.65105 0.78958 0.87224
 C768 C 0.63460 0.77965 0.86550
 C769 C 0.62840 0.78977 0.84889
 H770 H 0.65989 0.78591 0.88509
 H771 H 0.61581 0.78622 0.83968
 N772 N 0.69526 0.84587 0.85998
 N773 N 0.69524 0.85972 0.84613
 C774 C 0.71064 0.87195 0.84921
 C775 C 0.72071 0.86543 0.86569
 C776 C 0.71069 0.84895 0.87223
 H777 H 0.71428 0.88468 0.84020
 H778 H 0.71437 0.83994 0.88496
 H779 H 0.67595 0.83105 0.83126
 H780 H 0.65976 0.84686 0.84712
 N781 N 0.15415 0.35910 0.80531
 N782 N 0.14052 0.34522 0.80543
 C783 C 0.12818 0.34815 0.79001
 C784 C 0.13451 0.36468 0.77987
 C785 C 0.15094 0.37133 0.78988
 H786 H 0.11556 0.33902 0.78642
 H787 H 0.15984 0.38410 0.78621
 Cu788 Cu 0.14024 0.32472 0.82569
 Cu789 Cu 0.17508 0.36030 0.82507
 Cu790 Cu 0.17513 0.32411 0.86134
 N791 N 0.14056 0.30453 0.84625
 N792 N 0.15421 0.30440 0.86015
 C793 C 0.15101 0.28900 0.87242
 C794 C 0.13456 0.27906 0.86573
 C795 C 0.12820 0.28917 0.84917
 H796 H 0.15993 0.28534 0.88522
 H797 H 0.11557 0.28561 0.84001
 N798 N 0.19507 0.34526 0.86010
 N799 N 0.19503 0.35909 0.84624
 C800 C 0.21041 0.37136 0.84932
 C801 C 0.22050 0.36486 0.86581
 C802 C 0.21048 0.34837 0.87236
 H803 H 0.21402 0.38407 0.84029
 H804 H 0.21416 0.33938 0.88510
 H805 H 0.17530 0.33033 0.83130
 H806 H 0.15930 0.34631 0.84732
 N807 N 0.15408 0.85885 0.30524
 N808 N 0.14047 0.84497 0.30543
 C809 C 0.12805 0.84785 0.29004
 C810 C 0.13442 0.86430 0.27978
 C811 C 0.15089 0.87097 0.28973
 H812 H 0.11541 0.83874 0.28653
 H813 H 0.15982 0.88369 0.28597
 Cu814 Cu 0.14055 0.82458 0.32579
 Cu815 Cu 0.17499 0.86019 0.32507
 Cu816 Cu 0.17506 0.82381 0.36146
 N817 N 0.14052 0.80422 0.34619
 N818 N 0.15416 0.80400 0.36009
 C819 C 0.15100 0.78848 0.37222
 C820 C 0.13452 0.77859 0.36548
 C821 C 0.12811 0.78886 0.34903
 H822 H 0.15995 0.78471 0.38495
 H823 H 0.11546 0.78539 0.33988
 N824 N 0.19492 0.84512 0.36024
 N825 N 0.19488 0.85896 0.34639
 C826 C 0.21019 0.87130 0.34955
 C827 C 0.22021 0.86484 0.36609
 C828 C 0.21026 0.84830 0.37257
 H829 H 0.21380 0.88405 0.34056
 H830 H 0.21393 0.83932 0.38533
 H831 H 0.17566 0.83025 0.33147
 H832 H 0.15967 0.84612 0.34741
 O833 O 1.07175 1.01909 1.09849
 O834 O 1.09473 1.01914 1.12168
 C835 C 1.07870 1.02593 1.11458
 C836 C 1.06841 1.04243 1.12473
 C837 C 1.07611 1.05038 1.14235
 H838 H 1.08919 1.04399 1.14908
 O839 O 0.92852 0.98039 1.09887
 O840 O 0.90553 0.98049 1.12205
 C841 C 0.92153 0.97360 1.11499
 C842 C 0.93176 0.95710 1.12523
 C843 C 0.92402 0.94915 1.14285
 H844 H 0.91091 0.95554 1.14952
 O845 O 1.01946 1.09864 1.07139
 O846 O 1.01944 1.12165 1.09455
 C847 C 1.02625 1.11468 1.07845
 C848 C 1.04268 1.12491 1.06819
 C849 C 1.05061 1.14249 1.07595
 H850 H 1.04424 1.14914 1.08910
 O851 O 0.98086 0.90135 1.07173
 O852 O 0.98082 0.87826 1.09485
 C853 C 0.97404 0.88530 1.07874
 C854 C 0.95760 0.87513 1.06843
 C855 C 0.94968 0.85750 1.07612
 H856 H 0.95607 0.85077 1.08923
 O857 O 1.09862 1.07167 1.01922
 O858 O 1.12173 1.09466 1.01927
 C859 C 1.11468 1.07862 1.02608
 C860 C 1.12486 1.06830 1.04259
 C861 C 1.14240 1.07602 1.05061
 H862 H 1.14905 1.08917 1.04427
 O863 O 0.90139 0.92843 1.01947
 O864 O 0.87834 0.90538 1.01951
 C865 C 0.88536 0.92142 1.02633
 C866 C 0.87517 0.93168 1.04285
 C867 C 0.85760 0.92399 1.05086
 H868 H 0.85089 0.91090 1.04447
 O869 O 0.98090 1.07136 1.09845
 O870 O 0.98088 1.09433 1.12165
 C871 C 0.97409 1.07830 1.11457
 C872 C 0.95767 1.06801 1.12480
 C873 C 0.94978 1.07570 1.14246
 H874 H 0.95615 1.08881 1.14914
 O875 O 1.01943 0.92845 1.09885
 O876 O 1.01945 0.90543 1.12203
 C877 C 1.02626 0.92146 1.11494
 C878 C 1.04277 0.93171 1.12508
 C879 C 1.05066 0.92406 1.14277
 H880 H 1.04419 0.91105 1.14958
 O881 O 1.09906 0.98046 1.07156
 O882 O 1.12209 0.98048 1.09469
 C883 C 1.11510 0.97365 1.07862
 C884 C 1.12529 0.95715 1.06839
 C885 C 1.14287 0.94917 1.07612
 H886 H 1.14961 0.95559 1.08919
 O887 O 0.90152 1.01919 1.07169
 O888 O 0.87849 1.01929 1.09483
 C889 C 0.88551 1.02608 1.07874
 C890 C 0.87534 1.04260 1.06848
 C891 C 0.85778 1.05059 1.07625
 H892 H 0.85110 1.04420 1.08939
 O893 O 0.92850 1.09863 1.01938
 O894 O 0.90546 1.12174 1.01943
 C895 C 0.92151 1.11468 1.02623
 C896 C 0.93178 1.12484 1.04273
 C897 C 0.92406 1.14240 1.05078
 H898 H 0.91092 1.14910 1.04445
 O899 O 1.07164 0.90111 1.01987
 O900 O 1.09470 0.87802 1.01973
 C901 C 1.07868 0.88504 1.02665
 C902 C 1.06847 0.87483 1.04319
 C903 C 1.07619 0.85723 1.05120
 H904 H 1.08930 0.85053 1.04483
 O905 O 0.92876 1.01906 1.09868
 O906 O 0.90577 1.01919 1.12187
 C907 C 0.92182 1.02593 1.11477
 C908 C 0.93212 1.04238 1.12492
 C909 C 0.92449 1.05032 1.14259
 H910 H 0.91145 1.04392 1.14938
 O911 O 1.07183 0.98041 1.09856
 O912 O 1.09481 0.98044 1.12175
 C913 C 1.07879 0.97361 1.11468
 C914 C 1.06850 0.95717 1.12493
 C915 C 1.07616 0.94924 1.14261
 H916 H 1.08929 0.95556 1.14929
 O917 O 1.01949 0.90110 1.07200
 O918 O 1.01948 0.87802 1.09513
 C919 C 1.02632 0.88504 1.07905
 C920 C 1.04282 0.87483 1.06882
 C921 C 1.05078 0.85723 1.07657
 H922 H 1.04437 0.85052 1.08968
 O923 O 0.98083 1.09857 1.07139
 O924 O 0.98080 1.12157 1.09455
 C925 C 0.97399 1.11459 1.07847
 C926 C 0.95748 1.12479 1.06827
 C927 C 0.94952 1.14236 1.07606
 H928 H 0.95596 1.14904 1.08916
 O929 O 0.90147 1.07153 1.01943
 O930 O 0.87838 1.09459 1.01946
 C931 C 0.88544 1.07853 1.02629
 C932 C 0.87529 1.06826 1.04283
 C933 C 0.85774 1.07600 1.05086
 H934 H 0.85103 1.08912 1.04449
 O935 O 1.09876 0.92816 1.01974
 O936 O 1.12187 0.90512 1.01958
 C937 C 1.11487 0.92116 1.02645
 C938 C 1.12516 0.93142 1.04288
 C939 C 1.14274 0.92367 1.05085
 H940 H 1.14937 0.91051 1.04451
 O941 O 0.98076 0.92823 1.09908
 O942 O 0.98075 0.90520 1.12225
 C943 C 0.97392 0.92123 1.11517
 C944 C 0.95740 0.93149 1.12533
 C945 C 0.94941 0.92379 1.14296
 H946 H 0.95579 0.91070 1.14972
 O947 O 1.01953 1.07139 1.09841
 O948 O 1.01951 1.09436 1.12160
 C949 C 1.02634 1.07834 1.11451
 C950 C 1.04282 1.06806 1.12470
 C951 C 1.05076 1.07576 1.14232
 H952 H 1.04437 1.08887 1.14903
 O953 O 0.90146 0.98052 1.07169
 O954 O 0.87843 0.98059 1.09482
 C955 C 0.88542 0.97375 1.07874
 C956 C 0.87520 0.95730 1.06849
 C957 C 0.85763 0.94936 1.07624
 H958 H 0.85095 0.95576 1.08936
 O959 O 1.09884 1.01912 1.07138
 O960 O 1.12187 1.01919 1.09452
 C961 C 1.11484 1.02600 1.07842
 C962 C 1.12495 1.04255 1.06817
 C963 C 1.14249 1.05053 1.07593
 H964 H 1.14922 1.04411 1.08903
 O965 O 0.92863 0.90145 1.01945
 O966 O 0.90564 0.87835 1.01949
 C967 C 0.92168 0.88539 1.02629
 C968 C 0.93199 0.87518 1.04277
 C969 C 0.92433 0.85755 1.05072
 H970 H 0.91125 0.85085 1.04432
 O971 O 1.07154 1.09880 1.01915
 O972 O 1.09459 1.12185 1.01922
 C973 C 1.07853 1.11483 1.02601
 C974 C 1.06826 1.12499 1.04252
 C975 C 1.07594 1.14257 1.05051
 H976 H 1.08902 1.14929 1.04412
 Cu977 Cu 1.08308 0.99975 1.08268
 Cu978 Cu 1.11068 0.99982 1.11048
 Cu979 Cu 0.91736 0.99977 1.08291
 Cu980 Cu 0.88975 0.99990 1.11072
 Cu981 Cu 1.00019 1.08269 1.08258
 Cu982 Cu 1.00015 1.11028 1.11042
 Cu983 Cu 1.00013 0.91709 1.08311
 Cu984 Cu 1.00012 0.88942 1.11089
 C985 C 1.05163 1.05125 1.11613
 H986 H 1.04580 1.04542 1.10237
 C987 C 1.06735 1.06699 1.15107
 C988 C 0.94859 0.94829 1.11670
 H989 H 0.95445 0.95412 1.10295
 C990 C 0.93277 0.93255 1.15164
 C991 C 1.05148 1.11640 1.05133
 H992 H 1.04567 1.10268 1.04546
 C993 C 1.06718 1.15124 1.06717
 C994 C 0.94877 0.88373 1.05160
 H995 H 0.95457 0.89749 1.04578
 C996 C 0.93311 0.84880 1.06733
 C997 C 1.11637 1.05141 1.05135
 H998 H 1.10268 1.04555 1.04547
 C999 C 1.15113 1.06722 1.06723
 C1000 C 0.88373 0.94849 1.05163
 H1001 H 0.89745 0.95432 1.04576
 C1002 C 0.84890 0.93279 1.06748
 C1003 C 0.94886 1.05121 1.11625
 H1004 H 0.95463 1.04541 1.10245
 C1005 C 0.93323 1.06694 1.15127
 C1006 C 1.05168 0.94840 1.11639
 H1007 H 1.04589 0.95419 1.10257
 C1008 C 1.06730 0.93274 1.15144
 C1009 C 1.11669 0.94831 1.05162
 H1010 H 1.10297 0.95418 1.04576
 C1011 C 1.15152 0.93249 1.06741
 C1012 C 0.88386 1.05142 1.05162
 H1013 H 0.89756 1.04556 1.04573
 C1014 C 0.84906 1.06723 1.06751
 C1015 C 0.94863 1.11627 1.05145
 H1016 H 0.95447 1.10256 1.04555
 C1017 C 0.93287 1.15109 1.06739
 C1018 C 1.05165 0.88338 1.05199
 H1019 H 1.04580 0.89712 1.04612
 C1020 C 1.06740 0.84850 1.06783
 O1021 O 1.07128 0.98099 0.90124
 O1022 O 1.09436 0.98085 0.87814
 C1023 C 1.07830 0.97410 0.88519
 C1024 C 1.06809 0.95759 0.87504
 C1025 C 1.07586 0.94959 0.85747
 H1026 H 1.08894 0.95598 0.85074
 O1027 O 0.92872 1.01944 0.90146
 O1028 O 0.90573 1.01951 0.87829
 C1029 C 0.92175 1.02630 0.88538
 C1030 C 0.93200 1.04280 0.87519
 C1031 C 0.92430 1.05073 0.85754
 H1032 H 0.91124 1.04432 0.85082
 O1033 O 0.98089 1.09892 0.92849
 O1034 O 0.98073 1.12201 0.90538
 C1035 C 0.97399 1.11495 0.92148
 C1036 C 0.95748 1.12507 0.93176
 C1037 C 0.94950 1.14268 0.92406
 H1038 H 0.95591 1.14945 0.91098
 O1039 O 1.01933 0.90149 0.92862
 O1040 O 1.01942 0.87842 0.90553
 C1041 C 1.02618 0.88544 0.92162
 C1042 C 1.04264 0.87523 0.93193
 C1043 C 1.05066 0.85770 0.92413
 H1044 H 1.04435 0.85107 0.91094
 O1045 O 1.09833 0.92846 0.98102
 O1046 O 1.12146 0.90543 0.98082
 C1047 C 1.11436 0.92151 0.97407
 C1048 C 1.12447 0.93186 0.95756
 C1049 C 1.14215 0.92427 0.94966
 H1050 H 1.14892 0.91121 0.95608
 O1051 O 0.90142 1.07159 0.98069
 O1052 O 0.87832 1.09465 0.98068
 C1053 C 0.88537 1.07860 0.97386
 C1054 C 0.87520 1.06836 0.95734
 C1055 C 0.85764 1.07610 0.94932
 H1056 H 0.85092 1.08920 0.95570
 O1057 O 1.01951 1.07192 0.90120
 O1058 O 1.01938 1.09496 0.87803
 C1059 C 1.02626 1.07893 0.88508
 C1060 C 1.04273 1.06869 0.87485
 C1061 C 1.05073 1.07646 0.85726
 H1062 H 1.04437 1.08961 0.85059
 O1063 O 0.98071 0.92858 0.90138
 O1064 O 0.98077 0.90554 0.87825
 C1065 C 0.97393 0.92158 0.88529
 C1066 C 0.95746 0.93184 0.87506
 C1067 C 0.94950 0.92409 0.85746
 H1068 H 0.95587 0.91097 0.85079
 O1069 O 1.09848 1.01957 0.92829
 O1070 O 1.12159 1.01945 0.90523
 C1071 C 1.11456 1.02631 0.92128
 C1072 C 1.12479 1.04275 0.93154
 C1073 C 1.14238 1.05065 0.92379
 H1074 H 1.14906 1.04425 0.91066
 O1075 O 0.90155 0.98075 0.92848
 O1076 O 0.87850 0.98081 0.90536
 C1077 C 0.88552 0.97396 0.92145
 C1078 C 0.87532 0.95748 0.93171
 C1079 C 0.85773 0.94958 0.92399
 H1080 H 0.85103 0.95600 0.91088
 O1081 O 1.07170 1.09895 0.98041
 O1082 O 1.09476 1.12199 0.98043
 C1083 C 1.07873 1.11500 0.97357
 C1084 C 1.06851 1.12520 0.95701
 C1085 C 1.07627 1.14273 0.94894
 H1086 H 1.08940 1.14939 0.95527
 O1087 O 0.92850 0.90138 0.98072
 O1088 O 0.90550 0.87827 0.98072
 C1089 C 0.92152 0.88533 0.97388
 C1090 C 0.93179 0.87517 0.95736
 C1091 C 0.92410 0.85760 0.94934
 H1092 H 0.91101 0.85089 0.95571
 O1093 O 0.92859 0.98076 0.90129
 O1094 O 0.90559 0.98082 0.87813
 C1095 C 0.92161 0.97397 0.88519
 C1096 C 0.93186 0.95748 0.87500
 C1097 C 0.92414 0.94948 0.85740
 H1098 H 0.91104 0.95585 0.85069
 O1099 O 1.07143 1.01967 0.90111
 O1100 O 1.09450 1.01956 0.87801
 C1101 C 1.07848 1.02646 0.88502
 C1102 C 1.06830 1.04301 0.87480
 C1103 C 1.07605 1.05104 0.85721
 H1104 H 1.08915 1.04464 0.85050
 O1105 O 0.98069 0.90145 0.92851
 O1106 O 0.98076 0.87837 0.90543
 C1107 C 0.97391 0.88540 0.92149
 C1108 C 0.95742 0.87521 0.93173
 C1109 C 0.94948 0.85764 0.92396
 H1110 H 0.95588 0.85097 0.91083
 O1111 O 1.01955 1.09904 0.92830
 O1112 O 1.01942 1.12212 0.90517
 C1113 C 1.02632 1.11509 0.92123
 C1114 C 1.04285 1.12525 0.93141
 C1115 C 1.05084 1.14278 0.92359
 H1116 H 1.04445 1.14948 0.91046
 O1117 O 0.90148 0.92854 0.98074
 O1118 O 0.87842 0.90550 0.98073
 C1119 C 0.88545 0.92155 0.97390
 C1120 C 0.87529 0.93184 0.95738
 C1121 C 0.85770 0.92418 0.94941
 H1122 H 0.85098 0.91109 0.95580
 O1123 O 1.09863 1.07169 0.98049
 O1124 O 1.12175 1.09467 0.98049
 C1125 C 1.11469 1.07865 0.97367
 C1126 C 1.12485 1.06836 0.95717
 C1127 C 1.14244 1.07602 0.94918
 H1128 H 1.14915 1.08910 0.95555
 O1129 O 1.01933 0.92858 0.90142
 O1130 O 1.01941 0.90555 0.87829
 C1131 C 1.02618 0.92160 0.88534
 C1132 C 1.04261 0.93189 0.87512
 C1133 C 1.05064 0.92413 0.85755
 H1134 H 1.04435 0.91098 0.85088
 O1135 O 0.98088 1.07180 0.90140
 O1136 O 0.98072 1.09483 0.87822
 C1137 C 0.97398 1.07877 0.88532
 C1138 C 0.95752 1.06847 0.87517
 C1139 C 0.94956 1.07614 0.85752
 H1140 H 0.95589 1.08925 0.85078
 O1141 O 0.90151 1.01942 0.92847
 O1142 O 0.87847 1.01950 0.90534
 C1143 C 0.88548 1.02627 0.92144
 C1144 C 0.87527 1.04276 0.93169
 C1145 C 0.85771 1.05075 0.92392
 H1146 H 0.85106 1.04438 0.91077
 O1147 O 1.09822 0.98091 0.92851
 O1148 O 1.12134 0.98077 0.90546
 C1149 C 1.11426 0.97401 0.92155
 C1150 C 1.12442 0.95752 0.93189
 C1151 C 1.14209 0.94967 0.92426
 H1152 H 1.14882 0.95611 0.91118
 O1153 O 1.07143 0.90123 0.98112
 O1154 O 1.09450 0.87815 0.98093
 C1155 C 1.07842 0.88521 0.97419
 C1156 C 1.06816 0.87510 0.95766
 C1157 C 1.07592 0.85756 0.94961
 H1158 H 1.08900 0.85083 0.95601
 O1159 O 0.92852 1.09863 0.98065
 O1160 O 0.90548 1.12175 0.98066
 C1161 C 0.92152 1.11471 0.97383
 C1162 C 0.93178 1.12493 0.95734
 C1163 C 0.92404 1.14253 0.94936
 H1164 H 0.91090 1.14918 0.95571
 Cu1165 Cu 1.08254 1.00031 0.91709
 Cu1166 Cu 1.11026 1.00013 0.88940
 Cu1167 Cu 0.91739 1.00008 0.91724
 Cu1168 Cu 0.88977 1.00017 0.88946
 Cu1169 Cu 1.08281 1.08298 0.99981
 Cu1170 Cu 1.11052 1.11060 0.99986
 Cu1171 Cu 1.08273 0.91704 1.00047
 Cu1172 Cu 1.11044 0.88937 1.00024
 Cu1173 Cu 0.91728 1.08278 1.00003
 Cu1174 Cu 0.88959 1.11049 1.00006
 Cu1175 Cu 0.91730 0.91726 1.00010
 Cu1176 Cu 0.88967 0.88956 1.00012
 Cu1177 Cu 1.00023 1.08312 0.91717
 Cu1178 Cu 1.00004 1.11080 0.88938
 Cu1179 Cu 1.00001 0.91733 0.91730
 Cu1180 Cu 1.00010 0.88966 0.88956
 C1181 C 1.05131 0.94877 0.88363
 H1182 H 1.04542 0.95465 0.89735
 C1183 C 1.06721 0.93293 0.84880
 C1184 C 0.94876 1.05165 0.88378
 H1185 H 0.95459 1.04583 0.89756
 C1186 C 0.93301 1.06733 0.84879
 C1187 C 0.94864 1.11643 0.94855
 H1188 H 0.95449 1.10268 0.95438
 C1189 C 0.93283 1.15132 0.93278
 C1190 C 1.05136 0.88370 0.94884
 H1191 H 1.04548 0.89740 0.95475
 C1192 C 1.06724 0.84895 0.93291
 C1193 C 1.11581 0.94862 0.94868
 H1194 H 1.10200 0.95436 0.95445
 C1195 C 1.15086 0.93310 0.93306
 C1196 C 0.88378 1.05154 0.94855
 H1197 H 0.89748 1.04567 0.95444
 C1198 C 0.84896 1.06735 0.93267
 C1199 C 1.05150 1.05182 0.88337
 H1200 H 1.04562 1.04593 0.89709
 C1201 C 1.06733 1.06771 0.84851
 C1202 C 0.94867 0.94868 0.88358
 H1203 H 0.95452 0.95455 0.89732
 C1204 C 0.93289 0.93284 0.84872
 C1205 C 1.11626 1.05157 0.94838
 H1206 H 1.10254 1.04576 0.95425
 C1207 C 1.15112 1.06723 0.93255
 C1208 C 0.88387 0.94863 0.94854
 H1209 H 0.89761 0.95442 0.95438
 C1210 C 0.84900 0.93298 0.93277
 C1211 C 1.05166 1.11671 0.94827
 H1212 H 1.04577 1.10303 0.95420
 C1213 C 1.06749 1.15145 0.93229
 C1214 C 0.94860 0.88373 0.94857
 H1215 H 0.95443 0.89744 0.95446
 C1216 C 0.93289 0.84891 0.93271
 O1217 O 0.98070 0.42827 0.40096
 O1218 O 0.98082 0.40521 0.37786
 C1219 C 0.97393 0.42123 0.38489
 C1220 C 0.95738 0.43140 0.37469
 C1221 C 0.94934 0.42355 0.35718
 H1222 H 0.95573 0.41043 0.35051
 O1223 O 1.01970 0.57136 0.40094
 O1224 O 1.01958 0.59438 0.37776
 C1225 C 1.02648 0.57838 0.38484
 C1226 C 1.04302 0.56819 0.37466
 C1227 C 1.05100 0.57596 0.35706
 H1228 H 1.04457 0.58905 0.35034
 O1229 O 0.90130 0.48022 0.42812
 O1230 O 0.87827 0.48037 0.40499
 C1231 C 0.88525 0.47348 0.42107
 C1232 C 0.87501 0.45701 0.43131
 C1233 C 0.85747 0.44904 0.42353
 H1234 H 0.85082 0.45541 0.41037
 O1235 O 1.09891 0.51920 0.42834
 O1236 O 1.12200 0.51913 0.40525
 C1237 C 1.11497 0.52597 0.42132
 C1238 C 1.12513 0.54246 0.43158
 C1239 C 1.14272 0.55041 0.42386
 H1240 H 1.14947 0.54399 0.41078
 O1241 O 0.92842 0.40129 0.48040
 O1242 O 0.90547 0.37814 0.48044
 C1243 C 0.92148 0.38521 0.47360
 C1244 C 0.93179 0.37503 0.45711
 C1245 C 0.92419 0.35739 0.44918
 H1246 H 0.91111 0.35066 0.45556
 O1247 O 1.07161 0.59859 0.48035
 O1248 O 1.09462 0.62168 0.48036
 C1249 C 1.07860 0.61465 0.47351
 C1250 C 1.06832 0.62484 0.45699
 C1251 C 1.07594 0.64249 0.44903
 H1252 H 1.08899 0.64923 0.45543
 O1253 O 0.92868 0.51884 0.40121
 O1254 O 0.90570 0.51901 0.37803
 C1255 C 0.92174 0.52574 0.38513
 C1256 C 0.93204 0.54222 0.37497
 C1257 C 0.92426 0.55027 0.35741
 H1258 H 0.91113 0.54396 0.35073
 O1259 O 1.07165 0.48068 0.40126
 O1260 O 1.09468 0.48057 0.37812
 C1261 C 1.07862 0.47383 0.38518
 C1262 C 1.06833 0.45738 0.37500
 C1263 C 1.07609 0.44938 0.35742
 H1264 H 1.08921 0.45573 0.35073
 O1265 O 1.01933 0.40127 0.42829
 O1266 O 1.01945 0.37818 0.40523
 C1267 C 1.02618 0.38521 0.42133
 C1268 C 1.04259 0.37498 0.43169
 C1269 C 1.05053 0.35736 0.42400
 H1270 H 1.04420 0.35069 0.41085
 O1271 O 0.98094 0.59835 0.42808
 O1272 O 0.98082 0.62142 0.40494
 C1273 C 0.97405 0.61438 0.42104
 C1274 C 0.95755 0.62454 0.43131
 C1275 C 0.94958 0.64215 0.42359
 H1276 H 0.95596 0.64887 0.41047
 O1277 O 0.90164 0.57125 0.48039
 O1278 O 0.87854 0.59430 0.48036
 C1279 C 0.88559 0.57825 0.47355
 C1280 C 0.87540 0.56799 0.45705
 C1281 C 0.85782 0.57574 0.44908
 H1282 H 0.85114 0.58886 0.45546
 O1283 O 1.09866 0.42807 0.48054
 O1284 O 1.12173 0.40499 0.48053
 C1285 C 1.11469 0.42104 0.47367
 C1286 C 1.12487 0.43128 0.45712
 C1287 C 1.14244 0.42352 0.44911
 H1288 H 1.14911 0.41039 0.45549
 O1289 O 0.98104 0.57110 0.40112
 O1290 O 0.98090 0.59412 0.37794
 C1291 C 0.97415 0.57806 0.38505
 C1292 C 0.95766 0.56780 0.37491
 C1293 C 0.94962 0.57558 0.35735
 H1294 H 0.95596 0.58870 0.35063
 O1295 O 1.01936 0.42849 0.40121
 O1296 O 1.01950 0.40544 0.37810
 C1297 C 1.02625 0.42150 0.38515
 C1298 C 1.04273 0.43178 0.37498
 C1299 C 1.05076 0.42404 0.35740
 H1300 H 1.04441 0.41093 0.35069
 O1301 O 1.09884 0.48049 0.42827
 O1302 O 1.12193 0.48040 0.40518
 C1303 C 1.11486 0.47358 0.42125
 C1304 C 1.12495 0.45698 0.43149
 C1305 C 1.14251 0.44896 0.42375
 H1306 H 1.14924 0.45536 0.41065
 O1307 O 0.90145 0.51889 0.42820
 O1308 O 0.87842 0.51907 0.40507
 C1309 C 0.88545 0.52582 0.42117
 C1310 C 0.87533 0.54234 0.43144
 C1311 C 0.85775 0.55034 0.42372
 H1312 H 0.85103 0.54397 0.41062
 O1313 O 0.92874 0.59831 0.48039
 O1314 O 0.90568 0.62140 0.48034
 C1315 C 0.92173 0.61436 0.47353
 C1316 C 0.93197 0.62454 0.45700
 C1317 C 0.92426 0.64216 0.44903
 H1318 H 0.91118 0.64888 0.45545
 O1319 O 1.07143 0.40114 0.48072
 O1320 O 1.09446 0.37801 0.48068
 C1321 C 1.07840 0.38507 0.47389
 C1322 C 1.06811 0.37490 0.45742
 C1323 C 1.07580 0.35728 0.44948
 H1324 H 1.08886 0.35053 0.45591
 O1325 O 1.07196 0.51935 0.40105
 O1326 O 1.09500 0.51927 0.37792
 C1327 C 1.07898 0.52615 0.38495
 C1328 C 1.06874 0.54266 0.37472
 C1329 C 1.07647 0.55069 0.35712
 H1330 H 1.08962 0.54436 0.35044
 O1331 O 0.92841 0.48018 0.40100
 O1332 O 0.90543 0.48031 0.37782
 C1333 C 0.92143 0.47342 0.38490
 C1334 C 0.93166 0.45692 0.37471
 C1335 C 0.92386 0.44882 0.35720
 H1336 H 0.91069 0.45511 0.35054
 O1337 O 1.01958 0.59844 0.42810
 O1338 O 1.01947 0.62151 0.40496
 C1339 C 1.02632 0.61452 0.42105
 C1340 C 1.04273 0.62478 0.43132
 C1341 C 1.05059 0.64242 0.42361
 H1342 H 1.04417 0.64912 0.41049
 O1343 O 0.98070 0.40132 0.42825
 O1344 O 0.98081 0.37821 0.40519
 C1345 C 0.97394 0.38525 0.42125
 C1346 C 0.95747 0.37505 0.43151
 C1347 C 0.94961 0.35740 0.42383
 H1348 H 0.95607 0.35068 0.41076
 O1349 O 1.09871 0.57147 0.48039
 O1350 O 1.12178 0.59450 0.48041
 C1351 C 1.11477 0.57846 0.47358
 C1352 C 1.12501 0.56817 0.45713
 C1353 C 1.14258 0.57588 0.44915
 H1354 H 1.14922 0.58902 0.45550
 O1355 O 0.90117 0.42823 0.48039
 O1356 O 0.87816 0.40515 0.48044
 C1357 C 0.88514 0.42120 0.47357
 C1358 C 0.87495 0.43142 0.45703
 C1359 C 0.85741 0.42369 0.44901
 H1360 H 0.85072 0.41060 0.45541
 Cu1361 Cu 1.00001 0.41715 0.41698
 Cu1362 Cu 1.00017 0.38945 0.38927
 Cu1363 Cu 1.00034 0.58251 0.41688
 Cu1364 Cu 1.00018 0.61016 0.38907
 Cu1365 Cu 0.91725 0.49950 0.41695
 Cu1366 Cu 0.88965 0.49972 0.38915
 Cu1367 Cu 1.08304 0.49995 0.41704
 Cu1368 Cu 1.11072 0.49983 0.38931
 C1369 C 0.94857 0.44823 0.38321
 H1370 H 0.95450 0.45419 0.39687
 C1371 C 0.93265 0.43220 0.34851
 C1372 C 1.05187 0.55139 0.38324
 H1373 H 1.04600 0.54550 0.39697
 C1374 C 1.06767 0.56729 0.34837
 C1375 C 0.88350 0.44823 0.44820
 H1376 H 0.89719 0.45409 0.45410
 C1377 C 0.84874 0.43244 0.43232
 C1378 C 1.11652 0.55131 0.44836
 H1379 H 1.10280 0.54548 0.45421
 C1380 C 1.15135 0.56708 0.43257
 C1381 C 0.94857 0.38363 0.44829
 H1382 H 0.95432 0.39741 0.45409
 C1383 C 0.93303 0.34866 0.43260
 C1384 C 1.05158 0.61623 0.44815
 H1385 H 1.04582 0.60246 0.45399
 C1386 C 1.06714 0.65120 0.43239
 C1387 C 0.94889 0.55096 0.38349
 H1388 H 0.95479 0.54505 0.39721
 C1389 C 0.93298 0.56689 0.34869
 C1390 C 1.05150 0.44860 0.38355
 H1391 H 1.04562 0.45448 0.39727
 C1392 C 1.06738 0.43277 0.34871
 C1393 C 1.05135 0.38352 0.44855
 H1394 H 1.04554 0.39728 0.45436
 C1395 C 1.06709 0.34860 0.43282
 C1396 C 0.94876 0.61597 0.44815
 H1397 H 0.95460 0.60222 0.45400
 C1398 C 0.93300 0.65088 0.43239
 C1399 C 0.88391 0.55114 0.44826
 H1400 H 0.89763 0.54526 0.45411
 C1401 C 0.84907 0.56697 0.43248
 C1402 C 1.11636 0.44816 0.44832
 H1403 H 1.10267 0.45405 0.45419
 C1404 C 1.15118 0.43229 0.43249
 O1405 O 1.01934 0.42825 0.59864
 O1406 O 1.01934 0.40518 0.62178
 C1407 C 1.02614 0.42124 0.61474
 C1408 C 1.04259 0.43149 0.62496
 C1409 C 1.05053 0.42373 0.64258
 H1410 H 1.04415 0.41063 0.64928
 O1411 O 0.98080 0.57128 0.59856
 O1412 O 0.98075 0.59432 0.62169
 C1413 C 0.97396 0.57827 0.61464
 C1414 C 0.95750 0.56800 0.62486
 C1415 C 0.94951 0.57575 0.64245
 H1416 H 0.95585 0.58888 0.64912
 O1417 O 0.90166 0.51903 0.57153
 O1418 O 0.87856 0.51911 0.59460
 C1419 C 0.88561 0.52589 0.57851
 C1420 C 0.87544 0.54236 0.56819
 C1421 C 0.85785 0.55034 0.57589
 H1422 H 0.85115 0.54398 0.58903
 O1423 O 1.09859 0.48037 0.57156
 O1424 O 1.12167 0.48033 0.59464
 C1425 C 1.11464 0.47354 0.57857
 C1426 C 1.12483 0.45706 0.56829
 C1427 C 1.14242 0.44908 0.57600
 H1428 H 1.14911 0.45544 0.58913
 O1429 O 1.07170 0.40100 0.51946
 O1430 O 1.09474 0.37788 0.51946
 C1431 C 1.07872 0.38494 0.52632
 C1432 C 1.06850 0.37477 0.54290
 C1433 C 1.07626 0.35721 0.55097
 H1434 H 1.08938 0.35052 0.54462
 O1435 O 0.92865 0.59838 0.51915
 O1436 O 0.90558 0.62147 0.51912
 C1437 C 0.92161 0.61443 0.52598
 C1438 C 0.93182 0.62462 0.54251
 C1439 C 0.92405 0.64220 0.55049
 H1440 H 0.91095 0.64889 0.54409
 O1441 O 0.92863 0.48030 0.59877
 O1442 O 0.90558 0.48035 0.62189
 C1443 C 0.92160 0.47348 0.61485
 C1444 C 0.93181 0.45695 0.62505
 C1445 C 0.92404 0.44894 0.64263
 H1446 H 0.91094 0.45532 0.64932
 O1447 O 1.07150 0.51906 0.59868
 O1448 O 1.09454 0.51904 0.62181
 C1449 C 1.07850 0.52587 0.61476
 C1450 C 1.06826 0.54237 0.62495
 C1451 C 1.07598 0.55032 0.64256
 H1452 H 1.08907 0.54392 0.64927
 O1453 O 0.98080 0.40119 0.57140
 O1454 O 0.98076 0.37806 0.59448
 C1455 C 0.97397 0.38513 0.57840
 C1456 C 0.95750 0.37498 0.56811
 C1457 C 0.94956 0.35739 0.57584
 H1458 H 0.95595 0.35066 0.58895
 O1459 O 1.01941 0.59842 0.57141
 O1460 O 1.01938 0.62151 0.59450
 C1461 C 1.02620 0.61448 0.57842
 C1462 C 1.04266 0.62468 0.56814
 C1463 C 1.05058 0.64227 0.57587
 H1464 H 1.04419 0.64896 0.58900
 O1465 O 0.90132 0.42835 0.51912
 O1466 O 0.87830 0.40528 0.51923
 C1467 C 0.88531 0.42135 0.52601
 C1468 C 0.87517 0.43163 0.54254
 C1469 C 0.85756 0.42400 0.55052
 H1470 H 0.85081 0.41095 0.54412
 O1471 O 1.09858 0.57137 0.51911
 O1472 O 1.12167 0.59438 0.51918
 C1473 C 1.11462 0.57832 0.52598
 C1474 C 1.12477 0.56800 0.54249
 C1475 C 1.14236 0.57566 0.55048
 H1476 H 1.14908 0.58875 0.54409
 O1477 O 1.01943 0.57134 0.59861
 O1478 O 1.01941 0.59437 0.62174
 C1479 C 1.02623 0.57832 0.61470
 C1480 C 1.04269 0.56804 0.62492
 C1481 C 1.05066 0.57575 0.64253
 H1482 H 1.04431 0.58888 0.64922
 O1483 O 0.98070 0.42805 0.59876
 O1484 O 0.98068 0.40497 0.62189
 C1485 C 0.97387 0.42102 0.61484
 C1486 C 0.95737 0.43127 0.62504
 C1487 C 0.94935 0.42350 0.64262
 H1488 H 0.95569 0.41036 0.64931
 O1489 O 1.09850 0.51905 0.57145
 O1490 O 1.12159 0.51903 0.59453
 C1491 C 1.11455 0.52586 0.57844
 C1492 C 1.12473 0.54234 0.56815
 C1493 C 1.14232 0.55025 0.57588
 H1494 H 1.14901 0.54383 0.58900
 O1495 O 0.90162 0.48037 0.57155
 O1496 O 0.87852 0.48043 0.59462
 C1497 C 0.88554 0.47361 0.57855
 C1498 C 0.87530 0.45719 0.56825
 C1499 C 0.85769 0.44931 0.57597
 H1500 H 0.85102 0.45570 0.58911
 O1501 O 1.07156 0.59854 0.51909
 O1502 O 1.09458 0.62162 0.51915
 C1503 C 1.07854 0.61457 0.52596
 C1504 C 1.06827 0.62473 0.54248
 C1505 C 1.07595 0.64231 0.55047
 H1506 H 1.08903 0.64902 0.54409
 O1507 O 0.92846 0.40129 0.51913
 O1508 O 0.90550 0.37815 0.51922
 C1509 C 0.92153 0.38522 0.52600
 C1510 C 0.93185 0.37504 0.54249
 C1511 C 0.92417 0.35745 0.55049
 H1512 H 0.91106 0.35076 0.54413
 O1513 O 1.07147 0.48039 0.59868
 O1514 O 1.09451 0.48034 0.62182
 C1515 C 1.07847 0.47355 0.61477
 C1516 C 1.06820 0.45706 0.62498
 C1517 C 1.07591 0.44904 0.64260
 H1518 H 1.08901 0.45538 0.64931
 O1519 O 0.92873 0.51899 0.59869
 O1520 O 0.90568 0.51907 0.62181
 C1521 C 0.92172 0.52585 0.61475
 C1522 C 0.93195 0.54236 0.62492
 C1523 C 0.92422 0.55036 0.64252
 H1524 H 0.91113 0.54399 0.64925
 O1525 O 0.98076 0.59844 0.57146
 O1526 O 0.98070 0.62152 0.59454
 C1527 C 0.97390 0.61448 0.57847
 C1528 C 0.95740 0.62464 0.56819
 C1529 C 0.94938 0.64221 0.57592
 H1530 H 0.95573 0.64891 0.58906
 O1531 O 1.01946 0.40100 0.57167
 O1532 O 1.01944 0.37789 0.59476
 C1533 C 1.02630 0.38494 0.57871
 C1534 C 1.04284 0.37478 0.56851
 C1535 C 1.05084 0.35723 0.57632
 H1536 H 1.04445 0.35054 0.58945
 O1537 O 1.09861 0.42824 0.51930
 O1538 O 1.12170 0.40517 0.51931
 C1539 C 1.11466 0.42123 0.52612
 C1540 C 1.12485 0.43149 0.54261
 C1541 C 1.14245 0.42378 0.55056
 H1542 H 1.14917 0.41069 0.54414
 O1543 O 0.90166 0.57121 0.51913
 O1544 O 0.87856 0.59426 0.51911
 C1545 C 0.88561 0.57821 0.52595
 C1546 C 0.87543 0.56795 0.54247
 C1547 C 0.85784 0.57567 0.55042
 H1548 H 0.85113 0.58876 0.54400
 Cu1549 Cu 1.00008 0.41693 0.58281
 Cu1550 Cu 1.00005 0.38921 0.61054
 Cu1551 Cu 1.00011 0.58257 0.58270
 Cu1552 Cu 1.00006 0.61024 0.61043
 Cu1553 Cu 0.91713 0.41710 0.49975
 Cu1554 Cu 0.88955 0.38936 0.49985
 Cu1555 Cu 1.08280 0.41692 0.50001
 Cu1556 Cu 1.11047 0.38920 0.49999
 Cu1557 Cu 0.91749 0.58248 0.49977
 Cu1558 Cu 0.88978 0.61017 0.49973
 Cu1559 Cu 1.08281 0.58270 0.49972
 Cu1560 Cu 1.11047 0.61036 0.49978
 Cu1561 Cu 0.91747 0.49966 0.58283
 Cu1562 Cu 0.88978 0.49975 0.61055
 Cu1563 Cu 1.08271 0.49972 0.58279
 Cu1564 Cu 1.11039 0.49969 0.61051
 C1565 C 1.05139 0.44831 0.61640
 H1566 H 1.04555 0.45419 0.60266
 C1567 C 1.06714 0.43243 0.65132
 C1568 C 0.94875 0.55115 0.61633
 H1569 H 0.95462 0.54528 0.60260
 C1570 C 0.93293 0.56699 0.65121
 C1571 C 0.88400 0.55114 0.55133
 H1572 H 0.89773 0.54529 0.54549
 C1573 C 0.84913 0.56694 0.56708
 C1574 C 1.11628 0.44829 0.55144
 H1575 H 1.10255 0.45413 0.54561
 C1576 C 1.15116 0.43251 0.56720
 C1577 C 1.05165 0.38331 0.55165
 H1578 H 1.04576 0.39700 0.54573
 C1579 C 1.06748 0.34852 0.56762
 C1580 C 0.94863 0.61608 0.55135
 H1581 H 0.95452 0.60237 0.54549
 C1582 C 0.93277 0.65092 0.56714
 C1583 C 0.94862 0.44814 0.61650
 H1584 H 0.95452 0.45403 0.60278
 C1585 C 0.93275 0.43228 0.65134
 C1586 C 1.05147 0.55120 0.61637
 H1587 H 1.04562 0.54536 0.60262
 C1588 C 1.06726 0.56696 0.65126
 C1589 C 0.94866 0.38358 0.55128
 H1590 H 0.95448 0.39732 0.54542
 C1591 C 0.93294 0.34871 0.56711
 C1592 C 1.05148 0.61615 0.55130
 H1593 H 1.04567 0.60242 0.54544
 C1594 C 1.06717 0.65100 0.56711
 C1595 C 0.88381 0.44837 0.55139
 H1596 H 0.89755 0.45415 0.54554
 C1597 C 0.84890 0.43277 0.56718
 C1598 C 1.11619 0.55119 0.55131
 H1599 H 1.10245 0.54540 0.54546
 C1600 C 1.15104 0.56686 0.56713
 O1601 O 0.57140 1.01968 0.59893
 O1602 O 0.59447 1.01959 0.62202
 C1603 C 0.57845 1.02648 0.61499
 C1604 C 0.56829 1.04304 0.62518
 C1605 C 0.57611 1.05108 0.64270
 H1606 H 0.58924 1.04471 0.64938
 O1607 O 0.42825 0.98084 0.59845
 O1608 O 0.40527 0.98085 0.62165
 C1609 C 0.42130 0.97404 0.61457
 C1610 C 0.43160 0.95760 0.62481
 C1611 C 0.42396 0.94972 0.64250
 H1612 H 0.41088 0.95613 0.64923
 O1613 O 0.51927 1.09883 0.57148
 O1614 O 0.51923 1.12189 0.59459
 C1615 C 0.52605 1.11488 0.57850
 C1616 C 0.54249 1.12509 0.56820
 C1617 C 0.55049 1.14262 0.57597
 H1618 H 0.54417 1.14928 0.58914
 O1619 O 0.48053 0.90157 0.57144
 O1620 O 0.48055 0.87849 0.59457
 C1621 C 0.47374 0.88551 0.57847
 C1622 C 0.45732 0.87529 0.56820
 C1623 C 0.44936 0.85773 0.57601
 H1624 H 0.45572 0.85108 0.58918
 O1625 O 0.59834 1.07183 0.51918
 O1626 O 0.62148 1.09479 0.51919
 C1627 C 0.61439 1.07877 0.52603
 C1628 C 0.62454 1.06846 0.54256
 C1629 C 0.64216 1.07607 0.55051
 H1630 H 0.64890 1.08915 0.54411
 O1631 O 0.40127 0.92842 0.51914
 O1632 O 0.37819 0.90540 0.51927
 C1633 C 0.38525 0.92145 0.52605
 C1634 C 0.37510 0.93174 0.54258
 C1635 C 0.35758 0.92400 0.55066
 H1636 H 0.35091 0.91086 0.54434
 O1637 O 0.48077 1.07154 0.59856
 O1638 O 0.48065 1.09454 0.62172
 C1639 C 0.47390 1.07849 0.61463
 C1640 C 0.45742 1.06819 0.62478
 C1641 C 0.44950 1.07582 0.64245
 H1642 H 0.45592 1.08885 0.64924
 O1643 O 0.51909 0.92870 0.59859
 O1644 O 0.51912 0.90565 0.62175
 C1645 C 0.52591 0.92170 0.61469
 C1646 C 0.54234 0.93197 0.62491
 C1647 C 0.55030 0.92422 0.64253
 H1648 H 0.54396 0.91109 0.64921
 O1649 O 0.59828 0.98091 0.57168
 O1650 O 0.62139 0.98080 0.59473
 C1651 C 0.61432 0.97403 0.57867
 C1652 C 0.62448 0.95753 0.56838
 C1653 C 0.64205 0.94952 0.57612
 H1654 H 0.64873 0.95586 0.58926
 O1655 O 0.40105 1.01952 0.57137
 O1656 O 0.37802 1.01953 0.59452
 C1657 C 0.38502 1.02636 0.57843
 C1658 C 0.37485 1.04289 0.56820
 C1659 C 0.35727 1.05086 0.57594
 H1660 H 0.35054 1.04443 0.58902
 O1661 O 0.42845 1.09894 0.51949
 O1662 O 0.40537 1.12200 0.51941
 C1663 C 0.42140 1.11498 0.52631
 C1664 C 0.43158 1.12515 0.54287
 C1665 C 0.42377 1.14266 0.55095
 H1666 H 0.41064 1.14934 0.54459
 O1667 O 0.57138 0.90166 0.51922
 O1668 O 0.59440 0.87853 0.51927
 C1669 C 0.57836 0.88559 0.52607
 C1670 C 0.56810 0.87540 0.54259
 C1671 C 0.57584 0.85782 0.55060
 H1672 H 0.58895 0.85113 0.54423
 O1673 O 0.42836 1.01948 0.59830
 O1674 O 0.40538 1.01951 0.62149
 C1675 C 0.42142 1.02629 0.61441
 C1676 C 0.43173 1.04270 0.62465
 C1677 C 0.42405 1.05060 0.64231
 H1678 H 0.41093 1.04425 0.64899
 O1679 O 0.57111 0.98100 0.59874
 O1680 O 0.59417 0.98087 0.62184
 C1681 C 0.57811 0.97412 0.61480
 C1682 C 0.56786 0.95763 0.62498
 C1683 C 0.57557 0.94963 0.64260
 H1684 H 0.58864 0.95601 0.64934
 O1685 O 0.51916 0.90161 0.57146
 O1686 O 0.51920 0.87852 0.59458
 C1687 C 0.52600 0.88556 0.57850
 C1688 C 0.54249 0.87540 0.56824
 C1689 C 0.55048 0.85783 0.57601
 H1690 H 0.54412 0.85113 0.58915
 O1691 O 0.48063 1.09894 0.57170
 O1692 O 0.48055 1.12199 0.59481
 C1693 C 0.47375 1.11496 0.57874
 C1694 C 0.45720 1.12512 0.56852
 C1695 C 0.44915 1.14263 0.57634
 H1696 H 0.45550 1.14929 0.58948
 O1697 O 0.40131 1.07193 0.51945
 O1698 O 0.37817 1.09495 0.51932
 C1699 C 0.38521 1.07891 0.52620
 C1700 C 0.37495 1.06863 0.54265
 C1701 C 0.35737 1.07637 0.55063
 H1702 H 0.35072 1.08953 0.54428
 O1703 O 0.59837 0.92880 0.51924
 O1704 O 0.62144 0.90571 0.51929
 C1705 C 0.61439 0.92176 0.52611
 C1706 C 0.62452 0.93198 0.54267
 C1707 C 0.64209 0.92422 0.55066
 H1708 H 0.64881 0.91114 0.54425
 O1709 O 0.48047 0.92868 0.59856
 O1710 O 0.48048 0.90564 0.62173
 C1711 C 0.47366 0.92169 0.61465
 C1712 C 0.45721 0.93197 0.62485
 C1713 C 0.44931 0.92433 0.64254
 H1714 H 0.45571 0.91125 0.64929
 O1715 O 0.51941 1.07194 0.59886
 O1716 O 0.51932 1.09495 0.62201
 C1717 C 0.52620 1.07894 0.61495
 C1718 C 0.54273 1.06872 0.62515
 C1719 C 0.55079 1.07651 0.64269
 H1720 H 0.54447 1.08967 0.64936
 O1721 O 0.40122 0.98083 0.57127
 O1722 O 0.37820 0.98082 0.59442
 C1723 C 0.38522 0.97399 0.57834
 C1724 C 0.37508 0.95745 0.56814
 C1725 C 0.35756 0.94946 0.57595
 H1726 H 0.35087 0.95587 0.58907
 O1727 O 0.59823 1.01959 0.57154
 O1728 O 0.62135 1.01950 0.59459
 C1729 C 0.61429 1.02635 0.57852
 C1730 C 0.62449 1.04281 0.56822
 C1731 C 0.64213 1.05066 0.57590
 H1732 H 0.64883 1.04422 0.58900
 O1733 O 0.42843 0.90137 0.51908
 O1734 O 0.40540 0.87830 0.51923
 C1735 C 0.42146 0.88534 0.52599
 C1736 C 0.43175 0.87520 0.54251
 C1737 C 0.42405 0.85764 0.55057
 H1738 H 0.41097 0.85092 0.54421
 O1739 O 0.57125 1.09892 0.51910
 O1740 O 0.59433 1.12194 0.51913
 C1741 C 0.57827 1.11495 0.52594
 C1742 C 0.56803 1.12512 0.54247
 C1743 C 0.57577 1.14266 0.55048
 H1744 H 0.58886 1.14936 0.54407
 Cu1745 Cu 0.58244 1.00031 0.58292
 Cu1746 Cu 0.61016 1.00017 0.61061
 Cu1747 Cu 0.41701 1.00017 0.58252
 Cu1748 Cu 0.38941 1.00018 0.61033
 Cu1749 Cu 0.50004 1.08301 0.58284
 Cu1750 Cu 0.49992 1.11065 0.61060
 Cu1751 Cu 0.49981 0.91745 0.58270
 Cu1752 Cu 0.49984 0.88976 0.61048
 C1753 C 0.55145 1.05183 0.61665
 H1754 H 0.54551 1.04591 0.60298
 C1755 C 0.56742 1.06775 0.65140
 C1756 C 0.44837 0.94875 0.61622
 H1757 H 0.45415 0.95453 0.60240
 C1758 C 0.43274 0.93313 0.65128
 C1759 C 0.55124 1.11657 0.55131
 H1760 H 0.54537 1.10288 0.54543
 C1761 C 0.56707 1.15133 0.56716
 C1762 C 0.44854 0.88379 0.55130
 H1763 H 0.45438 0.89749 0.54538
 C1764 C 0.43279 0.84899 0.56725
 C1765 C 0.61592 1.05169 0.55141
 H1766 H 0.60215 1.04594 0.54560
 C1767 C 0.65088 1.06724 0.56712
 C1768 C 0.38362 0.94861 0.55130
 H1769 H 0.39729 0.95447 0.54537
 C1770 C 0.34889 0.93280 0.56728
 C1771 C 0.44856 1.05148 0.61610
 H1772 H 0.45436 1.04571 0.60230
 C1773 C 0.43285 1.06712 0.65112
 C1774 C 0.55109 0.94882 0.61638
 H1775 H 0.54525 0.95469 0.60262
 C1776 C 0.56685 0.93299 0.65130
 C1777 C 0.61594 0.94877 0.55151
 H1778 H 0.60223 0.95465 0.54565
 C1779 C 0.65077 0.93293 0.56732
 C1780 C 0.38344 1.05174 0.55141
 H1781 H 0.39716 1.04588 0.54555
 C1782 C 0.34860 1.06754 0.56722
 C1783 C 0.44845 1.11662 0.55164
 H1784 H 0.45438 1.10296 0.54571
 C1785 C 0.43250 1.15132 0.56762
 C1786 C 0.55127 0.88395 0.55138
 H1787 H 0.54539 0.89766 0.54549
 C1788 C 0.56709 0.84911 0.56725
 O1789 O 0.57106 0.98083 0.40123
 O1790 O 0.59406 0.98079 0.37806
 C1791 C 0.57803 0.97399 0.38515
 C1792 C 0.56779 0.95750 0.37498
 C1793 C 0.57558 0.94951 0.35741
 H1794 H 0.58867 0.95590 0.35071
 O1795 O 0.42869 1.01910 0.40123
 O1796 O 0.40564 1.01935 0.37812
 C1797 C 0.42172 1.02604 0.38518
 C1798 C 0.43199 1.04254 0.37502
 C1799 C 0.42427 1.05052 0.35740
 H1800 H 0.41122 1.04410 0.35066
 O1801 O 0.48064 1.09898 0.42837
 O1802 O 0.48050 1.12202 0.40520
 C1803 C 0.47375 1.11501 0.42132
 C1804 C 0.45728 1.12519 0.43161
 C1805 C 0.44927 1.14276 0.42385
 H1806 H 0.45561 1.14945 0.41069
 O1807 O 0.51888 0.90139 0.42832
 O1808 O 0.51909 0.87829 0.40526
 C1809 C 0.52581 0.88537 0.42135
 C1810 C 0.54233 0.87527 0.43166
 C1811 C 0.55033 0.85766 0.42401
 H1812 H 0.54394 0.85088 0.41094
 O1813 O 0.59856 0.92867 0.48048
 O1814 O 0.62164 0.90560 0.48051
 C1815 C 0.61462 0.92165 0.47366
 C1816 C 0.62480 0.93191 0.45713
 C1817 C 0.64244 0.92426 0.44920
 H1818 H 0.64921 0.91121 0.45565
 O1819 O 0.40168 1.07165 0.48072
 O1820 O 0.37853 1.09466 0.48058
 C1821 C 0.38562 1.07859 0.47383
 C1822 C 0.37546 1.06825 0.45736
 C1823 C 0.35778 1.07588 0.44948
 H1824 H 0.35105 1.08895 0.45590
 O1825 O 0.51932 1.07193 0.40122
 O1826 O 0.51921 1.09493 0.37801
 C1827 C 0.52609 1.07891 0.38510
 C1828 C 0.54255 1.06866 0.37488
 C1829 C 0.55058 1.07646 0.35732
 H1830 H 0.54428 1.08964 0.35068
 O1831 O 0.48024 0.92828 0.40094
 O1832 O 0.48039 0.90524 0.37782
 C1833 C 0.47350 0.92127 0.38484
 C1834 C 0.45700 0.93149 0.37461
 C1835 C 0.44896 0.92370 0.35707
 H1836 H 0.45530 0.91055 0.35040
 O1837 O 0.59826 1.01944 0.42828
 O1838 O 0.62129 1.01943 0.40514
 C1839 C 0.61429 1.02624 0.42124
 C1840 C 0.62450 1.04270 0.43150
 C1841 C 0.64210 1.05060 0.42377
 H1842 H 0.64880 1.04418 0.41066
 O1843 O 0.40134 0.98048 0.42817
 O1844 O 0.37824 0.98070 0.40510
 C1845 C 0.38526 0.97377 0.42115
 C1846 C 0.37503 0.95730 0.43140
 C1847 C 0.35745 0.94937 0.42365
 H1848 H 0.35077 0.95577 0.41052
 O1849 O 0.57144 1.09907 0.48036
 O1850 O 0.59452 1.12209 0.48034
 C1851 C 0.57848 1.11510 0.47351
 C1852 C 0.56823 1.12531 0.45698
 C1853 C 0.57594 1.14287 0.44892
 H1854 H 0.58907 1.14955 0.45525
 O1855 O 0.42817 0.90119 0.48034
 O1856 O 0.40515 0.87812 0.48044
 C1857 C 0.42116 0.88514 0.47355
 C1858 C 0.43137 0.87495 0.45700
 C1859 C 0.42363 0.85740 0.44898
 H1860 H 0.41053 0.85072 0.45535
 O1861 O 0.42831 0.98042 0.40092
 O1862 O 0.40526 0.98064 0.37781
 C1863 C 0.42126 0.97369 0.38482
 C1864 C 0.43142 0.95715 0.37459
 C1865 C 0.42361 0.94911 0.35705
 H1866 H 0.41048 0.95548 0.35038
 O1867 O 0.57127 1.01952 0.40105
 O1868 O 0.59426 1.01950 0.37787
 C1869 C 0.57826 1.02636 0.38496
 C1870 C 0.56806 1.04292 0.37479
 C1871 C 0.57583 1.05097 0.35722
 H1872 H 0.58892 1.04457 0.35050
 O1873 O 0.48023 0.90121 0.42813
 O1874 O 0.48039 0.87811 0.40506
 C1875 C 0.47349 0.88514 0.42110
 C1876 C 0.45699 0.87494 0.43134
 C1877 C 0.44901 0.85739 0.42358
 H1878 H 0.45540 0.85070 0.41045
 O1879 O 0.51929 1.09906 0.42830
 O1880 O 0.51918 1.12210 0.40514
 C1881 C 0.52605 1.11511 0.42122
 C1882 C 0.54255 1.12532 0.43140
 C1883 C 0.55049 1.14289 0.42360
 H1884 H 0.54406 1.14959 0.41049
 O1885 O 0.40120 0.92840 0.48040
 O1886 O 0.37811 0.90539 0.48049
 C1887 C 0.38515 0.92142 0.47361
 C1888 C 0.37497 0.93168 0.45708
 C1889 C 0.35740 0.92400 0.44910
 H1890 H 0.35069 0.91091 0.45551
 O1891 O 0.59831 1.07173 0.48044
 O1892 O 0.62145 1.09469 0.48041
 C1893 C 0.61438 1.07867 0.47361
 C1894 C 0.62454 1.06835 0.45712
 C1895 C 0.64213 1.07599 0.44913
 H1896 H 0.64885 1.08908 0.45550
 O1897 O 0.51886 0.92850 0.40116
 O1898 O 0.51907 0.90545 0.37804
 C1899 C 0.52579 0.92152 0.38511
 C1900 C 0.54227 0.93183 0.37496
 C1901 C 0.55033 0.92409 0.35739
 H1902 H 0.54403 0.91096 0.35069
 O1903 O 0.48070 1.07171 0.40140
 O1904 O 0.48057 1.09470 0.37818
 C1905 C 0.47385 1.07864 0.38529
 C1906 C 0.45745 1.06828 0.37509
 C1907 C 0.44946 1.07599 0.35747
 H1908 H 0.45576 1.08914 0.35077
 O1909 O 0.40157 1.01916 0.42835
 O1910 O 0.37847 1.01940 0.40529
 C1911 C 0.38554 1.02610 0.42139
 C1912 C 0.37541 1.04259 0.43174
 C1913 C 0.35775 1.05050 0.42411
 H1914 H 0.35099 1.04409 0.41104
 O1915 O 0.59840 0.98077 0.42814
 O1916 O 0.62143 0.98075 0.40501
 C1917 C 0.61444 0.97394 0.42111
 C1918 C 0.62469 0.95748 0.43140
 C1919 C 0.64231 0.94957 0.42369
 H1920 H 0.64897 0.95595 0.41055
 O1921 O 0.57131 0.90175 0.48049
 O1922 O 0.59434 0.87863 0.48052
 C1923 C 0.57830 0.88568 0.47369
 C1924 C 0.56802 0.87544 0.45724
 C1925 C 0.57576 0.85784 0.44932
 H1926 H 0.58889 0.85119 0.45570
 O1927 O 0.42850 1.09899 0.48073
 O1928 O 0.40541 1.12205 0.48061
 C1929 C 0.42148 1.11502 0.47384
 C1930 C 0.43172 1.12520 0.45731
 C1931 C 0.42397 1.14278 0.44931
 H1932 H 0.41088 1.14949 0.45571
 Cu1933 Cu 0.58244 1.00014 0.41699
 Cu1934 Cu 0.61006 1.00011 0.38919
 Cu1935 Cu 0.41728 0.99975 0.41697
 Cu1936 Cu 0.38959 1.00006 0.38926
 Cu1937 Cu 0.58252 1.08310 0.49976
 Cu1938 Cu 0.61026 1.11068 0.49977
 Cu1939 Cu 0.58261 0.91754 0.49984
 Cu1940 Cu 0.61027 0.88980 0.49990
 Cu1941 Cu 0.41730 1.08308 0.50012
 Cu1942 Cu 0.38956 1.11073 0.49996
 Cu1943 Cu 0.41707 0.91715 0.49972
 Cu1944 Cu 0.38940 0.88949 0.49988
 Cu1945 Cu 0.50000 1.08313 0.41715
 Cu1946 Cu 0.49984 1.11075 0.38931
 Cu1947 Cu 0.49952 0.91715 0.41694
 Cu1948 Cu 0.49977 0.88945 0.38923
 C1949 C 0.55097 0.94869 0.38351
 H1950 H 0.54507 0.95456 0.39724
 C1951 C 0.56692 0.93288 0.34869
 C1952 C 0.44874 1.05139 0.38364
 H1953 H 0.45459 1.04554 0.39739
 C1954 C 0.43292 1.06719 0.34872
 C1955 C 0.44852 1.11664 0.44849
 H1956 H 0.45440 1.10292 0.45436
 C1957 C 0.43267 1.15148 0.43263
 C1958 C 0.55116 0.88394 0.44843
 H1959 H 0.54530 0.89768 0.45423
 C1960 C 0.56699 0.84904 0.43276
 C1961 C 0.61617 0.94867 0.44825
 H1962 H 0.60241 0.95446 0.45407
 C1963 C 0.65112 0.93302 0.43252
 C1964 C 0.38405 1.05146 0.44850
 H1965 H 0.39785 1.04568 0.45427
 C1966 C 0.34903 1.06709 0.43290
 C1967 C 0.55126 1.05174 0.38337
 H1968 H 0.54536 1.04582 0.39707
 C1969 C 0.56716 1.06768 0.34857
 C1970 C 0.44826 0.94836 0.38312
 H1971 H 0.45418 0.95427 0.39680
 C1972 C 0.43231 0.93244 0.34837
 C1973 C 0.61595 1.05155 0.44832
 H1974 H 0.60222 1.04576 0.45419
 C1975 C 0.65084 1.06718 0.43252
 C1976 C 0.38355 0.94847 0.44825
 H1977 H 0.39726 0.95429 0.45412
 C1978 C 0.34871 0.93278 0.43245
 C1979 C 0.55140 1.11678 0.44824
 H1980 H 0.54556 1.10307 0.45415
 C1981 C 0.56713 1.15160 0.43229
 C1982 C 0.44819 0.88347 0.44820
 H1983 H 0.45406 0.89715 0.45410
 C1984 C 0.43240 0.84869 0.43234
 O1985 O 0.48073 0.42848 0.90124
 O1986 O 0.48079 0.40546 0.87811
 C1987 C 0.47393 0.42148 0.88516
 C1988 C 0.45742 0.43171 0.87496
 C1989 C 0.44943 0.42394 0.85739
 H1990 H 0.45585 0.41085 0.85069
 O1991 O 0.51925 0.57153 0.90145
 O1992 O 0.51921 0.59461 0.87833
 C1993 C 0.52605 0.57856 0.88536
 C1994 C 0.54252 0.56833 0.87514
 C1995 C 0.55047 0.57610 0.85753
 H1996 H 0.54407 0.58921 0.85084
 O1997 O 0.40139 0.48057 0.92838
 O1998 O 0.37830 0.48069 0.90531
 C1999 C 0.38533 0.47381 0.92136
 C2000 C 0.37514 0.45732 0.93162
 C2001 C 0.35757 0.44936 0.92389
 H2002 H 0.35086 0.45576 0.91077
 O2003 O 0.59860 0.51941 0.92852
 O2004 O 0.62167 0.51941 0.90542
 C2005 C 0.61464 0.52622 0.92150
 C2006 C 0.62483 0.54268 0.93177
 C2007 C 0.64239 0.55065 0.92402
 H2008 H 0.64907 0.54429 0.91088
 O2009 O 0.42859 0.40145 0.98066
 O2010 O 0.40562 0.37831 0.98073
 C2011 C 0.42164 0.38537 0.97387
 C2012 C 0.43191 0.37517 0.95736
 C2013 C 0.42420 0.35760 0.94937
 H2014 H 0.41110 0.35091 0.95576
 O2015 O 0.57152 0.59857 0.98078
 O2016 O 0.59453 0.62166 0.98075
 C2017 C 0.57851 0.61462 0.97392
 C2018 C 0.56826 0.62479 0.95739
 C2019 C 0.57595 0.64238 0.94937
 H2020 H 0.58905 0.64907 0.95575
 O2021 O 0.42859 0.51923 0.90135
 O2022 O 0.40555 0.51937 0.87822
 C2023 C 0.42160 0.52612 0.88528
 C2024 C 0.43185 0.54262 0.87511
 C2025 C 0.42416 0.55059 0.85747
 H2026 H 0.41111 0.54419 0.85072
 O2027 O 0.57149 0.48079 0.90141
 O2028 O 0.59451 0.48079 0.87826
 C2029 C 0.57848 0.47399 0.88531
 C2030 C 0.56822 0.45754 0.87508
 C2031 C 0.57593 0.44965 0.85743
 H2032 H 0.58901 0.45605 0.85072
 O2033 O 0.51942 0.40140 0.92841
 O2034 O 0.51949 0.37833 0.90532
 C2035 C 0.52627 0.38535 0.92140
 C2036 C 0.54274 0.37515 0.93170
 C2037 C 0.55074 0.35758 0.92396
 H2038 H 0.54441 0.35091 0.91081
 O2039 O 0.48066 0.59860 0.92869
 O2040 O 0.48059 0.62172 0.90560
 C2041 C 0.47382 0.61467 0.92170
 C2042 C 0.45736 0.62486 0.93200
 C2043 C 0.44937 0.64244 0.92424
 H2044 H 0.45572 0.64913 0.91109
 O2045 O 0.40150 0.57154 0.98104
 O2046 O 0.37837 0.59456 0.98092
 C2047 C 0.38546 0.57851 0.97414
 C2048 C 0.37534 0.56822 0.95761
 C2049 C 0.35773 0.57591 0.94964
 H2050 H 0.35099 0.58899 0.95603
 O2051 O 0.59851 0.42842 0.98076
 O2052 O 0.62158 0.40535 0.98076
 C2053 C 0.61455 0.42141 0.97392
 C2054 C 0.62473 0.43167 0.95740
 C2055 C 0.64232 0.42396 0.94941
 H2056 H 0.64901 0.41083 0.95579
 O2057 O 0.48062 0.57156 0.90149
 O2058 O 0.48057 0.59463 0.87836
 C2059 C 0.47379 0.57857 0.88541
 C2060 C 0.45736 0.56830 0.87518
 C2061 C 0.44941 0.57603 0.85754
 H2062 H 0.45575 0.58915 0.85085
 O2063 O 0.51937 0.42857 0.90130
 O2064 O 0.51946 0.40555 0.87816
 C2065 C 0.52622 0.42161 0.88522
 C2066 C 0.54266 0.43192 0.87503
 C2067 C 0.55062 0.42428 0.85737
 H2068 H 0.54426 0.41120 0.85062
 O2069 O 0.59855 0.48073 0.92856
 O2070 O 0.62162 0.48071 0.90546
 C2071 C 0.61458 0.47389 0.92154
 C2072 C 0.62474 0.45736 0.93179
 C2073 C 0.64234 0.44941 0.92407
 H2074 H 0.64905 0.45584 0.91097
 O2075 O 0.40161 0.51924 0.92861
 O2076 O 0.37853 0.51939 0.90553
 C2077 C 0.38558 0.52614 0.92162
 C2078 C 0.37541 0.54262 0.93194
 C2079 C 0.35781 0.55057 0.92422
 H2080 H 0.35112 0.54419 0.91110
 O2081 O 0.42852 0.59867 0.98108
 O2082 O 0.40544 0.62174 0.98095
 C2083 C 0.42151 0.61471 0.97419
 C2084 C 0.43178 0.62488 0.95768
 C2085 C 0.42404 0.64246 0.94966
 H2086 H 0.41093 0.64916 0.95604
 O2087 O 0.57149 0.40130 0.98080
 O2088 O 0.59451 0.37817 0.98082
 C2089 C 0.57849 0.38524 0.97397
 C2090 C 0.56827 0.37508 0.95744
 C2091 C 0.57601 0.35750 0.94945
 H2092 H 0.58909 0.35077 0.95587
 O2093 O 0.57148 0.51944 0.90141
 O2094 O 0.59451 0.51947 0.87826
 C2095 C 0.57847 0.52627 0.88532
 C2096 C 0.56818 0.54275 0.87512
 C2097 C 0.57588 0.55076 0.85751
 H2098 H 0.58899 0.54442 0.85079
 O2099 O 0.42851 0.48055 0.90127
 O2100 O 0.40547 0.48066 0.87815
 C2101 C 0.42150 0.47378 0.88518
 C2102 C 0.43173 0.45727 0.87497
 C2103 C 0.42398 0.44924 0.85740
 H2104 H 0.41085 0.45558 0.85071
 O2105 O 0.51930 0.59861 0.92857
 O2106 O 0.51926 0.62173 0.90549
 C2107 C 0.52611 0.61466 0.92154
 C2108 C 0.54262 0.62482 0.93177
 C2109 C 0.55057 0.64240 0.92400
 H2110 H 0.54417 0.64911 0.91088
 O2111 O 0.48078 0.40140 0.92843
 O2112 O 0.48082 0.37832 0.90534
 C2113 C 0.47399 0.38535 0.92141
 C2114 C 0.45751 0.37517 0.93169
 C2115 C 0.44955 0.35760 0.92395
 H2116 H 0.45593 0.35091 0.91082
 O2117 O 0.59864 0.57150 0.98083
 O2118 O 0.62171 0.59453 0.98082
 C2119 C 0.61468 0.57850 0.97399
 C2120 C 0.62486 0.56825 0.95746
 C2121 C 0.64242 0.57597 0.94946
 H2122 H 0.64912 0.58905 0.95586
 O2123 O 0.40141 0.42849 0.98062
 O2124 O 0.37840 0.40540 0.98068
 C2125 C 0.38538 0.42145 0.97382
 C2126 C 0.37517 0.43169 0.95729
 C2127 C 0.35761 0.42397 0.94931
 H2128 H 0.35094 0.41086 0.95572
 Cu2129 Cu 0.50007 0.41727 0.91716
 Cu2130 Cu 0.50015 0.38960 0.88941
 Cu2131 Cu 0.49996 0.58277 0.91737
 Cu2132 Cu 0.49989 0.61049 0.88963
 Cu2133 Cu 0.41733 0.49987 0.91721
 Cu2134 Cu 0.38965 0.50005 0.88949
 Cu2135 Cu 0.58273 0.50010 0.91729
 Cu2136 Cu 0.61039 0.50009 0.88953
 C2137 C 0.44859 0.44852 0.88351
 H2138 H 0.45446 0.45440 0.89723
 C2139 C 0.43278 0.43263 0.84868
 C2140 C 0.55135 0.55151 0.88369
 H2141 H 0.54551 0.54562 0.89743
 C2142 C 0.56709 0.56738 0.84879
 C2143 C 0.38369 0.44851 0.94847
 H2144 H 0.39740 0.45435 0.95432
 C2145 C 0.34887 0.43274 0.93268
 C2146 C 0.61629 0.55146 0.94864
 H2147 H 0.60258 0.54562 0.95450
 C2148 C 0.65110 0.56724 0.93280
 C2149 C 0.44871 0.38372 0.94854
 H2150 H 0.45455 0.39744 0.95439
 C2151 C 0.43294 0.34891 0.93271
 C2152 C 0.55145 0.61625 0.94860
 H2153 H 0.54561 0.60252 0.95448
 C2154 C 0.56717 0.65110 0.93275
 C2155 C 0.44860 0.55145 0.88373
 H2156 H 0.45441 0.54561 0.89751
 C2157 C 0.43285 0.56725 0.84878
 C2158 C 0.55145 0.44870 0.88365
 H2159 H 0.54562 0.45448 0.89744
 C2160 C 0.56720 0.43307 0.84866
 C2161 C 0.55149 0.38367 0.94858
 H2162 H 0.54562 0.39739 0.95443
 C2163 C 0.56732 0.34884 0.93276
 C2164 C 0.44859 0.61632 0.94887
 H2165 H 0.45446 0.60260 0.95476
 C2166 C 0.43277 0.65115 0.93300
 C2167 C 0.38395 0.55143 0.94878
 H2168 H 0.39770 0.54561 0.95462
 C2169 C 0.34905 0.56716 0.93299
 C2170 C 0.61617 0.44851 0.94860
 H2171 H 0.60244 0.45435 0.95446
 C2172 C 0.65105 0.43277 0.93280
 O2173 O 0.51932 0.42860 1.09933
 O2174 O 0.51933 0.40545 1.12239
 C2175 C 0.52615 0.42151 1.11538
 C2176 C 0.54267 0.43168 1.12557
 C2177 C 0.55071 0.42385 1.14311
 H2178 H 0.54433 0.41074 1.14981
 O2179 O 0.48058 0.57159 1.09878
 O2180 O 0.48059 0.59458 1.12196
 C2181 C 0.47377 0.57856 1.11488
 C2182 C 0.45730 0.56830 1.12509
 C2183 C 0.44931 0.57607 1.14267
 H2184 H 0.45565 0.58920 1.14934
 O2185 O 0.40129 0.51935 1.07197
 O2186 O 0.37820 0.51935 1.09506
 C2187 C 0.38524 0.52618 1.07899
 C2188 C 0.37506 0.54270 1.06873
 C2189 C 0.35748 0.55069 1.07646
 H2190 H 0.35078 0.54430 1.08958
 O2191 O 0.59850 0.48049 1.07182
 O2192 O 0.62159 0.48049 1.09489
 C2193 C 0.61457 0.47368 1.07881
 C2194 C 0.62479 0.45723 1.06851
 C2195 C 0.64242 0.44931 1.07618
 H2196 H 0.64913 0.45570 1.08929
 O2197 O 0.57143 0.40141 1.01956
 O2198 O 0.59445 0.37828 1.01962
 C2199 C 0.57842 0.38536 1.02644
 C2200 C 0.56817 0.37523 1.04301
 C2201 C 0.57585 0.35761 1.05099
 H2202 H 0.58891 0.35085 1.04458
 O2203 O 0.42831 0.59881 1.01982
 O2204 O 0.40523 0.62189 1.01973
 C2205 C 0.42127 0.61487 1.02661
 C2206 C 0.43149 0.62509 1.04311
 C2207 C 0.42377 0.64268 1.05111
 H2208 H 0.41064 0.64937 1.04475
 O2209 O 0.42837 0.48062 1.09915
 O2210 O 0.40532 0.48063 1.12227
 C2211 C 0.42136 0.47379 1.11524
 C2212 C 0.43159 0.45728 1.12546
 C2213 C 0.42378 0.44922 1.14301
 H2214 H 0.41063 0.45556 1.14965
 O2215 O 0.57134 0.51917 1.09888
 O2216 O 0.59438 0.51920 1.12201
 C2217 C 0.57834 0.52602 1.11494
 C2218 C 0.56811 0.54256 1.12509
 C2219 C 0.57589 0.55057 1.14265
 H2220 H 0.58900 0.54418 1.14934
 O2221 O 0.48072 0.40170 1.07200
 O2222 O 0.48070 0.37850 1.09502
 C2223 C 0.47391 0.38561 1.07895
 C2224 C 0.45749 0.37544 1.06860
 C2225 C 0.44958 0.35780 1.07628
 H2226 H 0.45594 0.35109 1.08942
 O2227 O 0.51920 0.59874 1.07167
 O2228 O 0.51925 0.62177 1.09480
 C2229 C 0.52604 0.61476 1.07870
 C2230 C 0.54253 0.62493 1.06843
 C2231 C 0.55045 0.64254 1.07612
 H2232 H 0.54405 0.64926 1.08922
 O2233 O 0.40146 0.42858 1.01937
 O2234 O 0.37844 0.40550 1.01946
 C2235 C 0.38545 0.42157 1.02625
 C2236 C 0.37527 0.43183 1.04277
 C2237 C 0.35770 0.42412 1.05077
 H2238 H 0.35100 0.41103 1.04437
 O2239 O 0.59856 0.57147 1.01957
 O2240 O 0.62163 0.59451 1.01960
 C2241 C 0.61459 0.57846 1.02643
 C2242 C 0.62473 0.56818 1.04297
 C2243 C 0.64227 0.57590 1.05099
 H2244 H 0.64896 0.58901 1.04462
 O2245 O 0.51922 0.57160 1.09881
 O2246 O 0.51926 0.59459 1.12198
 C2247 C 0.52606 0.57855 1.11490
 C2248 C 0.54255 0.56825 1.12507
 C2249 C 0.55057 0.57599 1.14264
 H2250 H 0.54424 0.58913 1.14934
 O2251 O 0.48066 0.42859 1.09933
 O2252 O 0.48063 0.40544 1.12239
 C2253 C 0.47380 0.42151 1.11537
 C2254 C 0.45725 0.43170 1.12554
 C2255 C 0.44919 0.42388 1.14309
 H2256 H 0.45554 0.41075 1.14979
 O2257 O 0.59853 0.51917 1.07186
 O2258 O 0.62161 0.51918 1.09495
 C2259 C 0.61457 0.52600 1.07887
 C2260 C 0.62472 0.54251 1.06861
 C2261 C 0.64226 0.55048 1.07638
 H2262 H 0.64896 0.54408 1.08950
 O2263 O 0.40149 0.48068 1.07179
 O2264 O 0.37840 0.48065 1.09486
 C2265 C 0.38545 0.47386 1.07878
 C2266 C 0.37528 0.45740 1.06847
 C2267 C 0.35771 0.44944 1.07620
 H2268 H 0.35102 0.45581 1.08933
 O2269 O 0.57150 0.59861 1.01951
 O2270 O 0.59450 0.62170 1.01951
 C2271 C 0.57846 0.61467 1.02633
 C2272 C 0.56817 0.62488 1.04280
 C2273 C 0.57584 0.64249 1.05074
 H2274 H 0.58893 0.64918 1.04434
 O2275 O 0.42865 0.40158 1.01942
 O2276 O 0.40569 0.37844 1.01951
 C2277 C 0.42171 0.38553 1.02631
 C2278 C 0.43198 0.37540 1.04285
 C2279 C 0.42433 0.35776 1.05079
 H2280 H 0.41130 0.35102 1.04436
 O2281 O 0.57156 0.48048 1.09914
 O2282 O 0.59461 0.48049 1.12226
 C2283 C 0.57858 0.47367 1.11524
 C2284 C 0.56835 0.45719 1.12549
 C2285 C 0.57614 0.44911 1.14304
 H2286 H 0.58930 0.45540 1.14969
 O2287 O 0.42853 0.51930 1.09895
 O2288 O 0.40548 0.51935 1.12207
 C2289 C 0.42152 0.52615 1.11501
 C2290 C 0.43174 0.54267 1.12517
 C2291 C 0.42400 0.55070 1.14275
 H2292 H 0.41090 0.54434 1.14947
 O2293 O 0.48054 0.59888 1.07181
 O2294 O 0.48057 0.62191 1.09494
 C2295 C 0.47373 0.61492 1.07887
 C2296 C 0.45720 0.62512 1.06866
 C2297 C 0.44924 0.64272 1.07640
 H2298 H 0.45568 0.64943 1.08948
 O2299 O 0.51935 0.40163 1.07207
 O2300 O 0.51934 0.37844 1.09509
 C2301 C 0.52616 0.38553 1.07903
 C2302 C 0.54262 0.37533 1.06872
 C2303 C 0.55055 0.35770 1.07645
 H2304 H 0.54417 0.35101 1.08958
 O2305 O 0.59859 0.42839 1.01950
 O2306 O 0.62167 0.40531 1.01953
 C2307 C 0.61464 0.42138 1.02634
 C2308 C 0.62483 0.43164 1.04283
 C2309 C 0.64246 0.42397 1.05076
 H2310 H 0.64920 0.41090 1.04434
 O2311 O 0.40135 0.57163 1.01979
 O2312 O 0.37822 0.59465 1.01970
 C2313 C 0.38527 0.57862 1.02658
 C2314 C 0.37508 0.56836 1.04308
 C2315 C 0.35750 0.57609 1.05106
 H2316 H 0.35081 0.58921 1.04467
 Cu2317 Cu 0.50001 0.41746 1.08339
 Cu2318 Cu 0.50000 0.38964 1.11103
 Cu2319 Cu 0.49989 0.58291 1.08294
 Cu2320 Cu 0.49993 0.61052 1.11074
 Cu2321 Cu 0.41732 0.41733 1.00000
 Cu2322 Cu 0.38974 0.38959 1.00011
 Cu2323 Cu 0.58270 0.41719 1.00015
 Cu2324 Cu 0.61036 0.38946 1.00019
 Cu2325 Cu 0.41723 0.58286 1.00046
 Cu2326 Cu 0.38950 0.61052 1.00030
 Cu2327 Cu 0.58276 0.58273 1.00017
 Cu2328 Cu 0.61041 0.61041 1.00017
 Cu2329 Cu 0.41723 0.49998 1.08316
 Cu2330 Cu 0.38954 0.49999 1.11088
 Cu2331 Cu 0.58268 0.49981 1.08312
 Cu2332 Cu 0.61036 0.49984 1.11084
 C2333 C 0.55146 0.44850 1.11700
 H2334 H 0.54555 0.45444 1.10331
 C2335 C 0.56738 0.43250 1.15178
 C2336 C 0.44855 0.55146 1.11657
 H2337 H 0.45442 0.54556 1.10285
 C2338 C 0.43272 0.56733 1.15142
 C2339 C 0.38362 0.55152 1.05189
 H2340 H 0.39733 0.54566 1.04603
 C2341 C 0.34878 0.56732 1.06769
 C2342 C 0.61623 0.44842 1.05168
 H2343 H 0.60247 0.45423 1.04587
 C2344 C 0.65118 0.43274 1.06738
 C2345 C 0.55141 0.38386 1.05186
 H2346 H 0.54560 0.39761 1.04601
 C2347 C 0.56710 0.34892 1.06765
 C2348 C 0.44834 0.61655 1.05188
 H2349 H 0.45418 0.60282 1.04603
 C2350 C 0.43258 0.65142 1.06770
 C2351 C 0.44848 0.44855 1.11698
 H2352 H 0.45441 0.45448 1.10330
 C2353 C 0.43251 0.43258 1.15174
 C2354 C 0.55129 0.55138 1.11653
 H2355 H 0.54540 0.54551 1.10282
 C2356 C 0.56718 0.56721 1.15135
 C2357 C 0.44870 0.38401 1.05174
 H2358 H 0.45450 0.39778 1.04592
 C2359 C 0.43307 0.34905 1.06744
 C2360 C 0.55137 0.61633 1.05163
 H2361 H 0.54556 0.60259 1.04581
 C2362 C 0.56704 0.65124 1.06733
 C2363 C 0.38383 0.44862 1.05161
 H2364 H 0.39754 0.45446 1.04574
 C2365 C 0.34901 0.43286 1.06742
 C2366 C 0.61619 0.55135 1.05176
 H2367 H 0.60249 0.54550 1.04586
 C2368 C 0.65096 0.56711 1.06763
 C2369 C 1.10942 1.10861 1.23073
 C2370 C 1.09440 1.09243 1.23602
 C2371 C 1.08576 1.08390 1.21992
 C2372 C 1.09297 1.09239 1.20009
 C2373 C 1.11555 1.09004 1.20057
 C2374 C 1.12420 1.09857 1.21668
 C2375 C 1.09798 1.12329 1.21767
 C2376 C 1.08933 1.11476 1.20157
 C2377 C 1.11864 1.11775 1.24815
 C2378 C 1.12607 1.12522 1.26256
 C2379 C 1.08366 1.08321 1.18276
 C2380 C 1.07611 1.07574 1.16841
 H2381 H 1.09090 1.08802 1.25110
 H2382 H 1.07485 1.07220 1.22120
 H2383 H 1.12399 1.08236 1.18925
 H2384 H 1.14006 1.09820 1.21916
 H2385 H 1.09682 1.13901 1.22077
 H2386 H 1.08075 1.12318 1.19087
 C2387 C 1.10980 0.60906 0.73038
 C2388 C 1.11688 0.61740 0.71044
 C2389 C 1.10812 0.60875 0.69446
 C2390 C 1.09315 0.59260 0.69999
 C2391 C 1.07847 0.60274 0.71406
 C2392 C 1.08723 0.61139 0.73003
 C2393 C 1.11346 0.58667 0.72904
 C2394 C 1.10471 0.57802 0.71306
 C2395 C 1.11914 0.61834 0.74765
 C2396 C 1.12664 0.62592 0.76195
 C2397 C 1.08372 0.58330 0.68279
 C2398 C 1.07610 0.57576 0.66853
 H2399 H 1.12781 0.62907 0.70899
 H2400 H 1.11154 0.61301 0.67932
 H2401 H 1.06260 0.60313 0.71167
 H2402 H 1.07886 0.61919 0.74133
 H2403 H 1.12220 0.57836 0.73968
 H2404 H 1.10594 0.56230 0.71002
 C2405 C 0.60968 1.10916 0.73106
 C2406 C 0.59129 1.09687 0.73611
 C2407 C 0.58260 1.08841 0.72000
 C2408 C 0.59316 1.09306 0.70041
 C2409 C 0.61466 1.08649 0.70364
 C2410 C 0.62335 1.09496 0.71976
 C2411 C 0.60268 1.12421 0.71552
 C2412 C 0.59399 1.11574 0.69939
 C2413 C 0.61895 1.11824 0.74846
 C2414 C 0.62639 1.12571 0.76285
 C2415 C 0.58381 1.08394 0.68306
 C2416 C 0.57623 1.07650 0.66872
 H2417 H 0.58560 1.09498 0.75104
 H2418 H 0.56947 1.07925 0.72113
 H2419 H 0.62237 1.07609 0.69411
 H2420 H 0.63851 1.09183 0.72403
 H2421 H 0.60440 1.14011 0.71703
 H2422 H 0.58825 1.12439 0.68710
 C2423 C 0.60951 0.60897 1.23075
 C2424 C 0.59451 0.59281 1.23614
 C2425 C 0.58581 0.58425 1.22009
 C2426 C 0.59297 0.59268 1.20022
 C2427 C 0.61555 0.59033 1.20063
 C2428 C 0.62425 0.59890 1.21669
 C2429 C 0.59803 0.62363 1.21770
 C2430 C 0.58933 0.61506 1.20164
 C2431 C 0.61879 0.61814 1.24810
 C2432 C 0.62623 0.62563 1.26247
 C2433 C 0.58360 0.58347 1.18294
 C2434 C 0.57601 0.57598 1.16864
 H2435 H 0.59104 0.58847 1.25124
 H2436 H 0.57489 0.57256 1.22143
 H2437 H 0.62396 0.58262 1.18930
 H2438 H 0.64012 0.59854 1.21912
 H2439 H 0.59687 0.63936 1.22078
 H2440 H 0.58071 0.62345 1.19097
 C2441 C 0.89018 0.89081 1.23106
 C2442 C 0.88184 0.91133 1.22601
 C2443 C 0.89062 0.91991 1.20997
 C2444 C 0.90688 0.90712 1.20057
 C2445 C 0.89682 0.88730 1.19589
 C2446 C 0.88805 0.87873 1.21193
 C2447 C 0.91251 0.89396 1.23356
 C2448 C 0.92129 0.90253 1.21754
 C2449 C 0.88081 0.88159 1.24836
 C2450 C 0.87327 0.87402 1.26267
 C2451 C 0.91632 0.91633 1.18330
 C2452 C 0.92394 0.92381 1.16898
 H2453 H 0.87006 0.91848 1.23427
 H2454 H 0.88636 0.93441 1.20451
 H2455 H 0.89660 0.88061 1.18127
 H2456 H 0.88030 0.86469 1.21104
 H2457 H 0.92071 0.88981 1.24677
 H2458 H 0.93701 0.90573 1.21701
 C2459 C 0.89032 0.39095 0.73102
 C2460 C 0.88741 0.41344 0.72983
 C2461 C 0.89616 0.42188 0.71371
 C2462 C 0.90696 0.40699 0.70037
 C2463 C 0.89133 0.39140 0.69507
 C2464 C 0.88258 0.38296 0.71120
 C2465 C 0.91279 0.38783 0.73023
 C2466 C 0.92154 0.39626 0.71411
 C2467 C 0.88101 0.38188 0.74841
 C2468 C 0.87352 0.37440 0.76279
 C2469 C 0.91635 0.41608 0.68302
 C2470 C 0.92394 0.42352 0.66867
 H2471 H 0.87919 0.42199 0.74068
 H2472 H 0.89544 0.43765 0.71076
 H2473 H 0.88749 0.38732 0.67999
 H2474 H 0.87124 0.37168 0.70993
 H2475 H 0.92110 0.37969 0.74134
 H2476 H 0.93734 0.39533 0.71140
 C2477 C 0.39016 0.89122 0.73055
 C2478 C 0.40030 0.87639 0.71663
 C2479 C 0.40911 0.88502 0.70064
 C2480 C 0.40691 0.90762 0.70015
 C2481 C 0.41514 0.91477 0.72009
 C2482 C 0.40633 0.90614 0.73607
 C2483 C 0.37574 0.90277 0.71731
 C2484 C 0.38455 0.91140 0.70132
 C2485 C 0.38077 0.88196 0.74781
 C2486 C 0.37322 0.87438 0.76211
 C2487 C 0.41636 0.91689 0.68293
 C2488 C 0.42396 0.92440 0.66863
 H2489 H 0.40051 0.86051 0.71908
 H2490 H 0.41687 0.87653 0.68941
 H2491 H 0.42685 0.92564 0.72154
 H2492 H 0.41049 0.90963 0.75121
 H2493 H 0.36000 0.90404 0.72021
 H2494 H 0.37635 0.92007 0.69053
 C2495 C 0.38984 0.39119 1.23131
 C2496 C 0.40786 0.37964 1.22371
 C2497 C 0.41666 0.38806 1.20761
 C2498 C 0.40656 0.40721 1.20068
 C2499 C 0.40625 0.42065 1.21900
 C2500 C 0.39746 0.41223 1.23510
 C2501 C 0.37607 0.39308 1.21331
 C2502 C 0.38487 0.40150 1.19721
 C2503 C 0.38047 0.38213 1.24870
 C2504 C 0.37295 0.37467 1.26307
 C2505 C 0.41602 0.41632 1.18335
 C2506 C 0.42365 0.42378 1.16903
 H2507 H 0.41322 0.36602 1.23037
 H2508 H 0.42955 0.38165 1.20047
 H2509 H 0.41239 0.43548 1.21930
 H2510 H 0.39606 0.41985 1.24919
 H2511 H 0.36078 0.38820 1.21322
 H2512 H 0.37711 0.40383 1.18330
 C2513 C 0.89029 1.10903 0.76944
 C2514 C 0.88350 1.11771 0.78933
 C2515 C 0.89233 1.10914 0.80535
 C2516 C 0.90709 1.09273 0.79988
 C2517 C 0.92173 1.10251 0.78553
 C2518 C 0.91290 1.11108 0.76953
 C2519 C 0.88641 1.08672 0.77113
 C2520 C 0.89525 1.07815 0.78714
 C2521 C 0.88087 1.11821 0.75215
 C2522 C 0.87332 1.12572 0.73782
 C2523 C 0.91656 1.08353 0.81713
 C2524 C 0.92419 1.07606 0.83145
 H2525 H 0.87271 1.12953 0.79072
 H2526 H 0.88908 1.11361 0.82046
 H2527 H 0.93762 1.10268 0.78774
 H2528 H 0.92123 1.11861 0.75802
 H2529 H 0.87750 1.07839 0.76068
 H2530 H 0.89389 1.06248 0.79041
 C2531 C 0.89059 0.60861 0.26919
 C2532 C 0.88367 0.61738 0.28900
 C2533 C 0.89238 0.60886 0.30511
 C2534 C 0.90714 0.59241 0.29982
 C2535 C 0.92190 0.60212 0.28553
 C2536 C 0.91319 0.61064 0.26943
 C2537 C 0.88668 0.58631 0.27094
 C2538 C 0.89537 0.57780 0.28705
 C2539 C 0.88129 0.61772 0.25180
 C2540 C 0.87380 0.62521 0.23742
 C2541 C 0.91652 0.58323 0.31712
 C2542 C 0.92413 0.57571 0.33142
 H2543 H 0.87291 0.62925 0.29026
 H2544 H 0.88906 0.61342 0.32018
 H2545 H 0.93777 0.60233 0.28788
 H2546 H 0.92162 0.61815 0.25798
 H2547 H 0.87782 0.57796 0.26047
 H2548 H 0.89396 0.56214 0.29038
 C2549 C 0.39027 1.10915 0.26946
 C2550 C 0.40746 1.09530 0.26410
 C2551 C 0.41622 1.08671 0.28013
 C2552 C 0.40693 1.09281 0.29996
 C2553 C 0.38488 1.08783 0.29791
 C2554 C 0.37612 1.09643 0.28187
 C2555 C 0.39906 1.12410 0.28413
 C2556 C 0.40782 1.11551 0.30017
 C2557 C 0.38094 1.11835 0.25213
 C2558 C 0.37344 1.12587 0.23777
 C2559 C 0.41637 1.08355 0.31720
 C2560 C 0.42403 1.07601 0.33147
 H2561 H 0.41232 1.09248 0.24903
 H2562 H 0.42856 1.07652 0.27879
 H2563 H 0.37684 1.07844 0.30819
 H2564 H 0.36058 1.09440 0.27840
 H2565 H 0.39839 1.14003 0.28213
 H2566 H 0.41463 1.12408 0.31193
 C2567 C 0.39027 0.60911 0.76941
 C2568 C 0.38341 0.61780 0.78928
 C2569 C 0.39217 0.60922 0.80533
 C2570 C 0.40694 0.59281 0.79993
 C2571 C 0.42164 0.60258 0.78563
 C2572 C 0.41287 0.61115 0.76959
 C2573 C 0.38637 0.58681 0.77110
 C2574 C 0.39513 0.57823 0.78715
 C2575 C 0.38091 0.61830 0.75209
 C2576 C 0.37337 0.62581 0.73774
 C2577 C 0.41638 0.58358 0.81720
 C2578 C 0.42402 0.57605 0.83149
 H2579 H 0.37259 0.62960 0.79062
 H2580 H 0.38884 0.61367 0.82044
 H2581 H 0.43752 0.60280 0.78792
 H2582 H 0.42125 0.61871 0.75814
 H2583 H 0.37742 0.57849 0.76067
 H2584 H 0.39367 0.56258 0.79048
 C2585 C 1.10948 0.89114 0.76930
 C2586 C 1.10920 0.87778 0.78771
 C2587 C 1.10053 0.88635 0.80380
 C2588 C 1.09299 0.90743 0.79990
 C2589 C 1.07913 0.90555 0.78199
 C2590 C 1.08780 0.89699 0.76591
 C2591 C 1.11971 0.91024 0.77605
 C2592 C 1.11104 0.91881 0.79215
 C2593 C 1.11871 0.88196 0.75192
 C2594 C 1.12611 0.87447 0.73751
 C2595 C 1.08364 0.91664 0.81720
 C2596 C 1.07605 0.92415 0.83151
 H2597 H 1.11529 0.86291 0.78808
 H2598 H 1.09919 0.87881 0.81796
 H2599 H 1.06386 0.91050 0.78195
 H2600 H 1.07995 0.89460 0.75208
 H2601 H 1.13264 0.91648 0.76885
 H2602 H 1.11654 0.93238 0.79872
 C2603 C 1.10960 0.39090 0.26927
 C2604 C 1.09233 0.37889 0.27781
 C2605 C 1.08369 0.38746 0.29390
 C2606 C 1.09316 0.40721 0.29986
 C2607 C 1.09233 0.42006 0.28111
 C2608 C 1.10098 0.41148 0.26503
 C2609 C 1.12383 0.39391 0.28674
 C2610 C 1.11517 0.40250 0.30283
 C2611 C 1.11885 0.38172 0.25192
 C2612 C 1.12633 0.37425 0.23754
 C2613 C 1.08382 0.41645 0.31715
 C2614 C 1.07622 0.42398 0.33144
 H2615 H 1.08738 0.36484 0.27180
 H2616 H 1.07133 0.38078 0.30168
 H2617 H 1.08562 0.43465 0.28053
 H2618 H 1.10166 0.41870 0.25066
 H2619 H 1.13931 0.38967 0.28649
 H2620 H 1.12326 0.40563 0.31637
 C2621 C 0.60935 0.89111 0.26932
 C2622 C 0.60182 0.91219 0.26539
 C2623 C 0.59310 0.92075 0.28145
 C2624 C 0.59280 0.90740 0.29986
 C2625 C 0.61448 0.90156 0.30332
 C2626 C 0.62319 0.89301 0.28724
 C2627 C 0.59128 0.87973 0.27703
 C2628 C 0.58259 0.88830 0.29310
 C2629 C 0.61863 0.88191 0.25200
 C2630 C 0.62609 0.87442 0.23764
 C2631 C 0.58343 0.91661 0.31715
 C2632 C 0.57581 0.92412 0.33143
 H2633 H 0.60323 0.91973 0.25124
 H2634 H 0.58711 0.93566 0.28108
 H2635 H 0.62233 0.90397 0.31715
 H2636 H 0.63845 0.88804 0.28729
 H2637 H 0.58582 0.86612 0.27050
 H2638 H 0.56969 0.88203 0.30034
 C2639 C 0.60979 0.39105 0.76947
 C2640 C 0.60941 0.37780 0.78796
 C2641 C 0.60064 0.38645 0.80394
 C2642 C 0.59311 0.40751 0.79986
 C2643 C 0.57936 0.40551 0.78189
 C2644 C 0.58813 0.39685 0.76591
 C2645 C 0.61998 0.41019 0.77617
 C2646 C 0.61120 0.41885 0.79215
 C2647 C 0.61913 0.38177 0.75221
 C2648 C 0.62664 0.37419 0.73790
 C2649 C 0.58367 0.41681 0.81707
 C2650 C 0.57604 0.42432 0.83136
 H2651 H 0.61551 0.36293 0.78845
 H2652 H 0.59922 0.37901 0.81814
 H2653 H 0.56408 0.41043 0.78173
 H2654 H 0.58035 0.39436 0.75206
 H2655 H 0.63296 0.41637 0.76902
 H2656 H 0.61667 0.43246 0.79869
 C2657 C 1.23039 1.10911 1.10944
 C2658 C 1.23305 1.10508 1.08720
 C2659 C 1.21701 1.09650 1.07857
 C2660 C 1.19988 1.09278 1.09300
 C2661 C 1.19545 1.11304 1.10229
 C2662 C 1.21150 1.12163 1.11093
 C2663 C 1.22491 1.08902 1.11850
 C2664 C 1.20886 1.08043 1.10986
 C2665 C 1.24772 1.11833 1.11866
 C2666 C 1.26204 1.12587 1.12609
 C2667 C 1.18262 1.08353 1.08368
 C2668 C 1.16836 1.07601 1.07608
 H2669 H 1.24636 1.10870 1.07896
 H2670 H 1.21657 1.09276 1.06293
 H2671 H 1.18098 1.12001 1.10214
 H2672 H 1.21079 1.13596 1.11816
 H2673 H 1.23288 1.08217 1.13068
 H2674 H 1.20307 1.06623 1.11466
 C2675 C 1.23022 0.60897 0.60936
 C2676 C 1.23294 0.60484 0.58715
 C2677 C 1.21694 0.59617 0.57852
 C2678 C 1.19977 0.59249 0.59292
 C2679 C 1.19528 0.61279 0.60211
 C2680 C 1.21130 0.62146 0.61074
 C2681 C 1.22474 0.58891 0.61851
 C2682 C 1.20873 0.58024 0.60987
 C2683 C 1.24752 0.61826 0.61860
 C2684 C 1.26183 0.62582 0.62606
 C2685 C 1.18255 0.58317 0.58359
 C2686 C 1.16829 0.57563 0.57599
 H2687 H 1.24626 0.60844 0.57892
 H2688 H 1.21655 0.59234 0.56290
 H2689 H 1.18079 0.61971 0.60192
 H2690 H 1.21053 0.63581 0.61792
 H2691 H 1.23268 0.58215 0.63076
 H2692 H 1.20294 0.56607 0.61474
 C2693 C 0.73017 1.10906 0.60938
 C2694 C 0.73226 1.08658 0.60680
 C2695 C 0.71628 1.07795 0.59809
 C2696 C 0.69977 1.09263 0.59282
 C2697 C 0.70974 1.10837 0.57982
 C2698 C 0.72572 1.11701 0.58853
 C2699 C 0.71089 1.11190 0.62104
 C2700 C 0.69490 1.10325 0.61234
 C2701 C 0.74745 1.11831 0.61869
 C2702 C 0.76176 1.12584 0.62618
 C2703 C 0.68253 1.08337 0.58346
 C2704 C 0.66822 1.07591 0.57590
 H2705 H 0.74517 1.07819 0.61141
 H2706 H 0.71548 1.06216 0.59526
 H2707 H 0.70469 1.11238 0.56508
 H2708 H 0.73436 1.12843 0.58124
 H2709 H 0.70988 1.11998 0.63491
 H2710 H 0.68019 1.10392 0.61877
 C2711 C 0.73063 0.60869 1.10933
 C2712 C 0.73571 0.59487 1.09201
 C2713 C 0.71958 0.58634 1.08348
 C2714 C 0.69995 0.59247 1.09310
 C2715 C 0.69975 0.61517 1.09220
 C2716 C 0.71589 0.62370 1.10073
 C2717 C 0.71846 0.59598 1.12370
 C2718 C 0.70232 0.58745 1.11517
 C2719 C 0.74803 0.61783 1.11846
 C2720 C 0.76239 0.62534 1.12585
 C2721 C 0.68260 0.58329 1.08390
 C2722 C 0.66826 0.57582 1.07641
 H2723 H 0.75066 0.59206 1.08688
 H2724 H 0.72071 0.57622 1.07104
 H2725 H 0.68797 0.62379 1.08545
 H2726 H 0.71794 0.63962 1.10129
 H2727 H 0.72217 0.59389 1.13922
 H2728 H 0.69221 0.57805 1.12338
 C2729 C 1.23010 0.89122 0.89057
 C2730 C 1.23053 0.91392 0.88995
 C2731 C 1.21455 0.92256 0.89872
 C2732 C 1.19971 0.90765 0.90725
 C2733 C 1.21183 0.89457 0.92135
 C2734 C 1.22780 0.88594 0.91259
 C2735 C 1.21033 0.88547 0.88102
 C2736 C 1.19435 0.89411 0.88979
 C2737 C 1.24736 0.88194 0.88123
 C2738 C 1.26165 0.87435 0.87372
 C2739 C 1.18249 0.91691 0.91667
 C2740 C 1.16820 0.92440 0.92427
 H2741 H 1.24233 0.92246 0.88319
 H2742 H 1.21267 0.93849 0.89948
 H2743 H 1.20816 0.89227 0.93685
 H2744 H 1.23781 0.87622 0.92058
 H2745 H 1.20898 0.87548 0.86849
 H2746 H 1.17932 0.89152 0.88477
 C2747 C 1.23095 0.39114 0.39012
 C2748 C 1.23110 0.41385 0.38964
 C2749 C 1.21497 0.42223 0.39837
 C2750 C 1.20026 0.40709 0.40674
 C2751 C 1.21248 0.39409 0.42084
 C2752 C 1.22861 0.38571 0.41210
 C2753 C 1.21130 0.38519 0.38044
 C2754 C 1.19516 0.39358 0.38918
 C2755 C 1.24836 0.38210 0.38081
 C2756 C 1.26274 0.37464 0.37332
 C2757 C 1.18289 0.41614 0.41613
 C2758 C 1.16853 0.42355 0.42371
 H2759 H 1.24284 0.42258 0.38301
 H2760 H 1.21290 0.43814 0.39924
 H2761 H 1.20877 0.39165 0.43630
 H2762 H 1.23872 0.37609 0.42009
 H2763 H 1.21015 0.37525 0.36786
 H2764 H 1.18019 0.39080 0.38409
 C2765 C 0.73051 0.89119 0.39016
 C2766 C 0.73089 0.91389 0.38953
 C2767 C 0.71488 0.92250 0.39826
 C2768 C 0.70004 0.90756 0.40676
 C2769 C 0.71216 0.89452 0.42090
 C2770 C 0.72817 0.88591 0.41217
 C2771 C 0.71077 0.88540 0.38056
 C2772 C 0.69475 0.89400 0.38929
 C2773 C 0.74780 0.88194 0.38083
 C2774 C 0.76211 0.87439 0.37332
 C2775 C 0.68277 0.91681 0.41615
 C2776 C 0.66846 0.92429 0.42373
 H2777 H 0.74270 0.92245 0.38280
 H2778 H 0.71297 0.93843 0.39901
 H2779 H 0.70847 0.89221 0.43639
 H2780 H 0.73819 0.87622 0.42019
 H2781 H 0.70948 0.87541 0.36803
 H2782 H 0.67974 0.89139 0.38423
 C2783 C 0.73062 0.39147 0.89029
 C2784 C 0.73082 0.41418 0.88975
 C2785 C 0.71474 0.42263 0.89851
 C2786 C 0.70003 0.40754 0.90696
 C2787 C 0.71226 0.39455 0.92105
 C2788 C 0.72834 0.38610 0.91229
 C2789 C 0.71093 0.38556 0.88068
 C2790 C 0.69484 0.39400 0.88945
 C2791 C 0.74800 0.38239 0.88095
 C2792 C 0.76236 0.37491 0.87346
 C2793 C 0.68271 0.41664 0.91639
 C2794 C 0.66838 0.42405 0.92400
 H2795 H 0.74256 0.42287 0.88305
 H2796 H 0.71270 0.43854 0.89933
 H2797 H 0.70859 0.39215 0.93654
 H2798 H 0.73844 0.37648 0.92027
 H2799 H 0.70971 0.37560 0.86812
 H2800 H 0.67985 0.39126 0.88441
 C2801 C 0.76936 0.89109 1.10944
 C2802 C 0.78669 0.89419 1.12379
 C2803 C 0.80279 0.90274 1.11519
 C2804 C 0.79996 0.90738 1.09308
 C2805 C 0.78124 0.92021 1.09208
 C2806 C 0.76516 0.91165 1.10069
 C2807 C 0.77799 0.87904 1.09220
 C2808 C 0.79408 0.88760 1.08360
 C2809 C 0.75203 0.88188 1.11863
 C2810 C 0.73766 0.87439 1.12605
 C2811 C 0.81728 0.91659 1.08383
 C2812 C 0.83159 0.92407 1.07629
 H2813 H 0.78633 0.88999 1.13933
 H2814 H 0.81623 0.90592 1.12339
 H2815 H 0.78068 0.93476 1.08528
 H2816 H 0.75080 0.91883 1.10122
 H2817 H 0.77202 0.86499 1.08720
 H2818 H 0.80191 0.88091 1.07125
 C2819 C 0.76968 0.39085 0.60950
 C2820 C 0.78140 0.37681 0.59602
 C2821 C 0.79740 0.38545 0.58732
 C2822 C 0.80010 0.40728 0.59296
 C2823 C 0.80086 0.40744 0.61571
 C2824 C 0.78486 0.39879 0.62441
 C2825 C 0.76442 0.40863 0.59633
 C2826 C 0.78042 0.41727 0.58763
 C2827 C 0.75240 0.38159 0.61878
 C2828 C 0.73810 0.37403 0.62626
 C2829 C 0.81733 0.41656 0.58360
 C2830 C 0.83161 0.42406 0.57601
 H2831 H 0.77750 0.36143 0.59355
 H2832 H 0.80721 0.37747 0.57740
 H2833 H 0.81292 0.41374 0.62424
 H2834 H 0.78321 0.39769 0.64038
 H2835 H 0.74945 0.41395 0.59402
 H2836 H 0.77915 0.42999 0.57788
 C2837 C 0.26938 0.89116 0.60939
 C2838 C 0.26655 0.89579 0.58729
 C2839 C 0.28265 0.90433 0.57867
 C2840 C 0.29999 0.90740 0.59300
 C2841 C 0.30417 0.88684 0.60176
 C2842 C 0.28808 0.87830 0.61038
 C2843 C 0.27529 0.91094 0.61885
 C2844 C 0.29139 0.91948 0.61023
 C2845 C 0.25199 0.88199 0.61857
 C2846 C 0.23759 0.87451 0.62594
 C2847 C 0.31731 0.91659 0.58370
 C2848 C 0.33161 0.92407 0.57613
 H2849 H 0.25310 0.89262 0.57911
 H2850 H 0.28298 0.90847 0.56312
 H2851 H 0.31851 0.87962 0.60123
 H2852 H 0.28862 0.86377 0.61723
 H2853 H 0.26753 0.91763 0.63124
 H2854 H 0.29742 0.93349 0.61524
 C2855 C 0.26952 0.39098 1.10921
 C2856 C 0.28680 0.39406 1.12361
 C2857 C 0.30291 0.40267 1.11507
 C2858 C 0.30012 0.40735 1.09297
 C2859 C 0.28139 0.42016 1.09196
 C2860 C 0.26530 0.41155 1.10050
 C2861 C 0.27820 0.37897 1.09198
 C2862 C 0.29430 0.38758 1.08344
 C2863 C 0.25217 0.38177 1.11836
 C2864 C 0.23781 0.37428 1.12580
 C2865 C 0.31742 0.41661 1.08374
 C2866 C 0.33172 0.42411 1.07621
 H2867 H 0.28644 0.38984 1.13915
 H2868 H 0.31633 0.40585 1.12329
 H2869 H 0.28082 0.43473 1.08520
 H2870 H 0.25094 0.41873 1.10104
 H2871 H 0.27227 0.36492 1.08696
 H2872 H 0.30216 0.38091 1.07110
 C2873 C 0.76939 1.10880 0.89024
 C2874 C 0.77806 1.09145 0.87840
 C2875 C 0.79415 1.08297 0.88713
 C2876 C 0.80000 1.09267 0.90685
 C2877 C 0.78127 1.09185 0.91966
 C2878 C 0.76519 1.10032 0.91094
 C2879 C 0.78671 1.12316 0.89320
 C2880 C 0.80280 1.11468 0.90192
 C2881 C 0.75199 1.11788 0.88093
 C2882 C 0.73760 1.12533 0.87346
 C2883 C 0.81732 1.08354 0.91624
 C2884 C 0.83165 1.07609 0.92384
 H2885 H 0.77211 1.08630 0.86438
 H2886 H 0.80197 1.07054 0.88060
 H2887 H 0.78069 1.08520 0.93431
 H2888 H 0.75083 1.10096 0.91812
 H2889 H 0.78637 1.13862 0.88882
 H2890 H 0.81624 1.12288 0.90503
 C2891 C 0.76949 0.60878 0.39056
 C2892 C 0.78388 0.59951 0.37561
 C2893 C 0.79998 0.59093 0.38423
 C2894 C 0.80009 0.59246 0.40694
 C2895 C 0.78038 0.58341 0.41358
 C2896 C 0.76429 0.59199 0.40497
 C2897 C 0.78207 0.62324 0.40272
 C2898 C 0.79816 0.61466 0.41133
 C2899 C 0.75212 0.61799 0.38138
 C2900 C 0.73774 0.62552 0.37399
 C2901 C 0.81741 0.58323 0.41620
 C2902 C 0.83175 0.57573 0.42373
 H2903 H 0.78164 0.59968 0.35967
 H2904 H 0.81153 0.58373 0.37567
 H2905 H 0.77916 0.57131 0.42411
 H2906 H 0.74928 0.58724 0.40812
 H2907 H 0.77865 0.63885 0.40440
 H2908 H 0.80852 0.62292 0.42040
 C2909 C 0.26994 1.10929 0.39038
 C2910 C 0.28932 1.11231 0.37893
 C2911 C 0.30527 1.10361 0.38771
 C2912 C 0.30027 1.09276 0.40708
 C2913 C 0.28389 1.07809 0.40151
 C2914 C 0.26794 1.08679 0.39273
 C2915 C 0.27416 1.11702 0.41135
 C2916 C 0.29010 1.10833 0.42013
 C2917 C 0.25271 1.11862 0.38104
 C2918 C 0.23838 1.12619 0.37356
 C2919 C 0.31746 1.08342 0.41651
 C2920 C 0.33172 1.07587 0.42412
 H2921 H 0.29042 1.12053 0.36514
 H2922 H 0.32004 1.10439 0.38144
 H2923 H 0.28474 1.06227 0.40420
 H2924 H 0.25515 1.07841 0.38788
 H2925 H 0.26540 1.12835 0.41865
 H2926 H 0.29500 1.11221 0.43495
 C2927 C 0.26985 0.60915 0.89041
 C2928 C 0.28821 0.60845 0.87704
 C2929 C 0.30420 0.59982 0.88581
 C2930 C 0.30027 0.59274 0.90709
 C2931 C 0.28231 0.57898 0.90547
 C2932 C 0.26632 0.58760 0.89671
 C2933 C 0.27668 0.61972 0.90934
 C2934 C 0.29267 0.61110 0.91810
 C2935 C 0.25256 0.61841 0.88106
 C2936 C 0.23825 0.62597 0.87355
 C2937 C 0.31750 0.58346 0.91652
 C2938 C 0.33177 0.57594 0.92415
 H2939 H 0.28863 0.61425 0.86203
 H2940 H 0.31832 0.59823 0.87831
 H2941 H 0.28217 0.56379 0.91073
 H2942 H 0.25248 0.57980 0.89446
 H2943 H 0.26961 0.63286 0.91530
 H2944 H 0.29929 0.61684 0.93157
 C2945 C 1.10942 1.23047 1.10912
 C2946 C 1.09575 1.21897 1.12317
 C2947 C 1.08703 1.20296 1.11457
 C2948 C 1.09284 1.20003 1.09276
 C2949 C 1.11553 1.19907 1.09281
 C2950 C 1.12425 1.21507 1.10141
 C2951 C 1.09649 1.23569 1.09116
 C2952 C 1.08777 1.21969 1.08256
 C2953 C 1.11873 1.24777 1.11829
 C2954 C 1.12622 1.26214 1.12572
 C2955 C 1.08349 1.18280 1.08350
 C2956 C 1.07594 1.16852 1.07597
 H2957 H 1.09319 1.22301 1.13853
 H2958 H 1.07698 1.19331 1.12255
 H2959 H 1.12399 1.18688 1.08663
 H2960 H 1.14018 1.21659 1.10262
 H2961 H 1.09438 1.25065 1.08567
 H2962 H 1.07819 1.22094 1.06971
 C2963 C 1.10925 0.73033 0.60908
 C2964 C 1.11385 0.72828 0.58689
 C2965 C 1.10517 0.71225 0.57829
 C2966 C 1.09276 0.69984 0.59271
 C2967 C 1.07792 0.71444 0.60181
 C2968 C 1.08660 0.73047 0.61042
 C2969 C 1.11560 0.71054 0.61830
 C2970 C 1.10692 0.69451 0.60970
 C2971 C 1.11851 0.74767 0.61826
 C2972 C 1.12599 0.76204 0.62569
 C2973 C 1.08344 0.68259 0.58345
 C2974 C 1.07592 0.66830 0.57591
 H2975 H 1.12312 0.73849 0.57866
 H2976 H 1.10701 0.70875 0.56269
 H2977 H 1.06201 0.71236 0.60155
 H2978 H 1.07811 0.74211 0.61754
 H2979 H 1.12597 0.70924 0.63051
 H2980 H 1.10987 0.67947 0.61454
 C2981 C 0.60916 1.23068 0.60900
 C2982 C 0.59241 1.22169 0.62144
 C2983 C 0.58378 1.20563 0.61287
 C2984 C 0.59273 1.20013 0.59270
 C2985 C 0.61493 1.19745 0.59667
 C2986 C 0.62357 1.21352 0.60525
 C2987 C 0.59983 1.23508 0.58873
 C2988 C 0.59119 1.21902 0.58016
 C2989 C 0.61837 1.24803 0.61815
 C2990 C 0.62583 1.26241 0.62557
 C2991 C 0.58343 1.18286 0.58347
 C2992 C 0.57587 1.16859 0.57595
 H2993 H 0.58780 1.22740 0.63575
 H2994 H 0.57175 1.19758 0.61984
 H2995 H 0.62313 1.18411 0.59308
 H2996 H 0.63917 1.21394 0.60901
 H2997 H 0.60003 1.24954 0.58170
 H2998 H 0.58400 1.21972 0.56579
 C2999 C 0.60923 0.73059 1.10915
 C3000 C 0.61381 0.72852 1.08696
 C3001 C 0.60511 0.71251 1.07836
 C3002 C 0.59269 0.70012 1.09281
 C3003 C 0.57788 0.71474 1.10190
 C3004 C 0.58657 0.73076 1.11049
 C3005 C 0.61555 0.71081 1.11838
 C3006 C 0.60685 0.69478 1.10979
 C3007 C 0.61850 0.74792 1.11833
 C3008 C 0.62594 0.76233 1.12572
 C3009 C 0.58335 0.68286 1.08357
 C3010 C 0.57580 0.66855 1.07608
 H3011 H 0.62310 0.73872 1.07872
 H3012 H 0.60693 0.70900 1.06277
 H3013 H 0.56196 0.71270 1.10161
 H3014 H 0.57810 0.74242 1.11759
 H3015 H 0.62594 0.70950 1.13057
 H3016 H 0.60980 0.67973 1.11464
 C3017 C 0.89082 1.23071 0.89059
 C3018 C 0.90257 1.21778 0.87605
 C3019 C 0.91120 1.20173 0.88472
 C3020 C 0.90722 1.20018 0.90708
 C3021 C 0.88461 1.20053 0.90906
 C3022 C 0.87598 1.21659 0.90039
 C3023 C 0.90555 1.23603 0.90704
 C3024 C 0.91417 1.21998 0.91571
 C3025 C 0.88162 1.24806 0.88132
 C3026 C 0.87418 1.26245 0.87383
 C3027 C 0.91650 1.18291 0.91641
 C3028 C 0.92404 1.16861 0.92398
 H3029 H 0.90393 1.22092 0.86032
 H3030 H 0.91996 1.19111 0.87642
 H3031 H 0.87612 1.18917 0.91661
 H3032 H 0.86011 1.21898 0.90049
 H3033 H 0.90887 1.25109 0.91153
 H3034 H 0.92488 1.22129 0.92763
 C3035 C 0.89115 0.73070 0.39073
 C3036 C 0.88722 0.72900 0.41308
 C3037 C 0.89581 0.71286 0.42162
 C3038 C 0.90750 0.70000 0.40698
 C3039 C 0.92234 0.71413 0.39722
 C3040 C 0.91375 0.73027 0.38868
 C3041 C 0.88410 0.71096 0.38198
 C3042 C 0.89269 0.69482 0.39053
 C3043 C 0.88196 0.74813 0.38158
 C3044 C 0.87451 0.76255 0.37416
 C3045 C 0.91675 0.68262 0.41618
 C3046 C 0.92425 0.66825 0.42365
 H3047 H 0.87842 0.73953 0.42145
 H3048 H 0.89438 0.70957 0.43731
 H3049 H 0.93821 0.71168 0.39703
 H3050 H 0.92225 0.74164 0.38116
 H3051 H 0.87329 0.70977 0.37014
 H3052 H 0.88925 0.67980 0.38601
 C3053 C 0.39043 1.23089 0.39065
 C3054 C 0.40215 1.21801 0.37604
 C3055 C 0.41083 1.20195 0.38464
 C3056 C 0.40694 1.20034 0.40701
 C3057 C 0.38433 1.20066 0.40908
 C3058 C 0.37565 1.21672 0.40048
 C3059 C 0.40522 1.23619 0.40707
 C3060 C 0.41389 1.22013 0.41566
 C3061 C 0.38116 1.24826 0.38148
 C3062 C 0.37366 1.26265 0.37405
 C3063 C 0.41628 1.18306 0.41628
 C3064 C 0.42385 1.16876 0.42382
 H3065 H 0.40346 1.22120 0.36032
 H3066 H 0.41958 1.19137 0.37629
 H3067 H 0.37588 1.18925 0.41661
 H3068 H 0.35977 1.21908 0.40063
 H3069 H 0.40857 1.25124 0.41155
 H3070 H 0.42467 1.22142 0.42752
 C3071 C 0.39074 0.73068 0.89109
 C3072 C 0.40243 0.71780 0.87646
 C3073 C 0.41106 0.70169 0.88504
 C3074 C 0.40714 0.70006 0.90741
 C3075 C 0.38454 0.70043 0.90945
 C3076 C 0.37591 0.71654 0.90087
 C3077 C 0.40552 0.73591 0.90752
 C3078 C 0.41415 0.71982 0.91610
 C3079 C 0.38152 0.74809 0.88194
 C3080 C 0.37405 0.76250 0.87453
 C3081 C 0.41643 0.68275 0.91666
 C3082 C 0.42397 0.66844 0.92419
 H3083 H 0.40377 0.72100 0.86074
 H3084 H 0.41979 0.69111 0.87668
 H3085 H 0.37605 0.68904 0.91697
 H3086 H 0.36003 0.71894 0.90102
 H3087 H 0.40890 0.75095 0.91204
 H3088 H 0.42491 0.72106 0.92797
 C3089 C 1.10924 0.76956 0.89088
 C3090 C 1.10528 0.78658 0.87632
 C3091 C 1.09668 0.80268 0.88492
 C3092 C 1.09289 0.80015 0.90723
 C3093 C 1.11311 0.79483 0.91610
 C3094 C 1.12171 0.77874 0.90750
 C3095 C 1.08913 0.76513 0.90043
 C3096 C 1.08053 0.78121 0.90902
 C3097 C 1.11842 0.75217 0.88170
 C3098 C 1.12585 0.73776 0.87428
 C3099 C 1.08362 0.81744 0.91650
 C3100 C 1.07606 0.83171 0.92406
 H3101 H 1.10895 0.78607 0.86066
 H3102 H 1.09297 0.81595 0.87663
 H3103 H 1.12008 0.80301 0.92805
 H3104 H 1.13605 0.77313 0.91207
 H3105 H 1.08225 0.75062 0.90044
 H3106 H 1.06629 0.78049 0.91641
 C3107 C 1.10971 0.26960 0.39066
 C3108 C 1.10559 0.28665 0.37617
 C3109 C 1.09680 0.30261 0.38483
 C3110 C 1.09300 0.29995 0.40711
 C3111 C 1.11325 0.29480 0.41600
 C3112 C 1.12204 0.27884 0.40735
 C3113 C 1.08962 0.26492 0.40014
 C3114 C 1.08083 0.28088 0.40880
 C3115 C 1.11909 0.25233 0.38145
 C3116 C 1.12662 0.23797 0.37402
 C3117 C 1.08355 0.31712 0.41643
 C3118 C 1.07592 0.33136 0.42400
 H3119 H 1.10928 0.28623 0.36051
 H3120 H 1.09295 0.31587 0.37658
 H3121 H 1.12011 0.30299 0.42801
 H3122 H 1.13643 0.27337 0.41193
 H3123 H 1.08287 0.25036 0.40005
 H3124 H 1.06657 0.27998 0.41612
 C3125 C 0.60920 0.76965 0.39093
 C3126 C 0.60541 0.76713 0.41322
 C3127 C 0.59675 0.78319 0.42181
 C3128 C 0.59273 0.80019 0.40727
 C3129 C 0.58033 0.79099 0.39061
 C3130 C 0.58899 0.77493 0.38202
 C3131 C 0.62152 0.78864 0.38914
 C3132 C 0.61285 0.80470 0.39774
 C3133 C 0.61845 0.75230 0.38176
 C3134 C 0.62594 0.73793 0.37432
 C3135 C 0.58340 0.81746 0.41651
 C3136 C 0.57582 0.83175 0.42402
 H3137 H 0.60924 0.75391 0.42154
 H3138 H 0.59317 0.78372 0.43749
 H3139 H 0.56603 0.79663 0.38593
 H3140 H 0.58212 0.76682 0.36997
 H3141 H 0.63576 0.78940 0.38176
 H3142 H 0.61969 0.81923 0.39773
 C3143 C 0.60922 0.26946 0.89049
 C3144 C 0.60551 0.26687 0.91279
 C3145 C 0.59693 0.28292 0.92148
 C3146 C 0.59291 0.30000 0.90702
 C3147 C 0.58041 0.29089 0.89038
 C3148 C 0.58898 0.27484 0.88169
 C3149 C 0.62158 0.28842 0.88873
 C3150 C 0.61301 0.30448 0.89742
 C3151 C 0.61836 0.25210 0.88120
 C3152 C 0.62578 0.23772 0.87369
 C3153 C 0.58366 0.31727 0.91637
 C3154 C 0.57613 0.33156 0.92395
 H3155 H 0.60935 0.25362 0.92105
 H3156 H 0.59343 0.28342 0.93718
 H3157 H 0.56611 0.29659 0.88578
 H3158 H 0.58204 0.26679 0.86964
 H3159 H 0.63581 0.28916 0.88132
 H3160 H 0.61989 0.31898 0.89746
 C3161 C 0.89068 0.76961 1.10924
 C3162 C 0.87592 0.78423 1.10003
 C3163 C 0.88469 0.80023 1.09143
 C3164 C 0.90734 0.80003 1.09290
 C3165 C 0.91369 0.78023 1.08377
 C3166 C 0.90493 0.76424 1.09237
 C3167 C 0.90302 0.78200 1.12372
 C3168 C 0.91178 0.79801 1.11513
 C3169 C 0.88133 0.75232 1.11841
 C3170 C 0.87380 0.73796 1.12582
 C3171 C 0.91675 0.81724 1.08365
 C3172 C 0.92433 0.83152 1.07612
 H3173 H 0.86000 0.78222 1.10026
 H3174 H 0.87627 0.81192 1.08429
 H3175 H 0.92412 0.77888 1.07162
 H3176 H 0.90786 0.74918 1.08757
 H3177 H 0.90468 0.77856 1.13936
 H3178 H 0.92096 0.80826 1.12340
 C3179 C 0.89068 0.26936 0.60895
 C3180 C 0.91088 0.27455 0.61790
 C3181 C 0.91957 0.29060 0.60935
 C3182 C 0.90721 0.29990 0.59268
 C3183 C 0.88708 0.30445 0.60217
 C3184 C 0.87838 0.28838 0.61073
 C3185 C 0.89451 0.26690 0.58666
 C3186 C 0.90321 0.28295 0.57811
 C3187 C 0.88141 0.25200 0.61808
 C3188 C 0.87393 0.23760 0.62549
 C3189 C 0.91657 0.31716 0.58345
 C3190 C 0.92415 0.33144 0.57592
 H3191 H 0.91772 0.26638 0.62995
 H3192 H 0.93386 0.29619 0.61407
 H3193 H 0.88025 0.31900 0.60217
 H3194 H 0.86411 0.28917 0.61806
 H3195 H 0.89067 0.25373 0.57831
 H3196 H 0.90681 0.28354 0.56243
 C3197 C 0.39054 0.76963 0.60906
 C3198 C 0.38734 0.77092 0.58657
 C3199 C 0.39605 0.78697 0.57804
 C3200 C 0.40712 0.80017 0.59284
 C3201 C 0.42178 0.78632 0.60332
 C3202 C 0.41306 0.77027 0.61185
 C3203 C 0.38301 0.78945 0.61724
 C3204 C 0.39173 0.80551 0.60870
 C3205 C 0.38124 0.75228 0.61817
 C3206 C 0.37374 0.73789 0.62557
 C3207 C 0.41648 0.81744 0.58363
 C3208 C 0.42403 0.83173 0.57609
 H3209 H 0.37894 0.76018 0.57809
 H3210 H 0.39514 0.78998 0.56226
 H3211 H 0.43760 0.78890 0.60399
 H3212 H 0.42142 0.75909 0.61983
 H3213 H 0.37182 0.79075 0.62870
 H3214 H 0.38802 0.82058 0.61287
 C3215 C 0.39082 0.26956 1.10899
 C3216 C 0.37602 0.28441 1.10022
 C3217 C 0.38476 0.30047 1.09170
 C3218 C 0.40743 0.30009 1.09278
 C3219 C 0.41348 0.28037 1.08328
 C3220 C 0.40475 0.26432 1.09180
 C3221 C 0.40350 0.28167 1.12342
 C3222 C 0.41223 0.29773 1.11490
 C3223 C 0.38149 0.25223 1.11810
 C3224 C 0.37396 0.23787 1.12551
 C3225 C 0.41680 0.31737 1.08362
 C3226 C 0.42434 0.33171 1.07616
 H3227 H 0.36010 0.28249 1.10067
 H3228 H 0.37631 0.31230 1.08483
 H3229 H 0.42370 0.27912 1.07093
 H3230 H 0.40749 0.24931 1.08676
 H3231 H 0.40543 0.27797 1.13897
 H3232 H 0.42166 0.30778 1.12314
 C3233 C 1.10893 1.10997 0.76879
 C3234 C 1.09839 1.12468 0.78253
 C3235 C 1.08985 1.11602 0.79865
 C3236 C 1.09270 1.09348 0.79945
 C3237 C 1.11515 1.09033 0.79828
 C3238 C 1.12368 1.09901 0.78217
 C3239 C 1.09317 1.09452 0.76350
 C3240 C 1.08465 1.08585 0.77962
 C3241 C 1.11808 1.11922 0.75138
 C3242 C 1.12556 1.12674 0.73701
 C3243 C 1.08353 1.08413 0.81681
 C3244 C 1.07607 1.07654 0.83117
 H3245 H 1.09768 1.14051 0.77983
 H3246 H 1.08184 1.12444 0.80976
 H3247 H 1.12361 1.08209 0.80919
 H3248 H 1.13945 1.09815 0.77925
 H3249 H 1.08905 1.09075 0.74842
 H3250 H 1.07320 1.07469 0.77834
 C3251 C 1.10925 0.61008 0.26895
 C3252 C 1.11216 0.58756 0.26959
 C3253 C 1.10363 0.57875 0.28562
 C3254 C 1.09303 0.59332 0.29946
 C3255 C 1.07826 0.60437 0.28617
 C3256 C 1.08679 0.61318 0.27013
 C3257 C 1.11726 0.61760 0.28885
 C3258 C 1.10873 0.60878 0.30490
 C3259 C 1.11842 0.61949 0.25164
 C3260 C 1.12595 0.62705 0.23732
 C3261 C 1.08386 0.58383 0.31674
 C3262 C 1.07641 0.57616 0.33105
 H3263 H 1.12023 0.57927 0.25843
 H3264 H 1.10440 0.56291 0.28820
 H3265 H 1.06250 0.60523 0.28910
 H3266 H 1.07834 0.62158 0.25932
 H3267 H 1.12863 0.62884 0.29023
 H3268 H 1.11279 0.61249 0.32001
 C3269 C 0.60919 1.10986 0.26909
 C3270 C 0.60682 1.08736 0.26713
 C3271 C 0.59820 1.07871 0.28319
 C3272 C 0.59277 1.09340 0.29966
 C3273 C 0.57968 1.10900 0.28955
 C3274 C 0.58831 1.11765 0.27347
 C3275 C 0.62076 1.11287 0.28843
 C3276 C 0.61212 1.10422 0.30450
 C3277 C 0.61850 1.11910 0.25177
 C3278 C 0.62614 1.12659 0.23747
 C3279 C 0.58349 1.08407 0.31695
 C3280 C 0.57595 1.07650 0.33126
 H3281 H 0.61152 1.07897 0.25424
 H3282 H 0.59550 1.06290 0.28407
 H3283 H 0.56493 1.11291 0.29457
 H3284 H 0.58097 1.12898 0.26473
 H3285 H 0.63451 1.12109 0.28943
 H3286 H 0.61848 1.10501 0.31926
 C3287 C 0.60892 0.60950 0.76922
 C3288 C 0.60655 0.58701 0.76727
 C3289 C 0.59795 0.57836 0.78335
 C3290 C 0.59256 0.59307 0.79982
 C3291 C 0.57945 0.60866 0.78972
 C3292 C 0.58806 0.61730 0.77364
 C3293 C 0.62053 0.61253 0.78854
 C3294 C 0.61192 0.60389 0.80463
 C3295 C 0.61814 0.61872 0.75184
 C3296 C 0.62568 0.62615 0.73746
 C3297 C 0.58331 0.58376 0.81713
 C3298 C 0.57582 0.57619 0.83146
 H3299 H 0.61123 0.57860 0.75439
 H3300 H 0.59522 0.56256 0.78423
 H3301 H 0.56471 0.61257 0.79477
 H3302 H 0.58071 0.62863 0.76491
 H3303 H 0.63428 0.62075 0.78950
 H3304 H 0.61828 0.60472 0.81938
 C3305 C 0.89106 0.89050 0.76933
 C3306 C 0.91110 0.88141 0.77495
 C3307 C 0.91969 0.89011 0.79100
 C3308 C 0.90740 0.90705 0.79984
 C3309 C 0.88711 0.89789 0.80430
 C3310 C 0.87852 0.88919 0.78825
 C3311 C 0.89518 0.91265 0.76650
 C3312 C 0.90377 0.92135 0.78254
 C3313 C 0.88185 0.88121 0.75200
 C3314 C 0.87430 0.87373 0.73766
 C3315 C 0.91664 0.91642 0.81711
 C3316 C 0.92413 0.92402 0.83141
 H3317 H 0.91792 0.86918 0.76706
 H3318 H 0.93388 0.88534 0.79685
 H3319 H 0.88013 0.89819 0.81879
 H3320 H 0.86418 0.88203 0.78899
 H3321 H 0.89166 0.92079 0.75307
 H3322 H 0.90761 0.93694 0.78285
 C3323 C 0.89111 0.39020 0.26882
 C3324 C 0.91151 0.38165 0.27398
 C3325 C 0.92000 0.39025 0.29014
 C3326 C 0.90726 0.40654 0.29954
 C3327 C 0.88735 0.39660 0.30401
 C3328 C 0.87885 0.38801 0.28785
 C3329 C 0.89444 0.41254 0.26650
 C3330 C 0.90294 0.42113 0.28264
 C3331 C 0.88200 0.38102 0.25139
 C3332 C 0.87450 0.37360 0.23701
 C3333 C 0.91642 0.41581 0.31690
 C3334 C 0.92389 0.42337 0.33123
 H3335 H 0.91864 0.36987 0.26570
 H3336 H 0.93441 0.38583 0.29569
 H3337 H 0.88052 0.39634 0.31858
 H3338 H 0.86475 0.38039 0.28858
 H3339 H 0.89046 0.42088 0.25333
 H3340 H 0.90623 0.43684 0.28331
 C3341 C 0.39091 0.88987 0.26885
 C3342 C 0.38538 0.88000 0.28859
 C3343 C 0.39381 0.88877 0.30469
 C3344 C 0.40695 0.90655 0.29946
 C3345 C 0.39357 0.92047 0.28746
 C3346 C 0.38514 0.91170 0.27137
 C3347 C 0.41359 0.88976 0.26838
 C3348 C 0.42202 0.89852 0.28447
 C3349 C 0.38184 0.88051 0.25148
 C3350 C 0.37438 0.87299 0.23712
 C3351 C 0.41606 0.91598 0.31677
 C3352 C 0.42352 0.92361 0.33108
 H3353 H 0.37569 0.86725 0.28982
 H3354 H 0.39135 0.88354 0.31970
 H3355 H 0.39092 0.93584 0.29127
 H3356 H 0.37528 0.91956 0.26140
 H3357 H 0.42227 0.88334 0.25646
 H3358 H 0.43793 0.89961 0.28634
 C3359 C 0.39129 0.39023 0.76912
 C3360 C 0.40458 0.40789 0.76392
 C3361 C 0.41307 0.41658 0.78001
 C3362 C 0.40744 0.40677 0.79975
 C3363 C 0.41301 0.38488 0.79725
 C3364 C 0.40451 0.37618 0.78115
 C3365 C 0.37625 0.39837 0.78410
 C3366 C 0.38475 0.40706 0.80020
 C3367 C 0.38221 0.38095 0.75172
 C3368 C 0.37480 0.37346 0.73732
 C3369 C 0.41659 0.41615 0.81707
 C3370 C 0.42403 0.42378 0.83138
 H3371 H 0.40711 0.41309 0.74890
 H3372 H 0.42290 0.42920 0.77878
 H3373 H 0.42273 0.37690 0.80726
 H3374 H 0.40694 0.36076 0.77737
 H3375 H 0.36034 0.39734 0.78226
 H3376 H 0.37612 0.41346 0.81216
 C3377 C 1.10892 0.88996 1.23083
 C3378 C 1.08838 0.88175 1.22581
 C3379 C 1.07983 0.89060 1.20980
 C3380 C 1.09267 0.90679 1.20037
 C3381 C 1.11243 0.89662 1.19565
 C3382 C 1.12098 0.88776 1.21167
 C3383 C 1.10587 0.91233 1.23333
 C3384 C 1.09732 0.92118 1.21732
 C3385 C 1.11806 0.88054 1.24815
 C3386 C 1.12552 0.87300 1.26252
 C3387 C 1.08348 0.91630 1.18312
 C3388 C 1.07602 0.92394 1.16880
 H3389 H 1.08120 0.86999 1.23407
 H3390 H 1.06531 0.88644 1.20436
 H3391 H 1.11912 0.89642 1.18103
 H3392 H 1.13500 0.87997 1.21076
 H3393 H 1.11012 0.92051 1.24650
 H3394 H 1.09423 0.93694 1.21679
 C3395 C 1.10890 0.39017 0.73091
 C3396 C 1.12168 0.40632 0.72133
 C3397 C 1.11309 0.41497 0.70523
 C3398 C 1.09257 0.40664 0.70030
 C3399 C 1.08053 0.40897 0.71944
 C3400 C 1.08911 0.40031 0.73553
 C3401 C 1.10431 0.37559 0.71410
 C3402 C 1.09573 0.38425 0.69800
 C3403 C 1.11810 0.38092 0.74829
 C3404 C 1.12560 0.37343 0.76266
 C3405 C 1.08335 0.41599 0.68298
 C3406 C 1.07587 0.42359 0.66865
 H3407 H 1.13621 0.41056 0.72668
 H3408 H 1.12026 0.42662 0.69680
 H3409 H 1.06647 0.41669 0.72028
 H3410 H 1.08243 0.40064 0.75016
 H3411 H 1.10754 0.35987 0.71478
 H3412 H 1.09157 0.37593 0.68489
 C3413 C 0.60881 0.89071 0.73078
 C3414 C 0.61921 0.90973 0.72401
 C3415 C 0.61059 0.91843 0.70796
 C3416 C 0.59241 0.90725 0.70024
 C3417 C 0.57858 0.90544 0.71818
 C3418 C 0.58720 0.89675 0.73423
 C3419 C 0.60838 0.87740 0.71236
 C3420 C 0.59975 0.88610 0.69630
 C3421 C 0.61805 0.88146 0.74814
 C3422 C 0.62560 0.87403 0.76253
 C3423 C 0.58314 0.91660 0.68295
 C3424 C 0.57562 0.92417 0.66863
 H3425 H 0.63222 0.91582 0.73118
 H3426 H 0.61620 0.93197 0.70138
 H3427 H 0.56335 0.91054 0.71826
 H3428 H 0.57935 0.89439 0.74807
 H3429 H 0.61434 0.86249 0.71195
 H3430 H 0.59832 0.87863 0.68213
 C3431 C 0.60905 0.38989 1.23127
 C3432 C 0.62189 0.40604 1.22178
 C3433 C 0.61337 0.41480 1.20570
 C3434 C 0.59284 0.40654 1.20069
 C3435 C 0.58075 0.40881 1.21981
 C3436 C 0.58928 0.40006 1.23589
 C3437 C 0.60446 0.37540 1.21438
 C3438 C 0.59594 0.38415 1.19830
 C3439 C 0.61820 0.38054 1.24863
 C3440 C 0.62571 0.37303 1.26299
 C3441 C 0.58366 0.41597 1.18338
 C3442 C 0.57617 0.42362 1.16907
 H3443 H 0.63641 0.41022 1.22720
 H3444 H 0.62059 0.42647 1.19735
 H3445 H 0.56673 0.41659 1.22065
 H3446 H 0.58256 0.40035 1.25050
 H3447 H 0.60764 0.35966 1.21499
 H3448 H 0.59181 0.37591 1.18513
 C3449 C 0.89107 1.10957 1.23040
 C3450 C 0.88670 1.12010 1.21070
 C3451 C 0.89539 1.11131 1.19473
 C3452 C 0.90759 1.09288 1.20004
 C3453 C 0.89323 1.07929 1.21121
 C3454 C 0.88454 1.08807 1.22717
 C3455 C 0.91371 1.10869 1.23171
 C3456 C 0.92240 1.09992 1.21575
 C3457 C 0.88175 1.11892 1.24767
 C3458 C 0.87415 1.12641 1.26199
 C3459 C 0.91692 1.08342 1.18284
 C3460 C 0.92447 1.07578 1.16857
 H3461 H 0.87758 1.13327 1.20939
 H3462 H 0.89372 1.11696 1.17975
 H3463 H 0.89012 1.06413 1.20694
 H3464 H 0.87398 1.08044 1.23656
 H3465 H 0.92218 1.11450 1.24407
 H3466 H 0.93830 1.09819 1.21444
 C3467 C 0.89124 0.60942 0.73070
 C3468 C 0.90708 0.59404 0.73608
 C3469 C 0.91562 0.58530 0.72002
 C3470 C 0.90750 0.59280 0.70015
 C3471 C 0.91023 0.61535 0.70076
 C3472 C 0.90168 0.62409 0.71683
 C3473 C 0.87652 0.59833 0.71745
 C3474 C 0.88506 0.58959 0.70139
 C3475 C 0.88208 0.61873 0.74806
 C3476 C 0.87459 0.62621 0.76243
 C3477 C 0.91669 0.58341 0.68285
 C3478 C 0.92417 0.57581 0.66853
 H3479 H 0.91122 0.59035 0.75119
 H3480 H 0.92708 0.57413 0.72137
 H3481 H 0.91817 0.62371 0.68956
 H3482 H 0.90229 0.63993 0.71939
 H3483 H 0.86076 0.59744 0.72041
 H3484 H 0.87663 0.58120 0.69059
 C3485 C 0.39098 1.10963 0.73047
 C3486 C 0.38696 1.08733 0.72906
 C3487 C 0.39553 1.07856 0.71303
 C3488 C 0.40730 1.09296 0.69998
 C3489 C 0.42217 1.10279 0.71403
 C3490 C 0.41359 1.11155 0.73006
 C3491 C 0.38399 1.11817 0.71057
 C3492 C 0.39257 1.10940 0.69453
 C3493 C 0.38178 1.11899 0.74779
 C3494 C 0.37425 1.12651 0.76212
 C3495 C 0.41654 1.08353 0.68272
 C3496 C 0.42406 1.07592 0.66843
 H3497 H 0.37810 1.07914 0.73969
 H3498 H 0.39402 1.06288 0.70992
 H3499 H 0.43803 1.10293 0.71157
 H3500 H 0.42211 1.11919 0.74134
 H3501 H 0.37327 1.13006 0.70919
 H3502 H 0.38920 1.11379 0.67942
 C3503 C 0.39127 0.60996 1.23093
 C3504 C 0.39355 0.62387 1.21308
 C3505 C 0.40204 0.61508 1.19700
 C3506 C 0.40741 0.59325 1.20036
 C3507 C 0.38807 0.58338 1.20698
 C3508 C 0.37958 0.59217 1.22305
 C3509 C 0.41215 0.60197 1.23491
 C3510 C 0.42063 0.59318 1.21884
 C3511 C 0.38219 0.61930 1.24831
 C3512 C 0.37475 0.62678 1.26271
 C3513 C 0.41654 0.58380 1.18306
 C3514 C 0.42397 0.57616 1.16874
 H3515 H 0.38891 0.63925 1.21305
 H3516 H 0.40469 0.62295 1.18322
 H3517 H 0.38161 0.57061 1.19971
 H3518 H 0.36585 0.58694 1.22952
 H3519 H 0.41962 0.60312 1.24911
 H3520 H 0.43537 0.58681 1.21928
 C3521 C 1.10933 1.23108 0.89050
 C3522 C 1.09087 1.22382 0.87947
 C3523 C 1.08225 1.20770 0.88799
 C3524 C 1.09295 1.20043 0.90671
 C3525 C 1.09385 1.21852 0.92041
 C3526 C 1.10246 1.23463 0.91189
 C3527 C 1.12302 1.21298 0.89164
 C3528 C 1.11441 1.19687 0.90017
 C3529 C 1.11857 1.24846 0.88139
 C3530 C 1.12611 1.26281 0.87399
 C3531 C 1.08370 1.18309 0.91592
 C3532 C 1.07622 1.16875 0.92346
 H3533 H 1.08509 1.23073 0.86613
 H3534 H 1.06909 1.20079 0.88194
 H3535 H 1.08820 1.21867 0.93547
 H3536 H 1.10421 1.24859 0.91965
 H3537 H 1.13813 1.21283 0.88621
 H3538 H 1.12213 1.18290 0.90201
 C3539 C 1.10924 0.73057 0.39029
 C3540 C 1.09448 0.73595 0.40672
 C3541 C 1.08578 0.71994 0.41536
 C3542 C 1.09270 0.70010 0.40673
 C3543 C 1.11531 0.70034 0.40877
 C3544 C 1.12401 0.71636 0.40013
 C3545 C 1.09749 0.71771 0.37572
 C3546 C 1.08880 0.70169 0.38437
 C3547 C 1.11853 0.74789 0.38108
 C3548 C 1.12607 0.76227 0.37367
 C3549 C 1.08337 0.68285 0.41604
 C3550 C 1.07585 0.66854 0.42359
 H3551 H 1.09119 0.75102 0.41120
 H3552 H 1.07504 0.72130 0.42724
 H3553 H 1.12375 0.68894 0.41634
 H3554 H 1.13989 0.71866 0.40028
 H3555 H 1.09618 0.72086 0.35999
 H3556 H 1.08001 0.69114 0.37605
 C3557 C 0.60893 1.23110 0.39006
 C3558 C 0.61258 1.21170 0.37881
 C3559 C 0.60397 1.19564 0.38747
 C3560 C 0.59256 1.20055 0.40653
 C3561 C 0.57775 1.21669 0.40048
 C3562 C 0.58636 1.23275 0.39183
 C3563 C 0.61621 1.22710 0.41125
 C3564 C 0.60761 1.21104 0.41990
 C3565 C 0.61817 1.24844 0.38081
 C3566 C 0.62572 1.26278 0.37333
 C3567 C 0.58332 1.18324 0.41586
 C3568 C 0.57585 1.16892 0.42344
 H3569 H 0.62117 1.21067 0.36525
 H3570 H 0.60517 1.18085 0.38130
 H3571 H 0.56191 1.21560 0.40278
 H3572 H 0.57788 1.24541 0.38672
 H3573 H 0.62717 1.23608 0.41878
 H3574 H 0.61119 1.20628 0.43485
 C3575 C 0.60890 0.73069 0.89074
 C3576 C 0.61488 0.71098 0.88114
 C3577 C 0.60630 0.69490 0.88976
 C3578 C 0.59258 0.70009 0.90714
 C3579 C 0.57764 0.71492 0.89857
 C3580 C 0.58621 0.73100 0.88995
 C3581 C 0.61399 0.72830 0.91278
 C3582 C 0.60542 0.71222 0.92141
 C3583 C 0.61811 0.74806 0.88155
 C3584 C 0.62564 0.76244 0.87416
 C3585 C 0.58336 0.68277 0.91642
 C3586 C 0.57588 0.66844 0.92396
 H3587 H 0.62497 0.70977 0.86867
 H3588 H 0.60903 0.67990 0.88469
 H3589 H 0.56172 0.71295 0.89922
 H3590 H 0.57765 0.74281 0.88319
 H3591 H 0.62352 0.73836 0.92090
 H3592 H 0.60759 0.70851 0.93692
 C3593 C 0.89152 1.23073 1.10974
 C3594 C 0.89712 1.23400 1.08793
 C3595 C 0.90558 1.21789 1.07924
 C3596 C 0.90763 1.20007 1.09321
 C3597 C 0.88664 1.19625 1.10100
 C3598 C 0.87817 1.21237 1.10969
 C3599 C 0.91071 1.22398 1.11985
 C3600 C 0.91918 1.20787 1.11116
 C3601 C 0.88243 1.24814 1.11902
 C3602 C 0.87495 1.26253 1.12650
 C3603 C 0.91675 1.18274 1.08384
 C3604 C 0.92417 1.16840 1.07623
 H3605 H 0.89460 1.24775 1.07999
 H3606 H 0.91034 1.21785 1.06387
 H3607 H 0.87911 1.18212 1.09980
 H3608 H 0.86338 1.21204 1.11593
 H3609 H 0.91706 1.23120 1.13273
 H3610 H 0.93280 1.20129 1.11659
 C3611 C 0.89107 0.73045 0.60937
 C3612 C 0.89671 0.73378 0.58758
 C3613 C 0.90525 0.71771 0.57889
 C3614 C 0.90732 0.69988 0.59283
 C3615 C 0.88633 0.69597 0.60057
 C3616 C 0.87778 0.71205 0.60927
 C3617 C 0.91026 0.72376 0.61952
 C3618 C 0.91880 0.70768 0.61082
 C3619 C 0.88189 0.74780 0.61865
 C3620 C 0.87435 0.76215 0.62612
 C3621 C 0.91651 0.68257 0.58348
 C3622 C 0.92400 0.66824 0.57591
 H3623 H 0.89420 0.74755 0.57967
 H3624 H 0.91005 0.71772 0.56353
 H3625 H 0.87884 0.68182 0.59934
 H3626 H 0.86299 0.71167 0.61549
 H3627 H 0.91657 0.73098 0.63241
 H3628 H 0.93243 0.70114 0.61626
 C3629 C 0.39088 1.23095 0.60965
 C3630 C 0.39306 1.23272 0.58707
 C3631 C 0.40158 1.21658 0.57849
 C3632 C 0.40707 1.20025 0.59333
 C3633 C 0.38780 1.19557 0.60441
 C3634 C 0.37928 1.21172 0.61299
 C3635 C 0.41180 1.22657 0.61731
 C3636 C 0.42032 1.21042 0.60873
 C3637 C 0.38176 1.24838 0.61881
 C3638 C 0.37432 1.26280 0.62621
 C3639 C 0.41624 1.18290 0.58405
 C3640 C 0.42372 1.16859 0.57647
 H3641 H 0.38833 1.24552 0.57857
 H3642 H 0.40416 1.21557 0.56264
 H3643 H 0.38145 1.18087 0.60550
 H3644 H 0.36562 1.21085 0.62141
 H3645 H 0.41923 1.23533 0.62854
 H3646 H 0.43505 1.20535 0.61261
 C3647 C 0.39107 0.73102 1.11008
 C3648 C 0.39314 0.71318 1.12403
 C3649 C 0.40165 0.69709 1.11531
 C3650 C 0.40725 0.70042 1.09350
 C3651 C 0.42055 0.71881 1.09359
 C3652 C 0.41204 0.73489 1.10230
 C3653 C 0.37953 0.72322 1.09213
 C3654 C 0.38803 0.70713 1.08341
 C3655 C 0.38192 0.74839 1.11939
 C3656 C 0.37441 0.76274 1.12688
 C3657 C 0.41641 0.68310 1.08411
 C3658 C 0.42386 0.66876 1.07652
 H3659 H 0.38832 0.71316 1.13938
 H3660 H 0.40412 0.68330 1.12320
 H3661 H 0.43534 0.71917 1.08736
 H3662 H 0.41955 0.74903 1.10353
 H3663 H 0.36586 0.72973 1.08675
 H3664 H 0.38165 0.69988 1.07057
 C3665 C 0.89121 0.76944 0.89063
 C3666 C 0.87629 0.78508 0.89762
 C3667 C 0.88487 0.80115 0.90625
 C3668 C 0.90753 0.79999 0.90704
 C3669 C 0.91401 0.79666 0.88549
 C3670 C 0.90542 0.78060 0.87686
 C3671 C 0.90351 0.76439 0.90908
 C3672 C 0.91209 0.78045 0.91770
 C3673 C 0.88201 0.75210 0.88143
 C3674 C 0.87450 0.73774 0.87402
 C3675 C 0.91673 0.81728 0.91634
 C3676 C 0.92419 0.83160 0.92390
 H3677 H 0.86039 0.78368 0.89592
 H3678 H 0.87632 0.81350 0.91195
 H3679 H 0.92441 0.80610 0.87768
 H3680 H 0.90846 0.77628 0.86166
 H3681 H 0.90533 0.74950 0.91485
 H3682 H 0.92126 0.77931 0.93086
 C3683 C 0.89099 0.26944 0.39040
 C3684 C 0.87617 0.28513 0.39747
 C3685 C 0.88485 0.30111 0.40616
 C3686 C 0.90750 0.29983 0.40692
 C3687 C 0.91394 0.29655 0.38535
 C3688 C 0.90526 0.28057 0.37666
 C3689 C 0.90329 0.26424 0.40882
 C3690 C 0.91196 0.28021 0.41750
 C3691 C 0.88169 0.25218 0.38114
 C3692 C 0.87410 0.23788 0.37367
 C3693 C 0.91682 0.31704 0.41626
 C3694 C 0.92433 0.33133 0.42382
 H3695 H 0.86026 0.28382 0.39579
 H3696 H 0.87638 0.31348 0.41194
 H3697 H 0.92436 0.30599 0.37757
 H3698 H 0.90823 0.27633 0.36142
 H3699 H 0.90497 0.24932 0.41455
 H3700 H 0.92109 0.27898 0.43068
 C3701 C 0.39080 0.76905 0.39043
 C3702 C 0.41345 0.76795 0.39123
 C3703 C 0.42200 0.78405 0.39983
 C3704 C 0.40705 0.79967 0.40679
 C3705 C 0.39284 0.78852 0.42057
 C3706 C 0.38429 0.77243 0.41197
 C3707 C 0.38619 0.78857 0.37972
 C3708 C 0.39475 0.80467 0.38832
 C3709 C 0.38164 0.75166 0.38127
 C3710 C 0.37416 0.73727 0.37389
 C3711 C 0.41624 0.81701 0.41605
 C3712 C 0.42369 0.83135 0.42357
 H3713 H 0.42202 0.75561 0.38553
 H3714 H 0.43789 0.78549 0.40151
 H3715 H 0.38979 0.79285 0.43576
 H3716 H 0.37390 0.76299 0.41977
 H3717 H 0.37705 0.78965 0.36653
 H3718 H 0.39294 0.81954 0.38248
 C3719 C 0.39102 0.26965 0.89046
 C3720 C 0.41367 0.26847 0.89126
 C3721 C 0.42226 0.28450 0.89993
 C3722 C 0.40737 0.30014 0.90695
 C3723 C 0.39311 0.28899 0.92067
 C3724 C 0.38452 0.27296 0.91201
 C3725 C 0.38649 0.28922 0.87982
 C3726 C 0.39508 0.30526 0.88849
 C3727 C 0.38179 0.25233 0.88122
 C3728 C 0.37425 0.23801 0.87377
 C3729 C 0.41662 0.31739 0.91629
 C3730 C 0.42415 0.33165 0.92388
 H3731 H 0.42222 0.25615 0.88547
 H3732 H 0.43817 0.28594 0.90154
 H3733 H 0.38998 0.29334 0.93584
 H3734 H 0.37404 0.26356 0.91976
 H3735 H 0.37736 0.29037 0.86663
 H3736 H 0.39332 0.32016 0.88272
 C3737 C 1.10919 0.76903 1.11023
 C3738 C 1.09595 0.76380 1.09253
 C3739 C 1.08735 0.77984 1.08381
 C3740 C 1.09284 0.79955 1.09366
 C3741 C 1.11553 0.80012 1.09339
 C3742 C 1.12413 0.78407 1.10210
 C3743 C 1.09588 0.78092 1.12430
 C3744 C 1.08728 0.79697 1.11558
 C3745 C 1.11843 0.75171 1.11954
 C3746 C 1.12599 0.73739 1.12705
 C3747 C 1.08360 0.81684 1.08427
 C3748 C 1.07613 0.83116 1.07666
 H3749 H 1.09355 0.74881 1.08728
 H3750 H 1.07758 0.77860 1.07111
 H3751 H 1.12409 0.81209 1.08695
 H3752 H 1.14005 0.78229 1.10312
 H3753 H 1.09346 0.77711 1.13974
 H3754 H 1.07749 0.80690 1.12357
 C3755 C 1.10890 0.26879 0.60986
 C3756 C 1.12355 0.28559 0.60558
 C3757 C 1.11505 0.30172 0.59692
 C3758 C 1.09274 0.29948 0.59342
 C3759 C 1.08408 0.29443 0.61385
 C3760 C 1.09259 0.27829 0.62250
 C3761 C 1.09908 0.26432 0.58985
 C3762 C 1.09058 0.28045 0.58121
 C3763 C 1.11803 0.25138 0.61907
 C3764 C 1.12552 0.23702 0.62655
 C3765 C 1.08361 0.31685 0.58408
 C3766 C 1.07620 0.33120 0.57648
 H3767 H 1.13920 0.28489 0.60907
 H3768 H 1.12342 0.31486 0.59305
 H3769 H 1.07233 0.30280 0.62093
 H3770 H 1.08811 0.27282 0.63695
 H3771 H 1.09878 0.24976 0.58309
 H3772 H 1.08299 0.27971 0.56706
 C3773 C 0.60887 0.76953 0.60931
 C3774 C 0.59558 0.76441 0.59160
 C3775 C 0.58701 0.78051 0.58298
 C3776 C 0.59256 0.80015 0.59290
 C3777 C 0.61525 0.80068 0.59260
 C3778 C 0.62383 0.78458 0.60123
 C3779 C 0.59560 0.78139 0.62345
 C3780 C 0.58702 0.79750 0.61482
 C3781 C 0.61807 0.75214 0.61850
 C3782 C 0.62561 0.73776 0.62590
 C3783 C 0.58333 0.81747 0.58360
 C3784 C 0.57584 0.83180 0.57605
 H3785 H 0.59314 0.74945 0.58631
 H3786 H 0.57719 0.77933 0.57030
 H3787 H 0.62382 0.81265 0.58618
 H3788 H 0.63975 0.78276 0.60220
 H3789 H 0.59317 0.77751 0.63888
 H3790 H 0.57722 0.80739 0.62284
 C3791 C 0.60888 0.26936 1.10988
 C3792 C 0.60066 0.28441 1.12480
 C3793 C 0.59206 0.30048 1.11611
 C3794 C 0.59251 0.29991 1.09336
 C3795 C 0.58272 0.28021 1.08776
 C3796 C 0.59133 0.26416 1.09645
 C3797 C 0.62302 0.28125 1.09665
 C3798 C 0.61442 0.29731 1.08798
 C3799 C 0.61815 0.25204 1.11918
 C3800 C 0.62576 0.23775 1.12671
 C3801 C 0.58328 0.31721 1.08401
 C3802 C 0.57581 0.33155 1.07644
 H3803 H 0.60153 0.28264 1.14078
 H3804 H 0.58556 0.31244 1.12463
 H3805 H 0.57017 0.27897 1.07782
 H3806 H 0.58615 0.24917 1.09396
 H3807 H 0.63843 0.27740 1.09431
 H3808 H 0.62245 0.30720 1.07818
 C3809 C 1.23058 1.10929 0.89085
 C3810 C 1.21616 1.12411 0.90026
 C3811 C 1.20010 1.11543 0.90880
 C3812 C 1.20004 1.09277 0.90709
 C3813 C 1.21978 1.08609 0.91610
 C3814 C 1.23584 1.09478 0.90756
 C3815 C 1.21801 1.09724 0.87627
 C3816 C 1.20195 1.08856 0.88481
 C3817 C 1.24793 1.11857 0.88174
 C3818 C 1.26230 1.12606 0.87433
 C3819 C 1.18275 1.08346 0.91628
 C3820 C 1.16844 1.07594 0.92378
 H3821 H 1.21836 1.14003 0.90022
 H3822 H 1.18854 1.12390 0.91608
 H3823 H 1.22104 1.07548 0.92812
 H3824 H 1.25086 1.09160 0.91227
 H3825 H 1.22142 1.09568 0.86062
 H3826 H 1.19161 1.07954 0.87648
 C3827 C 1.23074 0.60950 0.39105
 C3828 C 1.22996 0.61179 0.41367
 C3829 C 1.21389 0.60306 0.42214
 C3830 C 1.20019 0.59289 0.40717
 C3831 C 1.21350 0.57839 0.39583
 C3832 C 1.22956 0.58712 0.38735
 C3833 C 1.21095 0.61779 0.38357
 C3834 C 1.19488 0.60905 0.39205
 C3835 C 1.24810 0.61883 0.38198
 C3836 C 1.26246 0.62638 0.37459
 C3837 C 1.18291 0.58348 0.41632
 C3838 C 1.16863 0.57588 0.42380
 H3839 H 1.24101 0.61965 0.42226
 H3840 H 1.21119 0.60343 0.43800
 H3841 H 1.21054 0.56266 0.39451
 H3842 H 1.24036 0.57888 0.37876
 H3843 H 1.20967 0.62948 0.37259
 H3844 H 1.17983 0.61326 0.38834
 C3845 C 0.73050 1.10904 0.39097
 C3846 C 0.71076 1.11682 0.38285
 C3847 C 0.69464 1.10820 0.39135
 C3848 C 0.69985 1.09265 0.40713
 C3849 C 0.71316 1.10351 0.42197
 C3850 C 0.72928 1.11213 0.41347
 C3851 C 0.72964 1.08654 0.38806
 C3852 C 0.71353 1.07792 0.39655
 C3853 C 0.74790 1.11825 0.38187
 C3854 C 0.76230 1.12571 0.37447
 C3855 C 0.68251 1.08338 0.41628
 C3856 C 0.66817 1.07588 0.42376
 H3857 H 0.70955 1.12810 0.37144
 H3858 H 0.67961 1.11209 0.38721
 H3859 H 0.71018 1.10438 0.43776
 H3860 H 0.74009 1.12039 0.42198
 H3861 H 0.74071 1.07811 0.38000
 H3862 H 0.71079 1.06211 0.39579
 C3863 C 0.73050 0.60932 0.89091
 C3864 C 0.73118 0.60927 0.91365
 C3865 C 0.71511 0.60063 0.92222
 C3866 C 0.69994 0.59288 0.90722
 C3867 C 0.71163 0.57891 0.89363
 C3868 C 0.72770 0.58755 0.88505
 C3869 C 0.71087 0.61944 0.88560
 C3870 C 0.69480 0.61080 0.89418
 C3871 C 0.74786 0.61855 0.88175
 C3872 C 0.76224 0.62602 0.87433
 C3873 C 0.68266 0.58357 0.91646
 C3874 C 0.66838 0.57602 0.92399
 H3875 H 0.74320 0.61552 0.92227
 H3876 H 0.71338 0.59947 0.93818
 H3877 H 0.70761 0.56360 0.89093
 H3878 H 0.73743 0.57965 0.87500
 H3879 H 0.70969 0.63225 0.87594
 H3880 H 0.67985 0.61621 0.89186
 C3881 C 1.23106 0.89057 1.10934
 C3882 C 1.22708 0.88332 1.08816
 C3883 C 1.21099 0.89193 1.07956
 C3884 C 1.20047 0.90694 1.09298
 C3885 C 1.21654 0.92177 1.09901
 C3886 C 1.23262 0.91317 1.10761
 C3887 C 1.21171 0.88686 1.12063
 C3888 C 1.19562 0.89547 1.11202
 C3889 C 1.24843 0.88137 1.11854
 C3890 C 1.26282 0.87391 1.12599
 C3891 C 1.18316 0.91620 1.08371
 C3892 C 1.16884 0.92372 1.07618
 H3893 H 1.23608 0.87237 1.08060
 H3894 H 1.20622 0.88836 1.06462
 H3895 H 1.21540 0.93764 1.09672
 H3896 H 1.24525 0.92166 1.11270
 H3897 H 1.21072 0.87822 1.13417
 H3898 H 1.18085 0.89421 1.11820
 C3899 C 1.23068 0.39042 0.60901
 C3900 C 1.23366 0.41241 0.60413
 C3901 C 1.21760 0.42107 0.59554
 C3902 C 1.20012 0.40689 0.59267
 C3903 C 1.19597 0.39840 0.61338
 C3904 C 1.21204 0.38974 0.62197
 C3905 C 1.22460 0.38083 0.58932
 C3906 C 1.20853 0.38949 0.58073
 C3907 C 1.24804 0.38115 0.61818
 C3908 C 1.26240 0.37363 0.62561
 C3909 C 1.18282 0.41620 0.58344
 C3910 C 1.16849 0.42374 0.57594
 H3911 H 1.24719 0.42047 0.60718
 H3912 H 1.21738 0.43654 0.59121
 H3913 H 1.18167 0.39914 0.62066
 H3914 H 1.21150 0.38306 0.63661
 H3915 H 1.23223 0.36833 0.58272
 H3916 H 1.20241 0.38441 0.56676
 C3917 C 0.73038 0.89096 0.60906
 C3918 C 0.71988 0.90595 0.62253
 C3919 C 0.70377 0.91457 0.61398
 C3920 C 0.69974 0.90734 0.59279
 C3921 C 0.69818 0.88474 0.59451
 C3922 C 0.71429 0.87613 0.60307
 C3923 C 0.73517 0.90245 0.59002
 C3924 C 0.71906 0.91106 0.58146
 C3925 C 0.74778 0.88175 0.61818
 C3926 C 0.76219 0.87427 0.62558
 C3927 C 0.68241 0.91661 0.58358
 C3928 C 0.66808 0.92415 0.57608
 H3929 H 0.72465 0.90946 0.63749
 H3930 H 0.69475 0.92546 0.62160
 H3931 H 0.68552 0.87626 0.58948
 H3932 H 0.71543 0.86027 0.60538
 H3933 H 0.74992 0.90372 0.58380
 H3934 H 0.72002 0.91970 0.56792
 C3935 C 0.73061 0.39083 1.10951
 C3936 C 0.71106 0.38031 1.11423
 C3937 C 0.69501 0.38893 1.10555
 C3938 C 0.70010 0.40721 1.09301
 C3939 C 0.71567 0.40000 1.07811
 C3940 C 0.73171 0.39138 1.08679
 C3941 C 0.72736 0.41241 1.11579
 C3942 C 0.71131 0.42102 1.10711
 C3943 C 0.74794 0.38163 1.11879
 C3944 C 0.76231 0.37419 1.12631
 C3945 C 0.68282 0.41648 1.08368
 C3946 C 0.66851 0.42399 1.07614
 H3947 H 0.70992 0.36724 1.12353
 H3948 H 0.68012 0.38324 1.10742
 H3949 H 0.71420 0.40147 1.06215
 H3950 H 0.74398 0.38547 1.07826
 H3951 H 0.73680 0.42023 1.12616
 H3952 H 0.70703 0.43623 1.11005
 C3953 C 0.76955 1.10905 1.10955
 C3954 C 0.77756 1.12062 1.09168
 C3955 C 0.79366 1.11204 1.08308
 C3956 C 0.80017 1.09274 1.09318
 C3957 C 0.78173 1.07953 1.09311
 C3958 C 0.76564 1.08811 1.10171
 C3959 C 0.78725 1.10685 1.12364
 C3960 C 0.80335 1.09827 1.11503
 C3961 C 0.75215 1.11819 1.11875
 C3962 C 0.73773 1.12559 1.12619
 C3963 C 0.81747 1.08350 1.08390
 C3964 C 0.83178 1.07599 1.07634
 H3965 H 0.77119 1.13436 1.08630
 H3966 H 0.80106 1.11842 1.07030
 H3967 H 0.78133 1.06475 1.08685
 H3968 H 0.75147 1.08067 1.10283
 H3969 H 0.78717 1.11164 1.13900
 H3970 H 0.81705 1.09569 1.12302
 C3971 C 0.76978 0.60913 0.60899
 C3972 C 0.78178 0.59612 0.62326
 C3973 C 0.79783 0.58744 0.61467
 C3974 C 0.80030 0.59263 0.59264
 C3975 C 0.80076 0.61533 0.59195
 C3976 C 0.78471 0.62401 0.60055
 C3977 C 0.76457 0.59554 0.59154
 C3978 C 0.78061 0.58686 0.58295
 C3979 C 0.75243 0.61840 0.61815
 C3980 C 0.73806 0.62590 0.62558
 C3981 C 0.81756 0.58330 0.58338
 C3982 C 0.83185 0.57573 0.57585
 H3983 H 0.77804 0.59396 0.63877
 H3984 H 0.80783 0.57783 0.62280
 H3985 H 0.81266 0.62384 0.58532
 H3986 H 0.78287 0.63996 0.60131
 H3987 H 0.74959 0.59296 0.58640
 H3988 H 0.77937 0.57685 0.57044
 C3989 C 0.26908 1.10941 0.60935
 C3990 C 0.28116 1.09639 0.62356
 C3991 C 0.29722 1.08778 0.61490
 C3992 C 0.29964 1.09305 0.59289
 C3993 C 0.30002 1.11576 0.59227
 C3994 C 0.28396 1.12436 0.60093
 C3995 C 0.26390 1.09585 0.59187
 C3996 C 0.27995 1.08725 0.58322
 C3997 C 0.25169 1.11862 0.61857
 C3998 C 0.23730 1.12610 0.62602
 C3999 C 0.31695 1.08380 0.58357
 C4000 C 0.33127 1.07630 0.57601
 H4001 H 0.27744 1.09413 0.63905
 H4002 H 0.30724 1.07813 0.62298
 H4003 H 0.31187 1.12432 0.58562
 H4004 H 0.28207 1.14029 0.60172
 H4005 H 0.24892 1.09322 0.58676
 H4006 H 0.27872 1.07725 0.57069
 C4007 C 0.26906 0.60928 1.10924
 C4008 C 0.27886 0.59347 1.12232
 C4009 C 0.29499 0.58486 1.11381
 C4010 C 0.29974 0.59289 1.09306
 C4011 C 0.30177 0.61536 1.09578
 C4012 C 0.28563 0.62397 1.10429
 C4013 C 0.26451 0.59875 1.08961
 C4014 C 0.28064 0.59014 1.08110
 C4015 C 0.25164 0.61847 1.11835
 C4016 C 0.23724 0.62592 1.12578
 C4017 C 0.31709 0.58362 1.08390
 C4018 C 0.33145 0.57609 1.07644
 H4019 H 0.27362 0.58942 1.13698
 H4020 H 0.30356 0.57343 1.12119
 H4021 H 0.31473 0.62376 1.09140
 H4022 H 0.28477 0.63975 1.10720
 H4023 H 0.24991 0.59815 1.08295
 H4024 H 0.27985 0.58216 1.06717
 C4025 C 0.76962 0.89096 0.89099
 C4026 C 0.78911 0.88649 0.88023
 C4027 C 0.80517 0.89515 0.88879
 C4028 C 0.80014 0.90743 0.90726
 C4029 C 0.78915 0.89313 0.92108
 C4030 C 0.77310 0.88447 0.91252
 C4031 C 0.76837 0.91363 0.89177
 C4032 C 0.78442 0.92229 0.90033
 C4033 C 0.75228 0.88171 0.88186
 C4034 C 0.73792 0.87422 0.87445
 C4035 C 0.81741 0.91673 0.91648
 C4036 C 0.83171 0.92425 0.92399
 H4037 H 0.79021 0.87734 0.86705
 H4038 H 0.82003 0.89342 0.88293
 H4039 H 0.79360 0.89004 0.93623
 H4040 H 0.76380 0.87396 0.92034
 H4041 H 0.75599 0.92213 0.88605
 H4042 H 0.78579 0.93821 0.90194
 C4043 C 0.76918 0.39045 0.39068
 C4044 C 0.78864 0.38592 0.37987
 C4045 C 0.80475 0.39455 0.38838
 C4046 C 0.79981 0.40685 0.40686
 C4047 C 0.78880 0.39258 0.42071
 C4048 C 0.77270 0.38396 0.41220
 C4049 C 0.76800 0.41312 0.39146
 C4050 C 0.78409 0.42174 0.39997
 C4051 C 0.75177 0.38125 0.38157
 C4052 C 0.73736 0.37381 0.37417
 C4053 C 0.81713 0.41614 0.41604
 C4054 C 0.83145 0.42367 0.42353
 H4055 H 0.78969 0.37674 0.36671
 H4056 H 0.81959 0.39276 0.38251
 H4057 H 0.79328 0.38949 0.43585
 H4058 H 0.76340 0.37347 0.42005
 H4059 H 0.75561 0.42165 0.38580
 H4060 H 0.78549 0.43766 0.40160
 C4061 C 0.26912 0.89054 0.39125
 C4062 C 0.28855 0.88603 0.38039
 C4063 C 0.30466 0.89475 0.38879
 C4064 C 0.29974 0.90712 0.40723
 C4065 C 0.28884 0.89288 0.42119
 C4066 C 0.27274 0.88416 0.41279
 C4067 C 0.26785 0.91320 0.39193
 C4068 C 0.28395 0.92193 0.40033
 C4069 C 0.25174 0.88122 0.38224
 C4070 C 0.23738 0.87369 0.37487
 C4071 C 0.31706 0.91649 0.41630
 C4072 C 0.33139 0.92405 0.42372
 H4073 H 0.28958 0.87679 0.36727
 H4074 H 0.31948 0.89299 0.38286
 H4075 H 0.29338 0.88989 0.43634
 H4076 H 0.26350 0.87368 0.42073
 H4077 H 0.25541 0.92166 0.38628
 H4078 H 0.28529 0.93785 0.40189
 C4079 C 0.26945 0.39052 0.89102
 C4080 C 0.28895 0.38607 0.88025
 C4081 C 0.30500 0.39478 0.88879
 C4082 C 0.29997 0.40708 0.90725
 C4083 C 0.28901 0.39277 0.92109
 C4084 C 0.27297 0.38407 0.91256
 C4085 C 0.26817 0.41319 0.89178
 C4086 C 0.28421 0.42189 0.90031
 C4087 C 0.25210 0.38121 0.88192
 C4088 C 0.23772 0.37368 0.87454
 C4089 C 0.31726 0.41643 0.91644
 C4090 C 0.33157 0.42398 0.92392
 H4091 H 0.29006 0.37693 0.86707
 H4092 H 0.31986 0.39309 0.88292
 H4093 H 0.29345 0.38974 0.93626
 H4094 H 0.26368 0.37357 0.92041
 H4095 H 0.25576 0.42166 0.88607
 H4096 H 0.28553 0.43781 0.90193
   
