data_POSCAR
  _audit_creation_date              2014-09-24
  _audit_creation_method            'ToBaCCo'
  _symmetry_space_group_name_H-M    'P1'
  _symmetry_Int_Tables_number       1
  _symmetry_cell_setting            triclinic
  loop_
  _symmetry_equiv_pos_as_xyz
 x,y,z
_cell_length_a 55.9072
_cell_length_b 56.2923
_cell_length_c 56.2336
_cell_angle_alpha 90.047800
_cell_angle_beta 90.433000
_cell_angle_gamma 88.643500
loop_
  _atom_site_label
  _atom_site_type_symbol
  _atom_site_fract_x
  _atom_site_fract_y
  _atom_site_fract_z
C1 C 0.39618 1.37152 0.35738
 C2 C 0.39535 1.35549 0.37636
 C3 C 0.37543 1.35507 0.39084
 C4 C 0.35618 1.37110 0.38669
 C5 C 0.35696 1.38669 0.36777
 C6 C 0.37700 1.38680 0.35300
 C7 C 0.41194 1.37379 0.33886
 N8 N 0.40257 1.38994 0.32313
 C9 C 0.38122 1.39797 0.33182
 C10 C 0.33528 1.39864 0.36657
 N11 N 0.32121 1.39099 0.38455
 C12 C 0.33397 1.37409 0.39692
 C13 C 0.37803 1.33532 0.40518
 N14 N 0.39898 1.32388 0.39973
 C15 C 0.40971 1.33623 0.38222
 H16 H 0.42812 1.36319 0.33646
 H17 H 0.36907 1.41038 0.32291
 H18 H 0.33044 1.41195 0.35345
 H19 H 0.32741 1.36421 0.41194
 H20 H 0.36489 1.32882 0.41747
 H21 H 0.42568 1.33052 0.37285
 C22 C 0.37643 0.85793 0.83238
 C23 C 0.37509 0.83873 0.84818
 C24 C 0.35586 0.83715 0.86351
 C25 C 0.33769 0.85496 0.86321
 C26 C 0.33923 0.87375 0.84757
 C27 C 0.35870 0.87538 0.83236
 C28 C 0.39175 0.86315 0.81411
 N29 N 0.38372 0.88348 0.80337
 C30 C 0.36351 0.89105 0.81448
 C31 C 0.31887 0.88753 0.84958
 N32 N 0.30463 0.87789 0.86632
 C33 C 0.31617 0.85801 0.87495
 C34 C 0.35887 0.81602 0.87577
 N35 N 0.37948 0.80503 0.86845
 C36 C 0.38939 0.81880 0.85149
 H37 H 0.40708 0.85253 0.80847
 H38 H 0.35228 0.90604 0.80904
 H39 H 0.31510 0.90352 0.83948
 H40 H 0.30913 0.84619 0.88822
 H41 H 0.34686 0.80906 0.88893
 H42 H 0.40550 0.81441 0.84171
 C43 C 0.84310 1.33476 0.81024
 C44 C 0.84236 1.31344 0.82337
 C45 C 0.82311 1.30959 0.83801
 C46 C 0.80524 1.32693 0.84085
 C47 C 0.80632 1.34821 0.82889
 C48 C 0.82501 1.35187 0.81280
 C49 C 0.85868 1.34323 0.79353
 N50 N 0.85013 1.36459 0.78524
 C51 C 0.82970 1.37010 0.79735
 C52 C 0.78821 1.36265 0.83786
 N53 N 0.77627 1.35035 0.85477
 C54 C 0.78652 1.32831 0.85632
 C55 C 0.82693 1.28851 0.84951
 N56 N 0.84826 1.27916 0.84260
 C57 C 0.85805 1.29425 0.82665
 H58 H 0.87449 1.33389 0.78704
 H59 H 0.81868 1.38599 0.79509
 H60 H 0.78462 1.38104 0.83309
 H61 H 0.78224 1.31479 0.86915
 H62 H 0.81568 1.28120 0.86315
 H63 H 0.87554 1.29185 0.81874
 C64 C 0.87421 0.86226 0.33591
 C65 C 0.87747 0.84330 0.35203
 C66 C 0.86035 0.83935 0.36927
 C67 C 0.84001 0.85442 0.37086
 C68 C 0.83700 0.87285 0.35488
 C69 C 0.85396 0.87665 0.33734
 C70 C 0.88673 0.86982 0.31634
 N71 N 0.87419 0.88808 0.30575
 C72 C 0.85415 0.89234 0.31876
 C73 C 0.81551 0.88397 0.35948
 N74 N 0.80521 0.87300 0.37809
 C75 C 0.82002 0.85476 0.38522
 C76 C 0.86708 0.81885 0.38106
 N77 N 0.88784 0.81024 0.37162
 C78 C 0.89439 0.82512 0.35389
 H79 H 0.90324 0.86191 0.30975
 H80 H 0.84044 0.90574 0.31519
 H81 H 0.80784 0.89900 0.34986
 H82 H 0.81639 0.84237 0.39936
 H83 H 0.85722 0.81043 0.39512
 H84 H 0.90968 0.82237 0.34243
 C85 C 0.62778 0.63974 0.33974
 C86 C 0.62929 0.65823 0.35659
 C87 C 0.64590 0.65641 0.37495
 C88 C 0.66131 0.63649 0.37664
 C89 C 0.65950 0.61826 0.36039
 C90 C 0.64258 0.61983 0.34202
 C91 C 0.61503 0.63702 0.31878
 N92 N 0.62165 0.61587 0.30860
 C93 C 0.63851 0.60536 0.32292
 C94 C 0.67818 0.60247 0.36462
 N95 N 0.69149 0.61086 0.38294
 C96 C 0.68121 0.63161 0.39049
 C97 C 0.64412 0.67685 0.38819
 N98 N 0.62667 0.69113 0.37861
 C99 C 0.61770 0.68004 0.35907
 H100 H 0.60226 0.64975 0.31128
 H101 H 0.64833 0.58899 0.31934
 H102 H 0.68281 0.58713 0.35384
 H103 H 0.68855 0.64306 0.40405
 H104 H 0.65506 0.68107 0.40350
 H105 H 0.60365 0.68724 0.34763
 C106 C 0.60938 0.13653 0.84261
 C107 C 0.61000 0.15229 0.86191
 C108 C 0.62875 0.15100 0.87810
 C109 C 0.64705 0.13376 0.87528
 C110 C 0.64633 0.11816 0.85635
 C111 C 0.62731 0.11946 0.84000
 C112 C 0.59470 0.13523 0.82291
 N113 N 0.60325 0.11764 0.80839
 C114 C 0.62311 0.10784 0.81896
 C115 C 0.66732 0.10495 0.85669
 N116 N 0.68092 0.11211 0.87547
 C117 C 0.66843 0.12965 0.88699
 C118 C 0.62592 0.16988 0.89348
 N119 N 0.60581 0.18240 0.88715
 C120 C 0.59600 0.17176 0.86782
 H121 H 0.57930 0.14672 0.81945
 H122 H 0.63441 0.09393 0.81139
 H123 H 0.67227 0.09160 0.84370
 H124 H 0.67483 0.13946 0.90225
 H125 H 0.63802 0.17462 0.90775
 H126 H 0.58055 0.17837 0.85794
 C127 C 1.12034 0.63389 0.84987
 C128 C 1.12041 0.65393 0.86496
 C129 C 1.13590 0.65414 0.88426
 C130 C 1.15125 0.63479 0.88891
 C131 C 1.15116 0.61515 0.87433
 C132 C 1.13550 0.61458 0.85476
 C133 C 1.10934 0.62924 0.82835
 N134 N 1.11724 0.60762 0.82039
 C135 C 1.13325 0.59860 0.83644
 C136 C 1.17012 0.60066 0.88131
 N137 N 1.18190 0.61130 0.89960
 C138 C 1.17007 0.63211 0.90451
 C139 C 1.13414 0.67606 0.89469
 N140 N 1.11780 0.68944 0.88247
 C141 C 1.10908 0.67610 0.86429
 H142 H 1.09704 0.64101 0.81882
 H143 H 1.14349 0.58217 0.83436
 H144 H 1.17588 0.58438 0.87257
 H145 H 1.17536 0.64533 0.91732
 H146 H 1.14420 0.68192 0.91005
 H147 H 1.09614 0.68232 0.85116
 C148 C 1.11034 0.13629 0.33965
 C149 C 1.11149 0.15448 0.35644
 C150 C 1.13061 0.15551 0.37219
 C151 C 1.14902 0.13798 0.37113
 C152 C 1.14807 0.12038 0.35397
 C153 C 1.12866 0.11958 0.33813
 C154 C 1.09511 0.13281 0.32079
 N155 N 1.10396 0.11451 0.30745
 C156 C 1.12450 0.10631 0.31805
 C157 C 1.16897 0.10715 0.35539
 N158 N 1.18274 0.11589 0.37329
 C159 C 1.17057 0.13478 0.38302
 C160 C 1.12824 0.17695 0.38409
 N161 N 1.10854 0.18879 0.37542
 C162 C 1.09813 0.17503 0.35873
 H163 H 1.07983 0.14412 0.31631
 H164 H 1.13619 0.09237 0.31112
 H165 H 1.17342 0.09212 0.34416
 H166 H 1.17716 0.14583 0.39729
 H167 H 1.14085 0.18418 0.39671
 H168 H 1.08262 0.18015 0.34809
 C169 C 0.64286 1.34675 0.67138
 C170 C 0.64103 1.32930 0.65345
 C171 C 0.65628 1.32986 0.63424
 C172 C 0.67327 1.34747 0.63238
 C173 C 0.67560 1.36427 0.65009
 C174 C 0.66019 1.36391 0.66982
 C175 C 0.63063 1.35091 0.69229
 N176 N 0.64009 1.37003 0.70360
 C177 C 0.65830 1.37794 0.68985
 C178 C 0.69460 1.37821 0.64377
 N179 N 0.70330 1.37031 0.62255
 C180 C 0.69036 1.35147 0.61558
 C181 C 0.65204 1.31044 0.62034
 N182 N 0.63461 1.29768 0.63051
 C183 C 0.62741 1.30919 0.65064
 H184 H 0.61597 1.34059 0.69884
 H185 H 0.66929 1.39304 0.69364
 H186 H 0.70164 1.39291 0.65385
 H187 H 0.69360 1.34096 0.59974
 H188 H 0.66135 1.30570 0.60414
 H189 H 0.61409 1.30286 0.66282
 C190 C 0.62661 0.85002 1.15940
 C191 C 0.62896 0.83319 1.14104
 C192 C 0.64563 0.83641 1.12341
 C193 C 0.65974 0.85649 1.12350
 C194 C 0.65767 0.87314 1.14152
 C195 C 0.64075 0.86992 1.15964
 C196 C 0.61246 0.85106 1.17932
 N197 N 0.61734 0.87124 1.19170
 C198 C 0.63458 0.88289 1.17960
 C199 C 0.67482 0.88994 1.13731
 N200 N 0.68661 0.88386 1.11702
 C201 C 0.67747 0.86343 1.10857
 C202 C 0.64496 0.81718 1.10844
 N203 N 0.62803 0.80239 1.11636
 C204 C 0.61795 0.81202 1.13618
 H205 H 0.59942 0.83803 1.18402
 H206 H 0.64241 0.89944 1.18509
 H207 H 0.67865 0.90522 1.14828
 H208 H 0.68391 0.85377 1.09314
 H209 H 0.65582 0.81423 1.09280
 H210 H 0.60398 0.80401 1.14646
 C211 C 1.13549 1.34493 1.15977
 C212 C 1.13490 1.32939 1.14020
 C213 C 1.15114 1.33190 1.12206
 C214 C 1.16795 1.34975 1.12299
 C215 C 1.16905 1.36480 1.14233
 C216 C 1.15243 1.36255 1.16086
 C217 C 1.12240 1.34630 1.18038
 N218 N 1.13075 1.36438 1.19394
 C219 C 1.14911 1.37440 1.18211
 C220 C 1.18888 1.37863 1.13907
 N221 N 1.19943 1.37239 1.11808
 C222 C 1.18648 1.35473 1.10823
 C223 C 1.14830 1.31346 1.10647
 N224 N 1.13066 1.29963 1.11460
 C225 C 1.12207 1.30932 1.13508
 H226 H 1.10767 1.33508 1.18491
 H227 H 1.15943 1.38912 1.18859
 H228 H 1.19542 1.39188 1.15133
 H229 H 1.19081 1.34495 1.09222
 H230 H 1.15880 1.30998 1.09069
 H231 H 1.10844 1.30162 1.14606
 C232 C 1.12542 0.85129 0.66445
 C233 C 1.12634 0.83515 0.64575
 C234 C 1.14589 0.83395 0.63086
 C235 C 1.16468 0.84999 0.63427
 C236 C 1.16355 0.86630 0.65283
 C237 C 1.14374 0.86689 0.66814
 C238 C 1.10951 0.85394 0.68267
 N239 N 1.11757 0.87090 0.69755
 C240 C 1.13836 0.87925 0.68876
 C241 C 1.18426 0.87905 0.65238
 N242 N 1.19795 0.87119 0.63395
 C243 C 1.18610 0.85344 0.62278
 C244 C 1.14230 0.81467 0.61594
 N245 N 1.12094 0.80496 0.62145
 C246 C 1.11121 0.81744 0.63964
 H247 H 1.09351 0.84382 0.68527
 H248 H 1.14929 0.89241 0.69736
 H249 H 1.18875 0.89330 0.66441
 H250 H 1.19265 0.84367 0.60747
 H251 H 1.15452 0.80785 0.60259
 H252 H 1.09483 0.81311 0.64867
 C253 C 0.36146 0.65990 0.67440
 C254 C 0.35969 0.67816 0.65739
 C255 C 0.34059 0.67885 0.64173
 C256 C 0.32339 0.66137 0.64240
 C257 C 0.32523 0.64304 0.65861
 C258 C 0.34440 0.64239 0.67499
 C259 C 0.37717 0.65554 0.69290
 N260 N 0.37006 0.63596 0.70487
 C261 C 0.35021 0.62765 0.69384
 C262 C 0.30590 0.62868 0.65449
 N263 N 0.29243 0.63820 0.63638
 C264 C 0.30322 0.65826 0.62902
 C265 C 0.34287 0.69826 0.62737
 N266 N 0.36308 0.70953 0.63373
 C267 C 0.37363 0.69737 0.65206
 H268 H 0.39243 0.66615 0.69744
 H269 H 0.34018 0.61253 0.69966
 H270 H 0.30187 0.61261 0.66410
 H271 H 0.29750 0.66967 0.61450
 H272 H 0.33099 0.70343 0.61289
 H273 H 0.39017 0.70214 0.66078
 C274 C 0.37637 0.14332 1.16041
 C275 C 0.37190 0.16195 1.14445
 C276 C 0.35192 0.16192 1.12971
 C277 C 0.33617 0.14265 1.13065
 C278 C 0.34105 0.12403 1.14615
 C279 C 0.36097 0.12457 1.16132
 C280 C 0.39238 0.14064 1.17899
 N281 N 0.38670 0.12090 1.19136
 C282 C 0.36762 0.11088 1.18058
 C283 C 0.32289 0.10817 1.14413
 N284 N 0.30665 0.11652 1.12787
 C285 C 0.31455 0.13779 1.11973
 C286 C 0.35190 0.18313 1.11722
 N287 N 0.37135 0.19572 1.12414
 C288 C 0.38348 0.18278 1.14082
 H289 H 0.40564 0.15332 1.18440
 H290 H 0.35819 0.09574 1.18731
 H291 H 0.32140 0.09219 1.15463
 H292 H 0.30531 0.14894 1.10676
 H293 H 0.33866 0.18884 1.10419
 H294 H 0.39956 0.18828 1.14995
 C295 C 0.86896 0.65274 1.16255
 C296 C 0.86955 0.67216 1.14707
 C297 C 0.85312 0.67418 1.12868
 C298 C 0.83567 0.65695 1.12570
 C299 C 0.83507 0.63770 1.14098
 C300 C 0.85193 0.63553 1.15958
 C301 C 0.88208 0.64699 1.18253
 N302 N 0.87361 0.62665 1.19185
 C303 C 0.85510 0.61947 1.17793
 C304 C 0.81555 0.62461 1.13450
 N305 N 0.80421 0.63560 1.11590
 C306 C 0.81653 0.65534 1.11035
 C307 C 0.85748 0.69506 1.11699
 N308 N 0.87603 0.70583 1.12798
 C309 C 0.88356 0.69191 1.14642
 H310 H 0.89655 0.65714 1.18999
 H311 H 0.84421 0.60421 1.18124
 H312 H 0.80954 0.60870 1.14320
 H313 H 0.81183 0.66784 1.09638
 H314 H 0.84756 0.70216 1.10188
 H315 H 0.89815 0.69575 1.15846
 C316 C 0.87937 0.14444 0.65302
 C317 C 0.88022 0.16137 0.63498
 C318 C 0.86094 0.16499 0.61989
 C319 C 0.84047 0.15137 0.62256
 C320 C 0.83944 0.13451 0.64052
 C321 C 0.85904 0.13139 0.65634
 C322 C 0.89496 0.13949 0.67131
 N323 N 0.88466 0.12404 0.68643
 C324 C 0.86258 0.11898 0.67741
 C325 C 0.81721 0.12432 0.63866
 N326 N 0.80493 0.13479 0.62032
 C327 C 0.81897 0.15146 0.61056
 C328 C 0.86584 0.18449 0.60609
 N329 N 0.88741 0.19290 0.61296
 C330 C 0.89643 0.17862 0.63041
 H331 H 0.91178 0.14821 0.67418
 H332 H 0.84973 0.10774 0.68590
 H333 H 0.81048 0.11032 0.64978
 H334 H 0.81416 0.16243 0.59538
 H335 H 0.85386 0.19299 0.59331
 H336 H 0.91304 0.18122 0.63995
 C337 C 1.36730 0.38398 0.66233
 C338 C 1.34698 0.38063 0.64822
 C339 C 1.34552 0.36094 0.63355
 C340 C 1.36455 0.34409 0.63313
 C341 C 1.38468 0.34755 0.64705
 C342 C 1.38597 0.36749 0.66187
 C343 C 1.37171 0.39952 0.68061
 N344 N 1.39245 0.39261 0.69151
 C345 C 1.40134 0.37309 0.68012
 C346 C 1.39937 0.32778 0.64477
 N347 N 1.38868 0.31205 0.62995
 C348 C 1.36727 0.32193 0.62287
 C349 C 1.32298 0.36175 0.62330
 N350 N 1.31089 0.38116 0.63181
 C351 C 1.32543 0.39274 0.64707
 H352 H 1.35950 0.41327 0.68699
 H353 H 1.41681 0.36263 0.68590
 H354 H 1.41599 0.32480 0.65438
 H355 H 1.35433 0.31342 0.61147
 H356 H 1.31564 0.34881 0.61119
 H357 H 1.32063 0.40877 0.65673
 C358 C 1.36365 0.87762 1.15978
 C359 C 1.34528 0.87776 1.14255
 C360 C 1.34439 0.85975 1.12569
 C361 C 1.36202 0.84149 1.12572
 C362 C 1.37996 0.84163 1.14264
 C363 C 1.38078 0.85963 1.15962
 C364 C 1.36808 0.89125 1.17970
 N365 N 1.38733 0.88164 1.19163
 C366 C 1.39520 0.86235 1.17912
 C367 C 1.39356 0.82132 1.14006
 N368 N 1.38451 0.80840 1.12180
 C369 C 1.36522 0.82078 1.11277
 C370 C 1.32372 0.86344 1.11259
 N371 N 1.31220 0.88327 1.12087
 C372 C 1.32525 0.89209 1.13924
 H373 H 1.35739 0.90640 1.18561
 H374 H 1.40986 0.85041 1.18389
 H375 H 1.40879 0.81655 1.15113
 H376 H 1.35383 0.81481 1.09841
 H377 H 1.31728 0.85225 1.09837
 H378 H 1.32014 0.90724 1.15008
 C379 C 0.87280 0.38171 1.15210
 C380 C 0.85213 0.37755 1.13838
 C381 C 0.85214 0.35893 1.12227
 C382 C 0.87267 0.34445 1.11948
 C383 C 0.89318 0.34916 1.13225
 C384 C 0.89325 0.36787 1.14858
 C385 C 0.87706 0.39550 1.17194
 N386 N 0.89955 0.39036 1.18033
 C387 C 0.90959 0.37368 1.16578
 C388 C 0.90932 0.33082 1.12829
 N389 N 0.89892 0.31468 1.11375
 C390 C 0.87655 0.32308 1.10813
 C391 C 0.82962 0.35809 1.11238
 N392 N 0.81587 0.37592 1.12176
 C393 C 0.82945 0.38785 1.13778
 H394 H 0.86418 0.40734 1.18043
 H395 H 0.92659 0.36452 1.16864
 H396 H 0.92645 0.32861 1.13717
 H397 H 0.86346 0.31370 1.09764
 H398 H 0.82392 0.34567 1.09890
 H399 H 0.82328 0.40292 1.14823
 C400 C 0.85872 0.88265 0.65001
 C401 C 0.84314 0.87882 0.63075
 C402 C 0.84599 0.85866 0.61687
 C403 C 0.86458 0.84228 0.62177
 C404 C 0.88009 0.84604 0.64058
 C405 C 0.87695 0.86624 0.65494
 C406 C 0.85849 0.89907 0.66824
 N407 N 0.87592 0.89277 0.68413
 C408 C 0.88727 0.87278 0.67611
 C409 C 0.89531 0.82644 0.64205
 N410 N 0.88923 0.81096 0.62460
 C411 C 0.87039 0.82046 0.61225
 C412 C 0.82710 0.85824 0.60108
 N413 N 0.81285 0.87768 0.60500
 C414 C 0.82259 0.89044 0.62301
 H415 H 0.84556 0.91348 0.67060
 H416 H 0.90128 0.86304 0.68560
 H417 H 0.90911 0.82332 0.65536
 H418 H 0.86129 0.81190 0.59762
 H419 H 0.82376 0.84450 0.58809
 H420 H 0.81468 0.90642 0.63064
 C421 C 0.64776 0.62128 0.66432
 C422 C 0.66549 0.62207 0.64699
 C423 C 0.66670 0.64134 0.63185
 C424 C 0.64963 0.66004 0.63365
 C425 C 0.63198 0.65921 0.65080
 C426 C 0.63121 0.63976 0.66648
 C427 C 0.64341 0.60511 0.68194
 N428 N 0.62465 0.61328 0.69500
 C429 C 0.61708 0.63452 0.68575
 C430 C 0.61789 0.67949 0.64829
 N431 N 0.62638 0.69260 0.62997
 C432 C 0.64594 0.68090 0.62111
 C433 C 0.68659 0.63750 0.61778
 N434 N 0.69713 0.61634 0.62402
 C435 C 0.68429 0.60687 0.64189
 H436 H 0.65382 0.58903 0.68553
 H437 H 0.60262 0.64551 0.69276
 H438 H 0.60261 0.68423 0.65913
 H439 H 0.65649 0.68690 0.60631
 H440 H 0.69311 0.64934 0.60426
 H441 H 0.68876 0.59053 0.65122
 C442 C 0.63425 1.11579 1.15557
 C443 C 0.65150 1.11381 1.13768
 C444 C 0.65435 1.13237 1.12212
 C445 C 0.64044 1.15307 1.12419
 C446 C 0.62324 1.15526 1.14162
 C447 C 0.62028 1.13637 1.15781
 C448 C 0.62947 1.10140 1.17449
 N449 N 0.61307 1.11254 1.18869
 C450 C 0.60740 1.13401 1.17857
 C451 C 0.61368 1.17812 1.13961
 N452 N 0.62529 1.18969 1.12189
 C453 C 0.64172 1.17429 1.11255
 C454 C 0.67418 1.12740 1.10879
 N455 N 0.68387 1.10631 1.11601
 C456 C 0.67001 1.09767 1.13364
 H457 H 0.63865 1.08467 1.17813
 H458 H 0.59539 1.14732 1.18612
 H459 H 0.59996 1.18601 1.15081
 H460 H 0.65362 1.17787 1.09797
 H461 H 0.68205 1.13919 1.09598
 H462 H 0.67416 1.08198 1.14414
 C463 C 0.17036 0.66102 1.18870
 C464 C 0.19073 0.66203 1.17416
 C465 C 0.19345 0.68134 1.15931
 C466 C 0.17585 0.69921 1.15798
 C467 C 0.15555 0.69789 1.17156
 C468 C 0.15306 0.67900 1.18748
 C469 C 0.16266 0.64486 1.20522
 N470 N 0.14150 0.65295 1.21449
 C471 C 0.13543 0.67370 1.20331
 C472 C 0.14008 0.71570 1.16392
 N473 N 0.15068 0.72778 1.14604
 C474 C 0.17280 0.71792 1.14262
 C475 C 0.21343 0.67732 1.14595
 N476 N 0.22313 0.65589 1.15201
 C477 C 0.20940 0.64626 1.16923
 H478 H 0.17220 0.62877 1.21064
 H479 H 0.11943 0.68443 1.20625
 H480 H 0.12198 0.71884 1.17010
 H481 H 0.18505 0.72240 1.12862
 H482 H 0.21950 0.68850 1.13166
 H483 H 0.21221 0.62875 1.17684
 C484 C 0.13033 1.10832 0.65129
 C485 C 0.14587 1.10836 0.63200
 C486 C 0.14780 1.12848 0.61806
 C487 C 0.13313 1.14864 0.62279
 C488 C 0.11795 1.14859 0.64212
 C489 C 0.11684 1.12840 0.65667
 C490 C 0.12766 1.09232 0.66944
 N491 N 0.11314 1.10234 0.68614
 C492 C 0.10635 1.12441 0.67833
 C493 C 0.10674 1.17057 0.64325
 N494 N 0.11416 1.18405 0.62470
 C495 C 0.13050 1.17073 0.61225
 C496 C 0.16752 1.12463 0.60371
 N497 N 0.17710 1.10270 0.60862
 C498 C 0.16379 1.09262 0.62571
 H499 H 0.13727 1.07549 0.67104
 H500 H 0.09544 1.13711 0.68816
 H501 H 0.09354 1.17577 0.65632
 H502 H 0.13981 1.17661 0.59658
 H503 H 0.17538 1.13748 0.59198
 H504 H 0.16831 1.07608 0.63468
 C505 C 1.36310 0.62128 0.34588
 C506 C 1.34800 0.61874 0.36530
 C507 C 1.34532 0.63690 0.38156
 C508 C 1.35829 0.65775 0.37886
 C509 C 1.37308 0.66053 0.35943
 C510 C 1.37532 0.64206 0.34249
 C511 C 1.36736 0.60675 0.32683
 N512 N 1.38184 0.61797 0.31135
 C513 C 1.38673 0.63972 0.32079
 C514 C 1.38268 0.68289 0.36145
 N515 N 1.37445 0.69346 0.38178
 C516 C 1.35927 0.67811 0.39226
 C517 C 1.32725 0.63063 0.39670
 N518 N 1.31905 0.60910 0.38988
 C519 C 1.33183 0.60164 0.37077
 H520 H 1.35922 0.58972 0.32415
 H521 H 1.39749 0.65303 0.31236
 H522 H 1.39513 0.69066 0.34919
 H523 H 1.34934 0.68122 0.40842
 H524 H 1.31960 0.64157 0.41069
 H525 H 1.32830 0.58592 0.36034
 C526 C 1.34689 1.13285 0.83316
 C527 C 1.33152 1.13463 0.85259
 C528 C 1.33462 1.15209 0.86954
 C529 C 1.35351 1.16795 0.86730
 C530 C 1.36874 1.16631 0.84802
 C531 C 1.36552 1.14840 0.83084
 C532 C 1.34738 1.11780 0.81393
 N533 N 1.36600 1.12359 0.79994
 C534 C 1.37734 1.14219 0.81016
 C535 C 1.38469 1.18457 0.85013
 N536 N 1.37968 1.19712 0.87035
 C537 C 1.36069 1.18683 0.88093
 C538 C 1.31642 1.14992 0.88582
 N539 N 1.30261 1.13147 0.87906
 C540 C 1.31186 1.12201 0.85885
 H541 H 1.33522 1.10349 0.81053
 H542 H 1.39281 1.15074 0.80290
 H543 H 1.39890 1.18811 0.83779
 H544 H 1.35227 1.19294 0.89718
 H545 H 1.31352 1.16094 0.90136
 H546 H 1.30446 1.10727 0.84908
 C547 C 0.84867 0.63676 0.83324
 C548 C 0.82932 0.63916 0.84913
 C549 C 0.82805 0.65852 0.86442
 C550 C 0.84588 0.67569 0.86410
 C551 C 0.86472 0.67318 0.84854
 C552 C 0.86626 0.65364 0.83335
 C553 C 0.85458 0.62077 0.81535
 N554 N 0.87540 0.62758 0.80523
 C555 C 0.88252 0.64768 0.81616
 C556 C 0.87865 0.69277 0.85085
 N557 N 0.86880 0.70729 0.86754
 C558 C 0.84885 0.69691 0.87598
 C559 C 0.80741 0.65670 0.87736
 N560 N 0.79596 0.63673 0.87052
 C561 C 0.80929 0.62585 0.85331
 H562 H 0.84440 0.60555 0.80990
 H563 H 0.89796 0.65782 0.81132
 H564 H 0.89474 0.69625 0.84097
 H565 H 0.83701 0.70461 0.88920
 H566 H 0.80144 0.66899 0.89100
 H567 H 0.80466 0.60956 0.84433
 C568 C 0.84471 1.13747 0.33796
 C569 C 0.82763 1.13914 0.35612
 C570 C 0.82900 1.15710 0.37276
 C571 C 0.84734 1.17342 0.37173
 C572 C 0.86405 1.17217 0.35375
 C573 C 0.86271 1.15396 0.33662
 C574 C 0.84749 1.12216 0.31905
 N575 N 0.86671 1.12883 0.30619
 C576 C 0.87602 1.14836 0.31674
 C577 C 0.87901 1.19115 0.35705
 N578 N 0.87179 1.20336 0.37674
 C579 C 0.85235 1.19264 0.38566
 C580 C 0.80970 1.15545 0.38752
 N581 N 0.79646 1.13688 0.38027
 C582 C 0.80739 1.12660 0.36121
 H583 H 0.83596 1.10758 0.31473
 H584 H 0.89136 1.15780 0.31041
 H585 H 0.89398 1.19574 0.34599
 H586 H 0.84211 1.19874 0.40084
 H587 H 0.80554 1.16709 0.40232
 H588 H 0.80067 1.11163 0.35131
 C589 C 0.64267 0.37503 0.34761
 C590 C 0.66246 0.37442 0.36315
 C591 C 0.66372 0.35767 0.38108
 C592 C 0.64544 0.34143 0.38381
 C593 C 0.62588 0.34205 0.36865
 C594 C 0.62443 0.35908 0.35044
 C595 C 0.63764 0.38781 0.32728
 N596 N 0.61673 0.38020 0.31768
 C597 C 0.60852 0.36263 0.33192
 C598 C 0.61226 0.32274 0.37416
 N599 N 0.62330 0.31042 0.39208
 C600 C 0.64352 0.32192 0.39819
 C601 C 0.68540 0.35978 0.39232
 N602 N 0.69750 0.37746 0.38173
 C603 C 0.68356 0.38665 0.36392
 H604 H 0.64881 0.40128 0.31969
 H605 H 0.59284 0.35220 0.32866
 H606 H 0.59617 0.31736 0.36499
 H607 H 0.65636 0.31623 0.41162
 H608 H 0.69186 0.34905 0.40709
 H609 H 0.68870 0.40069 0.35198
 C610 C 0.63656 0.86647 0.83492
 C611 C 0.65327 0.86629 0.85377
 C612 C 0.65103 0.85034 0.87238
 C613 C 0.63203 0.83435 0.87238
 C614 C 0.61540 0.83505 0.85407
 C615 C 0.61784 0.85088 0.83525
 C616 C 0.63504 0.87842 0.81346
 N617 N 0.61617 0.86993 0.80089
 C618 C 0.60551 0.85325 0.81423
 C619 C 0.59975 0.81701 0.85756
 N620 N 0.60658 0.80500 0.87740
 C621 C 0.62639 0.81530 0.88660
 C622 C 0.67006 0.85371 0.88766
 N623 N 0.68375 0.87131 0.87889
 C624 C 0.67370 0.87889 0.85805
 H625 H 0.64734 0.89147 0.80701
 H626 H 0.59012 0.84317 0.80886
 H627 H 0.58536 0.81203 0.84571
 H628 H 0.63639 0.80886 0.90194
 H629 H 0.67376 0.84376 0.90378
 H630 H 0.68071 0.89268 0.84684
 C631 C 0.14911 0.36808 0.83799
 C632 C 0.16565 0.36739 0.85675
 C633 C 0.16770 0.34764 0.87139
 C634 C 0.15253 0.32823 0.86747
 C635 C 0.13643 0.32904 0.84859
 C636 C 0.13480 0.34896 0.83384
 C637 C 0.14436 0.38449 0.82038
 N638 N 0.12752 0.37559 0.80541
 C639 C 0.12161 0.35382 0.81368
 C640 C 0.12436 0.30816 0.84829
 N641 N 0.13229 0.29451 0.86667
 C642 C 0.14949 0.30657 0.87863
 C643 C 0.18673 0.35172 0.88670
 N644 N 0.19583 0.37339 0.88162
 C645 C 0.18292 0.38296 0.86334
 H646 H 0.15336 0.40114 0.81831
 H647 H 0.10893 0.34208 0.80538
 H648 H 0.11026 0.30353 0.83593
 H649 H 0.15900 0.30010 0.89426
 H650 H 0.19387 0.33956 0.90002
 H651 H 0.18660 0.39953 0.85449
 C652 C 0.15560 0.86205 0.32884
 C653 C 0.17128 0.86057 0.34842
 C654 C 0.17022 0.84152 0.36377
 C655 C 0.15343 0.82395 0.36007
 C656 C 0.13802 0.82510 0.34075
 C657 C 0.13925 0.84435 0.32484
 C658 C 0.15310 0.87825 0.31065
 N659 N 0.13573 0.87086 0.29541
 C660 C 0.12726 0.85005 0.30402
 C661 C 0.12391 0.80529 0.34195
 N662 N 0.13051 0.79251 0.36162
 C663 C 0.14858 0.80387 0.37264
 C664 C 0.18815 0.84371 0.38033
 N665 N 0.20022 0.86369 0.37540
 C666 C 0.18991 0.87431 0.35607
 H667 H 0.16381 0.89385 0.30858
 H668 H 0.11338 0.83972 0.29575
 H669 H 0.10968 0.80086 0.32970
 H670 H 0.15756 0.79796 0.38879
 H671 H 0.19232 0.83147 0.39468
 H672 H 0.19611 0.89031 0.34769
 O673 O 1.08793 1.01687 1.11196
 O674 O 1.11546 1.01489 1.14024
 C675 C 1.09610 1.02389 1.13177
 C676 C 1.08335 1.04309 1.14488
 C677 C 1.09051 1.04872 1.16806
 H678 H 1.10411 1.03766 1.17656
 O679 O 0.91231 0.98516 1.12093
 O680 O 0.88530 0.98680 1.14929
 C681 C 0.90441 0.97778 1.14058
 C682 C 0.91769 0.95814 1.15266
 C683 C 0.91285 0.95136 1.17622
 H684 H 0.89933 0.96104 1.18626
 O685 O 1.02431 1.11493 1.08356
 O686 O 1.02649 1.14307 1.11076
 C687 C 1.03315 1.13413 1.09113
 C688 C 1.05136 1.14639 1.07719
 C689 C 1.05722 1.16970 1.08313
 H690 H 1.04829 1.17832 1.09793
 O691 O 0.96884 0.88926 1.08204
 O692 O 0.96807 0.86090 1.10906
 C693 C 0.95989 0.87038 1.09008
 C694 C 0.93967 0.85941 1.07736
 C695 C 0.93244 0.83644 1.08340
 H696 H 0.94209 0.82653 1.09708
 O697 O 1.11952 1.07991 1.02079
 O698 O 1.14700 1.10737 1.02077
 C699 C 1.13886 1.08817 1.02896
 C700 C 1.15176 1.07586 1.04866
 C701 C 1.17302 1.08510 1.05758
 H702 H 1.18071 1.09998 1.04849
 O703 O 0.86969 0.92869 1.02230
 O704 O 0.84172 0.90178 1.02360
 C705 C 0.85086 0.92072 1.03156
 C706 C 0.84029 0.93311 1.05245
 C707 C 0.81834 0.92615 1.06202
 H708 H 0.80848 0.91211 1.05350
 O709 O 0.97805 1.08680 1.11950
 O710 O 0.98083 1.11502 1.14652
 C711 C 0.97122 1.09632 1.13892
 C712 C 0.95120 1.08611 1.15219
 C713 C 0.94350 1.09611 1.17379
 H714 H 0.95372 1.11021 1.18166
 O715 O 1.01930 0.91659 1.11350
 O716 O 1.01834 0.88828 1.14054
 C717 C 1.02775 0.90683 1.13222
 C718 C 1.04925 0.91651 1.14403
 C719 C 1.05778 0.90643 1.16534
 H720 H 1.04731 0.89300 1.17383
 O721 O 1.12067 0.97033 1.07917
 O722 O 1.14880 0.96852 1.10683
 C723 C 1.13988 0.96104 1.08741
 C724 C 1.15124 0.94074 1.07462
 C725 C 1.17383 0.93153 1.08145
 H726 H 1.18346 0.93994 1.09584
 O727 O 0.88165 1.03212 1.08738
 O728 O 0.85361 1.03420 1.11475
 C729 C 0.86232 1.04122 1.09516
 C730 C 0.85001 1.06007 1.08110
 C731 C 0.82667 1.06760 1.08677
 H732 H 0.81766 1.05960 1.10164
 O733 O 0.91610 1.12040 1.01930
 O734 O 0.88954 1.14999 1.01993
 C735 C 0.90878 1.14018 1.02767
 C736 C 0.92211 1.15171 1.04715
 C737 C 0.91517 1.17455 1.05445
 H738 H 0.90143 1.18414 1.04445
 O739 O 1.07884 0.87871 1.01888
 O740 O 1.10463 0.84845 1.01899
 C741 C 1.08589 0.85873 1.02704
 C742 C 1.07254 0.84774 1.04656
 C743 C 1.08102 0.82649 1.05701
 H744 H 1.09687 0.81758 1.05004
 O745 O 0.91232 1.03118 1.12189
 O746 O 0.88475 1.03330 1.14969
 C747 C 0.90436 1.04009 1.14116
 C748 C 0.91802 1.05887 1.15321
 C749 C 0.91026 1.06922 1.17472
 H750 H 0.89418 1.06298 1.18306
 O751 O 1.08893 0.97074 1.11255
 O752 O 1.11688 0.96848 1.14038
 C753 C 1.09714 0.96162 1.13173
 C754 C 1.08355 0.94270 1.14372
 C755 C 1.09210 0.93193 1.16487
 H756 H 1.10879 0.93760 1.17268
 O757 O 1.01541 0.88458 1.08083
 O758 O 1.01418 0.85645 1.10806
 C759 C 1.02241 0.86444 1.08878
 C760 C 1.04118 0.85050 1.07637
 C761 C 1.04986 0.82923 1.08650
 H762 H 1.04199 0.82297 1.10278
 O763 O 0.97792 1.11664 1.08451
 O764 O 0.98008 1.14510 1.11136
 C765 C 0.97094 1.13674 1.09239
 C766 C 0.95186 1.15016 1.07928
 C767 C 0.94423 1.17305 1.08662
 H768 H 0.95243 1.18122 1.10201
 O769 O 0.88153 1.09083 1.02015
 O770 O 0.85482 1.12031 1.02097
 C771 C 0.86274 1.10043 1.02879
 C772 C 0.85014 1.08863 1.04840
 C773 C 0.82673 1.09577 1.05420
 H774 H 0.81763 1.10908 1.04335
 O775 O 1.11467 0.90719 1.01850
 O776 O 1.14064 0.87708 1.01829
 C777 C 1.13386 0.89726 1.02622
 C778 C 1.14811 0.90929 1.04484
 C779 C 1.17085 0.90045 1.05169
 H780 H 1.17839 0.88530 1.04232
 O781 O 0.97262 0.92032 1.11614
 O782 O 0.97204 0.89192 1.14311
 C783 C 0.96503 0.91217 1.13568
 C784 C 0.94765 0.92613 1.14987
 C785 C 0.94256 0.91942 1.17319
 H786 H 0.95152 0.90378 1.18044
 O787 O 1.02456 1.08174 1.11562
 O788 O 1.02730 1.10973 1.14291
 C789 C 1.03414 1.08973 1.13440
 C790 C 1.05358 1.07560 1.14616
 C791 C 1.06154 1.08140 1.16914
 H792 H 1.05330 1.09635 1.17836
 O793 O 0.87836 0.98643 1.08920
 O794 O 0.85101 0.98814 1.11723
 C795 C 0.85865 0.97968 1.09770
 C796 C 0.84452 0.96169 1.08492
 C797 C 0.82249 0.95469 1.09400
 H798 H 0.81549 0.96341 1.10971
 O799 O 1.12263 1.01689 1.08203
 O800 O 1.15053 1.01550 1.10990
 C801 C 1.14192 1.02466 1.09096
 C802 C 1.15360 1.04510 1.07934
 C803 C 1.17468 1.05519 1.08860
 H804 H 1.18319 1.04760 1.10430
 O805 O 0.90175 0.89470 1.02129
 O806 O 0.87377 0.86774 1.02235
 C807 C 0.89369 0.87550 1.02958
 C808 C 0.90746 0.86202 1.04787
 C809 C 0.90046 0.83914 1.05423
 H810 H 0.88485 0.83175 1.04580
 O811 O 1.08719 1.11379 1.01979
 O812 O 1.11459 1.14136 1.01977
 C813 C 1.09514 1.13329 1.02761
 C814 C 1.08172 1.14631 1.04630
 C815 C 1.08743 1.16976 1.05254
 H816 H 1.10148 1.17874 1.04320
 Cu817 Cu 1.10246 0.99380 1.09353
 Cu818 Cu 1.13577 0.99170 1.12708
 Cu819 Cu 0.89900 1.00848 1.10221
 Cu820 Cu 0.86585 1.01078 1.13552
 Cu821 Cu 1.00096 1.09712 1.09820
 Cu822 Cu 1.00401 1.13100 1.13063
 Cu823 Cu 0.99399 0.90559 1.09539
 Cu824 Cu 0.99298 0.87158 1.12792
 C825 C 1.06465 1.05641 1.13413
 H826 H 1.05906 1.05214 1.11618
 C827 C 1.08010 1.06809 1.18026
 C828 C 0.93541 0.94561 1.13988
 H829 H 0.93916 0.95049 1.12167
 C830 C 0.92563 0.93216 1.18682
 C831 C 1.06340 1.13491 1.05853
 H832 H 1.05903 1.11679 1.05409
 C833 C 1.07489 1.18174 1.07073
 C834 C 0.92725 0.87196 1.05934
 H835 H 0.93261 0.88971 1.05465
 C836 C 0.91307 0.82600 1.07166
 C837 C 1.14235 1.05574 1.05942
 H838 H 1.12584 1.04868 1.05252
 C839 C 1.18433 1.07557 1.07797
 C840 C 0.85317 0.95098 1.06404
 H841 H 0.87031 0.95616 1.05712
 C842 C 0.80940 0.93672 1.08296
 C843 C 0.93855 1.06737 1.14228
 H844 H 0.94434 1.05983 1.12550
 C845 C 0.92278 1.08810 1.18511
 C846 C 1.06212 0.93475 1.13346
 H847 H 1.05564 0.94249 1.11693
 C848 C 1.07947 0.91350 1.17570
 C849 C 1.13865 0.92955 1.05623
 H850 H 1.12102 0.93629 1.05118
 C851 C 1.18388 0.91133 1.07015
 C852 C 0.86160 1.07061 1.06180
 H853 H 0.87975 1.06511 1.05746
 C854 C 0.81489 1.08547 1.07344
 C855 C 0.94062 1.13967 1.05949
 H856 H 0.94589 1.12188 1.05397
 C857 C 0.92559 1.18517 1.07442
 C858 C 1.05237 0.85950 1.05618
 H859 H 1.04605 0.87622 1.04864
 C860 C 1.06987 0.81721 1.07714
 O861 O 1.08275 0.97380 0.88357
 O862 O 1.10949 0.97194 0.85495
 C863 C 1.08983 0.96540 0.86388
 C864 C 1.07517 0.94796 0.85101
 C865 C 1.08100 0.94187 0.82765
 H866 H 1.09631 0.94986 0.81944
 O867 O 0.90692 1.02780 0.88042
 O868 O 0.87911 1.03018 0.85244
 C869 C 0.89900 1.03669 0.86110
 C870 C 0.91263 1.05505 0.84855
 C871 C 0.90463 1.06297 0.82626
 H872 H 0.88964 1.05431 0.81795
 O873 O 0.97634 1.11786 0.91188
 O874 O 0.97716 1.14515 0.88380
 C875 C 0.96898 1.13756 0.90331
 C876 C 0.94992 1.15128 0.91548
 C877 C 0.94139 1.17277 0.90580
 H878 H 0.94975 1.17994 0.89011
 O879 O 1.01279 0.88346 0.91254
 O880 O 1.01102 0.85581 0.88482
 C881 C 1.01973 0.86349 0.90414
 C882 C 1.03852 0.84920 0.91651
 C883 C 1.04425 0.82609 0.90871
 H884 H 1.03449 0.81874 0.89384
 O885 O 1.11312 0.90766 0.97242
 O886 O 1.13892 0.87740 0.97213
 C887 C 1.13188 0.89758 0.96431
 C888 C 1.14562 0.90953 0.94566
 C889 C 1.16800 0.90042 0.93868
 H890 H 1.17448 0.88416 0.94685
 O891 O 0.87946 1.09117 0.97378
 O892 O 0.85274 1.12061 0.97487
 C893 C 0.85993 1.10076 0.96654
 C894 C 0.84562 1.08875 0.94808
 C895 C 0.82218 1.09659 0.94265
 H896 H 0.81498 1.11180 0.95210
 O897 O 1.02084 1.08165 0.87974
 O898 O 1.02159 1.10903 0.85175
 C899 C 1.02918 1.08938 0.86042
 C900 C 1.04856 1.07609 0.84823
 C901 C 1.05582 1.08349 0.82578
 H902 H 1.04566 1.09747 0.81681
 O903 O 0.96756 0.91934 0.87952
 O904 O 0.96646 0.89141 0.85204
 C905 C 0.95908 0.91124 0.86017
 C906 C 0.93980 0.92439 0.84732
 C907 C 0.93195 0.91635 0.82510
 H908 H 0.94145 0.90164 0.81671
 O909 O 1.11925 1.01793 0.91392
 O910 O 1.14627 1.01617 0.88557
 C911 C 1.13867 1.02490 0.90504
 C912 C 1.15203 1.04376 0.91733
 C913 C 1.17454 1.05072 0.90938
 H914 H 1.18213 1.04197 0.89398
 O915 O 0.87069 0.98351 0.91079
 O916 O 0.84304 0.98574 0.88266
 C917 C 0.85084 0.97698 0.90209
 C918 C 0.83714 0.95860 0.91455
 C919 C 0.81573 0.94998 0.90499
 H920 H 0.80842 0.95821 0.88908
 O921 O 1.08659 1.11228 0.97343
 O922 O 1.11432 1.13950 0.97358
 C923 C 1.09492 1.13141 0.96533
 C924 C 1.08223 1.14444 0.94598
 C925 C 1.09000 1.16687 0.93918
 H926 H 1.10514 1.17448 0.94831
 O927 O 0.90116 0.89552 0.97515
 O928 O 0.87343 0.86833 0.97629
 C929 C 0.89274 0.87613 0.96769
 C930 C 0.90540 0.86249 0.94880
 C931 C 0.89741 0.83999 0.94222
 H932 H 0.88179 0.83309 0.95079
 O933 O 0.90381 0.98189 0.87875
 O934 O 0.87637 0.98401 0.85042
 C935 C 0.89546 0.97470 0.85904
 C936 C 0.90816 0.95501 0.84659
 C937 C 0.90028 0.94650 0.82435
 H938 H 0.88480 0.95468 0.81568
 O939 O 1.08637 1.01951 0.88108
 O940 O 1.11323 1.01781 0.85257
 C941 C 1.09420 1.02685 0.86129
 C942 C 1.08096 1.04623 0.84862
 C943 C 1.08834 1.05430 0.82614
 H944 H 1.10387 1.04621 0.81770
 O945 O 0.96616 0.88856 0.91368
 O946 O 0.96447 0.86055 0.88631
 C947 C 0.95684 0.86984 0.90559
 C948 C 0.93667 0.85916 0.91859
 C949 C 0.92840 0.83655 0.91241
 H950 H 0.93723 0.82654 0.89840
 O951 O 1.02285 1.11615 0.91020
 O952 O 1.02369 1.14361 0.88229
 C953 C 1.03170 1.13495 0.90172
 C954 C 1.05172 1.14641 0.91460
 C955 C 1.06006 1.16890 0.90782
 H956 H 1.05166 1.17837 0.89309
 O957 O 0.86648 0.92664 0.97548
 O958 O 0.83851 0.89972 0.97661
 C959 C 0.84696 0.91835 0.96760
 C960 C 0.83495 0.92994 0.94692
 C961 C 0.81370 0.92116 0.93696
 H962 H 0.80516 0.90627 0.94529
 O963 O 1.12072 1.08032 0.97456
 O964 O 1.14855 1.10744 0.97453
 C965 C 1.14025 1.08814 0.96665
 C966 C 1.15287 1.07478 0.94765
 C967 C 1.17553 1.08140 0.93972
 H968 H 1.18443 1.09600 0.94834
 O969 O 1.01440 0.91708 0.88107
 O970 O 1.01315 0.88954 0.85321
 C971 C 1.02222 0.90829 0.86176
 C972 C 1.04232 0.91996 0.84959
 C973 C 1.04870 0.91391 0.82609
 H974 H 1.03871 0.90072 0.81642
 O975 O 0.97396 1.08633 0.87843
 O976 O 0.97476 1.11347 0.85023
 C977 C 0.96567 1.09499 0.85906
 C978 C 0.94487 1.08370 0.84720
 C979 C 0.93610 1.09176 0.82490
 H980 H 0.94484 1.10613 0.81588
 O981 O 0.87349 1.02935 0.91190
 O982 O 0.84536 1.03186 0.88423
 C983 C 0.85429 1.03882 0.90382
 C984 C 0.84274 1.05836 0.91740
 C985 C 0.81919 1.06608 0.91238
 H986 H 0.80919 1.05708 0.89864
 O987 O 1.11845 0.97152 0.91300
 O988 O 1.14559 0.96950 0.88478
 C989 C 1.13726 0.96198 0.90424
 C990 C 1.14877 0.94140 0.91662
 C991 C 1.17148 0.93235 0.91009
 H992 H 1.18128 0.94127 0.89632
 O993 O 1.07869 0.87775 0.97273
 O994 O 1.10420 0.84727 0.97259
 C995 C 1.08527 0.85754 0.96473
 C996 C 1.07083 0.84622 0.94584
 C997 C 1.07640 0.82310 0.93774
 H998 H 1.09111 0.81309 0.94583
 O999 O 0.91340 1.12185 0.97288
 O1000 O 0.88672 1.15132 0.97348
 C1001 C 0.90550 1.14167 0.96488
 C1002 C 0.91814 1.15312 0.94501
 C1003 C 0.90924 1.17429 0.93448
 H1004 H 0.89308 1.18285 0.94114
 Cu1005 Cu 1.09919 0.99597 0.90084
 Cu1006 Cu 1.13139 0.99358 0.86665
 Cu1007 Cu 0.89147 1.00528 0.89830
 Cu1008 Cu 0.85821 1.00828 0.86455
 Cu1009 Cu 1.10074 1.09382 0.99715
 Cu1010 Cu 1.13390 1.12666 0.99719
 Cu1011 Cu 1.09373 0.89583 0.99566
 Cu1012 Cu 1.12466 0.85945 0.99548
 Cu1013 Cu 0.90032 1.10311 0.99629
 Cu1014 Cu 0.86835 1.13859 0.99745
 Cu1015 Cu 0.88733 0.91431 0.99848
 Cu1016 Cu 0.85398 0.88179 0.99982
 Cu1017 Cu 0.99842 1.09774 0.89781
 Cu1018 Cu 0.99938 1.13048 0.86413
 Cu1019 Cu 0.99042 0.90489 0.89943
 Cu1020 Cu 0.98864 0.87157 0.86637
 C1021 C 1.05560 0.93720 0.86179
 H1022 H 1.05108 0.94185 0.87994
 C1023 C 1.06775 0.92527 0.81489
 C1024 C 0.93289 1.06532 0.85885
 H1025 H 0.93903 1.05930 0.87619
 C1026 C 0.91570 1.08162 0.81445
 C1027 C 0.93858 1.14187 0.93540
 H1028 H 0.94513 1.12518 0.94284
 C1029 C 0.92101 1.18424 0.91498
 C1030 C 1.05167 0.85900 0.93526
 H1031 H 1.04744 0.87694 0.94111
 C1032 C 1.06299 0.81276 0.91932
 C1033 C 1.13625 0.93006 0.93470
 H1034 H 1.11875 0.93686 0.93984
 C1035 C 1.18154 0.91193 0.92130
 C1036 C 0.85563 1.06957 0.93550
 H1037 H 0.87384 1.06373 0.93940
 C1038 C 0.80847 1.08506 0.92513
 C1039 C 1.06102 1.05730 0.85947
 H1040 H 1.05552 1.05171 0.87699
 C1041 C 1.07598 1.07324 0.81481
 C1042 C 0.92800 0.94384 0.85781
 H1043 H 0.93391 0.94986 0.87514
 C1044 C 0.91196 0.92687 0.81367
 C1045 C 1.14154 1.05572 0.93660
 H1046 H 1.12398 1.05067 0.94253
 C1047 C 1.18673 1.06931 0.92072
 C1048 C 0.84629 0.94872 0.93563
 H1049 H 0.86290 0.95522 0.94292
 C1050 C 0.80396 0.93092 0.91579
 C1051 C 1.06290 1.13446 0.93383
 H1052 H 1.05692 1.11707 0.93904
 C1053 C 1.07896 1.17942 0.92042
 C1054 C 0.92519 0.87187 0.93704
 H1055 H 0.93131 0.88934 0.94189
 C1056 C 0.90898 0.82665 0.92438
 O1057 O 0.98510 0.42198 0.37267
 O1058 O 0.98520 0.39491 0.34432
 C1059 C 0.97713 0.41440 0.35294
 C1060 C 0.95764 0.42815 0.34068
 C1061 C 0.94909 0.42165 0.31800
 H1062 H 0.95731 0.40669 0.30878
 O1063 O 1.03376 0.58714 0.38162
 O1064 O 1.03581 0.61595 0.35524
 C1065 C 1.04315 0.59591 0.36318
 C1066 C 1.06332 0.58290 0.35150
 C1067 C 1.07309 0.59112 0.33011
 H1068 H 1.06501 0.60657 0.32151
 O1069 O 0.88782 0.48578 0.40617
 O1070 O 0.86011 0.48829 0.37810
 C1071 C 0.86805 0.47921 0.39732
 C1072 C 0.85436 0.46071 0.40950
 C1073 C 0.83145 0.45463 0.40138
 H1074 H 0.82385 0.46363 0.38600
 O1075 O 1.12788 0.52057 0.41810
 O1076 O 1.15762 0.52080 0.39256
 C1077 C 1.14796 0.52834 0.41158
 C1078 C 1.15973 0.54665 0.42619
 C1079 C 1.18234 0.55526 0.42008
 H1080 H 1.19165 0.54814 0.40472
 O1081 O 0.91628 0.38927 0.46562
 O1082 O 0.88798 0.36276 0.46281
 C1083 C 0.90775 0.37094 0.45581
 C1084 C 0.92088 0.35925 0.43593
 C1085 C 0.91311 0.33760 0.42642
 H1086 H 0.89756 0.32926 0.43382
 O1087 O 1.09207 0.61313 0.48387
 O1088 O 1.12059 0.63946 0.48602
 C1089 C 1.10141 0.63214 0.47655
 C1090 C 1.09014 0.64547 0.45644
 C1091 C 1.09946 0.66717 0.44879
 H1092 H 1.11491 0.67408 0.45789
 O1093 O 0.92189 0.53173 0.37609
 O1094 O 0.89423 0.53435 0.34798
 C1095 C 0.91384 0.54104 0.35696
 C1096 C 0.92733 0.56012 0.34542
 C1097 C 0.91958 0.57008 0.32371
 H1098 H 0.90373 0.56337 0.31505
 O1099 O 1.09691 0.47652 0.38177
 O1100 O 1.12649 0.47635 0.35606
 C1101 C 1.10640 0.46874 0.36275
 C1102 C 1.09394 0.45047 0.34858
 C1103 C 1.10277 0.44292 0.32644
 H1104 H 1.11901 0.45053 0.31985
 O1105 O 1.02878 0.38649 0.40738
 O1106 O 1.02931 0.35886 0.37957
 C1107 C 1.03650 0.36658 0.39961
 C1108 C 1.05422 0.35269 0.41410
 C1109 C 1.05977 0.32867 0.40900
 H1110 H 1.05076 0.31991 0.39443
 O1111 O 0.98641 0.62055 0.41321
 O1112 O 0.98804 0.64957 0.38701
 C1113 C 0.97891 0.64063 0.40550
 C1114 C 0.95897 0.65319 0.41801
 C1115 C 0.94923 0.67497 0.40953
 H1116 H 0.95665 0.68313 0.39388
 O1117 O 0.89137 0.59017 0.47576
 O1118 O 0.86354 0.61861 0.47625
 C1119 C 0.87188 0.59926 0.46781
 C1120 C 0.85892 0.58766 0.44821
 C1121 C 0.83566 0.59537 0.44213
 H1122 H 0.82686 0.60890 0.45285
 O1123 O 1.12256 0.41132 0.47865
 O1124 O 1.15010 0.38261 0.47855
 C1125 C 1.14235 0.40262 0.47117
 C1126 C 1.15646 0.41569 0.45355
 C1127 C 1.18002 0.40832 0.44843
 H1128 H 1.18739 0.39286 0.45745
 O1129 O 0.98704 0.58912 0.37962
 O1130 O 0.98890 0.61798 0.35325
 C1131 C 0.97981 0.59881 0.36042
 C1132 C 0.95993 0.58814 0.34693
 C1133 C 0.95217 0.59772 0.32508
 H1134 H 0.96215 0.61194 0.31728
 O1135 O 1.03194 0.41900 0.37490
 O1136 O 1.03239 0.39178 0.34669
 C1137 C 1.04088 0.41042 0.35593
 C1138 C 1.06174 0.42201 0.34507
 C1139 C 1.07075 0.41472 0.32285
 H1140 H 1.06180 0.40091 0.31301
 O1141 O 1.12717 0.47458 0.41692
 O1142 O 1.15708 0.47459 0.39156
 C1143 C 1.14731 0.46636 0.41006
 C1144 C 1.15910 0.44681 0.42366
 C1145 C 1.18286 0.43952 0.41903
 H1146 H 1.19292 0.44884 0.40572
 O1147 O 0.88998 0.53158 0.40918
 O1148 O 0.86203 0.53420 0.38134
 C1149 C 0.87059 0.54076 0.40124
 C1150 C 0.85818 0.55938 0.41536
 C1151 C 0.83490 0.56741 0.40938
 H1152 H 0.82569 0.55975 0.39429
 O1153 O 0.92506 0.62115 0.47694
 O1154 O 0.89709 0.64943 0.47698
 C1155 C 0.91658 0.64072 0.46891
 C1156 C 0.92886 0.65310 0.44937
 C1157 C 0.91971 0.67491 0.44089
 H1158 H 0.90483 0.68337 0.45005
 O1159 O 1.08735 0.38216 0.47544
 O1160 O 1.11487 0.35341 0.47527
 C1161 C 1.09572 0.36289 0.46686
 C1162 C 1.08309 0.35124 0.44699
 C1163 C 1.08850 0.32750 0.44153
 H1164 H 1.10226 0.31817 0.45171
 O1165 O 1.09646 0.52279 0.38413
 O1166 O 1.12600 0.52285 0.35838
 C1167 C 1.10608 0.53129 0.36574
 C1168 C 1.09420 0.55146 0.35305
 C1169 C 1.10392 0.56016 0.33196
 H1170 H 1.12013 0.55177 0.32546
 O1171 O 0.92233 0.48555 0.37556
 O1172 O 0.89480 0.48800 0.34732
 C1173 C 0.91411 0.47880 0.35568
 C1174 C 0.92685 0.45974 0.34238
 C1175 C 0.91894 0.45332 0.31968
 H1176 H 0.90447 0.46355 0.31149
 O1177 O 1.03283 0.61719 0.41652
 O1178 O 1.03471 0.64624 0.39037
 C1179 C 1.04173 0.63652 0.40968
 C1180 C 1.06087 0.64753 0.42396
 C1181 C 1.07014 0.66930 0.41689
 H1182 H 1.06239 0.67837 0.40160
 O1183 O 0.98231 0.38957 0.40481
 O1184 O 0.98274 0.36223 0.37669
 C1185 C 0.97386 0.37088 0.39566
 C1186 C 0.95324 0.35926 0.40681
 C1187 C 0.94518 0.33764 0.39770
 H1188 H 0.95487 0.32910 0.38333
 O1189 O 1.12415 0.57905 0.48490
 O1190 O 1.15254 0.60548 0.48758
 C1191 C 1.14421 0.58683 0.47834
 C1192 C 1.15776 0.57482 0.45917
 C1193 C 1.18037 0.58294 0.45302
 H1194 H 1.18843 0.59675 0.46358
 O1195 O 0.88386 0.42278 0.46794
 O1196 O 0.85533 0.39647 0.46565
 C1197 C 0.86430 0.41586 0.45900
 C1198 C 0.85240 0.43007 0.44003
 C1199 C 0.82951 0.42432 0.43183
 H1200 H 0.82006 0.41015 0.44042
 Cu1201 Cu 1.00712 0.40705 0.39263
 Cu1202 Cu 1.00753 0.37425 0.35895
 Cu1203 Cu 1.00979 0.60058 0.40030
 Cu1204 Cu 1.01213 0.63533 0.36881
 Cu1205 Cu 0.90828 0.50843 0.39454
 Cu1206 Cu 0.87505 0.51143 0.36079
 Cu1207 Cu 1.10914 0.49856 0.40277
 Cu1208 Cu 1.14472 0.49861 0.37198
 C1209 C 0.94635 0.44728 0.35263
 H1210 H 0.95235 0.45211 0.37030
 C1211 C 0.92953 0.43406 0.30747
 C1212 C 1.07379 0.56280 0.36256
 H1213 H 1.06653 0.55643 0.37911
 C1214 C 1.09341 0.57980 0.31999
 C1215 C 0.86454 0.44851 0.42898
 H1216 H 0.88235 0.45283 0.43507
 C1217 C 0.81877 0.43654 0.41258
 C1218 C 1.14766 0.55652 0.44585
 H1219 H 1.13003 0.55044 0.45040
 C1220 C 1.19259 0.57370 0.43327
 C1221 C 0.94105 0.36990 0.42601
 H1222 H 0.94706 0.38670 0.43300
 C1223 C 0.92506 0.32675 0.40720
 C1224 C 1.07073 0.63589 0.44396
 H1225 H 1.06374 0.61897 0.44938
 C1226 C 1.08943 0.67938 0.42908
 C1227 C 0.94756 0.56919 0.35677
 H1228 H 0.95332 0.56190 0.37375
 C1229 C 0.93175 0.58906 0.31342
 C1230 C 1.07333 0.44007 0.35757
 H1231 H 1.06662 0.44564 0.37476
 C1232 C 1.09111 0.42529 0.31315
 C1233 C 1.06577 0.36366 0.43340
 H1234 H 1.06171 0.38211 0.43752
 C1235 C 1.07657 0.31579 0.42304
 C1236 C 0.94862 0.64250 0.43797
 H1237 H 0.95557 0.62551 0.44431
 C1238 C 0.92927 0.68577 0.42067
 C1239 C 0.86998 0.56954 0.43489
 H1240 H 0.88805 0.56374 0.43942
 C1241 C 0.82357 0.58555 0.42264
 C1242 C 1.14624 0.43504 0.44126
 H1243 H 1.12791 0.44048 0.44492
 C1244 C 1.19371 0.42041 0.43158
 O1245 O 1.02171 0.40647 0.61356
 O1246 O 1.02006 0.37727 0.63956
 C1247 C 1.02862 0.39692 0.63290
 C1248 C 1.04713 0.40858 0.64747
 C1249 C 1.05361 0.39951 0.66987
 H1250 H 1.04377 0.38482 0.67687
 O1251 O 0.97899 0.58371 0.62321
 O1252 O 0.97811 0.61066 0.65167
 C1253 C 0.97011 0.59178 0.64239
 C1254 C 0.94998 0.57908 0.65339
 C1255 C 0.93941 0.58698 0.67476
 H1256 H 0.94631 0.60238 0.68385
 O1257 O 0.88711 0.52355 0.58369
 O1258 O 0.85779 0.52405 0.60970
 C1259 C 0.86749 0.53246 0.59123
 C1260 C 0.85629 0.55316 0.57867
 C1261 C 0.83396 0.56266 0.58586
 H1262 H 0.82455 0.55447 0.60037
 O1263 O 1.11758 0.46929 0.59234
 O1264 O 1.14503 0.46645 0.62063
 C1265 C 1.13695 0.46008 0.60048
 C1266 C 1.14986 0.44159 0.58637
 C1267 C 1.17334 0.43406 0.59241
 H1268 H 1.18240 0.44225 0.60729
 O1269 O 1.08787 0.37700 0.52171
 O1270 O 1.11578 0.34865 0.52119
 C1271 C 1.09609 0.35695 0.52895
 C1272 C 1.08286 0.34330 0.54684
 C1273 C 1.09070 0.32036 0.55346
 H1274 H 1.10667 0.31298 0.54532
 O1275 O 0.92374 0.62079 0.52366
 O1276 O 0.89596 0.64928 0.52328
 C1277 C 0.91507 0.64016 0.53191
 C1278 C 0.92656 0.65177 0.55245
 C1279 C 0.91763 0.67369 0.56069
 H1280 H 0.90372 0.68290 0.55058
 O1281 O 0.91649 0.47416 0.61636
 O1282 O 0.88742 0.47432 0.64263
 C1283 C 0.90689 0.46540 0.63472
 C1284 C 0.91817 0.44402 0.64609
 C1285 C 0.90960 0.43465 0.66763
 H1286 H 0.89517 0.44386 0.67682
 O1287 O 1.08526 0.51513 0.62703
 O1288 O 1.11229 0.51232 0.65569
 C1289 C 1.09347 0.52207 0.64697
 C1290 C 1.08138 0.54239 0.65932
 C1291 C 1.08968 0.55102 0.68143
 H1292 H 1.10463 0.54217 0.69038
 O1293 O 0.97708 0.37755 0.57627
 O1294 O 0.97524 0.34793 0.60180
 C1295 C 0.96844 0.35792 0.58253
 C1296 C 0.94996 0.34699 0.56740
 C1297 C 0.94270 0.32370 0.57160
 H1298 H 0.95144 0.31340 0.58556
 O1299 O 1.02713 0.61480 0.59339
 O1300 O 1.02697 0.64226 0.62137
 C1301 C 1.03543 0.63374 0.60214
 C1302 C 1.05544 0.64533 0.58978
 C1303 C 1.06459 0.66715 0.59767
 H1304 H 1.05663 0.67628 0.61274
 O1305 O 0.88345 0.41871 0.51439
 O1306 O 0.85523 0.39208 0.51230
 C1307 C 0.86410 0.41027 0.52212
 C1308 C 0.85249 0.42142 0.54323
 C1309 C 0.83187 0.41179 0.55354
 H1310 H 0.82373 0.39634 0.54567
 O1311 O 1.12173 0.57790 0.53134
 O1312 O 1.15014 0.60434 0.53368
 C1313 C 1.14087 0.58525 0.54085
 C1314 C 1.15201 0.57193 0.56100
 C1315 C 1.17365 0.57930 0.57109
 H1316 H 1.18274 0.59412 0.56324
 O1317 O 1.02542 0.58128 0.62475
 O1318 O 1.02501 0.60839 0.65308
 C1319 C 1.03301 0.58884 0.64461
 C1320 C 1.05177 0.57510 0.65770
 C1321 C 1.06013 0.58326 0.67966
 H1322 H 1.05172 0.59886 0.68755
 O1323 O 0.97524 0.40684 0.61196
 O1324 O 0.97344 0.37743 0.63771
 C1325 C 0.96610 0.39766 0.63033
 C1326 C 0.94677 0.41062 0.64328
 C1327 C 0.93770 0.40134 0.66441
 H1328 H 0.94466 0.38433 0.67045
 O1329 O 1.11694 0.51532 0.59390
 O1330 O 1.14431 0.51271 0.62229
 C1331 C 1.13639 0.52209 0.60312
 C1332 C 1.14967 0.54133 0.59162
 C1333 C 1.17115 0.54917 0.60164
 H1334 H 1.17774 0.54096 0.61785
 O1335 O 0.88628 0.47717 0.58127
 O1336 O 0.85720 0.47773 0.60754
 C1337 C 0.86630 0.46976 0.58842
 C1338 C 0.85382 0.45088 0.57522
 C1339 C 0.83315 0.44132 0.58485
 H1340 H 0.82557 0.44914 0.60078
 O1341 O 1.08976 0.61198 0.53053
 O1342 O 1.11830 0.63832 0.53229
 C1343 C 1.09844 0.63067 0.53945
 C1344 C 1.08597 0.64348 0.55886
 C1345 C 1.09490 0.66499 0.56710
 H1346 H 1.11008 0.67272 0.55836
 O1347 O 0.91593 0.38535 0.51167
 O1348 O 0.88783 0.35862 0.50885
 C1349 C 0.90738 0.36559 0.51777
 C1350 C 0.92007 0.35080 0.53575
 C1351 C 0.91277 0.32759 0.54037
 H1352 H 0.89776 0.32075 0.53052
 O1353 O 1.08286 0.46876 0.62264
 O1354 O 1.11004 0.46565 0.65115
 C1355 C 1.09072 0.45885 0.64146
 C1356 C 1.07754 0.43880 0.65167
 C1357 C 1.08415 0.42914 0.67381
 H1358 H 1.09875 0.43686 0.68369
 O1359 O 0.91838 0.52078 0.61787
 O1360 O 0.88909 0.52084 0.64390
 C1361 C 0.90898 0.52861 0.63691
 C1362 C 0.92054 0.54771 0.65062
 C1363 C 0.91042 0.55569 0.67197
 H1364 H 0.89534 0.54648 0.67922
 O1365 O 0.98082 0.61695 0.59157
 O1366 O 0.98018 0.64426 0.61971
 C1367 C 0.97277 0.63654 0.59981
 C1368 C 0.95428 0.65003 0.58614
 C1369 C 0.94487 0.67194 0.59438
 H1370 H 0.95153 0.67952 0.61079
 O1371 O 1.02337 0.37394 0.58092
 O1372 O 1.02165 0.34451 0.60666
 C1373 C 1.03089 0.35376 0.58845
 C1374 C 1.05095 0.34145 0.57602
 C1375 C 1.05881 0.31826 0.58229
 H1376 H 1.04952 0.30874 0.59602
 O1377 O 1.11850 0.41083 0.52502
 O1378 O 1.14636 0.38243 0.52461
 C1379 C 1.13766 0.40157 0.53340
 C1380 C 1.14994 0.41304 0.55360
 C1381 C 1.17315 0.40558 0.56007
 H1382 H 1.18159 0.39112 0.55034
 O1383 O 0.89157 0.58833 0.52219
 O1384 O 0.86392 0.61693 0.52223
 C1385 C 0.87203 0.59712 0.53005
 C1386 C 0.85871 0.58461 0.54880
 C1387 C 0.83637 0.59365 0.55618
 H1388 H 0.82854 0.60896 0.54715
 Cu1389 Cu 0.99954 0.39405 0.59306
 Cu1390 Cu 0.99735 0.35888 0.62405
 Cu1391 Cu 1.00309 0.59651 0.60542
 Cu1392 Cu 1.00256 0.62909 0.63937
 Cu1393 Cu 0.90261 0.40677 0.49018
 Cu1394 Cu 0.86867 0.37490 0.48710
 Cu1395 Cu 1.10131 0.39817 0.50024
 Cu1396 Cu 1.13453 0.36398 0.49983
 Cu1397 Cu 0.91081 0.60228 0.49961
 Cu1398 Cu 0.87741 0.63645 0.49970
 Cu1399 Cu 1.10402 0.59288 0.50740
 Cu1400 Cu 1.13822 0.62455 0.51011
 Cu1401 Cu 0.90506 0.49887 0.59727
 Cu1402 Cu 0.86996 0.49929 0.62856
 Cu1403 Cu 1.09785 0.49235 0.60629
 Cu1404 Cu 1.13057 0.48896 0.64038
 C1405 C 1.05898 0.42840 0.63864
 H1406 H 1.05414 0.43540 0.62128
 C1407 C 1.07239 0.40939 0.68310
 C1408 C 0.94041 0.55933 0.64158
 H1409 H 0.94801 0.55337 0.62489
 C1410 C 0.91935 0.57551 0.68398
 C1411 C 0.86848 0.56426 0.56003
 H1412 H 0.88584 0.55737 0.55458
 C1413 C 0.82398 0.58307 0.57487
 C1414 C 1.13850 0.43118 0.56669
 H1415 H 1.12043 0.43679 0.56189
 C1416 C 1.18534 0.41632 0.57904
 C1417 C 1.06290 0.35355 0.55802
 H1418 H 1.05709 0.37140 0.55316
 C1419 C 1.07857 0.30731 0.57082
 C1420 C 0.94505 0.64019 0.56510
 H1421 H 0.95174 0.62308 0.55892
 C1422 C 0.92622 0.68370 0.58187
 C1423 C 0.93705 0.43202 0.63440
 H1424 H 0.94376 0.43899 0.61785
 C1425 C 0.91954 0.41339 0.67723
 C1426 C 1.06231 0.55456 0.64778
 H1427 H 1.05606 0.54843 0.63061
 C1428 C 1.07929 0.57172 0.69151
 C1429 C 0.93883 0.36025 0.54916
 H1430 H 0.94419 0.37833 0.54594
 C1431 C 0.92418 0.31370 0.55808
 C1432 C 1.06619 0.63381 0.57017
 H1433 H 1.05957 0.61692 0.56405
 C1434 C 1.08456 0.67685 0.58646
 C1435 C 0.86328 0.44098 0.55431
 H1436 H 0.87946 0.44817 0.54702
 C1437 C 0.82243 0.42143 0.57471
 C1438 C 1.14032 0.55270 0.57121
 H1439 H 1.12350 0.54702 0.56368
 C1440 C 1.18344 0.56809 0.59145
 O1441 O 0.47400 0.92138 0.37824
 O1442 O 0.47308 0.89612 0.34827
 C1443 C 0.46506 0.91477 0.35859
 C1444 C 0.44482 0.92865 0.34795
 C1445 C 0.43719 0.92405 0.32459
 H1446 H 0.44690 0.91086 0.31419
 O1447 O 0.51393 1.09333 0.38400
 O1448 O 0.51136 1.12184 0.35717
 C1449 C 0.52063 1.10237 0.36452
 C1450 C 0.53978 1.09032 0.35065
 C1451 C 0.54589 1.09855 0.32796
 H1452 H 0.53545 1.11300 0.32018
 O1453 O 0.37642 0.98062 0.42025
 O1454 O 0.34766 0.98119 0.39318
 C1455 C 0.35714 0.97244 0.41194
 C1456 C 0.34584 0.95223 0.42382
 C1457 C 0.32290 0.94539 0.41694
 H1458 H 0.31362 0.95525 0.40303
 O1459 O 0.61055 1.02960 0.41165
 O1460 O 0.63790 1.03125 0.38369
 C1461 C 0.62966 1.03818 0.40360
 C1462 C 0.64250 1.05652 0.41724
 C1463 C 0.66553 1.06282 0.41037
 H1464 H 0.67357 1.05419 0.39510
 O1465 O 0.41561 0.87953 0.47200
 O1466 O 0.38924 0.85105 0.47135
 C1467 C 0.40769 0.86058 0.46283
 C1468 C 0.41984 0.84993 0.44174
 C1469 C 0.41260 0.82809 0.43209
 H1470 H 0.39821 0.81873 0.44047
 O1471 O 0.58001 1.12377 0.47965
 O1472 O 0.60656 1.15211 0.47928
 C1473 C 0.58706 1.14354 0.47179
 C1474 C 0.57259 1.15631 0.45341
 C1475 C 0.57809 1.17955 0.44666
 H1476 H 0.59259 1.18851 0.45554
 O1477 O 0.40601 1.02896 0.38910
 O1478 O 0.37743 1.02928 0.36183
 C1479 C 0.39687 1.03734 0.37008
 C1480 C 0.40875 1.05674 0.35743
 C1481 C 0.40103 1.06333 0.33459
 H1482 H 0.38716 1.05323 0.32603
 O1483 O 0.57921 0.98445 0.37644
 O1484 O 0.60654 0.98645 0.34849
 C1485 C 0.58767 0.97745 0.35665
 C1486 C 0.57583 0.95822 0.34330
 C1487 C 0.58430 0.95104 0.32092
 H1488 H 0.59957 0.95989 0.31374
 O1489 O 0.52275 0.88613 0.40597
 O1490 O 0.52190 0.86043 0.37638
 C1491 C 0.53078 0.86736 0.39603
 C1492 C 0.55091 0.85381 0.40732
 C1493 C 0.55869 0.83180 0.39813
 H1494 H 0.54900 0.82422 0.38334
 O1495 O 0.46813 1.12425 0.41974
 O1496 O 0.46563 1.15300 0.39313
 C1497 C 0.45899 1.14388 0.41257
 C1498 C 0.44020 1.15588 0.42689
 C1499 C 0.43320 1.17961 0.42245
 H1500 H 0.44193 1.18946 0.40857
 O1501 O 0.37454 1.08855 0.48272
 O1502 O 0.34591 1.11611 0.48461
 C1503 C 0.35450 1.09712 0.47561
 C1504 C 0.34115 1.08495 0.45659
 C1505 C 0.31832 1.09322 0.44957
 H1506 H 0.31104 1.10887 0.45821
 O1507 O 0.61679 0.91512 0.46684
 O1508 O 0.64640 0.88866 0.46438
 C1509 C 0.63631 0.90798 0.45756
 C1510 C 0.64727 0.92211 0.43848
 C1511 C 0.66944 0.91493 0.42900
 H1512 H 0.67849 0.89913 0.43590
 O1513 O 0.46749 1.09204 0.38692
 O1514 O 0.46479 1.12049 0.36001
 C1515 C 0.45793 1.10076 0.36824
 C1516 C 0.43843 1.08785 0.35633
 C1517 C 0.43021 1.09445 0.33352
 H1518 H 0.43835 1.10908 0.32435
 O1519 O 0.52056 0.91992 0.37451
 O1520 O 0.51973 0.89440 0.34478
 C1521 C 0.52792 0.91305 0.35421
 C1522 C 0.54661 0.92668 0.34191
 C1523 C 0.55506 0.91995 0.31924
 H1524 H 0.54713 0.90507 0.31015
 O1525 O 0.61254 0.98314 0.40861
 O1526 O 0.63988 0.98505 0.38066
 C1527 C 0.63207 0.97566 0.39953
 C1528 C 0.64544 0.95534 0.41052
 C1529 C 0.66784 0.94804 0.40156
 H1530 H 0.67582 0.95848 0.38772
 O1531 O 0.37242 1.02707 0.42051
 O1532 O 0.34372 1.02751 0.39339
 C1533 C 0.35238 1.03515 0.41276
 C1534 C 0.33968 1.05426 0.42611
 C1535 C 0.31654 1.06243 0.41952
 H1536 H 0.30729 1.05373 0.40507
 O1537 O 0.40719 1.12048 0.48342
 O1538 O 0.37863 1.14813 0.48540
 C1539 C 0.39813 1.14023 0.47662
 C1540 C 0.41033 1.15399 0.45817
 C1541 C 0.40348 1.17767 0.45353
 H1542 H 0.38967 1.18612 0.46421
 O1543 O 0.58654 0.88116 0.46706
 O1544 O 0.61587 0.85443 0.46456
 C1545 C 0.59562 0.86262 0.45753
 C1546 C 0.58262 0.85124 0.43754
 C1547 C 0.59029 0.82926 0.42799
 H1548 H 0.60562 0.81998 0.43577
 O1549 O 0.57780 1.03094 0.37856
 O1550 O 0.60505 1.03282 0.35053
 C1551 C 0.58548 1.04018 0.35954
 C1552 C 0.57164 1.06000 0.34821
 C1553 C 0.57772 1.06862 0.32562
 H1554 H 0.59254 1.06037 0.31617
 O1555 O 0.40723 0.98287 0.38607
 O1556 O 0.37847 0.98339 0.35898
 C1557 C 0.39869 0.97563 0.36641
 C1558 C 0.41229 0.95803 0.35196
 C1559 C 0.40469 0.95288 0.32871
 H1560 H 0.38877 0.96181 0.32196
 O1561 O 0.51460 1.12378 0.41854
 O1562 O 0.51215 1.15252 0.39194
 C1563 C 0.52149 1.14358 0.41070
 C1564 C 0.54067 1.15620 0.42346
 C1565 C 0.54652 1.17936 0.41687
 H1566 H 0.53697 1.18778 0.40222
 O1567 O 0.47609 0.88544 0.40712
 O1568 O 0.47520 0.85996 0.37735
 C1569 C 0.46791 0.86675 0.39765
 C1570 C 0.44940 0.85302 0.41010
 C1571 C 0.44226 0.83100 0.40108
 H1572 H 0.45165 0.82376 0.38593
 O1573 O 0.61283 1.09078 0.47728
 O1574 O 0.63995 1.11859 0.47675
 C1575 C 0.63165 1.09929 0.46859
 C1576 C 0.64365 1.08656 0.44870
 C1577 C 0.66677 1.09260 0.44148
 H1578 H 0.67615 1.10650 0.45075
 O1579 O 0.38225 0.91195 0.47615
 O1580 O 0.35545 0.88385 0.47509
 C1581 C 0.36263 0.90403 0.46837
 C1582 C 0.34843 0.91850 0.45111
 C1583 C 0.32534 0.91191 0.44401
 H1584 H 0.31750 0.89625 0.45160
 Cu1585 Cu 0.49850 0.90576 0.39438
 Cu1586 Cu 0.49733 0.87518 0.35874
 Cu1587 Cu 0.49127 1.10547 0.40493
 Cu1588 Cu 0.48825 1.13983 0.37285
 Cu1589 Cu 0.39329 1.00484 0.40682
 Cu1590 Cu 0.35892 1.00534 0.37416
 Cu1591 Cu 0.59224 1.00691 0.39658
 Cu1592 Cu 0.62509 1.00916 0.36308
 C1593 C 0.43248 0.94598 0.36139
 H1594 H 0.43816 0.94961 0.37946
 C1595 C 0.41718 0.93615 0.31461
 C1596 C 0.55260 1.07094 0.36047
 H1597 H 0.54807 1.06466 0.37804
 C1598 C 0.56499 1.08798 0.31528
 C1599 C 0.35835 0.93890 0.44113
 H1600 H 0.37624 0.94399 0.44624
 C1601 C 0.31231 0.92548 0.42712
 C1602 C 0.63178 1.06827 0.43661
 H1603 H 0.61390 1.06358 0.44186
 C1604 C 0.67801 1.08049 0.42256
 C1605 C 0.43826 0.86220 0.43054
 H1606 H 0.44364 0.87923 0.43749
 C1607 C 0.42360 0.81837 0.41163
 C1608 C 0.55363 1.14491 0.44191
 H1609 H 0.54939 1.12691 0.44686
 C1610 C 0.56500 1.19135 0.42856
 C1611 C 0.42759 1.06894 0.36812
 H1612 H 0.43354 1.06395 0.38583
 C1613 C 0.41138 1.08232 0.32255
 C1614 C 0.55687 0.94609 0.35350
 H1615 H 0.55060 0.95132 0.37096
 C1616 C 0.57384 0.93218 0.30837
 C1617 C 0.56286 0.86323 0.42711
 H1618 H 0.55706 0.88034 0.43409
 C1619 C 0.57847 0.81939 0.40818
 C1620 C 0.42879 1.14331 0.44489
 H1621 H 0.43394 1.12494 0.44825
 C1622 C 0.41481 1.19066 0.43570
 C1623 C 0.35154 1.06538 0.44494
 H1624 H 0.36936 1.05928 0.45008
 C1625 C 0.30544 1.08186 0.43135
 C1626 C 0.63539 0.94237 0.42915
 H1627 H 0.61806 0.94775 0.43605
 C1628 C 0.67987 0.92760 0.41041
 O1629 O 0.53013 0.91140 0.61013
 O1630 O 0.53198 0.88403 0.63817
 C1631 C 0.53881 0.90359 0.62962
 C1632 C 0.55734 0.91730 0.64211
 C1633 C 0.56459 0.91150 0.66545
 H1634 H 0.55603 0.89717 0.67471
 O1635 O 0.47373 1.08154 0.61747
 O1636 O 0.47393 1.10693 0.64735
 C1637 C 0.46598 1.08827 0.63759
 C1638 C 0.44731 1.07465 0.64985
 C1639 C 0.44057 1.08119 0.67290
 H1640 H 0.44919 1.09600 0.68142
 O1641 O 0.37755 1.01778 0.58563
 O1642 O 0.35103 1.01634 0.61437
 C1643 C 0.35830 1.02542 0.59508
 C1644 C 0.34511 1.04574 0.58376
 C1645 C 0.32214 1.05330 0.59135
 H1646 H 0.31315 1.04368 0.60522
 O1647 O 0.62000 0.97809 0.57481
 O1648 O 0.64873 0.97674 0.60192
 C1649 C 0.63988 0.96964 0.58231
 C1650 C 0.65284 0.95122 0.56832
 C1651 C 0.67685 0.94577 0.57349
 H1652 H 0.68567 0.95521 0.58772
 O1653 O 0.58976 0.87915 0.51357
 O1654 O 0.61936 0.85269 0.51148
 C1655 C 0.60000 0.86011 0.52091
 C1656 C 0.58958 0.84719 0.54121
 C1657 C 0.59959 0.82551 0.54945
 H1658 H 0.61424 0.81743 0.53969
 O1659 O 0.40786 1.11920 0.52964
 O1660 O 0.37910 1.14664 0.53143
 C1661 C 0.39909 1.13818 0.53862
 C1662 C 0.41200 1.15029 0.55795
 C1663 C 0.40406 1.17260 0.56606
 H1664 H 0.38937 1.18145 0.55678
 O1665 O 0.41499 0.97142 0.61424
 O1666 O 0.38888 0.96937 0.64330
 C1667 C 0.40832 0.96228 0.63362
 C1668 C 0.42312 0.94296 0.64471
 C1669 C 0.41720 0.93400 0.66719
 H1670 H 0.40196 0.94148 0.67662
 O1671 O 0.58718 1.02249 0.61063
 O1672 O 0.61568 1.02097 0.63796
 C1673 C 0.59565 1.02925 0.63044
 C1674 C 0.58204 1.04684 0.64492
 C1675 C 0.58934 1.05193 0.66826
 H1676 H 0.60531 1.04310 0.67500
 O1677 O 0.48495 0.87771 0.57762
 O1678 O 0.48688 0.85010 0.60540
 C1679 C 0.47793 0.85824 0.58613
 C1680 C 0.45854 0.84535 0.57401
 C1681 C 0.45108 0.82357 0.58298
 H1682 H 0.46014 0.81595 0.59836
 O1683 O 0.51897 1.11719 0.58743
 O1684 O 0.51900 1.14256 0.61733
 C1685 C 0.52691 1.13578 0.59724
 C1686 C 0.54588 1.14934 0.58543
 C1687 C 0.55313 1.17116 0.59476
 H1688 H 0.54454 1.17807 0.61058
 O1689 O 0.38388 0.90841 0.52206
 O1690 O 0.35720 0.88020 0.52116
 C1691 C 0.36494 0.89933 0.53007
 C1692 C 0.35180 0.91114 0.54990
 C1693 C 0.32968 0.90263 0.55739
 H1694 H 0.32260 0.88708 0.54878
 O1695 O 0.61720 1.09114 0.52323
 O1696 O 0.64412 1.11911 0.52318
 C1697 C 0.63687 1.09934 0.53077
 C1698 C 0.65080 1.08559 0.54888
 C1699 C 0.67359 1.09249 0.55696
 H1700 H 0.68174 1.10802 0.54942
 O1701 O 0.52045 1.08278 0.61797
 O1702 O 0.52057 1.10796 0.64804
 C1703 C 0.52893 1.08944 0.63785
 C1704 C 0.54913 1.07580 0.64880
 C1705 C 0.55640 1.08032 0.67231
 H1706 H 0.54639 1.09329 0.68271
 O1707 O 0.48348 0.91041 0.61001
 O1708 O 0.48552 0.88284 0.63784
 C1709 C 0.47615 0.90190 0.62948
 C1710 C 0.45628 0.91381 0.64255
 C1711 C 0.45014 0.90541 0.66509
 H1712 H 0.46089 0.89132 0.67318
 O1713 O 0.62081 1.02451 0.57923
 O1714 O 0.64937 1.02279 0.60648
 C1715 C 0.64029 1.03210 0.58790
 C1716 C 0.65223 1.05231 0.57664
 C1717 C 0.67478 1.05939 0.58459
 H1718 H 0.68338 1.04969 0.59903
 O1719 O 0.37946 0.97113 0.58456
 O1720 O 0.35290 0.96931 0.61322
 C1721 C 0.36097 0.96191 0.59341
 C1722 C 0.34945 0.94189 0.58070
 C1723 C 0.32720 0.93311 0.58790
 H1724 H 0.31777 0.94156 0.60251
 O1725 O 0.58172 1.12146 0.52592
 O1726 O 0.60825 1.14981 0.52604
 C1727 C 0.58953 1.14064 0.53454
 C1728 C 0.57672 1.15183 0.55492
 C1729 C 0.58373 1.17371 0.56453
 H1730 H 0.59841 1.18301 0.55658
 O1731 O 0.41870 0.87727 0.51855
 O1732 O 0.39224 0.84887 0.51827
 C1733 C 0.41163 0.85743 0.52613
 C1734 C 0.42585 0.84486 0.54486
 C1735 C 0.41848 0.82311 0.55429
 H1736 H 0.40269 0.81478 0.54716
 O1737 O 0.58975 0.97635 0.60961
 O1738 O 0.61852 0.97512 0.63669
 C1739 C 0.59890 0.96762 0.62855
 C1740 C 0.58672 0.94857 0.64134
 C1741 C 0.59387 0.94248 0.66454
 H1742 H 0.60851 0.95179 0.67273
 O1743 O 0.41161 1.01763 0.61717
 O1744 O 0.38546 1.01590 0.64622
 C1745 C 0.40403 1.02483 0.63726
 C1746 C 0.41685 1.04404 0.64996
 C1747 C 0.41022 1.05116 0.67314
 H1748 H 0.39584 1.04237 0.68215
 O1749 O 0.47232 1.11828 0.58968
 O1750 O 0.47227 1.14382 0.61943
 C1751 C 0.46383 1.13690 0.59966
 C1752 C 0.44351 1.14991 0.58816
 C1753 C 0.43502 1.17217 0.59651
 H1754 H 0.44374 1.18044 0.61155
 O1755 O 0.53162 0.87804 0.57815
 O1756 O 0.53357 0.85057 0.60606
 C1757 C 0.54092 0.85896 0.58657
 C1758 C 0.56076 0.84681 0.57363
 C1759 C 0.57106 0.82523 0.58179
 H1760 H 0.56405 0.81708 0.59764
 O1761 O 0.61954 0.91369 0.51283
 O1762 O 0.64949 0.88761 0.51058
 C1763 C 0.64019 0.90643 0.51949
 C1764 C 0.65319 0.92008 0.53791
 C1765 C 0.67737 0.91485 0.54344
 H1766 H 0.68688 0.90082 0.53397
 O1767 O 0.37728 1.08527 0.52874
 O1768 O 0.34848 1.11267 0.53054
 C1769 C 0.35769 1.09295 0.53740
 C1770 C 0.34547 1.07896 0.55572
 C1771 C 0.32282 1.08625 0.56357
 H1772 H 0.31406 1.10170 0.55559
 Cu1773 Cu 0.50750 0.89712 0.59114
 Cu1774 Cu 0.50964 0.86412 0.62466
 Cu1775 Cu 0.49634 1.09748 0.60010
 Cu1776 Cu 0.49646 1.12781 0.63606
 Cu1777 Cu 0.40285 0.89697 0.49726
 Cu1778 Cu 0.37098 0.86305 0.49637
 Cu1779 Cu 0.60010 0.89975 0.49037
 Cu1780 Cu 0.63569 0.86810 0.48753
 Cu1781 Cu 0.39464 1.10062 0.50591
 Cu1782 Cu 0.36012 1.13365 0.50821
 Cu1783 Cu 0.59531 1.10404 0.50164
 Cu1784 Cu 0.62733 1.13780 0.50119
 Cu1785 Cu 0.39836 0.99472 0.59748
 Cu1786 Cu 0.36692 0.99252 0.63214
 Cu1787 Cu 0.60163 1.00050 0.59076
 Cu1788 Cu 0.63599 0.99875 0.62340
 C1789 C 0.56829 0.93611 0.63036
 H1790 H 0.56295 0.94063 0.61233
 C1791 C 0.58265 0.92428 0.67699
 C1792 C 0.43558 1.05586 0.63858
 H1793 H 0.44066 1.05083 0.62069
 C1794 C 0.42234 1.06950 0.68486
 C1795 C 0.35643 1.05865 0.56576
 H1796 H 0.37416 1.05322 0.55993
 C1797 C 0.31105 1.07374 0.58135
 C1798 C 0.64120 0.93852 0.55030
 H1799 H 0.62255 0.94259 0.54640
 C1800 C 0.68944 0.92797 0.56092
 C1801 C 0.57010 0.85745 0.55331
 H1802 H 0.56247 0.87425 0.54719
 C1803 C 0.59062 0.81436 0.56994
 C1804 C 0.43182 1.13923 0.56890
 H1805 H 0.43783 1.12189 0.56268
 C1806 C 0.41507 1.18363 0.58560
 C1807 C 0.44280 0.93275 0.63251
 H1808 H 0.44731 0.93918 0.61499
 C1809 C 0.43048 0.91507 0.67739
 C1810 C 0.56183 1.05873 0.63540
 H1811 H 0.55636 1.05515 0.61725
 C1812 C 0.57641 1.06833 0.68244
 C1813 C 0.44611 0.85566 0.55470
 H1814 H 0.45165 0.87267 0.54796
 C1815 C 0.43114 0.81228 0.57327
 C1816 C 0.55759 1.13998 0.56540
 H1817 H 0.55219 1.12300 0.55834
 C1818 C 0.57182 1.18368 0.58432
 C1819 C 0.36138 0.93089 0.56152
 H1820 H 0.37853 0.93738 0.55594
 C1821 C 0.31689 0.91370 0.57604
 C1822 C 0.64058 1.06530 0.55866
 H1823 H 0.62302 1.05994 0.55277
 C1824 C 0.68597 1.07915 0.57462
 O1825 O 0.48138 0.40402 0.89286
 O1826 O 0.48215 0.37479 0.86669
 C1827 C 0.47375 0.39474 0.87380
 C1828 C 0.45491 0.40726 0.85983
 C1829 C 0.45004 0.40035 0.83641
 H1830 H 0.46097 0.38641 0.82845
 O1831 O 0.51655 0.58077 0.88201
 O1832 O 0.51488 0.60733 0.85321
 C1833 C 0.52389 0.58840 0.86216
 C1834 C 0.54360 0.57566 0.84966
 C1835 C 0.55216 0.58458 0.82819
 H1836 H 0.54311 0.59978 0.82011
 O1837 O 0.38336 0.46593 0.91939
 O1838 O 0.35563 0.46294 0.89153
 C1839 C 0.36446 0.45647 0.91146
 C1840 C 0.35294 0.43762 0.92556
 C1841 C 0.33107 0.42788 0.91825
 H1842 H 0.32218 0.43441 0.90229
 O1843 O 0.61511 0.51898 0.91140
 O1844 O 0.64248 0.51702 0.88340
 C1845 C 0.63449 0.52624 0.90241
 C1846 C 0.64766 0.54578 0.91399
 C1847 C 0.66952 0.55338 0.90478
 H1848 H 0.67668 0.54477 0.88908
 O1849 O 0.42014 0.37663 0.98909
 O1850 O 0.39278 0.34915 0.99127
 C1851 C 0.41181 0.35696 0.98218
 C1852 C 0.42402 0.34337 0.96292
 C1853 C 0.41499 0.32165 0.95501
 H1854 H 0.39904 0.31521 0.96330
 O1855 O 0.58386 0.61273 0.97262
 O1856 O 0.61094 0.64054 0.97097
 C1857 C 0.59137 0.63184 0.96374
 C1858 C 0.57752 0.64406 0.94462
 C1859 C 0.58536 0.66573 0.93589
 H1860 H 0.60076 0.67382 0.94407
 O1861 O 0.41258 0.51285 0.88521
 O1862 O 0.38472 0.51033 0.85744
 C1863 C 0.40336 0.52002 0.86569
 C1864 C 0.41411 0.54020 0.85281
 C1865 C 0.40473 0.54786 0.83075
 H1866 H 0.38965 0.53873 0.82326
 O1867 O 0.58310 0.47012 0.88210
 O1868 O 0.61020 0.46894 0.85383
 C1869 C 0.59159 0.46071 0.86323
 C1870 C 0.58033 0.43933 0.85288
 C1871 C 0.58793 0.42974 0.83093
 H1872 H 0.60126 0.43893 0.82079
 O1873 O 0.52889 0.37388 0.92722
 O1874 O 0.52948 0.34415 0.90167
 C1875 C 0.53753 0.35405 0.92033
 C1876 C 0.55744 0.34271 0.93392
 C1877 C 0.56546 0.31960 0.92845
 H1878 H 0.55658 0.30992 0.91441
 O1879 O 0.46914 0.61460 0.91324
 O1880 O 0.46768 0.64129 0.88457
 C1881 C 0.45987 0.63334 0.90406
 C1882 C 0.43915 0.64525 0.91581
 C1883 C 0.42979 0.66727 0.90769
 H1884 H 0.43836 0.67620 0.89310
 O1885 O 0.37574 0.57734 0.97663
 O1886 O 0.34549 0.60319 0.97553
 C1887 C 0.35530 0.58376 0.96872
 C1888 C 0.34325 0.56856 0.95108
 C1889 C 0.31906 0.57237 0.94511
 H1890 H 0.30900 0.58627 0.95420
 O1891 O 0.62072 0.41444 0.98661
 O1892 O 0.65044 0.38802 0.98703
 C1893 C 0.64018 0.40642 0.97797
 C1894 C 0.65045 0.41827 0.95675
 C1895 C 0.67250 0.41030 0.94729
 H1896 H 0.68243 0.39581 0.95573
 O1897 O 0.47020 0.57955 0.88344
 O1898 O 0.46839 0.60595 0.85450
 C1899 C 0.46135 0.58672 0.86380
 C1900 C 0.44239 0.57277 0.85197
 C1901 C 0.43295 0.57990 0.82982
 H1902 H 0.44023 0.59525 0.82110
 O1903 O 0.52767 0.40288 0.89116
 O1904 O 0.52846 0.37320 0.86555
 C1905 C 0.53573 0.39336 0.87221
 C1906 C 0.55365 0.40595 0.85779
 C1907 C 0.56170 0.39647 0.83603
 H1908 H 0.55497 0.37954 0.83040
 O1909 O 0.61277 0.47323 0.91749
 O1910 O 0.64028 0.47140 0.88963
 C1911 C 0.63241 0.46478 0.90976
 C1912 C 0.64633 0.44683 0.92384
 C1913 C 0.66847 0.43885 0.91523
 H1914 H 0.67501 0.44604 0.89872
 O1915 O 0.38035 0.51187 0.91783
 O1916 O 0.35224 0.50900 0.89030
 C1917 C 0.36009 0.51821 0.90938
 C1918 C 0.34572 0.53663 0.92185
 C1919 C 0.32163 0.54086 0.91576
 H1920 H 0.31403 0.53044 0.90163
 O1921 O 0.40507 0.61236 0.97335
 O1922 O 0.37506 0.63848 0.97207
 C1923 C 0.39513 0.63087 0.96442
 C1924 C 0.40711 0.64361 0.94499
 C1925 C 0.39807 0.66563 0.93681
 H1926 H 0.38266 0.67359 0.94549
 O1927 O 0.59210 0.37908 0.98935
 O1928 O 0.62168 0.35245 0.99027
 C1929 C 0.60146 0.35954 0.98225
 C1930 C 0.58883 0.34531 0.96415
 C1931 C 0.59664 0.32205 0.95851
 H1932 H 0.61148 0.31412 0.96835
 O1933 O 0.57969 0.51717 0.88086
 O1934 O 0.60730 0.51603 0.85310
 C1935 C 0.58785 0.52474 0.86134
 C1936 C 0.57497 0.54460 0.84890
 C1937 C 0.58352 0.55407 0.82743
 H1938 H 0.59926 0.54623 0.81916
 O1939 O 0.41654 0.46633 0.88735
 O1940 O 0.38904 0.46373 0.85920
 C1941 C 0.40897 0.45701 0.86825
 C1942 C 0.42334 0.43782 0.85691
 C1943 C 0.41848 0.43050 0.83353
 H1944 H 0.40427 0.43935 0.82347
 O1945 O 0.51633 0.61443 0.91346
 O1946 O 0.51504 0.64107 0.88475
 C1947 C 0.52413 0.63325 0.90412
 C1948 C 0.54464 0.64533 0.91556
 C1949 C 0.55304 0.66712 0.90688
 H1950 H 0.54400 0.67590 0.89210
 O1951 O 0.48208 0.37216 0.92606
 O1952 O 0.48257 0.34269 0.90021
 C1953 C 0.47418 0.35235 0.91889
 C1954 C 0.45456 0.34091 0.93206
 C1955 C 0.44549 0.31892 0.92467
 H1956 H 0.45368 0.30970 0.90979
 O1957 O 0.61882 0.58191 0.97317
 O1958 O 0.64615 0.60945 0.97150
 C1959 C 0.63777 0.58997 0.96413
 C1960 C 0.64950 0.57684 0.94432
 C1961 C 0.67135 0.58421 0.93485
 H1962 H 0.68032 0.59914 0.94280
 O1963 O 0.38652 0.40889 0.98748
 O1964 O 0.35916 0.38144 0.99002
 C1965 C 0.36717 0.39989 0.98017
 C1966 C 0.35427 0.41033 0.95942
 C1967 C 0.33258 0.40077 0.95174
 H1968 H 0.32466 0.38667 0.96189
 Cu1969 Cu 0.50501 0.39106 0.91200
 Cu1970 Cu 0.50571 0.35566 0.88104
 Cu1971 Cu 0.49321 0.59488 0.90106
 Cu1972 Cu 0.49130 0.62662 0.86645
 Cu1973 Cu 0.40107 0.48944 0.90513
 Cu1974 Cu 0.36771 0.48621 0.87171
 Cu1975 Cu 0.59476 0.49523 0.90046
 Cu1976 Cu 0.62766 0.49300 0.86720
 C1977 C 0.44167 0.42615 0.86988
 H1978 H 0.44531 0.43145 0.88806
 C1979 C 0.43175 0.41173 0.82311
 C1980 C 0.55493 0.55555 0.85976
 H1981 H 0.54853 0.54883 0.87653
 C1982 C 0.57238 0.57435 0.81716
 C1983 C 0.36425 0.42880 0.94630
 H1984 H 0.38118 0.43595 0.95196
 C1985 C 0.32092 0.40926 0.93115
 C1986 C 0.63800 0.55745 0.93389
 H1987 H 0.62104 0.55184 0.94087
 C1988 C 0.68172 0.57244 0.91520
 C1989 C 0.44390 0.35273 0.95144
 H1990 H 0.45064 0.36971 0.95715
 C1991 C 0.42573 0.30892 0.93610
 C1992 C 0.55704 0.63404 0.93452
 H1993 H 0.55110 0.61710 0.94109
 C1994 C 0.57365 0.67721 0.91685
 C1995 C 0.43304 0.55271 0.86317
 H1996 H 0.44010 0.54718 0.88033
 C1997 C 0.41416 0.56761 0.81890
 C1998 C 0.56294 0.42745 0.86589
 H1999 H 0.55710 0.43463 0.88282
 C2000 C 0.57856 0.40837 0.82205
 C2001 C 0.56911 0.35535 0.95190
 H2002 H 0.56319 0.37335 0.95597
 C2003 C 0.58505 0.30902 0.94058
 C2004 C 0.42771 0.63370 0.93451
 H2005 H 0.43459 0.61661 0.94063
 C2006 C 0.40912 0.67761 0.91802
 C2007 C 0.35629 0.55040 0.93962
 H2008 H 0.37502 0.54742 0.94406
 C2009 C 0.30786 0.55849 0.92753
 C2010 C 0.63752 0.43673 0.94488
 H2011 H 0.62027 0.44269 0.95154
 C2012 C 0.68165 0.42074 0.92667
 O2013 O 0.52839 0.41915 1.12940
 O2014 O 0.53014 0.39317 1.15874
 C2015 C 0.53719 0.41218 1.14917
 C2016 C 0.55605 0.42628 1.16078
 C2017 C 0.56506 0.42014 1.18342
 H2018 H 0.55786 0.40503 1.19261
 O2019 O 0.47474 0.59290 1.11427
 O2020 O 0.47439 0.62317 1.13922
 C2021 C 0.46688 0.60300 1.13296
 C2022 C 0.44864 0.59128 1.14737
 C2023 C 0.44193 0.60050 1.16957
 H2024 H 0.45114 0.61573 1.17649
 O2025 O 0.38424 0.52478 1.09039
 O2026 O 0.35693 0.52573 1.11851
 C2027 C 0.36432 0.53243 1.09837
 C2028 C 0.34986 0.54995 1.08469
 C2029 C 0.32822 0.55869 1.09399
 H2030 H 0.32172 0.55176 1.11065
 O2031 O 0.61986 0.48113 1.09251
 O2032 O 0.64778 0.48384 1.12024
 C2033 C 0.63972 0.47412 1.10149
 C2034 C 0.65346 0.45443 1.09000
 C2035 C 0.67664 0.44817 1.09789
 H2036 H 0.68426 0.45771 1.11272
 O2037 O 0.59203 0.38262 1.03534
 O2038 O 0.62123 0.35562 1.03643
 C2039 C 0.60129 0.36375 1.04415
 C2040 C 0.58852 0.35178 1.06379
 C2041 C 0.59399 0.32813 1.07072
 H2042 H 0.60768 0.31801 1.06134
 O2043 O 0.40750 0.61449 1.01915
 O2044 O 0.37782 0.64102 1.01805
 C2045 C 0.39822 0.63410 1.02591
 C2046 C 0.41132 0.64880 1.04319
 C2047 C 0.40301 0.67180 1.04889
 H2048 H 0.38672 0.67838 1.04054
 O2049 O 0.42044 0.48288 1.12647
 O2050 O 0.39300 0.48428 1.15445
 C2051 C 0.41270 0.47614 1.14648
 C2052 C 0.42608 0.45783 1.16019
 C2053 C 0.41909 0.45224 1.18332
 H2054 H 0.40543 0.46320 1.19168
 O2055 O 0.58566 0.53008 1.12056
 O2056 O 0.61333 0.53289 1.14851
 C2057 C 0.59369 0.54006 1.13915
 C2058 C 0.58017 0.56046 1.14962
 C2059 C 0.58650 0.56972 1.17196
 H2060 H 0.60131 0.56160 1.18177
 O2061 O 0.48291 0.38375 1.09917
 O2062 O 0.48427 0.35762 1.12836
 C2063 C 0.47563 0.36472 1.10857
 C2064 C 0.45669 0.35110 1.09633
 C2065 C 0.44957 0.32883 1.10485
 H2066 H 0.45812 0.32165 1.12067
 O2067 O 0.52012 0.62160 1.07798
 O2068 O 0.51948 0.65184 1.10296
 C2069 C 0.52786 0.64159 1.08459
 C2070 C 0.54721 0.65292 1.07132
 C2071 C 0.55359 0.67610 1.07705
 H2072 H 0.54394 0.68551 1.09091
 O2073 O 0.38780 0.41221 1.03415
 O2074 O 0.36048 0.38473 1.03655
 C2075 C 0.36882 0.40445 1.04335
 C2076 C 0.35674 0.41822 1.06255
 C2077 C 0.33458 0.41114 1.07154
 H2078 H 0.32605 0.39575 1.06403
 O2079 O 0.61925 0.58336 1.01991
 O2080 O 0.64651 0.61098 1.01833
 C2081 C 0.63858 0.59213 1.02752
 C2082 C 0.65140 0.58053 1.04771
 C2083 C 0.67463 0.58716 1.05441
 H2084 H 0.68377 0.60047 1.04423
 O2085 O 0.52110 0.59254 1.11356
 O2086 O 0.52061 0.62272 1.13863
 C2087 C 0.52905 0.60260 1.13214
 C2088 C 0.54851 0.59093 1.14613
 C2089 C 0.55486 0.59974 1.16861
 H2090 H 0.54447 0.61438 1.17597
 O2091 O 0.48211 0.41857 1.12945
 O2092 O 0.48360 0.39275 1.15893
 C2093 C 0.47479 0.41153 1.14950
 C2094 C 0.45573 0.42545 1.16159
 C2095 C 0.44804 0.41954 1.18458
 H2096 H 0.45624 0.40449 1.19376
 O2097 O 0.61853 0.52705 1.08829
 O2098 O 0.64638 0.52969 1.11610
 C2099 C 0.63793 0.53568 1.09589
 C2100 C 0.65078 0.55295 1.08119
 C2101 C 0.67393 0.55968 1.08757
 H2102 H 0.68221 0.55213 1.10339
 O2103 O 0.38793 0.47895 1.09382
 O2104 O 0.36044 0.48002 1.12177
 C2105 C 0.36905 0.47090 1.10288
 C2106 C 0.35705 0.45060 1.09156
 C2107 C 0.33482 0.44347 1.09997
 H2108 H 0.32619 0.45378 1.11383
 O2109 O 0.58614 0.61660 1.01835
 O2110 O 0.61320 0.64442 1.01686
 C2111 C 0.59384 0.63658 1.02515
 C2112 C 0.57998 0.65059 1.04290
 C2113 C 0.58625 0.67396 1.04902
 H2114 H 0.60139 0.68209 1.04061
 O2115 O 0.42095 0.37921 1.03554
 O2116 O 0.39370 0.35161 1.03763
 C2117 C 0.41314 0.36041 1.04491
 C2118 C 0.42638 0.34902 1.06493
 C2119 C 0.41968 0.32675 1.07349
 H2120 H 0.40541 0.31749 1.06456
 O2121 O 0.58718 0.48371 1.12494
 O2122 O 0.61497 0.48654 1.15276
 C2123 C 0.59591 0.47740 1.14495
 C2124 C 0.58431 0.45860 1.15884
 C2125 C 0.59271 0.45260 1.18169
 H2126 H 0.60641 0.46331 1.18964
 O2127 O 0.41694 0.52917 1.12290
 O2128 O 0.38963 0.53043 1.15099
 C2129 C 0.40827 0.53864 1.14156
 C2130 C 0.41988 0.55975 1.15181
 C2131 C 0.41308 0.56932 1.17396
 H2132 H 0.39923 0.56088 1.18407
 O2133 O 0.47320 0.62191 1.07846
 O2134 O 0.47276 0.65222 1.10334
 C2135 C 0.46452 0.64190 1.08503
 C2136 C 0.44411 0.65281 1.07168
 C2137 C 0.43582 0.67596 1.07688
 H2138 H 0.44534 0.68624 1.09003
 O2139 O 0.52947 0.38604 1.09772
 O2140 O 0.53098 0.35977 1.12680
 C2141 C 0.53853 0.36736 1.10699
 C2142 C 0.55789 0.35417 1.09456
 C2143 C 0.56409 0.33110 1.10169
 H2144 H 0.55526 0.32389 1.11701
 O2145 O 0.62368 0.41551 1.03332
 O2146 O 0.65342 0.38913 1.03425
 C2147 C 0.64382 0.40840 1.04164
 C2148 C 0.65570 0.42248 1.06053
 C2149 C 0.67898 0.41651 1.06862
 H2150 H 0.68878 0.40189 1.06040
 O2151 O 0.37632 0.58174 1.02281
 O2152 O 0.34642 0.60800 1.02182
 C2153 C 0.35669 0.58989 1.03111
 C2154 C 0.34619 0.57854 1.05220
 C2155 C 0.32488 0.58763 1.06227
 H2156 H 0.31557 0.60274 1.05424
 Cu2157 Cu 0.50545 0.40447 1.11102
 Cu2158 Cu 0.50741 0.37311 1.14610
 Cu2159 Cu 0.49725 0.60424 1.09347
 Cu2160 Cu 0.49679 0.64063 1.12344
 Cu2161 Cu 0.40655 0.39703 1.01140
 Cu2162 Cu 0.37377 0.36403 1.01414
 Cu2163 Cu 0.60430 0.40057 1.01113
 Cu2164 Cu 0.63982 0.36885 1.01216
 Cu2165 Cu 0.39405 0.59376 0.99800
 Cu2166 Cu 0.35811 0.62526 0.99668
 Cu2167 Cu 0.59951 0.59573 0.99633
 Cu2168 Cu 0.63201 0.62905 0.99423
 Cu2169 Cu 0.40530 0.50391 1.10568
 Cu2170 Cu 0.37225 0.50518 1.13928
 Cu2171 Cu 0.59993 0.50524 1.10388
 Cu2172 Cu 0.63333 0.50855 1.13726
 C2173 C 0.56579 0.44555 1.14869
 H2174 H 0.55937 0.45002 1.13099
 C2175 C 0.58357 0.43308 1.19407
 C2176 C 0.43768 0.57089 1.13875
 H2177 H 0.44278 0.56388 1.12153
 C2178 C 0.42400 0.58982 1.18302
 C2179 C 0.35848 0.55958 1.06351
 H2180 H 0.37531 0.55296 1.05638
 C2181 C 0.31580 0.57763 1.08310
 C2182 C 0.64326 0.44162 1.07120
 H2183 H 0.62529 0.44624 1.06521
 C2184 C 0.68980 0.42948 1.08710
 C2185 C 0.57006 0.36437 1.07559
 H2186 H 0.56544 0.38242 1.07034
 C2187 C 0.58129 0.31739 1.08938
 C2188 C 0.43196 0.63955 1.05451
 H2189 H 0.43816 0.62162 1.05050
 C2190 C 0.41529 0.68579 1.06553
 C2191 C 0.44459 0.44461 1.14959
 H2192 H 0.44987 0.44886 1.13163
 C2193 C 0.42945 0.43274 1.19552
 C2194 C 0.56110 0.57118 1.13690
 H2195 H 0.55633 0.56441 1.11950
 C2196 C 0.57396 0.58941 1.18169
 C2197 C 0.44508 0.36086 1.07624
 H2198 H 0.45015 0.37814 1.06977
 C2199 C 0.43120 0.31627 1.09331
 C2200 C 0.56025 0.64037 1.05402
 H2201 H 0.55544 0.62233 1.04973
 C2202 C 0.57280 0.68696 1.06586
 C2203 C 0.36782 0.43803 1.07271
 H2204 H 0.38506 0.44341 1.06624
 C2205 C 0.32352 0.42360 1.09037
 C2206 C 0.63980 0.56319 1.06107
 H2207 H 0.62181 0.55818 1.05624
 C2208 C 0.68621 0.57646 1.07412
 C2209 C 1.10281 1.08651 1.24987
 C2210 C 1.08036 1.09399 1.24114
 N2211 N 1.06581 1.10770 1.25494
 C2212 C 1.07285 1.11455 1.27704
 C2213 C 1.09554 1.10717 1.28592
 N2214 N 1.10975 1.09305 1.27199
 N2215 N 1.11773 1.07354 1.23582
 C2216 C 1.11113 1.06748 1.21339
 C2217 C 1.08830 1.07444 1.20459
 N2218 N 1.07358 1.08771 1.21885
 H2219 H 1.06064 1.12536 1.28747
 H2220 H 1.12396 1.05781 1.20261
 C2221 C 1.10027 0.60183 0.75736
 C2222 C 1.10061 0.57705 0.75431
 N2223 N 1.10648 0.56282 0.77304
 C2224 C 1.11201 0.57224 0.79466
 C2225 C 1.11136 0.59707 0.79784
 N2226 N 1.10548 0.61122 0.77897
 N2227 N 1.09472 0.61613 0.73867
 C2228 C 1.08895 0.60684 0.71716
 C2229 C 1.08828 0.58199 0.71413
 N2230 N 1.09451 0.56766 0.73283
 H2231 H 1.11647 0.56045 0.80929
 H2232 H 1.08469 0.61881 0.70260
 C2233 C 0.59776 1.08557 0.75310
 C2234 C 0.57996 1.09892 0.74125
 N2235 N 0.56954 1.11788 0.75231
 C2236 C 0.57631 1.12427 0.77467
 C2237 C 0.59478 1.11128 0.78650
 N2238 N 0.60485 1.09211 0.77519
 N2239 N 0.60779 1.06629 0.74233
 C2240 C 0.60113 1.05990 0.71999
 C2241 C 0.58380 1.07376 0.70744
 N2242 N 0.57354 1.09284 0.71877
 H2243 H 0.56766 1.13963 0.78263
 H2244 H 0.60932 1.04407 0.71257
 C2245 C 0.59381 0.61448 1.25031
 C2246 C 0.59975 0.59134 1.24289
 N2247 N 0.61230 0.57663 1.25766
 C2248 C 0.61951 0.58406 1.27948
 C2249 C 0.61385 0.60747 1.28713
 N2250 N 0.60082 0.62197 1.27221
 N2251 N 0.58168 0.62930 1.23523
 C2252 C 0.57508 0.62198 1.21311
 C2253 C 0.58072 0.59855 1.20564
 N2254 N 0.59305 0.58394 1.22093
 H2255 H 0.62922 0.57152 1.29063
 H2256 H 0.56602 0.63459 1.20150
 C2257 C 0.90901 0.90564 1.25515
 C2258 C 0.89237 0.91974 1.24240
 N2259 N 0.87029 0.92384 1.25148
 C2260 C 0.86394 0.91427 1.27263
 C2261 C 0.88030 0.89924 1.28518
 N2262 N 0.90255 0.89552 1.27595
 N2263 N 0.93133 0.90211 1.24645
 C2264 C 0.93757 0.91142 1.22518
 C2265 C 0.92046 0.92436 1.21148
 N2266 N 0.89833 0.92855 1.22082
 H2267 H 0.84599 0.91776 1.27885
 H2268 H 0.95570 0.90853 1.21912
 C2269 C 0.89189 0.38184 0.73991
 C2270 C 0.87893 0.39984 0.72796
 N2271 N 0.85702 0.40662 0.73609
 C2272 C 0.84734 0.39601 0.75543
 C2273 C 0.85988 0.37710 0.76696
 N2274 N 0.88203 0.37074 0.75875
 N2275 N 0.91414 0.37561 0.73243
 C2276 C 0.92382 0.38607 0.71312
 C2277 C 0.91037 0.40320 0.69995
 N2278 N 0.88828 0.40991 0.70817
 H2279 H 0.82968 0.40178 0.76094
 H2280 H 0.94189 0.38093 0.70839
 C2281 C 0.41090 0.88746 0.74438
 C2282 C 0.40690 0.91155 0.73889
 N2283 N 0.39631 0.92614 0.75510
 C2284 C 0.38922 0.91763 0.77646
 C2285 C 0.39287 0.89340 0.78190
 N2286 N 0.40385 0.87895 0.76570
 N2287 N 0.42106 0.87278 0.72802
 C2288 C 0.42753 0.88110 0.70640
 C2289 C 0.42374 0.90533 0.70081
 N2290 N 0.41337 0.91991 0.71731
 H2291 H 0.38073 0.92964 0.78902
 H2292 H 0.43506 0.86873 0.69361
 C2293 C 0.40469 0.41442 1.26406
 C2294 C 0.42778 0.40765 1.25682
 N2295 N 0.44226 0.39510 1.27197
 C2296 C 0.43463 0.38893 1.29402
 C2297 C 0.41141 0.39591 1.30144
 N2298 N 0.39721 0.40862 1.28606
 N2299 N 0.38985 0.42624 1.24881
 C2300 C 0.39714 0.43199 1.22666
 C2301 C 0.42065 0.42603 1.21941
 N2302 N 0.43530 0.41369 1.23476
 H2303 H 0.44678 0.37906 1.30554
 H2304 H 0.38440 0.44075 1.21487
 C2305 C 0.88777 1.10204 0.74680
 C2306 C 0.91211 1.10466 0.75227
 N2307 N 0.92690 1.11319 0.73550
 C2308 C 0.91847 1.11948 0.71360
 C2309 C 0.89395 1.11687 0.70789
 N2310 N 0.87934 1.10791 0.72480
 N2311 N 0.87282 1.09423 0.76378
 C2312 C 0.88115 1.08842 0.78581
 C2313 C 0.90580 1.08999 0.79118
 N2314 N 0.92061 1.09844 0.77418
 H2315 H 0.93102 1.12593 0.70076
 H2316 H 0.86851 1.08271 0.79897
 C2317 C 0.90500 0.61955 0.24914
 C2318 C 0.90003 0.59605 0.25515
 N2319 N 0.88631 0.58295 0.24030
 C2320 C 0.87732 0.59233 0.21968
 C2321 C 0.88238 0.61593 0.21354
 N2322 N 0.89619 0.62886 0.22857
 N2323 N 0.91838 0.63281 0.26407
 C2324 C 0.92723 0.62360 0.28474
 C2325 C 0.92266 0.59983 0.29082
 N2326 N 0.90895 0.58675 0.27575
 H2327 H 0.86667 0.58136 0.20814
 H2328 H 0.93722 0.63503 0.29640
 C2329 C 0.38748 1.09969 0.25292
 C2330 C 0.41106 1.10410 0.26003
 N2331 N 0.42638 1.11374 0.24428
 C2332 C 0.41909 1.11923 0.22174
 C2333 C 0.39550 1.11460 0.21457
 N2334 N 0.38033 1.10489 0.23044
 N2335 N 0.37193 1.09069 0.26869
 C2336 C 0.37895 1.08547 0.29126
 C2337 C 0.40282 1.08909 0.29841
 N2338 N 0.41823 1.09862 0.28254
 H2339 H 0.43158 1.12695 0.20953
 H2340 H 0.36585 1.07879 0.30345
 C2341 C 0.38542 0.59425 0.75348
 C2342 C 0.39950 0.60834 0.76828
 N2343 N 0.40400 0.63101 0.76188
 C2344 C 0.39501 0.64030 0.74128
 C2345 C 0.38064 0.62634 0.72635
 N2346 N 0.37620 0.60355 0.73297
 N2347 N 0.38122 0.57148 0.75985
 C2348 C 0.39025 0.56221 0.78050
 C2349 C 0.40406 0.57646 0.79578
 N2350 N 0.40834 0.59921 0.78895
 H2351 H 0.39865 0.65856 0.73697
 H2352 H 0.38687 0.54386 0.78455
 C2353 C 1.09509 0.90709 0.74728
 C2354 C 1.08500 0.88973 0.76184
 N2355 N 1.08566 0.86668 0.75484
 C2356 C 1.09602 0.86018 0.73398
 C2357 C 1.10657 0.87744 0.71960
 N2358 N 1.10581 0.90056 0.72664
 N2359 N 1.09415 0.93017 0.75411
 C2360 C 1.08417 0.93664 0.77514
 C2361 C 1.07510 0.91918 0.79038
 N2362 N 1.07541 0.89612 0.78309
 H2363 H 1.09644 0.84164 0.72887
 H2364 H 1.08377 0.95522 0.78011
 C2365 C 1.11777 0.40229 0.24600
 C2366 C 1.10422 0.38722 0.26014
 N2367 N 1.09968 0.36494 0.25233
 C2368 C 1.10801 0.35705 0.23099
 C2369 C 1.12166 0.37209 0.21669
 N2370 N 1.12622 0.39441 0.22474
 N2371 N 1.12207 0.42465 0.25366
 C2372 C 1.11366 0.43260 0.27494
 C2373 C 1.10037 0.41744 0.28952
 N2374 N 1.09589 0.39508 0.28147
 H2375 H 1.10424 0.33912 0.22548
 H2376 H 1.11706 0.45071 0.28009
 C2377 C 0.60208 0.90912 0.24171
 C2378 C 0.58764 0.89432 0.25518
 N2379 N 0.58297 0.87221 0.24703
 C2380 C 0.59213 0.86415 0.22607
 C2381 C 0.60717 0.87878 0.21258
 N2382 N 0.61163 0.90101 0.22101
 N2383 N 0.60619 0.93147 0.24945
 C2384 C 0.59693 0.93960 0.27030
 C2385 C 0.58317 0.92451 0.28458
 N2386 N 0.57870 0.90222 0.27627
 H2387 H 0.58807 0.84633 0.22054
 H2388 H 0.60022 0.95775 0.27530
 C2389 C 0.60341 0.38000 0.75583
 C2390 C 0.61585 0.39784 0.76764
 N2391 N 0.63611 0.40621 0.75787
 C2392 C 0.64452 0.39760 0.73680
 C2393 C 0.63224 0.37937 0.72480
 N2394 N 0.61190 0.37111 0.73493
 N2395 N 0.58285 0.37203 0.76527
 C2396 C 0.57426 0.38086 0.78615
 C2397 C 0.58698 0.39843 0.79864
 N2398 N 0.60748 0.40652 0.78869
 H2399 H 0.66080 0.40478 0.72993
 H2400 H 0.55748 0.37432 0.79247
 C2401 C 1.24771 1.10857 1.10242
 C2402 C 1.24375 1.08456 1.10741
 N2403 N 1.26073 1.07176 1.11947
 C2404 C 1.28146 1.08180 1.12673
 C2405 C 1.28586 1.10585 1.12125
 N2406 N 1.26864 1.11850 1.10910
 N2407 N 1.23046 1.12168 1.09119
 C2408 C 1.20966 1.11178 1.08413
 C2409 C 1.20601 1.08728 1.08779
 N2410 N 1.22317 1.07439 1.09982
 H2411 H 1.29453 1.07073 1.13597
 H2412 H 1.19619 1.12312 1.07579
 C2413 C 1.24579 0.59664 0.62312
 C2414 C 1.23160 0.60981 0.60702
 N2415 N 1.23767 0.63218 0.60126
 C2416 C 1.25748 0.64205 0.61069
 C2417 C 1.27206 0.62897 0.62694
 N2418 N 1.26555 0.60652 0.63283
 N2419 N 1.23982 0.57403 0.62840
 C2420 C 1.22016 0.56408 0.61846
 C2421 C 1.20554 0.57747 0.60256
 N2422 N 1.21193 0.60003 0.59730
 H2423 H 1.26128 0.66007 0.60572
 H2424 H 1.21639 0.54586 0.62276
 C2425 C 0.75388 1.09862 0.60219
 C2426 C 0.73803 1.11587 0.59260
 N2427 N 0.74436 1.13901 0.59263
 C2428 C 0.76584 1.14564 0.60173
 C2429 C 0.78170 1.12841 0.61153
 N2430 N 0.77520 1.10525 0.61154
 N2431 N 0.74790 1.07544 0.60161
 C2432 C 0.72662 1.06870 0.59229
 C2433 C 0.71015 1.08595 0.58335
 N2434 N 0.71654 1.10921 0.58352
 H2435 H 0.77044 1.16420 0.60147
 H2436 H 0.72277 1.04997 0.59178
 C2437 C 0.75454 0.59749 1.09836
 C2438 C 0.73919 0.61360 1.08638
 N2439 N 0.74583 0.63646 1.08366
 C2440 C 0.76704 0.64400 1.09255
 C2441 C 0.78231 0.62800 1.10502
 N2442 N 0.77556 0.60504 1.10750
 N2443 N 0.74801 0.57461 1.10103
 C2444 C 0.72658 0.56719 1.09269
 C2445 C 0.71063 0.58347 1.08144
 N2446 N 0.71761 0.60629 1.07828
 H2447 H 0.77153 0.66244 1.09044
 H2448 H 0.72208 0.54875 1.09494
 C2449 C 1.25023 0.88544 0.90015
 C2450 C 1.23810 0.90329 0.88720
 N2451 N 1.24835 0.91242 0.86759
 C2452 C 1.27027 0.90458 0.86033
 C2453 C 1.28260 0.88636 0.87313
 N2454 N 1.27197 0.87725 0.89276
 N2455 N 1.24026 0.87687 0.92017
 C2456 C 1.21856 0.88509 0.92770
 C2457 C 1.20578 0.90259 0.91433
 N2458 N 1.21625 0.91127 0.89444
 H2459 H 1.27745 0.91226 0.84441
 H2460 H 1.21189 0.87808 0.94414
 C2461 C 1.26526 0.39840 0.41583
 C2462 C 1.25208 0.41313 0.40025
 N2463 N 1.26223 0.42044 0.37979
 C2464 C 1.28501 0.41368 0.37413
 C2465 C 1.29835 0.39850 0.38958
 N2466 N 1.28786 0.39131 0.41010
 N2467 N 1.25538 0.39165 0.43661
 C2468 C 1.23274 0.39866 0.44242
 C2469 C 1.21896 0.41287 0.42647
 N2470 N 1.22932 0.41988 0.40582
 H2471 H 1.29217 0.41982 0.35753
 H2472 H 1.22598 0.39336 0.45949
 C2473 C 0.74619 0.90249 0.38253
 C2474 C 0.73900 0.89601 0.40536
 N2475 N 0.75344 0.88146 0.41873
 C2476 C 0.77486 0.87320 0.41028
 C2477 C 0.78226 0.88000 0.38747
 N2478 N 0.76756 0.89449 0.37423
 N2479 N 0.73173 0.91672 0.36899
 C2480 C 0.71038 0.92504 0.37730
 C2481 C 0.70314 0.91906 0.40048
 N2482 N 0.71776 0.90445 0.41380
 H2483 H 0.78610 0.86194 0.42146
 H2484 H 0.69917 0.93577 0.36562
 C2485 C 0.73880 0.39278 0.88610
 C2486 C 0.72461 0.37776 0.89970
 N2487 N 0.72787 0.35391 0.89801
 C2488 C 0.74473 0.34432 0.88339
 C2489 C 0.75884 0.35929 0.86931
 N2490 N 0.75529 0.38325 0.87108
 N2491 N 0.73579 0.41665 0.88805
 C2492 C 0.71869 0.42619 0.90243
 C2493 C 0.70345 0.41118 0.91505
 N2494 N 0.70713 0.38724 0.91364
 H2495 H 0.74644 0.32520 0.88238
 H2496 H 0.71655 0.44532 0.90342
 C2497 C 0.74434 0.91335 1.11249
 C2498 C 0.74823 0.91250 1.08786
 N2499 N 0.73122 0.90354 1.07331
 C2500 C 0.71065 0.89501 1.08231
 C2501 C 0.70685 0.89537 1.10703
 N2502 N 0.72378 0.90479 1.12154
 N2503 N 0.76160 0.92180 1.12705
 C2504 C 0.78258 0.92951 1.11814
 C2505 C 0.78660 0.92878 1.09339
 N2506 N 0.76917 0.92017 1.07892
 H2507 H 0.69749 0.88773 1.07032
 H2508 H 0.79612 0.93554 1.13040
 C2509 C 0.76249 0.39480 0.61103
 C2510 C 0.76322 0.39449 0.58605
 N2511 N 0.74413 0.38648 0.57363
 C2512 C 0.72441 0.37872 0.58504
 C2513 C 0.72354 0.37922 0.61007
 N2514 N 0.74271 0.38733 0.62243
 N2515 N 0.78167 0.40235 0.62352
 C2516 C 0.80138 0.41008 0.61223
 C2517 C 0.80196 0.41071 0.58715
 N2518 N 0.78285 0.40253 0.57465
 H2519 H 0.70944 0.37244 0.57469
 H2520 H 0.81644 0.41581 0.62280
 C2521 C 0.24953 0.88681 0.59694
 C2522 C 0.26413 0.89857 0.61334
 N2523 N 0.25677 0.90103 0.63618
 C2524 C 0.23547 0.89235 0.64335
 C2525 C 0.22074 0.88044 0.62698
 N2526 N 0.22832 0.87796 0.60410
 N2527 N 0.25668 0.88462 0.57404
 C2528 C 0.27790 0.89335 0.56680
 C2529 C 0.29305 0.90471 0.58326
 N2530 N 0.28549 0.90718 0.60620
 H2531 H 0.23029 0.89446 0.66173
 H2532 H 0.28263 0.89165 0.54827
 C2533 C 0.25616 0.40177 1.11591
 C2534 C 0.26366 0.39625 1.09278
 N2535 N 0.24933 0.38356 1.07830
 C2536 C 0.22792 0.37579 1.08596
 C2537 C 0.22026 0.38099 1.10936
 N2538 N 0.23467 0.39421 1.12361
 N2539 N 0.27082 0.41400 1.13054
 C2540 C 0.29257 0.42112 1.12304
 C2541 C 0.30006 0.41598 1.09962
 N2542 N 0.28525 0.40349 1.08519
 H2543 H 0.21706 0.36598 1.07361
 H2544 H 0.30393 0.43026 1.13550
 C2545 C 0.73680 1.10621 0.90784
 C2546 C 0.74978 1.09039 0.89339
 N2547 N 0.73942 1.08158 0.87349
 C2548 C 0.71663 1.08799 0.86723
 C2549 C 0.70352 1.10435 0.88145
 N2550 N 0.71418 1.11290 0.90152
 N2551 N 0.74699 1.11461 0.92801
 C2552 C 0.76975 1.10812 0.93430
 C2553 C 0.78327 1.09265 0.91951
 N2554 N 0.77258 1.08412 0.89946
 H2555 H 0.70929 1.08060 0.85113
 H2556 H 0.77674 1.11488 0.95084
 C2557 C 0.75326 0.60978 0.40545
 C2558 C 0.76036 0.58604 0.40147
 N2559 N 0.74444 0.57069 0.39214
 C2560 C 0.72179 0.57808 0.38638
 C2561 C 0.71468 0.60194 0.39017
 N2562 N 0.73069 0.61713 0.39977
 N2563 N 0.76918 0.62524 0.41445
 C2564 C 0.79190 0.61803 0.41989
 C2565 C 0.79910 0.59414 0.41630
 N2566 N 0.78306 0.57876 0.40697
 H2567 H 0.70950 0.56546 0.37896
 H2568 H 0.80424 0.63097 0.42664
 C2569 C 0.23638 1.10733 0.40898
 C2570 C 0.24938 1.09073 0.39539
 N2571 N 0.23990 1.08267 0.37474
 C2572 C 0.21796 1.09042 0.36703
 C2573 C 0.20481 1.10747 0.38044
 N2574 N 0.21465 1.11546 0.40115
 N2575 N 0.24550 1.11480 0.43000
 C2576 C 0.26723 1.10672 0.43794
 C2577 C 0.28096 1.09060 0.42398
 N2578 N 0.27130 1.08293 0.40306
 H2579 H 0.21136 1.08363 0.35034
 H2580 H 0.27322 1.11278 0.45513
 C2581 C 0.23592 0.57586 0.90802
 C2582 C 0.24861 0.58986 0.92408
 N2583 N 0.23825 0.60991 0.93298
 C2584 C 0.21587 0.61699 0.92610
 C2585 C 0.20330 0.60359 0.90900
 N2586 N 0.21374 0.58306 0.90075
 N2587 N 0.24622 0.55561 0.89944
 C2588 C 0.26892 0.54897 0.90578
 C2589 C 0.28230 0.56358 0.92114
 N2590 N 0.27137 0.58352 0.93008
 H2591 H 0.20854 0.63318 0.93363
 H2592 H 0.27607 0.53249 0.89870
 C2593 C 1.09374 1.24979 1.09580
 C2594 C 1.11083 1.23465 1.08504
 N2595 N 1.13391 1.24136 1.08386
 C2596 C 1.14072 1.26251 1.09304
 C2597 C 1.12375 1.27752 1.10425
 N2598 N 1.10059 1.27073 1.10534
 N2599 N 1.07060 1.24323 1.09665
 C2600 C 1.06383 1.22196 1.08778
 C2601 C 1.08109 1.20617 1.07796
 N2602 N 1.10418 1.21320 1.07654
 H2603 H 1.15932 1.26728 1.09209
 H2604 H 1.04517 1.21743 1.08857
 C2605 C 1.11555 0.74239 0.60425
 C2606 C 1.09058 0.74055 0.60207
 N2607 N 1.07642 0.76025 0.60470
 C2608 C 1.08605 0.78161 0.60979
 C2609 C 1.11100 0.78347 0.61241
 N2610 N 1.12520 0.76374 0.60941
 N2611 N 1.12969 0.72266 0.60174
 C2612 C 1.12005 0.70125 0.59689
 C2613 C 1.09507 0.69936 0.59443
 N2614 N 1.08091 0.71915 0.59721
 H2615 H 1.07433 0.79698 0.61225
 H2616 H 1.13178 0.68583 0.59475
 C2617 C 0.59517 1.24846 0.61467
 C2618 C 0.61105 1.23322 0.60240
 N2619 N 0.63428 1.23912 0.60025
 C2620 C 0.64236 1.25970 0.60959
 C2621 C 0.62652 1.27523 0.62172
 N2622 N 0.60322 1.26908 0.62412
 N2623 N 0.57185 1.24258 0.61649
 C2624 C 0.56374 1.22211 0.60678
 C2625 C 0.57968 1.20657 0.59469
 N2626 N 0.60299 1.21276 0.59277
 H2627 H 0.66103 1.26384 0.60765
 H2628 H 0.54495 1.21827 0.60824
 C2629 C 0.59172 0.75422 1.09275
 C2630 C 0.60937 0.73832 1.08413
 N2631 N 0.63277 0.74405 1.08592
 C2632 C 0.63928 0.76488 1.09607
 C2633 C 0.62165 0.78048 1.10531
 N2634 N 0.59824 0.77475 1.10334
 N2635 N 0.56834 0.74883 1.09050
 C2636 C 0.56175 0.72794 1.08066
 C2637 C 0.57938 0.71127 1.07320
 N2638 N 0.60285 0.71715 1.07476
 H2639 H 0.65804 0.76904 1.09739
 H2640 H 0.54290 0.72429 1.07905
 C2641 C 0.89239 1.24092 0.87372
 C2642 C 0.87790 1.22235 0.88132
 N2643 N 0.85465 1.22198 0.87442
 C2644 C 0.84504 1.23960 0.86065
 C2645 C 0.85924 1.25861 0.85354
 N2646 N 0.88274 1.25869 0.86010
 N2647 N 0.91571 1.24112 0.88057
 C2648 C 0.92523 1.22352 0.89452
 C2649 C 0.91073 1.20494 0.90216
 N2650 N 0.88735 1.20488 0.89533
 H2651 H 0.82631 1.23910 0.85574
 H2652 H 0.94396 1.22391 0.89948
 C2653 C 0.89633 0.74991 0.39570
 C2654 C 0.92093 0.74565 0.39252
 N2655 N 0.93419 0.76261 0.38205
 C2656 C 0.92397 0.78362 0.37473
 C2657 C 0.89936 0.78807 0.37833
 N2658 N 0.88623 0.77093 0.38874
 N2659 N 0.88287 0.73301 0.40575
 C2660 C 0.89291 0.71213 0.41327
 C2661 C 0.91778 0.70794 0.41105
 N2662 N 0.93115 0.72483 0.40032
 H2663 H 0.93503 0.79687 0.36668
 H2664 H 0.88145 0.69893 0.42079
 C2665 C 0.39532 1.26252 0.42144
 C2666 C 0.41902 1.25426 0.41881
 N2667 N 0.43590 1.26934 0.41120
 C2668 C 0.43007 1.29227 0.40569
 C2669 C 0.40619 1.30052 0.40771
 N2670 N 0.38944 1.28538 0.41582
 N2671 N 0.37840 1.24736 0.42882
 C2672 C 0.38410 1.22426 0.43372
 C2673 C 0.40786 1.21580 0.43101
 N2674 N 0.42471 1.23118 0.42357
 H2675 H 0.44392 1.30384 0.39960
 H2676 H 0.37006 1.21255 0.43910
 C2677 C 0.38186 0.74474 0.89408
 C2678 C 0.40618 0.73855 0.89182
 N2679 N 0.42127 0.75430 0.88209
 C2680 C 0.41312 0.77596 0.87442
 C2681 C 0.38870 0.78231 0.87662
 N2682 N 0.37369 0.76642 0.88656
 N2683 N 0.36674 0.72888 0.90356
 C2684 C 0.37484 0.70718 0.91113
 C2685 C 0.39937 0.70095 0.90936
 N2686 N 0.41436 0.71692 0.89949
 H2687 H 0.42570 0.78815 0.86697
 H2688 H 0.36210 0.69490 0.91811
 C2689 C 1.08178 0.74377 0.89383
 C2690 C 1.09909 0.75871 0.90358
 N2691 N 1.12219 0.75100 0.90507
 C2692 C 1.12877 0.72888 0.89760
 C2693 C 1.11147 0.71363 0.88819
 N2694 N 1.08832 0.72159 0.88633
 N2695 N 1.05862 0.75146 0.89273
 C2696 C 1.05197 0.77341 0.90082
 C2697 C 1.06931 0.78853 0.91051
 N2698 N 1.09248 0.78059 0.91165
 H2699 H 1.14732 0.72317 0.89913
 H2700 H 1.03327 0.77873 0.90005
 C2701 C 1.09584 0.24390 0.40854
 C2702 C 1.08727 0.25903 0.39036
 N2703 N 1.08582 0.25074 0.36777
 C2704 C 1.09254 0.22800 0.36253
 C2705 C 1.10140 0.21285 0.38064
 N2706 N 1.10289 0.22126 0.40328
 N2707 N 1.09680 0.25204 0.43119
 C2708 C 1.09003 0.27475 0.43648
 C2709 C 1.08228 0.29035 0.41818
 N2710 N 1.08082 0.28185 0.39554
 H2711 H 1.09136 0.22191 0.34431
 H2712 H 1.09065 0.28043 0.45484
 C2713 C 0.60098 0.75202 0.38098
 C2714 C 0.60486 0.75802 0.40489
 N2715 N 0.61567 0.74200 0.41967
 C2716 C 0.62289 0.72023 0.41162
 C2717 C 0.61910 0.71405 0.38761
 N2718 N 0.60807 0.73021 0.37289
 N2719 N 0.59036 0.76817 0.36618
 C2720 C 0.58319 0.78997 0.37424
 C2721 C 0.58661 0.79600 0.39838
 N2722 N 0.59760 0.77973 0.41301
 H2723 H 0.63118 0.70781 0.42399
 H2724 H 0.57523 0.80248 0.36176
 C2725 C 0.60705 0.23986 0.91828
 C2726 C 0.58340 0.24811 0.91519
 N2727 N 0.56737 0.23434 0.90379
 C2728 C 0.57401 0.21272 0.89498
 C2729 C 0.59786 0.20448 0.89759
 N2730 N 0.61375 0.21826 0.90946
 N2731 N 0.62312 0.25392 0.92931
 C2732 C 0.61665 0.27599 0.93726
 C2733 C 0.59293 0.28450 0.93395
 N2734 N 0.57697 0.27008 0.92302
 H2735 H 0.56081 0.20214 0.88602
 H2736 H 0.63014 0.28690 0.94531
 C2737 C 0.88997 0.75761 1.09139
 C2738 C 0.90219 0.77190 1.10765
 N2739 N 0.90607 0.76401 1.13018
 C2740 C 0.89817 0.74247 1.13722
 C2741 C 0.88557 0.72823 1.12103
 N2742 N 0.88185 0.73627 1.09845
 N2743 N 0.88629 0.76533 1.06881
 C2744 C 0.89393 0.78693 1.06180
 C2745 C 0.90556 0.80177 1.07823
 N2746 N 0.90961 0.79361 1.10077
 H2747 H 0.90123 0.73686 1.15539
 H2748 H 0.89105 0.79226 1.04351
 C2749 C 0.90002 0.24523 0.57653
 C2750 C 0.91409 0.25845 0.59221
 N2751 N 0.91969 0.24964 0.61401
 C2752 C 0.91174 0.22816 0.62095
 C2753 C 0.89726 0.21494 0.60547
 N2754 N 0.89174 0.22389 0.58355
 N2755 N 0.89475 0.25404 0.55463
 C2756 C 0.90259 0.27568 0.54780
 C2757 C 0.91609 0.28941 0.56382
 N2758 N 0.92161 0.28010 0.58556
 H2759 H 0.91611 0.22190 0.63865
 H2760 H 0.89838 0.28178 0.53002
 C2761 C 0.40509 0.75186 0.60863
 C2762 C 0.38935 0.76837 0.59766
 N2763 N 0.36542 0.76549 0.59919
 C2764 C 0.35645 0.74673 0.61107
 C2765 C 0.37213 0.73008 0.62206
 N2766 N 0.39616 0.73316 0.62063
 N2767 N 0.42903 0.75469 0.60693
 C2768 C 0.43798 0.77350 0.59506
 C2769 C 0.42225 0.79044 0.58450
 N2770 N 0.39825 0.78722 0.58595
 H2771 H 0.33727 0.74494 0.61206
 H2772 H 0.45717 0.77518 0.59392
 C2773 C 0.40840 0.24828 1.11589
 C2774 C 0.39357 0.26296 1.10182
 N2775 N 0.37168 0.25528 1.09503
 C2776 C 0.36393 0.23352 1.10174
 C2777 C 0.37874 0.21871 1.11601
 N2778 N 0.40067 0.22667 1.12266
 N2779 N 0.43037 0.25578 1.12247
 C2780 C 0.43823 0.27743 1.11571
 C2781 C 0.42336 0.29252 1.10170
 N2782 N 0.40134 0.28462 1.09510
 H2783 H 0.34635 0.22808 1.09617
 H2784 H 0.45608 0.28238 1.12087
 C2785 C 1.09399 1.09984 0.74710
 C2786 C 1.09857 1.07589 0.75278
 N2787 N 1.10793 1.06110 0.73603
 C2788 C 1.11299 1.06918 0.71387
 C2789 C 1.10808 1.09323 0.70796
 N2790 N 1.09857 1.10780 0.72493
 N2791 N 1.08528 1.11487 0.76388
 C2792 C 1.08034 1.10695 0.78602
 C2793 C 1.08374 1.08267 0.79160
 N2794 N 1.09319 1.06776 0.77482
 H2795 H 1.12022 1.05672 0.70104
 H2796 H 1.07372 1.11957 0.79906
 C2797 C 1.12556 0.60969 0.25876
 C2798 C 1.10703 0.62169 0.27071
 N2799 N 1.09962 0.64351 0.26312
 C2800 C 1.11009 0.65403 0.24424
 C2801 C 1.12940 0.64241 0.23254
 N2802 N 1.13645 0.62034 0.24025
 N2803 N 1.13249 0.58759 0.26593
 C2804 C 1.12211 0.57711 0.28488
 C2805 C 1.10419 0.58955 0.29785
 N2806 N 1.09698 0.61151 0.28998
 H2807 H 1.10375 0.67157 0.23916
 H2808 H 1.12796 0.55929 0.28938
 C2809 C 0.58511 1.11206 0.24663
 C2810 C 0.59057 1.08886 0.25425
 N2811 N 0.60278 1.07382 0.23970
 C2812 C 0.61012 1.08094 0.21792
 C2813 C 0.60503 1.10443 0.21008
 N2814 N 0.59232 1.11928 0.22479
 N2815 N 0.57323 1.12719 0.26145
 C2816 C 0.56647 1.12013 0.28351
 C2817 C 0.57173 1.09669 0.29124
 N2818 N 0.58378 1.08175 0.27619
 H2819 H 0.61955 1.06812 0.20698
 H2820 H 0.55761 1.13296 0.29493
 C2821 C 0.59783 0.60613 0.75403
 C2822 C 0.60003 0.58146 0.75745
 N2823 N 0.60997 0.56772 0.74014
 C2824 C 0.61791 0.57752 0.71963
 C2825 C 0.61571 0.60227 0.71612
 N2826 N 0.60558 0.61593 0.73351
 N2827 N 0.58825 0.61996 0.77141
 C2828 C 0.58043 0.61027 0.79195
 C2829 C 0.58197 0.58543 0.79533
 N2830 N 0.59205 0.57167 0.77794
 H2831 H 0.62565 0.56608 0.70613
 H2832 H 0.57327 0.62195 0.80556
 C2833 C 0.89216 0.89772 0.74718
 C2834 C 0.88914 0.92219 0.75136
 N2835 N 0.88107 0.93652 0.73342
 C2836 C 0.87612 0.92747 0.71147
 C2837 C 0.87984 0.90304 0.70715
 N2838 N 0.88768 0.88883 0.72527
 N2839 N 0.89980 0.88321 0.76498
 C2840 C 0.90521 0.89207 0.78673
 C2841 C 0.90343 0.91676 0.79085
 N2842 N 0.89497 0.93123 0.77306
 H2843 H 0.86994 0.93927 0.69742
 H2844 H 0.91107 0.87991 0.80059
 C2845 C 0.90262 0.41528 0.23940
 C2846 C 0.92669 0.41082 0.24547
 N2847 N 0.94150 0.40045 0.22935
 C2848 C 0.93327 0.39395 0.20754
 C2849 C 0.90895 0.39811 0.20136
 N2850 N 0.89440 0.40903 0.21758
 N2851 N 0.88762 0.42505 0.25569
 C2852 C 0.89564 0.43086 0.27774
 C2853 C 0.91998 0.42702 0.28383
 N2854 N 0.93484 0.41685 0.26743
 H2855 H 0.94579 0.38590 0.19524
 H2856 H 0.88295 0.43807 0.29039
 C2857 C 0.39406 0.91667 0.24511
 C2858 C 0.41178 0.90351 0.25734
 N2859 N 0.42162 0.88384 0.24719
 C2860 C 0.41440 0.87648 0.22538
 C2861 C 0.39602 0.88922 0.21306
 N2862 N 0.38648 0.90920 0.22342
 N2863 N 0.38462 0.93663 0.25521
 C2864 C 0.39184 0.94383 0.27718
 C2865 C 0.40914 0.93016 0.28999
 N2866 N 0.41872 0.91043 0.27933
 H2867 H 0.42278 0.86058 0.21829
 H2868 H 0.38410 0.96009 0.28416
 C2869 C 0.41673 0.39118 0.75215
 C2870 C 0.41166 0.41440 0.75996
 N2871 N 0.40133 0.43038 0.74476
 C2872 C 0.39554 0.42404 0.72213
 C2873 C 0.40035 0.40066 0.71435
 N2874 N 0.41103 0.38488 0.72961
 N2875 N 0.42640 0.37500 0.76748
 C2876 C 0.43140 0.38100 0.79033
 C2877 C 0.42662 0.40439 0.79830
 N2878 N 0.41673 0.42047 0.78276
 H2879 H 0.38711 0.43701 0.71040
 H2880 H 0.43849 0.36739 0.80215
 C2881 C 1.10514 0.88023 1.23918
 C2882 C 1.11226 0.90312 1.23309
 N2883 N 1.12730 0.91482 1.24780
 C2884 C 1.13555 0.90469 1.26836
 C2885 C 1.12817 0.88172 1.27482
 N2886 N 1.11303 0.87022 1.25982
 N2887 N 1.09065 0.86822 1.22424
 C2888 C 1.08256 0.87819 1.20362
 C2889 C 1.08887 0.90160 1.19768
 N2890 N 1.10392 0.91332 1.21263
 H2891 H 1.14730 0.91484 1.27955
 H2892 H 1.07158 0.86766 1.19199
 C2893 C 1.09622 0.38113 0.74935
 C2894 C 1.10168 0.40427 0.74257
 N2895 N 1.11540 0.41769 0.75705
 C2896 C 1.12411 0.40893 0.77800
 C2897 C 1.11874 0.38555 0.78493
 N2898 N 1.10469 0.37242 0.77028
 N2899 N 1.08309 0.36744 0.73461
 C2900 C 1.07504 0.37589 0.71332
 C2901 C 1.08019 0.39932 0.70643
 N2902 N 1.09352 0.41282 0.72143
 H2903 H 1.13487 0.42030 0.78899
 H2904 H 1.06533 0.36404 0.70188
 C2905 C 0.60514 0.90558 0.74696
 C2906 C 0.59463 0.88888 0.73182
 N2907 N 0.59171 0.86635 0.73954
 C2908 C 0.59869 0.85975 0.76180
 C2909 C 0.60922 0.87642 0.77710
 N2910 N 0.61231 0.89899 0.76918
 N2911 N 0.60765 0.92821 0.73931
 C2912 C 0.60037 0.93488 0.71713
 C2913 C 0.59025 0.91805 0.70163
 N2914 N 0.58752 0.89545 0.70962
 H2915 H 0.59628 0.84159 0.76738
 H2916 H 0.60221 0.95322 0.71192
 C2917 C 0.61110 0.41097 1.26149
 C2918 C 0.58869 0.40369 1.25344
 N2919 N 0.57578 0.38891 1.26710
 C2920 C 0.58435 0.38092 1.28843
 C2921 C 0.60700 0.38815 1.29668
 N2922 N 0.61961 0.40321 1.28281
 N2923 N 0.62431 0.42520 1.24760
 C2924 C 0.61609 0.43265 1.22599
 C2925 C 0.59333 0.42574 1.21781
 N2926 N 0.58032 0.41125 1.23195
 H2927 H 0.57337 0.36929 1.29871
 H2928 H 0.62766 0.44333 1.21532
 C2929 C 0.89739 1.12040 1.24891
 C2930 C 0.89204 1.09682 1.24336
 N2931 N 0.87857 1.08416 1.25856
 C2932 C 0.87011 1.09404 1.27903
 C2933 C 0.87543 1.11774 1.28472
 N2934 N 0.88909 1.13027 1.26940
 N2935 N 0.91055 1.13317 1.23357
 C2936 C 0.91884 1.12341 1.21301
 C2937 C 0.91394 1.09954 1.20743
 N2938 N 0.90040 1.08695 1.22287
 H2939 H 0.85964 1.08335 1.29083
 H2940 H 0.92873 1.13445 1.20105
 C2941 C 0.88482 0.59943 0.74690
 C2942 C 0.90972 0.60103 0.74443
 N2943 N 0.92285 0.61025 0.76242
 C2944 C 0.91220 0.61825 0.78264
 C2945 C 0.88719 0.61701 0.78508
 N2946 N 0.87412 0.60741 0.76711
 N2947 N 0.87165 0.59056 0.72877
 C2948 C 0.88223 0.58302 0.70834
 C2949 C 0.90726 0.58429 0.70582
 N2950 N 0.92035 0.59348 0.72402
 H2951 H 0.92311 0.62565 0.79663
 H2952 H 0.87108 0.57642 0.69411
 C2953 C 0.40282 1.09857 0.75168
 C2954 C 0.38536 1.08937 0.73636
 N2955 N 0.36194 1.09133 0.74242
 C2956 C 0.35520 1.10215 0.76305
 C2957 C 0.37263 1.11182 0.77820
 N2958 N 0.39609 1.10972 0.77207
 N2959 N 0.42624 1.09636 0.74585
 C2960 C 0.43300 1.08594 0.72510
 C2961 C 0.41554 1.07768 0.70906
 N2962 N 0.39206 1.07930 0.71536
 H2963 H 0.33640 1.10362 0.76732
 H2964 H 0.45186 1.08447 0.72101
 C2965 C 0.40516 0.61634 1.25143
 C2966 C 0.40163 0.59255 1.24520
 N2967 N 0.39215 0.57761 1.26124
 C2968 C 0.38573 0.58537 1.28319
 C2969 C 0.38898 0.60940 1.28968
 N2970 N 0.39894 0.62419 1.27347
 N2971 N 0.41426 0.63133 1.23512
 C2972 C 0.42021 0.62355 1.21297
 C2973 C 0.41714 0.59948 1.20675
 N2974 N 0.40773 0.58470 1.22320
 H2975 H 0.37858 0.57260 1.29536
 H2976 H 0.42688 0.63623 1.20038
 C2977 C 1.10936 1.24526 0.90228
 C2978 C 1.10105 1.22990 0.88448
 N2979 N 1.10381 1.23580 0.86129
 C2980 C 1.11432 1.25641 0.85509
 C2981 C 1.12267 1.27188 0.87286
 N2982 N 1.12002 1.26581 0.89611
 N2983 N 1.10637 1.23953 0.92545
 C2984 C 1.09584 1.21896 0.93168
 C2985 C 1.08806 1.20312 0.91394
 N2986 N 1.09068 1.20919 0.89067
 H2987 H 1.11621 1.26067 0.83646
 H2988 H 1.09372 1.21495 0.95035
 C2989 C 1.11665 0.74394 0.40250
 C2990 C 1.10266 0.72936 0.38816
 N2991 N 1.09763 0.73591 0.36538
 C2992 C 1.10607 0.75645 0.35624
 C2993 C 1.12036 0.77106 0.37053
 N2994 N 1.12521 0.76428 0.39337
 N2995 N 1.12145 0.73758 0.42533
 C2996 C 1.11302 0.71709 0.43453
 C2997 C 1.09921 0.70206 0.42013
 N2998 N 1.09436 0.70885 0.39725
 H2999 H 1.10200 0.76103 0.33797
 H3000 H 1.11681 0.71300 0.45295
 C3001 C 0.58535 1.25989 0.40613
 C3002 C 0.60175 1.24430 0.41738
 N3003 N 0.62472 1.25087 0.42058
 C3004 C 0.63210 1.27236 0.41297
 C3005 C 0.61580 1.28803 0.40139
 N3006 N 0.59273 1.28129 0.39829
 N3007 N 0.56235 1.25331 0.40308
 C3008 C 0.55507 1.23166 0.41045
 C3009 C 0.57165 1.21563 0.42119
 N3010 N 0.59458 1.22263 0.42454
 H3011 H 0.65065 1.27677 0.41543
 H3012 H 0.53649 1.22724 0.40808
 C3013 C 0.60237 0.74291 0.89625
 C3014 C 0.57750 0.73974 0.89587
 N3015 N 0.56272 0.75830 0.88988
 C3016 C 0.57169 0.77981 0.88419
 C3017 C 0.59657 0.78306 0.88488
 N3018 N 0.61130 0.76443 0.89091
 N3019 N 0.61724 0.72432 0.90160
 C3020 C 0.60842 0.70280 0.90715
 C3021 C 0.58347 0.69969 0.90783
 N3022 N 0.56858 0.71828 0.90181
 H3023 H 0.55959 0.79428 0.87924
 H3024 H 0.62082 0.68831 0.91126
 C3025 C 0.90036 1.25403 1.09325
 C3026 C 0.92434 1.24725 1.09734
 N3027 N 0.93958 1.26325 1.10668
 C3028 C 0.93190 1.28569 1.11222
 C3029 C 0.90778 1.29266 1.10792
 N3030 N 0.89279 1.27644 1.09838
 N3031 N 0.88488 1.23803 1.08453
 C3032 C 0.89237 1.21560 1.07919
 C3033 C 0.91666 1.20887 1.08225
 N3034 N 0.93203 1.22489 1.09163
 H3035 H 0.94468 1.29789 1.11946
 H3036 H 0.87940 1.20320 1.07260
 C3037 C 0.89523 0.74930 0.60411
 C3038 C 0.91939 0.74390 0.60906
 N3039 N 0.93302 0.76041 0.61998
 C3040 C 0.92361 0.78216 0.62591
 C3041 C 0.89956 0.78778 0.62029
 N3042 N 0.88601 0.77104 0.60962
 N3043 N 0.88141 0.73289 0.59351
 C3044 C 0.89075 0.71143 0.58703
 C3045 C 0.91526 0.70618 0.59087
 N3046 N 0.92892 0.72252 0.60224
 H3047 H 0.93496 0.79511 0.63423
 H3048 H 0.87908 0.69866 0.57887
 C3049 C 0.38962 1.25203 0.60705
 C3050 C 0.41331 1.24465 0.61176
 N3051 N 0.42834 1.25983 0.62267
 C3052 C 0.42079 1.28207 0.62910
 C3053 C 0.39704 1.28981 0.62402
 N3054 N 0.38216 1.27434 0.61301
 N3055 N 0.37433 1.23670 0.59681
 C3056 C 0.38177 1.21445 0.59052
 C3057 C 0.40588 1.20718 0.59413
 N3058 N 0.42096 1.22253 0.60507
 H3059 H 0.43352 1.29359 0.63749
 H3060 H 0.36880 1.20265 0.58291
 C3061 C 0.39073 0.75473 1.08672
 C3062 C 0.40854 0.74223 1.09949
 N3063 N 0.41824 0.75203 1.11918
 C3064 C 0.41094 0.77385 1.12683
 C3065 C 0.39271 0.78659 1.11431
 N3066 N 0.38310 0.77647 1.09445
 N3067 N 0.38146 0.74495 1.06672
 C3068 C 0.38901 0.72309 1.05907
 C3069 C 0.40655 0.71012 1.07225
 N3070 N 0.41585 0.72039 1.09208
 H3071 H 0.41916 0.78062 1.14277
 H3072 H 0.38143 0.71635 1.04278
 C3073 C 0.88285 0.75928 0.90423
 C3074 C 0.89528 0.77330 0.88804
 N3075 N 0.89870 0.76540 0.86551
 C3076 C 0.89031 0.74405 0.85843
 C3077 C 0.87771 0.72997 0.87455
 N3078 N 0.87423 0.73806 0.89712
 N3079 N 0.87983 0.76701 0.92686
 C3080 C 0.88836 0.78829 0.93401
 C3081 C 0.90030 0.80280 0.91766
 N3082 N 0.90360 0.79466 0.89507
 H3083 H 0.89313 0.73833 0.84028
 H3084 H 0.88602 0.79356 0.95234
 C3085 C 0.90110 0.26114 0.37971
 C3086 C 0.89845 0.26691 0.40385
 N3087 N 0.88798 0.25137 0.41868
 C3088 C 0.87972 0.23041 0.41041
 C3089 C 0.88194 0.22465 0.38613
 N3090 N 0.89283 0.24018 0.37138
 N3091 N 0.91136 0.27686 0.36489
 C3092 C 0.91920 0.29806 0.37311
 C3093 C 0.91670 0.30390 0.39739
 N3094 N 0.90624 0.28805 0.41208
 H3095 H 0.87151 0.21836 0.42271
 H3096 H 0.92687 0.31033 0.36068
 C3097 C 0.40138 0.75141 0.38446
 C3098 C 0.39479 0.75913 0.40722
 N3099 N 0.38122 0.74505 0.42093
 C3100 C 0.37396 0.72354 0.41300
 C3101 C 0.38082 0.71533 0.39018
 N3102 N 0.39447 0.72976 0.37656
 N3103 N 0.41444 0.76578 0.37055
 C3104 C 0.42153 0.78738 0.37844
 C3105 C 0.41565 0.79507 0.40169
 N3106 N 0.40212 0.78056 0.41531
 H3107 H 0.36342 0.71299 0.42480
 H3108 H 0.43133 0.79832 0.36635
 C3109 C 0.39565 0.24486 0.91013
 C3110 C 0.41195 0.25736 0.89647
 N3111 N 0.41780 0.24916 0.87450
 C3112 C 0.40795 0.22911 0.86549
 C3113 C 0.39094 0.21676 0.87891
 N3114 N 0.38542 0.22518 0.90102
 N3115 N 0.39031 0.25253 0.93234
 C3116 C 0.40012 0.27248 0.94143
 C3117 C 0.41575 0.28595 0.92745
 N3118 N 0.42145 0.27763 0.90530
 H3119 H 0.41298 0.22344 0.84783
 H3120 H 0.39573 0.27740 0.95945
 C3121 C 1.10391 0.76376 1.11884
 C3122 C 1.11699 0.77769 1.10318
 N3123 N 1.14110 0.77496 1.10227
 C3124 C 1.15280 0.75876 1.11625
 C3125 C 1.13979 0.74478 1.13225
 N3126 N 1.11556 0.74789 1.13312
 N3127 N 1.07974 0.76616 1.11937
 C3128 C 1.06806 0.78232 1.10530
 C3129 C 1.08123 0.79714 1.09030
 N3130 N 1.10543 0.79412 1.08949
 H3131 H 1.17206 0.75736 1.11512
 H3132 H 1.04875 0.78363 1.10605
 C3133 C 1.10374 0.23786 0.59045
 C3134 C 1.08939 0.25146 0.60587
 N3135 N 1.08363 0.24241 0.62737
 C3136 C 1.09146 0.22033 0.63415
 C3137 C 1.10614 0.20651 0.61879
 N3138 N 1.11190 0.21595 0.59728
 N3139 N 1.10894 0.24657 0.56869
 C3140 C 1.10078 0.26844 0.56172
 C3141 C 1.08697 0.28270 0.57741
 N3142 N 1.08146 0.27352 0.59911
 H3143 H 1.08651 0.21406 0.65152
 H3144 H 1.10487 0.27427 0.54395
 C3145 C 0.62060 0.74943 0.59736
 C3146 C 0.59720 0.75683 0.60290
 N3147 N 0.58387 0.74315 0.61730
 C3148 C 0.59286 0.72240 0.62647
 C3149 C 0.61638 0.71476 0.62095
 N3150 N 0.62961 0.72862 0.60638
 N3151 N 0.63400 0.76326 0.58317
 C3152 C 0.62504 0.78409 0.57411
 C3153 C 0.60135 0.79156 0.57930
 N3154 N 0.58817 0.77756 0.59379
 H3155 H 0.58155 0.71188 0.63760
 H3156 H 0.63661 0.79476 0.56340
 C3157 C 0.59505 0.24629 1.11215
 C3158 C 0.61205 0.25848 1.09892
 N3159 N 0.63316 0.24749 1.09364
 C3160 C 0.63802 0.22484 1.10087
 C3161 C 0.62114 0.21256 1.11458
 N3162 N 0.60008 0.22390 1.11996
 N3163 N 0.57348 0.25676 1.11641
 C3164 C 0.56830 0.27910 1.10858
 C3165 C 0.58579 0.29212 1.09644
 N3166 N 0.60719 0.28113 1.09161
 H3167 H 0.65523 0.21697 1.09650
 H3168 H 0.55053 0.28631 1.11173
 C3169 C 1.25369 1.09231 0.89518
 C3170 C 1.23907 1.10741 0.90889
 N3171 N 1.24610 1.12991 0.91347
 C3172 C 1.26702 1.13806 0.90471
 C3173 C 1.28144 1.12312 0.89040
 N3174 N 1.27432 1.10052 0.88614
 N3175 N 1.24692 1.06975 0.89083
 C3176 C 1.22589 1.06166 0.89920
 C3177 C 1.21055 1.07697 0.91226
 N3178 N 1.21786 1.09948 0.91699
 H3179 H 1.27191 1.15620 0.90827
 H3180 H 1.22147 1.04339 0.89574
 C3181 C 1.25876 0.60320 0.41420
 C3182 C 1.25482 0.57886 0.41101
 N3183 N 1.27247 0.56474 0.40182
 C3184 C 1.29377 0.57393 0.39541
 C3185 C 1.29766 0.59840 0.39832
 N3186 N 1.27998 0.61236 0.40783
 N3187 N 1.24110 0.61745 0.42301
 C3188 C 1.21966 0.60846 0.42902
 C3189 C 1.21564 0.58398 0.42622
 N3190 N 1.23339 0.56979 0.41706
 H3191 H 1.30748 0.56227 0.38805
 H3192 H 1.20583 0.62045 0.43561
 C3193 C 0.74610 1.09996 0.39746
 C3194 C 0.73099 1.11662 0.40880
 N3195 N 0.73784 1.13948 0.41089
 C3196 C 0.75912 1.14647 0.40208
 C3197 C 0.77420 1.12988 0.39038
 N3198 N 0.76722 1.10696 0.38838
 N3199 N 0.73937 1.07706 0.39559
 C3200 C 0.71798 1.07012 0.40414
 C3201 C 0.70230 1.08695 0.41478
 N3202 N 0.70947 1.10980 0.41708
 H3203 H 0.76390 1.16490 0.40371
 H3204 H 0.71337 1.05163 0.40261
 C3205 C 0.74703 0.59682 0.88636
 C3206 C 0.73148 0.61228 0.89869
 N3207 N 0.73723 0.63541 0.90134
 C3208 C 0.75789 0.64381 0.89233
 C3209 C 0.77373 0.62839 0.88000
 N3210 N 0.76771 0.60518 0.87727
 N3211 N 0.74130 0.57365 0.88388
 C3212 C 0.72065 0.56525 0.89299
 C3213 C 0.70474 0.58074 0.90518
 N3214 N 0.71083 0.60394 0.90777
 H3215 H 0.76167 0.66241 0.89459
 H3216 H 0.71700 0.54658 0.89101
 C3217 C 1.25239 0.88533 1.09294
 C3218 C 1.24514 0.90898 1.09695
 N3219 N 1.26007 0.92381 1.10853
 C3220 C 1.28194 0.91602 1.11642
 C3221 C 1.28933 0.89225 1.11250
 N3222 N 1.27427 0.87754 1.10069
 N3223 N 1.23729 0.87043 1.08171
 C3224 C 1.21527 0.87811 1.07416
 C3225 C 1.20790 0.90198 1.07784
 N3226 N 1.22321 0.91672 1.08932
 H3227 H 1.29347 0.92834 1.12541
 H3228 H 1.20362 0.86544 1.06587
 C3229 C 1.25608 0.39313 0.59699
 C3230 C 1.24105 0.40366 0.61411
 N3231 N 1.24920 0.40634 0.63672
 C3232 C 1.27175 0.39905 0.64295
 C3233 C 1.28680 0.38835 0.62586
 N3234 N 1.27849 0.38558 0.60324
 N3235 N 1.24819 0.39106 0.57426
 C3236 C 1.22582 0.39870 0.56788
 C3237 C 1.21030 0.40865 0.58512
 N3238 N 1.21858 0.41106 0.60784
 H3239 H 1.27779 0.40136 0.66110
 H3240 H 1.22051 0.39725 0.54944
 C3241 C 0.76040 0.91200 0.58349
 C3242 C 0.74581 0.89405 0.57455
 N3243 N 0.75402 0.87116 0.57478
 C3244 C 0.77605 0.86538 0.58381
 C3245 C 0.79041 0.88328 0.59347
 N3246 N 0.78215 0.90621 0.59290
 N3247 N 0.75234 0.93488 0.58319
 C3248 C 0.73007 0.94062 0.57495
 C3249 C 0.71483 0.92258 0.56707
 N3250 N 0.72335 0.89969 0.56668
 H3251 H 0.78186 0.84694 0.58420
 H3252 H 0.72427 0.95909 0.57487
 C3253 C 0.76038 0.41097 1.11060
 C3254 C 0.74560 0.39396 1.10025
 N3255 N 0.75397 0.37130 1.09764
 C3256 C 0.77653 0.36489 1.10473
 C3257 C 0.79155 0.38192 1.11499
 N3258 N 0.78291 0.40460 1.11777
 N3259 N 0.75212 0.43370 1.11290
 C3260 C 0.72969 0.44020 1.10549
 C3261 C 0.71457 0.42315 1.09532
 N3262 N 0.72316 0.40040 1.09288
 H3263 H 0.78256 0.34664 1.10250
 H3264 H 0.72402 0.45862 1.10716
 C3265 C 0.74434 1.10677 1.09163
 C3266 C 0.75282 1.08366 1.09645
 N3267 N 0.73828 1.06806 1.10732
 C3268 C 0.71563 1.07465 1.11372
 C3269 C 0.70716 1.09791 1.10895
 N3270 N 0.72186 1.11326 1.09790
 N3271 N 0.75883 1.12258 1.08120
 C3272 C 0.78155 1.11630 1.07517
 C3273 C 0.79020 1.09301 1.07965
 N3274 N 0.77551 1.07730 1.09036
 H3275 H 0.70444 1.06188 1.12233
 H3276 H 0.79276 1.12958 1.06743
 C3277 C 0.75718 0.61210 0.59774
 C3278 C 0.76225 0.58761 0.59925
 N3279 N 0.74559 0.57300 0.60817
 C3280 C 0.72417 0.58180 0.61590
 C3281 C 0.71908 0.60641 0.61470
 N3282 N 0.73578 0.62094 0.60543
 N3283 N 0.77396 0.62672 0.58908
 C3284 C 0.79554 0.61798 0.58171
 C3285 C 0.80068 0.59334 0.58294
 N3286 N 0.78378 0.57882 0.59187
 H3287 H 0.71125 0.56966 0.62284
 H3288 H 0.80862 0.63027 0.57539
 C3289 C 0.24155 1.10031 0.59675
 C3290 C 0.24584 1.07576 0.59394
 N3291 N 0.22723 1.06076 0.59492
 C3292 C 0.20458 1.06916 0.59880
 C3293 C 0.20024 1.09373 0.60167
 N3294 N 0.21893 1.10871 0.60049
 N3295 N 0.26011 1.11533 0.59608
 C3296 C 0.28275 1.10701 0.59232
 C3297 C 0.28713 1.08251 0.58885
 N3298 N 0.26849 1.06740 0.58996
 H3299 H 0.19009 1.05681 0.59989
 H3300 H 0.29719 1.11947 0.59164
 C3301 C 0.26017 0.60970 1.12304
 C3302 C 0.27747 0.62348 1.11191
 N3303 N 0.27724 0.64733 1.11516
 C3304 C 0.26027 0.65813 1.12879
 C3305 C 0.24260 0.64451 1.13965
 N3306 N 0.24311 0.62050 1.13661
 N3307 N 0.26062 0.58579 1.11991
 C3308 C 0.27777 0.57501 1.10639
 C3309 C 0.29526 0.58877 1.09542
 N3310 N 0.29454 0.61275 1.09841
 H3311 H 0.26050 0.67721 1.13102
 H3312 H 0.27793 0.55588 1.10440
 C3313 C 0.74108 0.90192 0.88500
 C3314 C 0.74621 0.89908 0.90928
 N3315 N 0.73088 0.88695 0.92311
 C3316 C 0.71064 0.87754 0.91376
 C3317 C 0.70530 0.88049 0.88938
 N3318 N 0.72080 0.89273 0.87567
 N3319 N 0.75654 0.91370 0.87108
 C3320 C 0.77681 0.92303 0.88032
 C3321 C 0.78194 0.92077 0.90486
 N3322 N 0.76640 0.90855 0.91863
 H3323 H 0.69871 0.86826 0.92537
 H3324 H 0.78888 0.93167 0.86837
 C3325 C 0.75019 0.41478 0.38944
 C3326 C 0.76601 0.39916 0.40142
 N3327 N 0.75930 0.37671 0.40622
 C3328 C 0.73731 0.36917 0.39980
 C3329 C 0.72115 0.38481 0.38803
 N3330 N 0.72815 0.40728 0.38295
 N3331 N 0.75698 0.43733 0.38493
 C3332 C 0.77889 0.44495 0.39187
 C3333 C 0.79485 0.42928 0.40394
 N3334 N 0.78778 0.40673 0.40832
 H3335 H 0.73264 0.35107 0.40371
 H3336 H 0.78344 0.46319 0.38846
 C3337 C 0.24610 0.90302 0.39906
 C3338 C 0.26258 0.88660 0.40904
 N3339 N 0.25787 0.86309 0.40846
 C3340 C 0.23747 0.85521 0.39816
 C3341 C 0.22119 0.87157 0.38760
 N3342 N 0.22595 0.89515 0.38839
 N3343 N 0.25067 0.92653 0.39991
 C3344 C 0.27128 0.93439 0.40974
 C3345 C 0.28846 0.91792 0.41876
 N3346 N 0.28338 0.89438 0.41848
 H3347 H 0.23438 0.83633 0.39760
 H3348 H 0.27418 0.95331 0.41033
 C3349 C 0.25566 0.37885 0.90883
 C3350 C 0.25912 0.40342 0.90702
 N3351 N 0.24131 0.41765 0.89817
 C3352 C 0.22033 0.40842 0.89063
 C3353 C 0.21694 0.38371 0.89175
 N3354 N 0.23474 0.36953 0.90112
 N3355 N 0.27352 0.36467 0.91775
 C3356 C 0.29462 0.37392 0.92500
 C3357 C 0.29821 0.39856 0.92316
 N3358 N 0.28025 0.41267 0.91410
 H3359 H 0.20650 0.42031 0.88371
 H3360 H 0.30859 0.36207 0.93179
   
