data_POSCAR
  _audit_creation_date              2014-09-24
  _audit_creation_method            'ToBaCCo'
  _symmetry_space_group_name_H-M    'P1'
  _symmetry_Int_Tables_number       1
  _symmetry_cell_setting            triclinic
  loop_
  _symmetry_equiv_pos_as_xyz
 x,y,z
_cell_length_a 70.3462
_cell_length_b 70.1714
_cell_length_c 70.2284
_cell_angle_alpha 89.991900
_cell_angle_beta 89.995600
_cell_angle_gamma 90.003400
loop_
  _atom_site_label
  _atom_site_type_symbol
  _atom_site_fract_x
  _atom_site_fract_y
  _atom_site_fract_z
C1 C 0.35785 1.35889 0.33334
 C2 C 0.36588 1.34251 0.34176
 C3 C 0.35782 1.33413 0.35798
 C4 C 0.34151 1.34222 0.36610
 C5 C 0.33296 1.35860 0.35822
 C6 C 0.34145 1.36677 0.34191
 H7 H 0.37812 1.33568 0.33544
 H8 H 0.33494 1.33486 0.37792
 H9 H 0.33613 1.38023 0.33671
 C10 C 0.35758 0.85828 0.83354
 C11 C 0.36565 0.84202 0.84184
 C12 C 0.35767 0.83383 0.85820
 C13 C 0.34143 0.84216 0.86634
 C14 C 0.33289 0.85855 0.85833
 C15 C 0.34133 0.86644 0.84183
 H16 H 0.37841 0.83591 0.83573
 H17 H 0.33489 0.83498 0.87828
 H18 H 0.33562 0.87923 0.83545
 C19 C 0.85744 1.35824 0.83361
 C20 C 0.86556 1.34194 0.84177
 C21 C 0.85766 1.33363 0.85809
 C22 C 0.84144 1.34186 0.86636
 C23 C 0.83286 1.35831 0.85851
 C24 C 0.84123 1.36634 0.84205
 H25 H 0.87830 1.33587 0.83558
 H26 H 0.83587 1.33548 0.87920
 H27 H 0.83458 1.37825 0.83490
 C28 C 0.85834 0.85881 0.33405
 C29 C 0.86637 0.84247 0.34234
 C30 C 0.85831 0.83418 0.35866
 C31 C 0.84205 0.84252 0.36676
 C32 C 0.83381 0.85887 0.35869
 C33 C 0.84209 0.86694 0.34236
 H34 H 0.87915 0.83637 0.33626
 H35 H 0.83541 0.83588 0.37899
 H36 H 0.83577 0.87949 0.33600
 C37 C 0.64207 0.64169 0.33299
 C38 C 0.63412 0.65807 0.34160
 C39 C 0.64230 0.66632 0.35788
 C40 C 0.65863 0.65807 0.36583
 C41 C 0.66685 0.64181 0.35768
 C42 C 0.65850 0.63372 0.34141
 H43 H 0.62221 0.66530 0.33509
 H44 H 0.66504 0.66441 0.37833
 H45 H 0.66449 0.62061 0.33599
 C46 C 0.64249 0.14175 0.83359
 C47 C 0.65868 0.13348 0.84188
 C48 C 0.66717 0.14129 0.85837
 C49 C 0.65872 0.15770 0.86642
 C50 C 0.64254 0.16615 0.85828
 C51 C 0.63451 0.15805 0.84191
 H52 H 0.66399 0.12036 0.83582
 H53 H 0.66498 0.16451 0.87872
 H54 H 0.62237 0.16482 0.83526
 C55 C 1.14149 0.64118 0.83396
 C56 C 1.13350 0.65746 0.84239
 C57 C 1.14165 0.66563 0.85873
 C58 C 1.15795 0.65723 0.86670
 C59 C 1.16615 0.64094 0.85847
 C60 C 1.15778 0.63299 0.84215
 H61 H 1.12129 0.66420 0.83583
 H62 H 1.16436 0.66349 0.87924
 H63 H 1.16378 0.62018 0.83598
 C64 C 1.14230 0.14170 0.33288
 C65 C 1.15867 0.13357 0.34129
 C66 C 1.16731 0.14153 0.35764
 C67 C 1.15898 0.15796 0.36565
 C68 C 1.14276 0.16633 0.35764
 C69 C 1.13455 0.15815 0.34141
 H70 H 1.16480 0.12099 0.33498
 H71 H 1.16568 0.16514 0.37751
 H72 H 1.12148 0.16427 0.33608
 C73 C 0.64225 1.35860 0.66640
 C74 C 0.63412 1.34236 0.65812
 C75 C 0.64207 1.33414 0.64176
 C76 C 0.65834 1.34241 0.63361
 C77 C 0.66693 1.35877 0.64161
 C78 C 0.65850 1.36671 0.65807
 H79 H 0.62163 1.33601 0.66452
 H80 H 0.66485 1.33520 0.62166
 H81 H 0.66391 1.37980 0.66411
 C82 C 0.64197 0.85868 1.16626
 C83 C 0.65831 0.86659 1.15792
 C84 C 0.66651 0.85837 1.14163
 C85 C 0.65807 0.84210 1.13360
 C86 C 0.64171 0.83398 1.14173
 C87 C 0.63374 0.84241 1.15803
 H88 H 0.66448 0.87938 1.16394
 H89 H 0.66463 0.83535 1.12139
 H90 H 0.62118 0.83618 1.16442
 C91 C 1.14148 1.35908 1.16652
 C92 C 1.13345 1.34271 1.15798
 C93 C 1.14163 1.33430 1.14178
 C94 C 1.15802 1.34241 1.13382
 C95 C 1.16633 1.35866 1.14190
 C96 C 1.15798 1.36689 1.15810
 H97 H 1.12114 1.33590 1.16418
 H98 H 1.16471 1.33566 1.12167
 H99 H 1.16404 1.37999 1.16349
 C100 C 1.14254 0.85824 0.66658
 C101 C 1.13444 0.84198 0.65831
 C102 C 1.14241 0.83377 0.64195
 C103 C 1.15866 0.84207 0.63379
 C104 C 1.16721 0.85846 0.64178
 C105 C 1.15877 0.86638 0.65824
 H106 H 1.12197 0.83559 0.66471
 H107 H 1.16518 0.83487 0.62185
 H108 H 1.16415 0.87949 0.66427
 C109 C 0.35841 0.64134 0.66599
 C110 C 0.36637 0.65766 0.65758
 C111 C 0.35816 0.66588 0.64129
 C112 C 0.34183 0.65751 0.63337
 C113 C 0.33366 0.64119 0.64157
 C114 C 0.34208 0.63318 0.65785
 H115 H 0.37890 0.66409 0.66382
 H116 H 0.33537 0.66382 0.62087
 H117 H 0.33581 0.62065 0.66431
 C118 C 0.35858 0.14104 1.16636
 C119 C 0.34221 0.13300 1.15788
 C120 C 0.33381 0.14118 1.14166
 C121 C 0.34193 0.15756 1.13363
 C122 C 0.35818 0.16586 1.14165
 C123 C 0.36641 0.15753 1.15786
 H124 H 0.33539 0.12071 1.16414
 H125 H 0.33519 0.16423 1.12147
 H126 H 0.37951 0.16358 1.16318
 C127 C 0.85817 0.64105 1.16672
 C128 C 0.86630 0.65742 1.15826
 C129 C 0.85818 0.66596 1.14210
 C130 C 0.84174 0.65801 1.13411
 C131 C 0.83333 0.64176 1.14210
 C132 C 0.84162 0.63338 1.15826
 H133 H 0.87865 0.66412 1.16450
 H134 H 0.83510 0.66487 1.12199
 H135 H 0.83548 0.62029 1.16357
 C136 C 0.85734 0.14146 0.66707
 C137 C 0.84095 0.13359 0.65844
 C138 C 0.83252 0.14183 0.64212
 C139 C 0.84106 0.15829 0.63440
 C140 C 0.85733 0.16638 0.64259
 C141 C 0.86536 0.15791 0.65877
 H142 H 0.83464 0.12101 0.66455
 H143 H 0.83571 0.16449 0.62135
 H144 H 0.87725 0.16502 0.66547
 C145 C 1.35792 0.35831 0.66626
 C146 C 1.34161 0.36635 0.65811
 C147 C 1.33327 0.35829 0.64188
 C148 C 1.34149 0.34198 0.63371
 C149 C 1.35794 0.33347 0.64156
 C150 C 1.36599 0.34201 0.65792
 H151 H 1.33555 0.37916 0.66422
 H152 H 1.33508 0.33629 0.62094
 H153 H 1.37791 0.33542 0.66508
 C154 C 1.35781 0.85807 1.16647
 C155 C 1.34157 0.86614 1.15821
 C156 C 1.33334 0.85810 1.14191
 C157 C 1.34161 0.84180 1.13378
 C158 C 1.35799 0.83326 1.14176
 C159 C 1.36591 0.84176 1.15820
 H160 H 1.33550 0.87895 1.16430
 H161 H 1.33440 0.83521 1.12188
 H162 H 1.37870 0.83605 1.16455
 C163 C 0.85810 0.35830 1.16617
 C164 C 0.84185 0.36641 1.15794
 C165 C 0.83366 0.35845 1.14159
 C166 C 0.84197 0.34221 1.13336
 C167 C 0.85832 0.33363 1.14132
 C168 C 0.86623 0.34207 1.15779
 H169 H 0.83518 0.37859 1.16466
 H170 H 0.83509 0.33600 1.12108
 H171 H 0.87933 0.33667 1.16378
 C172 C 0.85802 0.85849 0.66634
 C173 C 0.84170 0.86658 0.65813
 C174 C 0.83332 0.85850 0.64188
 C175 C 0.84154 0.84217 0.63375
 C176 C 0.85786 0.83386 0.64175
 C177 C 0.86603 0.84216 0.65801
 H178 H 0.83569 0.87942 0.66423
 H179 H 0.83483 0.83551 0.62156
 H180 H 0.87856 0.83579 0.66431
 C181 C 0.64184 0.64158 0.66638
 C182 C 0.63385 0.65793 0.65806
 C183 C 0.64195 0.66619 0.64175
 C184 C 0.65819 0.65781 0.63367
 C185 C 0.66639 0.64144 0.64176
 C186 C 0.65807 0.63341 0.65809
 H187 H 0.62108 0.66406 0.66413
 H188 H 0.66486 0.66443 0.62144
 H189 H 0.66436 0.62084 0.66446
 C190 C 0.64228 1.14216 1.16646
 C191 C 0.65851 1.13406 1.15820
 C192 C 0.66665 1.14200 1.14180
 C193 C 0.65828 1.15821 1.13355
 C194 C 0.64194 1.16678 1.14155
 C195 C 0.63409 1.15837 1.15806
 H196 H 0.66522 1.12190 1.16493
 H197 H 0.66511 1.16440 1.12123
 H198 H 0.62101 1.16376 1.16408
 C199 C 0.14211 0.64164 1.16705
 C200 C 0.13401 0.65803 1.15861
 C201 C 0.14196 0.66666 1.14224
 C202 C 0.15834 0.65828 1.13423
 C203 C 0.16668 0.64202 1.14227
 C204 C 0.15851 0.63383 1.15853
 H205 H 0.12148 0.66421 1.16490
 H206 H 0.16550 0.66496 1.12234
 H207 H 0.16461 0.62074 1.16388
 C208 C 0.14186 1.14147 0.66612
 C209 C 0.13366 1.15776 0.65788
 C210 C 0.14148 1.16629 0.64140
 C211 C 0.15784 1.15780 0.63334
 C212 C 0.16621 1.14153 0.64142
 C213 C 0.15809 1.13346 0.65777
 H214 H 0.12090 1.16343 0.66430
 H215 H 0.16497 1.16442 0.62140
 H216 H 0.16423 1.12067 0.66383
 C217 C 1.35776 0.64205 0.33353
 C218 C 1.34153 0.63400 0.34184
 C219 C 1.33341 0.64202 0.35822
 C220 C 1.34177 0.65828 0.36636
 C221 C 1.35813 0.66679 0.35832
 C222 C 1.36596 0.65829 0.34184
 H223 H 1.33510 0.62152 0.33546
 H224 H 1.33464 0.66484 0.37831
 H225 H 1.37905 0.66364 0.33578
 C226 C 1.35769 1.14164 0.83360
 C227 C 1.34144 1.13373 0.84200
 C228 C 1.33342 1.14184 0.85836
 C229 C 1.34193 1.15805 0.86644
 C230 C 1.35832 1.16643 0.85833
 C231 C 1.36602 1.15787 0.84181
 H232 H 1.33519 1.12098 0.83595
 H233 H 1.33488 1.16469 0.87841
 H234 H 1.37881 1.16345 0.83536
 C235 C 0.85847 0.64116 0.83408
 C236 C 0.84218 0.63300 0.84230
 C237 C 0.83388 0.64096 0.85867
 C238 C 0.84214 0.65723 0.86687
 C239 C 0.85843 0.66560 0.85886
 C240 C 0.86652 0.65743 0.84250
 H241 H 0.83584 0.62051 0.83584
 H242 H 0.83578 0.66351 0.87943
 H243 H 0.87902 0.66385 0.83619
 C244 C 0.85845 1.14114 0.33406
 C245 C 0.84210 1.13311 0.34229
 C246 C 0.83385 1.14118 0.35863
 C247 C 0.84223 1.15741 0.36679
 C248 C 0.85857 1.16565 0.35877
 C249 C 0.86660 1.15738 0.34244
 H250 H 0.83540 1.12095 0.33558
 H251 H 0.83620 1.16346 0.37963
 H252 H 0.87915 1.16371 0.33612
 C253 C 0.64208 0.35825 0.33310
 C254 C 0.65857 0.36609 0.34141
 C255 C 0.66691 0.35793 0.35759
 C256 C 0.65865 0.34170 0.36578
 C257 C 0.64214 0.33334 0.35802
 C258 C 0.63407 0.34189 0.34168
 H259 H 0.66462 0.37916 0.33597
 H260 H 0.66507 0.33595 0.37853
 H261 H 0.62248 0.33474 0.33458
 C262 C 0.64193 0.85862 0.83384
 C263 C 0.65827 0.86662 0.84212
 C264 C 0.66649 0.85848 0.85845
 C265 C 0.65811 0.84221 0.86654
 C266 C 0.64178 0.83401 0.85846
 C267 C 0.63376 0.84236 0.84216
 H268 H 0.66498 0.87881 0.83547
 H269 H 0.66441 0.83581 0.87907
 H270 H 0.62092 0.83637 0.83611
 C271 C 0.14208 0.35839 0.83301
 C272 C 0.13405 0.34206 0.84166
 C273 C 0.14222 0.33376 0.85792
 C274 C 0.15860 0.34191 0.86581
 C275 C 0.16692 0.35810 0.85763
 C276 C 0.15861 0.36624 0.84136
 H277 H 0.12207 0.33490 0.83519
 H278 H 0.16473 0.33583 0.87859
 H279 H 0.16501 0.37899 0.83557
 C280 C 0.14208 0.85855 0.33322
 C281 C 0.13410 0.84219 0.34185
 C282 C 0.14226 0.83392 0.35813
 C283 C 0.15859 0.84215 0.36607
 C284 C 0.16686 0.85837 0.35791
 C285 C 0.15855 0.86647 0.34162
 H286 H 0.12217 0.83498 0.33534
 H287 H 0.16471 0.83609 0.37886
 H288 H 0.16491 0.87925 0.33585
 O289 O 0.98174 0.93090 0.90536
 O290 O 0.98177 0.90872 0.88312
 C291 C 0.97528 0.92422 0.88984
 C292 C 0.95978 0.93440 0.87981
 C293 C 0.95336 0.92814 0.86193
 H294 H 0.96004 0.91595 0.85524
 O295 O 1.01865 1.06860 0.90509
 O296 O 1.01869 1.09071 0.88277
 C297 C 1.02516 1.07523 0.88957
 C298 C 1.04071 1.06504 0.87964
 C299 C 1.04720 1.07124 0.86176
 H300 H 1.04053 1.08340 0.85500
 O301 O 0.90550 0.98117 0.93119
 O302 O 0.88330 0.98106 0.90903
 C303 C 0.89003 0.97462 0.92454
 C304 C 0.88006 0.95907 0.93474
 C305 C 0.86222 0.95259 0.92851
 H306 H 0.85552 0.95927 0.91633
 O307 O 1.09479 1.01853 0.93151
 O308 O 1.11705 1.01852 0.90940
 C309 C 1.11028 1.02504 0.92486
 C310 C 1.12022 1.04065 0.93499
 C311 C 1.13808 1.04706 0.92877
 H312 H 1.14502 1.03999 0.91695
 O313 O 0.93157 0.90494 0.98160
 O314 O 0.90948 0.88264 0.98160
 C315 C 0.92495 0.88940 0.97513
 C316 C 0.93512 0.87938 0.95960
 C317 C 0.92889 0.86148 0.95320
 H318 H 0.91704 0.85457 0.96023
 O319 O 1.06865 1.09504 0.98139
 O320 O 1.09073 1.11735 0.98132
 C321 C 1.07528 1.11055 0.97485
 C322 C 1.06512 1.12048 0.95926
 C323 C 1.07131 1.13836 0.95274
 H324 H 1.08343 1.14514 0.95942
 O325 O 0.93148 1.01834 0.90505
 O326 O 0.90941 1.01828 0.88276
 C327 C 0.92485 1.02481 0.88952
 C328 C 0.93498 1.04038 0.87952
 C329 C 0.92869 1.04691 0.86168
 H330 H 0.91651 1.04024 0.85500
 O331 O 1.06883 0.98126 0.90548
 O332 O 1.09097 0.98123 0.88325
 C333 C 1.07551 0.97474 0.88999
 C334 C 1.06541 0.95913 0.88001
 C335 C 1.07170 0.95269 0.86216
 H336 H 1.08354 0.95974 0.85526
 O337 O 1.01880 0.90488 0.93154
 O338 O 1.01888 0.88256 0.90944
 C339 C 1.02532 0.88935 0.92492
 C340 C 1.04083 0.87939 0.93515
 C341 C 1.04730 0.86149 0.92897
 H342 H 1.04066 0.85474 0.91680
 O343 O 0.98152 1.09469 0.93108
 O344 O 0.98152 1.11694 0.90890
 C345 C 0.97503 1.11020 0.92439
 C346 C 0.95948 1.12021 0.93451
 C347 C 0.95310 1.13810 0.92825
 H348 H 0.96015 1.14502 0.91641
 O349 O 0.90527 1.06870 0.98122
 O350 O 0.88301 1.09083 0.98109
 C351 C 0.88978 1.07532 0.97467
 C352 C 0.87984 1.06506 0.95916
 C353 C 0.86196 1.07120 0.95270
 H354 H 0.85521 1.08337 0.95935
 O355 O 1.09485 0.93113 0.98179
 O356 O 1.11712 0.90902 0.98185
 C357 C 1.11036 0.92449 0.97533
 C358 C 1.12034 0.93467 0.95978
 C359 C 1.13818 0.92841 0.95331
 H360 H 1.14487 0.91623 0.95999
 O361 O 0.98156 1.06856 0.90505
 O362 O 0.98156 1.09069 0.88275
 C363 C 0.97509 1.07520 0.88952
 C364 C 0.95954 1.06503 0.87955
 C365 C 0.95307 1.07134 0.86171
 H366 H 0.96005 1.08324 0.85481
 O367 O 1.01882 0.93093 0.90542
 O368 O 1.01890 0.90875 0.88318
 C369 C 1.02534 0.92426 0.88993
 C370 C 1.04087 0.93446 0.87995
 C371 C 1.04737 0.92821 0.86210
 H372 H 1.04073 0.91601 0.85538
 O373 O 1.09483 0.98135 0.93158
 O374 O 1.11709 0.98131 0.90947
 C375 C 1.11033 0.97484 0.92495
 C376 C 1.12030 0.95928 0.93514
 C377 C 1.13814 0.95284 0.92888
 H378 H 1.14504 0.95986 0.91701
 O379 O 0.90548 1.01834 0.93116
 O380 O 0.88328 1.01827 0.90899
 C381 C 0.88999 1.02480 0.92448
 C382 C 0.87997 1.04036 0.93460
 C383 C 0.86209 1.04670 0.92835
 H384 H 0.85520 1.03960 0.91652
 O385 O 0.93130 1.09480 0.98118
 O386 O 0.90918 1.11707 0.98105
 C387 C 0.92466 1.11030 0.97463
 C388 C 0.93487 1.12028 0.95909
 C389 C 0.92868 1.13817 0.95261
 H390 H 0.91652 1.14491 0.95927
 O391 O 1.06881 0.90506 0.98182
 O392 O 1.09095 0.88281 0.98187
 C393 C 1.07548 0.88953 0.97535
 C394 C 1.06537 0.87950 0.95980
 C395 C 1.07163 0.86160 0.95342
 H396 H 1.08347 0.85470 0.96048
 O397 O 1.06880 1.01844 0.90538
 O398 O 1.09095 1.01844 0.88315
 C399 C 1.07547 1.02492 0.88986
 C400 C 1.06533 1.04045 0.87981
 C401 C 1.07161 1.04684 0.86193
 H402 H 1.08347 1.03981 0.85506
 O403 O 0.93163 0.98116 0.90522
 O404 O 0.90956 0.98106 0.88293
 C405 C 0.92502 0.97461 0.88972
 C406 C 0.93520 0.95903 0.87978
 C407 C 0.92900 0.95258 0.86190
 H408 H 0.91717 0.95961 0.85495
 O409 O 1.01860 1.09472 0.93113
 O410 O 1.01863 1.11696 0.90893
 C411 C 1.02508 1.11024 0.92445
 C412 C 1.04058 1.12029 0.93460
 C413 C 1.04696 1.13818 0.92831
 H414 H 1.03994 1.14505 0.91642
 O415 O 0.98172 0.90483 0.93146
 O416 O 0.98175 0.88251 0.90936
 C417 C 0.97525 0.88929 0.92483
 C418 C 0.95973 0.87930 0.93501
 C419 C 0.95328 0.86140 0.92880
 H420 H 0.95996 0.85466 0.91665
 O421 O 1.09469 1.06896 0.98151
 O422 O 1.11690 1.09113 0.98144
 C423 C 1.11018 1.07560 0.97501
 C424 C 1.12019 1.06536 0.95953
 C425 C 1.13805 1.07158 0.95310
 H426 H 1.14473 1.08379 0.95975
 O427 O 0.90552 0.93101 0.98149
 O428 O 0.88331 0.90883 0.98148
 C429 C 0.89005 0.92433 0.97498
 C430 C 0.88010 0.93446 0.95939
 C431 C 0.86225 0.92820 0.95296
 H432 H 0.85534 0.91634 0.96001
 Cu433 Cu 1.00026 0.92011 0.92066
 Cu434 Cu 1.00033 0.89340 0.89404
 Cu435 Cu 1.00009 1.07942 0.92031
 Cu436 Cu 1.00010 1.10605 0.89360
 Cu437 Cu 0.92074 0.99977 0.92038
 Cu438 Cu 0.89416 0.99966 0.89369
 Cu439 Cu 1.07959 0.99990 0.92070
 Cu440 Cu 1.10625 0.99988 0.89409
 C441 C 0.95071 0.94997 0.88853
 H442 H 0.95541 0.95470 0.90243
 C443 C 0.93798 0.93715 0.85286
 C444 C 1.04977 1.04952 0.88845
 H445 H 1.04502 1.04483 0.90235
 C446 C 1.06263 1.06223 0.85279
 C447 C 0.88879 0.95002 0.95030
 H448 H 0.90267 0.95476 0.95501
 C449 C 0.85319 0.93718 0.93754
 C450 C 1.11148 1.04977 0.95049
 H451 H 1.09759 1.04507 0.95520
 C452 C 1.14711 1.06251 0.93773
 C453 C 0.95066 0.88808 0.95053
 H454 H 0.95538 0.90200 0.95523
 C455 C 0.93787 0.85238 0.93781
 C456 C 1.04964 1.11165 0.95020
 H457 H 1.04495 1.09774 0.95497
 C458 C 1.06231 1.14733 0.93728
 C459 C 0.95053 1.04943 0.88824
 H460 H 0.95529 1.04466 0.90211
 C461 C 0.93765 1.06238 0.85267
 C462 C 1.04988 0.95004 0.88870
 H463 H 1.04512 0.95478 0.90258
 C464 C 1.06277 0.93724 0.85309
 C465 C 1.04985 0.88818 0.95069
 H466 H 1.04510 0.90210 0.95537
 C467 C 1.06269 0.85248 0.93802
 C468 C 0.95039 1.11150 0.95005
 H469 H 0.95507 1.09758 0.95480
 C470 C 0.93772 1.14721 0.93721
 C471 C 0.88863 1.04952 0.95012
 H472 H 0.90253 1.04487 0.95485
 C473 C 0.85296 1.06210 0.93731
 C474 C 1.11161 0.95022 0.95070
 H475 H 1.09773 0.95495 0.95543
 C476 C 1.14719 0.93741 0.93787
 O477 O 1.01858 0.93135 1.09501
 O478 O 1.01858 0.90926 1.11735
 C479 C 1.02505 0.92474 1.11055
 C480 C 1.04056 0.93497 1.12053
 C481 C 1.04705 0.92871 1.13839
 H482 H 1.04042 0.91650 1.14510
 O483 O 0.98131 1.06903 1.09458
 O484 O 0.98122 1.09120 1.11683
 C485 C 0.97479 1.07568 1.11008
 C486 C 0.95928 1.06549 1.12007
 C487 C 0.95289 1.07169 1.13798
 H488 H 0.95990 1.08356 1.14490
 O489 O 0.90521 1.01864 1.06860
 O490 O 0.88297 1.01867 1.09074
 C491 C 0.88971 1.02515 1.07524
 C492 C 0.87973 1.04069 1.06504
 C493 C 0.86190 1.04717 1.07129
 H494 H 0.85520 1.04050 1.08348
 O495 O 1.09465 0.98169 1.06891
 O496 O 1.11684 0.98175 1.09109
 C497 C 1.11013 0.97522 1.07560
 C498 C 1.12013 0.95963 1.06550
 C499 C 1.13798 0.95324 1.07178
 H500 H 1.14487 0.96032 1.08362
 O501 O 1.06882 0.90508 1.01896
 O502 O 1.09095 0.88282 1.01906
 C503 C 1.07548 0.88958 1.02551
 C504 C 1.06530 0.87960 1.04106
 C505 C 1.07155 0.86174 1.04759
 H506 H 1.08373 0.85503 1.04095
 O507 O 0.93120 1.09494 1.01832
 O508 O 0.90908 1.11721 1.01824
 C509 C 0.92454 1.11048 1.02476
 C510 C 0.93468 1.12053 1.04029
 C511 C 0.92842 1.13842 1.04671
 H512 H 0.91626 1.14511 1.04001
 O513 O 0.93128 0.98154 1.09474
 O514 O 0.90917 0.98153 1.11700
 C515 C 0.92465 0.97506 1.11027
 C516 C 0.93484 0.95955 1.12031
 C517 C 0.92862 0.95315 1.13822
 H518 H 0.91646 0.95985 1.14490
 O519 O 1.06853 1.01887 1.09487
 O520 O 1.09058 1.01896 1.11719
 C521 C 1.07513 1.02542 1.11039
 C522 C 1.06493 1.04098 1.12033
 C523 C 1.07111 1.04748 1.13820
 H524 H 1.08325 1.04082 1.14496
 O525 O 0.98155 0.90516 1.06896
 O526 O 0.98150 0.88295 1.09118
 C527 C 0.97505 0.88966 1.07566
 C528 C 0.95952 0.87964 1.06552
 C529 C 0.95306 0.86179 1.07184
 H530 H 0.96005 0.85490 1.08374
 O531 O 1.01839 1.09517 1.06855
 O532 O 1.01834 1.11747 1.09067
 C533 C 1.02485 1.11070 1.07520
 C534 C 1.04041 1.12070 1.06508
 C535 C 1.04684 1.13858 1.07135
 H536 H 1.03981 1.14550 1.08320
 O537 O 0.90543 0.93108 1.01863
 O538 O 0.88321 0.90891 1.01866
 C539 C 0.88993 0.92443 1.02511
 C540 C 0.87991 0.93466 1.04060
 C541 C 0.86205 0.92842 1.04703
 H542 H 0.85537 0.91621 1.04036
 O543 O 1.09465 1.06908 1.01864
 O544 O 1.11687 1.09125 1.01863
 C545 C 1.11013 1.07576 1.02514
 C546 C 1.12009 1.06560 1.04071
 C547 C 1.13793 1.07185 1.04718
 H548 H 1.14464 1.08403 1.04049
 O549 O 1.01838 1.06907 1.09463
 O550 O 1.01833 1.09126 1.11687
 C551 C 1.02483 1.07576 1.11015
 C552 C 1.04035 1.06562 1.12018
 C553 C 1.04673 1.07191 1.13806
 H554 H 1.03969 1.08379 1.14494
 O555 O 0.98150 0.93136 1.09492
 O556 O 0.98146 0.90928 1.11727
 C557 C 0.97499 0.92475 1.11045
 C558 C 0.95944 0.93494 1.12038
 C559 C 0.95303 0.92876 1.13828
 H560 H 0.96006 0.91693 1.14526
 O561 O 1.09461 1.01887 1.06884
 O562 O 1.11679 1.01897 1.09103
 C563 C 1.11007 1.02541 1.07552
 C564 C 1.12004 1.04099 1.06536
 C565 C 1.13788 1.04743 1.07161
 H566 H 1.14478 1.04041 1.08348
 O567 O 0.90528 0.98147 1.06864
 O568 O 0.88304 0.98145 1.09077
 C569 C 0.88980 0.97495 1.07530
 C570 C 0.87987 0.95934 1.06516
 C571 C 0.86201 0.95291 1.07138
 H572 H 0.85506 0.95997 1.08320
 O573 O 1.06861 1.09515 1.01853
 O574 O 1.09069 1.11746 1.01852
 C575 C 1.07523 1.11070 1.02500
 C576 C 1.06503 1.12072 1.04051
 C577 C 1.07127 1.13860 1.04699
 H578 H 1.08345 1.14530 1.04034
 O579 O 0.93148 0.90500 1.01875
 O580 O 0.90939 0.88270 1.01879
 C581 C 0.92484 0.88949 1.02528
 C582 C 0.93498 0.87954 1.04087
 C583 C 0.92872 0.86168 1.04740
 H584 H 0.91656 0.85495 1.04073
 O585 O 1.06858 0.98169 1.09495
 O586 O 1.09065 0.98175 1.11724
 C587 C 1.07522 0.97522 1.11048
 C588 C 1.06510 0.95963 1.12047
 C589 C 1.07138 0.95319 1.13833
 H590 H 1.08323 0.96023 1.14523
 O591 O 0.93126 1.01871 1.09465
 O592 O 0.90915 1.01874 1.11692
 C593 C 0.92461 1.02523 1.11015
 C594 C 0.93476 1.04079 1.12013
 C595 C 0.92857 1.04721 1.13803
 H596 H 0.91645 1.04048 1.14477
 O597 O 0.98130 1.09510 1.06847
 O598 O 0.98121 1.11740 1.09060
 C599 C 0.97477 1.11061 1.07511
 C600 C 0.95923 1.12057 1.06493
 C601 C 0.95279 1.13846 1.07114
 H602 H 0.95979 1.14542 1.08298
 O603 O 1.01864 0.90517 1.06902
 O604 O 1.01863 0.88296 1.09124
 C605 C 1.02513 0.88968 1.07574
 C606 C 1.04069 0.87967 1.06565
 C607 C 1.04713 0.86180 1.07196
 H608 H 1.04011 0.85491 1.08384
 O609 O 1.09476 0.93126 1.01893
 O610 O 1.11703 0.90914 1.01903
 C611 C 1.11026 0.92465 1.02546
 C612 C 1.12021 0.93491 1.04097
 C613 C 1.13806 0.92872 1.04746
 H614 H 1.14478 0.91652 1.04082
 O615 O 0.90523 1.06878 1.01836
 O616 O 0.88298 1.09092 1.01829
 C617 C 0.88973 1.07545 1.02482
 C618 C 0.87976 1.06531 1.04041
 C619 C 0.86193 1.07158 1.04685
 H620 H 0.85502 1.08345 1.03982
 Cu621 Cu 1.00007 0.92047 1.07975
 Cu622 Cu 1.00004 0.89389 1.10650
 Cu623 Cu 0.99985 1.07987 1.07934
 Cu624 Cu 0.99977 1.10657 1.10597
 Cu625 Cu 0.92072 0.92023 1.00012
 Cu626 Cu 0.89412 0.89353 1.00013
 Cu627 Cu 1.07959 0.92035 1.00037
 Cu628 Cu 1.10624 0.89371 1.00046
 Cu629 Cu 0.92046 1.07959 0.99978
 Cu630 Cu 0.89383 1.10624 0.99965
 Cu631 Cu 1.07943 1.07984 1.00002
 Cu632 Cu 1.10603 1.10654 0.99997
 Cu633 Cu 0.92047 1.00009 1.07944
 Cu634 Cu 0.89385 1.00010 1.10609
 Cu635 Cu 1.07938 1.00028 1.07967
 Cu636 Cu 1.10594 1.00037 1.10637
 C637 C 1.04957 0.95054 1.11179
 H638 H 1.04481 0.95528 1.09790
 C639 C 1.06245 0.93774 1.14740
 C640 C 0.95024 1.04991 1.11136
 H641 H 0.95493 1.04521 1.09744
 C642 C 0.93755 1.06264 1.14708
 C643 C 0.88845 1.04974 1.04948
 H644 H 0.90232 1.04499 1.04476
 C645 C 0.85288 1.06260 1.06228
 C646 C 1.11145 0.95048 1.04997
 H647 H 1.09757 0.95517 1.04522
 C648 C 1.14706 0.93780 1.06285
 C649 C 1.04976 0.88835 1.05008
 H650 H 1.04503 0.90224 1.04529
 C651 C 1.06255 0.85272 1.06302
 C652 C 0.95020 1.11181 1.04938
 H653 H 0.95493 1.09790 1.04468
 C654 C 0.93739 1.14750 1.06212
 C655 C 0.95037 0.95046 1.11160
 H656 H 0.95507 0.95515 1.09768
 C657 C 0.93764 0.93777 1.14732
 C658 C 1.04943 1.05003 1.11153
 H659 H 1.04475 1.04527 1.09763
 C660 C 1.06209 1.06293 1.14719
 C661 C 0.95049 0.88830 1.04992
 H662 H 0.95523 0.90219 1.04513
 C663 C 0.93768 0.85269 1.06287
 C664 C 1.04948 1.11199 1.04953
 H665 H 1.04476 1.09808 1.04479
 C666 C 1.06226 1.14764 1.06239
 C667 C 0.88860 0.95024 1.04965
 H668 H 0.90249 0.95495 1.04494
 C669 C 0.85298 0.93747 1.06240
 C670 C 1.11136 1.05005 1.04978
 H671 H 1.09749 1.04531 1.04504
 C672 C 1.14694 1.06285 1.06262
 O673 O 0.98174 0.43105 0.40516
 O674 O 0.98178 0.40891 0.38288
 C675 C 0.97528 0.42440 0.38964
 C676 C 0.95976 0.43455 0.37963
 C677 C 0.95338 0.42831 0.36173
 H678 H 0.96041 0.41645 0.35482
 O679 O 1.01859 0.56880 0.40533
 O680 O 1.01859 0.59096 0.38305
 C681 C 1.02509 0.57548 0.38983
 C682 C 1.04066 0.56535 0.37986
 C683 C 1.04709 0.57161 0.36199
 H684 H 1.04006 0.58347 0.35507
 O685 O 0.90548 0.48118 0.43108
 O686 O 0.88331 0.48112 0.40887
 C687 C 0.89003 0.47464 0.42438
 C688 C 0.88006 0.45904 0.43450
 C689 C 0.86225 0.45257 0.42820
 H690 H 0.85537 0.45959 0.41632
 O691 O 1.09480 0.51870 0.43147
 O692 O 1.11704 0.51876 0.40933
 C693 C 1.11028 0.52524 0.42482
 C694 C 1.12021 0.54084 0.43496
 C695 C 1.13805 0.54731 0.42871
 H696 H 1.14498 0.54027 0.41687
 O697 O 0.93157 0.40496 0.48134
 O698 O 0.90950 0.38264 0.48126
 C699 C 0.92497 0.38942 0.47483
 C700 C 0.93518 0.37943 0.45931
 C701 C 0.92901 0.36151 0.45292
 H702 H 0.91718 0.35456 0.45995
 O703 O 1.06861 0.59509 0.48150
 O704 O 1.09068 0.61741 0.48151
 C705 C 1.07524 0.61062 0.47500
 C706 C 1.06507 0.62059 0.45944
 C707 C 1.07130 0.63846 0.45291
 H708 H 1.08347 0.64519 0.45956
 O709 O 0.93150 0.51841 0.40506
 O710 O 0.90946 0.51839 0.38273
 C711 C 0.92489 0.52490 0.38953
 C712 C 0.93506 0.54047 0.37956
 C713 C 0.92890 0.54690 0.36165
 H714 H 0.91679 0.54018 0.35489
 O715 O 1.06882 0.48151 0.40537
 O716 O 1.09094 0.48154 0.38311
 C717 C 1.07548 0.47503 0.38985
 C718 C 1.06535 0.45947 0.37983
 C719 C 1.07157 0.45313 0.36191
 H720 H 1.08337 0.46022 0.35500
 O721 O 1.01886 0.40499 0.43123
 O722 O 1.01894 0.38273 0.40906
 C723 C 1.02538 0.38949 0.42456
 C724 C 1.04093 0.37951 0.43472
 C725 C 1.04742 0.36165 0.42844
 H726 H 1.04046 0.35474 0.41655
 O727 O 0.98140 0.59481 0.43133
 O728 O 0.98136 0.61709 0.40918
 C729 C 0.97488 0.61032 0.42465
 C730 C 0.95930 0.62027 0.43478
 C731 C 0.95290 0.63818 0.42856
 H732 H 0.95995 0.64514 0.41674
 O733 O 0.90511 0.56856 0.48129
 O734 O 0.88284 0.59067 0.48121
 C735 C 0.88963 0.57519 0.47475
 C736 C 0.87972 0.56498 0.45918
 C737 C 0.86188 0.57118 0.45267
 H738 H 0.85512 0.58334 0.45934
 O739 O 1.09482 0.43116 0.48150
 O740 O 1.11710 0.40905 0.48153
 C741 C 1.11034 0.42453 0.47503
 C742 C 1.12032 0.43475 0.45950
 C743 C 1.13816 0.42849 0.45302
 H744 H 1.14484 0.41629 0.45968
 O745 O 0.98151 0.56873 0.40523
 O746 O 0.98149 0.59089 0.38296
 C747 C 0.97504 0.57538 0.38970
 C748 C 0.95957 0.56517 0.37967
 C749 C 0.95322 0.57138 0.36176
 H750 H 0.96024 0.58326 0.35485
 O751 O 1.01882 0.43115 0.40522
 O752 O 1.01890 0.40903 0.38292
 C753 C 1.02533 0.42453 0.38970
 C754 C 1.04082 0.43479 0.37973
 C755 C 1.04725 0.42864 0.36182
 H756 H 1.04059 0.41647 0.35506
 O757 O 1.09485 0.48151 0.43144
 O758 O 1.11709 0.48153 0.40930
 C759 C 1.11034 0.47502 0.42478
 C760 C 1.12030 0.45942 0.43491
 C761 C 1.13814 0.45297 0.42865
 H762 H 1.14505 0.46001 0.41679
 O763 O 0.90541 0.51835 0.43108
 O764 O 0.88324 0.51834 0.40888
 C765 C 0.88993 0.52483 0.42439
 C766 C 0.87989 0.54037 0.43453
 C767 C 0.86205 0.54677 0.42824
 H768 H 0.85519 0.53973 0.41635
 O769 O 0.93110 0.59469 0.48134
 O770 O 0.90896 0.61695 0.48127
 C771 C 0.92445 0.61021 0.47483
 C772 C 0.93466 0.62024 0.45933
 C773 C 0.92845 0.63814 0.45289
 H774 H 0.91627 0.64484 0.45956
 O775 O 1.06886 0.40500 0.48146
 O776 O 1.09100 0.38275 0.48149
 C777 C 1.07555 0.38949 0.47498
 C778 C 1.06544 0.37949 0.45940
 C779 C 1.07174 0.36163 0.45291
 H780 H 1.08391 0.35494 0.45960
 O781 O 1.06881 0.51868 0.40536
 O782 O 1.09093 0.51874 0.38310
 C783 C 1.07545 0.52520 0.38985
 C784 C 1.06528 0.54075 0.37985
 C785 C 1.07151 0.54723 0.36198
 H786 H 1.08368 0.54057 0.35528
 O787 O 0.93156 0.48123 0.40506
 O788 O 0.90952 0.48119 0.38273
 C789 C 0.92497 0.47472 0.38953
 C790 C 0.93518 0.45919 0.37955
 C791 C 0.92900 0.45273 0.36166
 H792 H 0.91685 0.45942 0.35492
 O793 O 1.01849 0.59493 0.43136
 O794 O 1.01849 0.61720 0.40920
 C795 C 1.02496 0.61046 0.42470
 C796 C 1.04048 0.62049 0.43483
 C797 C 1.04691 0.63836 0.42853
 H798 H 1.03989 0.64524 0.41665
 O799 O 0.98177 0.40496 0.43124
 O800 O 0.98181 0.38268 0.40909
 C801 C 0.97532 0.38943 0.42458
 C802 C 0.95981 0.37940 0.43475
 C803 C 0.95343 0.36148 0.42855
 H804 H 0.96014 0.35475 0.41641
 O805 O 1.09467 0.56903 0.48153
 O806 O 1.11688 0.59121 0.48155
 C807 C 1.11016 0.57570 0.47506
 C808 C 1.12018 0.56551 0.45954
 C809 C 1.13801 0.57179 0.45308
 H810 H 1.14468 0.58400 0.45974
 O811 O 0.90541 0.43094 0.48125
 O812 O 0.88322 0.40874 0.48117
 C813 C 0.88995 0.42425 0.47471
 C814 C 0.88000 0.43441 0.45913
 C815 C 0.86219 0.42813 0.45261
 H816 H 0.85549 0.41593 0.45927
 Cu817 Cu 1.00029 0.42025 0.42043
 Cu818 Cu 1.00036 0.39361 0.39375
 Cu819 Cu 1.00000 0.57960 0.42054
 Cu820 Cu 0.99998 0.60627 0.39387
 Cu821 Cu 0.92070 0.49980 0.42029
 Cu822 Cu 0.89416 0.49976 0.39357
 Cu823 Cu 1.07961 0.50010 0.42063
 Cu824 Cu 1.10623 0.50014 0.39398
 C825 C 0.95068 0.45011 0.38832
 H826 H 0.95536 0.45484 0.40224
 C827 C 0.93801 0.43731 0.35263
 C828 C 1.04974 0.54979 0.38858
 H829 H 1.04501 0.54504 0.40247
 C830 C 1.06250 0.56265 0.35293
 C831 C 0.88873 0.44999 0.45009
 H832 H 0.90258 0.45474 0.45486
 C833 C 0.85320 0.43713 0.43716
 C834 C 1.11149 0.54992 0.45050
 H835 H 1.09762 0.54517 0.45523
 C836 C 1.14706 0.56277 0.43768
 C837 C 0.95070 0.38817 0.45025
 H838 H 0.95537 0.40211 0.45495
 C839 C 0.93804 0.35242 0.43755
 C840 C 1.04954 0.61182 0.45041
 H841 H 1.04483 0.59792 0.45519
 C842 C 1.06230 0.64746 0.43747
 C843 C 0.95052 0.54959 0.38836
 H844 H 0.95518 0.54488 0.40229
 C845 C 0.93790 0.56234 0.35263
 C846 C 1.04986 0.45032 0.38853
 H847 H 1.04515 0.45498 0.40246
 C848 C 1.06261 0.43773 0.35279
 C849 C 1.04992 0.38821 0.45032
 H850 H 1.04515 0.40209 0.45508
 C851 C 1.06282 0.35260 0.43744
 C852 C 0.95020 0.61152 0.45029
 H853 H 0.95490 0.59759 0.45500
 C854 C 0.93749 0.64723 0.43753
 C855 C 0.88852 0.54946 0.45012
 H856 H 0.90239 0.54477 0.45488
 C857 C 0.85292 0.56215 0.43722
 C858 C 1.11161 0.45032 0.45046
 H859 H 1.09774 0.45506 0.45521
 C860 C 1.14718 0.43752 0.43761
 O861 O 1.01845 0.43108 0.59480
 O862 O 1.01849 0.40893 0.61708
 C863 C 1.02494 0.42443 0.61032
 C864 C 1.04045 0.43464 0.62030
 C865 C 1.04694 0.42838 0.63815
 H866 H 1.04031 0.41616 0.64486
 O867 O 0.98116 0.56873 0.59464
 O868 O 0.98107 0.59087 0.61692
 C869 C 0.97464 0.57536 0.61014
 C870 C 0.95912 0.56516 0.62012
 C871 C 0.95268 0.57140 0.63799
 H872 H 0.95967 0.58329 0.64491
 O873 O 0.90510 0.51833 0.56859
 O874 O 0.88286 0.51831 0.59073
 C875 C 0.88961 0.52481 0.57524
 C876 C 0.87962 0.54037 0.56508
 C877 C 0.86176 0.54678 0.57132
 H878 H 0.85487 0.53974 0.58319
 O879 O 1.09453 0.48148 0.56873
 O880 O 1.11671 0.48151 0.59092
 C881 C 1.11001 0.47501 0.57542
 C882 C 1.12004 0.45945 0.56529
 C883 C 1.13790 0.45309 0.57156
 H884 H 1.14477 0.46016 0.58341
 O885 O 1.06875 0.40504 0.51860
 O886 O 1.09089 0.38279 0.51869
 C887 C 1.07540 0.38953 0.52513
 C888 C 1.06521 0.37952 0.54065
 C889 C 1.07142 0.36162 0.54711
 H890 H 1.08359 0.35491 0.54044
 O891 O 0.93102 0.59470 0.51847
 O892 O 0.90888 0.61696 0.51845
 C893 C 0.92434 0.61022 0.52495
 C894 C 0.93448 0.62025 0.54049
 C895 C 0.92821 0.63813 0.54694
 H896 H 0.91603 0.64481 0.54027
 O897 O 0.93118 0.48120 0.59470
 O898 O 0.90906 0.48114 0.61695
 C899 C 0.92454 0.47468 0.61021
 C900 C 0.93472 0.45915 0.62021
 C901 C 0.92847 0.45268 0.63808
 H902 H 0.91629 0.45935 0.64477
 O903 O 1.06837 0.51860 0.59476
 O904 O 1.09044 0.51866 0.61706
 C905 C 1.07498 0.52512 0.61028
 C906 C 1.06480 0.54067 0.62025
 C907 C 1.07101 0.54711 0.63813
 H908 H 1.08285 0.54009 0.64507
 O909 O 0.98142 0.40492 0.56872
 O910 O 0.98141 0.38264 0.59087
 C911 C 0.97494 0.38939 0.57538
 C912 C 0.95941 0.37939 0.56521
 C913 C 0.95289 0.36155 0.57153
 H914 H 0.95951 0.35487 0.58375
 O915 O 1.01826 0.59493 0.56866
 O916 O 1.01820 0.61719 0.59082
 C917 C 1.02472 0.61046 0.57535
 C918 C 1.04028 0.62048 0.56524
 C919 C 1.04671 0.63835 0.57156
 H920 H 1.03967 0.64524 0.58342
 O921 O 0.90538 0.43101 0.51840
 O922 O 0.88318 0.40881 0.51836
 C923 C 0.88989 0.42432 0.52486
 C924 C 0.87986 0.43446 0.54040
 C925 C 0.86200 0.42818 0.54676
 H926 H 0.85513 0.41632 0.53969
 O927 O 1.09459 0.56901 0.51866
 O928 O 1.11680 0.59119 0.51874
 C929 C 1.11006 0.57567 0.52519
 C930 C 1.12001 0.56546 0.54074
 C931 C 1.13785 0.57168 0.54723
 H932 H 1.14458 0.58387 0.54057
 O933 O 1.01824 0.56881 0.59471
 O934 O 1.01819 0.59094 0.61700
 C935 C 1.02469 0.57546 0.61024
 C936 C 1.04020 0.56528 0.62026
 C937 C 1.04662 0.57152 0.63814
 H938 H 1.03993 0.58370 0.64485
 O939 O 0.98137 0.43105 0.59475
 O940 O 0.98136 0.40890 0.61703
 C941 C 0.97487 0.42438 0.61026
 C942 C 0.95931 0.43453 0.62022
 C943 C 0.95286 0.42827 0.63809
 H944 H 0.95987 0.41640 0.64502
 O945 O 1.09448 0.51867 0.56875
 O946 O 1.11666 0.51871 0.59094
 C947 C 1.10994 0.52519 0.57544
 C948 C 1.11993 0.54079 0.56532
 C949 C 1.13777 0.54720 0.57160
 H950 H 1.14466 0.54013 0.58345
 O951 O 0.90515 0.48116 0.56862
 O952 O 0.88289 0.48109 0.59074
 C953 C 0.88966 0.47463 0.57525
 C954 C 0.87973 0.45907 0.56504
 C955 C 0.86187 0.45257 0.57121
 H956 H 0.85512 0.45924 0.58337
 O957 O 1.06853 0.59506 0.51863
 O958 O 1.09060 0.61738 0.51870
 C959 C 1.07513 0.61059 0.52515
 C960 C 1.06492 0.62056 0.54068
 C961 C 1.07115 0.63842 0.54721
 H962 H 1.08333 0.64514 0.54058
 O963 O 0.93140 0.40490 0.51848
 O964 O 0.90932 0.38258 0.51845
 C965 C 0.92475 0.38937 0.52497
 C966 C 0.93485 0.37940 0.54058
 C967 C 0.92853 0.36156 0.54710
 H968 H 0.91667 0.35466 0.54010
 O969 O 1.06846 0.48142 0.59477
 O970 O 1.09053 0.48145 0.61707
 C971 C 1.07509 0.47492 0.61029
 C972 C 1.06498 0.45932 0.62026
 C973 C 1.07126 0.45286 0.63812
 H974 H 1.08310 0.45990 0.64503
 O975 O 0.93112 0.51838 0.59468
 O976 O 0.90901 0.51836 0.61694
 C977 C 0.92446 0.52488 0.61018
 C978 C 0.93460 0.54046 0.62017
 C979 C 0.92835 0.54692 0.63804
 H980 H 0.91621 0.54021 0.64475
 O981 O 0.98116 0.59485 0.56859
 O982 O 0.98107 0.61711 0.59075
 C983 C 0.97463 0.61035 0.57525
 C984 C 0.95906 0.62030 0.56509
 C985 C 0.95260 0.63817 0.57134
 H986 H 0.95960 0.64512 0.58319
 O987 O 1.01851 0.40501 0.56870
 O988 O 1.01854 0.38273 0.59085
 C989 C 1.02502 0.38950 0.57537
 C990 C 1.04058 0.37952 0.56523
 C991 C 1.04699 0.36163 0.57147
 H992 H 1.03995 0.35468 0.58330
 O993 O 1.09475 0.43117 0.51863
 O994 O 1.11703 0.40906 0.51872
 C995 C 1.11024 0.42455 0.52517
 C996 C 1.12017 0.43479 0.54071
 C997 C 1.13803 0.42861 0.54719
 H998 H 1.14478 0.41644 0.54054
 O999 O 0.90503 0.56857 0.51843
 O1000 O 0.88275 0.59068 0.51841
 C1001 C 0.88952 0.57520 0.52490
 C1002 C 0.87955 0.56499 0.54044
 C1003 C 0.86169 0.57121 0.54690
 H1004 H 0.85498 0.58339 0.54022
 Cu1005 Cu 0.99994 0.42023 0.57952
 Cu1006 Cu 0.99995 0.39356 0.60619
 Cu1007 Cu 0.99972 0.57961 0.57942
 Cu1008 Cu 0.99962 0.60626 0.60610
 Cu1009 Cu 0.92065 0.42018 0.49987
 Cu1010 Cu 0.89408 0.39345 0.49980
 Cu1011 Cu 1.07958 0.42031 0.50004
 Cu1012 Cu 1.10624 0.39368 0.50012
 Cu1013 Cu 0.92028 0.57941 0.49989
 Cu1014 Cu 0.89362 0.60604 0.49983
 Cu1015 Cu 1.07939 0.57983 0.50007
 Cu1016 Cu 1.10596 0.60654 0.50013
 Cu1017 Cu 0.92035 0.49977 0.57943
 Cu1018 Cu 0.89373 0.49972 0.60607
 Cu1019 Cu 1.07925 0.50004 0.57953
 Cu1020 Cu 1.10581 0.50008 0.60624
 C1021 C 1.04945 0.45023 0.61157
 H1022 H 1.04470 0.45498 0.59769
 C1023 C 1.06234 0.43740 0.64718
 C1024 C 0.95010 0.54957 0.61142
 H1025 H 0.95483 0.54483 0.59752
 C1026 C 0.93731 0.56238 0.64707
 C1027 C 0.88830 0.54945 0.54951
 H1028 H 0.90218 0.54474 0.54478
 C1029 C 0.85269 0.56219 0.56233
 C1030 C 1.11138 0.45033 0.54975
 H1031 H 1.09749 0.45500 0.54500
 C1032 C 1.14701 0.43768 0.56261
 C1033 C 1.04967 0.38826 0.54970
 H1034 H 1.04497 0.40218 0.54497
 C1035 C 1.06240 0.35256 0.56250
 C1036 C 0.95003 0.61155 0.54955
 H1037 H 0.95477 0.59765 0.54482
 C1038 C 0.93718 0.64720 0.56235
 C1039 C 0.95026 0.45009 0.61150
 H1040 H 0.95498 0.45483 0.59760
 C1041 C 0.93746 0.43726 0.64714
 C1042 C 1.04927 0.54973 0.61152
 H1043 H 1.04457 0.54500 0.59762
 C1044 C 1.06201 0.56252 0.64719
 C1045 C 0.95041 0.38810 0.54962
 H1046 H 0.95519 0.40197 0.54483
 C1047 C 0.93746 0.35252 0.56256
 C1048 C 1.04937 0.61180 0.54969
 H1049 H 1.04466 0.59790 0.54491
 C1050 C 1.06213 0.64744 0.56263
 C1051 C 0.88851 0.45002 0.54951
 H1052 H 0.90240 0.45477 0.54484
 C1053 C 0.85289 0.43714 0.56215
 C1054 C 1.11126 0.54990 0.54977
 H1055 H 1.09738 0.54519 0.54502
 C1056 C 1.14685 0.56263 0.56264
 O1057 O 0.56805 1.01898 0.59516
 O1058 O 0.59003 1.01906 0.61755
 C1059 C 0.57460 1.02552 0.61069
 C1060 C 0.56438 1.04110 0.62059
 C1061 C 0.57056 1.04767 0.63845
 H1062 H 0.58271 1.04104 0.64522
 O1063 O 0.43086 0.98148 0.59448
 O1064 O 0.40865 0.98144 0.61665
 C1065 C 0.42416 0.97498 0.60997
 C1066 C 0.43431 0.95945 0.62003
 C1067 C 0.42802 0.95300 0.63789
 H1068 H 0.41584 0.95968 0.64455
 O1069 O 0.51797 1.09522 0.56865
 O1070 O 0.51781 1.11752 0.59078
 C1071 C 0.52439 1.11077 0.57534
 C1072 C 0.53997 1.12078 0.56527
 C1073 C 0.54635 1.13868 0.57155
 H1074 H 0.53926 1.14560 0.58336
 O1075 O 0.48126 0.90521 0.56872
 O1076 O 0.48116 0.88294 0.59088
 C1077 C 0.47476 0.88968 0.57535
 C1078 C 0.45930 0.87966 0.56510
 C1079 C 0.45281 0.86178 0.57134
 H1080 H 0.45940 0.85508 0.58357
 O1081 O 0.59446 1.06919 0.51901
 O1082 O 0.61666 1.09137 0.51912
 C1083 C 0.60990 1.07587 0.52558
 C1084 C 0.61981 1.06570 0.54118
 C1085 C 0.63766 1.07191 0.54767
 H1086 H 0.64440 1.08407 0.54099
 O1087 O 0.40536 0.93119 0.51812
 O1088 O 0.38316 0.90899 0.51802
 C1089 C 0.38985 0.92450 0.52454
 C1090 C 0.37978 0.93464 0.54005
 C1091 C 0.36193 0.92831 0.54641
 H1092 H 0.35510 0.91642 0.53936
 O1093 O 0.48081 1.06902 0.59452
 O1094 O 0.48061 1.09120 0.61677
 C1095 C 0.47422 1.07567 0.61000
 C1096 C 0.45868 1.06546 0.61993
 C1097 C 0.45222 1.07169 0.63780
 H1098 H 0.45920 1.08356 0.64474
 O1099 O 0.51815 0.93141 0.59495
 O1100 O 0.51810 0.90927 0.61723
 C1101 C 0.52458 0.92478 0.61050
 C1102 C 0.54003 0.93499 0.62056
 C1103 C 0.54641 0.92875 0.63846
 H1104 H 0.53942 0.91684 0.64534
 O1105 O 0.59428 0.98182 0.56926
 O1106 O 0.61638 0.98185 0.59152
 C1107 C 0.60974 0.97535 0.57600
 C1108 C 0.61980 0.95980 0.56589
 C1109 C 0.63767 0.95346 0.57219
 H1110 H 0.64451 0.96053 0.58406
 O1111 O 0.40490 1.01859 0.56821
 O1112 O 0.38258 1.01859 0.59026
 C1113 C 0.38938 1.02508 0.57480
 C1114 C 0.37944 1.04064 0.56459
 C1115 C 0.36160 1.04710 0.57081
 H1116 H 0.35467 1.04009 0.58267
 O1117 O 0.43099 1.09493 0.51805
 O1118 O 0.40883 1.11717 0.51794
 C1119 C 0.42428 1.11045 0.52451
 C1120 C 0.43433 1.12048 0.54010
 C1121 C 0.42803 1.13837 0.54648
 H1122 H 0.41620 1.14526 0.53940
 O1123 O 0.56873 0.90536 0.51897
 O1124 O 0.59088 0.88313 0.51915
 C1125 C 0.57536 0.88986 0.52553
 C1126 C 0.56512 0.87984 0.54100
 C1127 C 0.57130 0.86194 0.54746
 H1128 H 0.58349 0.85524 0.54083
 O1129 O 0.43079 1.01866 0.59443
 O1130 O 0.40860 1.01866 0.61661
 C1131 C 0.42407 1.02517 0.60991
 C1132 C 0.43418 1.04075 0.61992
 C1133 C 0.42790 1.04719 0.63779
 H1134 H 0.41576 1.04047 0.64448
 O1135 O 0.56811 0.98180 0.59520
 O1136 O 0.59009 0.98184 0.61759
 C1137 C 0.57468 0.97531 0.61075
 C1138 C 0.56450 0.95973 0.62070
 C1139 C 0.57068 0.95328 0.63860
 H1140 H 0.58279 0.96001 0.64536
 O1141 O 0.51834 0.90532 0.56888
 O1142 O 0.51828 0.88304 0.59104
 C1143 C 0.52482 0.88981 0.57558
 C1144 C 0.54042 0.87983 0.56550
 C1145 C 0.54680 0.86193 0.57175
 H1146 H 0.53972 0.85498 0.58356
 O1147 O 0.48088 1.09513 0.56845
 O1148 O 0.48069 1.11743 0.59057
 C1149 C 0.47431 1.11064 0.57506
 C1150 C 0.45882 1.12060 0.56480
 C1151 C 0.45231 1.13848 0.57098
 H1152 H 0.45892 1.14522 0.58318
 O1153 O 0.40500 1.06879 0.51797
 O1154 O 0.38272 1.09090 0.51785
 C1155 C 0.38947 1.07542 0.52439
 C1156 C 0.37946 1.06524 0.53992
 C1157 C 0.36161 1.07151 0.54636
 H1158 H 0.35493 1.08369 0.53966
 O1159 O 0.59469 0.93153 0.51910
 O1160 O 0.61698 0.90943 0.51928
 C1161 C 0.61015 0.92493 0.52570
 C1162 C 0.62002 0.93517 0.54128
 C1163 C 0.63789 0.92902 0.54778
 H1164 H 0.64467 0.91688 0.54111
 O1165 O 0.48107 0.93137 0.59473
 O1166 O 0.48098 0.90922 0.61702
 C1167 C 0.47452 0.92470 0.61022
 C1168 C 0.45892 0.93485 0.62012
 C1169 C 0.45244 0.92862 0.63798
 H1170 H 0.45946 0.91677 0.64495
 O1171 O 0.51789 1.06914 0.59475
 O1172 O 0.51773 1.09133 0.61699
 C1173 C 0.52428 1.07584 0.61028
 C1174 C 0.53979 1.06573 0.62036
 C1175 C 0.54617 1.07208 0.63822
 H1176 H 0.53913 1.08399 0.64506
 O1177 O 0.40494 0.98141 0.56829
 O1178 O 0.38260 0.98136 0.59032
 C1179 C 0.38944 0.97488 0.57488
 C1180 C 0.37955 0.95928 0.56466
 C1181 C 0.36171 0.95274 0.57083
 H1182 H 0.35493 0.95940 0.58298
 O1183 O 0.59422 1.01899 0.56923
 O1184 O 0.61633 1.01906 0.59149
 C1185 C 0.60966 1.02552 0.57596
 C1186 C 0.61967 1.04109 0.56582
 C1187 C 0.63752 1.04749 0.57211
 H1188 H 0.64439 1.04045 0.58398
 O1189 O 0.43145 0.90516 0.51826
 O1190 O 0.40938 0.88285 0.51818
 C1191 C 0.42479 0.88963 0.52474
 C1192 C 0.43485 0.87966 0.54036
 C1193 C 0.42857 0.86179 0.54679
 H1194 H 0.41677 0.85486 0.53971
 O1195 O 0.56839 1.09525 0.51883
 O1196 O 0.59047 1.11757 0.51894
 C1197 C 0.57497 1.11080 0.52534
 C1198 C 0.56470 1.12081 0.54080
 C1199 C 0.57088 1.13870 0.54729
 H1200 H 0.58308 1.14541 0.54069
 Cu1201 Cu 0.57896 1.00039 0.57998
 Cu1202 Cu 0.60542 1.00046 0.60678
 Cu1203 Cu 0.42010 1.00003 0.57915
 Cu1204 Cu 0.39337 1.00001 0.60568
 Cu1205 Cu 0.49940 1.07991 0.57937
 Cu1206 Cu 0.49919 1.10660 0.60601
 Cu1207 Cu 0.49971 0.92054 0.57960
 Cu1208 Cu 0.49962 0.89389 0.60628
 C1209 C 0.54888 1.05012 0.61176
 H1210 H 0.54420 1.04530 0.59788
 C1211 C 0.56154 1.06315 0.64738
 C1212 C 0.44987 0.95039 0.61135
 H1213 H 0.45463 0.95512 0.59746
 C1214 C 0.43701 0.93760 0.64698
 C1215 C 0.54913 1.11206 0.54978
 H1216 H 0.54445 1.09814 0.54502
 C1217 C 0.56179 1.14775 0.56264
 C1218 C 0.45034 0.88839 0.54950
 H1219 H 0.45509 0.90229 0.54478
 C1220 C 0.43745 0.85273 0.56227
 C1221 C 0.61103 1.05017 0.55024
 H1222 H 0.59716 1.04547 0.54548
 C1223 C 0.64663 1.06289 0.56312
 C1224 C 0.38838 0.95024 0.54915
 H1225 H 0.40225 0.95503 0.54449
 C1226 C 0.35278 0.93727 0.56179
 C1227 C 0.44969 1.04987 0.61120
 H1228 H 0.45444 1.04516 0.59731
 C1229 C 0.43684 1.06265 0.64684
 C1230 C 0.54906 0.95061 0.61189
 H1231 H 0.54439 0.95534 0.59798
 C1232 C 0.56172 0.93781 0.64759
 C1233 C 0.61119 0.95067 0.55032
 H1234 H 0.59730 0.95533 0.54555
 C1235 C 0.64683 0.93809 0.56321
 C1236 C 0.38816 1.04969 0.54902
 H1237 H 0.40204 1.04494 0.54431
 C1238 C 0.35256 1.06253 0.56179
 C1239 C 0.44984 1.11181 0.54923
 H1240 H 0.45462 1.09790 0.54455
 C1241 C 0.43694 1.14749 0.56191
 C1242 C 0.54956 0.88858 0.55001
 H1243 H 0.54487 0.90250 0.54527
 C1244 C 0.56223 0.85286 0.56281
 O1245 O 0.56911 0.98164 0.40561
 O1246 O 0.59131 0.98166 0.38344
 C1247 C 0.57583 0.97515 0.39012
 C1248 C 0.56575 0.95958 0.38008
 C1249 C 0.57201 0.95324 0.36218
 H1250 H 0.58383 0.96034 0.35529
 O1251 O 0.43187 1.01853 0.40472
 O1252 O 0.40991 1.01848 0.38232
 C1253 C 0.42531 1.02500 0.38916
 C1254 C 0.43551 1.04057 0.37921
 C1255 C 0.42938 1.04699 0.36128
 H1256 H 0.41729 1.04025 0.35450
 O1257 O 0.48160 1.09503 0.43105
 O1258 O 0.48166 1.11729 0.40889
 C1259 C 0.47510 1.11052 0.42434
 C1260 C 0.45946 1.12047 0.43438
 C1261 C 0.45299 1.13831 0.42805
 H1262 H 0.46004 1.14525 0.41621
 O1263 O 0.51911 0.90514 0.43142
 O1264 O 0.51929 0.88285 0.40929
 C1265 C 0.52567 0.88964 0.42480
 C1266 C 0.54117 0.87968 0.43506
 C1267 C 0.54771 0.86181 0.42884
 H1268 H 0.54112 0.85508 0.41663
 O1269 O 0.59494 0.93146 0.48196
 O1270 O 0.61723 0.90936 0.48209
 C1271 C 0.61048 0.92483 0.47555
 C1272 C 0.62050 0.93502 0.46004
 C1273 C 0.63836 0.92877 0.45361
 H1274 H 0.64505 0.91659 0.46031
 O1275 O 0.40520 1.06874 0.48081
 O1276 O 0.38291 1.09084 0.48066
 C1277 C 0.38973 1.07536 0.47423
 C1278 C 0.37987 1.06513 0.45863
 C1279 C 0.36204 1.07131 0.45209
 H1280 H 0.35525 1.08345 0.45875
 O1281 O 0.51891 1.06902 0.40522
 O1282 O 0.51902 1.09115 0.38292
 C1283 C 0.52548 1.07567 0.38974
 C1284 C 0.54107 1.06549 0.37985
 C1285 C 0.54764 1.07172 0.36201
 H1286 H 0.54100 1.08389 0.35523
 O1287 O 0.48208 0.93116 0.40517
 O1288 O 0.48223 0.90899 0.38291
 C1289 C 0.47569 0.92448 0.38963
 C1290 C 0.46018 0.93460 0.37955
 C1291 C 0.45385 0.92829 0.36167
 H1292 H 0.46090 0.91640 0.35482
 O1293 O 0.59498 1.01884 0.43179
 O1294 O 0.61732 1.01888 0.40975
 C1295 C 0.61050 1.02536 0.42520
 C1296 C 0.62042 1.04092 0.43542
 C1297 C 0.63831 1.04735 0.42929
 H1298 H 0.64508 1.04063 0.41718
 O1299 O 0.40574 0.98136 0.43070
 O1300 O 0.38363 0.98127 0.40844
 C1301 C 0.39030 0.97483 0.42398
 C1302 C 0.38028 0.95930 0.43416
 C1303 C 0.36242 0.95287 0.42791
 H1304 H 0.35574 0.95957 0.41573
 O1305 O 0.56858 1.09518 0.48169
 O1306 O 0.59065 1.11749 0.48175
 C1307 C 0.57524 1.11070 0.47520
 C1308 C 0.56516 1.12067 0.45957
 C1309 C 0.57145 1.13853 0.45312
 H1310 H 0.58327 1.14546 0.46017
 O1311 O 0.43162 0.90510 0.48112
 O1312 O 0.40954 0.88278 0.48100
 C1313 C 0.42503 0.88955 0.47460
 C1314 C 0.43530 0.87954 0.45914
 C1315 C 0.42911 0.86164 0.45267
 H1316 H 0.41692 0.85493 0.45929
 O1317 O 0.43191 0.98135 0.40476
 O1318 O 0.40993 0.98125 0.38237
 C1319 C 0.42536 0.97480 0.38923
 C1320 C 0.43560 0.95923 0.37933
 C1321 C 0.42945 0.95270 0.36145
 H1322 H 0.41732 0.95935 0.35467
 O1323 O 0.56905 1.01882 0.40561
 O1324 O 0.59127 1.01886 0.38346
 C1325 C 0.57577 1.02533 0.39013
 C1326 C 0.56567 1.04088 0.38008
 C1327 C 0.57202 1.04730 0.36224
 H1328 H 0.58390 1.04026 0.35540
 O1329 O 0.48202 0.90508 0.43125
 O1330 O 0.48216 0.88278 0.40913
 C1331 C 0.47559 0.88955 0.42457
 C1332 C 0.46001 0.87955 0.43465
 C1333 C 0.45363 0.86164 0.42839
 H1334 H 0.46071 0.85471 0.41658
 O1335 O 0.51870 1.09513 0.43127
 O1336 O 0.51881 1.11739 0.40910
 C1337 C 0.52521 1.11065 0.42463
 C1338 C 0.54068 1.12067 0.43487
 C1339 C 0.54718 1.13854 0.42861
 H1340 H 0.54057 1.14523 0.41638
 O1341 O 0.40559 0.93120 0.48097
 O1342 O 0.38339 0.90901 0.48084
 C1343 C 0.39015 0.92452 0.47439
 C1344 C 0.38023 0.93468 0.45879
 C1345 C 0.36237 0.92847 0.45236
 H1346 H 0.35542 0.91664 0.45941
 O1347 O 0.59466 1.06914 0.48188
 O1348 O 0.61687 1.09133 0.48194
 C1349 C 0.61018 1.07581 0.47545
 C1350 C 0.62024 1.06562 0.45997
 C1351 C 0.63814 1.07184 0.45365
 H1352 H 0.64501 1.08372 0.46069
 O1353 O 0.51915 0.93126 0.40535
 O1354 O 0.51934 0.90910 0.38308
 C1355 C 0.52573 0.92462 0.38987
 C1356 C 0.54124 0.93488 0.37993
 C1357 C 0.54771 0.92873 0.36203
 H1358 H 0.54107 0.91656 0.35527
 O1359 O 0.48183 1.06891 0.40501
 O1360 O 0.48190 1.09104 0.38272
 C1361 C 0.47543 1.07553 0.38945
 C1362 C 0.45999 1.06530 0.37937
 C1363 C 0.45367 1.07151 0.36145
 H1364 H 0.46068 1.08340 0.35456
 O1365 O 0.40567 1.01852 0.43063
 O1366 O 0.38357 1.01848 0.40836
 C1367 C 0.39021 1.02499 0.42388
 C1368 C 0.38013 1.04053 0.43398
 C1369 C 0.36229 1.04690 0.42765
 H1370 H 0.35547 1.03985 0.41575
 O1371 O 0.59503 0.98167 0.43180
 O1372 O 0.61735 0.98168 0.40975
 C1373 C 0.61055 0.97519 0.42520
 C1374 C 0.62050 0.95963 0.43540
 C1375 C 0.63836 0.95320 0.42919
 H1376 H 0.64528 0.96022 0.41733
 O1377 O 0.56895 0.90533 0.48183
 O1378 O 0.59111 0.88310 0.48197
 C1379 C 0.57567 0.88982 0.47539
 C1380 C 0.56564 0.87979 0.45978
 C1381 C 0.57197 0.86192 0.45337
 H1382 H 0.58380 0.85504 0.46044
 O1383 O 0.43116 1.09492 0.48091
 O1384 O 0.40900 1.11715 0.48075
 C1385 C 0.42451 1.11042 0.47436
 C1386 C 0.43473 1.12043 0.45885
 C1387 C 0.42846 1.13828 0.45231
 H1388 H 0.41623 1.14495 0.45890
 Cu1389 Cu 0.57982 1.00024 0.42091
 Cu1390 Cu 0.60655 1.00027 0.39437
 Cu1391 Cu 0.42100 0.99995 0.41993
 Cu1392 Cu 0.39455 0.99986 0.39312
 Cu1393 Cu 0.57931 1.07997 0.50035
 Cu1394 Cu 0.60589 1.10668 0.50045
 Cu1395 Cu 0.57961 0.92064 0.50045
 Cu1396 Cu 0.60628 0.89402 0.50065
 Cu1397 Cu 0.42030 1.07963 0.49945
 Cu1398 Cu 0.39363 1.10624 0.49929
 Cu1399 Cu 0.42072 0.92039 0.49962
 Cu1400 Cu 0.39414 0.89367 0.49950
 Cu1401 Cu 0.50025 1.07981 0.42036
 Cu1402 Cu 0.50035 1.10645 0.39368
 Cu1403 Cu 0.50058 0.92038 0.42052
 Cu1404 Cu 0.50077 0.89369 0.39387
 C1405 C 0.55024 0.95042 0.38874
 H1406 H 0.54549 0.95508 0.40266
 C1407 C 0.56308 0.93783 0.35304
 C1408 C 0.45093 1.04971 0.38804
 H1409 H 0.45557 1.04500 0.40198
 C1410 C 0.43838 1.06244 0.35228
 C1411 C 0.45035 1.11174 0.44990
 H1412 H 0.45510 1.09786 0.45470
 C1413 C 0.43750 1.14734 0.43692
 C1414 C 0.55012 0.88845 0.45064
 H1415 H 0.54532 0.90234 0.45535
 C1416 C 0.56309 0.85281 0.43791
 C1417 C 0.61178 0.95056 0.45095
 H1418 H 0.59790 0.95529 0.45565
 C1419 C 0.64740 0.93778 0.43820
 C1420 C 0.38871 1.04963 0.44959
 H1421 H 0.40258 1.04496 0.45439
 C1422 C 0.35312 1.06227 0.43662
 C1423 C 0.55008 1.04995 0.38868
 H1424 H 0.54527 1.04524 0.40255
 C1425 C 0.56310 1.06271 0.35309
 C1426 C 0.45108 0.95019 0.38817
 H1427 H 0.45573 0.95498 0.40207
 C1428 C 0.43849 0.93724 0.35250
 C1429 C 0.61159 1.05004 0.45088
 H1430 H 0.59768 1.04532 0.45552
 C1431 C 0.64729 1.06279 0.43832
 C1432 C 0.38897 0.95021 0.44971
 H1433 H 0.40286 0.95492 0.45444
 C1434 C 0.35335 0.93748 0.43694
 C1435 C 0.54966 1.11195 0.45047
 H1436 H 0.54490 1.09805 0.45520
 C1437 C 0.56255 1.14758 0.43765
 C1438 C 0.45086 0.88828 0.45015
 H1439 H 0.45554 0.90220 0.45489
 C1440 C 0.43820 0.85257 0.43731
 O1441 O 0.48189 0.43099 0.90526
 O1442 O 0.48203 0.40884 0.88299
 C1443 C 0.47547 0.42430 0.88973
 C1444 C 0.45991 0.43440 0.87971
 C1445 C 0.45356 0.42809 0.86183
 H1446 H 0.46064 0.41624 0.85494
 O1447 O 0.51828 0.56888 0.90543
 O1448 O 0.51825 0.59105 0.88316
 C1449 C 0.52477 0.57557 0.88992
 C1450 C 0.54034 0.56546 0.87994
 C1451 C 0.54670 0.57170 0.86204
 H1452 H 0.53963 0.58353 0.85511
 O1453 O 0.40550 0.48092 0.93107
 O1454 O 0.38332 0.48079 0.90889
 C1455 C 0.39006 0.47435 0.92439
 C1456 C 0.38012 0.45876 0.93457
 C1457 C 0.36228 0.45228 0.92836
 H1458 H 0.35556 0.45897 0.91619
 O1459 O 0.59465 0.51898 0.93151
 O1460 O 0.61687 0.51911 0.90936
 C1461 C 0.61010 0.52556 0.92486
 C1462 C 0.62002 0.54115 0.93502
 C1463 C 0.63787 0.54761 0.92882
 H1464 H 0.64482 0.54057 0.91698
 O1465 O 0.43175 0.40467 0.98133
 O1466 O 0.40974 0.38229 0.98128
 C1467 C 0.42518 0.38911 0.97483
 C1468 C 0.43542 0.37914 0.95931
 C1469 C 0.42925 0.36124 0.95282
 H1470 H 0.41709 0.35449 0.95946
 O1471 O 0.56831 0.59515 0.98163
 O1472 O 0.59030 0.61755 0.98164
 C1473 C 0.57487 0.61071 0.97515
 C1474 C 0.56465 0.62068 0.95962
 C1475 C 0.57080 0.63860 0.95318
 H1476 H 0.58294 0.64536 0.95985
 O1477 O 0.43141 0.51821 0.90505
 O1478 O 0.40937 0.51813 0.88272
 C1479 C 0.42478 0.52469 0.88953
 C1480 C 0.43489 0.54032 0.87958
 C1481 C 0.42869 0.54677 0.86169
 H1482 H 0.41661 0.54001 0.85492
 O1483 O 0.56879 0.48170 0.90542
 O1484 O 0.59090 0.48181 0.88315
 C1485 C 0.57547 0.47524 0.88991
 C1486 C 0.56541 0.45963 0.87990
 C1487 C 0.57168 0.45325 0.86202
 H1488 H 0.58348 0.46037 0.85511
 O1489 O 0.51907 0.40506 0.93137
 O1490 O 0.51925 0.38279 0.90922
 C1491 C 0.52566 0.38958 0.92472
 C1492 C 0.54123 0.37967 0.93491
 C1493 C 0.54779 0.36182 0.92867
 H1494 H 0.54116 0.35507 0.91650
 O1495 O 0.48103 0.59481 0.93142
 O1496 O 0.48097 0.61710 0.90928
 C1497 C 0.47448 0.61030 0.92475
 C1498 C 0.45886 0.62022 0.93486
 C1499 C 0.45238 0.63808 0.92860
 H1500 H 0.45942 0.64505 0.91677
 O1501 O 0.40487 0.56828 0.98132
 O1502 O 0.38252 0.59032 0.98125
 C1503 C 0.38936 0.57485 0.97478
 C1504 C 0.37949 0.56461 0.95921
 C1505 C 0.36161 0.57073 0.95273
 H1506 H 0.35481 0.58285 0.95942
 O1507 O 0.59509 0.43160 0.98162
 O1508 O 0.61742 0.40954 0.98166
 C1509 C 0.61062 0.42501 0.97515
 C1510 C 0.62055 0.43523 0.95960
 C1511 C 0.63840 0.42902 0.95308
 H1512 H 0.64514 0.41685 0.95974
 O1513 O 0.48121 0.56873 0.90534
 O1514 O 0.48115 0.59090 0.88308
 C1515 C 0.47474 0.57536 0.88981
 C1516 C 0.45930 0.56512 0.87976
 C1517 C 0.45291 0.57136 0.86186
 H1518 H 0.45988 0.58328 0.85499
 O1519 O 0.51896 0.43117 0.90531
 O1520 O 0.51914 0.40903 0.88303
 C1521 C 0.52551 0.42457 0.88981
 C1522 C 0.54097 0.43486 0.87983
 C1523 C 0.54746 0.42868 0.86195
 H1524 H 0.54086 0.41646 0.85522
 O1525 O 0.59483 0.48181 0.93149
 O1526 O 0.61705 0.48191 0.90934
 C1527 C 0.61034 0.47538 0.92482
 C1528 C 0.62038 0.45985 0.93496
 C1529 C 0.63823 0.45346 0.92866
 H1530 H 0.64508 0.46050 0.91678
 O1531 O 0.40534 0.51808 0.93108
 O1532 O 0.38317 0.51800 0.90888
 C1533 C 0.38984 0.52451 0.92439
 C1534 C 0.37975 0.54002 0.93455
 C1535 C 0.36187 0.54633 0.92828
 H1536 H 0.35503 0.53926 0.91640
 O1537 O 0.43072 0.59455 0.98139
 O1538 O 0.40851 0.61672 0.98132
 C1539 C 0.42402 0.61004 0.97488
 C1540 C 0.43420 0.62011 0.95938
 C1541 C 0.42791 0.63797 0.95291
 H1542 H 0.41569 0.64463 0.95955
 O1543 O 0.56915 0.40541 0.98156
 O1544 O 0.59136 0.38323 0.98160
 C1545 C 0.57588 0.38991 0.97509
 C1546 C 0.56581 0.37986 0.95952
 C1547 C 0.57216 0.36201 0.95308
 H1548 H 0.58405 0.35516 0.96011
 O1549 O 0.56863 0.51887 0.90543
 O1550 O 0.59073 0.51901 0.88316
 C1551 C 0.57524 0.52541 0.88992
 C1552 C 0.56500 0.54091 0.87992
 C1553 C 0.57117 0.54736 0.86202
 H1554 H 0.58333 0.54071 0.85530
 O1555 O 0.43159 0.48103 0.90505
 O1556 O 0.40954 0.48090 0.88273
 C1557 C 0.42501 0.47448 0.88953
 C1558 C 0.43526 0.45895 0.87958
 C1559 C 0.42909 0.45243 0.86170
 H1560 H 0.41693 0.45906 0.85495
 O1561 O 0.51813 0.59498 0.93150
 O1562 O 0.51810 0.61726 0.90936
 C1563 C 0.52457 0.61052 0.92485
 C1564 C 0.54007 0.62057 0.93502
 C1565 C 0.54641 0.63850 0.92879
 H1566 H 0.53937 0.64540 0.91693
 O1567 O 0.48198 0.40487 0.93131
 O1568 O 0.48211 0.38259 0.90916
 C1569 C 0.47557 0.38932 0.92463
 C1570 C 0.46005 0.37926 0.93475
 C1571 C 0.45369 0.36136 0.92847
 H1572 H 0.46075 0.35447 0.91661
 O1573 O 0.59449 0.56921 0.98166
 O1574 O 0.61662 0.59147 0.98166
 C1575 C 0.60995 0.57594 0.97517
 C1576 C 0.61998 0.56578 0.95964
 C1577 C 0.63783 0.57205 0.95322
 H1578 H 0.64451 0.58424 0.95991
 O1579 O 0.40565 0.43070 0.98127
 O1580 O 0.38351 0.40844 0.98121
 C1581 C 0.39020 0.42397 0.97474
 C1582 C 0.38021 0.43411 0.95918
 C1583 C 0.36237 0.42783 0.95276
 H1584 H 0.35548 0.41596 0.95980
 Cu1585 Cu 0.50046 0.42024 0.92054
 Cu1586 Cu 0.50065 0.39358 0.89387
 Cu1587 Cu 0.49967 0.57963 0.92065
 Cu1588 Cu 0.49961 0.60632 0.89399
 Cu1589 Cu 0.42067 0.49957 0.92028
 Cu1590 Cu 0.39413 0.49944 0.89357
 Cu1591 Cu 0.57951 0.50033 0.92068
 Cu1592 Cu 0.60612 0.50047 0.89402
 C1593 C 0.45079 0.44995 0.88837
 H1594 H 0.45545 0.45472 0.90227
 C1595 C 0.43816 0.43702 0.85271
 C1596 C 0.54946 0.54995 0.88867
 H1597 H 0.54479 0.54522 0.90259
 C1598 C 0.56210 0.56274 0.85296
 C1599 C 0.38888 0.44970 0.95010
 H1600 H 0.40275 0.45445 0.95482
 C1601 C 0.35328 0.43684 0.93737
 C1602 C 0.61129 0.55022 0.95056
 H1603 H 0.59740 0.54548 0.95526
 C1604 C 0.64690 0.56304 0.93782
 C1605 C 0.45094 0.38794 0.95029
 H1606 H 0.45560 0.40186 0.95505
 C1607 C 0.43830 0.35223 0.93741
 C1608 C 0.54917 0.61188 0.95056
 H1609 H 0.54451 0.59794 0.95528
 C1610 C 0.56177 0.64763 0.93777
 C1611 C 0.45031 0.54948 0.88841
 H1612 H 0.45499 0.54475 0.90232
 C1613 C 0.43762 0.56227 0.85271
 C1614 C 0.54993 0.45045 0.88860
 H1615 H 0.54518 0.45513 0.90251
 C1616 C 0.56280 0.43779 0.85293
 C1617 C 0.55023 0.38848 0.95045
 H1618 H 0.54541 0.40236 0.95517
 C1619 C 0.56324 0.35287 0.93768
 C1620 C 0.44979 0.61144 0.95037
 H1621 H 0.45455 0.59755 0.95511
 C1622 C 0.43692 0.64708 0.93753
 C1623 C 0.38835 0.54914 0.95013
 H1624 H 0.40226 0.54451 0.95488
 C1625 C 0.35268 0.56166 0.93728
 C1626 C 0.61176 0.45075 0.95055
 H1627 H 0.59789 0.45545 0.95532
 C1628 C 0.64735 0.43805 0.93762
 O1629 O 0.51865 0.43127 1.09494
 O1630 O 0.51873 0.40909 1.11719
 C1631 C 0.52514 0.42463 1.11046
 C1632 C 0.54061 0.43487 1.12048
 C1633 C 0.54708 0.42862 1.13835
 H1634 H 0.54047 0.41639 1.14503
 O1635 O 0.48088 0.56862 1.09474
 O1636 O 0.48072 0.59079 1.11699
 C1637 C 0.47433 0.57526 1.11023
 C1638 C 0.45881 0.56503 1.12020
 C1639 C 0.45232 0.57129 1.13804
 H1640 H 0.45928 0.58320 1.14496
 O1641 O 0.40494 0.51807 1.06865
 O1642 O 0.38269 0.51797 1.09077
 C1643 C 0.38942 0.52450 1.07529
 C1644 C 0.37939 0.54004 1.06513
 C1645 C 0.36155 0.54646 1.07142
 H1646 H 0.35468 0.53943 1.08330
 O1647 O 0.59466 0.48181 1.06902
 O1648 O 0.61683 0.48189 1.09121
 C1649 C 0.61015 0.47537 1.07571
 C1650 C 0.62021 0.45984 1.06556
 C1651 C 0.63803 0.45340 1.07189
 H1652 H 0.64466 0.46008 1.08410
 O1653 O 0.56906 0.40543 1.01870
 O1654 O 0.59124 0.38322 1.01878
 C1655 C 0.57574 0.38993 1.02522
 C1656 C 0.56555 0.37988 1.04072
 C1657 C 0.57178 0.36198 1.04713
 H1658 H 0.58395 0.35529 1.04045
 O1659 O 0.43066 0.59451 1.01852
 O1660 O 0.40846 0.61669 1.01850
 C1661 C 0.42394 0.61000 1.02500
 C1662 C 0.43405 0.62005 1.04055
 C1663 C 0.42774 0.63792 1.04701
 H1664 H 0.41556 0.64458 1.04034
 O1665 O 0.43113 0.48103 1.09476
 O1666 O 0.40900 0.48089 1.11701
 C1667 C 0.42451 0.47449 1.11027
 C1668 C 0.43476 0.45901 1.12029
 C1669 C 0.42859 0.45256 1.13819
 H1670 H 0.41640 0.45919 1.14489
 O1671 O 0.56839 0.51888 1.09499
 O1672 O 0.59043 0.51901 1.11733
 C1673 C 0.57496 0.52543 1.11052
 C1674 C 0.56470 0.54095 1.12047
 C1675 C 0.57089 0.54751 1.13832
 H1676 H 0.58308 0.54092 1.14505
 O1677 O 0.48172 0.40503 1.06877
 O1678 O 0.48177 0.38273 1.09091
 C1679 C 0.47529 0.38947 1.07541
 C1680 C 0.45982 0.37941 1.06522
 C1681 C 0.45346 0.36149 1.07147
 H1682 H 0.46046 0.35461 1.08336
 O1683 O 0.51791 0.59490 1.06873
 O1684 O 0.51777 0.61718 1.09087
 C1685 C 0.52432 0.61045 1.07540
 C1686 C 0.53985 0.62050 1.06530
 C1687 C 0.54620 0.63841 1.07158
 H1688 H 0.53912 0.64530 1.08342
 O1689 O 0.40555 0.43069 1.01841
 O1690 O 0.38342 0.40843 1.01840
 C1691 C 0.39008 0.42396 1.02488
 C1692 C 0.38002 0.43409 1.04041
 C1693 C 0.36216 0.42778 1.04676
 H1694 H 0.35532 0.41590 1.03969
 O1695 O 0.59443 0.56918 1.01879
 O1696 O 0.61656 0.59145 1.01885
 C1697 C 0.60987 0.57591 1.02532
 C1698 C 0.61987 0.56576 1.04087
 C1699 C 0.63769 0.57206 1.04734
 H1700 H 0.64437 0.58425 1.04065
 O1701 O 0.51797 0.56881 1.09481
 O1702 O 0.51784 0.59098 1.11706
 C1703 C 0.52440 0.57551 1.11033
 C1704 C 0.53998 0.56545 1.12035
 C1705 C 0.54637 0.57179 1.13820
 H1706 H 0.53928 0.58364 1.14508
 O1707 O 0.48156 0.43114 1.09484
 O1708 O 0.48161 0.40896 1.11709
 C1709 C 0.47508 0.42443 1.11033
 C1710 C 0.45948 0.43452 1.12030
 C1711 C 0.45311 0.42827 1.13820
 H1712 H 0.46021 0.41647 1.14515
 O1713 O 0.59449 0.51898 1.06898
 O1714 O 0.61666 0.51911 1.09118
 C1715 C 0.60993 0.52555 1.07567
 C1716 C 0.61987 0.54115 1.06552
 C1717 C 0.63769 0.54764 1.07178
 H1718 H 0.64461 0.54062 1.08364
 O1719 O 0.40515 0.48090 1.06863
 O1720 O 0.38288 0.48075 1.09074
 C1721 C 0.38969 0.47431 1.07526
 C1722 C 0.37981 0.45872 1.06504
 C1723 C 0.36195 0.45220 1.07119
 H1724 H 0.35517 0.45886 1.08334
 O1725 O 0.56825 0.59512 1.01876
 O1726 O 0.59024 0.61753 1.01883
 C1727 C 0.57480 0.61068 1.02527
 C1728 C 0.56453 0.62063 1.04078
 C1729 C 0.57067 0.63853 1.04727
 H1730 H 0.58284 0.64529 1.04065
 O1731 O 0.43172 0.40475 1.01847
 O1732 O 0.40972 0.38236 1.01847
 C1733 C 0.42514 0.38920 1.02497
 C1734 C 0.43532 0.37926 1.04054
 C1735 C 0.42915 0.36135 1.04699
 H1736 H 0.41703 0.35458 1.04029
 O1737 O 0.56854 0.48170 1.09501
 O1738 O 0.59059 0.48179 1.11733
 C1739 C 0.57518 0.47523 1.11054
 C1740 C 0.56509 0.45961 1.12050
 C1741 C 0.57135 0.45316 1.13836
 H1742 H 0.58316 0.46023 1.14529
 O1743 O 0.43095 0.51820 1.09473
 O1744 O 0.40883 0.51810 1.11699
 C1745 C 0.42427 0.52467 1.11024
 C1746 C 0.43435 0.54028 1.12023
 C1747 C 0.42805 0.54676 1.13807
 H1748 H 0.41590 0.54004 1.14477
 O1749 O 0.48080 0.59473 1.06866
 O1750 O 0.48065 0.61701 1.09080
 C1751 C 0.47422 0.61022 1.07531
 C1752 C 0.45864 0.62014 1.06515
 C1753 C 0.45214 0.63800 1.07140
 H1754 H 0.45913 0.64496 1.08325
 O1755 O 0.51881 0.40525 1.06879
 O1756 O 0.51889 0.38295 1.09092
 C1757 C 0.52535 0.38975 1.07544
 C1758 C 0.54093 0.37982 1.06529
 C1759 C 0.54735 0.36191 1.07149
 H1760 H 0.54031 0.35494 1.08331
 O1761 O 0.59497 0.43164 1.01877
 O1762 O 0.61729 0.40956 1.01886
 C1763 C 0.61046 0.42503 1.02533
 C1764 C 0.62034 0.43522 1.04093
 C1765 C 0.63816 0.42899 1.04745
 H1766 H 0.64512 0.41714 1.04045
 O1767 O 0.40474 0.56830 1.01847
 O1768 O 0.38240 0.59035 1.01845
 C1769 C 0.38922 0.57489 1.02495
 C1770 C 0.37927 0.56466 1.04049
 C1771 C 0.36143 0.57088 1.04699
 H1772 H 0.35471 0.58306 1.04032
 Cu1773 Cu 0.50018 0.42040 1.07962
 Cu1774 Cu 0.50026 0.39370 1.10626
 Cu1775 Cu 0.49940 0.57954 1.07951
 Cu1776 Cu 0.49923 0.60622 1.10616
 Cu1777 Cu 0.42087 0.41993 0.99987
 Cu1778 Cu 0.39438 0.39314 0.99984
 Cu1779 Cu 0.57985 0.42073 1.00016
 Cu1780 Cu 0.60657 0.39417 1.00023
 Cu1781 Cu 0.41997 0.57920 0.99993
 Cu1782 Cu 0.39323 0.60574 0.99987
 Cu1783 Cu 0.57917 0.57993 1.00021
 Cu1784 Cu 0.60565 0.60675 1.00025
 Cu1785 Cu 0.42026 0.49956 1.07948
 Cu1786 Cu 0.39362 0.49941 1.10610
 Cu1787 Cu 0.57931 0.50033 1.07978
 Cu1788 Cu 0.60585 0.50046 1.10650
 C1789 C 0.54959 0.45048 1.11177
 H1790 H 0.54485 0.45521 1.09788
 C1791 C 0.56244 0.43768 1.14740
 C1792 C 0.44985 0.54941 1.11150
 H1793 H 0.45461 0.54467 1.09762
 C1794 C 0.43695 0.56225 1.14710
 C1795 C 0.38804 0.54912 1.04955
 H1796 H 0.40191 0.54441 1.04479
 C1797 C 0.35245 0.56186 1.06243
 C1798 C 0.61157 0.45076 1.04997
 H1799 H 0.59771 0.45548 1.04518
 C1800 C 0.64712 0.43798 1.06292
 C1801 C 0.55001 0.38859 1.04978
 H1802 H 0.54530 0.40252 1.04509
 C1803 C 0.56276 0.35287 1.06250
 C1804 C 0.44962 0.61138 1.04961
 H1805 H 0.45439 0.59749 1.04488
 C1806 C 0.43670 0.64700 1.06243
 C1807 C 0.45033 0.45001 1.11156
 H1808 H 0.45500 0.45474 1.09764
 C1809 C 0.43768 0.43720 1.14727
 C1810 C 0.54913 0.54991 1.11169
 H1811 H 0.54444 0.54510 1.09781
 C1812 C 0.56180 0.56292 1.14730
 C1813 C 0.45077 0.38808 1.04964
 H1814 H 0.45544 0.40201 1.04491
 C1815 C 0.43813 0.35235 1.06244
 C1816 C 0.54900 0.61182 1.04978
 H1817 H 0.54436 0.59790 1.04502
 C1818 C 0.56159 0.64754 1.06266
 C1819 C 0.38863 0.44967 1.04953
 H1820 H 0.40251 0.45445 1.04487
 C1821 C 0.35301 0.43675 1.06213
 C1822 C 0.61117 0.55019 1.04995
 H1823 H 0.59731 0.54543 1.04521
 C1824 C 0.64672 0.56307 1.06278
 C1825 C 1.12786 1.10637 1.29536
 C1826 C 1.11792 1.11802 1.28269
 C1827 C 1.11579 1.13739 1.28669
 C1828 C 1.12365 1.14516 1.30323
 C1829 C 1.13395 1.13368 1.31623
 C1830 C 1.13579 1.11405 1.31193
 C1831 C 1.11015 1.11020 1.26541
 C1832 C 1.10375 1.10382 1.25083
 C1833 C 1.09636 1.09656 1.23361
 C1834 C 1.09014 1.09053 1.21880
 C1835 C 1.08283 1.08355 1.20097
 C1836 C 1.07743 1.09642 1.18675
 C1837 C 1.07059 1.08972 1.16930
 C1838 C 1.06907 1.07003 1.16585
 C1839 C 1.07448 1.05720 1.18026
 C1840 C 1.08131 1.06393 1.19771
 H1841 H 1.12945 1.09128 1.29248
 H1842 H 1.10825 1.14659 1.27687
 H1843 H 1.12229 1.16038 1.30520
 H1844 H 1.14270 1.10426 1.32159
 H1845 H 1.07862 1.11163 1.18909
 H1846 H 1.06680 1.09995 1.15840
 H1847 H 1.07328 1.04196 1.17810
 H1848 H 1.08544 1.05384 1.20864
 C1849 C 1.13698 0.61904 0.78487
 C1850 C 1.11723 0.61780 0.78285
 C1851 C 1.10538 0.62407 0.79757
 C1852 C 1.11324 0.63161 0.81424
 C1853 C 1.13308 0.63296 0.81639
 C1854 C 1.14487 0.62656 0.80151
 C1855 C 1.10921 0.61026 0.76557
 C1856 C 1.10272 0.60400 0.75097
 C1857 C 1.09539 0.59674 0.73373
 C1858 C 1.08935 0.59060 0.71888
 C1859 C 1.08242 0.58335 0.70102
 C1860 C 1.06286 0.58183 0.69771
 C1861 C 1.05619 0.57499 0.68023
 C1862 C 1.06903 0.56956 0.66586
 C1863 C 1.08866 0.57110 0.66936
 C1864 C 1.09529 0.57795 0.68682
 H1865 H 1.14629 0.61430 0.77353
 H1866 H 1.09007 0.62314 0.79617
 H1867 H 1.10381 0.63622 0.82553
 H1868 H 1.16018 0.62766 0.80262
 H1869 H 1.05277 0.58595 0.70861
 H1870 H 1.04100 0.57378 0.67803
 H1871 H 1.09889 0.56731 0.65848
 H1872 H 1.11046 0.57914 0.68921
 C1873 C 0.63797 1.11938 0.78459
 C1874 C 0.61822 1.11815 0.78257
 C1875 C 0.60636 1.12450 0.79726
 C1876 C 0.61422 1.13212 0.81389
 C1877 C 0.63407 1.13346 0.81604
 C1878 C 0.64585 1.12698 0.80120
 C1879 C 0.61017 1.11056 0.76532
 C1880 C 0.60358 1.10429 0.75076
 C1881 C 0.59604 1.09708 0.73359
 C1882 C 0.58973 1.09104 0.71882
 C1883 C 0.58234 1.08400 0.70105
 C1884 C 0.57690 1.09681 0.68678
 C1885 C 0.57004 1.09004 0.66938
 C1886 C 0.56853 1.07033 0.66600
 C1887 C 0.57397 1.05756 0.68046
 C1888 C 0.58083 1.06437 0.69787
 H1889 H 0.64727 1.11458 0.77327
 H1890 H 0.59105 1.12359 0.79585
 H1891 H 0.60479 1.13679 0.82515
 H1892 H 0.66117 1.12806 0.80231
 H1893 H 0.57810 1.11203 0.68906
 H1894 H 0.56623 1.10022 0.65843
 H1895 H 0.57278 1.04232 0.67836
 H1896 H 0.58498 1.05433 0.70883
 C1897 C 0.63720 0.61533 1.28673
 C1898 C 0.61796 0.61803 1.28266
 C1899 C 0.60661 0.62838 1.29528
 C1900 C 0.61445 0.63610 1.31186
 C1901 C 0.63394 0.63363 1.31625
 C1902 C 0.64513 0.62298 1.30329
 C1903 C 0.60998 0.61041 1.26540
 C1904 C 0.60347 0.60412 1.25082
 C1905 C 0.59602 0.59688 1.23362
 C1906 C 0.58979 0.59083 1.21882
 C1907 C 0.58249 0.58377 1.20102
 C1908 C 0.57699 0.59658 1.18677
 C1909 C 0.57018 0.58981 1.16935
 C1910 C 0.56878 0.57010 1.16593
 C1911 C 0.57430 0.55733 1.18037
 C1912 C 0.58110 0.56414 1.19780
 H1913 H 0.64618 0.60748 1.27695
 H1914 H 0.59163 0.63044 1.29233
 H1915 H 0.60489 0.64340 1.32146
 H1916 H 0.66025 0.62116 1.30529
 H1917 H 0.57809 0.61181 1.18909
 H1918 H 0.56632 0.59999 1.15843
 H1919 H 0.57319 0.54209 1.17823
 H1920 H 0.58530 0.55410 1.20874
 C1921 C 0.87598 0.89482 1.29773
 C1922 C 0.88214 0.88286 1.28302
 C1923 C 0.88067 0.86308 1.28505
 C1924 C 0.87303 0.85526 1.30168
 C1925 C 0.86673 0.86715 1.31652
 C1926 C 0.86831 0.88703 1.31438
 C1927 C 0.88977 0.89081 1.26575
 C1928 C 0.89610 0.89726 1.25115
 C1929 C 0.90341 0.90454 1.23392
 C1930 C 0.90958 0.91055 1.21907
 C1931 C 0.91686 0.91744 1.20120
 C1932 C 0.92229 0.90450 1.18706
 C1933 C 0.92913 0.91111 1.16958
 C1934 C 0.93063 0.93078 1.16601
 C1935 C 0.92518 0.94369 1.18034
 C1936 C 0.91835 0.93705 1.19783
 H1937 H 0.87708 0.91015 1.29632
 H1938 H 0.88533 0.85369 1.27373
 H1939 H 0.87175 0.83992 1.30279
 H1940 H 0.86379 0.89654 1.32564
 H1941 H 0.92112 0.88930 1.18949
 H1942 H 0.93294 0.90082 1.15873
 H1943 H 0.92636 0.95891 1.17808
 H1944 H 0.91421 0.94719 1.20869
 C1945 C 0.87483 0.39421 0.79711
 C1946 C 0.88096 0.38223 0.78241
 C1947 C 0.87946 0.36245 0.78445
 C1948 C 0.87185 0.35466 0.80110
 C1949 C 0.86563 0.36656 0.81597
 C1950 C 0.86720 0.38644 0.81379
 C1951 C 0.88868 0.39016 0.76516
 C1952 C 0.89511 0.39657 0.75060
 C1953 C 0.90258 0.40384 0.73341
 C1954 C 0.90890 0.40984 0.71863
 C1955 C 0.91635 0.41677 0.70084
 C1956 C 0.92187 0.40387 0.68669
 C1957 C 0.92885 0.41052 0.66928
 C1958 C 0.93039 0.43021 0.66578
 C1959 C 0.92488 0.44307 0.68013
 C1960 C 0.91791 0.43638 0.69754
 H1961 H 0.87595 0.40954 0.79569
 H1962 H 0.88409 0.35305 0.77312
 H1963 H 0.87058 0.33932 0.80223
 H1964 H 0.86272 0.39596 0.82507
 H1965 H 0.92065 0.38866 0.68907
 H1966 H 0.93271 0.40027 0.65843
 H1967 H 0.92610 0.45830 0.67793
 H1968 H 0.91370 0.44650 0.70841
 C1969 C 0.37970 0.86253 0.78445
 C1970 C 0.38149 0.88230 0.78255
 C1971 C 0.37564 0.89426 0.79739
 C1972 C 0.36795 0.88648 0.81404
 C1973 C 0.36602 0.86662 0.81603
 C1974 C 0.37204 0.85473 0.80107
 C1975 C 0.38912 0.89027 0.76528
 C1976 C 0.39543 0.89673 0.75069
 C1977 C 0.40272 0.90407 0.73346
 C1978 C 0.40887 0.91012 0.71862
 C1979 C 0.41614 0.91708 0.70077
 C1980 C 0.41759 0.93670 0.69744
 C1981 C 0.42443 0.94340 0.67998
 C1982 C 0.42994 0.93054 0.66563
 C1983 C 0.42847 0.91086 0.66914
 C1984 C 0.42161 0.90419 0.68659
 H1985 H 0.38413 0.85315 0.77303
 H1986 H 0.37699 0.90958 0.79609
 H1987 H 0.36367 0.89598 0.82540
 H1988 H 0.37052 0.83941 0.80210
 H1989 H 0.41341 0.94680 0.70833
 H1990 H 0.42559 0.95863 0.67777
 H1991 H 0.43232 0.90061 0.65828
 H1992 H 0.42048 0.88898 0.68899
 C1993 C 0.36241 0.38544 1.28715
 C1994 C 0.38167 0.38293 1.28305
 C1995 C 0.39316 0.37273 1.29566
 C1996 C 0.38543 0.36492 1.31225
 C1997 C 0.36591 0.36715 1.31666
 C1998 C 0.35459 0.37770 1.30373
 C1999 C 0.38955 0.39055 1.26573
 C2000 C 0.39602 0.39679 1.25111
 C2001 C 0.40346 0.40393 1.23386
 C2002 C 0.40970 0.40988 1.21902
 C2003 C 0.41702 0.41679 1.20117
 C2004 C 0.42252 0.40386 1.18702
 C2005 C 0.42933 0.41050 1.16954
 C2006 C 0.43074 0.43018 1.16596
 C2007 C 0.42524 0.44306 1.18030
 C2008 C 0.41843 0.43639 1.19778
 H2009 H 0.35333 0.39318 1.27737
 H2010 H 0.40816 0.37083 1.29269
 H2011 H 0.39508 0.35774 1.32184
 H2012 H 0.33945 0.37934 1.30577
 H2013 H 0.42141 0.38866 1.18946
 H2014 H 0.43319 0.40023 1.15870
 H2015 H 0.42635 0.45829 1.17804
 H2016 H 0.41423 0.44652 1.20864
 C2017 C 0.89265 1.12762 0.70472
 C2018 C 0.88116 1.11753 0.71742
 C2019 C 0.86186 1.11518 0.71346
 C2020 C 0.85400 1.12292 0.69690
 C2021 C 0.86533 1.13329 0.68384
 C2022 C 0.88488 1.13542 0.68814
 C2023 C 0.88908 1.10984 0.73470
 C2024 C 0.89557 1.10352 0.74927
 C2025 C 0.90303 1.09625 0.76646
 C2026 C 0.90929 1.09020 0.78125
 C2027 C 0.91665 1.08316 0.79903
 C2028 C 0.92213 1.09598 0.81327
 C2029 C 0.92903 1.08923 0.83067
 C2030 C 0.93055 1.06953 0.83407
 C2031 C 0.92505 1.05674 0.81965
 C2032 C 0.91815 1.06353 0.80224
 H2033 H 0.90768 1.12941 0.70760
 H2034 H 0.85277 1.10755 0.72332
 H2035 H 0.83883 1.12142 0.69501
 H2036 H 0.89452 1.14251 0.67846
 H2037 H 0.92095 1.11120 0.81097
 H2038 H 0.93288 1.09943 0.84158
 H2039 H 0.92625 1.04150 0.82177
 H2040 H 0.91397 1.05348 0.79131
 C2041 C 0.86273 0.61431 0.21281
 C2042 C 0.88201 0.61673 0.21686
 C2043 C 0.89351 0.62692 0.20426
 C2044 C 0.88577 0.63482 0.18771
 C2045 C 0.86623 0.63269 0.18335
 C2046 C 0.85491 0.62214 0.19628
 C2047 C 0.88988 0.60904 0.23416
 C2048 C 0.89634 0.60276 0.24876
 C2049 C 0.90376 0.59559 0.26600
 C2050 C 0.90997 0.58963 0.28085
 C2051 C 0.91726 0.58273 0.29871
 C2052 C 0.92260 0.59565 0.31291
 C2053 C 0.92940 0.58903 0.33040
 C2054 C 0.93095 0.56935 0.33393
 C2055 C 0.92560 0.55646 0.31954
 C2056 C 0.91881 0.56312 0.30205
 H2057 H 0.85364 0.60658 0.22258
 H2058 H 0.90853 0.62875 0.20720
 H2059 H 0.89544 0.64198 0.17812
 H2060 H 0.83975 0.62056 0.19429
 H2061 H 0.92138 0.61086 0.31051
 H2062 H 0.93314 0.59930 0.34128
 H2063 H 0.92683 0.54124 0.32177
 H2064 H 0.91474 0.55299 0.29115
 C2065 C 0.38514 1.13643 0.21250
 C2066 C 0.38260 1.11714 0.21662
 C2067 C 0.37233 1.10564 0.20407
 C2068 C 0.36450 1.11341 0.18749
 C2069 C 0.36679 1.13296 0.18305
 C2070 C 0.37738 1.14428 0.19595
 C2071 C 0.39032 1.10925 0.23388
 C2072 C 0.39671 1.10287 0.24847
 C2073 C 0.40411 1.09564 0.26570
 C2074 C 0.41035 1.08966 0.28053
 C2075 C 0.41768 1.08278 0.29838
 C2076 C 0.41930 1.06318 0.30170
 C2077 C 0.42613 1.05653 0.31919
 C2078 C 0.43145 1.06944 0.33357
 C2079 C 0.42985 1.08911 0.33005
 C2080 C 0.42300 1.09572 0.31257
 H2081 H 0.39293 1.14552 0.22223
 H2082 H 0.37040 1.09061 0.20706
 H2083 H 0.35727 1.10374 0.17794
 H2084 H 0.37906 1.15946 0.19391
 H2085 H 0.41524 1.05304 0.29081
 H2086 H 0.42740 1.04132 0.32141
 H2087 H 0.43356 1.09939 0.34093
 H2088 H 0.42174 1.11092 0.31017
 C2089 C 0.37626 0.60545 0.70230
 C2090 C 0.38238 0.61744 0.71700
 C2091 C 0.38084 0.63722 0.71496
 C2092 C 0.37316 0.64499 0.69833
 C2093 C 0.36689 0.63307 0.68350
 C2094 C 0.36856 0.61320 0.68565
 C2095 C 0.39001 0.60951 0.73429
 C2096 C 0.39631 0.60307 0.74889
 C2097 C 0.40359 0.59575 0.76613
 C2098 C 0.40973 0.58971 0.78098
 C2099 C 0.41696 0.58276 0.79885
 C2100 C 0.42222 0.59566 0.81310
 C2101 C 0.42902 0.58901 0.83057
 C2102 C 0.43064 0.56932 0.83404
 C2103 C 0.42535 0.55646 0.81961
 C2104 C 0.41857 0.56315 0.80212
 H2105 H 0.37741 0.59012 0.70372
 H2106 H 0.38546 0.64663 0.72628
 H2107 H 0.37182 0.66032 0.69721
 H2108 H 0.36406 0.60366 0.67440
 H2109 H 0.42096 0.61087 0.81074
 H2110 H 0.43271 0.59926 0.84149
 H2111 H 0.42664 0.54123 0.82178
 H2112 H 0.41455 0.55304 0.79118
 C2113 C 1.10650 0.87588 0.70281
 C2114 C 1.11839 0.88203 0.71756
 C2115 C 1.13813 0.88059 0.71558
 C2116 C 1.14598 0.87297 0.69896
 C2117 C 1.13416 0.86665 0.68408
 C2118 C 1.11432 0.86823 0.68617
 C2119 C 1.11039 0.88961 0.73483
 C2120 C 1.10389 0.89588 0.74942
 C2121 C 1.09651 0.90313 0.76665
 C2122 C 1.09042 0.90925 0.78148
 C2123 C 1.08342 0.91648 0.79933
 C2124 C 1.09623 0.92191 0.81356
 C2125 C 1.08952 0.92874 0.83101
 C2126 C 1.06987 0.93021 0.83445
 C2127 C 1.05709 0.92474 0.82003
 C2128 C 1.06384 0.91793 0.80258
 H2129 H 1.09120 0.87696 0.70418
 H2130 H 1.14746 0.88525 0.72693
 H2131 H 1.16128 0.87171 0.69788
 H2132 H 1.10487 0.86370 0.67487
 H2133 H 1.11141 0.92077 0.81122
 H2134 H 1.09970 0.93256 0.84192
 H2135 H 1.04189 0.92591 0.82219
 H2136 H 1.05380 0.91378 0.79164
 C2137 C 1.13677 0.38550 0.21276
 C2138 C 1.11751 0.38295 0.21681
 C2139 C 1.10606 0.37276 0.20416
 C2140 C 1.11384 0.36501 0.18756
 C2141 C 1.13337 0.36728 0.18321
 C2142 C 1.14464 0.37781 0.19619
 C2143 C 1.10961 0.39053 0.23413
 C2144 C 1.10319 0.39679 0.24876
 C2145 C 1.09592 0.40401 0.26604
 C2146 C 1.08991 0.41009 0.28092
 C2147 C 1.08300 0.41726 0.29883
 C2148 C 1.06344 0.41870 0.30218
 C2149 C 1.05677 0.42542 0.31970
 C2150 C 1.06962 0.43081 0.33408
 C2151 C 1.08925 0.42935 0.33054
 C2152 C 1.09588 0.42262 0.31303
 H2153 H 1.14582 0.39323 0.22257
 H2154 H 1.09106 0.37083 0.20709
 H2155 H 1.10422 0.35784 0.17793
 H2156 H 1.15979 0.37949 0.19420
 H2157 H 1.05334 0.41461 0.29127
 H2158 H 1.04159 0.42658 0.32194
 H2159 H 1.09949 0.43312 0.34142
 H2160 H 1.11105 0.42148 0.31061
 C2161 C 0.60617 0.87665 0.20255
 C2162 C 0.61815 0.88277 0.21724
 C2163 C 0.63787 0.88121 0.21520
 C2164 C 0.64562 0.87349 0.19858
 C2165 C 0.63371 0.86720 0.18375
 C2166 C 0.61389 0.86891 0.18590
 C2167 C 0.61025 0.89042 0.23453
 C2168 C 0.60384 0.89672 0.24914
 C2169 C 0.59655 0.90400 0.26639
 C2170 C 0.59053 0.91012 0.28125
 C2171 C 0.58358 0.91733 0.29913
 C2172 C 0.59643 0.92271 0.31334
 C2173 C 0.58978 0.92947 0.33084
 C2174 C 0.57013 0.93092 0.33434
 C2175 C 0.55732 0.92552 0.31994
 C2176 C 0.56401 0.91877 0.30244
 H2177 H 0.59088 0.87782 0.20397
 H2178 H 0.64727 0.88584 0.22651
 H2179 H 0.66091 0.87213 0.19745
 H2180 H 0.60437 0.86440 0.17466
 H2181 H 0.61161 0.92158 0.31096
 H2182 H 0.59999 0.93324 0.34173
 H2183 H 0.54212 0.92667 0.32215
 H2184 H 0.55394 0.91466 0.29152
 C2185 C 0.63793 0.38096 0.71540
 C2186 C 0.61820 0.38247 0.71738
 C2187 C 0.60628 0.37635 0.70264
 C2188 C 0.61407 0.36867 0.68600
 C2189 C 0.63390 0.36702 0.68391
 C2190 C 0.64575 0.37329 0.69878
 C2191 C 0.61024 0.39011 0.73464
 C2192 C 0.60377 0.39642 0.74923
 C2193 C 0.59644 0.40372 0.76645
 C2194 C 0.59038 0.40987 0.78128
 C2195 C 0.58339 0.41712 0.79912
 C2196 C 0.56382 0.41853 0.80241
 C2197 C 0.55709 0.42533 0.81987
 C2198 C 0.56988 0.43082 0.83427
 C2199 C 0.58953 0.42941 0.83078
 C2200 C 0.59622 0.42260 0.81333
 H2201 H 0.64728 0.38559 0.72675
 H2202 H 0.59099 0.37749 0.70401
 H2203 H 0.60460 0.36417 0.67470
 H2204 H 0.66105 0.37198 0.69770
 H2205 H 0.55377 0.41435 0.79149
 H2206 H 0.54190 0.42645 0.82207
 H2207 H 0.59973 0.43325 0.84168
 H2208 H 0.61140 0.42149 0.81096
 C2209 C 1.29734 1.12373 1.10582
 C2210 C 1.28258 1.11781 1.11780
 C2211 C 1.28460 1.11939 1.13756
 C2212 C 1.30128 1.12689 1.14533
 C2213 C 1.31620 1.13293 1.13342
 C2214 C 1.31405 1.13126 1.11356
 C2215 C 1.26526 1.11030 1.10988
 C2216 C 1.25064 1.10408 1.10344
 C2217 C 1.23339 1.09688 1.09613
 C2218 C 1.21854 1.09079 1.09009
 C2219 C 1.20069 1.08359 1.08313
 C2220 C 1.18649 1.07821 1.09601
 C2221 C 1.16905 1.07140 1.08934
 C2222 C 1.16557 1.06988 1.06967
 C2223 C 1.17994 1.07530 1.05683
 C2224 C 1.19740 1.08210 1.06353
 H2225 H 1.29593 1.12256 1.09050
 H2226 H 1.27322 1.11492 1.14696
 H2227 H 1.30239 1.12828 1.16065
 H2228 H 1.32535 1.13562 1.10405
 H2229 H 1.18886 1.07937 1.11121
 H2230 H 1.15817 1.06761 1.09958
 H2231 H 1.17775 1.07410 1.04161
 H2232 H 1.20830 1.08621 1.05344
 C2233 C 1.28465 0.61894 0.63763
 C2234 C 1.28253 0.61742 0.61788
 C2235 C 1.29720 0.62347 0.60584
 C2236 C 1.31389 0.63110 0.61352
 C2237 C 1.31611 0.63276 0.63337
 C2238 C 1.30131 0.62655 0.64534
 C2239 C 1.26521 0.60987 0.61000
 C2240 C 1.25058 0.60365 0.60358
 C2241 C 1.23333 0.59646 0.59627
 C2242 C 1.21848 0.59039 0.59022
 C2243 C 1.20062 0.58323 0.58323
 C2244 C 1.19733 0.58180 0.56363
 C2245 C 1.17987 0.57504 0.55690
 C2246 C 1.16548 0.56962 0.56972
 C2247 C 1.16896 0.57108 0.58940
 C2248 C 1.18641 0.57784 0.59609
 H2249 H 1.27335 0.61437 0.64707
 H2250 H 1.29573 0.62232 0.59053
 H2251 H 1.32512 0.63555 0.60396
 H2252 H 1.30249 0.62789 0.66065
 H2253 H 1.20825 0.58591 0.55355
 H2254 H 1.17769 0.57389 0.54168
 H2255 H 1.15807 0.56728 0.59962
 H2256 H 1.18878 0.57896 0.61130
 C2257 C 0.79490 1.10668 0.62765
 C2258 C 0.78224 1.11841 0.61780
 C2259 C 0.78629 1.13778 0.61573
 C2260 C 0.80287 1.14546 0.62356
 C2261 C 0.81584 1.13390 0.63377
 C2262 C 0.81150 1.11427 0.63555
 C2263 C 0.76493 1.11067 0.61010
 C2264 C 0.75031 1.10430 0.60379
 C2265 C 0.73307 1.09696 0.59659
 C2266 C 0.71824 1.09079 0.59060
 C2267 C 0.70040 1.08355 0.58365
 C2268 C 0.69712 1.08204 0.56405
 C2269 C 0.67966 1.07525 0.55734
 C2270 C 0.66527 1.06986 0.57018
 C2271 C 0.66875 1.07138 0.58986
 C2272 C 0.68620 1.07818 0.59652
 H2273 H 0.79198 1.09160 0.62920
 H2274 H 0.77648 1.14704 0.60826
 H2275 H 0.80488 1.16068 0.62226
 H2276 H 0.82114 1.10443 0.64239
 H2277 H 0.70803 1.08614 0.55396
 H2278 H 0.67748 1.07405 0.54213
 H2279 H 0.65787 1.06761 0.60009
 H2280 H 0.68856 1.07936 0.61172
 C2281 C 0.79677 0.62485 1.10606
 C2282 C 0.78211 0.61858 1.11800
 C2283 C 0.78422 0.61979 1.13777
 C2284 C 0.80090 0.62726 1.14560
 C2285 C 0.81571 0.63364 1.13373
 C2286 C 0.81346 0.63234 1.11386
 C2287 C 0.76483 0.61105 1.11003
 C2288 C 0.75023 0.60478 1.10357
 C2289 C 0.73302 0.59750 1.09626
 C2290 C 0.71821 0.59133 1.09022
 C2291 C 0.70039 0.58403 1.08328
 C2292 C 0.68622 0.57859 1.09616
 C2293 C 0.66881 0.57169 1.08950
 C2294 C 0.66533 0.57015 1.06983
 C2295 C 0.67968 0.57562 1.05698
 C2296 C 0.69710 0.58251 1.06368
 H2297 H 0.79529 0.62395 1.09073
 H2298 H 0.77294 0.61505 1.14715
 H2299 H 0.80209 0.62832 1.16094
 H2300 H 0.82470 0.63694 1.10437
 H2301 H 0.68859 0.57978 1.11136
 H2302 H 0.65795 0.56787 1.09974
 H2303 H 0.67750 0.57440 1.04177
 H2304 H 0.70799 0.58665 1.05358
 C2305 C 1.29522 0.87191 0.89381
 C2306 C 1.28257 0.88213 0.88239
 C2307 C 1.28661 0.88478 0.86311
 C2308 C 1.30317 0.87717 0.85519
 C2309 C 1.31616 0.86662 0.86643
 C2310 C 1.31181 0.86423 0.88597
 C2311 C 1.26530 0.88969 0.89036
 C2312 C 1.25071 0.89595 0.89684
 C2313 C 1.23350 0.90320 0.90420
 C2314 C 1.21868 0.90933 0.91027
 C2315 C 1.20086 0.91657 0.91727
 C2316 C 1.18665 0.92198 0.90442
 C2317 C 1.16924 0.92883 0.91111
 C2318 C 1.16580 0.93036 0.93079
 C2319 C 1.18018 0.92492 0.94361
 C2320 C 1.19761 0.91808 0.93687
 H2321 H 1.29231 0.86990 0.90883
 H2322 H 1.27679 0.89254 0.85409
 H2323 H 1.30513 0.87892 0.84002
 H2324 H 1.32145 0.85703 0.89557
 H2325 H 1.18899 0.92080 0.88921
 H2326 H 1.15835 0.93263 0.90089
 H2327 H 1.17802 0.92612 0.95883
 H2328 H 1.20852 0.91395 0.94695
 C2329 C 1.28665 0.38476 0.36304
 C2330 C 1.28253 0.38196 0.38229
 C2331 C 1.29511 0.37160 0.39367
 C2332 C 1.31173 0.36398 0.38584
 C2333 C 1.31618 0.36656 0.36634
 C2334 C 1.30324 0.37720 0.35514
 C2335 C 1.26525 0.38952 0.39025
 C2336 C 1.25066 0.39581 0.39671
 C2337 C 1.23346 0.40311 0.40403
 C2338 C 1.21865 0.40929 0.41008
 C2339 C 1.20085 0.41660 0.41705
 C2340 C 1.19756 0.41809 0.43665
 C2341 C 1.18015 0.42496 0.44337
 C2342 C 1.16580 0.43047 0.43054
 C2343 C 1.16927 0.42897 0.41086
 C2344 C 1.18668 0.42208 0.40418
 H2345 H 1.27689 0.39261 0.35404
 H2346 H 1.29212 0.36947 0.40865
 H2347 H 1.32131 0.35667 0.39541
 H2348 H 1.30531 0.37909 0.33999
 H2349 H 1.20845 0.41391 0.44674
 H2350 H 1.17796 0.42615 0.45859
 H2351 H 1.15841 0.43282 0.40063
 H2352 H 1.18904 0.42092 0.38898
 C2353 C 0.79750 0.87630 0.39472
 C2354 C 0.78280 0.88249 0.38280
 C2355 C 0.78483 0.88113 0.36302
 C2356 C 0.80145 0.87354 0.35518
 C2357 C 0.81629 0.86721 0.36703
 C2358 C 0.81414 0.86870 0.38690
 C2359 C 0.76554 0.89006 0.39079
 C2360 C 0.75096 0.89632 0.39729
 C2361 C 0.73376 0.90357 0.40465
 C2362 C 0.71894 0.90971 0.41071
 C2363 C 0.70111 0.91695 0.41768
 C2364 C 0.68693 0.92236 0.40481
 C2365 C 0.66950 0.92920 0.41147
 C2366 C 0.66602 0.93073 0.43115
 C2367 C 0.68039 0.92529 0.44399
 C2368 C 0.69782 0.91845 0.43728
 H2369 H 0.79609 0.87732 0.41005
 H2370 H 0.77351 0.88581 0.35367
 H2371 H 0.80255 0.87233 0.33985
 H2372 H 0.82539 0.86413 0.39638
 H2373 H 0.68929 0.92118 0.38961
 H2374 H 0.65863 0.93300 0.40124
 H2375 H 0.67820 0.92649 0.45920
 H2376 H 0.70872 0.91433 0.44737
 C2377 C 0.79513 0.39363 0.87215
 C2378 C 0.78263 0.38216 0.88251
 C2379 C 0.78678 0.36288 0.88513
 C2380 C 0.80331 0.35503 0.87737
 C2381 C 0.81615 0.36633 0.86670
 C2382 C 0.81168 0.38587 0.86433
 C2383 C 0.76538 0.39006 0.89021
 C2384 C 0.75082 0.39651 0.89654
 C2385 C 0.73363 0.40391 0.90380
 C2386 C 0.71883 0.41011 0.90986
 C2387 C 0.70103 0.41738 0.91688
 C2388 C 0.69781 0.41886 0.93650
 C2389 C 0.68039 0.42565 0.94327
 C2390 C 0.66596 0.43106 0.93049
 C2391 C 0.66937 0.42956 0.91080
 C2392 C 0.68678 0.42276 0.90407
 H2393 H 0.79211 0.40865 0.87016
 H2394 H 0.77708 0.35381 0.89298
 H2395 H 0.80536 0.33987 0.87911
 H2396 H 0.82119 0.39551 0.85702
 H2397 H 0.70876 0.41474 0.94654
 H2398 H 0.67825 0.42683 0.95850
 H2399 H 0.65845 0.43334 0.90061
 H2400 H 0.68909 0.42159 0.88886
 C2401 C 0.70295 0.87549 1.10555
 C2402 C 0.71761 0.88176 1.11748
 C2403 C 0.71554 0.88049 1.13725
 C2404 C 0.69891 0.87295 1.14510
 C2405 C 0.68409 0.86656 1.13325
 C2406 C 0.68629 0.86793 1.11338
 C2407 C 0.73486 0.88936 1.10950
 C2408 C 0.74943 0.89568 1.10304
 C2409 C 0.76663 0.90301 1.09574
 C2410 C 0.78144 0.90922 1.08973
 C2411 C 0.79926 0.91655 1.08281
 C2412 C 0.81338 0.92204 1.09571
 C2413 C 0.83081 0.92893 1.08909
 C2414 C 0.83434 0.93043 1.06942
 C2415 C 0.82003 0.92493 1.05655
 C2416 C 0.80259 0.91804 1.06322
 H2417 H 0.70439 0.87644 1.09022
 H2418 H 0.72684 0.88523 1.14661
 H2419 H 0.69776 0.87183 1.16044
 H2420 H 0.67505 0.86332 1.10390
 H2421 H 0.81098 0.92087 1.11091
 H2422 H 0.84164 0.93279 1.09935
 H2423 H 0.82226 0.92611 1.04134
 H2424 H 0.79174 0.91385 1.05310
 C2425 C 0.70471 0.37212 0.60623
 C2426 C 0.71728 0.38243 0.61767
 C2427 C 0.71316 0.38510 0.63693
 C2428 C 0.69660 0.37744 0.64480
 C2429 C 0.68368 0.36683 0.63354
 C2430 C 0.68812 0.36439 0.61402
 C2431 C 0.73456 0.39004 0.60976
 C2432 C 0.74916 0.39632 0.60331
 C2433 C 0.76639 0.40353 0.59596
 C2434 C 0.78122 0.40954 0.58981
 C2435 C 0.79907 0.41653 0.58262
 C2436 C 0.80236 0.43615 0.58119
 C2437 C 0.81983 0.44288 0.57447
 C2438 C 0.83423 0.43005 0.56909
 C2439 C 0.83075 0.41036 0.57054
 C2440 C 0.81329 0.40366 0.57726
 H2441 H 0.70771 0.37008 0.59124
 H2442 H 0.72291 0.39291 0.64598
 H2443 H 0.69455 0.37923 0.65995
 H2444 H 0.67856 0.35712 0.60441
 H2445 H 0.79144 0.44623 0.58528
 H2446 H 0.82202 0.45812 0.57332
 H2447 H 0.84165 0.40013 0.56677
 H2448 H 0.81092 0.38844 0.57839
 C2449 C 0.20492 0.87187 0.60635
 C2450 C 0.21748 0.88222 0.61776
 C2451 C 0.21337 0.88490 0.63703
 C2452 C 0.19683 0.87722 0.64492
 C2453 C 0.18392 0.86656 0.63368
 C2454 C 0.18835 0.86412 0.61416
 C2455 C 0.23473 0.88986 0.60982
 C2456 C 0.24930 0.89616 0.60332
 C2457 C 0.26649 0.90340 0.59589
 C2458 C 0.28128 0.90945 0.58968
 C2459 C 0.29908 0.91648 0.58241
 C2460 C 0.30229 0.93611 0.58092
 C2461 C 0.31972 0.94290 0.57415
 C2462 C 0.33416 0.93012 0.56875
 C2463 C 0.33075 0.91041 0.57024
 C2464 C 0.31333 0.90366 0.57702
 H2465 H 0.20790 0.86983 0.59135
 H2466 H 0.22311 0.89275 0.64605
 H2467 H 0.19479 0.87902 0.66007
 H2468 H 0.17880 0.85682 0.60457
 H2469 H 0.29135 0.94617 0.58503
 H2470 H 0.32185 0.95814 0.57297
 H2471 H 0.34168 0.90022 0.56647
 H2472 H 0.31103 0.88844 0.57819
 C2473 C 0.21533 0.38090 1.13772
 C2474 C 0.21746 0.38220 1.11795
 C2475 C 0.20284 0.37594 1.10597
 C2476 C 0.18616 0.36834 1.11373
 C2477 C 0.18391 0.36693 1.13359
 C2478 C 0.19868 0.37333 1.14550
 C2479 C 0.23475 0.38976 1.11002
 C2480 C 0.24935 0.39599 1.10353
 C2481 C 0.26657 0.40316 1.09612
 C2482 C 0.28139 0.40914 1.08992
 C2483 C 0.29922 0.41612 1.08266
 C2484 C 0.31344 0.40325 1.07731
 C2485 C 0.33089 0.40995 1.07054
 C2486 C 0.33436 0.42965 1.06905
 C2487 C 0.31994 0.44248 1.07442
 C2488 C 0.30249 0.43574 1.08118
 H2489 H 0.22659 0.38564 1.14712
 H2490 H 0.20433 0.37690 1.09065
 H2491 H 0.17496 0.36373 1.10421
 H2492 H 0.19748 0.37219 1.16083
 H2493 H 0.31109 0.38804 1.07848
 H2494 H 0.34179 0.39973 1.06679
 H2495 H 0.32212 0.45771 1.07324
 H2496 H 0.29157 0.44582 1.08527
 C2497 C 0.70480 1.12750 0.89375
 C2498 C 0.71736 1.11724 0.88226
 C2499 C 0.71325 1.11468 0.86298
 C2500 C 0.69671 1.12243 0.85514
 C2501 C 0.68383 1.13304 0.86645
 C2502 C 0.68824 1.13532 0.88599
 C2503 C 0.73463 1.10958 0.89014
 C2504 C 0.74922 1.10327 0.89656
 C2505 C 0.76644 1.09598 0.90385
 C2506 C 0.78128 1.08984 0.90987
 C2507 C 0.79913 1.08263 0.91682
 C2508 C 0.81331 1.07723 0.90394
 C2509 C 0.83077 1.07047 0.91059
 C2510 C 0.83429 1.06902 0.93026
 C2511 C 0.81992 1.07444 0.94311
 C2512 C 0.80245 1.08119 0.93642
 H2513 H 0.70778 1.12944 0.90876
 H2514 H 0.72298 1.10689 0.85390
 H2515 H 0.69467 1.12074 0.83998
 H2516 H 0.67869 1.14253 0.89565
 H2517 H 0.81092 1.07836 0.88874
 H2518 H 0.84164 1.06669 0.90035
 H2519 H 0.82214 1.07329 0.95833
 H2520 H 0.79156 1.08530 0.94652
 C2521 C 0.71571 0.61931 0.36198
 C2522 C 0.71770 0.61780 0.38174
 C2523 C 0.70301 0.62397 0.39368
 C2524 C 0.68642 0.63170 0.38589
 C2525 C 0.68431 0.63334 0.36603
 C2526 C 0.69914 0.62701 0.35416
 C2527 C 0.73492 0.61011 0.38971
 C2528 C 0.74946 0.60375 0.39619
 C2529 C 0.76664 0.59641 0.40353
 C2530 C 0.78143 0.59021 0.40960
 C2531 C 0.79923 0.58292 0.41659
 C2532 C 0.80247 0.58139 0.43620
 C2533 C 0.81989 0.57455 0.44294
 C2534 C 0.83430 0.56915 0.43012
 C2535 C 0.83086 0.57069 0.41044
 C2536 C 0.81345 0.57753 0.40374
 H2537 H 0.72702 0.61463 0.35260
 H2538 H 0.70439 0.62284 0.40901
 H2539 H 0.67516 0.63624 0.39539
 H2540 H 0.69805 0.62832 0.33883
 H2541 H 0.79154 0.58550 0.44627
 H2542 H 0.82204 0.57334 0.45815
 H2543 H 0.84176 0.56691 0.40023
 H2544 H 0.81112 0.57873 0.38854
 C2545 C 0.21375 1.11548 0.36204
 C2546 C 0.21778 1.11790 0.38136
 C2547 C 0.20512 1.12797 0.39289
 C2548 C 0.18850 1.13569 0.38516
 C2549 C 0.18412 1.13348 0.36559
 C2550 C 0.19716 1.12313 0.35422
 C2551 C 0.23507 1.11025 0.38923
 C2552 C 0.24965 1.10391 0.39563
 C2553 C 0.26685 1.09656 0.40291
 C2554 C 0.28165 1.09035 0.40895
 C2555 C 0.29945 1.08304 0.41594
 C2556 C 0.30266 1.08148 0.43555
 C2557 C 0.32007 1.07463 0.44230
 C2558 C 0.33450 1.06924 0.42950
 C2559 C 0.33109 1.07079 0.40982
 C2560 C 0.31368 1.07765 0.40310
 H2561 H 0.22359 1.10786 0.35293
 H2562 H 0.20804 1.12982 0.40793
 H2563 H 0.17885 1.14277 0.39483
 H2564 H 0.19522 1.12158 0.33903
 H2565 H 0.29173 1.08558 0.44561
 H2566 H 0.32221 1.07340 0.45752
 H2567 H 0.34200 1.06703 0.39961
 H2568 H 0.31137 1.07887 0.38790
 C2569 C 0.20247 0.62303 0.89427
 C2570 C 0.21710 0.61686 0.88225
 C2571 C 0.21501 0.61838 0.86249
 C2572 C 0.19840 0.62610 0.85477
 C2573 C 0.18364 0.63243 0.86672
 C2574 C 0.18585 0.63078 0.88657
 C2575 C 0.23437 0.60919 0.89013
 C2576 C 0.24895 0.60285 0.89653
 C2577 C 0.26617 0.59554 0.90381
 C2578 C 0.28100 0.58939 0.90983
 C2579 C 0.29884 0.58216 0.91678
 C2580 C 0.31306 0.57685 0.90390
 C2581 C 0.33053 0.57009 0.91055
 C2582 C 0.33401 0.56856 0.93023
 C2583 C 0.31960 0.57388 0.94307
 C2584 C 0.30212 0.58063 0.93637
 H2585 H 0.20394 0.62189 0.90958
 H2586 H 0.22627 0.61372 0.85306
 H2587 H 0.19724 0.62743 0.83945
 H2588 H 0.17465 0.63532 0.89612
 H2589 H 0.31070 0.57806 0.88870
 H2590 H 0.34142 0.56638 0.90032
 H2591 H 0.32178 0.57266 0.95829
 H2592 H 0.29120 0.58467 0.94647
 C2593 C 1.11967 1.28508 1.13752
 C2594 C 1.11810 1.28311 1.11776
 C2595 C 1.12413 1.29790 1.10582
 C2596 C 1.13173 1.31458 1.11361
 C2597 C 1.13337 1.31669 1.13347
 C2598 C 1.12725 1.30174 1.14534
 C2599 C 1.11047 1.26583 1.10980
 C2600 C 1.10413 1.25125 1.10333
 C2601 C 1.09677 1.23403 1.09601
 C2602 C 1.09055 1.21922 1.08996
 C2603 C 1.08320 1.20140 1.08298
 C2604 C 1.08171 1.19813 1.06338
 C2605 C 1.07481 1.18069 1.05665
 C2606 C 1.06930 1.16629 1.06948
 C2607 C 1.07080 1.16976 1.08915
 C2608 C 1.07771 1.18719 1.09584
 H2609 H 1.11513 1.27369 1.14690
 H2610 H 1.12296 1.29653 1.09050
 H2611 H 1.13617 1.32592 1.10413
 H2612 H 1.12861 1.30281 1.16066
 H2613 H 1.08589 1.20904 1.05330
 H2614 H 1.07362 1.17851 1.04143
 H2615 H 1.06695 1.15887 1.09938
 H2616 H 1.07888 1.18955 1.11104
 C2617 C 1.12027 0.78461 0.63781
 C2618 C 1.11859 0.78264 0.61805
 C2619 C 1.12461 0.79741 0.60608
 C2620 C 1.13232 0.81406 0.61383
 C2621 C 1.13408 0.81616 0.63368
 C2622 C 1.12796 0.80124 0.64559
 C2623 C 1.11082 0.76540 0.61013
 C2624 C 1.10438 0.75085 0.60369
 C2625 C 1.09690 0.73368 0.59638
 C2626 C 1.09059 0.71890 0.59032
 C2627 C 1.08316 0.70112 0.58332
 C2628 C 1.08165 0.69789 0.56371
 C2629 C 1.07470 0.68048 0.55695
 C2630 C 1.06917 0.66607 0.56975
 C2631 C 1.07068 0.66950 0.58943
 C2632 C 1.07763 0.68691 0.59615
 H2633 H 1.11572 0.77324 0.64721
 H2634 H 1.12335 0.79604 0.59077
 H2635 H 1.13673 0.82538 0.60432
 H2636 H 1.12939 0.80231 0.66090
 H2637 H 1.08586 0.70881 0.55365
 H2638 H 1.07352 0.67834 0.54173
 H2639 H 1.06680 0.65860 0.59963
 H2640 H 1.07881 0.68923 0.61136
 C2641 C 0.61986 1.28502 0.63761
 C2642 C 0.61818 1.28306 0.61786
 C2643 C 0.62422 1.29782 0.60588
 C2644 C 0.63195 1.31446 0.61364
 C2645 C 0.63371 1.31655 0.63349
 C2646 C 0.62757 1.30164 0.64539
 C2647 C 0.61041 1.26582 0.60993
 C2648 C 0.60395 1.25127 0.60351
 C2649 C 0.59647 1.23409 0.59622
 C2650 C 0.59016 1.21931 0.59019
 C2651 C 0.58273 1.20151 0.58322
 C2652 C 0.58127 1.19822 0.56362
 C2653 C 0.57435 1.18079 0.55690
 C2654 C 0.56879 1.16642 0.56973
 C2655 C 0.57022 1.16992 0.58941
 C2656 C 0.57715 1.18735 0.59609
 H2657 H 0.61531 1.27365 0.64701
 H2658 H 0.62296 1.29646 0.59057
 H2659 H 0.63637 1.32578 0.60413
 H2660 H 0.62900 1.30270 0.66070
 H2661 H 0.58553 1.20910 0.55354
 H2662 H 0.57322 1.17859 0.54168
 H2663 H 0.56631 1.15905 0.59963
 H2664 H 0.57829 1.18972 0.61129
 C2665 C 0.61909 0.78505 1.13766
 C2666 C 0.61763 0.78296 1.11790
 C2667 C 0.62392 0.79759 1.10590
 C2668 C 0.63169 0.81422 1.11362
 C2669 C 0.63325 0.81644 1.13348
 C2670 C 0.62683 0.80167 1.14541
 C2671 C 0.60987 0.76571 1.11000
 C2672 C 0.60345 0.75114 1.10358
 C2673 C 0.59602 0.73395 1.09629
 C2674 C 0.58975 0.71915 1.09026
 C2675 C 0.58238 0.70134 1.08328
 C2676 C 0.58090 0.69807 1.06367
 C2677 C 0.57403 0.68062 1.05694
 C2678 C 0.56855 0.66622 1.06976
 C2679 C 0.57002 0.66968 1.08944
 C2680 C 0.57690 0.68712 1.09613
 H2681 H 0.61433 0.77379 1.14708
 H2682 H 0.62284 0.79612 1.09058
 H2683 H 0.63632 0.82543 1.10409
 H2684 H 0.62810 0.80282 1.16073
 H2685 H 0.58508 0.70899 1.05360
 H2686 H 0.57287 0.67845 1.04172
 H2687 H 0.56619 0.65878 1.09965
 H2688 H 0.57807 0.68947 1.11133
 C2689 C 0.87619 1.29763 0.89397
 C2690 C 0.88199 1.28277 0.88200
 C2691 C 0.88003 1.28461 0.86226
 C2692 C 0.87222 1.30119 0.85449
 C2693 C 0.86625 1.31617 0.86639
 C2694 C 0.86836 1.31423 0.88622
 C2695 C 0.88974 1.26553 0.88993
 C2696 C 0.89614 1.25096 0.89638
 C2697 C 0.90351 1.23375 0.90369
 C2698 C 0.90972 1.21892 0.90972
 C2699 C 0.91701 1.20107 0.91668
 C2700 C 0.92244 1.18686 0.90381
 C2701 C 0.92926 1.16939 0.91048
 C2702 C 0.93075 1.16589 0.93015
 C2703 C 0.92531 1.18029 0.94299
 C2704 C 0.91849 1.19777 0.93628
 H2705 H 0.87768 1.29636 0.90927
 H2706 H 0.88441 1.27318 0.85288
 H2707 H 0.87056 1.30218 0.83919
 H2708 H 0.86412 1.32561 0.89572
 H2709 H 0.92128 1.18924 0.88861
 H2710 H 0.93307 1.15850 0.90024
 H2711 H 0.92648 1.17809 0.95821
 H2712 H 0.91436 1.20869 0.94638
 C2713 C 0.88060 0.78511 0.36287
 C2714 C 0.88193 0.78301 0.38263
 C2715 C 0.87567 0.79767 0.39460
 C2716 C 0.86805 0.81436 0.38684
 C2717 C 0.86661 0.81659 0.36697
 C2718 C 0.87300 0.80178 0.35507
 C2719 C 0.88956 0.76571 0.39057
 C2720 C 0.89588 0.75110 0.39699
 C2721 C 0.90321 0.73385 0.40426
 C2722 C 0.90941 0.71900 0.41026
 C2723 C 0.91671 0.70113 0.41716
 C2724 C 0.91818 0.69777 0.43675
 C2725 C 0.92502 0.68028 0.44340
 C2726 C 0.93050 0.66593 0.43052
 C2727 C 0.92902 0.66949 0.41086
 C2728 C 0.92217 0.68698 0.40424
 H2729 H 0.88533 0.77382 0.35347
 H2730 H 0.87667 0.79620 0.40993
 H2731 H 0.86345 0.82559 0.39635
 H2732 H 0.87183 0.80295 0.33974
 H2733 H 0.91401 0.70864 0.44687
 H2734 H 0.92619 0.67803 0.45861
 H2735 H 0.93285 0.65864 0.40059
 H2736 H 0.92102 0.68940 0.38905
 C2737 C 0.37564 1.29757 0.39364
 C2738 C 0.38143 1.28277 0.38161
 C2739 C 0.37959 1.28477 0.36187
 C2740 C 0.37198 1.30148 0.35417
 C2741 C 0.36610 1.31644 0.36614
 C2742 C 0.36800 1.31430 0.38598
 C2743 C 0.38911 1.26546 0.38946
 C2744 C 0.39548 1.25085 0.39585
 C2745 C 0.40287 1.23363 0.40314
 C2746 C 0.40912 1.21883 0.40919
 C2747 C 0.41649 1.20102 0.41620
 C2748 C 0.42208 1.18683 0.40338
 C2749 C 0.42901 1.16942 0.41010
 C2750 C 0.43043 1.16596 0.42979
 C2751 C 0.42483 1.18034 0.44258
 C2752 C 0.41791 1.19776 0.43581
 H2753 H 0.37701 1.29618 0.40895
 H2754 H 0.38395 1.27338 0.35242
 H2755 H 0.37042 1.30258 0.33887
 H2756 H 0.36375 1.32564 0.39553
 H2757 H 0.42097 1.18917 0.38817
 H2758 H 0.43294 1.15854 0.39991
 H2759 H 0.42595 1.17818 0.45781
 H2760 H 0.41365 1.20866 0.44587
 C2761 C 0.37524 0.79744 0.89417
 C2762 C 0.38133 0.78269 0.88222
 C2763 C 0.37983 0.78470 0.86246
 C2764 C 0.37223 0.80136 0.85464
 C2765 C 0.36600 0.81625 0.86652
 C2766 C 0.36762 0.81412 0.88638
 C2767 C 0.38893 0.76540 0.89019
 C2768 C 0.39524 0.75079 0.89665
 C2769 C 0.40254 0.73355 0.90398
 C2770 C 0.40871 0.71872 0.91003
 C2771 C 0.41600 0.70087 0.91699
 C2772 C 0.42152 0.68669 0.90412
 C2773 C 0.42840 0.66924 0.91079
 C2774 C 0.42985 0.66573 0.93047
 C2775 C 0.42430 0.68009 0.94331
 C2776 C 0.41743 0.69755 0.93659
 H2777 H 0.37636 0.79605 0.90949
 H2778 H 0.38443 0.77334 0.85308
 H2779 H 0.37093 0.80245 0.83932
 H2780 H 0.36314 0.82542 0.89588
 H2781 H 0.42041 0.68908 0.88892
 H2782 H 0.43229 0.65838 0.90056
 H2783 H 0.42544 0.67787 0.95852
 H2784 H 0.41322 0.70843 0.94668
 C2785 C 1.13759 0.71466 0.88117
 C2786 C 1.11786 0.71675 0.88262
 C2787 C 1.10588 0.70208 0.87644
 C2788 C 1.11360 0.68540 0.86875
 C2789 C 1.13342 0.68319 0.86717
 C2790 C 1.14533 0.69800 0.87350
 C2791 C 1.10997 0.73406 0.89027
 C2792 C 1.10354 0.74867 0.89659
 C2793 C 1.09624 0.76591 0.90390
 C2794 C 1.09020 0.78076 0.91006
 C2795 C 1.08324 0.79862 0.91733
 C2796 C 1.06367 0.80190 0.91881
 C2797 C 1.05695 0.81938 0.92562
 C2798 C 1.06976 0.83380 0.93105
 C2799 C 1.08940 0.83032 0.92956
 C2800 C 1.09608 0.81285 0.92274
 H2801 H 1.14699 0.72596 0.88584
 H2802 H 1.09059 0.70355 0.87752
 H2803 H 1.10408 0.67417 0.86419
 H2804 H 1.16063 0.69685 0.87222
 H2805 H 1.05360 0.79097 0.91468
 H2806 H 1.04176 0.82156 0.92680
 H2807 H 1.09961 0.84123 0.93335
 H2808 H 1.11125 0.81049 0.92158
 C2809 C 1.12538 0.20265 0.39380
 C2810 C 1.11921 0.21742 0.38191
 C2811 C 1.12065 0.21547 0.36213
 C2812 C 1.12825 0.19885 0.35425
 C2813 C 1.13453 0.18392 0.36606
 C2814 C 1.13301 0.18600 0.38594
 C2815 C 1.11153 0.23465 0.38993
 C2816 C 1.10514 0.24920 0.39643
 C2817 C 1.09771 0.26637 0.40378
 C2818 C 1.09142 0.28116 0.40985
 C2819 C 1.08399 0.29894 0.41683
 C2820 C 1.07851 0.31316 0.40398
 C2821 C 1.07152 0.33055 0.41067
 C2822 C 1.06993 0.33398 0.43035
 C2823 C 1.07543 0.31958 0.44317
 C2824 C 1.08241 0.30217 0.43643
 H2825 H 1.12431 0.20400 0.40913
 H2826 H 1.11597 0.22684 0.35280
 H2827 H 1.12947 0.19778 0.33892
 H2828 H 1.13754 0.17468 0.39538
 H2829 H 1.07975 0.31084 0.38878
 H2830 H 1.06768 0.34145 0.40046
 H2831 H 1.07418 0.32172 0.45838
 H2832 H 1.08659 0.29125 0.44651
 C2833 C 0.63824 0.71547 0.38011
 C2834 C 0.61852 0.71747 0.38178
 C2835 C 0.60655 0.70272 0.37575
 C2836 C 0.61426 0.68606 0.36803
 C2837 C 0.63407 0.68393 0.36626
 C2838 C 0.64598 0.69882 0.37241
 C2839 C 0.61063 0.73474 0.38952
 C2840 C 0.60420 0.74931 0.39593
 C2841 C 0.59689 0.76650 0.40336
 C2842 C 0.59083 0.78130 0.40962
 C2843 C 0.58382 0.79910 0.41700
 C2844 C 0.56424 0.80233 0.41846
 C2845 C 0.55747 0.81975 0.42535
 C2846 C 0.57023 0.83417 0.43089
 C2847 C 0.58988 0.83074 0.42944
 C2848 C 0.59661 0.81332 0.42254
 H2849 H 0.64764 0.72682 0.38466
 H2850 H 0.59126 0.70412 0.37700
 H2851 H 0.60475 0.67476 0.36360
 H2852 H 0.66127 0.69773 0.37098
 H2853 H 0.55421 0.79140 0.41424
 H2854 H 0.54227 0.82189 0.42650
 H2855 H 0.60005 0.84165 0.43333
 H2856 H 0.61180 0.81100 0.42140
 C2857 C 0.63848 0.21540 0.88027
 C2858 C 0.61875 0.21741 0.88189
 C2859 C 0.60678 0.20265 0.87591
 C2860 C 0.61450 0.18594 0.86828
 C2861 C 0.63432 0.18379 0.86657
 C2862 C 0.64622 0.19871 0.87266
 C2863 C 0.61086 0.23472 0.88954
 C2864 C 0.60442 0.24932 0.89588
 C2865 C 0.59711 0.26654 0.90323
 C2866 C 0.59104 0.28135 0.90945
 C2867 C 0.58401 0.29917 0.91678
 C2868 C 0.56443 0.30235 0.91830
 C2869 C 0.55764 0.31978 0.92518
 C2870 C 0.57039 0.33424 0.93064
 C2871 C 0.59005 0.33086 0.92911
 C2872 C 0.59679 0.31344 0.92223
 H2873 H 0.64787 0.22677 0.88477
 H2874 H 0.59149 0.20405 0.87712
 H2875 H 0.60500 0.17463 0.86388
 H2876 H 0.66151 0.19761 0.87125
 H2877 H 0.55441 0.29139 0.91415
 H2878 H 0.54244 0.32189 0.92639
 H2879 H 0.60021 0.34180 0.93293
 H2880 H 0.61198 0.31115 0.92103
 C2881 C 0.87583 0.70246 1.10630
 C2882 C 0.88193 0.71717 1.11830
 C2883 C 0.88039 0.71510 1.13806
 C2884 C 0.87276 0.69842 1.14581
 C2885 C 0.86654 0.68357 1.13388
 C2886 C 0.86817 0.68577 1.11403
 C2887 C 0.88958 0.73447 1.11040
 C2888 C 0.89591 0.74908 1.10396
 C2889 C 0.90325 0.76630 1.09664
 C2890 C 0.90945 0.78112 1.09058
 C2891 C 0.91677 0.79895 1.08357
 C2892 C 0.92219 0.81320 1.09640
 C2893 C 0.92908 0.83063 1.08968
 C2894 C 0.93063 0.83405 1.06999
 C2895 C 0.92518 0.81961 1.05720
 C2896 C 0.91831 0.80217 1.06396
 H2897 H 0.87697 0.70391 1.09098
 H2898 H 0.88499 0.72642 1.14748
 H2899 H 0.87141 0.69728 1.16113
 H2900 H 0.86367 0.67451 1.10449
 H2901 H 0.92099 0.81089 1.11161
 H2902 H 0.93288 0.84156 1.09988
 H2903 H 0.92640 0.82175 1.04198
 H2904 H 0.91417 0.79123 1.05390
 C2905 C 0.86191 0.21560 0.62061
 C2906 C 0.88165 0.21748 0.61909
 C2907 C 0.89349 0.20264 0.62518
 C2908 C 0.88561 0.18600 0.63279
 C2909 C 0.86577 0.18398 0.63439
 C2910 C 0.85400 0.19898 0.62820
 C2911 C 0.88970 0.23470 0.61140
 C2912 C 0.89622 0.24924 0.60500
 C2913 C 0.90360 0.26640 0.59756
 C2914 C 0.90969 0.28117 0.59126
 C2915 C 0.91672 0.29893 0.58381
 C2916 C 0.93630 0.30213 0.58228
 C2917 C 0.94307 0.31951 0.57528
 C2918 C 0.93032 0.33393 0.56971
 C2919 C 0.91067 0.33054 0.57125
 C2920 C 0.90393 0.31316 0.57826
 H2921 H 0.85262 0.22701 0.61600
 H2922 H 0.90879 0.20394 0.62405
 H2923 H 0.89501 0.17463 0.63725
 H2924 H 0.83870 0.19796 0.62948
 H2925 H 0.94633 0.29120 0.58651
 H2926 H 0.95827 0.32163 0.57407
 H2927 H 0.90050 0.34144 0.56735
 H2928 H 0.88875 0.31087 0.57946
 C2929 C 0.39394 0.70223 0.62339
 C2930 C 0.38198 0.71699 0.61739
 C2931 C 0.36226 0.71498 0.61901
 C2932 C 0.35450 0.69831 0.62666
 C2933 C 0.36640 0.68342 0.63282
 C2934 C 0.38622 0.68555 0.63107
 C2935 C 0.38990 0.73431 0.60980
 C2936 C 0.39635 0.74894 0.60354
 C2937 C 0.40370 0.76620 0.59630
 C2938 C 0.40978 0.78105 0.59020
 C2939 C 0.41679 0.79892 0.58299
 C2940 C 0.40399 0.81315 0.57750
 C2941 C 0.41070 0.83061 0.57070
 C2942 C 0.43035 0.83408 0.56929
 C2943 C 0.44312 0.81967 0.57482
 C2944 C 0.43637 0.80220 0.58162
 H2945 H 0.40923 0.70363 0.62218
 H2946 H 0.35287 0.72635 0.61448
 H2947 H 0.33921 0.69722 0.62808
 H2948 H 0.39573 0.67425 0.63548
 H2949 H 0.38880 0.81079 0.57858
 H2950 H 0.40051 0.84151 0.56683
 H2951 H 0.45832 0.82185 0.57371
 H2952 H 0.44641 0.79127 0.58581
 C2953 C 0.38058 0.21487 1.13728
 C2954 C 0.38190 0.21693 1.11751
 C2955 C 0.37555 0.20227 1.10558
 C2956 C 0.36787 0.18563 1.11339
 C2957 C 0.36647 0.18344 1.13326
 C2958 C 0.37292 0.19825 1.14512
 C2959 C 0.38963 0.23416 1.10954
 C2960 C 0.39605 0.24872 1.10310
 C2961 C 0.40351 0.26591 1.09581
 C2962 C 0.40981 0.28071 1.08980
 C2963 C 0.41722 0.29853 1.08288
 C2964 C 0.41886 0.30180 1.06329
 C2965 C 0.42577 0.31926 1.05662
 C2966 C 0.43115 0.33366 1.06948
 C2967 C 0.42953 0.33018 1.08914
 C2968 C 0.42261 0.31273 1.09578
 H2969 H 0.38538 0.22615 1.14665
 H2970 H 0.37653 0.20371 1.09025
 H2971 H 0.36321 0.17439 1.10391
 H2972 H 0.37179 0.19710 1.16046
 H2973 H 0.41475 0.29089 1.05318
 H2974 H 0.42705 0.32144 1.04141
 H2975 H 0.43329 0.34107 1.09939
 H2976 H 0.42133 0.31037 1.11097
 C2977 C 1.10605 1.12323 0.70227
 C2978 C 1.11800 1.11739 0.71710
 C2979 C 1.13772 1.11920 0.71518
 C2980 C 1.14547 1.12691 0.69855
 C2981 C 1.13358 1.13294 0.68361
 C2982 C 1.11378 1.13096 0.68563
 C2983 C 1.11009 1.10975 0.73439
 C2984 C 1.10363 1.10346 0.74900
 C2985 C 1.09630 1.09620 0.76624
 C2986 C 1.09023 1.09008 0.78109
 C2987 C 1.08324 1.08287 0.79895
 C2988 C 1.09606 1.07752 0.81321
 C2989 C 1.08937 1.07074 0.83068
 C2990 C 1.06972 1.06922 0.83413
 C2991 C 1.05693 1.07460 0.81969
 C2992 C 1.06367 1.08138 0.80221
 H2993 H 1.09077 1.12185 0.70360
 H2994 H 1.14710 1.11478 0.72659
 H2995 H 1.16075 1.12847 0.69751
 H2996 H 1.10428 1.13524 0.67427
 H2997 H 1.11124 1.07870 0.81087
 H2998 H 1.09956 1.06698 0.84161
 H2999 H 1.04174 1.07340 0.82185
 H3000 H 1.05361 1.08546 0.79126
 C3001 C 1.10685 0.62728 0.20460
 C3002 C 1.11846 0.61733 0.21730
 C3003 C 1.13778 0.61516 0.21330
 C3004 C 1.14554 0.62298 0.19673
 C3005 C 1.13410 0.63330 0.18372
 C3006 C 1.11452 0.63517 0.18801
 C3007 C 1.11064 0.60963 0.23461
 C3008 C 1.10421 0.60333 0.24922
 C3009 C 1.09681 0.59612 0.26646
 C3010 C 1.09059 0.59013 0.28129
 C3011 C 1.08328 0.58318 0.29913
 C3012 C 1.08181 0.56357 0.30244
 C3013 C 1.07498 0.55686 0.31990
 C3014 C 1.06951 0.56971 0.33428
 C3015 C 1.07099 0.58940 0.33077
 C3016 C 1.07784 0.59607 0.31332
 H3017 H 1.09181 0.62890 0.20748
 H3018 H 1.14695 0.60761 0.22314
 H3019 H 1.16072 0.62160 0.19476
 H3020 H 1.10477 0.64209 0.17834
 H3021 H 1.08597 0.55346 0.29154
 H3022 H 1.07380 0.54163 0.32211
 H3023 H 1.06717 0.59965 0.34165
 H3024 H 1.07900 0.61128 0.31093
 C3025 C 0.61984 1.13808 0.21544
 C3026 C 0.61847 1.11831 0.21759
 C3027 C 0.62480 1.10628 0.20300
 C3028 C 0.63251 1.11401 0.18634
 C3029 C 0.63396 1.13388 0.18406
 C3030 C 0.62752 1.14583 0.19880
 C3031 C 0.61077 1.11042 0.23486
 C3032 C 0.60442 1.10399 0.24945
 C3033 C 0.59711 1.09664 0.26667
 C3034 C 0.59102 1.09050 0.28149
 C3035 C 0.58396 1.08329 0.29933
 C3036 C 0.59671 1.07794 0.31365
 C3037 C 0.58993 1.07119 0.33110
 C3038 C 0.57027 1.06970 0.33446
 C3039 C 0.55755 1.07509 0.31996
 C3040 C 0.56437 1.08183 0.30251
 H3041 H 0.61505 1.14752 0.22667
 H3042 H 0.62380 1.09095 0.20452
 H3043 H 0.63715 1.10445 0.17516
 H3044 H 0.62869 1.16117 0.19758
 H3045 H 0.61190 1.07910 0.31138
 H3046 H 0.60008 1.06743 0.34207
 H3047 H 0.54235 1.07391 0.32206
 H3048 H 0.55437 1.08592 0.29151
 C3049 C 0.62403 0.60565 0.70270
 C3050 C 0.61786 0.61765 0.71737
 C3051 C 0.61939 0.63742 0.71533
 C3052 C 0.62711 0.64520 0.69872
 C3053 C 0.63341 0.63327 0.68390
 C3054 C 0.63176 0.61340 0.68606
 C3055 C 0.61015 0.60973 0.73463
 C3056 C 0.60376 0.60332 0.74921
 C3057 C 0.59637 0.59606 0.76642
 C3058 C 0.59015 0.59006 0.78125
 C3059 C 0.58282 0.58315 0.79909
 C3060 C 0.57737 0.59607 0.81325
 C3061 C 0.57053 0.58944 0.83072
 C3062 C 0.56906 0.56976 0.83427
 C3063 C 0.57451 0.55688 0.81992
 C3064 C 0.58135 0.56354 0.80244
 H3065 H 0.62287 0.59032 0.70412
 H3066 H 0.61473 0.64684 0.72664
 H3067 H 0.62843 0.66053 0.69760
 H3068 H 0.63628 0.60387 0.67481
 H3069 H 0.57853 0.61128 0.81083
 H3070 H 0.56671 0.59971 0.84157
 H3071 H 0.57335 0.54165 0.82216
 H3072 H 0.58550 0.55342 0.79157
 C3073 C 0.89423 0.87599 0.70245
 C3074 C 0.88241 0.88218 0.71724
 C3075 C 0.86266 0.88083 0.71532
 C3076 C 0.85473 0.87324 0.69873
 C3077 C 0.86648 0.86688 0.68381
 C3078 C 0.88633 0.86838 0.68583
 C3079 C 0.89049 0.88971 0.73449
 C3080 C 0.89704 0.89593 0.74908
 C3081 C 0.90444 0.90313 0.76632
 C3082 C 0.91053 0.90921 0.78116
 C3083 C 0.91750 0.91640 0.79904
 C3084 C 0.90465 0.92179 0.81326
 C3085 C 0.91130 0.92860 0.83072
 C3086 C 0.93095 0.93010 0.83421
 C3087 C 0.94377 0.92465 0.81982
 C3088 C 0.93707 0.91785 0.80234
 H3089 H 0.90954 0.87700 0.70377
 H3090 H 0.85338 0.88552 0.72671
 H3091 H 0.83942 0.87204 0.69771
 H3092 H 0.89572 0.86382 0.67450
 H3093 H 0.88947 0.92065 0.81088
 H3094 H 0.90109 0.93240 0.84161
 H3095 H 0.95896 0.92583 0.82202
 H3096 H 0.94714 0.91373 0.79142
 C3097 C 0.87563 0.39428 0.20259
 C3098 C 0.88197 0.38229 0.21720
 C3099 C 0.88062 0.36251 0.21510
 C3100 C 0.87293 0.35472 0.19849
 C3101 C 0.86647 0.36663 0.18372
 C3102 C 0.86792 0.38651 0.18595
 C3103 C 0.88970 0.39022 0.23444
 C3104 C 0.89610 0.39664 0.24901
 C3105 C 0.90353 0.40392 0.26620
 C3106 C 0.90979 0.40993 0.28101
 C3107 C 0.91716 0.41685 0.29883
 C3108 C 0.92261 0.40394 0.31300
 C3109 C 0.92949 0.41059 0.33045
 C3110 C 0.93103 0.43027 0.33395
 C3111 C 0.92559 0.44314 0.31959
 C3112 C 0.91871 0.43646 0.30213
 H3113 H 0.87664 0.40961 0.20405
 H3114 H 0.88541 0.35310 0.22635
 H3115 H 0.87176 0.33937 0.19731
 H3116 H 0.86327 0.39604 0.17475
 H3117 H 0.92140 0.38874 0.31062
 H3118 H 0.93330 0.40033 0.34132
 H3119 H 0.92680 0.45837 0.32179
 H3120 H 0.91456 0.44658 0.29125
 C3121 C 0.39384 0.87633 0.20239
 C3122 C 0.38198 0.88225 0.21725
 C3123 C 0.36225 0.88045 0.21545
 C3124 C 0.35440 0.87269 0.19890
 C3125 C 0.36620 0.86660 0.18391
 C3126 C 0.38602 0.86855 0.18581
 C3127 C 0.39000 0.88994 0.23447
 C3128 C 0.39658 0.89624 0.24901
 C3129 C 0.40411 0.90347 0.26618
 C3130 C 0.41041 0.90950 0.28096
 C3131 C 0.41778 0.91651 0.29875
 C3132 C 0.41929 0.93613 0.30197
 C3133 C 0.42613 0.94290 0.31940
 C3134 C 0.43154 0.93010 0.33385
 C3135 C 0.43003 0.91040 0.33043
 C3136 C 0.42319 0.90367 0.31300
 H3137 H 0.40913 0.87769 0.20362
 H3138 H 0.35294 0.88493 0.22689
 H3139 H 0.33911 0.87116 0.19794
 H3140 H 0.39545 0.86422 0.17442
 H3141 H 0.41516 0.94620 0.29103
 H3142 H 0.42732 0.95814 0.32154
 H3143 H 0.43382 0.90020 0.34136
 H3144 H 0.42200 0.88845 0.31069
 C3145 C 0.36228 0.38061 0.71530
 C3146 C 0.38202 0.38210 0.71727
 C3147 C 0.39391 0.37593 0.70253
 C3148 C 0.38610 0.36825 0.68590
 C3149 C 0.36627 0.36666 0.68381
 C3150 C 0.35445 0.37295 0.69870
 C3151 C 0.39001 0.38974 0.73452
 C3152 C 0.39654 0.39603 0.74909
 C3153 C 0.40401 0.40326 0.76629
 C3154 C 0.41024 0.40929 0.78109
 C3155 C 0.41754 0.41630 0.79891
 C3156 C 0.42299 0.40346 0.81315
 C3157 C 0.42978 0.41019 0.83060
 C3158 C 0.43121 0.42989 0.83405
 C3159 C 0.42576 0.44270 0.81963
 C3160 C 0.41897 0.43593 0.80217
 H3161 H 0.35295 0.38527 0.72666
 H3162 H 0.40922 0.37703 0.70390
 H3163 H 0.39556 0.36371 0.67461
 H3164 H 0.33914 0.37167 0.69763
 H3165 H 0.42186 0.38824 0.81081
 H3166 H 0.43360 0.39998 0.84151
 H3167 H 0.42689 0.45793 0.82179
 H3168 H 0.41481 0.44600 0.79124
 C3169 C 1.13725 0.88468 1.28680
 C3170 C 1.11798 0.88205 1.28281
 C3171 C 1.10661 0.87183 1.29550
 C3172 C 1.11446 0.86416 1.31211
 C3173 C 1.13398 0.86656 1.31644
 C3174 C 1.14518 0.87708 1.30339
 C3175 C 1.11000 0.88965 1.26553
 C3176 C 1.10352 0.89596 1.25094
 C3177 C 1.09617 0.90328 1.23373
 C3178 C 1.09010 0.90947 1.21892
 C3179 C 1.08310 0.91679 1.20110
 C3180 C 1.06352 0.91828 1.19786
 C3181 C 1.05677 0.92516 1.18044
 C3182 C 1.06955 0.93068 1.16603
 C3183 C 1.08920 0.92918 1.16947
 C3184 C 1.09591 0.92228 1.18688
 H3185 H 1.14624 0.89243 1.27696
 H3186 H 1.09161 0.86984 1.29261
 H3187 H 1.10489 0.85697 1.32179
 H3188 H 1.16032 0.87884 1.30532
 H3189 H 1.05348 0.91409 1.20879
 H3190 H 1.04158 0.92635 1.17828
 H3191 H 1.09939 0.93303 1.15857
 H3192 H 1.11109 0.92112 1.18921
 C3193 C 1.10656 0.37178 0.79538
 C3194 C 1.11795 0.38193 0.78263
 C3195 C 1.13723 0.38450 0.78658
 C3196 C 1.14517 0.37689 0.80316
 C3197 C 1.13396 0.36643 0.81626
 C3198 C 1.11442 0.36411 0.81198
 C3199 C 1.10995 0.38951 0.76535
 C3200 C 1.10346 0.39579 0.75076
 C3201 C 1.09609 0.40307 0.73354
 C3202 C 1.09001 0.40923 0.71872
 C3203 C 1.08300 0.41650 0.70089
 C3204 C 1.09581 0.42198 0.68666
 C3205 C 1.08910 0.42885 0.66924
 C3206 C 1.06944 0.43033 0.66580
 C3207 C 1.05667 0.42483 0.68021
 C3208 C 1.06342 0.41796 0.69764
 H3209 H 1.09155 0.36983 0.79252
 H3210 H 1.14623 0.39219 0.77670
 H3211 H 1.16032 0.37859 0.80506
 H3212 H 1.10485 0.35697 0.82169
 H3213 H 1.11099 0.42083 0.68899
 H3214 H 1.09928 0.43270 0.65833
 H3215 H 1.04147 0.42600 0.67806
 H3216 H 1.05338 0.41379 0.70858
 C3217 C 0.61939 0.86296 0.78494
 C3218 C 0.61813 0.88275 0.78286
 C3219 C 0.62457 0.89470 0.79745
 C3220 C 0.63228 0.88688 0.81407
 C3221 C 0.63362 0.86700 0.81629
 C3222 C 0.62707 0.85512 0.80153
 C3223 C 0.61036 0.89072 0.76565
 C3224 C 0.60391 0.89716 0.75111
 C3225 C 0.59642 0.90444 0.73394
 C3226 C 0.59011 0.91044 0.71916
 C3227 C 0.58267 0.91736 0.70136
 C3228 C 0.58101 0.93697 0.69809
 C3229 C 0.57409 0.94365 0.68065
 C3230 C 0.56872 0.93077 0.66626
 C3231 C 0.57035 0.91109 0.66974
 C3232 C 0.57729 0.90445 0.68717
 H3233 H 0.61451 0.85358 0.77370
 H3234 H 0.62364 0.91004 0.79599
 H3235 H 0.63701 0.89638 0.82526
 H3236 H 0.62817 0.83978 0.80270
 H3237 H 0.58511 0.94709 0.70899
 H3238 H 0.57280 0.95887 0.67847
 H3239 H 0.56660 0.90083 0.65885
 H3240 H 0.57858 0.88925 0.68952
 C3241 C 0.63724 0.38453 1.28677
 C3242 C 0.61795 0.38203 1.28283
 C3243 C 0.60655 0.37188 1.29556
 C3244 C 0.61440 0.36414 1.31213
 C3245 C 0.63395 0.36638 1.31638
 C3246 C 0.64518 0.37686 1.30332
 C3247 C 0.60997 0.38966 1.26556
 C3248 C 0.60348 0.39597 1.25098
 C3249 C 0.59612 0.40329 1.23377
 C3250 C 0.59005 0.40948 1.21896
 C3251 C 0.58305 0.41678 1.20113
 C3252 C 0.56348 0.41820 1.19786
 C3253 C 0.55674 0.42506 1.18042
 C3254 C 0.56953 0.43062 1.16604
 C3255 C 0.58918 0.42918 1.16951
 C3256 C 0.59587 0.42231 1.18694
 H3257 H 0.64626 0.39223 1.27690
 H3258 H 0.59152 0.36999 1.29271
 H3259 H 0.60482 0.35699 1.32184
 H3260 H 0.66034 0.37851 1.30524
 H3261 H 0.55343 0.41398 1.20876
 H3262 H 0.54154 0.42620 1.17824
 H3263 H 0.59937 0.43307 1.15863
 H3264 H 0.61105 0.42120 1.18930
 C3265 C 0.88066 1.13706 1.28498
 C3266 C 0.88198 1.11728 1.28284
 C3267 C 0.87572 1.10527 1.29746
 C3268 C 0.86812 1.11300 1.31416
 C3269 C 0.86670 1.13288 1.31644
 C3270 C 0.87307 1.14482 1.30166
 C3271 C 0.88961 1.10938 1.26554
 C3272 C 0.89594 1.10300 1.25092
 C3273 C 0.90328 1.09577 1.23367
 C3274 C 0.90947 1.08980 1.21883
 C3275 C 0.91678 1.08293 1.20096
 C3276 C 0.91836 1.06333 1.19761
 C3277 C 0.92520 1.05671 1.18013
 C3278 C 0.93057 1.06962 1.16577
 C3279 C 0.92899 1.08930 1.16932
 C3280 C 0.92214 1.09588 1.18679
 H3281 H 0.88538 1.14649 1.27372
 H3282 H 0.87671 1.08993 1.29595
 H3283 H 0.86352 1.10346 1.32537
 H3284 H 0.87191 1.16016 1.30286
 H3285 H 0.91428 1.05318 1.20850
 H3286 H 0.92645 1.04149 1.17789
 H3287 H 0.93274 1.09958 1.15845
 H3288 H 0.92090 1.11108 1.18921
 C3289 C 0.88062 0.63717 0.78497
 C3290 C 0.88212 0.61740 0.78286
 C3291 C 0.87605 0.60536 0.79755
 C3292 C 0.86844 0.61306 0.81426
 C3293 C 0.86682 0.63293 0.81649
 C3294 C 0.87303 0.64490 0.80166
 C3295 C 0.88969 0.60952 0.76553
 C3296 C 0.89596 0.60311 0.75089
 C3297 C 0.90321 0.59583 0.73363
 C3298 C 0.90933 0.58981 0.71877
 C3299 C 0.91656 0.58286 0.70089
 C3300 C 0.91809 0.56325 0.69760
 C3301 C 0.92490 0.55656 0.68012
 C3302 C 0.93029 0.56942 0.66572
 C3303 C 0.92874 0.58911 0.66921
 C3304 C 0.92192 0.59576 0.68668
 H3305 H 0.88521 0.64661 0.77366
 H3306 H 0.87718 0.59003 0.79607
 H3307 H 0.86398 0.60350 0.82550
 H3308 H 0.87172 0.66023 0.80284
 H3309 H 0.91401 0.55314 0.70852
 H3310 H 0.92613 0.54133 0.67793
 H3311 H 0.93250 0.59936 0.65832
 H3312 H 0.92072 0.61097 0.68905
 C3313 C 0.36146 1.11928 0.78456
 C3314 C 0.38115 1.11728 0.78258
 C3315 C 0.39321 1.12306 0.79734
 C3316 C 0.38561 1.13090 0.81400
 C3317 C 0.36583 1.13305 0.81608
 C3318 C 0.35384 1.12710 0.80119
 C3319 C 0.38895 1.10955 0.76528
 C3320 C 0.39534 1.10323 0.75066
 C3321 C 0.40268 1.09601 0.73341
 C3322 C 0.40884 1.09001 0.71856
 C3323 C 0.41608 1.08308 0.70068
 C3324 C 0.42144 1.09600 0.68648
 C3325 C 0.42825 1.08936 0.66901
 C3326 C 0.42980 1.06967 0.66550
 C3327 C 0.42441 1.05680 0.67988
 C3328 C 0.41760 1.06348 0.69737
 H3329 H 0.35200 1.11492 0.77319
 H3330 H 0.40848 1.12155 0.79597
 H3331 H 0.39519 1.13512 0.82531
 H3332 H 0.33858 1.12879 0.80228
 H3333 H 0.42024 1.11120 0.68887
 H3334 H 0.43202 1.09962 0.65813
 H3335 H 0.42563 1.04157 0.67768
 H3336 H 0.41352 1.05335 0.70828
 C3337 C 0.37521 0.60589 1.29726
 C3338 C 0.38138 0.61780 1.28252
 C3339 C 0.38000 0.63759 1.28450
 C3340 C 0.37241 0.64547 1.30112
 C3341 C 0.36608 0.63363 1.31600
 C3342 C 0.36760 0.61374 1.31391
 C3343 C 0.38897 0.60978 1.26526
 C3344 C 0.39526 0.60327 1.25067
 C3345 C 0.40255 0.59590 1.23346
 C3346 C 0.40871 0.58982 1.21864
 C3347 C 0.41599 0.58284 1.20081
 C3348 C 0.42137 0.59571 1.18657
 C3349 C 0.42826 0.58902 1.16915
 C3350 C 0.42986 0.56933 1.16572
 C3351 C 0.42444 0.55649 1.18013
 C3352 C 0.41756 0.56322 1.19756
 H3353 H 0.37625 0.59055 1.29589
 H3354 H 0.38467 0.64694 1.27315
 H3355 H 0.37120 0.66082 1.30221
 H3356 H 0.36306 0.60428 1.32520
 H3357 H 0.42014 0.61092 1.18891
 H3358 H 0.43204 0.59925 1.15824
 H3359 H 0.42570 0.54126 1.17798
 H3360 H 0.41346 0.55313 1.20850
 C3361 C 1.10630 1.29758 0.87592
 C3362 C 1.11821 1.28283 0.88204
 C3363 C 1.13794 1.28476 0.88040
 C3364 C 1.14575 1.30134 0.87263
 C3365 C 1.13390 1.31624 0.86638
 C3366 C 1.11407 1.31418 0.86813
 C3367 C 1.11026 1.26559 0.88978
 C3368 C 1.10377 1.25102 0.89615
 C3369 C 1.09636 1.23382 0.90345
 C3370 C 1.09017 1.21900 0.90952
 C3371 C 1.08291 1.20116 0.91654
 C3372 C 1.08142 1.19794 0.93616
 C3373 C 1.07465 1.18046 0.94293
 C3374 C 1.06928 1.16599 0.93015
 C3375 C 1.07080 1.16940 0.91046
 C3376 C 1.07757 1.18687 0.90373
 H3377 H 1.09100 1.29623 0.87714
 H3378 H 1.14730 1.27339 0.88502
 H3379 H 1.16104 1.30238 0.87123
 H3380 H 1.10461 1.32549 0.86363
 H3381 H 1.08550 1.20891 0.94621
 H3382 H 1.07345 1.17833 0.95816
 H3383 H 1.06705 1.15845 0.90027
 H3384 H 1.07875 1.18918 0.88852
 C3385 C 1.10642 0.79759 0.37602
 C3386 C 1.11838 0.78289 0.38220
 C3387 C 1.13811 0.78491 0.38063
 C3388 C 1.14587 0.80152 0.37288
 C3389 C 1.13398 0.81637 0.36657
 C3390 C 1.11416 0.81423 0.36825
 C3391 C 1.11046 0.76563 0.38992
 C3392 C 1.10398 0.75106 0.39628
 C3393 C 1.09656 0.73385 0.40357
 C3394 C 1.09035 0.71904 0.40965
 C3395 C 1.08306 0.70122 0.41669
 C3396 C 1.08159 0.69800 0.43630
 C3397 C 1.07477 0.68055 0.44309
 C3398 C 1.06933 0.66610 0.43032
 C3399 C 1.07081 0.66950 0.41063
 C3400 C 1.07764 0.68695 0.40388
 H3401 H 1.09113 0.79619 0.37719
 H3402 H 1.14749 0.77358 0.38528
 H3403 H 1.16117 0.80262 0.37153
 H3404 H 1.10466 0.82549 0.36371
 H3405 H 1.08573 0.70896 0.44634
 H3406 H 1.07360 0.67842 0.45832
 H3407 H 1.06700 0.65857 0.40045
 H3408 H 1.07880 0.68925 0.38867
 C3409 C 0.60668 1.29577 0.37178
 C3410 C 0.61813 1.28299 0.38182
 C3411 C 0.63745 1.28690 0.38418
 C3412 C 0.64536 1.30347 0.37649
 C3413 C 0.63408 1.31659 0.36614
 C3414 C 0.61450 1.31236 0.36403
 C3415 C 0.61017 1.26572 0.38948
 C3416 C 0.60369 1.25114 0.39582
 C3417 C 0.59633 1.23394 0.40317
 C3418 C 0.59025 1.21913 0.40938
 C3419 C 0.58324 1.20131 0.41671
 C3420 C 0.59604 1.18709 0.42223
 C3421 C 0.58932 1.16966 0.42913
 C3422 C 0.56967 1.16622 0.43058
 C3423 C 0.55690 1.18062 0.42504
 C3424 C 0.56366 1.19806 0.41815
 H3425 H 0.59164 1.29295 0.37000
 H3426 H 0.64650 1.27699 0.39178
 H3427 H 0.66053 1.30534 0.37803
 H3428 H 0.60489 1.32211 0.35698
 H3429 H 0.61122 1.18942 0.42110
 H3430 H 0.59950 1.15876 0.43301
 H3431 H 0.54170 1.17846 0.42619
 H3432 H 0.55362 1.20898 0.41394
 C3433 C 0.62395 0.79782 0.89451
 C3434 C 0.61764 0.78315 0.88258
 C3435 C 0.61906 0.78516 0.86281
 C3436 C 0.62682 0.80173 0.85497
 C3437 C 0.63328 0.81654 0.86683
 C3438 C 0.63172 0.81441 0.88670
 C3439 C 0.60990 0.76592 0.89055
 C3440 C 0.60349 0.75136 0.89701
 C3441 C 0.59609 0.73416 0.90433
 C3442 C 0.58985 0.71934 0.91036
 C3443 C 0.58251 0.70150 0.91730
 C3444 C 0.57710 0.68730 0.90441
 C3445 C 0.57024 0.66983 0.91106
 C3446 C 0.56873 0.66633 0.93073
 C3447 C 0.57415 0.68072 0.94358
 C3448 C 0.58099 0.69820 0.93689
 H3449 H 0.62288 0.79642 0.90983
 H3450 H 0.61429 0.77386 0.85344
 H3451 H 0.62806 0.80283 0.83964
 H3452 H 0.63636 0.82566 0.89619
 H3453 H 0.57830 0.68968 0.88921
 H3454 H 0.56646 0.65894 0.90082
 H3455 H 0.57295 0.67851 0.95880
 H3456 H 0.58512 0.70910 0.94700
 C3457 C 0.87176 1.29593 1.10579
 C3458 C 0.88201 1.28328 1.11721
 C3459 C 0.88466 1.28735 1.13648
 C3460 C 0.87702 1.30393 1.14440
 C3461 C 0.86644 1.31692 1.13317
 C3462 C 0.86406 1.31254 1.11362
 C3463 C 0.88959 1.26597 1.10925
 C3464 C 0.89587 1.25135 1.10280
 C3465 C 0.90315 1.23410 1.09550
 C3466 C 0.90929 1.21924 1.08947
 C3467 C 0.91656 1.20136 1.08254
 C3468 C 0.92197 1.18717 1.09544
 C3469 C 0.92883 1.16970 1.08881
 C3470 C 0.93035 1.16618 1.06914
 C3471 C 0.92490 1.18055 1.05628
 C3472 C 0.91806 1.19803 1.06295
 H3473 H 0.86976 1.29299 1.09078
 H3474 H 0.89244 1.27754 1.14551
 H3475 H 0.87878 1.30593 1.15956
 H3476 H 0.85684 1.32216 1.10402
 H3477 H 0.92080 1.18957 1.11064
 H3478 H 0.93263 1.15883 1.09907
 H3479 H 0.92611 1.17833 1.04106
 H3480 H 0.91393 1.20894 1.05283
 C3481 C 0.87511 0.79741 0.60570
 C3482 C 0.88135 0.78270 0.61763
 C3483 C 0.88002 0.78474 0.63740
 C3484 C 0.87245 0.80140 0.64524
 C3485 C 0.86610 0.81626 0.63339
 C3486 C 0.86752 0.81409 0.61352
 C3487 C 0.88896 0.76542 0.60964
 C3488 C 0.89529 0.75083 0.60317
 C3489 C 0.90264 0.73362 0.59585
 C3490 C 0.90885 0.71880 0.58981
 C3491 C 0.91619 0.70096 0.58286
 C3492 C 0.92166 0.68677 0.59574
 C3493 C 0.92857 0.66933 0.58908
 C3494 C 0.93010 0.66585 0.56941
 C3495 C 0.92462 0.68023 0.55656
 C3496 C 0.91771 0.69767 0.56326
 H3497 H 0.87610 0.79599 0.59037
 H3498 H 0.88473 0.77341 0.64676
 H3499 H 0.87128 0.80252 0.66058
 H3500 H 0.86294 0.82536 0.60404
 H3501 H 0.92047 0.68914 0.61094
 H3502 H 0.93242 0.65845 0.59931
 H3503 H 0.92582 0.67803 0.54134
 H3504 H 0.91354 0.70857 0.55316
 C3505 C 0.36251 1.28711 0.61525
 C3506 C 0.38176 1.28302 0.61781
 C3507 C 0.39322 1.29564 0.62804
 C3508 C 0.38546 1.31226 0.63580
 C3509 C 0.36595 1.31668 0.63347
 C3510 C 0.35467 1.30371 0.62294
 C3511 C 0.38966 1.26573 0.61012
 C3512 C 0.39607 1.25114 0.60375
 C3513 C 0.40335 1.23392 0.59635
 C3514 C 0.40938 1.21910 0.59011
 C3515 C 0.41635 1.20128 0.58275
 C3516 C 0.43592 1.19801 0.58127
 C3517 C 0.44264 1.18056 0.57439
 C3518 C 0.42985 1.16616 0.56890
 C3519 C 0.41020 1.16963 0.57037
 C3520 C 0.40352 1.18707 0.57725
 H3521 H 0.35346 1.27733 0.60749
 H3522 H 0.40821 1.29267 0.62999
 H3523 H 0.39508 1.32187 0.64300
 H3524 H 0.33953 1.30572 0.62124
 H3525 H 0.44597 1.20893 0.58546
 H3526 H 0.45784 1.17839 0.57323
 H3527 H 0.40000 1.15873 0.56651
 H3528 H 0.38834 1.18942 0.57841
 C3529 C 0.38413 0.78684 1.13700
 C3530 C 0.38143 0.78275 1.11774
 C3531 C 0.37120 0.79541 1.10633
 C3532 C 0.36356 0.81206 1.11415
 C3533 C 0.36600 0.81646 1.13367
 C3534 C 0.37656 0.80346 1.14491
 C3535 C 0.38896 0.76542 1.10978
 C3536 C 0.39520 0.75078 1.10332
 C3537 C 0.40243 0.73352 1.09598
 C3538 C 0.40856 0.71867 1.08993
 C3539 C 0.41580 0.70080 1.08296
 C3540 C 0.41726 0.69749 1.06336
 C3541 C 0.42412 0.68003 1.05665
 C3542 C 0.42962 0.66565 1.06948
 C3543 C 0.42812 0.66914 1.08916
 C3544 C 0.42126 0.68659 1.09583
 H3545 H 0.39189 0.77702 1.14603
 H3546 H 0.36915 0.79245 1.09132
 H3547 H 0.35635 0.82169 1.10455
 H3548 H 0.37836 0.80547 1.16006
 H3549 H 0.41310 0.70840 1.05327
 H3550 H 0.42530 0.67783 1.04143
 H3551 H 0.43197 0.65826 1.09939
 H3552 H 0.42011 0.68897 1.11103
 C3553 C 0.86273 0.71462 0.88126
 C3554 C 0.88246 0.71662 0.88274
 C3555 C 0.89437 0.70186 0.87662
 C3556 C 0.88658 0.68521 0.86895
 C3557 C 0.86675 0.68311 0.86732
 C3558 C 0.85491 0.69799 0.87362
 C3559 C 0.89044 0.73391 0.89033
 C3560 C 0.89693 0.74852 0.89660
 C3561 C 0.90429 0.76577 0.90383
 C3562 C 0.91036 0.78062 0.90994
 C3563 C 0.91733 0.79850 0.91714
 C3564 C 0.93690 0.80178 0.91863
 C3565 C 0.94362 0.81927 0.92541
 C3566 C 0.93081 0.83370 0.93081
 C3567 C 0.91117 0.83023 0.92929
 C3568 C 0.90450 0.81275 0.92250
 H3569 H 0.85338 0.72599 0.88589
 H3570 H 0.90967 0.70325 0.87772
 H3571 H 0.89605 0.67392 0.86443
 H3572 H 0.83961 0.69692 0.87230
 H3573 H 0.94697 0.79083 0.91454
 H3574 H 0.95881 0.82145 0.92661
 H3575 H 0.90096 0.84115 0.93306
 H3576 H 0.88932 0.81040 0.92133
 C3577 C 0.86312 0.21460 0.38124
 C3578 C 0.88287 0.21654 0.38264
 C3579 C 0.89471 0.20176 0.37644
 C3580 C 0.88684 0.18514 0.36878
 C3581 C 0.86700 0.18311 0.36723
 C3582 C 0.85523 0.19801 0.37360
 C3583 C 0.89092 0.23380 0.39021
 C3584 C 0.89742 0.24840 0.39646
 C3585 C 0.90477 0.26566 0.40368
 C3586 C 0.91081 0.28053 0.40977
 C3587 C 0.91772 0.29845 0.41695
 C3588 C 0.93727 0.30179 0.41846
 C3589 C 0.94392 0.31932 0.42522
 C3590 C 0.93105 0.33371 0.43057
 C3591 C 0.91142 0.33017 0.42903
 C3592 C 0.90482 0.31266 0.42227
 H3593 H 0.85383 0.22599 0.38593
 H3594 H 0.91002 0.20310 0.37749
 H3595 H 0.89626 0.17383 0.36420
 H3596 H 0.83992 0.19698 0.37235
 H3597 H 0.94738 0.29087 0.41440
 H3598 H 0.95910 0.32155 0.42643
 H3599 H 0.90118 0.34106 0.43277
 H3600 H 0.88965 0.31025 0.42108
 C3601 C 0.37173 0.70455 0.39370
 C3602 C 0.38207 0.71710 0.38225
 C3603 C 0.38467 0.71297 0.36298
 C3604 C 0.37692 0.69641 0.35512
 C3605 C 0.36628 0.68352 0.36639
 C3606 C 0.36391 0.68797 0.38592
 C3607 C 0.38980 0.73436 0.39017
 C3608 C 0.39622 0.74893 0.39658
 C3609 C 0.40365 0.76614 0.40385
 C3610 C 0.40993 0.78094 0.40986
 C3611 C 0.41732 0.79876 0.41681
 C3612 C 0.42287 0.81292 0.40392
 C3613 C 0.42977 0.83037 0.41058
 C3614 C 0.43120 0.83389 0.43026
 C3615 C 0.42566 0.81954 0.44310
 C3616 C 0.41876 0.80208 0.43640
 H3617 H 0.36975 0.70754 0.40871
 H3618 H 0.39251 0.72270 0.35393
 H3619 H 0.37867 0.69437 0.33996
 H3620 H 0.35663 0.67841 0.39554
 H3621 H 0.42173 0.81053 0.38872
 H3622 H 0.43366 0.84123 0.40034
 H3623 H 0.42679 0.82175 0.45832
 H3624 H 0.41453 0.79121 0.44650
 C3625 C 0.37218 0.20415 0.89365
 C3626 C 0.38244 0.21671 0.88215
 C3627 C 0.38494 0.21260 0.86286
 C3628 C 0.37715 0.19605 0.85502
 C3629 C 0.36656 0.18315 0.86634
 C3630 C 0.36432 0.18758 0.88589
 C3631 C 0.39018 0.23399 0.89003
 C3632 C 0.39657 0.24858 0.89645
 C3633 C 0.40396 0.26579 0.90375
 C3634 C 0.41019 0.28060 0.90979
 C3635 C 0.41752 0.29843 0.91678
 C3636 C 0.42299 0.31265 0.90393
 C3637 C 0.42985 0.33010 0.91063
 C3638 C 0.43132 0.33356 0.93031
 C3639 C 0.42585 0.31915 0.94312
 C3640 C 0.41900 0.30169 0.93638
 H3641 H 0.37029 0.20713 0.90867
 H3642 H 0.39272 0.22235 0.85377
 H3643 H 0.37881 0.19403 0.83985
 H3644 H 0.35710 0.17801 0.89555
 H3645 H 0.42183 0.31031 0.88873
 H3646 H 0.43368 0.34101 0.90042
 H3647 H 0.42701 0.32132 0.95835
 H3648 H 0.41482 0.29077 0.94646
 C3649 C 1.12843 0.70449 1.10689
 C3650 C 1.11841 0.71722 1.11841
 C3651 C 1.11602 0.71323 1.13773
 C3652 C 1.12364 0.69661 1.14559
 C3653 C 1.13394 0.68350 1.13424
 C3654 C 1.13613 0.68784 1.11467
 C3655 C 1.11077 0.73453 1.11049
 C3656 C 1.10443 0.74913 1.10406
 C3657 C 1.09707 0.76636 1.09675
 C3658 C 1.09084 0.78117 1.09070
 C3659 C 1.08349 0.79899 1.08370
 C3660 C 1.07800 0.81321 1.09654
 C3661 C 1.07109 0.83064 1.08982
 C3662 C 1.06959 0.83408 1.07014
 C3663 C 1.07510 0.81967 1.05734
 C3664 C 1.08200 0.80224 1.06409
 H3665 H 1.13026 0.70738 1.09185
 H3666 H 1.10843 0.72312 1.14684
 H3667 H 1.12210 0.69470 1.16079
 H3668 H 1.14317 0.67813 1.10501
 H3669 H 1.07917 0.81088 1.11174
 H3670 H 1.06724 0.84154 1.10003
 H3671 H 1.07392 0.82183 1.04212
 H3672 H 1.08618 0.79132 1.05403
 C3673 C 1.11520 0.21264 0.63682
 C3674 C 1.11778 0.21675 0.61754
 C3675 C 1.12798 0.20413 0.60607
 C3676 C 1.13570 0.18750 0.61383
 C3677 C 1.13338 0.18307 0.63337
 C3678 C 1.12285 0.19603 0.64467
 C3679 C 1.11017 0.23408 0.60964
 C3680 C 1.10387 0.24870 0.60322
 C3681 C 1.09657 0.26596 0.59593
 C3682 C 1.09041 0.28081 0.58991
 C3683 C 1.08315 0.29868 0.58297
 C3684 C 1.08168 0.30201 0.56337
 C3685 C 1.07486 0.31950 0.55668
 C3686 C 1.06939 0.33387 0.56954
 C3687 C 1.07087 0.33035 0.58921
 C3688 C 1.07771 0.31287 0.59586
 H3689 H 1.10746 0.22243 0.64589
 H3690 H 1.12994 0.20711 0.59105
 H3691 H 1.14289 0.17789 0.60419
 H3692 H 1.12114 0.19402 0.65984
 H3693 H 1.08583 0.29111 0.55327
 H3694 H 1.07369 0.32172 0.54147
 H3695 H 1.06705 0.34122 0.59945
 H3696 H 1.07886 0.31048 0.61106
 C3697 C 0.62457 0.70267 0.60578
 C3698 C 0.61829 0.71733 0.61774
 C3699 C 0.61966 0.71525 0.63751
 C3700 C 0.62730 0.69861 0.64531
 C3701 C 0.63368 0.68379 0.63342
 C3702 C 0.63223 0.68600 0.61356
 C3703 C 0.61058 0.73458 0.60981
 C3704 C 0.60417 0.74916 0.60339
 C3705 C 0.59675 0.76637 0.59614
 C3706 C 0.59047 0.78119 0.59015
 C3707 C 0.58309 0.79902 0.58323
 C3708 C 0.57757 0.81316 0.59614
 C3709 C 0.57067 0.83062 0.58951
 C3710 C 0.56921 0.83417 0.56984
 C3711 C 0.57472 0.81983 0.55697
 C3712 C 0.58161 0.80236 0.56364
 H3713 H 0.62355 0.70412 0.59046
 H3714 H 0.61491 0.72654 0.64690
 H3715 H 0.62848 0.69745 0.66064
 H3716 H 0.63683 0.67476 0.60405
 H3717 H 0.57872 0.81075 0.61133
 H3718 H 0.56681 0.84147 0.59976
 H3719 H 0.57356 0.82207 0.54176
 H3720 H 0.58581 0.79150 0.55353
 C3721 C 0.62833 0.20439 1.10599
 C3722 C 0.61813 0.21705 1.11742
 C3723 C 0.61557 0.21303 1.13672
 C3724 C 0.62325 0.19647 1.14464
 C3725 C 0.63378 0.18347 1.13339
 C3726 C 0.63608 0.18780 1.11383
 C3727 C 0.61051 0.23435 1.10947
 C3728 C 0.60421 0.24896 1.10303
 C3729 C 0.59692 0.26621 1.09574
 C3730 C 0.59076 0.28107 1.08973
 C3731 C 0.58350 0.29895 1.08283
 C3732 C 0.57808 0.31312 1.09576
 C3733 C 0.57125 0.33061 1.08916
 C3734 C 0.56976 0.33418 1.06950
 C3735 C 0.57521 0.31983 1.05660
 C3736 C 0.58203 0.30233 1.06325
 H3737 H 0.63027 0.20730 1.09096
 H3738 H 0.60783 0.22285 1.14576
 H3739 H 0.62156 0.19450 1.15981
 H3740 H 0.64325 0.17816 1.10421
 H3741 H 0.57923 0.31068 1.11095
 H3742 H 0.56744 0.34146 1.09943
 H3743 H 0.57403 0.32209 1.04140
 H3744 H 0.58617 0.29145 1.05312
 C3745 C 1.29715 1.12446 0.89448
 C3746 C 1.28236 1.11842 0.88259
 C3747 C 1.28428 1.11996 0.86282
 C3748 C 1.30089 1.12752 0.85494
 C3749 C 1.31584 1.13366 0.86676
 C3750 C 1.31379 1.13204 0.88663
 C3751 C 1.26514 1.11078 0.89060
 C3752 C 1.25059 1.10443 0.89707
 C3753 C 1.23342 1.09705 0.90438
 C3754 C 1.21863 1.09080 0.91040
 C3755 C 1.20083 1.08344 0.91732
 C3756 C 1.18670 1.07794 0.90441
 C3757 C 1.16928 1.07103 0.91104
 C3758 C 1.16575 1.06954 0.93071
 C3759 C 1.18007 1.07505 0.94358
 C3760 C 1.19749 1.08195 0.93691
 H3761 H 1.29582 1.12330 0.90981
 H3762 H 1.27289 1.11540 0.85348
 H3763 H 1.30193 1.12883 0.83962
 H3764 H 1.32513 1.13646 0.89608
 H3765 H 1.18910 1.07911 0.88922
 H3766 H 1.15845 1.06717 0.90079
 H3767 H 1.17784 1.07387 0.95879
 H3768 H 1.20834 1.08614 0.94702
 C3769 C 1.28425 0.62012 0.36251
 C3770 C 1.28232 0.61848 0.38227
 C3771 C 1.29712 0.62442 0.39420
 C3772 C 1.31377 0.63201 0.38640
 C3773 C 1.31583 0.63375 0.36654
 C3774 C 1.30088 0.62769 0.35468
 C3775 C 1.26507 0.61087 0.39025
 C3776 C 1.25050 0.60456 0.39673
 C3777 C 1.23331 0.59724 0.40407
 C3778 C 1.21852 0.59105 0.41014
 C3779 C 1.20071 0.58374 0.41712
 C3780 C 1.19743 0.58226 0.43672
 C3781 C 1.18002 0.57537 0.44344
 C3782 C 1.16567 0.56985 0.43061
 C3783 C 1.16915 0.57134 0.41093
 C3784 C 1.18655 0.57824 0.40425
 H3785 H 1.27286 0.61563 0.35315
 H3786 H 1.29578 0.62319 0.40952
 H3787 H 1.32511 0.63637 0.39588
 H3788 H 1.30192 0.62910 0.33936
 H3789 H 1.20831 0.58645 0.44680
 H3790 H 1.17783 0.57419 0.45866
 H3791 H 1.15829 0.56748 0.40070
 H3792 H 1.18891 0.57940 0.38905
 C3793 C 0.79727 1.10534 0.37597
 C3794 C 0.78274 1.11738 0.38236
 C3795 C 0.78495 1.13716 0.38109
 C3796 C 0.80159 1.14489 0.37343
 C3797 C 0.81627 1.13292 0.36693
 C3798 C 0.81393 1.11305 0.36829
 C3799 C 0.76549 1.10952 0.39008
 C3800 C 0.75092 1.10316 0.39649
 C3801 C 0.73371 1.09596 0.40392
 C3802 C 0.71891 1.09001 0.41019
 C3803 C 0.70109 1.08313 0.41756
 C3804 C 0.68694 1.09607 0.42291
 C3805 C 0.66950 1.08947 0.42979
 C3806 C 0.66597 1.06980 0.43138
 C3807 C 0.68032 1.05689 0.42604
 C3808 C 0.69777 1.06353 0.41918
 H3809 H 0.79571 1.09001 0.37692
 H3810 H 0.77377 1.14661 0.38592
 H3811 H 0.80284 1.16023 0.37232
 H3812 H 0.82506 1.10348 0.36360
 H3813 H 0.68933 1.11127 0.42165
 H3814 H 0.65864 1.09975 0.43352
 H3815 H 0.67810 1.04167 0.42730
 H3816 H 0.70865 1.05339 0.41510
 C3817 C 0.78479 0.61892 0.86285
 C3818 C 0.78279 0.61735 0.88261
 C3819 C 0.79757 0.62327 0.89457
 C3820 C 0.81425 0.63084 0.88681
 C3821 C 0.81636 0.63256 0.86695
 C3822 C 0.80146 0.62646 0.85506
 C3823 C 0.76546 0.60991 0.89057
 C3824 C 0.75082 0.60377 0.89704
 C3825 C 0.73353 0.59668 0.90439
 C3826 C 0.71865 0.59069 0.91044
 C3827 C 0.70075 0.58360 0.91739
 C3828 C 0.69739 0.58218 0.93698
 C3829 C 0.67990 0.57546 0.94366
 C3830 C 0.66554 0.57006 0.93080
 C3831 C 0.66908 0.57153 0.91113
 C3832 C 0.68656 0.57825 0.90449
 H3833 H 0.77341 0.61445 0.85346
 H3834 H 0.79617 0.62209 0.90989
 H3835 H 0.82555 0.63520 0.89631
 H3836 H 0.80254 0.62786 0.83974
 H3837 H 0.70829 0.58627 0.94709
 H3838 H 0.67767 0.57430 0.95887
 H3839 H 0.65822 0.56775 0.90088
 H3840 H 0.68897 0.57937 0.88929
 C3841 C 1.28436 0.88041 1.13779
 C3842 C 1.28230 0.88190 1.11803
 C3843 C 1.29696 0.87573 1.10604
 C3844 C 1.31359 0.86804 1.11378
 C3845 C 1.31578 0.86645 1.13363
 C3846 C 1.30098 0.87274 1.14555
 C3847 C 1.26506 0.88960 1.11012
 C3848 C 1.25051 0.89599 1.10369
 C3849 C 1.23333 0.90338 1.09640
 C3850 C 1.21854 0.90962 1.09037
 C3851 C 1.20075 0.91697 1.08341
 C3852 C 1.19747 0.91845 1.06381
 C3853 C 1.18005 0.92532 1.05709
 C3854 C 1.16569 0.93080 1.06992
 C3855 C 1.16917 0.92933 1.08960
 C3856 C 1.18658 0.92245 1.09628
 H3857 H 1.27308 0.88508 1.14720
 H3858 H 1.29552 0.87685 1.09072
 H3859 H 1.32482 0.86351 1.10425
 H3860 H 1.30212 0.87146 1.16088
 H3861 H 1.20835 0.91427 1.05372
 H3862 H 1.17786 0.92649 1.04187
 H3863 H 1.15831 0.93317 1.09983
 H3864 H 1.18894 0.92129 1.11148
 C3865 C 1.28432 0.38058 0.63770
 C3866 C 1.28241 0.38237 0.61795
 C3867 C 1.29719 0.37650 0.60599
 C3868 C 1.31380 0.36876 0.61373
 C3869 C 1.31581 0.36680 0.63357
 C3870 C 1.30090 0.37286 0.64548
 C3871 C 1.26516 0.39004 0.61002
 C3872 C 1.25060 0.39636 0.60357
 C3873 C 1.23340 0.40366 0.59624
 C3874 C 1.21859 0.40981 0.59018
 C3875 C 1.20076 0.41705 0.58319
 C3876 C 1.19749 0.41852 0.56359
 C3877 C 1.18004 0.42530 0.55686
 C3878 C 1.16565 0.43072 0.56969
 C3879 C 1.16911 0.42923 0.58936
 C3880 C 1.18655 0.42244 0.59605
 H3881 H 1.27293 0.38503 0.64710
 H3882 H 1.29588 0.37786 0.59068
 H3883 H 1.32513 0.36445 0.60422
 H3884 H 1.30194 0.37132 0.66079
 H3885 H 1.20840 0.41440 0.55351
 H3886 H 1.17786 0.42648 0.54164
 H3887 H 1.15822 0.43302 0.59958
 H3888 H 1.18891 0.42128 0.61126
 C3889 C 0.79679 0.87601 0.60609
 C3890 C 0.78225 0.88238 0.61813
 C3891 C 0.78445 0.88106 0.63789
 C3892 C 0.80107 0.87337 0.64560
 C3893 C 0.81576 0.86688 0.63364
 C3894 C 0.81344 0.86831 0.61379
 C3895 C 0.76499 0.89008 0.61027
 C3896 C 0.75042 0.89647 0.60389
 C3897 C 0.73322 0.90386 0.59665
 C3898 C 0.71841 0.91009 0.59065
 C3899 C 0.70060 0.91741 0.58371
 C3900 C 0.68641 0.92279 0.59660
 C3901 C 0.66897 0.92963 0.58994
 C3902 C 0.66549 0.93116 0.57027
 C3903 C 0.67988 0.92579 0.55742
 C3904 C 0.69732 0.91896 0.56412
 H3905 H 0.79525 0.87700 0.59078
 H3906 H 0.77325 0.88587 0.64733
 H3907 H 0.80231 0.87221 0.66093
 H3908 H 0.82457 0.86363 0.60422
 H3909 H 0.68877 0.92158 0.61180
 H3910 H 0.65809 0.93339 0.60018
 H3911 H 0.67769 0.92701 0.54221
 H3912 H 0.70822 0.91486 0.55402
 C3913 C 0.79730 0.39450 1.12427
 C3914 C 0.78248 0.38258 1.11836
 C3915 C 0.78442 0.36279 1.11992
 C3916 C 0.80108 0.35494 1.12739
 C3917 C 0.81605 0.36679 1.13341
 C3918 C 0.81398 0.38667 1.13177
 C3919 C 0.76520 0.39058 1.11085
 C3920 C 0.75061 0.39708 1.10460
 C3921 C 0.73340 0.40443 1.09735
 C3922 C 0.71859 0.41049 1.09120
 C3923 C 0.70077 0.41746 1.08392
 C3924 C 0.68661 0.40457 1.07844
 C3925 C 0.66921 0.41124 1.07154
 C3926 C 0.66572 0.43092 1.07004
 C3927 C 0.68005 0.44378 1.07556
 C3928 C 0.69746 0.43707 1.08245
 H3929 H 0.79595 0.40984 1.12311
 H3930 H 0.77300 0.35344 1.11546
 H3931 H 0.80212 0.33960 1.12876
 H3932 H 0.82533 0.39614 1.13612
 H3933 H 0.68899 0.38936 1.07959
 H3934 H 0.65836 0.40099 1.06768
 H3935 H 0.67785 0.45901 1.07438
 H3936 H 0.70833 0.44718 1.08663
 C3937 C 0.70299 1.10601 1.12435
 C3938 C 0.71775 1.11795 1.11832
 C3939 C 0.71578 1.13773 1.11989
 C3940 C 0.69916 1.14556 1.12746
 C3941 C 0.68424 1.13368 1.13358
 C3942 C 0.68634 1.11381 1.13195
 C3943 C 0.73498 1.10998 1.11066
 C3944 C 0.74953 1.10352 1.10430
 C3945 C 0.76670 1.09620 1.09691
 C3946 C 0.78148 1.09015 1.09066
 C3947 C 0.79925 1.08318 1.08328
 C3948 C 0.81342 1.09606 1.07778
 C3949 C 0.83081 1.08938 1.07086
 C3950 C 0.83427 1.06968 1.06933
 C3951 C 0.81991 1.05684 1.07484
 C3952 C 0.80252 1.06356 1.08175
 H3953 H 0.70436 1.09067 1.12318
 H3954 H 0.72715 1.14711 1.11534
 H3955 H 0.69809 1.16090 1.12882
 H3956 H 0.67503 1.10432 1.13638
 H3957 H 0.81107 1.11127 1.07897
 H3958 H 0.84167 1.09961 1.06700
 H3959 H 0.82209 1.04161 1.07363
 H3960 H 0.79163 1.05347 1.08594
 C3961 C 0.70269 0.62388 0.60578
 C3962 C 0.71736 0.61766 0.61773
 C3963 C 0.71532 0.61905 0.63750
 C3964 C 0.69871 0.62669 0.64532
 C3965 C 0.68390 0.63305 0.63344
 C3966 C 0.68606 0.63154 0.61358
 C3967 C 0.73460 0.61004 0.60976
 C3968 C 0.74917 0.60373 0.60328
 C3969 C 0.76637 0.59643 0.59594
 C3970 C 0.78117 0.59027 0.58988
 C3971 C 0.79899 0.58300 0.58290
 C3972 C 0.81318 0.57758 0.59576
 C3973 C 0.83060 0.57074 0.58908
 C3974 C 0.83407 0.56922 0.56940
 C3975 C 0.81969 0.57465 0.55657
 C3976 C 0.80226 0.58149 0.56330
 H3977 H 0.70411 0.62284 0.59046
 H3978 H 0.72661 0.61435 0.64687
 H3979 H 0.69760 0.62793 0.66065
 H3980 H 0.67483 0.63613 0.60409
 H3981 H 0.81083 0.57876 0.61096
 H3982 H 0.84148 0.56694 0.59930
 H3983 H 0.82186 0.57345 0.54136
 H3984 H 0.79135 0.58562 0.55321
 C3985 C 0.20250 1.12412 0.60535
 C3986 C 0.21725 1.11801 0.61725
 C3987 C 0.21527 1.11944 0.63702
 C3988 C 0.19865 1.12700 0.64489
 C3989 C 0.18376 1.13325 0.63305
 C3990 C 0.18586 1.13170 0.61318
 C3991 C 0.23450 1.11044 0.60924
 C3992 C 0.24907 1.10416 0.60273
 C3993 C 0.26627 1.09689 0.59537
 C3994 C 0.28107 1.09073 0.58929
 C3995 C 0.29889 1.08345 0.58232
 C3996 C 0.31307 1.07802 0.59519
 C3997 C 0.33049 1.07115 0.58852
 C3998 C 0.33396 1.06961 0.56885
 C3999 C 0.31959 1.07507 0.55601
 C4000 C 0.30217 1.08193 0.56272
 H4001 H 0.20388 1.12305 0.59002
 H4002 H 0.22662 1.11482 0.64637
 H4003 H 0.19757 1.12825 0.66022
 H4004 H 0.17456 1.13619 0.60372
 H4005 H 0.31072 1.07921 0.61039
 H4006 H 0.34135 1.06733 0.59875
 H4007 H 0.32177 1.07386 0.54079
 H4008 H 0.29127 1.08607 0.55263
 C4009 C 0.21566 0.61978 1.13779
 C4010 C 0.21759 0.61829 1.11802
 C4011 C 0.20286 0.62448 1.10613
 C4012 C 0.18627 0.63216 1.11399
 C4013 C 0.18421 0.63374 1.13386
 C4014 C 0.19910 0.62744 1.14567
 C4015 C 0.23476 0.61055 1.11000
 C4016 C 0.24926 0.60412 1.10350
 C4017 C 0.26638 0.59665 1.09614
 C4018 C 0.28112 0.59035 1.09007
 C4019 C 0.29887 0.58291 1.08308
 C4020 C 0.30209 0.58134 1.06347
 C4021 C 0.31947 0.57440 1.05673
 C4022 C 0.33385 0.56892 1.06954
 C4023 C 0.33043 0.57048 1.08922
 C4024 C 0.31306 0.57743 1.09592
 H4025 H 0.22700 0.61510 1.14713
 H4026 H 0.20419 0.62337 1.09080
 H4027 H 0.17498 0.63670 1.10454
 H4028 H 0.19804 0.62870 1.16101
 H4029 H 0.29119 0.58552 1.05341
 H4030 H 0.32161 0.57317 1.04151
 H4031 H 0.34131 0.56665 1.09943
 H4032 H 0.31075 0.57866 1.11113
 C4033 C 0.70308 0.89427 0.87585
 C4034 C 0.71768 0.88223 0.88204
 C4035 C 0.71552 0.86246 0.88064
 C4036 C 0.69885 0.85473 0.87306
 C4037 C 0.68410 0.86670 0.86675
 C4038 C 0.68638 0.88657 0.86824
 C4039 C 0.73498 0.89010 0.88965
 C4040 C 0.74958 0.89650 0.89596
 C4041 C 0.76681 0.90376 0.90328
 C4042 C 0.78163 0.90976 0.90945
 C4043 C 0.79945 0.91670 0.91675
 C4044 C 0.81361 0.90379 0.92219
 C4045 C 0.83104 0.91044 0.92904
 C4046 C 0.83456 0.93013 0.93053
 C4047 C 0.82021 0.94300 0.92508
 C4048 C 0.80277 0.93631 0.91823
 H4049 H 0.70459 0.90960 0.87689
 H4050 H 0.72677 0.85301 0.88532
 H4051 H 0.69764 0.83940 0.87183
 H4052 H 0.67519 0.89614 0.86369
 H4053 H 0.81122 0.88859 0.92102
 H4054 H 0.84189 0.90019 0.93286
 H4055 H 0.82242 0.95822 0.92626
 H4056 H 0.79190 0.94642 0.91409
 C4057 C 0.71596 0.38002 0.36182
 C4058 C 0.71785 0.38183 0.38157
 C4059 C 0.70302 0.37603 0.39353
 C4060 C 0.68639 0.36836 0.38577
 C4061 C 0.68440 0.36638 0.36592
 C4062 C 0.69935 0.37236 0.35403
 C4063 C 0.73512 0.38944 0.38953
 C4064 C 0.74969 0.39572 0.39601
 C4065 C 0.76690 0.40297 0.40337
 C4066 C 0.78171 0.40909 0.40946
 C4067 C 0.79953 0.41632 0.41648
 C4068 C 0.80278 0.41778 0.43609
 C4069 C 0.82020 0.42460 0.44285
 C4070 C 0.83460 0.43007 0.43005
 C4071 C 0.83117 0.42857 0.41037
 C4072 C 0.81376 0.42174 0.40365
 H4073 H 0.72738 0.38441 0.35244
 H4074 H 0.70432 0.37741 0.40884
 H4075 H 0.67502 0.36411 0.39526
 H4076 H 0.69832 0.37082 0.33873
 H4077 H 0.79185 0.41364 0.44615
 H4078 H 0.82235 0.42578 0.45807
 H4079 H 0.84206 0.43239 0.40016
 H4080 H 0.81143 0.42059 0.38844
 C4081 C 0.20297 0.89441 0.37582
 C4082 C 0.21779 0.88246 0.38169
 C4083 C 0.21589 0.86269 0.37997
 C4084 C 0.19929 0.85487 0.37233
 C4085 C 0.18435 0.86674 0.36630
 C4086 C 0.18635 0.88661 0.36817
 C4087 C 0.23504 0.89044 0.38930
 C4088 C 0.24962 0.89690 0.39559
 C4089 C 0.26684 0.90421 0.40286
 C4090 C 0.28167 0.91022 0.40900
 C4091 C 0.29953 0.91713 0.41623
 C4092 C 0.31366 0.90420 0.42165
 C4093 C 0.33113 0.91081 0.42846
 C4094 C 0.33469 0.93048 0.42994
 C4095 C 0.32037 0.94339 0.42450
 C4096 C 0.30290 0.93674 0.41770
 H4097 H 0.20428 0.90973 0.37713
 H4098 H 0.22730 0.85332 0.38441
 H4099 H 0.19826 0.83954 0.37086
 H4100 H 0.17499 0.89610 0.36388
 H4101 H 0.31123 0.88899 0.42050
 H4102 H 0.34196 0.90052 0.43226
 H4103 H 0.32262 0.95861 0.42567
 H4104 H 0.29204 0.94688 0.41356
 C4105 C 0.21598 0.36218 0.87970
 C4106 C 0.21794 0.38194 0.88148
 C4107 C 0.20318 0.39396 0.87560
 C4108 C 0.18654 0.38624 0.86790
 C4109 C 0.18446 0.36639 0.86599
 C4110 C 0.19936 0.35444 0.87202
 C4111 C 0.23518 0.38983 0.88920
 C4112 C 0.24975 0.39622 0.89559
 C4113 C 0.26694 0.40347 0.90298
 C4114 C 0.28174 0.40946 0.90922
 C4115 C 0.29955 0.41638 0.91656
 C4116 C 0.30285 0.43599 0.91810
 C4117 C 0.32028 0.44267 0.92496
 C4118 C 0.33464 0.42980 0.93038
 C4119 C 0.33114 0.41011 0.92883
 C4120 C 0.31371 0.40347 0.92197
 H4121 H 0.22734 0.35275 0.88415
 H4122 H 0.20454 0.40928 0.87695
 H4123 H 0.17523 0.39578 0.86361
 H4124 H 0.19827 0.33912 0.87052
 H4125 H 0.29197 0.44611 0.91398
 H4126 H 0.32249 0.45789 0.92619
 H4127 H 0.34200 0.39985 0.93262
 H4128 H 0.31133 0.38826 0.92075
   
