data_POSCAR
  _audit_creation_date              2014-09-24
  _audit_creation_method            'ToBaCCo'
  _symmetry_space_group_name_H-M    'P1'
  _symmetry_Int_Tables_number       1
  _symmetry_cell_setting            triclinic
  loop_
  _symmetry_equiv_pos_as_xyz
 x,y,z
_cell_length_a 47.8580
_cell_length_b 49.9970
_cell_length_c 49.9061
_cell_angle_alpha 89.736500
_cell_angle_beta 91.478300
_cell_angle_gamma 88.717500
loop_
  _atom_site_label
  _atom_site_type_symbol
  _atom_site_fract_x
  _atom_site_fract_y
  _atom_site_fract_z
C1 C 0.76183 0.62344 0.99597
 C2 C 0.74999 0.39033 0.50061
 C3 C 0.25248 -0.11885 0.01202
 C4 C 0.25554 0.12075 0.51089
 C5 C 0.12207 0.49199 0.23881
 C6 C -0.12145 -0.00213 0.26568
 C7 C 0.37064 0.50637 0.74962
 C8 C 0.61177 0.99995 0.75061
 C9 C -0.00588 0.24160 -0.13957
 C10 C 0.50785 0.23895 0.12273
 C11 C 0.98801 0.75653 0.61730
 C12 C 0.48505 0.73476 0.35658
 C13 C 0.40779 -0.02247 0.29599
 H14 H 0.41190 -0.00303 0.30447
 C15 C 0.41935 -0.04555 0.30818
 H16 H 0.43259 -0.04374 0.32598
 C17 C 0.38465 -0.04855 0.26311
 H18 H 0.37038 -0.04979 0.24607
 C19 C 0.39574 -0.07208 0.27463
 H20 H 0.38962 -0.09099 0.26614
 N21 N 0.39090 -0.02435 0.27378
 C22 C 0.38846 0.05359 0.23422
 H23 H 0.36599 0.05571 0.23176
 C24 C 0.40560 0.07307 0.22392
 H25 H 0.39595 0.08979 0.21311
 C26 C 0.42789 0.02806 0.25000
 H27 H 0.43642 0.01027 0.25983
 C28 C 0.44591 0.04712 0.23989
 H29 H 0.46831 0.04395 0.24215
 Zn30 Zn 0.37340 0.00707 0.25923
 N31 N 0.39972 0.03181 0.24723
 C32 C 0.35858 0.04765 0.29545
 N33 N 0.35176 0.02299 0.28640
 C34 C 0.33137 0.00884 0.29806
 C35 C 0.31684 0.01957 0.31963
 C36 C 0.34465 0.05916 0.31686
 C37 C 0.36660 -0.01060 0.20759
 C38 C 0.35331 -0.01798 0.18371
 C39 C 0.30895 -0.00635 0.20310
 C40 C 0.32324 0.00084 0.22675
 N41 N 0.35155 -0.00186 0.22863
 H42 H 0.37550 0.05825 0.28665
 H43 H 0.32676 -0.01101 0.29090
 H44 H 0.30084 0.00781 0.32874
 H45 H 0.35156 0.07844 0.32359
 H46 H 0.38917 -0.01191 0.20947
 H47 H 0.36646 -0.02432 0.16760
 H48 H 0.28635 -0.00440 0.20210
 H49 H 0.31171 0.00845 0.24353
 C50 C 0.43478 0.07014 0.22698
 C51 C 0.41347 -0.07077 0.29745
 C52 C 0.32388 -0.01644 0.18124
 C53 C 0.32335 0.04510 0.32947
 C54 C 0.09517 1.01340 0.78773
 H55 H 0.09644 0.99393 0.79730
 C56 C 0.07995 1.03420 0.79942
 H57 H 0.06938 1.03055 0.81797
 C58 C 0.10828 1.04195 0.75242
 H59 H 0.11973 1.04504 0.73436
 C60 C 0.09326 1.06332 0.76339
 H61 H 0.09301 1.08228 0.75294
 N62 N 0.10899 1.01760 0.76469
 C63 C 0.12268 0.94033 0.72692
 H64 H 0.14500 0.94107 0.72417
 C65 C 0.10770 0.91865 0.71718
 H66 H 0.11877 0.90255 0.70727
 C67 C 0.08136 0.96032 0.74375
 H68 H 0.07112 0.97672 0.75387
 C69 C 0.06563 0.93880 0.73469
 H70 H 0.04336 0.93869 0.73805
 Zn71 Zn 0.13158 0.98918 0.75189
 N72 N 0.10939 0.96057 0.73993
 C73 C 0.15223 0.95299 0.79160
 N74 N 0.15501 0.97787 0.78108
 C75 C 0.17230 0.99584 0.79283
 C76 C 0.18783 0.98895 0.81602
 C77 C 0.16682 0.94546 0.81511
 C78 C 0.13788 1.00687 0.69942
 C79 C 0.15150 1.01668 0.67713
 C80 C 0.19514 1.01324 0.70247
 C81 C 0.18068 1.00322 0.72415
 N82 N 0.15245 1.00085 0.72247
 H83 H 0.13807 0.93912 0.78221
 H84 H 0.17358 1.01576 0.78446
 H85 H 0.20134 1.00367 0.82511
 H86 H 0.16417 0.92540 0.82262
 H87 H 0.11545 1.00456 0.69857
 H88 H 0.13887 1.02207 0.65961
 H89 H 0.21756 1.01555 0.70451
 H90 H 0.19206 0.99768 0.74235
 C91 C 0.07876 0.91780 0.72099
 C92 C 0.07918 1.05969 0.78751
 C93 C 0.18062 1.02037 0.67855
 C94 C 0.18464 0.96375 0.82800
 C95 C 0.59696 0.51493 0.27415
 H96 H 0.59907 0.49526 0.28320
 C97 C 0.58116 0.53492 0.28651
 H98 H 0.57104 0.53047 0.30513
 C99 C 0.60808 0.54472 0.23914
 H100 H 0.61858 0.54838 0.22060
 C101 C 0.59249 0.56531 0.25082
 H102 H 0.59099 0.58445 0.24069
 N103 N 0.61023 0.52020 0.25102
 C104 C 0.62417 0.44600 0.20712
 H105 H 0.64652 0.44655 0.20449
 C106 C 0.60902 0.42482 0.19653
 H107 H 0.61999 0.40960 0.18534
 C108 C 0.58296 0.46601 0.22405
 H109 H 0.57287 0.48212 0.23474
 C110 C 0.56698 0.44515 0.21383
 H111 H 0.54463 0.44538 0.21679
 Zn112 Zn 0.63335 0.49317 0.23632
 N113 N 0.61112 0.46585 0.22093
 C114 C 0.65864 0.45145 0.26791
 N115 N 0.65619 0.47842 0.26470
 C116 C 0.66785 0.49525 0.28296
 C117 C 0.68233 0.48511 0.30565
 C118 C 0.67312 0.44046 0.29005
 C119 C 0.64958 0.50357 0.18329
 C120 C 0.66442 0.51587 0.16312
 C121 C 0.69097 0.53906 0.19723
 C122 C 0.67577 0.52608 0.21676
 N123 N 0.65551 0.50868 0.20954
 H124 H 0.64888 0.43821 0.25371
 H125 H 0.66510 0.51664 0.28041
 H126 H 0.69110 0.49923 0.31965
 H127 H 0.67440 0.41887 0.29216
 H128 H 0.63268 0.49057 0.17782
 H129 H 0.65830 0.51170 0.14262
 H130 H 0.70677 0.55308 0.20351
 H131 H 0.67979 0.53033 0.23767
 C132 C 0.58006 0.42394 0.20034
 C133 C 0.57913 0.56064 0.27513
 C134 C 0.68552 0.53406 0.16991
 C135 C 0.68475 0.45721 0.30968
 C136 C 0.92360 0.48016 0.78018
 H137 H 0.92644 0.50008 0.78803
 C138 C 0.93720 0.45827 0.79265
 H139 H 0.95072 0.46150 0.81002
 C140 C 0.90139 0.45166 0.74882
 H141 H 0.88665 0.44907 0.73233
 C142 C 0.91442 0.42921 0.76074
 H143 H 0.90926 0.40973 0.75303
 N144 N 0.90610 0.47649 0.75870
 C145 C 0.89508 0.55549 0.72280
 H146 H 0.87246 0.55639 0.72219
 C147 C 0.91005 0.57668 0.71270
 H148 H 0.89863 0.59362 0.70395
 C149 C 0.93705 0.53131 0.73367
 H150 H 0.94739 0.51337 0.74145
 C151 C 0.95293 0.55207 0.72357
 H152 H 0.97551 0.55008 0.72381
 Zn153 Zn 0.88527 0.50632 0.74522
 N154 N 0.90866 0.53355 0.73328
 C155 C 0.86955 0.54314 0.78489
 N156 N 0.86338 0.51923 0.77360
 C157 C 0.84353 0.50342 0.78392
 C158 C 0.82869 0.51171 0.80628
 C159 C 0.85559 0.55203 0.80747
 C160 C 0.87794 0.48836 0.69350
 C161 C 0.86419 0.48124 0.66974
 C162 C 0.82015 0.49090 0.69065
 C163 C 0.83485 0.49797 0.71405
 N164 N 0.86325 0.49636 0.71507
 H165 H 0.88585 0.55516 0.77684
 H166 H 0.83951 0.48417 0.77499
 H167 H 0.81299 0.49875 0.81418
 H168 H 0.86094 0.57136 0.81541
 H169 H 0.90054 0.48743 0.69488
 H170 H 0.87694 0.47436 0.65352
 H171 H 0.79751 0.49226 0.69028
 H172 H 0.82355 0.50495 0.73121
 C173 C 0.93940 0.57523 0.71324
 C174 C 0.93256 0.43235 0.78309
 C175 C 0.83473 0.48259 0.66789
 C176 C 0.83500 0.53606 0.81880
 C177 C 0.25164 0.41116 -0.04821
 H178 H 0.22947 0.41296 -0.04467
 C179 C 0.26342 0.42617 -0.06865
 H180 H 0.25020 0.43987 -0.08040
 C181 C 0.29575 0.39106 -0.03714
 H182 H 0.30831 0.37693 -0.02540
 C183 C 0.30837 0.40585 -0.05703
 H184 H 0.33060 0.40318 -0.06003
 N185 N 0.26789 0.39404 -0.03291
 C186 C 0.22614 0.37903 0.04240
 H187 H 0.22704 0.35739 0.04215
 C188 C 0.21443 0.39235 0.06402
 H189 H 0.20669 0.38072 0.08048
 C190 C 0.23622 0.42023 0.02149
 H191 H 0.24494 0.43095 0.00494
 C192 C 0.22487 0.43442 0.04292
 H193 H 0.22474 0.45608 0.04265
 Zn194 Zn 0.25115 0.37231 -0.00669
 N195 N 0.23623 0.39301 0.02147
 C196 C 0.29884 0.36053 0.02438
 N197 N 0.27861 0.34889 0.00915
 C198 C 0.27826 0.32192 0.00590
 C199 C 0.29965 0.30568 0.01723
 C200 C 0.32067 0.34516 0.03593
 C201 C 0.22928 0.33769 -0.04546
 C202 C 0.20933 0.32319 -0.05965
 C203 C 0.17397 0.34169 -0.02791
 C204 C 0.19572 0.35529 -0.01547
 N205 N 0.22235 0.35284 -0.02403
 H206 H 0.29819 0.38198 0.02719
 H207 H 0.26158 0.31292 -0.00565
 H208 H 0.29918 0.28427 0.01403
 H209 H 0.33605 0.35544 0.04797
 H210 H 0.25078 0.33692 -0.05166
 H211 H 0.21574 0.31131 -0.07660
 H212 H 0.15312 0.34427 -0.02032
 H213 H 0.19105 0.36820 0.00116
 C214 C 0.21330 0.42044 0.06424
 C215 C 0.29219 0.42343 -0.07328
 C216 C 0.17896 0.32377 -0.05204
 C217 C 0.32170 0.31723 0.03200
 C218 C 0.80086 0.08153 1.03886
 H219 H 0.81468 0.09515 1.02933
 C220 C 0.81047 0.06746 1.06162
 H221 H 0.83157 0.07046 1.06919
 C222 C 0.75714 0.06045 1.04043
 H223 H 0.73644 0.05752 1.03206
 C224 C 0.76612 0.04557 1.06297
 H225 H 0.75211 0.03157 1.07194
 N226 N 0.77428 0.07850 1.02913
 C227 C 0.73065 0.09553 0.95268
 H228 H 0.72973 0.11712 0.95400
 C229 C 0.71744 0.08277 0.93121
 H230 H 0.70604 0.09479 0.91633
 C231 C 0.74580 0.05383 0.97133
 H232 H 0.75701 0.04268 0.98696
 C233 C 0.73256 0.04020 0.95030
 H234 H 0.73350 0.01854 0.94995
 Zn235 Zn 0.76052 0.10117 1.00044
 N236 N 0.74449 0.08103 0.97216
 C237 C 0.79865 0.11699 0.96136
 N238 N 0.79032 0.12156 0.98680
 C239 C 0.80350 0.13969 1.00265
 C240 C 0.82594 0.15400 0.99304
 C241 C 0.82086 0.13095 0.95085
 C242 C 0.70812 0.11237 1.02190
 C243 C 0.68591 0.12775 1.03155
 C244 C 0.71170 0.16746 1.02205
 C245 C 0.73346 0.15124 1.01264
 N246 N 0.73155 0.12414 1.01317
 H247 H 0.78843 0.10211 0.94921
 H248 H 0.79680 0.14280 1.02296
 H249 H 0.83616 0.16819 1.00616
 H250 H 0.82699 0.12605 0.93077
 H251 H 0.70640 0.09093 1.02107
 H252 H 0.66806 0.11717 1.03846
 H253 H 0.71388 0.18899 1.02158
 H254 H 0.75167 0.16046 1.00470
 C255 C 0.71837 0.05472 0.92980
 C256 C 0.79275 0.04965 1.07428
 C257 C 0.68746 0.15588 1.03190
 C258 C 0.83495 0.14991 0.96674
 C259 C 0.27651 0.59659 0.53134
 H260 H 0.29156 0.60778 0.52043
 C261 C 0.28530 0.58225 0.55420
 H262 H 0.30727 0.58200 0.55985
 C263 C 0.22982 0.58333 0.53701
 H264 H 0.20813 0.58418 0.53031
 C265 C 0.23770 0.56877 0.56007
 H266 H 0.22198 0.55831 0.57101
 N267 N 0.24917 0.59688 0.52317
 C268 C 0.21505 0.60936 0.44202
 H269 H 0.21732 0.63077 0.44028
 C270 C 0.20454 0.59485 0.42030
 H271 H 0.19829 0.60545 0.40210
 C272 C 0.21980 0.56987 0.46835
 H273 H 0.22603 0.56016 0.48700
 C274 C 0.20913 0.55462 0.44720
 H275 H 0.20698 0.53325 0.44984
 Zn276 Zn 0.23661 0.61822 0.49353
 N277 N 0.22226 0.59678 0.46548
 C278 C 0.28793 0.62355 0.46880
 N279 N 0.26655 0.63776 0.47965
 C280 C 0.26631 0.66495 0.47977
 C281 C 0.28863 0.67886 0.46937
 C282 C 0.31077 0.63658 0.45836
 C283 C 0.18185 0.64144 0.49578
 C284 C 0.16082 0.65740 0.50691
 C285 C 0.19491 0.67362 0.53911
 C286 C 0.21517 0.65728 0.52745
 N287 N 0.20839 0.64165 0.50618
 H288 H 0.28731 0.60194 0.46849
 H289 H 0.24879 0.67596 0.48782
 H290 H 0.28797 0.70053 0.46984
 H291 H 0.32720 0.62423 0.45021
 H292 H 0.17675 0.62840 0.47925
 H293 H 0.13996 0.65616 0.49832
 H294 H 0.20087 0.68568 0.55623
 H295 H 0.23634 0.65671 0.53561
 C296 C 0.20154 0.56706 0.42277
 C297 C 0.26566 0.56850 0.56922
 C298 C 0.16716 0.67374 0.52913
 C299 C 0.31151 0.66480 0.45862
 C300 C 0.76216 0.92100 0.47507
 H301 H 0.77094 0.92080 0.49527
 C302 C 0.77532 0.93508 0.45487
 H303 H 0.79382 0.94622 0.45994
 C304 C 0.72764 0.90623 0.44399
 H305 H 0.70966 0.89427 0.43948
 C306 C 0.73998 0.92015 0.42327
 H307 H 0.73108 0.91903 0.40314
 N308 N 0.73889 0.90678 0.46930
 C309 C 0.69758 0.89109 0.54454
 H310 H 0.69551 0.86968 0.54257
 C311 C 0.68650 0.90424 0.56658
 H312 H 0.67637 0.89260 0.58170
 C313 C 0.71417 0.93189 0.52735
 H314 H 0.72475 0.94259 0.51189
 C315 C 0.70355 0.94584 0.54924
 H316 H 0.70617 0.96727 0.55055
 Zn317 Zn 0.72476 0.88466 0.49654
 N318 N 0.71118 0.90495 0.52555
 C319 C 0.76385 0.86250 0.53443
 N320 N 0.75481 0.86196 0.50841
 C321 C 0.76890 0.84760 0.48984
 C322 C 0.79337 0.83329 0.49713
 C323 C 0.78812 0.84843 0.54265
 C324 C 0.67168 0.87989 0.47455
 C325 C 0.64849 0.86832 0.46246
 C326 C 0.67319 0.82388 0.46970
 C327 C 0.69539 0.83788 0.48104
 N328 N 0.69442 0.86498 0.48260
 H329 H 0.75285 0.87463 0.54877
 H330 H 0.76157 0.84795 0.46915
 H331 H 0.80451 0.82241 0.48183
 H332 H 0.79480 0.85030 0.56335
 H333 H 0.67197 0.90138 0.47690
 H334 H 0.63116 0.88108 0.45557
 H335 H 0.67485 0.80231 0.46829
 H336 H 0.71376 0.82693 0.48840
 C337 C 0.68926 0.93204 0.56902
 C338 C 0.76449 0.93423 0.42843
 C339 C 0.64711 0.83864 0.45826
 C340 C 0.80359 0.83370 0.52380
 C341 C -0.03165 0.27231 0.42136
 H342 H -0.01419 0.26612 0.43429
 C343 C -0.05491 0.28535 0.43221
 H344 H -0.05497 0.28932 0.45350
 C345 C -0.05217 0.27575 0.37769
 H346 H -0.05078 0.27205 0.35642
 C347 C -0.07558 0.28904 0.38760
 H348 H -0.09224 0.29560 0.37383
 N349 N -0.03063 0.26808 0.39449
 C350 C 0.01996 0.21839 0.42108
 H351 H -0.00114 0.21128 0.42078
 C352 C 0.04002 0.20615 0.43818
 H353 H 0.03407 0.18954 0.45066
 C354 C 0.05347 0.24828 0.40517
 H355 H 0.05876 0.26473 0.39234
 C356 C 0.07422 0.23654 0.42185
 H357 H 0.09514 0.24407 0.42091
 Zn358 Zn 0.00067 0.25199 0.37814
 N359 N 0.02711 0.23858 0.40440
 C360 C 0.04031 0.27092 0.34137
 N361 N 0.01798 0.27794 0.35634
 C362 C 0.00847 0.30374 0.35711
 C363 C 0.02121 0.32358 0.34231
 C364 C 0.05371 0.29012 0.32618
 C365 C -0.03020 0.20615 0.36947
 C366 C -0.04086 0.18412 0.35596
 C367 C -0.01685 0.19809 0.31651
 C368 C -0.00664 0.21990 0.33087
 N369 N -0.01287 0.22317 0.35712
 H370 H 0.04807 0.25043 0.34160
 H371 H -0.00872 0.30923 0.36970
 H372 H 0.01304 0.34374 0.34418
 H373 H 0.07153 0.28398 0.31454
 H374 H -0.03627 0.20995 0.38982
 H375 H -0.05486 0.17157 0.36671
 H376 H -0.01129 0.19575 0.29572
 H377 H 0.00620 0.23411 0.32090
 C378 C 0.06771 0.21477 0.43833
 C379 C -0.07714 0.29407 0.41512
 C380 C -0.03382 0.17944 0.32909
 C381 C 0.04428 0.31696 0.32639
 C382 C 1.02956 0.78264 0.09339
 H383 H 1.01051 0.77984 0.08170
 C384 C 1.05206 0.79567 0.08211
 H385 H 1.05004 0.80315 0.06175
 C386 C 1.05506 0.77705 0.13449
 H387 H 1.05595 0.76975 0.15495
 C388 C 1.07776 0.79021 0.12420
 H389 H 1.09620 0.79304 0.13685
 N390 N 1.03142 0.77397 0.11926
 C391 C 0.97245 0.73010 0.09501
 H392 H 0.99154 0.71848 0.09304
 C393 C 0.94843 0.72258 0.08068
 H394 H 0.94952 0.70502 0.06815
 C395 C 0.94750 0.76582 0.11513
 H396 H 0.94709 0.78261 0.12865
 C397 C 0.92300 0.75892 0.10133
 H398 H 0.90390 0.77033 0.10461
 Zn399 Zn 1.00197 0.75715 0.13658
 N400 N 0.97138 0.75087 0.11251
 C401 C 0.96745 0.77202 0.17973
 N402 N 0.98916 0.77966 0.16461
 C403 C 0.99988 0.80451 0.16708
 C404 C 0.98845 0.82298 0.18479
 C405 C 0.95517 0.78996 0.19758
 C406 C 1.03294 0.71008 0.13256
 C407 C 1.04581 0.68594 0.14033
 C408 C 1.02586 0.69099 0.18403
 C409 C 1.01338 0.71522 0.17535
 N410 N 1.01685 0.72409 0.14987
 H411 H 0.95875 0.75241 0.17694
 H412 H 1.01651 0.81067 0.15441
 H413 H 0.99705 0.84274 0.18503
 H414 H 0.93731 0.78368 0.20874
 H415 H 1.03625 0.71797 0.11271
 H416 H 1.05856 0.67531 0.12604
 H417 H 1.02280 0.68482 0.20449
 H418 H 1.00121 0.72697 0.18911
 C419 C 0.92309 0.73671 0.08435
 C420 C 1.07644 0.79973 0.09778
 C421 C 1.04237 0.67587 0.16631
 C422 C 0.96530 0.81605 0.20007
 C423 C 0.54417 0.29801 0.61385
 H424 H 0.53299 0.31268 0.62550
 C425 C 0.56818 0.30548 0.60072
 H426 H 0.57506 0.32585 0.60270
 C427 C 0.54995 0.25331 0.59911
 H428 H 0.54292 0.23289 0.59904
 C429 C 0.57420 0.25990 0.58573
 H430 H 0.58568 0.24450 0.57516
 N431 N 0.53538 0.27235 0.61267
 C432 C 0.45002 0.24572 0.62147
 H433 H 0.44800 0.24958 0.64265
 C434 C 0.42735 0.23612 0.60659
 H435 H 0.40786 0.23328 0.61659
 C436 C 0.47785 0.24609 0.58289
 H437 H 0.49750 0.25021 0.57372
 C438 C 0.45567 0.23635 0.56723
 H439 H 0.45852 0.23286 0.54606
 Zn440 Zn 0.50405 0.26213 0.63246
 N441 N 0.47478 0.25004 0.60962
 C442 C 0.47741 0.31163 0.63574
 N443 N 0.48961 0.29202 0.65123
 C444 C 0.49046 0.29385 0.67841
 C445 C 0.47916 0.31647 0.69102
 C446 C 0.46589 0.33447 0.64740
 C447 C 0.50418 0.20970 0.65376
 C448 C 0.51493 0.18781 0.66844
 C449 C 0.55014 0.21634 0.68766
 C450 C 0.53861 0.23772 0.67261
 N451 N 0.51616 0.23401 0.65592
 H452 H 0.47674 0.30950 0.61417
 H453 H 0.49981 0.27778 0.69037
 H454 H 0.48011 0.31705 0.71265
 H455 H 0.45641 0.34980 0.63447
 H456 H 0.48684 0.20688 0.63989
 H457 H 0.50511 0.16884 0.66522
 H458 H 0.56839 0.21969 0.70040
 H459 H 0.54812 0.25714 0.67358
 C460 C 0.43021 0.23070 0.57917
 C461 C 0.58345 0.28632 0.58626
 C462 C 0.53858 0.19076 0.68554
 C463 C 0.46671 0.33736 0.67540
 C464 C 0.47142 0.77150 0.92370
 H465 H 0.49082 0.76707 0.93454
 C466 C 0.44863 0.78235 0.93726
 H467 H 0.45084 0.78593 0.95855
 C468 C 0.44470 0.77091 0.88306
 H469 H 0.44338 0.76622 0.86193
 C470 C 0.42147 0.78166 0.89577
 H471 H 0.40226 0.78532 0.88426
 N472 N 0.46912 0.76635 0.89701
 C473 C 0.53799 0.71556 0.90208
 H474 H 0.52622 0.70024 0.89202
 C475 C 0.56223 0.70833 0.91665
 H476 H 0.56809 0.68735 0.91824
 C477 C 0.54443 0.76129 0.91226
 H478 H 0.53749 0.78194 0.91004
 C479 C 0.56895 0.75492 0.92700
 H480 H 0.58082 0.77077 0.93624
 Zn481 Zn 0.49868 0.75121 0.87734
 N482 N 0.52966 0.74167 0.89998
 C483 C 0.53340 0.77063 0.83691
 N484 N 0.51106 0.77664 0.85222
 C485 C 0.49952 0.80172 0.85229
 C486 C 0.51071 0.82210 0.83703
 C487 C 0.54533 0.79045 0.82126
 C488 C 0.47105 0.70368 0.87795
 C489 C 0.45908 0.68030 0.86858
 C490 C 0.47468 0.69094 0.82418
 C491 C 0.48628 0.71439 0.83449
 N492 N 0.48441 0.72012 0.86100
 H493 H 0.54261 0.75068 0.83763
 H494 H 0.48226 0.80639 0.86509
 H495 H 0.50109 0.84171 0.83861
 H496 H 0.56354 0.78530 0.80973
 H497 H 0.46968 0.70886 0.89890
 H498 H 0.44851 0.66765 0.88262
 H499 H 0.47629 0.68718 0.80298
 H500 H 0.49662 0.72798 0.82131
 C501 C 0.57848 0.72823 0.92875
 C502 C 0.42331 0.78782 0.92311
 C503 C 0.46079 0.67344 0.84141
 C504 C 0.53441 0.81684 0.82148
 C505 C 0.47219 -0.24169 0.34082
 C506 C 0.46458 -0.21759 0.35314
 C507 C 0.45428 -0.19321 0.33861
 C508 C 0.44345 -0.17181 0.35355
 C509 C 0.43454 -0.14796 0.34098
 C510 C 0.43650 -0.14491 0.31307
 C511 C 0.44706 -0.16636 0.29807
 C512 C 0.45607 -0.19019 0.31065
 C513 C 0.42688 -0.12014 0.29889
 C514 C 0.42476 -0.09516 0.31129
 H515 H 0.46704 -0.21626 0.37472
 H516 H 0.44182 -0.17356 0.37510
 H517 H 0.42576 -0.13221 0.35316
 H518 H 0.44868 -0.16456 0.27653
 H519 H 0.46484 -0.20583 0.29835
 H520 H 0.42254 -0.12158 0.27757
 H521 H 0.46742 -0.24439 0.31973
 H522 H 0.43248 -0.09305 0.33172
 C523 C 0.98745 0.26535 0.84212
 C524 C 0.97482 0.28877 0.85172
 C525 C 0.96848 0.31285 0.83507
 C526 C 0.96220 0.33702 0.84799
 C527 C 0.95522 0.36010 0.83318
 C528 C 0.95448 0.35950 0.80498
 C529 C 0.96055 0.33527 0.79207
 C530 C 0.96745 0.31216 0.80688
 C531 C 0.94570 0.38307 0.78846
 C532 C 0.94521 0.40927 0.79812
 H533 H 0.96997 0.28963 0.87280
 H534 H 0.96243 0.33801 0.86968
 H535 H 0.94973 0.37805 0.84402
 H536 H 0.95963 0.33412 0.77039
 H537 H 0.97124 0.29382 0.79606
 H538 H 0.93972 0.37942 0.76779
 H539 H 0.99471 0.26483 0.82178
 H540 H 0.95443 0.41328 0.81766
 C541 C 0.00515 1.21847 0.84385
 C542 C 0.01938 1.19637 0.85529
 C543 C 0.03052 1.17389 0.83934
 C544 C 0.03543 1.14899 0.85184
 C545 C 0.04676 1.12751 0.83761
 C546 C 0.05354 1.13061 0.81052
 C547 C 0.04905 1.15565 0.79816
 C548 C 0.03760 1.17708 0.81235
 C549 C 0.06680 1.10880 0.79504
 C550 C 0.06405 1.08170 0.80123
 H551 H 0.02217 1.19534 0.87688
 H552 H 0.03060 1.14620 0.87275
 H553 H 0.05086 1.10883 0.84815
 H554 H 0.05458 1.15868 0.77747
 H555 H 0.03507 1.19622 0.80230
 H556 H 0.07904 1.11470 0.77822
 H557 H -0.00030 1.21809 0.82266
 H558 H 0.05087 1.07620 0.81757
 C559 C 0.49994 0.71565 0.33781
 C560 C 0.51246 0.69184 0.34756
 C561 C 0.52576 0.67108 0.33075
 C562 C 0.53062 0.64553 0.34189
 C563 C 0.54329 0.62521 0.32707
 C564 C 0.55140 0.63001 0.30063
 C565 C 0.54704 0.65571 0.28963
 C566 C 0.53428 0.67607 0.30446
 C567 C 0.56563 0.60918 0.28455
 C568 C 0.56315 0.58174 0.28934
 H569 H 0.51113 0.68763 0.36882
 H570 H 0.52465 0.64126 0.36223
 H571 H 0.54724 0.60605 0.33673
 H572 H 0.55355 0.66006 0.26947
 H573 H 0.53167 0.69565 0.29536
 H574 H 0.57848 0.61602 0.26852
 H575 H 0.49983 0.72005 0.31657
 H576 H 0.54958 0.57520 0.30496
 C577 C 0.52165 0.26120 0.13880
 C578 C 0.51353 0.28833 0.13750
 C579 C 0.52894 0.31016 0.15090
 C580 C 0.51625 0.33573 0.15155
 C581 C 0.53041 0.35738 0.16257
 C582 C 0.55771 0.35389 0.17338
 C583 C 0.57040 0.32831 0.17272
 C584 C 0.55629 0.30668 0.16156
 C585 C 0.57413 0.37633 0.18440
 C586 C 0.56290 0.40170 0.19009
 H587 H 0.49493 0.29424 0.12602
 H588 H 0.49536 0.33909 0.14314
 H589 H 0.51999 0.37676 0.16190
 H590 H 0.59153 0.32508 0.18058
 H591 H 0.56729 0.28761 0.16082
 H592 H 0.59603 0.37225 0.18895
 H593 H 0.53859 0.25503 0.15238
 H594 H 0.54057 0.40526 0.18844
 C595 C -0.00135 0.78280 0.62858
 C596 C 0.01238 0.78552 0.65350
 C597 C 0.02548 0.81065 0.66207
 C598 C 0.02700 0.81679 0.68945
 C599 C 0.04041 0.83980 0.69832
 C600 C 0.05297 0.85685 0.67990
 C601 C 0.05183 0.85047 0.65256
 C602 C 0.03805 0.82768 0.64366
 C603 C 0.06869 0.88046 0.68877
 C604 C 0.06213 0.89494 0.71168
 H605 H 0.01390 0.76887 0.66739
 H606 H 0.01786 0.80369 0.70402
 H607 H 0.04163 0.84374 0.71961
 H608 H 0.06175 0.86309 0.63807
 H609 H 0.03807 0.82301 0.62250
 H610 H 0.08512 0.88739 0.67611
 H611 H -0.00302 0.80017 0.61554
 H612 H 0.04337 0.89037 0.72233
 C613 C 0.98517 0.73519 0.63894
 C614 C 0.98662 0.70772 0.63363
 C615 C 0.97821 0.68680 0.65270
 C616 C 0.98729 0.66029 0.64851
 C617 C 0.97789 0.63951 0.66455
 C618 C 0.95909 0.64488 0.68515
 C619 C 0.95034 0.67142 0.68958
 C620 C 0.95973 0.69219 0.67358
 C621 C 0.94609 0.62337 0.70066
 C622 C 0.95599 0.59688 0.70175
 H623 H 0.99373 0.70106 0.61430
 H624 H 1.00124 0.65556 0.63236
 H625 H 0.98458 0.61929 0.65997
 H626 H 0.93555 0.67605 0.70506
 H627 H 0.95145 0.71211 0.67703
 H628 H 0.92743 0.62867 0.71144
 H629 H 0.97766 0.74176 0.65811
 H630 H 0.97647 0.59177 0.69436
 C631 C 0.49566 0.22016 0.14332
 C632 C 0.50416 0.19341 0.14755
 C633 C 0.48962 0.17482 0.16541
 C634 C 0.50337 0.15096 0.17362
 C635 C 0.48975 0.13205 0.18904
 C636 C 0.46186 0.13659 0.19641
 C637 C 0.44831 0.16067 0.18855
 C638 C 0.46188 0.17950 0.17310
 C639 C 0.44566 0.11677 0.21142
 C640 C 0.45381 0.08999 0.21566
 H641 H 0.52223 0.18547 0.13741
 H642 H 0.52471 0.14682 0.16790
 H643 H 0.50123 0.11405 0.19494
 H644 H 0.42679 0.16467 0.19380
 H645 H 0.45015 0.19718 0.16658
 H646 H 0.42550 0.12349 0.21847
 H647 H 0.47968 0.22870 0.15586
 H648 H 0.47446 0.08298 0.21043
 C649 C 0.35030 0.49671 -0.22957
 C650 C 0.35809 0.49316 -0.20250
 C651 C 0.33983 0.48289 -0.18140
 C652 C 0.34866 0.48581 -0.15456
 C653 C 0.33327 0.47526 -0.13379
 C654 C 0.30873 0.46117 -0.13939
 C655 C 0.29931 0.45896 -0.16615
 C656 C 0.31476 0.46955 -0.18703
 C657 C 0.29301 0.44829 -0.11780
 C658 C 0.30632 0.43863 -0.09432
 H659 H 0.37900 0.49859 -0.19612
 H660 H 0.36772 0.49620 -0.14959
 H661 H 0.34068 0.47822 -0.11337
 H662 H 0.28037 0.44833 -0.17097
 H663 H 0.30731 0.46655 -0.20739
 H664 H 0.27119 0.44405 -0.12162
 H665 H 0.32959 0.49132 -0.23648
 H666 H 0.32880 0.44009 -0.09226
 C667 C 0.85921 0.98997 0.28796
 C668 C 0.86983 0.97992 0.31252
 C669 C 0.85275 0.97278 0.33573
 C670 C 0.82441 0.98046 0.33776
 C671 C 0.80945 0.97338 0.36036
 C672 C 0.82252 0.95849 0.38135
 C673 C 0.85091 0.95143 0.37952
 C674 C 0.86582 0.95843 0.35698
 C675 C 0.80749 0.95002 0.40542
 C676 C 0.77857 0.94686 0.40571
 H677 H 0.89223 0.97662 0.31466
 H678 H 0.81373 0.99227 0.32230
 H679 H 0.78785 0.98002 0.36144
 H680 H 0.86156 0.94015 0.39548
 H681 H 0.88769 0.95250 0.35611
 H682 H 0.82006 0.94338 0.42263
 H683 H 0.83687 0.99240 0.28465
 H684 H 0.76622 0.95065 0.38758
 C685 C 0.86086 0.00699 1.24127
 C686 C 0.86353 -0.00305 1.21527
 C687 C 0.84969 0.00970 1.19148
 C688 C 0.84371 -0.00589 1.16882
 C689 C 0.83266 0.00597 1.14528
 C690 C 0.82784 0.03379 1.14389
 C691 C 0.83391 0.04937 1.16653
 C692 C 0.84454 0.03748 1.19016
 C693 C 0.81833 0.04734 1.11877
 C694 C 0.80173 0.03524 1.09907
 H695 H 0.87651 -0.02061 1.21179
 H696 H 0.84794 -0.02727 1.16923
 H697 H 0.82889 -0.00652 1.12797
 H698 H 0.83070 0.07089 1.16581
 H699 H 0.84970 0.05022 1.20696
 H700 H 0.82345 0.06820 1.11631
 H701 H 0.84576 0.02308 1.24439
 H702 H 0.79326 0.01572 1.10283
 C703 C 0.35446 0.52112 0.72720
 C704 C 0.33764 0.50846 0.70798
 C705 C 0.32640 0.52242 0.68356
 C706 C 0.30428 0.51122 0.66874
 C707 C 0.29413 0.52335 0.64493
 C708 C 0.30606 0.54699 0.63546
 C709 C 0.32830 0.55797 0.65023
 C710 C 0.33847 0.54584 0.67384
 C711 C 0.29693 0.56061 0.61012
 C712 C 0.27362 0.55388 0.59430
 H713 H 0.33350 0.48739 0.71043
 H714 H 0.29493 0.49294 0.67552
 H715 H 0.27733 0.51383 0.63403
 H716 H 0.33820 0.57592 0.64328
 H717 H 0.35631 0.55460 0.68386
 H718 H 0.30895 0.57761 0.60415
 H719 H 0.35580 0.54268 0.72625
 H720 H 0.25969 0.53868 0.60106
 C721 C 0.14149 0.50037 0.26171
 C722 C 0.13096 0.50718 0.28673
 C723 C 0.14780 0.51874 0.30889
 C724 C 0.13812 0.51661 0.33508
 C725 C 0.15229 0.52874 0.35644
 C726 C 0.17644 0.54347 0.35197
 C727 C 0.18608 0.54569 0.32574
 C728 C 0.17201 0.53337 0.30438
 C729 C 0.19080 0.55815 0.37382
 C730 C 0.18942 0.55089 0.40081
 H731 H 0.10907 0.50377 0.29026
 H732 H 0.11927 0.50580 0.33900
 H733 H 0.14369 0.52728 0.37622
 H734 H 0.20439 0.55728 0.32173
 H735 H 0.17962 0.53616 0.28437
 H736 H 0.20349 0.57486 0.36830
 H737 H 0.16345 0.50288 0.25798
 H738 H 0.17998 0.53217 0.40611
 C739 C 0.63354 0.00641 0.77217
 C740 C 0.62654 0.00992 0.79898
 C741 C 0.64646 0.01925 0.81990
 C742 C 0.64228 0.01222 0.84673
 C743 C 0.65977 0.02187 0.86721
 C744 C 0.68164 0.03906 0.86121
 C745 C 0.68571 0.04621 0.83439
 C746 C 0.66841 0.03633 0.81389
 C747 C 0.69907 0.05149 0.88247
 C748 C 0.70359 0.04035 0.90799
 H749 H 0.60564 0.00515 0.80501
 H750 H 0.62524 -0.00059 0.85188
 H751 H 0.65547 0.01658 0.88771
 H752 H 0.70212 0.05977 0.82931
 H753 H 0.67171 0.04288 0.79355
 H754 H 0.70919 0.06998 0.87757
 H755 H 0.65461 0.01049 0.76617
 H756 H 0.69686 0.02022 0.91197
 C757 C 0.62580 0.99117 0.72504
 C758 C 0.61013 0.98552 0.70180
 C759 C 0.62235 0.97438 0.67721
 C760 C 0.65032 0.97841 0.67050
 C761 C 0.66111 0.96716 0.64719
 C762 C 0.64409 0.95174 0.63015
 C763 C 0.61615 0.94796 0.63681
 C764 C 0.60532 0.95939 0.65992
 C765 C 0.65499 0.93821 0.60613
 C766 C 0.67816 0.94680 0.59225
 H767 H 0.58756 0.98765 0.70242
 H768 H 0.66389 0.99035 0.68305
 H769 H 0.68289 0.97008 0.64296
 H770 H 0.60264 0.93608 0.62408
 H771 H 0.58368 0.95611 0.66458
 H772 H 0.64345 0.92140 0.59842
 H773 H 0.64810 0.98701 0.72556
 H774 H 0.68760 0.96558 0.59758
 C775 C 0.13848 0.48238 0.21492
 C776 C 0.12481 0.47418 0.19136
 C777 C 0.13934 0.46249 0.16822
 C778 C 0.16705 0.46863 0.16225
 C779 C 0.17992 0.45701 0.14011
 C780 C 0.16531 0.43902 0.12363
 C781 C 0.13766 0.43305 0.12962
 C782 C 0.12471 0.44490 0.15147
 C783 C 0.17848 0.42512 0.10092
 C784 C 0.20062 0.43533 0.08663
 H785 H 0.10215 0.47465 0.19068
 H786 H 0.17873 0.48254 0.17444
 H787 H 0.20143 0.46169 0.13632
 H788 H 0.12599 0.41918 0.11730
 H789 H 0.10331 0.43994 0.15558
 H790 H 0.16924 0.40664 0.09427
 H791 H 0.16101 0.48024 0.21678
 H792 H 0.20762 0.45538 0.09070
 C793 C -0.22651 0.37040 0.49454
 C794 C -0.20115 0.37879 0.48442
 C795 C -0.17821 0.36047 0.47642
 C796 C -0.15973 0.36939 0.45713
 C797 C -0.13774 0.35293 0.44880
 C798 C -0.13361 0.32717 0.45979
 C799 C -0.15153 0.31849 0.47973
 C800 C -0.17381 0.33492 0.48788
 C801 C -0.11040 0.30949 0.45106
 C802 C -0.10121 0.31002 0.42475
 H803 H -0.19889 0.39983 0.48002
 H804 H -0.16243 0.38915 0.44831
 H805 H -0.12375 0.36058 0.43404
 H806 H -0.14844 0.29888 0.48878
 H807 H -0.18717 0.32773 0.50339
 H808 H -0.10153 0.29492 0.46515
 H809 H -0.22973 0.34926 0.49760
 H810 H -0.11286 0.32214 0.41007
 C811 C 0.27604 0.86305 1.00205
 C812 C 0.30380 0.87143 1.00164
 C813 C 0.32752 0.85533 0.99133
 C814 C 0.32386 0.83258 0.97522
 C815 C 0.34701 0.81869 0.96525
 C816 C 0.37428 0.82743 0.97086
 C817 C 0.37791 0.84975 0.98737
 C818 C 0.35479 0.86365 0.99734
 C819 C 0.39927 0.81394 0.95977
 C820 C 0.39829 0.79943 0.93593
 H821 H 0.30846 0.89101 1.00958
 H822 H 0.30332 0.82557 0.96976
 H823 H 0.34336 0.80109 0.95326
 H824 H 0.39868 0.85679 0.99216
 H825 H 0.35825 0.88107 1.00972
 H826 H 0.41929 0.81769 0.96941
 H827 H 0.27076 0.84379 0.99385
 H828 H 0.37863 0.79832 0.92483
 C829 C 1.22770 0.86417 0.01881
 C830 C 1.20421 0.87533 0.03104
 C831 C 1.17934 0.86004 0.03798
 C832 C 1.16267 0.86953 0.05874
 C833 C 1.13908 0.85571 0.06620
 C834 C 1.13154 0.83216 0.05283
 C835 C 1.14751 0.82321 0.03134
 C836 C 1.17136 0.83692 0.02403
 C837 C 1.10717 0.81681 0.06113
 C838 C 1.10019 0.81501 0.08802
 H839 H 1.20471 0.89613 0.03702
 H840 H 1.16810 0.88757 0.06944
 H841 H 1.12665 0.86361 0.08229
 H842 H 1.14179 0.80534 0.02050
 H843 H 1.18319 0.82958 0.00731
 H844 H 1.09608 0.80509 0.04627
 H845 H 1.22802 0.84308 0.01398
 H846 H 1.11385 0.82392 0.10298
 C847 C 0.72300 0.37594 0.50585
 C848 C 0.72050 0.35684 0.52616
 C849 C 0.69322 0.34641 0.53430
 C850 C 0.69252 0.32201 0.54826
 C851 C 0.66727 0.31241 0.55759
 C852 C 0.64218 0.32720 0.55321
 C853 C 0.64295 0.35162 0.53934
 C854 C 0.66811 0.36116 0.53000
 C855 C 0.61525 0.31900 0.56432
 C856 C 0.60968 0.29305 0.57287
 H857 H 0.73921 0.34968 0.53685
 H858 H 0.71164 0.31050 0.55224
 H859 H 0.66773 0.29389 0.56888
 H860 H 0.62403 0.36363 0.53609
 H861 H 0.66781 0.38054 0.52027
 H862 H 0.59880 0.33416 0.56522
 H863 H 0.70451 0.38168 0.49403
 H864 H 0.62446 0.27694 0.56896
 C865 C 0.28110 0.13276 0.52441
 C866 C 0.29259 0.15700 0.51671
 C867 C 0.31679 0.16877 0.53116
 C868 C 0.33295 0.18770 0.51814
 C869 C 0.35563 0.19947 0.53149
 C870 C 0.36250 0.19252 0.55827
 C871 C 0.34597 0.17394 0.57136
 C872 C 0.32336 0.16226 0.55807
 C873 C 0.38588 0.20455 0.57375
 C874 C 0.40713 0.21946 0.56264
 H875 H 0.28370 0.16761 0.49944
 H876 H 0.32801 0.19341 0.49756
 H877 H 0.36728 0.21422 0.52083
 H878 H 0.35044 0.16853 0.59210
 H879 H 0.31080 0.14862 0.56924
 H880 H 0.38699 0.20024 0.59502
 H881 H 0.29224 0.12066 0.53944
 H882 H 0.40812 0.22159 0.54112
 C883 C 0.78255 0.64489 0.00391
 C884 C 0.79676 0.64628 0.02869
 C885 C 0.82022 0.66444 0.03375
 C886 C 0.82552 0.67331 0.05995
 C887 C 0.84883 0.68874 0.06589
 C888 C 0.86754 0.69529 0.04572
 C889 C 0.86230 0.68634 0.01951
 C890 C 0.83874 0.67121 0.01349
 C891 C 0.89375 0.70933 0.05207
 C892 C 0.89610 0.72718 0.07338
 H893 H 0.79101 0.63354 0.04511
 H894 H 0.81180 0.66794 0.07595
 H895 H 0.85271 0.69456 0.08648
 H896 H 0.87669 0.69075 0.00376
 H897 H 0.83575 0.66395 -0.00675
 H898 H 0.91159 0.70531 0.03971
 H899 H 0.78788 0.65894 -0.01165
 H900 H 0.87726 0.73390 0.08315
 C901 C 0.73395 0.63537 0.98583
 C902 C 0.72652 0.66259 0.98518
 C903 C 0.69984 0.67227 0.97260
 C904 C 0.68677 0.69569 0.98197
 C905 C 0.66137 0.70497 0.97040
 C906 C 0.64883 0.69110 0.94889
 C907 C 0.66237 0.66804 0.93923
 C908 C 0.68756 0.65875 0.95085
 C909 C 0.62183 0.69944 0.93581
 C910 C 0.60538 0.72165 0.94287
 H911 H 0.73996 0.67710 0.99463
 H912 H 0.69605 0.70660 0.99853
 H913 H 0.65185 0.72286 0.97850
 H914 H 0.65341 0.65707 0.92254
 H915 H 0.69755 0.64118 0.94244
 H916 H 0.61476 0.68737 0.91912
 H917 H 0.71838 0.62120 0.97939
 H918 H 0.61278 0.73547 0.95789
 C919 C 0.23246 0.14160 0.50522
 C920 C 0.20781 0.13474 0.49151
 C921 C 0.18447 0.15367 0.48461
 C922 C 0.15887 0.14316 0.47594
 C923 C 0.13664 0.16005 0.46765
 C924 C 0.13950 0.18799 0.46792
 C925 C 0.16510 0.19854 0.47665
 C926 C 0.18738 0.18161 0.48495
 C927 C 0.11719 0.20645 0.45720
 C928 C 0.08922 0.19922 0.45416
 H929 H 0.20554 0.11405 0.48559
 H930 H 0.15618 0.12172 0.47513
 H931 H 0.11770 0.15098 0.46020
 H932 H 0.16802 0.21996 0.47663
 H933 H 0.20695 0.19056 0.49080
 H934 H 0.12336 0.22625 0.45135
 H935 H 0.23456 0.16147 0.51337
 H936 H 0.08273 0.18068 0.46308
 C937 C 0.59406 0.02510 0.74514
 C938 C 0.60531 0.04816 0.73415
 C939 C 0.58863 0.07266 0.72704
 C940 C 0.60264 0.09648 0.72211
 C941 C 0.58786 0.11968 0.71387
 C942 C 0.55859 0.11952 0.71040
 C943 C 0.54459 0.09570 0.71538
 C944 C 0.55936 0.07252 0.72358
 C945 C 0.54217 0.14288 0.69960
 C946 C 0.55192 0.16913 0.69936
 H947 H 0.62755 0.04816 0.73055
 H948 H 0.62521 0.09705 0.72425
 H949 H 0.59962 0.13729 0.70944
 H950 H 0.52212 0.09486 0.71245
 H951 H 0.54773 0.05448 0.72629
 H952 H 0.52148 0.13875 0.69180
 H953 H 0.57249 0.02548 0.75107
 H954 H 0.57115 0.17312 0.71038
 C955 C 1.10406 0.51623 0.23068
 C956 C 1.11587 0.53986 0.22177
 C957 C 1.09946 0.56469 0.21571
 C958 C 1.11093 0.58393 0.19897
 C959 C 1.09633 0.60781 0.19302
 C960 C 1.06988 0.61296 0.20381
 C961 C 1.05879 0.59409 0.22123
 C962 C 1.07335 0.57013 0.22710
 C963 C 1.05385 0.63804 0.19777
 C964 C 1.05614 0.65159 0.17336
 H965 H 1.13821 0.53996 0.21874
 H966 H 1.13126 0.58046 0.19041
 H967 H 1.10606 0.62235 0.18036
 H968 H 1.03870 0.59783 0.23019
 H969 H 1.06430 0.55628 0.24094
 H970 H 1.03890 0.64466 0.21231
 H971 H 1.08159 0.51530 0.23222
 H972 H 1.06914 0.64233 0.15839
 C973 C 0.89818 0.97462 0.25906
 C974 C 0.88910 0.94827 0.25693
 C975 C 0.90743 0.92553 0.24912
 C976 C 0.89513 0.90239 0.23884
 C977 C 0.91171 0.88085 0.23031
 C978 C 0.94105 0.88193 0.23223
 C979 C 0.95331 0.90480 0.24314
 C980 C 0.93674 0.92632 0.25170
 C981 C 0.95941 0.86078 0.22101
 C982 C 0.95079 0.83462 0.21605
 H983 H 0.86718 0.94445 0.25978
 H984 H 0.87260 0.90125 0.23675
 H985 H 0.90144 0.86389 0.22139
 H986 H 0.97585 0.90614 0.24484
 H987 H 0.94703 0.94339 0.26035
 H988 H 0.98043 0.86648 0.21657
 H989 H 0.91920 0.97924 0.25336
 H990 H 0.93140 0.82840 0.22462
 C991 C 0.38629 0.48245 0.73806
 C992 C 0.40193 0.46411 0.75387
 C993 C 0.41520 0.43958 0.74288
 C994 C 0.40510 0.42766 0.71917
 C995 C 0.41772 0.40428 0.70952
 C996 C 0.44079 0.39227 0.72330
 C997 C 0.45031 0.40373 0.74739
 C998 C 0.43764 0.42714 0.75708
 C999 C 0.45471 0.36750 0.71348
 C1000 C 0.45469 0.36077 0.68625
 H1001 H 0.40492 0.46807 0.77504
 H1002 H 0.38701 0.43588 0.70831
 H1003 H 0.40887 0.39539 0.69159
 H1004 H 0.46776 0.39467 0.75863
 H1005 H 0.44550 0.43564 0.77564
 H1006 H 0.46630 0.35538 0.72808
 H1007 H 0.38615 0.48002 0.71651
 H1008 H 0.44517 0.37506 0.67221
 C1009 C 0.39153 0.52597 0.76137
 C1010 C 0.38242 0.54890 0.77487
 C1011 C 0.40064 0.57092 0.78357
 C1012 C 0.39065 0.58877 0.80287
 C1013 C 0.40624 0.61078 0.81073
 C1014 C 0.43228 0.61548 0.79938
 C1015 C 0.44215 0.59789 0.77975
 C1016 C 0.42658 0.57570 0.77197
 C1017 C 0.44879 0.63910 0.80703
 C1018 C 0.44781 0.64989 0.83283
 H1019 H 0.36037 0.55087 0.77913
 H1020 H 0.37051 0.58583 0.81175
 H1021 H 0.39746 0.62443 0.82520
 H1022 H 0.46194 0.60134 0.77042
 H1023 H 0.43458 0.56289 0.75641
 H1024 H 0.46266 0.64704 0.79237
 H1025 H 0.41354 0.52299 0.75753
 H1026 H 0.43634 0.63893 0.84759
 C1027 C -0.10372 0.02052 0.27654
 C1028 C -0.10426 0.04691 0.26693
 C1029 C -0.09081 0.06903 0.28169
 C1030 C -0.08463 0.09262 0.26792
 C1031 C -0.07340 0.11444 0.28162
 C1032 C -0.06823 0.11304 0.30949
 C1033 C -0.07466 0.08952 0.32323
 C1034 C -0.08585 0.06778 0.30958
 C1035 C -0.05771 0.13591 0.32527
 C1036 C -0.04331 0.15730 0.31430
 H1037 H -0.11512 0.05188 0.24824
 H1038 H -0.08879 0.09428 0.24653
 H1039 H -0.06962 0.13248 0.27039
 H1040 H -0.07134 0.08805 0.34475
 H1041 H -0.09137 0.05046 0.32118
 H1042 H -0.06039 0.13469 0.34664
 H1043 H -0.09009 0.01568 0.29360
 H1044 H -0.03819 0.15635 0.29333
 C1045 C 0.10382 0.46940 0.24803
 C1046 C 0.11517 0.44609 0.25992
 C1047 C 0.09808 0.42458 0.27118
 C1048 C 0.11099 0.39979 0.27749
 C1049 C 0.09597 0.37940 0.28938
 C1050 C 0.06754 0.38342 0.29515
 C1051 C 0.05471 0.40826 0.28891
 C1052 C 0.06973 0.42863 0.27715
 C1053 C 0.05093 0.36313 0.30905
 C1054 C 0.05871 0.33599 0.31141
 H1055 H 0.13773 0.44374 0.26132
 H1056 H 0.13292 0.39628 0.27352
 H1057 H 0.10701 0.36094 0.29461
 H1058 H 0.03299 0.41209 0.29351
 H1059 H 0.05911 0.44765 0.27356
 H1060 H 0.03145 0.37029 0.31708
 H1061 H 0.08152 0.47101 0.24411
 H1062 H 0.07688 0.32897 0.30083
 C1063 C 0.59343 0.97735 0.75972
 C1064 C 0.60465 0.95260 0.76836
 C1065 C 0.58752 0.92990 0.77707
 C1066 C 0.60022 0.90441 0.77981
 C1067 C 0.58509 0.88261 0.78879
 C1068 C 0.55673 0.88586 0.79517
 C1069 C 0.54410 0.91138 0.79243
 C1070 C 0.55923 0.93315 0.78363
 C1071 C 0.53994 0.86400 0.80636
 C1072 C 0.54836 0.83692 0.80739
 H1073 H 0.62716 0.94968 0.76831
 H1074 H 0.62207 0.90138 0.77523
 H1075 H 0.59602 0.86359 0.79123
 H1076 H 0.52243 0.91464 0.79757
 H1077 H 0.54870 0.95247 0.78271
 H1078 H 0.52005 0.87015 0.81424
 H1079 H 0.57102 0.97992 0.75736
 H1080 H 0.56709 0.83094 0.79713
 C1081 C 0.75569 0.60442 0.01878
 C1082 C 0.74028 0.61264 0.04083
 C1083 C 0.73164 0.59427 0.06224
 C1084 C 0.72508 0.60485 0.08735
 C1085 C 0.71519 0.58838 0.10756
 C1086 C 0.71149 0.56094 0.10293
 C1087 C 0.71797 0.55039 0.07779
 C1088 C 0.72804 0.56682 0.05764
 C1089 C 0.69889 0.54333 0.12302
 C1090 C 0.70032 0.54826 0.15062
 H1091 H 0.73461 0.63367 0.04255
 H1092 H 0.72727 0.62601 0.09122
 H1093 H 0.70956 0.59741 0.12639
 H1094 H 0.71485 0.52941 0.07358
 H1095 H 0.73201 0.55809 0.03828
 H1096 H 0.68901 0.52556 0.11548
 H1097 H 0.76351 0.58395 0.01793
 H1098 H 0.71398 0.56388 0.15765
 C1099 C 0.24381 1.10000 0.52961
 C1100 C 0.23736 1.10642 0.55601
 C1101 C 0.22483 1.08763 0.57494
 C1102 C 0.22968 1.09131 0.60248
 C1103 C 0.21723 1.07482 0.62117
 C1104 C 0.19938 1.05442 0.61263
 C1105 C 0.19426 1.05089 0.58507
 C1106 C 0.20702 1.06721 0.56632
 C1107 C 0.18438 1.03801 0.63209
 C1108 C 0.19551 1.03200 0.65770
 H1109 H 0.24278 1.12601 0.56349
 H1110 H 0.24300 1.10717 0.60958
 H1111 H 0.22090 1.07867 0.64227
 H1112 H 0.18020 1.03560 0.57804
 H1113 H 0.20218 1.06435 0.54525
 H1114 H 0.16453 1.03012 0.62553
 H1115 H 0.23923 1.08028 0.52200
 H1116 H 0.21721 1.03672 0.66174
 C1117 C 0.24231 0.90116 0.99051
 C1118 C 0.25372 0.90360 0.96510
 C1119 C 0.23761 0.91499 0.94195
 C1120 C 0.25182 0.92617 0.92052
 C1121 C 0.23724 0.93428 0.89709
 C1122 C 0.20823 0.93079 0.89459
 C1123 C 0.19403 0.91969 0.91604
 C1124 C 0.20850 0.91205 0.93959
 C1125 C 0.19258 0.93670 0.86928
 C1126 C 0.19912 0.95786 0.85229
 H1127 H 0.27434 0.89545 0.96126
 H1128 H 0.27431 0.92815 0.92172
 H1129 H 0.24883 0.94221 0.88061
 H1130 H 0.17173 0.91654 0.91441
 H1131 H 0.19703 0.90268 0.95538
 H1132 H 0.17401 0.92526 0.86538
 H1133 H 0.22319 0.91237 0.99427
 H1134 H 0.21503 0.97151 0.85917
 C1135 C 0.74416 0.40904 0.47682
 C1136 C 0.74134 0.39921 0.45071
 C1137 C 0.73408 0.41580 0.42677
 C1138 C 0.73903 0.40493 0.40141
 C1139 C 0.73111 0.41901 0.37812
 C1140 C 0.71763 0.44421 0.37969
 C1141 C 0.71350 0.45552 0.40500
 C1142 C 0.72145 0.44143 0.42836
 C1143 C 0.70710 0.45875 0.35541
 C1144 C 0.69753 0.44519 0.33257
 H1145 H 0.74521 0.37803 0.44758
 H1146 H 0.74895 0.38535 0.39960
 H1147 H 0.73557 0.41006 0.35896
 H1148 H 0.70326 0.47496 0.40671
 H1149 H 0.71683 0.45041 0.44743
 H1150 H 0.70426 0.48017 0.35699
 H1151 H 0.74014 0.43002 0.48064
 H1152 H 0.69849 0.42352 0.33317
 C1153 C 0.75826 0.40584 0.52563
 C1154 C 0.77640 0.42740 0.52532
 C1155 C 0.78882 0.43928 0.54987
 C1156 C 0.81404 0.45280 0.54788
 C1157 C 0.82733 0.46309 0.57069
 C1158 C 0.81551 0.46047 0.59598
 C1159 C 0.78985 0.44750 0.59796
 C1160 C 0.77655 0.43715 0.57509
 C1161 C 0.83142 0.47004 0.61978
 C1162 C 0.81944 0.47559 0.64454
 H1163 H 0.78364 0.43453 0.50626
 H1164 H 0.82387 0.45484 0.52868
 H1165 H 0.84711 0.47292 0.56859
 H1166 H 0.78028 0.44461 0.61711
 H1167 H 0.75674 0.42750 0.57736
 H1168 H 0.85329 0.47370 0.61689
 H1169 H 0.75308 0.39737 0.54480
 H1170 H 0.79689 0.47519 0.64569
 C1171 C 0.26270 -0.10587 0.03782
 C1172 C 0.26298 -0.07842 0.04291
 C1173 C 0.27758 -0.06800 0.06700
 C1174 C 0.26706 -0.04527 0.08007
 C1175 C 0.28076 -0.03551 0.10307
 C1176 C 0.30547 -0.04820 0.11303
 C1177 C 0.31634 -0.07041 0.09939
 C1178 C 0.30255 -0.08028 0.07672
 C1179 C 0.32127 -0.03846 0.13676
 C1180 C 0.30904 -0.02460 0.15799
 H1181 H 0.25218 -0.06441 0.02945
 H1182 H 0.24810 -0.03524 0.07262
 H1183 H 0.27229 -0.01784 0.11264
 H1184 H 0.33558 -0.08027 0.10638
 H1185 H 0.31174 -0.09728 0.06654
 H1186 H 0.34294 -0.04484 0.13821
 H1187 H 0.27120 -0.11939 0.05318
 H1188 H 0.28660 -0.02125 0.15716
 C1189 C 0.26491 0.10737 0.48525
 C1190 C 0.26808 0.12174 0.46143
 C1191 C 0.27879 0.11009 0.43634
 C1192 C 0.28010 0.08236 0.43159
 C1193 C 0.29064 0.07245 0.40758
 C1194 C 0.29979 0.09009 0.38774
 C1195 C 0.29816 0.11771 0.39247
 C1196 C 0.28764 0.12759 0.41639
 C1197 C 0.31255 0.08069 0.36261
 C1198 C 0.30919 0.05502 0.35193
 H1199 H 0.26326 0.14301 0.46139
 H1200 H 0.27293 0.06819 0.44616
 H1201 H 0.29209 0.05101 0.40501
 H1202 H 0.30518 0.13177 0.37763
 H1203 H 0.28673 0.14903 0.41944
 H1204 H 0.32434 0.09531 0.35198
 H1205 H 0.27209 0.08672 0.48646
 H1206 H 0.29453 0.04199 0.36133
 C1207 C 0.77610 0.60743 0.97412
 C1208 C 0.76548 0.60406 0.94794
 C1209 C 0.78209 0.59208 0.92634
 C1210 C 0.76815 0.58006 0.90460
 C1211 C 0.78308 0.57027 0.88289
 C1212 C 0.81227 0.57264 0.88242
 C1213 C 0.82618 0.58478 0.90409
 C1214 C 0.81130 0.59430 0.92592
 C1215 C 0.82853 0.56435 0.85896
 C1216 C 0.82057 0.54353 0.84192
 H1217 H 0.74433 0.61046 0.94264
 H1218 H 0.74559 0.57856 0.90429
 H1219 H 0.77161 0.56174 0.86615
 H1220 H 0.84862 0.58718 0.90397
 H1221 H 0.82263 0.60426 0.94189
 H1222 H 0.84825 0.57403 0.85640
 H1223 H 0.79649 0.59873 0.97929
 H1224 H 0.80303 0.53161 0.84762
 C1225 C 0.00809 0.74713 0.59603
 C1226 C 0.03632 0.74216 0.60265
 C1227 C 0.05693 0.72966 0.58468
 C1228 C 0.08208 0.71956 0.59617
 C1229 C 0.10222 0.70725 0.58039
 C1230 C 0.09784 0.70508 0.55252
 C1231 C 0.07266 0.71513 0.54095
 C1232 C 0.05242 0.72747 0.55681
 C1233 C 0.11852 0.69139 0.53537
 C1234 C 0.14701 0.68927 0.54252
 H1235 H 0.04329 0.74612 0.62306
 H1236 H 0.08602 0.72082 0.61761
 H1237 H 0.12082 0.69890 0.59028
 H1238 H 0.06871 0.71356 0.51955
 H1239 H 0.03355 0.73537 0.54707
 H1240 H 0.11077 0.68339 0.51662
 H1241 H -0.00021 0.74177 0.57646
 H1242 H 0.15415 0.70028 0.55994
 C1243 C 0.52874 0.22422 1.10522
 C1244 C 0.55709 0.23030 1.10333
 C1245 C 0.57768 0.21356 1.08882
 C1246 C 0.60402 0.22405 1.08385
 C1247 C 0.62469 0.20853 1.07160
 C1248 C 0.61938 0.18202 1.06391
 C1249 C 0.59303 0.17155 1.06892
 C1250 C 0.57244 0.18701 1.08130
 C1251 C 0.64085 0.16412 1.05199
 C1252 C 0.66614 0.17284 1.04174
 H1253 H 0.56492 0.24806 1.11297
 H1254 H 0.60879 0.24429 1.08982
 H1255 H 0.64484 0.21731 1.06896
 H1256 H 0.58844 0.15110 1.06359
 H1257 H 0.55288 0.17768 1.08550
 H1258 H 0.63584 0.14321 1.05125
 H1259 H 0.52050 0.20791 1.09349
 H1260 H 0.66970 0.19411 1.04115
 C1261 C 0.96731 0.23276 0.87308
 C1262 C 0.96678 0.21564 0.89529
 C1263 C 0.94078 0.20351 0.90459
 C1264 C 0.93898 0.19578 0.93155
 C1265 C 0.91504 0.18343 0.94071
 C1266 C 0.89249 0.17836 0.92293
 C1267 C 0.89454 0.18569 0.89589
 C1268 C 0.91835 0.19818 0.88679
 C1269 C 0.86734 0.16416 0.93140
 C1270 C 0.85792 0.16434 0.95776
 H1271 H 0.98602 0.21113 0.90645
 H1272 H 0.95620 0.19922 0.94553
 H1273 H 0.91463 0.17724 0.96149
 H1274 H 0.87769 0.18157 0.88169
 H1275 H 0.91937 0.20287 0.86567
 H1276 H 0.85530 0.15458 0.91572
 H1277 H 0.94777 0.23798 0.86272
 H1278 H 0.86860 0.17699 0.97210
 C1279 C 0.46150 0.71978 0.36924
 C1280 C 0.44865 0.72756 0.39288
 C1281 C 0.42564 0.71233 0.40452
 C1282 C 0.40691 0.72531 0.42157
 C1283 C 0.38485 0.71144 0.43266
 C1284 C 0.38117 0.68416 0.42689
 C1285 C 0.40046 0.67107 0.41048
 C1286 C 0.42246 0.68490 0.39946
 C1287 C 0.35822 0.66831 0.43794
 C1288 C 0.33380 0.67955 0.44856
 H1289 H 0.45511 0.74573 0.40275
 H1290 H 0.40925 0.74630 0.42621
 H1291 H 0.37116 0.72215 0.44597
 H1292 H 0.39851 0.64998 0.40609
 H1293 H 0.43712 0.67386 0.38735
 H1294 H 0.36079 0.64688 0.43657
 H1295 H 0.45261 0.70351 0.35784
 H1296 H 0.33160 0.70111 0.44889
 C1297 C 0.50667 0.74400 0.37726
 C1298 C 0.52739 0.76181 0.37027
 C1299 C 0.54916 0.77120 0.38920
 C1300 C 0.55895 0.79719 0.38608
 C1301 C 0.58028 0.80660 0.40285
 C1302 C 0.59272 0.78992 0.42278
 C1303 C 0.58312 0.76377 0.42575
 C1304 C 0.56131 0.75452 0.40925
 C1305 C 0.61631 0.79921 0.43976
 C1306 C 0.62093 0.82636 0.44287
 H1307 H 0.52656 0.77056 0.35035
 H1308 H 0.55002 0.81029 0.37059
 H1309 H 0.58743 0.82675 0.39977
 H1310 H 0.59255 0.75049 0.44080
 H1311 H 0.55457 0.73414 0.41168
 H1312 H 0.63002 0.78459 0.44983
 H1313 H 0.50699 0.73542 0.39724
 H1314 H 0.63515 0.83069 0.45099
 C1315 C 0.01586 0.25048 -0.11890
 C1316 C 0.04296 0.25659 -0.12647
 C1317 C 0.06445 0.26840 -0.10853
 C1318 C 0.09239 0.26740 -0.11642
 C1319 C 0.11327 0.27955 -0.10100
 C1320 C 0.10656 0.29317 -0.07736
 C1321 C 0.07867 0.29401 -0.06932
 C1322 C 0.05777 0.28180 -0.08473
 C1323 C 0.12793 0.30728 -0.06120
 C1324 C 0.15587 0.30750 -0.06824
 H1325 H 0.04872 0.25244 -0.14692
 H1326 H 0.09808 0.25735 -0.13475
 H1327 H 0.13455 0.27854 -0.10783
 H1328 H 0.07294 0.30452 -0.05126
 H1329 H 0.03644 0.28365 -0.07825
 H1330 H 0.12129 0.31815 -0.04367
 H1331 H 0.00945 0.25410 -0.09860
 H1332 H 0.16689 0.31617 -0.05932
 C1333 C 0.48523 0.25031 0.10354
 C1334 C 0.45666 0.24492 0.10452
 C1335 C 0.43484 0.26092 0.08968
 C1336 C 0.40801 0.25047 0.08621
 C1337 C 0.38629 0.26583 0.07418
 C1338 C 0.39103 0.29209 0.06541
 C1339 C 0.41785 0.30252 0.06892
 C1340 C 0.43951 0.28719 0.08091
 C1341 C 0.36844 0.30981 0.05405
 C1342 C 0.34359 0.30052 0.04229
 H1343 H 0.44965 0.22884 0.11709
 H1344 H 0.40371 0.23048 0.09325
 H1345 H 0.36574 0.25733 0.07262
 H1346 H 0.42198 0.32282 0.06272
 H1347 H 0.45953 0.29644 0.08404
 H1348 H 0.37268 0.33092 0.05385
 H1349 H 0.49215 0.26422 0.08854
 H1350 H 0.34154 0.27914 0.03985
 C1351 C 0.95885 0.76159 0.60541
 C1352 C 0.95287 0.77946 0.58431
 C1353 C 0.92386 0.78798 0.57669
 C1354 C 0.91777 0.79741 0.55061
 C1355 C 0.89077 0.80666 0.54334
 C1356 C 0.86937 0.80680 0.56219
 C1357 C 0.87561 0.79765 0.58831
 C1358 C 0.90248 0.78835 0.59552
 C1359 C 0.84099 0.81807 0.55615
 C1360 C 0.82927 0.82048 0.53021
 H1361 H 0.96995 0.78772 0.57336
 H1362 H 0.93401 0.79780 0.53589
 H1363 H 0.88704 0.81439 0.52326
 H1364 H 0.85969 0.79803 0.60336
 H1365 H 0.90653 0.78232 0.61612
 H1366 H 0.82887 0.82376 0.57324
 H1367 H 0.94152 0.75196 0.61479
 H1368 H 0.84063 0.81146 0.51395
   
