data_POSCAR
  _audit_creation_date              2014-09-24
  _audit_creation_method            'ToBaCCo'
  _symmetry_space_group_name_H-M    'P1'
  _symmetry_Int_Tables_number       1
  _symmetry_cell_setting            triclinic
  loop_
  _symmetry_equiv_pos_as_xyz
 x,y,z
_cell_length_a 48.2568
_cell_length_b 50.6139
_cell_length_c 50.9183
_cell_angle_alpha 88.002100
_cell_angle_beta 87.960500
_cell_angle_gamma 90.903600
loop_
  _atom_site_label
  _atom_site_type_symbol
  _atom_site_fract_x
  _atom_site_fract_y
  _atom_site_fract_z
N1 N 0.17606 0.25385 0.23759
 N2 N 0.17412 0.23436 0.25535
 C3 C 0.15313 0.23915 0.27261
 C4 C 0.14163 0.26305 0.26539
 C5 C 0.15672 0.27190 0.24313
 H6 H 0.14716 0.22664 0.28960
 H7 H 0.15395 0.29011 0.23184
 Cu8 Cu 0.20110 0.20613 0.25541
 Cu9 Cu 0.20408 0.25472 0.20909
 Cu10 Cu 0.23681 0.19507 0.19931
 N11 N 0.22880 0.17863 0.25366
 N12 N 0.24279 0.17443 0.23160
 C13 C 0.26033 0.15439 0.23559
 C14 C 0.25730 0.14572 0.26157
 C15 C 0.23712 0.16150 0.27252
 H16 H 0.27437 0.14681 0.22072
 H17 H 0.22919 0.16063 0.29267
 N18 N 0.23683 0.22398 0.17238
 N19 N 0.22460 0.24674 0.17627
 C20 C 0.22771 0.26216 0.15425
 C21 C 0.24290 0.24859 0.13579
 C22 C 0.24845 0.22447 0.14790
 H23 H 0.21929 0.28172 0.15171
 H24 H 0.25975 0.20838 0.13942
 H25 H 0.19983 0.21485 0.20805
 H26 H 0.23285 0.22676 0.22196
 N27 N 0.67501 0.74577 0.71834
 N28 N 0.66967 0.72521 0.73434
 C29 C 0.64809 0.73058 0.75055
 C30 C 0.63948 0.75583 0.74453
 C31 C 0.65695 0.76502 0.72395
 H32 H 0.63933 0.71727 0.76583
 H33 H 0.65674 0.78424 0.71399
 Cu34 Cu 0.69215 0.69386 0.73341
 Cu35 Cu 0.70578 0.74593 0.69238
 Cu36 Cu 0.73586 0.68484 0.68223
 N37 N 0.71411 0.66224 0.73120
 N38 N 0.73205 0.65902 0.71158
 C39 C 0.74440 0.63549 0.71503
 C40 C 0.73328 0.62339 0.73789
 C41 C 0.71418 0.64088 0.74762
 H42 H 0.75984 0.62758 0.70168
 H43 H 0.70142 0.63823 0.76544
 N44 N 0.74270 0.71602 0.65839
 N45 N 0.73113 0.73914 0.66213
 C46 C 0.73891 0.75593 0.64199
 C47 C 0.75638 0.74282 0.62500
 C48 C 0.75843 0.71761 0.63599
 H49 H 0.73208 0.77610 0.63964
 H50 H 0.77005 0.70148 0.62798
 H51 H 0.69953 0.70665 0.68714
 H52 H 0.73002 0.71502 0.70692
 N53 N 0.33723 0.75460 0.70148
 N54 N 0.34018 0.77512 0.71633
 C55 C 0.35541 0.76823 0.73702
 C56 C 0.36241 0.74202 0.73494
 C57 C 0.35062 0.73394 0.71212
 H58 H 0.36136 0.78142 0.75219
 H59 H 0.35196 0.71466 0.70367
 Cu60 Cu 0.32500 0.80919 0.70654
 Cu61 Cu 0.31693 0.75710 0.66917
 Cu62 Cu 0.26773 0.80643 0.67091
 N63 N 0.30160 0.83954 0.70189
 N64 N 0.27849 0.83829 0.68902
 C65 C 0.26493 0.86121 0.69155
 C66 C 0.28066 0.87765 0.70660
 C67 C 0.30388 0.86331 0.71263
 H68 H 0.24498 0.86541 0.68346
 H69 H 0.32049 0.86913 0.72503
 N70 N 0.26629 0.77658 0.64673
 N71 N 0.28563 0.75842 0.64572
 C72 C 0.27985 0.74145 0.62689
 C73 C 0.25570 0.74919 0.61543
 C74 C 0.24756 0.77155 0.62840
 H75 H 0.29224 0.72459 0.62195
 H76 H 0.22964 0.78344 0.62453
 H77 H 0.30824 0.79780 0.66358
 H78 H 0.29041 0.77827 0.69119
 N79 N 0.80250 0.23287 0.26806
 N80 N 0.80929 0.25755 0.27247
 C81 C 0.82956 0.25776 0.29010
 C82 C 0.83555 0.23173 0.29696
 C83 C 0.81772 0.21657 0.28282
 H84 H 0.83971 0.27540 0.29674
 H85 H 0.81696 0.19525 0.28198
 Cu86 Cu 0.79167 0.28658 0.25304
 Cu87 Cu 0.77777 0.22340 0.24056
 Cu88 Cu 0.78179 0.26704 0.18955
 N89 N 0.78361 0.31192 0.22418
 N90 N 0.78207 0.30452 0.19963
 C91 C 0.77562 0.32560 0.18436
 C92 C 0.77235 0.34710 0.20009
 C93 C 0.77744 0.33777 0.22529
 H94 H 0.77132 0.32487 0.16369
 H95 H 0.77599 0.34872 0.24314
 N96 N 0.76930 0.23052 0.18576
 N97 N 0.76577 0.21409 0.20623
 C98 C 0.75585 0.19080 0.19837
 C99 C 0.75360 0.19260 0.17141
 C100 C 0.76242 0.21798 0.16395
 H101 H 0.75163 0.17359 0.21116
 H102 H 0.76330 0.22680 0.14427
 H103 H 0.80293 0.26309 0.22379
 H104 H 0.76455 0.26755 0.22700
 N105 N 0.82276 0.71511 0.26654
 N106 N 0.81611 0.69418 0.25334
 C107 C 0.83902 0.68500 0.24126
 C108 C 0.86109 0.70123 0.24685
 C109 C 0.85016 0.72029 0.26284
 H110 H 0.83956 0.66833 0.22854
 H111 H 0.86129 0.73636 0.27144
 Cu112 Cu 0.77788 0.68227 0.25091
 Cu113 Cu 0.79529 0.73226 0.28899
 Cu114 Cu 0.72757 0.72264 0.27022
 N115 N 0.73904 0.67193 0.24927
 N116 N 0.71941 0.68852 0.25559
 C117 C 0.69463 0.67790 0.25019
 C118 C 0.69899 0.65320 0.24022
 C119 C 0.72737 0.64994 0.23997
 H120 H 0.67496 0.68741 0.25349
 H121 H 0.73861 0.63313 0.23291
 N122 N 0.73836 0.74915 0.29558
 N123 N 0.76395 0.75241 0.30338
 C124 C 0.76372 0.76914 0.32342
 C125 C 0.73666 0.77651 0.32854
 C126 C 0.72117 0.76361 0.31044
 H127 H 0.78161 0.77435 0.33448
 H128 H 0.69884 0.76331 0.30934
 H129 H 0.76090 0.70645 0.28830
 H130 H 0.76967 0.72891 0.25918
 N131 N 0.31097 0.24983 -0.23206
 N132 N 0.30760 0.23549 -0.25282
 C133 C 0.33078 0.23745 -0.26843
 C134 C 0.34949 0.25405 -0.25677
 C135 C 0.33631 0.26125 -0.23360
 H136 H 0.33339 0.22833 -0.28725
 H137 H 0.34395 0.27478 -0.21944
 Cu138 Cu 0.27222 0.21740 -0.25779
 Cu139 Cu 0.28085 0.25574 -0.20647
 Cu140 Cu 0.21792 0.25217 -0.23619
 N141 N 0.23424 0.20471 -0.26161
 N142 N 0.21316 0.21953 -0.25490
 C143 C 0.18936 0.20666 -0.25953
 C144 C 0.19580 0.18215 -0.26892
 C145 C 0.22449 0.18146 -0.26999
 H146 H 0.16891 0.21381 -0.25450
 H147 H 0.23724 0.16511 -0.27576
 N148 N 0.22439 0.27396 -0.20561
 N149 N 0.24767 0.27319 -0.19278
 C150 C 0.24500 0.28775 -0.17127
 C151 C 0.21887 0.29846 -0.17079
 C152 C 0.20632 0.28941 -0.19283
 H153 H 0.26115 0.29095 -0.15747
 H154 H 0.18539 0.29316 -0.19873
 H155 H 0.24773 0.23170 -0.21814
 H156 H 0.26026 0.26013 -0.23990
 N157 N 0.64116 0.28545 -0.20003
 N158 N 0.65512 0.29380 -0.22146
 C159 C 0.64084 0.28672 -0.24261
 C160 C 0.61712 0.27271 -0.23357
 C161 C 0.61805 0.27265 -0.20652
 H162 H 0.64790 0.29018 -0.26287
 H163 H 0.60360 0.26311 -0.19235
 Cu164 Cu 0.69211 0.31046 -0.21835
 Cu165 Cu 0.65521 0.28817 -0.16515
 Cu166 Cu 0.72333 0.28080 -0.16458
 N167 N 0.73242 0.31356 -0.21268
 N168 N 0.74428 0.30035 -0.19336
 C169 C 0.77134 0.30705 -0.19353
 C170 C 0.77674 0.32580 -0.21342
 C171 C 0.75160 0.32964 -0.22518
 H172 H 0.78548 0.30079 -0.17860
 H173 H 0.74733 0.34386 -0.24081
 N174 N 0.69975 0.27371 -0.13313
 N175 N 0.67298 0.27810 -0.13306
 C176 C 0.66105 0.26861 -0.11035
 C177 C 0.68141 0.25718 -0.09555
 C178 C 0.70578 0.26093 -0.11048
 H179 H 0.63889 0.26726 -0.10640
 H180 H 0.72584 0.25287 -0.10626
 H181 H 0.69844 0.31139 -0.17702
 H182 H 0.69525 0.27941 -0.19393
 N183 N 0.18176 0.79963 0.26571
 N184 N 0.19495 0.82202 0.25949
 C185 C 0.18138 0.83504 0.24052
 C186 C 0.15844 0.81996 0.23462
 C187 C 0.15929 0.79761 0.25092
 H188 H 0.18763 0.85410 0.23182
 H189 H 0.14450 0.78129 0.25219
 Cu190 Cu 0.22803 0.83262 0.27734
 Cu191 Cu 0.19397 0.77577 0.29359
 Cu192 Cu 0.26259 0.78481 0.30935
 N193 N 0.26561 0.83825 0.28854
 N194 N 0.27907 0.81955 0.30103
 C195 C 0.30484 0.82840 0.30556
 C196 C 0.30761 0.85402 0.29525
 C197 C 0.28233 0.85968 0.28465
 H198 H 0.32042 0.81691 0.31529
 H199 H 0.27670 0.87784 0.27451
 N200 N 0.24023 0.75349 0.32152
 N201 N 0.21427 0.74988 0.31490
 C202 C 0.20468 0.72667 0.32554
 C203 C 0.22544 0.71535 0.33990
 C204 C 0.24764 0.73289 0.33712
 H205 H 0.18394 0.71882 0.32342
 H206 H 0.26768 0.73073 0.34572
 H207 H 0.22323 0.79867 0.31271
 H208 H 0.23310 0.78482 0.28023
 N209 N 0.50622 0.41327 0.46377
 N210 N 0.49385 0.41990 0.48594
 C211 C 0.49836 0.40109 0.50462
 C212 C 0.51453 0.38186 0.49346
 C213 C 0.51904 0.39012 0.46750
 H214 H 0.49068 0.40143 0.52482
 H215 H 0.53079 0.38016 0.45243
 Cu216 Cu 0.47285 0.45235 0.48783
 Cu217 Cu 0.50468 0.43519 0.43178
 Cu218 Cu 0.48711 0.50023 0.44203
 N219 N 0.45283 0.48542 0.48740
 N220 N 0.45745 0.50375 0.46873
 C221 C 0.44061 0.52428 0.47308
 C222 C 0.42498 0.51852 0.49590
 C223 C 0.43329 0.49380 0.50449
 H224 H 0.44042 0.54233 0.46107
 H225 H 0.42552 0.48273 0.52184
 N226 N 0.50914 0.48930 0.41105
 N227 N 0.51401 0.46428 0.40630
 C228 C 0.53052 0.46307 0.38453
 C229 C 0.53677 0.48852 0.37549
 C230 C 0.52282 0.50472 0.39264
 H231 H 0.53945 0.44513 0.37727
 H232 H 0.52362 0.52609 0.39243
 H233 H 0.50836 0.46680 0.45519
 H234 H 0.47372 0.46271 0.44048
 N235 N -0.02577 -0.06925 0.99488
 N236 N -0.05046 -0.05918 0.99877
 C237 C -0.06567 -0.07536 1.01532
 C238 C -0.04950 -0.09655 1.02242
 C239 C -0.02425 -0.09203 1.00920
 H240 H -0.08659 -0.07158 1.02237
 H241 H -0.00607 -0.10423 1.01012
 Cu242 Cu -0.05928 -0.02465 0.98391
 Cu243 Cu 0.00253 -0.05123 0.97214
 Cu244 Cu -0.02379 -0.00340 0.92944
 N245 N -0.06810 0.00840 0.96599
 N246 N -0.05411 0.01689 0.94463
 C247 C -0.06518 0.03963 0.93572
 C248 C -0.08718 0.04559 0.95256
 C249 C -0.08844 0.02541 0.97149
 H250 H -0.05811 0.05064 0.91809
 H251 H -0.10342 0.02310 0.98775
 N252 N 0.01241 -0.02014 0.92332
 N253 N 0.02275 -0.03759 0.94004
 C254 C 0.04766 -0.04516 0.93057
 C255 C 0.05324 -0.03186 0.90676
 C256 C 0.03052 -0.01614 0.90275
 H257 H 0.06043 -0.05980 0.93999
 H258 H 0.02738 -0.00291 0.88602
 H259 H -0.01269 -0.01279 0.96649
 H260 H -0.02882 -0.04051 0.94891
 N261 N 1.01667 0.58859 1.01795
 N262 N 1.02381 0.57281 1.03753
 C263 C 1.03476 0.58725 1.05636
 C264 C 1.03412 0.61351 1.04830
 C265 C 1.02226 0.61381 1.02396
 H266 H 1.04329 0.57917 1.07423
 H267 H 1.01949 0.63089 1.01102
 Cu268 Cu 1.02086 0.53478 1.03583
 Cu269 Cu 1.00463 0.57433 0.98502
 Cu270 Cu 1.00731 0.50655 0.97878
 N271 N 1.03118 0.49887 1.02919
 N272 N 1.02876 0.48859 1.00601
 C273 C 1.04278 0.46569 1.00566
 C274 C 1.05400 0.46149 1.03015
 C275 C 1.04607 0.48283 1.04452
 H276 H 1.04528 0.45348 0.98875
 H277 H 1.05277 0.48757 1.06388
 N278 N 0.99013 0.53030 0.95237
 N279 N 0.98917 0.55616 0.95505
 C280 C 0.97414 0.56686 0.93583
 C281 C 0.96505 0.54691 0.92025
 C282 C 0.97560 0.52393 0.93122
 H283 H 0.96913 0.58757 0.93401
 H284 H 0.97187 0.50401 0.92501
 H285 H 0.98994 0.53738 0.99934
 H286 H 1.02755 0.53967 0.98873
 N287 N 0.51803 0.07840 0.48453
 N288 N 0.53770 0.07823 0.50176
 C289 C 0.53004 0.09332 0.52196
 C290 C 0.50408 0.10313 0.51719
 C291 C 0.49704 0.09324 0.49334
 H292 H 0.54256 0.09723 0.53865
 H293 H 0.47869 0.09771 0.48256
 Cu294 Cu 0.57154 0.05860 0.49613
 Cu295 Cu 0.52272 0.06286 0.45031
 Cu296 Cu 0.58011 0.02435 0.44087
 N297 N 0.59826 0.03035 0.49339
 N298 N 0.60126 0.01679 0.47194
 C299 C 0.62062 -0.00166 0.47558
 C300 C 0.63014 0.00034 0.50068
 C301 C 0.61557 0.02086 0.51152
 H302 H 0.62727 -0.01558 0.46110
 H303 H 0.61718 0.02815 0.53113
 N304 N 0.55392 0.03184 0.41305
 N305 N 0.53137 0.04585 0.41695
 C306 C 0.51757 0.04750 0.39444
 C307 C 0.53236 0.03422 0.37550
 C308 C 0.55529 0.02455 0.38790
 H309 H 0.49844 0.05797 0.39182
 H310 H 0.57166 0.01297 0.37925
 H311 H 0.54670 0.03259 0.46532
 H312 H 0.56562 0.06162 0.44874
 N313 N 0.01823 0.06896 0.51876
 N314 N -0.00282 0.07135 0.50320
 C315 C -0.00066 0.09472 0.48983
 C316 C 0.02320 0.10746 0.49716
 C317 C 0.03483 0.09056 0.51548
 H318 H -0.01491 0.10166 0.47530
 H319 H 0.05385 0.09368 0.52564
 Cu320 Cu -0.02982 0.04287 0.50035
 Cu321 Cu 0.02244 0.03770 0.54164
 Cu322 Cu -0.03599 -0.00336 0.54871
 N323 N -0.05219 0.01105 0.49666
 N324 N -0.05527 -0.00676 0.51600
 C325 C -0.07370 -0.02539 0.50932
 C326 C -0.08231 -0.01900 0.48433
 C327 C -0.06823 0.00420 0.47684
 H328 H -0.08066 -0.04205 0.52188
 H329 H -0.07029 0.01574 0.45876
 N330 N -0.00596 -0.00388 0.57379
 N331 N 0.01658 0.01120 0.57074
 C332 C 0.03296 0.00648 0.59118
 C333 C 0.02013 -0.01253 0.60772
 C334 C -0.00446 -0.01874 0.59611
 H335 H 0.05243 0.01662 0.59419
 H336 H -0.02028 -0.03271 0.60352
 H337 H -0.00401 0.01005 0.52527
 H338 H -0.01952 0.03557 0.54663
 N339 N 0.49127 0.56337 0.01047
 N340 N 0.47051 0.56521 -0.00548
 C341 C 0.47569 0.58539 -0.02301
 C342 C 0.50101 0.59673 -0.01765
 C343 C 0.51034 0.58231 0.00375
 H344 H 0.46186 0.59174 -0.03816
 H345 H 0.52923 0.58565 0.01404
 Cu346 Cu 0.43803 0.54215 -0.00031
 Cu347 Cu 0.49087 0.53768 0.03983
 Cu348 Cu 0.44538 0.48455 0.03318
 N349 N 0.40781 0.51642 0.00378
 N350 N 0.41066 0.49370 0.01667
 C351 C 0.38687 0.47947 0.01572
 C352 C 0.36816 0.49426 0.00170
 C353 C 0.38214 0.51756 -0.00557
 H354 H 0.38343 0.45991 0.02461
 H355 H 0.37427 0.53401 -0.01700
 N356 N 0.47685 0.48351 0.05706
 N357 N 0.49346 0.50410 0.06003
 C358 C 0.51210 0.49787 0.07813
 C359 C 0.50703 0.47217 0.08707
 C360 C 0.48452 0.46356 0.07336
 H361 H 0.52828 0.51104 0.08433
 H362 H 0.47426 0.44440 0.07539
 H363 H 0.47348 0.51217 0.01523
 H364 H 0.44976 0.52287 0.04243
 N365 N 0.48758 -0.08798 0.01204
 N366 N 0.50874 -0.08935 -0.00485
 C367 C 0.50367 -0.10851 -0.02179
 C368 C 0.47801 -0.11974 -0.01511
 C369 C 0.46834 -0.10633 0.00650
 H370 H 0.51766 -0.11403 -0.03766
 H371 H 0.44890 -0.10968 0.01744
 Cu372 Cu 0.54139 -0.06671 -0.00247
 Cu373 Cu 0.48708 -0.06253 0.04005
 Cu374 Cu 0.53048 -0.00859 0.02478
 N375 N 0.57085 -0.04014 -0.00170
 N376 N 0.56652 -0.01757 0.00964
 C377 C 0.58988 -0.00271 0.00767
 C378 C 0.60987 -0.01669 -0.00569
 C379 C 0.59715 -0.04037 -0.01151
 H380 H 0.59200 0.01698 0.01505
 H381 H 0.60634 -0.05646 -0.02199
 N382 N 0.49864 -0.00742 0.04983
 N383 N 0.48331 -0.02839 0.05721
 C384 C 0.46544 -0.02180 0.07677
 C385 C 0.46966 0.00466 0.08158
 C386 C 0.49076 0.01314 0.06415
 H387 H 0.45055 -0.03520 0.08677
 H388 H 0.50061 0.03251 0.06289
 H389 H 0.50392 -0.03807 0.01177
 H390 H 0.52764 -0.04650 0.03884
 N391 N 1.00057 0.41918 0.54573
 N392 N 1.02301 0.41673 0.53067
 C393 C 1.01751 0.40024 0.51129
 C394 C 0.99014 0.39204 0.51436
 C395 C 0.97994 0.40436 0.53644
 H396 H 1.03230 0.39467 0.49608
 H397 H 0.95924 0.40253 0.54524
 Cu398 Cu 1.05742 0.43504 0.53787
 Cu399 Cu 1.00065 0.44083 0.57663
 Cu400 Cu 1.04973 0.49160 0.56984
 N401 N 1.08772 0.46032 0.54009
 N402 N 1.08448 0.48286 0.55181
 C403 C 1.10801 0.49745 0.54851
 C404 C 1.12700 0.48306 0.53421
 C405 C 1.11348 0.45959 0.52922
 H406 H 1.11099 0.51709 0.55578
 H407 H 1.12142 0.44362 0.51773
 N408 N 1.01790 0.49180 0.59527
 N409 N 0.99978 0.47203 0.59845
 C410 C 0.98202 0.47700 0.61857
 C411 C 0.98936 0.50103 0.62851
 C412 C 1.01214 0.50994 0.61331
 H413 H 0.96526 0.46391 0.62571
 H414 H 1.02423 0.52779 0.61581
 H415 H 1.02225 0.46609 0.55214
 H416 H 1.04258 0.45265 0.58000
 C417 C 0.41595 0.04394 0.20831
 H418 H 0.41753 0.05976 0.22196
 C419 C 0.42588 0.04788 0.18243
 H420 H 0.43510 0.06687 0.17655
 C421 C 0.40326 -0.00040 0.20033
 H422 H 0.39492 -0.01931 0.20760
 C423 C 0.41324 0.00261 0.17422
 H424 H 0.41228 -0.01404 0.16147
 N425 N 0.40482 0.02019 0.21673
 C426 C 0.35524 0.04051 0.28648
 H427 H 0.36345 0.02727 0.30131
 C428 C 0.33396 0.05773 0.29326
 H429 H 0.32624 0.05763 0.31345
 C430 C 0.35524 0.05617 0.24212
 H431 H 0.36314 0.05523 0.22209
 C432 C 0.33403 0.07365 0.24800
 H433 H 0.32615 0.08618 0.23238
 Zn434 Zn 0.39487 0.01692 0.25298
 N435 N 0.36578 0.04037 0.26136
 C436 C 0.42788 0.03999 0.29257
 N437 N 0.42744 0.02477 0.27109
 C438 C 0.45060 0.01248 0.26216
 C439 C 0.47519 0.01427 0.27554
 C440 C 0.45208 0.04212 0.30675
 C441 C 0.35969 -0.02858 0.25314
 C442 C 0.35066 -0.05413 0.26114
 C443 C 0.38995 -0.05741 0.28908
 C444 C 0.39808 -0.03188 0.28072
 N445 N 0.38316 -0.01807 0.26287
 H446 H 0.40935 0.04976 0.29928
 H447 H 0.44961 0.00036 0.24513
 H448 H 0.49289 0.00341 0.26847
 H449 H 0.45190 0.05358 0.32432
 H450 H 0.34794 -0.01706 0.23928
 H451 H 0.33195 -0.06224 0.25323
 H452 H 0.40213 -0.06769 0.30350
 H453 H 0.41622 -0.02307 0.28887
 C454 C 0.32321 0.07477 0.27387
 C455 C 0.42480 0.02699 0.16502
 C456 C 0.36598 -0.06892 0.27924
 C457 C 0.47600 0.02879 0.29850
 C458 C 0.09615 -0.02461 0.72782
 H459 H 0.09490 -0.03194 0.74803
 C460 C 0.07516 -0.03106 0.71086
 H461 H 0.05782 -0.04318 0.71842
 C462 C 0.12014 0.00050 0.69377
 H463 H 0.13770 0.01296 0.68739
 C464 C 0.09955 -0.00532 0.67620
 H465 H 0.10146 0.00270 0.65621
 N466 N 0.11797 -0.00898 0.71907
 C467 C 0.20110 -0.01241 0.74943
 H468 H 0.19986 0.00189 0.76472
 C469 C 0.22513 -0.02701 0.74594
 H470 H 0.24221 -0.02351 0.75862
 C471 C 0.17939 -0.03530 0.71573
 H472 H 0.16132 -0.03882 0.70434
 C473 C 0.20298 -0.05052 0.71171
 H474 H 0.20289 -0.06552 0.69706
 Zn475 Zn 0.14547 0.00129 0.74228
 N476 N 0.17877 -0.01683 0.73453
 C477 C 0.14606 -0.02751 0.79089
 N478 N 0.13315 -0.00775 0.77755
 C479 C 0.11104 0.00463 0.78868
 C480 C 0.10133 -0.00260 0.81417
 C481 C 0.13714 -0.03525 0.81641
 C482 C 0.17645 0.05004 0.73380
 C483 C 0.17929 0.07748 0.73009
 C484 C 0.12944 0.08065 0.73303
 C485 C 0.12758 0.05326 0.73686
 N486 N 0.15086 0.03852 0.73759
 H487 H 0.16298 -0.03781 0.78160
 H488 H 0.10062 0.01989 0.77773
 H489 H 0.08364 0.00742 0.82261
 H490 H 0.14768 -0.05124 0.82626
 H491 H 0.19477 0.03811 0.73353
 H492 H 0.19983 0.08631 0.72742
 H493 H 0.11048 0.09173 0.73295
 H494 H 0.10741 0.04368 0.73883
 C495 C 0.22616 -0.04664 0.72708
 C496 C 0.07662 -0.02119 0.68469
 C497 C 0.15559 0.09318 0.72972
 C498 C 0.11446 -0.02275 0.82842
 C499 C 0.60264 0.44491 0.19143
 H500 H 0.60938 0.43048 0.20592
 C501 C 0.58238 0.43797 0.17378
 H502 H 0.57368 0.41814 0.17498
 C503 C 0.60605 0.48825 0.17241
 H504 H 0.61560 0.50770 0.17153
 C505 C 0.58599 0.48218 0.15443
 H506 H 0.58013 0.49728 0.14018
 N507 N 0.61350 0.46990 0.19088
 C508 C 0.68051 0.44114 0.22875
 H509 H 0.66958 0.43904 0.24764
 C510 C 0.70268 0.42456 0.22286
 H511 H 0.70873 0.40985 0.23742
 C512 C 0.68503 0.46196 0.18640
 H513 H 0.67762 0.47627 0.17212
 C514 C 0.70731 0.44596 0.17976
 H515 H 0.71682 0.44847 0.16029
 Zn516 Zn 0.63979 0.47937 0.21597
 N517 N 0.67199 0.45916 0.21043
 C518 C 0.64032 0.48606 0.26922
 N519 N 0.62488 0.47475 0.25068
 C520 C 0.59828 0.46640 0.25619
 C521 C 0.58578 0.47070 0.28086
 C522 C 0.62843 0.49136 0.29378
 C523 C 0.67364 0.52681 0.20981
 C524 C 0.67777 0.55413 0.21181
 C525 C 0.62836 0.55868 0.21916
 C526 C 0.62523 0.53145 0.21732
 N527 N 0.64763 0.51610 0.21276
 H528 H 0.66122 0.49296 0.26415
 H529 H 0.58606 0.45816 0.24102
 H530 H 0.56418 0.46522 0.28462
 H531 H 0.64052 0.50178 0.30778
 H532 H 0.69125 0.51415 0.20701
 H533 H 0.69862 0.56239 0.21010
 H534 H 0.61016 0.57014 0.22356
 H535 H 0.60491 0.52230 0.22039
 C536 C 0.71614 0.42654 0.19792
 C537 C 0.57354 0.45692 0.15516
 C538 C 0.65493 0.57037 0.21677
 C539 C 0.60056 0.48445 0.29943
 C540 C 0.90318 0.52433 0.74521
 H541 H 0.89773 0.53856 0.75983
 C542 C 0.92308 0.53092 0.72542
 H543 H 0.93273 0.55034 0.72508
 C544 C 0.89670 0.48178 0.72817
 H545 H 0.88623 0.46271 0.72931
 C546 C 0.91649 0.48754 0.70802
 H547 H 0.92120 0.47266 0.69382
 N548 N 0.89043 0.50016 0.74618
 C549 C 0.80944 0.50980 0.78431
 H550 H 0.81044 0.49549 0.80053
 C551 C 0.78609 0.52543 0.78189
 H552 H 0.76936 0.52280 0.79647
 C553 C 0.83081 0.53086 0.74637
 H554 H 0.84832 0.53298 0.73261
 C555 C 0.80789 0.54709 0.74332
 H556 H 0.80806 0.56164 0.72721
 Zn557 Zn 0.86364 0.49297 0.77346
 N558 N 0.83143 0.51305 0.76698
 C559 C 0.86656 0.52412 0.81825
 N560 N 0.87917 0.50415 0.80546
 C561 C 0.90394 0.49476 0.81346
 C562 C 0.91697 0.50571 0.83486
 C563 C 0.87890 0.53568 0.83942
 C564 C 0.82789 0.44875 0.76768
 C565 C 0.81977 0.42213 0.76868
 C566 C 0.86539 0.41095 0.78288
 C567 C 0.87258 0.43783 0.78178
 N568 N 0.85375 0.45624 0.77474
 H569 H 0.84746 0.53214 0.81144
 H570 H 0.91438 0.47974 0.80250
 H571 H 0.93705 0.49862 0.84046
 H572 H 0.86852 0.55181 0.84887
 H573 H 0.81343 0.46336 0.76110
 H574 H 0.79895 0.41677 0.76337
 H575 H 0.88074 0.39692 0.78896
 H576 H 0.89328 0.44391 0.78647
 C577 C 0.78531 0.54476 0.76145
 C578 C 0.92998 0.51237 0.70644
 C579 C 0.83850 0.40279 0.77657
 C580 C 0.90471 0.52691 0.84763
 C581 C 0.18433 0.39782 0.03208
 H582 H 0.20333 0.39976 0.04258
 C583 C 0.15989 0.40851 0.04214
 H584 H 0.16026 0.41888 0.06036
 C585 C 0.16098 0.38230 -0.00472
 H586 H 0.16136 0.37168 -0.02275
 C587 C 0.13620 0.39336 0.00429
 H588 H 0.11771 0.39145 -0.00700
 N589 N 0.18445 0.38489 0.00912
 C590 C 0.25313 0.32964 0.01523
 H591 H 0.26632 0.33506 -0.00179
 C592 C 0.26085 0.30912 0.03246
 H593 H 0.28012 0.29909 0.02862
 C594 C 0.21210 0.33619 0.04090
 H595 H 0.19288 0.34639 0.04408
 C596 C 0.21918 0.31613 0.05876
 H597 H 0.20535 0.31132 0.07552
 Zn598 Zn 0.21882 0.37145 -0.00314
 N599 N 0.22917 0.34288 0.01978
 C600 C 0.27116 0.39674 0.00643
 N601 N 0.24539 0.39966 -0.00324
 C602 C 0.23720 0.42343 -0.01319
 C603 C 0.25538 0.44514 -0.01459
 C604 C 0.29013 0.41800 0.00531
 C605 C 0.22068 0.33486 -0.04465
 C606 C 0.21735 0.32686 -0.07036
 C607 C 0.20181 0.37069 -0.08206
 C608 C 0.20617 0.37805 -0.05638
 N609 N 0.21515 0.36015 -0.03813
 H610 H 0.27724 0.37799 0.01488
 H611 H 0.21630 0.42569 -0.01978
 H612 H 0.24807 0.46366 -0.02269
 H613 H 0.31067 0.41520 0.01277
 H614 H 0.22738 0.32072 -0.02995
 H615 H 0.22176 0.30667 -0.07528
 H616 H 0.19435 0.38515 -0.09618
 H617 H 0.20157 0.39793 -0.05086
 C618 C 0.24380 0.30231 0.05468
 C619 C 0.13549 0.40642 0.02809
 C620 C 0.20741 0.34480 -0.08924
 C621 C 0.28243 0.44255 -0.00558
 C622 C 0.72440 0.07416 -0.02258
 H623 H 0.73603 0.08495 -0.03815
 C624 C 0.70896 0.05164 -0.02827
 H625 H 0.70865 0.04521 -0.04832
 C626 C 0.71008 0.06990 0.02241
 H627 H 0.71089 0.07669 0.04221
 C628 C 0.69372 0.04776 0.01743
 H629 H 0.68174 0.03793 0.03342
 N630 N 0.72428 0.08311 0.00232
 C631 C 0.73873 0.16712 -0.01346
 H632 H 0.75922 0.16989 -0.00594
 C633 C 0.72541 0.18835 -0.02549
 H634 H 0.73584 0.20745 -0.02764
 C635 C 0.69989 0.13894 -0.01944
 H636 H 0.68990 0.11974 -0.01671
 C637 C 0.68549 0.15982 -0.03080
 H638 H 0.66468 0.15638 -0.03736
 Zn639 Zn 0.74390 0.11528 0.00683
 N640 N 0.72608 0.14291 -0.01119
 C641 C 0.78965 0.12389 -0.02948
 N642 N 0.78040 0.11082 -0.00697
 C643 C 0.79595 0.09205 0.00491
 C644 C 0.82192 0.08576 -0.00585
 C645 C 0.81557 0.11830 -0.04086
 C646 C 0.71811 0.12700 0.05461
 C647 C 0.71585 0.13476 0.08057
 C648 C 0.76572 0.14007 0.08039
 C649 C 0.76711 0.13125 0.05464
 N650 N 0.74346 0.12469 0.04243
 H651 H 0.77659 0.13796 -0.03927
 H652 H 0.78783 0.08153 0.02245
 H653 H 0.83379 0.07046 0.00373
 H654 H 0.82212 0.12857 -0.05905
 H655 H 0.69956 0.12283 0.04405
 H656 H 0.69554 0.13616 0.09014
 H657 H 0.78459 0.14538 0.08998
 H658 H 0.78697 0.13022 0.04427
 C659 C 0.69838 0.18480 -0.03400
 C660 C 0.69289 0.03859 -0.00818
 C661 C 0.73986 0.14147 0.09364
 C662 C 0.83195 0.09877 -0.02916
 C663 C 0.24617 0.56363 0.48932
 H664 H 0.26433 0.56386 0.47622
 C665 C 0.23068 0.54036 0.49363
 H666 H 0.23715 0.52297 0.48349
 C667 C 0.21591 0.58654 0.51788
 H668 H 0.21041 0.60453 0.52746
 C669 C 0.19964 0.56361 0.52268
 H670 H 0.18155 0.56423 0.53583
 N671 N 0.23845 0.58619 0.50108
 C672 C 0.26902 0.65016 0.44769
 H673 H 0.28356 0.66056 0.45947
 C674 C 0.26163 0.66105 0.42329
 H675 H 0.27081 0.67978 0.41633
 C676 C 0.23802 0.61401 0.44321
 H677 H 0.22804 0.59614 0.45124
 C678 C 0.23028 0.62399 0.41876
 H679 H 0.21491 0.61309 0.40843
 Zn680 Zn 0.26196 0.61582 0.49271
 N681 N 0.25675 0.62729 0.45736
 C682 C 0.31825 0.60149 0.47913
 N683 N 0.29815 0.60353 0.49835
 C684 C 0.30151 0.59327 0.52301
 C685 C 0.32561 0.58010 0.52922
 C686 C 0.34279 0.58811 0.48446
 C687 C 0.22846 0.65579 0.51385
 C688 C 0.22202 0.67703 0.52973
 C689 C 0.26808 0.67493 0.54663
 C690 C 0.27366 0.65390 0.53039
 N691 N 0.25380 0.64444 0.51473
 H692 H 0.31479 0.60924 0.45947
 H693 H 0.28487 0.59457 0.53769
 H694 H 0.32701 0.57157 0.54886
 H695 H 0.35831 0.58591 0.46884
 H696 H 0.21320 0.64828 0.50081
 H697 H 0.20162 0.68549 0.52892
 H698 H 0.28420 0.68199 0.55903
 H699 H 0.29399 0.64532 0.53023
 C700 C 0.24147 0.64825 0.40878
 C701 C 0.20694 0.54014 0.51040
 C702 C 0.24200 0.68676 0.54653
 C703 C 0.34653 0.57691 0.50975
 C704 C 0.74043 0.90621 0.51710
 H705 H 0.75851 0.90167 0.52829
 C706 C 0.72259 0.92606 0.52519
 H707 H 0.72717 0.93656 0.54269
 C708 C 0.71365 0.89880 0.47988
 H709 H 0.71072 0.88880 0.46178
 C710 C 0.69541 0.91864 0.48714
 H711 H 0.67825 0.92328 0.47473
 N712 N 0.73556 0.89284 0.49497
 C713 C 0.78744 0.82361 0.50607
 H714 H 0.79995 0.82511 0.48799
 C715 C 0.79133 0.80274 0.52415
 H716 H 0.80712 0.78848 0.51975
 C717 C 0.75135 0.84040 0.53313
 H718 H 0.73533 0.85473 0.53626
 C719 C 0.75454 0.81984 0.55175
 H720 H 0.74105 0.81879 0.56923
 Zn721 Zn 0.76251 0.86821 0.48417
 N722 N 0.76777 0.84194 0.51083
 C723 C 0.81804 0.88623 0.49148
 N724 N 0.79524 0.88830 0.47664
 C725 C 0.79387 0.90691 0.45686
 C726 C 0.81609 0.92431 0.45113
 C727 C 0.84067 0.90355 0.48665
 C728 C 0.72648 0.83810 0.45472
 C729 C 0.71720 0.82522 0.43280
 C730 C 0.76059 0.83686 0.40986
 C731 C 0.76886 0.84993 0.43209
 N732 N 0.75160 0.85070 0.45378
 H733 H 0.81838 0.87173 0.50755
 H734 H 0.77519 0.90850 0.44581
 H735 H 0.81420 0.93925 0.43562
 H736 H 0.85851 0.90203 0.49889
 H737 H 0.71350 0.83834 0.47247
 H738 H 0.69705 0.81548 0.43392
 H739 H 0.77446 0.83657 0.39268
 H740 H 0.78916 0.85926 0.43203
 C741 C 0.77457 0.80052 0.54732
 C742 C 0.69976 0.93258 0.51003
 C743 C 0.73428 0.82472 0.40991
 C744 C 0.83980 0.92291 0.46628
 C745 C 0.03644 0.22501 0.41385
 H746 H 0.05090 0.23527 0.40023
 C747 C 0.04594 0.20499 0.43068
 H748 H 0.06755 0.19961 0.42942
 C749 C -0.00908 0.21986 0.43255
 H750 H -0.03044 0.22606 0.43338
 C751 C -0.00064 0.19928 0.44921
 H752 H -0.01563 0.18954 0.46278
 N753 N 0.00920 0.23164 0.41469
 C754 C 0.03227 0.29309 0.36063
 H755 H 0.02369 0.30885 0.37199
 C756 C 0.05265 0.29887 0.34095
 H757 H 0.05987 0.31910 0.33762
 C758 C 0.03308 0.24765 0.35091
 H759 H 0.02513 0.22774 0.35483
 C760 C 0.05381 0.25245 0.33146
 H761 H 0.06175 0.23612 0.32041
 Zn762 Zn -0.00419 0.25853 0.39178
 N763 N 0.02316 0.26775 0.36538
 C764 C 0.00800 0.29921 0.42551
 N765 N -0.01301 0.28736 0.41300
 C766 C -0.03985 0.29417 0.41766
 C767 C -0.04640 0.31358 0.43557
 C768 C 0.00241 0.31883 0.44347
 C769 C -0.04430 0.22076 0.37696
 C770 C -0.06793 0.21203 0.36466
 C771 C -0.07385 0.25630 0.34677
 C772 C -0.04998 0.26419 0.35942
 N773 N -0.03606 0.24656 0.37459
 H774 H 0.02910 0.29299 0.42191
 H775 H -0.05637 0.28395 0.40820
 H776 H -0.06792 0.31845 0.43904
 H777 H 0.01941 0.32778 0.45349
 H778 H -0.03244 0.20674 0.38817
 H779 H -0.07404 0.19145 0.36730
 H780 H -0.08478 0.27066 0.33496
 H781 H -0.04268 0.28451 0.35740
 C782 C 0.06381 0.27831 0.32626
 C783 C 0.02713 0.19160 0.44830
 C784 C -0.08315 0.22990 0.34936
 C785 C -0.02512 0.32597 0.44900
 C786 C 0.00475 0.72900 0.10002
 H787 H -0.01687 0.73434 0.09996
 C788 C 0.01371 0.70696 0.08659
 H789 H -0.00116 0.69543 0.07617
 C790 C 0.04997 0.73672 0.11506
 H791 H 0.06403 0.74827 0.12627
 C792 C 0.05979 0.71473 0.10204
 H793 H 0.08141 0.70971 0.10338
 N794 N 0.02260 0.74265 0.11481
 C795 C -0.03298 0.76358 0.17989
 H796 H -0.03225 0.78497 0.17914
 C797 C -0.05124 0.74999 0.19781
 H798 H -0.06472 0.76106 0.21067
 C799 C -0.01647 0.72313 0.16398
 H800 H -0.00268 0.71256 0.15108
 C801 C -0.03401 0.70883 0.18172
 H802 H -0.03377 0.68750 0.18146
 Zn803 Zn 0.00692 0.76797 0.13716
 N804 N -0.01674 0.75000 0.16281
 C805 C -0.04056 0.79544 0.11950
 N806 N -0.01284 0.79194 0.11573
 C807 C 0.00178 0.80518 0.09595
 C808 C -0.01115 0.82383 0.07992
 C809 C -0.05435 0.81385 0.10386
 C810 C 0.05037 0.77141 0.17192
 C811 C 0.07231 0.78322 0.18458
 C812 C 0.06136 0.82492 0.16323
 C813 C 0.03960 0.81232 0.15102
 N814 N 0.03498 0.78588 0.15499
 H815 H -0.05209 0.78406 0.13463
 H816 H 0.02368 0.80156 0.09297
 H817 H 0.00104 0.83458 0.06466
 H818 H -0.07628 0.81653 0.10766
 H819 H 0.04591 0.75050 0.17513
 H820 H 0.08471 0.77121 0.19751
 H821 H 0.06471 0.84590 0.15949
 H822 H 0.02660 0.82372 0.13824
 C823 C -0.05212 0.72222 0.19865
 C824 C 0.04127 0.69893 0.08848
 C825 C 0.07836 0.81022 0.17993
 C826 C -0.03951 0.82864 0.08398
 C827 C 0.47450 0.21886 0.59072
 H828 H 0.46208 0.23646 0.58985
 C829 C 0.46845 0.19780 0.57486
 H830 H 0.45137 0.19954 0.56176
 C831 C 0.51284 0.19623 0.60795
 H832 H 0.53051 0.19604 0.62040
 C833 C 0.50773 0.17477 0.59210
 H834 H 0.52136 0.15797 0.59274
 N835 N 0.49612 0.21761 0.60707
 C836 C 0.47325 0.27834 0.66166
 H837 H 0.49129 0.29124 0.65893
 C838 C 0.45308 0.28348 0.68102
 H839 H 0.45560 0.30082 0.69257
 C840 C 0.44899 0.23952 0.65038
 H841 H 0.44804 0.22182 0.63918
 C842 C 0.42825 0.24396 0.66954
 H843 H 0.41126 0.22982 0.67253
 Zn844 Zn 0.50276 0.24831 0.62609
 N845 N 0.47109 0.25651 0.64703
 C846 C 0.49550 0.29651 0.59653
 N847 N 0.51205 0.27543 0.60093
 C848 C 0.53495 0.27132 0.58543
 C849 C 0.54169 0.28842 0.56404
 C850 C 0.50151 0.31419 0.57530
 C851 C 0.52753 0.22351 0.66807
 C852 C 0.54301 0.22251 0.69062
 C853 C 0.56705 0.26268 0.67533
 C854 C 0.55120 0.26279 0.65280
 N855 N 0.53133 0.24378 0.65007
 H856 H 0.47710 0.29909 0.60883
 H857 H 0.54755 0.25423 0.58931
 H858 H 0.55987 0.28445 0.55189
 H859 H 0.48774 0.33049 0.57160
 H860 H 0.51117 0.20903 0.66572
 H861 H 0.53889 0.20656 0.70499
 H862 H 0.58152 0.27882 0.67810
 H863 H 0.55329 0.27914 0.63860
 C864 C 0.43053 0.26579 0.68562
 C865 C 0.48520 0.17538 0.57540
 C866 C 0.56210 0.24300 0.69510
 C867 C 0.52452 0.30990 0.55839
 C868 C 0.52195 0.71873 0.90458
 H869 H 0.53336 0.73734 0.90351
 C870 C 0.52910 0.69888 0.92268
 H871 H 0.54608 0.70254 0.93543
 C872 C 0.48514 0.69219 0.88984
 H873 H 0.46759 0.68992 0.87748
 C874 C 0.49145 0.67187 0.90781
 H875 H 0.47888 0.65392 0.90879
 N876 N 0.50047 0.71502 0.88847
 C877 C 0.51756 0.77640 0.82740
 H878 H 0.49835 0.78710 0.82875
 C879 C 0.53790 0.78406 0.80834
 H880 H 0.53412 0.80074 0.79517
 C881 C 0.54484 0.74067 0.84213
 H882 H 0.54709 0.72331 0.85477
 C883 C 0.56560 0.74749 0.82321
 H884 H 0.58394 0.73548 0.82182
 Zn885 Zn 0.49100 0.74397 0.86623
 N886 N 0.52134 0.75507 0.84381
 C887 C 0.49553 0.79371 0.89002
 N888 N 0.47988 0.77128 0.88846
 C889 C 0.45720 0.76656 0.90465
 C890 C 0.44939 0.78483 0.92334
 C891 C 0.48856 0.81244 0.90853
 C892 C 0.46769 0.71389 0.82788
 C893 C 0.44928 0.70749 0.80849
 C894 C 0.42079 0.74394 0.82163
 C895 C 0.43956 0.74938 0.84110
 N896 N 0.46256 0.73447 0.84371
 H897 H 0.51394 0.79674 0.87752
 H898 H 0.44552 0.74826 0.90338
 H899 H 0.43157 0.78032 0.93627
 H900 H 0.50153 0.82999 0.90977
 H901 H 0.48657 0.70286 0.82990
 H902 H 0.45420 0.69144 0.79573
 H903 H 0.40293 0.75639 0.81930
 H904 H 0.43632 0.76616 0.85334
 C905 C 0.56218 0.76929 0.80586
 C906 C 0.51367 0.67506 0.92453
 C907 C 0.42568 0.72289 0.80493
 C908 C 0.46535 0.80805 0.92563
 C909 C 0.11895 0.27658 0.27920
 C910 C 0.11206 0.30262 0.27459
 C911 C 0.09055 0.30709 0.29190
 C912 C 0.08580 0.28335 0.30565
 O913 O 0.10305 0.26483 0.29794
 H914 H 0.12165 0.31669 0.26045
 H915 H 0.07944 0.32535 0.29389
 C916 C 0.61659 0.76926 0.75799
 C917 C 0.60717 0.79412 0.75153
 C918 C 0.58542 0.79799 0.76882
 C919 C 0.58329 0.77515 0.78455
 O920 O 0.60225 0.75781 0.77793
 H921 H 0.61505 0.80767 0.73603
 H922 H 0.57275 0.81539 0.76972
 C923 C 0.38012 0.72686 0.75261
 C924 C 0.38749 0.70093 0.74952
 C925 C 0.40524 0.69547 0.76917
 C926 C 0.40730 0.71853 0.78281
 O927 O 0.39196 0.73752 0.77279
 H928 H 0.38109 0.68774 0.73452
 H929 H 0.41555 0.67696 0.77289
 C930 C -0.14353 0.22232 0.31290
 C931 C -0.13937 0.19587 0.31867
 C932 C -0.11650 0.19509 0.33345
 C933 C -0.10816 0.22115 0.33568
 O934 O -0.12467 0.23774 0.32322
 H935 H -0.15131 0.17901 0.31264
 H936 H -0.10692 0.17739 0.34107
 C937 C -0.11032 0.69867 0.23667
 C938 C -0.09778 0.67469 0.23372
 C939 C -0.07337 0.68035 0.22043
 C940 C -0.07297 0.70747 0.21579
 O941 O -0.09540 0.71864 0.22593
 H942 H -0.10592 0.65532 0.23986
 H943 H -0.05828 0.66609 0.21418
 C944 C 0.37532 0.26317 0.73312
 C945 C 0.39188 0.28124 0.74521
 C946 C 0.41456 0.28510 0.72884
 C947 C 0.41034 0.26907 0.70786
 O948 O 0.38649 0.25567 0.71050
 H949 H 0.38801 0.29056 0.76376
 H950 H 0.43226 0.29773 0.73227
 C951 C 0.59716 0.25951 0.75223
 C952 C 0.57655 0.24345 0.76403
 C953 C 0.56162 0.23437 0.74412
 C954 C 0.57392 0.24553 0.72139
 O955 O 0.59559 0.26094 0.72625
 H956 H 0.57260 0.23884 0.78473
 H957 H 0.54320 0.22192 0.74625
 C958 C 0.13724 0.82638 0.21551
 C959 C 0.13603 0.84993 0.20124
 C960 C 0.11349 0.84743 0.18608
 C961 C 0.10259 0.82244 0.19222
 O962 O 0.11707 0.80969 0.21010
 H963 H 0.14996 0.86685 0.20172
 H964 H 0.10635 0.86203 0.17198
 C965 C 0.27269 0.12439 0.27455
 C966 C 0.26925 0.11640 0.30062
 C967 C 0.28765 0.09651 0.30420
 C968 C 0.30101 0.09382 0.27997
 O969 O 0.29186 0.11078 0.26202
 H970 H 0.25509 0.12415 0.31528
 H971 H 0.29077 0.08546 0.32238
 C972 C 0.74006 0.59750 0.74971
 C973 C 0.72386 0.58434 0.76893
 C974 C 0.73806 0.56220 0.77543
 C975 C 0.76209 0.56350 0.75975
 O976 O 0.76317 0.58491 0.74397
 H977 H 0.70418 0.59032 0.77744
 H978 H 0.73162 0.54727 0.79018
 C979 C 0.80253 0.34155 0.78286
 C980 C 0.82823 0.33232 0.78915
 C981 C 0.84569 0.35372 0.78653
 C982 C 0.82926 0.37466 0.77912
 O983 O 0.80303 0.36716 0.77674
 H984 H 0.83341 0.31248 0.79567
 H985 H 0.86756 0.35392 0.79048
 C986 C 0.33092 -0.12936 0.29502
 C987 C 0.35583 -0.13589 0.30580
 C988 C 0.37254 -0.11417 0.30130
 C989 C 0.35661 -0.09590 0.28809
 O990 O 0.33135 -0.10520 0.28421
 H991 H 0.36125 -0.15424 0.31573
 H992 H 0.39387 -0.11218 0.30686
 C993 C 0.27376 -0.09744 0.71547
 C994 C 0.29069 -0.08199 0.73019
 C995 C 0.27555 -0.06034 0.73592
 C996 C 0.25035 -0.06415 0.72438
 O997 O 0.24938 -0.08659 0.71176
 H998 H 0.31147 -0.08607 0.73634
 H999 H 0.28218 -0.04402 0.74745
 C1000 C 0.76193 0.37311 0.19170
 C1001 C 0.76644 0.38404 0.16677
 C1002 C 0.75103 0.40632 0.16600
 C1003 C 0.73782 0.40727 0.19054
 O1004 O 0.74465 0.38708 0.20622
 H1005 H 0.77893 0.37629 0.15083
 H1006 H 0.74909 0.41954 0.14907
 C1007 C 0.67796 0.63437 0.23170
 C1008 C 0.65053 0.64037 0.22849
 C1009 C 0.63820 0.61740 0.22157
 C1010 C 0.65904 0.59893 0.22120
 O1011 O 0.68326 0.60933 0.22717
 H1012 H 0.64064 0.65919 0.23105
 H1013 H 0.61652 0.61461 0.21755
 C1014 C 0.17595 0.16050 0.72689
 C1015 C 0.14815 0.16419 0.72310
 C1016 C 0.13673 0.13947 0.72275
 C1017 C 0.15842 0.12237 0.72661
 O1018 O 0.18232 0.13520 0.72892
 H1019 H 0.13739 0.18273 0.72129
 H1020 H 0.11506 0.13475 0.72040
 C1021 C 0.25046 0.25791 0.10878
 C1022 C 0.26898 0.24585 0.09200
 C1023 C 0.26956 0.26107 0.06930
 C1024 C 0.25115 0.28118 0.07390
 O1025 O 0.23962 0.27923 0.09787
 H1026 H 0.28063 0.22813 0.09585
 H1027 H 0.28154 0.25754 0.05144
 C1028 C 0.76894 0.75320 0.59989
 C1029 C 0.78818 0.74008 0.58481
 C1030 C 0.79349 0.75617 0.56313
 C1031 C 0.77699 0.77799 0.56653
 O1032 O 0.76212 0.77614 0.58892
 H1033 H 0.79710 0.72097 0.58897
 H1034 H 0.80738 0.75200 0.54672
 C1035 C 0.72606 0.79143 0.35097
 C1036 C 0.69830 0.79491 0.35704
 C1037 C 0.69756 0.80792 0.38000
 C1038 C 0.72494 0.81153 0.38624
 O1039 O 0.74229 0.80161 0.36857
 H1040 H 0.68068 0.78837 0.34627
 H1041 H 0.67921 0.81411 0.39080
 C1042 C 0.20735 0.31601 -0.15102
 C1043 C 0.18487 0.33204 -0.15457
 C1044 C 0.18201 0.34547 -0.13190
 C1045 C 0.20278 0.33633 -0.11616
 O1046 O 0.21818 0.31846 -0.12774
 H1047 H 0.17234 0.33395 -0.17171
 H1048 H 0.16641 0.35987 -0.12725
 C1049 C 0.67699 0.23862 -0.07294
 C1050 C 0.65138 0.23203 -0.06142
 C1051 C 0.65601 0.21122 -0.04454
 C1052 C 0.68411 0.20686 -0.04693
 O1053 O 0.69691 0.22351 -0.06404
 H1054 H 0.63153 0.24052 -0.06567
 H1055 H 0.64068 0.20015 -0.03245
 C1056 C 0.22372 0.69026 0.35537
 C1057 C 0.20405 0.67083 0.35194
 C1058 C 0.20867 0.65185 0.37076
 C1059 C 0.23082 0.66115 0.38456
 O1060 O 0.24004 0.68451 0.37506
 H1061 H 0.18799 0.67068 0.33765
 H1062 H 0.19655 0.63387 0.37425
 C1063 C 0.24243 0.73597 0.59379
 C1064 C 0.21757 0.74277 0.58315
 C1065 C 0.21355 0.72514 0.56383
 C1066 C 0.23638 0.70895 0.56413
 O1067 O 0.25381 0.71560 0.58233
 H1068 H 0.20404 0.75862 0.58876
 H1069 H 0.19618 0.72449 0.55102
 C1070 C 0.74396 0.17184 0.15434
 C1071 C 0.72614 0.15140 0.16256
 C1072 C 0.72188 0.13736 0.14067
 C1073 C 0.73784 0.15006 0.12092
 O1074 O 0.75123 0.17105 0.12911
 H1075 H 0.71700 0.14751 0.18206
 H1076 H 0.70897 0.11983 0.13927
 C1077 C 0.52480 0.35777 0.50644
 C1078 C 0.54425 0.34147 0.49540
 C1079 C 0.54741 0.32151 0.51360
 C1080 C 0.52955 0.32707 0.53447
 O1081 O 0.51582 0.34914 0.53007
 H1082 H 0.55475 0.34375 0.47630
 H1083 H 0.56068 0.30466 0.51140
 C1084 C -0.05692 0.88173 0.04140
 C1085 C -0.08312 0.87706 0.05237
 C1086 C -0.08053 0.85608 0.06956
 C1087 C -0.05282 0.84951 0.06788
 O1088 O -0.03855 0.86508 0.05068
 H1089 H -0.10184 0.88781 0.04851
 H1090 H -0.09696 0.84709 0.08196
 C1091 C 0.04578 0.63590 0.06198
 C1092 C 0.06886 0.63431 0.07706
 C1093 C 0.07146 0.65846 0.08774
 C1094 C 0.04950 0.67295 0.07861
 O1095 O 0.03394 0.65922 0.06285
 H1096 H 0.08183 0.61734 0.08034
 H1097 H 0.08663 0.66414 0.10172
 C1098 C 0.48857 0.12241 0.53251
 C1099 C 0.46130 0.12867 0.52868
 C1100 C 0.45587 0.14881 0.54502
 C1101 C 0.48035 0.15349 0.55752
 O1102 O 0.50015 0.13727 0.55008
 H1103 H 0.44723 0.11994 0.51522
 H1104 H 0.43646 0.15905 0.54715
 C1105 C 0.03401 0.13308 0.48650
 C1106 C 0.06065 0.14262 0.48914
 C1107 C 0.06194 0.16608 0.47503
 C1108 C 0.03586 0.16914 0.46512
 O1109 O 0.01894 0.14913 0.47207
 H1110 H 0.07724 0.13337 0.49963
 H1111 H 0.07967 0.17938 0.47240
 C1112 C 0.51417 0.62021 0.96910
 C1113 C 0.53961 0.63068 0.97508
 C1114 C 0.54326 0.65262 0.95897
 C1115 C 0.51970 0.65395 0.94432
 O1116 O 0.50210 0.63417 0.95044
 H1117 H 0.55372 0.62333 0.98956
 H1118 H 0.56104 0.66593 0.95816
 C1119 C 0.46465 0.85821 0.97190
 C1120 C 0.43891 0.84747 0.97888
 C1121 C 0.43522 0.82724 0.96226
 C1122 C 0.45905 0.82715 0.94634
 O1123 O 0.47683 0.84603 0.95220
 H1124 H 0.42465 0.85353 0.99432
 H1125 H 0.41726 0.81422 0.96198
 C1126 C -0.02447 0.37363 0.49776
 C1127 C -0.05256 0.36829 0.49938
 C1128 C -0.05700 0.35002 0.48086
 C1129 C -0.03118 0.34550 0.46935
 O1130 O -0.01147 0.35988 0.47965
 H1131 H -0.06792 0.37657 0.51257
 H1132 H -0.07666 0.34076 0.47682
 C1133 C 0.40437 0.53506 0.50907
 C1134 C 0.39898 0.53389 0.53580
 C1135 C 0.37750 0.55045 0.53990
 C1136 C 0.37096 0.56036 0.51524
 O1137 O 0.38758 0.55116 0.49647
 H1138 H 0.40931 0.52208 0.55051
 H1139 H 0.36757 0.55418 0.55874
 C1140 C 0.89340 0.06755 -0.04945
 C1141 C 0.89484 0.08775 -0.06831
 C1142 C 0.87218 0.10282 -0.06318
 C1143 C 0.85859 0.09061 -0.04154
 O1144 O 0.87159 0.06927 -0.03323
 H1145 H 0.91033 0.09096 -0.08403
 H1146 H 0.86635 0.12042 -0.07415
 C1147 C 0.63825 -0.00741 -0.01260
 C1148 C 0.65559 -0.01800 -0.03144
 C1149 C 0.67883 -0.00218 -0.03247
 C1150 C 0.67395 0.01659 -0.01389
 O1151 O 0.64935 0.01345 -0.00188
 H1152 H 0.65150 -0.03478 -0.04341
 H1153 H 0.69708 -0.00406 -0.04520
 C1154 C 0.15496 0.49156 0.52483
 C1155 C 0.17386 0.47528 0.51294
 C1156 C 0.19628 0.49106 0.50633
 C1157 C 0.18938 0.51596 0.51458
 O1158 O 0.16429 0.51618 0.52597
 H1159 H 0.17152 0.45443 0.50936
 H1160 H 0.21523 0.48492 0.49654
 C1161 C 0.07423 0.44176 0.03850
 C1162 C 0.07953 0.43608 0.06452
 C1163 C 0.10259 0.42102 0.06409
 C1164 C 0.10974 0.41862 0.03782
 O1165 O 0.09241 0.43103 0.02218
 H1166 H 0.06857 0.44309 0.08177
 H1167 H 0.11344 0.41342 0.08091
 C1168 C 0.65119 0.98371 0.51281
 C1169 C 0.66063 0.98621 0.53784
 C1170 C 0.68013 0.96716 0.54059
 C1171 C 0.68111 0.95445 0.51696
 O1172 O 0.66347 0.96451 0.50018
 H1173 H 0.65420 1.00028 0.55228
 H1174 H 0.69203 0.96313 0.55783
 C1175 C 0.89631 0.96733 0.46981
 C1176 C 0.88964 0.97384 0.44433
 C1177 C 0.86789 0.95759 0.43917
 C1178 C 0.86284 0.94237 0.46195
 O1179 O 0.88022 0.94818 0.48052
 H1180 H 0.89925 0.98883 0.43118
 H1181 H 0.85699 0.95712 0.42099
 C1182 C 0.33954 0.48699 -0.00451
 C1183 C 0.32190 0.50361 -0.01756
 C1184 C 0.29796 0.48942 -0.01959
 C1185 C 0.30265 0.46502 -0.00760
 O1186 O 0.32799 0.46358 0.00157
 H1187 H 0.32599 0.52367 -0.02487
 H1188 H 0.27955 0.49626 -0.02901
 C1189 C 0.55776 0.49633 0.35500
 C1190 C 0.57221 0.52006 0.35405
 C1191 C 0.59087 0.51842 0.33350
 C1192 C 0.58620 0.49390 0.32329
 O1193 O 0.56607 0.48043 0.33630
 H1194 H 0.56980 0.53636 0.36710
 H1195 H 0.60571 0.53352 0.32644
 C1196 C 0.07756 -0.03469 0.88888
 C1197 C 0.09994 -0.05025 0.89431
 C1198 C 0.11712 -0.04781 0.87252
 C1199 C 0.10391 -0.03091 0.85527
 O1200 O 0.07990 -0.02287 0.86530
 H1201 H 0.10333 -0.06206 0.91199
 H1202 H 0.13688 -0.05729 0.86980
 C1203 C 0.03004 -0.02262 0.63304
 C1204 C 0.01662 -0.04164 0.64904
 C1205 C 0.03235 -0.04414 0.67069
 C1206 C 0.05425 -0.02639 0.66627
 O1207 O 0.05282 -0.01341 0.64336
 H1208 H -0.00244 -0.05226 0.64548
 H1209 H 0.02814 -0.05732 0.68757
 C1210 C 0.52247 0.45798 0.10738
 C1211 C 0.51786 0.43213 0.11598
 C1212 C 0.53663 0.42770 0.13507
 C1213 C 0.55129 0.45127 0.13667
 O1214 O 0.54263 0.46954 0.11982
 H1215 H 0.50260 0.41825 0.10927
 H1216 H 0.53900 0.40950 0.14647
 C1217 C 0.45640 0.02024 0.10219
 C1218 C 0.45747 0.04744 0.10235
 C1219 C 0.44482 0.05384 0.12550
 C1220 C 0.43711 0.03000 0.13797
 O1221 O 0.44395 0.00956 0.12366
 H1222 H 0.46676 0.06099 0.08752
 H1223 H 0.44205 0.07360 0.13246
 C1224 C 0.97651 0.51341 0.65148
 C1225 C 0.98390 0.53782 0.66040
 C1226 C 0.96733 0.54113 0.68224
 C1227 C 0.95104 0.51838 0.68507
 O1228 O 0.95667 0.50161 0.66632
 H1229 H 0.99959 0.55149 0.65210
 H1230 H 0.96752 0.55806 0.69461
 C1231 C 0.94568 0.54984 0.89860
 C1232 C 0.93328 0.57339 0.89199
 C1233 C 0.91624 0.56780 0.87222
 C1234 C 0.91943 0.54120 0.86802
 O1235 O 0.93747 0.53020 0.88397
 H1236 H 0.93610 0.59242 0.90065
 H1237 H 0.90330 0.58165 0.86187
 C1238 C 0.52480 0.03059 0.34819
 C1239 C 0.54201 0.02022 0.32916
 C1240 C 0.52647 0.01899 0.30743
 C1241 C 0.50077 0.02859 0.31486
 O1242 O 0.49988 0.03581 0.33961
 H1243 H 0.56321 0.01397 0.33101
 H1244 H 0.53316 0.01153 0.28864
   
