data_POSCAR
  _audit_creation_date              2014-09-24
  _audit_creation_method            'ToBaCCo'
  _symmetry_space_group_name_H-M    'P1'
  _symmetry_Int_Tables_number       1
  _symmetry_cell_setting            triclinic
  loop_
  _symmetry_equiv_pos_as_xyz
 x,y,z
_cell_length_a 50.6030
_cell_length_b 50.8328
_cell_length_c 53.7172
_cell_angle_alpha 90.027000
_cell_angle_beta 89.592400
_cell_angle_gamma 89.178300
loop_
  _atom_site_label
  _atom_site_type_symbol
  _atom_site_fract_x
  _atom_site_fract_y
  _atom_site_fract_z
C1 C 0.43859 -0.00257 0.28016
 H2 H 0.45040 0.00003 0.26354
 C3 C 0.45115 -0.00582 0.30326
 H4 H 0.47250 -0.00514 0.30419
 C5 C 0.39668 -0.00780 0.29916
 H6 H 0.37557 -0.00989 0.29746
 C7 C 0.40830 -0.01125 0.32235
 H8 H 0.39556 -0.01493 0.33821
 N9 N 0.41172 -0.00349 0.27856
 C10 C 0.41594 -0.02560 0.20402
 H11 H 0.40249 -0.04152 0.20758
 C12 C 0.43139 -0.02584 0.18232
 H13 H 0.42953 -0.04218 0.16956
 C14 C 0.43385 0.01522 0.21595
 H15 H 0.43433 0.03145 0.22896
 C16 C 0.44955 0.01588 0.19431
 H17 H 0.46206 0.03262 0.19096
 Zn18 Zn 0.39275 -0.00363 0.24780
 N19 N 0.41702 -0.00505 0.22015
 C20 C 0.37274 0.04327 0.22409
 N21 N 0.37073 0.02783 0.24478
 C22 C 0.35377 0.03480 0.26353
 C23 C 0.33909 0.05836 0.26242
 C24 C 0.35836 0.06701 0.22220
 C25 C 0.38223 -0.05640 0.26032
 C26 C 0.36720 -0.07892 0.26460
 C27 C 0.33044 -0.05740 0.24429
 C28 C 0.34603 -0.03497 0.24105
 N29 N 0.37147 -0.03482 0.24905
 H30 H 0.38562 0.03736 0.20893
 H31 H 0.35171 0.02231 0.27961
 H32 H 0.32615 0.06348 0.27786
 H33 H 0.36074 0.07904 0.20573
 H34 H 0.40247 -0.05594 0.26662
 H35 H 0.37653 -0.09544 0.27396
 H36 H 0.31031 -0.05674 0.23759
 H37 H 0.33769 -0.01759 0.23234
 C38 C 0.44811 -0.00464 0.17686
 C39 C 0.43592 -0.01045 0.32477
 C40 C 0.34074 -0.07993 0.25656
 C41 C 0.34150 0.07513 0.24171
 C42 C 0.06500 0.01658 0.71321
 H43 H 0.06021 0.03163 0.72680
 C44 C 0.04937 0.01408 0.69179
 H45 H 0.03264 0.02727 0.68920
 C46 C 0.09297 -0.01824 0.69954
 H47 H 0.11045 -0.03033 0.70188
 C48 C 0.07792 -0.02152 0.67815
 H49 H 0.08407 -0.03637 0.66478
 N50 N 0.08602 0.00003 0.71703
 C51 C 0.10081 -0.00426 0.79732
 H52 H 0.12192 -0.00747 0.79560
 C53 C 0.08929 -0.00194 0.82083
 H54 H 0.10187 -0.00399 0.83696
 C55 C 0.05940 0.00309 0.77812
 H56 H 0.04784 0.00534 0.76143
 C57 C 0.04693 0.00550 0.80153
 H58 H 0.02588 0.00951 0.80254
 Zn59 Zn 0.10706 0.00100 0.74684
 N60 N 0.08607 -0.00097 0.77651
 C61 C 0.12195 0.05012 0.76793
 N62 N 0.12656 0.03333 0.74850
 C63 C 0.14481 0.03921 0.73071
 C64 C 0.15964 0.06226 0.73244
 C65 C 0.13640 0.07325 0.77044
 C66 C 0.11894 -0.05327 0.74485
 C67 C 0.13436 -0.07615 0.74189
 C68 C 0.17348 -0.04981 0.74498
 C69 C 0.15727 -0.02725 0.74708
 N70 N 0.13045 -0.02928 0.74653
 H71 H 0.10695 0.04577 0.78163
 H72 H 0.14807 0.02585 0.71527
 H73 H 0.17415 0.06635 0.71810
 H74 H 0.13230 0.08611 0.78611
 H75 H 0.09761 -0.05451 0.74480
 H76 H 0.12473 -0.09492 0.73994
 H77 H 0.19475 -0.04782 0.74525
 H78 H 0.16617 -0.00816 0.74893
 C79 C 0.06210 0.00368 0.82330
 C80 C 0.05559 -0.00548 0.67403
 C81 C 0.16202 -0.07460 0.74177
 C82 C 0.15568 0.07963 0.75263
 C83 C 0.56520 0.51333 0.21309
 H84 H 0.55880 0.52751 0.22696
 C85 C 0.55035 0.51017 0.19126
 H86 H 0.53262 0.52197 0.18863
 C87 C 0.59650 0.48161 0.19906
 H88 H 0.61488 0.47096 0.20154
 C89 C 0.58246 0.47791 0.17715
 H90 H 0.59026 0.46411 0.16351
 N91 N 0.58748 0.49851 0.21695
 C92 C 0.60089 0.49579 0.29756
 H93 H 0.62213 0.49345 0.29612
 C94 C 0.58905 0.49852 0.32088
 H95 H 0.60150 0.49763 0.33717
 C96 C 0.55944 0.50049 0.27779
 H97 H 0.54795 0.50141 0.26097
 C98 C 0.54662 0.50321 0.30100
 H99 H 0.52541 0.50623 0.30173
 Zn100 Zn 0.60775 0.49965 0.24719
 N101 N 0.58628 0.49773 0.27653
 C102 C 0.62165 0.54934 0.26785
 N103 N 0.62719 0.53201 0.24905
 C104 C 0.64632 0.53738 0.23194
 C105 C 0.66113 0.56043 0.23380
 C106 C 0.63605 0.57249 0.27047
 C107 C 0.61959 0.44547 0.24453
 C108 C 0.63502 0.42256 0.24185
 C109 C 0.67405 0.44855 0.24746
 C110 C 0.65787 0.47117 0.24924
 N111 N 0.63112 0.46933 0.24736
 H112 H 0.60591 0.54543 0.28092
 H113 H 0.65030 0.52361 0.21697
 H114 H 0.67634 0.56411 0.22002
 H115 H 0.63119 0.58580 0.28563
 H116 H 0.59830 0.44438 0.24338
 H117 H 0.62541 0.40392 0.23900
 H118 H 0.69528 0.45039 0.24882
 H119 H 0.66676 0.49015 0.25194
 C120 C 0.56164 0.50303 0.32292
 C121 C 0.55885 0.49201 0.17299
 C122 C 0.66265 0.42391 0.24317
 C123 C 0.65623 0.57834 0.25340
 C124 C 0.93963 0.49883 0.78312
 H125 H 0.95148 0.50216 0.76665
 C126 C 0.95209 0.49532 0.80625
 H127 H 0.97340 0.49654 0.80723
 C128 C 0.89772 0.49228 0.80167
 H129 H 0.87665 0.48998 0.79976
 C130 C 0.90921 0.48852 0.82489
 H131 H 0.89628 0.48425 0.84048
 N132 N 0.91281 0.49744 0.78130
 C133 C 0.91611 0.47597 0.70644
 H134 H 0.90246 0.46025 0.71006
 C135 C 0.93102 0.47577 0.68443
 H136 H 0.92861 0.45959 0.67157
 C137 C 0.93486 0.51641 0.71837
 H138 H 0.93580 0.53253 0.73147
 C139 C 0.95008 0.51707 0.69642
 H140 H 0.96273 0.53368 0.69295
 Zn141 Zn 0.89384 0.49789 0.75056
 N142 N 0.91784 0.49632 0.72273
 C143 C 0.87347 0.54434 0.72652
 N144 N 0.87223 0.52958 0.74770
 C145 C 0.85618 0.53725 0.76690
 C146 C 0.84144 0.56076 0.76559
 C147 C 0.85901 0.56802 0.72442
 C148 C 0.88355 0.44436 0.76000
 C149 C 0.86847 0.42181 0.76397
 C150 C 0.83003 0.44590 0.74981
 C151 C 0.84576 0.46821 0.74660
 N152 N 0.87208 0.46709 0.75167
 H153 H 0.88572 0.53787 0.71109
 H154 H 0.85490 0.52535 0.78345
 H155 H 0.82917 0.56643 0.78134
 H156 H 0.86069 0.57946 0.70751
 H157 H 0.90444 0.44392 0.76416
 H158 H 0.87807 0.40407 0.77075
 H159 H 0.80916 0.44723 0.74562
 H160 H 0.83688 0.48647 0.74028
 C161 C 0.94789 0.49679 0.67881
 C162 C 0.93683 0.48992 0.82766
 C163 C 0.84127 0.42232 0.75891
 C164 C 0.84290 0.57676 0.74424
 C165 C 0.20887 0.38535 0.97606
 H166 H 0.22228 0.38401 0.96032
 C167 C 0.18476 0.39922 0.97376
 H168 H 0.18000 0.40875 0.95630
 C169 C 0.19857 0.37414 1.01771
 H170 H 0.20356 0.36394 1.03469
 C171 C 0.17458 0.38809 1.01634
 H172 H 0.16171 0.38855 1.03253
 N173 N 0.21537 0.37315 0.99783
 C174 C 0.30102 0.36232 1.00872
 H175 H 0.30116 0.34158 1.01322
 C176 C 0.32393 0.37698 1.01222
 H177 H 0.34161 0.36722 1.01902
 C178 C 0.27764 0.40011 0.99479
 H179 H 0.25944 0.40919 0.98848
 C180 C 0.30035 0.41541 0.99747
 H181 H 0.29937 0.43613 0.99287
 Zn182 Zn 0.24746 0.35233 0.99969
 N183 N 0.27837 0.37398 1.00030
 C184 C 0.26977 0.32960 0.95619
 N185 N 0.24837 0.32936 0.97158
 C186 C 0.22685 0.31468 0.96606
 C187 C 0.22600 0.30017 0.94382
 C188 C 0.26982 0.31533 0.93398
 C189 C 0.25244 0.34770 1.05066
 C190 C 0.25728 0.33588 1.07359
 C191 C 0.25423 0.29329 1.05402
 C192 C 0.24961 0.30605 1.03119
 N193 N 0.24884 0.33283 1.02999
 H194 H 0.28659 0.34149 0.96075
 H195 H 0.20995 0.31498 0.97851
 H196 H 0.20839 0.28933 0.93939
 H197 H 0.28698 0.31644 0.92189
 H198 H 0.25230 0.36892 1.04915
 H199 H 0.26024 0.34842 1.08960
 H200 H 0.25496 0.27200 1.05467
 H201 H 0.24729 0.29456 1.01442
 C202 C 0.32387 0.40393 1.00656
 C203 C 0.16724 0.40083 0.99415
 C204 C 0.25849 0.30830 1.07558
 C205 C 0.24752 0.30078 0.92716
 C206 C 0.80162 0.12579 0.97778
 H207 H 0.79764 0.14116 0.96447
 C208 C 0.82459 0.11030 0.97478
 H209 H 0.83780 0.11450 0.95939
 C210 C 0.78906 0.10145 1.01325
 H211 H 0.77487 0.09733 1.02777
 C212 C 0.81186 0.08556 1.01105
 H213 H 0.81485 0.06994 1.02448
 N214 N 0.78456 0.12165 0.99713
 C215 C 0.70332 0.13010 1.02089
 H216 H 0.70606 0.14711 1.03258
 C217 C 0.68016 0.11557 1.02357
 H218 H 0.66559 0.12161 1.03737
 C219 C 0.71844 0.10221 0.98837
 H220 H 0.73345 0.09706 0.97471
 C221 C 0.69537 0.08730 0.99023
 H222 H 0.69293 0.07076 0.97780
 Zn223 Zn 0.75348 0.14424 1.00103
 N224 N 0.72201 0.12330 1.00353
 C225 C 0.73233 0.16301 0.95572
 N226 N 0.75154 0.16713 0.97275
 C227 C 0.77048 0.18553 0.96871
 C228 C 0.77152 0.19938 0.94612
 C229 C 0.73269 0.17627 0.93299
 C230 C 0.75658 0.15078 1.05260
 C231 C 0.75248 0.16313 1.07546
 C232 C 0.74587 0.20439 1.05406
 C233 C 0.74985 0.19108 1.03137
 N234 N 0.75474 0.16460 1.03102
 H235 H 0.71732 0.14856 0.95924
 H236 H 0.78561 0.18848 0.98251
 H237 H 0.78742 0.21297 0.94275
 H238 H 0.71766 0.17186 0.91942
 H239 H 0.75964 0.12978 1.05211
 H240 H 0.75346 0.15134 1.09222
 H241 H 0.74131 0.22526 1.05401
 H242 H 0.74770 0.20173 1.01409
 C243 C 0.67576 0.09391 1.00803
 C244 C 0.83036 0.08999 0.99176
 C245 C 0.74646 0.19018 1.07647
 C246 C 0.75293 0.19412 0.92757
 C247 C 0.29031 0.61161 0.47636
 H248 H 0.27705 0.61345 0.46073
 C249 C 0.31413 0.59728 0.47371
 H250 H 0.31881 0.58790 0.45609
 C251 C 0.30053 0.62203 0.51810
 H252 H 0.29560 0.63211 0.53524
 C253 C 0.32421 0.60756 0.51639
 H254 H 0.33696 0.60658 0.53247
 N255 N 0.28392 0.62366 0.49833
 C256 C 0.19831 0.63599 0.50894
 H257 H 0.19827 0.65691 0.51262
 C258 C 0.17518 0.62170 0.51280
 H259 H 0.15739 0.63190 0.51900
 C260 C 0.22174 0.59737 0.49686
 H261 H 0.24005 0.58785 0.49118
 C262 C 0.19883 0.58241 0.49992
 H263 H 0.19975 0.56147 0.49621
 Zn264 Zn 0.25221 0.64495 0.50033
 N265 N 0.22108 0.62374 0.50127
 C266 C 0.23226 0.66486 0.45518
 N267 N 0.25201 0.66743 0.47195
 C268 C 0.27277 0.68358 0.46734
 C269 C 0.27461 0.69726 0.44469
 C270 C 0.23343 0.67790 0.43237
 C271 C 0.24682 0.65010 0.55124
 C272 C 0.24182 0.66217 0.57409
 C273 C 0.24527 0.70454 0.55412
 C274 C 0.25003 0.69153 0.53140
 N275 N 0.25072 0.66473 0.53043
 H276 H 0.21610 0.65176 0.45901
 H277 H 0.28845 0.68501 0.48084
 H278 H 0.29173 0.70919 0.44090
 H279 H 0.21783 0.67481 0.41903
 H280 H 0.24685 0.62886 0.54990
 H281 H 0.23865 0.64984 0.59023
 H282 H 0.24465 0.72583 0.55459
 H283 H 0.25248 0.70284 0.51453
 C284 C 0.17518 0.59451 0.50827
 C285 C 0.33143 0.59498 0.49396
 C286 C 0.24076 0.68977 0.57584
 C287 C 0.25511 0.69385 0.42658
 C288 C 0.70705 0.88487 0.47583
 H289 H 0.72047 0.88339 0.46011
 C290 C 0.68303 0.89888 0.47344
 H291 H 0.67836 0.90836 0.45594
 C292 C 0.69663 0.87392 0.51750
 H293 H 0.70154 0.86377 0.53453
 C294 C 0.67273 0.88803 0.51606
 H295 H 0.65984 0.88866 0.53223
 N296 N 0.71347 0.87273 0.49765
 C297 C 0.79904 0.86211 0.50906
 H298 H 0.79917 0.84141 0.51372
 C299 C 0.82193 0.87681 0.51253
 H300 H 0.83958 0.86712 0.51950
 C301 C 0.77574 0.89975 0.49465
 H302 H 0.75759 0.90875 0.48814
 C303 C 0.79844 0.91507 0.49729
 H304 H 0.79751 0.93575 0.49248
 Zn305 Zn 0.74558 0.85192 0.49964
 N306 N 0.77644 0.87367 0.50041
 C307 C 0.76813 0.82991 0.45596
 N308 N 0.74677 0.82910 0.47138
 C309 C 0.72554 0.81407 0.46570
 C310 C 0.72495 0.79978 0.44332
 C311 C 0.76843 0.81593 0.43359
 C312 C 0.75024 0.84724 0.55064
 C313 C 0.75500 0.83547 0.57361
 C314 C 0.75231 0.79284 0.55405
 C315 C 0.74776 0.80557 0.53119
 N316 N 0.74685 0.83235 0.52995
 H317 H 0.78472 0.84207 0.46062
 H318 H 0.70864 0.81392 0.47815
 H319 H 0.70755 0.78866 0.43877
 H320 H 0.78554 0.81751 0.42150
 H321 H 0.75001 0.86847 0.54912
 H322 H 0.75779 0.84804 0.58962
 H323 H 0.75319 0.77157 0.55472
 H324 H 0.74561 0.79406 0.51441
 C325 C 0.82191 0.90368 0.50658
 C326 C 0.66551 0.90074 0.49382
 C327 C 0.75636 0.80790 0.57564
 C328 C 0.74642 0.80102 0.42663
 C329 C 0.00996 0.28178 0.41640
 H330 H 0.02498 0.26705 0.42039
 C331 C 0.00870 0.30479 0.43016
 H332 H 0.02287 0.30764 0.44489
 C333 C -0.02594 0.29613 0.39135
 H334 H -0.03918 0.29259 0.37607
 C335 C -0.02778 0.31964 0.40451
 H336 H -0.04248 0.33422 0.39919
 N337 N -0.00663 0.27836 0.39700
 C338 C 0.02585 0.20395 0.39621
 H339 H 0.04076 0.20741 0.38218
 C340 C 0.02719 0.18128 0.41054
 H341 H 0.04326 0.16740 0.40716
 C342 C -0.01341 0.21776 0.41717
 H343 H -0.02937 0.23201 0.41916
 C344 C -0.01270 0.19557 0.43217
 H345 H -0.02835 0.19294 0.44575
 Zn346 Zn 0.00021 0.24898 0.37781
 N347 N 0.00514 0.22092 0.39912
 C348 C 0.03501 0.23624 0.34030
 N349 N 0.02987 0.25425 0.35840
 C350 C 0.04489 0.27593 0.36142
 C351 C 0.06711 0.27941 0.34658
 C352 C 0.05690 0.23902 0.32492
 C353 C -0.04181 0.22028 0.35891
 C354 C -0.06224 0.21550 0.34251
 C355 C -0.05062 0.25502 0.31999
 C356 C -0.03055 0.25912 0.33695
 N357 N -0.02710 0.24224 0.35625
 H358 H 0.02220 0.21955 0.33811
 H359 H 0.03985 0.29040 0.37544
 H360 H 0.07934 0.29641 0.34957
 H361 H 0.06119 0.22407 0.31105
 H362 H -0.03800 0.20665 0.37390
 H363 H -0.07447 0.19844 0.34536
 H364 H -0.05380 0.26923 0.30527
 H365 H -0.01788 0.27598 0.33504
 C366 C 0.00713 0.17637 0.42813
 C367 C -0.00972 0.32441 0.42363
 C368 C -0.06716 0.23336 0.32316
 C369 C 0.07349 0.26055 0.32838
 C370 C 0.01283 0.71589 0.08748
 H371 H 0.02987 0.72834 0.08537
 C372 C 0.00983 0.69424 0.07210
 H373 H 0.02492 0.68981 0.05827
 C374 C -0.02731 0.70650 0.10865
 H375 H -0.04174 0.71154 0.12283
 C376 C -0.03102 0.68452 0.09382
 H377 H -0.04825 0.67252 0.09690
 N378 N -0.00530 0.72112 0.10561
 C379 C 0.03001 0.79278 0.10867
 H380 H 0.04294 0.78898 0.12418
 C381 C 0.03478 0.81398 0.09307
 H382 H 0.05121 0.82673 0.09696
 C383 C -0.00738 0.78102 0.08485
 H384 H -0.02380 0.76799 0.08200
 C385 C -0.00323 0.80179 0.06867
 H386 H -0.01690 0.80498 0.05351
 Zn387 Zn 0.00065 0.74989 0.12561
 N388 N 0.00868 0.77748 0.10473
 C389 C 0.03217 0.76073 0.16564
 N390 N 0.02817 0.74298 0.14722
 C391 C 0.04355 0.72104 0.14456
 C392 C 0.06538 0.71733 0.15973
 C393 C 0.05359 0.75767 0.18140
 C394 C -0.04684 0.77652 0.13777
 C395 C -0.07063 0.77922 0.15070
 C396 C -0.05631 0.74407 0.17818
 C397 C -0.03311 0.74186 0.16448
 N398 N -0.02921 0.75747 0.14440
 H399 H 0.01915 0.77770 0.16747
 H400 H 0.03943 0.70683 0.13022
 H401 H 0.07821 0.70037 0.15674
 H402 H 0.05726 0.77265 0.19524
 H403 H -0.04297 0.78899 0.12195
 H404 H -0.08481 0.79390 0.14445
 H405 H -0.05905 0.73072 0.19367
 H406 H -0.01851 0.72699 0.16927
 C407 C 0.01757 0.81902 0.07322
 C408 C -0.01199 0.67795 0.07567
 C409 C -0.07606 0.76220 0.17074
 C410 C 0.07096 0.73624 0.17787
 C411 C 0.51274 0.21575 0.58611
 H412 H 0.53000 0.22790 0.58410
 C413 C 0.50933 0.19434 0.57053
 H414 H 0.52434 0.18976 0.55667
 C415 C 0.47238 0.20693 0.60714
 H416 H 0.45798 0.21214 0.62129
 C417 C 0.46826 0.18518 0.59211
 H418 H 0.45079 0.17349 0.59505
 N419 N 0.49471 0.22112 0.60429
 C420 C 0.53073 0.29237 0.60710
 H421 H 0.54411 0.28819 0.62220
 C422 C 0.53518 0.31381 0.59170
 H423 H 0.55186 0.32634 0.59530
 C424 C 0.49246 0.28137 0.58421
 H425 H 0.47577 0.26858 0.58170
 C426 C 0.49626 0.30238 0.56824
 H427 H 0.48212 0.30597 0.55356
 Zn428 Zn 0.50121 0.24972 0.62438
 N429 N 0.50913 0.27734 0.60354
 C430 C 0.53301 0.26026 0.66407
 N431 N 0.52899 0.24259 0.64560
 C432 C 0.54453 0.22080 0.64267
 C433 C 0.56653 0.21717 0.65767
 C434 C 0.55454 0.25725 0.67968
 C435 C 0.45544 0.27831 0.63845
 C436 C 0.43214 0.28183 0.65200
 C437 C 0.44435 0.24406 0.67713
 C438 C 0.46714 0.24109 0.66293
 N439 N 0.47179 0.25764 0.64366
 H440 H 0.51990 0.27714 0.66606
 H441 H 0.54041 0.20666 0.62827
 H442 H 0.57948 0.20033 0.65452
 H443 H 0.55815 0.27216 0.69361
 H444 H 0.45995 0.29151 0.62333
 H445 H 0.41867 0.29770 0.64707
 H446 H 0.44050 0.23002 0.69182
 H447 H 0.48078 0.22501 0.66664
 C448 C 0.51735 0.31936 0.57247
 C449 C 0.48719 0.17844 0.57392
 C450 C 0.42616 0.26412 0.67116
 C451 C 0.57204 0.23596 0.67594
 C452 C 0.50655 0.78216 0.91509
 H453 H 0.52116 0.76720 0.91961
 C454 C 0.50537 0.80531 0.92861
 H455 H 0.51912 0.80796 0.94373
 C456 C 0.47185 0.79705 0.88885
 H457 H 0.45912 0.79371 0.87316
 C458 C 0.47012 0.82073 0.90177
 H459 H 0.45599 0.83562 0.89586
 N460 N 0.49057 0.77893 0.89521
 C461 C 0.52507 0.70614 0.89630
 H462 H 0.54059 0.71051 0.88312
 C463 C 0.52719 0.68390 0.91115
 H464 H 0.54432 0.67105 0.90909
 C465 C 0.48365 0.71736 0.91481
 H466 H 0.46666 0.73049 0.91572
 C467 C 0.48503 0.69547 0.93016
 H468 H 0.46881 0.69159 0.94282
 Zn469 Zn 0.49809 0.74953 0.87623
 N470 N 0.50304 0.72163 0.89777
 C471 C 0.53383 0.73690 0.83967
 N472 N 0.52817 0.75504 0.85752
 C473 C 0.54311 0.77672 0.86085
 C474 C 0.56579 0.78007 0.84659
 C475 C 0.55614 0.73958 0.82485
 C476 C 0.45719 0.72012 0.85606
 C477 C 0.43719 0.71520 0.83923
 C478 C 0.44855 0.75522 0.81741
 C479 C 0.46819 0.75944 0.83479
 N480 N 0.47147 0.74242 0.85401
 H481 H 0.52112 0.72017 0.83729
 H482 H 0.53769 0.79123 0.87471
 H483 H 0.57797 0.79707 0.84981
 H484 H 0.56080 0.72454 0.81117
 H485 H 0.46097 0.70633 0.87092
 H486 H 0.42521 0.69790 0.84165
 H487 H 0.44539 0.76960 0.80282
 H488 H 0.48060 0.77653 0.83329
 C489 C 0.50657 0.67799 0.92770
 C490 C 0.48770 0.82531 0.92134
 C491 C 0.43228 0.73329 0.82006
 C492 C 0.57265 0.76111 0.82864
 C493 C -0.23535 0.68142 0.96468
 H494 H -0.21871 0.68148 0.97714
 C495 C -0.23485 0.69713 0.94318
 H496 H -0.21781 0.70917 0.93942
 C497 C -0.27707 0.66491 0.95355
 H498 H -0.29318 0.65176 0.95675
 C499 C -0.27769 0.68076 0.93232
 H500 H -0.29436 0.67953 0.91985
 N501 N -0.25645 0.66588 0.96973
 C502 C -0.27968 0.66825 1.04454
 H503 H -0.29573 0.65494 1.04134
 C504 C -0.27985 0.68363 1.06611
 H505 H -0.29642 0.68183 1.07883
 C506 C -0.23843 0.68554 1.03241
 H507 H -0.22193 0.68574 1.01958
 C508 C -0.23757 0.70102 1.05402
 H509 H -0.22048 0.71313 1.05716
 Zn510 Zn -0.25782 0.64558 1.00019
 N511 N -0.25908 0.66921 1.02821
 C512 C -0.21328 0.62323 1.02549
 N513 N -0.22641 0.62388 1.00340
 C514 C -0.21740 0.60951 0.98365
 C515 C -0.19431 0.59405 0.98560
 C516 C -0.19001 0.60817 1.02820
 C517 C -0.31334 0.63562 0.99741
 C518 C -0.33606 0.62060 0.99404
 C519 C -0.30912 0.58129 0.99736
 C520 C -0.28674 0.59709 0.99993
 N521 N -0.28907 0.62383 0.99956
 H522 H -0.22084 0.63432 1.04121
 H523 H -0.22807 0.61018 0.96627
 H524 H -0.18755 0.58298 0.96950
 H525 H -0.17995 0.60817 1.04592
 H526 H -0.31497 0.65687 0.99742
 H527 H -0.35499 0.63049 0.99184
 H528 H -0.30678 0.56009 0.99753
 H529 H -0.26747 0.58791 1.00185
 C530 C -0.25829 0.69994 1.07157
 C531 C -0.25645 0.69720 0.92687
 C532 C -0.33415 0.59303 0.99384
 C533 C -0.18009 0.59332 1.00808
 C534 C -0.24346 0.30607 0.53103
 H535 H -0.24287 0.29425 0.51434
 C536 C -0.24663 0.29431 0.55331
 H537 H -0.24875 0.27317 0.55419
 C538 C -0.23956 0.34846 0.54948
 H539 H -0.23795 0.36959 0.54796
 C540 C -0.24290 0.33650 0.57417
 H541 H -0.24261 0.34956 0.59009
 N542 N -0.24092 0.33427 0.52941
 C543 C -0.22626 0.34584 0.45122
 H544 H -0.21719 0.36472 0.45378
 C545 C -0.22244 0.33275 0.42872
 H546 H -0.21008 0.34177 0.41468
 C547 C -0.25441 0.31238 0.46579
 H548 H -0.26748 0.30489 0.48003
 C549 C -0.25105 0.29843 0.44331
 H550 H -0.26148 0.28021 0.44059
 Zn551 Zn -0.24278 0.35544 0.49996
 N552 N -0.24143 0.33535 0.46960
 C553 C -0.18847 0.36606 0.49584
 N554 N -0.21244 0.37795 0.49975
 C555 C -0.21454 0.40461 0.50183
 C556 C -0.19210 0.42032 0.49919
 C557 C -0.16574 0.38105 0.49232
 C558 C -0.29285 0.37130 0.52035
 C559 C -0.31607 0.38644 0.52266
 C560 C -0.30346 0.41008 0.48563
 C561 C -0.28035 0.39455 0.48414
 N562 N -0.27523 0.37578 0.50157
 H563 H -0.18719 0.34485 0.49441
 H564 H -0.23361 0.41378 0.50528
 H565 H -0.19418 0.44149 0.50079
 H566 H -0.14702 0.37115 0.48868
 H567 H -0.28911 0.35585 0.53370
 H568 H -0.32945 0.38236 0.53794
 H569 H -0.30677 0.42496 0.47153
 H570 H -0.26629 0.39769 0.46920
 C571 C -0.23469 0.30859 0.42443
 C572 C -0.24716 0.31043 0.57648
 C573 C -0.32178 0.40634 0.50523
 C574 C -0.16738 0.40858 0.49381
 C575 C 0.25921 -0.19338 0.03171
 H576 H 0.26389 -0.20546 0.01574
 C577 C 0.25557 -0.20494 0.05401
 H578 H 0.25673 -0.22617 0.05543
 C579 C 0.25542 -0.15039 0.04908
 H580 H 0.25445 -0.12923 0.04709
 C581 C 0.25137 -0.16210 0.07380
 H582 H 0.24837 -0.14875 0.08931
 N583 N 0.25769 -0.16511 0.02935
 C584 C 0.26419 -0.15008 -0.05101
 H585 H 0.26851 -0.12945 -0.04883
 C586 C 0.26811 -0.16201 -0.07410
 H587 H 0.27532 -0.15012 -0.08936
 C588 C 0.24922 -0.19000 -0.03374
 H589 H 0.24086 -0.20065 -0.01831
 C590 C 0.25288 -0.20285 -0.05673
 H591 H 0.24781 -0.22339 -0.05844
 Zn592 Zn 0.25587 -0.14447 -0.00058
 N593 N 0.25580 -0.16423 -0.03108
 C594 C 0.30920 -0.13337 -0.01173
 N595 N 0.28667 -0.12263 -0.00177
 C596 C 0.28597 -0.09710 0.00591
 C597 C 0.30835 -0.08131 0.00330
 C598 C 0.33175 -0.11812 -0.01526
 C599 C 0.20455 -0.13065 0.01763
 C600 C 0.18157 -0.11531 0.02073
 C601 C 0.19788 -0.08564 -0.01064
 C602 C 0.22075 -0.10146 -0.01293
 N603 N 0.22391 -0.12333 0.00139
 H604 H 0.30948 -0.15375 -0.01753
 H605 H 0.26806 -0.08892 0.01404
 H606 H 0.30737 -0.06107 0.00957
 H607 H 0.34928 -0.12707 -0.02350
 H608 H 0.20678 -0.14854 0.02829
 H609 H 0.16675 -0.12175 0.03394
 H610 H 0.19612 -0.06827 -0.02221
 H611 H 0.23613 -0.09605 -0.02596
 C612 C 0.26293 -0.18889 -0.07723
 C613 C 0.25053 -0.18848 0.07654
 C614 C 0.17783 -0.09229 0.00657
 C615 C 0.33157 -0.09167 -0.00774
 C616 C 0.26341 1.18029 0.46412
 H617 H 0.28046 1.17934 0.47608
 C618 C 0.26423 1.19566 0.44243
 H619 H 0.28195 1.20645 0.43800
 C620 C 0.22026 1.16652 0.45446
 H621 H 0.20336 1.15459 0.45834
 C622 C 0.21998 1.18212 0.43305
 H623 H 0.20282 1.18189 0.42112
 N624 N 0.24151 1.16619 0.46993
 C625 C 0.21959 1.16860 0.54526
 H626 H 0.20365 1.15500 0.54265
 C627 C 0.21984 1.18430 0.56662
 H628 H 0.20379 1.18254 0.57993
 C629 C 0.26024 1.18629 0.53184
 H630 H 0.27632 1.18659 0.51854
 C631 C 0.26145 1.20215 0.55318
 H632 H 0.27836 1.21463 0.55585
 Zn633 Zn 0.24036 1.14594 0.50040
 N634 N 0.23968 1.16965 0.52836
 C635 C 0.28529 1.12350 0.52496
 N636 N 0.27171 1.12411 0.50312
 C637 C 0.28029 1.10969 0.48323
 C638 C 0.30343 1.09424 0.48477
 C639 C 0.30859 1.10843 0.52726
 C640 C 0.18473 1.13609 0.49872
 C641 C 0.16194 1.12110 0.49572
 C642 C 0.18893 1.08176 0.49833
 C643 C 0.21137 1.09754 0.50049
 N644 N 0.20904 1.12429 0.50027
 H645 H 0.27809 1.13468 0.54077
 H646 H 0.26926 1.11034 0.46606
 H647 H 0.30987 1.08315 0.46856
 H648 H 0.31904 1.10848 0.54478
 H649 H 0.18309 1.15734 0.49897
 H650 H 0.14295 1.13098 0.49395
 H651 H 0.19126 1.06055 0.49837
 H652 H 0.23068 1.08834 0.50199
 C653 C 0.24117 1.20111 0.57110
 C654 C 0.24215 1.19693 0.42671
 C655 C 0.16385 1.09353 0.49534
 C656 C 0.31811 1.09355 0.50698
 C657 C 0.13704 0.46563 0.27075
 H658 H 0.13585 0.47919 0.28626
 C659 C 0.15057 0.44145 0.27349
 H660 H 0.16001 0.43686 0.29101
 C661 C 0.12563 0.45492 0.22940
 H662 H 0.11546 0.45985 0.21237
 C663 C 0.13920 0.43078 0.23122
 H664 H 0.13941 0.41769 0.21531
 N665 N 0.12486 0.47196 0.24895
 C666 C 0.11421 0.55755 0.23806
 H667 H 0.09335 0.55783 0.23378
 C668 C 0.12897 0.58044 0.23477
 H669 H 0.11917 0.59822 0.22832
 C670 C 0.15217 0.53394 0.25137
 H671 H 0.16127 0.51570 0.25744
 C672 C 0.16756 0.55660 0.24890
 H673 H 0.18838 0.55550 0.25337
 Zn674 Zn 0.10400 0.50400 0.24711
 N675 N 0.12589 0.53479 0.24608
 C676 C 0.08410 0.52488 0.29232
 N677 N 0.08169 0.50472 0.27593
 C678 C 0.06600 0.48385 0.28126
 C679 C 0.05271 0.48231 0.30426
 C680 C 0.07134 0.52410 0.31543
 C681 C 0.09822 0.50958 0.19620
 C682 C 0.08592 0.51400 0.17343
 C683 C 0.04354 0.50900 0.19368
 C684 C 0.05683 0.50507 0.21634
 N685 N 0.08374 0.50533 0.21714
 H686 H 0.09683 0.54115 0.28794
 H687 H 0.06468 0.46785 0.26807
 H688 H 0.04113 0.46513 0.30853
 H689 H 0.07427 0.54011 0.32837
 H690 H 0.11954 0.51019 0.19735
 H691 H 0.09848 0.51747 0.15739
 H692 H 0.02215 0.50861 0.19363
 H693 H 0.04559 0.50222 0.23329
 C694 C 0.15606 0.58026 0.24027
 C695 C 0.15183 0.42357 0.25353
 C696 C 0.05805 0.51382 0.17161
 C697 C 0.05589 0.50232 0.32199
 C698 C -0.13484 1.03466 0.27218
 H699 H -0.13293 1.02157 0.28796
 C700 C -0.14865 1.05870 0.27485
 H701 H -0.15760 1.06370 0.29263
 C702 C -0.12497 1.04427 0.23007
 H703 H -0.11528 1.03902 0.21276
 C704 C -0.13891 1.06819 0.23181
 H705 H -0.13990 1.08078 0.21558
 N706 N -0.12329 1.02788 0.25003
 C707 C -0.11221 0.94262 0.23949
 H708 H -0.09145 0.94245 0.23454
 C709 C -0.12699 0.91977 0.23633
 H710 H -0.11731 0.90210 0.22932
 C711 C -0.14997 0.96599 0.25422
 H712 H -0.15900 0.98416 0.26069
 C713 C -0.16535 0.94333 0.25194
 H714 H -0.18609 0.94430 0.25701
 Zn715 Zn -0.10218 0.99612 0.24815
 N716 N -0.12382 0.96525 0.24809
 C717 C -0.08201 0.97653 0.29329
 N718 N -0.07951 0.99618 0.27635
 C719 C -0.06392 1.01727 0.28101
 C720 C -0.05108 1.01971 0.30399
 C721 C -0.06975 0.97826 0.31639
 C722 C -0.09775 0.98999 0.19732
 C723 C -0.08612 0.98504 0.17420
 C724 C -0.04316 0.98962 0.19287
 C725 C -0.05578 0.99419 0.21593
 N726 N -0.08266 0.99435 0.21765
 H727 H -0.09466 0.96010 0.28942
 H728 H -0.06257 1.03287 0.26739
 H729 H -0.03981 1.03717 0.30787
 H730 H -0.07292 0.96278 0.32988
 H731 H -0.11904 0.98965 0.19926
 H732 H -0.09901 0.98148 0.15859
 H733 H -0.02177 0.98958 0.19193
 H734 H -0.04408 0.99709 0.23244
 C735 C -0.15395 0.91987 0.24259
 C736 C -0.15090 1.07585 0.25445
 C737 C -0.05837 0.98471 0.17151
 C738 C -0.05468 1.00041 0.32234
 C739 C 0.36336 0.53591 -0.22842
 H740 H 0.36487 0.52260 -0.21278
 C741 C 0.34940 0.55987 -0.22566
 H742 H 0.33983 0.56448 -0.20807
 C743 C 0.37482 0.54662 -0.26990
 H744 H 0.38537 0.54209 -0.28691
 C745 C 0.36072 0.57043 -0.26811
 H746 H 0.36038 0.58347 -0.28404
 N747 N 0.37567 0.52961 -0.25035
 C748 C 0.38257 0.44619 -0.27039
 H749 H 0.40009 0.44810 -0.28180
 C750 C 0.36798 0.42453 -0.27270
 H751 H 0.37393 0.40970 -0.28618
 C752 C 0.35518 0.46360 -0.23795
 H753 H 0.35005 0.47880 -0.22464
 C754 C 0.33889 0.43954 -0.23935
 H755 H 0.32227 0.43786 -0.22666
 Zn756 Zn 0.39700 0.49783 -0.25221
 N757 N 0.37546 0.46655 -0.25274
 C758 C 0.41700 0.47817 -0.20682
 N759 N 0.41917 0.49796 -0.22365
 C760 C 0.43450 0.51922 -0.21894
 C761 C 0.44742 0.52170 -0.19602
 C762 C 0.42928 0.47997 -0.18371
 C763 C 0.40315 0.49558 -0.30352
 C764 C 0.41550 0.49092 -0.32636
 C765 C 0.45768 0.49000 -0.30566
 C766 C 0.44436 0.49447 -0.28293
 N767 N 0.41750 0.49692 -0.28229
 H768 H 0.40475 0.46148 -0.21083
 H769 H 0.43569 0.53486 -0.23254
 H770 H 0.45853 0.53925 -0.19211
 H771 H 0.42639 0.46439 -0.17026
 H772 H 0.38181 0.49698 -0.30253
 H773 H 0.40333 0.48956 -0.34279
 H774 H 0.47898 0.48770 -0.30586
 H775 H 0.45542 0.49511 -0.26580
 C776 C 0.34464 0.42055 -0.25629
 C777 C 0.34781 0.57748 -0.24577
 C778 C 0.44310 0.48767 -0.32773
 C779 C 0.44413 0.50227 -0.17775
 C780 C 0.63819 -0.03472 -0.22895
 H781 H 0.63705 -0.02113 -0.21346
 C782 C 0.65065 -0.05813 -0.22616
 H783 H 0.65968 -0.06290 -0.20849
 C784 C 0.62627 -0.04421 -0.27074
 H785 H 0.61593 -0.03959 -0.28770
 C786 C 0.64040 -0.06981 -0.26878
 H787 H 0.64052 -0.08253 -0.28496
 N788 N 0.62559 -0.02780 -0.25210
 C789 C 0.61862 0.05520 -0.27093
 H790 H 0.60052 0.05364 -0.28132
 C791 C 0.63374 0.07791 -0.27363
 H792 H 0.62693 0.09310 -0.28628
 C793 C 0.64851 0.03774 -0.24145
 H794 H 0.65430 0.02205 -0.22897
 C795 C 0.66403 0.06041 -0.24323
 H796 H 0.68154 0.06162 -0.23185
 Zn797 Zn 0.60451 0.00423 -0.25397
 N798 N 0.62627 0.03538 -0.25533
 C799 C 0.58338 0.02583 -0.20936
 N800 N 0.58235 0.00493 -0.22506
 C801 C 0.56743 -0.01639 -0.21939
 C802 C 0.55349 -0.01760 -0.19673
 C803 C 0.56984 0.02544 -0.18661
 C804 C 0.59749 0.00654 -0.30531
 C805 C 0.58455 0.01082 -0.32779
 C806 C 0.54281 0.01068 -0.30578
 C807 C 0.55669 0.00665 -0.28346
 N808 N 0.58361 0.00485 -0.28363
 H809 H 0.59535 0.04256 -0.21412
 H810 H 0.56709 -0.03289 -0.23212
 H811 H 0.54247 -0.03508 -0.19222
 H812 H 0.57157 0.04214 -0.17424
 H813 H 0.61885 0.00559 -0.30499
 H814 H 0.59632 0.01238 -0.34461
 H815 H 0.52147 0.01236 -0.30531
 H816 H 0.54599 0.00570 -0.26601
 C817 C 0.65689 0.08099 -0.25967
 C818 C 0.65209 -0.07713 -0.24727
 C819 C 0.55685 0.01330 -0.32831
 C820 C 0.55506 0.00329 -0.17970
 C821 C 0.03094 0.26190 0.84270
 H822 H 0.01665 0.27776 0.84051
 C823 C 0.05356 0.26111 0.82805
 H824 H 0.05662 0.27654 0.81448
 C825 C 0.04441 0.22303 0.86392
 H826 H 0.04064 0.20837 0.87799
 C827 C 0.06749 0.22157 0.84978
 H828 H 0.08153 0.20572 0.85315
 N829 N 0.02726 0.24348 0.86061
 C830 C -0.04681 0.27646 0.86357
 H831 H -0.04325 0.29037 0.87832
 C832 C -0.06894 0.27956 0.84866
 H833 H -0.08255 0.29579 0.85223
 C834 C -0.03361 0.23817 0.84112
 H835 H -0.01975 0.22196 0.83865
 C836 C -0.05529 0.24062 0.82564
 H837 H -0.05821 0.22600 0.81128
 Zn838 Zn -0.00203 0.24875 0.88072
 N839 N -0.03032 0.25548 0.86003
 C840 C -0.01476 0.28122 0.92005
 N841 N 0.00366 0.27652 0.90206
 C842 C 0.02600 0.29086 0.90011
 C843 C 0.02951 0.31236 0.91558
 C844 C -0.01198 0.30243 0.93605
 C845 C -0.03008 0.20470 0.89666
 C846 C -0.03402 0.18264 0.91136
 C847 C 0.00544 0.19336 0.93433
 C848 C 0.00877 0.21500 0.91900
 N849 N -0.00848 0.21974 0.90027
 H850 H -0.03193 0.26886 0.92145
 H851 H 0.04086 0.28606 0.88627
 H852 H 0.04689 0.32431 0.91318
 H853 H -0.02744 0.30671 0.94955
 H854 H -0.04400 0.20948 0.88217
 H855 H -0.05076 0.17019 0.90777
 H856 H 0.01995 0.18924 0.94859
 H857 H 0.02540 0.22783 0.92164
 C858 C -0.07367 0.26105 0.82989
 C859 C 0.07249 0.24119 0.83205
 C860 C -0.01578 0.17654 0.93007
 C861 C 0.00996 0.31873 0.93326
 C862 C 0.47149 0.26268 0.16548
 H863 H 0.48468 0.27906 0.16780
 C864 C 0.44906 0.26075 0.18027
 H865 H 0.44495 0.27589 0.19401
 C866 C 0.46059 0.22358 0.14387
 H867 H 0.46525 0.20924 0.12962
 C868 C 0.43778 0.22097 0.15812
 H869 H 0.42483 0.20463 0.15457
 N870 N 0.47623 0.24474 0.14724
 C871 C 0.54859 0.27929 0.14300
 H872 H 0.54432 0.29295 0.12813
 C873 C 0.57053 0.28307 0.15790
 H874 H 0.58334 0.29951 0.15417
 C875 C 0.53730 0.24101 0.16583
 H876 H 0.52421 0.22460 0.16852
 C877 C 0.55879 0.24416 0.18132
 H878 H 0.56241 0.22980 0.19583
 Zn879 Zn 0.50478 0.25095 0.12662
 N880 N 0.53315 0.25802 0.14676
 C881 C 0.51480 0.28369 0.08706
 N882 N 0.49730 0.27892 0.10571
 C883 C 0.47462 0.29324 0.10855
 C884 C 0.46967 0.31462 0.09314
 C885 C 0.51053 0.30472 0.07106
 C886 C 0.53237 0.20530 0.11115
 C887 C 0.53529 0.18250 0.09705
 C888 C 0.49690 0.19583 0.07321
 C889 C 0.49455 0.21812 0.08792
 N890 N 0.51171 0.22197 0.10681
 H891 H 0.53232 0.27141 0.08502
 H892 H 0.46056 0.28845 0.12298
 H893 H 0.45198 0.32648 0.09612
 H894 H 0.52518 0.30893 0.05688
 H895 H 0.54606 0.20921 0.12597
 H896 H 0.55120 0.16877 0.10125
 H897 H 0.48240 0.19259 0.05884
 H898 H 0.47851 0.23202 0.08490
 C899 C 0.57612 0.26494 0.17690
 C900 C 0.43147 0.24020 0.17601
 C901 C 0.51697 0.17734 0.07827
 C902 C 0.48808 0.32085 0.07453
 C903 C -0.02976 0.76223 0.66773
 H904 H -0.01574 0.77768 0.67113
 C905 C -0.05135 0.76036 0.68177
 H906 H -0.05463 0.77444 0.69665
 C907 C -0.04068 0.72429 0.64375
 H908 H -0.03660 0.71069 0.62873
 C909 C -0.06502 0.72168 0.65844
 H910 H -0.07849 0.70617 0.65355
 N911 N -0.02526 0.74405 0.64769
 C912 C 0.04649 0.77987 0.64359
 H913 H 0.04205 0.79334 0.62862
 C914 C 0.06831 0.78410 0.65852
 H915 H 0.08088 0.80071 0.65470
 C916 C 0.03576 0.74155 0.66663
 H917 H 0.02293 0.72495 0.66939
 C918 C 0.05715 0.74516 0.68215
 H919 H 0.06098 0.73095 0.69674
 Zn920 Zn 0.00323 0.75083 0.62721
 N921 N 0.03140 0.75836 0.64744
 C922 C 0.01240 0.78374 0.58766
 N923 N -0.00469 0.77891 0.60663
 C924 C -0.02710 0.79348 0.61019
 C925 C -0.03219 0.81512 0.59514
 C926 C 0.00795 0.80500 0.57200
 C927 C 0.03148 0.70558 0.61187
 C928 C 0.03497 0.68295 0.59763
 C929 C -0.00286 0.69622 0.57299
 C930 C -0.00579 0.71834 0.58786
 N931 N 0.01081 0.72213 0.60720
 H932 H 0.02977 0.77134 0.58513
 H933 H -0.04074 0.78871 0.62498
 H934 H -0.04963 0.82718 0.59869
 H935 H 0.02229 0.80920 0.55753
 H936 H 0.04472 0.70941 0.62707
 H937 H 0.05085 0.66928 0.60210
 H938 H -0.01695 0.69298 0.55826
 H939 H -0.02186 0.73214 0.58457
 C940 C 0.07415 0.76618 0.67762
 C941 C -0.07090 0.73973 0.67608
 C942 C 0.01719 0.67781 0.57838
 C943 C -0.01420 0.82135 0.57617
 C944 C 0.53102 0.76202 0.34200
 H945 H 0.51678 0.77789 0.33970
 C946 C 0.55370 0.76112 0.32745
 H947 H 0.55686 0.77649 0.31385
 C948 C 0.54427 0.72316 0.36337
 H949 H 0.54037 0.70852 0.37742
 C950 C 0.56741 0.72159 0.34933
 H951 H 0.58138 0.70570 0.35279
 N952 N 0.52720 0.74365 0.35993
 C953 C 0.45364 0.77681 0.36150
 H954 H 0.45733 0.79109 0.37589
 C955 C 0.43183 0.77997 0.34618
 H956 H 0.41857 0.79660 0.34914
 C957 C 0.46630 0.73759 0.34022
 H958 H 0.47987 0.72106 0.33834
 C959 C 0.44491 0.74007 0.32437
 H960 H 0.44186 0.72512 0.31036
 Zn961 Zn 0.49773 0.74901 0.37975
 N962 N 0.46968 0.75537 0.35873
 C963 C 0.48437 0.78183 0.41858
 N964 N 0.50306 0.77703 0.40085
 C965 C 0.52548 0.79129 0.39918
 C966 C 0.52883 0.81278 0.41467
 C967 C 0.48699 0.80304 0.43459
 C968 C 0.46976 0.70513 0.39632
 C969 C 0.46606 0.68318 0.41122
 C970 C 0.50565 0.69432 0.43382
 C971 C 0.50872 0.71584 0.41830
 N972 N 0.49133 0.72027 0.39962
 H973 H 0.46716 0.76950 0.41978
 H974 H 0.54054 0.78636 0.38558
 H975 H 0.54632 0.82463 0.41254
 H976 H 0.47136 0.80738 0.44791
 H977 H 0.45572 0.70971 0.38187
 H978 H 0.44937 0.67060 0.40783
 H979 H 0.52031 0.69041 0.44798
 H980 H 0.52530 0.72878 0.42071
 C981 C 0.42697 0.76103 0.32783
 C982 C 0.57254 0.74115 0.33158
 C983 C 0.48455 0.67730 0.42979
 C984 C 0.50905 0.81924 0.43210
 Zr985 Zr 0.02567 -0.02303 1.03272
 O986 O 0.04987 -0.00969 1.06197
 O987 O 0.02446 -0.06333 1.03969
 O988 O 0.00678 -0.02649 1.06822
 O989 O 0.07694 -0.02409 0.98948
 O990 O -0.03528 -0.01201 1.06049
 O991 O 0.06532 -0.03727 1.02863
 O992 O -0.00128 -0.07939 1.00854
 O993 O -0.01317 -0.03290 1.02326
 O994 O 0.02693 -0.03827 0.99651
 O995 O 0.00343 0.01217 1.03546
 O996 O 0.04282 0.00656 1.01052
 Zr997 Zr -0.01858 0.01694 0.96551
 Zr998 Zr -0.03474 0.00246 1.02412
 Zr999 Zr 0.04196 -0.00855 0.97424
 Zr1000 Zr -0.01165 -0.04663 0.98664
 O1001 O 0.07344 0.01756 0.96760
 O1002 O -0.04734 -0.06436 0.99829
 O1003 O 0.00383 -0.01829 0.96242
 O1004 O -0.03525 -0.01254 0.98788
 O1005 O -0.02007 0.03245 1.00165
 O1006 O 0.02020 0.02651 0.97518
 C1007 C 0.01294 -0.08201 1.02813
 C1008 C 0.08198 -0.03544 1.01032
 C1009 C -0.01736 -0.02133 1.07493
 O1010 O -0.06802 -0.02192 1.02836
 O1011 O -0.06829 0.02206 1.01031
 O1012 O -0.05746 0.03316 0.97040
 C1013 C -0.07343 0.03309 0.98935
 O1014 O 0.04494 0.04633 1.04174
 Zr1015 Zr 0.01873 0.04058 1.01153
 O1016 O -0.01789 0.05733 0.95877
 O1017 O -0.04579 0.03319 1.04886
 O1018 O -0.00034 0.06640 1.03721
 O1019 O 0.05260 0.06075 0.99868
 O1020 O 0.00488 0.07359 0.99184
 C1021 C -0.00860 0.07620 0.97179
 O1022 O -0.04413 0.00409 0.93710
 O1023 O 0.05503 -0.04061 0.95194
 O1024 O -0.00047 0.01802 0.92946
 O1025 O 0.04098 0.00144 0.93661
 O1026 O 0.00766 -0.07442 0.96303
 O1027 O -0.03407 -0.05279 0.95389
 C1028 C 0.02305 0.01089 0.92226
 H1029 H 0.03807 -0.05434 0.99483
 H1030 H -0.05344 -0.01649 0.98249
 H1031 H 0.02806 0.03960 0.96378
 H1032 H 0.00349 0.01918 1.05265
 H1033 H -0.04612 -0.08325 0.99381
 H1034 H -0.07985 -0.01333 1.04081
 H1035 H -0.06320 0.02857 1.05608
 H1036 H 0.00795 0.08386 1.03555
 H1037 H -0.00148 -0.09141 0.96502
 H1038 H 0.07242 -0.03581 0.94479
 H1039 H 0.08545 0.00886 0.95538
 H1040 H 0.05047 0.07944 1.00369
 H1041 H -0.04035 -0.07114 0.95359
 H1042 H -0.04898 0.01982 0.92710
 H1043 H 0.05500 -0.02536 1.07193
 H1044 H 0.04777 0.06540 1.04414
 Zr1045 Zr 0.52699 0.47742 0.53189
 O1046 O 0.55231 0.49040 0.56044
 O1047 O 0.52503 0.43722 0.53923
 O1048 O 0.50898 0.47460 0.56784
 O1049 O 0.57668 0.47418 0.48713
 O1050 O 0.46699 0.48977 0.56097
 O1051 O 0.56626 0.46241 0.52698
 O1052 O 0.49772 0.42162 0.50907
 O1053 O 0.48758 0.46861 0.52363
 O1054 O 0.52662 0.46176 0.49585
 O1055 O 0.50587 0.51326 0.53491
 O1056 O 0.54421 0.50626 0.50886
 Zr1057 Zr 0.48163 0.51777 0.46549
 Zr1058 Zr 0.46708 0.50458 0.52474
 Zr1059 Zr 0.54174 0.49077 0.47282
 Zr1060 Zr 0.48747 0.45439 0.48718
 O1061 O 0.57386 0.51581 0.46524
 O1062 O 0.45171 0.43788 0.50021
 O1063 O 0.50299 0.48193 0.46216
 O1064 O 0.46486 0.48913 0.48874
 O1065 O 0.48184 0.53378 0.50145
 O1066 O 0.52098 0.52641 0.47400
 C1067 C 0.51260 0.41878 0.52820
 C1068 C 0.58227 0.46334 0.50810
 C1069 C 0.48507 0.48009 0.57501
 O1070 O 0.43269 0.48189 0.52963
 O1071 O 0.43444 0.52638 0.51198
 O1072 O 0.44305 0.53453 0.47097
 C1073 C 0.42841 0.53641 0.49078
 O1074 O 0.54865 0.54634 0.53940
 Zr1075 Zr 0.52113 0.54095 0.51018
 O1076 O 0.48289 0.55806 0.45849
 O1077 O 0.45812 0.53534 0.55016
 O1078 O 0.50358 0.56742 0.53621
 O1079 O 0.55499 0.56021 0.49608
 O1080 O 0.50733 0.57407 0.49059
 C1081 C 0.49307 0.57681 0.47105
 O1082 O 0.45519 0.50506 0.43776
 O1083 O 0.55296 0.45820 0.45032
 O1084 O 0.49886 0.51842 0.42905
 O1085 O 0.54005 0.50076 0.43524
 O1086 O 0.50511 0.42576 0.46335
 O1087 O 0.46377 0.44851 0.45521
 C1088 C 0.52205 0.51082 0.42135
 H1089 H 0.53729 0.44539 0.49402
 H1090 H 0.44636 0.48568 0.48396
 H1091 H 0.52881 0.53920 0.46229
 H1092 H 0.50669 0.52037 0.55205
 H1093 H 0.45222 0.41891 0.49595
 H1094 H 0.42160 0.49103 0.54232
 H1095 H 0.44069 0.53143 0.55773
 H1096 H 0.51217 0.58468 0.53407
 H1097 H 0.49548 0.40910 0.46577
 H1098 H 0.57028 0.46238 0.44266
 H1099 H 0.58520 0.50671 0.45271
 H1100 H 0.55346 0.57898 0.50097
 H1101 H 0.45680 0.43041 0.45542
 H1102 H 0.45039 0.52074 0.42767
 H1103 H 0.55733 0.47470 0.57040
 H1104 H 0.55186 0.56536 0.54164
 Zr1105 Zr 0.47086 1.02132 0.53297
 O1106 O 0.44509 1.00959 0.56197
 O1107 O 0.47405 1.06152 0.53976
 O1108 O 0.48890 1.02434 0.56872
 O1109 O 0.42190 1.02578 0.48818
 O1110 O 0.53039 1.00753 0.56178
 O1111 O 0.43183 1.03710 0.52813
 O1112 O 0.50270 1.07566 0.50970
 O1113 O 0.51066 1.02863 0.52437
 O1114 O 0.47213 1.03650 0.49674
 O1115 O 0.49081 0.98487 0.53631
 O1116 O 0.45296 0.99278 0.51026
 Zr1117 Zr 0.51560 0.97857 0.46683
 Zr1118 Zr 0.53000 0.99206 0.52581
 Zr1119 Zr 0.45637 1.00769 0.47402
 Zr1120 Zr 0.51163 1.04241 0.48781
 O1121 O 0.42336 0.98380 0.46688
 O1122 O 0.54798 1.05778 0.50022
 O1123 O 0.49552 1.01506 0.46311
 O1124 O 0.53306 1.00698 0.48966
 O1125 O 0.51450 0.96304 0.50295
 O1126 O 0.47590 0.97141 0.47563
 C1127 C 0.48763 1.07927 0.52879
 C1128 C 0.41613 1.03663 0.50918
 C1129 C 0.51264 1.01827 0.57575
 O1130 O 0.56514 1.01360 0.53029
 O1131 O 0.56215 0.96914 0.51310
 O1132 O 0.55382 0.96112 0.47213
 C1133 C 0.56824 0.95900 0.49187
 O1134 O 0.44699 0.95343 0.54149
 Zr1135 Zr 0.47484 0.95739 0.51197
 O1136 O 0.51322 0.93818 0.46064
 O1137 O 0.53760 0.96137 0.55153
 O1138 O 0.49129 0.93061 0.53809
 O1139 O 0.44033 0.93929 0.49830
 O1140 O 0.48737 0.92347 0.49265
 C1141 C 0.50199 0.91998 0.47326
 O1142 O 0.54250 0.98996 0.43860
 O1143 O 0.44677 1.04028 0.45110
 O1144 O 0.49860 0.97759 0.43055
 O1145 O 0.45797 0.99682 0.43658
 O1146 O 0.49500 1.07142 0.46401
 O1147 O 0.53567 1.04709 0.45556
 C1148 C 0.47571 0.98571 0.42284
 H1149 H 0.46202 1.05318 0.49486
 H1150 H 0.55171 1.00979 0.48474
 H1151 H 0.46774 0.95869 0.46413
 H1152 H 0.48962 0.97808 0.55355
 H1153 H 0.54820 1.07668 0.49573
 H1154 H 0.57581 1.00426 0.54301
 H1155 H 0.55508 0.96477 0.55898
 H1156 H 0.48198 0.91370 0.53629
 H1157 H 0.50520 1.08775 0.46624
 H1158 H 0.42935 1.03671 0.44359
 H1159 H 0.41244 0.99315 0.45435
 H1160 H 0.44100 0.92059 0.50348
 H1161 H 0.54306 1.06502 0.45539
 H1162 H 0.54690 0.97397 0.42872
 H1163 H 0.44045 1.02562 0.57170
 H1164 H 0.44304 0.93459 0.54396
 Zr1165 Zr -0.02739 0.52062 1.03484
 O1166 O -0.05300 0.50877 1.06393
 O1167 O -0.02407 0.56076 1.04183
 O1168 O -0.00895 0.52344 1.07051
 O1169 O -0.07662 0.52532 0.99033
 O1170 O 0.03234 0.50636 1.06311
 O1171 O -0.06647 0.53655 1.03025
 O1172 O 0.00435 0.57504 1.01163
 O1173 O 0.01236 0.52788 1.02600
 O1174 O -0.02635 0.53599 0.99867
 O1175 O -0.00750 0.48410 1.03782
 O1176 O -0.04549 0.49226 1.01207
 Zr1177 Zr 0.01677 0.47814 0.96809
 Zr1178 Zr 0.03161 0.49124 1.02705
 Zr1179 Zr -0.04230 0.50734 0.97587
 Zr1180 Zr 0.01309 0.54189 0.98951
 O1181 O -0.07542 0.48357 0.96881
 O1182 O 0.04956 0.55703 1.00186
 O1183 O -0.00323 0.51471 0.96474
 O1184 O 0.03444 0.50639 0.99097
 O1185 O 0.01590 0.46240 1.00415
 O1186 O -0.02288 0.47100 0.97714
 C1187 C -0.01058 0.57857 1.03083
 C1188 C -0.08227 0.53614 1.01135
 C1189 C 0.01484 0.51715 1.07732
 O1190 O 0.06681 0.51271 1.03144
 O1191 O 0.06363 0.46839 1.01400
 O1192 O 0.05503 0.46065 0.97303
 C1193 C 0.06959 0.45841 0.99267
 O1194 O -0.05133 0.45265 1.04311
 Zr1195 Zr -0.02370 0.45679 1.01343
 O1196 O 0.01429 0.43778 0.96175
 O1197 O 0.03934 0.46034 1.05251
 O1198 O -0.00712 0.42986 1.03934
 O1199 O -0.05839 0.43892 0.99990
 O1200 O -0.01135 0.42297 0.99387
 C1201 C 0.00314 0.41954 0.97438
 O1202 O 0.04344 0.48965 0.93972
 O1203 O -0.05202 0.54010 0.95321
 O1204 O -0.00057 0.47740 0.93193
 O1205 O -0.04107 0.49675 0.93836
 O1206 O -0.00366 0.57105 0.96594
 O1207 O 0.03695 0.54687 0.95718
 C1208 C -0.02349 0.48567 0.92441
 H1209 H -0.03644 0.55270 0.99692
 H1210 H 0.05305 0.50920 0.98595
 H1211 H -0.03116 0.45837 0.96564
 H1212 H -0.00857 0.47721 1.05502
 H1213 H 0.04978 0.57599 0.99757
 H1214 H 0.07758 0.50326 1.04402
 H1215 H 0.05692 0.46361 1.05983
 H1216 H -0.01643 0.41296 1.03749
 H1217 H 0.00648 0.58740 0.96828
 H1218 H -0.06950 0.53660 0.94577
 H1219 H -0.08644 0.49305 0.95644
 H1220 H -0.05769 0.42015 1.00486
 H1221 H 0.04434 0.56480 0.95714
 H1222 H 0.04772 0.47371 0.92973
 H1223 H -0.05745 0.52475 1.07380
 H1224 H -0.05535 0.43380 1.04544
 Zr1225 Zr -0.01790 0.48310 0.46652
 O1226 O -0.04438 0.49775 0.43936
 O1227 O -0.01347 0.44384 0.45569
 O1228 O -0.00011 0.48416 0.43028
 O1229 O -0.06723 0.47547 0.51106
 O1230 O 0.03905 0.50450 0.43736
 O1231 O -0.05605 0.46625 0.47068
 O1232 O 0.01543 0.42675 0.48409
 O1233 O 0.02225 0.47532 0.47344
 O1234 O -0.01589 0.46406 0.50103
 O1235 O 0.00032 0.52006 0.46674
 O1236 O -0.03676 0.50869 0.49239
 Zr1237 Zr 0.02547 0.51904 0.53589
 Zr1238 Zr 0.03990 0.51220 0.47553
 Zr1239 Zr -0.03252 0.48993 0.52690
 Zr1240 Zr 0.02391 0.45768 0.50852
 O1241 O -0.06529 0.51297 0.53911
 O1242 O 0.06051 0.44401 0.49361
 O1243 O 0.00705 0.48200 0.53611
 O1244 O 0.04370 0.49341 0.50998
 O1245 O 0.02352 0.53840 0.50150
 O1246 O -0.01463 0.52651 0.52880
 C1247 C 0.00024 0.42496 0.46513
 C1248 C -0.07223 0.46597 0.48946
 C1249 C 0.02206 0.49406 0.42290
 O1250 O 0.07426 0.49015 0.46590
 O1251 O 0.07316 0.53040 0.49030
 O1252 O 0.06294 0.53743 0.53127
 C1253 C 0.07844 0.53926 0.51205
 O1254 O -0.04510 0.55117 0.46584
 Zr1255 Zr -0.01652 0.54440 0.49403
 O1256 O 0.02170 0.55852 0.54624
 O1257 O 0.04717 0.54723 0.45550
 O1258 O -0.00213 0.57429 0.47017
 O1259 O -0.05149 0.56025 0.51051
 O1260 O -0.00466 0.57615 0.51601
 C1261 C 0.00995 0.57785 0.53538
 O1262 O 0.05297 0.50487 0.56236
 O1263 O -0.04228 0.45422 0.54485
 O1264 O 0.00848 0.51610 0.57237
 O1265 O -0.02928 0.49320 0.56549
 O1266 O 0.00854 0.42652 0.53024
 O1267 O 0.04899 0.44944 0.53921
 C1268 C -0.01256 0.50412 0.57991
 H1269 H -0.02548 0.44723 0.50145
 H1270 H 0.06245 0.49000 0.51422
 H1271 H -0.02306 0.53763 0.54184
 H1272 H -0.00150 0.52897 0.45045
 H1273 H 0.06135 0.42468 0.49598
 H1274 H 0.08472 0.50113 0.45433
 H1275 H 0.06439 0.54479 0.44682
 H1276 H -0.01221 0.59069 0.47395
 H1277 H 0.01889 0.41038 0.52608
 H1278 H -0.05958 0.45707 0.55327
 H1279 H -0.07568 0.50181 0.55058
 H1280 H -0.05156 0.57948 0.50749
 H1281 H 0.05665 0.43149 0.53744
 H1282 H 0.05692 0.51980 0.57357
 H1283 H -0.04859 0.48280 0.42826
 H1284 H -0.05041 0.57000 0.46576
 Zr1285 Zr 0.48055 -0.01609 -0.03510
 O1286 O 0.45333 -0.00111 -0.06145
 O1287 O 0.48501 -0.05512 -0.04667
 O1288 O 0.49759 -0.01438 -0.07166
 O1289 O 0.43273 -0.02550 0.01054
 O1290 O 0.53634 0.00696 -0.06521
 O1291 O 0.44259 -0.03326 -0.03040
 O1292 O 0.51503 -0.07233 -0.01937
 O1293 O 0.52099 -0.02336 -0.02932
 O1294 O 0.48384 -0.03584 -0.00103
 O1295 O 0.49818 0.02115 -0.03461
 O1296 O 0.46212 0.00865 -0.00825
 Zr1297 Zr 0.52545 0.01898 0.03391
 Zr1298 Zr 0.53811 0.01376 -0.02695
 Zr1299 Zr 0.46764 -0.01079 0.02575
 Zr1300 Zr 0.52393 -0.04177 0.00533
 O1301 O 0.43490 0.01156 0.03913
 O1302 O 0.56017 -0.05467 -0.01092
 O1303 O 0.50757 -0.01834 0.03383
 O1304 O 0.54323 -0.00578 0.00698
 O1305 O 0.52218 0.03911 -0.00002
 O1306 O 0.48506 0.02601 0.02793
 C1307 C 0.49921 -0.07400 -0.03788
 C1308 C 0.42703 -0.03430 -0.01118
 C1309 C 0.51931 -0.00380 -0.07939
 O1310 O 0.57258 -0.00747 -0.03780
 O1311 O 0.57133 0.03244 -0.01271
 O1312 O 0.56289 0.03743 0.02884
 C1313 C 0.57754 0.04032 0.00916
 O1314 O 0.45226 0.05170 -0.03359
 Zr1315 Zr 0.48184 0.04464 -0.00640
 O1316 O 0.52163 0.05826 0.04495
 O1317 O 0.54415 0.04933 -0.04652
 O1318 O 0.49517 0.07518 -0.03007
 O1319 O 0.44717 0.05964 0.01128
 O1320 O 0.49389 0.07605 0.01590
 C1321 C 0.50917 0.07760 0.03482
 O1322 O 0.55363 0.00449 0.05959
 O1323 O 0.45888 -0.04698 0.04330
 O1324 O 0.50929 0.01531 0.07068
 O1325 O 0.47188 -0.00831 0.06429
 O1326 O 0.50964 -0.07351 0.02697
 O1327 O 0.55022 -0.05036 0.03503
 C1328 C 0.48866 0.00282 0.07849
 H1329 H 0.47445 -0.05278 -0.00068
 H1330 H 0.56215 -0.00903 0.01062
 H1331 H 0.47683 0.03674 0.04136
 H1332 H 0.49575 0.03035 -0.05069
 H1333 H 0.56133 -0.07403 -0.00893
 H1334 H 0.58256 0.00399 -0.04933
 H1335 H 0.56119 0.04744 -0.05561
 H1336 H 0.48512 0.09142 -0.02565
 H1337 H 0.51994 -0.08948 0.02218
 H1338 H 0.44180 -0.04454 0.05221
 H1339 H 0.42504 0.00008 0.05072
 H1340 H 0.44677 0.07895 0.00868
 H1341 H 0.55785 -0.06826 0.03278
 H1342 H 0.55771 0.01923 0.07099
 H1343 H 0.44898 -0.01587 -0.07271
 H1344 H 0.44690 0.07051 -0.03327
 Zr1345 Zr 0.51646 0.51904 -0.03361
 O1346 O 0.54265 0.50629 -0.06219
 O1347 O 0.51226 0.55900 -0.04159
 O1348 O 0.49847 0.52030 -0.06959
 O1349 O 0.56638 0.52353 0.01027
 O1350 O 0.45830 0.50178 -0.06242
 O1351 O 0.55483 0.53530 -0.02927
 O1352 O 0.48434 0.57463 -0.01123
 O1353 O 0.47662 0.52718 -0.02499
 O1354 O 0.51545 0.53529 0.00224
 O1355 O 0.49724 0.48265 -0.03553
 O1356 O 0.53516 0.49103 -0.01028
 Zr1357 Zr 0.47327 0.47879 0.03402
 Zr1358 Zr 0.45800 0.49072 -0.02507
 Zr1359 Zr 0.53204 0.50706 0.02562
 Zr1360 Zr 0.47596 0.54200 0.01132
 O1361 O 0.56534 0.48288 0.03348
 O1362 O 0.43929 0.55762 -0.00111
 O1363 O 0.49279 0.51517 0.03657
 O1364 O 0.45516 0.50680 0.01068
 O1365 O 0.47419 0.46211 -0.00162
 O1366 O 0.51307 0.47097 0.02523
 C1367 C 0.49907 0.57742 -0.03060
 C1368 C 0.57117 0.53450 -0.01082
 C1369 C 0.47570 0.51192 -0.07684
 O1370 O 0.42394 0.51424 -0.03172
 O1371 O 0.42472 0.47160 -0.01085
 O1372 O 0.43558 0.46111 0.02913
 C1373 C 0.41978 0.46085 0.01026
 O1374 O 0.54145 0.45042 -0.04042
 Zr1375 Zr 0.51395 0.45578 -0.01068
 O1376 O 0.47669 0.43864 0.04169
 O1377 O 0.44945 0.45789 -0.04775
 O1378 O 0.49780 0.42819 -0.03579
 O1379 O 0.54910 0.43806 0.00313
 O1380 O 0.50242 0.42268 0.00982
 C1381 C 0.48827 0.41994 0.02957
 O1382 O 0.44619 0.49121 0.06199
 O1383 O 0.54156 0.54045 0.04715
 O1384 O 0.49058 0.47901 0.07012
 O1385 O 0.53084 0.49776 0.06355
 O1386 O 0.49240 0.57131 0.03442
 O1387 O 0.45212 0.54792 0.04364
 C1388 C 0.51327 0.48727 0.07758
 H1389 H 0.52527 0.55191 0.00362
 H1390 H 0.43656 0.51017 0.01571
 H1391 H 0.52156 0.45858 0.03704
 H1392 H 0.49855 0.47494 -0.05242
 H1393 H 0.43890 0.57665 0.00290
 H1394 H 0.41295 0.50452 -0.04373
 H1395 H 0.43207 0.46145 -0.05557
 H1396 H 0.50744 0.41126 -0.03352
 H1397 H 0.48200 0.58776 0.03194
 H1398 H 0.55909 0.53685 0.05463
 H1399 H 0.57622 0.49256 0.04561
 H1400 H 0.54874 0.41913 -0.00128
 H1401 H 0.44449 0.56596 0.04346
 H1402 H 0.44217 0.47552 0.07225
 H1403 H 0.54687 0.52197 -0.07239
 H1404 H 0.54592 0.43148 -0.04218
 Zr1405 Zr 0.01504 1.01890 0.46764
 O1406 O 0.04195 1.00570 0.43984
 O1407 O 0.01093 1.05868 0.45899
 O1408 O -0.00211 1.01950 0.43127
 O1409 O 0.06376 1.02471 0.51255
 O1410 O -0.04209 1.00036 0.43779
 O1411 O 0.05315 1.03546 0.47251
 O1412 O -0.01824 1.07456 0.48818
 O1413 O -0.02511 1.02672 0.47514
 O1414 O 0.01285 1.03591 0.50315
 O1415 O -0.00366 0.98225 0.46590
 O1416 O 0.03345 0.99169 0.49199
 Zr1417 Zr -0.02944 0.97946 0.53492
 Zr1418 Zr -0.04327 0.99001 0.47530
 Zr1419 Zr 0.02911 1.00844 0.52752
 Zr1420 Zr -0.02695 1.04230 0.51113
 O1421 O 0.06219 0.98469 0.53709
 O1422 O -0.06338 1.05718 0.49739
 O1423 O -0.01054 1.01620 0.53728
 O1424 O -0.04724 1.00679 0.51067
 O1425 O -0.02734 0.96209 0.49961
 O1426 O 0.01068 0.97205 0.52728
 C1427 C -0.00279 1.07716 0.46928
 C1428 C 0.06903 1.03518 0.49131
 C1429 C -0.02454 1.01065 0.42363
 O1430 O -0.07741 1.01296 0.46741
 O1431 O -0.07671 0.97084 0.48910
 O1432 O -0.06683 0.96137 0.52954
 C1433 C -0.08214 0.96057 0.51033
 O1434 O 0.04129 0.95078 0.46280
 Zr1435 Zr 0.01275 0.95617 0.49165
 O1436 O -0.02589 0.93946 0.54329
 O1437 O -0.05076 0.95661 0.45303
 O1438 O -0.00209 0.92788 0.46649
 O1439 O 0.04756 0.93902 0.50676
 O1440 O 0.00084 0.92332 0.51225
 C1441 C -0.01382 0.92071 0.53167
 O1442 O -0.05721 0.99228 0.56212
 O1443 O 0.03798 1.04256 0.54829
 O1444 O -0.01296 0.98011 0.57129
 O1445 O 0.02649 1.00080 0.56579
 O1446 O -0.01155 1.07225 0.53415
 O1447 O -0.05191 1.04868 0.54261
 C1448 C 0.00892 0.98970 0.57938
 H1449 H 0.02248 1.05265 0.50445
 H1450 H -0.06601 1.01003 0.51520
 H1451 H 0.01896 0.96002 0.53954
 H1452 H -0.00180 0.97425 0.44917
 H1453 H -0.06412 1.07630 0.50100
 H1454 H -0.08793 1.00287 0.45530
 H1455 H -0.06794 0.95980 0.44471
 H1456 H 0.00775 0.91116 0.46930
 H1457 H -0.02198 1.08855 0.53102
 H1458 H 0.05528 1.03926 0.55632
 H1459 H 0.07265 0.99488 0.54918
 H1460 H 0.04753 0.92003 0.50259
 H1461 H -0.05963 1.06667 0.54190
 H1462 H -0.06146 0.97675 0.57251
 H1463 H 0.04632 1.02119 0.42944
 H1464 H 0.04616 0.93189 0.46148
 Zr1465 Zr 0.73510 0.27283 0.21652
 O1466 O 0.74850 0.29806 0.18790
 O1467 O 0.69473 0.27121 0.20930
 O1468 O 0.73220 0.25512 0.18062
 O1469 O 0.73263 0.32265 0.26074
 O1470 O 0.74671 0.21308 0.18771
 O1471 O 0.72009 0.31182 0.22132
 O1472 O 0.67869 0.24435 0.23981
 O1473 O 0.72572 0.23375 0.22507
 O1474 O 0.71938 0.27276 0.25269
 O1475 O 0.77085 0.25141 0.21337
 O1476 O 0.76430 0.28969 0.23923
 Zr1477 Zr 0.77504 0.22720 0.28278
 Zr1478 Zr 0.76160 0.21293 0.22381
 Zr1479 Zr 0.74872 0.28754 0.27543
 Zr1480 Zr 0.71147 0.23389 0.26163
 O1481 O 0.77431 0.31915 0.28274
 O1482 O 0.69445 0.19839 0.24919
 O1483 O 0.73937 0.24902 0.28631
 O1484 O 0.74602 0.21089 0.25989
 O1485 O 0.79119 0.22722 0.24677
 O1486 O 0.78421 0.26629 0.27407
 C1487 C 0.67604 0.25908 0.22052
 C1488 C 0.72144 0.32798 0.23986
 C1489 C 0.73739 0.23125 0.17357
 O1490 O 0.73836 0.17900 0.21927
 O1491 O 0.78297 0.18012 0.23657
 O1492 O 0.79131 0.18853 0.27746
 C1493 C 0.79293 0.17392 0.25773
 O1494 O 0.80465 0.29342 0.20826
 Zr1495 Zr 0.79887 0.26627 0.23782
 O1496 O 0.81552 0.22797 0.28954
 O1497 O 0.79236 0.20360 0.19823
 O1498 O 0.82532 0.24836 0.21188
 O1499 O 0.81846 0.29989 0.25147
 O1500 O 0.83203 0.25246 0.25748
 C1501 C 0.83453 0.23818 0.27708
 O1502 O 0.76202 0.20099 0.31076
 O1503 O 0.71612 0.29908 0.29802
 O1504 O 0.77576 0.24423 0.31905
 O1505 O 0.75891 0.28570 0.31304
 O1506 O 0.68271 0.25172 0.28535
 O1507 O 0.70553 0.21072 0.29406
 C1508 C 0.76867 0.26740 0.32680
 H1509 H 0.70304 0.28352 0.25453
 H1510 H 0.74232 0.19253 0.26482
 H1511 H 0.79717 0.27389 0.28566
 H1512 H 0.77802 0.25215 0.19620
 H1513 H 0.67541 0.19915 0.25362
 H1514 H 0.74735 0.16788 0.20653
 H1515 H 0.78818 0.18633 0.19076
 H1516 H 0.84274 0.25678 0.21380
 H1517 H 0.66601 0.24204 0.28325
 H1518 H 0.72052 0.31630 0.30548
 H1519 H 0.76521 0.33063 0.29511
 H1520 H 0.83730 0.29823 0.24649
 H1521 H 0.68744 0.20356 0.29396
 H1522 H 0.77773 0.19606 0.32078
 H1523 H 0.73282 0.30325 0.17796
 H1524 H 0.82380 0.29644 0.20592
 Zr1525 Zr 0.77121 0.72922 0.71825
 O1526 O 0.75838 0.70172 0.69148
 O1527 O 0.81093 0.73322 0.70857
 O1528 O 0.77146 0.74530 0.68148
 O1529 O 0.78053 0.68333 0.76530
 O1530 O 0.75200 0.78572 0.68694
 O1531 O 0.78832 0.69111 0.72405
 O1532 O 0.82563 0.76460 0.73541
 O1533 O 0.77687 0.76966 0.72368
 O1534 O 0.78916 0.73364 0.75301
 O1535 O 0.73340 0.74682 0.71645
 O1536 O 0.74561 0.71159 0.74439
 Zr1537 Zr 0.73078 0.77583 0.78449
 Zr1538 Zr 0.73905 0.78678 0.72388
 Zr1539 Zr 0.76315 0.71824 0.77908
 Zr1540 Zr 0.79341 0.77381 0.75886
 O1541 O 0.74123 0.68573 0.79193
 O1542 O 0.80594 0.80951 0.74247
 O1543 O 0.76882 0.75829 0.78664
 O1544 O 0.75656 0.79300 0.75848
 O1545 O 0.71260 0.77145 0.74984
 O1546 O 0.72551 0.73541 0.77895
 C1547 C 0.82882 0.74811 0.71745
 C1548 C 0.78953 0.67649 0.74376
 C1549 C 0.76346 0.76806 0.67347
 O1550 O 0.75809 0.82256 0.71553
 O1551 O 0.71536 0.81839 0.73624
 O1552 O 0.71157 0.81301 0.77828
 C1553 C 0.70710 0.82581 0.75784
 O1554 O 0.70441 0.70114 0.71673
 Zr1555 Zr 0.70880 0.73113 0.74392
 O1556 O 0.69090 0.77205 0.79378
 O1557 O 0.70601 0.79078 0.70016
 O1558 O 0.67909 0.74402 0.71888
 O1559 O 0.69380 0.69684 0.76113
 O1560 O 0.67568 0.74301 0.76495
 C1561 C 0.67259 0.75873 0.78349
 O1562 O 0.74309 0.80441 0.81045
 O1563 O 0.79872 0.71071 0.79854
 O1564 O 0.73214 0.76055 0.82145
 O1565 O 0.75795 0.72350 0.81745
 O1566 O 0.82466 0.76043 0.78195
 O1567 O 0.79948 0.80079 0.78845
 C1568 C 0.74476 0.74040 0.83044
 H1569 H 0.80642 0.72433 0.75420
 H1570 H 0.75874 0.81198 0.76193
 H1571 H 0.71421 0.72745 0.79196
 H1572 H 0.72546 0.74411 0.69986
 H1573 H 0.82520 0.81091 0.74530
 H1574 H 0.74716 0.83178 0.70292
 H1575 H 0.70778 0.80780 0.69136
 H1576 H 0.66288 0.73401 0.72266
 H1577 H 0.84055 0.77068 0.77757
 H1578 H 0.79648 0.69394 0.80767
 H1579 H 0.75250 0.67632 0.80413
 H1580 H 0.67467 0.69614 0.75740
 H1581 H 0.81726 0.80853 0.78676
 H1582 H 0.72757 0.80872 0.82117
 H1583 H 0.77392 0.69711 0.68091
 H1584 H 0.68563 0.69602 0.71593
 Zr1585 Zr 0.22944 0.22867 0.78188
 O1586 O 0.24373 0.20039 0.80756
 O1587 O 0.19028 0.23341 0.79358
 O1588 O 0.23104 0.24420 0.81887
 O1589 O 0.21895 0.18357 0.73455
 O1590 O 0.25373 0.28236 0.81374
 O1591 O 0.21208 0.19107 0.77602
 O1592 O 0.17378 0.26517 0.76768
 O1593 O 0.22306 0.26931 0.77740
 O1594 O 0.20977 0.23387 0.74803
 O1595 O 0.26719 0.24552 0.78196
 O1596 O 0.25400 0.21102 0.75439
 Zr1597 Zr 0.26613 0.27555 0.71437
 Zr1598 Zr 0.26070 0.28573 0.77554
 Zr1599 Zr 0.23476 0.21851 0.72065
 Zr1600 Zr 0.20474 0.27415 0.74297
 O1601 O 0.25647 0.18596 0.70620
 O1602 O 0.19257 0.30989 0.76022
 O1603 O 0.22817 0.25871 0.71391
 O1604 O 0.24137 0.29262 0.74183
 O1605 O 0.28601 0.27043 0.74816
 O1606 O 0.27218 0.23498 0.71906
 C1607 C 0.17174 0.24865 0.78568
 C1608 C 0.21053 0.17669 0.75616
 C1609 C 0.24221 0.26515 0.82730
 O1610 O 0.23992 0.31986 0.78768
 O1611 O 0.27997 0.31922 0.76232
 O1612 O 0.28560 0.31199 0.72065
 C1613 C 0.28844 0.32589 0.74066
 O1614 O 0.29659 0.19914 0.77948
 Zr1615 Zr 0.29058 0.22991 0.75326
 O1616 O 0.30564 0.27128 0.70318
 O1617 O 0.29656 0.29023 0.79503
 O1618 O 0.32142 0.24132 0.77736
 O1619 O 0.30513 0.19592 0.73446
 O1620 O 0.32257 0.24220 0.73148
 C1621 C 0.32469 0.25808 0.71302
 O1622 O 0.25244 0.30503 0.68963
 O1623 O 0.19830 0.21155 0.70283
 O1624 O 0.26242 0.26114 0.67713
 O1625 O 0.23761 0.22434 0.68232
 O1626 O 0.17267 0.26139 0.72104
 O1627 O 0.19672 0.30168 0.71412
 C1628 C 0.24936 0.24132 0.66869
 H1629 H 0.19256 0.22488 0.74748
 H1630 H 0.23854 0.31165 0.73875
 H1631 H 0.28288 0.22712 0.70538
 H1632 H 0.27628 0.24221 0.79793
 H1633 H 0.17315 0.31158 0.75834
 H1634 H 0.25159 0.32909 0.79947
 H1635 H 0.29494 0.30677 0.80473
 H1636 H 0.33749 0.23105 0.77266
 H1637 H 0.15677 0.27165 0.72626
 H1638 H 0.20036 0.19493 0.69331
 H1639 H 0.24473 0.17692 0.69435
 H1640 H 0.32447 0.19494 0.73720
 H1641 H 0.17879 0.30937 0.71654
 H1642 H 0.26743 0.30923 0.67837
 H1643 H 0.22871 0.19593 0.81868
 H1644 H 0.31535 0.19333 0.77906
 Zr1645 Zr 0.26919 0.77205 0.28449
 O1646 O 0.25517 0.79691 0.31345
 O1647 O 0.30922 0.76856 0.29285
 O1648 O 0.27060 0.75298 0.32000
 O1649 O 0.27310 0.82310 0.24168
 O1650 O 0.25290 0.71285 0.31184
 O1651 O 0.28490 0.81071 0.28097
 O1652 O 0.32610 0.74195 0.26216
 O1653 O 0.27838 0.73280 0.27513
 O1654 O 0.28615 0.77241 0.24884
 O1655 O 0.23307 0.75200 0.28566
 O1656 O 0.24097 0.79070 0.26135
 Zr1657 Zr 0.23091 0.73014 0.21551
 Zr1658 Zr 0.24221 0.71342 0.27444
 Zr1659 Zr 0.25775 0.78895 0.22562
 Zr1660 Zr 0.29394 0.73353 0.23902
 O1661 O 0.23277 0.82171 0.21812
 O1662 O 0.31016 0.69700 0.25093
 O1663 O 0.26704 0.75045 0.21389
 O1664 O 0.25903 0.71202 0.23880
 O1665 O 0.21358 0.72961 0.25103
 O1666 O 0.22195 0.76928 0.22510
 C1667 C 0.32819 0.75606 0.28189
 C1668 C 0.28393 0.82748 0.26281
 C1669 C 0.26267 0.72988 0.32667
 O1670 O 0.26635 0.67973 0.28047
 O1671 O 0.22371 0.68040 0.25946
 O1672 O 0.21365 0.69219 0.21960
 C1673 C 0.21324 0.67595 0.23819
 O1674 O 0.19958 0.79524 0.29100
 Zr1675 Zr 0.20610 0.76874 0.26088
 O1676 O 0.19066 0.73288 0.20753
 O1677 O 0.20914 0.70364 0.29676
 O1678 O 0.17845 0.75140 0.28557
 O1679 O 0.18756 0.80356 0.24743
 O1680 O 0.17348 0.75674 0.24003
 C1681 C 0.17138 0.74320 0.21997
 O1682 O 0.24436 0.70413 0.18722
 O1683 O 0.29140 0.80004 0.20468
 O1684 O 0.23177 0.74834 0.17964
 O1685 O 0.24938 0.78856 0.18769
 O1686 O 0.32341 0.75121 0.21656
 O1687 O 0.30110 0.71090 0.20632
 C1688 C 0.23983 0.77136 0.17292
 H1689 H 0.30264 0.78260 0.24779
 H1690 H 0.26287 0.69372 0.23344
 H1691 H 0.20954 0.77779 0.21331
 H1692 H 0.22507 0.75260 0.30252
 H1693 H 0.32937 0.69717 0.24721
 H1694 H 0.25666 0.66829 0.29224
 H1695 H 0.21300 0.68623 0.30434
 H1696 H 0.16124 0.76061 0.28330
 H1697 H 0.34013 0.74121 0.21910
 H1698 H 0.28745 0.81762 0.19751
 H1699 H 0.24241 0.83312 0.20629
 H1700 H 0.16850 0.80255 0.25165
 H1701 H 0.31936 0.70365 0.20662
 H1702 H 0.22886 0.70013 0.17674
 H1703 H 0.27062 0.80120 0.32389
 H1704 H 0.18043 0.79926 0.29261
 Zr1705 Zr 0.23361 0.77395 0.71519
 O1706 O 0.24675 0.79853 0.68596
 O1707 O 0.19308 0.77261 0.70864
 O1708 O 0.22986 0.75564 0.67969
 O1709 O 0.23249 0.82460 0.75852
 O1710 O 0.24408 0.71357 0.68713
 O1711 O 0.21895 0.81313 0.71958
 O1712 O 0.17730 0.74650 0.73984
 O1713 O 0.22397 0.73514 0.72452
 O1714 O 0.21851 0.77468 0.75157
 O1715 O 0.26909 0.75213 0.71184
 O1716 O 0.26340 0.79092 0.73710
 Zr1717 Zr 0.27421 0.72916 0.78159
 Zr1718 Zr 0.25963 0.71394 0.72303
 Zr1719 Zr 0.24842 0.78960 0.77354
 Zr1720 Zr 0.21037 0.73607 0.76128
 O1721 O 0.27453 0.82101 0.77990
 O1722 O 0.19273 0.70059 0.74959
 O1723 O 0.23883 0.75140 0.78525
 O1724 O 0.24467 0.71270 0.75939
 O1725 O 0.28972 0.72835 0.74533
 O1726 O 0.28368 0.76796 0.77207
 C1727 C 0.17446 0.76089 0.72036
 C1728 C 0.22084 0.82961 0.73780
 C1729 C 0.23468 0.73162 0.67290
 O1730 O 0.23599 0.68016 0.71943
 O1731 O 0.28102 0.68123 0.73602
 O1732 O 0.29005 0.69027 0.77666
 C1733 C 0.29129 0.67534 0.75713
 O1734 O 0.30332 0.79369 0.70554
 Zr1735 Zr 0.29771 0.76712 0.73561
 O1736 O 0.31481 0.72959 0.78766
 O1737 O 0.28982 0.70387 0.69709
 O1738 O 0.32351 0.74847 0.70955
 O1739 O 0.31787 0.80076 0.74845
 O1740 O 0.33108 0.75326 0.75495
 C1741 C 0.33374 0.73927 0.77472
 O1742 O 0.26150 0.70356 0.81020
 O1743 O 0.21633 0.80207 0.79636
 O1744 O 0.27555 0.74686 0.81761
 O1745 O 0.25907 0.78835 0.81099
 O1746 O 0.18227 0.75461 0.78522
 O1747 O 0.20475 0.71341 0.79408
 C1748 C 0.26873 0.77025 0.82501
 H1749 H 0.20231 0.78564 0.75350
 H1750 H 0.24087 0.69447 0.76467
 H1751 H 0.29690 0.77563 0.78336
 H1752 H 0.27596 0.75250 0.69455
 H1753 H 0.17379 0.70160 0.75435
 H1754 H 0.24471 0.66868 0.70681
 H1755 H 0.28539 0.68647 0.69004
 H1756 H 0.34107 0.75668 0.71110
 H1757 H 0.16539 0.74513 0.78350
 H1758 H 0.22108 0.81938 0.80344
 H1759 H 0.26578 0.83285 0.79220
 H1760 H 0.33663 0.79880 0.74325
 H1761 H 0.18652 0.70658 0.79443
 H1762 H 0.27735 0.69872 0.82007
 H1763 H 0.23094 0.80368 0.67618
 H1764 H 0.32247 0.79644 0.70289
 Zr1765 Zr 0.27206 0.22879 0.21767
 O1766 O 0.25939 0.20172 0.19043
 O1767 O 0.31198 0.23262 0.20851
 O1768 O 0.27288 0.24522 0.18108
 O1769 O 0.28000 0.18204 0.26415
 O1770 O 0.25387 0.28581 0.18675
 O1771 O 0.28869 0.19046 0.22317
 O1772 O 0.32664 0.26325 0.23614
 O1773 O 0.27813 0.26906 0.22369
 O1774 O 0.28952 0.23248 0.25272
 O1775 O 0.23447 0.24684 0.21559
 O1776 O 0.24582 0.21109 0.24321
 Zr1777 Zr 0.23114 0.27493 0.28390
 Zr1778 Zr 0.24050 0.28662 0.22357
 Zr1779 Zr 0.26292 0.21700 0.27821
 Zr1780 Zr 0.29413 0.27250 0.25917
 O1781 O 0.24039 0.18466 0.29046
 O1782 O 0.30732 0.30829 0.24344
 O1783 O 0.26892 0.25688 0.28636
 O1784 O 0.25753 0.29215 0.25850
 O1785 O 0.21344 0.27126 0.24896
 O1786 O 0.22549 0.23465 0.27781
 C1787 C 0.32991 0.24712 0.21792
 C1788 C 0.28933 0.17547 0.24264
 C1789 C 0.26523 0.26814 0.17322
 O1790 O 0.26020 0.32218 0.21579
 O1791 O 0.21727 0.31853 0.23600
 O1792 O 0.21214 0.31225 0.27779
 C1793 C 0.20843 0.32556 0.25751
 O1794 O 0.20481 0.20169 0.21475
 Zr1795 Zr 0.20924 0.23107 0.24251
 O1796 O 0.19115 0.27135 0.29270
 O1797 O 0.20777 0.29138 0.19958
 O1798 O 0.18001 0.24481 0.21737
 O1799 O 0.19374 0.19660 0.25897
 O1800 O 0.17593 0.24283 0.26340
 C1801 C 0.17282 0.25832 0.28212
 O1802 O 0.24328 0.30318 0.31026
 O1803 O 0.29811 0.20863 0.29799
 O1804 O 0.23197 0.25925 0.32073
 O1805 O 0.25735 0.22193 0.31659
 O1806 O 0.32482 0.25841 0.28256
 O1807 O 0.30006 0.29898 0.28919
 C1808 C 0.24429 0.23888 0.32964
 H1809 H 0.30665 0.22295 0.25401
 H1810 H 0.25986 0.31105 0.26222
 H1811 H 0.21394 0.22664 0.29060
 H1812 H 0.22674 0.24446 0.19888
 H1813 H 0.32655 0.30943 0.24655
 H1814 H 0.24965 0.33164 0.20305
 H1815 H 0.20987 0.30850 0.19102
 H1816 H 0.16363 0.23494 0.22077
 H1817 H 0.34092 0.26850 0.27856
 H1818 H 0.29547 0.19179 0.30690
 H1819 H 0.25139 0.17493 0.30266
 H1820 H 0.17466 0.19613 0.25501
 H1821 H 0.31797 0.30649 0.28788
 H1822 H 0.22764 0.30748 0.32082
 H1823 H 0.27504 0.19708 0.18001
 H1824 H 0.18598 0.19680 0.21366
 Zr1825 Zr 0.72953 0.72796 0.28170
 O1826 O 0.74387 0.70008 0.30774
 O1827 O 0.69038 0.73284 0.29337
 O1828 O 0.73107 0.74404 0.31848
 O1829 O 0.71921 0.68215 0.23497
 O1830 O 0.75369 0.78217 0.31284
 O1831 O 0.71218 0.69026 0.27632
 O1832 O 0.67392 0.76432 0.26714
 O1833 O 0.72316 0.76854 0.27671
 O1834 O 0.70983 0.73268 0.24781
 O1835 O 0.76728 0.74483 0.28154
 O1836 O 0.75408 0.70994 0.25442
 Zr1837 Zr 0.76617 0.77387 0.21357
 Zr1838 Zr 0.76079 0.78495 0.27461
 Zr1839 Zr 0.73480 0.71695 0.22062
 Zr1840 Zr 0.70481 0.77290 0.24224
 O1841 O 0.75644 0.68423 0.20642
 O1842 O 0.69270 0.80892 0.25899
 O1843 O 0.72820 0.75704 0.21335
 O1844 O 0.74144 0.79135 0.24082
 O1845 O 0.78609 0.76924 0.24740
 O1846 O 0.77221 0.73338 0.21877
 C1847 C 0.67187 0.74803 0.28532
 C1848 C 0.71075 0.67557 0.25665
 C1849 C 0.74214 0.76517 0.32664
 O1850 O 0.74004 0.81928 0.28626
 O1851 O 0.78003 0.81826 0.26090
 O1852 O 0.78587 0.81027 0.21937
 C1853 C 0.78863 0.82451 0.23917
 O1854 O 0.79691 0.69865 0.27982
 Zr1855 Zr 0.79066 0.72881 0.25301
 O1856 O 0.80562 0.76938 0.20232
 O1857 O 0.79661 0.78975 0.29409
 O1858 O 0.82160 0.74087 0.27669
 O1859 O 0.80492 0.69430 0.23488
 O1860 O 0.82253 0.74035 0.23068
 C1861 C 0.82462 0.75603 0.21208
 O1862 O 0.75245 0.80309 0.18858
 O1863 O 0.69827 0.70974 0.20302
 O1864 O 0.76234 0.75900 0.17650
 O1865 O 0.73758 0.72227 0.18222
 O1866 O 0.67265 0.75982 0.22060
 O1867 O 0.69673 0.79992 0.21298
 C1868 C 0.74928 0.73906 0.16834
 H1869 H 0.69263 0.72367 0.24740
 H1870 H 0.73862 0.81033 0.23749
 H1871 H 0.78286 0.72530 0.20517
 H1872 H 0.77638 0.74178 0.29755
 H1873 H 0.67327 0.81058 0.25715
 H1874 H 0.75167 0.82865 0.29798
 H1875 H 0.79496 0.80646 0.30353
 H1876 H 0.83768 0.73057 0.27209
 H1877 H 0.65678 0.77019 0.22572
 H1878 H 0.70031 0.69298 0.19370
 H1879 H 0.74467 0.67505 0.19470
 H1880 H 0.82428 0.69329 0.23748
 H1881 H 0.67885 0.80772 0.21538
 H1882 H 0.76741 0.80714 0.17723
 H1883 H 0.72885 0.69574 0.31890
 H1884 H 0.81570 0.69293 0.27945
 Zr1885 Zr 0.76852 0.27198 0.78534
 O1886 O 0.75395 0.29707 0.81390
 O1887 O 0.80837 0.26845 0.79451
 O1888 O 0.76907 0.25321 0.82100
 O1889 O 0.77352 0.32254 0.74220
 O1890 O 0.75125 0.21315 0.81282
 O1891 O 0.78424 0.31065 0.78189
 O1892 O 0.82571 0.24144 0.76435
 O1893 O 0.77771 0.23261 0.77649
 O1894 O 0.78630 0.27189 0.75004
 O1895 O 0.73226 0.25214 0.78591
 O1896 O 0.74092 0.29050 0.76145
 Zr1897 Zr 0.73159 0.22953 0.71583
 Zr1898 Zr 0.74147 0.21343 0.77520
 Zr1899 Zr 0.75853 0.28827 0.72611
 Zr1900 Zr 0.79408 0.23288 0.74067
 O1901 O 0.73392 0.32100 0.71752
 O1902 O 0.80988 0.19643 0.75327
 O1903 O 0.76787 0.24964 0.71484
 O1904 O 0.75907 0.21157 0.73991
 O1905 O 0.71347 0.22947 0.75103
 O1906 O 0.72263 0.26881 0.72495
 C1907 C 0.82749 0.25575 0.78399
 C1908 C 0.78372 0.32721 0.76355
 C1909 C 0.76084 0.23024 0.82769
 O1910 O 0.76527 0.17967 0.78202
 O1911 O 0.72319 0.18036 0.76021
 O1912 O 0.71425 0.19158 0.71997
 C1913 C 0.71332 0.17559 0.73876
 O1914 O 0.69876 0.29545 0.79022
 Zr1915 Zr 0.70596 0.26871 0.76041
 O1916 O 0.69152 0.23228 0.70705
 O1917 O 0.70779 0.20408 0.79689
 O1918 O 0.67756 0.25178 0.78458
 O1919 O 0.68806 0.30355 0.74625
 O1920 O 0.67381 0.25664 0.73897
 C1921 C 0.67205 0.24286 0.71901
 O1922 O 0.74570 0.20330 0.68801
 O1923 O 0.79275 0.29908 0.70586
 O1924 O 0.73317 0.24751 0.67980
 O1925 O 0.75132 0.28743 0.68804
 O1926 O 0.82404 0.25023 0.71857
 O1927 O 0.80195 0.20973 0.70843
 C1928 C 0.74179 0.27037 0.67312
 H1929 H 0.80283 0.28204 0.74925
 H1930 H 0.76296 0.19319 0.73481
 H1931 H 0.71056 0.27727 0.71283
 H1932 H 0.72387 0.25293 0.80259
 H1933 H 0.82917 0.19648 0.74997
 H1934 H 0.75527 0.16840 0.79370
 H1935 H 0.71136 0.18677 0.80475
 H1936 H 0.66050 0.26113 0.78190
 H1937 H 0.84070 0.24029 0.72159
 H1938 H 0.78900 0.31654 0.69836
 H1939 H 0.74401 0.33228 0.70591
 H1940 H 0.66887 0.30264 0.74989
 H1941 H 0.82024 0.20259 0.70911
 H1942 H 0.73040 0.19911 0.67733
 H1943 H 0.76919 0.30143 0.82458
 H1944 H 0.67965 0.29980 0.79118
 N1945 N 0.47431 0.98824 0.35398
 C1946 C 0.44789 0.98574 0.34980
 N1947 N 0.43187 0.98076 0.36951
 N1948 N 0.44143 0.97923 0.39241
 C1949 C 0.46756 0.98226 0.39678
 N1950 N 0.48398 0.98662 0.37710
 N1951 N -0.02533 0.48838 0.85553
 C1952 C -0.05183 0.48631 0.85144
 N1953 N -0.06776 0.48153 0.87129
 N1954 N -0.05808 0.47984 0.89414
 C1955 C -0.03189 0.48248 0.89838
 N1956 N -0.01553 0.48661 0.87860
 N1957 N 0.02407 0.00903 0.85317
 C1958 C 0.05064 0.00793 0.84863
 N1959 N 0.06722 0.01015 0.86818
 N1960 N 0.05794 0.01247 0.89124
 C1961 C 0.03159 0.01294 0.89600
 N1962 N 0.01468 0.01137 0.87648
 N1963 N 0.52323 0.50679 0.35249
 C1964 C 0.54976 0.50785 0.34797
 N1965 N 0.56600 0.51257 0.36735
 N1966 N 0.55651 0.51511 0.39031
 C1967 C 0.53026 0.51334 0.39510
 N1968 N 0.51363 0.50934 0.37570
 N1969 N 0.55567 0.47357 0.13072
 C1970 C 0.54450 0.48844 0.14909
 N1971 N 0.52098 0.50078 0.14442
 N1972 N 0.50961 0.49884 0.12209
 C1973 C 0.52120 0.48425 0.10369
 N1974 N 0.54445 0.47175 0.10849
 N1975 N 0.02139 1.00937 0.64383
 C1976 C 0.04010 0.99137 0.65073
 N1977 N 0.04581 0.97118 0.63488
 N1978 N 0.03405 0.96947 0.61285
 C1979 C 0.01567 0.98760 0.60583
 N1980 N 0.00962 1.00766 0.62172
 N1981 N -0.04395 0.47934 0.63672
 C1982 C -0.03878 0.49803 0.65394
 N1983 N -0.02296 0.51838 0.64714
 N1984 N -0.01326 0.52012 0.62392
 C1985 C -0.01911 0.50154 0.60667
 N1986 N -0.03446 0.48112 0.61368
 N1987 N 0.45847 -0.02289 0.13545
 C1988 C 0.46211 -0.00346 0.15231
 N1989 N 0.47688 0.01760 0.14533
 N1990 N 0.48692 0.01934 0.12225
 C1991 C 0.48254 0.00002 0.10530
 N1992 N 0.46832 -0.02112 0.11253
 N1993 N 0.35175 0.44171 -0.00461
 C1994 C 0.34833 0.41971 0.00929
 N1995 N 0.36818 0.41204 0.02484
 N1996 N 0.39058 0.42563 0.02619
 C1997 C 0.39406 0.44738 0.01190
 N1998 N 0.37416 0.45507 -0.00347
 N1999 N -0.13407 0.91220 0.52525
 C2000 C -0.15363 0.91946 0.50922
 N2001 N -0.14990 0.94101 0.49479
 N2002 N -0.12746 0.95435 0.49590
 C2003 C -0.10786 0.94707 0.51177
 N2004 N -0.11166 0.92577 0.52658
 N2005 N -0.12797 0.07872 0.97126
 C2006 C -0.14597 0.07480 0.98991
 N2007 N -0.14020 0.05628 1.00733
 N2008 N -0.11748 0.04274 1.00650
 C2009 C -0.09945 0.04681 0.98810
 N2010 N -0.10519 0.06502 0.97035
 N2011 N 0.36851 0.57352 0.47004
 C2012 C 0.35664 0.57944 0.49228
 N2013 N 0.36852 0.57101 0.51344
 N2014 N 0.39110 0.55731 0.51253
 C2015 C 0.40309 0.55149 0.49047
 N2016 N 0.39136 0.55990 0.46913
 N2017 N 0.14713 0.55685 0.49774
 C2018 C 0.15052 0.57909 0.51124
 N2019 N 0.13043 0.58737 0.52652
 N2020 N 0.10781 0.57412 0.52796
 C2021 C 0.10437 0.55213 0.51403
 N2022 N 0.12450 0.54384 0.49894
 N2023 N 0.63335 0.08203 0.02907
 C2024 C 0.65056 0.07900 0.00956
 N2025 N 0.64381 0.06262 -0.00921
 N2026 N 0.62086 0.05014 -0.00873
 C2027 C 0.60360 0.05322 0.01059
 N2028 N 0.61034 0.06935 0.02964
 N2029 N 0.62784 0.92387 0.51383
 C2030 C 0.64009 0.91600 0.49249
 N2031 N 0.62846 0.92230 0.47040
 N2032 N 0.60553 0.93579 0.46979
 C2033 C 0.59345 0.94369 0.49130
 N2034 N 0.60517 0.93745 0.51323
 N2035 N 0.13004 0.42231 0.97086
 C2036 C 0.14168 0.41586 0.99291
 N2037 N 0.12933 0.42337 1.01430
 N2038 N 0.10656 0.43676 1.01381
 C2039 C 0.09483 0.44316 0.99193
 N2040 N 0.10700 0.43563 0.97036
 N2041 N 0.00846 0.35450 0.45435
 C2042 C -0.00838 0.35039 0.43526
 N2043 N -0.02224 0.37111 0.42585
 N2044 N -0.01936 0.39508 0.43524
 C2045 C -0.00235 0.39910 0.45419
 N2046 N 0.01133 0.37842 0.46374
 N2047 N 0.50681 -0.14447 -0.04863
 C2048 C 0.48951 -0.14859 -0.06735
 N2049 N 0.47564 -0.12781 -0.07665
 N2050 N 0.47892 -0.10379 -0.06748
 C2051 C 0.49638 -0.09979 -0.04888
 N2052 N 0.51010 -0.12052 -0.03947
 N2053 N 0.03356 -0.13617 1.06841
 C2054 C 0.01925 -0.15633 1.05932
 N2055 N 0.00386 -0.15215 1.03908
 N2056 N 0.00243 -0.12852 1.02860
 C2057 C 0.01618 -0.10826 1.03818
 N2058 N 0.03207 -0.11252 1.05800
 N2059 N 0.50286 0.34874 0.53906
 C2060 C 0.51879 0.34420 0.55886
 N2061 N 0.53354 0.36413 0.56778
 N2062 N 0.53201 0.38789 0.55759
 C2063 C 0.51563 0.39249 0.53820
 N2064 N 0.50138 0.37248 0.52883
 N2065 N 0.46864 1.13475 0.56844
 C2066 C 0.48519 1.15368 0.56025
 N2067 N 0.50175 1.14828 0.54088
 N2068 N 0.50204 1.12465 0.53033
 C2069 C 0.48591 1.10561 0.53895
 N2070 N 0.46899 1.11109 0.55796
 N2071 N -0.02990 0.63396 1.07046
 C2072 C -0.01357 0.65304 1.06219
 N2073 N 0.00307 0.64772 1.04286
 N2074 N 0.00361 0.62404 1.03240
 C2075 C -0.01234 0.60488 1.04106
 N2076 N -0.02930 0.61026 1.06007
 N2077 N 0.48835 0.64770 -0.04139
 C2078 C 0.50613 0.65247 -0.05980
 N2079 N 0.52174 0.63244 -0.06827
 N2080 N 0.51951 0.60845 -0.05883
 C2081 C 0.50154 0.60368 -0.04064
 N2082 N 0.48620 0.62372 -0.03184
 N2083 N -0.01376 1.14703 0.45667
 C2084 C 0.00574 1.15201 0.43987
 N2085 N 0.02257 1.13216 0.43321
 N2086 N 0.01978 1.10822 0.44263
 C2087 C 0.00007 1.10330 0.45908
 N2088 N -0.01645 1.12312 0.46624
 N2089 N 0.76701 0.71719 0.89139
 C2090 C 0.74383 0.71255 0.90335
 N2091 N 0.72090 0.72002 0.89207
 N2092 N 0.72111 0.73104 0.86951
 C2093 C 0.74431 0.73500 0.85733
 N2094 N 0.76719 0.72790 0.86875
 N2095 N 0.26604 0.21493 0.39054
 C2096 C 0.24283 0.21175 0.40288
 N2097 N 0.22013 0.22022 0.39178
 N2098 N 0.22058 0.23087 0.36905
 C2099 C 0.24380 0.23339 0.35652
 N2100 N 0.26646 0.22526 0.36776
 N2101 N 0.77967 0.30935 0.38069
 C2102 C 0.76857 0.29570 0.39967
 N2103 N 0.75964 0.27104 0.39492
 N2104 N 0.76125 0.26087 0.37196
 C2105 C 0.77197 0.27496 0.35298
 N2106 N 0.78109 0.29933 0.35787
 N2107 N 0.27512 0.81381 0.87853
 C2108 C 0.26715 0.79871 0.89790
 N2109 N 0.26221 0.77282 0.89351
 N2110 N 0.26440 0.76281 0.87051
 C2111 C 0.27179 0.77834 0.85113
 N2112 N 0.27717 0.80393 0.85570
 N2113 N 0.24088 0.81635 0.12003
 C2114 C 0.24555 0.80037 0.10020
 N2115 N 0.24584 0.77383 0.10413
 N2116 N 0.24252 0.76393 0.12705
 C2117 C 0.23852 0.78028 0.14682
 N2118 N 0.23761 0.80658 0.14271
 N2119 N 0.74691 0.31538 0.62044
 C2120 C 0.74820 0.29937 0.60026
 N2121 N 0.74523 0.27297 0.60394
 N2122 N 0.74196 0.26316 0.62692
 C2123 C 0.74125 0.27950 0.64701
 N2124 N 0.74362 0.30570 0.64313
 N2125 N 0.22202 0.21504 0.61126
 C2126 C 0.24271 0.21571 0.59513
 N2127 N 0.26522 0.22784 0.60256
 N2128 N 0.26716 0.23796 0.62549
 C2129 C 0.24654 0.23644 0.64177
 N2130 N 0.22396 0.22502 0.63402
 N2131 N 0.72278 0.71089 0.11131
 C2132 C 0.74289 0.71324 0.09468
 N2133 N 0.76458 0.72702 0.10175
 N2134 N 0.76640 0.73700 0.12476
 C2135 C 0.74643 0.73373 0.14149
 N2136 N 0.72458 0.72076 0.13413
 N2137 N 0.16426 0.62493 0.22281
 C2138 C 0.17195 0.60471 0.23792
 N2139 N 0.19406 0.60771 0.25173
 N2140 N 0.20750 0.63005 0.25096
 C2141 C 0.19980 0.65031 0.23603
 N2142 N 0.17792 0.64726 0.22182
 N2143 N 0.66594 0.12360 0.72176
 C2144 C 0.67205 0.10422 0.73844
 N2145 N 0.69279 0.10814 0.75387
 N2146 N 0.70624 0.13047 0.75315
 C2147 C 0.69997 0.14988 0.73672
 N2148 N 0.67960 0.14594 0.72087
 N2149 N 0.82607 0.11351 0.23506
 C2150 C 0.83426 0.10140 0.25619
 N2151 N 0.82874 0.11332 0.27843
 N2152 N 0.81571 0.13644 0.27937
 C2153 C 0.80752 0.14840 0.25805
 N2154 N 0.81297 0.13636 0.23600
 N2155 N 0.32449 0.61486 0.73475
 C2156 C 0.33275 0.60289 0.75592
 N2157 N 0.32721 0.61490 0.77812
 N2158 N 0.31412 0.63799 0.77896
 C2159 C 0.30588 0.64981 0.75759
 N2160 N 0.31131 0.63766 0.73559
 N2161 N 0.33460 0.37913 0.72366
 C2162 C 0.32966 0.39726 0.74193
 N2163 N 0.31032 0.39201 0.75880
 N2164 N 0.29702 0.36961 0.75781
 C2165 C 0.30206 0.35150 0.73970
 N2166 N 0.32105 0.35676 0.72249
 N2167 N 0.83674 0.87637 0.22338
 C2168 C 0.83017 0.89552 0.24019
 N2169 N 0.80919 0.89153 0.25553
 N2170 N 0.79574 0.86922 0.25451
 C2171 C 0.80230 0.85004 0.23783
 N2172 N 0.82303 0.85410 0.22214
 N2173 N 0.66795 0.88216 0.73470
 C2174 C 0.66529 0.89812 0.75488
 N2175 N 0.67585 0.88960 0.77683
 N2176 N 0.68859 0.86636 0.77836
 C2177 C 0.69139 0.85072 0.75791
 N2178 N 0.68078 0.85919 0.73615
 N2179 N 0.17400 0.38739 0.27772
 C2180 C 0.16631 0.39775 0.25542
 N2181 N 0.17220 0.38395 0.23444
 N2182 N 0.18528 0.36109 0.23554
 C2183 C 0.19298 0.35067 0.25766
 N2184 N 0.18703 0.36428 0.27885
 N2185 N 0.10215 0.26016 0.80093
 C2186 C 0.09799 0.24211 0.81909
 N2187 N 0.11834 0.22622 0.82620
 N2188 N 0.14199 0.22835 0.81557
 C2189 C 0.14609 0.24654 0.79757
 N2190 N 0.12576 0.26228 0.79028
 N2191 N 0.60230 0.75980 0.30039
 C2192 C 0.59809 0.74193 0.31869
 N2193 N 0.61839 0.72610 0.32599
 N2194 N 0.64207 0.72810 0.31538
 C2195 C 0.64622 0.74610 0.29723
 N2196 N 0.62594 0.76179 0.28976
 N2197 N 0.62140 0.28033 0.18100
 C2198 C 0.60121 0.26590 0.19017
 N2199 N 0.60560 0.25003 0.21005
 N2200 N 0.62942 0.24831 0.22016
 C2201 C 0.64969 0.26227 0.21057
 N2202 N 0.64526 0.27857 0.19105
 N2203 N 0.10387 0.75189 0.71082
 C2204 C 0.09928 0.76750 0.69078
 N2205 N 0.11937 0.78182 0.68126
 N2206 N 0.14333 0.78018 0.69110
 C2207 C 0.14797 0.76412 0.71075
 N2208 N 0.12780 0.75030 0.72071
 N2209 N 0.88500 0.72395 0.68059
 C2210 C 0.90435 0.74065 0.68752
 N2211 N 0.89857 0.75962 0.70457
 N2212 N 0.87441 0.76198 0.71417
 C2213 C 0.85511 0.74558 0.70687
 N2214 N 0.86080 0.72637 0.69011
 N2215 N 0.38604 0.22480 0.17994
 C2216 C 0.40561 0.24039 0.18834
 N2217 N 0.40010 0.25798 0.20672
 N2218 N 0.37590 0.26001 0.21626
 C2219 C 0.35632 0.24468 0.20757
 N2220 N 0.36180 0.22685 0.18944
 N2221 N 0.38155 0.77673 0.32246
 C2222 C 0.40208 0.76162 0.31416
 N2223 N 0.39830 0.74513 0.29466
 N2224 N 0.37476 0.74362 0.28401
 C2225 C 0.35419 0.75838 0.29269
 N2226 N 0.35800 0.77516 0.31188
 N2227 N 0.88057 0.27615 0.82510
 C2228 C 0.90128 0.26148 0.81647
 N2229 N 0.89765 0.24531 0.79672
 N2230 N 0.87410 0.24371 0.78610
 C2231 C 0.85337 0.25805 0.79505
 N2232 N 0.85701 0.27450 0.81454
 N2233 N 0.55819 1.02541 0.62746
 C2234 C 0.54346 1.01837 0.64750
 N2235 N 0.51709 1.01453 0.64423
 N2236 N 0.50630 1.01652 0.62159
 C2237 C 0.52146 1.02277 0.60148
 N2238 N 0.54750 1.02738 0.60502
 N2239 N 0.06125 0.52237 1.12867
 C2240 C 0.04622 0.51763 1.14917
 N2241 N 0.01950 0.51587 1.14608
 N2242 N 0.00870 0.51756 1.12341
 C2243 C 0.02419 0.52149 1.10297
 N2244 N 0.05056 0.52409 1.10623
 N2245 N -0.02021 -0.01848 1.14370
 C2246 C -0.04681 -0.01988 1.14782
 N2247 N -0.06256 -0.02472 1.12804
 N2248 N -0.05257 -0.02696 1.10521
 C2249 C -0.02626 -0.02480 1.10092
 N2250 N -0.01013 -0.02074 1.12066
 N2251 N 0.44038 0.47523 0.62825
 C2252 C 0.45578 0.48199 0.64771
 N2253 N 0.48218 0.48495 0.64355
 N2254 N 0.49239 0.48237 0.62060
 C2255 C 0.47658 0.47642 0.60106
 N2256 N 0.45050 0.47267 0.60549
 N2257 N 0.47476 0.52050 -0.14578
 C2258 C 0.45330 0.50586 -0.15177
 N2259 N 0.43951 0.49442 -0.13313
 N2260 N 0.44677 0.49718 -0.10961
 C2261 C 0.46823 0.51141 -0.10343
 N2262 N 0.48228 0.52305 -0.12201
 N2263 N -0.05941 0.99219 0.36689
 C2264 C -0.04573 1.00403 0.34840
 N2265 N -0.02469 1.01917 0.35465
 N2266 N -0.01750 1.02183 0.37850
 C2267 C -0.03146 1.00980 0.39691
 N2268 N -0.05248 0.99505 0.39048
 N2269 N 0.02628 0.48267 0.35445
 C2270 C 0.04547 0.50002 0.34790
 N2271 N 0.05614 0.51499 0.36598
 N2272 N 0.04827 0.51277 0.38950
 C2273 C 0.02923 0.49559 0.39620
 N2274 N 0.01815 0.48059 0.37817
 N2275 N 0.55089 0.01932 -0.13675
 C2276 C 0.54343 0.00168 -0.15416
 N2277 N 0.52662 -0.01777 -0.14712
 N2278 N 0.51790 -0.01951 -0.12356
 C2279 C 0.52591 -0.00191 -0.10618
 N2280 N 0.54243 0.01749 -0.11338
 N2281 N 0.63991 0.55304 0.00213
 C2282 C 0.64183 0.57675 -0.00934
 N2283 N 0.62088 0.58563 -0.02291
 N2284 N 0.59885 0.57156 -0.02464
 C2285 C 0.59681 0.54808 -0.01274
 N2286 N 0.61778 0.53919 0.00069
 N2287 N 0.13760 1.05403 0.50471
 C2288 C 0.13979 1.07729 0.49250
 N2289 N 0.11906 1.08578 0.47844
 N2290 N 0.09700 1.07175 0.47690
 C2291 C 0.09468 1.04872 0.48952
 N2292 N 0.11543 1.04022 0.50348
 N2293 N 0.15001 -0.05586 0.99387
 C2294 C 0.15446 -0.07680 1.00907
 N2295 N 0.13540 -0.08282 1.02615
 N2296 N 0.11280 -0.06895 1.02757
 C2297 C 0.10829 -0.04839 1.01196
 N2298 N 0.12740 -0.04214 0.99516
 N2299 N 0.63709 0.41832 0.52612
 C2300 C 0.65469 0.42169 0.50706
 N2301 N 0.64874 0.43994 0.48942
 N2302 N 0.62614 0.45367 0.49044
 C2303 C 0.60848 0.45008 0.50927
 N2304 N 0.61445 0.43217 0.52720
 N2305 N -0.14104 0.44795 0.50284
 C2306 C -0.14333 0.42476 0.49055
 N2307 N -0.12263 0.41621 0.47619
 N2308 N -0.10044 0.43006 0.47453
 C2309 C -0.09804 0.45299 0.48726
 N2310 N -0.11878 0.46159 0.50144
 N2311 N 0.37497 -0.08159 -0.02738
 C2312 C 0.35568 -0.07538 -0.01044
 N2313 N 0.35945 -0.05452 0.00484
 N2314 N 0.38174 -0.04092 0.00373
 C2315 C 0.40110 -0.04721 -0.01300
 N2316 N 0.39722 -0.06777 -0.02867
 N2317 N 0.35123 1.06248 0.48920
 C2318 C 0.34324 1.07778 0.50863
 N2319 N 0.35907 1.07876 0.52906
 N2320 N 0.38199 1.06530 0.52984
 C2321 C 0.38995 1.05019 0.51019
 N2322 N 0.37401 1.04908 0.48997
 N2323 N -0.14713 0.56167 0.99107
 C2324 C -0.15505 0.57745 1.01015
 N2325 N -0.13924 0.57881 1.03059
 N2326 N -0.11636 0.56528 1.03164
 C2327 C -0.10847 0.54969 1.01231
 N2328 N -0.12443 0.54819 0.99212
 N2329 N 0.03109 0.63157 0.57554
 C2330 C 0.01765 0.65234 0.56570
 N2331 N 0.00230 0.64849 0.54548
 N2332 N 0.00019 0.62469 0.53561
 C2333 C 0.01320 0.60389 0.54575
 N2334 N 0.02895 0.60771 0.56569
 N2335 N 0.50110 0.14803 0.04580
 C2336 C 0.51706 0.15186 0.06560
 N2337 N 0.53095 0.13112 0.07494
 N2338 N 0.52871 0.10731 0.06498
 C2339 C 0.51240 0.10353 0.04545
 N2340 N 0.49888 0.12429 0.03583
 N2341 N -0.00218 0.14700 0.96363
 C2342 C -0.01702 0.15138 0.94309
 N2343 N -0.03035 0.13109 0.93294
 N2344 N -0.02833 0.10711 0.94260
 C2345 C -0.01294 0.10269 0.96274
 N2346 N -0.00025 0.12306 0.97336
 N2347 N 0.49937 0.64763 0.46280
 C2348 C 0.48375 0.65209 0.44278
 N2349 N 0.47011 0.63183 0.43298
 N2350 N 0.47249 0.60782 0.44248
 C2351 C 0.48863 0.60332 0.46208
 N2352 N 0.50170 0.62364 0.47236
 N2353 N 0.52519 0.86392 0.43644
 C2354 C 0.50979 0.84435 0.44527
 N2355 N 0.49274 0.84956 0.46430
 N2356 N 0.49082 0.87362 0.47386
 C2357 C 0.50572 0.89328 0.46449
 N2358 N 0.52319 0.88800 0.44589
 N2359 N -0.00609 0.34909 0.96555
 C2360 C 0.01078 0.34389 0.94637
 N2361 N 0.02603 0.36349 0.93736
 N2362 N 0.02407 0.38758 0.94678
 C2363 C 0.00678 0.39284 0.96554
 N2364 N -0.00796 0.37316 0.97508
 N2365 N 0.50087 0.35007 0.04048
 C2366 C 0.48542 0.34550 0.06071
 N2367 N 0.46976 0.36524 0.06972
 N2368 N 0.47003 0.38891 0.05928
 C2369 C 0.48595 0.39357 0.03944
 N2370 N 0.50106 0.37370 0.02996
 N2371 N -0.00173 0.85072 0.54219
 C2372 C -0.01688 0.84617 0.56261
 N2373 N -0.03217 0.86602 0.57200
 N2374 N -0.03183 0.88975 0.56167
 C2375 C -0.01619 0.89437 0.54163
 N2376 N -0.00146 0.87441 0.53181
 N2377 N 0.26051 0.26990 0.10468
 C2378 C 0.26379 0.29608 0.10029
 N2379 N 0.27056 0.31168 0.11963
 N2380 N 0.27287 0.30197 0.14246
 C2381 C 0.26890 0.27611 0.14709
 N2382 N 0.26289 0.26009 0.12770
 N2383 N 0.76845 0.81141 0.61968
 C2384 C 0.76168 0.79574 0.60040
 N2385 N 0.75846 0.76957 0.60488
 N2386 N 0.76092 0.75984 0.62794
 C2387 C 0.76696 0.77593 0.64727
 N2388 N 0.77084 0.80179 0.64254
 N2389 N 0.22869 0.68709 0.62010
 C2390 C 0.23547 0.70235 0.60044
 N2391 N 0.23886 0.72857 0.60439
 N2392 N 0.23662 0.73876 0.62731
 C2393 C 0.23065 0.72310 0.64703
 N2394 N 0.22651 0.69718 0.64284
 N2395 N 0.73391 0.18694 0.12046
 C2396 C 0.74037 0.20254 0.10097
 N2397 N 0.74254 0.22890 0.10502
 N2398 N 0.73957 0.23890 0.12797
 C2399 C 0.73397 0.22290 0.14755
 N2400 N 0.73093 0.19685 0.14318
 N2401 N 0.76999 0.22653 0.89638
 C2402 C 0.75547 0.20483 0.90193
 N2403 N 0.74358 0.19203 0.88307
 N2404 N 0.74588 0.20039 0.85979
 C2405 C 0.76012 0.22200 0.85408
 N2406 N 0.77212 0.23513 0.87287
 N2407 N 0.27246 0.72600 0.39529
 C2408 C 0.25799 0.70429 0.40088
 N2409 N 0.24609 0.69142 0.38207
 N2410 N 0.24830 0.69977 0.35878
 C2411 C 0.26240 0.72146 0.35302
 N2412 N 0.27447 0.73460 0.37176
 N2413 N 0.72522 0.77369 0.39363
 C2414 C 0.74565 0.78888 0.40135
 N2415 N 0.76504 0.79445 0.38474
 N2416 N 0.76393 0.78588 0.36143
 C2417 C 0.74352 0.77111 0.35352
 N2418 N 0.72418 0.76489 0.37013
 N2419 N 0.22524 0.27445 0.89411
 C2420 C 0.24649 0.28836 0.90202
 N2421 N 0.26647 0.29256 0.88564
 N2422 N 0.26513 0.28398 0.86235
 C2423 C 0.24389 0.27054 0.85424
 N2424 N 0.22395 0.26565 0.87063
 N2425 N 0.83296 0.37821 0.77744
 C2426 C 0.82500 0.39827 0.76228
 N2427 N 0.80230 0.39539 0.74930
 N2428 N 0.78862 0.37322 0.75082
 C2429 C 0.79666 0.35308 0.76573
 N2430 N 0.81909 0.35607 0.77916
 N2431 N 0.33543 0.87699 0.27314
 C2432 C 0.32594 0.89812 0.26011
 N2433 N 0.30140 0.89628 0.25010
 N2434 N 0.28758 0.87424 0.25217
 C2435 C 0.29722 0.85315 0.26492
 N2436 N 0.32141 0.85502 0.27551
 N2437 N 0.17031 0.88071 0.72474
 C2438 C 0.17861 0.90119 0.73887
 N2439 N 0.20184 0.89852 0.75119
 N2440 N 0.21578 0.87608 0.75000
 C2441 C 0.20742 0.85555 0.73601
 N2442 N 0.18446 0.85838 0.72326
 N2443 N 0.70188 0.39666 0.25379
 C2444 C 0.67923 0.39964 0.24060
 N2445 N 0.67149 0.37942 0.22585
 N2446 N 0.68562 0.35706 0.22457
 C2447 C 0.70799 0.35393 0.23815
 N2448 N 0.71579 0.37419 0.25278
 N2449 N 0.66865 0.61961 0.27545
 C2450 C 0.67151 0.60318 0.25548
 N2451 N 0.68821 0.61030 0.23690
 N2452 N 0.70107 0.63293 0.23795
 C2453 C 0.69810 0.64946 0.25770
 N2454 N 0.68167 0.64231 0.27657
 N2455 N 0.16890 0.12041 0.77503
 C2456 C 0.17101 0.10444 0.75466
 N2457 N 0.18703 0.11199 0.73570
 N2458 N 0.19997 0.13458 0.73680
 C2459 C 0.19773 0.15065 0.75696
 N2460 N 0.18198 0.14308 0.77618
 N2461 N 0.32844 0.11729 0.22088
 C2462 C 0.32705 0.10101 0.24101
 N2463 N 0.31269 0.10925 0.26106
 N2464 N 0.30051 0.13266 0.26115
 C2465 C 0.30197 0.14897 0.24117
 N2466 N 0.31614 0.14078 0.22093
 N2467 N 0.82883 0.61815 0.72259
 C2468 C 0.82817 0.60248 0.74318
 N2469 N 0.81424 0.61115 0.76333
 N2470 N 0.80176 0.63439 0.76307
 C2471 C 0.80250 0.65012 0.74263
 N2472 N 0.81625 0.64150 0.72229
 N2473 N 0.87994 0.77774 0.17330
 C2474 C 0.90000 0.76207 0.18169
 N2475 N 0.89490 0.74501 0.20050
 N2476 N 0.87084 0.74333 0.21023
 C2477 C 0.85085 0.75856 0.20145
 N2478 N 0.85577 0.77602 0.18300
 N2479 N 0.37984 0.27897 0.67357
 C2480 C 0.40020 0.26478 0.68336
 N2481 N 0.39554 0.24902 0.70320
 N2482 N 0.37141 0.24723 0.71276
 C2483 C 0.35103 0.26101 0.70272
 N2484 N 0.35561 0.27718 0.68315
 N2485 N 0.38799 0.71646 0.81370
 C2486 C 0.40822 0.73134 0.80531
 N2487 N 0.40425 0.74734 0.78543
 N2488 N 0.38066 0.74899 0.77480
 C2489 C 0.36026 0.73483 0.78386
 N2490 N 0.36439 0.71819 0.80317
 N2491 N 0.88854 0.21639 0.31689
 C2492 C 0.90873 0.23130 0.30848
 N2493 N 0.90481 0.24703 0.28840
 N2494 N 0.88131 0.24835 0.27757
 C2495 C 0.86095 0.23411 0.28660
 N2496 N 0.86503 0.21778 0.30615
 N2497 N 0.11781 0.27809 0.32254
 C2498 C 0.09838 0.26211 0.31454
 N2499 N 0.10329 0.24580 0.29501
 N2500 N 0.12694 0.24515 0.28415
 C2501 C 0.14647 0.26070 0.29256
 N2502 N 0.14149 0.27739 0.31174
 N2503 N 0.61725 0.77836 0.82368
 C2504 C 0.59784 0.76257 0.81528
 N2505 N 0.60294 0.74639 0.79572
 N2506 N 0.62672 0.74568 0.78516
 C2507 C 0.64623 0.76105 0.79391
 N2508 N 0.64109 0.77762 0.81316
 N2509 N 0.60109 0.25069 0.70917
 C2510 C 0.59729 0.23517 0.68901
 N2511 N 0.61811 0.22137 0.67935
 N2512 N 0.64199 0.22341 0.68922
 C2513 C 0.64580 0.23935 0.70906
 N2514 N 0.62493 0.25265 0.71911
 N2515 N 0.10031 0.75115 0.21082
 C2516 C 0.09626 0.73544 0.19084
 N2517 N 0.11694 0.72149 0.18112
 N2518 N 0.14092 0.72355 0.19075
 C2519 C 0.14499 0.73966 0.21040
 N2520 N 0.12426 0.75312 0.22053
   
