data_POSCAR
  _audit_creation_date              2014-09-24
  _audit_creation_method            'ToBaCCo'
  _symmetry_space_group_name_H-M    'P1'
  _symmetry_Int_Tables_number       1
  _symmetry_cell_setting            triclinic
  loop_
  _symmetry_equiv_pos_as_xyz
 x,y,z
_cell_length_a 84.3818
_cell_length_b 84.6566
_cell_length_c 86.0790
_cell_angle_alpha 90.031500
_cell_angle_beta 89.892000
_cell_angle_gamma 89.665400
loop_
  _atom_site_label
  _atom_site_type_symbol
  _atom_site_fract_x
  _atom_site_fract_y
  _atom_site_fract_z
N1 N 0.36558 0.31021 0.34465
 N2 N 0.36524 0.32109 0.33376
 C3 C 0.37657 0.31783 0.32316
 C4 C 0.38441 0.30418 0.32774
 C5 C 0.37711 0.29968 0.34139
 H6 H 0.37892 0.32490 0.31297
 H7 H 0.38011 0.28958 0.34851
 Cu8 Cu 0.35025 0.33869 0.33459
 Cu9 Cu 0.35164 0.31093 0.36265
 Cu10 Cu 0.31901 0.33545 0.35877
 N11 N 0.33178 0.35247 0.33279
 N12 N 0.31948 0.35067 0.34199
 C13 C 0.30848 0.36164 0.33859
 C14 C 0.31413 0.37087 0.32667
 C15 C 0.32899 0.36476 0.32317
 H16 H 0.29733 0.36316 0.34466
 H17 H 0.33720 0.36902 0.31450
 N18 N 0.32083 0.31946 0.37517
 N19 N 0.33339 0.31029 0.37692
 C20 C 0.33133 0.30124 0.38964
 C21 C 0.31686 0.30506 0.39625
 C22 C 0.31052 0.31661 0.38674
 H23 H 0.33981 0.29267 0.39394
 H24 H 0.29932 0.32267 0.38823
 H25 H 0.33429 0.31936 0.34829
 H26 H 0.34299 0.33411 0.36191
 N27 N 0.36417 0.81504 -0.16479
 N28 N 0.36174 0.82355 -0.17733
 C29 C 0.37420 0.82199 -0.18698
 C30 C 0.38503 0.81186 -0.18006
 C31 C 0.37827 0.80764 -0.16602
 H32 H 0.37522 0.82785 -0.19812
 H33 H 0.38328 0.79976 -0.15739
 Cu34 Cu 0.34269 0.83602 -0.17977
 Cu35 Cu 0.34872 0.81430 -0.14800
 Cu36 Cu 0.31763 0.84125 -0.14965
 N37 N 0.32762 0.85321 -0.17933
 N38 N 0.31781 0.85556 -0.16763
 C39 C 0.30913 0.86871 -0.17051
 C40 C 0.31399 0.87480 -0.18475
 C41 C 0.32566 0.86466 -0.18993
 H42 H 0.30015 0.87350 -0.16280
 H43 H 0.33243 0.86571 -0.20059
 N44 N 0.31999 0.82549 -0.13267
 N45 N 0.33190 0.81528 -0.13221
 C46 C 0.33017 0.80582 -0.11980
 C47 C 0.31658 0.81020 -0.11200
 C48 C 0.31037 0.82276 -0.12040
 H49 H 0.33811 0.79626 -0.11666
 H50 H 0.29955 0.82922 -0.11794
 H51 H 0.32831 0.82193 -0.15965
 H52 H 0.34156 0.83769 -0.15178
 N53 N 0.85541 0.31744 -0.16444
 N54 N 0.85526 0.32867 -0.17499
 C55 C 0.86725 0.32606 -0.18509
 C56 C 0.87523 0.31248 -0.18052
 C57 C 0.86738 0.30735 -0.16744
 H58 H 0.86990 0.33341 -0.19502
 H59 H 0.87024 0.29701 -0.16059
 Cu60 Cu 0.83928 0.34544 -0.17448
 Cu61 Cu 0.84026 0.31660 -0.14750
 Cu62 Cu 0.81096 0.34529 -0.14673
 N63 N 0.82219 0.36110 -0.17415
 N64 N 0.81114 0.36081 -0.16336
 C65 C 0.80073 0.37262 -0.16590
 C66 C 0.80548 0.38081 -0.17894
 C67 C 0.81918 0.37319 -0.18393
 H68 H 0.79044 0.37510 -0.15878
 H69 H 0.82635 0.37610 -0.19394
 N70 N 0.81274 0.32858 -0.13089
 N71 N 0.82394 0.31764 -0.13123
 C72 C 0.82204 0.30793 -0.11900
 C73 C 0.80907 0.31299 -0.11057
 C74 C 0.80341 0.32611 -0.11841
 H75 H 0.82950 0.29786 -0.11636
 H76 H 0.79327 0.33330 -0.11531
 H77 H 0.82223 0.32793 -0.15951
 H78 H 0.83496 0.34052 -0.14684
 N79 N 0.86410 0.81029 0.33654
 N80 N 0.86511 0.82072 0.32528
 C81 C 0.87767 0.81703 0.31624
 C82 C 0.88480 0.80355 0.32221
 C83 C 0.87586 0.79961 0.33503
 H84 H 0.88132 0.82363 0.30611
 H85 H 0.87789 0.78975 0.34277
 Cu86 Cu 0.84986 0.83808 0.32368
 Cu87 Cu 0.84798 0.81145 0.35264
 Cu88 Cu 0.82137 0.84262 0.35086
 N89 N 0.83497 0.85580 0.32309
 N90 N 0.82396 0.85742 0.33382
 C91 C 0.81533 0.87046 0.33088
 C92 C 0.82120 0.87746 0.31753
 C93 C 0.83366 0.86783 0.31289
 H94 H 0.80549 0.87441 0.33795
 H95 H 0.84117 0.86950 0.30283
 N96 N 0.82066 0.82642 0.36723
 N97 N 0.83089 0.81458 0.36789
 C98 C 0.82773 0.80581 0.38054
 C99 C 0.81493 0.81239 0.38816
 C100 C 0.81066 0.82543 0.37944
 H101 H 0.83433 0.79545 0.38410
 H102 H 0.80121 0.83372 0.38193
 H103 H 0.83109 0.82336 0.33963
 H104 H 0.84483 0.83571 0.35148
 N105 N 0.64153 0.67645 0.32849
 N106 N 0.64168 0.66489 0.31826
 C107 C 0.62922 0.66671 0.30862
 C108 C 0.62085 0.68008 0.31303
 C109 C 0.62901 0.68597 0.32570
 H110 H 0.62646 0.65900 0.29899
 H111 H 0.62622 0.69649 0.33230
 Cu112 Cu 0.65832 0.64872 0.31838
 Cu113 Cu 0.65781 0.67869 0.34442
 Cu114 Cu 0.68704 0.64994 0.34526
 N115 N 0.67461 0.63223 0.31966
 N116 N 0.68566 0.63293 0.33037
 C117 C 0.69540 0.62042 0.32900
 C118 C 0.69032 0.61134 0.31676
 C119 C 0.67705 0.61912 0.31099
 H120 H 0.70558 0.61810 0.33628
 H121 H 0.66980 0.61555 0.30128
 N122 N 0.68670 0.66793 0.35951
 N123 N 0.67541 0.67878 0.35955
 C124 C 0.67831 0.68913 0.37112
 C125 C 0.69211 0.68447 0.37856
 C126 C 0.69710 0.67110 0.37088
 H127 H 0.67098 0.69925 0.37391
 H128 H 0.70746 0.66407 0.37362
 H129 H 0.67527 0.66718 0.33227
 H130 H 0.66282 0.65502 0.34563
 N131 N 0.64063 0.18217 -0.15958
 N132 N 0.63886 0.17262 -0.17148
 C133 C 0.62607 0.17725 -0.17967
 C134 C 0.61962 0.19044 -0.17249
 C135 C 0.62916 0.19325 -0.15985
 H136 H 0.62178 0.17145 -0.19001
 H137 H 0.62770 0.20253 -0.15133
 Cu138 Cu 0.65327 0.15493 -0.17478
 Cu139 Cu 0.65722 0.17923 -0.14438
 Cu140 Cu 0.68322 0.14771 -0.14967
 N141 N 0.66788 0.13740 -0.17771
 N142 N 0.67953 0.13447 -0.16796
 C143 C 0.68752 0.12153 -0.17284
 C144 C 0.68038 0.11610 -0.18633
 C145 C 0.66804 0.12645 -0.18904
 H146 H 0.69764 0.11648 -0.16693
 H147 H 0.65976 0.12592 -0.19858
 N148 N 0.68471 0.16263 -0.13194
 N149 N 0.67464 0.17449 -0.13013
 C150 C 0.67814 0.18230 -0.11704
 C151 C 0.69102 0.17512 -0.11012
 C152 C 0.69501 0.16273 -0.11992
 H153 H 0.67180 0.19257 -0.11289
 H154 H 0.70453 0.15431 -0.11825
 H155 H 0.67341 0.16779 -0.15895
 H156 H 0.66004 0.15485 -0.14723
 N157 N 0.13828 0.68458 -0.16224
 N158 N 0.13824 0.67429 -0.17368
 C159 C 0.12608 0.67765 -0.18329
 C160 C 0.11819 0.69077 -0.17748
 C161 C 0.12623 0.69484 -0.16416
 H162 H 0.12328 0.67114 -0.19373
 H163 H 0.12351 0.70460 -0.15648
 Cu164 Cu 0.15426 0.65773 -0.17487
 Cu165 Cu 0.15387 0.68407 -0.14570
 Cu166 Cu 0.18219 0.65431 -0.14712
 N167 N 0.17002 0.64090 -0.17533
 N168 N 0.18096 0.63966 -0.16453
 C169 C 0.19030 0.62711 -0.16769
 C170 C 0.18486 0.62012 -0.18118
 C171 C 0.17201 0.62914 -0.18570
 H172 H 0.20024 0.62337 -0.16066
 H173 H 0.16469 0.62722 -0.19582
 N174 N 0.18135 0.67032 -0.13049
 N175 N 0.17057 0.68166 -0.13000
 C176 C 0.17308 0.69069 -0.11737
 C177 C 0.18606 0.68471 -0.10954
 C178 C 0.19102 0.67183 -0.11814
 H179 H 0.16597 0.70083 -0.11413
 H180 H 0.20096 0.66416 -0.11555
 H181 H 0.17177 0.67318 -0.15833
 H182 H 0.15839 0.66001 -0.14695
 N183 N 0.14099 0.17953 0.33857
 N184 N 0.14187 0.16879 0.32756
 C185 C 0.12984 0.17103 0.31750
 C186 C 0.12100 0.18387 0.32255
 C187 C 0.12841 0.18896 0.33590
 H188 H 0.12765 0.16384 0.30736
 H189 H 0.12481 0.19877 0.34318
 Cu190 Cu 0.15856 0.15284 0.32762
 Cu191 Cu 0.15598 0.18042 0.35571
 Cu192 Cu 0.18576 0.15210 0.35612
 N193 N 0.17540 0.13702 0.32798
 N194 N 0.18594 0.13682 0.33922
 C195 C 0.19610 0.12476 0.33688
 C196 C 0.19175 0.11698 0.32349
 C197 C 0.17855 0.12504 0.31808
 H198 H 0.20596 0.12181 0.34437
 H199 H 0.17173 0.12237 0.30779
 N200 N 0.18364 0.16852 0.37220
 N201 N 0.17229 0.17932 0.37207
 C202 C 0.17395 0.18874 0.38458
 C203 C 0.18699 0.18360 0.39294
 C204 C 0.19283 0.17081 0.38477
 H205 H 0.16626 0.19859 0.38738
 H206 H 0.20304 0.16369 0.38783
 H207 H 0.17459 0.17007 0.34391
 H208 H 0.16161 0.15674 0.35553
 N209 N 0.63368 0.31567 0.66755
 N210 N 0.63344 0.32649 0.67851
 C211 C 0.62146 0.32334 0.68842
 C212 C 0.61387 0.30982 0.68331
 C213 C 0.62194 0.30531 0.67008
 H214 H 0.61852 0.33031 0.69856
 H215 H 0.61943 0.29518 0.66285
 Cu216 Cu 0.64889 0.34357 0.67859
 Cu217 Cu 0.64918 0.31567 0.65085
 Cu218 Cu 0.67728 0.34537 0.65103
 N219 N 0.66498 0.36001 0.67872
 N220 N 0.67604 0.36064 0.66796
 C221 C 0.68550 0.37308 0.67077
 C222 C 0.68005 0.38064 0.68402
 C223 C 0.66705 0.37204 0.68875
 H224 H 0.69554 0.37636 0.66367
 H225 H 0.65967 0.37444 0.69876
 N226 N 0.67649 0.32880 0.63491
 N227 N 0.66575 0.31752 0.63488
 C228 C 0.66825 0.30807 0.62253
 C229 C 0.68113 0.31363 0.61439
 C230 C 0.68611 0.32680 0.62253
 H231 H 0.66124 0.29784 0.61960
 H232 H 0.69599 0.33433 0.61968
 H233 H 0.66684 0.32724 0.66311
 H234 H 0.65360 0.33980 0.65084
 N235 N 0.64194 0.82005 1.16356
 N236 N 0.64176 0.83085 1.17454
 C237 C 0.62952 0.82805 1.18421
 C238 C 0.62162 0.81478 1.17896
 C239 C 0.62983 0.81003 1.16586
 H240 H 0.62663 0.83508 1.19431
 H241 H 0.62716 0.79999 1.15857
 Cu242 Cu 0.65759 0.84750 1.17523
 Cu243 Cu 0.65783 0.81978 1.14709
 Cu244 Cu 0.68661 0.84877 1.14845
 N245 N 0.67418 0.86341 1.17603
 N246 N 0.68546 0.86380 1.16549
 C247 C 0.69540 0.87571 1.16875
 C248 C 0.69011 0.88319 1.18203
 C249 C 0.67659 0.87510 1.18639
 H250 H 0.70580 0.87868 1.16202
 H251 H 0.66915 0.87746 1.19636
 N252 N 0.68587 0.83258 1.13206
 N253 N 0.67493 0.82152 1.13150
 C254 C 0.67766 0.81230 1.11899
 C255 C 0.69096 0.81787 1.11137
 C256 C 0.69584 0.83069 1.11996
 H257 H 0.67051 0.80229 1.11570
 H258 H 0.70596 0.83806 1.11751
 H259 H 0.67524 0.83058 1.16002
 H260 H 0.66266 0.84361 1.14756
 N261 N 0.13715 0.31955 1.17134
 N262 N 0.13965 0.33015 1.18221
 C263 C 0.12882 0.32830 1.19359
 C264 C 0.11905 0.31592 1.18960
 C265 C 0.12468 0.31062 1.17540
 H266 H 0.12803 0.33541 1.20401
 H267 H 0.12014 0.30098 1.16852
 Cu268 Cu 0.15679 0.34532 1.18035
 Cu269 Cu 0.15015 0.31800 1.15272
 Cu270 Cu 0.18021 0.34540 1.14869
 N271 N 0.17350 0.36083 1.17768
 N272 N 0.18263 0.36076 1.16529
 C273 C 0.19322 0.37253 1.16642
 C274 C 0.19058 0.38041 1.18021
 C275 C 0.17796 0.37270 1.18710
 H276 H 0.20224 0.37515 1.15787
 H277 H 0.17247 0.37544 1.19814
 N278 N 0.17592 0.32891 1.13316
 N279 N 0.16456 0.31837 1.13472
 C280 C 0.16490 0.30856 1.12239
 C281 C 0.17698 0.31319 1.11261
 C282 C 0.18374 0.32611 1.11979
 H283 H 0.15702 0.29869 1.12064
 H284 H 0.19374 0.33287 1.11573
 H285 H 0.17037 0.32777 1.16212
 H286 H 0.15630 0.34161 1.15227
 N287 N 0.13906 0.81727 0.66417
 N288 N 0.14113 0.82897 0.67401
 C289 C 0.12973 0.82850 0.68493
 C290 C 0.12002 0.81587 0.68179
 C291 C 0.12623 0.80894 0.66851
 H292 H 0.12848 0.83679 0.69444
 H293 H 0.12188 0.79863 0.66249
 Cu294 Cu 0.15827 0.84387 0.67136
 Cu295 Cu 0.15317 0.81385 0.64648
 Cu296 Cu 0.18380 0.84083 0.64170
 N297 N 0.17524 0.85897 0.66868
 N298 N 0.18530 0.85774 0.65706
 C299 C 0.19590 0.86955 0.65800
 C300 C 0.19219 0.87866 0.67085
 C301 C 0.17899 0.87162 0.67735
 H302 H 0.20565 0.87132 0.65001
 H303 H 0.17268 0.87530 0.68768
 N304 N 0.18023 0.82286 0.62746
 N305 N 0.16874 0.81251 0.62935
 C306 C 0.16957 0.80172 0.61784
 C307 C 0.18209 0.80553 0.60823
 C308 C 0.18860 0.81898 0.61467
 H309 H 0.16161 0.79185 0.61642
 H310 H 0.19875 0.82540 0.61043
 H311 H 0.17286 0.82454 0.65595
 H312 H 0.15967 0.83720 0.64385
 N313 N 0.35767 0.68174 0.66573
 N314 N 0.35602 0.67068 0.67634
 C315 C 0.36721 0.67246 0.68730
 C316 C 0.37641 0.68523 0.68338
 C317 C 0.37007 0.69091 0.66960
 H318 H 0.36863 0.66504 0.69743
 H319 H 0.37407 0.70096 0.66294
 Cu320 Cu 0.33950 0.65495 0.67493
 Cu321 Cu 0.34338 0.68341 0.64788
 Cu322 Cu 0.31340 0.65553 0.64579
 N323 N 0.32281 0.63935 0.67353
 N324 N 0.31245 0.63978 0.66217
 C325 C 0.30215 0.62783 0.66393
 C326 C 0.30633 0.61945 0.67704
 C327 C 0.31949 0.62708 0.68291
 H328 H 0.29240 0.62531 0.65619
 H329 H 0.32611 0.62400 0.69322
 N330 N 0.31619 0.67228 0.63024
 N331 N 0.32757 0.68291 0.63083
 C332 C 0.32626 0.69250 0.61833
 C333 C 0.31347 0.68752 0.60956
 C334 C 0.30742 0.67476 0.61744
 H335 H 0.33404 0.70226 0.61576
 H336 H 0.29733 0.66777 0.61398
 H337 H 0.32446 0.67317 0.65869
 H338 H 0.33766 0.65995 0.64708
 N339 N 0.36655 0.18397 1.16445
 N340 N 0.36526 0.17203 1.17410
 C341 C 0.37711 0.17270 1.18453
 C342 C 0.38628 0.18573 1.18121
 C343 C 0.37924 0.19264 1.16838
 H344 H 0.37896 0.16440 1.19390
 H345 H 0.38296 0.20320 1.16239
 Cu346 Cu 0.34813 0.15689 1.17208
 Cu347 Cu 0.35165 0.18744 1.14761
 Cu348 Cu 0.32078 0.16077 1.14387
 N349 N 0.33068 0.14214 1.17012
 N350 N 0.32002 0.14365 1.15909
 C351 C 0.30937 0.13192 1.16046
 C352 C 0.31359 0.12262 1.17300
 C353 C 0.32718 0.12944 1.17886
 H354 H 0.29926 0.13029 1.15294
 H355 H 0.33402 0.12549 1.18873
 N356 N 0.32373 0.17895 1.12971
 N357 N 0.33548 0.18906 1.13127
 C358 C 0.33437 0.20009 1.12007
 C359 C 0.32137 0.19681 1.11101
 C360 C 0.31484 0.18332 1.11741
 H361 H 0.34244 0.20984 1.11852
 H362 H 0.30442 0.17717 1.11343
 H363 H 0.33243 0.17643 1.15800
 H364 H 0.34490 0.16404 1.14479
 N365 N 0.86474 0.68247 1.16116
 N366 N 0.86550 0.67244 1.17283
 C367 C 0.87841 0.67578 1.18145
 C368 C 0.88605 0.68856 1.17478
 C369 C 0.87707 0.69244 1.16196
 H370 H 0.88175 0.66963 1.19196
 H371 H 0.87918 0.70208 1.15399
 Cu372 Cu 0.84899 0.65663 1.17613
 Cu373 Cu 0.84749 0.68267 1.14612
 Cu374 Cu 0.81739 0.65612 1.15261
 N375 N 0.83203 0.64109 1.17885
 N376 N 0.81939 0.64193 1.16998
 C377 C 0.80923 0.63053 1.17391
 C378 C 0.81573 0.62182 1.18573
 C379 C 0.83030 0.62876 1.18873
 H380 H 0.79809 0.62825 1.16816
 H381 H 0.83895 0.62506 1.19727
 N382 N 0.81715 0.67109 1.13543
 N383 N 0.82880 0.68094 1.13240
 C384 C 0.82542 0.68872 1.11908
 C385 C 0.81095 0.68333 1.11367
 C386 C 0.80611 0.67230 1.12429
 H387 H 0.83295 0.69743 1.11368
 H388 H 0.79543 0.66534 1.12362
 H389 H 0.83144 0.67422 1.16166
 H390 H 0.84166 0.65943 1.14889
 N391 N 0.86057 0.17832 0.66641
 N392 N 0.85991 0.16836 0.67810
 C393 C 0.87233 0.17082 0.68753
 C394 C 0.88118 0.18302 0.68151
 C395 C 0.87341 0.18755 0.66807
 H396 H 0.87469 0.16434 0.69811
 H397 H 0.87679 0.19684 0.66013
 Cu398 Cu 0.84268 0.15349 0.68036
 Cu399 Cu 0.84457 0.17854 0.65013
 Cu400 Cu 0.81639 0.14891 0.65134
 N401 N 0.82875 0.13539 0.67948
 N402 N 0.81834 0.13365 0.66827
 C403 C 0.81000 0.12037 0.67086
 C404 C 0.81556 0.11348 0.68442
 C405 C 0.82746 0.12329 0.68952
 H406 H 0.80059 0.11614 0.66347
 H407 H 0.83453 0.12180 0.69989
 N408 N 0.81658 0.16554 0.63523
 N409 N 0.82739 0.17675 0.63478
 C410 C 0.82448 0.18622 0.62254
 C411 C 0.81121 0.18071 0.61491
 C412 C 0.80649 0.16763 0.62328
 H413 H 0.83148 0.19641 0.61949
 H414 H 0.79642 0.16021 0.62080
 H415 H 0.82608 0.16828 0.66225
 H416 H 0.84019 0.15452 0.65225
 N417 N 0.32380 0.36477 0.67395
 N418 N 0.33566 0.36369 0.68379
 C419 C 0.33461 0.37552 0.69416
 C420 C 0.32147 0.38453 0.69069
 C421 C 0.31479 0.37743 0.67776
 H422 H 0.34275 0.37749 0.70365
 H423 H 0.30420 0.38109 0.67166
 Cu424 Cu 0.35137 0.34700 0.68242
 Cu425 Cu 0.32114 0.34947 0.65711
 Cu426 Cu 0.34922 0.31930 0.65478
 N427 N 0.36686 0.33006 0.68109
 N428 N 0.36599 0.31919 0.67023
 C429 C 0.37798 0.30881 0.67206
 C430 C 0.38679 0.31343 0.68475
 C431 C 0.37942 0.32696 0.69023
 H432 H 0.38007 0.29856 0.66481
 H433 H 0.38285 0.33396 0.70015
 N434 N 0.33143 0.32137 0.64019
 N435 N 0.32069 0.33276 0.64097
 C436 C 0.31011 0.33070 0.62940
 C437 C 0.31449 0.31737 0.62106
 C438 C 0.32800 0.31182 0.62818
 H439 H 0.29999 0.33827 0.62726
 H440 H 0.33476 0.30147 0.62483
 H441 H 0.33236 0.33100 0.66819
 H442 H 0.34473 0.34343 0.65509
 N443 N 0.33503 0.87244 0.16170
 N444 N 0.34038 0.86933 0.17571
 C445 C 0.33583 0.88104 0.18540
 C446 C 0.32737 0.89212 0.17683
 C447 C 0.32714 0.88626 0.16189
 H448 H 0.33808 0.88117 0.19777
 H449 H 0.32105 0.89134 0.15200
 Cu450 Cu 0.35205 0.84977 0.17983
 Cu451 Cu 0.33762 0.85784 0.14452
 Cu452 Cu 0.34853 0.81976 0.15447
 N453 N 0.36695 0.83201 0.17980
 N454 N 0.36539 0.82013 0.17006
 C455 C 0.37687 0.80936 0.17285
 C456 C 0.38621 0.81485 0.18487
 C457 C 0.37950 0.82922 0.18909
 H458 H 0.37834 0.79835 0.16658
 H459 H 0.38336 0.83708 0.19821
 N460 N 0.33737 0.82482 0.13500
 N461 N 0.33398 0.83950 0.13100
 C462 C 0.32549 0.83940 0.11781
 C463 C 0.32345 0.82396 0.11324
 C464 C 0.33115 0.81492 0.12438
 H465 H 0.32020 0.84975 0.11252
 H466 H 0.33149 0.80218 0.12522
 H467 H 0.33425 0.83988 0.15970
 H468 H 0.35489 0.84245 0.15243
 N469 N 0.82503 0.35576 0.17187
 N470 N 0.83599 0.35274 0.18232
 C471 C 0.83528 0.36382 0.19354
 C472 C 0.82335 0.37437 0.18990
 C473 C 0.81703 0.36890 0.17608
 H474 H 0.84304 0.36438 0.20351
 H475 H 0.80738 0.37405 0.16954
 Cu476 Cu 0.85067 0.33510 0.18022
 Cu477 Cu 0.82203 0.34253 0.15358
 Cu478 Cu 0.84918 0.31227 0.14826
 N479 N 0.86632 0.31861 0.17619
 N480 N 0.86568 0.30980 0.16364
 C481 C 0.87776 0.29938 0.16376
 C482 C 0.88649 0.30180 0.17705
 C483 C 0.87893 0.31411 0.18472
 H484 H 0.88004 0.29061 0.15488
 H485 H 0.88229 0.31936 0.19567
 N486 N 0.83172 0.31637 0.13385
 N487 N 0.82114 0.32774 0.13584
 C488 C 0.81053 0.32710 0.12412
 C489 C 0.81482 0.31475 0.11439
 C490 C 0.82823 0.30828 0.12089
 H491 H 0.80048 0.33496 0.12279
 H492 H 0.83484 0.29823 0.11652
 H493 H 0.83197 0.32238 0.16264
 H494 H 0.84556 0.33634 0.15239
 N495 N 0.81920 0.86269 0.66566
 N496 N 0.83010 0.86224 0.67657
 C497 C 0.82749 0.87419 0.68659
 C498 C 0.81428 0.88252 0.68175
 C499 C 0.80929 0.87492 0.66841
 H500 H 0.83463 0.87671 0.69671
 H501 H 0.79927 0.87804 0.66120
 Cu502 Cu 0.84662 0.84605 0.67675
 Cu503 Cu 0.81874 0.84750 0.64861
 Cu504 Cu 0.84858 0.81929 0.64811
 N505 N 0.86350 0.83018 0.67605
 N506 N 0.86400 0.81979 0.66471
 C507 C 0.87636 0.81000 0.66682
 C508 C 0.88410 0.81441 0.68016
 C509 C 0.87569 0.82731 0.68582
 H510 H 0.87947 0.80024 0.65928
 H511 H 0.87814 0.83394 0.69627
 N512 N 0.83205 0.82045 0.63225
 N513 N 0.82050 0.83104 0.63239
 C514 C 0.81097 0.82840 0.62010
 C515 C 0.81694 0.81557 0.61194
 C516 C 0.83024 0.81089 0.61993
 H517 H 0.80050 0.83525 0.61736
 H518 H 0.83793 0.80107 0.61699
 H519 H 0.82990 0.82957 0.66038
 H520 H 0.84269 0.84320 0.64887
 N521 N 0.67586 0.63410 0.66697
 N522 N 0.66384 0.63460 0.67673
 C523 C 0.66430 0.62170 0.68587
 C524 C 0.67729 0.61266 0.68170
 C525 C 0.68438 0.62085 0.66962
 H526 H 0.65612 0.61925 0.69525
 H527 H 0.69516 0.61770 0.66353
 Cu528 Cu 0.64951 0.65266 0.67743
 Cu529 Cu 0.68040 0.65133 0.65237
 Cu530 Cu 0.65622 0.68442 0.65558
 N531 N 0.63510 0.67075 0.67796
 N532 N 0.63845 0.68335 0.66971
 C533 C 0.62701 0.69423 0.67165
 C534 C 0.61583 0.68824 0.68159
 C535 C 0.62125 0.67326 0.68551
 H536 H 0.62653 0.70555 0.66583
 H537 H 0.61547 0.66480 0.69299
 N538 N 0.67446 0.68335 0.64165
 N539 N 0.68294 0.67043 0.63919
 C540 C 0.69288 0.67311 0.62712
 C541 C 0.69048 0.68852 0.62210
 C542 C 0.67892 0.69458 0.63161
 H543 H 0.70108 0.66454 0.62230
 H544 H 0.67354 0.70616 0.63061
 H545 H 0.67110 0.66813 0.66666
 H546 H 0.65773 0.66016 0.65133
 N547 N 0.68254 0.12965 0.17250
 N548 N 0.67137 0.12914 0.18314
 C549 C 0.67426 0.11690 0.19274
 C550 C 0.68797 0.10937 0.18778
 C551 C 0.69291 0.11777 0.17494
 H552 H 0.66697 0.11376 0.20258
 H553 H 0.70328 0.11537 0.16791
 Cu554 Cu 0.65420 0.14458 0.18346
 Cu555 Cu 0.68279 0.14559 0.15627
 Cu556 Cu 0.65266 0.17367 0.15681
 N557 N 0.63765 0.16065 0.18389
 N558 N 0.63709 0.17202 0.17349
 C559 C 0.62460 0.18150 0.17659
 C560 C 0.61696 0.17574 0.18965
 C561 C 0.62555 0.16253 0.19395
 H562 H 0.62139 0.19181 0.16986
 H563 H 0.62314 0.15494 0.20376
 N564 N 0.66957 0.17327 0.14092
 N565 N 0.68106 0.16260 0.14081
 C566 C 0.69075 0.16544 0.12871
 C567 C 0.68512 0.17845 0.12080
 C568 C 0.67167 0.18316 0.12882
 H569 H 0.70117 0.15856 0.12577
 H570 H 0.66401 0.19305 0.12610
 H571 H 0.67079 0.16282 0.16886
 H572 H 0.65858 0.15002 0.15595
 N573 N 0.18666 0.62651 0.17061
 N574 N 0.17644 0.62653 0.18215
 C575 C 0.17971 0.61428 0.19164
 C576 C 0.19269 0.60624 0.18565
 C577 C 0.19677 0.61431 0.17234
 H578 H 0.17317 0.61144 0.20206
 H579 H 0.20642 0.61149 0.16452
 Cu580 Cu 0.15992 0.64258 0.18332
 Cu581 Cu 0.18620 0.64232 0.15425
 Cu582 Cu 0.15674 0.67114 0.15629
 N583 N 0.14335 0.65852 0.18449
 N584 N 0.14203 0.66966 0.17391
 C585 C 0.12944 0.67890 0.17745
 C586 C 0.12258 0.67315 0.19096
 C587 C 0.13170 0.66028 0.19506
 H588 H 0.12559 0.68897 0.17069
 H589 H 0.12985 0.65271 0.20502
 N590 N 0.17288 0.67033 0.13946
 N591 N 0.18393 0.65922 0.13877
 C592 C 0.19309 0.66168 0.12622
 C593 C 0.18767 0.67492 0.11860
 C594 C 0.17481 0.68019 0.12727
 H595 H 0.20312 0.65444 0.12285
 H596 H 0.16748 0.69042 0.12492
 H597 H 0.17551 0.66027 0.16709
 H598 H 0.16207 0.64746 0.15549
 N599 N 0.17459 0.13121 0.67448
 N600 N 0.16364 0.13168 0.68536
 C601 C 0.16581 0.11941 0.69506
 C602 C 0.17878 0.11082 0.69005
 C603 C 0.18412 0.11862 0.67693
 H604 H 0.15853 0.11683 0.70508
 H605 H 0.19415 0.11543 0.66973
 Cu606 Cu 0.14751 0.14815 0.68595
 Cu607 Cu 0.17556 0.14705 0.65807
 Cu608 Cu 0.14648 0.17622 0.65838
 N609 N 0.13108 0.16436 0.68572
 N610 N 0.13072 0.17531 0.67492
 C611 C 0.11822 0.18494 0.67747
 C612 C 0.11032 0.17967 0.69058
 C613 C 0.11879 0.16661 0.69550
 H614 H 0.11515 0.19498 0.67031
 H615 H 0.11614 0.15934 0.70549
 N616 N 0.16341 0.17517 0.64261
 N617 N 0.17450 0.16410 0.64249
 C618 C 0.18431 0.16668 0.63039
 C619 C 0.17913 0.17995 0.62255
 C620 C 0.16586 0.18505 0.63059
 H621 H 0.19452 0.15948 0.62747
 H622 H 0.15857 0.19523 0.62796
 H623 H 0.16462 0.16506 0.67035
 H624 H 0.15160 0.15226 0.65822
 N625 N 0.32848 0.63325 0.32285
 N626 N 0.33755 0.63655 0.31088
 C627 C 0.33640 0.62492 0.30028
 C628 C 0.32606 0.61372 0.30594
 C629 C 0.32121 0.61939 0.32030
 H630 H 0.34266 0.62457 0.28931
 H631 H 0.31297 0.61394 0.32826
 Cu632 Cu 0.35014 0.65558 0.31033
 Cu633 Cu 0.32670 0.64728 0.34074
 Cu634 Cu 0.35308 0.67852 0.34210
 N635 N 0.36694 0.67088 0.31250
 N636 N 0.36811 0.67992 0.32487
 C637 C 0.38091 0.68924 0.32331
 C638 C 0.38810 0.68573 0.30922
 C639 C 0.37893 0.67405 0.30271
 H640 H 0.38473 0.69778 0.33185
 H641 H 0.38093 0.66820 0.29169
 N642 N 0.33686 0.67482 0.35826
 N643 N 0.32688 0.66287 0.35773
 C644 C 0.31710 0.66369 0.37008
 C645 C 0.32108 0.67675 0.37879
 C646 C 0.33367 0.68356 0.37099
 H647 H 0.30756 0.65557 0.37247
 H648 H 0.33988 0.69421 0.37418
 H649 H 0.33422 0.66818 0.33059
 H650 H 0.34986 0.65468 0.33848
 N651 N 0.31321 0.13387 0.83085
 N652 N 0.32492 0.13227 0.82087
 C653 C 0.32214 0.11953 0.81187
 C654 C 0.30793 0.11293 0.81658
 C655 C 0.30262 0.12233 0.82856
 H656 H 0.32983 0.11540 0.80265
 H657 H 0.29187 0.12075 0.83524
 Cu658 Cu 0.34250 0.14711 0.82078
 Cu659 Cu 0.31268 0.15030 0.84644
 Cu660 Cu 0.34344 0.17719 0.84666
 N661 N 0.35920 0.16286 0.82046
 N662 N 0.35964 0.17446 0.83062
 C663 C 0.37233 0.18356 0.82761
 C664 C 0.38021 0.17731 0.81486
 C665 C 0.37154 0.16423 0.81062
 H666 H 0.37543 0.19403 0.83410
 H667 H 0.37404 0.15640 0.80099
 N668 N 0.32579 0.17781 0.86183
 N669 N 0.31403 0.16761 0.86145
 C670 C 0.30377 0.17095 0.87295
 C671 C 0.30926 0.18380 0.88102
 C672 C 0.32328 0.18795 0.87372
 H673 H 0.29305 0.16447 0.87542
 H674 H 0.33100 0.19760 0.87678
 H675 H 0.32590 0.16665 0.83392
 H676 H 0.33703 0.15386 0.84786
 N677 N 0.82033 0.63634 0.82358
 N678 N 0.82985 0.63881 0.81173
 C679 C 0.82841 0.62702 0.80142
 C680 C 0.81737 0.61654 0.80695
 C681 C 0.81236 0.62277 0.82108
 H682 H 0.83508 0.62602 0.79072
 H683 H 0.80380 0.61775 0.82901
 Cu684 Cu 0.84384 0.65669 0.81075
 Cu685 Cu 0.81969 0.65098 0.84133
 Cu686 Cu 0.84938 0.67934 0.84197
 N687 N 0.86224 0.67002 0.81256
 N688 N 0.86447 0.67895 0.82483
 C689 C 0.87818 0.68686 0.82313
 C690 C 0.88482 0.68250 0.80903
 C691 C 0.87442 0.67181 0.80266
 H692 H 0.88294 0.69504 0.83153
 H693 H 0.87566 0.66575 0.79166
 N694 N 0.83296 0.67778 0.85811
 N695 N 0.82158 0.66712 0.85800
 C696 C 0.81198 0.66972 0.87032
 C697 C 0.81768 0.68264 0.87844
 C698 C 0.83092 0.68739 0.87039
 H699 H 0.80149 0.66296 0.87297
 H700 H 0.83832 0.69738 0.87317
 H701 H 0.82912 0.67071 0.83088
 H702 H 0.84331 0.65575 0.83885
 N703 N 0.82225 0.13354 0.33332
 N704 N 0.83384 0.13404 0.32309
 C705 C 0.83225 0.12188 0.31311
 C706 C 0.81905 0.11331 0.31736
 C707 C 0.81296 0.12107 0.33023
 H708 H 0.84013 0.11933 0.30349
 H709 H 0.80258 0.11793 0.33689
 Cu710 Cu 0.84993 0.15044 0.32409
 Cu711 Cu 0.82001 0.14899 0.34995
 Cu712 Cu 0.84826 0.17850 0.35165
 N713 N 0.86556 0.16727 0.32503
 N714 N 0.86479 0.17818 0.33589
 C715 C 0.87690 0.18828 0.33407
 C716 C 0.88575 0.18348 0.32142
 C717 C 0.87824 0.17009 0.31591
 H718 H 0.87914 0.19839 0.34141
 H719 H 0.88173 0.16295 0.30606
 N720 N 0.83063 0.17688 0.36657
 N721 N 0.81980 0.16571 0.36591
 C722 C 0.80939 0.16787 0.37762
 C723 C 0.81392 0.18096 0.38605
 C724 C 0.82742 0.18640 0.37871
 H725 H 0.79926 0.16047 0.37994
 H726 H 0.83437 0.19655 0.38193
 H727 H 0.83137 0.16712 0.33848
 H728 H 0.84377 0.15452 0.35152
 N729 N 0.68548 0.36437 0.33225
 N730 N 0.67528 0.36489 0.32075
 C731 C 0.67899 0.37696 0.31126
 C732 C 0.69224 0.38438 0.31716
 C733 C 0.69604 0.37610 0.33048
 H734 H 0.67252 0.38011 0.30089
 H735 H 0.70577 0.37847 0.33828
 Cu736 Cu 0.65814 0.34978 0.31920
 Cu737 Cu 0.68424 0.34850 0.34857
 Cu738 Cu 0.65338 0.32163 0.34648
 N739 N 0.64071 0.33497 0.31842
 N740 N 0.63880 0.32396 0.32902
 C741 C 0.62576 0.31552 0.32556
 C742 C 0.61922 0.32167 0.31209
 C743 C 0.62898 0.33394 0.30791
 H744 H 0.62136 0.30575 0.33237
 H745 H 0.62755 0.34156 0.29793
 N746 N 0.66940 0.32131 0.36320
 N747 N 0.68107 0.33161 0.36397
 C748 C 0.68997 0.32841 0.37655
 C749 C 0.68363 0.31547 0.38408
 C750 C 0.67063 0.31125 0.37530
 H751 H 0.70038 0.33495 0.37989
 H752 H 0.66271 0.30153 0.37757
 H753 H 0.67283 0.33139 0.33565
 H754 H 0.65997 0.34511 0.34712
 N755 N 0.68104 0.85469 0.82560
 N756 N 0.66810 0.85810 0.81776
 C757 C 0.67059 0.87136 0.80943
 C758 C 0.68598 0.87632 0.81218
 C759 C 0.69222 0.86545 0.82243
 H760 H 0.66189 0.87689 0.80195
 H761 H 0.70399 0.86551 0.82742
 Cu762 Cu 0.64958 0.84436 0.81893
 Cu763 Cu 0.68248 0.83664 0.83945
 Cu764 Cu 0.64596 0.82258 0.85120
 N765 N 0.63215 0.82949 0.82152
 N766 N 0.63072 0.82122 0.83437
 C767 C 0.61770 0.81217 0.83347
 C768 C 0.61066 0.81474 0.81925
 C769 C 0.62011 0.82586 0.81191
 H770 H 0.61376 0.80413 0.84243
 H771 H 0.61844 0.83085 0.80046
 N772 N 0.66553 0.81864 0.86287
 N773 N 0.67953 0.82352 0.85806
 C774 C 0.69058 0.81911 0.86845
 C775 C 0.68318 0.81093 0.88023
 C776 C 0.66728 0.81084 0.87638
 H777 H 0.70305 0.82196 0.86772
 H778 H 0.65765 0.80574 0.88298
 H779 H 0.66250 0.82348 0.83397
 H780 H 0.66025 0.84220 0.84526
 N781 N 0.17787 0.36576 0.82606
 N782 N 0.16979 0.36344 0.81324
 C783 C 0.17218 0.37555 0.80344
 C784 C 0.18236 0.38601 0.81045
 C785 C 0.18583 0.37946 0.82481
 H786 H 0.16671 0.37679 0.79215
 H787 H 0.19329 0.38437 0.83378
 Cu788 Cu 0.15627 0.34536 0.81072
 Cu789 Cu 0.17670 0.35099 0.84346
 Cu790 Cu 0.14730 0.32245 0.84120
 N791 N 0.13781 0.33210 0.81061
 N792 N 0.13404 0.32319 0.82254
 C793 C 0.12024 0.31586 0.81944
 C794 C 0.11522 0.32062 0.80481
 C795 C 0.12665 0.33086 0.79960
 H796 H 0.11423 0.30794 0.82732
 H797 H 0.12664 0.33726 0.78872
 N798 N 0.16222 0.32399 0.85887
 N799 N 0.17340 0.33484 0.85968
 C800 C 0.18203 0.33241 0.87260
 C801 C 0.17604 0.31940 0.88028
 C802 C 0.16349 0.31439 0.87129
 H803 H 0.19214 0.33939 0.87596
 H804 H 0.15609 0.30424 0.87348
 H805 H 0.16826 0.33101 0.83220
 H806 H 0.15321 0.34589 0.83872
 N807 N 0.17717 0.87299 0.33204
 N808 N 0.17218 0.87015 0.31787
 C809 C 0.17757 0.88151 0.30831
 C810 C 0.18642 0.89200 0.31707
 C811 C 0.18586 0.88625 0.33206
 H812 H 0.17530 0.88200 0.29597
 H813 H 0.19150 0.89123 0.34220
 Cu814 Cu 0.15895 0.85196 0.31347
 Cu815 Cu 0.17199 0.85925 0.34932
 Cu816 Cu 0.15716 0.82248 0.33953
 N817 N 0.14277 0.83575 0.31223
 N818 N 0.14201 0.82411 0.32233
 C819 C 0.12998 0.81450 0.31837
 C820 C 0.12282 0.82056 0.30512
 C821 C 0.13127 0.83399 0.30159
 H822 H 0.12681 0.80391 0.32463
 H823 H 0.12921 0.84190 0.29193
 N824 N 0.16771 0.82673 0.35959
 N825 N 0.17255 0.84102 0.36344
 C826 C 0.18002 0.84033 0.37718
 C827 C 0.17998 0.82493 0.38231
 C828 C 0.17202 0.81653 0.37091
 H829 H 0.18603 0.85014 0.38258
 H830 H 0.17015 0.80391 0.37049
 H831 H 0.17397 0.84029 0.33484
 H832 H 0.15337 0.84579 0.34071
 O833 O 0.26067 1.02059 0.22692
 O834 O 0.23548 0.98931 0.24293
 O835 O 0.23494 1.02010 0.24353
 O836 O 0.26208 0.98963 0.22764
 O837 O 0.27584 0.99015 0.24943
 O838 O 0.24893 1.02033 0.26518
 O839 O 0.24923 0.98959 0.26474
 O840 O 0.27465 1.02103 0.24857
 Cu841 Cu 0.24695 1.00487 0.23305
 Cu842 Cu 0.26357 1.00530 0.25914
 C843 C 0.27182 1.02628 0.23501
 C844 C 0.23803 0.98410 0.25651
 C845 C 0.23742 1.02542 0.25711
 C846 C 0.27350 0.98462 0.23596
 O847 O 0.23741 0.48968 0.76306
 O848 O 0.25790 0.51953 0.73917
 O849 O 0.25394 0.48902 0.73753
 O850 O 0.23961 0.52037 0.76341
 O851 O 0.26100 0.51801 0.77799
 O852 O 0.27518 0.48592 0.75220
 O853 O 0.27927 0.51646 0.75368
 O854 O 0.25870 0.48736 0.77779
 Cu855 Cu 0.24508 0.50491 0.74934
 Cu856 Cu 0.27070 0.50165 0.76684
 C857 C 0.24463 0.48346 0.77451
 C858 C 0.27212 0.52311 0.74250
 C859 C 0.26689 0.48202 0.74048
 C860 C 0.24781 0.52465 0.77500
 O861 O 0.76004 0.01033 0.27079
 O862 O 0.73886 -0.02085 0.24938
 O863 O 0.73818 0.01000 0.24959
 O864 O 0.76082 -0.02067 0.27058
 O865 O 0.74238 -0.02092 0.28883
 O866 O 0.71973 0.00948 0.26782
 O867 O 0.72047 -0.02125 0.26767
 O868 O 0.74156 0.00988 0.28898
 Cu869 Cu 0.75135 -0.00527 0.25826
 Cu870 Cu 0.72921 -0.00576 0.28017
 C871 C 0.75426 0.01554 0.28345
 C872 C 0.72607 -0.02638 0.25493
 C873 C 0.72515 0.01500 0.25520
 C874 C 0.75534 -0.02609 0.28325
 O875 O 0.75687 0.48302 0.72133
 O876 O 0.77260 0.51381 0.74765
 O877 O 0.77580 0.48321 0.74507
 O878 O 0.75570 0.51386 0.72234
 O879 O 0.73453 0.51211 0.73735
 O880 O 0.75467 0.48050 0.76000
 O881 O 0.75154 0.51117 0.76267
 O882 O 0.73567 0.48120 0.73628
 Cu883 Cu 0.76734 0.49873 0.73262
 Cu884 Cu 0.74199 0.49605 0.75056
 C885 C 0.74356 0.47679 0.72447
 C886 C 0.76467 0.51769 0.75967
 C887 C 0.76873 0.47646 0.75621
 C888 C 0.74182 0.51832 0.72593
 O889 O 0.27326 0.50717 0.25959
 O890 O 0.24975 0.47653 0.23957
 O891 O 0.24895 0.50731 0.24118
 O892 O 0.27509 0.47637 0.25686
 O893 O 0.25932 0.47401 0.27721
 O894 O 0.23357 0.50571 0.26190
 O895 O 0.23406 0.47502 0.26009
 O896 O 0.25794 0.50461 0.28027
 Cu897 Cu 0.26334 0.49203 0.24724
 Cu898 Cu 0.24470 0.48963 0.27194
 C899 C 0.26946 0.51112 0.27337
 C900 C 0.23784 0.47062 0.24650
 C901 C 0.23694 0.51191 0.24888
 C902 C 0.27156 0.46977 0.26961
 O903 O 0.74167 1.01129 0.76275
 O904 O 0.75656 0.98121 0.73579
 O905 O 0.75852 1.01200 0.73734
 O906 O 0.73741 0.98081 0.75941
 O907 O 0.71626 0.98497 0.74486
 O908 O 0.73752 1.01466 0.72227
 O909 O 0.73533 0.98392 0.72108
 O910 O 0.72084 1.01535 0.74776
 Cu911 Cu 0.75064 0.99600 0.75030
 Cu912 Cu 0.72540 1.00008 0.73254
 C913 C 0.72889 1.01862 0.75982
 C914 C 0.74851 0.97719 0.72403
 C915 C 0.75147 1.01858 0.72596
 C916 C 0.72317 0.97760 0.75573
 O917 O 0.73500 0.48343 0.23966
 O918 O 0.76166 0.51509 0.22584
 O919 O 0.75945 0.48472 0.22122
 O920 O 0.73494 0.51413 0.24085
 O921 O 0.74972 0.51220 0.26193
 O922 O 0.77387 0.48116 0.24233
 O923 O 0.77658 0.51179 0.24664
 O924 O 0.74955 0.48142 0.26086
 Cu925 Cu 0.74637 0.49961 0.22980
 Cu926 Cu 0.76392 0.49642 0.25502
 C927 C 0.73782 0.47709 0.25278
 C928 C 0.77367 0.51881 0.23399
 C929 C 0.77053 0.47768 0.22831
 C930 C 0.73809 0.51831 0.25460
 O931 O 0.24878 -0.02510 0.73060
 O932 O 0.27350 0.00498 0.74919
 O933 O 0.26819 -0.02496 0.75417
 O934 O 0.25261 0.00533 0.72711
 O935 O 0.23317 0.01022 0.74366
 O936 O 0.24886 -0.01946 0.77067
 O937 O 0.25408 0.01046 0.76560
 O938 O 0.22942 -0.02009 0.74721
 Cu939 Cu 0.26271 -0.01053 0.73862
 Cu940 Cu 0.23945 -0.00422 0.75844
 C941 C 0.23494 -0.02777 0.73571
 C942 C 0.26794 0.01300 0.76039
 C943 C 0.26113 -0.02733 0.76703
 C944 C 0.24023 0.01304 0.73093
 O945 O 0.25598 0.24442 0.97854
 O946 O 0.23297 0.26554 1.00885
 O947 O 0.23475 0.26680 0.97851
 O948 O 0.25228 0.24149 1.00856
 O949 O 0.27174 0.25851 1.01182
 O950 O 0.25452 0.28360 0.98080
 O951 O 0.25251 0.28264 1.01100
 O952 O 0.27568 0.26116 0.98180
 Cu953 Cu 0.24204 0.25287 0.99333
 Cu954 Cu 0.26556 0.27316 0.99664
 C955 C 0.26977 0.24930 0.97502
 C956 C 0.23898 0.27775 1.01507
 C957 C 0.24166 0.27938 0.97437
 C958 C 0.26482 0.24569 1.01545
 O959 O 0.25182 0.77283 0.47272
 O960 O 0.27869 0.75927 0.50402
 O961 O 0.27812 0.75649 0.47375
 O962 O 0.25341 0.77679 0.50267
 O963 O 0.23904 0.75531 0.50587
 O964 O 0.26371 0.73494 0.47622
 O965 O 0.26431 0.73772 0.50648
 O966 O 0.23747 0.75130 0.47569
 Cu967 Cu 0.26695 0.76848 0.48796
 Cu968 Cu 0.24970 0.74266 0.49132
 C969 C 0.24006 0.76432 0.46891
 C970 C 0.27590 0.74619 0.51069
 C971 C 0.27512 0.74236 0.46994
 C972 C 0.24222 0.76956 0.50937
 O973 O 0.22142 0.75987 -0.00681
 O974 O 0.24881 0.77490 0.02336
 O975 O 0.24515 0.77927 -0.00656
 O976 O 0.22312 0.75801 0.02346
 O977 O 0.23867 0.73714 0.02053
 O978 O 0.26057 0.75847 -0.01043
 O979 O 0.26426 0.75410 0.01962
 O980 O 0.23700 0.73903 -0.00967
 Cu981 Cu 0.23311 0.77009 0.00872
 Cu982 Cu 0.25169 0.74515 0.00470
 C983 C 0.22472 0.74681 -0.01343
 C984 C 0.26115 0.76687 0.02667
 C985 C 0.25633 0.77251 -0.01384
 C986 C 0.22710 0.74409 0.02724
 O987 O 0.25007 0.26564 0.49583
 O988 O 0.22722 0.24498 0.52589
 O989 O 0.22791 0.24464 0.49550
 O990 O 0.24860 0.26702 0.52609
 O991 O 0.23014 0.28558 0.52494
 O992 O 0.20939 0.26317 0.49467
 O993 O 0.20877 0.26355 0.52500
 O994 O 0.23162 0.28421 0.49465
 Cu995 Cu 0.24029 0.25369 0.51098
 Cu996 Cu 0.21813 0.27599 0.50974
 C997 C 0.24467 0.27833 0.48998
 C998 C 0.21417 0.25076 0.53065
 C999 C 0.21519 0.25025 0.48976
 C1000 C 0.24285 0.28012 0.53072
 O1001 O 0.73574 0.75695 0.97918
 O1002 O 0.76418 0.74089 1.00685
 O1003 O 0.75903 0.73681 0.97728
 O1004 O 0.73896 0.75856 1.00927
 O1005 O 0.72300 0.73823 1.01255
 O1006 O 0.74331 0.71650 0.98157
 O1007 O 0.74834 0.72069 1.01127
 O1008 O 0.71983 0.73663 0.98254
 Cu1009 Cu 0.75103 0.75033 0.99274
 Cu1010 Cu 0.73208 0.72595 0.99737
 C1011 C 0.72310 0.74966 0.97596
 C1012 C 0.76109 0.72820 1.01394
 C1013 C 0.75445 0.72289 0.97402
 C1014 C 0.72748 0.75195 1.01632
 O1015 O 0.78349 0.26209 0.51530
 O1016 O 0.76254 0.28414 0.48461
 O1017 O 0.76244 0.28458 0.51490
 O1018 O 0.78407 0.26209 0.48501
 O1019 O 0.76521 0.24411 0.48483
 O1020 O 0.74353 0.26665 0.51490
 O1021 O 0.74366 0.26618 0.48446
 O1022 O 0.76463 0.24411 0.51528
 Cu1023 Cu 0.77502 0.27501 0.49996
 Cu1024 Cu 0.75236 0.25346 0.49986
 C1025 C 0.77758 0.24943 0.52061
 C1026 C 0.74962 0.27886 0.47922
 C1027 C 0.74939 0.27940 0.52009
 C1028 C 0.77830 0.24938 0.47973
 O1029 O 0.74978 0.26437 -0.01018
 O1030 O 0.72980 0.24213 0.02106
 O1031 O 0.73104 0.24019 -0.00928
 O1032 O 0.74950 0.26565 0.02010
 O1033 O 0.72915 0.28213 0.01913
 O1034 O 0.71064 0.25661 -0.01041
 O1035 O 0.70948 0.25866 0.01980
 O1036 O 0.72942 0.28086 -0.01116
 Cu1037 Cu 0.74208 0.25143 0.00556
 Cu1038 Cu 0.71763 0.27120 0.00420
 C1039 C 0.74291 0.27637 -0.01603
 C1040 C 0.71624 0.24673 0.02580
 C1041 C 0.71773 0.24415 -0.01494
 C1042 C 0.74251 0.27814 0.02470
 O1043 O 0.75662 0.76334 0.48478
 O1044 O 0.74215 0.73388 0.51217
 O1045 O 0.73819 0.73912 0.48248
 O1046 O 0.75764 0.76040 0.51477
 O1047 O 0.73605 0.77502 0.51757
 O1048 O 0.71636 0.75301 0.48674
 O1049 O 0.72080 0.74845 0.51653
 O1050 O 0.73475 0.77754 0.48740
 Cu1051 Cu 0.75078 0.74773 0.49823
 Cu1052 Cu 0.72481 0.76488 0.50243
 C1053 C 0.74828 0.77529 0.48119
 C1054 C 0.72921 0.73621 0.51927
 C1055 C 0.72391 0.74263 0.47911
 C1056 C 0.75007 0.77151 0.52153
 O1057 O 1.02021 0.25503 0.24374
 O1058 O 0.98914 0.23273 0.26466
 O1059 O 1.02015 0.23177 0.26344
 O1060 O 0.98948 0.25698 0.24625
 O1061 O 0.98718 0.24038 0.22658
 O1062 O 1.01877 0.21534 0.24357
 O1063 O 0.98783 0.21604 0.24498
 O1064 O 1.01790 0.23861 0.22392
 Cu1065 Cu 1.00494 0.24575 0.25653
 Cu1066 Cu 1.00273 0.22593 0.23279
 C1067 C 1.02428 0.25053 0.23020
 C1068 C 0.98315 0.22061 0.25824
 C1069 C 1.02488 0.21943 0.25642
 C1070 C 0.98300 0.25297 0.23360
 O1071 O 0.48373 0.25900 0.74501
 O1072 O 0.51323 0.23302 0.76288
 O1073 O 0.48249 0.23597 0.76492
 O1074 O 0.51460 0.25730 0.74446
 O1075 O 0.51613 0.27393 0.76418
 O1076 O 0.48485 0.25242 0.78469
 O1077 O 0.51567 0.24962 0.78253
 O1078 O 0.48531 0.27554 0.76479
 Cu1079 Cu 0.49831 0.24467 0.75235
 Cu1080 Cu 0.50067 0.26451 0.77605
 C1081 C 0.47936 0.27158 0.75181
 C1082 C 0.51965 0.23693 0.77558
 C1083 C 0.47821 0.24069 0.77834
 C1084 C 0.52081 0.26928 0.75094
 O1085 O -0.02240 0.24315 0.73515
 O1086 O 0.00647 0.25993 0.76217
 O1087 O -0.02407 0.26288 0.75824
 O1088 O 0.00837 0.24186 0.73778
 O1089 O 0.01091 0.26221 0.72193
 O1090 O -0.02076 0.28335 0.74270
 O1091 O 0.00992 0.28020 0.74640
 O1092 O -0.01989 0.26363 0.71949
 Cu1093 Cu -0.00822 0.24992 0.74989
 Cu1094 Cu -0.00466 0.27442 0.73109
 C1095 C -0.02622 0.25047 0.72284
 C1096 C 0.01330 0.27277 0.75883
 C1097 C -0.02794 0.27673 0.75385
 C1098 C 0.01515 0.24855 0.72634
 O1099 O 0.51532 0.25341 0.26684
 O1100 O 0.48560 0.23774 0.23991
 O1101 O 0.51646 0.23612 0.24185
 O1102 O 0.48459 0.25628 0.26394
 O1103 O 0.48747 0.27735 0.24910
 O1104 O 0.51878 0.25720 0.22692
 O1105 O 0.48800 0.25884 0.22504
 O1106 O 0.51818 0.27442 0.25192
 Cu1107 Cu 0.50024 0.24378 0.25463
 Cu1108 Cu 0.50339 0.26908 0.23678
 C1109 C 0.52193 0.26649 0.26392
 C1110 C 0.48161 0.24563 0.22799
 C1111 C 0.52305 0.24332 0.23061
 C1112 C 0.48056 0.27026 0.26015
 O1113 O 1.01488 0.73068 0.74918
 O1114 O 0.98363 0.75659 0.73337
 O1115 O 1.01358 0.75171 0.72735
 O1116 O 0.98490 0.73510 0.75480
 O1117 O 0.99055 0.75357 0.77201
 O1118 O 1.01973 0.77004 0.74455
 O1119 O 0.98966 0.77504 0.75048
 O1120 O 1.02059 0.74903 0.76650
 Cu1121 Cu 0.99861 0.74169 0.73944
 Cu1122 Cu 1.00576 0.76380 0.76009
 C1123 C 1.02307 0.73550 0.76057
 C1124 C 0.98126 0.77016 0.73929
 C1125 C 1.02170 0.76358 0.73134
 C1126 C 0.98275 0.74147 0.76800
 O1127 O 0.49022 0.76726 0.24292
 O1128 O 0.52183 0.74551 0.26376
 O1129 O 0.49081 0.74598 0.26460
 O1130 O 0.52139 0.76725 0.24228
 O1131 O 0.52163 0.78586 0.26026
 O1132 O 0.49132 0.76453 0.28263
 O1133 O 0.52219 0.76419 0.28167
 O1134 O 0.49070 0.78581 0.26096
 Cu1135 Cu 0.50605 0.75464 0.25156
 Cu1136 Cu 0.50653 0.77697 0.27315
 C1137 C 0.48495 0.78014 0.24855
 C1138 C 0.52740 0.75121 0.27626
 C1139 C 0.48578 0.75171 0.27735
 C1140 C 0.52678 0.78016 0.24758
 O1141 O -0.01074 0.76884 0.24981
 O1142 O 0.01879 0.74697 0.22755
 O1143 O -0.01250 0.74430 0.23052
 O1144 O 0.01986 0.76544 0.25125
 O1145 O 0.01952 0.74668 0.26908
 O1146 O -0.01091 0.72525 0.24796
 O1147 O 0.01958 0.72820 0.24535
 O1148 O -0.01187 0.74975 0.26724
 Cu1149 Cu 0.00355 0.75793 0.23804
 Cu1150 Cu 0.00384 0.73594 0.25917
 C1151 C -0.01655 0.76313 0.26212
 C1152 C 0.02455 0.73416 0.23264
 C1153 C -0.01708 0.73100 0.23582
 C1154 C 0.02522 0.75938 0.26379
 O1155 O 0.51199 0.75870 0.75958
 O1156 O 0.47823 0.73936 0.73951
 O1157 O 0.50852 0.73346 0.74242
 O1158 O 0.48130 0.76222 0.75959
 O1159 O 0.48390 0.77800 0.73934
 O1160 O 0.51232 0.74928 0.72238
 O1161 O 0.48212 0.75505 0.71938
 O1162 O 0.51466 0.77454 0.73937
 Cu1163 Cu 0.49469 0.74687 0.75227
 Cu1164 Cu 0.49859 0.76576 0.72812
 C1165 C 0.51899 0.77005 0.75273
 C1166 C 0.47452 0.74406 0.72592
 C1167 C 0.51521 0.73646 0.72961
 C1168 C 0.47779 0.77487 0.75250
 C1169 C 0.39788 0.29600 0.32030
 C1170 C 0.40587 0.30215 0.30749
 C1171 C 0.41965 0.29409 0.30049
 N1172 N 0.42762 0.30106 0.28866
 N1173 N 0.44012 0.29395 0.28220
 C1174 C 0.44514 0.27959 0.28733
 N1175 N 0.43716 0.27261 0.29915
 N1176 N 0.42466 0.27974 0.30563
 C1177 C 0.45879 0.27149 0.28012
 C1178 C 0.46759 0.27848 0.26828
 H1179 H 0.40215 0.31334 0.30257
 H1180 H 0.46182 0.25970 0.28405
 H1181 H 0.40184 0.28496 0.32537
 H1182 H 0.46458 0.29032 0.26445
 C1183 C 0.39963 0.80663 0.81428
 C1184 C 0.40571 0.81136 0.79992
 C1185 C 0.42058 0.80478 0.79369
 N1186 N 0.42549 0.80875 0.77919
 N1187 N 0.43854 0.80225 0.77312
 C1188 C 0.44715 0.79160 0.78140
 N1189 N 0.44233 0.78778 0.79595
 N1190 N 0.42930 0.79425 0.80200
 C1191 C 0.46083 0.78333 0.77465
 C1192 C 0.46616 0.78575 0.75950
 H1193 H 0.39924 0.81964 0.79269
 H1194 H 0.46633 0.77423 0.78168
 H1195 H 0.40637 0.79839 0.82136
 H1196 H 0.46121 0.79516 0.75249
 C1197 C -0.11094 0.30459 0.81243
 C1198 C -0.10276 0.31067 0.79973
 C1199 C -0.08891 0.30242 0.79305
 N1200 N -0.08079 0.30901 0.78110
 N1201 N -0.06830 0.30162 0.77492
 C1202 C -0.06346 0.28735 0.78044
 N1203 N -0.07157 0.28077 0.79239
 N1204 N -0.08405 0.28817 0.79859
 C1205 C -0.04985 0.27891 0.77355
 C1206 C -0.04100 0.28533 0.76145
 H1207 H -0.10646 0.32176 0.79459
 H1208 H -0.04688 0.26729 0.77799
 H1209 H -0.10700 0.29361 0.81764
 H1210 H -0.04396 0.29698 0.75708
 C1211 C -0.10112 0.79487 0.31664
 C1212 C -0.09169 0.80023 0.30446
 C1213 C -0.07762 0.79144 0.29903
 N1214 N -0.06860 0.79749 0.28744
 N1215 N -0.05595 0.78963 0.28223
 C1216 C -0.05181 0.77542 0.28838
 N1217 N -0.06081 0.76937 0.30000
 N1218 N -0.07348 0.77725 0.30524
 C1219 C -0.03812 0.76643 0.28226
 C1220 C -0.02902 0.77228 0.27005
 H1221 H -0.09460 0.81125 0.29874
 H1222 H -0.03559 0.75482 0.28697
 H1223 H -0.09799 0.78399 0.32253
 H1224 H -0.03175 0.78385 0.26536
 C1225 C 0.60664 0.68663 0.30530
 C1226 C 0.59884 0.70017 0.31067
 C1227 C 0.58512 0.70727 0.30263
 N1228 N 0.57834 0.72061 0.30841
 N1229 N 0.56617 0.72746 0.30116
 C1230 C 0.56029 0.72123 0.28783
 N1231 N 0.56702 0.70783 0.28208
 N1232 N 0.57921 0.70098 0.28933
 C1233 C 0.54704 0.72889 0.27951
 C1234 C 0.54016 0.74297 0.28472
 H1235 H 0.60303 0.70601 0.32105
 H1236 H 0.54281 0.72348 0.26891
 H1237 H 0.60235 0.68069 0.29500
 H1238 H 0.54448 0.74841 0.29528
 C1239 C 0.60543 0.19958 0.82329
 C1240 C 0.59544 0.19508 0.81125
 C1241 C 0.58122 0.20424 0.80723
 N1242 N 0.57175 0.19931 0.79551
 N1243 N 0.55896 0.20764 0.79154
 C1244 C 0.55515 0.22121 0.79916
 N1245 N 0.56458 0.22610 0.81094
 N1246 N 0.57738 0.21776 0.81491
 C1247 C 0.54143 0.23084 0.79446
 C1248 C 0.53206 0.22659 0.78187
 H1249 H 0.59801 0.18452 0.80460
 H1250 H 0.53916 0.24183 0.80053
 H1251 H 0.60270 0.21004 0.83007
 H1252 H 0.53450 0.21567 0.77571
 C1253 C 1.10434 0.69919 0.81628
 C1254 C 1.09638 0.69447 0.80291
 C1255 C 1.08276 0.70350 0.79694
 N1256 N 1.07490 0.69847 0.78413
 N1257 N 1.06265 0.70673 0.77857
 C1258 C 1.05786 0.72031 0.78563
 N1259 N 1.06571 0.72530 0.79843
 N1260 N 1.07791 0.71705 0.80399
 C1261 C 1.04464 0.72982 0.77960
 C1262 C 1.03568 0.72529 0.76679
 H1263 H 1.10020 0.68401 0.79666
 H1264 H 1.04200 0.74089 0.78539
 H1265 H 1.10032 0.70957 0.82253
 H1266 H 1.03809 0.71414 0.76106
 C1267 C 1.10665 0.19091 0.31571
 C1268 C 1.09958 0.18517 0.30223
 C1269 C 1.08520 0.19256 0.29577
 N1270 N 1.07876 0.18701 0.28241
 N1271 N 1.06586 0.19380 0.27639
 C1272 C 1.05893 0.20637 0.28357
 N1273 N 1.06533 0.21185 0.29694
 N1274 N 1.07821 0.20508 0.30294
 C1275 C 1.04501 0.21443 0.27703
 C1276 C 1.03785 0.20995 0.26313
 H1277 H 1.10468 0.17514 0.29620
 H1278 H 1.04054 0.22466 0.28325
 H1279 H 1.10150 0.20102 0.32162
 H1280 H 1.04216 0.19973 0.25681
 C1281 C 0.60019 0.30151 0.69003
 C1282 C 0.59255 0.30647 0.70355
 C1283 C 0.57896 0.29786 0.71010
 N1284 N 0.57213 0.30294 0.72348
 N1285 N 0.55991 0.29522 0.72962
 C1286 C 0.55405 0.28212 0.72261
 N1287 N 0.56086 0.27704 0.70920
 N1288 N 0.57309 0.28477 0.70306
 C1289 C 0.54066 0.27337 0.72941
 C1290 C 0.53370 0.27803 0.74339
 H1291 H 0.59664 0.31688 0.70961
 H1292 H 0.53642 0.26294 0.72347
 H1293 H 0.59607 0.29105 0.68407
 H1294 H 0.53813 0.28837 0.74935
 C1295 C 0.60758 0.80699 0.18563
 C1296 C 0.59975 0.81278 0.19875
 C1297 C 0.58585 0.80493 0.20557
 N1298 N 0.57869 0.81130 0.21825
 N1299 N 0.56620 0.80432 0.22471
 C1300 C 0.56038 0.79068 0.21874
 N1301 N 0.56754 0.78430 0.20605
 N1302 N 0.58003 0.79129 0.19957
 C1303 C 0.54679 0.78267 0.22601
 C1304 C 0.53936 0.78868 0.23927
 H1305 H 0.60390 0.82344 0.20432
 H1306 H 0.54288 0.77158 0.22110
 H1307 H 0.60332 0.79640 0.17999
 H1308 H 0.54333 0.79976 0.24418
 C1309 C 1.10562 0.30987 0.19875
 C1310 C 1.09601 0.29776 0.19328
 C1311 C 1.08272 0.29129 0.20225
 N1312 N 1.07395 0.27951 0.19606
 N1313 N 1.06201 0.27324 0.20401
 C1314 C 1.05835 0.27852 0.21849
 N1315 N 1.06708 0.29037 0.22469
 N1316 N 1.07905 0.29666 0.21672
 C1317 C 1.04537 0.27132 0.22747
 C1318 C 1.03660 0.25886 0.22141
 H1319 H 1.09826 0.29267 0.18195
 H1320 H 1.04297 0.27561 0.23910
 H1321 H 1.10328 0.31510 0.21001
 H1322 H 1.03917 0.25459 0.20980
 C1323 C 1.10614 0.81133 0.69104
 C1324 C 1.09611 0.79905 0.68690
 C1325 C 1.08237 0.79479 0.69656
 N1326 N 1.07255 0.78305 0.69196
 N1327 N 1.06021 0.77894 0.70073
 C1328 C 1.05725 0.78642 0.71441
 N1329 N 1.06701 0.79822 0.71895
 N1330 N 1.07933 0.80234 0.71018
 C1331 C 1.04405 0.78167 0.72451
 C1332 C 1.03376 0.76953 0.72052
 H1333 H 1.09829 0.79242 0.67634
 H1334 H 1.04274 0.78756 0.73561
 H1335 H 1.10381 0.81801 0.70154
 H1336 H 1.03509 0.76364 0.70941
 C1337 C 0.38993 0.69102 0.69250
 C1338 C 0.39943 0.70348 0.68769
 C1339 C 0.41295 0.70899 0.69700
 N1340 N 0.42221 0.72077 0.69151
 N1341 N 0.43446 0.72594 0.69977
 C1342 C 0.43795 0.71954 0.71384
 N1343 N 0.42867 0.70775 0.71935
 N1344 N 0.41641 0.70256 0.71108
 C1345 C 0.45143 0.72537 0.72307
 C1346 C 0.46128 0.73712 0.71727
 H1347 H 0.39705 0.70931 0.67674
 H1348 H 0.45352 0.72049 0.73452
 H1349 H 0.39254 0.68508 0.70334
 H1350 H 0.45909 0.74179 0.70575
 C1351 C 0.40034 0.19089 0.18989
 C1352 C 0.40902 0.20419 0.18571
 C1353 C 0.42281 0.20952 0.19468
 N1354 N 0.43062 0.22279 0.19037
 N1355 N 0.44296 0.22791 0.19854
 C1356 C 0.44796 0.21992 0.21132
 N1357 N 0.44020 0.20661 0.21558
 N1358 N 0.42786 0.20150 0.20742
 C1359 C 0.46128 0.22557 0.22076
 C1360 C 0.46924 0.23959 0.21757
 H1361 H 0.40556 0.21108 0.17568
 H1362 H 0.46458 0.21865 0.23085
 H1363 H 0.40385 0.18401 0.19992
 H1364 H 0.46596 0.24660 0.20755
 C1365 C -0.09981 0.69717 0.18013
 C1366 C -0.09102 0.69258 0.19307
 C1367 C -0.07723 0.70162 0.19861
 N1368 N -0.06884 0.69628 0.21097
 N1369 N -0.05651 0.70438 0.21633
 C1370 C -0.05208 0.71817 0.20956
 N1371 N -0.06047 0.72351 0.19716
 N1372 N -0.07280 0.71539 0.19178
 C1373 C -0.03864 0.72738 0.21571
 C1374 C -0.02980 0.72194 0.22831
 H1375 H -0.09432 0.68209 0.19944
 H1376 H -0.03593 0.73869 0.21050
 H1377 H -0.09632 0.70754 0.17364
 H1378 H -0.03267 0.71062 0.23342
 C1379 C -0.10446 0.18958 0.68862
 C1380 C -0.09698 0.20316 0.68321
 C1381 C -0.08319 0.20978 0.69135
 N1382 N -0.07676 0.22365 0.68665
 N1383 N -0.06456 0.22990 0.69429
 C1384 C -0.05836 0.22245 0.70690
 N1385 N -0.06473 0.20855 0.71150
 N1386 N -0.07690 0.20234 0.70389
 C1387 C -0.04530 0.22923 0.71592
 C1388 C -0.03832 0.24372 0.71251
 H1389 H -0.10157 0.20934 0.67316
 H1390 H -0.04135 0.22266 0.72602
 H1391 H -0.09996 0.18369 0.69888
 H1392 H -0.04207 0.25038 0.70241
 C1393 C 0.30577 0.38467 0.32028
 C1394 C 0.31195 0.39439 0.30874
 C1395 C 0.30314 0.40845 0.30343
 N1396 N 0.30865 0.41727 0.29144
 N1397 N 0.30063 0.42996 0.28660
 C1398 C 0.28684 0.43432 0.29364
 N1399 N 0.28140 0.42555 0.30566
 N1400 N 0.28938 0.41287 0.31046
 C1401 C 0.27759 0.44807 0.28839
 C1402 C 0.28172 0.45690 0.27537
 H1403 H 0.32335 0.39171 0.30356
 H1404 H 0.26684 0.45097 0.29471
 H1405 H 0.29424 0.38738 0.32518
 H1406 H 0.29231 0.45390 0.26885
 C1407 C 0.30906 -0.11177 0.80721
 C1408 C 0.29731 -0.10129 0.81223
 C1409 C 0.29295 -0.08743 0.80269
 N1410 N 0.28079 -0.07783 0.80701
 N1411 N 0.27663 -0.06552 0.79821
 C1412 C 0.28452 -0.06235 0.78478
 N1413 N 0.29674 -0.07187 0.78054
 N1414 N 0.30088 -0.08416 0.78932
 C1415 C 0.27979 -0.04919 0.77458
 C1416 C 0.26688 -0.03945 0.77791
 H1417 H 0.29109 -0.10330 0.82306
 H1418 H 0.28633 -0.04750 0.76388
 H1419 H 0.31489 -0.10945 0.79622
 H1420 H 0.26037 -0.04111 0.78863
 C1421 C 0.79764 0.39389 0.81475
 C1422 C 0.80313 0.40209 0.80177
 C1423 C 0.79458 0.41584 0.79534
 N1424 N 0.80100 0.42406 0.78339
 N1425 N 0.79341 0.43645 0.77736
 C1426 C 0.77908 0.44110 0.78301
 N1427 N 0.77263 0.43287 0.79496
 N1428 N 0.78024 0.42049 0.80103
 C1429 C 0.77047 0.45463 0.77616
 C1430 C 0.77717 0.46368 0.76435
 H1431 H 0.81407 0.39854 0.79616
 H1432 H 0.75861 0.45732 0.78027
 H1433 H 0.78683 0.39784 0.82038
 H1434 H 0.78909 0.46096 0.76043
 C1435 C 0.81582 -0.10886 0.31008
 C1436 C 0.80320 -0.09984 0.31586
 C1437 C 0.79690 -0.08574 0.30800
 N1438 N 0.78451 -0.07784 0.31445
 N1439 N 0.77830 -0.06523 0.30746
 C1440 C 0.78426 -0.06002 0.29374
 N1441 N 0.79672 -0.06787 0.28731
 N1442 N 0.80295 -0.08051 0.29431
 C1443 C 0.77709 -0.04638 0.28571
 C1444 C 0.76373 -0.03869 0.29166
 H1445 H 0.79740 -0.10321 0.32656
 H1446 H 0.78205 -0.04272 0.27468
 H1447 H 0.82165 -0.10524 0.29945
 H1448 H 0.75871 -0.04252 0.30261
 C1449 C 0.29825 0.60541 0.68315
 C1450 C 0.30446 0.59662 0.69540
 C1451 C 0.29642 0.58273 0.70182
 N1452 N 0.30349 0.57435 0.71331
 N1453 N 0.29630 0.56193 0.71958
 C1454 C 0.28175 0.55743 0.71460
 N1455 N 0.27468 0.56579 0.70306
 N1456 N 0.28189 0.57821 0.69676
 C1457 C 0.27349 0.54409 0.72191
 C1458 C 0.28056 0.53531 0.73372
 H1459 H 0.31567 0.59992 0.70052
 H1460 H 0.26150 0.54150 0.71830
 H1461 H 0.28728 0.60183 0.67771
 H1462 H 0.29259 0.53792 0.73722
 C1463 C 0.30516 1.10853 0.17868
 C1464 C 0.31003 1.10021 0.19185
 C1465 C 0.30162 1.08619 0.19764
 N1466 N 0.30657 1.07901 0.21088
 N1467 N 0.29906 1.06637 0.21636
 C1468 C 0.28633 1.06041 0.20876
 N1469 N 0.28141 1.06757 0.19549
 N1470 N 0.28891 1.08022 0.19003
 C1471 C 0.27771 1.04660 0.21471
 C1472 C 0.28144 1.03929 0.22879
 H1473 H 0.32028 1.10411 0.19830
 H1474 H 0.26776 1.04237 0.20797
 H1475 H 0.29479 1.10471 0.17233
 H1476 H 0.29123 1.04358 0.23570
 C1477 C 0.80801 0.60775 0.19212
 C1478 C 0.81504 0.59667 0.20190
 C1479 C 0.80646 0.58199 0.20567
 N1480 N 0.81187 0.57195 0.21678
 N1481 N 0.80385 0.55885 0.22021
 C1482 C 0.79022 0.55528 0.21258
 N1483 N 0.78497 0.56521 0.20137
 N1484 N 0.79292 0.57828 0.19800
 C1485 C 0.78078 0.54127 0.21647
 C1486 C 0.78428 0.53160 0.22908
 H1487 H 0.82678 0.59862 0.20653
 H1488 H 0.77023 0.53903 0.20969
 H1489 H 0.79609 0.60561 0.18798
 H1490 H 0.79462 0.53401 0.23611
 C1491 C 0.81011 1.09910 0.69238
 C1492 C 0.79710 1.09042 0.68737
 C1493 C 0.79133 1.07652 0.69593
 N1494 N 0.77804 1.06907 0.69108
 N1495 N 0.77243 1.05672 0.69888
 C1496 C 0.77988 1.05132 0.71183
 N1497 N 0.79324 1.05871 0.71663
 N1498 N 0.79885 1.07108 0.70883
 C1499 C 0.77345 1.03797 0.72080
 C1500 C 0.75911 1.03103 0.71677
 H1501 H 0.79065 1.09410 0.67713
 H1502 H 0.77977 1.03396 0.73102
 H1503 H 0.81636 1.09549 0.70278
 H1504 H 0.75271 1.03537 0.70673
 C1505 C 0.69822 0.59679 0.31149
 C1506 C 0.69394 0.58859 0.29816
 C1507 C 0.70316 0.57479 0.29280
 N1508 N 0.69954 0.56774 0.27913
 N1509 N 0.70817 0.55562 0.27392
 C1510 C 0.72074 0.55007 0.28218
 N1511 N 0.72427 0.55702 0.29592
 N1512 N 0.71565 0.56916 0.30113
 C1513 C 0.73070 0.53706 0.27622
 C1514 C 0.72794 0.53049 0.26167
 H1515 H 0.68407 0.59267 0.29119
 H1516 H 0.74064 0.53298 0.28312
 H1517 H 0.70828 0.59272 0.31823
 H1518 H 0.71807 0.53479 0.25479
 C1519 C 0.68406 1.10303 0.80442
 C1520 C 0.69654 1.09262 0.80747
 C1521 C 0.69995 1.07901 0.79730
 N1522 N 0.71233 1.06928 0.80052
 N1523 N 0.71570 1.05709 0.79127
 C1524 C 0.70682 1.05414 0.77845
 N1525 N 0.69440 1.06384 0.77525
 N1526 N 0.69102 1.07604 0.78450
 C1527 C 0.71077 1.04093 0.76792
 C1528 C 0.72380 1.03112 0.77063
 H1529 H 0.70406 1.09442 0.81748
 H1530 H 0.70359 1.03921 0.75764
 H1531 H 0.67671 1.10099 0.79431
 H1532 H 0.73100 1.03301 0.78087
 C1533 C 0.19101 0.60613 0.81062
 C1534 C 0.20442 0.59782 0.81549
 C1535 C 0.21044 0.58404 0.80683
 N1536 N 0.22394 0.57661 0.81144
 N1537 N 0.22956 0.56423 0.80354
 C1538 C 0.22184 0.55884 0.79076
 N1539 N 0.20833 0.56624 0.78622
 N1540 N 0.20274 0.57860 0.79409
 C1541 C 0.22783 0.54539 0.78168
 C1542 C 0.24202 0.53757 0.78498
 H1543 H 0.21080 0.60156 0.82573
 H1544 H 0.22086 0.54172 0.77176
 H1545 H 0.18478 0.60239 0.80028
 H1546 H 0.24914 0.54118 0.79480
 C1547 C 0.19985 1.10307 0.31691
 C1548 C 0.19532 1.09593 0.30303
 C1549 C 0.20403 1.08225 0.29667
 N1550 N 0.20000 1.07614 0.28265
 N1551 N 0.20803 1.06395 0.27669
 C1552 C 0.22036 1.05741 0.28458
 N1553 N 0.22431 1.06345 0.29863
 N1554 N 0.21630 1.07563 0.30456
 C1555 C 0.22969 1.04424 0.27815
 C1556 C 0.22698 1.03781 0.26348
 H1557 H 0.18539 1.10059 0.29651
 H1558 H 0.23939 1.03974 0.28513
 H1559 H 0.20993 1.09843 0.32325
 H1560 H 0.21736 1.04224 0.25637
 C1561 C 0.68629 0.39482 0.69176
 C1562 C 0.69967 0.40287 0.68653
 C1563 C 0.70570 0.41697 0.69460
 N1564 N 0.71912 0.42415 0.68956
 N1565 N 0.72476 0.43679 0.69692
 C1566 C 0.71715 0.44273 0.70958
 N1567 N 0.70372 0.43560 0.71456
 N1568 N 0.69810 0.42297 0.70723
 C1569 C 0.72324 0.45641 0.71821
 C1570 C 0.73737 0.46407 0.71452
 H1571 H 0.70601 0.39870 0.67638
 H1572 H 0.71649 0.46028 0.72825
 H1573 H 0.68010 0.39899 0.70202
 H1574 H 0.74429 0.46029 0.70456
 C1575 C 0.69781 -0.10329 0.18961
 C1576 C 0.69198 -0.09634 0.20316
 C1577 C 0.70006 -0.08304 0.21074
 N1578 N 0.69402 -0.07675 0.22400
 N1579 N 0.70128 -0.06482 0.23109
 C1580 C 0.71487 -0.05872 0.22517
 N1581 N 0.72091 -0.06499 0.21189
 N1582 N 0.71364 -0.07692 0.20481
 C1583 C 0.72316 -0.04568 0.23297
 C1584 C 0.71755 -0.03898 0.24673
 H1585 H 0.68127 -0.10079 0.20848
 H1586 H 0.73406 -0.04141 0.22784
 H1587 H 0.70853 -0.09876 0.18433
 H1588 H 0.70667 -0.04329 0.25188
 C1589 C 0.19965 0.39397 0.18604
 C1590 C 0.19608 0.40135 0.20009
 C1591 C 0.20534 0.41464 0.20616
 N1592 N 0.20132 0.42116 0.22002
 N1593 N 0.20966 0.43306 0.22585
 C1594 C 0.22234 0.43891 0.21805
 N1595 N 0.22634 0.43243 0.20416
 N1596 N 0.21799 0.42051 0.19831
 C1597 C 0.23182 0.45185 0.22462
 C1598 C 0.22819 0.45839 0.23906
 H1599 H 0.18625 0.39721 0.20704
 H1600 H 0.24199 0.45603 0.21816
 H1601 H 0.20946 0.39817 0.17907
 H1602 H 0.21804 0.45409 0.24548
 C1603 C 0.20087 -0.10744 0.67651
 C1604 C 0.19557 -0.09862 0.68921
 C1605 C 0.20455 -0.08533 0.69566
 N1606 N 0.19867 -0.07725 0.70802
 N1607 N 0.20681 -0.06545 0.71433
 C1608 C 0.22115 -0.06130 0.70850
 N1609 N 0.22699 -0.06930 0.69605
 N1610 N 0.21884 -0.08111 0.68973
 C1611 C 0.23050 -0.04861 0.71557
 C1612 C 0.22514 -0.03998 0.72837
 H1613 H 0.18451 -0.10159 0.69483
 H1614 H 0.24203 -0.04613 0.71063
 H1615 H 0.21178 -0.10431 0.67069
 H1616 H 0.21358 -0.04237 0.73330
 C1617 C 0.31004 0.29844 0.41059
 C1618 C 0.29623 0.30463 0.41720
 C1619 C 0.28903 0.29823 0.43140
 N1620 N 0.27576 0.30513 0.43728
 N1621 N 0.26886 0.29941 0.45000
 C1622 C 0.27499 0.28657 0.45733
 N1623 N 0.28829 0.27968 0.45147
 N1624 N 0.29520 0.28541 0.43874
 C1625 C 0.26722 0.27979 0.47109
 C1626 C 0.25335 0.28620 0.47737
 H1627 H 0.29036 0.31464 0.41186
 H1628 H 0.27228 0.26915 0.47605
 H1629 H 0.31615 0.28869 0.41614
 H1630 H 0.24830 0.29688 0.47248
 C1631 C 0.31039 0.80218 -0.09809
 C1632 C 0.29748 0.80764 -0.08949
 C1633 C 0.29184 0.79908 -0.07562
 N1634 N 0.28038 0.80551 -0.06649
 N1635 N 0.27515 0.79784 -0.05399
 C1636 C 0.28115 0.78342 -0.05015
 N1637 N 0.29260 0.77698 -0.05930
 N1638 N 0.29786 0.78468 -0.07177
 C1639 C 0.27514 0.77465 -0.03657
 C1640 C 0.26395 0.78128 -0.02655
 H1641 H 0.29152 0.81849 -0.09279
 H1642 H 0.27929 0.76267 -0.03468
 H1643 H 0.31651 0.79155 -0.09438
 H1644 H 0.25992 0.79327 -0.02856
 C1645 C 0.80291 0.30550 -0.09639
 C1646 C 0.78957 0.31112 -0.08854
 C1647 C 0.78331 0.30324 -0.07462
 N1648 N 0.76997 0.30885 -0.06769
 N1649 N 0.76401 0.30169 -0.05523
 C1650 C 0.77118 0.28866 -0.04921
 N1651 N 0.78456 0.28308 -0.05610
 N1652 N 0.79052 0.29023 -0.06857
 C1653 C 0.76450 0.28039 -0.03569
 C1654 C 0.75034 0.28522 -0.02876
 H1655 H 0.78335 0.32146 -0.09279
 H1656 H 0.77063 0.27000 -0.03140
 H1657 H 0.80907 0.29513 -0.09210
 H1658 H 0.74415 0.29553 -0.03315
 C1659 C 0.80813 0.80654 0.40277
 C1660 C 0.79439 0.81272 0.40951
 C1661 C 0.78808 0.80605 0.42404
 N1662 N 0.77341 0.81014 0.42925
 N1663 N 0.76750 0.80359 0.44210
 C1664 C 0.77614 0.79280 0.45021
 N1665 N 0.79084 0.78891 0.44510
 N1666 N 0.79670 0.79539 0.43227
 C1667 C 0.76980 0.78453 0.46382
 C1668 C 0.75436 0.78632 0.46940
 H1669 H 0.78790 0.82216 0.40385
 H1670 H 0.77752 0.77580 0.46911
 H1671 H 0.81416 0.79669 0.40826
 H1672 H 0.74655 0.79526 0.46461
 C1673 C 0.68779 0.30651 0.60020
 C1674 C 0.70084 0.31271 0.59243
 C1675 C 0.70753 0.30510 0.57849
 N1676 N 0.72049 0.31130 0.57148
 N1677 N 0.72684 0.30435 0.55903
 C1678 C 0.72043 0.29095 0.55310
 N1679 N 0.70743 0.28480 0.56006
 N1680 N 0.70109 0.29174 0.57252
 C1681 C 0.72759 0.28283 0.53967
 C1682 C 0.74130 0.28830 0.53248
 H1683 H 0.70648 0.32329 0.59673
 H1684 H 0.72221 0.27196 0.53571
 H1685 H 0.68221 0.29591 0.59583
 H1686 H 0.74671 0.29915 0.53647
 C1687 C 0.69874 0.81181 1.09721
 C1688 C 0.69315 0.79877 1.08906
 C1689 C 0.70112 0.79267 1.07504
 N1690 N 0.69543 0.77960 1.06791
 N1691 N 0.70261 0.77373 1.05537
 C1692 C 0.71575 0.78071 1.04943
 N1693 N 0.72141 0.79385 1.05651
 N1694 N 0.71423 0.79972 1.06908
 C1695 C 0.72401 0.77400 1.03581
 C1696 C 0.71907 0.75987 1.02913
 H1697 H 0.68270 0.79266 1.09311
 H1698 H 0.73439 0.77994 1.03133
 H1699 H 0.70925 0.81784 1.09316
 H1700 H 0.70885 0.75387 1.03389
 C1701 C 0.18168 0.30551 1.09795
 C1702 C 0.19363 0.31159 1.08855
 C1703 C 0.19914 0.30370 1.07431
 N1704 N 0.21120 0.31011 1.06609
 N1705 N 0.21679 0.30295 1.05344
 C1706 C 0.21051 0.28909 1.04850
 N1707 N 0.19834 0.28272 1.05665
 N1708 N 0.19274 0.28989 1.06934
 C1709 C 0.21719 0.28078 1.03491
 C1710 C 0.23060 0.28648 1.02735
 H1711 H 0.19949 0.32243 1.09181
 H1712 H 0.21202 0.26966 1.03137
 H1713 H 0.17567 0.29478 1.09458
 H1714 H 0.23590 0.29741 1.03125
 C1715 C 0.18723 0.79687 0.59422
 C1716 C 0.19842 0.80309 0.58403
 C1717 C 0.20409 0.79466 0.57015
 N1718 N 0.21442 0.80189 0.56044
 N1719 N 0.22005 0.79440 0.54799
 C1720 C 0.21558 0.77938 0.54474
 N1721 N 0.20523 0.77212 0.55445
 N1722 N 0.19956 0.77963 0.56693
 C1723 C 0.22235 0.77084 0.53131
 C1724 C 0.23332 0.77803 0.52151
 H1725 H 0.20328 0.81468 0.58620
 H1726 H 0.21925 0.75857 0.52958
 H1727 H 0.18188 0.78554 0.59177
 H1728 H 0.23633 0.79032 0.52337
 C1729 C 0.30711 0.69358 0.59480
 C1730 C 0.31277 0.70685 0.58700
 C1731 C 0.30536 0.71209 0.57233
 N1732 N 0.30996 0.72566 0.56525
 N1733 N 0.30297 0.73046 0.55215
 C1734 C 0.29117 0.72181 0.54566
 N1735 N 0.28667 0.70824 0.55270
 N1736 N 0.29362 0.70348 0.56575
 C1737 C 0.28279 0.72692 0.53155
 C1738 C 0.28596 0.74096 0.52371
 H1739 H 0.32248 0.71360 0.59179
 H1740 H 0.27326 0.71946 0.52751
 H1741 H 0.29723 0.68717 0.58991
 H1742 H 0.29548 0.74852 0.52756
 C1743 C 0.31617 0.20619 1.09754
 C1744 C 0.30323 0.20218 1.08836
 C1745 C 0.29839 0.21185 1.07493
 N1746 N 0.28584 0.20742 1.06615
 N1747 N 0.28127 0.21612 1.05404
 C1748 C 0.28907 0.22958 1.05024
 N1749 N 0.30163 0.23400 1.05901
 N1750 N 0.30621 0.22530 1.07112
 C1751 C 0.28393 0.23950 1.03709
 C1752 C 0.27099 0.23547 1.02790
 H1753 H 0.29646 0.19170 1.09102
 H1754 H 0.29025 0.25037 1.03483
 H1755 H 0.32294 0.21665 1.09475
 H1756 H 0.26471 0.22461 1.03022
 C1757 C 0.80208 0.68727 1.09955
 C1758 C 0.80730 0.69772 1.08822
 C1759 C 0.79764 0.70070 1.07428
 N1760 N 0.80219 0.71164 1.06370
 N1761 N 0.79324 0.71461 1.05129
 C1762 C 0.77947 0.70670 1.04898
 N1763 N 0.77501 0.69567 1.05947
 N1764 N 0.78393 0.69272 1.07188
 C1765 C 0.76904 0.71040 1.03581
 C1766 C 0.77244 0.72263 1.02560
 H1767 H 0.81843 0.70385 1.08960
 H1768 H 0.75801 0.70402 1.03471
 H1769 H 0.79085 0.68135 1.09801
 H1770 H 0.78337 0.72916 1.02687
 C1771 C 0.80346 0.18720 0.60093
 C1772 C 0.80953 0.20016 0.59292
 C1773 C 0.80179 0.20702 0.57915
 N1774 N 0.80839 0.21967 0.57203
 N1775 N 0.80149 0.22624 0.55969
 C1776 C 0.78772 0.22040 0.55400
 N1777 N 0.78113 0.20771 0.56110
 N1778 N 0.78803 0.20113 0.57345
 C1779 C 0.77979 0.22780 0.54057
 C1780 C 0.78592 0.24115 0.53325
 H1781 H 0.82035 0.20564 0.59686
 H1782 H 0.76868 0.22287 0.53664
 H1783 H 0.79272 0.18160 0.59688
 H1784 H 0.79700 0.24609 0.53725
 C1785 C 0.70011 0.69141 0.39203
 C1786 C 0.69330 0.70311 0.40125
 C1787 C 0.70123 0.70883 0.41534
 N1788 N 0.69362 0.71902 0.42499
 N1789 N 0.70064 0.72413 0.43789
 C1790 C 0.71552 0.71923 0.44161
 N1791 N 0.72315 0.70907 0.43194
 N1792 N 0.71612 0.70394 0.41906
 C1793 C 0.72351 0.72504 0.45564
 C1794 C 0.71582 0.73510 0.46602
 H1795 H 0.68168 0.70778 0.39844
 H1796 H 0.73577 0.72174 0.45758
 H1797 H 0.71153 0.68648 0.39521
 H1798 H 0.70356 0.73836 0.46400
 C1799 C 0.69868 0.17994 -0.09546
 C1800 C 0.69085 0.19023 -0.08530
 C1801 C 0.69809 0.19761 -0.07164
 N1802 N 0.68944 0.20821 -0.06333
 N1803 N 0.69576 0.21578 -0.05133
 C1804 C 0.71102 0.21304 -0.04714
 N1805 N 0.71967 0.20230 -0.05534
 N1806 N 0.71334 0.19473 -0.06742
 C1807 C 0.71823 0.22185 -0.03423
 C1808 C 0.71032 0.23442 -0.02703
 H1809 H 0.67872 0.19363 -0.08768
 H1810 H 0.73021 0.21883 -0.03077
 H1811 H 0.71049 0.17565 -0.09283
 H1812 H 0.69854 0.23775 -0.03084
 C1813 C 0.19335 0.69050 -0.09512
 C1814 C 0.18785 0.70388 -0.08728
 C1815 C 0.19545 0.70959 -0.07299
 N1816 N 0.19034 0.72315 -0.06614
 N1817 N 0.19737 0.72857 -0.05336
 C1818 C 0.20974 0.72057 -0.04697
 N1819 N 0.21476 0.70698 -0.05377
 N1820 N 0.20775 0.70158 -0.06653
 C1821 C 0.21817 0.72650 -0.03328
 C1822 C 0.21449 0.74074 -0.02589
 H1823 H 0.17789 0.71054 -0.09179
 H1824 H 0.22816 0.71955 -0.02924
 H1825 H 0.20346 0.68401 -0.09065
 H1826 H 0.20449 0.74779 -0.02971
 C1827 C 0.19362 0.19002 0.40742
 C1828 C 0.18679 0.20276 0.41529
 C1829 C 0.19365 0.20922 0.42964
 N1830 N 0.18661 0.22173 0.43674
 N1831 N 0.19280 0.22789 0.44960
 C1832 C 0.20626 0.22175 0.45585
 N1833 N 0.21327 0.20920 0.44878
 N1834 N 0.20708 0.20303 0.43592
 C1835 C 0.21353 0.22877 0.46975
 C1836 C 0.20711 0.24206 0.47700
 H1837 H 0.17616 0.20829 0.41080
 H1838 H 0.22453 0.22371 0.47398
 H1839 H 0.20423 0.18449 0.41200
 H1840 H 0.19619 0.24720 0.47267
 C1841 C 0.31638 0.39853 0.69954
 C1842 C 0.30311 0.40762 0.69588
 C1843 C 0.29863 0.42144 0.70537
 N1844 N 0.28551 0.43005 0.70184
 N1845 N 0.28133 0.44245 0.71052
 C1846 C 0.29014 0.44670 0.72303
 N1847 N 0.30326 0.43812 0.72653
 N1848 N 0.30743 0.42574 0.71787
 C1849 C 0.28559 0.46018 0.73292
 C1850 C 0.27200 0.46913 0.73014
 H1851 H 0.29585 0.40457 0.68597
 H1852 H 0.29297 0.46289 0.74284
 H1853 H 0.32355 0.40175 0.70946
 H1854 H 0.26460 0.46640 0.72024
 C1855 C 0.31906 0.90653 0.18197
 C1856 C 0.31950 0.91222 0.19715
 C1857 C 0.30993 0.92603 0.20194
 N1858 N 0.31167 0.93225 0.21636
 N1859 N 0.30291 0.94459 0.22087
 C1860 C 0.29202 0.95113 0.21114
 N1861 N 0.29025 0.94488 0.19674
 N1862 N 0.29905 0.93259 0.19221
 C1863 C 0.28203 0.96458 0.21603
 C1864 C 0.28412 0.97204 0.23030
 H1865 H 0.32690 0.90645 0.20572
 H1866 H 0.27269 0.96854 0.20830
 H1867 H 0.31213 0.91281 0.17335
 H1868 H 0.29360 0.96820 0.23790
 C1869 C 0.81884 0.38846 0.19898
 C1870 C 0.80833 0.39977 0.19327
 C1871 C 0.80379 0.41397 0.20211
 N1872 N 0.79435 0.42497 0.19533
 N1873 N 0.78982 0.43779 0.20313
 C1874 C 0.79452 0.44015 0.21803
 N1875 N 0.80400 0.42915 0.22484
 N1876 N 0.80859 0.41630 0.21701
 C1877 C 0.78885 0.45402 0.22686
 C1878 C 0.77904 0.46520 0.21984
 H1879 H 0.80334 0.39837 0.18179
 H1880 H 0.79166 0.45497 0.23910
 H1881 H 0.82426 0.39011 0.21026
 H1882 H 0.77626 0.46400 0.20762
 C1883 C 0.80745 0.89646 0.68957
 C1884 C 0.79368 0.90411 0.68456
 C1885 C 0.78717 0.91791 0.69291
 N1886 N 0.77340 0.92479 0.68822
 N1887 N 0.76740 0.93719 0.69585
 C1888 C 0.77501 0.94316 0.70844
 N1889 N 0.78878 0.93631 0.71306
 N1890 N 0.79474 0.92394 0.70546
 C1891 C 0.76870 0.95665 0.71732
 C1892 C 0.75446 0.96439 0.71392
 H1893 H 0.78743 0.89984 0.67444
 H1894 H 0.77556 0.96045 0.72726
 H1895 H 0.81350 0.90072 0.69982
 H1896 H 0.74742 0.96073 0.70406
 C1897 C 0.68258 0.59811 0.68960
 C1898 C 0.69658 0.59020 0.68573
 C1899 C 0.70231 0.57634 0.69451
 N1900 N 0.71627 0.56941 0.69054
 N1901 N 0.72182 0.55711 0.69855
 C1902 C 0.71363 0.55125 0.71085
 N1903 N 0.69963 0.55815 0.71480
 N1904 N 0.69408 0.57046 0.70678
 C1905 C 0.71989 0.53786 0.72001
 C1906 C 0.73453 0.53097 0.71659
 H1907 H 0.70383 0.59446 0.67625
 H1908 H 0.71307 0.53365 0.72983
 H1909 H 0.67539 0.59379 0.69911
 H1910 H 0.74132 0.53535 0.70682
 C1911 C 0.69597 0.09544 0.19443
 C1912 C 0.69007 0.08739 0.20729
 C1913 C 0.69827 0.07362 0.21399
 N1914 N 0.69204 0.06625 0.22657
 N1915 N 0.69943 0.05390 0.23291
 C1916 C 0.71331 0.04844 0.22689
 N1917 N 0.71951 0.05578 0.21428
 N1918 N 0.71213 0.06814 0.20794
 C1919 C 0.72180 0.03506 0.23401
 C1920 C 0.71616 0.02753 0.24729
 H1921 H 0.67916 0.09128 0.21274
 H1922 H 0.73298 0.03136 0.22892
 H1923 H 0.70686 0.09145 0.18897
 H1924 H 0.70503 0.03130 0.25243
 C1925 C 0.20086 0.59218 0.19174
 C1926 C 0.19637 0.58469 0.20546
 C1927 C 0.20502 0.57082 0.21139
 N1928 N 0.20065 0.56407 0.22503
 N1929 N 0.20857 0.55164 0.23059
 C1930 C 0.22114 0.54552 0.22269
 N1931 N 0.22546 0.55224 0.20905
 N1932 N 0.21755 0.56466 0.20350
 C1933 C 0.23030 0.53204 0.22870
 C1934 C 0.22689 0.52472 0.24280
 H1935 H 0.18642 0.58915 0.21213
 H1936 H 0.24032 0.52798 0.22186
 H1937 H 0.21088 0.58769 0.18518
 H1938 H 0.21689 0.52870 0.24971
 C1939 C 0.18501 0.09651 0.69762
 C1940 C 0.19818 0.08808 0.69224
 C1941 C 0.20395 0.07388 0.70043
 N1942 N 0.21693 0.06591 0.69522
 N1943 N 0.22231 0.05321 0.70278
 C1944 C 0.21487 0.04803 0.71581
 N1945 N 0.20187 0.05596 0.72096
 N1946 N 0.19651 0.06862 0.71342
 C1947 C 0.22074 0.03441 0.72475
 C1948 C 0.23416 0.02562 0.72066
 H1949 H 0.20444 0.09198 0.68197
 H1950 H 0.21439 0.03151 0.73531
 H1951 H 0.17888 0.09252 0.70795
 H1952 H 0.24059 0.02833 0.71010
 C1953 C 0.32133 0.59910 0.29797
 C1954 C 0.31182 0.58784 0.30511
 C1955 C 0.30644 0.57352 0.29708
 N1956 N 0.29723 0.56304 0.30478
 N1957 N 0.29180 0.55023 0.29763
 C1958 C 0.29536 0.54740 0.28249
 N1959 N 0.30468 0.55782 0.27479
 N1960 N 0.31013 0.57065 0.28196
 C1961 C 0.28874 0.53365 0.27431
 C1962 C 0.27807 0.52358 0.28163
 H1963 H 0.30796 0.58958 0.31699
 H1964 H 0.29159 0.53198 0.26214
 H1965 H 0.32548 0.59720 0.28620
 H1966 H 0.27501 0.52555 0.29370
 C1967 C 0.29971 0.09891 0.81075
 C1968 C 0.30601 0.08888 0.79948
 C1969 C 0.29728 0.07488 0.79420
 N1970 N 0.30361 0.06524 0.78320
 N1971 N 0.29569 0.05263 0.77827
 C1972 C 0.28116 0.04919 0.78419
 N1973 N 0.27488 0.05880 0.79522
 N1974 N 0.28279 0.07140 0.80014
 C1975 C 0.27204 0.03560 0.77863
 C1976 C 0.27772 0.02558 0.76705
 H1977 H 0.31753 0.09125 0.79446
 H1978 H 0.26032 0.03375 0.78345
 H1979 H 0.28825 0.09631 0.81579
 H1980 H 0.28940 0.02743 0.76218
 C1981 C 0.81287 0.60193 0.79887
 C1982 C 0.80114 0.59164 0.80397
 C1983 C 0.79694 0.57757 0.79475
 N1984 N 0.78452 0.56842 0.79899
 N1985 N 0.78040 0.55598 0.79041
 C1986 C 0.78858 0.55221 0.77728
 N1987 N 0.80108 0.56128 0.77312
 N1988 N 0.80517 0.57371 0.78168
 C1989 C 0.78387 0.53890 0.76731
 C1990 C 0.77038 0.53001 0.77032
 H1991 H 0.79468 0.59412 0.81458
 H1992 H 0.79084 0.53647 0.75698
 H1993 H 0.81903 0.59938 0.78810
 H1994 H 0.76331 0.53256 0.78055
 C1995 C 0.81307 0.09899 0.30965
 C1996 C 0.80014 0.09060 0.31539
 C1997 C 0.79397 0.07636 0.30774
 N1998 N 0.78146 0.06868 0.31408
 N1999 N 0.77553 0.05590 0.30726
 C2000 C 0.78189 0.05029 0.29382
 N2001 N 0.79443 0.05795 0.28749
 N2002 N 0.80037 0.07074 0.29433
 C2003 C 0.77516 0.03642 0.28595
 C2004 C 0.76202 0.02848 0.29186
 H2005 H 0.79424 0.09453 0.32588
 H2006 H 0.78036 0.03269 0.27502
 H2007 H 0.81909 0.09493 0.29926
 H2008 H 0.75677 0.03230 0.30273
 C2009 C 0.70073 0.39812 0.31091
 C2010 C 0.69632 0.40560 0.29713
 C2011 C 0.70508 0.41919 0.29092
 N2012 N 0.70078 0.42576 0.27716
 N2013 N 0.70877 0.43796 0.27135
 C2014 C 0.72133 0.44403 0.27914
 N2015 N 0.72557 0.43749 0.29291
 N2016 N 0.71761 0.42530 0.29870
 C2017 C 0.73057 0.45726 0.27295
 C2018 C 0.72752 0.46442 0.25864
 H2019 H 0.68628 0.40136 0.29057
 H2020 H 0.74044 0.46131 0.27990
 H2021 H 0.71085 0.40238 0.31738
 H2022 H 0.71771 0.46050 0.25156
 C2023 C 0.69453 0.89007 0.80599
 C2024 C 0.68745 0.90148 0.79659
 C2025 C 0.69629 0.91532 0.79095
 N2026 N 0.68891 0.92626 0.78197
 N2027 N 0.69679 0.93873 0.77663
 C2028 C 0.71237 0.94075 0.78006
 N2029 N 0.71973 0.92986 0.78913
 N2030 N 0.71184 0.91739 0.79449
 C2031 C 0.72135 0.95418 0.77370
 C2032 C 0.71431 0.96511 0.76374
 H2033 H 0.67513 0.90033 0.79333
 H2034 H 0.73386 0.95506 0.77635
 H2035 H 0.70687 0.89130 0.80921
 H2036 H 0.70189 0.96390 0.76085
 C2037 C 0.18766 0.40099 0.80364
 C2038 C 0.19879 0.41071 0.81070
 C2039 C 0.20450 0.42513 0.80304
 N2040 N 0.21707 0.43301 0.80896
 N2041 N 0.22273 0.44572 0.80177
 C2042 C 0.21599 0.45105 0.78843
 N2043 N 0.20330 0.44329 0.78261
 N2044 N 0.19768 0.43055 0.78977
 C2045 C 0.22255 0.46460 0.77994
 C2046 C 0.23694 0.47135 0.78406
 H2047 H 0.20393 0.40739 0.82175
 H2048 H 0.21640 0.46868 0.76964
 H2049 H 0.18286 0.40423 0.79240
 H2050 H 0.24330 0.46697 0.79412
 C2051 C 0.19512 0.90611 0.31202
 C2052 C 0.19440 0.91190 0.29690
 C2053 C 0.20342 0.92586 0.29198
 N2054 N 0.20172 0.93152 0.27734
 N2055 N 0.20995 0.94402 0.27263
 C2056 C 0.22023 0.95132 0.28238
 N2057 N 0.22193 0.94566 0.29703
 N2058 N 0.21366 0.93318 0.30175
 C2059 C 0.22972 0.96487 0.27718
 C2060 C 0.22788 0.97139 0.26243
 H2061 H 0.18699 0.90612 0.28838
 H2062 H 0.23852 0.96961 0.28502
 H2063 H 0.20229 0.91212 0.32058
 H2064 H 0.21887 0.96680 0.25473
 C2065 C 0.40078 0.30523 0.69103
 C2066 C 0.40870 0.31062 0.70419
 C2067 C 0.42229 0.30212 0.71081
 N2068 N 0.42915 0.30747 0.72404
 N2069 N 0.44128 0.29970 0.73037
 C2070 C 0.44700 0.28630 0.72368
 N2071 N 0.44020 0.28100 0.71041
 N2072 N 0.42806 0.28876 0.70409
 C2073 C 0.46007 0.27731 0.73065
 C2074 C 0.46710 0.28158 0.74468
 H2075 H 0.40474 0.32125 0.71003
 H2076 H 0.46398 0.26670 0.72470
 H2077 H 0.40477 0.29456 0.68524
 H2078 H 0.46327 0.29216 0.75072
 C2079 C 0.40033 0.80683 0.19133
 C2080 C 0.40941 0.81329 0.20327
 C2081 C 0.42345 0.80516 0.20974
 N2082 N 0.43189 0.81210 0.22126
 N2083 N 0.44460 0.80495 0.22725
 C2084 C 0.44937 0.79057 0.22194
 N2085 N 0.44093 0.78362 0.21042
 N2086 N 0.42821 0.79078 0.20444
 C2087 C 0.46332 0.78244 0.22856
 C2088 C 0.47181 0.78868 0.24100
 H2089 H 0.40621 0.82468 0.20810
 H2090 H 0.46673 0.77108 0.22377
 H2091 H 0.40373 0.79554 0.18638
 H2092 H 0.46823 0.79992 0.24593
 C2093 C 0.90059 0.29271 0.18168
 C2094 C 0.90926 0.29619 0.19497
 C2095 C 0.92309 0.28672 0.19966
 N2096 N 0.93132 0.29074 0.21257
 N2097 N 0.94372 0.28214 0.21712
 C2098 C 0.94837 0.26918 0.20894
 N2099 N 0.94017 0.26518 0.19600
 N2100 N 0.92776 0.27380 0.19143
 C2101 C 0.96179 0.25936 0.21411
 C2102 C 0.97035 0.26311 0.22741
 H2103 H 0.90582 0.30606 0.20225
 H2104 H 0.96471 0.24880 0.20757
 H2105 H 0.90422 0.28295 0.17432
 H2106 H 0.96737 0.27369 0.23390
 C2107 C 0.89804 0.80619 0.68647
 C2108 C 0.90621 0.81100 0.69967
 C2109 C 0.92003 0.80195 0.70526
 N2110 N 0.92850 0.80707 0.71765
 N2111 N 0.94097 0.79881 0.72273
 C2112 C 0.94537 0.78513 0.71560
 N2113 N 0.93689 0.78003 0.70325
 N2114 N 0.92448 0.78828 0.69817
 C2115 C 0.95884 0.77562 0.72113
 C2116 C 0.96847 0.78036 0.73336
 H2117 H 0.90251 0.82149 0.70593
 H2118 H 0.96109 0.76440 0.71545
 H2119 H 0.90205 0.79580 0.68021
 H2120 H 0.96642 0.79165 0.73896
 C2121 C 0.60502 0.31679 0.30350
 C2122 C 0.59545 0.30422 0.30796
 C2123 C 0.58156 0.29962 0.29869
 N2124 N 0.57287 0.28685 0.30282
 N2125 N 0.56047 0.28244 0.29430
 C2126 C 0.55629 0.29068 0.28137
 N2127 N 0.56493 0.30348 0.27731
 N2128 N 0.57733 0.30787 0.28581
 C2129 C 0.54297 0.28576 0.27153
 C2130 C 0.53426 0.27217 0.27455
 H2131 H 0.59828 0.29748 0.31828
 H2132 H 0.54032 0.29274 0.26131
 H2133 H 0.60210 0.32341 0.29312
 H2134 H 0.53698 0.26508 0.28469
 C2135 C 0.59644 0.80659 0.81349
 C2136 C 0.59030 0.80915 0.79868
 C2137 C 0.57654 0.80039 0.79274
 N2138 N 0.57148 0.80299 0.77802
 N2139 N 0.55922 0.79503 0.77233
 C2140 C 0.55153 0.78416 0.78112
 N2141 N 0.55656 0.78158 0.79589
 N2142 N 0.56884 0.78955 0.80159
 C2143 C 0.53803 0.77526 0.77477
 C2144 C 0.53232 0.77839 0.75991
 H2145 H 0.59587 0.81761 0.79101
 H2146 H 0.53253 0.76623 0.78184
 H2147 H 0.59089 0.79800 0.82106
 H2148 H 0.53781 0.78762 0.75306
 C2149 C 0.10076 0.31663 0.79620
 C2150 C 0.08910 0.30660 0.80189
 C2151 C 0.07489 0.30293 0.79266
 N2152 N 0.06439 0.29204 0.79781
 N2153 N 0.05171 0.28837 0.78936
 C2154 C 0.04902 0.29552 0.77547
 N2155 N 0.05944 0.30651 0.77039
 N2156 N 0.07213 0.31014 0.77882
 C2157 C 0.03546 0.29114 0.76566
 C2158 C 0.02548 0.27869 0.76951
 H2159 H 0.09048 0.30112 0.81317
 H2160 H 0.03385 0.29728 0.75473
 H2161 H 0.09931 0.32193 0.78483
 H2162 H 0.02731 0.27233 0.78028
 C2163 C 0.10926 0.81449 0.29617
 C2164 C 0.10023 0.80164 0.30096
 C2165 C 0.08654 0.79592 0.29196
 N2166 N 0.07784 0.78370 0.29745
 N2167 N 0.06539 0.77841 0.28956
 C2168 C 0.06111 0.78511 0.27583
 N2169 N 0.06984 0.79732 0.27030
 N2170 N 0.08230 0.80262 0.27821
 C2171 C 0.04736 0.77921 0.26697
 C2172 C 0.03830 0.76666 0.27248
 H2173 H 0.10307 0.79569 0.31174
 H2174 H 0.04456 0.78455 0.25585
 H2175 H 0.10617 0.82059 0.28553
 H2176 H 0.04137 0.76130 0.28352
 C2177 C 0.60117 0.69657 0.68582
 C2178 C 0.58961 0.69053 0.69567
 C2179 C 0.57528 0.69989 0.69917
 N2180 N 0.56500 0.69513 0.71033
 N2181 N 0.55237 0.70396 0.71389
 C2182 C 0.54954 0.71782 0.70638
 N2183 N 0.55970 0.72244 0.69508
 N2184 N 0.57231 0.71365 0.69155
 C2185 C 0.53629 0.72821 0.71078
 C2186 C 0.52669 0.72496 0.72351
 H2187 H 0.59123 0.67912 0.70113
 H2188 H 0.53477 0.73922 0.70452
 H2189 H 0.59949 0.70819 0.68079
 H2190 H 0.52839 0.71407 0.72992
 C2191 C 0.60285 0.18198 0.19773
 C2192 C 0.59501 0.19567 0.19300
 C2193 C 0.58116 0.20205 0.20140
 N2194 N 0.57442 0.21581 0.19668
 N2195 N 0.56204 0.22188 0.20427
 C2196 C 0.55590 0.21442 0.21687
 N2197 N 0.56260 0.20061 0.22156
 N2198 N 0.57501 0.19454 0.21397
 C2199 C 0.54242 0.22120 0.22554
 C2200 C 0.53590 0.23583 0.22166
 H2201 H 0.59922 0.20213 0.18297
 H2202 H 0.53782 0.21474 0.23541
 H2203 H 0.59865 0.17561 0.20783
 H2204 H 0.54070 0.24236 0.21192
 C2205 C 0.10860 0.67890 0.19958
 C2206 C 0.09930 0.69156 0.19464
 C2207 C 0.08535 0.69705 0.20349
 N2208 N 0.07663 0.70938 0.19813
 N2209 N 0.06408 0.71461 0.20605
 C2210 C 0.05975 0.70771 0.21966
 N2211 N 0.06846 0.69535 0.22502
 N2212 N 0.08102 0.69011 0.21708
 C2213 C 0.04609 0.71371 0.22868
 C2214 C 0.03729 0.72666 0.22355
 H2215 H 0.10226 0.69766 0.18398
 H2216 H 0.04325 0.70820 0.23969
 H2217 H 0.10549 0.67278 0.21019
 H2218 H 0.04036 0.73217 0.21259
 C2219 C 0.09602 0.18622 0.69809
 C2220 C 0.08827 0.19969 0.69262
 C2221 C 0.07417 0.20633 0.70037
 N2222 N 0.06751 0.21985 0.69491
 N2223 N 0.05489 0.22618 0.70190
 C2224 C 0.04844 0.21922 0.71463
 N2225 N 0.05504 0.20566 0.72005
 N2226 N 0.06768 0.19933 0.71306
 C2227 C 0.03470 0.22631 0.72267
 C2228 C 0.02823 0.24072 0.71800
 H2229 H 0.09274 0.20574 0.68246
 H2230 H 0.02988 0.22027 0.73270
 H2231 H 0.09157 0.18026 0.70833
 H2232 H 0.03324 0.24682 0.70810
 C2233 C 0.40249 0.69243 0.30222
 C2234 C 0.41126 0.70437 0.30922
 C2235 C 0.42550 0.71096 0.30179
 N2236 N 0.43341 0.72298 0.30867
 N2237 N 0.44616 0.72921 0.30193
 C2238 C 0.45148 0.72363 0.28805
 N2239 N 0.44361 0.71156 0.28121
 N2240 N 0.43087 0.70534 0.28794
 C2241 C 0.46523 0.73065 0.28017
 C2242 C 0.47317 0.74372 0.28610
 H2243 H 0.40757 0.70916 0.32032
 H2244 H 0.46877 0.72578 0.26904
 H2245 H 0.40621 0.68778 0.29106
 H2246 H 0.46953 0.74873 0.29713
 C2247 C 0.39451 0.18313 0.80690
 C2248 C 0.40314 0.19599 0.81230
 C2249 C 0.41721 0.20198 0.80412
 N2250 N 0.42540 0.21423 0.81022
 N2251 N 0.43801 0.22000 0.80288
 C2252 C 0.44293 0.21375 0.78914
 N2253 N 0.43476 0.20145 0.78304
 N2254 N 0.42215 0.19566 0.79040
 C2255 C 0.45662 0.22036 0.78074
 C2256 C 0.46529 0.23290 0.78681
 H2257 H 0.39951 0.20194 0.82286
 H2258 H 0.45970 0.21551 0.76948
 H2259 H 0.39834 0.17702 0.79648
 H2260 H 0.46218 0.23762 0.79812
 C2261 C 0.89964 0.68772 0.80180
 C2262 C 0.90928 0.69937 0.80811
 C2263 C 0.92351 0.70479 0.79985
 N2264 N 0.93185 0.71731 0.80523
 N2265 N 0.94439 0.72262 0.79741
 C2266 C 0.94904 0.71554 0.78396
 N2267 N 0.94080 0.70294 0.77870
 N2268 N 0.92828 0.69766 0.78649
 C2269 C 0.96227 0.72154 0.77465
 C2270 C 0.97085 0.73493 0.77865
 H2271 H 0.90608 0.70501 0.81897
 H2272 H 0.96488 0.71549 0.76383
 H2273 H 0.90283 0.68238 0.79078
 H2274 H 0.96846 0.74101 0.78949
 C2275 C 0.90009 0.19132 0.31554
 C2276 C 0.90864 0.18570 0.30281
 C2277 C 0.92286 0.19375 0.29696
 N2278 N 0.93060 0.18792 0.28436
 N2279 N 0.94337 0.19517 0.27879
 C2280 C 0.94891 0.20851 0.28562
 N2281 N 0.94120 0.21431 0.29826
 N2282 N 0.92842 0.20706 0.30383
 C2283 C 0.96276 0.21687 0.27928
 C2284 C 0.97043 0.21168 0.26585
 H2285 H 0.90480 0.17515 0.29683
 H2286 H 0.96657 0.22763 0.28493
 H2287 H 0.90399 0.20187 0.32149
 H2288 H 0.96639 0.20104 0.26012
 C2289 C 0.30685 0.30995 0.60757
 C2290 C 0.29309 0.31576 0.60065
 C2291 C 0.28574 0.30757 0.58739
 N2292 N 0.27235 0.31343 0.58080
 N2293 N 0.26557 0.30599 0.56891
 C2294 C 0.27195 0.29240 0.56317
 N2295 N 0.28536 0.28658 0.56972
 N2296 N 0.29213 0.29402 0.58160
 C2297 C 0.26451 0.28381 0.55026
 C2298 C 0.25074 0.28917 0.54303
 H2299 H 0.28750 0.32640 0.60505
 H2300 H 0.26993 0.27282 0.54650
 H2301 H 0.31232 0.29929 0.60304
 H2302 H 0.24533 0.30019 0.54673
 C2303 C 0.31341 0.81895 0.10023
 C2304 C 0.31196 0.80331 0.09552
 C2305 C 0.30114 0.79888 0.08286
 N2306 N 0.30140 0.78398 0.07707
 N2307 N 0.29162 0.77987 0.06564
 C2308 C 0.28116 0.79048 0.05962
 N2309 N 0.28083 0.80534 0.06549
 N2310 N 0.29065 0.80947 0.07685
 C2311 C 0.27026 0.78608 0.04703
 C2312 C 0.27202 0.77191 0.03900
 H2313 H 0.31897 0.79417 0.10106
 H2314 H 0.26087 0.79424 0.04388
 H2315 H 0.30693 0.82810 0.09411
 H2316 H 0.28169 0.76400 0.04195
 C2317 C 0.80724 0.30884 0.10019
 C2318 C 0.79291 0.31453 0.09436
 C2319 C 0.78565 0.30716 0.08059
 N2320 N 0.77122 0.31199 0.07540
 N2321 N 0.76449 0.30493 0.06324
 C2322 C 0.77197 0.29279 0.05584
 N2323 N 0.78640 0.28807 0.06098
 N2324 N 0.79311 0.29511 0.07309
 C2325 C 0.76469 0.28428 0.04282
 C2326 C 0.74981 0.28801 0.03680
 H2327 H 0.78674 0.32410 0.10017
 H2328 H 0.77123 0.27434 0.03807
 H2329 H 0.81318 0.29915 0.09433
 H2330 H 0.74325 0.29807 0.04126
 C2331 C 0.81088 0.80778 0.59793
 C2332 C 0.79666 0.81199 0.59086
 C2333 C 0.79060 0.80324 0.57737
 N2334 N 0.77621 0.80698 0.57138
 N2335 N 0.77042 0.79890 0.55941
 C2336 C 0.77879 0.78678 0.55297
 N2337 N 0.79322 0.78311 0.55890
 N2338 N 0.79901 0.79118 0.57088
 C2339 C 0.77233 0.77758 0.53995
 C2340 C 0.75723 0.78061 0.53419
 H2341 H 0.78957 0.82157 0.59555
 H2342 H 0.77946 0.76813 0.53502
 H2343 H 0.81777 0.79802 0.59329
 H2344 H 0.75013 0.78998 0.53929
 C2345 C 0.31282 0.68220 0.39292
 C2346 C 0.31716 0.69582 0.40090
 C2347 C 0.30820 0.70173 0.41441
 N2348 N 0.31231 0.71564 0.42106
 N2349 N 0.30410 0.72139 0.43305
 C2350 C 0.29148 0.71344 0.43888
 N2351 N 0.28742 0.69947 0.43229
 N2352 N 0.29562 0.69372 0.42027
 C2353 C 0.28205 0.71994 0.45184
 C2354 C 0.28506 0.73489 0.45793
 H2355 H 0.32719 0.70265 0.39694
 H2356 H 0.27224 0.71308 0.45630
 H2357 H 0.30276 0.67540 0.39691
 H2358 H 0.29475 0.74176 0.45327
 C2359 C 0.30119 0.19091 0.89446
 C2360 C 0.30726 0.20345 0.90299
 C2361 C 0.29851 0.21003 0.91635
 N2362 N 0.30479 0.22196 0.92483
 N2363 N 0.29686 0.22802 0.93686
 C2364 C 0.28236 0.22238 0.94086
 N2365 N 0.27611 0.21045 0.93240
 N2366 N 0.28403 0.20438 0.92039
 C2367 C 0.27328 0.22916 0.95388
 C2368 C 0.27915 0.24152 0.96280
 H2369 H 0.31859 0.20851 0.89989
 H2370 H 0.26157 0.22456 0.95624
 H2371 H 0.28994 0.18583 0.89782
 H2372 H 0.29085 0.24613 0.96039
 C2373 C 0.81123 0.69072 0.89221
 C2374 C 0.79799 0.68555 0.90039
 C2375 C 0.79184 0.69438 0.91390
 N2376 N 0.77951 0.68861 0.92224
 N2377 N 0.77382 0.69658 0.93442
 C2378 C 0.78022 0.71062 0.93869
 N2379 N 0.79253 0.71639 0.93033
 N2380 N 0.79824 0.70842 0.91819
 C2381 C 0.77387 0.71969 0.95196
 C2382 C 0.76174 0.71382 0.96127
 H2383 H 0.79203 0.67484 0.89688
 H2384 H 0.77874 0.73125 0.95434
 H2385 H 0.81727 0.70129 0.89602
 H2386 H 0.75708 0.70217 0.95894
 C2387 C 0.80585 0.18746 0.39985
 C2388 C 0.81180 0.20034 0.40802
 C2389 C 0.80378 0.20710 0.42168
 N2390 N 0.81027 0.21966 0.42905
 N2391 N 0.80310 0.22615 0.44130
 C2392 C 0.78916 0.22033 0.44665
 N2393 N 0.78268 0.20773 0.43932
 N2394 N 0.78986 0.20122 0.42706
 C2395 C 0.78091 0.22771 0.45991
 C2396 C 0.78695 0.24100 0.46736
 H2397 H 0.82273 0.20581 0.40431
 H2398 H 0.76963 0.22289 0.46354
 H2399 H 0.79499 0.18190 0.40367
 H2400 H 0.79817 0.24587 0.46362
 C2401 C 0.68942 0.30752 0.39825
 C2402 C 0.70247 0.31305 0.40653
 C2403 C 0.70881 0.30502 0.42037
 N2404 N 0.72164 0.31107 0.42769
 N2405 N 0.72778 0.30388 0.44007
 C2406 C 0.72132 0.29036 0.44563
 N2407 N 0.70844 0.28432 0.43834
 N2408 N 0.70229 0.29151 0.42593
 C2409 C 0.72826 0.28208 0.45908
 C2410 C 0.74180 0.28760 0.46657
 H2411 H 0.70848 0.32361 0.40271
 H2412 H 0.72284 0.27118 0.46289
 H2413 H 0.68329 0.29705 0.40217
 H2414 H 0.74726 0.29846 0.46267
 C2415 C 0.69103 0.80442 0.89403
 C2416 C 0.68342 0.79459 0.90462
 C2417 C 0.69188 0.78824 0.91817
 N2418 N 0.68528 0.77673 0.92701
 N2419 N 0.69310 0.77073 0.93912
 C2420 C 0.70775 0.77613 0.94282
 N2421 N 0.71424 0.78771 0.93407
 N2422 N 0.70648 0.79364 0.92196
 C2423 C 0.71688 0.76962 0.95579
 C2424 C 0.71236 0.75633 0.96422
 H2425 H 0.67124 0.79111 0.90275
 H2426 H 0.72815 0.77517 0.95824
 H2427 H 0.70345 0.80718 0.89562
 H2428 H 0.70129 0.75045 0.96173
 C2429 C 0.18203 0.31169 0.89449
 C2430 C 0.19538 0.31703 0.90243
 C2431 C 0.20177 0.30882 0.91616
 N2432 N 0.21515 0.31416 0.92311
 N2433 N 0.22125 0.30666 0.93536
 C2434 C 0.21417 0.29353 0.94111
 N2435 N 0.20077 0.28823 0.93420
 N2436 N 0.19468 0.29572 0.92196
 C2437 C 0.22085 0.28477 0.95435
 C2438 C 0.23485 0.28910 0.96183
 H2439 H 0.20161 0.32737 0.89834
 H2440 H 0.21465 0.27427 0.95812
 H2441 H 0.17587 0.30130 0.89860
 H2442 H 0.24114 0.29958 0.95817
 C2443 C 0.18866 0.81931 0.39607
 C2444 C 0.18940 0.80356 0.40071
 C2445 C 0.19978 0.79855 0.41361
 N2446 N 0.19949 0.78341 0.41880
 N2447 N 0.20906 0.77876 0.43024
 C2448 C 0.21935 0.78905 0.43689
 N2449 N 0.21967 0.80415 0.43166
 N2450 N 0.21007 0.80881 0.42027
 C2451 C 0.23016 0.78413 0.44943
 C2452 C 0.22924 0.76931 0.45642
 H2453 H 0.18249 0.79473 0.39469
 H2454 H 0.23893 0.79250 0.45342
 H2455 H 0.19520 0.82808 0.40257
 H2456 H 0.22018 0.76111 0.45276
 C2457 C 0.69702 0.69730 0.60890
 C2458 C 0.70387 0.69043 0.59580
 C2459 C 0.70633 0.70007 0.58172
 N2460 N 0.71487 0.69441 0.56953
 N2461 N 0.71694 0.70321 0.55684
 C2462 C 0.71040 0.71790 0.55581
 N2463 N 0.70171 0.72344 0.56791
 N2464 N 0.69972 0.71470 0.58059
 C2465 C 0.71303 0.72814 0.54226
 C2466 C 0.72440 0.72465 0.53106
 H2467 H 0.70666 0.67793 0.59560
 H2468 H 0.70681 0.73936 0.54183
 H2469 H 0.69456 0.70988 0.60882
 H2470 H 0.73112 0.71374 0.53186
 C2471 C 0.69239 0.18542 0.10687
 C2472 C 0.68571 0.19817 0.09896
 C2473 C 0.69325 0.20508 0.08513
 N2474 N 0.68615 0.21732 0.07767
 N2475 N 0.69294 0.22386 0.06528
 C2476 C 0.70710 0.21841 0.05988
 N2477 N 0.71417 0.20614 0.06732
 N2478 N 0.70738 0.19958 0.07970
 C2479 C 0.71494 0.22579 0.04644
 C2480 C 0.70815 0.23849 0.03854
 H2481 H 0.67465 0.20328 0.10297
 H2482 H 0.72646 0.22134 0.04292
 H2483 H 0.70338 0.18024 0.10271
 H2484 H 0.69664 0.24294 0.04212
 C2485 C 0.19490 0.68155 0.10446
 C2486 C 0.18972 0.69544 0.09738
 C2487 C 0.19794 0.70202 0.08371
 N2488 N 0.19317 0.71603 0.07761
 N2489 N 0.20071 0.72222 0.06545
 C2490 C 0.21331 0.71464 0.05891
 N2491 N 0.21803 0.70059 0.06496
 N2492 N 0.21050 0.69440 0.07712
 C2493 C 0.22199 0.72152 0.04567
 C2494 C 0.21809 0.73634 0.03971
 H2495 H 0.17965 0.70182 0.10211
 H2496 H 0.23190 0.71498 0.04080
 H2497 H 0.20503 0.67531 0.09968
 H2498 H 0.20825 0.74288 0.04473
 C2499 C 0.18663 0.18698 0.60874
 C2500 C 0.18056 0.20041 0.60143
 C2501 C 0.18837 0.20764 0.58790
 N2502 N 0.18205 0.22080 0.58131
 N2503 N 0.18910 0.22761 0.56920
 C2504 C 0.20272 0.22149 0.56322
 N2505 N 0.20901 0.20831 0.56978
 N2506 N 0.20196 0.20150 0.58189
 C2507 C 0.21088 0.22901 0.55006
 C2508 C 0.20525 0.24278 0.54303
 H2509 H 0.16985 0.20595 0.60576
 H2510 H 0.22186 0.22371 0.54605
 H2511 H 0.19732 0.18144 0.60431
 H2512 H 0.19426 0.24812 0.54699
   
