data_POSCAR
  _audit_creation_date              2014-09-24
  _audit_creation_method            'ToBaCCo'
  _symmetry_space_group_name_H-M    'P1'
  _symmetry_Int_Tables_number       1
  _symmetry_cell_setting            triclinic
  loop_
  _symmetry_equiv_pos_as_xyz
 x,y,z
_cell_length_a 76.7328
_cell_length_b 76.9699
_cell_length_c 76.9051
_cell_angle_alpha 89.138200
_cell_angle_beta 89.801200
_cell_angle_gamma 87.934300
loop_
  _atom_site_label
  _atom_site_type_symbol
  _atom_site_fract_x
  _atom_site_fract_y
  _atom_site_fract_z
C1 C 0.74259 0.64732 0.98583
 H2 H 0.75511 0.64855 0.97949
 C3 C 0.72795 0.65668 0.97944
 H4 H 0.72925 0.66520 0.96821
 C5 C 0.72541 0.63401 1.00759
 H6 H 0.72435 0.62490 1.01832
 C7 C 0.71045 0.64288 1.00148
 H8 H 0.69804 0.64072 1.00776
 N9 N 0.74107 0.63624 0.99966
 C10 C 0.79290 0.62571 1.02155
 H11 H 0.79240 0.61171 1.02263
 C12 C 0.80732 0.63411 1.02784
 H13 H 0.81800 0.62641 1.03349
 C14 C 0.77949 0.65262 1.01277
 H15 H 0.76847 0.65979 1.00717
 C16 C 0.79370 0.66159 1.01894
 H17 H 0.79345 0.67565 1.01803
 Zn18 Zn 0.76041 0.62186 1.00677
 N19 N 0.77943 0.63497 1.01405
 C20 C 0.78400 0.60638 0.98253
 N21 N 0.76705 0.60766 0.98778
 C22 C 0.75437 0.59945 0.97912
 C23 C 0.75853 0.58947 0.96454
 C24 C 0.78877 0.59631 0.96824
 C25 C 0.75196 0.61655 1.04139
 C26 C 0.74710 0.60764 1.05643
 C27 C 0.74608 0.58138 1.03973
 C28 C 0.75124 0.59084 1.02504
 N29 N 0.75385 0.60813 1.02610
 H30 H 0.79386 0.61330 0.98924
 H31 H 0.74096 0.60085 0.98343
 H32 H 0.74831 0.58311 0.95767
 H33 H 0.80229 0.59555 0.96414
 H34 H 0.75403 0.63036 1.04182
 H35 H 0.74496 0.61535 1.06791
 H36 H 0.74475 0.56756 1.03821
 H37 H 0.75314 0.58432 1.01280
 C38 C 0.80784 0.65231 1.02665
 C39 C 0.71159 0.65424 0.98714
 C40 C 0.74382 0.58964 1.05600
 C41 C 0.77595 0.58780 0.95901
 C42 C 0.73501 0.35537 0.52492
 H43 H 0.74798 0.35386 0.53031
 C44 C 0.72125 0.34645 0.53247
 H45 H 0.72374 0.33800 0.54363
 C46 C 0.71575 0.36899 0.50445
 H47 H 0.71347 0.37812 0.49386
 C48 C 0.70167 0.36047 0.51165
 H49 H 0.68880 0.36283 0.50619
 N50 N 0.73207 0.36630 0.51107
 C51 C 0.78171 0.37432 0.48481
 H52 H 0.77998 0.38819 0.48263
 C53 C 0.79650 0.36554 0.47839
 H54 H 0.80588 0.37278 0.47097
 C55 C 0.77110 0.34815 0.49666
 H56 H 0.76111 0.34141 0.50369
 C57 C 0.78587 0.33884 0.49064
 H58 H 0.78717 0.32503 0.49343
 Zn59 Zn 0.75047 0.37965 0.50209
 N60 N 0.76946 0.36562 0.49388
 C61 C 0.77479 0.39154 0.52614
 N62 N 0.75813 0.39372 0.52029
 C63 C 0.74650 0.40478 0.52823
 C64 C 0.75150 0.41420 0.54269
 C65 C 0.78028 0.40057 0.54058
 C66 C 0.73714 0.38405 0.46892
 C67 C 0.73008 0.39264 0.45438
 C68 C 0.73466 0.42005 0.46829
 C69 C 0.74149 0.41088 0.48273
 N70 N 0.74226 0.39319 0.48289
 H71 H 0.78375 0.38245 0.51990
 H72 H 0.73324 0.40602 0.52352
 H73 H 0.74202 0.42271 0.54907
 H74 H 0.79357 0.39860 0.54507
 H75 H 0.73820 0.36999 0.46931
 H76 H 0.72581 0.38512 0.44350
 H77 H 0.73373 0.43412 0.46843
 H78 H 0.74598 0.41789 0.49383
 C79 C 0.79891 0.34757 0.48145
 C80 C 0.70429 0.34912 0.52592
 C81 C 0.72856 0.41085 0.45404
 C82 C 0.76853 0.41193 0.54916
 C83 C 0.23560 -0.14553 0.01934
 H84 H 0.24834 -0.14624 0.02535
 C85 C 0.22188 -0.15456 0.02679
 H86 H 0.22415 -0.16232 0.03848
 C87 C 0.21684 -0.13374 -0.00258
 H88 H 0.21471 -0.12525 -0.01371
 C89 C 0.20277 -0.14237 0.00453
 H90 H 0.19007 -0.14074 -0.00151
 N91 N 0.23291 -0.13548 0.00482
 C92 C 0.28334 -0.12724 -0.01992
 H93 H 0.28127 -0.11358 -0.02307
 C94 C 0.29856 -0.13600 -0.02538
 H95 H 0.30793 -0.12896 -0.03301
 C96 C 0.27313 -0.15296 -0.00673
 H97 H 0.26312 -0.15956 0.00040
 C98 C 0.28831 -0.16221 -0.01174
 H99 H 0.28990 -0.17579 -0.00806
 Zn100 Zn 0.25124 -0.12193 -0.00405
 N101 N 0.27107 -0.13572 -0.01065
 C102 C 0.27412 -0.10580 0.01911
 N103 N 0.25735 -0.10644 0.01358
 C104 C 0.24435 -0.09667 0.02111
 C105 C 0.24800 -0.08574 0.03486
 C106 C 0.27837 -0.09493 0.03270
 C107 C 0.23893 -0.11893 -0.03799
 C108 C 0.23299 -0.11072 -0.05324
 C109 C 0.23793 -0.08301 -0.04016
 C110 C 0.24344 -0.09183 -0.02503
 N111 N 0.24364 -0.10946 -0.02416
 H112 H 0.28421 -0.11389 0.01320
 H113 H 0.23110 -0.09757 0.01654
 H114 H 0.23751 -0.07809 0.04077
 H115 H 0.29175 -0.09478 0.03713
 H116 H 0.23972 -0.13298 -0.03711
 H117 H 0.22998 -0.11903 -0.06394
 H118 H 0.23730 -0.06897 -0.03977
 H119 H 0.24750 -0.08454 -0.01394
 C120 C 0.30135 -0.15370 -0.02116
 C121 C 0.20516 -0.15286 0.01945
 C122 C 0.23222 -0.09233 -0.05473
 C123 C 0.26521 -0.08482 0.04083
 C124 C 0.24078 0.15812 0.47845
 H125 H 0.25345 0.16006 0.47266
 C126 C 0.22620 0.16777 0.47238
 H127 H 0.22790 0.17742 0.46219
 C128 C 0.22324 0.14292 0.49853
 H129 H 0.22201 0.13283 0.50832
 C130 C 0.20832 0.15209 0.49271
 H131 H 0.19582 0.14883 0.49818
 N132 N 0.23906 0.14599 0.49132
 C133 C 0.29172 0.13439 0.51054
 H134 H 0.29144 0.12036 0.51004
 C135 C 0.30635 0.14226 0.51704
 H136 H 0.31741 0.13416 0.52129
 C137 C 0.27752 0.16186 0.50557
 H138 H 0.26609 0.16941 0.50143
 C139 C 0.29195 0.17031 0.51201
 H140 H 0.29150 0.18435 0.51275
 Zn141 Zn 0.25852 0.13143 0.49760
 N142 N 0.27772 0.14420 0.50492
 C143 C 0.28060 0.11978 0.47025
 N144 N 0.26472 0.11811 0.47788
 C145 C 0.25265 0.10768 0.47105
 C146 C 0.25651 0.09804 0.45618
 C147 C 0.28496 0.11048 0.45533
 C148 C 0.24883 0.12537 0.53177
 C149 C 0.24433 0.11600 0.54667
 C150 C 0.24781 0.08949 0.53038
 C151 C 0.25236 0.09939 0.51577
 N152 N 0.25255 0.11702 0.51668
 H153 H 0.28981 0.12858 0.47550
 H154 H 0.23999 0.10685 0.47719
 H155 H 0.24682 0.08958 0.45113
 H156 H 0.29755 0.11229 0.44930
 H157 H 0.24925 0.13940 0.53215
 H158 H 0.24105 0.12295 0.55844
 H159 H 0.24769 0.07547 0.52948
 H160 H 0.25577 0.09296 0.50379
 C161 C 0.30657 0.16045 0.51798
 C162 C 0.20960 0.16463 0.47934
 C163 C 0.24369 0.09782 0.54608
 C164 C 0.27288 0.09937 0.44811
 C165 C 0.14756 0.47459 0.24177
 H166 H 0.14770 0.46668 0.25352
 C167 C 0.15619 0.46857 0.22686
 H168 H 0.16288 0.45594 0.22729
 C169 C 0.13756 0.50006 0.22668
 H170 H 0.12992 0.51211 0.22644
 C171 C 0.14610 0.49463 0.21156
 H172 H 0.14526 0.50286 0.20004
 N173 N 0.13831 0.48999 0.24136
 C174 C 0.12942 0.50627 0.29481
 H175 H 0.11535 0.50762 0.29441
 C176 C 0.13829 0.51030 0.30991
 H177 H 0.13093 0.51491 0.32107
 C178 C 0.15605 0.49912 0.28044
 H179 H 0.16286 0.49487 0.26885
 C180 C 0.16550 0.50317 0.29530
 H181 H 0.17959 0.50184 0.29511
 Zn182 Zn 0.12450 0.49609 0.26095
 N183 N 0.13833 0.50064 0.28054
 C184 C 0.11167 0.46855 0.28147
 N185 N 0.11004 0.47717 0.26596
 C186 C 0.09895 0.47180 0.25354
 C187 C 0.08856 0.45752 0.25671
 C188 C 0.10163 0.45420 0.28513
 C189 C 0.12018 0.53149 0.25405
 C190 C 0.11152 0.54727 0.25000
 C191 C 0.08422 0.53257 0.25085
 C192 C 0.09342 0.51705 0.25495
 N193 N 0.11112 0.51674 0.25610
 H194 H 0.12101 0.47254 0.29094
 H195 H 0.09819 0.47862 0.24115
 H196 H 0.07959 0.45365 0.24677
 H197 H 0.10343 0.44738 0.29745
 H198 H 0.13423 0.53090 0.25525
 H199 H 0.11905 0.55874 0.24787
 H200 H 0.07015 0.53259 0.24984
 H201 H 0.08640 0.50531 0.25709
 C202 C 0.15656 0.50876 0.31031
 C203 C 0.15528 0.47851 0.21138
 C204 C 0.09331 0.54791 0.24816
 C205 C 0.08980 0.44853 0.27272
 C206 C -0.15274 0.01657 0.23431
 H207 H -0.15593 0.02220 0.24678
 C208 C -0.16118 0.02289 0.21929
 H209 H -0.17064 0.03355 0.22063
 C210 C -0.13547 -0.00320 0.21776
 H211 H -0.12526 -0.01319 0.21711
 C212 C -0.14333 0.00289 0.20242
 H213 H -0.13938 -0.00330 0.19044
 N214 N -0.14024 0.00366 0.23332
 C215 C -0.13462 -0.01849 0.28576
 H216 H -0.12053 -0.01903 0.28635
 C217 C -0.14431 -0.02457 0.29980
 H218 H -0.13756 -0.02992 0.31111
 C219 C -0.16043 -0.01125 0.27002
 H220 H -0.16664 -0.00622 0.25832
 C221 C -0.17067 -0.01729 0.28378
 H222 H -0.18474 -0.01657 0.28264
 Zn223 Zn -0.12779 -0.00366 0.25356
 N224 N -0.14274 -0.01169 0.27139
 C225 C -0.11802 0.02154 0.27779
 N226 N -0.11542 0.01557 0.26140
 C227 C -0.10474 0.02378 0.25004
 C228 C -0.09614 0.03861 0.25504
 C229 C -0.10957 0.03618 0.28338
 C230 C -0.12020 -0.03733 0.24330
 C231 C -0.11014 -0.05198 0.23873
 C232 C -0.08419 -0.03622 0.24460
 C233 C -0.09479 -0.02178 0.24904
 N234 N -0.11245 -0.02255 0.24809
 H235 H -0.12682 0.01514 0.28655
 H236 H -0.10313 0.01894 0.23697
 H237 H -0.08801 0.04517 0.24567
 H238 H -0.11166 0.04047 0.29658
 H239 H -0.13427 -0.03758 0.24278
 H240 H -0.11665 -0.06340 0.23443
 H241 H -0.07016 -0.03542 0.24543
 H242 H -0.08892 -0.00999 0.25318
 C243 C -0.16259 -0.02388 0.29900
 C244 C -0.15638 0.01628 0.20284
 C245 C -0.09187 -0.05157 0.23928
 C246 C -0.09858 0.04506 0.27191
 C247 C 0.34819 0.51910 0.74336
 H248 H 0.34700 0.52485 0.75607
 C249 C 0.33875 0.52637 0.72935
 H250 H 0.33002 0.53748 0.73153
 C251 C 0.36126 0.49781 0.72508
 H252 H 0.37040 0.48700 0.72328
 C253 C 0.35220 0.50472 0.71073
 H254 H 0.35457 0.49905 0.69811
 N255 N 0.35903 0.50494 0.74105
 C256 C 0.36705 0.47824 0.79096
 H257 H 0.38089 0.47537 0.78961
 C258 C 0.35814 0.47208 0.80548
 H259 H 0.36524 0.46420 0.81505
 C260 C 0.34108 0.49158 0.77973
 H261 H 0.33446 0.49911 0.76963
 C262 C 0.33166 0.48583 0.79419
 H263 H 0.31790 0.48931 0.79514
 Zn264 Zn 0.37259 0.49599 0.75998
 N265 N 0.35853 0.48797 0.77855
 C266 C 0.38611 0.51840 0.78493
 N267 N 0.38657 0.51401 0.76787
 C268 C 0.39615 0.52300 0.75612
 C269 C 0.40560 0.53721 0.76136
 C270 C 0.39546 0.53236 0.79074
 C271 C 0.37790 0.46245 0.74794
 C272 C 0.38707 0.44753 0.74256
 C273 C 0.41401 0.46200 0.74751
 C274 C 0.40427 0.47674 0.75270
 N275 N 0.38655 0.47672 0.75268
 H276 H 0.37830 0.51125 0.79407
 H277 H 0.39612 0.51936 0.74258
 H278 H 0.41273 0.54451 0.75171
 H279 H 0.39501 0.53547 0.80442
 H280 H 0.36379 0.46277 0.74821
 H281 H 0.37985 0.43652 0.73839
 H282 H 0.42810 0.46217 0.74777
 H283 H 0.41087 0.48813 0.75685
 C284 C 0.34023 0.47605 0.80742
 C285 C 0.34073 0.51918 0.71272
 C286 C 0.40539 0.44712 0.74231
 C287 C 0.40518 0.54217 0.77888
 C288 C 0.64693 0.97161 0.73517
 H289 H 0.64966 0.96527 0.74757
 C290 C 0.65508 0.96544 0.72007
 H291 H 0.66405 0.95428 0.72095
 C292 C 0.63114 0.99323 0.71888
 H293 H 0.62140 1.00368 0.71830
 C294 C 0.63899 0.98752 0.70351
 H295 H 0.63554 0.99407 0.69138
 N296 N 0.63526 0.98532 0.73433
 C297 C 0.63081 1.00184 0.78824
 H298 H 0.61675 1.00171 0.78934
 C299 C 0.64072 1.00650 0.80244
 H300 H 0.63382 1.01031 0.81414
 C301 C 0.65616 0.99811 0.77091
 H302 H 0.66206 0.99494 0.75852
 C303 C 0.66663 1.00306 0.78473
 H304 H 0.68059 1.00299 0.78272
 Zn305 Zn 0.62320 0.99207 0.75486
 N306 N 0.63859 0.99752 0.77296
 C307 C 0.61321 0.96416 0.77664
 N308 N 0.60938 0.97328 0.76178
 C309 C 0.59631 0.96855 0.75112
 C310 C 0.58622 0.95436 0.75549
 C311 C 0.60350 0.94989 0.78148
 C312 C 0.61780 1.02637 0.74419
 C313 C 0.60871 1.04195 0.74042
 C314 C 0.58243 1.02918 0.75125
 C315 C 0.59199 1.01363 0.75440
 N316 N 0.60931 1.01247 0.75060
 H317 H 0.62406 0.96766 0.78461
 H318 H 0.59375 0.97583 0.73921
 H319 H 0.57571 0.95095 0.74698
 H320 H 0.60701 0.94264 0.79320
 H321 H 0.63166 1.02518 0.74160
 H322 H 0.61574 1.05243 0.73448
 H323 H 0.56873 1.02987 0.75467
 H324 H 0.58561 1.00261 0.76008
 C325 C 0.65901 1.00727 0.80096
 C326 C 0.65101 0.97333 0.70393
 C327 C 0.59072 1.04361 0.74395
 C328 C 0.58976 0.94483 0.77089
 C329 C 0.01836 0.24006 -0.15297
 H330 H 0.02372 0.25285 -0.15386
 C331 C 0.02587 0.22642 -0.16258
 H332 H 0.03672 0.22899 -0.17116
 C333 C -0.00201 0.22116 -0.14042
 H334 H -0.01247 0.21892 -0.13135
 C335 C 0.00517 0.20717 -0.14963
 H336 H -0.00000 0.19441 -0.14750
 N337 N 0.00448 0.23730 -0.14237
 C338 C -0.02308 0.28714 -0.13383
 H339 H -0.02593 0.28530 -0.12015
 C340 C -0.02933 0.30212 -0.14252
 H341 H -0.03729 0.31151 -0.13543
 C342 C -0.00964 0.27674 -0.15959
 H343 H -0.00205 0.26680 -0.16625
 C344 C -0.01539 0.29169 -0.16875
 H345 H -0.01177 0.29313 -0.18230
 Zn346 Zn -0.00478 0.25578 -0.12860
 N347 N -0.01325 0.27492 -0.14235
 C348 C 0.01806 0.27979 -0.11428
 N349 N 0.01339 0.26292 -0.11412
 C350 C 0.02239 0.25058 -0.10460
 C351 C 0.03694 0.25499 -0.09495
 C352 C 0.03243 0.28478 -0.10475
 C353 C -0.03765 0.24233 -0.12398
 C354 C -0.05168 0.23534 -0.11510
 C355 C -0.03746 0.24141 -0.08801
 C356 C -0.02349 0.24791 -0.09751
 N357 N -0.02369 0.24791 -0.11516
 H358 H 0.01088 0.28937 -0.12206
 H359 H 0.01851 0.23721 -0.10490
 H360 H 0.04426 0.24488 -0.08792
 H361 H 0.03590 0.29829 -0.10505
 H362 H -0.03769 0.24300 -0.13804
 H363 H -0.06255 0.23145 -0.12285
 H364 H -0.03615 0.24092 -0.07403
 H365 H -0.01236 0.25270 -0.09074
 C366 C -0.02526 0.30475 -0.16019
 C367 C 0.01927 0.20966 -0.16096
 C368 C -0.05184 0.23440 -0.09668
 C369 C 0.04227 0.27227 -0.09513
 C370 C 0.48374 0.23561 0.14288
 H371 H 0.47611 0.24771 0.14264
 C372 C 0.47755 0.22114 0.15186
 H373 H 0.46507 0.22225 0.15843
 C374 C 0.50863 0.21921 0.13345
 H375 H 0.52049 0.21830 0.12590
 C376 C 0.50304 0.20451 0.14238
 H377 H 0.51098 0.19262 0.14190
 N378 N 0.49891 0.23434 0.13372
 C379 C 0.51720 0.28635 0.12302
 H380 H 0.51794 0.28559 0.10900
 C381 C 0.52247 0.30123 0.13131
 H382 H 0.52704 0.31197 0.12350
 C383 C 0.51005 0.27321 0.15006
 H384 H 0.50537 0.26214 0.15726
 C385 C 0.51525 0.28790 0.15893
 H386 H 0.51460 0.28799 0.17300
 Zn387 Zn 0.50506 0.25333 0.11929
 N388 N 0.51107 0.27277 0.13241
 C389 C 0.47759 0.27527 0.10649
 N390 N 0.48552 0.25926 0.10511
 C391 C 0.47894 0.24702 0.09465
 C392 C 0.46398 0.25081 0.08477
 C393 C 0.46259 0.27957 0.09695
 C394 C 0.54011 0.24457 0.11464
 C395 C 0.55538 0.23945 0.10597
 C396 C 0.53934 0.24024 0.07897
 C397 C 0.52432 0.24537 0.08820
 N398 N 0.52492 0.24707 0.10577
 H399 H 0.48259 0.28464 0.11531
 H400 H 0.48526 0.23425 0.09409
 H401 H 0.45907 0.24096 0.07637
 H402 H 0.45629 0.29225 0.09863
 H403 H 0.54027 0.24634 0.12857
 H404 H 0.56731 0.23747 0.11332
 H405 H 0.53854 0.23845 0.06507
 H406 H 0.51222 0.24780 0.08131
 C407 C 0.52166 0.30213 0.14951
 C408 C 0.48709 0.20521 0.15142
 C409 C 0.55508 0.23698 0.08792
 C410 C 0.45556 0.26729 0.08588
 C411 C 0.98053 0.74341 0.64698
 H412 H 0.97259 0.75530 0.64630
 C413 C 0.97496 0.72928 0.65687
 H414 H 0.96261 0.73044 0.66367
 C415 C 1.00562 0.72718 0.63780
 H416 H 1.01734 0.72620 0.63002
 C417 C 1.00068 0.71283 0.64770
 H418 H 1.00898 0.70116 0.64772
 N419 N 0.99551 0.74206 0.63753
 C420 C 1.01203 0.79421 0.62452
 H421 H 1.01184 0.79325 0.61050
 C422 C 1.01762 0.80928 0.63220
 H423 H 1.02144 0.82001 0.62394
 C424 C 1.00706 0.78127 0.65218
 H425 H 1.00315 0.77018 0.65985
 C426 C 1.01267 0.79615 0.66045
 H427 H 1.01310 0.79635 0.67451
 Zn428 Zn 1.00072 0.76068 0.62224
 N429 N 1.00686 0.78061 0.63451
 C430 C 0.97218 0.78156 0.61000
 N431 N 0.98055 0.76577 0.60869
 C432 C 0.97408 0.75312 0.59865
 C433 C 0.95886 0.75632 0.58901
 C434 C 0.95688 0.78527 0.60073
 C435 C 1.03573 0.75239 0.61639
 C436 C 1.05079 0.74778 0.60712
 C437 C 1.03370 0.74806 0.58078
 C438 C 1.01893 0.75273 0.59058
 N439 N 1.02015 0.75449 0.60811
 H440 H 0.97711 0.79124 0.61853
 H441 H 0.98077 0.74052 0.59815
 H442 H 0.95413 0.74619 0.58084
 H443 H 0.95027 0.79781 0.60231
 H444 H 1.03637 0.75413 0.63031
 H445 H 1.06296 0.74571 0.61406
 H446 H 1.03251 0.74666 0.56685
 H447 H 1.00655 0.75495 0.58415
 C448 C 1.01819 0.81036 0.65040
 C449 C 0.98496 0.71359 0.65714
 C450 C 1.04988 0.74543 0.58908
 C451 C 0.95003 0.77261 0.58997
 C452 C 0.51065 0.73713 0.34468
 H453 H 0.51589 0.74994 0.34326
 C454 C 0.51760 0.72338 0.33486
 H455 H 0.52794 0.72584 0.32563
 C456 C 0.49108 0.71836 0.35872
 H457 H 0.48117 0.71624 0.36842
 C458 C 0.49771 0.70426 0.34928
 H459 H 0.49269 0.69151 0.35189
 N460 N 0.49751 0.73445 0.35621
 C461 C 0.47242 0.78518 0.36622
 H462 H 0.47131 0.78394 0.38021
 C463 C 0.46583 0.80014 0.35776
 H464 H 0.45917 0.80979 0.36566
 C465 C 0.48153 0.77310 0.33948
 H466 H 0.48764 0.76251 0.33238
 C467 C 0.47524 0.78792 0.33044
 H468 H 0.47737 0.78836 0.31655
 Zn469 Zn 0.48947 0.75306 0.37041
 N470 N 0.48034 0.77216 0.35709
 C471 C 0.51430 0.77657 0.38198
 N472 N 0.50875 0.76004 0.38351
 C473 C 0.51759 0.74788 0.39340
 C474 C 0.53270 0.75218 0.40222
 C475 C 0.52931 0.78142 0.39055
 C476 C 0.45666 0.74031 0.37715
 C477 C 0.44306 0.73362 0.38693
 C478 C 0.45933 0.73889 0.41307
 C479 C 0.47278 0.74527 0.40274
 N480 N 0.47134 0.74552 0.38511
 H481 H 0.50732 0.78598 0.37382
 H482 H 0.51307 0.73474 0.39414
 H483 H 0.53979 0.74223 0.40971
 H484 H 0.53349 0.79466 0.38917
 H485 H 0.45577 0.74095 0.36312
 H486 H 0.43162 0.72917 0.38037
 H487 H 0.46078 0.73836 0.42707
 H488 H 0.48440 0.74983 0.40882
 C489 C 0.46737 0.80203 0.33951
 C490 C 0.51118 0.70662 0.33717
 C491 C 0.44441 0.73265 0.40511
 C492 C 0.53884 0.76910 0.40069
 C493 C 0.39191 -0.00970 0.25925
 H494 H 0.39439 0.00284 0.26472
 C495 C 0.40059 -0.02466 0.26583
 H496 H 0.40978 -0.02356 0.27638
 C497 C 0.37625 -0.02650 0.23946
 H498 H 0.36644 -0.02727 0.22950
 C499 C 0.38447 -0.04176 0.24576
 H500 H 0.38119 -0.05410 0.24027
 N501 N 0.38007 -0.01086 0.24623
 C502 C 0.37362 0.04188 0.22493
 H503 H 0.35952 0.04285 0.22513
 C504 C 0.38308 0.05577 0.21865
 H505 H 0.37611 0.06750 0.21427
 C506 C 0.39967 0.02538 0.23074
 H507 H 0.40606 0.01340 0.23521
 C508 C 0.40969 0.03899 0.22450
 H509 H 0.42376 0.03733 0.22421
 Zn510 Zn 0.36727 0.00943 0.23886
 N511 N 0.38197 0.02715 0.23098
 C512 C 0.35715 0.03293 0.26527
 N513 N 0.35392 0.01732 0.25813
 C514 C 0.34196 0.00667 0.26525
 C515 C 0.33242 0.01178 0.27994
 C516 C 0.34799 0.03850 0.27998
 C517 C 0.36133 -0.00131 0.20529
 C518 C 0.35197 -0.00573 0.19061
 C519 C 0.32528 0.00195 0.20587
 C520 C 0.33520 0.00615 0.22034
 N521 N 0.35288 0.00420 0.21986
 H522 H 0.36713 0.04095 0.25984
 H523 H 0.33989 -0.00583 0.25952
 H524 H 0.32280 0.00322 0.28527
 H525 H 0.35109 0.05080 0.28564
 H526 H 0.37543 -0.00256 0.20522
 H527 H 0.35901 -0.01064 0.17938
 H528 H 0.31122 0.00363 0.20645
 H529 H 0.32875 0.01101 0.23188
 C530 C 0.40137 0.05445 0.21834
 C531 C 0.39673 -0.04098 0.25919
 C532 C 0.33367 -0.00420 0.19076
 C533 C 0.33541 0.02790 0.28752
 C534 C 0.10329 1.02461 0.76343
 H535 H 0.10150 1.01202 0.76949
 C536 C 0.09449 1.03936 0.76996
 H537 H 0.08587 1.03804 0.78105
 C538 C 0.11744 1.04180 0.74222
 H539 H 0.12666 1.04281 0.73166
 C540 C 0.10908 1.05685 0.74844
 H541 H 0.11170 1.06927 0.74235
 N542 N 0.11448 1.02607 0.74976
 C543 C 0.12193 0.97531 0.72576
 H544 H 0.13598 0.97515 0.72452
 C545 C 0.11260 0.96176 0.71901
 H546 H 0.11964 0.95108 0.71283
 C547 C 0.09583 0.98945 0.73551
 H548 H 0.08933 1.00038 0.74173
 C549 C 0.08595 0.97611 0.72894
 H550 H 0.07188 0.97695 0.73016
 Zn551 Zn 0.12779 1.00625 0.74247
 N552 N 0.11352 0.98868 0.73401
 C553 C 0.14237 0.98043 0.76546
 N554 N 0.14102 0.99776 0.76173
 C555 C 0.14868 1.00955 0.77197
 C556 C 0.15808 1.00403 0.78671
 C557 C 0.15194 0.97434 0.77983
 C558 C 0.13515 1.01684 0.70858
 C559 C 0.14532 1.02162 0.69436
 C560 C 0.17104 1.01737 0.71220
 C561 C 0.16035 1.01260 0.72610
 N562 N 0.14275 1.01259 0.72408
 H563 H 0.13600 0.97126 0.75739
 H564 H 0.14733 1.02326 0.76877
 H565 H 0.16402 1.01353 0.79484
 H566 H 0.15286 0.96052 0.78267
 H567 H 0.12112 1.01662 0.70734
 H568 H 0.13898 1.02532 0.68223
 H569 H 0.18503 1.01729 0.71399
 H570 H 0.16611 1.00896 0.73849
 C571 C 0.09436 0.96202 0.72057
 C572 C 0.09755 1.05576 0.76257
 C573 C 0.16352 1.02199 0.69607
 C574 C 0.15983 0.98622 0.79068
 C575 C 0.59457 0.51992 0.26584
 H576 H 0.59243 0.50754 0.27220
 C577 C 0.58538 0.53488 0.27136
 H578 H 0.57615 0.53392 0.28199
 C579 C 0.60998 0.53641 0.24497
 H580 H 0.61985 0.53707 0.23497
 C581 C 0.60120 0.55165 0.25015
 H582 H 0.60418 0.56385 0.24380
 N583 N 0.60663 0.52096 0.25290
 C584 C 0.61649 0.46907 0.23222
 H585 H 0.63059 0.46884 0.23268
 C586 C 0.60798 0.45517 0.22514
 H587 H 0.61565 0.44415 0.22036
 C588 C 0.58949 0.48375 0.23811
 H589 H 0.58237 0.49504 0.24297
 C590 C 0.58040 0.47005 0.23114
 H591 H 0.56629 0.47092 0.23066
 Zn592 Zn 0.62061 0.50100 0.24743
 N593 N 0.60722 0.48293 0.23864
 C594 C 0.63069 0.47676 0.27390
 N595 N 0.63217 0.49340 0.26804
 C596 C 0.64120 0.50509 0.27718
 C597 C 0.64935 0.50013 0.29280
 C598 C 0.63870 0.47123 0.28935
 C599 C 0.63019 0.50996 0.21375
 C600 C 0.64114 0.51435 0.20000
 C601 C 0.66567 0.51177 0.21961
 C602 C 0.65424 0.50726 0.23299
 N603 N 0.63683 0.50669 0.22988
 H604 H 0.62320 0.46773 0.26669
 H605 H 0.64192 0.51833 0.27239
 H606 H 0.65623 0.50970 0.30002
 H607 H 0.63760 0.45783 0.29355
 H608 H 0.61630 0.50930 0.21164
 H609 H 0.63555 0.51727 0.18733
 H610 H 0.67949 0.51229 0.22227
 H611 H 0.65929 0.50432 0.24584
 C612 C 0.58969 0.45553 0.22449
 C613 C 0.58889 0.55105 0.26366
 C614 C 0.65911 0.51543 0.20287
 C615 C 0.64811 0.48298 0.29911
 C616 C 0.89800 0.49440 0.76416
 H617 H 0.89880 0.50633 0.77132
 C618 C 0.90733 0.47943 0.76979
 H619 H 0.91535 0.47989 0.78133
 C620 C 0.88596 0.47905 0.74084
 H621 H 0.87758 0.47890 0.72959
 C622 C 0.89481 0.46375 0.74619
 H623 H 0.89319 0.45193 0.73898
 N624 N 0.88744 0.49389 0.75002
 C625 C 0.87827 0.54765 0.73209
 H626 H 0.86416 0.54833 0.73201
 C627 C 0.88751 0.56219 0.72716
 H628 H 0.88044 0.57405 0.72330
 C629 C 0.90458 0.53121 0.73683
 H630 H 0.91117 0.51909 0.74055
 C631 C 0.91437 0.54542 0.73172
 H632 H 0.92847 0.54419 0.73172
 Zn633 Zn 0.87310 0.51371 0.74431
 N634 N 0.88684 0.53264 0.73714
 C635 C 0.85955 0.53626 0.77056
 N636 N 0.86012 0.51966 0.76467
 C637 C 0.85272 0.50666 0.77397
 C638 C 0.84440 0.51011 0.78983
 C639 C 0.85123 0.54031 0.78619
 C640 C 0.86153 0.51452 0.70958
 C641 C 0.85217 0.50919 0.69522
 C642 C 0.83556 0.49082 0.71428
 C643 C 0.84515 0.49664 0.72834
 N644 N 0.85806 0.50808 0.72575
 H645 H 0.86583 0.54643 0.76343
 H646 H 0.85385 0.49344 0.76944
 H647 H 0.83912 0.49946 0.79727
 H648 H 0.85085 0.55366 0.79045
 H649 H 0.87204 0.52330 0.70762
 H650 H 0.85531 0.51439 0.68248
 H651 H 0.82591 0.48112 0.71654
 H652 H 0.84275 0.49143 0.74120
 C653 C 0.90579 0.56121 0.72704
 C654 C 0.90546 0.46379 0.76096
 C655 C 0.83927 0.49686 0.69738
 C656 C 0.84373 0.52713 0.79622
 C657 C 0.26127 0.39291 -0.00993
 H658 H 0.26647 0.39477 0.00294
 C659 C 0.26766 0.40241 -0.02408
 H660 H 0.27775 0.41164 -0.02203
 C661 C 0.24243 0.37801 -0.02844
 H662 H 0.23296 0.36816 -0.03023
 C663 C 0.24859 0.38702 -0.04293
 H664 H 0.24348 0.38430 -0.05567
 N665 N 0.24875 0.38110 -0.01231
 C666 C 0.22807 0.37165 0.03988
 H667 H 0.22861 0.35758 0.03973
 C668 C 0.22187 0.38028 0.05459
 H669 H 0.21791 0.37271 0.06580
 C670 C 0.23289 0.39844 0.02540
 H671 H 0.23688 0.40546 0.01388
 C672 C 0.22670 0.40764 0.03986
 H673 H 0.22602 0.42171 0.03929
 Zn674 Zn 0.24146 0.36720 0.00675
 N675 N 0.23361 0.38075 0.02576
 C676 C 0.26849 0.35489 0.02916
 N677 N 0.26084 0.35276 0.01345
 C678 C 0.26765 0.34124 0.00179
 C679 C 0.28255 0.33105 0.00589
 C680 C 0.28346 0.34509 0.03374
 C681 C 0.20804 0.36343 -0.00554
 C682 C 0.19365 0.35512 -0.01201
 C683 C 0.20850 0.32744 -0.00613
 C684 C 0.22274 0.33633 0.00009
 N685 N 0.22239 0.35402 -0.00013
 H686 H 0.26330 0.36455 0.03801
 H687 H 0.26153 0.34006 -0.01077
 H688 H 0.28761 0.32181 -0.00349
 H689 H 0.28957 0.34739 0.04612
 H690 H 0.20802 0.37748 -0.00528
 H691 H 0.18248 0.36285 -0.01662
 H692 H 0.20910 0.31337 -0.00636
 H693 H 0.23411 0.32908 0.00486
 C694 C 0.22110 0.39854 0.05473
 C695 C 0.26141 0.39935 -0.04085
 C696 C 0.19389 0.33691 -0.01263
 C697 C 0.29073 0.33296 0.02204
 C698 C 0.77281 0.09365 1.01282
 H699 H 0.77861 0.09099 1.00025
 C700 C 0.77879 0.08445 1.02756
 H701 H 0.78893 0.07444 1.02609
 C702 C 0.75265 0.11008 1.02988
 H703 H 0.74282 0.12042 1.03084
 C704 C 0.75839 0.10139 1.04496
 H705 H 0.75283 0.10525 1.05733
 N706 N 0.75989 0.10611 1.01420
 C707 C 0.73987 0.11397 0.96136
 H708 H 0.73986 0.12802 0.96069
 C709 C 0.73450 0.10466 0.94705
 H710 H 0.73027 0.11161 0.93537
 C711 C 0.74518 0.08786 0.97753
 H712 H 0.74922 0.08138 0.98947
 C713 C 0.73964 0.07803 0.96357
 H714 H 0.73969 0.06399 0.96479
 Zn715 Zn 0.75339 0.11955 0.99426
 N716 N 0.74552 0.10549 0.97605
 C717 C 0.77939 0.13046 0.97047
 N718 N 0.77327 0.13172 0.98703
 C719 C 0.78166 0.14107 0.99908
 C720 C 0.79680 0.14970 0.99462
 C721 C 0.79427 0.13910 0.96538
 C722 C 0.71940 0.12800 1.00425
 C723 C 0.70501 0.13851 1.00890
 C724 C 0.72233 0.16376 1.00411
 C725 C 0.73643 0.15273 0.99953
 N726 N 0.73476 0.13520 0.99991
 H727 H 0.77287 0.12268 0.96113
 H728 H 0.77670 0.14162 1.01225
 H729 H 0.80348 0.15671 1.00454
 H730 H 0.79855 0.13821 0.95199
 H731 H 0.71845 0.11401 1.00434
 H732 H 0.69306 0.13246 1.01278
 H733 H 0.72385 0.17769 1.00377
 H734 H 0.74867 0.15819 0.99574
 C735 C 0.73449 0.08645 0.94801
 C736 C 0.77169 0.08840 1.04399
 C737 C 0.70638 0.15665 1.00898
 C738 C 0.80333 0.14879 0.97753
 C739 C 0.26912 0.59852 0.52397
 H740 H 0.27529 0.59570 0.51162
 C741 C 0.27520 0.59012 0.53914
 H742 H 0.28606 0.58078 0.53837
 C743 C 0.24805 0.61481 0.54013
 H744 H 0.23774 0.62471 0.54058
 C745 C 0.25382 0.60687 0.55559
 H746 H 0.24762 0.61050 0.56774
 N747 N 0.25572 0.61057 0.52472
 C748 C 0.23395 0.61638 0.47249
 H749 H 0.23345 0.63043 0.47161
 C750 C 0.22749 0.60671 0.45892
 H751 H 0.22223 0.61344 0.44753
 C752 C 0.24160 0.59065 0.48841
 H753 H 0.24687 0.58446 0.50004
 C754 C 0.23531 0.58043 0.47508
 H755 H 0.23580 0.56641 0.47659
 Zn756 Zn 0.24904 0.62309 0.50425
 N757 N 0.24098 0.60829 0.48678
 C758 C 0.27464 0.63275 0.47962
 N759 N 0.26876 0.63493 0.49617
 C760 C 0.27727 0.64498 0.50753
 C761 C 0.29230 0.65341 0.50234
 C762 C 0.28950 0.64104 0.47385
 C763 C 0.21499 0.63201 0.51377
 C764 C 0.20056 0.64275 0.51777
 C765 C 0.21804 0.66775 0.51223
 C766 C 0.23217 0.65649 0.50829
 N767 N 0.23044 0.63898 0.50934
 H768 H 0.26792 0.62448 0.47085
 H769 H 0.27247 0.64627 0.52071
 H770 H 0.29907 0.66107 0.51169
 H771 H 0.29372 0.63934 0.46052
 H772 H 0.21397 0.61803 0.51436
 H773 H 0.18850 0.63691 0.52168
 H774 H 0.21961 0.68165 0.51133
 H775 H 0.24447 0.66177 0.50441
 C776 C 0.22812 0.58848 0.46009
 C777 C 0.26764 0.59444 0.55523
 C778 C 0.20199 0.66088 0.51712
 C779 C 0.29864 0.65146 0.48529
 C780 C 0.74920 0.89757 0.47934
 H781 H 0.74637 0.90456 0.49113
 C782 C 0.75525 0.90659 0.46473
 H783 H 0.75736 0.92038 0.46562
 C784 C 0.74981 0.87128 0.46374
 H785 H 0.74713 0.85762 0.46321
 C786 C 0.75581 0.87976 0.44886
 H787 H 0.75784 0.87243 0.43708
 N788 N 0.74692 0.88013 0.47871
 C789 C 0.71398 0.88021 0.52204
 H790 H 0.70552 0.87119 0.51597
 C791 C 0.70783 0.88976 0.53621
 H792 H 0.69468 0.88790 0.54086
 C793 C 0.74159 0.89282 0.52403
 H794 H 0.75488 0.89366 0.51944
 C795 C 0.73598 0.90259 0.53831
 H796 H 0.74493 0.91119 0.54438
 Zn797 Zn 0.73883 0.86700 0.49809
 N798 N 0.73065 0.88176 0.51629
 C799 C 0.76291 0.85321 0.52315
 N800 N 0.75726 0.85185 0.50649
 C801 C 0.76496 0.84014 0.49553
 C802 C 0.77934 0.82983 0.50094
 C803 C 0.77736 0.84331 0.52903
 C804 C 0.70789 0.86261 0.48035
 C805 C 0.69394 0.85385 0.47352
 C806 C 0.70534 0.82734 0.48717
 C807 C 0.71917 0.83662 0.49368
 N808 N 0.72018 0.85392 0.49012
 H809 H 0.75646 0.86218 0.53190
 H810 H 0.76002 0.83880 0.48252
 H811 H 0.78524 0.82064 0.49196
 H812 H 0.78203 0.84527 0.54209
 H813 H 0.70900 0.87639 0.47780
 H814 H 0.68424 0.86103 0.46584
 H815 H 0.70479 0.81353 0.48992
 H816 H 0.72908 0.83002 0.50155
 C817 C 0.71892 0.90100 0.54467
 C818 C 0.75879 0.89763 0.44926
 C819 C 0.69258 0.83597 0.47683
 C820 C 0.78598 0.83159 0.51780
 C821 C -0.01764 0.26773 0.39390
 H822 H -0.00479 0.27288 0.39529
 C823 C -0.03170 0.27501 0.40323
 H824 H -0.02961 0.28568 0.41192
 C825 C -0.03622 0.24812 0.38033
 H826 H -0.03809 0.23793 0.37110
 C827 C -0.05065 0.25520 0.38914
 H828 H -0.06341 0.25010 0.38689
 N829 N -0.02006 0.25431 0.38295
 C830 C 0.03095 0.22833 0.37553
 H831 H 0.02994 0.22625 0.36169
 C832 C 0.04576 0.22224 0.38449
 H833 H 0.05618 0.21553 0.37747
 C834 C 0.01866 0.23984 0.40142
 H835 H 0.00798 0.24647 0.40802
 C836 C 0.03342 0.23422 0.41086
 H837 H 0.03403 0.23664 0.42467
 Zn838 Zn -0.00100 0.24506 0.36977
 N839 N 0.01786 0.23711 0.38399
 C840 C 0.02276 0.26904 0.35638
 N841 N 0.00646 0.26294 0.35464
 C842 C -0.00505 0.27030 0.34306
 C843 C -0.00027 0.28433 0.33255
 C844 C 0.02804 0.28308 0.34624
 C845 C -0.01371 0.21202 0.36708
 C846 C -0.02007 0.19738 0.35918
 C847 C -0.01402 0.21042 0.33112
 C848 C -0.00794 0.22498 0.33959
 N849 N -0.00823 0.22561 0.35727
 H850 H 0.03157 0.26337 0.36600
 H851 H -0.01804 0.26537 0.34213
 H852 H -0.00959 0.28993 0.32333
 H853 H 0.04089 0.28803 0.34829
 H854 H -0.01349 0.21277 0.38111
 H855 H -0.02467 0.18680 0.36721
 H856 H -0.01411 0.21019 0.31704
 H857 H -0.00316 0.23576 0.33204
 C858 C 0.04719 0.22534 0.40234
 C859 C -0.04846 0.26876 0.40080
 C860 C -0.02048 0.19656 0.34098
 C861 C 0.01646 0.29100 0.33416
 C862 C 1.02352 0.76894 0.10210
 H863 H 1.01047 0.77438 0.10009
 C864 C 1.03745 0.77536 0.09250
 H865 H 1.03490 0.78550 0.08284
 C866 C 1.04263 0.74933 0.11739
 H867 H 1.04470 0.73955 0.12745
 C868 C 1.05693 0.75547 0.10821
 H869 H 1.06984 0.75027 0.11142
 N870 N 1.02632 0.75614 0.11425
 C871 C 0.97593 0.73368 0.12492
 H872 H 0.97645 0.73395 0.13897
 C873 C 0.96168 0.72669 0.11674
 H874 H 0.95116 0.72183 0.12464
 C875 C 0.98898 0.74007 0.09771
 H876 H 0.99977 0.74509 0.09037
 C877 C 0.97492 0.73314 0.08894
 H878 H 0.97504 0.73288 0.07487
 Zn879 Zn 1.00750 0.74937 0.12850
 N880 N 0.98910 0.74039 0.11539
 C881 C 0.98243 0.77488 0.13937
 N882 N 0.99938 0.76926 0.14074
 C883 C 1.01098 0.77814 0.15018
 C884 C 1.00562 0.79324 0.15888
 C885 C 0.97650 0.78980 0.14794
 C886 C 1.01967 0.71594 0.13676
 C887 C 1.02464 0.70167 0.14720
 C888 C 1.01990 0.71943 0.17256
 C889 C 1.01494 0.73339 0.16159
 N890 N 1.01501 0.73141 0.14404
 H891 H 0.97346 0.76792 0.13154
 H892 H 1.02447 0.77356 0.15080
 H893 H 1.01511 0.80027 0.16609
 H894 H 0.96286 0.79378 0.14692
 H895 H 1.01944 0.71471 0.12277
 H896 H 1.02849 0.68953 0.14112
 H897 H 1.01960 0.72113 0.18651
 H898 H 1.01085 0.74570 0.16713
 C899 C 0.96100 0.72634 0.09850
 C900 C 1.05450 0.76878 0.09566
 C901 C 1.02474 0.70329 0.16536
 C902 C 0.98814 0.79928 0.15780
 C903 C 0.52156 0.27006 0.60528
 H904 H 0.50849 0.27519 0.60274
 C905 C 0.53573 0.27703 0.59648
 H906 H 0.53338 0.28728 0.58689
 C907 C 0.54046 0.25071 0.62112
 H908 H 0.54237 0.24091 0.63118
 C909 C 0.55497 0.25734 0.61272
 H910 H 0.56784 0.25241 0.61640
 N911 N 0.52412 0.25699 0.61720
 C912 C 0.47360 0.23336 0.62386
 H913 H 0.47364 0.23265 0.63792
 C914 C 0.45968 0.22693 0.61469
 H915 H 0.44894 0.22149 0.62185
 C916 C 0.48751 0.24167 0.59762
 H917 H 0.49851 0.24719 0.59104
 C918 C 0.47376 0.23538 0.58788
 H919 H 0.47430 0.23615 0.57382
 Zn920 Zn 0.50472 0.24887 0.62992
 N921 N 0.48704 0.24076 0.61531
 C922 C 0.47888 0.27322 0.64189
 N923 N 0.49581 0.26755 0.64339
 C924 C 0.50700 0.27548 0.65414
 C925 C 0.50123 0.28966 0.66403
 C926 C 0.47251 0.28715 0.65172
 C927 C 0.51940 0.21584 0.63679
 C928 C 0.52410 0.20105 0.64660
 C929 C 0.51166 0.21492 0.67197
 C930 C 0.50764 0.22968 0.66173
 N931 N 0.51158 0.22986 0.64448
 H932 H 0.47028 0.26708 0.63297
 H933 H 0.52044 0.27082 0.65495
 H934 H 0.51025 0.29585 0.67256
 H935 H 0.45901 0.29155 0.65032
 H936 H 0.52210 0.21623 0.62298
 H937 H 0.53091 0.19039 0.64018
 H938 H 0.50785 0.21491 0.68552
 H939 H 0.50092 0.24078 0.66747
 C940 C 0.45959 0.22790 0.59645
 C941 C 0.55275 0.27071 0.60020
 C942 C 0.52006 0.20028 0.66446
 C943 C 0.48374 0.29556 0.66292
 C944 C 0.48766 0.76495 0.89865
 H945 H 0.50033 0.77057 0.89966
 C946 C 0.47341 0.77231 0.90766
 H947 H 0.47520 0.78352 0.91572
 C948 C 0.46964 0.74410 0.88623
 H949 H 0.46804 0.73339 0.87755
 C950 C 0.45505 0.75121 0.89474
 H951 H 0.44245 0.74565 0.89280
 N952 N 0.48559 0.75094 0.88836
 C953 C 0.53698 0.72575 0.88084
 H954 H 0.53565 0.72295 0.86718
 C955 C 0.55205 0.72025 0.88971
 H956 H 0.56207 0.71291 0.88276
 C957 C 0.52509 0.73823 0.90643
 H958 H 0.51450 0.74510 0.91294
 C959 C 0.54009 0.73319 0.91577
 H960 H 0.54094 0.73662 0.92933
 Zn961 Zn 0.50471 0.74190 0.87511
 N962 N 0.52396 0.73473 0.88919
 C963 C 0.52782 0.76583 0.86039
 N964 N 0.51145 0.75970 0.85953
 C965 C 0.49934 0.76698 0.84851
 C966 C 0.50353 0.78103 0.83774
 C967 C 0.53255 0.77984 0.84991
 C968 C 0.49323 0.70829 0.87311
 C969 C 0.48708 0.69338 0.86552
 C970 C 0.49134 0.70664 0.83721
 C971 C 0.49729 0.72142 0.84538
 N972 N 0.49778 0.72207 0.86304
 H973 H 0.53713 0.76019 0.86953
 H974 H 0.48633 0.76202 0.84828
 H975 H 0.49373 0.78663 0.82903
 H976 H 0.54549 0.78481 0.85120
 H977 H 0.49402 0.70908 0.88712
 H978 H 0.48327 0.68264 0.87377
 H979 H 0.49058 0.70644 0.82315
 H980 H 0.50130 0.73239 0.83761
 C981 C 0.55393 0.72417 0.90738
 C982 C 0.45684 0.76550 0.90559
 C983 C 0.48585 0.69252 0.84735
 C984 C 0.52031 0.78772 0.83846
 C985 C 0.44902 -0.15141 0.31337
 C986 C 0.45302 -0.15141 0.33115
 C987 C 0.45911 -0.16658 0.33965
 C988 C 0.46131 -0.18246 0.33072
 C989 C 0.45730 -0.18226 0.31276
 C990 C 0.45131 -0.16700 0.30427
 C991 C 0.44221 -0.13525 0.30449
 C992 C 0.42911 -0.13595 0.29181
 C993 C 0.42223 -0.12073 0.28396
 C994 C 0.42817 -0.10438 0.28868
 C995 C 0.44145 -0.10369 0.30117
 C996 C 0.44842 -0.11893 0.30892
 C997 C 0.42024 -0.08812 0.28092
 C998 C 0.43046 -0.07370 0.27717
 C999 C 0.42285 -0.05836 0.27018
 C1000 C 0.40491 -0.05717 0.26662
 C1001 C 0.39470 -0.07156 0.27031
 C1002 C 0.40225 -0.08682 0.27744
 H1003 H 0.45128 -0.13967 0.33863
 H1004 H 0.46260 -0.16543 0.35317
 H1005 H 0.45809 -0.19393 0.30514
 H1006 H 0.44849 -0.16745 0.29051
 H1007 H 0.42387 -0.14826 0.28820
 H1008 H 0.41222 -0.12178 0.27419
 H1009 H 0.44623 -0.09134 0.30526
 H1010 H 0.45870 -0.11791 0.31843
 H1011 H 0.44438 -0.07433 0.27944
 H1012 H 0.43104 -0.04751 0.26730
 H1013 H 0.38078 -0.07090 0.26798
 H1014 H 0.39391 -0.09749 0.28052
 C1015 C 0.95735 0.35222 0.81326
 C1016 C 0.96181 0.35222 0.83098
 C1017 C 0.96764 0.33694 0.83945
 C1018 C 0.96889 0.32110 0.83056
 C1019 C 0.96446 0.32108 0.81282
 C1020 C 0.95889 0.33645 0.80426
 C1021 C 0.95079 0.36853 0.80438
 C1022 C 0.93792 0.36805 0.79143
 C1023 C 0.93127 0.38339 0.78361
 C1024 C 0.93706 0.39968 0.78871
 C1025 C 0.95011 0.40015 0.80148
 C1026 C 0.95697 0.38479 0.80910
 C1027 C 0.92917 0.41608 0.78113
 C1028 C 0.93916 0.43093 0.77864
 C1029 C 0.93150 0.44645 0.77211
 C1030 C 0.91378 0.44738 0.76763
 C1031 C 0.90383 0.43256 0.76987
 C1032 C 0.91138 0.41716 0.77667
 H1033 H 0.96055 0.36400 0.83847
 H1034 H 0.97126 0.33761 0.85301
 H1035 H 0.96506 0.30915 0.80554
 H1036 H 0.95584 0.33594 0.79056
 H1037 H 0.93266 0.35584 0.78756
 H1038 H 0.92150 0.38243 0.77358
 H1039 H 0.95480 0.41240 0.80592
 H1040 H 0.96711 0.38571 0.81876
 H1041 H 0.95295 0.43055 0.78162
 H1042 H 0.93946 0.45769 0.77037
 H1043 H 0.89007 0.43305 0.76675
 H1044 H 0.90313 0.40621 0.77877
 C1045 C 0.04270 1.16511 0.81325
 C1046 C 0.05306 1.17859 0.81899
 C1047 C 0.04547 1.19317 0.82707
 C1048 C 0.02731 1.19469 0.82951
 C1049 C 0.01692 1.18143 0.82334
 C1050 C 0.02452 1.16680 0.81540
 C1051 C 0.05082 1.14916 0.80548
 C1052 C 0.04258 1.14064 0.79187
 C1053 C 0.05001 1.12539 0.78494
 C1054 C 0.06594 1.11844 0.79132
 C1055 C 0.07427 1.12698 0.80480
 C1056 C 0.06676 1.14211 0.81187
 C1057 C 0.07393 1.10236 0.78390
 C1058 C 0.09177 1.10148 0.77973
 C1059 C 0.09937 1.08637 0.77273
 C1060 C 0.08933 1.07176 0.76992
 C1061 C 0.07152 1.07258 0.77421
 C1062 C 0.06386 1.08780 0.78102
 H1063 H 0.06707 1.17787 0.81730
 H1064 H 0.05390 1.20303 0.83180
 H1065 H 0.00288 1.18229 0.82473
 H1066 H 0.01613 1.15662 0.81131
 H1067 H 0.03045 1.14584 0.78643
 H1068 H 0.04345 1.11917 0.77439
 H1069 H 0.08646 1.12176 0.81010
 H1070 H 0.07330 1.14809 0.82257
 H1071 H 0.09980 1.11256 0.78171
 H1072 H 0.11317 1.08603 0.76969
 H1073 H 0.06349 1.06152 0.77210
 H1074 H 0.05010 1.08811 0.78426
 C1075 C 0.53387 0.66160 0.31164
 C1076 C 0.54434 0.67530 0.31661
 C1077 C 0.53696 0.69004 0.32456
 C1078 C 0.51890 0.69150 0.32764
 C1079 C 0.50837 0.67802 0.32221
 C1080 C 0.51577 0.66324 0.31437
 C1081 C 0.54186 0.64546 0.30415
 C1082 C 0.53339 0.63657 0.29094
 C1083 C 0.54080 0.62120 0.28421
 C1084 C 0.55689 0.61448 0.29045
 C1085 C 0.56538 0.62337 0.30360
 C1086 C 0.55792 0.63863 0.31041
 C1087 C 0.56490 0.59829 0.28327
 C1088 C 0.58278 0.59730 0.27931
 C1089 C 0.59048 0.58201 0.27281
 C1090 C 0.58048 0.56733 0.27022
 C1091 C 0.56258 0.56830 0.27417
 C1092 C 0.55484 0.58367 0.28053
 H1093 H 0.55829 0.67460 0.31445
 H1094 H 0.54549 0.70006 0.32872
 H1095 H 0.49438 0.67883 0.32414
 H1096 H 0.50732 0.65289 0.31086
 H1097 H 0.52114 0.64159 0.28564
 H1098 H 0.53408 0.61471 0.27394
 H1099 H 0.57767 0.61834 0.30883
 H1100 H 0.56462 0.64491 0.32083
 H1101 H 0.59081 0.60840 0.28116
 H1102 H 0.60434 0.58158 0.27007
 H1103 H 0.55457 0.55720 0.27221
 H1104 H 0.54105 0.58406 0.28360
 C1105 C 0.53827 0.34880 0.17386
 C1106 C 0.54766 0.34158 0.15986
 C1107 C 0.54245 0.32627 0.15226
 C1108 C 0.52766 0.31782 0.15843
 C1109 C 0.51850 0.32479 0.17274
 C1110 C 0.52377 0.34013 0.18040
 C1111 C 0.54365 0.36542 0.18138
 C1112 C 0.54422 0.36762 0.19948
 C1113 C 0.55047 0.38291 0.20642
 C1114 C 0.55621 0.39630 0.19539
 C1115 C 0.55501 0.39430 0.17731
 C1116 C 0.54883 0.37905 0.17040
 C1117 C 0.56424 0.41191 0.20262
 C1118 C 0.57914 0.41863 0.19469
 C1119 C 0.58717 0.43293 0.20165
 C1120 C 0.58054 0.44086 0.21674
 C1121 C 0.56547 0.43434 0.22455
 C1122 C 0.55743 0.41996 0.21759
 H1123 H 0.55913 0.34774 0.15480
 H1124 H 0.55005 0.32103 0.14155
 H1125 H 0.50698 0.31866 0.17769
 H1126 H 0.51626 0.34545 0.19114
 H1127 H 0.54041 0.35729 0.20825
 H1128 H 0.55138 0.38399 0.22040
 H1129 H 0.55897 0.40453 0.16848
 H1130 H 0.54817 0.37788 0.15640
 H1131 H 0.58485 0.41260 0.18328
 H1132 H 0.59862 0.43777 0.19520
 H1133 H 0.56013 0.44011 0.23626
 H1134 H 0.54588 0.41517 0.22389
 C1135 C 0.03691 0.85698 0.67325
 C1136 C 0.04487 0.84996 0.65833
 C1137 C 0.03896 0.83472 0.65117
 C1138 C 0.02485 0.82615 0.65866
 C1139 C 0.01707 0.83298 0.67380
 C1140 C 0.02308 0.84823 0.68105
 C1141 C 0.04315 0.87338 0.68049
 C1142 C 0.04572 0.87510 0.69845
 C1143 C 0.05283 0.89015 0.70501
 C1144 C 0.05744 0.90380 0.69373
 C1145 C 0.05424 0.90230 0.67584
 C1146 C 0.04722 0.88726 0.66930
 C1147 C 0.06632 0.91918 0.70040
 C1148 C 0.08024 0.92618 0.69103
 C1149 C 0.08909 0.94024 0.69746
 C1150 C 0.08430 0.94763 0.71344
 C1151 C 0.07020 0.94083 0.72272
 C1152 C 0.06132 0.92673 0.71628
 H1153 H 0.05582 0.85620 0.65227
 H1154 H 0.04555 0.82959 0.63977
 H1155 H 0.00608 0.82677 0.67981
 H1156 H 0.01666 0.85340 0.69252
 H1157 H 0.04281 0.86455 0.70735
 H1158 H 0.05530 0.89083 0.71883
 H1159 H 0.05729 0.91273 0.66686
 H1160 H 0.04504 0.88644 0.65543
 H1161 H 0.08457 0.92055 0.67887
 H1162 H 0.09975 0.94531 0.68989
 H1163 H 0.06628 0.94617 0.73514
 H1164 H 0.05055 0.92172 0.72372
 C1165 C 0.96511 0.66813 0.68286
 C1166 C 0.97498 0.66656 0.66753
 C1167 C 0.98155 0.68126 0.65933
 C1168 C 0.97860 0.69789 0.66639
 C1169 C 0.96903 0.69937 0.68197
 C1170 C 0.96227 0.68466 0.69006
 C1171 C 0.95726 0.65262 0.69087
 C1172 C 0.93963 0.65318 0.69583
 C1173 C 0.93189 0.63831 0.70245
 C1174 C 0.94165 0.62257 0.70448
 C1175 C 0.95941 0.62217 0.69983
 C1176 C 0.96710 0.63700 0.69300
 C1177 C 0.93318 0.60662 0.71099
 C1178 C 0.93790 0.59018 0.70427
 C1179 C 0.92932 0.57534 0.70980
 C1180 C 0.91570 0.57665 0.72199
 C1181 C 0.91118 0.59295 0.72895
 C1182 C 0.91989 0.60774 0.72361
 H1183 H 0.97713 0.65400 0.66158
 H1184 H 0.98850 0.67962 0.64716
 H1185 H 0.96676 0.71189 0.68794
 H1186 H 0.95485 0.68617 0.70198
 H1187 H 0.93170 0.66500 0.69409
 H1188 H 0.91811 0.63906 0.70554
 H1189 H 0.96742 0.61040 0.70151
 H1190 H 0.98077 0.63630 0.68944
 H1191 H 0.94788 0.58883 0.69435
 H1192 H 0.93295 0.56292 0.70415
 H1193 H 0.90089 0.59424 0.73857
 H1194 H 0.91618 0.62008 0.72939
 C1195 C 0.46516 0.15878 0.17325
 C1196 C 0.47506 0.15814 0.15786
 C1197 C 0.48230 0.17313 0.15096
 C1198 C 0.48000 0.18916 0.15935
 C1199 C 0.47041 0.18976 0.17496
 C1200 C 0.46306 0.17474 0.18183
 C1201 C 0.45663 0.14296 0.17996
 C1202 C 0.45560 0.13938 0.19792
 C1203 C 0.44723 0.12465 0.20411
 C1204 C 0.43969 0.11317 0.19248
 C1205 C 0.44092 0.11666 0.17454
 C1206 C 0.44922 0.13138 0.16837
 C1207 C 0.43018 0.09787 0.19898
 C1208 C 0.41471 0.09312 0.19086
 C1209 C 0.40557 0.07892 0.19700
 C1210 C 0.41157 0.06914 0.21149
 C1211 C 0.42713 0.07376 0.21955
 C1212 C 0.43633 0.08798 0.21337
 H1213 H 0.47716 0.14603 0.15105
 H1214 H 0.48937 0.17220 0.13878
 H1215 H 0.46853 0.20184 0.18186
 H1216 H 0.45538 0.17573 0.19363
 H1217 H 0.46134 0.14792 0.20719
 H1218 H 0.44636 0.12244 0.21801
 H1219 H 0.43547 0.10798 0.16522
 H1220 H 0.44954 0.13384 0.15448
 H1221 H 0.40949 0.10057 0.17989
 H1222 H 0.39377 0.07558 0.19033
 H1223 H 0.43203 0.06658 0.23083
 H1224 H 0.44830 0.09117 0.21980
 C1225 C 0.31321 0.45742 -0.14694
 C1226 C 0.30471 0.45864 -0.16313
 C1227 C 0.31337 0.46480 -0.17790
 C1228 C 0.33070 0.47004 -0.17683
 C1229 C 0.33902 0.46922 -0.16055
 C1230 C 0.33045 0.46289 -0.14585
 C1231 C 0.30441 0.44994 -0.13138
 C1232 C 0.30762 0.45622 -0.11465
 C1233 C 0.30025 0.44845 -0.09995
 C1234 C 0.28931 0.43431 -0.10161
 C1235 C 0.28567 0.42838 -0.11838
 C1236 C 0.29321 0.43601 -0.13305
 C1237 C 0.28209 0.42546 -0.08594
 C1238 C 0.28026 0.40733 -0.08567
 C1239 C 0.27351 0.39894 -0.07105
 C1240 C 0.26863 0.40840 -0.05625
 C1241 C 0.27064 0.42646 -0.05633
 C1242 C 0.27719 0.43492 -0.07107
 H1243 H 0.29135 0.45481 -0.16442
 H1244 H 0.30658 0.46511 -0.19022
 H1245 H 0.35223 0.47346 -0.15913
 H1246 H 0.33752 0.46194 -0.13370
 H1247 H 0.31593 0.46712 -0.11286
 H1248 H 0.30349 0.45328 -0.08727
 H1249 H 0.27704 0.41775 -0.12022
 H1250 H 0.29056 0.43067 -0.14567
 H1251 H 0.28430 0.39954 -0.09667
 H1252 H 0.27236 0.38496 -0.07121
 H1253 H 0.26682 0.43405 -0.04511
 H1254 H 0.27817 0.44891 -0.07088
 C1255 C 0.80850 0.95640 0.34273
 C1256 C 0.80331 0.95294 0.32564
 C1257 C 0.81243 0.95965 0.31141
 C1258 C 0.82698 0.96987 0.31398
 C1259 C 0.83191 0.97363 0.33106
 C1260 C 0.82277 0.96700 0.34526
 C1261 C 0.79962 0.94839 0.35788
 C1262 C 0.79635 0.95791 0.37309
 C1263 C 0.78906 0.94998 0.38774
 C1264 C 0.78495 0.93234 0.38753
 C1265 C 0.78784 0.92294 0.37220
 C1266 C 0.79507 0.93087 0.35754
 C1267 C 0.77820 0.92359 0.40339
 C1268 C 0.78447 0.90681 0.40810
 C1269 C 0.77826 0.89850 0.42302
 C1270 C 0.76557 0.90674 0.43359
 C1271 C 0.75937 0.92359 0.42896
 C1272 C 0.76563 0.93193 0.41403
 H1273 H 0.79225 0.94495 0.32328
 H1274 H 0.80839 0.95645 0.29840
 H1275 H 0.84294 0.98166 0.33345
 H1276 H 0.82719 0.96976 0.35825
 H1277 H 0.79955 0.97147 0.37368
 H1278 H 0.78708 0.95753 0.39940
 H1279 H 0.78460 0.90939 0.37157
 H1280 H 0.79758 0.92315 0.34609
 H1281 H 0.79441 0.90019 0.40038
 H1282 H 0.78357 0.88567 0.42640
 H1283 H 0.74943 0.93020 0.43670
 H1284 H 0.76044 0.94480 0.41064
 C1285 C 0.82096 0.03687 1.15604
 C1286 C 0.81149 0.03736 1.17166
 C1287 C 0.81892 0.03072 1.18709
 C1288 C 0.83595 0.02306 1.18724
 C1289 C 0.84523 0.02250 1.17133
 C1290 C 0.83788 0.02941 1.15604
 C1291 C 0.81336 0.04423 1.13974
 C1292 C 0.82302 0.05541 1.12920
 C1293 C 0.81607 0.06217 1.11366
 C1294 C 0.79936 0.05771 1.10814
 C1295 C 0.78969 0.04651 1.11878
 C1296 C 0.79657 0.03995 1.13447
 C1297 C 0.79209 0.06482 1.09145
 C1298 C 0.77421 0.06918 1.08982
 C1299 C 0.76753 0.07639 1.07433
 C1300 C 0.77858 0.07965 1.06010
 C1301 C 0.79642 0.07504 1.06164
 C1302 C 0.80305 0.06763 1.07705
 H1303 H 0.79839 0.04306 1.17197
 H1304 H 0.81094 0.03109 1.19870
 H1305 H 0.85854 0.01744 1.17062
 H1306 H 0.84545 0.02887 1.14413
 H1307 H 0.83591 0.05909 1.13311
 H1308 H 0.82374 0.07108 1.10607
 H1309 H 0.77691 0.04256 1.11486
 H1310 H 0.78894 0.03121 1.14232
 H1311 H 0.76538 0.06738 1.10065
 H1312 H 0.75368 0.07948 1.07355
 H1313 H 0.80540 0.07754 1.05109
 H1314 H 0.81683 0.06413 1.07767
 C1315 C 0.31568 0.54183 0.66711
 C1316 C 0.32116 0.55244 0.68064
 C1317 C 0.32899 0.54511 0.69556
 C1318 C 0.33143 0.52698 0.69737
 C1319 C 0.32550 0.51637 0.68405
 C1320 C 0.31780 0.52369 0.66909
 C1321 C 0.30823 0.54965 0.65081
 C1322 C 0.29473 0.54163 0.64198
 C1323 C 0.28811 0.54875 0.62641
 C1324 C 0.29472 0.56414 0.61943
 C1325 C 0.30811 0.57224 0.62828
 C1326 C 0.31485 0.56504 0.64375
 C1327 C 0.28767 0.57180 0.60299
 C1328 C 0.28386 0.58975 0.60160
 C1329 C 0.27727 0.59704 0.58612
 C1330 C 0.27450 0.58656 0.57165
 C1331 C 0.27840 0.56862 0.57299
 C1332 C 0.28481 0.56129 0.58856
 H1333 H 0.31947 0.56644 0.67970
 H1334 H 0.33354 0.55369 0.70545
 H1335 H 0.32690 0.50235 0.68512
 H1336 H 0.31390 0.51512 0.65889
 H1337 H 0.28912 0.52993 0.64718
 H1338 H 0.27763 0.54237 0.61995
 H1339 H 0.31361 0.58399 0.62306
 H1340 H 0.32548 0.57138 0.64998
 H1341 H 0.28582 0.59813 0.61255
 H1342 H 0.27454 0.61093 0.58539
 H1343 H 0.27630 0.56025 0.56206
 H1344 H 0.28778 0.54743 0.58925
 C1345 C 0.18181 0.52534 0.35680
 C1346 C 0.16757 0.51439 0.35780
 C1347 C 0.15976 0.50856 0.34270
 C1348 C 0.16605 0.51347 0.32624
 C1349 C 0.18077 0.52378 0.32520
 C1350 C 0.18856 0.52969 0.34033
 C1351 C 0.18889 0.53302 0.37281
 C1352 C 0.20690 0.53512 0.37482
 C1353 C 0.21332 0.54322 0.38954
 C1354 C 0.20185 0.54944 0.40251
 C1355 C 0.18390 0.54701 0.40066
 C1356 C 0.17750 0.53893 0.38599
 C1357 C 0.20845 0.55905 0.41760
 C1358 C 0.19938 0.57406 0.42342
 C1359 C 0.20567 0.58344 0.43731
 C1360 C 0.22119 0.57805 0.44575
 C1361 C 0.23018 0.56291 0.44010
 C1362 C 0.22390 0.55354 0.42613
 H1363 H 0.16231 0.51050 0.37029
 H1364 H 0.14864 0.50035 0.34390
 H1365 H 0.18580 0.52789 0.31268
 H1366 H 0.19940 0.53825 0.33910
 H1367 H 0.21602 0.53057 0.36497
 H1368 H 0.22720 0.54502 0.39054
 H1369 H 0.17476 0.55147 0.41053
 H1370 H 0.16355 0.53772 0.38476
 H1371 H 0.18754 0.57877 0.41701
 H1372 H 0.19834 0.59493 0.44149
 H1373 H 0.24225 0.55851 0.44627
 H1374 H 0.23109 0.54194 0.42203
 C1375 C 0.68803 0.02537 0.84375
 C1376 C 0.67274 0.01631 0.84654
 C1377 C 0.66340 0.01009 0.83254
 C1378 C 0.66917 0.01259 0.81523
 C1379 C 0.68505 0.02105 0.81263
 C1380 C 0.69421 0.02751 0.82669
 C1381 C 0.69691 0.03332 0.85857
 C1382 C 0.70161 0.05075 0.85758
 C1383 C 0.70861 0.05877 0.87202
 C1384 C 0.71125 0.04947 0.88775
 C1385 C 0.70698 0.03185 0.88854
 C1386 C 0.69979 0.02390 0.87414
 C1387 C 0.71789 0.05832 0.90337
 C1388 C 0.71157 0.05421 0.92009
 C1389 C 0.71722 0.06308 0.93464
 C1390 C 0.72913 0.07640 0.93278
 C1391 C 0.73565 0.08037 0.91616
 C1392 C 0.73019 0.07136 0.90164
 H1393 H 0.66770 0.01445 0.85958
 H1394 H 0.65181 0.00301 0.83548
 H1395 H 0.69000 0.02370 0.79971
 H1396 H 0.70604 0.03442 0.82422
 H1397 H 0.69928 0.05837 0.84581
 H1398 H 0.71141 0.07243 0.87100
 H1399 H 0.70916 0.02419 0.90030
 H1400 H 0.69641 0.01038 0.87517
 H1401 H 0.70188 0.04447 0.92190
 H1402 H 0.71189 0.05990 0.94731
 H1403 H 0.74505 0.09042 0.91443
 H1404 H 0.73563 0.07462 0.88906
 C1405 C 0.67287 0.95318 0.65622
 C1406 C 0.68327 0.95413 0.67118
 C1407 C 0.67623 0.96066 0.68667
 C1408 C 0.65866 0.96646 0.68752
 C1409 C 0.64831 0.96554 0.67254
 C1410 C 0.65533 0.95902 0.65709
 C1411 C 0.68015 0.94600 0.63978
 C1412 C 0.67012 0.93524 0.62948
 C1413 C 0.67673 0.92871 0.61385
 C1414 C 0.69354 0.93274 0.60815
 C1415 C 0.70366 0.94337 0.61851
 C1416 C 0.69703 0.94994 0.63416
 C1417 C 0.70046 0.92568 0.59153
 C1418 C 0.71776 0.91915 0.59031
 C1419 C 0.72390 0.91155 0.57495
 C1420 C 0.71288 0.91033 0.56048
 C1421 C 0.69575 0.91733 0.56155
 C1422 C 0.68961 0.92491 0.57689
 H1423 H 0.69678 0.94958 0.67097
 H1424 H 0.68457 0.96133 0.69795
 H1425 H 0.63467 0.96965 0.67280
 H1426 H 0.64702 0.95866 0.64575
 H1427 H 0.65721 0.93167 0.63360
 H1428 H 0.66876 0.92026 0.60635
 H1429 H 0.71660 0.94683 0.61438
 H1430 H 0.70499 0.95836 0.64170
 H1431 H 0.72638 0.91939 0.60141
 H1432 H 0.73709 0.90607 0.57461
 H1433 H 0.68704 0.91687 0.55053
 H1434 H 0.67633 0.93015 0.57732
 C1435 C 0.17650 0.45763 0.16365
 C1436 C 0.16087 0.46772 0.16364
 C1437 C 0.15415 0.47460 0.17906
 C1438 C 0.16295 0.47172 0.19492
 C1439 C 0.17876 0.46189 0.19490
 C1440 C 0.18546 0.45492 0.17945
 C1441 C 0.18312 0.44961 0.14732
 C1442 C 0.20107 0.44858 0.14356
 C1443 C 0.20720 0.44077 0.12829
 C1444 C 0.19551 0.43382 0.11643
 C1445 C 0.17756 0.43500 0.12013
 C1446 C 0.17145 0.44274 0.13539
 C1447 C 0.20197 0.42503 0.10044
 C1448 C 0.19414 0.40992 0.09469
 C1449 C 0.20022 0.40150 0.07978
 C1450 C 0.21436 0.40790 0.07027
 C1451 C 0.22213 0.42307 0.07593
 C1452 C 0.21601 0.43154 0.09085
 H1453 H 0.15377 0.47028 0.15168
 H1454 H 0.14182 0.48188 0.17859
 H1455 H 0.18597 0.45957 0.20684
 H1456 H 0.19745 0.44708 0.17995
 H1457 H 0.21040 0.45389 0.15238
 H1458 H 0.22112 0.43991 0.12593
 H1459 H 0.16818 0.42999 0.11118
 H1460 H 0.15757 0.44310 0.13797
 H1461 H 0.18344 0.40443 0.10186
 H1462 H 0.19377 0.38999 0.07566
 H1463 H 0.23314 0.42825 0.06899
 H1464 H 0.22220 0.44326 0.09482
 C1465 C -0.15482 0.32104 0.46134
 C1466 C -0.17075 0.31255 0.46232
 C1467 C -0.18571 0.32104 0.46898
 C1468 C -0.18508 0.33815 0.47503
 C1469 C -0.16903 0.34642 0.47453
 C1470 C -0.15416 0.33805 0.46765
 C1471 C -0.13910 0.31247 0.45330
 C1472 C -0.12227 0.31566 0.45943
 C1473 C -0.10749 0.30846 0.45119
 C1474 C -0.10913 0.29767 0.43674
 C1475 C -0.12598 0.29408 0.43092
 C1476 C -0.14074 0.30149 0.43899
 C1477 C -0.09340 0.29043 0.42757
 C1478 C -0.09354 0.28834 0.40942
 C1479 C -0.07894 0.28134 0.40078
 C1480 C -0.06374 0.27653 0.41001
 C1481 C -0.06338 0.27887 0.42807
 C1482 C -0.07810 0.28561 0.43678
 H1483 H -0.17172 0.29935 0.45788
 H1484 H -0.19784 0.31428 0.46902
 H1485 H -0.16791 0.35945 0.47940
 H1486 H -0.14224 0.34512 0.46694
 H1487 H -0.12047 0.32379 0.47059
 H1488 H -0.09477 0.31168 0.45596
 H1489 H -0.12781 0.28556 0.42006
 H1490 H -0.15342 0.29888 0.43373
 H1491 H -0.10487 0.29229 0.40180
 H1492 H -0.07943 0.27987 0.38681
 H1493 H -0.05184 0.27508 0.43547
 H1494 H -0.07757 0.28676 0.45077
 C1495 C 0.34858 0.81956 0.96126
 C1496 C 0.34874 0.83700 0.96644
 C1497 C 0.33356 0.84547 0.97251
 C1498 C 0.31770 0.83687 0.97330
 C1499 C 0.31758 0.81935 0.96838
 C1500 C 0.33284 0.81078 0.96254
 C1501 C 0.36462 0.81082 0.95402
 C1502 C 0.36347 0.79883 0.94049
 C1503 C 0.37850 0.79120 0.93315
 C1504 C 0.39515 0.79554 0.93891
 C1505 C 0.39632 0.80735 0.95260
 C1506 C 0.38126 0.81479 0.96013
 C1507 C 0.41116 0.78803 0.93042
 C1508 C 0.42642 0.78417 0.94008
 C1509 C 0.44138 0.77713 0.93199
 C1510 C 0.44131 0.77353 0.91416
 C1511 C 0.42616 0.77742 0.90449
 C1512 C 0.41132 0.78471 0.91248
 H1513 H 0.36050 0.84429 0.96546
 H1514 H 0.33428 0.85884 0.97652
 H1515 H 0.30562 0.81231 0.96865
 H1516 H 0.33226 0.79727 0.95897
 H1517 H 0.35094 0.79559 0.93525
 H1518 H 0.37702 0.78189 0.92289
 H1519 H 0.40888 0.81116 0.95730
 H1520 H 0.38270 0.82372 0.97072
 H1521 H 0.42674 0.78630 0.95395
 H1522 H 0.45289 0.77411 0.93973
 H1523 H 0.42587 0.77500 0.89065
 H1524 H 0.40003 0.78791 0.90450
 C1525 C 1.16104 0.82253 0.04258
 C1526 C 1.17691 0.81311 0.04037
 C1527 C 1.19136 0.82112 0.03306
 C1528 C 1.19010 0.83862 0.02760
 C1529 C 1.17423 0.84801 0.02983
 C1530 C 1.15988 0.84008 0.03731
 C1531 C 1.14566 0.81417 0.05029
 C1532 C 1.13549 0.82282 0.06292
 C1533 C 1.12069 0.81524 0.06986
 C1534 C 1.11557 0.79889 0.06421
 C1535 C 1.12585 0.79019 0.05164
 C1536 C 1.14078 0.79772 0.04482
 C1537 C 1.09963 0.79100 0.07148
 C1538 C 1.09918 0.77301 0.07478
 C1539 C 1.08441 0.76574 0.08221
 C1540 C 1.06976 0.77629 0.08664
 C1541 C 1.07011 0.79424 0.08304
 C1542 C 1.08481 0.80148 0.07549
 H1543 H 1.17817 0.79959 0.04445
 H1544 H 1.20342 0.81359 0.03141
 H1545 H 1.17295 0.86157 0.02590
 H1546 H 1.14778 0.84761 0.03874
 H1547 H 1.13911 0.83540 0.06756
 H1548 H 1.11335 0.82213 0.07981
 H1549 H 1.12218 0.77770 0.04681
 H1550 H 1.14828 0.79087 0.03495
 H1551 H 1.11039 0.76455 0.07200
 H1552 H 1.08451 0.75183 0.08456
 H1553 H 1.05918 0.80282 0.08645
 H1554 H 1.08456 0.81534 0.07284
 C1555 C 0.66007 0.32465 0.54907
 C1556 C 0.67570 0.31500 0.54622
 C1557 C 0.69019 0.32296 0.53893
 C1558 C 0.68923 0.34066 0.53417
 C1559 C 0.67362 0.35030 0.53711
 C1560 C 0.65923 0.34240 0.54452
 C1561 C 0.64458 0.31630 0.55659
 C1562 C 0.63451 0.32475 0.56943
 C1563 C 0.61959 0.31721 0.57615
 C1564 C 0.61429 0.30108 0.57009
 C1565 C 0.62447 0.29257 0.55733
 C1566 C 0.63948 0.30007 0.55069
 C1567 C 0.59827 0.29319 0.57715
 C1568 C 0.59774 0.27516 0.58019
 C1569 C 0.58286 0.26784 0.58731
 C1570 C 0.56817 0.27837 0.59167
 C1571 C 0.56861 0.29636 0.58837
 C1572 C 0.58345 0.30367 0.58116
 H1573 H 0.67674 0.30132 0.54973
 H1574 H 0.70204 0.31523 0.53673
 H1575 H 0.67257 0.36401 0.53375
 H1576 H 0.64732 0.35012 0.54643
 H1577 H 0.63829 0.33715 0.57440
 H1578 H 0.61229 0.32394 0.58624
 H1579 H 0.62065 0.28025 0.55220
 H1580 H 0.64688 0.29338 0.54065
 H1581 H 0.60896 0.26672 0.57740
 H1582 H 0.58289 0.25391 0.58946
 H1583 H 0.55762 0.30489 0.59173
 H1584 H 0.58330 0.31757 0.57873
 C1585 C 0.35137 0.18417 0.53998
 C1586 C 0.34306 0.19166 0.52527
 C1587 C 0.32838 0.18413 0.51819
 C1588 C 0.32180 0.16889 0.52563
 C1589 C 0.33006 0.16152 0.54040
 C1590 C 0.34466 0.16903 0.54746
 C1591 C 0.36708 0.19187 0.54753
 C1592 C 0.36919 0.19229 0.56566
 C1593 C 0.38443 0.19836 0.57288
 C1594 C 0.39794 0.20420 0.56216
 C1595 C 0.39566 0.20433 0.54403
 C1596 C 0.38037 0.19819 0.53678
 C1597 C 0.41443 0.20978 0.57003
 C1598 C 0.42260 0.22480 0.56402
 C1599 C 0.43757 0.23048 0.57227
 C1600 C 0.44465 0.22123 0.58665
 C1601 C 0.43681 0.20587 0.59219
 C1602 C 0.42189 0.20024 0.58400
 H1603 H 0.34784 0.20341 0.51931
 H1604 H 0.32235 0.19004 0.50674
 H1605 H 0.32518 0.14993 0.54659
 H1606 H 0.35087 0.16281 0.55866
 H1607 H 0.35903 0.18788 0.57430
 H1608 H 0.38565 0.19848 0.58690
 H1609 H 0.40590 0.20868 0.53546
 H1610 H 0.37920 0.19789 0.52277
 H1611 H 0.41709 0.23245 0.55331
 H1612 H 0.44323 0.24243 0.56778
 H1613 H 0.44218 0.19823 0.60297
 H1614 H 0.41612 0.18839 0.58865
 C1615 C 0.85245 0.67786 0.04686
 C1616 C 0.84455 0.68380 0.03130
 C1617 C 0.82993 0.67568 0.02481
 C1618 C 0.82297 0.66141 0.03371
 C1619 C 0.83079 0.65562 0.04935
 C1620 C 0.84535 0.66370 0.05581
 C1621 C 0.86818 0.68612 0.05373
 C1622 C 0.87014 0.68834 0.07172
 C1623 C 0.88535 0.69505 0.07837
 C1624 C 0.89897 0.69979 0.06721
 C1625 C 0.89686 0.69808 0.04918
 C1626 C 0.88163 0.69127 0.04251
 C1627 C 0.91540 0.70614 0.07452
 C1628 C 0.92354 0.72056 0.06711
 C1629 C 0.93857 0.72694 0.07465
 C1630 C 0.94577 0.71898 0.08970
 C1631 C 0.93789 0.70423 0.09673
 C1632 C 0.92288 0.69792 0.08926
 H1633 H 0.84961 0.69478 0.02419
 H1634 H 0.82428 0.68036 0.01266
 H1635 H 0.82560 0.64483 0.05666
 H1636 H 0.85124 0.65865 0.06771
 H1637 H 0.85988 0.68488 0.08069
 H1638 H 0.88647 0.69657 0.09230
 H1639 H 0.90719 0.70152 0.04029
 H1640 H 0.88060 0.68956 0.02861
 H1641 H 0.91800 0.72720 0.05580
 H1642 H 0.94423 0.73842 0.06901
 H1643 H 0.94334 0.69754 0.10806
 H1644 H 0.91710 0.68655 0.09503
 C1645 C 0.66470 0.67857 0.96597
 C1646 C 0.67937 0.68850 0.96931
 C1647 C 0.69470 0.68062 0.97600
 C1648 C 0.69558 0.66271 0.97977
 C1649 C 0.68100 0.65279 0.97649
 C1650 C 0.66581 0.66058 0.96955
 C1651 C 0.64839 0.68676 0.95860
 C1652 C 0.63200 0.68051 0.96330
 C1653 C 0.61675 0.68744 0.95562
 C1654 C 0.61742 0.70102 0.94323
 C1655 C 0.63376 0.70767 0.93896
 C1656 C 0.64905 0.70056 0.94644
 C1657 C 0.60123 0.70774 0.93436
 C1658 C 0.60167 0.71297 0.91677
 C1659 C 0.58643 0.71861 0.90819
 C1660 C 0.57024 0.71889 0.91685
 C1661 C 0.56982 0.71386 0.93450
 C1662 C 0.58512 0.70847 0.94317
 H1663 H 0.67895 0.70241 0.96697
 H1664 H 0.70576 0.68854 0.97855
 H1665 H 0.68147 0.63890 0.97903
 H1666 H 0.65502 0.65240 0.96674
 H1667 H 0.63090 0.67016 0.97288
 H1668 H 0.60448 0.68181 0.95913
 H1669 H 0.63480 0.71834 0.92973
 H1670 H 0.66141 0.70564 0.94236
 H1671 H 0.61373 0.71238 0.90944
 H1672 H 0.58739 0.72273 0.89472
 H1673 H 0.55761 0.71375 0.94159
 H1674 H 0.58428 0.70484 0.95678
 C1675 C 0.16203 0.18747 0.45768
 C1676 C 0.17676 0.18430 0.44709
 C1677 C 0.19228 0.17730 0.45416
 C1678 C 0.19358 0.17350 0.47206
 C1679 C 0.17909 0.17736 0.48276
 C1680 C 0.16349 0.18415 0.47566
 C1681 C 0.14507 0.19351 0.44991
 C1682 C 0.13354 0.20484 0.45891
 C1683 C 0.11735 0.20991 0.45180
 C1684 C 0.11233 0.20392 0.43544
 C1685 C 0.12398 0.19281 0.42635
 C1686 C 0.14004 0.18758 0.43353
 C1687 C 0.09509 0.20919 0.42779
 C1688 C 0.08595 0.19749 0.41765
 C1689 C 0.07026 0.20266 0.40964
 C1690 C 0.06319 0.21956 0.41180
 C1691 C 0.07193 0.23111 0.42237
 C1692 C 0.08778 0.22602 0.43020
 H1693 H 0.17627 0.18704 0.43325
 H1694 H 0.20305 0.17436 0.44544
 H1695 H 0.17968 0.17493 0.49665
 H1696 H 0.15242 0.18627 0.48422
 H1697 H 0.13703 0.20986 0.47145
 H1698 H 0.10867 0.21835 0.45927
 H1699 H 0.12075 0.18818 0.41357
 H1700 H 0.14840 0.17863 0.42631
 H1701 H 0.09090 0.18429 0.41586
 H1702 H 0.06363 0.19345 0.40172
 H1703 H 0.06680 0.24427 0.42408
 H1704 H 0.09453 0.23546 0.43771
 C1705 C 0.56292 0.09131 0.72859
 C1706 C 0.58037 0.09143 0.73413
 C1707 C 0.58906 0.07616 0.73983
 C1708 C 0.58079 0.06015 0.73964
 C1709 C 0.56319 0.06007 0.73455
 C1710 C 0.55433 0.07545 0.72932
 C1711 C 0.55416 0.10741 0.72118
 C1712 C 0.54163 0.10640 0.70795
 C1713 C 0.53454 0.12144 0.69995
 C1714 C 0.54014 0.13797 0.70453
 C1715 C 0.55226 0.13902 0.71813
 C1716 C 0.55897 0.12399 0.72649
 C1717 C 0.53407 0.15388 0.69460
 C1718 C 0.53296 0.17027 0.70251
 C1719 C 0.52844 0.18527 0.69282
 C1720 C 0.52446 0.18429 0.67501
 C1721 C 0.52497 0.16783 0.66728
 C1722 C 0.52995 0.15293 0.67684
 H1723 H 0.58764 0.10321 0.73360
 H1724 H 0.60241 0.07697 0.74414
 H1725 H 0.55632 0.04806 0.73408
 H1726 H 0.54078 0.07479 0.72562
 H1727 H 0.53763 0.09398 0.70327
 H1728 H 0.52484 0.12001 0.68994
 H1729 H 0.55709 0.15140 0.72202
 H1730 H 0.56817 0.12546 0.73694
 H1731 H 0.53566 0.17160 0.71622
 H1732 H 0.52841 0.19765 0.69928
 H1733 H 0.52157 0.16634 0.65376
 H1734 H 0.53092 0.14071 0.67007
 C1735 C 1.06819 0.59596 0.23064
 C1736 C 1.08113 0.59597 0.24353
 C1737 C 1.08897 0.58036 0.24954
 C1738 C 1.08403 0.56438 0.24283
 C1739 C 1.07072 0.56434 0.23033
 C1740 C 1.06290 0.57995 0.22429
 C1741 C 1.06084 0.61256 0.22320
 C1742 C 1.04308 0.61437 0.21887
 C1743 C 1.03648 0.62957 0.21073
 C1744 C 1.04748 0.64330 0.20676
 C1745 C 1.06514 0.64167 0.21152
 C1746 C 1.07174 0.62648 0.21963
 C1747 C 1.04083 0.65887 0.19690
 C1748 C 1.04621 0.67557 0.20107
 C1749 C 1.04072 0.69006 0.19106
 C1750 C 1.02982 0.68813 0.17662
 C1751 C 1.02417 0.67148 0.17269
 C1752 C 1.02960 0.65702 0.18271
 H1753 H 1.08527 0.60807 0.24889
 H1754 H 1.09899 0.58078 0.25940
 H1755 H 1.06679 0.55226 0.22474
 H1756 H 1.05316 0.57950 0.21418
 H1757 H 1.03429 0.60400 0.22171
 H1758 H 1.02276 0.63056 0.20747
 H1759 H 1.07400 0.65191 0.20839
 H1760 H 1.08553 0.62539 0.22255
 H1761 H 1.05473 0.67741 0.21203
 H1762 H 1.04536 0.70272 0.19435
 H1763 H 1.01558 0.66962 0.16178
 H1764 H 1.02537 0.64432 0.17905
 C1765 C 0.93719 0.90371 0.22023
 C1766 C 0.94318 0.92050 0.21707
 C1767 C 0.93410 0.93504 0.22373
 C1768 C 0.91892 0.93303 0.23378
 C1769 C 0.91350 0.91614 0.23763
 C1770 C 0.92249 0.90166 0.23087
 C1771 C 0.94549 0.88847 0.21156
 C1772 C 0.93505 0.87647 0.20329
 C1773 C 0.94266 0.86238 0.19453
 C1774 C 0.96086 0.85986 0.19397
 C1775 C 0.97134 0.87169 0.20245
 C1776 C 0.96372 0.88598 0.21105
 C1777 C 0.96873 0.84497 0.18440
 C1778 C 0.98180 0.83415 0.19201
 C1779 C 0.98832 0.81944 0.18332
 C1780 C 0.98198 0.81537 0.16677
 C1781 C 0.96931 0.82659 0.15898
 C1782 C 0.96270 0.84115 0.16773
 H1783 H 0.95442 0.92243 0.20880
 H1784 H 0.93853 0.94786 0.22039
 H1785 H 0.90213 0.91412 0.24568
 H1786 H 0.91779 0.88883 0.23375
 H1787 H 0.92098 0.87819 0.20331
 H1788 H 0.93429 0.85335 0.18824
 H1789 H 0.98542 0.87006 0.20213
 H1790 H 0.97203 0.89502 0.21737
 H1791 H 0.98657 0.83677 0.20492
 H1792 H 0.99793 0.81099 0.18977
 H1793 H 0.96447 0.82413 0.14607
 H1794 H 0.95284 0.84947 0.16146
 C1795 C 0.43248 0.40122 0.72316
 C1796 C 0.43906 0.41773 0.71979
 C1797 C 0.43050 0.43264 0.72629
 C1798 C 0.41529 0.43130 0.73642
 C1799 C 0.40916 0.41467 0.74031
 C1800 C 0.41760 0.39983 0.73368
 C1801 C 0.44058 0.38553 0.71512
 C1802 C 0.43007 0.37356 0.70696
 C1803 C 0.43753 0.35884 0.69911
 C1804 C 0.45569 0.35561 0.69942
 C1805 C 0.46621 0.36762 0.70766
 C1806 C 0.45873 0.38249 0.71534
 C1807 C 0.46350 0.33991 0.69093
 C1808 C 0.47954 0.34059 0.68205
 C1809 C 0.48637 0.32604 0.67333
 C1810 C 0.47720 0.31059 0.67314
 C1811 C 0.46139 0.30975 0.68226
 C1812 C 0.45468 0.32419 0.69117
 H1813 H 0.45045 0.41915 0.71160
 H1814 H 0.43547 0.44523 0.72288
 H1815 H 0.39775 0.41312 0.74843
 H1816 H 0.41245 0.38722 0.73670
 H1817 H 0.41607 0.37577 0.70634
 H1818 H 0.42904 0.35016 0.69252
 H1819 H 0.48020 0.36544 0.70836
 H1820 H 0.46709 0.39149 0.72168
 H1821 H 0.48658 0.35252 0.68138
 H1822 H 0.49853 0.32704 0.66625
 H1823 H 0.45421 0.29788 0.68250
 H1824 H 0.44253 0.32303 0.69822
 C1825 C 0.43190 0.58681 0.79692
 C1826 C 0.41551 0.58274 0.80367
 C1827 C 0.40681 0.56845 0.79762
 C1828 C 0.41436 0.55772 0.78479
 C1829 C 0.43069 0.56195 0.77783
 C1830 C 0.43934 0.57642 0.78379
 C1831 C 0.44116 0.60177 0.80385
 C1832 C 0.44878 0.61392 0.79262
 C1833 C 0.45653 0.62859 0.79931
 C1834 C 0.45691 0.63130 0.81736
 C1835 C 0.44979 0.61877 0.82855
 C1836 C 0.44194 0.60425 0.82187
 C1837 C 0.46424 0.64727 0.82461
 C1838 C 0.45622 0.65534 0.83900
 C1839 C 0.46323 0.67004 0.84625
 C1840 C 0.47835 0.67715 0.83922
 C1841 C 0.48620 0.66939 0.82459
 C1842 C 0.47925 0.65455 0.81739
 H1843 H 0.40933 0.59075 0.81356
 H1844 H 0.39405 0.56589 0.80293
 H1845 H 0.43695 0.55389 0.76805
 H1846 H 0.45202 0.57925 0.77845
 H1847 H 0.44826 0.61235 0.77867
 H1848 H 0.46175 0.63806 0.79034
 H1849 H 0.45026 0.62019 0.84252
 H1850 H 0.43645 0.59490 0.83081
 H1851 H 0.44440 0.65038 0.84461
 H1852 H 0.45670 0.67597 0.85730
 H1853 H 0.49793 0.67457 0.81899
 H1854 H 0.48583 0.64857 0.80641
 C1855 C -0.07356 0.09086 0.28957
 C1856 C -0.09066 0.08739 0.29474
 C1857 C -0.09883 0.07275 0.28874
 C1858 C -0.09003 0.06108 0.27756
 C1859 C -0.07300 0.06474 0.27211
 C1860 C -0.06488 0.07955 0.27799
 C1861 C -0.06481 0.10606 0.29663
 C1862 C -0.05582 0.11745 0.28567
 C1863 C -0.04834 0.13223 0.29242
 C1864 C -0.04958 0.13580 0.31029
 C1865 C -0.05815 0.12405 0.32126
 C1866 C -0.06576 0.10943 0.31449
 C1867 C -0.04227 0.15179 0.31756
 C1868 C -0.05109 0.16066 0.33102
 C1869 C -0.04403 0.17523 0.33846
 C1870 C -0.02808 0.18145 0.33250
 C1871 C -0.01945 0.17298 0.31872
 C1872 C -0.02643 0.15822 0.31137
 H1873 H -0.09775 0.09610 0.30341
 H1874 H -0.11210 0.07063 0.29283
 H1875 H -0.06578 0.05596 0.26364
 H1876 H -0.05164 0.08190 0.27389
 H1877 H -0.05500 0.11516 0.27183
 H1878 H -0.04197 0.14108 0.28358
 H1879 H -0.05895 0.12611 0.33514
 H1880 H -0.07235 0.10068 0.32327
 H1881 H -0.06354 0.15638 0.33579
 H1882 H -0.05111 0.18173 0.34885
 H1883 H -0.00708 0.17749 0.31396
 H1884 H -0.01922 0.15163 0.30114
 C1885 C 0.06093 0.40265 0.28431
 C1886 C 0.06371 0.41503 0.29717
 C1887 C 0.07266 0.43008 0.29327
 C1888 C 0.07921 0.43309 0.27645
 C1889 C 0.07610 0.42092 0.26346
 C1890 C 0.06704 0.40588 0.26735
 C1891 C 0.05242 0.38611 0.28889
 C1892 C 0.05851 0.37029 0.28178
 C1893 C 0.05158 0.35457 0.28727
 C1894 C 0.03848 0.35426 0.30009
 C1895 C 0.03197 0.37014 0.30674
 C1896 C 0.03880 0.38586 0.30115
 C1897 C 0.03237 0.33748 0.30731
 C1898 C 0.01492 0.33573 0.31250
 C1899 C 0.00963 0.32049 0.32078
 C1900 C 0.02164 0.30658 0.32396
 C1901 C 0.03892 0.30808 0.31813
 C1902 C 0.04423 0.32335 0.31000
 H1903 H 0.05941 0.41289 0.31043
 H1904 H 0.07456 0.43931 0.30352
 H1905 H 0.08109 0.42276 0.25040
 H1906 H 0.06494 0.39673 0.25708
 H1907 H 0.06908 0.36996 0.27241
 H1908 H 0.05669 0.34262 0.28165
 H1909 H 0.02202 0.37043 0.31675
 H1910 H 0.03358 0.39782 0.30667
 H1911 H 0.00537 0.34624 0.31040
 H1912 H -0.00374 0.31986 0.32520
 H1913 H 0.04844 0.29751 0.32010
 H1914 H 0.05781 0.32427 0.30636
 C1915 C 0.56189 0.89916 0.78552
 C1916 C 0.56575 0.90266 0.76795
 C1917 C 0.57447 0.91765 0.76313
 C1918 C 0.57953 0.92946 0.77578
 C1919 C 0.57528 0.92616 0.79328
 C1920 C 0.56661 0.91118 0.79809
 C1921 C 0.55368 0.88271 0.79090
 C1922 C 0.54149 0.88251 0.80458
 C1923 C 0.53496 0.86684 0.81069
 C1924 C 0.54039 0.85098 0.80321
 C1925 C 0.55208 0.85125 0.78910
 C1926 C 0.55867 0.86692 0.78303
 C1927 C 0.53467 0.83423 0.81080
 C1928 C 0.54654 0.81996 0.81245
 C1929 C 0.54170 0.80469 0.82091
 C1930 C 0.52489 0.80332 0.82801
 C1931 C 0.51283 0.81737 0.82587
 C1932 C 0.51766 0.83264 0.81734
 H1933 H 0.56211 0.89376 0.75793
 H1934 H 0.57767 0.91974 0.74956
 H1935 H 0.57876 0.93512 0.80330
 H1936 H 0.56405 0.90880 0.81176
 H1937 H 0.53717 0.89447 0.81075
 H1938 H 0.52611 0.86712 0.82169
 H1939 H 0.55633 0.83929 0.78288
 H1940 H 0.56814 0.86658 0.77257
 H1941 H 0.55980 0.82078 0.80774
 H1942 H 0.55122 0.79401 0.82211
 H1943 H 0.49982 0.81682 0.83130
 H1944 H 0.50813 0.84330 0.81608
 C1945 C 0.72522 0.56379 0.10086
 C1946 C 0.72283 0.55686 0.08431
 C1947 C 0.72939 0.56510 0.06946
 C1948 C 0.73840 0.58082 0.07058
 C1949 C 0.74122 0.58723 0.08750
 C1950 C 0.73480 0.57884 0.10228
 C1951 C 0.71718 0.55577 0.11653
 C1952 C 0.71002 0.56635 0.12969
 C1953 C 0.70190 0.55899 0.14416
 C1954 C 0.70062 0.54090 0.14576
 C1955 C 0.70787 0.53026 0.13271
 C1956 C 0.71613 0.53762 0.11827
 C1957 C 0.69108 0.53330 0.16066
 C1958 C 0.67891 0.52041 0.15795
 C1959 C 0.66881 0.51431 0.17174
 C1960 C 0.67077 0.52087 0.18855
 C1961 C 0.68337 0.53331 0.19138
 C1962 C 0.69337 0.53952 0.17756
 H1963 H 0.71525 0.54540 0.08271
 H1964 H 0.72611 0.55954 0.05713
 H1965 H 0.74900 0.59839 0.08973
 H1966 H 0.73746 0.58418 0.11490
 H1967 H 0.71025 0.58038 0.12861
 H1968 H 0.69615 0.56751 0.15386
 H1969 H 0.70719 0.51625 0.13372
 H1970 H 0.72173 0.52909 0.10851
 H1971 H 0.67679 0.51548 0.14504
 H1972 H 0.65931 0.50459 0.16923
 H1973 H 0.68507 0.53867 0.20418
 H1974 H 0.70276 0.54935 0.18003
 C1975 C 0.22628 1.07042 0.59180
 C1976 C 0.22069 1.06566 0.57520
 C1977 C 0.22671 1.07422 0.56031
 C1978 C 0.23839 1.08777 0.56171
 C1979 C 0.24438 1.09217 0.57826
 C1980 C 0.23842 1.08358 0.59313
 C1981 C 0.21886 1.06230 0.60769
 C1982 C 0.21444 1.07253 0.62215
 C1983 C 0.20664 1.06517 0.63680
 C1984 C 0.20304 1.04741 0.63734
 C1985 C 0.20770 1.03709 0.62301
 C1986 C 0.21554 1.04445 0.60835
 C1987 C 0.19379 1.03991 0.65252
 C1988 C 0.18029 1.02835 0.65006
 C1989 C 0.17072 1.02225 0.66423
 C1990 C 0.17445 1.02754 0.68118
 C1991 C 0.18827 1.03872 0.68371
 C1992 C 0.19782 1.04486 0.66952
 H1993 H 0.21118 1.05573 0.57375
 H1994 H 0.22173 1.07068 0.54774
 H1995 H 0.25364 1.10234 0.57971
 H1996 H 0.24324 1.08732 0.60570
 H1997 H 0.21652 1.08637 0.62194
 H1998 H 0.20293 1.07352 0.64750
 H1999 H 0.20529 1.02331 0.62315
 H2000 H 0.21902 1.03618 0.59752
 H2001 H 0.17677 1.02441 0.63711
 H2002 H 0.16028 1.01347 0.66190
 H2003 H 0.19138 1.04312 0.69660
 H2004 H 0.20827 1.05361 0.67184
 C2005 C 0.21384 0.93298 0.89935
 C2006 C 0.22474 0.94148 0.91084
 C2007 C 0.23069 0.93324 0.92615
 C2008 C 0.22623 0.91597 0.93043
 C2009 C 0.21520 0.90762 0.91867
 C2010 C 0.20904 0.91602 0.90358
 C2011 C 0.20741 0.94169 0.88305
 C2012 C 0.20491 0.93198 0.86797
 C2013 C 0.19812 0.93990 0.85290
 C2014 C 0.19394 0.95784 0.85232
 C2015 C 0.19684 0.96765 0.86726
 C2016 C 0.20338 0.95967 0.88246
 C2017 C 0.18609 0.96606 0.83638
 C2018 C 0.17336 0.97964 0.83762
 C2019 C 0.16524 0.98660 0.82269
 C2020 C 0.16945 0.97994 0.80627
 C2021 C 0.18235 0.96665 0.80492
 C2022 C 0.19072 0.95992 0.81978
 H2023 H 0.22905 0.95442 0.90784
 H2024 H 0.23964 0.94032 0.93393
 H2025 H 0.21026 0.89488 0.92136
 H2026 H 0.20014 0.90926 0.89540
 H2027 H 0.20817 0.91819 0.86778
 H2028 H 0.19583 0.93182 0.84180
 H2029 H 0.19403 0.98154 0.86726
 H2030 H 0.20495 0.96756 0.89384
 H2031 H 0.16922 0.98453 0.85014
 H2032 H 0.15520 0.99675 0.82402
 H2033 H 0.18592 0.96146 0.79233
 H2034 H 0.20076 0.94981 0.81823
 C2035 C 0.70494 0.43591 0.40913
 C2036 C 0.72036 0.44222 0.41616
 C2037 C 0.72789 0.43438 0.43101
 C2038 C 0.72022 0.41999 0.43899
 C2039 C 0.70463 0.41397 0.43223
 C2040 C 0.69703 0.42188 0.41755
 C2041 C 0.69724 0.44354 0.39290
 C2042 C 0.68963 0.43273 0.38068
 C2043 C 0.68179 0.43976 0.36570
 C2044 C 0.68152 0.45776 0.36245
 C2045 C 0.68950 0.46859 0.37437
 C2046 C 0.69722 0.46156 0.38950
 C2047 C 0.67270 0.46505 0.34673
 C2048 C 0.68083 0.47728 0.33600
 C2049 C 0.67279 0.48330 0.32063
 C2050 C 0.65641 0.47730 0.31580
 C2051 C 0.64811 0.46547 0.32689
 C2052 C 0.65620 0.45936 0.34211
 H2053 H 0.72686 0.45291 0.40992
 H2054 H 0.73997 0.43920 0.43595
 H2055 H 0.69828 0.40311 0.43835
 H2056 H 0.68491 0.41698 0.41280
 H2057 H 0.68982 0.41877 0.38263
 H2058 H 0.67603 0.43109 0.35655
 H2059 H 0.68937 0.48253 0.37218
 H2060 H 0.70282 0.47026 0.39870
 H2061 H 0.69361 0.48178 0.33923
 H2062 H 0.67962 0.49228 0.31231
 H2063 H 0.63531 0.46093 0.32382
 H2064 H 0.64953 0.45016 0.35034
 C2065 C 0.78596 0.43809 0.59471
 C2066 C 0.78978 0.42026 0.59244
 C2067 C 0.78392 0.41180 0.57777
 C2068 C 0.77401 0.42091 0.56506
 C2069 C 0.76971 0.43860 0.56753
 C2070 C 0.77567 0.44712 0.58220
 C2071 C 0.79323 0.44723 0.60980
 C2072 C 0.78331 0.46007 0.61861
 C2073 C 0.79036 0.46865 0.63274
 C2074 C 0.80749 0.46459 0.63830
 C2075 C 0.81733 0.45170 0.62951
 C2076 C 0.81032 0.44318 0.61542
 C2077 C 0.81521 0.47370 0.65317
 C2078 C 0.83275 0.47829 0.65259
 C2079 C 0.84041 0.48600 0.66683
 C2080 C 0.83068 0.48946 0.68199
 C2081 C 0.81302 0.48521 0.68247
 C2082 C 0.80535 0.47742 0.66819
 H2083 H 0.79731 0.41283 0.60203
 H2084 H 0.78711 0.39806 0.57639
 H2085 H 0.76216 0.44594 0.55788
 H2086 H 0.77265 0.46089 0.58349
 H2087 H 0.77005 0.46338 0.61469
 H2088 H 0.78250 0.47861 0.63916
 H2089 H 0.83047 0.44808 0.63361
 H2090 H 0.81841 0.43354 0.60878
 H2091 H 0.84064 0.47584 0.64113
 H2092 H 0.85410 0.48885 0.66608
 H2093 H 0.80513 0.48784 0.69389
 H2094 H 0.79183 0.47392 0.66908
 C2095 C 0.27863 -0.05471 0.08521
 C2096 C 0.26356 -0.06455 0.08544
 C2097 C 0.25894 -0.07396 0.07086
 C2098 C 0.26940 -0.07386 0.05583
 C2099 C 0.28429 -0.06376 0.05549
 C2100 C 0.28882 -0.05422 0.07000
 C2101 C 0.28424 -0.04566 0.10101
 C2102 C 0.29057 -0.02878 0.09984
 C2103 C 0.29704 -0.02079 0.11456
 C2104 C 0.29747 -0.02956 0.13075
 C2105 C 0.29071 -0.04628 0.13196
 C2106 C 0.28411 -0.05421 0.11727
 C2107 C 0.30584 -0.02178 0.14607
 C2108 C 0.29920 -0.02439 0.16294
 C2109 C 0.30796 -0.01831 0.17742
 C2110 C 0.32354 -0.00941 0.17537
 C2111 C 0.32981 -0.00625 0.15846
 C2112 C 0.32112 -0.01241 0.14401
 H2113 H 0.25543 -0.06505 0.09696
 H2114 H 0.24746 -0.08174 0.07151
 H2115 H 0.29250 -0.06335 0.04402
 H2116 H 0.30059 -0.04687 0.06952
 H2117 H 0.29060 -0.02181 0.08750
 H2118 H 0.30183 -0.00777 0.11324
 H2119 H 0.29110 -0.05354 0.14412
 H2120 H 0.27953 -0.06731 0.11849
 H2121 H 0.28732 -0.03133 0.16498
 H2122 H 0.30283 -0.02107 0.19026
 H2123 H 0.34160 0.00082 0.15638
 H2124 H 0.32672 -0.01031 0.13124
 C2125 C 0.28619 0.07250 0.40076
 C2126 C 0.29869 0.07435 0.41387
 C2127 C 0.29426 0.08273 0.42933
 C2128 C 0.27726 0.08959 0.43205
 C2129 C 0.26467 0.08746 0.41909
 C2130 C 0.26907 0.07898 0.40365
 C2131 C 0.29124 0.06446 0.38392
 C2132 C 0.28454 0.07133 0.36817
 C2133 C 0.29021 0.06459 0.35227
 C2134 C 0.30282 0.05089 0.35172
 C2135 C 0.30916 0.04371 0.36748
 C2136 C 0.30340 0.05037 0.38338
 C2137 C 0.31000 0.04472 0.33482
 C2138 C 0.31447 0.02704 0.33235
 C2139 C 0.32237 0.02151 0.31689
 C2140 C 0.32592 0.03351 0.30349
 C2141 C 0.32096 0.05109 0.30576
 C2142 C 0.31317 0.05663 0.32124
 H2143 H 0.31204 0.06972 0.41202
 H2144 H 0.30422 0.08391 0.43914
 H2145 H 0.25149 0.09272 0.42068
 H2146 H 0.25907 0.07758 0.39392
 H2147 H 0.27528 0.08229 0.36808
 H2148 H 0.28485 0.07025 0.34039
 H2149 H 0.31901 0.03327 0.36756
 H2150 H 0.30863 0.04459 0.39527
 H2151 H 0.31199 0.01748 0.34245
 H2152 H 0.32614 0.00789 0.31564
 H2153 H 0.32325 0.06064 0.29560
 H2154 H 0.31009 0.07037 0.32274
 C2155 C 0.79240 0.56152 0.91250
 C2156 C 0.80075 0.55778 0.92846
 C2157 C 0.79511 0.56597 0.94365
 C2158 C 0.78081 0.57785 0.94331
 C2159 C 0.77189 0.58099 0.92761
 C2160 C 0.77769 0.57300 0.91233
 C2161 C 0.79967 0.55440 0.89599
 C2162 C 0.78869 0.55013 0.88219
 C2163 C 0.79572 0.54475 0.86626
 C2164 C 0.81388 0.54342 0.86378
 C2165 C 0.82482 0.54710 0.87777
 C2166 C 0.81782 0.55262 0.89361
 C2167 C 0.82148 0.53896 0.84652
 C2168 C 0.83639 0.54726 0.84048
 C2169 C 0.84360 0.54331 0.82429
 C2170 C 0.83598 0.53108 0.81355
 C2171 C 0.82105 0.52274 0.81955
 C2172 C 0.81388 0.52662 0.83586
 H2173 H 0.81184 0.54870 0.92918
 H2174 H 0.80204 0.56319 0.95568
 H2175 H 0.76092 0.59023 0.92701
 H2176 H 0.77108 0.57639 0.90028
 H2177 H 0.77466 0.55110 0.88364
 H2178 H 0.78691 0.54213 0.85573
 H2179 H 0.83886 0.54590 0.87645
 H2180 H 0.82672 0.55600 0.90381
 H2181 H 0.84243 0.55704 0.84818
 H2182 H 0.85528 0.54977 0.82026
 H2183 H 0.81477 0.51336 0.81155
 H2184 H 0.80248 0.51987 0.84018
 C2185 C 0.09618 0.72718 0.56218
 C2186 C 0.07981 0.72077 0.55799
 C2187 C 0.06472 0.72702 0.56639
 C2188 C 0.06567 0.73980 0.57917
 C2189 C 0.08196 0.74659 0.58297
 C2190 C 0.09704 0.74036 0.57457
 C2191 C 0.11235 0.71952 0.55432
 C2192 C 0.12721 0.71611 0.56463
 C2193 C 0.14209 0.70789 0.55761
 C2194 C 0.14247 0.70289 0.54011
 C2195 C 0.12777 0.70665 0.52969
 C2196 C 0.11286 0.71488 0.53672
 C2197 C 0.15785 0.69301 0.53309
 C2198 C 0.15558 0.67869 0.52232
 C2199 C 0.16993 0.66852 0.51680
 C2200 C 0.18689 0.67245 0.52190
 C2201 C 0.18922 0.68708 0.53224
 C2202 C 0.17485 0.69724 0.53779
 H2203 H 0.07874 0.71045 0.54868
 H2204 H 0.05239 0.72139 0.56333
 H2205 H 0.08306 0.75667 0.59254
 H2206 H 0.10942 0.74578 0.57785
 H2207 H 0.12713 0.71925 0.57831
 H2208 H 0.15309 0.70491 0.56606
 H2209 H 0.12777 0.70317 0.51609
 H2210 H 0.10171 0.71757 0.52839
 H2211 H 0.14264 0.67499 0.51860
 H2212 H 0.16774 0.65746 0.50865
 H2213 H 0.20212 0.69037 0.53649
 H2214 H 0.17703 0.70832 0.54592
 C2215 C 0.60156 0.21838 1.06140
 C2216 C 0.59051 0.23120 1.05360
 C2217 C 0.57541 0.23727 1.06215
 C2218 C 0.57104 0.23063 1.07867
 C2219 C 0.58205 0.21773 1.08638
 C2220 C 0.59711 0.21170 1.07786
 C2221 C 0.61755 0.21173 1.05241
 C2222 C 0.63296 0.20821 1.06184
 C2223 C 0.64768 0.20082 1.05372
 C2224 C 0.64735 0.19678 1.03597
 C2225 C 0.63210 0.20076 1.02641
 C2226 C 0.61736 0.20818 1.03454
 C2227 C 0.66255 0.18758 1.02778
 C2228 C 0.66003 0.17378 1.01641
 C2229 C 0.67428 0.16408 1.00991
 C2230 C 0.69137 0.16793 1.01463
 C2231 C 0.69393 0.18211 1.02553
 C2232 C 0.67968 0.19182 1.03204
 H2233 H 0.59368 0.23671 1.04099
 H2234 H 0.56729 0.24734 1.05596
 H2235 H 0.57887 0.21208 1.09892
 H2236 H 0.60513 0.20154 1.08405
 H2237 H 0.63359 0.21102 1.07557
 H2238 H 0.65915 0.19775 1.06149
 H2239 H 0.63151 0.19797 1.01267
 H2240 H 0.60564 0.21065 1.02696
 H2241 H 0.64701 0.17008 1.01299
 H2242 H 0.67189 0.15338 1.00134
 H2243 H 0.70693 0.18534 1.02950
 H2244 H 0.68204 0.20251 1.04061
 C2245 C 0.90768 0.21035 0.93072
 C2246 C 0.91121 0.20620 0.91341
 C2247 C 0.92439 0.21439 0.90424
 C2248 C 0.93486 0.22680 0.91224
 C2249 C 0.93111 0.23072 0.92988
 C2250 C 0.91756 0.22278 0.93885
 C2251 C 0.89365 0.20157 0.94012
 C2252 C 0.87906 0.21110 0.94630
 C2253 C 0.86496 0.20252 0.95357
 C2254 C 0.86534 0.18424 0.95508
 C2255 C 0.88041 0.17486 0.94959
 C2256 C 0.89431 0.18342 0.94199
 C2257 C 0.84981 0.17493 0.96149
 C2258 C 0.84569 0.15884 0.95443
 C2259 C 0.83089 0.15026 0.95991
 C2260 C 0.81953 0.15767 0.97236
 C2261 C 0.82369 0.17370 0.97955
 C2262 C 0.83869 0.18217 0.97426
 H2263 H 0.90372 0.19653 0.90695
 H2264 H 0.92685 0.20996 0.89116
 H2265 H 0.93792 0.24056 0.93674
 H2266 H 0.91487 0.22624 0.95222
 H2267 H 0.87831 0.22513 0.94483
 H2268 H 0.85353 0.21019 0.95740
 H2269 H 0.88144 0.16084 0.95096
 H2270 H 0.90556 0.17588 0.93742
 H2271 H 0.85370 0.15294 0.94435
 H2272 H 0.82839 0.13777 0.95433
 H2273 H 0.81519 0.17991 0.98905
 H2274 H 0.84154 0.19440 0.98019
 C2275 C 0.40372 0.70926 0.43491
 C2276 C 0.41085 0.70095 0.42026
 C2277 C 0.42404 0.70861 0.41061
 C2278 C 0.43053 0.72462 0.41555
 C2279 C 0.42361 0.73284 0.43037
 C2280 C 0.41018 0.72529 0.43988
 C2281 C 0.38930 0.70128 0.44463
 C2282 C 0.37408 0.71110 0.44865
 C2283 C 0.35985 0.70315 0.45640
 C2284 C 0.36062 0.68524 0.46046
 C2285 C 0.37617 0.67563 0.45705
 C2286 C 0.39029 0.68354 0.44912
 C2287 C 0.34505 0.67645 0.46742
 C2288 C 0.34130 0.65964 0.46198
 C2289 C 0.32643 0.65149 0.46798
 C2290 C 0.31477 0.66000 0.47944
 C2291 C 0.31857 0.67676 0.48503
 C2292 C 0.33356 0.68487 0.47913
 H2293 H 0.40598 0.68867 0.41607
 H2294 H 0.42928 0.70195 0.39933
 H2295 H 0.42838 0.74523 0.43438
 H2296 H 0.40491 0.73191 0.45118
 H2297 H 0.37296 0.72478 0.44517
 H2298 H 0.34803 0.71091 0.45862
 H2299 H 0.37739 0.66193 0.46038
 H2300 H 0.40199 0.67575 0.44636
 H2301 H 0.34968 0.65284 0.45277
 H2302 H 0.32410 0.63847 0.46363
 H2303 H 0.30981 0.68376 0.49373
 H2304 H 0.33614 0.69774 0.48375
 C2305 C 0.58685 0.78315 0.42485
 C2306 C 0.58268 0.78892 0.40790
 C2307 C 0.56716 0.78430 0.40011
 C2308 C 0.55539 0.77381 0.40907
 C2309 C 0.55958 0.76791 0.42598
 C2310 C 0.57514 0.77258 0.43382
 C2311 C 0.60320 0.78853 0.43316
 C2312 C 0.60328 0.79369 0.45062
 C2313 C 0.61839 0.80003 0.45800
 C2314 C 0.63370 0.80137 0.44806
 C2315 C 0.63377 0.79565 0.43079
 C2316 C 0.61870 0.78930 0.42344
 C2317 C 0.64925 0.80955 0.45533
 C2318 C 0.65850 0.82147 0.44520
 C2319 C 0.67267 0.82984 0.45214
 C2320 C 0.67796 0.82646 0.46936
 C2321 C 0.66894 0.81431 0.47943
 C2322 C 0.65466 0.80598 0.47250
 H2323 H 0.59131 0.79727 0.40073
 H2324 H 0.56443 0.78886 0.38697
 H2325 H 0.55072 0.75989 0.43324
 H2326 H 0.57805 0.76783 0.44685
 H2327 H 0.59150 0.79343 0.45839
 H2328 H 0.61789 0.80451 0.47127
 H2329 H 0.64547 0.79622 0.42292
 H2330 H 0.61915 0.78508 0.41007
 H2331 H 0.65453 0.82464 0.43200
 H2332 H 0.67950 0.83899 0.44401
 H2333 H 0.67267 0.81154 0.49278
 H2334 H 0.64785 0.79676 0.48057
 C2335 C 0.08936 0.28631 -0.06908
 C2336 C 0.08476 0.29374 -0.08530
 C2337 C 0.06954 0.28916 -0.09368
 C2338 C 0.05840 0.27713 -0.08600
 C2339 C 0.06293 0.26969 -0.06974
 C2340 C 0.07825 0.27424 -0.06137
 C2341 C 0.10557 0.29140 -0.06026
 C2342 C 0.10588 0.29396 -0.04219
 C2343 C 0.12080 0.30002 -0.03419
 C2344 C 0.13564 0.30375 -0.04412
 C2345 C 0.13554 0.30063 -0.06206
 C2346 C 0.12071 0.29446 -0.07002
 C2347 C 0.15082 0.31181 -0.03606
 C2348 C 0.15837 0.32615 -0.04423
 C2349 C 0.17235 0.33421 -0.03659
 C2350 C 0.17920 0.32803 -0.02067
 C2351 C 0.17184 0.31353 -0.01256
 C2352 C 0.15766 0.30557 -0.02013
 H2353 H 0.09286 0.30328 -0.09149
 H2354 H 0.06661 0.29493 -0.10630
 H2355 H 0.05456 0.26048 -0.06341
 H2356 H 0.08147 0.26818 -0.04894
 H2357 H 0.09439 0.29189 -0.03433
 H2358 H 0.12050 0.30245 -0.02036
 H2359 H 0.14692 0.30311 -0.06996
 H2360 H 0.12107 0.29222 -0.08389
 H2361 H 0.15324 0.33134 -0.05642
 H2362 H 0.17790 0.34525 -0.04320
 H2363 H 0.17686 0.30857 -0.00024
 H2364 H 0.15211 0.29448 -0.01362
 C2365 C 0.40710 0.28068 0.05978
 C2366 C 0.42010 0.29297 0.06138
 C2367 C 0.43598 0.28846 0.06934
 C2368 C 0.43924 0.27159 0.07609
 C2369 C 0.42645 0.25914 0.07409
 C2370 C 0.41059 0.26363 0.06599
 C2371 C 0.38973 0.28594 0.05247
 C2372 C 0.37440 0.27942 0.05973
 C2373 C 0.35803 0.28546 0.05386
 C2374 C 0.35657 0.29830 0.04069
 C2375 C 0.37190 0.30442 0.03305
 C2376 C 0.38826 0.29825 0.03881
 C2377 C 0.33921 0.30596 0.03558
 C2378 C 0.33577 0.31109 0.01826
 C2379 C 0.31993 0.31952 0.01379
 C2380 C 0.30709 0.32292 0.02651
 C2381 C 0.31031 0.31727 0.04370
 C2382 C 0.32619 0.30898 0.04820
 H2383 H 0.41783 0.30628 0.05697
 H2384 H 0.44565 0.29829 0.07039
 H2385 H 0.42846 0.24606 0.07925
 H2386 H 0.40098 0.25376 0.06475
 H2387 H 0.37500 0.27006 0.07038
 H2388 H 0.34651 0.28024 0.05983
 H2389 H 0.37131 0.31441 0.02300
 H2390 H 0.39979 0.30335 0.03271
 H2391 H 0.34539 0.30875 0.00816
 H2392 H 0.31798 0.32382 0.00045
 H2393 H 0.30061 0.31940 0.05378
 H2394 H 0.32842 0.30542 0.06170
 C2395 C 0.90161 0.78425 0.56304
 C2396 C 0.91412 0.79701 0.56486
 C2397 C 0.92993 0.79309 0.57320
 C2398 C 0.93361 0.77637 0.58016
 C2399 C 0.92124 0.76351 0.57810
 C2400 C 0.90546 0.76739 0.56960
 C2401 C 0.88444 0.78877 0.55489
 C2402 C 0.86905 0.78171 0.56143
 C2403 C 0.85281 0.78694 0.55457
 C2404 C 0.85153 0.79948 0.54110
 C2405 C 0.86697 0.80619 0.53426
 C2406 C 0.88320 0.80082 0.54098
 C2407 C 0.83422 0.80623 0.53478
 C2408 C 0.83178 0.81112 0.51724
 C2409 C 0.81601 0.81894 0.51167
 C2410 C 0.80219 0.82191 0.52344
 C2411 C 0.80439 0.81635 0.54082
 C2412 C 0.82022 0.80872 0.54644
 H2413 H 0.91154 0.81019 0.56022
 H2414 H 0.93926 0.80324 0.57427
 H2415 H 0.92356 0.75054 0.58343
 H2416 H 0.89624 0.75718 0.56823
 H2417 H 0.86946 0.77253 0.57224
 H2418 H 0.84123 0.78128 0.55997
 H2419 H 0.86653 0.81601 0.52404
 H2420 H 0.89479 0.80630 0.53539
 H2421 H 0.84214 0.80913 0.50782
 H2422 H 0.81490 0.82318 0.49822
 H2423 H 0.79394 0.81812 0.55020
 H2424 H 0.82164 0.80529 0.56008
   
