data_POSCAR
  _audit_creation_date              2014-09-24
  _audit_creation_method            'ToBaCCo'
  _symmetry_space_group_name_H-M    'P1'
  _symmetry_Int_Tables_number       1
  _symmetry_cell_setting            triclinic
  loop_
  _symmetry_equiv_pos_as_xyz
 x,y,z
_cell_length_a 50.3983
_cell_length_b 50.2466
_cell_length_c 50.2570
_cell_angle_alpha 90.035400
_cell_angle_beta 90.028800
_cell_angle_gamma 90.001900
loop_
  _atom_site_label
  _atom_site_type_symbol
  _atom_site_fract_x
  _atom_site_fract_y
  _atom_site_fract_z
O1 O 0.20548 1.02568 0.02504
 O2 O 0.20551 0.97365 -0.02699
 O3 O 0.20515 0.97367 0.02496
 O4 O 0.20519 1.02565 -0.02691
 O5 O 0.24907 1.02554 -0.02675
 O6 O 0.24904 0.97378 0.02488
 O7 O 0.24939 0.97383 -0.02676
 O8 O 0.24936 1.02550 0.02491
 Cu9 Cu 0.20088 0.99966 -0.00098
 Cu10 Cu 0.25361 0.99966 -0.00092
 C11 C 0.22752 1.03436 0.03370
 C12 C 0.22755 0.96496 -0.03560
 C13 C 0.22715 0.96495 0.03362
 C14 C 0.22719 1.03437 -0.03554
 O15 O 0.71286 0.52547 0.52512
 O16 O 0.71346 0.47359 0.47314
 O17 O 0.71239 0.47353 0.52506
 O18 O 0.71337 0.52549 0.47326
 O19 O 0.75725 0.52530 0.47397
 O20 O 0.75627 0.47346 0.52563
 O21 O 0.75734 0.47357 0.47390
 O22 O 0.75675 0.52521 0.52565
 Cu23 Cu 0.70857 0.49952 0.49908
 Cu24 Cu 0.76131 0.49935 0.49987
 C25 C 0.73477 0.53412 0.53410
 C26 C 0.73556 0.46486 0.46476
 C27 C 0.73421 0.46474 0.53408
 C28 C 0.73549 0.53417 0.46491
 O29 O 0.74769 0.97327 1.02548
 O30 O 0.74863 1.02509 0.97395
 O31 O 0.74945 0.97342 0.97373
 O32 O 0.74761 1.02500 1.02569
 O33 O 0.79147 1.02541 1.02690
 O34 O 0.79332 0.97374 0.97489
 O35 O 0.79250 1.02557 0.97500
 O36 O 0.79154 0.97353 1.02680
 Cu37 Cu 0.74393 0.99915 0.99960
 Cu38 Cu 0.79665 0.99959 1.00103
 C39 C 0.76939 0.96467 1.03490
 C40 C 0.77066 1.03405 0.96571
 C41 C 0.77168 0.96493 0.96547
 C42 C 0.76922 1.03390 1.03509
 O43 O 0.24524 0.47440 0.52557
 O44 O 0.24497 0.52584 0.47370
 O45 O 0.24532 0.47417 0.47381
 O46 O 0.24528 0.52608 0.52546
 O47 O 0.28917 0.52627 0.52543
 O48 O 0.28920 0.47425 0.47370
 O49 O 0.28886 0.52606 0.47353
 O50 O 0.28913 0.47443 0.52560
 Cu51 Cu 0.24078 0.50011 0.49965
 Cu52 Cu 0.29354 0.50027 0.49956
 C53 C 0.26717 0.46576 0.53439
 C54 C 0.26682 0.53459 0.46480
 C55 C 0.26725 0.46549 0.46499
 C56 C 0.26719 0.53490 0.53421
 O57 O 1.02324 0.26084 0.02540
 O58 O 0.97166 0.26054 -0.02628
 O59 O 0.97164 0.26005 0.02545
 O60 O 1.02326 0.26059 -0.02628
 O61 O 1.02365 0.21658 -0.02646
 O62 O 0.97196 0.21603 0.02534
 O63 O 0.97189 0.21653 -0.02654
 O64 O 1.02372 0.21682 0.02537
 Cu65 Cu 0.99740 0.26494 -0.00041
 Cu66 Cu 0.99782 0.21203 -0.00058
 C67 C 1.03224 0.23894 0.03409
 C68 C 0.96305 0.23856 -0.03516
 C69 C 0.96308 0.23796 0.03412
 C70 C 1.03220 0.23869 -0.03507
 O71 O 0.52326 0.76321 0.52579
 O72 O 0.47164 0.76262 0.47411
 O73 O 0.47166 0.76228 0.52591
 O74 O 0.52323 0.76307 0.47406
 O75 O 0.52384 0.71906 0.47392
 O76 O 0.47219 0.71827 0.52585
 O77 O 0.47211 0.71860 0.47391
 O78 O 0.52393 0.71920 0.52579
 Cu79 Cu 0.49737 0.76722 0.49998
 Cu80 Cu 0.49806 0.71433 0.49986
 C81 C 0.53235 0.74136 0.53450
 C82 C 0.46319 0.74056 0.46523
 C83 C 0.46324 0.74016 0.53467
 C84 C 0.53226 0.74121 0.46524
 O85 O 0.02388 0.78223 -0.02703
 O86 O -0.02800 0.78259 0.02479
 O87 O 0.02378 0.78251 0.02481
 O88 O -0.02786 0.78292 -0.02714
 O89 O -0.02815 0.73891 -0.02715
 O90 O 0.02340 0.73850 0.02473
 O91 O -0.02823 0.73858 0.02463
 O92 O 0.02344 0.73822 -0.02697
 Cu93 Cu -0.00204 0.78702 -0.00113
 Cu94 Cu -0.00244 0.73412 -0.00119
 C95 C 0.03243 0.76010 -0.03571
 C96 C -0.03684 0.76059 0.03345
 C97 C 0.03234 0.76042 0.03349
 C98 C -0.03668 0.76097 -0.03594
 O99 O 0.52415 0.28147 0.47380
 O100 O 0.47267 0.28250 0.52592
 O101 O 0.52441 0.28201 0.52566
 O102 O 0.47247 0.28242 0.47400
 O103 O 0.47192 0.23841 0.47428
 O104 O 0.52376 0.23800 0.52587
 O105 O 0.47216 0.23849 0.52605
 O106 O 0.52345 0.23746 0.47415
 Cu107 Cu 0.49847 0.28656 0.49983
 Cu108 Cu 0.49775 0.23366 0.50012
 C109 C 0.53246 0.25924 0.46520
 C110 C 0.46377 0.26061 0.53478
 C111 C 0.53286 0.25992 0.53447
 C112 C 0.46349 0.26046 0.46538
 O113 O 1.02655 0.02537 0.21858
 O114 O 0.97501 -0.02672 0.22020
 O115 O 0.97486 0.02500 0.21992
 O116 O 1.02667 -0.02661 0.21821
 O117 O 1.02803 -0.02661 0.26219
 O118 O 0.97625 0.02498 0.26391
 O119 O 0.97647 -0.02666 0.26419
 O120 O 1.02785 0.02527 0.26256
 Cu121 Cu 1.00069 -0.00074 0.21477
 Cu122 Cu 1.00235 -0.00075 0.26765
 C123 C 1.03581 0.03417 0.24036
 C124 C 0.96698 -0.03540 0.24251
 C125 C 0.96675 0.03362 0.24220
 C126 C 1.03601 -0.03540 0.23992
 O127 O 0.52676 0.52669 0.71963
 O128 O 0.47527 0.47468 0.72213
 O129 O 0.47509 0.52643 0.72155
 O130 O 0.52689 0.47469 0.71982
 O131 O 0.52858 0.47504 0.76379
 O132 O 0.47683 0.52674 0.76552
 O133 O 0.47708 0.47509 0.76611
 O134 O 0.52839 0.52692 0.76361
 Cu135 Cu 0.50088 0.50059 0.71632
 Cu136 Cu 0.50296 0.50100 0.76919
 C137 C 0.53617 0.53564 0.74127
 C138 C 0.46747 0.46617 0.74457
 C139 C 0.46716 0.53524 0.74383
 C140 C 0.53638 0.46604 0.74154
 O141 O 0.97610 1.02721 0.73663
 O142 O 1.02756 0.97541 0.73801
 O143 O 0.97603 0.97556 0.73683
 O144 O 1.02766 1.02724 0.73833
 O145 O 1.02655 1.02725 0.78232
 O146 O 0.97484 0.97551 0.78083
 O147 O 1.02649 0.97529 0.78200
 O148 O 0.97485 1.02728 0.78061
 Cu149 Cu 1.00200 1.00137 0.73301
 Cu150 Cu 1.00061 1.00134 0.78590
 C151 C 0.96671 1.03595 0.75834
 C152 C 1.03564 0.96651 0.76018
 C153 C 0.96670 0.96683 0.75857
 C154 C 1.03577 1.03602 0.76055
 O155 O 0.47817 0.52566 0.23677
 O156 O 0.52939 0.47377 0.24076
 O157 O 0.47792 0.47394 0.23726
 O158 O 0.52961 0.52565 0.24066
 O159 O 0.52660 0.52594 0.28456
 O160 O 0.47487 0.47421 0.28116
 O161 O 0.52642 0.47396 0.28467
 O162 O 0.47507 0.52601 0.28067
 Cu163 Cu 0.50413 0.49972 0.23444
 Cu164 Cu 0.50047 0.50006 0.28721
 C165 C 0.46794 0.53456 0.25802
 C166 C 0.53649 0.46502 0.26333
 C167 C 0.46764 0.46538 0.25864
 C168 C 0.53676 0.53460 0.26316
 O169 O 0.24858 0.18249 0.21087
 O170 O 0.27838 0.17460 0.24727
 O171 O 0.18053 0.21586 0.24905
 O172 O 0.17194 0.25050 0.27597
 O173 O 0.21273 0.25212 0.17873
 O174 O 0.25004 0.28097 0.17091
 O175 O 0.25235 0.28868 0.31618
 O176 O 0.22022 0.25409 0.32337
 O177 O 0.31881 0.25204 0.28379
 O178 O 0.32634 0.22116 0.24636
 O179 O 0.28761 0.31987 0.24788
 O180 O 0.24946 0.32834 0.21772
 O181 O 0.25286 0.32051 0.28396
 O182 O 0.22167 0.32890 0.24652
 O183 O 0.31909 0.28739 0.24787
 O184 O 0.32617 0.24890 0.21730
 O185 O 0.28716 0.25331 0.31607
 O186 O 0.25464 0.22292 0.32458
 O187 O 0.24880 0.21436 0.17863
 O188 O 0.27916 0.25069 0.17089
 O189 O 0.18105 0.25243 0.21107
 O190 O 0.17565 0.28390 0.24819
 O191 O 0.21198 0.18331 0.24790
 O192 O 0.25059 0.17486 0.27722
 Zr193 Zr 0.24835 0.20397 0.24687
 O194 O 0.27362 0.22660 0.27138
 Zr195 Zr 0.20245 0.25146 0.24709
 O196 O 0.22579 0.27610 0.27173
 Zr197 Zr 0.24876 0.25050 0.19986
 O198 O 0.27407 0.27516 0.22233
 Zr199 Zr 0.25121 0.25266 0.29500
 O200 O 0.22542 0.22757 0.27295
 Zr201 Zr 0.29736 0.25161 0.24783
 O202 O 0.27422 0.22663 0.22300
 Zr203 Zr 0.25134 0.29911 0.24797
 O204 O 0.22579 0.27665 0.22311
 O205 O 0.22394 0.22641 0.22233
 O206 O 0.27612 0.27703 0.27269
 C207 C 0.24859 0.19005 0.18647
 C208 C 0.18784 0.19138 0.24885
 C209 C 0.18852 0.25260 0.18665
 C210 C 0.25327 0.31295 0.30834
 C211 C 0.31135 0.25300 0.30818
 C212 C 0.31177 0.31184 0.24806
 H213 H 0.28428 0.21450 0.28264
 H214 H 0.28507 0.28593 0.21014
 H215 H 0.21228 0.21518 0.21115
 H216 H 0.21421 0.28724 0.28305
 H217 H 0.20782 0.23946 0.31893
 H218 H 0.17841 0.26041 0.29169
 H219 H 0.32285 0.26350 0.20454
 H220 H 0.29277 0.23788 0.17703
 H221 H 0.24273 0.20826 0.31924
 H222 H 0.23495 0.17726 0.28888
 H223 H 0.26368 0.32448 0.20472
 H224 H 0.23791 0.29515 0.17715
 H225 H 0.29236 0.18078 0.23491
 H226 H 0.32207 0.20808 0.26041
 H227 H 0.18118 0.29642 0.23404
 H228 H 0.20913 0.32560 0.26129
 O229 O 0.75083 0.82122 0.21444
 O230 O 0.72123 0.82930 0.25096
 O231 O 0.81917 0.78826 0.25256
 O232 O 0.82835 0.75369 0.27902
 O233 O 0.78629 0.75132 0.18239
 O234 O 0.74899 0.72248 0.17509
 O235 O 0.74839 0.71568 0.32046
 O236 O 0.78024 0.75064 0.32726
 O237 O 0.68128 0.75225 0.28831
 O238 O 0.67328 0.78241 0.25073
 O239 O 0.71257 0.68398 0.25338
 O240 O 0.74999 0.67536 0.22226
 O241 O 0.74805 0.68367 0.28838
 O242 O 0.77858 0.67532 0.25040
 O243 O 0.68093 0.71629 0.25343
 O244 O 0.67353 0.75434 0.22180
 O245 O 0.71314 0.75087 0.32040
 O246 O 0.74564 0.78155 0.32854
 O247 O 0.75021 0.78908 0.18242
 O248 O 0.71977 0.75266 0.17528
 O249 O 0.81835 0.75151 0.21438
 O250 O 0.82417 0.72022 0.25179
 O251 O 0.78768 0.82076 0.25146
 O252 O 0.74915 0.82936 0.28075
 Zr253 Zr 0.75134 0.80000 0.25060
 O254 O 0.72635 0.77747 0.27547
 Zr255 Zr 0.79735 0.75264 0.25066
 O256 O 0.77436 0.72815 0.27572
 Zr257 Zr 0.75053 0.75312 0.20389
 O258 O 0.72557 0.72849 0.22674
 Zr259 Zr 0.74902 0.75164 0.29910
 O260 O 0.77454 0.77661 0.27662
 Zr261 Zr 0.70248 0.75218 0.25227
 O262 O 0.72527 0.77709 0.22712
 Zr263 Zr 0.74870 0.70488 0.25231
 O264 O 0.77387 0.72722 0.22704
 O265 O 0.77556 0.77746 0.22596
 O266 O 0.72407 0.72703 0.27711
 C267 C 0.75054 0.81346 0.19008
 C268 C 0.81184 0.81272 0.25242
 C269 C 0.81059 0.75100 0.19003
 C270 C 0.74779 0.69135 0.31272
 C271 C 0.68888 0.75126 0.31264
 C272 C 0.68839 0.69189 0.25408
 H273 H 0.71574 0.78961 0.28672
 H274 H 0.71445 0.71755 0.21480
 H275 H 0.78712 0.78866 0.21466
 H276 H 0.78613 0.71716 0.28698
 H277 H 0.79253 0.76528 0.32260
 H278 H 0.82184 0.74452 0.29515
 H279 H 0.67626 0.73905 0.20970
 H280 H 0.70615 0.76540 0.18156
 H281 H 0.75738 0.79626 0.32300
 H282 H 0.76479 0.82704 0.29242
 H283 H 0.73533 0.67888 0.20966
 H284 H 0.76089 0.70818 0.18151
 H285 H 0.70725 0.82307 0.23860
 H286 H 0.67793 0.79594 0.26425
 H287 H 0.81879 0.70778 0.23748
 H288 H 0.79129 0.67872 0.26502
 O289 O 0.75152 0.17900 0.78557
 O290 O 0.72153 0.17101 0.74932
 O291 O 0.81926 0.21261 0.74723
 O292 O 0.82794 0.24735 0.72073
 O293 O 0.78683 0.24891 0.81777
 O294 O 0.74941 0.27745 0.82562
 O295 O 0.74740 0.28515 0.68027
 O296 O 0.77944 0.25047 0.67304
 O297 O 0.68086 0.24837 0.71273
 O298 O 0.67327 0.21769 0.74999
 O299 O 0.71208 0.31632 0.74833
 O300 O 0.75001 0.32494 0.77870
 O301 O 0.74694 0.31698 0.71252
 O302 O 0.77805 0.32534 0.75011
 O303 O 0.68062 0.28382 0.74841
 O304 O 0.67374 0.24526 0.77932
 O305 O 0.71245 0.24987 0.68040
 O306 O 0.74497 0.21936 0.67185
 O307 O 0.75111 0.21092 0.81780
 O308 O 0.72039 0.24708 0.82544
 O309 O 0.81859 0.24916 0.78551
 O310 O 0.82390 0.28067 0.74825
 O311 O 0.78793 0.17994 0.74833
 O312 O 0.74916 0.17133 0.71922
 Zr313 Zr 0.75149 0.20047 0.74956
 O314 O 0.72614 0.22303 0.72507
 Zr315 Zr 0.79725 0.24810 0.74941
 O316 O 0.77389 0.27262 0.72471
 Zr317 Zr 0.75089 0.24703 0.79658
 O318 O 0.72559 0.27167 0.77411
 Zr319 Zr 0.74847 0.24912 0.70143
 O320 O 0.77434 0.22415 0.72351
 Zr321 Zr 0.70237 0.24804 0.74863
 O322 O 0.72552 0.22308 0.77342
 Zr323 Zr 0.74833 0.29560 0.74848
 O324 O 0.77385 0.27323 0.77340
 O325 O 0.77582 0.22301 0.77412
 O326 O 0.72357 0.27347 0.72377
 C327 C 0.75153 0.18660 0.80997
 C328 C 0.81204 0.18811 0.74732
 C329 C 0.81105 0.24944 0.80992
 C330 C 0.74657 0.30942 0.68813
 C331 C 0.68827 0.24948 0.68834
 C332 C 0.68794 0.30827 0.74807
 H333 H 0.71548 0.21091 0.71382
 H334 H 0.71456 0.28245 0.78628
 H335 H 0.78756 0.21183 0.78526
 H336 H 0.78547 0.28374 0.71340
 H337 H 0.79182 0.23582 0.67746
 H338 H 0.82125 0.25668 0.70476
 H339 H 0.67672 0.26021 0.79178
 H340 H 0.70693 0.23410 0.81934
 H341 H 0.75684 0.20468 0.67720
 H342 H 0.76476 0.17372 0.70751
 H343 H 0.73571 0.32111 0.79162
 H344 H 0.76131 0.29180 0.81931
 H345 H 0.70760 0.17716 0.76176
 H346 H 0.67788 0.20431 0.73632
 H347 H 0.81849 0.29306 0.76258
 H348 H 0.79054 0.32213 0.73527
 O349 O 0.24774 0.81765 0.78849
 O350 O 0.27764 0.82545 0.75222
 O351 O 0.17968 0.78446 0.75013
 O352 O 0.17105 0.74990 0.72312
 O353 O 0.21159 0.74808 0.82050
 O354 O 0.24880 0.71916 0.82846
 O355 O 0.25157 0.71148 0.68317
 O356 O 0.21949 0.74609 0.67586
 O357 O 0.31796 0.74791 0.71581
 O358 O 0.32551 0.77871 0.75328
 O359 O 0.28640 0.68014 0.75166
 O360 O 0.24814 0.67176 0.78157
 O361 O 0.25187 0.67964 0.71537
 O362 O 0.22042 0.67136 0.75266
 O363 O 0.31798 0.71252 0.75175
 O364 O 0.32513 0.75101 0.78234
 O365 O 0.28640 0.74679 0.68340
 O366 O 0.25394 0.77727 0.67482
 O367 O 0.24777 0.78577 0.82072
 O368 O 0.27801 0.74935 0.82856
 O369 O 0.17998 0.74785 0.78805
 O370 O 0.17462 0.71643 0.75086
 O371 O 0.21122 0.81692 0.75138
 O372 O 0.24990 0.82526 0.72214
 Zr373 Zr 0.24752 0.79616 0.75249
 O374 O 0.27281 0.77348 0.72807
 Zr375 Zr 0.20149 0.74881 0.75210
 O376 O 0.22482 0.72412 0.72751
 Zr377 Zr 0.24768 0.74963 0.79949
 O378 O 0.27296 0.72490 0.77710
 Zr379 Zr 0.25039 0.74750 0.70435
 O380 O 0.22460 0.77263 0.72633
 Zr381 Zr 0.29640 0.74838 0.75170
 O382 O 0.27327 0.77342 0.77645
 Zr383 Zr 0.25023 0.70103 0.75136
 O384 O 0.22469 0.72354 0.77615
 O385 O 0.22299 0.77379 0.77694
 O386 O 0.27516 0.72304 0.72675
 C387 C 0.24767 0.81008 0.81289
 C388 C 0.18706 0.80892 0.75038
 C389 C 0.18739 0.74764 0.81251
 C390 C 0.25243 0.68721 0.69100
 C391 C 0.31057 0.74702 0.69138
 C392 C 0.31058 0.68809 0.75156
 H393 H 0.28354 0.78555 0.71686
 H394 H 0.28389 0.71409 0.78933
 H395 H 0.21134 0.78504 0.78809
 H396 H 0.21325 0.71302 0.71613
 H397 H 0.20708 0.76072 0.68026
 H398 H 0.17751 0.73995 0.70742
 H399 H 0.32173 0.73642 0.79508
 H400 H 0.29167 0.76213 0.82248
 H401 H 0.24196 0.79190 0.68009
 H402 H 0.23426 0.82292 0.71046
 H403 H 0.26227 0.67562 0.79468
 H404 H 0.23665 0.70501 0.82217
 H405 H 0.29159 0.81920 0.76460
 H406 H 0.32127 0.79186 0.73927
 H407 H 0.18007 0.70389 0.76503
 H408 H 0.20803 0.67463 0.73775
 O409 O 0.25153 0.32174 0.71578
 O410 O 0.22167 0.32959 0.75204
 O411 O 0.31943 0.28822 0.75453
 O412 O 0.32817 0.25336 0.78077
 O413 O 0.28747 0.25215 0.68357
 O414 O 0.25026 0.22342 0.67541
 O415 O 0.24721 0.21527 0.82066
 O416 O 0.27941 0.24980 0.82822
 O417 O 0.18104 0.25196 0.78796
 O418 O 0.17360 0.28287 0.75071
 O419 O 0.21259 0.18428 0.75229
 O420 O 0.25073 0.17587 0.72210
 O421 O 0.24703 0.18356 0.78829
 O422 O 0.27856 0.17538 0.75099
 O423 O 0.18105 0.21672 0.75226
 O424 O 0.17414 0.25526 0.72140
 O425 O 0.21248 0.25052 0.82047
 O426 O 0.24499 0.28108 0.82929
 O427 O 0.25132 0.28990 0.68346
 O428 O 0.22112 0.25356 0.67544
 O429 O 0.31908 0.25184 0.71600
 O430 O 0.32426 0.22016 0.75313
 O431 O 0.28802 0.32081 0.75324
 O432 O 0.24918 0.32926 0.78212
 Zr433 Zr 0.25167 0.30018 0.75172
 O434 O 0.22628 0.27749 0.77600
 Zr435 Zr 0.29756 0.25268 0.75197
 O436 O 0.27416 0.22801 0.77646
 Zr437 Zr 0.25142 0.25376 0.70455
 O438 O 0.22608 0.22901 0.72677
 Zr439 Zr 0.24858 0.25138 0.79966
 O440 O 0.27447 0.27649 0.77782
 Zr441 Zr 0.20269 0.25252 0.75219
 O442 O 0.22590 0.27759 0.72762
 Zr443 Zr 0.24877 0.20507 0.75243
 O444 O 0.27436 0.22757 0.72776
 O445 O 0.27618 0.27783 0.72720
 O446 O 0.22386 0.22708 0.77706
 C447 C 0.25147 0.31420 0.69136
 C448 C 0.31214 0.31270 0.75449
 C449 C 0.31165 0.25164 0.69155
 C450 C 0.24633 0.19104 0.81268
 C451 C 0.18835 0.25080 0.81238
 C452 C 0.18843 0.19229 0.75254
 H453 H 0.21554 0.28955 0.78724
 H454 H 0.21513 0.21824 0.71451
 H455 H 0.28789 0.28912 0.71615
 H456 H 0.28569 0.21686 0.78781
 H457 H 0.29185 0.26444 0.82394
 H458 H 0.32145 0.24395 0.79667
 H459 H 0.17719 0.24033 0.70893
 H460 H 0.20743 0.26628 0.68159
 H461 H 0.25709 0.29565 0.82417
 H462 H 0.26466 0.32677 0.79397
 H463 H 0.23646 0.17967 0.70914
 H464 H 0.26223 0.20913 0.68173
 H465 H 0.20770 0.32342 0.73963
 H466 H 0.17791 0.29604 0.76469
 H467 H 0.31893 0.20780 0.73874
 H468 H 0.29089 0.17852 0.76599
 O469 O 0.74899 0.68323 0.71093
 O470 O 0.77855 0.67509 0.74730
 O471 O 0.68100 0.71693 0.74941
 O472 O 0.67260 0.75153 0.77633
 O473 O 0.71302 0.75300 0.67900
 O474 O 0.75040 0.78174 0.67102
 O475 O 0.75396 0.78921 0.81630
 O476 O 0.72119 0.75509 0.82364
 O477 O 0.81954 0.75238 0.78363
 O478 O 0.82676 0.72144 0.74604
 O479 O 0.78839 0.82034 0.74782
 O480 O 0.75015 0.82904 0.71796
 O481 O 0.75437 0.82107 0.78413
 O482 O 0.72249 0.82960 0.74703
 O483 O 0.81976 0.78775 0.74786
 O484 O 0.82667 0.74935 0.71711
 O485 O 0.78803 0.75352 0.81606
 O486 O 0.75524 0.72331 0.82454
 O487 O 0.74922 0.71513 0.67872
 O488 O 0.77939 0.75147 0.67083
 O489 O 0.68148 0.75353 0.71149
 O490 O 0.67650 0.78502 0.74869
 O491 O 0.71228 0.68423 0.74801
 O492 O 0.75089 0.67554 0.77727
 Zr493 Zr 0.74873 0.70467 0.74693
 O494 O 0.77422 0.72711 0.77137
 Zr495 Zr 0.70306 0.75239 0.74740
 O496 O 0.72659 0.77685 0.77203
 Zr497 Zr 0.74915 0.75125 0.69997
 O498 O 0.77465 0.77574 0.72237
 Zr499 Zr 0.75202 0.75323 0.79512
 O500 O 0.72601 0.72834 0.77312
 Zr501 Zr 0.79795 0.75205 0.74773
 O502 O 0.77460 0.72723 0.72297
 Zr503 Zr 0.75211 0.79974 0.74814
 O504 O 0.72638 0.77747 0.72333
 O505 O 0.72432 0.72724 0.72250
 O506 O 0.77690 0.77749 0.77269
 C507 C 0.74910 0.69081 0.68654
 C508 C 0.68819 0.69243 0.74911
 C509 C 0.68884 0.75367 0.68703
 C510 C 0.75518 0.81347 0.80847
 C511 C 0.81218 0.75324 0.80806
 C512 C 0.81250 0.81221 0.74806
 H513 H 0.78488 0.71494 0.78254
 H514 H 0.78564 0.78649 0.71015
 H515 H 0.71262 0.71606 0.71132
 H516 H 0.71517 0.78805 0.78346
 H517 H 0.70860 0.74061 0.81928
 H518 H 0.67915 0.76137 0.79206
 H519 H 0.82340 0.76405 0.70444
 H520 H 0.79311 0.73877 0.67697
 H521 H 0.74287 0.70897 0.81939
 H522 H 0.73528 0.67799 0.78894
 H523 H 0.76420 0.82508 0.70482
 H524 H 0.73829 0.79592 0.67730
 H525 H 0.79265 0.68126 0.73507
 H526 H 0.82264 0.70848 0.76026
 H527 H 0.68206 0.79754 0.73456
 H528 H 0.71036 0.82661 0.76219
 O529 O 0.25148 0.67862 0.28346
 O530 O 0.22196 0.67053 0.24700
 O531 O 0.31959 0.71224 0.24512
 O532 O 0.32830 0.74702 0.21872
 O533 O 0.28713 0.74842 0.31570
 O534 O 0.24981 0.77706 0.32353
 O535 O 0.24742 0.78473 0.17823
 O536 O 0.27974 0.75024 0.17097
 O537 O 0.18119 0.74799 0.21068
 O538 O 0.17365 0.71717 0.24793
 O539 O 0.21238 0.81585 0.24637
 O540 O 0.25037 0.82448 0.27666
 O541 O 0.24696 0.81654 0.21050
 O542 O 0.27833 0.82493 0.24793
 O543 O 0.18094 0.78332 0.24632
 O544 O 0.17405 0.74478 0.27724
 O545 O 0.21277 0.74938 0.17833
 O546 O 0.24538 0.71890 0.16980
 O547 O 0.25104 0.71055 0.31568
 O548 O 0.22076 0.74687 0.32343
 O549 O 0.31891 0.74879 0.28345
 O550 O 0.32416 0.78031 0.24619
 O551 O 0.28829 0.67955 0.24633
 O552 O 0.24966 0.67092 0.21710
 Zr553 Zr 0.25183 0.70006 0.24747
 O554 O 0.22647 0.72259 0.22298
 Zr555 Zr 0.29757 0.74771 0.24735
 O556 O 0.27419 0.77221 0.22264
 Zr557 Zr 0.25120 0.74663 0.29450
 O558 O 0.22588 0.77124 0.27205
 Zr559 Zr 0.24879 0.74870 0.19936
 O560 O 0.27468 0.72376 0.22143
 Zr561 Zr 0.20269 0.74757 0.24657
 O562 O 0.22587 0.72265 0.27134
 Zr563 Zr 0.24863 0.79517 0.24643
 O564 O 0.27417 0.77283 0.27134
 O565 O 0.27615 0.72258 0.27208
 O566 O 0.22389 0.77301 0.22174
 C567 C 0.25125 0.68623 0.30786
 C568 C 0.31239 0.68774 0.24523
 C569 C 0.31135 0.74903 0.30786
 C570 C 0.24641 0.80899 0.18612
 C571 C 0.18859 0.74908 0.18629
 C572 C 0.18825 0.80777 0.24605
 H573 H 0.21581 0.71047 0.21173
 H574 H 0.21485 0.78201 0.28422
 H575 H 0.28782 0.71136 0.28325
 H576 H 0.28574 0.78336 0.21131
 H577 H 0.29216 0.73560 0.17533
 H578 H 0.32159 0.75628 0.20273
 H579 H 0.17692 0.75982 0.28963
 H580 H 0.20712 0.73410 0.31725
 H581 H 0.25741 0.70432 0.17509
 H582 H 0.26527 0.67337 0.20542
 H583 H 0.23611 0.82064 0.28961
 H584 H 0.26178 0.79136 0.31724
 H585 H 0.20785 0.67672 0.25922
 H586 H 0.17806 0.70397 0.23402
 H587 H 0.31872 0.79272 0.26049
 H588 H 0.29070 0.82181 0.23298
 O589 O 0.74886 0.31580 0.28789
 O590 O 0.77771 0.32375 0.25090
 O591 O 0.67968 0.28296 0.25088
 O592 O 0.67091 0.24893 0.22300
 O593 O 0.71231 0.24620 0.32006
 O594 O 0.74952 0.21716 0.32756
 O595 O 0.75081 0.21005 0.18220
 O596 O 0.71855 0.24475 0.17538
 O597 O 0.81746 0.24615 0.21423
 O598 O 0.82548 0.27694 0.25172
 O599 O 0.78619 0.17842 0.25027
 O600 O 0.74814 0.17005 0.28053
 O601 O 0.75148 0.17811 0.21429
 O602 O 0.72025 0.16971 0.25175
 O603 O 0.81783 0.21075 0.25006
 O604 O 0.82545 0.24909 0.28063
 O605 O 0.78555 0.24535 0.18216
 O606 O 0.75304 0.27585 0.17403
 O607 O 0.74899 0.28382 0.32004
 O608 O 0.77881 0.24709 0.32749
 O609 O 0.68038 0.24591 0.28793
 O610 O 0.67444 0.21502 0.25061
 O611 O 0.71132 0.31533 0.25190
 O612 O 0.74917 0.32363 0.22152
 Zr613 Zr 0.74759 0.29448 0.25187
 O614 O 0.77254 0.27185 0.22707
 Zr615 Zr 0.70148 0.24726 0.25182
 O616 O 0.72444 0.22258 0.22687
 Zr617 Zr 0.74822 0.24774 0.29870
 O618 O 0.77317 0.22307 0.27592
 Zr619 Zr 0.74979 0.24600 0.20351
 O620 O 0.72431 0.27114 0.22588
 Zr621 Zr 0.79633 0.24662 0.25035
 O622 O 0.77356 0.27160 0.27545
 Zr623 Zr 0.75007 0.19936 0.25036
 O624 O 0.72488 0.22184 0.27551
 O625 O 0.72336 0.27204 0.27656
 O626 O 0.77475 0.22143 0.22556
 C627 C 0.74918 0.30816 0.31226
 C628 C 0.68712 0.30739 0.25144
 C629 C 0.68804 0.24566 0.31229
 C630 C 0.75184 0.18575 0.18995
 C631 C 0.80979 0.24542 0.18989
 C632 C 0.81038 0.18635 0.24994
 H633 H 0.78316 0.28395 0.21579
 H634 H 0.78422 0.21219 0.28799
 H635 H 0.71198 0.28324 0.28806
 H636 H 0.71274 0.21155 0.21558
 H637 H 0.70629 0.25947 0.17990
 H638 H 0.67698 0.23863 0.20737
 H639 H 0.82221 0.23443 0.29335
 H640 H 0.79256 0.25971 0.32128
 H641 H 0.74138 0.29060 0.17965
 H642 H 0.73319 0.32136 0.21030
 H643 H 0.76246 0.17377 0.29347
 H644 H 0.73724 0.20309 0.32136
 H645 H 0.79196 0.31745 0.26291
 H646 H 0.82136 0.28992 0.23753
 H647 H 0.68018 0.20219 0.26440
 H648 H 0.70780 0.17299 0.23690
 C649 C 0.24043 0.13235 0.12969
 C650 C 0.21456 0.12317 0.12355
 C651 C 0.21095 0.10311 0.10391
 C652 C 0.23323 0.09235 0.09054
 C653 C 0.25910 0.10158 0.09667
 C654 C 0.26270 0.12163 0.11630
 C655 C 0.28872 0.13053 0.12208
 C656 C 0.31059 0.11993 0.10884
 C657 C 0.30709 0.10033 0.08964
 C658 C 0.28170 0.09119 0.08354
 C659 C 0.18493 0.09426 0.09811
 C660 C 0.16306 0.10494 0.11133
 C661 C 0.16658 0.12456 0.13052
 C662 C 0.19198 0.13364 0.13665
 C663 C 0.22979 0.07177 0.07051
 C664 C 0.22805 0.05467 0.05376
 C665 C 0.24411 0.15280 0.14976
 C666 C 0.24668 0.16981 0.16649
 H667 H 0.29246 0.14575 0.13686
 H668 H 0.33035 0.12697 0.11351
 H669 H 0.32414 0.09216 0.07941
 H670 H 0.28004 0.07592 0.06845
 H671 H 0.18121 0.07904 0.08333
 H672 H 0.14329 0.09795 0.10666
 H673 H 0.14954 0.13279 0.14073
 H674 H 0.19369 0.14892 0.15174
 C675 C 0.74307 0.63298 0.62964
 C676 C 0.72379 0.61270 0.63276
 C677 C 0.72118 0.59254 0.61307
 C678 C 0.73788 0.59278 0.59042
 C679 C 0.75697 0.61322 0.58719
 C680 C 0.75957 0.63337 0.60686
 C681 C 0.77881 0.65357 0.60322
 C682 C 0.79500 0.65387 0.58076
 C683 C 0.79246 0.63417 0.56150
 C684 C 0.77370 0.61403 0.56458
 C685 C 0.70179 0.57248 0.61661
 C686 C 0.68547 0.57230 0.63899
 C687 C 0.68808 0.59196 0.65828
 C688 C 0.70693 0.61202 0.65528
 C689 C 0.73586 0.57180 0.57064
 C690 C 0.73491 0.55450 0.55405
 C691 C 0.74581 0.65350 0.64979
 C692 C 0.74771 0.67055 0.66654
 H693 H 0.78154 0.66934 0.61764
 H694 H 0.80960 0.66947 0.57828
 H695 H 0.80507 0.63449 0.54408
 H696 H 0.77247 0.59917 0.54903
 H697 H 0.69903 0.55676 0.60213
 H698 H 0.67075 0.55680 0.64139
 H699 H 0.67544 0.59165 0.67569
 H700 H 0.70815 0.62691 0.67080
 C701 C 0.75840 0.87027 0.13240
 C702 C 0.76863 0.86289 0.10721
 C703 C 0.77205 0.88247 0.08709
 C704 C 0.76522 0.90931 0.09228
 C705 C 0.75552 0.91678 0.11765
 C706 C 0.75210 0.89721 0.13777
 C707 C 0.74238 0.90516 0.16298
 C708 C 0.73625 0.93170 0.16818
 C709 C 0.73958 0.95084 0.14851
 C710 C 0.74907 0.94358 0.12350
 C711 C 0.78231 0.87462 0.06207
 C712 C 0.78904 0.84818 0.05708
 C713 C 0.78567 0.82903 0.07673
 C714 C 0.77560 0.83618 0.10154
 C715 C 0.76749 0.92914 0.07139
 C716 C 0.76873 0.94577 0.05415
 C717 C 0.75476 0.85023 0.15289
 C718 C 0.75229 0.83351 0.16989
 H719 H 0.73946 0.89099 0.17892
 H720 H 0.72888 0.93744 0.18758
 H721 H 0.73480 0.97144 0.15265
 H722 H 0.75138 0.95921 0.10888
 H723 H 0.78532 0.88881 0.04617
 H724 H 0.79693 0.84253 0.03785
 H725 H 0.79100 0.80853 0.07278
 H726 H 0.77344 0.82058 0.11622
 C727 C 0.25862 0.37110 0.63380
 C728 C 0.27000 0.36397 0.60904
 C729 C 0.27290 0.38343 0.58875
 C730 C 0.26439 0.40989 0.59336
 C731 C 0.25353 0.41715 0.61831
 C732 C 0.25062 0.39768 0.63860
 C733 C 0.23969 0.40538 0.66338
 C734 C 0.23189 0.43159 0.66800
 C735 C 0.23473 0.45063 0.64816
 C736 C 0.24538 0.44361 0.62356
 C737 C 0.28433 0.37586 0.56416
 C738 C 0.29267 0.34978 0.55975
 C739 C 0.28978 0.33073 0.57957
 C740 C 0.27862 0.33762 0.60398
 C741 C 0.26615 0.42951 0.57227
 C742 C 0.26698 0.44597 0.55488
 C743 C 0.25535 0.35114 0.65437
 C744 C 0.25311 0.33438 0.67135
 H745 H 0.23711 0.39128 0.67944
 H746 H 0.22360 0.43714 0.68708
 H747 H 0.22865 0.47097 0.65184
 H748 H 0.24724 0.45915 0.60878
 H749 H 0.28701 0.38999 0.54815
 H750 H 0.30144 0.34434 0.54086
 H751 H 0.29635 0.31051 0.57607
 H752 H 0.27690 0.32212 0.61881
 C753 C 0.76106 0.12957 0.86716
 C754 C 0.76932 0.13725 0.89299
 C755 C 0.77285 0.11765 0.91307
 C756 C 0.76808 0.09050 0.90719
 C757 C 0.76068 0.08274 0.88113
 C758 C 0.75717 0.10234 0.86105
 C759 C 0.74979 0.09411 0.83513
 C760 C 0.74603 0.06727 0.82921
 C761 C 0.74942 0.04811 0.84885
 C762 C 0.75662 0.05564 0.87455
 C763 C 0.78111 0.12578 0.93874
 C764 C 0.78585 0.15252 0.94439
 C765 C 0.78238 0.17170 0.92477
 C766 C 0.77420 0.16427 0.89934
 C767 C 0.76990 0.07064 0.92810
 C768 C 0.77068 0.05402 0.94536
 C769 C 0.75684 0.14966 0.84684
 C770 C 0.75386 0.16645 0.82999
 H771 H 0.74694 0.10828 0.81918
 H772 H 0.74045 0.06132 0.80928
 H773 H 0.74648 0.02728 0.84416
 H774 H 0.75911 0.03999 0.88912
 H775 H 0.78414 0.11158 0.95463
 H776 H 0.79226 0.15839 0.96410
 H777 H 0.78615 0.19243 0.92924
 H778 H 0.77188 0.17990 0.88472
 C779 C 0.25791 0.62936 0.36549
 C780 C 0.27028 0.63615 0.38988
 C781 C 0.27314 0.61664 0.41014
 C782 C 0.26361 0.59048 0.40587
 C783 C 0.25169 0.58356 0.38129
 C784 C 0.24882 0.60307 0.36104
 C785 C 0.23682 0.59572 0.33665
 C786 C 0.22796 0.56980 0.33236
 C787 C 0.23078 0.55070 0.35215
 C788 C 0.24247 0.55739 0.37638
 C789 C 0.28557 0.62387 0.43435
 C790 C 0.29491 0.64966 0.43844
 C791 C 0.29205 0.66877 0.41866
 C792 C 0.27993 0.66220 0.39461
 C793 C 0.26546 0.57082 0.42691
 C794 C 0.26643 0.55436 0.44430
 C795 C 0.25482 0.64935 0.34492
 C796 C 0.25272 0.66610 0.32792
 H797 H 0.23421 0.60987 0.32064
 H798 H 0.21886 0.56450 0.31357
 H799 H 0.22389 0.53058 0.34872
 H800 H 0.24426 0.54182 0.39114
 H801 H 0.28827 0.60968 0.45031
 H802 H 0.30443 0.65484 0.45705
 H803 H 0.29938 0.68876 0.42191
 H804 H 0.27828 0.67773 0.37979
 C805 C 0.23981 0.86788 0.86961
 C806 C 0.26218 0.87857 0.88287
 C807 C 0.25874 0.89869 0.90246
 C808 C 0.23294 0.90802 0.90866
 C809 C 0.21056 0.89730 0.89541
 C810 C 0.21400 0.87716 0.87582
 C811 C 0.19132 0.86672 0.86286
 C812 C 0.16598 0.87592 0.86906
 C813 C 0.16263 0.89563 0.88818
 C814 C 0.18460 0.90627 0.90127
 C815 C 0.28145 0.90905 0.91546
 C816 C 0.30677 0.89981 0.90929
 C817 C 0.31011 0.88014 0.89014
 C818 C 0.28815 0.86957 0.87701
 C819 C 0.22966 0.92862 0.92868
 C820 C 0.22805 0.94574 0.94543
 C821 C 0.24333 0.84737 0.84956
 C822 C 0.24581 0.83034 0.83286
 H823 H 0.19290 0.85138 0.84782
 H824 H 0.14886 0.86772 0.85895
 H825 H 0.14291 0.90272 0.89290
 H826 H 0.18101 0.92157 0.91601
 H827 H 0.27991 0.92438 0.93051
 H828 H 0.32390 0.90796 0.91943
 H829 H 0.32983 0.87302 0.88541
 H830 H 0.29176 0.85429 0.86227
 C831 C 0.74450 0.36639 0.36884
 C832 C 0.76069 0.36572 0.39185
 C833 C 0.75820 0.38596 0.41146
 C834 C 0.73955 0.40675 0.40792
 C835 C 0.72334 0.40740 0.38492
 C836 C 0.72580 0.38714 0.36532
 C837 C 0.70931 0.38816 0.34251
 C838 C 0.69093 0.40861 0.33917
 C839 C 0.68859 0.42846 0.35830
 C840 C 0.70455 0.42796 0.38095
 C841 C 0.77461 0.38485 0.43432
 C842 C 0.79292 0.36435 0.43769
 C843 C 0.79534 0.34457 0.41851
 C844 C 0.77946 0.34515 0.39581
 C845 C 0.73734 0.42754 0.42787
 C846 C 0.73612 0.44466 0.44463
 C847 C 0.74688 0.34563 0.34891
 C848 C 0.74837 0.32843 0.33227
 H849 H 0.71041 0.37319 0.32706
 H850 H 0.67844 0.40905 0.32165
 H851 H 0.67430 0.44431 0.35559
 H852 H 0.70198 0.44382 0.39530
 H853 H 0.77346 0.39976 0.44981
 H854 H 0.80530 0.36382 0.45529
 H855 H 0.80959 0.32869 0.42122
 H856 H 0.78208 0.32931 0.38144
 C857 C 0.13052 0.24780 0.12997
 C858 C 0.10966 0.26664 0.12899
 C859 C 0.08934 0.26409 0.10954
 C860 C 0.09001 0.24271 0.09116
 C861 C 0.11081 0.22379 0.09222
 C862 C 0.13114 0.22635 0.11167
 C863 C 0.15178 0.20724 0.11230
 C864 C 0.15233 0.18623 0.09419
 C865 C 0.13240 0.18367 0.07524
 C866 C 0.11183 0.20218 0.07417
 C867 C 0.06869 0.28318 0.10896
 C868 C 0.06813 0.30418 0.12708
 C869 C 0.08800 0.30666 0.14610
 C870 C 0.10858 0.28817 0.14714
 C871 C 0.06954 0.24055 0.07092
 C872 C 0.05250 0.23940 0.05411
 C873 C 0.15115 0.25027 0.14998
 C874 C 0.16824 0.25182 0.16669
 H875 H 0.16772 0.20834 0.12669
 H876 H 0.16834 0.17188 0.09484
 H877 H 0.13290 0.16728 0.06126
 H878 H 0.09678 0.19937 0.05906
 H879 H 0.05276 0.28210 0.09456
 H880 H 0.05218 0.31859 0.12636
 H881 H 0.08748 0.32301 0.16013
 H882 H 0.12358 0.29095 0.16230
 C883 C 0.63066 0.74959 0.63046
 C884 C 0.62953 0.76814 0.60930
 C885 C 0.60942 0.76583 0.58959
 C886 C 0.59056 0.74499 0.59116
 C887 C 0.59177 0.72635 0.61225
 C888 C 0.61188 0.72867 0.63198
 C889 C 0.61266 0.70983 0.65291
 C890 C 0.59409 0.68933 0.65433
 C891 C 0.57449 0.68703 0.63501
 C892 C 0.57324 0.70528 0.61417
 C893 C 0.60871 0.78462 0.56861
 C894 C 0.62732 0.80508 0.56716
 C895 C 0.64696 0.80733 0.58645
 C896 C 0.64815 0.78913 0.60732
 C897 C 0.56979 0.74298 0.57120
 C898 C 0.55264 0.74188 0.55451
 C899 C 0.65130 0.75180 0.65050
 C900 C 0.66846 0.75312 0.66716
 H901 H 0.62755 0.71075 0.66840
 H902 H 0.59490 0.67518 0.67054
 H903 H 0.56015 0.67104 0.63619
 H904 H 0.55763 0.70268 0.59961
 H905 H 0.59383 0.78369 0.55311
 H906 H 0.62648 0.81926 0.55097
 H907 H 0.66136 0.82327 0.58523
 H908 H 0.66380 0.79171 0.62184
 C909 C 0.12936 0.75211 0.86916
 C910 C 0.12988 0.77352 0.88752
 C911 C 0.10961 0.77585 0.90706
 C912 C 0.08898 0.75675 0.90816
 C913 C 0.08840 0.73543 0.88970
 C914 C 0.10865 0.73311 0.87016
 C915 C 0.10765 0.71163 0.85194
 C916 C 0.08722 0.69297 0.85299
 C917 C 0.06742 0.69523 0.87210
 C918 C 0.06791 0.71617 0.89029
 C919 C 0.11054 0.79742 0.92517
 C920 C 0.13093 0.81612 0.92406
 C921 C 0.15078 0.81380 0.90501
 C922 C 0.15034 0.79283 0.88686
 C923 C 0.06857 0.75869 0.92847
 C924 C 0.05157 0.75969 0.94532
 C925 C 0.14998 0.74982 0.84912
 C926 C 0.16707 0.74838 0.83242
 H927 H 0.12260 0.70903 0.83672
 H928 H 0.08676 0.67668 0.83890
 H929 H 0.05159 0.68069 0.87283
 H930 H 0.05204 0.71707 0.90476
 H931 H 0.09554 0.80005 0.94035
 H932 H 0.13136 0.83248 0.93808
 H933 H 0.16665 0.82831 0.90432
 H934 H 0.16620 0.79192 0.87239
 C935 C 0.63014 0.24995 0.36895
 C936 C 0.60889 0.26798 0.36502
 C937 C 0.58881 0.27050 0.38471
 C938 C 0.59013 0.25500 0.40819
 C939 C 0.61142 0.23702 0.41213
 C940 C 0.63148 0.23448 0.39244
 C941 C 0.65257 0.21639 0.39679
 C942 C 0.65380 0.20123 0.41997
 C943 C 0.63419 0.20371 0.43924
 C944 C 0.61320 0.22136 0.43548
 C945 C 0.56776 0.28864 0.38036
 C946 C 0.56660 0.30388 0.35721
 C947 C 0.58625 0.30144 0.33797
 C948 C 0.60719 0.28372 0.34172
 C949 C 0.56951 0.25725 0.42822
 C950 C 0.55252 0.25853 0.44503
 C951 C 0.65078 0.24762 0.34898
 C952 C 0.66788 0.24624 0.33231
 H953 H 0.66829 0.21376 0.38238
 H954 H 0.67007 0.18749 0.42298
 H955 H 0.63524 0.19189 0.45722
 H956 H 0.59844 0.22258 0.45106
 H957 H 0.55203 0.29125 0.39477
 H958 H 0.55037 0.31766 0.35421
 H959 H 0.58528 0.31334 0.32005
 H960 H 0.62199 0.28252 0.32616
 C961 C 0.86723 0.75429 0.13189
 C962 C 0.86827 0.77705 0.11529
 C963 C 0.88787 0.77885 0.09503
 C964 C 0.90635 0.75792 0.09153
 C965 C 0.90535 0.73520 0.10818
 C966 C 0.88573 0.73337 0.12840
 C967 C 0.88512 0.71047 0.14478
 C968 C 0.90339 0.68995 0.14130
 C969 C 0.92259 0.69173 0.12154
 C970 C 0.92365 0.71403 0.10512
 C971 C 0.88849 0.80176 0.07868
 C972 C 0.87034 0.82238 0.08231
 C973 C 0.85125 0.82068 0.10218
 C974 C 0.85007 0.79829 0.11849
 C975 C 0.92637 0.75960 0.07080
 C976 C 0.94311 0.76042 0.05369
 C977 C 0.84724 0.75248 0.15261
 C978 C 0.83057 0.75140 0.16976
 H979 H 0.87056 0.70818 0.16043
 H980 H 0.90264 0.67258 0.15401
 H981 H 0.93674 0.67574 0.11892
 H982 H 0.93897 0.71448 0.09004
 H983 H 0.90301 0.80402 0.06299
 H984 H 0.87112 0.83979 0.06965
 H985 H 0.83730 0.83681 0.10500
 H986 H 0.83481 0.79787 0.13362
 C987 C 0.36868 0.25509 0.63390
 C988 C 0.37017 0.27816 0.61777
 C989 C 0.38964 0.27985 0.59739
 C990 C 0.40753 0.25851 0.59333
 C991 C 0.40614 0.23553 0.60958
 C992 C 0.38664 0.23381 0.62991
 C993 C 0.38560 0.21064 0.64589
 C994 C 0.40335 0.18975 0.64189
 C995 C 0.42242 0.19142 0.62201
 C996 C 0.42389 0.21399 0.60597
 C997 C 0.39071 0.30305 0.58146
 C998 C 0.37314 0.32405 0.58565
 C999 C 0.35419 0.32247 0.60567
 C1000 C 0.35256 0.29980 0.62154
 C1001 C 0.42734 0.26005 0.57243
 C1002 C 0.44391 0.26070 0.55517
 C1003 C 0.34865 0.25328 0.65454
 C1004 C 0.33186 0.25214 0.67156
 H1005 H 0.37112 0.20842 0.66162
 H1006 H 0.40228 0.17218 0.65430
 H1007 H 0.43617 0.17514 0.61898
 H1008 H 0.43909 0.21433 0.59078
 H1009 H 0.40515 0.30522 0.56568
 H1010 H 0.37426 0.34168 0.57332
 H1011 H 0.34069 0.33890 0.60893
 H1012 H 0.33742 0.29948 0.63680
 C1013 C 0.86799 0.24567 0.86774
 C1014 C 0.88727 0.26595 0.87058
 C1015 C 0.90697 0.26390 0.89072
 C1016 C 0.90725 0.24158 0.90793
 C1017 C 0.88796 0.22128 0.90509
 C1018 C 0.86828 0.22331 0.88491
 C1019 C 0.84925 0.20273 0.88240
 C1020 C 0.84968 0.18075 0.89930
 C1021 C 0.86887 0.17882 0.91908
 C1022 C 0.88784 0.19879 0.92203
 C1023 C 0.92606 0.28444 0.89316
 C1024 C 0.92568 0.30636 0.87619
 C1025 C 0.90641 0.30836 0.85651
 C1026 C 0.88738 0.28845 0.85364
 C1027 C 0.92730 0.23969 0.92861
 C1028 C 0.94408 0.23878 0.94569
 C1029 C 0.84794 0.24769 0.84710
 C1030 C 0.83119 0.24893 0.83003
 H1031 H 0.83389 0.20335 0.86736
 H1032 H 0.83508 0.16512 0.89701
 H1033 H 0.86908 0.16173 0.93218
 H1034 H 0.90240 0.19638 0.93768
 H1035 H 0.94145 0.28380 0.90816
 H1036 H 0.94043 0.32188 0.87834
 H1037 H 0.90620 0.32543 0.84338
 H1038 H 0.87279 0.29090 0.83803
 C1039 C 0.36809 0.74604 0.36593
 C1040 C 0.38527 0.76782 0.37067
 C1041 C 0.40470 0.76621 0.39110
 C1042 C 0.40682 0.74283 0.40670
 C1043 C 0.38966 0.72103 0.40193
 C1044 C 0.37025 0.72262 0.38146
 C1045 C 0.35339 0.70052 0.37698
 C1046 C 0.35568 0.67750 0.39225
 C1047 C 0.37455 0.67600 0.41236
 C1048 C 0.39141 0.69745 0.41724
 C1049 C 0.42167 0.78825 0.39545
 C1050 C 0.41950 0.81120 0.38006
 C1051 C 0.40049 0.81277 0.36008
 C1052 C 0.38351 0.79139 0.35535
 C1053 C 0.42666 0.74132 0.42761
 C1054 C 0.44327 0.74062 0.44487
 C1055 C 0.34817 0.74771 0.34513
 C1056 C 0.33147 0.74870 0.32799
 H1057 H 0.33832 0.70075 0.36163
 H1058 H 0.34271 0.66074 0.38848
 H1059 H 0.37618 0.65810 0.42423
 H1060 H 0.40582 0.69533 0.43307
 H1061 H 0.43678 0.78800 0.41076
 H1062 H 0.43265 0.82786 0.38365
 H1063 H 0.39888 0.83064 0.34818
 H1064 H 0.36905 0.79355 0.33959
 C1065 C 0.13050 0.13393 0.24508
 C1066 C 0.10779 0.13490 0.26161
 C1067 C 0.08825 0.11457 0.25984
 C1068 C 0.09155 0.09337 0.24156
 C1069 C 0.11409 0.09257 0.22476
 C1070 C 0.13363 0.11291 0.22653
 C1071 C 0.15603 0.11165 0.20958
 C1072 C 0.15907 0.09087 0.19146
 C1073 C 0.13992 0.07104 0.18968
 C1074 C 0.11765 0.07177 0.20610
 C1075 C 0.06572 0.11599 0.27660
 C1076 C 0.06258 0.13689 0.29457
 C1077 C 0.08169 0.15675 0.29630
 C1078 C 0.10408 0.15587 0.28006
 C1079 C 0.07193 0.07221 0.24041
 C1080 C 0.05552 0.05475 0.24004
 C1081 C 0.15062 0.15451 0.24708
 C1082 C 0.16750 0.17146 0.24832
 H1083 H 0.17143 0.12665 0.21014
 H1084 H 0.17637 0.09015 0.17873
 H1085 H 0.14235 0.05498 0.17552
 H1086 H 0.10330 0.05589 0.20400
 H1087 H 0.05028 0.10104 0.27598
 H1088 H 0.04521 0.13767 0.30721
 H1089 H 0.07916 0.17294 0.31029
 H1090 H 0.11839 0.17179 0.28213
 C1091 C 0.63068 0.63531 0.74587
 C1092 C 0.61897 0.62523 0.76938
 C1093 C 0.59959 0.60478 0.76774
 C1094 C 0.59204 0.59454 0.74258
 C1095 C 0.60364 0.60474 0.71904
 C1096 C 0.62302 0.62521 0.72069
 C1097 C 0.63437 0.63512 0.69691
 C1098 C 0.62676 0.62509 0.67220
 C1099 C 0.60783 0.60503 0.67060
 C1100 C 0.59634 0.59489 0.69369
 C1101 C 0.58817 0.59498 0.79154
 C1102 C 0.59571 0.60511 0.81623
 C1103 C 0.61467 0.62513 0.81782
 C1104 C 0.62624 0.63515 0.79473
 C1105 C 0.57233 0.57355 0.74109
 C1106 C 0.55587 0.55616 0.74069
 C1107 C 0.65085 0.65581 0.74759
 C1108 C 0.66779 0.67266 0.74868
 H1109 H 0.64917 0.65072 0.69712
 H1110 H 0.63563 0.63290 0.65421
 H1111 H 0.60202 0.59728 0.65136
 H1112 H 0.58169 0.57930 0.69145
 H1113 H 0.57333 0.57942 0.79136
 H1114 H 0.58677 0.59739 0.83422
 H1115 H 0.62046 0.63294 0.83705
 H1116 H 0.64089 0.65073 0.79699
 C1117 C 0.87004 0.13134 0.75054
 C1118 C 0.89582 0.13655 0.74067
 C1119 C 0.91593 0.11684 0.74283
 C1120 C 0.91012 0.09201 0.75482
 C1121 C 0.88436 0.08684 0.76481
 C1122 C 0.86427 0.10658 0.76269
 C1123 C 0.83869 0.10099 0.77291
 C1124 C 0.83312 0.07661 0.78486
 C1125 C 0.85275 0.05729 0.78687
 C1126 C 0.87812 0.06223 0.77699
 C1127 C 0.94158 0.12253 0.73285
 C1128 C 0.94720 0.14700 0.72110
 C1129 C 0.92753 0.16627 0.71898
 C1130 C 0.90210 0.16122 0.72861
 C1131 C 0.93056 0.07172 0.75656
 C1132 C 0.94757 0.05489 0.75763
 C1133 C 0.84957 0.15157 0.74864
 C1134 C 0.83248 0.16831 0.74759
 H1135 H 0.82274 0.11538 0.77180
 H1136 H 0.81345 0.07268 0.79259
 H1137 H 0.84833 0.03837 0.79616
 H1138 H 0.89274 0.04660 0.77906
 H1139 H 0.95755 0.10819 0.73406
 H1140 H 0.96693 0.15102 0.71360
 H1141 H 0.93199 0.18524 0.70983
 H1142 H 0.88746 0.17683 0.72651
 C1143 C 0.37053 0.63109 0.24786
 C1144 C 0.39749 0.63873 0.24995
 C1145 C 0.41754 0.61896 0.25221
 C1146 C 0.41048 0.59169 0.25239
 C1147 C 0.38352 0.58404 0.25028
 C1148 C 0.36348 0.60381 0.24802
 C1149 C 0.33665 0.59569 0.24603
 C1150 C 0.32982 0.56881 0.24627
 C1151 C 0.34943 0.54948 0.24846
 C1152 C 0.37600 0.55689 0.25044
 C1153 C 0.44436 0.62707 0.25433
 C1154 C 0.45119 0.65395 0.25423
 C1155 C 0.43158 0.67328 0.25203
 C1156 C 0.40501 0.66588 0.24990
 C1157 C 0.43094 0.57150 0.25463
 C1158 C 0.44787 0.55466 0.25633
 C1159 C 0.35000 0.65127 0.24619
 C1160 C 0.33286 0.66797 0.24534
 H1161 H 0.32068 0.60998 0.24427
 H1162 H 0.30921 0.56296 0.24474
 H1163 H 0.34403 0.52862 0.24863
 H1164 H 0.39052 0.54112 0.25213
 H1165 H 0.46032 0.61277 0.25610
 H1166 H 0.47180 0.65980 0.25588
 H1167 H 0.43698 0.69413 0.25197
 H1168 H 0.39048 0.68164 0.24821
 C1169 C 0.12997 0.86655 0.75456
 C1170 C 0.13335 0.88749 0.77315
 C1171 C 0.11389 0.90787 0.77514
 C1172 C 0.09120 0.90721 0.75853
 C1173 C 0.08767 0.88607 0.74020
 C1174 C 0.10712 0.86569 0.73820
 C1175 C 0.10317 0.84480 0.71971
 C1176 C 0.08063 0.84404 0.70366
 C1177 C 0.06160 0.86395 0.70562
 C1178 C 0.06497 0.88478 0.72362
 C1179 C 0.11769 0.92860 0.79385
 C1180 C 0.14011 0.92920 0.81009
 C1181 C 0.15918 0.90933 0.80808
 C1182 C 0.15592 0.88863 0.78991
 C1183 C 0.07169 0.92843 0.75989
 C1184 C 0.05533 0.94592 0.76039
 C1185 C 0.14999 0.84590 0.75235
 C1186 C 0.16679 0.82889 0.75098
 H1187 H 0.11742 0.82884 0.71748
 H1188 H 0.07792 0.82790 0.68964
 H1189 H 0.04411 0.86327 0.69312
 H1190 H 0.04959 0.89978 0.72442
 H1191 H 0.10339 0.94451 0.79614
 H1192 H 0.14270 0.94520 0.82430
 H1193 H 0.17660 0.90996 0.82067
 H1194 H 0.17126 0.87358 0.78916
 C1195 C 0.63071 0.36520 0.25961
 C1196 C 0.63891 0.39207 0.26177
 C1197 C 0.61964 0.41257 0.26425
 C1198 C 0.59231 0.40604 0.26457
 C1199 C 0.58417 0.37908 0.26355
 C1200 C 0.60345 0.35859 0.26109
 C1201 C 0.59487 0.33178 0.26017
 C1202 C 0.56799 0.32540 0.26165
 C1203 C 0.54913 0.34545 0.26399
 C1204 C 0.55701 0.37202 0.26489
 C1205 C 0.62828 0.43930 0.26633
 C1206 C 0.65521 0.44559 0.26608
 C1207 C 0.67406 0.42555 0.26366
 C1208 C 0.66612 0.39907 0.26148
 C1209 C 0.57258 0.42707 0.26495
 C1210 C 0.55614 0.44447 0.26457
 C1211 C 0.65036 0.34441 0.25597
 C1212 C 0.66696 0.32736 0.25337
 H1213 H 0.60880 0.31548 0.25843
 H1214 H 0.56178 0.30479 0.26102
 H1215 H 0.52828 0.34040 0.26514
 H1216 H 0.54162 0.38691 0.26682
 H1217 H 0.61435 0.45557 0.26834
 H1218 H 0.66147 0.46613 0.26779
 H1219 H 0.69495 0.43053 0.26352
 H1220 H 0.68154 0.38418 0.25974
 C1221 C 0.86988 0.86954 0.24973
 C1222 C 0.89632 0.86315 0.25683
 C1223 C 0.91651 0.88281 0.25492
 C1224 C 0.91015 0.90875 0.24594
 C1225 C 0.88372 0.91512 0.23879
 C1226 C 0.86353 0.89546 0.24066
 C1227 C 0.83728 0.90228 0.23331
 C1228 C 0.83114 0.92781 0.22440
 C1229 C 0.85087 0.94705 0.22262
 C1230 C 0.87689 0.94090 0.22970
 C1231 C 0.94280 0.87594 0.26210
 C1232 C 0.94896 0.85038 0.27090
 C1233 C 0.92922 0.83117 0.27277
 C1234 C 0.90316 0.83736 0.26585
 C1235 C 0.93073 0.92891 0.24433
 C1236 C 0.94782 0.94567 0.24328
 C1237 C 0.84931 0.84936 0.25132
 C1238 C 0.83221 0.83261 0.25219
 H1239 H 0.82124 0.88800 0.23438
 H1240 H 0.81095 0.93268 0.21885
 H1241 H 0.84600 0.96686 0.21571
 H1242 H 0.89155 0.95653 0.22795
 H1243 H 0.95886 0.89019 0.26097
 H1244 H 0.96918 0.84547 0.27630
 H1245 H 0.93410 0.81134 0.27962
 H1246 H 0.88849 0.82174 0.26765
 C1247 C 0.36994 0.36966 0.75274
 C1248 C 0.39684 0.36273 0.75699
 C1249 C 0.41689 0.38251 0.75505
 C1250 C 0.40989 0.40910 0.74889
 C1251 C 0.38299 0.41605 0.74471
 C1252 C 0.36294 0.39626 0.74662
 C1253 C 0.33618 0.40365 0.74228
 C1254 C 0.32942 0.42985 0.73625
 C1255 C 0.34903 0.44922 0.73442
 C1256 C 0.37554 0.44251 0.73858
 C1257 C 0.44366 0.37512 0.75933
 C1258 C 0.45042 0.34891 0.76535
 C1259 C 0.43081 0.32956 0.76724
 C1260 C 0.40429 0.33627 0.76313
 C1261 C 0.43035 0.42931 0.74703
 C1262 C 0.44732 0.44613 0.74572
 C1263 C 0.34953 0.34935 0.75409
 C1264 C 0.33250 0.33254 0.75468
 H1265 H 0.32022 0.38930 0.74351
 H1266 H 0.30886 0.43516 0.73298
 H1267 H 0.34368 0.46956 0.72975
 H1268 H 0.39007 0.45828 0.73693
 H1269 H 0.45962 0.38946 0.75806
 H1270 H 0.47099 0.34360 0.76856
 H1271 H 0.43616 0.30923 0.77192
 H1272 H 0.38975 0.32052 0.76483
 C1273 C 0.13005 0.24537 0.86860
 C1274 C 0.10921 0.26425 0.86915
 C1275 C 0.08899 0.26226 0.88874
 C1276 C 0.08974 0.24140 0.90767
 C1277 C 0.11046 0.22238 0.90698
 C1278 C 0.13070 0.22437 0.88738
 C1279 C 0.15128 0.20518 0.88713
 C1280 C 0.15186 0.18464 0.90573
 C1281 C 0.13204 0.18264 0.92484
 C1282 C 0.11153 0.20124 0.92555
 C1283 C 0.06836 0.28139 0.88890
 C1284 C 0.06774 0.30189 0.87025
 C1285 C 0.08753 0.30384 0.85111
 C1286 C 0.10807 0.28529 0.85047
 C1287 C 0.06937 0.23983 0.92802
 C1288 C 0.05240 0.23905 0.94489
 C1289 C 0.15079 0.24754 0.84871
 C1290 C 0.16796 0.24923 0.83214
 H1291 H 0.16712 0.20585 0.87261
 H1292 H 0.16781 0.17021 0.90535
 H1293 H 0.13257 0.16661 0.93921
 H1294 H 0.09656 0.19887 0.94080
 H1295 H 0.05250 0.28071 0.90338
 H1296 H 0.05181 0.31633 0.87066
 H1297 H 0.08696 0.31980 0.83666
 H1298 H 0.12300 0.28764 0.83518
 C1299 C 0.63093 0.74702 0.36945
 C1300 C 0.63206 0.76347 0.39231
 C1301 C 0.61179 0.76183 0.41190
 C1302 C 0.59047 0.74376 0.40852
 C1303 C 0.58941 0.72722 0.38571
 C1304 C 0.60970 0.72884 0.36613
 C1305 C 0.60823 0.71206 0.34352
 C1306 C 0.58731 0.69419 0.34036
 C1307 C 0.56746 0.69264 0.35948
 C1308 C 0.56839 0.70892 0.38193
 C1309 C 0.61338 0.77848 0.43459
 C1310 C 0.63439 0.79622 0.43783
 C1311 C 0.65420 0.79783 0.41867
 C1312 C 0.65315 0.78169 0.39613
 C1313 C 0.56964 0.74239 0.42845
 C1314 C 0.55249 0.74164 0.44518
 C1315 C 0.65158 0.74879 0.34939
 C1316 C 0.66868 0.75010 0.33267
 H1317 H 0.62320 0.71254 0.32810
 H1318 H 0.58652 0.68147 0.32298
 H1319 H 0.55125 0.67874 0.35691
 H1320 H 0.55250 0.70697 0.39627
 H1321 H 0.59847 0.77797 0.45005
 H1322 H 0.63529 0.80880 0.45530
 H1323 H 0.67047 0.81164 0.42128
 H1324 H 0.66903 0.78366 0.38179
 C1325 C 0.86932 0.75706 0.86572
 C1326 C 0.86864 0.77805 0.88454
 C1327 C 0.88809 0.77928 0.90501
 C1328 C 0.90812 0.75956 0.90648
 C1329 C 0.90889 0.73869 0.88753
 C1330 C 0.88942 0.73744 0.86710
 C1331 C 0.89058 0.71638 0.84841
 C1332 C 0.91040 0.69710 0.84987
 C1333 C 0.92943 0.69832 0.86984
 C1334 C 0.92879 0.71882 0.88851
 C1335 C 0.88699 0.80039 0.92364
 C1336 C 0.86728 0.81979 0.92204
 C1337 C 0.84833 0.81865 0.90198
 C1338 C 0.84886 0.79803 0.88342
 C1339 C 0.92791 0.76060 0.92747
 C1340 C 0.94450 0.76099 0.94476
 C1341 C 0.84924 0.75555 0.84506
 C1342 C 0.83244 0.75434 0.82803
 H1343 H 0.87622 0.71458 0.83249
 H1344 H 0.91099 0.68114 0.83541
 H1345 H 0.94480 0.68330 0.87089
 H1346 H 0.94404 0.71891 0.90366
 H1347 H 0.90133 0.80214 0.93957
 H1348 H 0.86675 0.83583 0.93643
 H1349 H 0.83317 0.83385 0.90075
 H1350 H 0.83366 0.79799 0.86820
 C1351 C 0.36839 0.25661 0.36595
 C1352 C 0.37071 0.27979 0.38183
 C1353 C 0.39013 0.28095 0.40233
 C1354 C 0.40715 0.25897 0.40677
 C1355 C 0.40493 0.23586 0.39076
 C1356 C 0.38548 0.23468 0.37030
 C1357 C 0.38362 0.21136 0.35458
 C1358 C 0.40050 0.18984 0.35893
 C1359 C 0.41952 0.19099 0.37892
 C1360 C 0.42180 0.21368 0.39472
 C1361 C 0.39203 0.30429 0.41800
 C1362 C 0.37533 0.32593 0.41345
 C1363 C 0.35645 0.32484 0.39332
 C1364 C 0.35400 0.30206 0.37769
 C1365 C 0.42696 0.26003 0.42773
 C1366 C 0.44356 0.26047 0.44501
 C1367 C 0.34832 0.25524 0.34527
 C1368 C 0.33154 0.25410 0.32822
 H1369 H 0.36915 0.20952 0.33876
 H1370 H 0.39881 0.17217 0.34671
 H1371 H 0.43259 0.17422 0.38222
 H1372 H 0.43691 0.21361 0.41001
 H1373 H 0.40645 0.30609 0.43386
 H1374 H 0.37707 0.34365 0.42559
 H1375 H 0.34360 0.34175 0.38980
 H1376 H 0.33894 0.30213 0.36234
 C1377 C 0.13033 0.75418 0.12988
 C1378 C 0.13108 0.77492 0.11082
 C1379 C 0.11080 0.77681 0.09124
 C1380 C 0.08992 0.75794 0.09083
 C1381 C 0.08907 0.73735 0.11004
 C1382 C 0.10934 0.73546 0.12962
 C1383 C 0.10808 0.71468 0.14859
 C1384 C 0.08739 0.69629 0.14823
 C1385 C 0.06756 0.69814 0.12909
 C1386 C 0.06829 0.71838 0.11017
 C1387 C 0.11196 0.79770 0.07239
 C1388 C 0.13262 0.81614 0.07282
 C1389 C 0.15250 0.81423 0.09189
 C1390 C 0.15182 0.79394 0.11077
 C1391 C 0.06952 0.75940 0.07046
 C1392 C 0.05254 0.76011 0.05357
 C1393 C 0.15109 0.75213 0.14980
 C1394 C 0.16826 0.75054 0.16642
 H1395 H 0.12304 0.71241 0.16388
 H1396 H 0.08673 0.68053 0.16289
 H1397 H 0.05152 0.68381 0.12891
 H1398 H 0.05240 0.71898 0.09570
 H1399 H 0.09695 0.80000 0.05716
 H1400 H 0.13322 0.83198 0.05824
 H1401 H 0.16858 0.82852 0.09203
 H1402 H 0.16770 0.79333 0.12526
 C1403 C 0.63029 0.25417 0.63156
 C1404 C 0.63093 0.27504 0.61264
 C1405 C 0.61085 0.27676 0.59283
 C1406 C 0.59026 0.25758 0.59204
 C1407 C 0.58953 0.23683 0.61109
 C1408 C 0.60959 0.23512 0.63090
 C1409 C 0.60845 0.21418 0.64971
 C1410 C 0.58805 0.19547 0.64897
 C1411 C 0.56843 0.19713 0.62960
 C1412 C 0.56906 0.21752 0.61083
 C1413 C 0.61192 0.29778 0.57413
 C1414 C 0.63228 0.31654 0.57493
 C1415 C 0.65195 0.31482 0.59424
 C1416 C 0.65136 0.29439 0.61297
 C1417 C 0.56999 0.25895 0.57153
 C1418 C 0.55307 0.25963 0.55457
 C1419 C 0.65088 0.25229 0.65168
 C1420 C 0.66796 0.25082 0.66842
 H1421 H 0.62325 0.21205 0.66517
 H1422 H 0.58748 0.17959 0.66351
 H1423 H 0.55263 0.18255 0.62911
 H1424 H 0.55334 0.21797 0.59617
 H1425 H 0.59706 0.29994 0.55873
 H1426 H 0.63281 0.33248 0.56046
 H1427 H 0.66778 0.32936 0.59468
 H1428 H 0.66708 0.29393 0.62763
 C1429 C 0.86685 0.24177 0.13225
 C1430 C 0.88538 0.26276 0.12954
 C1431 C 0.90511 0.26154 0.10939
 C1432 C 0.90617 0.23932 0.09206
 C1433 C 0.88769 0.21828 0.09483
 C1434 C 0.86797 0.21949 0.11502
 C1435 C 0.84976 0.19817 0.11748
 C1436 C 0.85104 0.17626 0.10051
 C1437 C 0.87024 0.17513 0.08071
 C1438 C 0.88841 0.19584 0.07780
 C1439 C 0.92343 0.28277 0.10707
 C1440 C 0.92229 0.30458 0.12416
 C1441 C 0.90298 0.30579 0.14386
 C1442 C 0.88469 0.28518 0.14661
 C1443 C 0.92624 0.23827 0.07138
 C1444 C 0.94303 0.23788 0.05431
 C1445 C 0.84664 0.24313 0.15276
 C1446 C 0.82985 0.24428 0.16976
 H1447 H 0.83442 0.19816 0.13254
 H1448 H 0.83707 0.16005 0.10276
 H1449 H 0.87110 0.15809 0.06754
 H1450 H 0.90302 0.19405 0.06213
 H1451 H 0.93882 0.28276 0.09207
 H1452 H 0.93646 0.32064 0.12210
 H1453 H 0.90217 0.32278 0.15709
 H1454 H 0.87005 0.28703 0.16225
 C1455 C 0.36783 0.74350 0.63383
 C1456 C 0.38518 0.76531 0.62987
 C1457 C 0.40471 0.76421 0.60950
 C1458 C 0.40678 0.74130 0.59318
 C1459 C 0.38951 0.71944 0.59722
 C1460 C 0.37000 0.72053 0.61762
 C1461 C 0.35302 0.69838 0.62134
 C1462 C 0.35530 0.67580 0.60540
 C1463 C 0.37428 0.67479 0.58537
 C1464 C 0.39124 0.69630 0.58124
 C1465 C 0.42181 0.78627 0.60594
 C1466 C 0.41968 0.80877 0.62203
 C1467 C 0.40058 0.80984 0.64193
 C1468 C 0.38347 0.78842 0.64590
 C1469 C 0.42668 0.74035 0.57228
 C1470 C 0.44331 0.74002 0.55504
 C1471 C 0.34767 0.74480 0.65442
 C1472 C 0.33082 0.74591 0.67141
 H1473 H 0.33788 0.69825 0.63661
 H1474 H 0.34226 0.65899 0.60860
 H1475 H 0.37590 0.65723 0.57300
 H1476 H 0.40573 0.69457 0.56545
 H1477 H 0.43700 0.78640 0.59073
 H1478 H 0.43293 0.82545 0.61903
 H1479 H 0.39901 0.82736 0.65438
 H1480 H 0.36895 0.79020 0.66165
 C1481 C 0.23802 0.13304 0.86905
 C1482 C 0.26057 0.12278 0.88234
 C1483 C 0.25750 0.10251 0.90179
 C1484 C 0.23189 0.09260 0.90785
 C1485 C 0.20932 0.10288 0.89457
 C1486 C 0.21239 0.12319 0.87512
 C1487 C 0.18955 0.13321 0.86213
 C1488 C 0.16439 0.12344 0.86819
 C1489 C 0.16140 0.10356 0.88716
 C1490 C 0.18354 0.09332 0.90027
 C1491 C 0.28038 0.09257 0.91481
 C1492 C 0.30552 0.10238 0.90878
 C1493 C 0.30851 0.12221 0.88976
 C1494 C 0.28636 0.13237 0.87663
 C1495 C 0.22898 0.07188 0.92778
 C1496 C 0.22759 0.05470 0.94446
 C1497 C 0.24122 0.15365 0.84911
 C1498 C 0.24379 0.17075 0.83251
 H1499 H 0.19086 0.14866 0.84720
 H1500 H 0.14713 0.13133 0.85806
 H1501 H 0.14181 0.09601 0.89176
 H1502 H 0.18023 0.07787 0.91489
 H1503 H 0.27912 0.07714 0.92976
 H1504 H 0.32279 0.09455 0.91893
 H1505 H 0.32808 0.12978 0.88515
 H1506 H 0.28971 0.14779 0.86199
 C1507 C 0.74246 0.63336 0.36953
 C1508 C 0.75875 0.63428 0.39247
 C1509 C 0.75679 0.61394 0.41201
 C1510 C 0.73856 0.59276 0.40848
 C1511 C 0.72214 0.59194 0.38562
 C1512 C 0.72407 0.61232 0.36610
 C1513 C 0.70739 0.61110 0.34344
 C1514 C 0.68932 0.59036 0.34017
 C1515 C 0.68749 0.57041 0.35923
 C1516 C 0.70366 0.57108 0.38173
 C1517 C 0.77329 0.61531 0.43478
 C1518 C 0.79120 0.63618 0.43815
 C1519 C 0.79312 0.65605 0.41903
 C1520 C 0.77714 0.65522 0.39642
 C1521 C 0.73693 0.57180 0.42831
 C1522 C 0.73602 0.55454 0.44494
 C1523 C 0.74462 0.65403 0.34948
 C1524 C 0.74627 0.67114 0.33276
 H1525 H 0.70809 0.62615 0.32806
 H1526 H 0.67666 0.58977 0.32278
 H1527 H 0.67343 0.55433 0.35658
 H1528 H 0.70148 0.55514 0.39602
 H1529 H 0.77253 0.60033 0.45022
 H1530 H 0.80365 0.63692 0.45569
 H1531 H 0.80706 0.67222 0.42174
 H1532 H 0.77935 0.67116 0.38212
 C1533 C 0.76041 0.12861 0.13264
 C1534 C 0.75475 0.10163 0.13847
 C1535 C 0.75745 0.08196 0.11831
 C1536 C 0.76584 0.08938 0.09247
 C1537 C 0.77218 0.11626 0.08684
 C1538 C 0.76945 0.13593 0.10699
 C1539 C 0.77590 0.16267 0.10090
 C1540 C 0.78481 0.16975 0.07563
 C1541 C 0.78750 0.15051 0.05594
 C1542 C 0.78124 0.12404 0.06135
 C1543 C 0.75163 0.05512 0.12459
 C1544 C 0.74347 0.04791 0.15008
 C1545 C 0.74087 0.06715 0.16979
 C1546 C 0.74639 0.09373 0.16416
 C1547 C 0.76748 0.06944 0.07161
 C1548 C 0.76846 0.05278 0.05437
 C1549 C 0.75694 0.14881 0.15300
 C1550 C 0.75430 0.16565 0.16988
 H1551 H 0.77426 0.17834 0.11559
 H1552 H 0.78978 0.19027 0.07136
 H1553 H 0.79449 0.15610 0.03636
 H1554 H 0.78369 0.10978 0.04540
 H1555 H 0.75341 0.03943 0.10995
 H1556 H 0.73915 0.02729 0.15455
 H1557 H 0.73454 0.06145 0.18957
 H1558 H 0.74410 0.10796 0.18017
 C1559 C 0.26032 0.63009 0.63356
 C1560 C 0.25207 0.60361 0.63847
 C1561 C 0.25446 0.58407 0.61816
 C1562 C 0.26509 0.59113 0.59305
 C1563 C 0.27392 0.61746 0.58835
 C1564 C 0.27152 0.63701 0.60867
 C1565 C 0.28045 0.66322 0.60349
 C1566 C 0.29142 0.66992 0.57895
 C1567 C 0.29381 0.65080 0.55911
 C1568 C 0.28517 0.62484 0.56363
 C1569 C 0.24604 0.55773 0.62353
 C1570 C 0.23562 0.55088 0.64827
 C1571 C 0.23329 0.57000 0.66813
 C1572 C 0.24137 0.59609 0.66340
 C1573 C 0.26641 0.57140 0.57197
 C1574 C 0.26702 0.55484 0.55462
 C1575 C 0.25719 0.65023 0.65404
 C1576 C 0.25476 0.66705 0.67097
 H1577 H 0.27915 0.67877 0.61835
 H1578 H 0.29824 0.69004 0.57537
 H1579 H 0.30243 0.65609 0.54011
 H1580 H 0.28746 0.61065 0.54759
 H1581 H 0.24750 0.54214 0.60874
 H1582 H 0.22933 0.53063 0.65205
 H1583 H 0.22519 0.56458 0.68732
 H1584 H 0.23920 0.61025 0.67949
 C1585 C 0.76612 0.87008 0.86589
 C1586 C 0.77108 0.86202 0.89242
 C1587 C 0.77382 0.88146 0.91279
 C1588 C 0.77154 0.90883 0.90649
 C1589 C 0.76773 0.91691 0.87977
 C1590 C 0.76505 0.89747 0.85939
 C1591 C 0.76129 0.90600 0.83282
 C1592 C 0.76022 0.93300 0.82655
 C1593 C 0.76278 0.95202 0.84648
 C1594 C 0.76645 0.94419 0.87282
 C1595 C 0.77876 0.87295 0.93917
 C1596 C 0.78102 0.84599 0.94525
 C1597 C 0.77831 0.82697 0.92534
 C1598 C 0.77335 0.83477 0.89920
 C1599 C 0.77224 0.92861 0.92754
 C1600 C 0.77225 0.94513 0.94495
 C1601 C 0.76188 0.85019 0.84537
 C1602 C 0.75850 0.83352 0.82846
 H1603 H 0.75928 0.89195 0.81662
 H1604 H 0.75743 0.93918 0.80611
 H1605 H 0.76195 0.97297 0.84151
 H1606 H 0.76843 0.95972 0.88761
 H1607 H 0.78108 0.88701 0.95532
 H1608 H 0.78492 0.83983 0.96552
 H1609 H 0.78015 0.80605 0.93015
 H1610 H 0.77153 0.81924 0.88439
 C1611 C 0.26068 0.37015 0.36576
 C1612 C 0.27232 0.36345 0.39053
 C1613 C 0.27462 0.38305 0.41080
 C1614 C 0.26526 0.40922 0.40619
 C1615 C 0.25415 0.41605 0.38122
 C1616 C 0.25185 0.39646 0.36095
 C1617 C 0.24065 0.40375 0.33617
 C1618 C 0.23200 0.42968 0.33153
 C1619 C 0.23424 0.44885 0.35135
 C1620 C 0.24515 0.44223 0.37596
 C1621 C 0.28631 0.37589 0.43540
 C1622 C 0.29546 0.35010 0.43983
 C1623 C 0.29314 0.33091 0.42004
 C1624 C 0.28176 0.33740 0.39561
 C1625 C 0.26652 0.42898 0.42724
 C1626 C 0.26710 0.44556 0.44458
 C1627 C 0.25774 0.34997 0.34529
 C1628 C 0.25545 0.33312 0.32837
 H1629 H 0.23851 0.38955 0.32011
 H1630 H 0.22351 0.43492 0.31245
 H1631 H 0.22751 0.46897 0.34766
 H1632 H 0.24652 0.45785 0.39072
 H1633 H 0.28857 0.39014 0.45139
 H1634 H 0.30441 0.34498 0.45874
 H1635 H 0.30034 0.31092 0.42356
 H1636 H 0.28054 0.32182 0.38079
 C1637 C 0.23808 0.86670 0.12946
 C1638 C 0.26066 0.87730 0.11652
 C1639 C 0.25755 0.89744 0.09692
 C1640 C 0.23187 0.90686 0.09038
 C1641 C 0.20927 0.89621 0.10329
 C1642 C 0.21239 0.87607 0.12291
 C1643 C 0.18952 0.86572 0.13557
 C1644 C 0.16429 0.87500 0.12902
 C1645 C 0.16125 0.89470 0.10986
 C1646 C 0.18341 0.90526 0.09707
 C1647 C 0.28046 0.90773 0.08426
 C1648 C 0.30567 0.89839 0.09076
 C1649 C 0.30869 0.87870 0.10992
 C1650 C 0.28652 0.86820 0.12272
 C1651 C 0.22892 0.92749 0.07036
 C1652 C 0.22752 0.94462 0.05363
 C1653 C 0.24131 0.84620 0.14952
 C1654 C 0.24389 0.82919 0.16621
 H1655 H 0.19086 0.85038 0.15061
 H1656 H 0.14701 0.86686 0.13890
 H1657 H 0.14161 0.90184 0.10486
 H1658 H 0.18007 0.92054 0.08229
 H1659 H 0.27916 0.92306 0.06921
 H1660 H 0.32295 0.90649 0.08087
 H1661 H 0.32832 0.87151 0.11491
 H1662 H 0.28990 0.85291 0.13748
 C1663 C 0.74077 0.36706 0.63102
 C1664 C 0.76395 0.37677 0.61844
 C1665 C 0.76192 0.39678 0.59857
 C1666 C 0.73671 0.40698 0.59139
 C1667 C 0.71352 0.39725 0.60396
 C1668 C 0.71555 0.37722 0.62384
 C1669 C 0.69209 0.36779 0.63612
 C1670 C 0.66733 0.37785 0.62898
 C1671 C 0.66535 0.39744 0.60957
 C1672 C 0.68811 0.40711 0.59713
 C1673 C 0.78541 0.40615 0.58627
 C1674 C 0.81016 0.39606 0.59340
 C1675 C 0.81213 0.37650 0.61284
 C1676 C 0.78937 0.36689 0.62528
 C1677 C 0.73484 0.42749 0.57110
 C1678 C 0.73412 0.44451 0.55421
 C1679 C 0.74291 0.34663 0.65132
 C1680 C 0.74471 0.32965 0.66814
 H1681 H 0.69262 0.35257 0.65135
 H1682 H 0.64960 0.37041 0.63858
 H1683 H 0.64607 0.40521 0.60411
 H1684 H 0.68558 0.42235 0.58214
 H1685 H 0.78493 0.42135 0.57104
 H1686 H 0.82790 0.40347 0.58379
 H1687 H 0.83140 0.36872 0.61831
 H1688 H 0.79193 0.35167 0.64027
 C1689 C 0.13097 0.13513 0.75708
 C1690 C 0.10780 0.13696 0.74126
 C1691 C 0.08816 0.11673 0.74275
 C1692 C 0.09184 0.09479 0.76004
 C1693 C 0.11482 0.09317 0.77617
 C1694 C 0.13447 0.11340 0.77468
 C1695 C 0.15734 0.11132 0.79092
 C1696 C 0.16073 0.08982 0.80809
 C1697 C 0.14147 0.07008 0.80961
 C1698 C 0.11875 0.07162 0.79387
 C1699 C 0.06516 0.11898 0.72672
 C1700 C 0.06167 0.14060 0.70972
 C1701 C 0.08089 0.16037 0.70825
 C1702 C 0.10374 0.15867 0.72379
 C1703 C 0.07213 0.07375 0.76083
 C1704 C 0.05561 0.05642 0.76097
 C1705 C 0.15125 0.15552 0.75517
 C1706 C 0.16817 0.17238 0.75374
 H1707 H 0.17283 0.12624 0.79054
 H1708 H 0.17837 0.08849 0.82032
 H1709 H 0.14416 0.05347 0.82305
 H1710 H 0.10432 0.05578 0.79574
 H1711 H 0.04962 0.10413 0.72718
 H1712 H 0.04394 0.14201 0.69763
 H1713 H 0.07809 0.17712 0.69501
 H1714 H 0.11811 0.17456 0.72196
 C1715 C 0.63180 0.63405 0.26193
 C1716 C 0.60455 0.64077 0.26330
 C1717 C 0.58511 0.62032 0.26487
 C1718 C 0.59305 0.59328 0.26514
 C1719 C 0.62035 0.58662 0.26488
 C1720 C 0.63978 0.60706 0.26328
 C1721 C 0.66695 0.59991 0.26302
 C1722 C 0.67470 0.57332 0.26436
 C1723 C 0.65570 0.55333 0.26592
 C1724 C 0.62881 0.55978 0.26613
 C1725 C 0.55799 0.62753 0.26610
 C1726 C 0.55029 0.65417 0.26591
 C1727 C 0.56930 0.67415 0.26442
 C1728 C 0.59615 0.66765 0.26309
 C1729 C 0.57316 0.57235 0.26495
 C1730 C 0.55659 0.55504 0.26434
 C1731 C 0.65161 0.65483 0.25889
 C1732 C 0.66826 0.67188 0.25643
 H1733 H 0.68248 0.61474 0.26193
 H1734 H 0.69557 0.56821 0.26425
 H1735 H 0.66183 0.53270 0.26698
 H1736 H 0.61477 0.54354 0.26744
 H1737 H 0.54247 0.61269 0.26735
 H1738 H 0.52946 0.65932 0.26695
 H1739 H 0.56322 0.69482 0.26435
 H1740 H 0.61020 0.68390 0.26204
 C1741 C 0.13075 0.86496 0.24195
 C1742 C 0.13383 0.88645 0.22400
 C1743 C 0.11430 0.90684 0.22291
 C1744 C 0.09184 0.90558 0.23977
 C1745 C 0.08854 0.88384 0.25739
 C1746 C 0.10807 0.86347 0.25849
 C1747 C 0.10438 0.84196 0.27629
 C1748 C 0.08202 0.84060 0.29253
 C1749 C 0.06291 0.86051 0.29144
 C1750 C 0.06603 0.88193 0.27413
 C1751 C 0.11782 0.92816 0.20486
 C1752 C 0.14002 0.92933 0.18837
 C1753 C 0.15914 0.90943 0.18948
 C1754 C 0.15616 0.88816 0.20700
 C1755 C 0.07224 0.92674 0.23931
 C1756 C 0.05579 0.94415 0.23938
 C1757 C 0.15101 0.84452 0.24359
 C1758 C 0.16794 0.82765 0.24489
 H1759 H 0.11868 0.82597 0.27783
 H1760 H 0.07950 0.82400 0.30601
 H1761 H 0.04556 0.85936 0.30408
 H1762 H 0.05060 0.89690 0.27400
 H1763 H 0.10347 0.94410 0.20328
 H1764 H 0.14240 0.94577 0.17467
 H1765 H 0.17638 0.91048 0.17668
 H1766 H 0.17153 0.87311 0.20705
 C1767 C 0.63060 0.36573 0.74387
 C1768 C 0.63379 0.38714 0.72583
 C1769 C 0.61438 0.40765 0.72466
 C1770 C 0.59191 0.40663 0.74155
 C1771 C 0.58851 0.38497 0.75926
 C1772 C 0.60792 0.36448 0.76043
 C1773 C 0.60411 0.34307 0.77833
 C1774 C 0.58176 0.34193 0.79459
 C1775 C 0.56277 0.36195 0.79344
 C1776 C 0.56601 0.38328 0.77603
 C1777 C 0.61801 0.42886 0.70651
 C1778 C 0.64021 0.42982 0.69001
 C1779 C 0.65922 0.40983 0.69120
 C1780 C 0.65613 0.38865 0.70882
 C1781 C 0.57243 0.42793 0.74101
 C1782 C 0.55608 0.44546 0.74103
 C1783 C 0.65076 0.34515 0.74557
 C1784 C 0.66763 0.32820 0.74689
 H1785 H 0.61831 0.32700 0.77992
 H1786 H 0.57915 0.32540 0.80815
 H1787 H 0.54543 0.36097 0.80610
 H1788 H 0.55067 0.39835 0.77585
 H1789 H 0.60376 0.44488 0.70486
 H1790 H 0.64268 0.44619 0.67623
 H1791 H 0.67647 0.41072 0.67841
 H1792 H 0.67141 0.37352 0.70893
 C1793 C 0.86835 0.12957 0.24687
 C1794 C 0.89442 0.13581 0.25531
 C1795 C 0.91463 0.11612 0.25413
 C1796 C 0.90862 0.09031 0.24453
 C1797 C 0.88257 0.08410 0.23598
 C1798 C 0.86237 0.10381 0.23711
 C1799 C 0.83649 0.09719 0.22836
 C1800 C 0.83072 0.07179 0.21880
 C1801 C 0.85045 0.05249 0.21776
 C1802 C 0.87612 0.05847 0.22622
 C1803 C 0.94056 0.12282 0.26266
 C1804 C 0.94636 0.14826 0.27208
 C1805 C 0.92660 0.16751 0.27324
 C1806 C 0.90089 0.16147 0.26498
 C1807 C 0.92923 0.07017 0.24356
 C1808 C 0.94638 0.05348 0.24288
 C1809 C 0.84772 0.14966 0.24816
 C1810 C 0.83064 0.16640 0.24911
 H1811 H 0.82047 0.11152 0.22879
 H1812 H 0.81082 0.06707 0.21217
 H1813 H 0.84587 0.03279 0.21035
 H1814 H 0.89080 0.04280 0.22501
 H1815 H 0.95662 0.10853 0.26213
 H1816 H 0.96631 0.15304 0.27851
 H1817 H 0.93121 0.18724 0.28057
 H1818 H 0.88620 0.17713 0.26626
 C1819 C 0.36865 0.63126 0.74868
 C1820 C 0.39562 0.63877 0.75116
 C1821 C 0.41585 0.61909 0.74993
 C1822 C 0.40899 0.59201 0.74623
 C1823 C 0.38203 0.58451 0.74361
 C1824 C 0.36180 0.60420 0.74482
 C1825 C 0.33499 0.59622 0.74208
 C1826 C 0.32836 0.56957 0.73826
 C1827 C 0.34813 0.55031 0.73712
 C1828 C 0.37469 0.55758 0.73976
 C1829 C 0.44267 0.62709 0.75244
 C1830 C 0.44932 0.65377 0.75604
 C1831 C 0.42954 0.67301 0.75724
 C1832 C 0.40297 0.66572 0.75485
 C1833 C 0.42965 0.57187 0.74525
 C1834 C 0.44681 0.55516 0.74453
 C1835 C 0.34800 0.65139 0.74997
 C1836 C 0.33090 0.66814 0.75087
 H1837 H 0.31890 0.61047 0.74283
 H1838 H 0.30776 0.56382 0.73619
 H1839 H 0.34287 0.52963 0.73417
 H1840 H 0.38935 0.54189 0.73871
 H1841 H 0.45876 0.61286 0.75163
 H1842 H 0.46993 0.65954 0.75791
 H1843 H 0.43481 0.69371 0.76004
 H1844 H 0.38831 0.68141 0.75591
 C1845 C 0.87010 0.86922 0.75231
 C1846 C 0.89495 0.86534 0.73978
 C1847 C 0.91478 0.88537 0.74149
 C1848 C 0.90961 0.90915 0.75570
 C1849 C 0.88482 0.91295 0.76840
 C1850 C 0.86501 0.89289 0.76674
 C1851 C 0.84040 0.89707 0.77968
 C1852 C 0.83549 0.92042 0.79381
 C1853 C 0.85484 0.94007 0.79537
 C1854 C 0.87926 0.93649 0.78286
 C1855 C 0.93949 0.88105 0.72881
 C1856 C 0.94446 0.85760 0.71485
 C1857 C 0.92505 0.83802 0.71317
 C1858 C 0.90055 0.84173 0.72545
 C1859 C 0.92975 0.92973 0.75706
 C1860 C 0.94658 0.94673 0.75791
 C1861 C 0.84980 0.84886 0.75043
 C1862 C 0.83284 0.83203 0.74910
 H1863 H 0.82472 0.88236 0.77904
 H1864 H 0.81658 0.92328 0.80360
 H1865 H 0.85093 0.95819 0.80635
 H1866 H 0.89370 0.95232 0.78467
 H1867 H 0.95523 0.89568 0.72956
 H1868 H 0.96347 0.85462 0.70528
 H1869 H 0.92901 0.81983 0.70231
 H1870 H 0.88610 0.82591 0.72361
 C1871 C 0.36980 0.36875 0.25152
 C1872 C 0.39683 0.36116 0.25285
 C1873 C 0.41693 0.38097 0.25441
 C1874 C 0.40988 0.40825 0.25465
 C1875 C 0.38284 0.41584 0.25344
 C1876 C 0.36275 0.39604 0.25189
 C1877 C 0.33586 0.40412 0.25078
 C1878 C 0.32902 0.43099 0.25117
 C1879 C 0.34867 0.45035 0.25264
 C1880 C 0.37530 0.44298 0.25377
 C1881 C 0.44381 0.37289 0.25572
 C1882 C 0.45065 0.34602 0.25553
 C1883 C 0.43100 0.32666 0.25403
 C1884 C 0.40437 0.33402 0.25269
 C1885 C 0.43042 0.42850 0.25613
 C1886 C 0.44744 0.44533 0.25731
 C1887 C 0.34925 0.34851 0.24998
 C1888 C 0.33215 0.33175 0.24891
 H1889 H 0.31986 0.38980 0.24962
 H1890 H 0.30836 0.43682 0.25032
 H1891 H 0.34325 0.47120 0.25293
 H1892 H 0.38986 0.45877 0.25492
 H1893 H 0.45980 0.38721 0.25694
 H1894 H 0.47130 0.34019 0.25657
 H1895 H 0.43641 0.30581 0.25390
 H1896 H 0.38982 0.31823 0.25155
   
