data_POSCAR
  _audit_creation_date              2014-09-24
  _audit_creation_method            'ToBaCCo'
  _symmetry_space_group_name_H-M    'P1'
  _symmetry_Int_Tables_number       1
  _symmetry_cell_setting            triclinic
  loop_
  _symmetry_equiv_pos_as_xyz
 x,y,z
_cell_length_a 72.3117
_cell_length_b 72.2354
_cell_length_c 72.1447
_cell_angle_alpha 89.965900
_cell_angle_beta 89.974400
_cell_angle_gamma 89.960200
loop_
  _atom_site_label
  _atom_site_type_symbol
  _atom_site_fract_x
  _atom_site_fract_y
  _atom_site_fract_z
N1 N 0.35908 1.34712 0.30827
 N2 N 0.34590 1.35961 0.30809
 C3 C 0.34881 1.37133 0.29385
 C4 C 0.36474 1.36589 0.28449
 C5 C 0.37082 1.35040 0.29418
 H6 H 0.33997 1.38295 0.29065
 H7 H 0.38287 1.34204 0.29132
 Cu8 Cu 0.32619 1.35948 0.32653
 Cu9 Cu 0.36020 1.32755 0.32676
 Cu10 Cu 0.32628 1.32758 0.36063
 N11 N 0.30764 1.35957 0.34613
 N12 N 0.30777 1.34712 0.35939
 C13 C 0.29363 1.35041 0.37105
 C14 C 0.28396 1.36586 0.36485
 C15 C 0.29339 1.37126 0.34892
 H16 H 0.29072 1.34209 0.38314
 H17 H 0.29023 1.38284 0.34000
 N18 N 0.34614 1.30891 0.35957
 N19 N 0.35902 1.30888 0.34663
 C20 C 0.37056 1.29455 0.34965
 C21 C 0.36472 1.28504 0.36528
 C22 C 0.34916 1.29461 0.37116
 H23 H 0.38238 1.29134 0.34107
 H24 H 0.34066 1.29147 0.38306
 H25 H 0.33223 1.32678 0.33263
 H26 H 0.34675 1.34245 0.34721
 N27 N 0.35955 0.84683 0.80866
 N28 N 0.34684 0.85982 0.80905
 C29 C 0.34975 0.87158 0.79484
 C30 C 0.36514 0.86565 0.78497
 C31 C 0.37095 0.84985 0.79423
 H32 H 0.34130 0.88358 0.79195
 H33 H 0.38264 0.84118 0.79086
 Cu34 Cu 0.32783 0.86000 0.82820
 Cu35 Cu 0.36063 0.82708 0.82703
 Cu36 Cu 0.32673 0.82704 0.86107
 N37 N 0.30866 0.85970 0.84718
 N38 N 0.30832 0.84674 0.85996
 C39 C 0.29388 0.84973 0.87135
 C40 C 0.28457 0.86548 0.86546
 C41 C 0.29442 0.87140 0.85003
 H42 H 0.29052 0.84108 0.88309
 H43 H 0.29150 0.88335 0.84152
 N44 N 0.34656 0.80831 0.85982
 N45 N 0.35941 0.80829 0.84684
 C46 C 0.37099 0.79400 0.84984
 C47 C 0.36522 0.78449 0.86551
 C48 C 0.34964 0.79402 0.87142
 H49 H 0.38281 0.79083 0.84126
 H50 H 0.34121 0.79089 0.88337
 H51 H 0.33272 0.82699 0.83313
 H52 H 0.34782 0.84152 0.84823
 N53 N 0.85954 1.34690 0.80779
 N54 N 0.84629 1.35934 0.80761
 C55 C 0.84915 1.37104 0.79335
 C56 C 0.86510 1.36566 0.78398
 C57 C 0.87124 1.35021 0.79368
 H58 H 0.84026 1.38263 0.79015
 H59 H 0.88334 1.34191 0.79084
 Cu60 Cu 0.82662 1.35916 0.82610
 Cu61 Cu 0.86078 1.32739 0.82635
 Cu62 Cu 0.82699 1.32738 0.86034
 N63 N 0.80816 1.35924 0.84580
 N64 N 0.80840 1.34683 0.85911
 C65 C 0.79429 1.35011 0.87082
 C66 C 0.78459 1.36547 0.86459
 C67 C 0.79387 1.37088 0.84864
 H68 H 0.79144 1.34194 0.88304
 H69 H 0.79048 1.38240 0.83971
 N70 N 0.84693 1.30880 0.85927
 N71 N 0.85976 1.30876 0.84628
 C72 C 0.87135 1.29448 0.84930
 C73 C 0.86559 1.28500 0.86498
 C74 C 0.85003 1.29454 0.87090
 H75 H 0.88313 1.29126 0.84067
 H76 H 0.84158 1.29142 0.88284
 H77 H 0.83283 1.32651 0.83233
 H78 H 0.84732 1.34232 0.84679
 N79 N 0.85982 0.84735 0.30843
 N80 N 0.84707 0.86029 0.30875
 C81 C 0.84994 0.87201 0.29450
 C82 C 0.86540 0.86612 0.28463
 C83 C 0.87124 0.85035 0.29402
 H84 H 0.84139 0.88393 0.29163
 H85 H 0.88291 0.84162 0.29074
 Cu86 Cu 0.82805 0.86052 0.32787
 Cu87 Cu 0.86082 0.82756 0.32676
 Cu88 Cu 0.82681 0.82748 0.36068
 N89 N 0.80885 0.86019 0.34681
 N90 N 0.80847 0.84722 0.35957
 C91 C 0.79400 0.85022 0.37092
 C92 C 0.78472 0.86596 0.36501
 C93 C 0.79460 0.87189 0.34962
 H94 H 0.79061 0.84155 0.38265
 H95 H 0.79170 0.88383 0.34110
 N96 N 0.84658 0.80870 0.35942
 N97 N 0.85950 0.80872 0.34650
 C98 C 0.87101 0.79436 0.34947
 C99 C 0.86513 0.78479 0.36505
 C100 C 0.84956 0.79433 0.37094
 H101 H 0.88285 0.79120 0.34092
 H102 H 0.84105 0.79116 0.38283
 H103 H 0.83288 0.82748 0.33273
 H104 H 0.84793 0.84196 0.34792
 N105 N 0.64078 0.65312 0.30868
 N106 N 0.65350 0.64014 0.30909
 C107 C 0.65065 0.62840 0.29487
 C108 C 0.63528 0.63431 0.28499
 C109 C 0.62943 0.65009 0.29423
 H110 H 0.65913 0.61642 0.29200
 H111 H 0.61771 0.65874 0.29084
 Cu112 Cu 0.67239 0.63979 0.32833
 Cu113 Cu 0.63959 0.67280 0.32708
 Cu114 Cu 0.67341 0.67289 0.36110
 N115 N 0.69157 0.64030 0.34727
 N116 N 0.69189 0.65328 0.36001
 C117 C 0.70633 0.65035 0.37139
 C118 C 0.71566 0.63461 0.36555
 C119 C 0.70584 0.62864 0.35015
 H120 H 0.70968 0.65905 0.38308
 H121 H 0.70875 0.61665 0.34171
 N122 N 0.65354 0.69157 0.35987
 N123 N 0.64070 0.69155 0.34689
 C124 C 0.62913 0.70588 0.34983
 C125 C 0.63489 0.71543 0.36545
 C126 C 0.65047 0.70592 0.37139
 H127 H 0.61736 0.70908 0.34119
 H128 H 0.65894 0.70912 0.38329
 H129 H 0.66752 0.67283 0.33310
 H130 H 0.65238 0.65835 0.34826
 N131 N 0.64047 0.15326 0.80778
 N132 N 0.65367 0.14078 0.80767
 C133 C 0.65083 0.12906 0.79343
 C134 C 0.63493 0.13449 0.78402
 C135 C 0.62881 0.14998 0.79365
 H136 H 0.65969 0.11744 0.79029
 H137 H 0.61675 0.15832 0.79075
 Cu138 Cu 0.67323 0.14088 0.82624
 Cu139 Cu 0.63916 0.17278 0.82630
 Cu140 Cu 0.67296 0.17277 0.86026
 N141 N 0.69172 0.14079 0.84588
 N142 N 0.69153 0.15329 0.85909
 C143 C 0.70565 0.15005 0.87079
 C144 C 0.71530 0.13462 0.86467
 C145 C 0.70598 0.12912 0.84878
 H146 H 0.70856 0.15833 0.88290
 H147 H 0.70929 0.11751 0.83995
 N148 N 0.65305 0.19138 0.85917
 N149 N 0.64019 0.19139 0.84623
 C150 C 0.62858 0.20567 0.84925
 C151 C 0.63437 0.21517 0.86490
 C152 C 0.64996 0.20565 0.87078
 H153 H 0.61678 0.20887 0.84066
 H154 H 0.65844 0.20880 0.88268
 H155 H 0.66703 0.17357 0.83218
 H156 H 0.65248 0.15789 0.84674
 N157 N 1.14077 0.65314 0.80855
 N158 N 1.15343 0.64009 0.80904
 C159 C 1.15057 0.62833 0.79484
 C160 C 1.13527 0.63431 0.78487
 C161 C 1.12946 0.65014 0.79406
 H162 H 1.15897 0.61628 0.79204
 H163 H 1.11784 0.65887 0.79058
 Cu164 Cu 1.17231 0.63975 0.82829
 Cu165 Cu 1.13961 0.67289 0.82685
 Cu166 Cu 1.17341 0.67298 0.86087
 N167 N 1.19149 0.64027 0.84723
 N168 N 1.19183 0.65333 0.85988
 C169 C 1.20628 0.65046 0.87127
 C170 C 1.21560 0.63469 0.86551
 C171 C 1.20575 0.62862 0.85017
 H172 H 1.20967 0.65925 0.88288
 H173 H 1.20864 0.61655 0.84182
 N174 N 1.15360 0.69170 0.85958
 N175 N 1.14076 0.69169 0.84660
 C176 C 1.12918 0.70600 0.84955
 C177 C 1.13495 0.71553 0.86519
 C178 C 1.15051 0.70601 0.87113
 H179 H 1.11738 0.70917 0.84095
 H180 H 1.15894 0.70915 0.88307
 H181 H 1.16750 0.67283 0.83283
 H182 H 1.15230 0.65847 0.84805
 N183 N 1.14084 0.15335 0.30803
 N184 N 1.15410 0.14092 0.30783
 C185 C 1.15124 0.12922 0.29359
 C186 C 1.13531 0.13460 0.28430
 C187 C 1.12913 0.15001 0.29394
 H188 H 1.16010 0.11764 0.29028
 H189 H 1.11694 0.15818 0.29106
 Cu190 Cu 1.17376 0.14105 0.32632
 Cu191 Cu 1.13954 0.17280 0.32663
 Cu192 Cu 1.17334 0.17275 0.36059
 N193 N 1.19220 0.14092 0.34603
 N194 N 1.19194 0.15332 0.35932
 C195 C 1.20599 0.15000 0.37108
 C196 C 1.21568 0.13461 0.36491
 C197 C 1.20645 0.12923 0.34892
 H198 H 1.20883 0.15818 0.38327
 H199 H 1.20978 0.11766 0.34006
 N200 N 1.15339 0.19132 0.35957
 N201 N 1.14053 0.19135 0.34661
 C202 C 1.12889 0.20558 0.34969
 C203 C 1.13464 0.21503 0.36539
 C204 C 1.15026 0.20553 0.37124
 H205 H 1.11709 0.20879 0.34111
 H206 H 1.15872 0.20864 0.38316
 H207 H 1.16748 0.17368 0.33256
 H208 H 1.15301 0.15781 0.34702
 N209 N 0.64083 1.34670 0.69161
 N210 N 0.65412 1.35908 0.69179
 C211 C 0.65130 1.37077 0.70606
 C212 C 0.63539 1.36541 0.71537
 C213 C 0.62915 1.35005 0.70573
 H214 H 0.66021 1.38229 0.70940
 H215 H 0.61694 1.34193 0.70861
 Cu216 Cu 0.67375 1.35887 0.67330
 Cu217 Cu 0.63948 1.32726 0.67305
 Cu218 Cu 0.67326 1.32714 0.63907
 N219 N 0.69215 1.35893 0.65359
 N220 N 0.69188 1.34652 0.64031
 C221 C 0.70598 1.34977 0.62857
 C222 C 0.71569 1.36511 0.63477
 C223 C 0.70644 1.37054 0.65073
 H224 H 0.70881 1.34157 0.61638
 H225 H 0.70981 1.38208 0.65961
 N226 N 0.65327 1.30866 0.64015
 N227 N 0.64042 1.30870 0.65311
 C228 C 0.62877 1.29449 0.65011
 C229 C 0.63452 1.28496 0.63446
 C230 C 0.65013 1.29440 0.62854
 H231 H 0.61697 1.29135 0.65872
 H232 H 0.65860 1.29121 0.61663
 H233 H 0.66743 1.32627 0.66711
 H234 H 0.65299 1.34217 0.65264
 N235 N 0.64058 0.84650 1.19153
 N236 N 0.65383 0.85892 1.19172
 C237 C 0.65096 0.87061 1.20597
 C238 C 0.63503 0.86523 1.21527
 C239 C 0.62887 0.84983 1.20563
 H240 H 0.65981 0.88219 1.20928
 H241 H 0.61670 0.84165 1.20850
 Cu242 Cu 0.67346 0.85874 1.17323
 Cu243 Cu 0.63929 0.82706 1.17296
 Cu244 Cu 0.67310 0.82699 1.13899
 N245 N 0.69190 0.85882 1.15355
 N246 N 0.69168 0.84640 1.14027
 C247 C 0.70579 0.84966 1.12857
 C248 C 0.71547 0.86501 1.13477
 C249 C 0.70618 0.87045 1.15070
 H250 H 0.70866 0.84145 1.11639
 H251 H 0.70952 0.88200 1.15959
 N252 N 0.65314 0.80848 1.14006
 N253 N 0.64028 0.80851 1.15302
 C254 C 0.62866 0.79427 1.15001
 C255 C 0.63444 0.78474 1.13437
 C256 C 0.65004 0.79421 1.12847
 H257 H 0.61686 0.79110 1.15863
 H258 H 0.65854 0.79101 1.11658
 H259 H 0.66727 0.82613 1.16696
 H260 H 0.65281 0.84199 1.15248
 N261 N 1.14072 1.34614 1.19137
 N262 N 1.15392 1.35861 1.19157
 C263 C 1.15099 1.37031 1.20580
 C264 C 1.13508 1.36487 1.21508
 C265 C 1.12898 1.34944 1.20545
 H266 H 1.15977 1.38194 1.20907
 H267 H 1.11687 1.34119 1.20835
 Cu268 Cu 1.17363 1.35849 1.17318
 Cu269 Cu 1.13954 1.32668 1.17282
 Cu270 Cu 1.17345 1.32667 1.13898
 N271 N 1.19203 1.35864 1.15348
 N272 N 1.19192 1.34616 1.14025
 C273 C 1.20603 1.34948 1.12856
 C274 C 1.21558 1.36492 1.13473
 C275 C 1.20622 1.37036 1.15061
 H276 H 1.20901 1.34122 1.11644
 H277 H 1.20942 1.38199 1.15944
 N278 N 1.15357 1.30808 1.14001
 N279 N 1.14063 1.30811 1.15290
 C280 C 1.12899 1.29392 1.14978
 C281 C 1.13484 1.28440 1.13416
 C282 C 1.15049 1.29386 1.12836
 H283 H 1.11704 1.29085 1.15823
 H284 H 1.15902 1.29069 1.11648
 H285 H 1.16754 1.32585 1.16696
 H286 H 1.15308 1.34165 1.15241
 N287 N 1.14047 0.84664 0.69124
 N288 N 1.15308 0.85971 0.69079
 C289 C 1.15016 0.87143 0.70500
 C290 C 1.13485 0.86541 0.71492
 C291 C 1.12912 0.84958 0.70571
 H292 H 1.15849 0.88352 0.70781
 H293 H 1.11755 0.84079 0.70920
 Cu294 Cu 1.17197 0.86013 0.67154
 Cu295 Cu 1.13943 0.82692 0.67290
 Cu296 Cu 1.17326 0.82693 0.63887
 N297 N 1.19116 0.85967 0.65262
 N298 N 1.19157 0.84664 0.63994
 C299 C 1.20605 0.84955 0.62859
 C300 C 1.21530 0.86532 0.63441
 C301 C 1.20540 0.87134 0.64975
 H302 H 1.20952 0.84077 0.61699
 H303 H 1.20825 0.88337 0.65815
 N304 N 1.15352 0.80818 0.64016
 N305 N 1.14067 0.80816 0.65314
 C306 C 1.12915 0.79384 0.65020
 C307 C 1.13496 0.78431 0.63458
 C308 C 1.15049 0.79386 0.62861
 H309 H 1.11735 0.79066 0.65880
 H310 H 1.15894 0.79072 0.61667
 H311 H 1.16740 0.82705 0.66686
 H312 H 1.15216 0.84138 0.65165
 N313 N 0.35928 0.65332 0.69172
 N314 N 0.34595 0.64098 0.69195
 C315 C 0.34876 0.62928 0.70622
 C316 C 0.36470 0.63458 0.71551
 C317 C 0.37097 0.64993 0.70582
 H318 H 0.33981 0.61779 0.70961
 H319 H 0.38320 0.65802 0.70868
 Cu320 Cu 0.32623 0.64126 0.67354
 Cu321 Cu 0.36057 0.67282 0.67318
 Cu322 Cu 0.32678 0.67300 0.63923
 N323 N 0.30788 0.64121 0.65378
 N324 N 0.30817 0.65360 0.64045
 C325 C 0.29411 0.65032 0.62870
 C326 C 0.28438 0.63499 0.63494
 C327 C 0.29360 0.62959 0.65092
 H328 H 0.29130 0.65846 0.61645
 H329 H 0.29018 0.61809 0.65986
 N330 N 0.34675 0.69151 0.64032
 N331 N 0.35960 0.69145 0.65328
 C332 C 0.37125 0.70567 0.65027
 C333 C 0.36551 0.71522 0.63462
 C334 C 0.34989 0.70578 0.62872
 H335 H 0.38305 0.70879 0.65887
 H336 H 0.34143 0.70899 0.61681
 H337 H 0.33260 0.67385 0.66723
 H338 H 0.34700 0.65791 0.65278
 N339 N 0.35921 0.15303 1.19130
 N340 N 0.34649 0.14006 1.19093
 C341 C 0.34933 0.12834 1.20518
 C342 C 0.36470 0.13426 1.21505
 C343 C 0.37056 0.15001 1.20576
 H344 H 0.34088 0.11637 1.20806
 H345 H 0.38224 0.15868 1.20916
 Cu346 Cu 0.32758 0.13976 1.17172
 Cu347 Cu 0.36033 0.17271 1.17290
 Cu348 Cu 0.32649 0.17283 1.13888
 N349 N 0.30842 0.14022 1.15279
 N350 N 0.30808 0.15319 1.14002
 C351 C 0.29363 0.15022 1.12866
 C352 C 0.28433 0.13450 1.13455
 C353 C 0.29418 0.12855 1.14996
 H354 H 0.29026 0.15890 1.11694
 H355 H 0.29128 0.11658 1.15845
 N356 N 0.34632 0.19150 1.14012
 N357 N 0.35917 0.19146 1.15309
 C358 C 0.37073 0.20577 1.15014
 C359 C 0.36494 0.21535 1.13453
 C360 C 0.34939 0.20584 1.12858
 H361 H 0.38253 0.20891 1.15875
 H362 H 0.34093 0.20904 1.11667
 H363 H 0.33235 0.17280 1.16685
 H364 H 0.34748 0.15831 1.15170
 N365 N 0.85942 0.65329 1.19157
 N366 N 0.84660 0.64041 1.19137
 C367 C 0.84956 0.62868 1.20559
 C368 C 0.86509 0.63451 1.21526
 C369 C 0.87092 0.65021 1.20589
 H370 H 0.84111 0.61671 1.20856
 H371 H 0.88267 0.65883 1.20917
 Cu372 Cu 0.82745 0.64030 1.17239
 Cu373 Cu 0.86051 0.67294 1.17311
 Cu374 Cu 0.82660 0.67288 1.13914
 N375 N 0.80842 0.64043 1.15332
 N376 N 0.80818 0.65324 1.14038
 C377 C 0.79383 0.65014 1.12894
 C378 C 0.78447 0.63449 1.13495
 C379 C 0.79419 0.62873 1.15051
 H380 H 0.79055 0.65867 1.11709
 H381 H 0.79123 0.61687 1.15912
 N382 N 0.84643 0.69157 1.14028
 N383 N 0.85929 0.69161 1.15324
 C384 C 0.87084 0.70590 1.15019
 C385 C 0.86505 0.71538 1.13452
 C386 C 0.84948 0.70584 1.12865
 H387 H 0.88265 0.70910 1.15877
 H388 H 0.84102 0.70895 1.11672
 H389 H 0.83255 0.67323 1.16711
 H390 H 0.84752 0.65837 1.15217
 N391 N 0.85904 0.15328 0.69141
 N392 N 0.84569 0.14098 0.69169
 C393 C 0.84851 0.12928 0.70597
 C394 C 0.86450 0.13456 0.71520
 C395 C 0.87077 0.14989 0.70548
 H396 H 0.83955 0.11782 0.70940
 H397 H 0.88303 0.15795 0.70829
 Cu398 Cu 0.82594 0.14128 0.67332
 Cu399 Cu 0.86032 0.17277 0.67285
 Cu400 Cu 0.82647 0.17303 0.63898
 N401 N 0.80757 0.14124 0.65356
 N402 N 0.80786 0.15362 0.64023
 C403 C 0.79378 0.15034 0.62849
 C404 C 0.78406 0.13501 0.63474
 C405 C 0.79329 0.12961 0.65071
 H406 H 0.79097 0.15848 0.61625
 H407 H 0.78989 0.11811 0.65965
 N408 N 0.84645 0.19153 0.64005
 N409 N 0.85935 0.19142 0.65296
 C410 C 0.87103 0.20561 0.64992
 C411 C 0.86525 0.21520 0.63431
 C412 C 0.84958 0.20582 0.62846
 H413 H 0.88291 0.20866 0.65844
 H414 H 0.84105 0.20910 0.61663
 H415 H 0.83232 0.17386 0.66695
 H416 H 0.84665 0.15789 0.65247
 N417 N 1.34679 0.35936 0.69146
 N418 N 1.35956 0.34643 0.69130
 C419 C 1.37129 0.34935 0.70551
 C420 C 1.36557 0.36498 0.71512
 C421 C 1.34993 0.37092 0.70571
 H422 H 1.38316 0.34078 0.70853
 H423 H 1.34141 0.38278 0.70891
 Cu424 Cu 1.35969 0.32726 0.67230
 Cu425 Cu 1.32710 0.36046 0.67311
 Cu426 Cu 1.32713 0.32667 0.63902
 N427 N 1.35945 0.30827 0.65312
 N428 N 1.34675 0.30823 0.64013
 C429 C 1.34982 0.29397 0.62855
 C430 C 1.36539 0.28438 0.63454
 C431 C 1.37108 0.29397 0.65025
 H432 H 1.34129 0.29096 0.61665
 H433 H 1.38282 0.29090 0.65897
 N434 N 1.30843 0.34648 0.64030
 N435 N 1.30835 0.35926 0.65334
 C436 C 1.29398 0.37077 0.65046
 C437 C 1.28450 0.36502 0.63480
 C438 C 1.29411 0.34955 0.62876
 H439 H 1.29073 0.38250 0.65913
 H440 H 1.29102 0.34116 0.61677
 H441 H 1.32680 0.33249 0.66703
 H442 H 1.34169 0.34750 0.65213
 N443 N 1.34693 0.85942 1.19172
 N444 N 1.35946 0.84627 1.19184
 C445 C 1.37115 0.84917 1.20608
 C446 C 1.36564 0.86505 1.21551
 C447 C 1.35015 0.87112 1.20585
 H448 H 1.38278 0.84035 1.20925
 H449 H 1.34174 0.88313 1.20876
 Cu450 Cu 1.35934 0.82662 1.17333
 Cu451 Cu 1.32739 0.86057 1.17324
 Cu452 Cu 1.32741 0.82667 1.13934
 N453 N 1.35941 0.80802 1.15378
 N454 N 1.34692 0.80815 1.14058
 C455 C 1.35013 0.79397 1.12894
 C456 C 1.36556 0.78428 1.13508
 C457 C 1.37104 0.79372 1.15096
 H458 H 1.34175 0.79106 1.11690
 H459 H 1.38264 0.79054 1.15984
 N460 N 1.30880 0.84656 1.14042
 N461 N 1.30876 0.85943 1.15337
 C462 C 1.29448 0.87101 1.15036
 C463 C 1.28500 0.86521 1.13472
 C464 C 1.29453 0.84963 1.12882
 H465 H 1.29127 0.88281 1.15896
 H466 H 1.29140 0.84115 1.11691
 H467 H 1.32667 0.83259 1.16733
 H468 H 1.34225 0.84718 1.15271
 N469 N 0.84711 0.35989 1.19181
 N470 N 0.86006 0.34715 1.19148
 C471 C 0.87177 0.35003 1.20570
 C472 C 0.86588 0.36550 1.21556
 C473 C 0.85011 0.37132 1.20621
 H474 H 0.88370 0.34150 1.20854
 H475 H 0.84138 0.38301 1.20948
 Cu476 Cu 0.86039 0.32815 1.17234
 Cu477 Cu 0.82737 0.36092 1.17349
 Cu478 Cu 0.82734 0.32691 1.13962
 N479 N 0.86000 0.30890 1.15345
 N480 N 0.84702 0.30854 1.14073
 C481 C 0.84997 0.29408 1.12937
 C482 C 0.86570 0.28478 1.13520
 C483 C 0.87168 0.29464 1.15058
 H484 H 0.84126 0.29070 1.11769
 H485 H 0.88367 0.29175 1.15903
 N486 N 0.80861 0.34670 1.14084
 N487 N 0.80860 0.35962 1.15375
 C488 C 0.79426 0.37114 1.15076
 C489 C 0.78473 0.36526 1.13518
 C490 C 0.79427 0.34968 1.12930
 H491 H 0.79107 0.38299 1.15931
 H492 H 0.79113 0.34116 1.11742
 H493 H 0.82738 0.33296 1.16761
 H494 H 0.84180 0.34808 1.15237
 N495 N 0.84642 0.85962 0.69134
 N496 N 0.85927 0.84677 0.69108
 C497 C 0.87098 0.84964 0.70531
 C498 C 0.86521 0.86519 0.71502
 C499 C 0.84952 0.87111 0.70567
 H500 H 0.88291 0.84113 0.70823
 H501 H 0.84097 0.88293 0.70894
 Cu502 Cu 0.85951 0.82780 0.67193
 Cu503 Cu 0.82680 0.86080 0.67289
 Cu504 Cu 0.82683 0.82695 0.63882
 N505 N 0.85922 0.80865 0.65295
 N506 N 0.84643 0.80847 0.64003
 C507 C 0.84950 0.79411 0.62856
 C508 C 0.86509 0.78467 0.63459
 C509 C 0.87084 0.79434 0.65017
 H510 H 0.84101 0.79091 0.61668
 H511 H 0.88265 0.79130 0.65880
 N512 N 0.80815 0.84683 0.64003
 N513 N 0.80811 0.85966 0.65303
 C514 C 0.79374 0.87115 0.65014
 C515 C 0.78421 0.86536 0.63451
 C516 C 0.79380 0.84984 0.62852
 H517 H 0.79048 0.88288 0.65881
 H518 H 0.79062 0.84136 0.61662
 H519 H 0.82659 0.83282 0.66679
 H520 H 0.84130 0.84788 0.65180
 N521 N 0.65351 0.64027 0.69135
 N522 N 0.64075 0.65322 0.69124
 C523 C 0.62908 0.65033 0.70551
 C524 C 0.63483 0.63469 0.71511
 C525 C 0.65042 0.62873 0.70565
 H526 H 0.61726 0.65893 0.70859
 H527 H 0.65893 0.61685 0.70881
 Cu528 Cu 0.64054 0.67243 0.67229
 Cu529 Cu 0.67309 0.63916 0.67288
 Cu530 Cu 0.67309 0.67318 0.63899
 N531 N 0.64072 0.69145 0.65315
 N532 N 0.65348 0.69163 0.64018
 C533 C 0.65038 0.70598 0.62871
 C534 C 0.63479 0.71542 0.63474
 C535 C 0.62906 0.70573 0.65035
 H536 H 0.65886 0.70919 0.61681
 H537 H 0.61728 0.70879 0.65902
 N538 N 0.69178 0.65332 0.64012
 N539 N 0.69177 0.64037 0.65302
 C540 C 0.70608 0.62883 0.64999
 C541 C 0.71564 0.63474 0.63442
 C542 C 0.70611 0.65035 0.62857
 H543 H 0.70923 0.61692 0.65849
 H544 H 0.70932 0.65894 0.61674
 H545 H 0.67342 0.66714 0.66698
 H546 H 0.65852 0.65228 0.65201
 N547 N 0.65324 1.14004 1.19181
 N548 N 0.64037 1.15287 1.19157
 C549 C 0.62872 1.15004 1.20586
 C550 C 0.63456 1.13452 1.21567
 C551 C 0.65025 1.12861 1.20623
 H552 H 0.61685 1.15864 1.20877
 H553 H 0.65892 1.11686 1.20945
 Cu554 Cu 0.64002 1.17188 1.17242
 Cu555 Cu 0.67291 1.13900 1.17339
 Cu556 Cu 0.67296 1.17316 1.13959
 N557 N 0.64030 1.19110 1.15349
 N558 N 0.65325 1.19151 1.14073
 C559 C 0.65025 1.20599 1.12939
 C560 C 0.63450 1.21524 1.13529
 C561 C 0.62857 1.20532 1.15066
 H562 H 0.65891 1.20941 1.11769
 H563 H 0.61661 1.20818 1.15915
 N564 N 0.69171 1.15337 1.14076
 N565 N 0.69165 1.14033 1.15357
 C566 C 0.70596 1.12879 1.15050
 C567 C 0.71554 1.13480 1.13498
 C568 C 0.70606 1.15047 1.12923
 H569 H 0.70906 1.11682 1.15891
 H570 H 0.70931 1.15914 1.11747
 H571 H 0.67302 1.16701 1.16755
 H572 H 0.65851 1.15202 1.15231
 N573 N 0.15285 0.64039 1.19139
 N574 N 0.13991 0.65314 1.19110
 C575 C 0.12824 0.65023 1.20537
 C576 C 0.13415 0.63475 1.21520
 C577 C 0.14989 0.62894 1.20579
 H578 H 0.11632 0.65877 1.20826
 H579 H 0.15863 0.61724 1.20902
 Cu580 Cu 0.13956 0.67217 1.17196
 Cu581 Cu 0.17255 0.63939 1.17301
 Cu582 Cu 0.17256 0.67348 1.13916
 N583 N 0.13988 0.69143 1.15305
 N584 N 0.15284 0.69183 1.14029
 C585 C 0.14986 0.70631 1.12895
 C586 C 0.13411 0.71566 1.13484
 C587 C 0.12819 0.70569 1.15025
 H588 H 0.15859 0.70965 1.11727
 H589 H 0.11627 0.70849 1.15881
 N590 N 0.19133 0.65370 1.14036
 N591 N 0.19131 0.64073 1.15323
 C592 C 0.20565 0.62922 1.15024
 C593 C 0.21523 0.63517 1.13469
 C594 C 0.20570 0.65077 1.12884
 H595 H 0.20878 0.61730 1.15871
 H596 H 0.20891 0.65938 1.11703
 H597 H 0.17256 0.66738 1.16711
 H598 H 0.15812 0.65231 1.15189
 N599 N 0.15271 1.14054 0.69153
 N600 N 0.13978 1.15331 0.69120
 C601 C 0.12811 1.15048 0.70548
 C602 C 0.13400 1.13503 0.71537
 C603 C 0.14974 1.12916 0.70598
 H604 H 0.11620 1.15904 0.70834
 H605 H 0.15845 1.11746 0.70926
 Cu606 Cu 0.13943 1.17225 0.67199
 Cu607 Cu 0.17241 1.13945 0.67316
 Cu608 Cu 0.17246 1.17340 0.63919
 N609 N 0.13981 1.19145 0.65302
 N610 N 0.15277 1.19178 0.64027
 C611 C 0.14983 1.20623 0.62889
 C612 C 0.13409 1.21562 0.63474
 C613 C 0.12816 1.20573 0.65019
 H614 H 0.15857 1.20951 0.61720
 H615 H 0.11625 1.20859 0.65875
 N616 N 0.19119 1.15360 0.64045
 N617 N 0.19116 1.14068 0.65337
 C618 C 0.20550 1.12914 0.65041
 C619 C 0.21508 1.13504 0.63485
 C620 C 0.20555 1.15062 0.62894
 H621 H 0.20863 1.11726 0.65894
 H622 H 0.20877 1.15918 0.61710
 H623 H 0.17242 1.16742 0.66717
 H624 H 0.15797 1.15230 0.65200
 N625 N 1.34676 0.64121 0.30876
 N626 N 1.35925 0.65439 0.30860
 C627 C 1.37099 0.65143 0.29439
 C628 C 1.36553 0.63554 0.28506
 C629 C 1.35005 0.62948 0.29466
 H630 H 1.38264 0.66019 0.29113
 H631 H 1.34175 0.61741 0.29170
 Cu632 Cu 1.35905 0.67414 0.32699
 Cu633 Cu 1.32724 0.64008 0.32727
 Cu634 Cu 1.32726 0.67390 0.36123
 N635 N 1.35913 0.69263 0.34663
 N636 N 1.34674 0.69244 0.35994
 C637 C 1.35004 0.70656 0.37162
 C638 C 1.36544 0.71626 0.36539
 C639 C 1.37080 0.70688 0.34943
 H640 H 1.34177 0.70942 0.38375
 H641 H 1.38236 0.71006 0.34050
 N642 N 1.30865 0.65401 0.36015
 N643 N 1.30862 0.64120 0.34714
 C644 C 1.29431 0.62965 0.35008
 C645 C 1.28484 0.63536 0.36578
 C646 C 1.29436 0.65092 0.37174
 H647 H 1.29107 0.61794 0.34138
 H648 H 1.29118 0.65940 0.38365
 H649 H 1.32644 0.66810 0.33331
 H650 H 1.34221 0.65354 0.34778
 N651 N 1.34506 1.14209 0.80731
 N652 N 1.35895 1.15375 0.80860
 C653 C 1.37121 1.15005 0.79502
 C654 C 1.36465 1.13530 0.78461
 C655 C 1.34797 1.13066 0.79291
 H656 H 1.38398 1.15750 0.79294
 H657 H 1.33850 1.11989 0.78871
 Cu658 Cu 1.35932 1.17260 0.82787
 Cu659 Cu 1.32393 1.14298 0.82410
 Cu660 Cu 1.32712 1.17323 0.86138
 N661 N 1.35951 1.19150 0.84707
 N662 N 1.34698 1.19147 0.86029
 C663 C 1.35028 1.20561 0.87191
 C664 C 1.36577 1.21513 0.86577
 C665 C 1.37123 1.20571 0.84992
 H666 H 1.34197 1.20868 0.88397
 H667 H 1.38286 1.20892 0.84109
 N668 N 1.30799 1.15388 0.85953
 N669 N 1.30663 1.14256 0.84524
 C670 C 1.29222 1.13109 0.84800
 C671 C 1.28399 1.13542 0.86481
 C672 C 1.29442 1.14996 0.87169
 H673 H 1.28805 1.12039 0.83843
 H674 H 1.29236 1.15714 0.88466
 H675 H 1.32610 1.17024 0.83341
 H676 H 1.33969 1.15225 0.84605
 N677 N 0.84645 0.64058 0.80832
 N678 N 0.85888 0.65382 0.80809
 C679 C 0.87058 0.65090 0.79385
 C680 C 0.86518 0.63496 0.78457
 C681 C 0.84977 0.62883 0.79424
 H682 H 0.88217 0.65972 0.79054
 H683 H 0.84155 0.61669 0.79136
 Cu684 Cu 0.85874 0.67353 0.82651
 Cu685 Cu 0.82700 0.63940 0.82691
 Cu686 Cu 0.82708 0.67322 0.86086
 N687 N 0.85886 0.69200 0.84617
 N688 N 0.84653 0.69177 0.85953
 C689 C 0.84986 0.70589 0.87121
 C690 C 0.86518 0.71558 0.86490
 C691 C 0.87050 0.70629 0.84893
 H692 H 0.84175 0.70876 0.88345
 H693 H 0.88198 0.70964 0.83996
 N694 N 0.80850 0.65331 0.85985
 N695 N 0.80844 0.64048 0.84686
 C696 C 0.79416 0.62892 0.84987
 C697 C 0.78470 0.63467 0.86556
 C698 C 0.79425 0.65023 0.87148
 H699 H 0.79093 0.61716 0.84123
 H700 H 0.79113 0.65869 0.88342
 H701 H 0.82615 0.66740 0.83289
 H702 H 0.84199 0.65288 0.84732
 N703 N 0.84660 1.14039 0.30860
 N704 N 0.85923 1.15344 0.30855
 C705 C 0.87105 1.15038 0.29444
 C706 C 0.86545 1.13462 0.28499
 C707 C 0.84984 1.12870 0.29445
 H708 H 0.88275 1.15910 0.29123
 H709 H 0.84139 1.11677 0.29134
 Cu710 Cu 0.85901 1.17340 0.32667
 Cu711 Cu 0.82708 1.13936 0.32710
 Cu712 Cu 0.82711 1.17329 0.36090
 N713 N 0.85920 1.19170 0.34647
 N714 N 0.84664 1.19175 0.35962
 C715 C 0.84994 1.20596 0.37121
 C716 C 0.86553 1.21534 0.36510
 C717 C 0.87102 1.20580 0.34935
 H718 H 0.84159 1.20914 0.38321
 H719 H 0.88267 1.20894 0.34051
 N720 N 0.80847 1.15342 0.35989
 N721 N 0.80844 1.14053 0.34696
 C722 C 0.79425 1.12888 0.35010
 C723 C 0.78483 1.13465 0.36581
 C724 C 0.79430 1.15030 0.37161
 H725 H 0.79113 1.11698 0.34160
 H726 H 0.79126 1.15873 0.38359
 H727 H 0.82626 1.16747 0.33287
 H728 H 0.84201 1.15296 0.34744
 N729 N 0.65318 0.35969 0.30886
 N730 N 0.64026 0.34694 0.30914
 C731 C 0.62861 0.34982 0.29486
 C732 C 0.63452 0.36530 0.28501
 C733 C 0.65023 0.37112 0.29444
 H734 H 0.61671 0.34128 0.29196
 H735 H 0.65896 0.38281 0.29119
 Cu736 Cu 0.63990 0.32791 0.32828
 Cu737 Cu 0.67287 0.36069 0.32724
 Cu738 Cu 0.67284 0.32657 0.36107
 N739 N 0.64020 0.30865 0.34720
 N740 N 0.65313 0.30824 0.35996
 C741 C 0.65013 0.29377 0.37131
 C742 C 0.63437 0.28446 0.36542
 C743 C 0.62849 0.29442 0.35000
 H744 H 0.65883 0.29042 0.38300
 H745 H 0.61658 0.29164 0.34143
 N746 N 0.69161 0.34633 0.35989
 N747 N 0.69160 0.35932 0.34704
 C748 C 0.70595 0.37081 0.35007
 C749 C 0.71550 0.36481 0.36561
 C750 C 0.70595 0.34921 0.37142
 H751 H 0.70910 0.38273 0.34161
 H752 H 0.70914 0.34058 0.38322
 H753 H 0.67290 0.33274 0.33309
 H754 H 0.65843 0.34781 0.34831
 N755 N 0.65344 0.85941 0.80838
 N756 N 0.64108 0.84610 0.80815
 C757 C 0.62941 0.84896 0.79388
 C758 C 0.63476 0.86492 0.78461
 C759 C 0.65011 0.87113 0.79428
 H760 H 0.61790 0.84005 0.79051
 H761 H 0.65821 0.88337 0.79143
 Cu762 Cu 0.64122 0.82642 0.82662
 Cu763 Cu 0.67284 0.86070 0.82698
 Cu764 Cu 0.67285 0.82686 0.86095
 N765 N 0.64108 0.80801 0.84636
 N766 N 0.65344 0.80826 0.85969
 C767 C 0.65014 0.79415 0.87141
 C768 C 0.63481 0.78445 0.86516
 C769 C 0.62945 0.79373 0.84919
 H770 H 0.65826 0.79129 0.88364
 H771 H 0.61796 0.79035 0.84025
 N772 N 0.69137 0.84683 0.85990
 N773 N 0.69135 0.85971 0.84695
 C774 C 0.70558 0.87134 0.84996
 C775 C 0.71509 0.86555 0.86561
 C776 C 0.70562 0.84993 0.87150
 H777 H 0.70875 0.88315 0.84135
 H778 H 0.70881 0.84142 0.88340
 H779 H 0.67378 0.83273 0.83293
 H780 H 0.65787 0.84718 0.84736
 N781 N 0.15334 0.35923 0.80895
 N782 N 0.14036 0.34652 0.80928
 C783 C 0.12870 0.34943 0.79501
 C784 C 0.13468 0.36482 0.78516
 C785 C 0.15040 0.37063 0.79450
 H786 H 0.11672 0.34100 0.79209
 H787 H 0.15909 0.38231 0.79115
 Cu788 Cu 0.13994 0.32757 0.82848
 Cu789 Cu 0.17297 0.36028 0.82738
 Cu790 Cu 0.17285 0.32634 0.86137
 N791 N 0.14024 0.30838 0.84743
 N792 N 0.15314 0.30799 0.86022
 C793 C 0.15012 0.29354 0.87159
 C794 C 0.13438 0.28422 0.86567
 C795 C 0.12853 0.29415 0.85022
 H796 H 0.15879 0.29022 0.88331
 H797 H 0.11664 0.29135 0.84163
 N798 N 0.19161 0.34611 0.86017
 N799 N 0.19164 0.35902 0.84723
 C800 C 0.20596 0.37053 0.85023
 C801 C 0.21549 0.36464 0.86583
 C802 C 0.20593 0.34908 0.87172
 H803 H 0.20912 0.38240 0.84170
 H804 H 0.20909 0.34053 0.88359
 H805 H 0.17294 0.33230 0.83338
 H806 H 0.15846 0.34746 0.84851
 N807 N 0.15331 0.85942 0.30881
 N808 N 0.14026 0.84679 0.30923
 C809 C 0.12854 0.84976 0.29503
 C810 C 0.13457 0.86509 0.28512
 C811 C 0.15038 0.87081 0.29435
 H812 H 0.11646 0.84144 0.29221
 H813 H 0.15917 0.88239 0.29088
 Cu814 Cu 0.13990 0.82779 0.32840
 Cu815 Cu 0.17300 0.86040 0.32719
 Cu816 Cu 0.17284 0.82645 0.36121
 N817 N 0.14015 0.80859 0.34735
 N818 N 0.15308 0.80814 0.36011
 C819 C 0.15007 0.79365 0.37144
 C820 C 0.13429 0.78437 0.36554
 C821 C 0.12843 0.79437 0.35013
 H822 H 0.15880 0.79025 0.38310
 H823 H 0.11651 0.79162 0.34156
 N824 N 0.19165 0.84618 0.35996
 N825 N 0.19171 0.85906 0.34700
 C826 C 0.20603 0.87058 0.34999
 C827 C 0.21551 0.86472 0.36563
 C828 C 0.20594 0.84917 0.37154
 H829 H 0.20924 0.88240 0.34142
 H830 H 0.20905 0.84069 0.38347
 H831 H 0.17294 0.83245 0.33322
 H832 H 0.15853 0.84766 0.34836
 O833 O 0.98219 0.93319 0.90763
 O834 O 0.98227 0.91159 0.88605
 C835 C 0.97588 0.92662 0.89258
 C836 C 0.96054 0.93623 0.88295
 C837 C 0.95344 0.92920 0.86626
 H838 H 0.95986 0.91723 0.85991
 O839 O 1.01824 1.06714 0.90745
 O840 O 1.01819 1.08871 0.88582
 C841 C 1.02460 1.07371 0.89241
 C842 C 1.03998 1.06408 0.88284
 C843 C 1.04720 1.07107 0.86615
 H844 H 1.04114 1.08332 0.85997
 O845 O 0.90789 0.98189 0.93275
 O846 O 0.88638 0.98189 0.91110
 C847 C 0.89289 0.97554 0.92618
 C848 C 0.88327 0.96023 0.93588
 C849 C 0.86663 0.95301 0.92889
 H850 H 0.86050 0.95903 0.91658
 O851 O 1.09210 1.01821 0.93288
 O852 O 1.11376 1.01814 0.91135
 C853 C 1.10716 1.02451 0.92637
 C854 C 1.11675 1.03980 0.93608
 C855 C 1.13343 1.04698 0.92913
 H856 H 1.13960 1.04094 0.91685
 O857 O 0.93308 0.90799 0.98167
 O858 O 0.91157 0.88636 0.98165
 C859 C 0.92655 0.89298 0.97526
 C860 C 0.93616 0.88345 0.95984
 C861 C 0.92919 0.86679 0.95267
 H862 H 0.91722 0.86041 0.95904
 O863 O 1.06681 1.09211 0.98165
 O864 O 1.08836 1.11370 0.98172
 C865 C 1.07338 1.10713 0.97529
 C866 C 1.06381 1.11674 0.95989
 C867 C 1.07082 1.13340 0.95273
 H868 H 1.08280 1.13974 0.95912
 O869 O 0.93342 1.01798 0.90749
 O870 O 0.91197 1.01801 0.88577
 C871 C 0.92696 1.02435 0.89241
 C872 C 0.93663 1.03970 0.88284
 C873 C 0.92972 1.04686 0.86610
 H874 H 0.91754 1.04074 0.85989
 O875 O 1.06673 0.98211 0.90756
 O876 O 1.08834 0.98203 0.88599
 C877 C 1.07332 0.97568 0.89257
 C878 C 1.06379 0.96024 0.88305
 C879 C 1.07082 0.95309 0.86639
 H880 H 1.08273 0.95954 0.85996
 O881 O 1.01816 0.90784 0.93323
 O882 O 1.01826 0.88618 0.91170
 C883 C 1.02455 0.89279 0.92675
 C884 C 1.03988 0.88324 0.93648
 C885 C 1.04716 0.86661 0.92949
 H886 H 1.04116 0.86045 0.91720
 O887 O 0.98198 1.09228 0.93287
 O888 O 0.98190 1.11393 0.91131
 C889 C 0.97554 1.10729 0.92633
 C890 C 0.96011 1.11676 0.93597
 C891 C 0.95286 1.13342 0.92899
 H892 H 0.95894 1.13965 0.91676
 O893 O 0.90767 1.06674 0.98168
 O894 O 0.88605 1.08829 0.98163
 C895 C 0.89266 1.07328 0.97526
 C896 C 0.88317 1.06365 0.95983
 C897 C 0.86652 1.07061 0.95257
 H898 H 0.86029 1.08281 0.95868
 O899 O 1.09200 0.93335 0.98220
 O900 O 1.11361 0.91179 0.98210
 C901 C 1.10700 0.92682 0.97576
 C902 C 1.11651 0.93647 0.96033
 C903 C 1.13322 0.92955 0.95322
 H904 H 1.13965 0.91762 0.95966
 O905 O 0.98213 1.06690 0.90755
 O906 O 0.98203 1.08848 0.88592
 C907 C 0.97574 1.07342 0.89251
 C908 C 0.96044 1.06372 0.88292
 C909 C 0.95331 1.07067 0.86619
 H910 H 0.95966 1.08265 0.85979
 O911 O 1.01830 0.93303 0.90767
 O912 O 1.01841 0.91144 0.88608
 C913 C 1.02472 0.92647 0.89265
 C914 C 1.04006 0.93615 0.88308
 C915 C 1.04732 0.92919 0.86640
 H916 H 1.04135 0.91690 0.86024
 O917 O 1.09192 0.98208 0.93303
 O918 O 1.11359 0.98200 0.91151
 C919 C 1.10696 0.97568 0.92655
 C920 C 1.11652 0.96036 0.93630
 C921 C 1.13325 0.95323 0.92941
 H922 H 1.13944 0.95931 0.91717
 O923 O 0.90798 1.01804 0.93275
 O924 O 0.88647 1.01808 0.91109
 C925 C 0.89300 1.02444 0.92615
 C926 C 0.88340 1.03981 0.93578
 C927 C 0.86676 1.04698 0.92873
 H928 H 0.86045 1.04062 0.91671
 O929 O 0.93305 1.09200 0.98167
 O930 O 0.91148 1.11360 0.98163
 C931 C 0.92650 1.10702 0.97527
 C932 C 0.93612 1.11659 0.95987
 C933 C 0.92908 1.13324 0.95268
 H934 H 0.91709 1.13959 0.95905
 O935 O 1.06682 0.90790 0.98226
 O936 O 1.08838 0.88630 0.98218
 C937 C 1.07336 0.89289 0.97585
 C938 C 1.06375 0.88333 0.96046
 C939 C 1.07081 0.86670 0.95326
 H940 H 1.08279 0.86034 0.95964
 O941 O 1.06682 1.01830 0.90748
 O942 O 1.08843 1.01825 0.88590
 C943 C 1.07343 1.02467 0.89245
 C944 C 1.06388 1.04012 0.88288
 C945 C 1.07090 1.04731 0.86621
 H946 H 1.08286 1.04092 0.85981
 O947 O 0.93331 0.98181 0.90744
 O948 O 0.91186 0.98182 0.88573
 C949 C 0.92684 0.97545 0.89237
 C950 C 0.93655 0.96010 0.88281
 C951 C 0.92965 0.95286 0.86611
 H952 H 0.91741 0.95888 0.85989
 O953 O 1.01812 1.09238 0.93289
 O954 O 1.01809 1.11402 0.91132
 C955 C 1.02447 1.10742 0.92634
 C956 C 1.03985 1.11693 0.93599
 C957 C 1.04708 1.13359 0.92902
 H958 H 1.04101 1.13982 0.91679
 O959 O 0.98201 0.90781 0.93295
 O960 O 0.98209 0.88615 0.91142
 C961 C 0.97564 0.89280 0.92639
 C962 C 0.96018 0.88332 0.93597
 C963 C 0.95300 0.86664 0.92901
 H964 H 0.95912 0.86042 0.91680
 O965 O 1.09211 1.06674 0.98183
 O966 O 1.11371 1.08828 0.98187
 C967 C 1.10714 1.07327 0.97549
 C968 C 1.11673 1.06364 0.96010
 C969 C 1.13339 1.07062 0.95295
 H970 H 1.13979 1.08256 0.95937
 O971 O 0.90777 0.93334 0.98176
 O972 O 0.88622 0.91176 0.98174
 C973 C 0.89278 0.92679 0.97538
 C974 C 0.88324 0.93639 0.95995
 C975 C 0.86661 0.92940 0.95278
 H976 H 0.86020 0.91747 0.95922
 Cu977 Cu 1.00017 0.92263 0.92254
 Cu978 Cu 1.00028 0.89666 0.89665
 Cu979 Cu 1.00013 1.07752 0.92236
 Cu980 Cu 1.00004 1.10346 0.89643
 Cu981 Cu 0.92280 0.99991 0.92228
 Cu982 Cu 0.89702 0.99996 0.89625
 Cu983 Cu 1.07721 1.00020 0.92239
 Cu984 Cu 1.10319 1.00009 0.89651
 C985 C 0.95211 0.95179 0.89101
 H986 H 0.95732 0.95709 0.90404
 C987 C 0.93795 0.93735 0.85779
 C988 C 1.04833 1.04851 0.89099
 H989 H 1.04305 1.04326 0.90403
 C990 C 1.06270 1.06283 0.85779
 C991 C 0.89136 0.95192 0.95152
 H992 H 0.90436 0.95719 0.95678
 C993 C 0.85825 0.93754 0.93719
 C994 C 1.10861 1.04812 0.95168
 H995 H 1.09559 1.04287 0.95691
 C996 C 1.14179 1.06245 0.93740
 C997 C 0.95174 0.89154 0.95147
 H998 H 0.95697 0.90457 0.95670
 C999 C 0.93745 0.85833 0.93721
 C1000 C 1.04822 1.10871 0.95152
 H1001 H 1.04294 1.09569 0.95676
 C1002 C 1.06262 1.14188 0.93724
 C1003 C 0.95211 1.04814 0.89104
 H1004 H 0.95731 1.04291 0.90412
 C1005 C 0.93790 1.06239 0.85774
 C1006 C 1.04830 0.95178 0.89120
 H1007 H 1.04301 0.95702 0.90423
 C1008 C 1.06276 0.93751 0.85802
 C1009 C 1.04816 0.89139 0.95209
 H1010 H 1.04283 0.90438 0.95736
 C1011 C 1.06267 0.85830 0.93773
 C1012 C 0.95173 1.10855 0.95151
 H1013 H 0.95704 1.09554 0.95678
 C1014 C 0.93730 1.14171 0.93720
 C1015 C 0.89140 1.04815 0.95143
 H1016 H 0.90440 1.04290 0.95673
 C1017 C 0.85827 1.06244 0.93696
 C1018 C 1.10834 0.95198 0.95186
 H1019 H 1.09527 0.95718 0.95705
 C1020 C 1.14163 0.93775 0.93770
 O1021 O 1.01791 0.93309 1.09230
 O1022 O 1.01787 0.91151 1.11393
 C1023 C 1.02425 0.92652 1.10735
 C1024 C 1.03961 0.93612 1.11694
 C1025 C 1.04668 0.92914 1.13366
 H1026 H 1.04022 0.91722 1.14008
 O1027 O 0.98179 1.06663 1.09194
 O1028 O 0.98180 1.08817 1.11359
 C1029 C 0.97546 1.07315 1.10701
 C1030 C 0.96016 1.06350 1.11666
 C1031 C 0.95311 1.07047 1.13339
 H1032 H 0.95955 1.08242 1.13976
 O1033 O 0.90775 1.01797 1.06682
 O1034 O 0.88617 1.01803 1.08843
 C1035 C 0.89275 1.02438 1.07338
 C1036 C 0.88322 1.03978 1.06374
 C1037 C 0.86662 1.04702 1.07080
 H1038 H 0.86026 1.04069 1.08282
 O1039 O 1.09232 0.98170 1.06709
 O1040 O 1.11384 0.98177 1.08874
 C1041 C 1.10734 0.97539 1.07369
 C1042 C 1.11696 0.96005 1.06406
 C1043 C 1.13357 0.95279 1.07110
 H1044 H 1.13971 0.95884 1.08337
 O1045 O 1.06686 0.90788 1.01847
 O1046 O 1.08842 0.88627 1.01839
 C1047 C 1.07342 0.89284 1.02481
 C1048 C 1.06381 0.88323 1.04020
 C1049 C 1.07079 0.86654 1.04736
 H1050 H 1.08277 0.86017 1.04098
 O1051 O 0.93293 1.09209 1.01790
 O1052 O 0.91137 1.11370 1.01788
 C1053 C 0.92637 1.10711 1.02428
 C1054 C 0.93595 1.11665 1.03970
 C1055 C 0.92895 1.13330 1.04691
 H1056 H 0.91699 1.13970 1.04052
 O1057 O 0.93302 0.98178 1.09224
 O1058 O 0.91149 0.98182 1.11390
 C1059 C 0.92649 0.97544 1.10731
 C1060 C 0.93614 0.96009 1.11692
 C1061 C 0.92920 0.95294 1.13365
 H1062 H 0.91697 0.95904 1.13983
 O1063 O 1.06667 1.01776 1.09223
 O1064 O 1.08811 1.01785 1.11396
 C1065 C 1.07312 1.02417 1.10729
 C1066 C 1.06341 1.03953 1.11681
 C1067 C 1.07029 1.04668 1.13354
 H1068 H 1.08246 1.04054 1.13979
 O1069 O 0.98187 0.90776 1.06686
 O1070 O 0.98178 0.88613 1.08844
 C1071 C 0.97547 0.89273 1.07338
 C1072 C 0.96015 0.88320 1.06366
 C1073 C 0.95292 0.86653 1.07061
 H1074 H 0.95893 0.86032 1.08288
 O1075 O 1.01782 1.09208 1.06654
 O1076 O 1.01780 1.11367 1.08814
 C1077 C 1.02415 1.10712 1.07309
 C1078 C 1.03947 1.11672 1.06343
 C1079 C 1.04657 1.13340 1.07043
 H1080 H 1.04017 1.13978 1.08241
 O1081 O 0.90769 0.93314 1.01798
 O1082 O 0.88613 0.91156 1.01797
 C1083 C 0.89269 0.92657 1.02437
 C1084 C 0.88313 0.93618 1.03978
 C1085 C 0.86646 0.92923 1.04698
 H1086 H 0.86028 0.91701 1.04090
 O1087 O 1.09189 1.06676 1.01805
 O1088 O 1.11349 1.08829 1.01810
 C1089 C 1.10688 1.07329 1.02448
 C1090 C 1.11640 1.06367 1.03991
 C1091 C 1.13306 1.07063 1.04705
 H1092 H 1.13946 1.08258 1.04064
 O1093 O 1.01791 1.06673 1.09196
 O1094 O 1.01791 1.08828 1.11360
 C1095 C 1.02427 1.07325 1.10701
 C1096 C 1.03960 1.06358 1.11663
 C1097 C 1.04671 1.07053 1.13336
 H1098 H 1.04035 1.08252 1.13973
 O1099 O 0.98180 0.93302 1.09232
 O1100 O 0.98173 0.91144 1.11396
 C1101 C 0.97540 0.92648 1.10736
 C1102 C 0.96004 0.93613 1.11692
 C1103 C 0.95290 0.92920 1.13365
 H1104 H 0.95929 0.91725 1.14009
 O1105 O 1.09204 1.01785 1.06695
 O1106 O 1.11357 1.01796 1.08859
 C1107 C 1.10700 1.02430 1.07353
 C1108 C 1.11649 1.03970 1.06387
 C1109 C 1.13316 1.04689 1.07080
 H1110 H 1.13936 1.04080 1.08304
 O1111 O 0.90775 0.98181 1.06683
 O1112 O 0.88615 0.98183 1.08843
 C1113 C 0.89274 0.97545 1.07339
 C1114 C 0.88319 0.96009 1.06376
 C1115 C 0.86653 0.95295 1.07074
 H1116 H 0.86013 0.95935 1.08270
 O1117 O 1.06664 1.09218 1.01783
 O1118 O 1.08819 1.11378 1.01791
 C1119 C 1.07314 1.10722 1.02420
 C1120 C 1.06340 1.11681 1.03950
 C1121 C 1.07029 1.13351 1.04669
 H1122 H 1.08251 1.13971 1.04061
 O1123 O 0.93319 0.90796 1.01790
 O1124 O 0.91168 0.88633 1.01789
 C1125 C 0.92668 0.89292 1.02426
 C1126 C 0.93630 0.88332 1.03965
 C1127 C 0.92928 0.86667 1.04680
 H1128 H 0.91733 0.86031 1.04039
 O1129 O 1.06684 0.98161 1.09231
 O1130 O 1.08828 0.98167 1.11403
 C1131 C 1.07332 0.97527 1.10740
 C1132 C 1.06362 0.95993 1.11698
 C1133 C 1.07051 0.95272 1.13371
 H1134 H 1.08276 0.95872 1.13990
 O1135 O 0.93303 1.01792 1.09222
 O1136 O 0.91151 1.01798 1.11389
 C1137 C 0.92652 1.02430 1.10728
 C1138 C 0.93623 1.03962 1.11684
 C1139 C 0.92936 1.04682 1.13358
 H1140 H 0.91716 1.04076 1.13984
 O1141 O 0.98168 1.09210 1.06668
 O1142 O 0.98167 1.11369 1.08828
 C1143 C 0.97529 1.10711 1.07325
 C1144 C 0.95989 1.11667 1.06364
 C1145 C 0.95267 1.13332 1.07064
 H1146 H 0.95874 1.13948 1.08290
 O1147 O 1.01800 0.90764 1.06708
 O1148 O 1.01794 0.88600 1.08865
 C1149 C 1.02436 0.89260 1.07365
 C1150 C 1.03978 0.88307 1.06405
 C1151 C 1.04698 0.86639 1.07102
 H1152 H 1.04086 0.86017 1.08324
 O1153 O 1.09230 0.93310 1.01842
 O1154 O 1.11390 0.91153 1.01832
 C1155 C 1.10734 0.92653 1.02474
 C1156 C 1.11692 0.93612 1.04013
 C1157 C 1.13352 0.92906 1.04736
 H1158 H 1.13988 0.91706 1.04100
 O1159 O 0.90768 1.06672 1.01790
 O1160 O 0.88607 1.08827 1.01788
 C1161 C 0.89267 1.07327 1.02429
 C1162 C 0.88314 1.06367 1.03972
 C1163 C 0.86654 1.07071 1.04699
 H1164 H 0.86038 1.08297 1.04093
 Cu1165 Cu 0.99990 0.92253 1.07747
 Cu1166 Cu 0.99981 0.89660 1.10342
 Cu1167 Cu 0.99981 1.07723 1.07710
 Cu1168 Cu 0.99980 1.10311 1.10307
 Cu1169 Cu 0.92259 0.92278 0.99984
 Cu1170 Cu 0.89675 0.89683 0.99981
 Cu1171 Cu 1.07734 0.92273 1.00036
 Cu1172 Cu 1.10324 0.89681 1.00023
 Cu1173 Cu 0.92249 1.07722 0.99979
 Cu1174 Cu 0.89658 1.10313 0.99975
 Cu1175 Cu 1.07720 1.07728 0.99984
 Cu1176 Cu 1.10311 1.10317 0.99991
 Cu1177 Cu 0.92254 0.99987 1.07736
 Cu1178 Cu 0.89665 0.99991 1.10332
 Cu1179 Cu 1.07732 0.99971 1.07747
 Cu1180 Cu 1.10311 0.99983 1.10351
 C1181 C 1.04807 0.95162 1.10880
 H1182 H 1.04289 0.95688 1.09573
 C1183 C 1.06219 0.93726 1.14208
 C1184 C 0.95172 1.04797 1.10857
 H1185 H 0.95687 1.04275 1.09547
 C1186 C 0.93764 1.06233 1.14189
 C1187 C 0.89128 1.04810 1.04810
 H1188 H 0.90426 1.04280 1.04278
 C1189 C 0.85824 1.06254 1.06258
 C1190 C 1.10886 0.95172 1.04846
 H1191 H 1.09589 0.95704 1.04315
 C1192 C 1.14191 0.93725 1.06289
 C1193 C 1.04821 0.89129 1.04855
 H1194 H 1.04296 0.90434 1.04332
 C1195 C 1.06254 0.85807 1.06283
 C1196 C 0.95152 1.10853 1.04807
 H1197 H 0.95680 1.09553 1.04279
 C1198 C 0.93716 1.14170 1.06243
 C1199 C 0.95166 0.95168 1.10876
 H1200 H 0.95689 0.95690 1.09569
 C1201 C 0.93741 0.93743 1.14206
 C1202 C 1.04796 1.04798 1.10855
 H1203 H 1.04278 1.04275 1.09547
 C1204 C 1.06211 1.06223 1.14186
 C1205 C 0.95185 0.89139 1.04806
 H1206 H 0.95714 0.90440 1.04282
 C1207 C 0.93742 0.85822 1.06233
 C1208 C 1.04787 1.10863 1.04787
 H1209 H 1.04269 1.09558 1.04262
 C1210 C 1.06204 1.14184 1.06222
 C1211 C 0.89130 0.95170 1.04818
 H1212 H 0.90433 0.95691 1.04294
 C1213 C 0.85812 0.93746 1.06253
 C1214 C 1.10830 1.04810 1.04832
 H1215 H 1.09528 1.04286 1.04310
 C1216 C 1.14150 1.06240 1.06254
 O1217 O 1.06708 0.51826 0.59223
 O1218 O 1.08865 0.51837 0.61384
 C1219 C 1.07361 0.52468 0.60725
 C1220 C 1.06393 0.54003 0.61680
 C1221 C 1.07084 0.54720 0.63352
 H1222 H 1.08304 0.54110 0.63972
 O1223 O 0.93364 0.48171 0.59231
 O1224 O 0.91214 0.48168 0.61399
 C1225 C 0.92716 0.47535 0.60739
 C1226 C 0.93687 0.46004 0.61701
 C1227 C 0.92994 0.45287 0.63373
 H1228 H 0.91769 0.45894 0.63990
 O1229 O 1.01806 0.59223 0.56660
 O1230 O 1.01805 0.61387 0.58815
 C1231 C 1.02439 0.60728 0.57310
 C1232 C 1.03969 0.61686 0.56338
 C1233 C 1.04689 0.63353 0.57033
 H1234 H 1.04085 0.63972 0.58260
 O1235 O 0.98263 0.40782 0.56700
 O1236 O 0.98268 0.38620 0.58860
 C1237 C 0.97629 0.39278 0.57357
 C1238 C 0.96092 0.38321 0.56396
 C1239 C 0.95378 0.36655 0.57101
 H1240 H 0.96015 0.36019 0.58301
 O1241 O 1.09217 0.56690 0.51774
 O1242 O 1.11371 0.58850 0.51768
 C1243 C 1.10717 0.57348 0.52410
 C1244 C 1.11677 0.56389 0.53951
 C1245 C 1.13346 0.57087 0.54660
 H1246 H 1.13982 0.58282 0.54016
 O1247 O 0.90822 0.43279 0.51820
 O1248 O 0.88674 0.41113 0.51833
 C1249 C 0.89326 0.42619 0.52465
 C1250 C 0.88370 0.43585 0.54003
 C1251 C 0.86702 0.42892 0.54724
 H1252 H 0.86083 0.41670 0.54116
 O1253 O 0.98216 0.56670 0.59207
 O1254 O 0.98209 0.58828 0.61367
 C1255 C 0.97579 0.57323 0.60711
 C1256 C 0.96049 0.56356 0.61673
 C1257 C 0.95337 0.57055 0.63343
 H1258 H 0.95975 0.58252 0.63980
 O1259 O 1.01871 0.43317 0.59240
 O1260 O 1.01878 0.41160 0.61405
 C1261 C 1.02509 0.42664 0.60745
 C1262 C 1.04041 0.43634 0.61703
 C1263 C 1.04761 0.42940 0.63373
 H1264 H 1.04159 0.41714 0.63993
 O1265 O 1.09248 0.48213 0.56694
 O1266 O 1.11411 0.48218 0.58848
 C1267 C 1.10752 0.47579 0.57347
 C1268 C 1.11709 0.46045 0.56379
 C1269 C 1.13372 0.45321 0.57079
 H1270 H 1.13985 0.45920 0.58310
 O1271 O 0.90818 0.51777 0.56690
 O1272 O 0.88663 0.51778 0.58853
 C1273 C 0.89317 0.52414 0.57347
 C1274 C 0.88357 0.53949 0.56381
 C1275 C 0.86691 0.54664 0.57082
 H1276 H 0.86056 0.54028 0.58284
 O1277 O 0.93323 0.59196 0.51802
 O1278 O 0.91156 0.61347 0.51802
 C1279 C 0.92659 0.60695 0.52441
 C1280 C 0.93614 0.61652 0.53983
 C1281 C 0.92909 0.63317 0.54701
 H1282 H 0.91711 0.63953 0.54062
 O1283 O 1.06745 0.40806 0.51815
 O1284 O 1.08907 0.38651 0.51810
 C1285 C 1.07407 0.39305 0.52453
 C1286 C 1.06452 0.38345 0.53996
 C1287 C 1.07152 0.36675 0.54709
 H1288 H 1.08348 0.36038 0.54066
 O1289 O 0.93349 0.51786 0.59227
 O1290 O 0.91200 0.51785 0.61396
 C1291 C 0.92698 0.52424 0.60733
 C1292 C 0.93661 0.53961 0.61687
 C1293 C 0.92968 0.54683 0.63358
 H1294 H 0.91747 0.54076 0.63981
 O1295 O 1.06720 0.48210 0.59233
 O1296 O 1.08876 0.48217 0.61393
 C1297 C 1.07378 0.47575 0.60737
 C1298 C 1.06423 0.46034 0.61696
 C1299 C 1.07123 0.45320 0.63366
 H1300 H 1.08316 0.45962 0.64006
 O1301 O 1.01878 0.40783 0.56704
 O1302 O 1.01885 0.38620 0.58862
 C1303 C 1.02520 0.39281 0.57358
 C1304 C 1.04059 0.38330 0.56391
 C1305 C 1.04779 0.36660 0.57082
 H1306 H 1.04170 0.36037 0.58305
 O1307 O 0.98194 0.59215 0.56681
 O1308 O 0.98189 0.61380 0.58836
 C1309 C 0.97551 0.60716 0.57337
 C1310 C 0.96007 0.61665 0.56375
 C1311 C 0.95281 0.63330 0.57074
 H1312 H 0.95887 0.63949 0.58298
 O1313 O 0.90799 0.56657 0.51801
 O1314 O 0.88628 0.58802 0.51797
 C1315 C 0.89293 0.57304 0.52437
 C1316 C 0.88342 0.56337 0.53978
 C1317 C 0.86675 0.57031 0.54699
 H1318 H 0.86053 0.58252 0.54089
 O1319 O 1.09258 0.43355 0.51795
 O1320 O 1.11424 0.41205 0.51791
 C1321 C 1.10761 0.42704 0.52431
 C1322 C 1.11712 0.43663 0.53973
 C1323 C 1.13375 0.42961 0.54692
 H1324 H 1.14017 0.41767 0.54050
 O1325 O 0.98259 0.43310 0.59241
 O1326 O 0.98263 0.41154 0.61406
 C1327 C 0.97624 0.42655 0.60746
 C1328 C 0.96084 0.43615 0.61702
 C1329 C 0.95369 0.42919 0.63374
 H1330 H 0.96010 0.41724 0.64017
 O1331 O 1.01828 0.56700 0.59210
 O1332 O 1.01823 0.58857 0.61371
 C1333 C 1.02464 0.57357 0.60713
 C1334 C 1.04003 0.56398 0.61671
 C1335 C 1.04715 0.57095 0.63342
 H1336 H 1.04075 0.58291 0.63982
 O1337 O 0.90828 0.48160 0.56698
 O1338 O 0.88672 0.48158 0.58861
 C1339 C 0.89329 0.47520 0.57357
 C1340 C 0.88376 0.45980 0.56397
 C1341 C 0.86710 0.45267 0.57096
 H1342 H 0.86070 0.45909 0.58292
 O1343 O 1.09237 0.51827 0.56682
 O1344 O 1.11401 0.51836 0.58835
 C1345 C 1.10739 0.52467 0.57330
 C1346 C 1.11691 0.54000 0.56354
 C1347 C 1.13361 0.54718 0.57041
 H1348 H 1.13983 0.54112 0.58264
 O1349 O 0.93373 0.40762 0.51817
 O1350 O 0.91232 0.38590 0.51829
 C1351 C 0.92730 0.39257 0.52461
 C1352 C 0.93701 0.38308 0.54000
 C1353 C 0.93010 0.36641 0.54725
 H1354 H 0.91789 0.36019 0.54119
 O1355 O 1.06671 0.59215 0.51766
 O1356 O 1.08821 0.61378 0.51763
 C1357 C 1.07322 0.60719 0.52402
 C1358 C 1.06359 0.61677 0.53940
 C1359 C 1.07058 0.63342 0.54656
 H1360 H 1.08255 0.63979 0.54016
 Cu1361 Cu 1.07762 0.50018 0.57742
 Cu1362 Cu 1.10355 0.50029 0.60332
 Cu1363 Cu 0.92305 0.49974 0.57744
 Cu1364 Cu 0.89721 0.49972 0.60344
 Cu1365 Cu 1.00012 0.57736 0.57723
 Cu1366 Cu 1.00006 0.60330 0.60314
 Cu1367 Cu 1.00068 0.42264 0.57755
 Cu1368 Cu 1.00074 0.39671 0.60349
 C1369 C 1.04843 0.54842 0.60860
 H1370 H 1.04323 0.54318 0.59553
 C1371 C 1.06260 0.56270 0.64188
 C1372 C 0.95243 0.45169 0.60886
 H1373 H 0.95765 0.45693 0.59580
 C1374 C 0.93819 0.43739 0.64214
 C1375 C 1.04804 0.60868 0.54781
 H1376 H 1.04278 0.59566 0.54258
 C1377 C 1.06241 0.64185 0.56208
 C1378 C 0.95253 0.39128 0.54835
 H1379 H 0.95773 0.40431 0.54305
 C1380 C 0.93833 0.35809 0.56281
 C1381 C 1.10869 0.54835 0.54799
 H1382 H 1.09565 0.54310 0.54282
 C1383 C 1.14193 0.56268 0.56210
 C1384 C 0.89186 0.45139 0.54840
 H1385 H 0.90489 0.45660 0.54314
 C1386 C 0.85867 0.43718 0.56276
 C1387 C 0.95212 0.54799 0.60865
 H1388 H 0.95734 0.54273 0.59559
 C1389 C 0.93790 0.56237 0.64189
 C1390 C 1.04871 0.45191 0.60885
 H1391 H 1.04344 0.45714 0.59581
 C1392 C 1.06307 0.43768 0.64210
 C1393 C 1.10898 0.45215 0.54817
 H1394 H 1.09597 0.45742 0.54292
 C1395 C 1.14208 0.43773 0.56250
 C1396 C 0.89163 0.54786 0.54819
 H1397 H 0.90465 0.54264 0.54292
 C1398 C 0.85845 0.56210 0.56257
 C1399 C 0.95173 0.60847 0.54821
 H1400 H 0.95704 0.59546 0.54295
 C1401 C 0.93728 0.64162 0.56251
 C1402 C 1.04896 0.39153 0.54838
 H1403 H 1.04370 0.40457 0.54318
 C1404 C 1.06330 0.35826 0.56256
 O1405 O 1.06683 0.48212 0.40729
 O1406 O 1.08834 0.48213 0.38561
 C1407 C 1.07337 0.47574 0.39225
 C1408 C 1.06382 0.46029 0.38277
 C1409 C 1.07082 0.45313 0.36610
 H1410 H 1.08270 0.45959 0.35963
 O1411 O 0.93345 0.51735 0.40774
 O1412 O 0.91190 0.51738 0.38613
 C1413 C 0.92689 0.52375 0.39272
 C1414 C 0.93642 0.53920 0.38317
 C1415 C 0.92935 0.54635 0.36651
 H1416 H 0.91744 0.53989 0.36012
 O1417 O 0.98182 0.59218 0.43281
 O1418 O 0.98166 0.61376 0.41118
 C1419 C 0.97537 0.60718 0.42624
 C1420 C 0.96001 0.61671 0.43594
 C1421 C 0.95273 0.63335 0.42895
 H1422 H 0.95872 0.63953 0.41666
 O1423 O 1.01845 0.40778 0.43310
 O1424 O 1.01857 0.38608 0.41162
 C1425 C 1.02485 0.39273 0.42665
 C1426 C 1.04016 0.38320 0.43640
 C1427 C 1.04734 0.36648 0.42952
 H1428 H 1.04127 0.36024 0.41731
 O1429 O 1.09245 0.43343 0.48169
 O1430 O 1.11412 0.41193 0.48165
 C1431 C 1.10744 0.42689 0.47523
 C1432 C 1.11687 0.43646 0.45970
 C1433 C 1.13353 0.42949 0.45249
 H1434 H 1.13998 0.41757 0.45892
 O1435 O 0.90814 0.56648 0.48179
 O1436 O 0.88644 0.58794 0.48174
 C1437 C 0.89311 0.57295 0.47538
 C1438 C 0.88361 0.56325 0.46001
 C1439 C 0.86694 0.57019 0.45278
 H1440 H 0.86077 0.58246 0.45881
 O1441 O 1.01803 0.56691 0.40742
 O1442 O 1.01784 0.58842 0.38572
 C1443 C 1.02431 0.57345 0.39234
 C1444 C 1.03972 0.56391 0.38273
 C1445 C 1.04683 0.57097 0.36605
 H1446 H 1.04037 0.58292 0.35968
 O1447 O 0.98232 0.43290 0.40755
 O1448 O 0.98243 0.41126 0.38600
 C1449 C 0.97599 0.42627 0.39254
 C1450 C 0.96056 0.43577 0.38296
 C1451 C 0.95340 0.42868 0.36633
 H1452 H 0.95987 0.41674 0.35994
 O1453 O 1.09221 0.51822 0.43258
 O1454 O 1.11379 0.51824 0.41097
 C1455 C 1.10722 0.52458 0.42603
 C1456 C 1.11679 0.53989 0.43572
 C1457 C 1.13345 0.54711 0.42875
 H1458 H 1.13963 0.54108 0.41648
 O1459 O 0.90805 0.48119 0.43305
 O1460 O 0.88645 0.48122 0.41149
 C1461 C 0.89303 0.47484 0.42652
 C1462 C 0.88349 0.45947 0.43619
 C1463 C 0.86690 0.45220 0.42919
 H1464 H 0.86051 0.45852 0.41717
 O1465 O 1.06680 0.59218 0.48144
 O1466 O 1.08829 0.61382 0.48140
 C1467 C 1.07330 0.60721 0.47503
 C1468 C 1.06365 0.61677 0.45962
 C1469 C 1.07061 0.63344 0.45240
 H1470 H 1.08258 0.63982 0.45875
 O1471 O 0.93363 0.40761 0.48194
 O1472 O 0.91223 0.38588 0.48205
 C1473 C 0.92717 0.39254 0.47560
 C1474 C 0.93680 0.38302 0.46018
 C1475 C 0.92990 0.36631 0.45305
 H1476 H 0.91798 0.35988 0.45947
 O1477 O 0.93331 0.48119 0.40758
 O1478 O 0.91176 0.48120 0.38597
 C1479 C 0.92677 0.47483 0.39254
 C1480 C 0.93646 0.45951 0.38294
 C1481 C 0.92948 0.45220 0.36630
 H1482 H 0.91718 0.45816 0.36016
 O1483 O 1.06690 0.51829 0.40719
 O1484 O 1.08842 0.51833 0.38552
 C1485 C 1.07342 0.52469 0.39214
 C1486 C 1.06374 0.54008 0.38260
 C1487 C 1.07067 0.54737 0.36592
 H1488 H 1.08293 0.54137 0.35972
 O1489 O 0.98235 0.40766 0.43300
 O1490 O 0.98245 0.38596 0.41151
 C1491 C 0.97604 0.39259 0.42651
 C1492 C 0.96071 0.38301 0.43620
 C1493 C 0.95359 0.36629 0.42928
 H1494 H 0.95969 0.36011 0.41704
 O1495 O 1.01795 0.59223 0.43278
 O1496 O 1.01783 0.61380 0.41114
 C1497 C 1.02426 0.60726 0.42617
 C1498 C 1.03964 0.61684 0.43576
 C1499 C 1.04681 0.63352 0.42874
 H1500 H 1.04068 0.63970 0.41651
 O1501 O 0.90809 0.43272 0.48201
 O1502 O 0.88662 0.41105 0.48210
 C1503 C 0.89310 0.42609 0.47568
 C1504 C 0.88349 0.43564 0.46027
 C1505 C 0.86690 0.42856 0.45306
 H1506 H 0.86078 0.41632 0.45918
 O1507 O 1.09213 0.56681 0.48150
 O1508 O 1.11366 0.58841 0.48145
 C1509 C 1.10712 0.57337 0.47511
 C1510 C 1.11670 0.56376 0.45972
 C1511 C 1.13335 0.57077 0.45256
 H1512 H 1.13972 0.58272 0.45898
 O1513 O 1.01843 0.43301 0.40757
 O1514 O 1.01857 0.41138 0.38602
 C1515 C 1.02485 0.42645 0.39254
 C1516 C 1.04012 0.43617 0.38290
 C1517 C 1.04735 0.42919 0.36622
 H1518 H 1.04139 0.41688 0.36010
 O1519 O 0.98190 0.56662 0.40765
 O1520 O 0.98169 0.58814 0.38596
 C1521 C 0.97544 0.57309 0.39261
 C1522 C 0.96013 0.56332 0.38310
 C1523 C 0.95284 0.57027 0.36644
 H1524 H 0.95877 0.58257 0.36025
 O1525 O 0.90816 0.51737 0.43310
 O1526 O 0.88655 0.51741 0.41153
 C1527 C 0.89316 0.52379 0.42655
 C1528 C 0.88365 0.53923 0.43614
 C1529 C 0.86699 0.54638 0.42914
 H1530 H 0.86059 0.53994 0.41720
 O1531 O 1.09220 0.48207 0.43255
 O1532 O 1.11378 0.48206 0.41093
 C1533 C 1.10721 0.47569 0.42598
 C1534 C 1.11678 0.46032 0.43564
 C1535 C 1.13345 0.45313 0.42864
 H1536 H 1.13957 0.45919 0.41635
 O1537 O 1.06718 0.40805 0.48196
 O1538 O 1.08881 0.38650 0.48191
 C1539 C 1.07374 0.39301 0.47561
 C1540 C 1.06408 0.38336 0.46032
 C1541 C 1.07106 0.36665 0.45323
 H1542 H 1.08303 0.36029 0.45964
 O1543 O 0.93324 0.59202 0.48180
 O1544 O 0.91158 0.61353 0.48178
 C1545 C 0.92662 0.60702 0.47540
 C1546 C 0.93617 0.61661 0.45997
 C1547 C 0.92910 0.63325 0.45279
 H1548 H 0.91714 0.63961 0.45922
 Cu1549 Cu 1.07737 0.50019 0.42207
 Cu1550 Cu 1.10324 0.50020 0.39608
 Cu1551 Cu 0.92291 0.49924 0.42253
 Cu1552 Cu 0.89699 0.49931 0.39662
 Cu1553 Cu 1.07730 0.57734 0.49959
 Cu1554 Cu 1.10312 0.60330 0.49954
 Cu1555 Cu 1.07775 0.42294 0.49995
 Cu1556 Cu 1.10374 0.39710 0.49988
 Cu1557 Cu 0.92283 0.57711 0.49991
 Cu1558 Cu 0.89679 0.60290 0.49987
 Cu1559 Cu 0.92306 0.42237 0.50007
 Cu1560 Cu 0.89734 0.39630 0.50021
 Cu1561 Cu 0.99994 0.57733 0.42234
 Cu1562 Cu 0.99973 0.60319 0.39632
 Cu1563 Cu 1.00039 0.42252 0.42246
 Cu1564 Cu 1.00053 0.39650 0.39662
 C1565 C 1.04836 0.45182 0.39098
 H1566 H 1.04310 0.45706 0.40402
 C1567 C 1.06276 0.43752 0.35778
 C1568 C 0.95192 0.54768 0.39127
 H1569 H 0.95724 0.54245 0.40430
 C1570 C 0.93739 0.56194 0.35811
 C1571 C 0.95174 0.60855 0.45156
 H1572 H 0.95707 0.59556 0.45682
 C1573 C 0.93723 0.64168 0.43724
 C1574 C 1.04851 0.39143 0.45192
 H1575 H 1.04325 0.40448 0.45711
 C1576 C 1.06285 0.35816 0.43778
 C1577 C 1.10868 0.45196 0.45126
 H1578 H 1.09566 0.45721 0.45652
 C1579 C 1.14187 0.43767 0.43692
 C1580 C 0.89178 0.54768 0.45167
 H1581 H 0.90480 0.54246 0.45694
 C1582 C 0.85858 0.56190 0.43730
 C1583 C 1.04817 0.54836 0.39081
 H1584 H 1.04296 0.54305 0.40385
 C1585 C 1.06237 0.56288 0.35760
 C1586 C 0.95209 0.45128 0.39106
 H1587 H 0.95734 0.45662 0.40406
 C1588 C 0.93782 0.43673 0.35795
 C1589 C 1.10863 0.54821 0.45131
 H1590 H 1.09562 0.54293 0.45656
 C1591 C 1.14177 0.56261 0.43702
 C1592 C 0.89158 0.45119 0.45184
 H1593 H 0.90454 0.45652 0.45712
 C1594 C 0.85854 0.43670 0.43746
 C1595 C 1.04808 0.60867 0.45129
 H1596 H 1.04286 0.59564 0.45657
 C1597 C 1.06236 0.64187 0.43690
 C1598 C 0.95230 0.39118 0.45174
 H1599 H 0.95748 0.40425 0.45694
 C1600 C 0.93812 0.35789 0.43755
 O1601 O 0.48181 0.93315 0.40736
 O1602 O 0.48195 0.91156 0.38577
 C1603 C 0.47550 0.92655 0.39232
 C1604 C 0.46006 0.93607 0.38275
 C1605 C 0.45287 0.92899 0.36613
 H1606 H 0.45933 0.91706 0.35973
 O1607 O 0.51753 1.06723 0.40767
 O1608 O 0.51731 1.08876 0.38599
 C1609 C 0.52381 1.07380 0.39259
 C1610 C 0.53923 1.06428 0.38299
 C1611 C 0.54631 1.07133 0.36628
 H1612 H 0.53984 1.08327 0.35991
 O1613 O 0.40772 0.98146 0.43307
 O1614 O 0.38604 0.98152 0.41159
 C1615 C 0.39267 0.97512 0.42659
 C1616 C 0.38313 0.95978 0.43631
 C1617 C 0.36651 0.95249 0.42936
 H1618 H 0.36034 0.95848 0.41706
 O1619 O 0.59181 1.01853 0.43277
 O1620 O 0.61338 1.01862 0.41116
 C1621 C 0.60683 1.02490 0.42624
 C1622 C 0.61642 1.04016 0.43601
 C1623 C 0.63318 1.04727 0.42917
 H1624 H 0.63942 1.04117 0.41696
 O1625 O 0.43325 0.90779 0.48188
 O1626 O 0.41180 0.88610 0.48200
 C1627 C 0.42672 0.89277 0.47550
 C1628 C 0.43625 0.88329 0.45998
 C1629 C 0.42929 0.86661 0.45284
 H1630 H 0.41739 0.86018 0.45930
 O1631 O 0.56638 1.09273 0.48148
 O1632 O 0.58790 1.11435 0.48141
 C1633 C 0.57291 1.10775 0.47505
 C1634 C 0.56323 1.11729 0.45964
 C1635 C 0.57013 1.13395 0.45233
 H1636 H 0.58239 1.14015 0.45831
 O1637 O 0.43304 1.01762 0.40772
 O1638 O 0.41142 1.01771 0.38616
 C1639 C 0.42645 1.02404 0.39271
 C1640 C 0.43603 1.03945 0.38315
 C1641 C 0.42905 1.04659 0.36644
 H1642 H 0.41689 1.04042 0.36023
 O1643 O 0.56641 0.98245 0.40744
 O1644 O 0.58790 0.98252 0.38574
 C1645 C 0.57294 0.97609 0.39239
 C1646 C 0.56340 0.96063 0.38287
 C1647 C 0.57043 0.95348 0.36621
 H1648 H 0.58233 0.95995 0.35978
 O1649 O 0.51792 0.90798 0.43292
 O1650 O 0.51807 0.88631 0.41141
 C1651 C 0.52436 0.89295 0.42644
 C1652 C 0.53974 0.88347 0.43615
 C1653 C 0.54698 0.86679 0.42925
 H1654 H 0.54091 0.86053 0.41704
 O1655 O 0.48129 1.09243 0.43309
 O1656 O 0.48107 1.11401 0.41145
 C1657 C 0.47480 1.10741 0.42653
 C1658 C 0.45942 1.11692 0.43623
 C1659 C 0.45212 1.13356 0.42926
 H1660 H 0.45811 1.13975 0.41697
 O1661 O 0.40771 1.06665 0.48224
 O1662 O 0.38600 1.08811 0.48214
 C1663 C 0.39268 1.07310 0.47581
 C1664 C 0.38320 1.06339 0.46041
 C1665 C 0.36654 1.07032 0.45317
 H1666 H 0.36031 1.08254 0.45923
 O1667 O 0.59208 0.93378 0.48161
 O1668 O 0.61375 0.91230 0.48160
 C1669 C 0.60710 0.92727 0.47519
 C1670 C 0.61657 0.93687 0.45972
 C1671 C 0.63322 0.92989 0.45251
 H1672 H 0.63966 0.91796 0.45893
 O1673 O 0.48140 1.06692 0.40786
 O1674 O 0.48118 1.08844 0.38618
 C1675 C 0.47497 1.07338 0.39281
 C1676 C 0.45971 1.06360 0.38324
 C1677 C 0.45252 1.07052 0.36654
 H1678 H 0.45880 1.08254 0.36014
 O1679 O 0.51792 0.93330 0.40749
 O1680 O 0.51811 0.91170 0.38590
 C1681 C 0.52437 0.92677 0.39247
 C1682 C 0.53969 0.93650 0.38290
 C1683 C 0.54696 0.92955 0.36622
 H1684 H 0.54101 0.91725 0.36006
 O1685 O 0.59188 0.98242 0.43259
 O1686 O 0.61344 0.98246 0.41096
 C1687 C 0.60690 0.97607 0.42600
 C1688 C 0.61649 0.96072 0.43566
 C1689 C 0.63315 0.95352 0.42865
 H1690 H 0.63927 0.95956 0.41635
 O1691 O 0.40789 1.01762 0.43325
 O1692 O 0.38621 1.01771 0.41176
 C1693 C 0.39286 1.02405 0.42677
 C1694 C 0.38334 1.03944 0.43645
 C1695 C 0.36669 1.04660 0.42944
 H1696 H 0.36033 1.04021 0.41746
 O1697 O 0.43273 1.09226 0.48218
 O1698 O 0.41108 1.11377 0.48214
 C1699 C 0.42610 1.10724 0.47576
 C1700 C 0.43562 1.11681 0.46030
 C1701 C 0.42854 1.13345 0.45314
 H1702 H 0.41659 1.13981 0.45959
 O1703 O 0.56679 0.90841 0.48170
 O1704 O 0.58842 0.88688 0.48167
 C1705 C 0.57337 0.89340 0.47533
 C1706 C 0.56374 0.88374 0.46001
 C1707 C 0.57077 0.86707 0.45290
 H1708 H 0.58278 0.86076 0.45928
 O1709 O 0.56649 1.01864 0.40738
 O1710 O 0.58799 1.01875 0.38569
 C1711 C 0.57299 1.02508 0.39234
 C1712 C 0.56328 1.04046 0.38284
 C1713 C 0.57015 1.04773 0.36613
 H1714 H 0.58240 1.04174 0.35991
 O1715 O 0.43289 0.98146 0.40750
 O1716 O 0.41127 0.98152 0.38596
 C1717 C 0.42630 0.97514 0.39246
 C1718 C 0.43596 0.95982 0.38280
 C1719 C 0.42894 0.95251 0.36617
 H1720 H 0.41661 0.95846 0.36006
 O1721 O 0.51745 1.09258 0.43299
 O1722 O 0.51724 1.11415 0.41135
 C1723 C 0.52373 1.10761 0.42635
 C1724 C 0.53916 1.11720 0.43584
 C1725 C 0.54627 1.13384 0.42873
 H1726 H 0.53981 1.14020 0.41677
 O1727 O 0.48178 0.90788 0.43278
 O1728 O 0.48189 0.88622 0.41125
 C1729 C 0.47545 0.89284 0.42624
 C1730 C 0.46007 0.88330 0.43590
 C1731 C 0.45289 0.86661 0.42896
 H1732 H 0.45892 0.86045 0.41668
 O1733 O 0.59162 1.06725 0.48163
 O1734 O 0.61320 1.08881 0.48159
 C1735 C 0.60666 1.07376 0.47528
 C1736 C 0.61630 1.06406 0.45998
 C1737 C 0.63305 1.07095 0.45295
 H1738 H 0.63946 1.08286 0.45941
 O1739 O 0.40785 0.93302 0.48211
 O1740 O 0.38635 0.91138 0.48221
 C1741 C 0.39285 0.92642 0.47580
 C1742 C 0.38324 0.93597 0.46040
 C1743 C 0.36663 0.92890 0.45326
 H1744 H 0.36028 0.91694 0.45972
 Cu1745 Cu 0.49985 0.92274 0.42230
 Cu1746 Cu 0.50003 0.89678 0.39642
 Cu1747 Cu 0.49943 1.07764 0.42259
 Cu1748 Cu 0.49917 1.10350 0.39657
 Cu1749 Cu 0.42256 0.99950 0.42254
 Cu1750 Cu 0.39656 0.99963 0.39671
 Cu1751 Cu 0.57699 1.00052 0.42221
 Cu1752 Cu 0.60282 1.00060 0.39619
 C1753 C 0.45162 0.95159 0.39087
 H1754 H 0.45691 0.95693 0.40385
 C1755 C 0.43726 0.93703 0.35779
 C1756 C 0.54772 1.04875 0.39107
 H1757 H 0.54254 1.04344 0.40412
 C1758 C 0.56181 1.06321 0.35780
 C1759 C 0.39129 0.95152 0.45194
 H1760 H 0.40428 0.95684 0.45717
 C1761 C 0.35822 0.93699 0.43769
 C1762 C 0.60819 1.04855 0.45153
 H1763 H 0.59510 1.04337 0.45666
 C1764 C 0.64151 1.06275 0.43746
 C1765 C 0.45172 0.89145 0.45149
 H1766 H 0.45695 0.90449 0.45671
 C1767 C 0.43745 0.85821 0.43729
 C1768 C 0.54765 1.10912 0.45138
 H1769 H 0.54245 1.09611 0.45672
 C1770 C 0.56181 1.14228 0.43680
 C1771 C 0.45147 1.04795 0.39135
 H1772 H 0.45672 1.04274 0.40441
 C1773 C 0.43714 1.06218 0.35809
 C1774 C 0.54792 0.95214 0.39103
 H1775 H 0.54263 0.95737 0.40406
 C1776 C 0.56239 0.93789 0.35784
 C1777 C 0.54811 0.89174 0.45165
 H1778 H 0.54281 0.90477 0.45685
 C1779 C 0.56255 0.85853 0.43746
 C1780 C 0.45117 1.10874 0.45186
 H1781 H 0.45650 1.09574 0.45711
 C1782 C 0.43663 1.14188 0.43758
 C1783 C 0.39142 1.04784 0.45204
 H1784 H 0.40444 1.04262 0.45731
 C1785 C 0.35825 1.06209 0.43761
 C1786 C 0.60840 0.95238 0.45128
 H1787 H 0.59539 0.95763 0.45655
 C1788 C 0.64156 0.93805 0.43692
 O1789 O 0.51835 0.93337 0.59224
 O1790 O 0.51845 0.91182 0.61390
 C1791 C 0.52474 0.92686 0.60730
 C1792 C 0.54001 0.93659 0.61689
 C1793 C 0.54718 0.92967 0.63362
 H1794 H 0.54118 0.91739 0.63979
 O1795 O 0.48190 1.06696 0.59227
 O1796 O 0.48181 1.08853 0.61390
 C1797 C 0.47552 1.07347 0.60732
 C1798 C 0.46021 1.06379 0.61693
 C1799 C 0.45312 1.07071 0.63367
 H1800 H 0.45955 1.08264 0.64009
 O1801 O 0.40765 1.01810 0.56708
 O1802 O 0.38615 1.01801 0.58877
 C1803 C 0.39263 1.02441 0.57370
 C1804 C 0.38300 1.03977 0.56411
 C1805 C 0.36636 1.04692 0.57117
 H1806 H 0.36001 1.04052 0.58317
 O1807 O 0.59197 0.98248 0.56694
 O1808 O 0.61363 0.98249 0.58844
 C1809 C 0.60701 0.97611 0.57344
 C1810 C 0.61655 0.96076 0.56375
 C1811 C 0.63317 0.95349 0.57076
 H1812 H 0.63931 0.95948 0.58307
 O1813 O 0.56694 0.90832 0.51790
 O1814 O 0.58857 0.88678 0.51786
 C1815 C 0.57355 0.89330 0.52426
 C1816 C 0.56400 0.88369 0.53967
 C1817 C 0.57104 0.86703 0.54683
 H1818 H 0.58301 0.86067 0.54042
 O1819 O 0.43277 1.09226 0.51841
 O1820 O 0.41111 1.11376 0.51840
 C1821 C 0.42614 1.10725 0.52479
 C1822 C 0.43574 1.11684 0.54019
 C1823 C 0.42867 1.13345 0.54748
 H1824 H 0.41638 1.13956 0.54148
 O1825 O 0.43333 0.98209 0.59233
 O1826 O 0.41188 0.98198 0.61407
 C1827 C 0.42690 0.97571 0.60743
 C1828 C 0.43669 0.96044 0.61702
 C1829 C 0.42987 0.95332 0.63381
 H1830 H 0.41767 0.95940 0.64005
 O1831 O 0.56670 1.01861 0.59237
 O1832 O 0.58832 1.01867 0.61392
 C1833 C 0.57329 1.02501 0.60738
 C1834 C 0.56367 1.04037 0.61696
 C1835 C 0.57065 1.04757 0.63363
 H1836 H 0.58289 1.04149 0.63979
 O1837 O 0.48222 0.90796 0.56700
 O1838 O 0.48230 0.88636 0.58861
 C1839 C 0.47589 0.89293 0.57359
 C1840 C 0.46054 0.88333 0.56398
 C1841 C 0.45331 0.86672 0.57108
 H1842 H 0.45933 0.86061 0.58340
 O1843 O 0.51780 1.09257 0.56684
 O1844 O 0.51777 1.11418 0.58841
 C1845 C 0.52412 1.10762 0.57335
 C1846 C 0.53940 1.11723 0.56362
 C1847 C 0.54662 1.13389 0.57059
 H1848 H 0.54062 1.14004 0.58289
 O1849 O 0.40803 0.93297 0.51830
 O1850 O 0.38651 0.91135 0.51842
 C1851 C 0.39306 0.92638 0.52476
 C1852 C 0.38353 0.93602 0.54017
 C1853 C 0.36686 0.92908 0.54739
 H1854 H 0.36069 0.91683 0.54133
 O1855 O 0.59161 1.06740 0.51782
 O1856 O 0.61318 1.08896 0.51778
 C1857 C 0.60662 1.07395 0.52418
 C1858 C 0.61622 1.06431 0.53956
 C1859 C 0.63296 1.07121 0.54659
 H1860 H 0.63935 1.08315 0.54013
 O1861 O 0.51802 1.06733 0.59234
 O1862 O 0.51795 1.08889 0.61398
 C1863 C 0.52437 1.07390 0.60738
 C1864 C 0.53977 1.06432 0.61694
 C1865 C 0.54695 1.07131 0.63361
 H1866 H 0.54058 1.08328 0.64002
 O1867 O 0.48226 0.93343 0.59223
 O1868 O 0.48234 0.91188 0.61390
 C1869 C 0.47596 0.92690 0.60731
 C1870 C 0.46065 0.93656 0.61694
 C1871 C 0.45363 0.92964 0.63372
 H1872 H 0.46007 0.91772 0.64014
 O1873 O 0.59184 1.01863 0.56683
 O1874 O 0.61353 1.01867 0.58831
 C1875 C 0.60688 1.02502 0.57329
 C1876 C 0.61639 1.04036 0.56353
 C1877 C 0.63314 1.04747 0.57034
 H1878 H 0.63939 1.04136 0.58254
 O1879 O 0.40795 0.98192 0.56704
 O1880 O 0.38645 0.98180 0.58871
 C1881 C 0.39301 0.97545 0.57366
 C1882 C 0.38353 0.96001 0.56408
 C1883 C 0.36687 0.95286 0.57107
 H1884 H 0.36045 0.95929 0.58301
 O1885 O 0.56623 1.09268 0.51773
 O1886 O 0.58775 1.11430 0.51768
 C1887 C 0.57277 1.10771 0.52409
 C1888 C 0.56319 1.11725 0.53953
 C1889 C 0.57020 1.13388 0.54670
 H1890 H 0.58213 1.14029 0.54026
 O1891 O 0.43350 0.90776 0.51813
 O1892 O 0.41203 0.88610 0.51826
 C1893 C 0.42703 0.89273 0.52457
 C1894 C 0.43667 0.88325 0.54000
 C1895 C 0.42967 0.86665 0.54729
 H1896 H 0.41771 0.86023 0.54093
 O1897 O 0.56671 0.98246 0.59234
 O1898 O 0.58831 0.98248 0.61391
 C1899 C 0.57331 0.97609 0.60736
 C1900 C 0.56376 0.96067 0.61693
 C1901 C 0.57072 0.95354 0.63365
 H1902 H 0.58260 0.96000 0.64009
 O1903 O 0.43311 1.01823 0.59232
 O1904 O 0.41166 1.01813 0.61406
 C1905 C 0.42662 1.02455 0.60741
 C1906 C 0.43629 1.03989 0.61700
 C1907 C 0.42939 1.04704 0.63375
 H1908 H 0.41718 1.04096 0.63997
 O1909 O 0.48166 1.09243 0.56703
 O1910 O 0.48161 1.11404 0.58860
 C1911 C 0.47522 1.10742 0.57360
 C1912 C 0.45974 1.11689 0.56406
 C1913 C 0.45248 1.13348 0.57113
 H1914 H 0.45888 1.13989 0.58309
 O1915 O 0.51834 0.90810 0.56681
 O1916 O 0.51845 0.88648 0.58841
 C1917 C 0.52475 0.89308 0.57335
 C1918 C 0.54010 0.88354 0.56365
 C1919 C 0.54734 0.86687 0.57059
 H1920 H 0.54128 0.86066 0.58284
 O1921 O 0.59204 0.93386 0.51787
 O1922 O 0.61370 0.91236 0.51785
 C1923 C 0.60706 0.92734 0.52425
 C1924 C 0.61655 0.93693 0.53970
 C1925 C 0.63317 0.92989 0.54690
 H1926 H 0.63958 0.91794 0.54049
 O1927 O 0.40746 1.06692 0.51844
 O1928 O 0.38574 1.08836 0.51837
 C1929 C 0.39239 1.07339 0.52478
 C1930 C 0.38286 1.06372 0.54017
 C1931 C 0.36622 1.07068 0.54743
 H1932 H 0.36004 1.08294 0.54139
 Cu1933 Cu 0.50029 0.92287 0.57739
 Cu1934 Cu 0.50040 0.89697 0.60337
 Cu1935 Cu 0.49987 1.07766 0.57745
 Cu1936 Cu 0.49978 1.10358 0.60339
 Cu1937 Cu 0.42281 0.92255 0.50010
 Cu1938 Cu 0.39703 0.89655 0.50024
 Cu1939 Cu 0.57730 0.92326 0.49977
 Cu1940 Cu 0.60330 0.89744 0.49973
 Cu1941 Cu 0.42234 1.07737 0.50034
 Cu1942 Cu 0.39631 1.10316 0.50025
 Cu1943 Cu 0.57679 1.07786 0.49965
 Cu1944 Cu 0.60266 1.10377 0.49960
 Cu1945 Cu 0.42265 1.00010 0.57751
 Cu1946 Cu 0.39687 0.99996 0.60357
 Cu1947 Cu 0.57714 1.00055 0.57747
 Cu1948 Cu 0.60312 1.00059 0.60331
 C1949 C 0.54829 0.95220 0.60876
 H1950 H 0.54305 0.95741 0.59570
 C1951 C 0.56258 0.93800 0.64205
 C1952 C 0.45179 1.04828 0.60878
 H1953 H 0.45696 1.04308 0.59568
 C1954 C 0.43763 1.06254 0.64211
 C1955 C 0.39104 1.04816 0.54850
 H1956 H 0.40403 1.04292 0.54318
 C1957 C 0.35791 1.06242 0.56298
 C1958 C 0.60843 0.95246 0.54813
 H1959 H 0.59544 0.95776 0.54287
 C1960 C 0.64152 0.93800 0.56248
 C1961 C 0.54843 0.89174 0.54808
 H1962 H 0.54313 0.90477 0.54285
 C1963 C 0.56287 0.85856 0.56235
 C1964 C 0.45137 1.10877 0.54849
 H1965 H 0.45670 1.09580 0.54316
 C1966 C 0.43691 1.14182 0.56300
 C1967 C 0.45219 0.95207 0.60879
 H1968 H 0.45731 0.95726 0.59566
 C1969 C 0.43817 0.93785 0.64219
 C1970 C 0.54812 1.04874 0.60882
 H1971 H 0.54286 1.04347 0.59580
 C1972 C 0.56244 1.06308 0.64202
 C1973 C 0.45222 0.89138 0.54833
 H1974 H 0.45751 0.90436 0.54297
 C1975 C 0.43782 0.85833 0.56288
 C1976 C 0.54769 1.10912 0.54798
 H1977 H 0.54242 1.09610 0.54274
 C1978 C 0.56209 1.14225 0.56229
 C1979 C 0.39167 0.95158 0.54853
 H1980 H 0.40469 0.95681 0.54327
 C1981 C 0.35849 0.93735 0.56289
 C1982 C 0.60812 1.04878 0.54804
 H1983 H 0.59504 1.04358 0.54292
 C1984 C 0.64147 1.06296 0.56203
 O1985 O 0.56674 0.51756 1.09268
 O1986 O 0.58827 0.51760 1.11432
 C1987 C 0.57326 0.52395 1.10771
 C1988 C 0.56362 0.53935 1.11725
 C1989 C 0.57058 0.54651 1.13394
 H1990 H 0.58276 0.54036 1.14016
 O1991 O 0.43319 0.48195 1.09281
 O1992 O 0.41167 0.48194 1.11448
 C1993 C 0.42667 0.47557 1.10787
 C1994 C 0.43633 0.46022 1.11746
 C1995 C 0.42939 0.45305 1.13418
 H1996 H 0.41715 0.45913 1.14035
 O1997 O 0.51810 0.59206 1.06704
 O1998 O 0.51826 0.61363 1.08866
 C1999 C 0.52454 0.60705 1.07358
 C2000 C 0.53988 0.61658 1.06387
 C2001 C 0.54706 0.63328 1.07076
 H2002 H 0.54097 0.63952 1.08297
 O2003 O 0.48194 0.40791 1.06743
 O2004 O 0.48188 0.38619 1.08892
 C2005 C 0.47554 0.39286 1.07391
 C2006 C 0.46020 0.38336 1.06420
 C2007 C 0.45299 0.36666 1.07112
 H2008 H 0.45903 0.36044 1.08337
 O2009 O 0.59216 0.56631 1.01833
 O2010 O 0.61377 0.58784 1.01834
 C2011 C 0.60715 0.57285 1.02475
 C2012 C 0.61665 0.56327 1.04022
 C2013 C 0.63328 0.57027 1.04740
 H2014 H 0.63967 0.58222 1.04097
 O2015 O 0.40780 0.43334 1.01839
 O2016 O 0.38624 0.41177 1.01846
 C2017 C 0.39280 0.42679 1.02481
 C2018 C 0.38326 0.43645 1.04021
 C2019 C 0.36657 0.42953 1.04740
 H2020 H 0.36037 0.41733 1.04131
 O2021 O 0.48203 0.56673 1.09250
 O2022 O 0.48215 0.58825 1.11416
 C2023 C 0.47573 0.57326 1.10757
 C2024 C 0.46037 0.56368 1.11719
 C2025 C 0.45328 0.57072 1.13387
 H2026 H 0.45972 0.58267 1.14023
 O2027 O 0.51813 0.43300 1.09291
 O2028 O 0.51808 0.41133 1.11445
 C2029 C 0.52449 0.42635 1.10791
 C2030 C 0.53992 0.43585 1.11749
 C2031 C 0.54708 0.42877 1.13414
 H2032 H 0.54064 0.41683 1.14054
 O2033 O 0.59220 0.48149 1.06736
 O2034 O 0.61381 0.48149 1.08891
 C2035 C 0.60724 0.47515 1.07387
 C2036 C 0.61683 0.45985 1.06414
 C2037 C 0.63348 0.45261 1.07110
 H2038 H 0.63963 0.45862 1.08339
 O2039 O 0.40785 0.51815 1.06749
 O2040 O 0.38627 0.51816 1.08910
 C2041 C 0.39283 0.52453 1.07406
 C2042 C 0.38328 0.53991 1.06441
 C2043 C 0.36661 0.54709 1.07139
 H2044 H 0.36021 0.54071 1.08337
 O2045 O 0.43307 0.59240 1.01884
 O2046 O 0.41154 0.61402 1.01878
 C2047 C 0.42652 0.60743 1.02521
 C2048 C 0.43614 0.61698 1.04061
 C2049 C 0.42918 0.63362 1.04792
 H2050 H 0.41691 0.63981 1.04192
 O2051 O 0.56679 0.40792 1.01830
 O2052 O 0.58828 0.38625 1.01829
 C2053 C 0.57329 0.39287 1.02468
 C2054 C 0.56365 0.38331 1.04008
 C2055 C 0.57056 0.36657 1.04718
 H2056 H 0.58247 0.36014 1.04073
 O2057 O 0.43322 0.51810 1.09278
 O2058 O 0.41171 0.51814 1.11446
 C2059 C 0.42671 0.52448 1.10784
 C2060 C 0.43640 0.53983 1.11737
 C2061 C 0.42949 0.54710 1.13406
 H2062 H 0.41725 0.54109 1.14030
 O2063 O 0.56702 0.48139 1.09288
 O2064 O 0.58856 0.48140 1.11451
 C2065 C 0.57357 0.47502 1.10793
 C2066 C 0.56394 0.45964 1.11751
 C2067 C 0.57092 0.45235 1.13416
 H2068 H 0.58321 0.45832 1.14031
 O2069 O 0.51807 0.40789 1.06733
 O2070 O 0.51804 0.38617 1.08881
 C2071 C 0.52441 0.39281 1.07380
 C2072 C 0.53974 0.38325 1.06407
 C2073 C 0.54687 0.36651 1.07096
 H2074 H 0.54079 0.36030 1.08320
 O2075 O 0.48195 0.59227 1.06733
 O2076 O 0.48209 0.61383 1.08895
 C2077 C 0.47562 0.60729 1.07395
 C2078 C 0.46018 0.61688 1.06445
 C2079 C 0.45302 0.63351 1.07154
 H2080 H 0.45946 0.63987 1.08350
 O2081 O 0.40789 0.56693 1.01874
 O2082 O 0.38629 0.58849 1.01866
 C2083 C 0.39285 0.57347 1.02507
 C2084 C 0.38326 0.56383 1.04043
 C2085 C 0.36660 0.57082 1.04762
 H2086 H 0.36046 0.58307 1.04153
 O2087 O 0.59227 0.43309 1.01826
 O2088 O 0.61380 0.41146 1.01825
 C2089 C 0.60726 0.42649 1.02464
 C2090 C 0.61681 0.43603 1.04008
 C2091 C 0.63345 0.42900 1.04725
 H2092 H 0.63984 0.41704 1.04082
 O2093 O 0.48200 0.43321 1.09284
 O2094 O 0.48192 0.41155 1.11439
 C2095 C 0.47560 0.42662 1.10785
 C2096 C 0.46025 0.43627 1.11744
 C2097 C 0.45311 0.42932 1.13417
 H2098 H 0.45950 0.41737 1.14060
 O2099 O 0.51815 0.56671 1.09247
 O2100 O 0.51828 0.58823 1.11413
 C2101 C 0.52457 0.57319 1.10752
 C2102 C 0.53988 0.56347 1.11710
 C2103 C 0.54706 0.57042 1.13379
 H2104 H 0.54075 0.58245 1.14016
 O2105 O 0.40796 0.48201 1.06735
 O2106 O 0.38638 0.48198 1.08896
 C2107 C 0.39295 0.47564 1.07390
 C2108 C 0.38337 0.46032 1.06422
 C2109 C 0.36668 0.45322 1.07118
 H2110 H 0.36029 0.45962 1.08316
 O2111 O 0.59216 0.51762 1.06743
 O2112 O 0.61377 0.51767 1.08900
 C2113 C 0.60716 0.52403 1.07396
 C2114 C 0.61668 0.53940 1.06427
 C2115 C 0.63333 0.54661 1.07123
 H2116 H 0.63950 0.54057 1.08350
 O2117 O 0.43322 0.40809 1.01839
 O2118 O 0.41172 0.38646 1.01844
 C2119 C 0.42671 0.39306 1.02479
 C2120 C 0.43634 0.38350 1.04020
 C2121 C 0.42937 0.36680 1.04731
 H2122 H 0.41744 0.36041 1.04087
 O2123 O 0.56692 0.59176 1.01822
 O2124 O 0.58850 0.61332 1.01823
 C2125 C 0.57347 0.60678 1.02458
 C2126 C 0.56383 0.61640 1.03993
 C2127 C 0.57080 0.63310 1.04703
 H2128 H 0.58276 0.63946 1.04062
 Cu2129 Cu 0.57736 0.49950 1.07793
 Cu2130 Cu 0.60326 0.49955 1.10386
 Cu2131 Cu 0.42272 0.50006 1.07795
 Cu2132 Cu 0.39684 0.50005 1.10392
 Cu2133 Cu 0.50006 0.57729 1.07766
 Cu2134 Cu 0.50022 0.60315 1.10364
 Cu2135 Cu 0.50004 0.42268 1.07797
 Cu2136 Cu 0.49997 0.39663 1.10380
 C2137 C 0.54816 0.54782 1.10903
 H2138 H 0.54292 0.54258 1.09598
 C2139 C 0.56246 0.56210 1.14227
 C2140 C 0.45186 0.45183 1.10930
 H2141 H 0.45708 0.45706 1.09623
 C2142 C 0.43762 0.43755 1.14258
 C2143 C 0.54827 0.60834 1.04834
 H2144 H 0.54303 0.59529 1.04316
 C2145 C 0.56258 0.64159 1.06249
 C2146 C 0.45185 0.39159 1.04864
 H2147 H 0.45710 0.40464 1.04344
 C2148 C 0.43751 0.35835 1.06283
 C2149 C 0.60854 0.54773 1.04866
 H2150 H 0.59553 0.54245 1.04342
 C2151 C 0.64168 0.56210 1.06294
 C2152 C 0.39146 0.45194 1.04863
 H2153 H 0.40450 0.45714 1.04338
 C2154 C 0.35824 0.43776 1.06295
 C2155 C 0.45194 0.54814 1.10913
 H2156 H 0.45712 0.54285 1.09608
 C2157 C 0.43777 0.56262 1.14234
 C2158 C 0.54834 0.45138 1.10938
 H2159 H 0.54309 0.45671 1.09637
 C2160 C 0.56264 0.43685 1.14253
 C2161 C 0.60871 0.45157 1.04852
 H2162 H 0.59571 0.45687 1.04328
 C2163 C 0.64184 0.43714 1.06279
 C2164 C 0.39139 0.54827 1.04882
 H2165 H 0.40440 0.54300 1.04356
 C2166 C 0.35822 0.56259 1.06314
 C2167 C 0.45174 0.60882 1.04890
 H2168 H 0.45698 0.59582 1.04356
 C2169 C 0.43747 0.64194 1.06344
 C2170 C 0.54815 0.39147 1.04854
 H2171 H 0.54296 0.40456 1.04337
 C2172 C 0.56235 0.35812 1.06268
 O2173 O 0.56678 0.48188 0.90763
 O2174 O 0.58828 0.48187 0.88594
 C2175 C 0.57329 0.47552 0.89256
 C2176 C 0.56362 0.46018 0.88301
 C2177 C 0.57054 0.45301 0.86629
 H2178 H 0.58274 0.45911 0.86007
 O2179 O 0.43330 0.51797 0.90795
 O2180 O 0.41176 0.51809 0.88633
 C2181 C 0.42679 0.52438 0.89290
 C2182 C 0.43648 0.53970 0.88330
 C2183 C 0.42959 0.54682 0.86654
 H2184 H 0.41740 0.54070 0.86033
 O2185 O 0.48201 0.59205 0.93350
 O2186 O 0.48195 0.61371 0.91195
 C2187 C 0.47563 0.60710 0.92699
 C2188 C 0.46032 0.61667 0.93671
 C2189 C 0.45305 0.63329 0.92967
 H2190 H 0.45903 0.63941 0.91734
 O2191 O 0.51809 0.40781 0.93323
 O2192 O 0.51808 0.38617 0.91168
 C2193 C 0.52445 0.39276 0.92670
 C2194 C 0.53981 0.38320 0.93636
 C2195 C 0.54703 0.36654 0.92937
 H2196 H 0.54098 0.36038 0.91711
 O2197 O 0.59217 0.43316 0.98201
 O2198 O 0.61371 0.41154 0.98199
 C2199 C 0.60715 0.42657 0.97559
 C2200 C 0.61668 0.43615 0.96013
 C2201 C 0.63336 0.42918 0.95296
 H2202 H 0.63977 0.41723 0.95938
 O2203 O 0.40801 0.56698 0.98252
 O2204 O 0.38641 0.58854 0.98241
 C2205 C 0.39303 0.57353 0.97605
 C2206 C 0.38357 0.56390 0.96059
 C2207 C 0.36693 0.57090 0.95332
 H2208 H 0.36074 0.58313 0.95939
 O2209 O 0.51811 0.56678 0.90798
 O2210 O 0.51807 0.58841 0.88640
 C2211 C 0.52445 0.57338 0.89294
 C2212 C 0.53981 0.56379 0.88332
 C2213 C 0.54697 0.57086 0.86666
 H2214 H 0.54059 0.58287 0.86032
 O2215 O 0.48201 0.43323 0.90784
 O2216 O 0.48196 0.41163 0.88626
 C2217 C 0.47563 0.42667 0.89282
 C2218 C 0.46025 0.43629 0.88325
 C2219 C 0.45305 0.42925 0.86661
 H2220 H 0.45945 0.41728 0.86022
 O2221 O 0.59221 0.51791 0.93298
 O2222 O 0.61379 0.51793 0.91137
 C2223 C 0.60724 0.52426 0.92643
 C2224 C 0.61684 0.53954 0.93615
 C2225 C 0.63350 0.54674 0.92919
 H2226 H 0.63965 0.54075 0.91688
 O2227 O 0.40785 0.48188 0.93329
 O2228 O 0.38624 0.48200 0.91173
 C2229 C 0.39281 0.47557 0.92674
 C2230 C 0.38323 0.46019 0.93637
 C2231 C 0.36662 0.45298 0.92934
 H2232 H 0.36027 0.45933 0.91732
 O2233 O 0.56700 0.59173 0.98202
 O2234 O 0.58857 0.61330 0.98203
 C2235 C 0.57356 0.60675 0.97565
 C2236 C 0.56395 0.61638 0.96028
 C2237 C 0.57092 0.63308 0.95315
 H2238 H 0.58290 0.63942 0.95953
 O2239 O 0.43316 0.40805 0.98216
 O2240 O 0.41166 0.38641 0.98221
 C2241 C 0.42664 0.39302 0.97580
 C2242 C 0.43627 0.38345 0.96039
 C2243 C 0.42937 0.36671 0.95332
 H2244 H 0.41746 0.36029 0.95978
 O2245 O 0.43319 0.48184 0.90791
 O2246 O 0.41164 0.48193 0.88630
 C2247 C 0.42664 0.47552 0.89286
 C2248 C 0.43627 0.46017 0.88324
 C2249 C 0.42925 0.45289 0.86660
 H2250 H 0.41697 0.45891 0.86046
 O2251 O 0.56683 0.51803 0.90770
 O2252 O 0.58833 0.51806 0.88602
 C2253 C 0.57335 0.52443 0.89266
 C2254 C 0.56371 0.53985 0.88315
 C2255 C 0.57068 0.54713 0.86649
 H2256 H 0.58292 0.54110 0.86029
 O2257 O 0.48194 0.40791 0.93324
 O2258 O 0.48191 0.38625 0.91172
 C2259 C 0.47555 0.39288 0.92673
 C2260 C 0.46019 0.38336 0.93643
 C2261 C 0.45306 0.36662 0.92956
 H2262 H 0.45916 0.36039 0.91734
 O2263 O 0.51815 0.59208 0.93335
 O2264 O 0.51810 0.61377 0.91183
 C2265 C 0.52451 0.60712 0.92682
 C2266 C 0.53992 0.61661 0.93644
 C2267 C 0.54710 0.63332 0.92952
 H2268 H 0.54098 0.63958 0.91733
 O2269 O 0.40772 0.43329 0.98218
 O2270 O 0.38617 0.41170 0.98223
 C2271 C 0.39272 0.42672 0.97582
 C2272 C 0.38315 0.43632 0.96041
 C2273 C 0.36652 0.42932 0.95318
 H2274 H 0.36036 0.41709 0.95929
 O2275 O 0.59230 0.56635 0.98207
 O2276 O 0.61391 0.58787 0.98209
 C2277 C 0.60732 0.57288 0.97570
 C2278 C 0.61686 0.56330 0.96026
 C2279 C 0.63352 0.57029 0.95310
 H2280 H 0.63994 0.58220 0.95956
 O2281 O 0.51811 0.43312 0.90781
 O2282 O 0.51809 0.41154 0.88620
 C2283 C 0.52446 0.42656 0.89276
 C2284 C 0.53978 0.43620 0.88314
 C2285 C 0.54690 0.42924 0.86642
 H2286 H 0.54053 0.41728 0.86003
 O2287 O 0.48199 0.56679 0.90802
 O2288 O 0.48194 0.58840 0.88642
 C2289 C 0.47562 0.57335 0.89298
 C2290 C 0.46031 0.56368 0.88337
 C2291 C 0.45321 0.57060 0.86662
 H2292 H 0.45959 0.58256 0.86020
 O2293 O 0.40815 0.51808 0.93349
 O2294 O 0.38655 0.51822 0.91193
 C2295 C 0.39317 0.52455 0.92696
 C2296 C 0.38368 0.53998 0.93660
 C2297 C 0.36705 0.54718 0.92958
 H2298 H 0.36068 0.54080 0.91759
 O2299 O 0.59210 0.48178 0.93298
 O2300 O 0.61367 0.48175 0.91137
 C2301 C 0.60710 0.47539 0.92642
 C2302 C 0.61667 0.46003 0.93610
 C2303 C 0.63337 0.45288 0.92916
 H2304 H 0.63954 0.45896 0.91691
 O2305 O 0.56683 0.40785 0.98207
 O2306 O 0.58834 0.38619 0.98206
 C2307 C 0.57335 0.39280 0.97569
 C2308 C 0.56373 0.38325 0.96030
 C2309 C 0.57074 0.36660 0.95310
 H2310 H 0.58271 0.36022 0.95948
 O2311 O 0.43342 0.59218 0.98264
 O2312 O 0.41187 0.61381 0.98253
 C2313 C 0.42689 0.60720 0.97621
 C2314 C 0.43651 0.61671 0.96078
 C2315 C 0.42947 0.63333 0.95355
 H2316 H 0.41753 0.63975 0.95996
 Cu2317 Cu 0.57732 0.49990 0.92249
 Cu2318 Cu 0.60318 0.49990 0.89649
 Cu2319 Cu 0.42278 0.49991 0.92283
 Cu2320 Cu 0.39687 0.50008 0.89692
 Cu2321 Cu 0.57744 0.57687 1.00015
 Cu2322 Cu 0.60336 0.60273 1.00018
 Cu2323 Cu 0.57737 0.42268 1.00016
 Cu2324 Cu 0.60319 0.39669 1.00015
 Cu2325 Cu 0.42276 0.57746 1.00071
 Cu2326 Cu 0.39686 0.60338 1.00058
 Cu2327 Cu 0.42263 0.42286 1.00027
 Cu2328 Cu 0.39680 0.39691 1.00035
 Cu2329 Cu 0.50006 0.57726 0.92288
 Cu2330 Cu 0.50000 0.60325 0.89699
 Cu2331 Cu 0.50004 0.42268 0.92270
 Cu2332 Cu 0.50001 0.39672 0.89680
 C2333 C 0.54814 0.45177 0.89123
 H2334 H 0.54294 0.45701 0.90430
 C2335 C 0.56233 0.43750 0.85794
 C2336 C 0.45194 0.54812 0.89151
 H2337 H 0.45711 0.54292 0.90461
 C2338 C 0.43779 0.56233 0.85816
 C2339 C 0.45205 0.60858 0.95238
 H2340 H 0.45736 0.59559 0.95768
 C2341 C 0.43758 0.64167 0.93795
 C2342 C 0.54816 0.39135 0.95193
 H2343 H 0.54288 0.40436 0.95720
 C2344 C 0.56256 0.35819 0.93758
 C2345 C 0.60853 0.45167 0.95168
 H2346 H 0.59550 0.45691 0.95691
 C2347 C 0.64176 0.43740 0.93744
 C2348 C 0.39175 0.54836 0.95220
 H2349 H 0.40476 0.54310 0.95749
 C2350 C 0.35864 0.56270 0.93775
 C2351 C 0.54817 0.54818 0.89135
 H2352 H 0.54291 0.54284 0.90436
 C2353 C 0.56245 0.56269 0.85819
 C2354 C 0.45188 0.45186 0.89134
 H2355 H 0.45717 0.45717 0.90434
 C2356 C 0.43748 0.43736 0.85825
 C2357 C 0.60872 0.54782 0.95179
 H2358 H 0.59570 0.54257 0.95702
 C2359 C 0.64188 0.56218 0.93751
 C2360 C 0.39129 0.45186 0.95200
 H2361 H 0.40428 0.45713 0.95729
 C2362 C 0.35820 0.43750 0.93759
 C2363 C 0.54836 0.60835 0.95192
 H2364 H 0.54312 0.59529 0.95712
 C2365 C 0.56266 0.64160 0.93772
 C2366 C 0.45177 0.39158 0.95194
 H2367 H 0.45696 0.40466 0.95710
 C2368 C 0.43761 0.35824 0.93786
 C2369 C 1.11034 1.10912 1.23648
 C2370 C 1.10297 1.12548 1.24376
 C2371 C 1.11106 1.13376 1.25927
 C2372 C 1.12669 1.12578 1.26778
 C2373 C 1.13397 1.10930 1.26032
 C2374 C 1.12585 1.10105 1.24479
 C2375 C 1.10202 1.10072 1.22043
 C2376 C 1.09499 1.09385 1.20694
 C2377 C 1.08656 1.08586 1.19074
 C2378 C 1.08025 1.09734 1.17645
 C2379 C 1.07215 1.08966 1.16065
 C2380 C 1.07025 1.07036 1.15891
 C2381 C 1.07660 1.05891 1.17337
 C2382 C 1.08469 1.06663 1.18918
 H2383 H 1.09098 1.13187 1.23741
 H2384 H 1.10503 1.14643 1.26447
 H2385 H 1.14591 1.10266 1.26642
 H2386 H 1.13167 1.08838 1.23926
 H2387 H 1.08169 1.11223 1.17748
 H2388 H 1.06770 1.09882 1.14962
 H2389 H 1.07518 1.04402 1.17250
 H2390 H 1.08951 1.05761 1.20017
 C2391 C 1.11076 0.60924 0.73664
 C2392 C 1.10293 0.62515 0.74438
 C2393 C 1.11088 0.63331 0.76002
 C2394 C 1.12685 0.62566 0.76819
 C2395 C 1.13463 0.60963 0.76023
 C2396 C 1.12663 0.60151 0.74457
 C2397 C 1.10249 0.60093 0.72054
 C2398 C 1.09545 0.59413 0.70702
 C2399 C 1.08699 0.58620 0.69082
 C2400 C 1.08058 0.59774 0.67663
 C2401 C 1.07248 0.59011 0.66080
 C2402 C 1.07069 0.57080 0.65896
 C2403 C 1.07710 0.55931 0.67335
 C2404 C 1.08519 0.56699 0.68918
 H2405 H 1.09065 0.63127 0.73833
 H2406 H 1.10442 0.64557 0.76564
 H2407 H 1.14689 0.60330 0.76600
 H2408 H 1.13283 0.58919 0.73866
 H2409 H 1.08194 0.61264 0.67774
 H2410 H 1.06796 0.59930 0.64984
 H2411 H 1.07575 0.54442 0.67241
 H2412 H 1.09007 0.55794 0.70012
 C2413 C 0.61051 1.10956 0.73684
 C2414 C 0.60242 1.12518 0.74487
 C2415 C 0.61045 1.13341 0.76043
 C2416 C 0.62680 1.12615 0.76830
 C2417 C 0.63477 1.11033 0.76000
 C2418 C 0.62669 1.10215 0.74443
 C2419 C 0.60223 1.10124 0.72075
 C2420 C 0.59521 1.09446 0.70721
 C2421 C 0.58679 1.08655 0.69099
 C2422 C 0.58039 1.09810 0.67680
 C2423 C 0.57233 1.09048 0.66095
 C2424 C 0.57056 1.07117 0.65909
 C2425 C 0.57698 1.05967 0.67346
 C2426 C 0.58503 1.06733 0.68932
 H2427 H 0.58989 1.13103 0.73909
 H2428 H 0.60367 1.14546 0.76614
 H2429 H 0.64728 1.10414 0.76538
 H2430 H 0.63308 1.09004 0.73829
 H2431 H 0.58173 1.11299 0.67794
 H2432 H 0.56780 1.09968 0.64999
 H2433 H 0.57565 1.04477 0.67250
 H2434 H 0.58991 1.05827 0.70025
 C2435 C 0.61061 0.60902 1.23691
 C2436 C 0.62596 0.60082 1.24539
 C2437 C 0.63400 0.60901 1.26099
 C2438 C 0.62680 0.62558 1.26836
 C2439 C 0.61134 0.63369 1.25967
 C2440 C 0.60333 0.62547 1.24408
 C2441 C 0.60232 0.60063 1.22085
 C2442 C 0.59530 0.59375 1.20735
 C2443 C 0.58688 0.58575 1.19115
 C2444 C 0.58500 0.56653 1.18961
 C2445 C 0.57694 0.55880 1.17378
 C2446 C 0.57063 0.57024 1.15930
 C2447 C 0.57254 0.58954 1.16102
 C2448 C 0.58060 0.59723 1.17685
 H2449 H 0.63172 0.58808 1.23995
 H2450 H 0.64581 0.60227 1.26722
 H2451 H 0.60533 0.64639 1.26481
 H2452 H 0.59146 0.63195 1.23761
 H2453 H 0.58977 0.55752 1.20063
 H2454 H 0.57552 0.54391 1.17291
 H2455 H 0.56811 0.59869 1.14999
 H2456 H 0.58204 0.61212 1.17786
 C2457 C 0.88943 0.89059 1.23693
 C2458 C 0.87368 0.89843 1.24496
 C2459 C 0.86571 0.89039 1.26069
 C2460 C 0.87338 0.87428 1.26872
 C2461 C 0.88929 0.86655 1.26038
 C2462 C 0.89720 0.87465 1.24466
 C2463 C 0.89767 0.89888 1.22077
 C2464 C 0.90465 0.90571 1.20721
 C2465 C 0.91304 0.91372 1.19099
 C2466 C 0.91483 0.93295 1.18940
 C2467 C 0.92287 0.94070 1.17356
 C2468 C 0.92926 0.92928 1.15911
 C2469 C 0.92745 0.90997 1.16088
 C2470 C 0.91940 0.90226 1.17671
 H2471 H 0.86753 0.91079 1.23906
 H2472 H 0.85354 0.89694 1.26642
 H2473 H 0.89581 0.85425 1.26585
 H2474 H 0.90940 0.86845 1.23854
 H2475 H 0.90999 0.94195 1.20039
 H2476 H 0.92423 0.95560 1.17266
 H2477 H 0.93196 0.90083 1.14988
 H2478 H 0.91803 0.88736 1.17777
 C2479 C 0.88957 0.39054 0.73670
 C2480 C 0.87334 0.39790 0.74423
 C2481 C 0.86523 0.38973 0.75983
 C2482 C 0.87324 0.37398 0.76823
 C2483 C 0.88964 0.36675 0.76041
 C2484 C 0.89768 0.37497 0.74483
 C2485 C 0.89793 0.39889 0.72063
 C2486 C 0.90503 0.40572 0.70713
 C2487 C 0.91358 0.41371 0.69097
 C2488 C 0.91541 0.43293 0.68939
 C2489 C 0.92357 0.44066 0.67360
 C2490 C 0.93003 0.42923 0.65919
 C2491 C 0.92820 0.40992 0.66097
 C2492 C 0.92003 0.40223 0.67675
 H2493 H 0.86692 0.40996 0.73802
 H2494 H 0.85269 0.39589 0.76515
 H2495 H 0.89644 0.35474 0.76619
 H2496 H 0.91026 0.36914 0.73910
 H2497 H 0.91051 0.44194 0.70034
 H2498 H 0.92494 0.45556 0.67270
 H2499 H 0.93276 0.40077 0.64999
 H2500 H 0.91864 0.38733 0.67780
 C2501 C 0.38978 0.89072 0.73671
 C2502 C 0.39710 0.87434 0.74399
 C2503 C 0.38910 0.86619 0.75964
 C2504 C 0.37361 0.87431 0.76828
 C2505 C 0.36636 0.89080 0.76078
 C2506 C 0.37439 0.89892 0.74511
 C2507 C 0.39812 0.89908 0.72062
 C2508 C 0.40520 0.90595 0.70714
 C2509 C 0.41370 0.91400 0.69099
 C2510 C 0.42007 0.90258 0.67669
 C2511 C 0.42820 0.91033 0.66092
 C2512 C 0.43006 0.92965 0.65923
 C2513 C 0.42368 0.94103 0.67371
 C2514 C 0.41557 0.93323 0.68950
 H2515 H 0.40900 0.86786 0.73758
 H2516 H 0.39514 0.85353 0.76487
 H2517 H 0.35451 0.89753 0.76694
 H2518 H 0.36860 0.91161 0.73957
 H2519 H 0.41865 0.88768 0.67767
 H2520 H 0.43270 0.90123 0.64988
 H2521 H 0.42509 0.95593 0.67288
 H2522 H 0.41073 0.94220 0.70051
 C2523 C 0.38927 0.39070 1.23723
 C2524 C 0.37307 0.39810 1.24476
 C2525 C 0.36495 0.38996 1.26036
 C2526 C 0.37291 0.37418 1.26875
 C2527 C 0.38929 0.36691 1.26093
 C2528 C 0.39734 0.37510 1.24534
 C2529 C 0.39761 0.39904 1.22115
 C2530 C 0.40468 0.40589 1.20765
 C2531 C 0.41315 0.41388 1.19147
 C2532 C 0.41497 0.43311 1.18988
 C2533 C 0.42306 0.44084 1.17406
 C2534 C 0.42947 0.42941 1.15963
 C2535 C 0.42763 0.41010 1.16141
 C2536 C 0.41953 0.40240 1.17722
 H2537 H 0.36668 0.41018 1.23856
 H2538 H 0.35242 0.39616 1.26569
 H2539 H 0.39606 0.35487 1.26670
 H2540 H 0.40990 0.36924 1.23960
 H2541 H 0.41011 0.44212 1.20086
 H2542 H 0.42443 0.45574 1.17316
 H2543 H 0.43214 0.40095 1.15041
 H2544 H 0.41813 0.38751 1.17827
 C2545 C 0.88935 1.10925 0.76319
 C2546 C 0.87427 1.10080 0.75449
 C2547 C 0.86617 1.10900 0.73890
 C2548 C 0.87305 1.12580 0.73178
 C2549 C 0.88822 1.13417 0.74070
 C2550 C 0.89629 1.12594 0.75627
 C2551 C 0.89772 1.10086 0.77923
 C2552 C 0.90482 1.09401 0.79271
 C2553 C 0.91335 1.08603 0.80888
 C2554 C 0.91528 1.06681 0.81043
 C2555 C 0.92341 1.05909 0.82624
 C2556 C 0.92974 1.07053 0.84069
 C2557 C 0.92780 1.08984 0.83894
 C2558 C 0.91966 1.09752 0.82314
 H2559 H 0.86878 1.08787 0.75974
 H2560 H 0.85460 1.10206 0.73245
 H2561 H 0.89389 1.14712 0.73580
 H2562 H 0.90793 1.13263 0.76292
 H2563 H 0.91048 1.05780 0.79945
 H2564 H 0.92487 1.04420 0.82712
 H2565 H 0.93226 1.09899 0.84995
 H2566 H 0.91819 1.11241 0.82211
 C2567 C 0.89000 0.60940 0.26332
 C2568 C 0.89846 0.62454 0.25474
 C2569 C 0.89039 0.63270 0.23914
 C2570 C 0.87367 0.62582 0.23186
 C2571 C 0.86529 0.61055 0.24064
 C2572 C 0.87341 0.60242 0.25624
 C2573 C 0.89829 0.60109 0.27944
 C2574 C 0.90519 0.59417 0.29298
 C2575 C 0.91332 0.58594 0.30922
 C2576 C 0.93255 0.58428 0.31071
 C2577 C 0.94041 0.57639 0.32657
 C2578 C 0.92911 0.57003 0.34111
 C2579 C 0.90980 0.57176 0.33946
 C2580 C 0.90197 0.57966 0.32362
 H2581 H 0.91132 0.63006 0.26011
 H2582 H 0.89736 0.64434 0.23284
 H2583 H 0.85243 0.60486 0.23558
 H2584 H 0.86671 0.59071 0.26281
 H2585 H 0.94146 0.58910 0.29964
 H2586 H 0.95531 0.57511 0.32740
 H2587 H 0.90075 0.56728 0.35055
 H2588 H 0.88707 0.58097 0.32264
 C2589 C 0.38928 1.10906 0.26324
 C2590 C 0.39713 1.12495 0.25547
 C2591 C 0.38916 1.13315 0.23984
 C2592 C 0.37315 1.12557 0.23172
 C2593 C 0.36536 1.10957 0.23971
 C2594 C 0.37337 1.10140 0.25535
 C2595 C 0.39751 1.10070 0.27936
 C2596 C 0.40446 1.09383 0.29290
 C2597 C 0.41279 1.08583 0.30915
 C2598 C 0.41897 1.09730 0.32347
 C2599 C 0.42699 1.08961 0.33932
 C2600 C 0.42896 1.07031 0.34105
 C2601 C 0.42272 1.05887 0.32656
 C2602 C 0.41470 1.06660 0.31071
 H2603 H 0.40944 1.13102 0.26149
 H2604 H 0.39563 1.14540 0.23421
 H2605 H 0.35307 1.10328 0.23398
 H2606 H 0.36716 1.08910 0.26128
 H2607 H 0.41749 1.11220 0.32244
 H2608 H 0.43137 1.09876 0.35037
 H2609 H 0.42419 1.04398 0.32744
 H2610 H 0.40998 1.05760 0.29968
 C2611 C 0.38939 0.60926 0.76357
 C2612 C 0.37434 0.60082 0.75481
 C2613 C 0.36630 0.60902 0.73920
 C2614 C 0.37320 0.62583 0.73211
 C2615 C 0.38833 0.63420 0.74109
 C2616 C 0.39634 0.62597 0.75669
 C2617 C 0.39771 0.60086 0.77963
 C2618 C 0.40478 0.59398 0.79311
 C2619 C 0.41327 0.58598 0.80928
 C2620 C 0.41512 0.56676 0.81087
 C2621 C 0.42325 0.55903 0.82668
 C2622 C 0.42965 0.57046 0.84110
 C2623 C 0.42778 0.58977 0.83932
 C2624 C 0.41965 0.59746 0.82352
 H2625 H 0.36884 0.58788 0.76004
 H2626 H 0.35476 0.60208 0.73271
 H2627 H 0.39401 0.64715 0.73622
 H2628 H 0.40795 0.63265 0.76339
 H2629 H 0.41026 0.55774 0.79991
 H2630 H 0.42463 0.54413 0.82758
 H2631 H 0.43227 0.59892 0.85032
 H2632 H 0.41823 0.61236 0.82247
 C2633 C 1.11008 0.89042 0.76307
 C2634 C 1.10171 0.87515 0.75464
 C2635 C 1.10975 0.86702 0.73902
 C2636 C 1.12633 0.87404 0.73157
 C2637 C 1.13463 0.88943 0.74019
 C2638 C 1.12655 0.89754 0.75582
 C2639 C 1.10180 0.89871 0.77918
 C2640 C 1.09490 0.90560 0.79273
 C2641 C 1.08678 0.91376 0.80900
 C2642 C 1.06754 0.91541 0.81053
 C2643 C 1.05969 0.92320 0.82643
 C2644 C 1.07100 0.92946 0.84099
 C2645 C 1.09032 0.92776 0.83929
 C2646 C 1.09813 0.91996 0.82340
 H2647 H 1.08895 0.86952 0.76015
 H2648 H 1.10285 0.85529 0.73283
 H2649 H 1.14739 0.89524 0.73499
 H2650 H 1.13316 0.90935 0.76226
 H2651 H 1.05863 0.91068 0.79943
 H2652 H 1.04479 0.92449 0.82729
 H2653 H 1.09937 0.93217 0.85039
 H2654 H 1.11303 0.91867 0.82239
 C2655 C 1.11003 0.39012 0.26296
 C2656 C 1.12613 0.39766 0.25531
 C2657 C 1.13429 0.38949 0.23976
 C2658 C 1.12644 0.37362 0.23161
 C2659 C 1.11022 0.36617 0.23946
 C2660 C 1.10210 0.37438 0.25500
 C2661 C 1.10173 0.39844 0.27905
 C2662 C 1.09483 0.40534 0.29259
 C2663 C 1.08672 0.41355 0.30884
 C2664 C 1.09810 0.41985 0.32318
 C2665 C 1.09031 0.42774 0.33904
 C2666 C 1.07099 0.42941 0.34077
 C2667 C 1.05966 0.42302 0.32629
 C2668 C 1.06749 0.41515 0.31041
 H2669 H 1.13240 0.40985 0.26139
 H2670 H 1.14673 0.39567 0.23422
 H2671 H 1.10372 0.35400 0.23371
 H2672 H 1.08964 0.36841 0.26084
 H2673 H 1.11300 0.41859 0.32215
 H2674 H 1.09938 0.43225 0.35009
 H2675 H 1.04476 0.42427 0.32718
 H2676 H 1.05856 0.41031 0.29938
 C2677 C 0.60997 0.89060 0.26309
 C2678 C 0.60254 0.87436 0.25567
 C2679 C 0.61066 0.86612 0.24015
 C2680 C 0.62640 0.87401 0.23178
 C2681 C 0.63376 0.89039 0.23939
 C2682 C 0.62560 0.89860 0.25492
 C2683 C 0.60164 0.89898 0.27914
 C2684 C 0.59469 0.90590 0.29265
 C2685 C 0.58652 0.91410 0.30888
 C2686 C 0.56729 0.91570 0.31039
 C2687 C 0.55939 0.92350 0.32628
 C2688 C 0.57067 0.92983 0.34083
 C2689 C 0.58999 0.92815 0.33916
 C2690 C 0.59785 0.92035 0.32329
 H2691 H 0.59046 0.86803 0.26191
 H2692 H 0.60457 0.85354 0.23485
 H2693 H 0.64579 0.89695 0.23340
 H2694 H 0.63149 0.91117 0.26057
 H2695 H 0.55840 0.91091 0.29930
 H2696 H 0.54449 0.92474 0.32712
 H2697 H 0.59902 0.93260 0.35027
 H2698 H 0.61275 0.91909 0.32231
 C2699 C 0.61051 0.39079 0.76324
 C2700 C 0.62561 0.39921 0.75455
 C2701 C 0.63373 0.39099 0.73900
 C2702 C 0.62683 0.37419 0.73191
 C2703 C 0.61163 0.36586 0.74082
 C2704 C 0.60355 0.37411 0.75636
 C2705 C 0.60218 0.39917 0.77928
 C2706 C 0.59513 0.40601 0.79278
 C2707 C 0.58668 0.41396 0.80897
 C2708 C 0.58487 0.43318 0.81060
 C2709 C 0.57681 0.44087 0.82644
 C2710 C 0.57044 0.42939 0.84086
 C2711 C 0.57226 0.41008 0.83905
 C2712 C 0.58032 0.40243 0.82320
 H2713 H 0.63112 0.41214 0.75978
 H2714 H 0.64532 0.39789 0.73255
 H2715 H 0.60594 0.35291 0.73595
 H2716 H 0.59188 0.36745 0.76302
 H2717 H 0.58973 0.44221 0.79964
 H2718 H 0.57544 0.45576 0.82738
 H2719 H 0.56777 0.40090 0.85003
 H2720 H 0.58171 0.38754 0.82211
 C2721 C 1.23629 1.10928 1.10997
 C2722 C 1.24403 1.12516 1.10205
 C2723 C 1.25960 1.13338 1.11003
 C2724 C 1.26770 1.12582 1.12611
 C2725 C 1.25974 1.10984 1.13396
 C2726 C 1.24417 1.10165 1.12594
 C2727 C 1.22022 1.10091 1.10175
 C2728 C 1.20670 1.09403 1.09484
 C2729 C 1.19046 1.08603 1.08657
 C2730 C 1.17617 1.09751 1.08036
 C2731 C 1.16031 1.08983 1.07243
 C2732 C 1.15854 1.07052 1.07061
 C2733 C 1.17300 1.05907 1.07687
 C2734 C 1.18887 1.06680 1.08479
 H2735 H 1.23802 1.13121 1.08969
 H2736 H 1.26522 1.14562 1.10351
 H2737 H 1.26545 1.10357 1.14630
 H2738 H 1.23826 1.08936 1.13220
 H2739 H 1.17723 1.11241 1.08174
 H2740 H 1.14929 1.09898 1.06802
 H2741 H 1.17210 1.04418 1.07550
 H2742 H 1.19988 1.05778 1.08954
 C2743 C 1.23647 0.60977 0.61006
 C2744 C 1.24343 0.62640 0.60302
 C2745 C 1.25898 0.63461 0.61108
 C2746 C 1.26782 0.62628 0.62636
 C2747 C 1.26065 0.60954 0.63334
 C2748 C 1.24510 0.60137 0.62524
 C2749 C 1.22044 0.60138 0.60173
 C2750 C 1.20696 0.59448 0.59472
 C2751 C 1.19079 0.58643 0.58634
 C2752 C 1.17649 0.59788 0.58003
 C2753 C 1.16069 0.59016 0.57201
 C2754 C 1.15897 0.57084 0.57018
 C2755 C 1.17343 0.55944 0.57652
 C2756 C 1.18924 0.56720 0.58454
 H2757 H 1.23683 0.63306 0.59130
 H2758 H 1.26393 0.64751 0.60534
 H2759 H 1.26703 0.60263 0.64499
 H2760 H 1.23981 0.58848 0.63082
 H2761 H 1.17750 0.61278 0.58142
 H2762 H 1.14967 0.59928 0.56755
 H2763 H 1.17256 0.54453 0.57517
 H2764 H 1.20023 0.55821 0.58935
 C2765 C 0.73614 1.10979 0.60989
 C2766 C 0.74308 1.12644 0.60287
 C2767 C 0.75863 1.13465 0.61092
 C2768 C 0.76750 1.12630 0.62618
 C2769 C 0.76035 1.10954 0.63314
 C2770 C 0.74479 1.10138 0.62505
 C2771 C 0.72010 1.10142 0.60157
 C2772 C 0.70662 1.09454 0.59456
 C2773 C 0.69043 1.08655 0.58616
 C2774 C 0.67615 1.09804 0.57993
 C2775 C 0.66031 1.09037 0.57193
 C2776 C 0.65855 1.07106 0.57006
 C2777 C 0.67301 1.05961 0.57631
 C2778 C 0.68886 1.06732 0.58430
 H2779 H 0.73645 1.13312 0.59117
 H2780 H 0.76356 1.14756 0.60519
 H2781 H 0.76675 1.10262 0.64477
 H2782 H 0.73951 1.08848 0.63062
 H2783 H 0.67718 1.11293 0.58136
 H2784 H 0.64929 1.09953 0.56753
 H2785 H 0.67211 1.04472 0.57491
 H2786 H 0.69985 1.05830 0.58905
 C2787 C 0.73648 0.60913 1.11036
 C2788 C 0.74431 0.62490 1.10231
 C2789 C 0.75987 0.63316 1.11029
 C2790 C 0.76787 0.62575 1.12649
 C2791 C 0.75983 0.60986 1.13446
 C2792 C 0.74426 0.60164 1.12644
 C2793 C 0.72039 0.60074 1.10216
 C2794 C 0.70686 0.59384 1.09527
 C2795 C 0.69061 0.58581 1.08702
 C2796 C 0.67629 0.59728 1.08080
 C2797 C 0.66045 0.58957 1.07286
 C2798 C 0.65870 0.57026 1.07104
 C2799 C 0.67317 0.55884 1.07732
 C2800 C 0.68903 0.56658 1.08525
 H2801 H 0.73838 0.63084 1.08986
 H2802 H 0.76555 0.64532 1.10369
 H2803 H 0.76546 0.60371 1.14690
 H2804 H 0.73829 0.58944 1.13281
 H2805 H 0.67733 0.61218 1.08219
 H2806 H 0.64942 0.59871 1.06843
 H2807 H 0.67228 0.54394 1.07595
 H2808 H 0.70004 0.55758 1.09000
 C2809 C 1.23632 0.89060 0.88995
 C2810 C 1.24366 0.87431 0.89744
 C2811 C 1.25930 0.86613 0.88950
 C2812 C 1.26788 0.87413 0.87389
 C2813 C 1.26033 0.89053 0.86647
 C2814 C 1.24468 0.89867 0.87444
 C2815 C 1.22022 0.89899 0.89818
 C2816 C 1.20671 0.90590 0.90512
 C2817 C 1.19050 0.91397 0.91345
 C2818 C 1.17618 0.90254 0.91971
 C2819 C 1.16037 0.91027 0.92772
 C2820 C 1.15865 0.92959 0.92958
 C2821 C 1.17312 0.94098 0.92326
 C2822 C 1.18895 0.93320 0.91526
 H2823 H 1.23728 0.86792 0.90943
 H2824 H 1.26457 0.85355 0.89566
 H2825 H 1.26644 0.89717 0.85452
 H2826 H 1.23910 0.91128 0.86851
 H2827 H 1.17720 0.88764 0.91831
 H2828 H 1.14934 0.90116 0.93217
 H2829 H 1.17224 0.95589 0.92464
 H2830 H 1.19996 0.94219 0.91048
 C2831 C 1.23672 0.39085 0.38912
 C2832 C 1.24474 0.37526 0.39730
 C2833 C 1.26031 0.36699 0.38933
 C2834 C 1.26821 0.37419 0.37293
 C2835 C 1.25990 0.38996 0.36484
 C2836 C 1.24432 0.39817 0.37288
 C2837 C 1.22063 0.39925 0.39735
 C2838 C 1.20710 0.40612 0.40431
 C2839 C 1.19086 0.41411 0.41266
 C2840 C 1.17663 0.40260 0.41899
 C2841 C 1.16078 0.41026 0.42701
 C2842 C 1.15893 0.42957 0.42879
 C2843 C 1.17332 0.44103 0.42243
 C2844 C 1.18919 0.43334 0.41443
 H2845 H 1.23894 0.36945 0.40988
 H2846 H 1.26602 0.35497 0.39617
 H2847 H 1.26528 0.39610 0.35229
 H2848 H 1.23819 0.41024 0.36640
 H2849 H 1.17774 0.38770 0.41763
 H2850 H 1.14982 0.40109 0.43151
 H2851 H 1.17237 0.45593 0.42378
 H2852 H 1.20014 0.44237 0.40961
 C2853 C 0.73634 0.89097 0.38932
 C2854 C 0.74479 0.89912 0.37390
 C2855 C 0.76048 0.89101 0.36598
 C2856 C 0.76799 0.87458 0.37338
 C2857 C 0.75932 0.86651 0.38890
 C2858 C 0.74363 0.87465 0.39678
 C2859 C 0.72021 0.89933 0.39750
 C2860 C 0.70666 0.90622 0.40440
 C2861 C 0.69043 0.91427 0.41268
 C2862 C 0.68884 0.93351 0.41443
 C2863 C 0.67300 0.94128 0.42240
 C2864 C 0.65856 0.92988 0.42876
 C2865 C 0.66031 0.91056 0.42697
 C2866 C 0.67614 0.90283 0.41898
 H2867 H 0.73925 0.91175 0.36799
 H2868 H 0.76667 0.89770 0.35410
 H2869 H 0.76455 0.85390 0.39503
 H2870 H 0.73718 0.86821 0.40871
 H2871 H 0.69984 0.94249 0.40963
 H2872 H 0.67210 0.95618 0.42374
 H2873 H 0.64930 0.90144 0.43145
 H2874 H 0.67719 0.88793 0.41763
 C2875 C 0.73661 0.39074 0.88944
 C2876 C 0.74524 0.39911 0.87424
 C2877 C 0.76081 0.39093 0.86615
 C2878 C 0.76802 0.37420 0.87316
 C2879 C 0.75919 0.36592 0.88847
 C2880 C 0.74362 0.37413 0.89653
 C2881 C 0.72053 0.39910 0.89774
 C2882 C 0.70700 0.40594 0.90474
 C2883 C 0.69076 0.41390 0.91313
 C2884 C 0.68911 0.43312 0.91499
 C2885 C 0.67325 0.44079 0.92302
 C2886 C 0.65884 0.42931 0.92933
 C2887 C 0.66068 0.41001 0.92746
 C2888 C 0.67653 0.40237 0.91941
 H2889 H 0.73992 0.41197 0.86863
 H2890 H 0.76719 0.39781 0.85448
 H2891 H 0.76417 0.35304 0.89426
 H2892 H 0.73703 0.36750 0.90827
 H2893 H 0.70006 0.44217 0.91021
 H2894 H 0.67229 0.45569 0.92442
 H2895 H 0.64970 0.40083 0.93190
 H2896 H 0.67762 0.38748 0.91799
 C2897 C 0.76344 0.89011 1.10987
 C2898 C 0.75528 0.89813 1.12551
 C2899 C 0.73970 0.89001 1.13362
 C2900 C 0.73204 0.87369 1.12620
 C2901 C 0.74042 0.86575 1.11046
 C2902 C 0.75598 0.87391 1.10238
 C2903 C 0.77949 0.89843 1.10156
 C2904 C 0.79300 0.90535 1.09463
 C2905 C 0.80921 0.91356 1.08651
 C2906 C 0.82356 0.91978 1.09791
 C2907 C 0.83941 0.92762 1.09011
 C2908 C 0.84112 0.92937 1.07075
 C2909 C 0.82663 0.92307 1.05938
 C2910 C 0.81076 0.91523 1.06723
 H2911 H 0.76096 0.91067 1.13144
 H2912 H 0.73372 0.89660 1.14566
 H2913 H 0.73507 0.85320 1.10432
 H2914 H 0.76222 0.86755 1.09030
 H2915 H 0.82254 0.91846 1.11284
 H2916 H 0.85046 0.93204 1.09920
 H2917 H 0.82750 0.92437 1.04446
 H2918 H 0.79973 0.91047 1.05828
 C2919 C 0.76364 0.39019 0.60982
 C2920 C 0.75618 0.37399 0.60234
 C2921 C 0.74062 0.36583 0.61043
 C2922 C 0.73225 0.37378 0.62617
 C2923 C 0.73992 0.39011 0.63358
 C2924 C 0.75549 0.39822 0.62545
 C2925 C 0.77974 0.39848 0.60153
 C2926 C 0.79328 0.40535 0.59464
 C2927 C 0.80956 0.41350 0.58657
 C2928 C 0.81121 0.41513 0.56731
 C2929 C 0.82714 0.42289 0.55952
 C2930 C 0.84161 0.42915 0.57093
 C2931 C 0.83980 0.42745 0.59028
 C2932 C 0.82388 0.41968 0.59803
 H2933 H 0.76241 0.36762 0.59026
 H2934 H 0.73527 0.35328 0.60431
 H2935 H 0.73394 0.39671 0.64562
 H2936 H 0.76118 0.41077 0.63138
 H2937 H 0.80019 0.41039 0.55831
 H2938 H 0.82807 0.42416 0.54459
 H2939 H 0.85083 0.43184 0.59942
 H2940 H 0.82280 0.41839 0.61295
 C2941 C 0.26355 0.89016 0.60984
 C2942 C 0.25515 0.87491 0.60141
 C2943 C 0.23950 0.86682 0.60939
 C2944 C 0.23199 0.87389 0.62596
 C2945 C 0.24059 0.88925 0.63432
 C2946 C 0.25625 0.89731 0.62630
 C2947 C 0.27967 0.89843 0.60160
 C2948 C 0.29323 0.90532 0.59474
 C2949 C 0.30948 0.91350 0.58669
 C2950 C 0.31110 0.91517 0.56743
 C2951 C 0.32700 0.92300 0.55964
 C2952 C 0.34146 0.92928 0.57106
 C2953 C 0.33967 0.92755 0.59041
 C2954 C 0.32379 0.91971 0.59815
 H2955 H 0.26070 0.86925 0.58866
 H2956 H 0.23333 0.85510 0.60245
 H2957 H 0.23535 0.89509 0.64708
 H2958 H 0.26268 0.90911 0.63296
 H2959 H 0.30010 0.91041 0.55843
 H2960 H 0.32792 0.92430 0.54471
 H2961 H 0.35069 0.93196 0.59955
 H2962 H 0.32271 0.91840 0.61308
 C2963 C 0.26352 0.39021 1.10999
 C2964 C 0.25561 0.37450 1.10193
 C2965 C 0.24005 0.36629 1.10995
 C2966 C 0.23213 0.37368 1.12619
 C2967 C 0.24024 0.38951 1.13417
 C2968 C 0.25581 0.39769 1.12611
 C2969 C 0.27960 0.39856 1.10176
 C2970 C 0.29313 0.40550 1.09490
 C2971 C 0.30935 0.41374 1.08683
 C2972 C 0.31090 0.41549 1.06757
 C2973 C 0.32675 0.42340 1.05976
 C2974 C 0.34123 0.42967 1.07115
 C2975 C 0.33952 0.42785 1.09050
 C2976 C 0.32369 0.41992 1.09826
 H2977 H 0.26149 0.36858 1.08946
 H2978 H 0.23432 0.35415 1.10335
 H2979 H 0.23465 0.39564 1.14663
 H2980 H 0.26185 0.40985 1.13248
 H2981 H 0.29988 0.41074 1.05859
 H2982 H 0.32762 0.42476 1.04483
 H2983 H 0.35056 0.43225 1.09962
 H2984 H 0.32268 0.41853 1.11319
 C2985 C 0.76333 1.10957 0.88963
 C2986 C 0.75524 1.10156 0.87395
 C2987 C 0.73964 1.10966 0.86583
 C2988 C 0.73188 1.12594 0.87327
 C2989 C 0.74018 1.13385 0.88906
 C2990 C 0.75577 1.12572 0.89715
 C2991 C 0.77945 1.10130 0.89793
 C2992 C 0.79301 1.09444 0.90485
 C2993 C 0.80928 1.08630 0.91298
 C2994 C 0.82366 1.08011 0.90158
 C2995 C 0.83954 1.07228 0.90938
 C2996 C 0.84125 1.07053 0.92873
 C2997 C 0.82673 1.07683 0.94010
 C2998 C 0.81085 1.08464 0.93225
 H2999 H 0.76100 1.08905 0.86799
 H3000 H 0.73373 1.10308 0.85376
 H3001 H 0.73475 1.14635 0.89523
 H3002 H 0.76193 1.13206 0.90926
 H3003 H 0.82265 1.08141 0.88665
 H3004 H 0.85061 1.06788 0.90028
 H3005 H 0.82759 1.07554 0.95503
 H3006 H 0.79980 1.08940 0.94122
 C3007 C 0.76386 0.60960 0.39020
 C3008 C 0.75595 0.62537 0.39816
 C3009 C 0.74031 0.63350 0.39018
 C3010 C 0.73233 0.62598 0.37404
 C3011 C 0.74046 0.61011 0.36614
 C3012 C 0.75610 0.60201 0.37416
 C3013 C 0.77994 0.60124 0.39848
 C3014 C 0.79345 0.59427 0.40538
 C3015 C 0.80966 0.58597 0.41346
 C3016 C 0.81125 0.58428 0.43273
 C3017 C 0.82710 0.57636 0.44053
 C3018 C 0.84155 0.56999 0.42912
 C3019 C 0.83979 0.57173 0.40977
 C3020 C 0.82395 0.57966 0.40202
 H3021 H 0.76186 0.63139 0.41057
 H3022 H 0.73454 0.64564 0.39676
 H3023 H 0.73483 0.60386 0.35375
 H3024 H 0.76214 0.58981 0.36784
 H3025 H 0.80025 0.58910 0.44173
 H3026 H 0.82801 0.57507 0.45545
 H3027 H 0.85080 0.56725 0.40064
 H3028 H 0.82291 0.58098 0.38709
 C3029 C 0.26351 1.10932 0.39003
 C3030 C 0.25568 1.12521 0.39784
 C3031 C 0.24015 1.13341 0.38971
 C3032 C 0.23219 1.12584 0.37358
 C3033 C 0.24020 1.10981 0.36586
 C3034 C 0.25574 1.10164 0.37403
 C3035 C 0.27959 1.10101 0.39838
 C3036 C 0.29312 1.09414 0.40533
 C3037 C 0.30936 1.08599 0.41350
 C3038 C 0.31087 1.08433 0.43278
 C3039 C 0.32673 1.07650 0.44067
 C3040 C 0.34127 1.07020 0.42934
 C3041 C 0.33962 1.07197 0.40999
 C3042 C 0.32378 1.07980 0.40214
 H3043 H 0.26159 1.13129 0.41021
 H3044 H 0.23451 1.14569 0.39612
 H3045 H 0.23455 1.10351 0.35352
 H3046 H 0.26171 1.08934 0.36785
 H3047 H 0.29980 1.08908 0.44172
 H3048 H 0.32755 1.07520 0.45560
 H3049 H 0.35072 1.06756 0.40092
 H3050 H 0.32282 1.08112 0.38721
 C3051 C 0.26384 0.60991 0.89030
 C3052 C 0.25546 0.62527 0.89858
 C3053 C 0.23982 0.63333 0.89054
 C3054 C 0.23229 0.62614 0.87403
 C3055 C 0.24089 0.61069 0.86581
 C3056 C 0.25653 0.60265 0.87390
 C3057 C 0.27996 0.60166 0.89862
 C3058 C 0.29350 0.59480 0.90556
 C3059 C 0.30975 0.58664 0.91370
 C3060 C 0.31127 0.58497 0.93298
 C3061 C 0.32713 0.57713 0.94085
 C3062 C 0.34166 0.57083 0.92950
 C3063 C 0.33998 0.57258 0.91014
 C3064 C 0.32414 0.58044 0.90232
 H3065 H 0.26101 0.63103 0.91128
 H3066 H 0.23367 0.64515 0.89737
 H3067 H 0.23565 0.60476 0.85310
 H3068 H 0.26294 0.59078 0.86733
 H3069 H 0.30021 0.58973 0.94192
 H3070 H 0.32797 0.57582 0.95578
 H3071 H 0.35106 0.56816 0.90106
 H3072 H 0.32315 0.58175 0.88739
 C3073 C 1.10981 1.23645 1.10917
 C3074 C 1.12535 1.24461 1.10102
 C3075 C 1.13350 1.26017 1.10912
 C3076 C 1.12621 1.26783 1.12553
 C3077 C 1.11058 1.25944 1.13361
 C3078 C 1.10246 1.24388 1.12547
 C3079 C 1.10150 1.22037 1.10090
 C3080 C 1.09453 1.20685 1.09406
 C3081 C 1.08622 1.19065 1.08603
 C3082 C 1.08445 1.18912 1.06678
 C3083 C 1.07646 1.17330 1.05900
 C3084 C 1.07014 1.15883 1.07041
 C3085 C 1.07198 1.16052 1.08975
 C3086 C 1.07997 1.17634 1.09750
 H3087 H 1.13117 1.23892 1.08841
 H3088 H 1.14549 1.26611 1.10244
 H3089 H 1.10456 1.26476 1.14625
 H3090 H 1.09045 1.23764 1.13193
 H3091 H 1.08925 1.20012 1.05778
 H3092 H 1.07510 1.17244 1.04408
 H3093 H 1.06756 1.14947 1.09888
 H3094 H 1.08137 1.17734 1.11241
 C3095 C 1.10987 0.73630 0.60976
 C3096 C 1.12610 0.74370 0.60226
 C3097 C 1.13428 0.75928 0.61031
 C3098 C 1.12632 0.76770 0.62602
 C3099 C 1.10998 0.76008 0.63343
 C3100 C 1.10184 0.74451 0.62535
 C3101 C 1.10149 0.72025 0.60148
 C3102 C 1.09454 0.70676 0.59455
 C3103 C 1.08641 0.69059 0.58627
 C3104 C 1.09777 0.67624 0.57995
 C3105 C 1.08996 0.66045 0.57199
 C3106 C 1.07065 0.65881 0.57023
 C3107 C 1.05933 0.67332 0.57663
 C3108 C 1.06719 0.68911 0.58459
 H3109 H 1.13245 0.73742 0.59020
 H3110 H 1.14682 0.76461 0.60416
 H3111 H 1.10336 0.76609 0.64544
 H3112 H 1.08928 0.73887 0.63128
 H3113 H 1.11266 0.67720 0.58126
 H3114 H 1.09902 0.64938 0.56749
 H3115 H 1.04444 0.67250 0.57533
 H3116 H 1.05827 0.70016 0.58944
 C3117 C 0.60938 1.23691 0.60975
 C3118 C 0.60133 1.24519 0.62530
 C3119 C 0.60948 1.26079 0.63334
 C3120 C 0.62584 1.26836 0.62592
 C3121 C 0.63380 1.25988 0.61025
 C3122 C 0.62562 1.24428 0.60225
 C3123 C 0.60104 1.22081 0.60154
 C3124 C 0.59413 1.20727 0.59465
 C3125 C 0.58604 1.19105 0.58642
 C3126 C 0.56681 1.18953 0.58476
 C3127 C 0.55898 1.17371 0.57682
 C3128 C 0.57032 1.15922 0.57042
 C3129 C 0.58963 1.16091 0.57215
 C3130 C 0.59742 1.17672 0.58010
 H3131 H 0.58876 1.23958 0.63123
 H3132 H 0.60286 1.26683 0.64533
 H3133 H 0.64636 1.26517 0.60411
 H3134 H 0.63198 1.23796 0.59021
 H3135 H 0.55788 1.20057 0.58959
 H3136 H 0.54409 1.17287 0.57552
 H3137 H 0.59870 1.14986 0.56764
 H3138 H 0.61231 1.17771 0.58139
 C3139 C 0.60943 0.73660 1.10971
 C3140 C 0.60138 0.74486 1.12527
 C3141 C 0.60947 0.76049 1.13329
 C3142 C 0.62579 0.76813 1.12584
 C3143 C 0.63375 0.75968 1.11015
 C3144 C 0.62562 0.74405 1.10217
 C3145 C 0.60114 0.72046 1.10152
 C3146 C 0.59429 0.70689 1.09465
 C3147 C 0.58628 0.69062 1.08644
 C3148 C 0.56706 0.68904 1.08469
 C3149 C 0.55932 0.67315 1.07680
 C3150 C 0.57072 0.65865 1.07054
 C3151 C 0.59002 0.66040 1.07235
 C3152 C 0.59772 0.67628 1.08024
 H3153 H 0.58884 0.73920 1.13123
 H3154 H 0.60285 0.76652 1.14528
 H3155 H 0.64627 0.76503 1.10397
 H3156 H 0.63198 0.73775 1.09012
 H3157 H 0.55808 0.70008 1.08942
 H3158 H 0.54443 0.67226 1.07544
 H3159 H 0.59915 0.64936 1.06795
 H3160 H 0.61261 0.67733 1.08161
 C3161 C 0.89052 1.23684 0.88986
 C3162 C 0.87429 1.24430 0.89731
 C3163 C 0.86619 1.25993 0.88925
 C3164 C 0.87421 1.26837 0.87358
 C3165 C 0.89057 1.26071 0.86623
 C3166 C 0.89864 1.24507 0.87431
 C3167 C 0.89877 1.22067 0.89810
 C3168 C 0.90559 1.20708 0.90499
 C3169 C 0.91360 1.19078 0.91321
 C3170 C 0.90215 1.17643 0.91937
 C3171 C 0.90985 1.16053 0.92727
 C3172 C 0.92914 1.15877 0.92911
 C3173 C 0.94055 1.17327 0.92288
 C3174 C 0.93281 1.18917 0.91498
 H3175 H 0.86787 1.23801 0.90934
 H3176 H 0.85363 1.26529 0.89536
 H3177 H 0.89724 1.26672 0.85425
 H3178 H 0.91121 1.23940 0.86842
 H3179 H 0.88726 1.17749 0.91798
 H3180 H 0.90072 1.14948 0.93166
 H3181 H 0.95543 1.17236 0.92426
 H3182 H 0.94180 1.20020 0.91027
 C3183 C 0.89013 0.73669 0.38996
 C3184 C 0.87394 0.74418 0.39746
 C3185 C 0.86580 0.75978 0.38939
 C3186 C 0.87375 0.76816 0.37364
 C3187 C 0.89007 0.76047 0.36624
 C3188 C 0.89817 0.74486 0.37435
 C3189 C 0.89843 0.72055 0.39822
 C3190 C 0.90531 0.70699 0.40512
 C3191 C 0.91337 0.69071 0.41332
 C3192 C 0.90196 0.67637 0.41958
 C3193 C 0.90972 0.66049 0.42744
 C3194 C 0.92903 0.65872 0.42916
 C3195 C 0.94039 0.67322 0.42284
 C3196 C 0.93259 0.68911 0.41498
 H3197 H 0.86758 0.73795 0.40955
 H3198 H 0.85328 0.76518 0.39554
 H3199 H 0.89669 0.76643 0.35421
 H3200 H 0.91072 0.73917 0.36842
 H3201 H 0.88707 0.67743 0.41828
 H3202 H 0.90062 0.64944 0.43190
 H3203 H 0.95528 0.67232 0.42412
 H3204 H 0.94155 0.70014 0.41019
 C3205 C 0.38964 1.23690 0.39022
 C3206 C 0.37344 1.24440 0.39768
 C3207 C 0.36532 1.26002 0.38960
 C3208 C 0.37331 1.26840 0.37388
 C3209 C 0.38963 1.26069 0.36650
 C3210 C 0.39771 1.24507 0.37461
 C3211 C 0.39792 1.22077 0.39850
 C3212 C 0.40477 1.20720 0.40542
 C3213 C 0.41281 1.19093 0.41366
 C3214 C 0.40138 1.17662 0.41995
 C3215 C 0.40913 1.16073 0.42784
 C3216 C 0.42843 1.15894 0.42953
 C3217 C 0.43981 1.17342 0.42319
 C3218 C 0.43203 1.18931 0.41532
 H3219 H 0.36705 1.23816 0.40975
 H3220 H 0.35279 1.26541 0.39573
 H3221 H 0.39627 1.26664 0.35447
 H3222 H 0.41026 1.23936 0.36870
 H3223 H 0.38649 1.17769 0.41867
 H3224 H 0.40002 1.14970 0.43231
 H3225 H 0.45470 1.17250 0.42447
 H3226 H 0.44100 1.20032 0.41051
 C3227 C 0.39039 0.73651 0.89049
 C3228 C 0.37418 0.74397 0.89798
 C3229 C 0.36600 0.75955 0.88991
 C3230 C 0.37393 0.76793 0.87415
 C3231 C 0.39029 0.76030 0.86678
 C3232 C 0.39842 0.74471 0.87489
 C3233 C 0.39871 0.72038 0.89873
 C3234 C 0.40559 0.70682 0.90562
 C3235 C 0.41367 0.69056 0.91383
 C3236 C 0.40228 0.67623 0.92014
 C3237 C 0.41006 0.66039 0.92806
 C3238 C 0.42937 0.65866 0.92978
 C3239 C 0.44072 0.67313 0.92339
 C3240 C 0.43290 0.68899 0.91547
 H3241 H 0.36783 0.73772 0.91007
 H3242 H 0.35347 0.76492 0.89606
 H3243 H 0.39690 0.76628 0.85475
 H3244 H 0.41099 0.73905 0.86897
 H3245 H 0.38739 0.67727 0.91886
 H3246 H 0.40098 0.64935 0.93256
 H3247 H 0.45561 0.67224 0.92466
 H3248 H 0.44184 0.70001 0.91064
 C3249 C 1.10989 0.76362 0.89003
 C3250 C 1.12616 0.75622 0.89745
 C3251 C 1.13430 0.74061 0.88941
 C3252 C 1.12629 0.73214 0.87377
 C3253 C 1.10989 0.73973 0.86645
 C3254 C 1.10178 0.75535 0.87452
 C3255 C 1.10158 0.77974 0.89828
 C3256 C 1.09470 0.79328 0.90521
 C3257 C 1.08661 0.80949 0.91350
 C3258 C 1.09800 0.82383 0.91978
 C3259 C 1.09022 0.83963 0.92777
 C3260 C 1.07091 0.84132 0.92958
 C3261 C 1.05957 0.82683 0.92323
 C3262 C 1.06739 0.81101 0.91525
 H3263 H 1.13257 0.76253 0.90946
 H3264 H 1.14688 0.73529 0.89551
 H3265 H 1.10321 0.73368 0.85450
 H3266 H 1.08918 0.76097 0.86866
 H3267 H 1.11289 0.82283 0.91842
 H3268 H 1.09929 0.85068 0.93224
 H3269 H 1.04468 0.82767 0.92459
 H3270 H 1.05845 0.79999 0.91044
 C3271 C 1.10966 0.26314 0.39031
 C3272 C 1.12588 0.25567 0.39775
 C3273 C 1.13399 0.24004 0.38970
 C3274 C 1.12598 0.23162 0.37403
 C3275 C 1.10961 0.23926 0.36670
 C3276 C 1.10154 0.25490 0.37478
 C3277 C 1.10141 0.27931 0.39854
 C3278 C 1.09459 0.29289 0.40544
 C3279 C 1.08658 0.30917 0.41369
 C3280 C 1.09801 0.32351 0.41986
 C3281 C 1.09030 0.33937 0.42782
 C3282 C 1.07101 0.34110 0.42971
 C3283 C 1.05961 0.32661 0.42347
 C3284 C 1.06737 0.31074 0.41552
 H3285 H 1.13230 0.26195 0.40977
 H3286 H 1.14655 0.23468 0.39580
 H3287 H 1.10293 0.23325 0.35474
 H3288 H 1.08896 0.26057 0.36890
 H3289 H 1.11290 0.32249 0.41843
 H3290 H 1.09941 0.35043 0.43219
 H3291 H 1.04473 0.32750 0.42487
 H3292 H 1.05838 0.29971 0.41080
 C3293 C 0.60982 0.76365 0.39010
 C3294 C 0.62601 0.75620 0.39764
 C3295 C 0.63415 0.74054 0.38968
 C3296 C 0.62622 0.73207 0.37399
 C3297 C 0.60987 0.73969 0.36658
 C3298 C 0.60177 0.75535 0.37457
 C3299 C 0.60149 0.77980 0.39830
 C3300 C 0.59459 0.79336 0.40518
 C3301 C 0.58650 0.80960 0.41342
 C3302 C 0.59787 0.82396 0.41966
 C3303 C 0.59009 0.83981 0.42758
 C3304 C 0.57078 0.84150 0.42939
 C3305 C 0.55945 0.82698 0.42310
 C3306 C 0.56727 0.81113 0.41518
 H3307 H 0.63236 0.76251 0.40968
 H3308 H 0.64666 0.73516 0.39587
 H3309 H 0.60322 0.73362 0.35463
 H3310 H 0.58921 0.76099 0.36863
 H3311 H 0.61276 0.82296 0.41832
 H3312 H 0.59916 0.85088 0.43200
 H3313 H 0.54455 0.82782 0.42446
 H3314 H 0.55834 0.80007 0.41043
 C3315 C 0.60946 0.26336 0.88975
 C3316 C 0.60131 0.25509 0.87426
 C3317 C 0.60937 0.23944 0.86618
 C3318 C 0.62576 0.23181 0.87348
 C3319 C 0.63383 0.24029 0.88910
 C3320 C 0.62573 0.25593 0.89714
 C3321 C 0.60120 0.27950 0.89803
 C3322 C 0.59436 0.29305 0.90499
 C3323 C 0.58633 0.30929 0.91331
 C3324 C 0.56711 0.31089 0.91505
 C3325 C 0.55935 0.32673 0.92305
 C3326 C 0.57073 0.34117 0.92943
 C3327 C 0.59004 0.33941 0.92764
 C3328 C 0.59776 0.32357 0.91963
 H3329 H 0.58871 0.26073 0.86841
 H3330 H 0.60266 0.23340 0.85425
 H3331 H 0.64641 0.23495 0.89516
 H3332 H 0.63218 0.26223 0.90913
 H3333 H 0.55813 0.29991 0.91022
 H3334 H 0.54446 0.32763 0.92439
 H3335 H 0.59915 0.35041 0.93213
 H3336 H 0.61265 0.32252 0.91828
 C3337 C 0.88996 0.76350 1.10965
 C3338 C 0.87378 0.75602 1.10215
 C3339 C 0.86569 0.74037 1.11018
 C3340 C 0.87366 0.73198 1.12590
 C3341 C 0.88998 0.73965 1.13329
 C3342 C 0.89803 0.75530 1.12523
 C3343 C 0.89827 0.77961 1.10139
 C3344 C 0.90521 0.79313 1.09450
 C3345 C 0.91336 0.80935 1.08629
 C3346 C 0.90202 0.82378 1.08008
 C3347 C 0.90985 0.83961 1.07221
 C3348 C 0.92917 0.84123 1.07044
 C3349 C 0.94046 0.82666 1.07672
 C3350 C 0.93259 0.81081 1.08458
 H3351 H 0.86740 0.76228 1.09009
 H3352 H 0.85319 0.73497 1.10402
 H3353 H 0.89663 0.73365 1.14528
 H3354 H 0.91056 0.76099 1.13115
 H3355 H 0.88713 0.82283 1.08141
 H3356 H 0.90081 0.85073 1.06779
 H3357 H 0.95536 0.82746 1.07539
 H3358 H 0.94149 0.79970 1.08933
 C3359 C 0.89051 0.26319 0.60947
 C3360 C 0.87501 0.25506 0.60124
 C3361 C 0.86680 0.23948 0.60928
 C3362 C 0.87397 0.23177 0.62572
 C3363 C 0.88960 0.24010 0.63385
 C3364 C 0.89778 0.25568 0.62578
 C3365 C 0.89887 0.27931 0.60127
 C3366 C 0.90588 0.29286 0.59449
 C3367 C 0.91422 0.30911 0.58651
 C3368 C 0.91605 0.31071 0.56726
 C3369 C 0.92401 0.32658 0.55953
 C3370 C 0.93026 0.34104 0.57097
 C3371 C 0.92838 0.33927 0.59031
 C3372 C 0.92042 0.32341 0.59801
 H3373 H 0.86926 0.26077 0.58860
 H3374 H 0.85485 0.23354 0.60252
 H3375 H 0.89558 0.23471 0.64648
 H3376 H 0.90978 0.26188 0.63228
 H3377 H 0.91132 0.29971 0.55824
 H3378 H 0.92540 0.32749 0.54461
 H3379 H 0.93276 0.35030 0.59947
 H3380 H 0.91898 0.32235 0.61292
 C3381 C 0.39073 0.76325 0.60987
 C3382 C 0.39867 0.75503 0.62551
 C3383 C 0.39051 0.73944 0.63355
 C3384 C 0.37423 0.73179 0.62605
 C3385 C 0.36639 0.74019 0.61026
 C3386 C 0.37459 0.75579 0.60226
 C3387 C 0.39906 0.77942 0.60174
 C3388 C 0.40595 0.79303 0.59498
 C3389 C 0.41401 0.80936 0.58690
 C3390 C 0.43324 0.81097 0.58529
 C3391 C 0.44102 0.82687 0.57743
 C3392 C 0.42964 0.84135 0.57108
 C3393 C 0.41034 0.83960 0.57281
 C3394 C 0.40259 0.82371 0.58068
 H3395 H 0.41117 0.76071 0.63152
 H3396 H 0.39704 0.73346 0.64562
 H3397 H 0.35390 0.73483 0.60404
 H3398 H 0.36832 0.76206 0.59015
 H3399 H 0.44220 0.79994 0.59008
 H3400 H 0.45591 0.82777 0.57615
 H3401 H 0.40123 0.85064 0.56835
 H3402 H 0.38770 0.82266 0.58196
 C3403 C 0.39003 0.26351 1.10990
 C3404 C 0.37385 0.25610 1.10234
 C3405 C 0.36568 0.24046 1.11032
 C3406 C 0.37359 0.23199 1.12602
 C3407 C 0.38989 0.23962 1.13350
 C3408 C 0.39802 0.25525 1.12550
 C3409 C 0.39841 0.27962 1.10171
 C3410 C 0.40537 0.29316 1.09487
 C3411 C 0.41351 0.30941 1.08672
 C3412 C 0.40216 0.32381 1.08049
 C3413 C 0.40997 0.33967 1.07265
 C3414 C 0.42929 0.34134 1.07091
 C3415 C 0.44060 0.32679 1.07722
 C3416 C 0.43275 0.31091 1.08506
 H3417 H 0.36753 0.26241 1.09028
 H3418 H 0.35317 0.23512 1.10412
 H3419 H 0.39648 0.23358 1.14551
 H3420 H 0.41055 0.26089 1.13148
 H3421 H 0.38727 0.32283 1.08179
 H3422 H 0.40092 0.35076 1.06822
 H3423 H 0.45550 0.32762 1.07593
 H3424 H 0.44166 0.29983 1.08983
 C3425 C 1.10945 1.11087 0.76294
 C3426 C 1.12543 1.10315 0.75528
 C3427 C 1.13357 1.11111 0.73962
 C3428 C 1.12583 1.12702 0.73126
 C3429 C 1.10969 1.13466 0.73923
 C3430 C 1.10161 1.12664 0.75491
 C3431 C 1.10114 1.10260 0.77907
 C3432 C 1.09432 1.09559 0.79261
 C3433 C 1.08635 1.08719 0.80883
 C3434 C 1.09782 1.08090 0.82313
 C3435 C 1.09014 1.07284 0.83897
 C3436 C 1.07084 1.07096 0.84073
 C3437 C 1.05942 1.07727 0.82625
 C3438 C 1.06714 1.08532 0.81040
 H3439 H 1.13164 1.09094 0.76142
 H3440 H 1.14590 1.10463 0.73420
 H3441 H 1.10315 1.14683 0.73349
 H3442 H 1.08923 1.13275 0.76076
 H3443 H 1.11269 1.08233 0.82208
 H3444 H 1.09927 1.06838 0.85000
 H3445 H 1.04454 1.07586 0.82714
 H3446 H 1.05814 1.09011 0.79939
 C3447 C 1.10967 0.61041 0.26273
 C3448 C 1.10183 0.62621 0.25476
 C3449 C 1.10988 0.63428 0.23910
 C3450 C 1.12601 0.62668 0.23107
 C3451 C 1.13375 0.61073 0.23936
 C3452 C 1.12564 0.60271 0.25501
 C3453 C 1.10137 0.60212 0.27886
 C3454 C 1.09446 0.59519 0.29240
 C3455 C 1.08625 0.58703 0.30864
 C3456 C 1.07990 0.59837 0.32301
 C3457 C 1.07204 0.59052 0.33887
 C3458 C 1.07043 0.57118 0.34058
 C3459 C 1.07685 0.55988 0.32605
 C3460 C 1.08469 0.56777 0.31018
 H3461 H 1.08947 0.63231 0.26066
 H3462 H 1.10333 0.64648 0.23342
 H3463 H 1.14607 0.60427 0.23389
 H3464 H 1.13185 0.59048 0.26110
 H3465 H 1.08112 0.61329 0.32201
 H3466 H 1.06752 0.59957 0.34994
 H3467 H 1.07564 0.54496 0.32690
 H3468 H 1.08955 0.55887 0.29912
 C3469 C 0.60981 1.11033 0.26313
 C3470 C 0.60218 1.12626 0.25523
 C3471 C 0.61033 1.13428 0.23960
 C3472 C 0.62635 1.12650 0.23154
 C3473 C 0.63392 1.11044 0.23978
 C3474 C 0.62570 1.10247 0.25540
 C3475 C 0.60135 1.10206 0.27918
 C3476 C 0.59426 1.09518 0.29265
 C3477 C 0.58584 1.08711 0.30881
 C3478 C 0.57946 1.09853 0.32311
 C3479 C 0.57150 1.09076 0.33896
 C3480 C 0.56982 1.07143 0.34072
 C3481 C 0.57620 1.06006 0.32623
 C3482 C 0.58415 1.06787 0.31038
 H3483 H 0.58989 1.13249 0.26115
 H3484 H 0.60392 1.14658 0.23397
 H3485 H 0.64616 1.10385 0.23428
 H3486 H 0.63176 1.09014 0.26145
 H3487 H 0.58076 1.11343 0.32207
 H3488 H 0.56700 1.09987 0.34999
 H3489 H 0.57493 1.04515 0.32713
 H3490 H 0.58902 1.05890 0.29937
 C3491 C 0.60983 0.60991 0.76328
 C3492 C 0.60231 0.62605 0.75565
 C3493 C 0.61040 0.63412 0.73999
 C3494 C 0.62618 0.62614 0.73174
 C3495 C 0.63357 0.60989 0.73959
 C3496 C 0.62546 0.60187 0.75522
 C3497 C 0.60156 0.60163 0.77941
 C3498 C 0.59469 0.59471 0.79297
 C3499 C 0.58651 0.58660 0.80923
 C3500 C 0.58021 0.59801 0.82358
 C3501 C 0.57228 0.59023 0.83943
 C3502 C 0.57054 0.57090 0.84116
 C3503 C 0.57693 0.55954 0.82667
 C3504 C 0.58486 0.56736 0.81080
 H3505 H 0.59021 0.63242 0.76179
 H3506 H 0.60425 0.64659 0.73447
 H3507 H 0.64565 0.60326 0.73372
 H3508 H 0.63141 0.58937 0.76105
 H3509 H 0.58153 0.61291 0.82255
 H3510 H 0.56779 0.59933 0.85047
 H3511 H 0.57564 0.54463 0.82754
 H3512 H 0.58971 0.55840 0.79978
 C3513 C 0.89054 0.89002 0.76297
 C3514 C 0.89782 0.87371 0.75548
 C3515 C 0.88962 0.86563 0.73990
 C3516 C 0.87396 0.87375 0.73158
 C3517 C 0.86679 0.89018 0.73928
 C3518 C 0.87501 0.89821 0.75485
 C3519 C 0.89893 0.89831 0.77904
 C3520 C 0.90588 0.90522 0.79255
 C3521 C 0.91412 0.91335 0.80878
 C3522 C 0.92031 0.90198 0.82321
 C3523 C 0.92816 0.90978 0.83907
 C3524 C 0.92991 0.92911 0.84074
 C3525 C 0.92366 0.94045 0.82617
 C3526 C 0.91582 0.93260 0.81028
 H3527 H 0.90983 0.86722 0.76168
 H3528 H 0.89559 0.85302 0.73450
 H3529 H 0.85483 0.89693 0.73334
 H3530 H 0.86924 0.91083 0.76055
 H3531 H 0.91896 0.88707 0.82224
 H3532 H 0.93256 0.90071 0.85018
 H3533 H 0.92498 0.95536 0.82699
 H3534 H 0.91109 0.94153 0.79919
 C3535 C 0.89039 0.38956 0.26314
 C3536 C 0.87445 0.39734 0.25545
 C3537 C 0.86635 0.38944 0.23976
 C3538 C 0.87406 0.37351 0.23142
 C3539 C 0.89017 0.36584 0.23939
 C3540 C 0.89822 0.37380 0.25510
 C3541 C 0.89869 0.39774 0.27930
 C3542 C 0.90561 0.40458 0.29285
 C3543 C 0.91385 0.41268 0.30907
 C3544 C 0.91545 0.43193 0.31059
 C3545 C 0.92334 0.43979 0.32644
 C3546 C 0.92974 0.42846 0.34095
 C3547 C 0.92809 0.40912 0.33926
 C3548 C 0.92020 0.40131 0.32342
 H3549 H 0.86827 0.40955 0.26160
 H3550 H 0.85405 0.39597 0.23431
 H3551 H 0.89671 0.35367 0.23366
 H3552 H 0.91056 0.36764 0.26097
 H3553 H 0.91060 0.44086 0.29955
 H3554 H 0.92457 0.45471 0.32729
 H3555 H 0.93261 0.40006 0.35032
 H3556 H 0.91894 0.38639 0.32242
 C3557 C 0.39017 0.88942 0.26295
 C3558 C 0.39766 0.87327 0.25535
 C3559 C 0.38962 0.86521 0.23968
 C3560 C 0.37385 0.87318 0.23130
 C3561 C 0.36650 0.88950 0.23918
 C3562 C 0.37460 0.89750 0.25483
 C3563 C 0.39842 0.89768 0.27910
 C3564 C 0.40527 0.90461 0.29266
 C3565 C 0.41341 0.91279 0.30891
 C3566 C 0.41978 0.90148 0.32330
 C3567 C 0.42760 0.90936 0.33914
 C3568 C 0.42915 0.92871 0.34082
 C3569 C 0.42269 0.93999 0.32628
 C3570 C 0.41489 0.93206 0.31042
 H3571 H 0.40972 0.86688 0.26155
 H3572 H 0.39587 0.85273 0.23431
 H3573 H 0.35448 0.89627 0.23341
 H3574 H 0.36868 0.91002 0.26062
 H3575 H 0.41863 0.88655 0.32231
 H3576 H 0.43216 0.90033 0.35022
 H3577 H 0.42385 0.95491 0.32711
 H3578 H 0.41001 0.94094 0.29935
 C3579 C 0.39042 0.38969 0.76339
 C3580 C 0.39759 0.37323 0.75612
 C3581 C 0.38957 0.36520 0.74042
 C3582 C 0.37422 0.37352 0.73175
 C3583 C 0.36716 0.39011 0.73921
 C3584 C 0.37521 0.39810 0.75490
 C3585 C 0.39860 0.39794 0.77959
 C3586 C 0.40539 0.40488 0.79318
 C3587 C 0.41347 0.41309 0.80945
 C3588 C 0.41975 0.40179 0.82390
 C3589 C 0.42762 0.40969 0.83972
 C3590 C 0.42931 0.42904 0.84131
 C3591 C 0.42290 0.44030 0.82674
 C3592 C 0.41505 0.43235 0.81090
 H3593 H 0.40937 0.36658 0.76259
 H3594 H 0.39543 0.35245 0.73519
 H3595 H 0.35545 0.39704 0.73301
 H3596 H 0.36953 0.41085 0.76042
 H3597 H 0.41850 0.38688 0.82298
 H3598 H 0.43212 0.40068 0.85083
 H3599 H 0.42414 0.45521 0.82751
 H3600 H 0.41023 0.44122 0.79980
 C3601 C 1.10968 0.88975 1.23682
 C3602 C 1.12505 0.89804 1.24512
 C3603 C 1.13314 0.89004 1.26080
 C3604 C 1.12598 0.87357 1.26842
 C3605 C 1.11052 0.86534 1.25988
 C3606 C 1.10245 0.87338 1.24420
 C3607 C 1.10135 0.89806 1.22072
 C3608 C 1.09440 0.90501 1.20721
 C3609 C 1.08613 0.91317 1.19101
 C3610 C 1.08445 0.93242 1.18952
 C3611 C 1.07657 0.94031 1.17366
 C3612 C 1.07025 0.92900 1.15911
 C3613 C 1.07198 0.90966 1.16078
 C3614 C 1.07987 0.90182 1.17662
 H3615 H 1.13078 0.91071 1.23949
 H3616 H 1.14494 0.89689 1.26690
 H3617 H 1.10460 0.85267 1.26520
 H3618 H 1.09058 0.86682 1.23784
 H3619 H 1.08924 0.94133 1.20059
 H3620 H 1.07527 0.95522 1.17283
 H3621 H 1.06753 0.90061 1.14969
 H3622 H 1.08118 0.88691 1.17760
 C3623 C 1.10977 0.38962 0.73694
 C3624 C 1.12567 0.39738 0.74474
 C3625 C 1.13378 0.38933 0.76037
 C3626 C 1.12609 0.37333 0.76847
 C3627 C 1.11009 0.36562 0.76045
 C3628 C 1.10201 0.37372 0.74481
 C3629 C 1.10149 0.39796 0.72083
 C3630 C 1.09469 0.40501 0.70731
 C3631 C 1.08672 0.41343 0.69109
 C3632 C 1.09819 0.41971 0.67679
 C3633 C 1.09051 0.42775 0.66093
 C3634 C 1.07121 0.42960 0.65917
 C3635 C 1.05979 0.42330 0.67365
 C3636 C 1.06751 0.41528 0.68952
 H3637 H 1.13181 0.40968 0.73874
 H3638 H 1.14604 0.39573 0.76603
 H3639 H 1.10374 0.35334 0.76617
 H3640 H 1.08971 0.36757 0.73885
 H3641 H 1.11307 0.41829 0.67784
 H3642 H 1.09964 0.43219 0.64990
 H3643 H 1.04491 0.42470 0.67276
 H3644 H 1.05851 0.41051 0.70053
 C3645 C 0.60939 0.88990 0.73676
 C3646 C 0.62606 0.89686 0.74365
 C3647 C 0.63431 0.88875 0.75918
 C3648 C 0.62599 0.87352 0.76808
 C3649 C 0.60920 0.86664 0.76099
 C3650 C 0.60098 0.87478 0.74545
 C3651 C 0.60100 0.89826 0.72073
 C3652 C 0.59414 0.90530 0.70724
 C3653 C 0.58616 0.91374 0.69103
 C3654 C 0.59765 0.92004 0.67676
 C3655 C 0.58998 0.92808 0.66091
 C3656 C 0.57069 0.92992 0.65912
 C3657 C 0.55925 0.92359 0.67358
 C3658 C 0.56696 0.91557 0.68944
 H3659 H 0.63271 0.90854 0.73699
 H3660 H 0.64725 0.89443 0.76406
 H3661 H 0.60229 0.85503 0.76743
 H3662 H 0.58806 0.86928 0.74021
 H3663 H 0.61253 0.91863 0.67782
 H3664 H 0.59913 0.93254 0.64989
 H3665 H 0.54437 0.92498 0.67266
 H3666 H 0.55795 0.91076 0.70044
 C3667 C 0.61010 0.38952 1.23740
 C3668 C 0.60227 0.37373 1.24539
 C3669 C 0.61030 0.36570 1.26109
 C3670 C 0.62639 0.37334 1.26912
 C3671 C 0.63412 0.38927 1.26081
 C3672 C 0.62603 0.39724 1.24512
 C3673 C 0.60181 0.39778 1.22125
 C3674 C 0.59489 0.40468 1.20771
 C3675 C 0.58665 0.41281 1.19147
 C3676 C 0.58028 0.40144 1.17714
 C3677 C 0.57237 0.40925 1.16130
 C3678 C 0.57073 0.42859 1.15955
 C3679 C 0.57717 0.43992 1.17403
 C3680 C 0.58507 0.43206 1.18989
 H3681 H 0.58993 0.36761 1.23949
 H3682 H 0.60375 0.35351 1.26679
 H3683 H 0.64641 0.39576 1.26629
 H3684 H 0.63223 0.40946 1.23902
 H3685 H 0.58151 0.38652 1.17818
 H3686 H 0.56783 0.40018 1.15026
 H3687 H 0.57595 0.45484 1.17316
 H3688 H 0.58994 0.44099 1.20091
 C3689 C 0.89034 1.11001 1.23666
 C3690 C 0.87388 1.10283 1.24385
 C3691 C 0.86577 1.11082 1.25952
 C3692 C 0.87404 1.12615 1.26828
 C3693 C 0.89057 1.13332 1.26083
 C3694 C 0.89864 1.12528 1.24515
 C3695 C 0.89870 1.10167 1.22058
 C3696 C 0.90565 1.09471 1.20708
 C3697 C 0.91387 1.08652 1.19086
 C3698 C 0.91549 1.06726 1.18939
 C3699 C 0.92330 1.05934 1.17352
 C3700 C 0.92961 1.07062 1.15892
 C3701 C 0.92795 1.08996 1.16057
 C3702 C 0.92014 1.09784 1.17643
 H3703 H 0.86731 1.09102 1.23735
 H3704 H 0.85303 1.10494 1.26466
 H3705 H 0.89740 1.14507 1.26707
 H3706 H 0.91139 1.13098 1.23970
 H3707 H 0.91069 1.05837 1.20050
 H3708 H 0.92457 1.04442 1.17271
 H3709 H 0.93241 1.09900 1.14946
 H3710 H 0.91887 1.11276 1.17738
 C3711 C 0.89046 0.60995 0.73664
 C3712 C 0.87466 0.60206 0.74453
 C3713 C 0.86645 0.61016 0.76009
 C3714 C 0.87394 0.62633 0.76802
 C3715 C 0.88987 0.63413 0.75993
 C3716 C 0.89804 0.62599 0.74436
 C3717 C 0.89882 0.60161 0.72056
 C3718 C 0.90575 0.59466 0.70705
 C3719 C 0.91397 0.58649 0.69082
 C3720 C 0.91565 0.56723 0.68935
 C3721 C 0.92350 0.55934 0.67349
 C3722 C 0.92980 0.57064 0.65890
 C3723 C 0.92804 0.58997 0.66053
 C3724 C 0.92019 0.59783 0.67638
 H3725 H 0.86865 0.58965 0.73865
 H3726 H 0.85424 0.60369 0.76580
 H3727 H 0.89610 0.64652 0.76554
 H3728 H 0.91027 0.63223 0.73834
 H3729 H 0.91089 0.55833 0.70046
 H3730 H 0.92481 0.54443 0.67269
 H3731 H 0.93246 0.59902 0.64941
 H3732 H 0.91887 0.61274 0.67733
 C3733 C 0.38970 1.11024 0.73659
 C3734 C 0.39690 1.12667 0.74387
 C3735 C 0.38883 1.13479 0.75951
 C3736 C 0.37337 1.12660 0.76809
 C3737 C 0.36623 1.11007 0.76062
 C3738 C 0.37434 1.10198 0.74499
 C3739 C 0.39804 1.10189 0.72050
 C3740 C 0.40504 1.09493 0.70702
 C3741 C 0.41339 1.08674 0.69086
 C3742 C 0.41968 1.09804 0.67643
 C3743 C 0.42766 1.09016 0.66065
 C3744 C 0.42947 1.07083 0.65908
 C3745 C 0.42311 1.05956 0.67366
 C3746 C 0.41514 1.06748 0.68946
 H3747 H 0.40876 1.13322 0.73744
 H3748 H 0.39466 1.14755 0.76470
 H3749 H 0.35445 1.10327 0.76683
 H3750 H 0.36864 1.08927 0.73947
 H3751 H 0.41832 1.11295 0.67732
 H3752 H 0.43215 1.09919 0.64954
 H3753 H 0.42447 1.04465 0.67291
 H3754 H 0.41034 1.05859 0.70056
 C3755 C 0.39056 0.61063 1.23694
 C3756 C 0.39810 0.62674 1.24457
 C3757 C 0.39003 0.63484 1.26021
 C3758 C 0.37422 0.62693 1.26846
 C3759 C 0.36678 0.61071 1.26062
 C3760 C 0.37488 0.60266 1.24499
 C3761 C 0.39886 0.60227 1.22086
 C3762 C 0.40577 0.59527 1.20736
 C3763 C 0.41396 0.58701 1.19117
 C3764 C 0.42025 0.59827 1.17671
 C3765 C 0.42805 0.59033 1.16088
 C3766 C 0.42970 0.57098 1.15931
 C3767 C 0.42334 0.55975 1.17393
 C3768 C 0.41553 0.56774 1.18976
 H3769 H 0.41024 0.63305 1.23842
 H3770 H 0.39623 0.64726 1.26575
 H3771 H 0.35468 0.60414 1.26646
 H3772 H 0.36890 0.59020 1.23917
 H3773 H 0.41903 0.61319 1.17762
 H3774 H 0.43252 0.59932 1.14973
 H3775 H 0.42457 0.54483 1.17317
 H3776 H 0.41071 0.55890 1.20090
 C3777 C 1.10965 1.23669 0.88963
 C3778 C 1.10186 1.24482 0.87388
 C3779 C 1.11000 1.26049 0.86593
 C3780 C 1.12615 1.26834 0.87362
 C3781 C 1.13383 1.25989 0.88951
 C3782 C 1.12564 1.24424 0.89740
 C3783 C 1.10129 1.22056 0.89781
 C3784 C 1.09442 1.20702 0.90473
 C3785 C 1.08640 1.19079 0.91304
 C3786 C 1.06718 1.18921 0.91475
 C3787 C 1.05942 1.17337 0.92274
 C3788 C 1.07080 1.15891 0.92913
 C3789 C 1.09011 1.16067 0.92739
 C3790 C 1.09783 1.17651 0.91940
 H3791 H 1.08947 1.23905 0.86773
 H3792 H 1.10348 1.26629 0.85377
 H3793 H 1.14618 1.26523 0.89602
 H3794 H 1.13181 1.23802 0.90960
 H3795 H 1.05820 1.20020 0.90991
 H3796 H 1.04453 1.17248 0.92406
 H3797 H 1.09923 1.14966 0.93190
 H3798 H 1.11272 1.17756 0.91809
 C3799 C 1.10957 0.73670 0.38930
 C3800 C 1.12551 0.74430 0.39717
 C3801 C 1.13370 0.76000 0.38935
 C3802 C 1.12607 0.76845 0.37342
 C3803 C 1.10999 0.76055 0.36564
 C3804 C 1.10186 0.74484 0.37351
 C3805 C 1.10116 0.72056 0.39745
 C3806 C 1.09423 0.70702 0.40434
 C3807 C 1.08615 0.69078 0.41262
 C3808 C 1.09757 0.67646 0.41894
 C3809 C 1.08982 0.66062 0.42691
 C3810 C 1.07052 0.65888 0.42870
 C3811 C 1.05915 0.67336 0.42233
 C3812 C 1.06693 0.68921 0.41436
 H3813 H 1.13162 0.73808 0.40939
 H3814 H 1.14598 0.76538 0.39595
 H3815 H 1.10353 0.76635 0.35345
 H3816 H 1.08953 0.73904 0.36727
 H3817 H 1.11245 0.67749 0.41761
 H3818 H 1.09894 0.64959 0.43139
 H3819 H 1.04426 0.67249 0.42366
 H3820 H 1.05797 0.70024 0.40955
 C3821 C 0.60963 1.23692 0.38944
 C3822 C 0.60185 1.24506 0.37369
 C3823 C 0.60999 1.26072 0.36572
 C3824 C 0.62615 1.26857 0.37338
 C3825 C 0.63385 1.26011 0.38927
 C3826 C 0.62565 1.24446 0.39718
 C3827 C 0.60119 1.22083 0.39766
 C3828 C 0.59415 1.20734 0.40454
 C3829 C 0.58579 1.19117 0.41267
 C3830 C 0.57945 1.17683 0.40130
 C3831 C 0.57153 1.16101 0.40914
 C3832 C 0.56985 1.15930 0.42850
 C3833 C 0.57619 1.17382 0.43983
 C3834 C 0.58410 1.18965 0.43195
 H3835 H 0.58945 1.23931 0.36755
 H3836 H 0.60346 1.26653 0.35357
 H3837 H 0.64621 1.26544 0.39576
 H3838 H 0.63183 1.23824 0.40937
 H3839 H 0.58074 1.17782 0.38637
 H3840 H 0.56703 1.14996 0.40007
 H3841 H 0.57491 1.17298 0.45476
 H3842 H 0.58891 1.20069 0.44088
 C3843 C 0.60961 0.73642 0.88994
 C3844 C 0.62623 0.74337 0.89698
 C3845 C 0.63442 0.75896 0.88895
 C3846 C 0.62610 0.76787 0.87370
 C3847 C 0.60937 0.76072 0.86673
 C3848 C 0.60121 0.74512 0.87480
 C3849 C 0.60125 0.72034 0.89823
 C3850 C 0.59438 0.70682 0.90521
 C3851 C 0.58636 0.69059 0.91357
 C3852 C 0.59781 0.67627 0.91981
 C3853 C 0.59011 0.66041 0.92779
 C3854 C 0.57081 0.65866 0.92963
 C3855 C 0.55941 0.67316 0.92336
 C3856 C 0.56715 0.68903 0.91539
 H3857 H 0.63288 0.73672 0.90868
 H3858 H 0.64731 0.76389 0.89470
 H3859 H 0.60246 0.76715 0.85510
 H3860 H 0.58834 0.73984 0.86922
 H3861 H 0.61269 0.67730 0.91842
 H3862 H 0.59923 0.64937 0.93220
 H3863 H 0.54452 0.67229 0.92475
 H3864 H 0.55816 0.70006 0.91063
 C3865 C 0.89058 1.23653 1.11051
 C3866 C 0.89837 1.24442 1.12638
 C3867 C 0.89031 1.26008 1.13444
 C3868 C 0.87429 1.26809 1.12672
 C3869 C 0.86659 1.25997 1.11074
 C3870 C 0.87467 1.24433 1.10272
 C3871 C 0.89883 1.22041 1.10220
 C3872 C 0.90562 1.20687 1.09517
 C3873 C 0.91357 1.19065 1.08675
 C3874 C 0.93278 1.18899 1.08501
 C3875 C 0.94048 1.17314 1.07697
 C3876 C 0.92904 1.15875 1.07056
 C3877 C 0.90974 1.16061 1.07232
 C3878 C 0.90208 1.17645 1.08036
 H3879 H 0.91068 1.23847 1.13254
 H3880 H 0.89669 1.26582 1.14670
 H3881 H 0.85432 1.26562 1.10432
 H3882 H 0.86851 1.23831 1.09044
 H3883 H 0.94180 1.19992 1.08987
 H3884 H 0.95537 1.17218 1.07564
 H3885 H 0.90058 1.14966 1.06780
 H3886 H 0.88720 1.17758 1.08170
 C3887 C 0.89037 0.73663 0.60990
 C3888 C 0.87427 0.74414 0.60224
 C3889 C 0.86604 0.75972 0.61025
 C3890 C 0.87380 0.76805 0.62609
 C3891 C 0.89003 0.76034 0.63367
 C3892 C 0.89823 0.74475 0.62562
 C3893 C 0.89874 0.72053 0.60166
 C3894 C 0.90562 0.70698 0.59474
 C3895 C 0.91362 0.69071 0.58647
 C3896 C 0.90216 0.67641 0.58026
 C3897 C 0.90985 0.66050 0.57237
 C3898 C 0.92914 0.65869 0.57058
 C3899 C 0.94056 0.67316 0.57684
 C3900 C 0.93283 0.68907 0.58472
 H3901 H 0.86805 0.73795 0.59008
 H3902 H 0.85360 0.76514 0.60397
 H3903 H 0.89649 0.76626 0.64579
 H3904 H 0.91070 0.73903 0.63168
 H3905 H 0.88727 0.67750 0.58162
 H3906 H 0.90071 0.64949 0.56796
 H3907 H 0.95545 0.67223 0.57549
 H3908 H 0.94183 0.70008 0.58945
 C3909 C 0.38987 1.23692 0.61016
 C3910 C 0.39763 1.24478 0.62606
 C3911 C 0.38958 1.26043 0.63413
 C3912 C 0.37356 1.26856 0.62643
 C3913 C 0.36594 1.26042 0.61036
 C3914 C 0.37403 1.24477 0.60235
 C3915 C 0.39809 1.22074 0.60191
 C3916 C 0.40490 1.20714 0.59503
 C3917 C 0.41300 1.19083 0.58693
 C3918 C 0.41929 1.17650 0.59836
 C3919 C 0.42713 1.16061 0.59058
 C3920 C 0.42878 1.15883 0.57123
 C3921 C 0.42239 1.17330 0.55984
 C3922 C 0.41456 1.18920 0.56766
 H3923 H 0.40990 1.23879 0.63224
 H3924 H 0.39606 1.26603 0.64641
 H3925 H 0.35369 1.26598 0.60381
 H3926 H 0.36789 1.23878 0.59004
 H3927 H 0.41806 1.17757 0.61329
 H3928 H 0.43164 1.14959 0.59971
 H3929 H 0.42362 1.17239 0.54491
 H3930 H 0.40974 1.20022 0.55868
 C3931 C 0.39022 0.73687 1.11076
 C3932 C 0.39763 0.74446 1.12694
 C3933 C 0.38954 0.76010 1.13500
 C3934 C 0.37379 0.76847 1.12699
 C3935 C 0.36649 0.76059 1.11064
 C3936 C 0.37464 0.74496 1.10264
 C3937 C 0.39853 0.72074 1.10250
 C3938 C 0.40543 0.70719 1.09561
 C3939 C 0.41363 0.69094 1.08749
 C3940 C 0.41992 0.67658 1.09888
 C3941 C 0.42777 0.66071 1.09107
 C3942 C 0.42942 0.65898 1.07170
 C3943 C 0.42306 0.67349 1.06035
 C3944 C 0.41524 0.68938 1.06821
 H3945 H 0.40969 0.73828 1.13336
 H3946 H 0.39574 0.76547 1.14751
 H3947 H 0.35447 0.76634 1.10386
 H3948 H 0.36877 0.73918 1.09011
 H3949 H 0.41867 0.67761 1.11381
 H3950 H 0.43225 0.64966 1.10016
 H3951 H 0.42430 0.67263 1.04542
 H3952 H 0.41043 0.70042 1.05926
 C3953 C 0.89058 0.76348 0.88964
 C3954 C 0.89859 0.75517 0.87407
 C3955 C 0.89036 0.73962 0.86601
 C3956 C 0.87395 0.73213 0.87342
 C3957 C 0.86602 0.74066 0.88908
 C3958 C 0.87429 0.75620 0.89711
 C3959 C 0.89899 0.77953 0.89790
 C3960 C 0.90587 0.79304 0.90486
 C3961 C 0.91386 0.80928 0.91318
 C3962 C 0.93306 0.81087 0.91502
 C3963 C 0.94077 0.82676 0.92292
 C3964 C 0.92934 0.84126 0.92913
 C3965 C 0.91005 0.83949 0.92728
 C3966 C 0.90238 0.82360 0.91936
 H3967 H 0.91120 0.76071 0.86816
 H3968 H 0.89695 0.73351 0.85404
 H3969 H 0.85340 0.73546 0.89519
 H3970 H 0.86794 0.76256 0.90913
 H3971 H 0.94207 0.79983 0.91032
 H3972 H 0.95565 0.82767 0.92433
 H3973 H 0.90090 0.85052 0.93166
 H3974 H 0.88750 0.82255 0.91796
 C3975 C 0.89097 0.26342 0.38946
 C3976 C 0.89938 0.25451 0.37446
 C3977 C 0.89110 0.23893 0.36649
 C3978 C 0.87427 0.23200 0.37345
 C3979 C 0.86588 0.24119 0.38848
 C3980 C 0.87419 0.25676 0.39641
 C3981 C 0.89951 0.27938 0.39777
 C3982 C 0.90646 0.29281 0.40483
 C3983 C 0.91448 0.30897 0.41328
 C3984 C 0.93370 0.31056 0.41505
 C3985 C 0.94142 0.32640 0.42307
 C3986 C 0.93000 0.34083 0.42945
 C3987 C 0.91071 0.33904 0.42769
 C3988 C 0.90302 0.32322 0.41966
 H3989 H 0.91238 0.25954 0.36894
 H3990 H 0.89804 0.23233 0.35498
 H3991 H 0.85288 0.23647 0.39417
 H3992 H 0.86754 0.26359 0.40801
 H3993 H 0.94269 0.29958 0.41020
 H3994 H 0.95631 0.32730 0.42443
 H3995 H 0.90156 0.35001 0.43222
 H3996 H 0.88814 0.32216 0.41831
 C3997 C 0.39038 0.76347 0.38971
 C3998 C 0.39764 0.75595 0.37341
 C3999 C 0.38945 0.74038 0.36536
 C4000 C 0.37376 0.73201 0.37348
 C4001 C 0.36660 0.73984 0.38992
 C4002 C 0.37484 0.75541 0.39791
 C4003 C 0.39883 0.77948 0.39800
 C4004 C 0.40578 0.79295 0.40498
 C4005 C 0.41382 0.80916 0.41331
 C4006 C 0.43303 0.81080 0.41496
 C4007 C 0.44076 0.82669 0.42287
 C4008 C 0.42934 0.84113 0.42924
 C4009 C 0.41004 0.83929 0.42757
 C4010 C 0.40235 0.82342 0.41966
 H4011 H 0.40964 0.76214 0.36690
 H4012 H 0.39555 0.73505 0.35277
 H4013 H 0.35463 0.73409 0.39679
 H4014 H 0.36907 0.76116 0.41052
 H4015 H 0.44204 0.79983 0.41012
 H4016 H 0.45565 0.82764 0.42414
 H4017 H 0.40089 0.85028 0.43206
 H4018 H 0.38746 0.82231 0.41838
 C4019 C 0.39113 0.26305 0.89052
 C4020 C 0.37462 0.25600 0.89773
 C4021 C 0.36639 0.24044 0.88972
 C4022 C 0.37455 0.23167 0.87431
 C4023 C 0.39119 0.23891 0.86719
 C4024 C 0.39939 0.25448 0.87524
 C4025 C 0.39946 0.27917 0.89874
 C4026 C 0.40628 0.29273 0.90568
 C4027 C 0.41421 0.30902 0.91397
 C4028 C 0.40267 0.32327 0.92020
 C4029 C 0.41028 0.33921 0.92809
 C4030 C 0.42957 0.34110 0.92985
 C4031 C 0.44106 0.32667 0.92358
 C4032 C 0.43341 0.31073 0.91571
 H4033 H 0.36808 0.26256 0.90955
 H4034 H 0.35360 0.23543 0.89562
 H4035 H 0.39797 0.23258 0.85543
 H4036 H 0.41218 0.25984 0.86952
 H4037 H 0.38780 0.32212 0.91887
 H4038 H 0.40108 0.35018 0.93252
 H4039 H 0.45594 0.32766 0.92492
 H4040 H 0.44247 0.29976 0.91096
 C4041 C 1.10954 0.76332 1.11086
 C4042 C 1.12558 0.75574 1.10316
 C4043 C 1.13372 0.74005 1.11106
 C4044 C 1.12594 0.73158 1.12690
 C4045 C 1.10976 0.73947 1.13454
 C4046 C 1.10168 0.75517 1.12657
 C4047 C 1.10119 0.77944 1.10262
 C4048 C 1.09432 0.79297 1.09563
 C4049 C 1.08629 0.80918 1.08723
 C4050 C 1.09772 0.82347 1.08090
 C4051 C 1.09000 0.83928 1.07284
 C4052 C 1.07071 0.84103 1.07099
 C4053 C 1.05932 0.82657 1.07736
 C4054 C 1.06708 0.81074 1.08541
 H4055 H 1.13182 0.76196 1.09100
 H4056 H 1.14609 0.73470 1.10458
 H4057 H 1.10318 0.73365 1.14666
 H4058 H 1.08927 0.76096 1.13269
 H4059 H 1.11261 0.82244 1.08229
 H4060 H 1.09912 0.85030 1.06835
 H4061 H 1.04443 0.82744 1.07598
 H4062 H 1.05810 0.79974 1.09023
 C4063 C 1.10969 0.26327 0.61061
 C4064 C 1.12570 0.25561 0.60293
 C4065 C 1.13378 0.23992 0.61088
 C4066 C 1.12596 0.23153 0.62674
 C4067 C 1.10980 0.23948 0.63434
 C4068 C 1.10177 0.25519 0.62633
 C4069 C 1.10145 0.27942 0.60233
 C4070 C 1.09468 0.29297 0.59529
 C4071 C 1.08678 0.30921 0.58685
 C4072 C 1.09830 0.32340 0.58048
 C4073 C 1.09068 0.33927 0.57242
 C4074 C 1.07139 0.34115 0.57062
 C4075 C 1.05992 0.32675 0.57699
 C4076 C 1.06758 0.31089 0.58504
 H4077 H 1.13197 0.26178 0.59076
 H4078 H 1.14613 0.23452 0.60443
 H4079 H 1.10319 0.23371 0.64647
 H4080 H 1.08937 0.26103 0.63241
 H4081 H 1.11318 0.32227 0.58185
 H4082 H 1.09987 0.35022 0.56792
 H4083 H 1.04504 0.32772 0.57562
 H4084 H 1.05853 0.29995 0.58987
 C4085 C 0.60968 0.76364 0.61018
 C4086 C 0.60161 0.75534 0.62573
 C4087 C 0.60975 0.73967 0.63374
 C4088 C 0.62611 0.73208 0.62629
 C4089 C 0.63405 0.74060 0.61063
 C4090 C 0.62589 0.75624 0.60267
 C4091 C 0.60139 0.77979 0.60193
 C4092 C 0.59460 0.79335 0.59493
 C4093 C 0.58662 0.80959 0.58654
 C4094 C 0.56741 0.81120 0.58481
 C4095 C 0.55966 0.82707 0.57683
 C4096 C 0.57105 0.84151 0.57045
 C4097 C 0.59036 0.83971 0.57218
 C4098 C 0.59807 0.82385 0.58017
 H4099 H 0.58905 0.76094 0.63167
 H4100 H 0.60314 0.73358 0.64571
 H4101 H 0.64660 0.73529 0.60445
 H4102 H 0.63226 0.76257 0.59063
 H4103 H 0.55842 0.80022 0.58964
 H4104 H 0.54477 0.82798 0.57553
 H4105 H 0.59948 0.85071 0.56768
 H4106 H 0.61296 0.82276 0.58147
 C4107 C 0.60940 0.26352 1.11082
 C4108 C 0.60154 0.25538 1.12654
 C4109 C 0.60968 0.23972 1.13453
 C4110 C 0.62585 0.23196 1.12689
 C4111 C 0.63366 0.24035 1.11108
 C4112 C 0.62549 0.25599 1.10314
 C4113 C 0.60100 0.27959 1.10253
 C4114 C 0.59410 0.29307 1.09549
 C4115 C 0.58607 0.30924 1.08704
 C4116 C 0.56686 0.31083 1.08529
 C4117 C 0.55910 0.32665 1.07723
 C4118 C 0.57050 0.34107 1.07079
 C4119 C 0.58980 0.33928 1.07255
 C4120 C 0.59751 0.32347 1.08062
 H4121 H 0.58909 0.26112 1.13263
 H4122 H 0.60321 0.23377 1.14666
 H4123 H 0.64607 0.23490 1.10475
 H4124 H 0.63173 0.26221 1.09098
 H4125 H 0.55787 0.29986 1.09017
 H4126 H 0.54421 0.32755 1.07591
 H4127 H 0.59892 0.35026 1.06801
 H4128 H 0.61240 0.32241 1.08195
 C4129 C 1.23635 1.10980 0.88978
 C4130 C 1.24463 1.10183 0.87418
 C4131 C 1.26013 1.11012 0.86608
 C4132 C 1.26759 1.12653 0.87348
 C4133 C 1.25914 1.13439 0.88921
 C4134 C 1.24364 1.12608 0.89727
 C4135 C 1.22031 1.10136 0.89802
 C4136 C 1.20680 1.09443 0.90493
 C4137 C 1.19059 1.08634 0.91320
 C4138 C 1.18909 1.06710 0.91498
 C4139 C 1.17327 1.05929 0.92295
 C4140 C 1.15877 1.07066 0.92926
 C4141 C 1.16043 1.08998 0.92741
 C4142 C 1.17624 1.09775 0.91943
 H4143 H 1.23910 1.08922 0.86826
 H4144 H 1.26625 1.10355 0.85409
 H4145 H 1.26433 1.14705 0.89527
 H4146 H 1.23731 1.13239 0.90933
 H4147 H 1.20014 1.05815 0.91022
 H4148 H 1.17243 1.04438 0.92431
 H4149 H 1.14937 1.09907 0.93183
 H4150 H 1.17721 1.11265 0.91804
 C4151 C 1.23677 0.61009 0.39036
 C4152 C 1.24420 0.62624 0.39802
 C4153 C 1.25984 0.63445 0.39009
 C4154 C 1.26827 0.62662 0.37432
 C4155 C 1.26070 0.61030 0.36682
 C4156 C 1.24507 0.60213 0.37478
 C4157 C 1.22061 0.60173 0.39844
 C4158 C 1.20702 0.59478 0.40520
 C4159 C 1.19073 0.58664 0.41326
 C4160 C 1.17632 0.59800 0.41943
 C4161 C 1.16045 0.59018 0.42720
 C4162 C 1.15877 0.57084 0.42893
 C4163 C 1.17332 0.55951 0.42266
 C4164 C 1.18921 0.56738 0.41490
 H4165 H 1.23790 0.63250 0.41011
 H4166 H 1.26521 0.64692 0.39637
 H4167 H 1.26677 0.60371 0.35483
 H4168 H 1.23946 0.58960 0.36875
 H4169 H 1.17732 0.61291 0.41816
 H4170 H 1.14935 0.59924 0.43160
 H4171 H 1.17248 0.54460 0.42394
 H4172 H 1.20031 0.55846 0.41019
 C4173 C 0.73679 1.10962 0.39074
 C4174 C 0.74504 1.10152 0.37520
 C4175 C 0.76069 1.10956 0.36717
 C4176 C 0.76834 1.12591 0.37454
 C4177 C 0.75999 1.13384 0.39030
 C4178 C 0.74433 1.12576 0.39831
 C4179 C 0.72048 1.10149 0.39878
 C4180 C 0.70678 1.09471 0.40546
 C4181 C 0.69042 1.08666 0.41347
 C4182 C 0.68888 1.06742 0.41521
 C4183 C 0.67303 1.05960 0.42310
 C4184 C 0.65851 1.07096 0.42936
 C4185 C 0.66016 1.09028 0.42748
 C4186 C 0.67600 1.09806 0.41958
 H4187 H 0.73932 1.08900 0.36924
 H4188 H 0.76667 1.10292 0.35516
 H4189 H 0.76540 1.14635 0.39647
 H4190 H 0.73806 1.13215 0.41036
 H4191 H 0.69995 1.05846 0.41050
 H4192 H 0.67220 1.04469 0.42446
 H4193 H 0.64906 1.09936 0.43185
 H4194 H 0.67698 1.11297 0.41818
 C4195 C 0.73666 0.60955 0.89035
 C4196 C 0.74488 0.60155 0.87475
 C4197 C 0.76047 0.60969 0.86669
 C4198 C 0.76810 0.62602 0.87413
 C4199 C 0.75968 0.63394 0.88986
 C4200 C 0.74409 0.62575 0.89789
 C4201 C 0.72056 0.60119 0.89855
 C4202 C 0.70702 0.59425 0.90539
 C4203 C 0.69077 0.58613 0.91355
 C4204 C 0.68924 0.56688 0.91524
 C4205 C 0.67338 0.55904 0.92310
 C4206 C 0.65886 0.57040 0.92940
 C4207 C 0.66055 0.58972 0.92762
 C4208 C 0.67639 0.59752 0.91975
 H4209 H 0.73924 0.58900 0.86878
 H4210 H 0.76646 0.60309 0.85467
 H4211 H 0.76503 0.64647 0.89603
 H4212 H 0.73781 0.63209 0.90996
 H4213 H 0.70030 0.55794 0.91049
 H4214 H 0.67253 0.54413 0.92441
 H4215 H 0.64947 0.59880 0.93205
 H4216 H 0.67738 0.61242 0.91842
 C4217 C 1.23685 0.89018 1.11002
 C4218 C 1.24434 0.87400 1.10247
 C4219 C 1.25998 0.86588 1.11045
 C4220 C 1.26839 0.87384 1.12615
 C4221 C 1.26071 0.89016 1.13359
 C4222 C 1.24507 0.89824 1.12557
 C4223 C 1.22068 0.89846 1.10187
 C4224 C 1.20709 0.90533 1.09507
 C4225 C 1.19081 0.91340 1.08695
 C4226 C 1.17648 0.90197 1.08073
 C4227 C 1.16063 0.90973 1.07284
 C4228 C 1.15889 0.92905 1.07104
 C4229 C 1.17335 0.94044 1.07737
 C4230 C 1.18921 0.93264 1.08526
 H4231 H 1.23806 0.86763 1.09042
 H4232 H 1.26537 0.85336 1.10428
 H4233 H 1.26670 0.89680 1.14558
 H4234 H 1.23938 0.91078 1.13153
 H4235 H 1.17753 0.88707 1.08207
 H4236 H 1.14960 0.90062 1.06840
 H4237 H 1.17246 0.95534 1.07604
 H4238 H 1.20023 0.94161 1.09004
 C4239 C 1.23660 0.39028 0.60993
 C4240 C 1.24394 0.37398 0.60249
 C4241 C 1.25946 0.36573 0.61057
 C4242 C 1.26790 0.37369 0.62625
 C4243 C 1.26034 0.39009 0.63362
 C4244 C 1.24481 0.39830 0.62551
 C4245 C 1.22058 0.39870 0.60165
 C4246 C 1.20710 0.40565 0.59475
 C4247 C 1.19090 0.41377 0.58653
 C4248 C 1.17655 0.40238 0.58032
 C4249 C 1.16072 0.41018 0.57243
 C4250 C 1.15905 0.42950 0.57063
 C4251 C 1.17354 0.44085 0.57693
 C4252 C 1.18938 0.43302 0.58481
 H4253 H 1.23765 0.36763 0.59043
 H4254 H 1.26474 0.35312 0.60447
 H4255 H 1.26634 0.39670 0.64563
 H4256 H 1.23922 0.41091 0.63140
 H4257 H 1.17755 0.38747 0.58167
 H4258 H 1.14966 0.40110 0.56801
 H4259 H 1.17268 0.45576 0.57560
 H4260 H 1.20043 0.44195 0.58958
 C4261 C 0.73599 0.89034 0.60995
 C4262 C 0.74344 0.87415 0.60240
 C4263 C 0.75909 0.86601 0.61035
 C4264 C 0.76753 0.87396 0.62604
 C4265 C 0.75987 0.89028 0.63350
 C4266 C 0.74423 0.89838 0.62551
 C4267 C 0.71990 0.89872 0.60173
 C4268 C 0.70641 0.90569 0.59483
 C4269 C 0.69023 0.91387 0.58660
 C4270 C 0.67585 0.90254 0.58035
 C4271 C 0.66006 0.91039 0.57244
 C4272 C 0.65845 0.92972 0.57064
 C4273 C 0.67298 0.94102 0.57696
 C4274 C 0.68878 0.93312 0.58487
 H4275 H 0.73715 0.86780 0.59034
 H4276 H 0.76447 0.85350 0.60415
 H4277 H 0.76591 0.89692 0.64547
 H4278 H 0.73857 0.91093 0.63147
 H4279 H 0.67680 0.88762 0.58169
 H4280 H 0.64897 0.90136 0.56800
 H4281 H 0.67218 0.95593 0.57562
 H4282 H 0.69986 0.94202 0.58964
 C4283 C 0.73663 0.39017 1.11031
 C4284 C 0.74478 0.39824 1.12590
 C4285 C 0.76039 0.39017 1.13399
 C4286 C 0.76811 0.37385 1.12659
 C4287 C 0.75976 0.36587 1.11086
 C4288 C 0.74415 0.37398 1.10280
 C4289 C 0.72052 0.39845 1.10205
 C4290 C 0.70698 0.40532 1.09514
 C4291 C 0.69074 0.41336 1.08689
 C4292 C 0.68915 0.43259 1.08516
 C4293 C 0.67330 0.44037 1.07722
 C4294 C 0.65885 0.42896 1.07089
 C4295 C 0.66061 0.40964 1.07269
 C4296 C 0.67645 0.40191 1.08064
 H4297 H 0.73905 0.41078 1.13183
 H4298 H 0.76633 0.39681 1.14601
 H4299 H 0.76519 0.35336 1.10470
 H4300 H 0.73794 0.36761 1.09073
 H4301 H 0.70014 0.44158 1.08995
 H4302 H 0.67240 0.45527 1.07588
 H4303 H 0.64959 0.40052 1.06825
 H4304 H 0.67750 0.38701 1.08201
 C4305 C 0.76353 1.10997 1.10980
 C4306 C 0.75610 1.10247 1.12605
 C4307 C 0.74053 1.11052 1.13424
 C4308 C 0.73213 1.12623 1.12629
 C4309 C 0.73975 1.13363 1.10991
 C4310 C 0.75532 1.12555 1.10175
 C4311 C 0.77962 1.10174 1.10146
 C4312 C 0.79316 1.09486 1.09456
 C4313 C 0.80940 1.08664 1.08648
 C4314 C 0.82377 1.08049 1.09791
 C4315 C 0.83961 1.07258 1.09014
 C4316 C 0.84127 1.07070 1.07080
 C4317 C 0.82676 1.07695 1.05941
 C4318 C 0.81091 1.08485 1.06722
 H4319 H 0.76236 1.09040 1.13240
 H4320 H 0.73519 1.10437 1.14681
 H4321 H 0.73375 1.14563 1.10327
 H4322 H 0.76096 1.13146 1.08915
 H4323 H 0.82277 1.08189 1.11283
 H4324 H 0.85069 1.06821 1.09924
 H4325 H 0.82760 1.07556 1.04449
 H4326 H 0.79985 1.08956 1.05825
 C4327 C 0.76373 0.60986 0.60947
 C4328 C 0.75556 0.62543 0.60136
 C4329 C 0.73996 0.63354 0.60945
 C4330 C 0.73228 0.62618 0.62582
 C4331 C 0.74068 0.61050 0.63386
 C4332 C 0.75627 0.60243 0.62573
 C4333 C 0.77982 0.60156 0.60117
 C4334 C 0.79334 0.59459 0.59433
 C4335 C 0.80956 0.58626 0.58631
 C4336 C 0.81110 0.58439 0.56706
 C4337 C 0.82694 0.57643 0.55930
 C4338 C 0.84143 0.57021 0.57074
 C4339 C 0.83972 0.57212 0.59007
 C4340 C 0.82389 0.58009 0.59779
 H4341 H 0.76124 0.63131 0.58876
 H4342 H 0.73399 0.64553 0.60278
 H4343 H 0.73532 0.60440 0.64644
 H4344 H 0.76252 0.59039 0.63215
 H4345 H 0.80007 0.58911 0.55805
 H4346 H 0.82781 0.57499 0.54439
 H4347 H 0.85077 0.56776 0.59921
 H4348 H 0.82287 0.58155 0.61270
 C4349 C 0.26324 1.11014 0.61004
 C4350 C 0.25510 1.12572 0.60192
 C4351 C 0.23947 1.13382 0.60996
 C4352 C 0.23174 1.12646 0.62630
 C4353 C 0.24009 1.11077 0.63435
 C4354 C 0.25571 1.10270 0.62627
 C4355 C 0.27932 1.10182 0.60176
 C4356 C 0.29284 1.09485 0.59489
 C4357 C 0.30904 1.08654 0.58683
 C4358 C 0.31056 1.08471 0.56758
 C4359 C 0.32640 1.07677 0.55978
 C4360 C 0.34091 1.07053 0.57118
 C4361 C 0.33922 1.07240 0.59052
 C4362 C 0.32339 1.08036 0.59828
 H4363 H 0.26083 1.13161 0.58935
 H4364 H 0.23353 1.14582 0.60327
 H4365 H 0.23467 1.10465 0.64690
 H4366 H 0.26193 1.09064 0.63270
 H4367 H 0.29952 1.08944 0.55859
 H4368 H 0.32726 1.07538 0.54486
 H4369 H 0.35028 1.06802 0.59963
 H4370 H 0.32239 1.08178 0.61319
 C4371 C 0.26337 0.61034 1.10980
 C4372 C 0.25593 0.60294 1.12608
 C4373 C 0.24032 0.61099 1.13419
 C4374 C 0.23188 0.62662 1.12611
 C4375 C 0.23953 0.63395 1.10971
 C4376 C 0.25515 0.62586 1.10164
 C4377 C 0.27948 0.60206 1.10153
 C4378 C 0.29303 0.59511 1.09470
 C4379 C 0.30927 0.58680 1.08673
 C4380 C 0.32351 0.58053 1.09826
 C4381 C 0.33936 0.57254 1.09059
 C4382 C 0.34119 0.57072 1.07126
 C4383 C 0.32679 0.57706 1.05977
 C4384 C 0.31092 0.58504 1.06748
 H4385 H 0.26221 0.59093 1.13253
 H4386 H 0.23498 0.60491 1.14679
 H4387 H 0.23352 0.64590 1.10300
 H4388 H 0.26081 0.63172 1.08902
 H4389 H 0.32241 0.58190 1.11317
 H4390 H 0.35035 0.56809 1.09977
 H4391 H 0.32774 0.57571 1.04486
 H4392 H 0.29997 0.58985 1.05844
 C4393 C 0.76324 0.89053 0.89025
 C4394 C 0.75499 0.89859 0.87469
 C4395 C 0.73935 0.89051 0.86669
 C4396 C 0.73170 0.87419 0.87414
 C4397 C 0.74014 0.86622 0.88984
 C4398 C 0.75578 0.87434 0.89781
 C4399 C 0.77941 0.89880 0.89840
 C4400 C 0.79299 0.90566 0.90520
 C4401 C 0.80929 0.91371 0.91332
 C4402 C 0.81089 0.93296 0.91494
 C4403 C 0.82678 0.94075 0.92276
 C4404 C 0.84125 0.92935 0.92910
 C4405 C 0.83949 0.91003 0.92740
 C4406 C 0.82361 0.90228 0.91956
 H4407 H 0.76066 0.91113 0.86872
 H4408 H 0.73334 0.89715 0.85469
 H4409 H 0.73478 0.85369 0.89602
 H4410 H 0.76208 0.86796 0.90985
 H4411 H 0.79987 0.94194 0.91016
 H4412 H 0.82769 0.95565 0.92403
 H4413 H 0.85052 0.90091 0.93186
 H4414 H 0.82255 0.88737 0.91830
 C4415 C 0.76367 0.38937 0.39061
 C4416 C 0.75542 0.37384 0.39868
 C4417 C 0.73978 0.36585 0.39058
 C4418 C 0.73214 0.37329 0.37423
 C4419 C 0.74059 0.38896 0.36625
 C4420 C 0.75622 0.39692 0.37439
 C4421 C 0.77982 0.39751 0.39889
 C4422 C 0.79340 0.40433 0.40574
 C4423 C 0.80968 0.41250 0.41376
 C4424 C 0.81130 0.41419 0.43302
 C4425 C 0.82715 0.42212 0.44077
 C4426 C 0.84157 0.42849 0.42932
 C4427 C 0.83980 0.42669 0.40998
 C4428 C 0.82396 0.41876 0.40227
 H4429 H 0.76108 0.36788 0.41125
 H4430 H 0.73376 0.35387 0.39723
 H4431 H 0.73524 0.39514 0.35370
 H4432 H 0.76252 0.40895 0.36801
 H4433 H 0.80032 0.40938 0.44204
 H4434 H 0.82807 0.42344 0.45569
 H4435 H 0.85080 0.43114 0.40082
 H4436 H 0.82288 0.41743 0.38735
 C4437 C 0.26350 0.88970 0.39054
 C4438 C 0.25531 0.89780 0.37497
 C4439 C 0.23972 0.88972 0.36688
 C4440 C 0.23208 0.87335 0.37425
 C4441 C 0.24045 0.86536 0.38997
 C4442 C 0.25604 0.87349 0.39803
 C4443 C 0.27963 0.89796 0.39875
 C4444 C 0.29318 0.90483 0.40561
 C4445 C 0.30941 0.91293 0.41377
 C4446 C 0.31092 0.93218 0.41541
 C4447 C 0.32674 0.94004 0.42327
 C4448 C 0.34126 0.92872 0.42961
 C4449 C 0.33960 0.90938 0.42790
 C4450 C 0.32378 0.90156 0.42003
 H4451 H 0.26097 0.91038 0.36907
 H4452 H 0.23375 0.89638 0.35488
 H4453 H 0.23508 0.85281 0.39610
 H4454 H 0.26228 0.86710 0.41010
 H4455 H 0.29986 0.94111 0.41061
 H4456 H 0.32757 0.95495 0.42455
 H4457 H 0.35067 0.90032 0.43237
 H4458 H 0.32280 0.88665 0.41875
 C4459 C 0.26360 0.38953 0.89068
 C4460 C 0.25548 0.37393 0.89878
 C4461 C 0.23987 0.36583 0.89073
 C4462 C 0.23213 0.37321 0.87440
 C4463 C 0.24047 0.38891 0.86636
 C4464 C 0.25608 0.39698 0.87445
 C4465 C 0.27968 0.39785 0.89896
 C4466 C 0.29319 0.40484 0.90581
 C4467 C 0.30938 0.41320 0.91384
 C4468 C 0.31096 0.41495 0.93309
 C4469 C 0.32678 0.42296 0.94085
 C4470 C 0.34120 0.42934 0.92942
 C4471 C 0.33945 0.42754 0.91008
 C4472 C 0.32364 0.41952 0.90236
 H4473 H 0.26120 0.36803 0.91134
 H4474 H 0.23394 0.35382 0.89739
 H4475 H 0.23506 0.39504 0.85382
 H4476 H 0.26227 0.40904 0.86803
 H4477 H 0.29999 0.41012 0.94211
 H4478 H 0.32766 0.42430 0.95578
 H4479 H 0.35044 0.43203 0.90093
 H4480 H 0.32260 0.41817 0.88744
   
