data_POSCAR
  _audit_creation_date              2014-09-24
  _audit_creation_method            'ToBaCCo'
  _symmetry_space_group_name_H-M    'P1'
  _symmetry_Int_Tables_number       1
  _symmetry_cell_setting            triclinic
  loop_
  _symmetry_equiv_pos_as_xyz
 x,y,z
_cell_length_a 56.2716
_cell_length_b 56.3016
_cell_length_c 56.0563
_cell_angle_alpha 89.528800
_cell_angle_beta 89.516500
_cell_angle_gamma 89.886200
loop_
  _atom_site_label
  _atom_site_type_symbol
  _atom_site_fract_x
  _atom_site_fract_y
  _atom_site_fract_z
N1 N 0.22238 0.22884 0.24089
 N2 N 0.72212 0.72847 0.74158
 N3 N 0.30559 0.81603 0.67844
 N4 N 0.80639 0.31522 0.17911
 N5 N 0.81904 0.67348 0.31906
 N6 N 0.27395 0.22641 -0.22962
 N7 N 0.74292 0.25479 -0.23763
 N8 N 0.24407 0.75467 0.26245
 N9 N 0.48605 0.47354 0.49040
 N10 N -0.01370 -0.02554 0.99186
 N11 N 1.06545 0.55496 0.93001
 N12 N 0.56634 0.05338 0.42952
 N13 N -0.07828 0.06565 0.56978
 N14 N 0.42321 0.56650 0.06980
 N15 N 0.50954 -0.00975 0.01198
 N16 N 1.01015 0.48920 0.51282
 C17 C 0.40221 0.01336 0.21566
 H18 H 0.40328 0.02845 0.22742
 C19 C 0.41603 0.01274 0.19487
 H20 H 0.42774 0.02743 0.19051
 C21 C 0.38571 -0.02430 0.20694
 H22 H 0.37414 -0.03884 0.21182
 C23 C 0.39924 -0.02563 0.18598
 H24 H 0.39783 -0.04106 0.17467
 N25 N 0.38714 -0.00481 0.22108
 C26 C 0.33247 0.02777 0.26591
 H27 H 0.33290 0.01624 0.28143
 C28 C 0.31708 0.04728 0.26541
 H29 H 0.30566 0.05088 0.28061
 C30 C 0.34701 0.03744 0.22720
 H31 H 0.35851 0.03348 0.21224
 C32 C 0.33189 0.05708 0.22596
 H33 H 0.33203 0.06833 0.21018
 Zn34 Zn 0.36890 -0.00231 0.24951
 N35 N 0.34742 0.02355 0.24719
 C36 C 0.38946 0.02242 0.28828
 N37 N 0.39063 0.00255 0.27463
 C38 C 0.40838 -0.01366 0.27747
 C39 C 0.42576 -0.01032 0.29477
 C40 C 0.40648 0.02643 0.30578
 C41 C 0.33383 -0.03547 0.23857
 C42 C 0.32079 -0.05647 0.24069
 C43 C 0.34248 -0.06600 0.27656
 C44 C 0.35513 -0.04482 0.27377
 N45 N 0.35097 -0.03032 0.25469
 H46 H 0.37568 0.03545 0.28534
 H47 H 0.40917 -0.02904 0.26605
 H48 H 0.43994 -0.02320 0.29679
 H49 H 0.40557 0.04240 0.31640
 H50 H 0.33069 -0.02347 0.22375
 H51 H 0.30759 -0.06073 0.22744
 H52 H 0.34624 -0.07772 0.29148
 H53 H 0.36844 -0.04018 0.28668
 C54 C 0.31701 0.06220 0.24534
 C55 C 0.41441 -0.00687 0.17984
 C56 C 0.32536 -0.07199 0.25971
 C57 C 0.42481 0.00995 0.30900
 C58 C 0.07874 -0.00786 0.72171
 H59 H 0.07888 -0.02453 0.73144
 C60 C 0.06133 -0.00351 0.70457
 H61 H 0.04804 -0.01689 0.70100
 C62 C 0.09545 0.03026 0.71486
 H63 H 0.10843 0.04359 0.71922
 C64 C 0.07838 0.03531 0.69760
 H65 H 0.07845 0.05241 0.68859
 N66 N 0.09546 0.00888 0.72639
 C67 C 0.15560 -0.02915 0.75740
 H68 H 0.15772 -0.01923 0.77369
 C69 C 0.17162 -0.04726 0.75173
 H70 H 0.18609 -0.05138 0.76371
 C71 C 0.13466 -0.03539 0.72144
 H72 H 0.12056 -0.03039 0.70945
 C73 C 0.15031 -0.05363 0.71509
 H74 H 0.14809 -0.06274 0.69831
 Zn75 Zn 0.11783 0.00235 0.75069
 N76 N 0.13751 -0.02365 0.74236
 C77 C 0.10373 -0.02474 0.79165
 N78 N 0.10057 -0.00415 0.77914
 C79 C 0.08460 0.01251 0.78644
 C80 C 0.07162 0.00917 0.80753
 C81 C 0.09110 -0.02878 0.81287
 C82 C 0.15269 0.03502 0.73650
 C83 C 0.16791 0.05447 0.73846
 C84 C 0.15328 0.06042 0.77863
 C85 C 0.13833 0.04087 0.77593
 N86 N 0.13803 0.02885 0.75495
 H87 H 0.11611 -0.03799 0.78531
 H88 H 0.08221 0.02856 0.77598
 H89 H 0.05923 0.02270 0.81342
 H90 H 0.09396 -0.04503 0.82293
 H91 H 0.15237 0.02493 0.72017
 H92 H 0.17929 0.05946 0.72357
 H93 H 0.15323 0.07007 0.79528
 H94 H 0.12702 0.03536 0.79060
 C95 C 0.16899 -0.05954 0.73034
 C96 C 0.06117 0.01829 0.69242
 C97 C 0.16809 0.06735 0.75967
 C98 C 0.07504 -0.01158 0.82095
 C99 C 0.58055 0.49363 0.22031
 H100 H 0.58001 0.47682 0.22979
 C101 C 0.56361 0.49874 0.20293
 H102 H 0.55000 0.48582 0.19893
 C103 C 0.59854 0.53131 0.21436
 H104 H 0.61190 0.54411 0.21917
 C105 C 0.58192 0.53714 0.19686
 H106 H 0.58264 0.55436 0.18811
 N107 N 0.59762 0.50979 0.22559
 C108 C 0.65538 0.46907 0.25748
 H109 H 0.65713 0.47841 0.27416
 C110 C 0.67118 0.45079 0.25180
 H111 H 0.68510 0.44594 0.26417
 C112 C 0.63567 0.46454 0.22055
 H113 H 0.62217 0.47030 0.20821
 C114 C 0.65114 0.44615 0.21417
 H115 H 0.64937 0.43767 0.19699
 Zn116 Zn 0.61891 0.50190 0.25040
 N117 N 0.63802 0.47552 0.24195
 C118 C 0.60257 0.47403 0.28996
 N119 N 0.60047 0.49507 0.27801
 C120 C 0.58495 0.51210 0.28542
 C121 C 0.57144 0.50869 0.30616
 C122 C 0.58937 0.46990 0.31082
 C123 C 0.65573 0.53365 0.23903
 C124 C 0.67301 0.55086 0.24332
 C125 C 0.65755 0.55477 0.28345
 C126 C 0.64059 0.53750 0.27843
 N127 N 0.63996 0.52732 0.25649
 H128 H 0.61460 0.46051 0.28353
 H129 H 0.58344 0.52853 0.27540
 H130 H 0.55950 0.52255 0.31221
 H131 H 0.59145 0.45331 0.32051
 H132 H 0.65516 0.52493 0.22191
 H133 H 0.68573 0.55552 0.22946
 H134 H 0.65818 0.56247 0.30108
 H135 H 0.62841 0.53181 0.29231
 C136 C 0.66910 0.43930 0.22991
 C137 C 0.56428 0.52071 0.19114
 C138 C 0.67400 0.56138 0.26580
 C139 C 0.57385 0.48750 0.31909
 C140 C 0.90234 0.51293 0.71622
 H141 H 0.90342 0.52801 0.72800
 C142 C 0.91626 0.51228 0.69549
 H143 H 0.92804 0.52692 0.69119
 C144 C 0.88574 0.47535 0.70740
 H145 H 0.87409 0.46085 0.71222
 C146 C 0.89936 0.47398 0.68650
 H147 H 0.89793 0.45856 0.67518
 N148 N 0.88717 0.49482 0.72156
 C149 C 0.83232 0.52743 0.76615
 H150 H 0.83262 0.51582 0.78162
 C151 C 0.81695 0.54696 0.76562
 H152 H 0.80541 0.55049 0.78074
 C153 C 0.84716 0.53725 0.72759
 H154 H 0.85878 0.53335 0.71271
 C155 C 0.83207 0.55692 0.72632
 H156 H 0.83235 0.56824 0.71060
 Zn157 Zn 0.86880 0.49733 0.74991
 N158 N 0.84740 0.52327 0.74752
 C159 C 0.88919 0.52198 0.78880
 N160 N 0.89040 0.50211 0.77516
 C161 C 0.90813 0.48588 0.77809
 C162 C 0.92544 0.48922 0.79546
 C163 C 0.90613 0.52599 0.80637
 C164 C 0.83363 0.46437 0.73874
 C165 C 0.82048 0.44343 0.74074
 C166 C 0.84203 0.43364 0.77663
 C167 C 0.85480 0.45476 0.77395
 N168 N 0.85075 0.46937 0.75494
 H169 H 0.87543 0.53502 0.78580
 H170 H 0.90896 0.47049 0.76668
 H171 H 0.93961 0.47633 0.79753
 H172 H 0.90520 0.54197 0.81697
 H173 H 0.83059 0.47644 0.72396
 H174 H 0.80728 0.43930 0.72745
 H175 H 0.84570 0.42183 0.79151
 H176 H 0.86811 0.45928 0.78691
 C177 C 0.81704 0.56196 0.74561
 C178 C 0.91462 0.49268 0.68044
 C179 C 0.82491 0.42781 0.75971
 C180 C 0.92445 0.50950 0.80966
 C181 C 0.21742 0.40310 0.01236
 H182 H 0.22688 0.40435 0.02902
 C183 C 0.19920 0.41916 0.00719
 H184 H 0.19450 0.43279 0.01993
 C185 C 0.21261 0.38447 -0.02509
 H186 H 0.21826 0.37137 -0.03791
 C187 C 0.19429 0.40018 -0.03096
 H188 H 0.18576 0.39895 -0.04817
 N189 N 0.22373 0.38615 -0.00369
 C190 C 0.26086 0.33155 0.03754
 H191 H 0.27719 0.33025 0.02730
 C192 C 0.25762 0.31752 0.05796
 H193 H 0.27150 0.30539 0.06355
 C194 C 0.22289 0.34917 0.04298
 H195 H 0.20935 0.36141 0.03702
 C196 C 0.21892 0.33545 0.06351
 H197 H 0.20243 0.33734 0.07343
 Zn198 Zn 0.25021 0.36665 0.00363
 N199 N 0.24380 0.34732 0.03074
 C200 C 0.28692 0.38715 0.03130
 N201 N 0.27585 0.38743 0.00979
 C202 C 0.28141 0.40397 -0.00720
 C203 C 0.29873 0.42111 -0.00287
 C204 C 0.30435 0.40397 0.03635
 C205 C 0.24083 0.32978 -0.02793
 C206 C 0.24426 0.31521 -0.04771
 C207 C 0.28199 0.33449 -0.05504
 C208 C 0.27786 0.34872 -0.03512
 N209 N 0.25728 0.34648 -0.02234
 H210 H 0.28184 0.37435 0.04483
 H211 H 0.27199 0.40411 -0.02395
 H212 H 0.30278 0.43443 -0.01634
 H213 H 0.31278 0.40388 0.05366
 H214 H 0.22476 0.32822 -0.01731
 H215 H 0.23078 0.30240 -0.05240
 H216 H 0.29814 0.33675 -0.06548
 H217 H 0.29092 0.36176 -0.03013
 C218 C 0.23655 0.31967 0.07119
 C219 C 0.18762 0.41775 -0.01473
 C220 C 0.26490 0.31779 -0.06154
 C221 C 0.31018 0.42119 0.01918
 C222 C 0.71952 0.08037 -0.01010
 H223 H 0.73167 0.07737 -0.02484
 C224 C 0.69869 0.06703 -0.00809
 H225 H 0.69471 0.05374 -0.02134
 C226 C 0.70959 0.10165 0.02495
 H227 H 0.71392 0.11509 0.03783
 C228 C 0.68856 0.08870 0.02763
 H229 H 0.67666 0.09236 0.04244
 N230 N 0.72429 0.09765 0.00599
 C231 C 0.76700 0.14965 -0.03306
 H232 H 0.78203 0.15107 -0.02126
 C233 C 0.76617 0.16335 -0.05391
 H234 H 0.78064 0.17532 -0.05828
 C235 C 0.72971 0.13233 -0.04183
 H236 H 0.71539 0.12048 -0.03695
 C237 C 0.72817 0.14572 -0.06285
 H238 H 0.71282 0.14392 -0.07421
 Zn239 Zn 0.75196 0.11611 0.00082
 N240 N 0.74912 0.13422 -0.02764
 C241 C 0.79214 0.09505 -0.02152
 N242 N 0.77829 0.09519 -0.00148
 C243 C 0.78292 0.08041 0.01726
 C244 C 0.80281 0.06551 0.01674
 C245 C 0.81216 0.08042 -0.02277
 C246 C 0.73981 0.15545 0.02865
 C247 C 0.74285 0.17299 0.04583
 C248 C 0.77998 0.15448 0.05689
 C249 C 0.77626 0.13728 0.03951
 N250 N 0.75635 0.13799 0.02588
 H251 H 0.78787 0.10639 -0.03649
 H252 H 0.77141 0.08061 0.03281
 H253 H 0.80673 0.05423 0.03196
 H254 H 0.82337 0.08079 -0.03859
 H255 H 0.72440 0.15589 0.01724
 H256 H 0.72971 0.18695 0.04776
 H257 H 0.79600 0.15395 0.06748
 H258 H 0.78955 0.12374 0.03663
 C259 C 0.74665 0.16123 -0.06900
 C260 C 0.68295 0.07145 0.01079
 C261 C 0.76317 0.17253 0.06000
 C262 C 0.81769 0.06574 -0.00337
 C263 C 0.21976 0.58009 0.49013
 H264 H 0.23192 0.57707 0.47541
 C265 C 0.19897 0.56670 0.49219
 H266 H 0.19504 0.55335 0.47900
 C267 C 0.20976 0.60147 0.52511
 H268 H 0.21406 0.61496 0.53794
 C269 C 0.18878 0.58847 0.52783
 H270 H 0.17686 0.59215 0.54263
 N271 N 0.22448 0.59744 0.50616
 C272 C 0.26723 0.64933 0.46699
 H273 H 0.28224 0.65080 0.47881
 C274 C 0.26643 0.66299 0.44610
 H275 H 0.28090 0.67496 0.44173
 C276 C 0.22997 0.63197 0.45819
 H277 H 0.21565 0.62012 0.46308
 C278 C 0.22846 0.64532 0.43714
 H279 H 0.21312 0.64349 0.42576
 Zn280 Zn 0.25214 0.61592 0.50096
 N281 N 0.24935 0.63391 0.47242
 C282 C 0.29234 0.59475 0.47877
 N283 N 0.27851 0.59500 0.49882
 C284 C 0.28315 0.58031 0.51763
 C285 C 0.30300 0.56536 0.51715
 C286 C 0.31231 0.58006 0.47755
 C287 C 0.23983 0.65536 0.52853
 C288 C 0.24276 0.67302 0.54560
 C289 C 0.27990 0.65467 0.55691
 C290 C 0.27629 0.63735 0.53963
 N291 N 0.25643 0.63793 0.52593
 H292 H 0.28806 0.60602 0.46374
 H293 H 0.27165 0.58059 0.53319
 H294 H 0.30691 0.55412 0.53240
 H295 H 0.32348 0.58032 0.46171
 H296 H 0.22446 0.65569 0.51706
 H297 H 0.22958 0.68696 0.54740
 H298 H 0.29588 0.65425 0.56756
 H299 H 0.28961 0.62382 0.53689
 C300 C 0.24694 0.66083 0.43098
 C301 C 0.18322 0.57114 0.51106
 C302 C 0.26304 0.67270 0.55985
 C303 C 0.31784 0.56545 0.49700
 C304 C 0.71701 0.90059 0.51032
 H305 H 0.72619 0.90230 0.52710
 C306 C 0.69877 0.91639 0.50450
 H307 H 0.69379 0.93026 0.51687
 C308 C 0.71294 0.88106 0.47323
 H309 H 0.71890 0.86766 0.46087
 C310 C 0.69460 0.89653 0.46671
 H311 H 0.68635 0.89486 0.44942
 N312 N 0.72370 0.88335 0.49476
 C313 C 0.76069 0.83064 0.53832
 H314 H 0.77725 0.82943 0.52846
 C315 C 0.75728 0.81699 0.55897
 H316 H 0.77127 0.80524 0.56510
 C317 C 0.72228 0.84763 0.54257
 H318 H 0.70864 0.85946 0.53604
 C319 C 0.71815 0.83427 0.56331
 H320 H 0.70141 0.83603 0.57284
 Zn321 Zn 0.75024 0.86450 0.50328
 N322 N 0.74348 0.84591 0.53080
 C323 C 0.78563 0.88653 0.53140
 N324 N 0.77538 0.88584 0.50950
 C325 C 0.78146 0.90171 0.49206
 C326 C 0.79851 0.91914 0.49632
 C327 C 0.80275 0.90366 0.53639
 C328 C 0.74263 0.82629 0.47275
 C329 C 0.74808 0.80965 0.45518
 C330 C 0.78637 0.82840 0.44974
 C331 C 0.78020 0.84471 0.46741
 N332 N 0.75856 0.84345 0.47840
 H333 H 0.78013 0.87425 0.54526
 H334 H 0.77269 0.90107 0.47497
 H335 H 0.80299 0.93193 0.48246
 H336 H 0.81055 0.90432 0.55398
 H337 H 0.72572 0.82547 0.48205
 H338 H 0.73533 0.79599 0.45085
 H339 H 0.80366 0.82941 0.44116
 H340 H 0.79283 0.85811 0.47253
 C341 C 0.73590 0.81899 0.57169
 C342 C 0.68757 0.91442 0.48245
 C343 C 0.77016 0.81071 0.44360
 C344 C 0.80913 0.92019 0.51874
 C345 C -0.00660 0.22326 0.41622
 H346 H 0.00956 0.23356 0.41733
 C347 C -0.01130 0.20545 0.43308
 H348 H 0.00129 0.20193 0.44719
 C349 C -0.04310 0.21567 0.39687
 H350 H -0.05565 0.21999 0.38302
 C351 C -0.04850 0.19770 0.41339
 H352 H -0.06511 0.18811 0.41208
 N353 N -0.02235 0.22792 0.39849
 C354 C 0.01867 0.26263 0.34184
 H355 H 0.00782 0.27829 0.33913
 C356 C 0.03919 0.25930 0.32809
 H357 H 0.04423 0.27246 0.31479
 C358 C 0.02550 0.22642 0.36264
 H359 H 0.02003 0.21359 0.37600
 C360 C 0.04619 0.22241 0.34927
 H361 H 0.05672 0.20660 0.35252
 Zn362 Zn -0.01511 0.25328 0.37729
 N363 N 0.01248 0.24652 0.35901
 C364 C 0.01072 0.29288 0.39460
 N365 N -0.01012 0.28068 0.39601
 C366 C -0.02790 0.28757 0.41105
 C367 C -0.02546 0.30804 0.42474
 C368 C 0.01389 0.31343 0.40799
 C369 C -0.04533 0.24134 0.33964
 C370 C -0.06265 0.24510 0.32228
 C371 C -0.06896 0.28454 0.33782
 C372 C -0.05155 0.28006 0.35487
 N373 N -0.04019 0.25869 0.35555
 H374 H 0.02489 0.28683 0.38305
 H375 H -0.04413 0.27734 0.41209
 H376 H -0.03987 0.31367 0.43632
 H377 H 0.03037 0.32326 0.40648
 H378 H -0.03571 0.22469 0.34027
 H379 H -0.06649 0.23130 0.30953
 H380 H -0.07771 0.30170 0.33723
 H381 H -0.04680 0.29389 0.36716
 C382 C 0.05317 0.23912 0.33200
 C383 C -0.03246 0.19258 0.43166
 C384 C -0.07450 0.26695 0.32133
 C385 C -0.00444 0.32118 0.42301
 C386 C -0.00547 0.70656 0.08903
 H387 H -0.02185 0.71663 0.08978
 C388 C -0.00223 0.68928 0.07153
 H389 H -0.01618 0.68593 0.05879
 C390 C 0.03312 0.69914 0.10412
 H391 H 0.04711 0.70338 0.11642
 C392 C 0.03707 0.68174 0.08693
 H393 H 0.05397 0.67250 0.08626
 N394 N 0.01206 0.71106 0.10495
 C395 C -0.02245 0.74476 0.16609
 H396 H -0.01180 0.76067 0.16736
 C397 C -0.04032 0.74023 0.18295
 H398 H -0.04355 0.75272 0.19722
 C399 C -0.03085 0.70866 0.14635
 H400 H -0.02681 0.69619 0.13235
 C401 C -0.04889 0.70345 0.16285
 H402 H -0.05882 0.68707 0.16139
 Zn403 Zn 0.00735 0.73599 0.12701
 N404 N -0.01815 0.72911 0.14818
 C405 C -0.01854 0.77738 0.11290
 N406 N 0.00124 0.76393 0.10909
 C407 C 0.01748 0.76990 0.09195
 C408 C 0.01460 0.79059 0.07841
 C409 C -0.02210 0.79826 0.09973
 C410 C 0.04136 0.72189 0.16052
 C411 C 0.06192 0.72361 0.17419
 C412 C 0.06832 0.76299 0.15794
 C413 C 0.04766 0.76054 0.14456
 N414 N 0.03491 0.74003 0.14572
 H415 H -0.03149 0.77209 0.12623
 H416 H 0.03287 0.75871 0.08910
 H417 H 0.02785 0.79544 0.06511
 H418 H -0.03766 0.80911 0.10310
 H419 H 0.03070 0.70593 0.16137
 H420 H 0.06719 0.70891 0.18558
 H421 H 0.07858 0.77921 0.15662
 H422 H 0.04196 0.77500 0.13320
 C423 C -0.05362 0.71937 0.18132
 C424 C 0.01927 0.67683 0.07046
 C425 C 0.07561 0.74427 0.17271
 C426 C -0.00526 0.80499 0.08248
 C427 C 0.49503 0.20526 0.58766
 H428 H 0.47895 0.21583 0.58760
 C429 C 0.49847 0.18770 0.57048
 H430 H 0.48496 0.18463 0.55719
 C431 C 0.53275 0.19692 0.60439
 H432 H 0.54635 0.20093 0.61718
 C433 C 0.53688 0.17922 0.58755
 H434 H 0.55353 0.16953 0.58763
 N435 N 0.51203 0.20946 0.60423
 C436 C 0.47640 0.24571 0.66321
 H437 H 0.48821 0.26071 0.66508
 C438 C 0.45649 0.24352 0.67808
 H439 H 0.45289 0.25689 0.69143
 C440 C 0.46641 0.21016 0.64324
 H441 H 0.47038 0.19717 0.62971
 C442 C 0.44628 0.20729 0.65777
 H443 H 0.43467 0.19221 0.65523
 Zn444 Zn 0.50722 0.23496 0.62561
 N445 N 0.48070 0.22943 0.64588
 C446 C 0.48226 0.27613 0.60969
 N447 N 0.50220 0.26266 0.60689
 C448 C 0.51910 0.26845 0.59033
 C449 C 0.51677 0.28903 0.57647
 C450 C 0.47923 0.29685 0.59618
 C451 C 0.54012 0.22096 0.66045
 C452 C 0.56040 0.22267 0.67454
 C453 C 0.56762 0.26169 0.65774
 C454 C 0.54724 0.25925 0.64396
 N455 N 0.53424 0.23890 0.64515
 H456 H 0.46874 0.27096 0.62247
 H457 H 0.53460 0.25723 0.58822
 H458 H 0.53053 0.29378 0.56368
 H459 H 0.46351 0.30770 0.59879
 H460 H 0.52926 0.20513 0.66132
 H461 H 0.56527 0.20811 0.68628
 H462 H 0.57811 0.27776 0.65635
 H463 H 0.54198 0.27358 0.63223
 C464 C 0.44116 0.22428 0.67515
 C465 C 0.51963 0.17464 0.57039
 C466 C 0.57438 0.24314 0.67297
 C467 C 0.49674 0.30346 0.57959
 C468 C 0.49248 0.72441 0.91575
 H469 H 0.50863 0.73472 0.91685
 C470 C 0.48776 0.70664 0.93264
 H471 H 0.50034 0.70317 0.94678
 C472 C 0.45602 0.71671 0.89635
 H473 H 0.44351 0.72097 0.88245
 C474 C 0.45061 0.69879 0.91290
 H475 H 0.43403 0.68916 0.91159
 N476 N 0.47676 0.72899 0.89797
 C477 C 0.51811 0.76327 0.84132
 H478 H 0.50737 0.77898 0.83849
 C479 C 0.53868 0.75978 0.82772
 H480 H 0.54389 0.77286 0.81440
 C481 C 0.52461 0.72709 0.86229
 H482 H 0.51899 0.71433 0.87566
 C483 C 0.54535 0.72291 0.84906
 H484 H 0.55577 0.70706 0.85243
 Zn485 Zn 0.48412 0.75422 0.87666
 N486 N 0.51173 0.74726 0.85852
 C487 C 0.51001 0.79383 0.89386
 N488 N 0.48914 0.78169 0.89525
 C489 C 0.47133 0.78868 0.91022
 C490 C 0.47378 0.80919 0.92384
 C491 C 0.51320 0.81442 0.90718
 C492 C 0.45391 0.74218 0.83900
 C493 C 0.43663 0.74592 0.82160
 C494 C 0.43046 0.78547 0.83691
 C495 C 0.44784 0.78101 0.85401
 N496 N 0.45910 0.75960 0.85482
 H497 H 0.52420 0.78770 0.88237
 H498 H 0.45507 0.77850 0.91124
 H499 H 0.45935 0.81490 0.93536
 H500 H 0.52971 0.82420 0.90569
 H501 H 0.46347 0.72550 0.83974
 H502 H 0.43275 0.73206 0.80893
 H503 H 0.42178 0.80265 0.83623
 H504 H 0.45263 0.79489 0.86622
 C505 C 0.55253 0.73953 0.83178
 C506 C 0.46663 0.69374 0.93121
 C507 C 0.42487 0.76781 0.82052
 C508 C 0.49483 0.82227 0.92212
 C509 C 0.12103 0.24223 0.27012
 C510 C 0.14442 0.25342 0.27902
 C511 C 0.15756 0.23025 0.27306
 C512 C 0.13452 0.21901 0.26395
 C513 C 0.11632 0.23243 0.29538
 C514 C 0.12943 0.20923 0.28943
 C515 C 0.13938 0.24364 0.30445
 C516 C 0.15284 0.22045 0.29832
 C517 C 0.18073 0.22941 0.26101
 C518 C 0.20002 0.22904 0.25149
 C519 C 0.09356 0.23414 0.30812
 C520 C 0.07504 0.23610 0.31888
 H521 H 0.10768 0.25119 0.25867
 H522 H 0.15083 0.27158 0.27461
 H523 H 0.13280 0.20888 0.24715
 H524 H 0.12301 0.19108 0.29385
 H525 H 0.14114 0.25379 0.32124
 H526 H 0.16618 0.21149 0.30978
 C527 C 0.63859 0.72215 0.80677
 C528 C 0.64355 0.70834 0.78344
 C529 C 0.65724 0.72992 0.77359
 C530 C 0.65263 0.74370 0.79673
 C531 C 0.61587 0.73235 0.79562
 C532 C 0.62958 0.75391 0.78576
 C533 C 0.62043 0.71856 0.77249
 C534 C 0.63451 0.74012 0.76244
 C535 C 0.68047 0.72900 0.76166
 C536 C 0.69977 0.72863 0.75219
 C537 C 0.59303 0.73423 0.80820
 C538 C 0.57446 0.73633 0.81882
 H539 H 0.64001 0.71478 0.82513
 H540 H 0.64956 0.68958 0.78235
 H541 H 0.66611 0.75403 0.80657
 H542 H 0.62359 0.77267 0.78685
 H543 H 0.60692 0.70824 0.76268
 H544 H 0.63311 0.74749 0.74408
 C545 C 0.37996 0.77529 0.74142
 C546 C 0.35295 0.77002 0.74108
 C547 C 0.34839 0.79570 0.73281
 C548 C 0.37515 0.80106 0.73286
 C549 C 0.37744 0.78356 0.76737
 C550 C 0.37286 0.80923 0.75908
 C551 C 0.35068 0.77818 0.76736
 C552 C 0.34586 0.80397 0.75876
 C553 C 0.33256 0.80279 0.71339
 C554 C 0.31988 0.80888 0.69722
 C555 C 0.39396 0.77727 0.78647
 C556 C 0.40788 0.77265 0.80206
 H557 H 0.39416 0.76342 0.73450
 H558 H 0.34457 0.75397 0.73345
 H559 H 0.38505 0.81055 0.71848
 H560 H 0.38122 0.82529 0.76669
 H561 H 0.34081 0.76869 0.78176
 H562 H 0.33165 0.81584 0.76567
 C563 C -0.11824 0.27628 0.24188
 C564 C -0.14478 0.26916 0.24048
 C565 C -0.15098 0.29490 0.23364
 C566 C -0.12470 0.30211 0.23474
 C567 C -0.12196 0.28276 0.26822
 C568 C -0.12819 0.30849 0.26135
 C569 C -0.14824 0.27553 0.26715
 C570 C -0.15472 0.30138 0.25997
 C571 C -0.16678 0.30199 0.21418
 C572 C -0.17941 0.30807 0.19796
 C573 C -0.10544 0.27646 0.28732
 C574 C -0.09151 0.27182 0.30289
 H575 H -0.10306 0.26588 0.23465
 H576 H -0.15179 0.25307 0.23167
 H577 H -0.11518 0.31312 0.22122
 H578 H -0.12119 0.32460 0.27014
 H579 H -0.15773 0.26452 0.28069
 H580 H -0.16989 0.31179 0.26719
 C581 C -0.09809 0.70183 0.25928
 C582 C -0.12112 0.71593 0.26487
 C583 C -0.13487 0.69240 0.26623
 C584 C -0.11211 0.67822 0.26092
 C585 C -0.10385 0.70339 0.23257
 C586 C -0.11761 0.67987 0.23393
 C587 C -0.12661 0.71760 0.23786
 C588 C -0.14065 0.69396 0.23952
 C589 C -0.15184 0.68596 0.28515
 C590 C -0.16551 0.68031 0.30087
 C591 C -0.08628 0.70929 0.21403
 C592 C -0.07154 0.71396 0.19900
 H593 H -0.08040 0.70512 0.26722
 H594 H -0.12275 0.73068 0.27780
 H595 H -0.10632 0.66196 0.27061
 H596 H -0.11597 0.66511 0.22101
 H597 H -0.13236 0.73385 0.22815
 H598 H -0.15835 0.69066 0.23161
 C599 C 0.37527 0.21206 0.73944
 C600 C 0.36112 0.23482 0.74585
 C601 C 0.33826 0.22277 0.73735
 C602 C 0.35202 0.20001 0.73116
 C603 C 0.37902 0.22190 0.71404
 C604 C 0.35615 0.20985 0.70556
 C605 C 0.36523 0.24464 0.72025
 C606 C 0.34206 0.23260 0.71196
 C607 C 0.31531 0.22370 0.74984
 C608 C 0.29617 0.22484 0.75960
 C609 C 0.40147 0.22199 0.70063
 C610 C 0.41970 0.22268 0.68920
 H611 H 0.38920 0.20360 0.75058
 H612 H 0.36290 0.24510 0.76255
 H613 H 0.34632 0.18167 0.73580
 H614 H 0.35436 0.19958 0.68886
 H615 H 0.37089 0.26299 0.71563
 H616 H 0.32816 0.24106 0.70079
 C617 C 0.65967 0.25912 0.69790
 C618 C 0.66422 0.27269 0.72134
 C619 C 0.67853 0.25132 0.73061
 C620 C 0.67432 0.23778 0.70734
 C621 C 0.63724 0.24819 0.70926
 C622 C 0.65156 0.22682 0.71852
 C623 C 0.64142 0.26173 0.73252
 C624 C 0.65611 0.24038 0.74199
 C625 C 0.70167 0.25286 0.74224
 C626 C 0.72082 0.25387 0.75165
 C627 C 0.61448 0.24638 0.69693
 C628 C 0.59604 0.24488 0.68629
 H629 H 0.66087 0.26681 0.67963
 H630 H 0.66969 0.29157 0.72263
 H631 H 0.68810 0.22796 0.69710
 H632 H 0.64609 0.20794 0.71724
 H633 H 0.62762 0.27154 0.74274
 H634 H 0.65493 0.23269 0.76026
 C635 C 0.16122 0.76002 0.19751
 C636 C 0.16573 0.77328 0.22114
 C637 C 0.17990 0.75173 0.23022
 C638 C 0.17573 0.73850 0.20677
 C639 C 0.13869 0.74906 0.20864
 C640 C 0.15287 0.72752 0.21772
 C641 C 0.14283 0.76231 0.23209
 C642 C 0.15738 0.74078 0.24137
 C643 C 0.20297 0.75303 0.24201
 C644 C 0.22206 0.75388 0.25156
 C645 C 0.11593 0.74746 0.19629
 C646 C 0.09742 0.74604 0.18575
 H647 H 0.16255 0.76791 0.17933
 H648 H 0.17128 0.79211 0.22268
 H649 H 0.18951 0.72873 0.19649
 H650 H 0.14732 0.70869 0.21619
 H651 H 0.12903 0.77207 0.24236
 H652 H 0.15607 0.73288 0.25954
 C653 C 0.26239 0.13343 0.26425
 C654 C 0.27417 0.15804 0.26056
 C655 C 0.25487 0.16448 0.24238
 C656 C 0.24286 0.14023 0.24606
 C657 C 0.27766 0.12367 0.24370
 C658 C 0.25836 0.13009 0.22551
 C659 C 0.28962 0.14795 0.24003
 C660 C 0.27015 0.15471 0.22184
 C661 C 0.24268 0.18748 0.24171
 C662 C 0.23308 0.20663 0.24127
 C663 C 0.29094 0.10129 0.24440
 C664 C 0.30249 0.08325 0.24489
 H665 H 0.25934 0.12442 0.28170
 H666 H 0.28055 0.16979 0.27496
 H667 H 0.22349 0.13733 0.24852
 H668 H 0.25201 0.11833 0.21111
 H669 H 0.30899 0.15089 0.23756
 H670 H 0.27321 0.16372 0.20439
 C671 C 0.76930 0.63701 0.76623
 C672 C 0.77890 0.66026 0.75481
 C673 C 0.75472 0.66416 0.74285
 C674 C 0.74491 0.64125 0.75426
 C675 C 0.77760 0.62339 0.74403
 C676 C 0.75343 0.62725 0.73205
 C677 C 0.78738 0.64632 0.73263
 C678 C 0.76303 0.65054 0.72065
 C679 C 0.74248 0.68713 0.74227
 C680 C 0.73285 0.70628 0.74189
 C681 C 0.79093 0.60103 0.74467
 C682 C 0.80251 0.58301 0.74515
 H683 H 0.77202 0.63120 0.78498
 H684 H 0.78925 0.67407 0.76416
 H685 H 0.72729 0.63944 0.76315
 H686 H 0.74310 0.61341 0.72271
 H687 H 0.80499 0.64817 0.72374
 H688 H 0.76031 0.65637 0.70190
 C689 C 0.77731 0.35274 0.74182
 C690 C 0.79074 0.32893 0.74518
 C691 C 0.77150 0.32087 0.76307
 C692 C 0.75788 0.34433 0.75971
 C693 C 0.79134 0.36314 0.76266
 C694 C 0.77209 0.35511 0.78057
 C695 C 0.80493 0.33967 0.76601
 C696 C 0.78553 0.33127 0.78392
 C697 C 0.76082 0.29717 0.76303
 C698 C 0.75237 0.27751 0.76280
 C699 C 0.80281 0.38647 0.76209
 C700 C 0.81266 0.40544 0.76123
 H701 H 0.77404 0.36183 0.72450
 H702 H 0.79830 0.31792 0.73062
 H703 H 0.73841 0.34596 0.75712
 H704 H 0.76456 0.36615 0.79512
 H705 H 0.82440 0.33801 0.76860
 H706 H 0.78879 0.32216 0.80123
 C707 C 0.30232 -0.15858 0.27617
 C708 C 0.27704 -0.16432 0.28572
 C709 C 0.27261 -0.17924 0.26337
 C710 C 0.29772 -0.17385 0.25384
 C711 C 0.29221 -0.13687 0.26291
 C712 C 0.28777 -0.15180 0.24057
 C713 C 0.26710 -0.14222 0.27245
 C714 C 0.26249 -0.15753 0.25010
 C715 C 0.26201 -0.20297 0.26332
 C716 C 0.25357 -0.22263 0.26301
 C717 C 0.30353 -0.11347 0.26227
 C718 C 0.31326 -0.09443 0.26133
 H719 H 0.31882 -0.15876 0.28689
 H720 H 0.27250 -0.16975 0.30429
 H721 H 0.31019 -0.18711 0.24618
 H722 H 0.29230 -0.14640 0.22200
 H723 H 0.25465 -0.12893 0.28009
 H724 H 0.24599 -0.15737 0.23938
 C725 C 0.24554 -0.10392 0.71075
 C726 C 0.25032 -0.12812 0.72314
 C727 C 0.25213 -0.13979 0.69851
 C728 C 0.24761 -0.11583 0.68603
 C729 C 0.21881 -0.10944 0.71112
 C730 C 0.22061 -0.12111 0.68649
 C731 C 0.22330 -0.13340 0.72363
 C732 C 0.22541 -0.14535 0.69887
 C733 C 0.27106 -0.15624 0.69139
 C734 C 0.28699 -0.16932 0.68542
 C735 C 0.20060 -0.09212 0.71804
 C736 C 0.18600 -0.07747 0.72367
 H737 H 0.25362 -0.08670 0.71570
 H738 H 0.26275 -0.13118 0.73814
 H739 H 0.25780 -0.10878 0.67048
 H740 H 0.20818 -0.11804 0.67149
 H741 H 0.21310 -0.14042 0.73917
 H742 H 0.21736 -0.16258 0.69391
 C743 C 0.72530 0.38280 0.18510
 C744 C 0.75198 0.38548 0.19104
 C745 C 0.75264 0.35923 0.19875
 C746 C 0.72623 0.35629 0.19270
 C747 C 0.71901 0.38942 0.21093
 C748 C 0.71964 0.36318 0.21866
 C749 C 0.74543 0.39233 0.21696
 C750 C 0.74635 0.36585 0.22458
 C751 C 0.77171 0.34287 0.19184
 C752 C 0.78773 0.32984 0.18599
 C753 C 0.70069 0.40668 0.21768
 C754 C 0.68605 0.42133 0.22323
 H755 H 0.71644 0.38996 0.16894
 H756 H 0.76548 0.39448 0.17962
 H757 H 0.71856 0.34127 0.18265
 H758 H 0.70612 0.35421 0.23009
 H759 H 0.75313 0.40735 0.22700
 H760 H 0.75522 0.35870 0.24074
 C761 C 0.73183 0.63252 0.27474
 C762 C 0.73703 0.63985 0.30079
 C763 C 0.76342 0.63397 0.29666
 C764 C 0.75855 0.62690 0.27074
 C765 C 0.72799 0.60683 0.28337
 C766 C 0.75438 0.60097 0.27925
 C767 C 0.73288 0.61392 0.30928
 C768 C 0.75954 0.60828 0.30526
 C769 C 0.78332 0.64867 0.30442
 C770 C 0.79987 0.66036 0.31112
 C771 C 0.70847 0.59121 0.27645
 C772 C 0.69263 0.57788 0.27130
 H773 H 0.72021 0.64230 0.26211
 H774 H 0.73013 0.65600 0.30974
 H775 H 0.76935 0.63240 0.25499
 H776 H 0.76131 0.58483 0.27031
 H777 H 0.72211 0.60842 0.32506
 H778 H 0.77113 0.59847 0.31789
 C779 C 0.21035 0.14660 0.74642
 C780 C 0.20867 0.16505 0.76669
 C781 C 0.23593 0.16535 0.76797
 C782 C 0.23782 0.14721 0.74771
 C783 C 0.21011 0.12660 0.76523
 C784 C 0.23737 0.12687 0.76651
 C785 C 0.20821 0.14474 0.78549
 C786 C 0.23571 0.14537 0.78680
 C787 C 0.25000 0.18716 0.76920
 C788 C 0.26127 0.20533 0.76989
 C789 C 0.19543 0.10523 0.76347
 C790 C 0.18310 0.08786 0.76183
 H791 H 0.19977 0.14687 0.72979
 H792 H 0.19701 0.18098 0.76678
 H793 H 0.25016 0.14847 0.73220
 H794 H 0.24900 0.11092 0.76641
 H795 H 0.19587 0.14348 0.80100
 H796 H 0.24630 0.14512 0.80342
 C797 C 0.22215 0.29521 0.15802
 C798 C 0.20489 0.27451 0.16383
 C799 C 0.22535 0.26107 0.17594
 C800 C 0.24257 0.28159 0.17047
 C801 C 0.22885 0.28304 0.13446
 C802 C 0.24930 0.26960 0.14659
 C803 C 0.21161 0.26253 0.13988
 C804 C 0.23205 0.24889 0.15238
 C805 C 0.22382 0.24914 0.19922
 C806 C 0.22298 0.23960 0.21855
 C807 C 0.23117 0.29565 0.11159
 C808 C 0.23344 0.30639 0.09303
 H809 H 0.21811 0.31439 0.16010
 H810 H 0.18661 0.27639 0.17118
 H811 H 0.25529 0.28930 0.18330
 H812 H 0.26759 0.26771 0.13925
 H813 H 0.19891 0.25484 0.12703
 H814 H 0.23609 0.22971 0.15033
 C815 C 0.72107 0.79492 0.65874
 C816 C 0.70414 0.77394 0.66452
 C817 C 0.72479 0.76086 0.67669
 C818 C 0.74168 0.78165 0.67126
 C819 C 0.72803 0.78284 0.63521
 C820 C 0.74866 0.76975 0.64740
 C821 C 0.71112 0.76205 0.64061
 C822 C 0.73175 0.74876 0.65317
 C823 C 0.72341 0.74888 0.69996
 C824 C 0.72266 0.73928 0.71927
 C825 C 0.73028 0.79538 0.61230
 C826 C 0.73259 0.80599 0.59367
 H827 H 0.71670 0.81403 0.66078
 H828 H 0.68581 0.77553 0.67183
 H829 H 0.75423 0.78959 0.68410
 H830 H 0.76700 0.76816 0.64012
 H831 H 0.69858 0.75413 0.62774
 H832 H 0.73612 0.72965 0.65115
 C833 C 0.78288 0.76104 0.36739
 C834 C 0.80862 0.75261 0.36208
 C835 C 0.80014 0.72673 0.36377
 C836 C 0.77451 0.73484 0.36879
 C837 C 0.78826 0.76012 0.39421
 C838 C 0.77978 0.73423 0.39587
 C839 C 0.81388 0.75199 0.38917
 C840 C 0.80549 0.72584 0.39059
 C841 C 0.80685 0.70783 0.34719
 C842 C 0.81248 0.69198 0.33394
 C843 C 0.78173 0.77845 0.41148
 C844 C 0.77643 0.79328 0.42598
 H845 H 0.77350 0.77572 0.35804
 H846 H 0.82056 0.75996 0.34799
 H847 H 0.75839 0.72758 0.36022
 H848 H 0.76785 0.72686 0.40995
 H849 H 0.83000 0.75925 0.39774
 H850 H 0.81487 0.71117 0.39996
 C851 C 0.28412 0.25641 -0.12773
 C852 C 0.26233 0.24783 -0.14204
 C853 C 0.27366 0.25814 -0.16490
 C854 C 0.29547 0.26651 -0.15099
 C855 C 0.27159 0.28035 -0.12383
 C856 C 0.28292 0.29064 -0.14670
 C857 C 0.24981 0.27197 -0.13777
 C858 C 0.26115 0.28208 -0.16094
 C859 C 0.27429 0.24621 -0.18803
 C860 C 0.27431 0.23683 -0.20729
 C861 C 0.26988 0.29318 -0.10124
 C862 C 0.26791 0.30417 -0.08297
 H863 H 0.29355 0.24600 -0.11381
 H864 H 0.25387 0.23009 -0.14038
 H865 H 0.31426 0.26412 -0.15669
 H866 H 0.29137 0.30838 -0.14836
 H867 H 0.23101 0.27435 -0.13209
 H868 H 0.25171 0.29252 -0.17483
 C869 C 0.72758 0.21898 -0.13820
 C870 C 0.74869 0.23303 -0.14924
 C871 C 0.74389 0.22125 -0.17335
 C872 C 0.72278 0.20742 -0.16268
 C873 C 0.74466 0.19851 -0.13221
 C874 C 0.73986 0.18676 -0.15633
 C875 C 0.76577 0.21234 -0.14288
 C876 C 0.76096 0.20078 -0.16734
 C877 C 0.74351 0.23364 -0.19640
 C878 C 0.74323 0.24358 -0.21553
 C879 C 0.74520 0.18555 -0.10948
 C880 C 0.74578 0.17460 -0.09094
 H881 H 0.71386 0.22631 -0.12594
 H882 H 0.75232 0.25219 -0.14661
 H883 H 0.70510 0.20554 -0.17108
 H884 H 0.73623 0.16759 -0.15898
 H885 H 0.78346 0.21422 -0.13447
 H886 H 0.77469 0.19343 -0.17957
 C887 C 0.26692 0.70161 0.35144
 C888 C 0.25162 0.69474 0.32973
 C889 C 0.24453 0.72094 0.32665
 C890 C 0.25982 0.72802 0.34801
 C891 C 0.24510 0.69809 0.36774
 C892 C 0.23800 0.72430 0.36467
 C893 C 0.22981 0.69103 0.34637
 C894 C 0.22270 0.71743 0.34293
 C895 C 0.24431 0.73340 0.30362
 C896 C 0.24418 0.74340 0.28453
 C897 C 0.24556 0.68511 0.39047
 C898 C 0.24610 0.67417 0.40902
 H899 H 0.28510 0.69496 0.35519
 H900 H 0.25721 0.68273 0.31511
 H901 H 0.27216 0.74337 0.34841
 H902 H 0.23241 0.73630 0.37931
 H903 H 0.21747 0.67569 0.34595
 H904 H 0.20452 0.72409 0.33916
 C905 C 0.29300 0.74717 0.60052
 C906 C 0.27474 0.76476 0.61132
 C907 C 0.28657 0.76157 0.63574
 C908 C 0.30490 0.74427 0.62516
 C909 C 0.27621 0.72654 0.60689
 C910 C 0.28804 0.72335 0.63132
 C911 C 0.25786 0.74383 0.61746
 C912 C 0.26978 0.74096 0.64216
 C913 C 0.29287 0.78117 0.65148
 C914 C 0.29858 0.79737 0.66414
 C915 C 0.27095 0.70716 0.59050
 C916 C 0.26710 0.69137 0.57670
 H917 H 0.30249 0.74952 0.58322
 H918 H 0.26934 0.78200 0.60327
 H919 H 0.32431 0.74465 0.62850
 H920 H 0.29345 0.70610 0.63935
 H921 H 0.23845 0.74342 0.61410
 H922 H 0.26031 0.73864 0.65947
 C923 C 0.77784 0.25239 0.09990
 C924 C 0.76376 0.25883 0.12284
 C925 C 0.78735 0.26090 0.13625
 C926 C 0.80150 0.25476 0.11356
 C927 C 0.77675 0.22607 0.10726
 C928 C 0.80034 0.22816 0.12069
 C929 C 0.76258 0.23218 0.12995
 C930 C 0.78627 0.23458 0.14363
 C931 C 0.79373 0.28041 0.15206
 C932 C 0.79945 0.29657 0.16477
 C933 C 0.77134 0.20679 0.09080
 C934 C 0.76736 0.19109 0.07693
 H935 H 0.77430 0.25950 0.08174
 H936 H 0.74880 0.27166 0.12391
 H937 H 0.81757 0.26425 0.10699
 H938 H 0.81531 0.21534 0.11962
 H939 H 0.74651 0.22266 0.13648
 H940 H 0.78982 0.22749 0.16179
 C941 C 0.50554 0.37378 0.52090
 C942 C 0.48270 0.38460 0.50994
 C943 C 0.48856 0.40840 0.52171
 C944 C 0.51136 0.39795 0.53247
 C945 C 0.49119 0.36686 0.54332
 C946 C 0.49704 0.39068 0.55506
 C947 C 0.46838 0.37729 0.53258
 C948 C 0.47422 0.40147 0.54414
 C949 C 0.48736 0.43174 0.51006
 C950 C 0.48664 0.45112 0.50079
 C951 C 0.49290 0.34396 0.55576
 C952 C 0.49454 0.32536 0.56640
 H953 H 0.51843 0.36214 0.51148
 H954 H 0.47679 0.38238 0.49125
 H955 H 0.52903 0.40670 0.53229
 H956 H 0.50296 0.39294 0.57374
 H957 H 0.45072 0.36853 0.53276
 H958 H 0.46133 0.41312 0.55355
 C959 C 0.01048 0.88511 0.04288
 C960 C 0.00353 0.88884 0.01643
 C961 C -0.01250 0.90964 0.02393
 C962 C -0.00557 0.90624 0.05019
 C963 C -0.01084 0.86835 0.04614
 C964 C -0.02688 0.88915 0.05364
 C965 C -0.01778 0.87172 0.01988
 C966 C -0.03384 0.89291 0.02718
 C967 C -0.01314 0.93283 0.01194
 C968 C -0.01346 0.95211 0.00244
 C969 C -0.00948 0.84555 0.05881
 C970 C -0.00785 0.82697 0.06949
 H971 H 0.02872 0.88165 0.04948
 H972 H 0.01603 0.88898 0.00100
 H973 H -0.00054 0.92068 0.06253
 H974 H -0.03937 0.88902 0.06907
 H975 H -0.02280 0.85726 0.00757
 H976 H -0.05207 0.89639 0.02057
 C977 C 0.02704 0.63217 -0.00884
 C978 C 0.05276 0.62533 -0.01607
 C979 C 0.04528 0.59912 -0.01669
 C980 C 0.01963 0.60569 -0.00975
 C981 C 0.03369 0.62880 0.01750
 C982 C 0.02619 0.60259 0.01692
 C983 C 0.05932 0.62221 0.01053
 C984 C 0.05193 0.59575 0.00965
 C985 C 0.05216 0.58287 -0.03581
 C986 C 0.05821 0.56977 -0.05166
 C987 C 0.02781 0.64562 0.03646
 C988 C 0.02358 0.65971 0.05199
 H989 H 0.01673 0.64732 -0.01623
 H990 H 0.06377 0.63451 -0.02983
 H991 H 0.00340 0.59870 -0.01832
 H992 H 0.01518 0.59344 0.03069
 H993 H 0.07558 0.62918 0.01908
 H994 H 0.06224 0.58060 0.01703
 C995 C 0.52942 0.13055 0.49126
 C996 C 0.55508 0.12264 0.48505
 C997 C 0.54642 0.09683 0.48353
 C998 C 0.52084 0.10449 0.48945
 C999 C 0.53470 0.12637 0.51781
 C1000 C 0.52602 0.10057 0.51633
 C1001 C 0.56027 0.11869 0.51186
 C1002 C 0.55171 0.09264 0.51008
 C1003 C 0.55331 0.08075 0.46425
 C1004 C 0.55927 0.06788 0.44818
 C1005 C 0.52866 0.14318 0.53673
 C1006 C 0.52424 0.15736 0.55215
 H1007 H 0.52017 0.14631 0.48373
 H1008 H 0.56711 0.13154 0.47199
 H1009 H 0.50470 0.09846 0.48001
 H1010 H 0.51399 0.09169 0.52940
 H1011 H 0.57643 0.12471 0.52129
 H1012 H 0.56096 0.07687 0.51759
 C1013 C -0.04540 0.14671 0.50975
 C1014 C -0.07053 0.13642 0.51440
 C1015 C -0.05956 0.11149 0.51666
 C1016 C -0.03452 0.12153 0.51229
 C1017 C -0.04862 0.14244 0.48293
 C1018 C -0.03763 0.11752 0.48516
 C1019 C -0.07366 0.13240 0.48732
 C1020 C -0.06279 0.10721 0.48985
 C1021 C -0.06595 0.09458 0.53565
 C1022 C -0.07154 0.08099 0.55146
 C1023 C -0.04272 0.15999 0.46437
 C1024 C -0.03800 0.17470 0.44933
 H1025 H -0.03820 0.16314 0.51774
 H1026 H -0.08412 0.14401 0.52663
 H1027 H -0.01850 0.11686 0.52276
 H1028 H -0.02404 0.10996 0.47292
 H1029 H -0.08969 0.13706 0.47685
 H1030 H -0.07000 0.09077 0.48187
 C1031 C 0.45395 0.64799 1.00934
 C1032 C 0.42906 0.63717 1.01399
 C1033 C 0.44057 0.61250 1.01638
 C1034 C 0.46539 0.62308 1.01201
 C1035 C 0.45089 0.64354 0.98254
 C1036 C 0.46242 0.61888 0.98490
 C1037 C 0.42607 0.63296 0.98692
 C1038 C 0.43750 0.60802 0.98959
 C1039 C 0.43461 0.59554 1.03545
 C1040 C 0.42943 0.58190 1.05135
 C1041 C 0.45654 0.66111 0.96393
 C1042 C 0.46114 0.67585 0.94888
 H1043 H 0.46077 0.66463 1.01726
 H1044 H 0.41527 0.64451 1.02616
 H1045 H 0.48150 0.61882 1.02253
 H1046 H 0.47620 0.61156 0.97272
 H1047 H 0.40996 0.63721 0.97640
 H1048 H 0.43068 0.59138 0.98168
 C1049 C 0.49668 0.90937 0.94619
 C1050 C 0.48245 0.91678 0.96870
 C1051 C 0.50550 0.92625 0.97958
 C1052 C 0.51976 0.91918 0.95725
 C1053 C 0.50171 0.88516 0.95798
 C1054 C 0.52477 0.89461 0.96886
 C1055 C 0.48744 0.89223 0.98031
 C1056 C 0.51053 0.90206 0.99140
 C1057 C 0.50732 0.94925 0.99142
 C1058 C 0.50849 0.96829 1.00102
 C1059 C 0.49940 0.86247 0.94563
 C1060 C 0.49737 0.84402 0.93512
 H1061 H 0.49095 0.91212 0.92747
 H1062 H 0.46508 0.92615 0.96875
 H1063 H 0.53308 0.93051 0.94791
 H1064 H 0.54213 0.88523 0.96880
 H1065 H 0.47413 0.88090 0.98966
 H1066 H 0.51626 0.89933 1.01013
 C1067 C 0.01522 0.40583 0.44839
 C1068 C -0.00593 0.42159 0.45637
 C1069 C 0.00617 0.42513 0.48054
 C1070 C 0.02737 0.40972 0.47275
 C1071 C 0.00239 0.38404 0.45895
 C1072 C 0.01451 0.38755 0.48312
 C1073 C -0.01879 0.39947 0.46675
 C1074 C -0.00666 0.40335 0.49111
 C1075 C 0.00797 0.44815 0.49235
 C1076 C 0.00913 0.46721 0.50192
 C1077 C 0.00010 0.36135 0.44659
 C1078 C -0.00193 0.34291 0.43606
 H1079 H 0.02419 0.40660 0.43069
 H1080 H -0.01431 0.43583 0.44550
 H1081 H 0.04637 0.41420 0.47535
 H1082 H 0.02288 0.37329 0.49398
 H1083 H -0.03780 0.39500 0.46415
 H1084 H -0.01563 0.40260 0.50881
 C1085 C 0.39765 0.52894 0.47386
 C1086 C 0.41815 0.53221 0.49177
 C1087 C 0.42123 0.50511 0.49298
 C1088 C 0.40106 0.50164 0.47504
 C1089 C 0.38005 0.52723 0.49490
 C1090 C 0.38308 0.50013 0.49611
 C1091 C 0.40023 0.53069 0.51282
 C1092 C 0.40364 0.50339 0.51403
 C1093 C 0.44441 0.49328 0.49194
 C1094 C 0.46370 0.48395 0.49116
 C1095 C 0.35743 0.54012 0.49587
 C1096 C 0.33918 0.55133 0.49650
 H1097 H 0.39495 0.53959 0.45734
 H1098 H 0.43282 0.54528 0.48996
 H1099 H 0.40167 0.48957 0.45949
 H1100 H 0.36839 0.48709 0.49792
 H1101 H 0.39964 0.54276 0.52838
 H1102 H 0.40637 0.49274 0.53054
 C1103 C 0.89327 0.01837 0.01684
 C1104 C 0.89846 -0.00498 0.00328
 C1105 C 0.92148 0.00608 -0.00666
 C1106 C 0.91664 0.02923 0.00689
 C1107 C 0.88015 0.02794 -0.00517
 C1108 C 0.90319 0.03897 -0.01510
 C1109 C 0.88496 0.00480 -0.01873
 C1110 C 0.90836 0.01565 -0.02866
 C1111 C 0.94470 -0.00568 -0.00738
 C1112 C 0.96399 -0.01502 -0.00781
 C1113 C 0.85744 0.04068 -0.00438
 C1114 C 0.83911 0.05176 -0.00384
 H1115 H 0.88681 0.01962 0.03555
 H1116 H 0.89680 -0.02320 0.01082
 H1117 H 0.92991 0.03916 0.01740
 H1118 H 0.90489 0.05719 -0.02265
 H1119 H 0.87167 -0.00511 -0.02924
 H1120 H 0.91483 0.01441 -0.04737
 C1121 C 0.59824 0.04465 -0.00393
 C1122 C 0.59328 0.01794 -0.00784
 C1123 C 0.57586 0.01827 0.01340
 C1124 C 0.58049 0.04483 0.01731
 C1125 C 0.61823 0.03791 0.01337
 C1126 C 0.60082 0.03825 0.03462
 C1127 C 0.61364 0.01134 0.00946
 C1128 C 0.59582 0.01149 0.03072
 C1129 C 0.55208 0.00776 0.01313
 C1130 C 0.53235 -0.00052 0.01268
 C1131 C 0.64161 0.04930 0.01297
 C1132 C 0.66060 0.05914 0.01221
 H1133 H 0.59948 0.05841 -0.01818
 H1134 H 0.58993 0.00947 -0.02530
 H1135 H 0.56660 0.05849 0.02053
 H1136 H 0.60418 0.04672 0.05208
 H1137 H 0.62754 -0.00230 0.00624
 H1138 H 0.59454 -0.00227 0.04496
 C1139 C 0.11213 0.51475 0.52805
 C1140 C 0.08878 0.52697 0.53631
 C1141 C 0.07637 0.51748 0.51403
 C1142 C 0.09931 0.50508 0.50576
 C1143 C 0.11866 0.53729 0.51384
 C1144 C 0.10623 0.52780 0.49157
 C1145 C 0.09571 0.54967 0.52210
 C1146 C 0.08295 0.54002 0.49984
 C1147 C 0.05263 0.50687 0.51385
 C1148 C 0.03293 0.49851 0.51345
 C1149 C 0.14198 0.54879 0.51335
 C1150 C 0.16092 0.55873 0.51254
 H1151 H 0.12439 0.50450 0.53964
 H1152 H 0.08133 0.52651 0.55471
 H1153 H 0.10051 0.48662 0.49904
 H1154 H 0.11366 0.52825 0.47316
 H1155 H 0.09449 0.56813 0.52882
 H1156 H 0.07071 0.55030 0.48823
 C1157 C 0.13326 0.47457 -0.06027
 C1158 C 0.10633 0.47517 -0.05432
 C1159 C 0.10863 0.50152 -0.04785
 C1160 C 0.13530 0.50118 -0.05391
 C1161 C 0.13834 0.46808 -0.03412
 C1162 C 0.14062 0.49444 -0.02767
 C1163 C 0.11167 0.46838 -0.02804
 C1164 C 0.11369 0.49506 -0.02170
 C1165 C 0.09255 0.52047 -0.05570
 C1166 C 0.07977 0.53639 -0.06230
 C1167 C 0.15537 0.44977 -0.02679
 C1168 C 0.16984 0.43501 -0.02110
 H1169 H 0.14150 0.46594 -0.07605
 H1170 H 0.09205 0.46747 -0.06537
 H1171 H 0.14486 0.51486 -0.06464
 H1172 H 0.15490 0.50217 -0.01662
 H1173 H 0.10215 0.45468 -0.01730
 H1174 H 0.10546 0.50370 -0.00593
 C1175 C 0.63414 0.97273 0.43686
 C1176 C 0.60706 0.97301 0.44211
 C1177 C 0.60911 0.99898 0.45005
 C1178 C 0.63593 0.99897 0.44469
 C1179 C 0.63854 0.96488 0.46277
 C1180 C 0.64056 0.99086 0.47068
 C1181 C 0.61172 0.96485 0.46815
 C1182 C 0.61350 0.99114 0.47596
 C1183 C 0.59319 1.01831 0.44283
 C1184 C 0.58054 1.03452 0.43672
 C1185 C 0.65542 0.94632 0.46979
 C1186 C 0.66982 0.93152 0.47556
 H1187 H 0.64281 0.96495 0.42086
 H1188 H 0.59309 0.96590 0.43028
 H1189 H 0.64573 1.01320 0.43497
 H1190 H 0.65451 0.99800 0.48251
 H1191 H 0.60196 0.95060 0.47788
 H1192 H 0.60483 0.99893 0.49195
 C1193 C 0.86352 0.97849 0.56108
 C1194 C 0.88860 0.98371 0.55073
 C1195 C 0.88177 1.01004 0.54822
 C1196 C 0.85692 1.00510 0.55867
 C1197 C 0.85450 0.97446 0.53564
 C1198 C 0.84768 1.00079 0.53313
 C1199 C 0.87934 0.97936 0.52517
 C1200 C 0.87276 1.00603 0.52277
 C1201 C 0.89657 1.02999 0.55561
 C1202 C 0.90840 1.04654 0.56207
 C1203 C 0.83887 0.95483 0.52907
 C1204 C 0.82556 0.93891 0.52412
 H1205 H 0.85955 0.96695 0.57676
 H1206 H 0.90560 0.97691 0.55806
 H1207 H 0.84785 1.01589 0.57252
 H1208 H 0.83069 1.00760 0.52582
 H1209 H 0.88838 0.96854 0.51131
 H1210 H 0.87673 1.01758 0.50711
 C1211 C 0.35128 0.50115 0.03006
 C1212 C 0.35721 0.50790 0.05605
 C1213 C 0.38347 0.51048 0.04879
 C1214 C 0.37778 0.50403 0.02288
 C1215 C 0.35606 0.47497 0.03632
 C1216 C 0.38232 0.47751 0.02903
 C1217 C 0.36177 0.48144 0.06222
 C1218 C 0.38827 0.48430 0.05506
 C1219 C 0.39828 0.53049 0.05606
 C1220 C 0.41004 0.54716 0.06234
 C1221 C 0.34030 0.45544 0.02974
 C1222 C 0.32683 0.43967 0.02472
 H1223 H 0.33591 0.50788 0.01971
 H1224 H 0.34704 0.52061 0.06724
 H1225 H 0.38453 0.51354 0.00679
 H1226 H 0.39246 0.46478 0.01784
 H1227 H 0.35502 0.47195 0.07832
 H1228 H 0.40365 0.47760 0.06542
 C1229 C 0.51574 0.46546 0.38798
 C1230 C 0.52713 0.45530 0.41100
 C1231 C 0.51721 0.47657 0.42492
 C1232 C 0.50562 0.48670 0.40229
 C1233 C 0.53851 0.47977 0.38308
 C1234 C 0.52858 0.50102 0.39702
 C1235 C 0.55008 0.46964 0.40572
 C1236 C 0.53998 0.49087 0.41999
 C1237 C 0.50565 0.47515 0.44840
 C1238 C 0.49642 0.47429 0.46788
 C1239 C 0.55071 0.48198 0.35999
 C1240 C 0.56108 0.48425 0.34121
 H1241 H 0.50592 0.45504 0.37455
 H1242 H 0.52640 0.43648 0.41703
 H1243 H 0.48721 0.49371 0.40116
 H1244 H 0.52930 0.51985 0.39102
 H1245 H 0.56850 0.46264 0.40687
 H1246 H 0.54982 0.50130 0.43339
 C1247 C 0.01732 -0.03396 0.88987
 C1248 C 0.02862 -0.04396 0.91301
 C1249 C 0.01837 -0.02275 0.92680
 C1250 C 0.00688 -0.01278 0.90405
 C1251 C 0.03999 -0.01945 0.88511
 C1252 C 0.02974 0.00174 0.89893
 C1253 C 0.05147 -0.02941 0.90787
 C1254 C 0.04104 -0.00825 0.92201
 C1255 C 0.00656 -0.02418 0.95015
 C1256 C -0.00296 -0.02497 0.96950
 C1257 C 0.05225 -0.01717 0.86205
 C1258 C 0.06253 -0.01486 0.84323
 H1259 H 0.00771 -0.04451 0.87638
 H1260 H 0.02802 -0.06277 0.91907
 H1261 H -0.01159 -0.00596 0.90274
 H1262 H 0.03032 0.02056 0.89289
 H1263 H 0.06994 -0.03623 0.90919
 H1264 H 0.05067 0.00231 0.93547
 C1265 C 0.00983 0.02946 0.61707
 C1266 C -0.01632 0.02090 0.61869
 C1267 C -0.02465 0.04650 0.61393
 C1268 C 0.00117 0.05516 0.61205
 C1269 C 0.00913 0.03463 0.64394
 C1270 C 0.00078 0.06022 0.63917
 C1271 C -0.01669 0.02598 0.64582
 C1272 C -0.02531 0.05166 0.64081
 C1273 C -0.04371 0.05330 0.59757
 C1274 C -0.05967 0.05901 0.58448
 C1275 C 0.02780 0.02834 0.66095
 C1276 C 0.04304 0.02354 0.67519
 H1277 H 0.02448 0.02025 0.60751
 H1278 H -0.02356 0.00482 0.61007
 H1279 H 0.00830 0.06724 0.59798
 H1280 H 0.00801 0.07633 0.64778
 H1281 H -0.02384 0.01390 0.65988
 H1282 H -0.03996 0.06087 0.65040
 C1283 C 0.49326 0.55667 0.14757
 C1284 C 0.49682 0.56623 0.12180
 C1285 C 0.47790 0.54871 0.11319
 C1286 C 0.47406 0.53925 0.13872
 C1287 C 0.51233 0.53770 0.14278
 C1288 C 0.49341 0.52017 0.13418
 C1289 C 0.51620 0.54716 0.11726
 C1290 C 0.49696 0.52972 0.10838
 C1291 C 0.45844 0.55496 0.09710
 C1292 C 0.44216 0.56026 0.08424
 C1293 C 0.53121 0.53162 0.15963
 C1294 C 0.54644 0.52665 0.17382
 H1295 H 0.49193 0.56770 0.16385
 H1296 H 0.49802 0.58525 0.11653
 H1297 H 0.45653 0.53605 0.14737
 H1298 H 0.49221 0.50116 0.13945
 H1299 H 0.53374 0.55034 0.10863
 H1300 H 0.49826 0.51871 0.09209
 C1301 C 0.47657 -0.02033 0.11306
 C1302 C 0.46723 -0.03136 0.08970
 C1303 C 0.47540 -0.00906 0.07598
 C1304 C 0.48495 0.00197 0.09896
 C1305 C 0.45224 -0.00847 0.11691
 C1306 C 0.46041 0.01383 0.10318
 C1307 C 0.44271 -0.01949 0.09391
 C1308 C 0.45108 0.00280 0.07985
 C1309 C 0.48801 -0.00934 0.05303
 C1310 C 0.49813 -0.00954 0.03400
 C1311 C 0.43907 -0.00804 0.13953
 C1312 C 0.42796 -0.00757 0.15799
 H1313 H 0.48689 -0.02984 0.12698
 H1314 H 0.47018 -0.04995 0.08389
 H1315 H 0.50246 0.01079 0.10076
 H1316 H 0.45746 0.03242 0.10898
 H1317 H 0.42520 -0.02831 0.09209
 H1318 H 0.44074 0.01231 0.06594
 C1319 C 0.94213 0.49848 0.59356
 C1320 C 0.96514 0.51256 0.58794
 C1321 C 0.97595 0.49012 0.57678
 C1322 C 0.95313 0.47604 0.58207
 C1323 C 0.95267 0.49089 0.61764
 C1324 C 0.96348 0.46844 0.60649
 C1325 C 0.97550 0.50498 0.61237
 C1326 C 0.98652 0.48252 0.60085
 C1327 C 0.98861 0.48975 0.55386
 C1328 C 0.99874 0.48948 0.53483
 C1329 C 0.93943 0.49140 0.64023
 C1330 C 0.92826 0.49193 0.65864
 H1331 H 0.92373 0.50504 0.59080
 H1332 H 0.96598 0.53069 0.58005
 H1333 H 0.94408 0.46413 0.56935
 H1334 H 0.96264 0.45031 0.61438
 H1335 H 0.98454 0.51688 0.62510
 H1336 H 1.00492 0.47597 0.60358
 C1337 C 0.97826 0.51612 0.88386
 C1338 C 1.00484 0.50961 0.88032
 C1339 C 1.01159 0.53515 0.88689
 C1340 C 0.98534 0.54176 0.89070
 C1341 C 0.97720 0.52397 0.85757
 C1342 C 0.98397 0.54950 0.86417
 C1343 C 1.00345 0.51737 0.85377
 C1344 C 1.01049 0.54298 0.86060
 C1345 C 1.03089 0.54183 0.90284
 C1346 C 1.04692 0.54777 0.91562
 C1347 C 0.95820 0.51823 0.84089
 C1348 C 0.94273 0.51400 0.82682
 H1349 H 0.96478 0.50500 0.89322
 H1350 H 1.01364 0.49329 0.88715
 H1351 H 0.97811 0.55186 0.90607
 H1352 H 0.97519 0.56584 0.85736
 H1353 H 1.01069 0.50727 0.83840
 H1354 H 1.02395 0.55410 0.85121
 C1355 C 0.50397 0.02623 0.34955
 C1356 C 0.50558 0.04943 0.36407
 C1357 C 0.51222 0.03469 0.38623
 C1358 C 0.51090 0.01156 0.37194
 C1359 C 0.47769 0.02402 0.35688
 C1360 C 0.48430 0.00925 0.37903
 C1361 C 0.47903 0.04714 0.37117
 C1362 C 0.48595 0.03248 0.39358
 C1363 C 0.53160 0.04103 0.40222
 C1364 C 0.54770 0.04663 0.41505
 C1365 C 0.45864 0.01850 0.34019
 C1366 C 0.44313 0.01438 0.32613
 H1367 H 0.51117 0.02360 0.33126
 H1368 H 0.51454 0.06602 0.35810
 H1369 H 0.52423 -0.00300 0.37245
 H1370 H 0.47533 -0.00734 0.38498
 H1371 H 0.46572 0.06171 0.37068
 H1372 H 0.47878 0.03513 0.41188
   
