data_POSCAR
  _audit_creation_date              2014-09-24
  _audit_creation_method            'ToBaCCo'
  _symmetry_space_group_name_H-M    'P1'
  _symmetry_Int_Tables_number       1
  _symmetry_cell_setting            triclinic
  loop_
  _symmetry_equiv_pos_as_xyz
 x,y,z
_cell_length_a 60.9236
_cell_length_b 60.8665
_cell_length_c 60.9358
_cell_angle_alpha 90.007800
_cell_angle_beta 90.012800
_cell_angle_gamma 89.968700
loop_
  _atom_site_label
  _atom_site_type_symbol
  _atom_site_fract_x
  _atom_site_fract_y
  _atom_site_fract_z
C1 C 0.26944 1.04490 0.01878
 C2 C 0.27269 1.05528 -0.00152
 C3 C 0.27096 1.04401 -0.02156
 C4 C 0.26802 1.02083 -0.02119
 C5 C 0.26539 1.00976 -0.00083
 C6 C 0.26601 1.02178 0.01919
 C7 C 0.26503 1.01009 0.03911
 C8 C 0.26224 0.98747 0.03948
 C9 C 0.26133 0.97533 0.01995
 C10 C 0.26299 0.98644 -0.00044
 C11 C 0.26974 1.00819 -0.04044
 C12 C 0.26736 0.98549 -0.04004
 C13 C 0.26309 0.97421 -0.02036
 C14 C 0.26096 0.95088 -0.01973
 C15 C 0.25938 0.94044 0.00077
 C16 C 0.25937 0.95225 0.02037
 H17 H 0.26711 1.01812 0.05478
 H18 H 0.26138 0.97952 0.05534
 H19 H 0.27388 1.01561 -0.05602
 H20 H 0.26982 0.97687 -0.05535
 H21 H 0.27423 1.07304 -0.00179
 H22 H 0.25740 0.92274 0.00160
 C23 C 0.75913 0.45338 0.48029
 C24 C 0.75943 0.44207 0.50025
 C25 C 0.75908 0.45322 0.52031
 C26 C 0.75888 0.47646 0.52056
 C27 C 0.75871 0.48818 0.50042
 C28 C 0.75877 0.47661 0.48020
 C29 C 0.75909 0.48856 0.46046
 C30 C 0.75920 0.51142 0.46054
 C31 C 0.75904 0.52324 0.48036
 C32 C 0.75891 0.51152 0.50050
 C33 C 0.75947 0.48828 0.54038
 C34 C 0.75975 0.51114 0.54045
 C35 C 0.75939 0.52309 0.52072
 C36 C 0.76013 0.54632 0.52063
 C37 C 0.76040 0.55761 0.50066
 C38 C 0.75964 0.54647 0.48061
 H39 H 0.75955 0.48034 0.44472
 H40 H 0.75976 0.51974 0.44486
 H41 H 0.76008 0.47996 0.55605
 H42 H 0.76053 0.51935 0.55619
 H43 H 0.75962 0.42425 0.50017
 H44 H 0.76085 0.57543 0.50074
 C45 C 0.73680 0.97921 0.95503
 C46 C 0.73727 0.99903 0.94349
 C47 C 0.73689 1.01922 0.95436
 C48 C 0.73595 1.01978 0.97755
 C49 C 0.73555 0.99981 0.98957
 C50 C 0.73572 0.97945 0.97821
 C51 C 0.73376 0.95991 0.99024
 C52 C 0.73199 0.96028 1.01296
 C53 C 0.73287 0.98015 1.02480
 C54 C 0.73420 1.00021 1.01291
 C55 C 0.73436 1.03974 0.98894
 C56 C 0.73277 1.04016 1.01168
 C57 C 0.73335 1.02067 1.02416
 C58 C 0.73122 1.02103 1.04740
 C59 C 0.72882 1.00102 1.05862
 C60 C 0.73056 0.98061 1.04803
 H61 H 0.73289 0.94411 0.98214
 H62 H 0.72918 0.94472 1.02101
 H63 H 0.73372 1.05527 0.98033
 H64 H 0.73031 1.05602 1.01926
 H65 H 0.73802 0.99874 0.92570
 H66 H 0.72799 1.00129 1.07641
 C67 C 0.24036 0.47767 0.54571
 C68 C 0.23989 0.49764 0.55702
 C69 C 0.24041 0.51774 0.54593
 C70 C 0.24097 0.51802 0.52272
 C71 C 0.24131 0.49788 0.51098
 C72 C 0.24107 0.47761 0.52250
 C73 C 0.24092 0.45787 0.51053
 C74 C 0.24114 0.45799 0.48768
 C75 C 0.24149 0.47785 0.47592
 C76 C 0.24146 0.49799 0.48766
 C77 C 0.24055 0.53788 0.51095
 C78 C 0.24062 0.53799 0.48811
 C79 C 0.24114 0.51826 0.47614
 C80 C 0.24074 0.51820 0.45293
 C81 C 0.24063 0.49823 0.44161
 C82 C 0.24122 0.47814 0.45270
 H83 H 0.24033 0.44210 0.51870
 H84 H 0.24070 0.44230 0.47934
 H85 H 0.23982 0.55356 0.51928
 H86 H 0.23995 0.55376 0.47993
 H87 H 0.23944 0.49754 0.57482
 H88 H 0.24041 0.49834 0.42380
 C89 C 0.95281 0.25912 -0.02042
 C90 C 0.94248 0.26265 -0.00011
 C91 C 0.95408 0.26210 0.01963
 C92 C 0.97710 0.25942 0.01934
 C93 C 0.98815 0.25628 -0.00090
 C94 C 0.97602 0.25598 -0.02086
 C95 C 0.98764 0.25393 -0.04070
 C96 C 1.01024 0.25104 -0.04097
 C97 C 1.02266 0.25165 -0.02153
 C98 C 1.01145 0.25387 -0.00118
 C99 C 0.98939 0.26069 0.03877
 C100 C 1.01205 0.25831 0.03852
 C101 C 1.02345 0.25406 0.01888
 C102 C 1.04665 0.25158 0.01850
 C103 C 1.05723 0.24907 -0.00176
 C104 C 1.04588 0.24927 -0.02176
 H105 H 0.97955 0.25489 -0.05644
 H106 H 1.01776 0.24833 -0.05678
 H107 H 0.98164 0.26410 0.05439
 H108 H 1.02049 0.26042 0.05397
 H109 H 0.92476 0.26434 0.00056
 H110 H 1.07496 0.24724 -0.00198
 C111 C 0.54589 0.74811 0.52190
 C112 C 0.55690 0.74796 0.50178
 C113 C 0.54546 0.74762 0.48190
 C114 C 0.52225 0.74768 0.48197
 C115 C 0.51084 0.74755 0.50228
 C116 C 0.52269 0.74764 0.52233
 C117 C 0.51104 0.74748 0.54224
 C118 C 0.48819 0.74698 0.54249
 C119 C 0.47611 0.74706 0.52283
 C120 C 0.48753 0.74737 0.50253
 C121 C 0.51018 0.74766 0.46231
 C122 C 0.48733 0.74780 0.46256
 C123 C 0.47568 0.74751 0.48247
 C124 C 0.45247 0.74760 0.48290
 C125 C 0.44146 0.74704 0.50301
 C126 C 0.45290 0.74663 0.52289
 H127 H 0.51949 0.74767 0.55786
 H128 H 0.48008 0.74662 0.55828
 H129 H 0.51829 0.74763 0.44652
 H130 H 0.47888 0.74806 0.44694
 H131 H 0.57471 0.74813 0.50159
 H132 H 0.42365 0.74693 0.50319
 C133 C 0.01977 0.75943 0.04805
 C134 C -0.00001 0.76205 0.05932
 C135 C -0.02042 0.75907 0.04895
 C136 C -0.02083 0.75497 0.02590
 C137 C -0.00079 0.75316 0.01409
 C138 C 0.01954 0.75517 0.02527
 C139 C 0.03919 0.75318 0.01335
 C140 C 0.03895 0.74896 -0.00904
 C141 C 0.01906 0.74706 -0.02054
 C142 C -0.00103 0.74934 -0.00899
 C143 C -0.04065 0.75371 0.01409
 C144 C -0.04089 0.74940 -0.00830
 C145 C -0.02131 0.74774 -0.02044
 C146 C -0.02137 0.74342 -0.04345
 C147 C -0.00120 0.74013 -0.05415
 C148 C 0.01880 0.74259 -0.04328
 H149 H 0.05501 0.75494 0.02123
 H150 H 0.05460 0.74712 -0.01724
 H151 H -0.05635 0.75626 0.02192
 H152 H -0.05677 0.74715 -0.01585
 H153 H 0.00065 0.76461 0.07693
 H154 H -0.00089 0.73737 -0.07175
 C155 C 0.47975 0.25119 0.54545
 C156 C 0.49971 0.25103 0.55676
 C157 C 0.51976 0.25094 0.54563
 C158 C 0.52003 0.25114 0.52242
 C159 C 0.49989 0.25118 0.51071
 C160 C 0.47966 0.25115 0.52225
 C161 C 0.45992 0.25129 0.51030
 C162 C 0.46001 0.25119 0.48746
 C163 C 0.47985 0.25128 0.47568
 C164 C 0.49999 0.25123 0.48740
 C165 C 0.53987 0.25105 0.51065
 C166 C 0.53996 0.25126 0.48781
 C167 C 0.52022 0.25120 0.47586
 C168 C 0.52013 0.25132 0.45266
 C169 C 0.50018 0.25127 0.44135
 C170 C 0.48012 0.25119 0.45248
 H171 H 0.44417 0.25146 0.51850
 H172 H 0.44433 0.25103 0.47913
 H173 H 0.55555 0.25083 0.51898
 H174 H 0.55571 0.25145 0.47962
 H175 H 0.49963 0.25095 0.57457
 H176 H 0.50025 0.25126 0.42354
 C177 C 0.95432 -0.01870 0.25736
 C178 C 0.94388 0.00174 0.25991
 C179 C 0.95500 0.02150 0.25654
 C180 C 0.97773 0.02127 0.25205
 C181 C 0.98898 0.00092 0.25039
 C182 C 0.97728 -0.01914 0.25281
 C183 C 0.98913 -0.03896 0.25170
 C184 C 1.01144 -0.03921 0.24700
 C185 C 1.02350 -0.01961 0.24489
 C186 C 1.01202 0.00069 0.24632
 C187 C 0.98951 0.04093 0.24947
 C188 C 1.01188 0.04069 0.24512
 C189 C 1.02349 0.02079 0.24363
 C190 C 1.04623 0.02054 0.23916
 C191 C 1.05711 0.00049 0.23677
 C192 C 1.04645 -0.01967 0.24028
 H193 H 0.98141 -0.05465 0.25463
 H194 H 1.01899 -0.05512 0.24486
 H195 H 0.98157 0.05677 0.25089
 H196 H 1.01996 0.05634 0.24281
 H197 H 0.92631 0.00238 0.26274
 H198 H 1.07469 0.00077 0.23390
 C199 C 0.45367 0.47961 0.74921
 C200 C 0.44245 0.49964 0.74892
 C201 C 0.45369 0.51965 0.74861
 C202 C 0.47690 0.51981 0.74885
 C203 C 0.48852 0.49958 0.74888
 C204 C 0.47687 0.47940 0.74893
 C205 C 0.48871 0.45957 0.74892
 C206 C 0.51155 0.45953 0.74861
 C207 C 0.52344 0.47932 0.74874
 C208 C 0.51183 0.49954 0.74888
 C209 C 0.48878 0.53959 0.74885
 C210 C 0.51164 0.53955 0.74916
 C211 C 0.52348 0.51972 0.74905
 C212 C 0.54669 0.51949 0.74932
 C213 C 0.55789 0.49945 0.74893
 C214 C 0.54665 0.47946 0.74853
 H215 H 0.48042 0.44385 0.74909
 H216 H 0.51981 0.44379 0.74833
 H217 H 0.48052 0.55533 0.74869
 H218 H 0.51993 0.55527 0.74944
 H219 H 0.42464 0.49965 0.74896
 H220 H 0.57570 0.49942 0.74897
 C221 C 1.01864 0.95252 0.76213
 C222 C 0.99816 0.94242 0.76531
 C223 C 0.97858 0.95431 0.76461
 C224 C 0.97918 0.97735 0.76208
 C225 C 0.99960 0.98818 0.75942
 C226 C 1.01942 0.97579 0.75938
 C227 C 1.03943 0.98720 0.75788
 C228 C 1.04002 1.00985 0.75527
 C229 C 1.02070 1.02252 0.75553
 C230 C 1.00019 1.01150 0.75711
 C231 C 0.95987 0.98986 0.76298
 C232 C 0.96040 1.01252 0.76057
 C233 C 0.98025 1.02371 0.75668
 C234 C 0.98088 1.04690 0.75393
 C235 C 1.00133 1.05733 0.75233
 C236 C 1.02124 1.04578 0.75336
 H237 H 1.05504 0.97888 0.75907
 H238 H 1.05598 1.01720 0.75295
 H239 H 0.94410 0.98227 0.76604
 H240 H 0.94501 1.02114 0.76239
 H241 H 0.99719 0.92467 0.76670
 H242 H 1.00178 1.07505 0.75044
 C243 C 0.48097 0.54775 0.24846
 C244 C 0.50105 0.55870 0.25021
 C245 C 0.52094 0.54723 0.25036
 C246 C 0.52088 0.52404 0.24871
 C247 C 0.50060 0.51269 0.24713
 C248 C 0.48056 0.52458 0.24701
 C249 C 0.46068 0.51304 0.24504
 C250 C 0.46044 0.49023 0.24349
 C251 C 0.48006 0.47807 0.24381
 C252 C 0.50035 0.48941 0.24546
 C253 C 0.54052 0.51192 0.24873
 C254 C 0.54030 0.48913 0.24682
 C255 C 0.52040 0.47754 0.24524
 C256 C 0.52000 0.45440 0.24305
 C257 C 0.49990 0.44349 0.24133
 C258 C 0.47998 0.45490 0.24202
 H259 H 0.44509 0.52155 0.24456
 H260 H 0.44467 0.48224 0.24174
 H261 H 0.55630 0.51995 0.25014
 H262 H 0.55594 0.48071 0.24650
 H263 H 0.50121 0.57650 0.25128
 H264 H 0.49973 0.42571 0.23994
 O265 O 0.25309 0.19260 0.21657
 O266 O 0.27641 0.18639 0.24735
 O267 O 0.19481 0.21875 0.24729
 O268 O 0.18666 0.24700 0.26941
 O269 O 0.22149 0.24885 0.19001
 O270 O 0.25257 0.27376 0.18372
 O271 O 0.25129 0.27997 0.30391
 O272 O 0.22604 0.25019 0.30932
 O273 O 0.30796 0.25119 0.27765
 O274 O 0.31549 0.22630 0.24692
 O275 O 0.28092 0.30711 0.24779
 O276 O 0.25375 0.31210 0.22200
 O277 O 0.25277 0.30624 0.27747
 O278 O 0.22450 0.31056 0.24907
 O279 O 0.30740 0.28076 0.24814
 O280 O 0.31481 0.24914 0.22301
 O281 O 0.28166 0.25136 0.30405
 O282 O 0.25544 0.22586 0.31084
 O283 O 0.25261 0.21910 0.19029
 O284 O 0.27645 0.24974 0.18417
 O285 O 0.19490 0.24949 0.21617
 O286 O 0.18953 0.27481 0.24730
 O287 O 0.22140 0.19254 0.24662
 O288 O 0.25289 0.18603 0.27128
 Zr289 Zr 0.25114 0.21018 0.24634
 O290 O 0.27131 0.22925 0.26694
 Zr291 Zr 0.21230 0.24853 0.24607
 O292 O 0.23088 0.26908 0.26681
 Zr293 Zr 0.25107 0.24876 0.20780
 O294 O 0.27107 0.26948 0.22678
 Zr295 Zr 0.25206 0.25023 0.28632
 O296 O 0.23146 0.22917 0.26765
 Zr297 Zr 0.29059 0.25055 0.24788
 O298 O 0.27235 0.22952 0.22708
 Zr299 Zr 0.25170 0.28879 0.24772
 O300 O 0.23127 0.27000 0.22661
 O301 O 0.23077 0.22823 0.22583
 O302 O 0.27235 0.27095 0.26830
 C303 C 0.25348 0.19892 0.19642
 C304 C 0.20118 0.19859 0.24721
 C305 C 0.20130 0.24935 0.19606
 C306 C 0.25204 0.30013 0.29765
 C307 C 0.30181 0.25157 0.29781
 C308 C 0.30112 0.30095 0.24802
 H309 H 0.28030 0.21944 0.27626
 H310 H 0.27991 0.27880 0.21686
 H311 H 0.22159 0.21871 0.21639
 H312 H 0.22091 0.27814 0.27590
 H313 H 0.21643 0.23763 0.30554
 H314 H 0.19196 0.25446 0.28281
 H315 H 0.31195 0.26128 0.21261
 H316 H 0.28813 0.23976 0.18948
 H317 H 0.24681 0.21308 0.30586
 H318 H 0.23979 0.18779 0.28071
 H319 H 0.24073 0.30984 0.21256
 H320 H 0.24012 0.28382 0.18647
 H321 H 0.28833 0.19194 0.23781
 H322 H 0.31205 0.21521 0.25827
 H323 H 0.19367 0.28525 0.23556
 H324 H 0.23023 0.32564 0.25136
 O325 O 0.74903 0.80910 0.22200
 O326 O 0.72487 0.81533 0.25225
 O327 O 0.80644 0.78315 0.25387
 O328 O 0.81456 0.75461 0.27537
 O329 O 0.78039 0.75243 0.19554
 O330 O 0.75026 0.72769 0.18942
 O331 O 0.74918 0.72201 0.30919
 O332 O 0.77470 0.75156 0.31488
 O333 O 0.69294 0.75096 0.28270
 O334 O 0.68608 0.77610 0.25167
 O335 O 0.71977 0.69531 0.25334
 O336 O 0.75108 0.68869 0.22838
 O337 O 0.74946 0.69556 0.28290
 O338 O 0.77454 0.68909 0.25151
 O339 O 0.69333 0.72161 0.25296
 O340 O 0.68647 0.75308 0.22799
 O341 O 0.71927 0.75071 0.30907
 O342 O 0.74546 0.77595 0.31619
 O343 O 0.74873 0.78280 0.19550
 O344 O 0.72553 0.75173 0.18914
 O345 O 0.80650 0.75230 0.22221
 O346 O 0.81181 0.72713 0.25313
 O347 O 0.77984 0.80929 0.25227
 O348 O 0.74817 0.81590 0.27647
 Zr349 Zr 0.75021 0.79160 0.25170
 O350 O 0.72984 0.77266 0.27215
 Zr351 Zr 0.78898 0.75335 0.25193
 O352 O 0.77028 0.73269 0.27242
 Zr353 Zr 0.75059 0.75306 0.21311
 O354 O 0.73017 0.73238 0.23190
 Zr355 Zr 0.74891 0.75165 0.29161
 O356 O 0.76966 0.77272 0.27325
 Zr357 Zr 0.71059 0.75147 0.25296
 O358 O 0.72914 0.77232 0.23223
 Zr359 Zr 0.74943 0.71309 0.25309
 O360 O 0.77007 0.73198 0.23240
 O361 O 0.77079 0.77357 0.23136
 O362 O 0.72861 0.73090 0.27354
 C363 C 0.74827 0.80295 0.20184
 C364 C 0.80003 0.80329 0.25354
 C365 C 0.80050 0.75191 0.20198
 C366 C 0.74934 0.70182 0.30305
 C367 C 0.69912 0.75059 0.30288
 C368 C 0.69957 0.70145 0.25324
 H369 H 0.72087 0.78253 0.28141
 H370 H 0.72119 0.72326 0.22193
 H371 H 0.78012 0.78304 0.22201
 H372 H 0.78019 0.72381 0.28172
 H373 H 0.78440 0.76408 0.31122
 H374 H 0.80911 0.74732 0.28879
 H375 H 0.68941 0.74108 0.21744
 H376 H 0.71365 0.76153 0.19434
 H377 H 0.75407 0.78876 0.31126
 H378 H 0.76107 0.81407 0.28617
 H379 H 0.73944 0.69185 0.21750
 H380 H 0.76053 0.71625 0.19473
 H381 H 0.71323 0.80990 0.24230
 H382 H 0.68927 0.78692 0.26335
 H383 H 0.80749 0.71654 0.24159
 H384 H 0.78507 0.69213 0.26349
 O385 O 0.74913 0.19133 0.77926
 O386 O 0.72556 0.18513 0.74879
 O387 O 0.80640 0.21814 0.74716
 O388 O 0.81570 0.24747 0.72824
 O389 O 0.77967 0.24777 0.80665
 O390 O 0.74977 0.27210 0.81309
 O391 O 0.74893 0.27894 0.69279
 O392 O 0.77425 0.25040 0.68642
 O393 O 0.69312 0.25010 0.71927
 O394 O 0.68558 0.22549 0.74991
 O395 O 0.72012 0.30558 0.74899
 O396 O 0.75069 0.31274 0.77305
 O397 O 0.74960 0.30530 0.71916
 O398 O 0.77533 0.31098 0.75119
 O399 O 0.69344 0.27956 0.74873
 O400 O 0.68690 0.24770 0.77422
 O401 O 0.71927 0.25001 0.69272
 O402 O 0.74957 0.22411 0.68615
 O403 O 0.74855 0.21739 0.80597
 O404 O 0.72469 0.24851 0.81218
 O405 O 0.80633 0.24799 0.78058
 O406 O 0.81117 0.27462 0.74978
 O407 O 0.78022 0.19156 0.74868
 O408 O 0.74958 0.18591 0.72411
 Zr409 Zr 0.75049 0.20925 0.74980
 O410 O 0.72983 0.22829 0.72966
 Zr411 Zr 0.78907 0.24778 0.75049
 O412 O 0.77043 0.26816 0.72962
 Zr413 Zr 0.75025 0.24735 0.78875
 O414 O 0.73021 0.26843 0.77006
 Zr415 Zr 0.74905 0.24928 0.71025
 O416 O 0.76998 0.22862 0.72881
 Zr417 Zr 0.71065 0.24954 0.74892
 O418 O 0.72910 0.22823 0.76929
 Zr419 Zr 0.74960 0.28771 0.74897
 O420 O 0.76986 0.26879 0.77003
 O421 O 0.77082 0.22712 0.77053
 O422 O 0.72877 0.27004 0.72839
 C423 C 0.74822 0.19728 0.79948
 C424 C 0.80028 0.19794 0.74708
 C425 C 0.79988 0.24815 0.80069
 C426 C 0.74924 0.29911 0.69899
 C427 C 0.69915 0.25031 0.69907
 C428 C 0.69989 0.29966 0.74878
 H429 H 0.72058 0.21844 0.72069
 H430 H 0.72127 0.27758 0.78004
 H431 H 0.78014 0.21746 0.77970
 H432 H 0.78036 0.27704 0.72035
 H433 H 0.78569 0.23987 0.69119
 H434 H 0.81033 0.25390 0.71435
 H435 H 0.68920 0.26033 0.78418
 H436 H 0.71328 0.23809 0.80713
 H437 H 0.73746 0.21375 0.68924
 H438 H 0.76012 0.19102 0.71285
 H439 H 0.74062 0.30844 0.78503
 H440 H 0.75974 0.28385 0.80794
 H441 H 0.71354 0.19058 0.75828
 H442 H 0.68925 0.21404 0.73900
 H443 H 0.80750 0.28419 0.76240
 H444 H 0.78502 0.30894 0.73833
 O445 O 0.24717 0.80383 0.78170
 O446 O 0.27082 0.81051 0.75108
 O447 O 0.18983 0.77724 0.74876
 O448 O 0.18195 0.74855 0.72757
 O449 O 0.21586 0.74569 0.80731
 O450 O 0.24685 0.72229 0.81366
 O451 O 0.24755 0.71697 0.69375
 O452 O 0.22196 0.74681 0.68824
 O453 O 0.30370 0.74664 0.72071
 O454 O 0.31003 0.77176 0.75194
 O455 O 0.27736 0.69065 0.74996
 O456 O 0.24579 0.68359 0.77461
 O457 O 0.24822 0.69065 0.72015
 O458 O 0.22289 0.68352 0.75099
 O459 O 0.30365 0.71707 0.75015
 O460 O 0.30993 0.74844 0.77542
 O461 O 0.27752 0.74602 0.69420
 O462 O 0.25119 0.77085 0.68686
 O463 O 0.24591 0.77718 0.80784
 O464 O 0.27074 0.74717 0.81399
 O465 O 0.18978 0.74676 0.78065
 O466 O 0.18507 0.72121 0.74971
 O467 O 0.21579 0.80392 0.75131
 O468 O 0.24727 0.81102 0.72713
 Zr469 Zr 0.24574 0.78653 0.75174
 O470 O 0.26642 0.76784 0.73122
 Zr471 Zr 0.20752 0.74772 0.75102
 O472 O 0.22655 0.72737 0.73053
 Zr473 Zr 0.24569 0.74764 0.78998
 O474 O 0.26650 0.72736 0.77125
 Zr475 Zr 0.24776 0.74664 0.71150
 O476 O 0.22673 0.76743 0.72994
 Zr477 Zr 0.28592 0.74676 0.75036
 O478 O 0.26698 0.76730 0.77112
 Zr479 Zr 0.24753 0.70801 0.74993
 O480 O 0.22653 0.72647 0.77058
 O481 O 0.22530 0.76806 0.77180
 O482 O 0.26823 0.72608 0.72961
 C483 C 0.24689 0.79739 0.80181
 C484 C 0.19576 0.79749 0.74952
 C485 C 0.19575 0.74563 0.80086
 C486 C 0.24798 0.69679 0.69998
 C487 C 0.29763 0.74621 0.70051
 C488 C 0.29751 0.69688 0.74996
 H489 H 0.27531 0.77785 0.72203
 H490 H 0.27552 0.71828 0.78122
 H491 H 0.21575 0.77732 0.78114
 H492 H 0.21678 0.71841 0.72117
 H493 H 0.21233 0.75939 0.69194
 H494 H 0.18771 0.74176 0.71401
 H495 H 0.30685 0.73657 0.78607
 H496 H 0.28221 0.75750 0.80891
 H497 H 0.24347 0.78404 0.69227
 H498 H 0.23450 0.80885 0.71732
 H499 H 0.25766 0.68646 0.78530
 H500 H 0.23697 0.71053 0.80835
 H501 H 0.28256 0.80519 0.76098
 H502 H 0.30688 0.78246 0.74014
 H503 H 0.18941 0.71074 0.76136
 H504 H 0.21223 0.68669 0.73916
 O505 O 0.24965 0.30500 0.71978
 O506 O 0.22601 0.31137 0.75040
 O507 O 0.30766 0.27934 0.75092
 O508 O 0.31610 0.25101 0.77255
 O509 O 0.28087 0.24810 0.69320
 O510 O 0.25062 0.22354 0.68751
 O511 O 0.25096 0.21822 0.80736
 O512 O 0.27678 0.24768 0.81263
 O513 O 0.19462 0.24729 0.78138
 O514 O 0.18734 0.27198 0.75019
 O515 O 0.22125 0.19125 0.75202
 O516 O 0.25217 0.18462 0.72666
 O517 O 0.25166 0.19171 0.78111
 O518 O 0.27606 0.18528 0.74927
 O519 O 0.19480 0.21756 0.75267
 O520 O 0.18750 0.24851 0.72681
 O521 O 0.22121 0.24746 0.80752
 O522 O 0.24776 0.27225 0.81425
 O523 O 0.24943 0.27861 0.69340
 O524 O 0.22586 0.24762 0.68762
 O525 O 0.30734 0.24850 0.71949
 O526 O 0.31315 0.22336 0.75040
 O527 O 0.28099 0.30541 0.74983
 O528 O 0.24953 0.31212 0.77421
 Zr529 Zr 0.25138 0.28766 0.74957
 O530 O 0.23135 0.26876 0.77036
 Zr531 Zr 0.29023 0.24952 0.74945
 O532 O 0.27186 0.22890 0.77028
 Zr533 Zr 0.25132 0.24895 0.71115
 O534 O 0.23124 0.22828 0.73028
 Zr535 Zr 0.25068 0.24786 0.78970
 O536 O 0.27114 0.26891 0.77096
 Zr537 Zr 0.21193 0.24743 0.75151
 O538 O 0.23012 0.26826 0.73047
 Zr539 Zr 0.25085 0.20914 0.75128
 O540 O 0.27114 0.22802 0.73023
 O541 O 0.27172 0.26961 0.72903
 O542 O 0.23025 0.22699 0.77195
 C543 C 0.24885 0.29879 0.69963
 C544 C 0.30121 0.29946 0.75075
 C545 C 0.30106 0.24784 0.69935
 C546 C 0.25151 0.19802 0.80124
 C547 C 0.20101 0.24732 0.80148
 C548 C 0.20109 0.19742 0.75279
 H549 H 0.22247 0.27869 0.77965
 H550 H 0.22213 0.21906 0.72052
 H551 H 0.28090 0.27906 0.71953
 H552 H 0.28193 0.22009 0.77947
 H553 H 0.28652 0.26011 0.80877
 H554 H 0.31095 0.24353 0.78600
 H555 H 0.19008 0.23609 0.71666
 H556 H 0.21404 0.25736 0.69305
 H557 H 0.25639 0.28499 0.80916
 H558 H 0.26247 0.31030 0.78386
 H559 H 0.24035 0.18767 0.71596
 H560 H 0.26084 0.21204 0.69276
 H561 H 0.21428 0.30593 0.74057
 H562 H 0.19067 0.28297 0.76168
 H563 H 0.30880 0.21281 0.73883
 H564 H 0.28682 0.18843 0.76101
 O565 O 0.75261 0.69323 0.71999
 O566 O 0.77617 0.68679 0.75070
 O567 O 0.69433 0.71836 0.75167
 O568 O 0.68578 0.74652 0.77351
 O569 O 0.72082 0.75036 0.69423
 O570 O 0.75089 0.77499 0.68853
 O571 O 0.75035 0.77939 0.80853
 O572 O 0.72524 0.74932 0.81352
 O573 O 0.80719 0.75133 0.78192
 O574 O 0.81467 0.72646 0.75089
 O575 O 0.78020 0.80682 0.75352
 O576 O 0.74905 0.81342 0.72790
 O577 O 0.75053 0.80591 0.78232
 O578 O 0.72551 0.81272 0.75105
 O579 O 0.80691 0.78081 0.75254
 O580 O 0.81418 0.74958 0.72732
 O581 O 0.78088 0.75073 0.80832
 O582 O 0.75473 0.72530 0.81485
 O583 O 0.75207 0.72003 0.69403
 O584 O 0.77568 0.75103 0.68837
 O585 O 0.69422 0.74935 0.72035
 O586 O 0.68852 0.77434 0.75155
 O587 O 0.72110 0.69241 0.75011
 O588 O 0.75258 0.68570 0.77446
 Zr589 Zr 0.75064 0.71032 0.75001
 O590 O 0.77064 0.72924 0.77090
 Zr591 Zr 0.71153 0.74828 0.75032
 O592 O 0.72989 0.76882 0.77131
 Zr593 Zr 0.75035 0.74944 0.71202
 O594 O 0.77039 0.77006 0.73116
 Zr595 Zr 0.75129 0.74987 0.79055
 O596 O 0.73088 0.72886 0.77162
 Zr597 Zr 0.78987 0.75082 0.75211
 O598 O 0.77173 0.73003 0.73101
 Zr599 Zr 0.75073 0.78881 0.75240
 O600 O 0.73044 0.77007 0.73127
 O601 O 0.73013 0.72848 0.72972
 O602 O 0.77153 0.77095 0.77283
 C603 C 0.75304 0.69978 0.69992
 C604 C 0.70085 0.69827 0.75124
 C605 C 0.70060 0.75028 0.70024
 C606 C 0.75033 0.79961 0.80243
 C607 C 0.80102 0.75125 0.80208
 C608 C 0.80044 0.80087 0.75338
 H609 H 0.77964 0.71934 0.78011
 H610 H 0.77937 0.77939 0.72140
 H611 H 0.72097 0.71905 0.72015
 H612 H 0.71981 0.77751 0.78060
 H613 H 0.71570 0.73677 0.80953
 H614 H 0.69105 0.75372 0.78706
 H615 H 0.81123 0.76165 0.71686
 H616 H 0.78738 0.74093 0.69342
 H617 H 0.74646 0.71241 0.80957
 H618 H 0.73963 0.68741 0.78412
 H619 H 0.76128 0.81094 0.71752
 H620 H 0.74078 0.78650 0.69397
 H621 H 0.78795 0.69248 0.74106
 H622 H 0.81149 0.71552 0.76246
 H623 H 0.69283 0.78503 0.74009
 H624 H 0.71483 0.80933 0.76279
 O625 O 0.24923 0.69312 0.28072
 O626 O 0.22612 0.68690 0.25009
 O627 O 0.30673 0.72071 0.25087
 O628 O 0.31554 0.74963 0.23068
 O629 O 0.27897 0.74998 0.30897
 O630 O 0.24770 0.77299 0.31589
 O631 O 0.24953 0.78126 0.19488
 O632 O 0.27478 0.75291 0.18854
 O633 O 0.19334 0.75157 0.22062
 O634 O 0.18539 0.72753 0.25110
 O635 O 0.22014 0.80793 0.25089
 O636 O 0.24695 0.81314 0.27674
 O637 O 0.24836 0.80755 0.22132
 O638 O 0.27654 0.81155 0.25011
 O639 O 0.19360 0.78167 0.24983
 O640 O 0.18675 0.74962 0.27563
 O641 O 0.21978 0.75267 0.19438
 O642 O 0.25033 0.72625 0.18819
 O643 O 0.24820 0.71896 0.30762
 O644 O 0.22354 0.74985 0.31351
 O645 O 0.30588 0.75057 0.28319
 O646 O 0.31089 0.77717 0.25245
 O647 O 0.28068 0.69398 0.25032
 O648 O 0.25012 0.68826 0.22553
 Zr649 Zr 0.25073 0.71133 0.25147
 O650 O 0.23009 0.73033 0.23128
 Zr651 Zr 0.28896 0.75017 0.25299
 O652 O 0.27038 0.77040 0.23195
 Zr653 Zr 0.24970 0.74915 0.29072
 O654 O 0.22994 0.77023 0.27177
 Zr655 Zr 0.24942 0.75150 0.21219
 O656 O 0.27035 0.73097 0.23090
 Zr657 Zr 0.21061 0.75142 0.25043
 O658 O 0.22895 0.73002 0.27083
 Zr659 Zr 0.24933 0.78981 0.25105
 O660 O 0.26942 0.77102 0.27247
 O661 O 0.27060 0.72921 0.27262
 O662 O 0.22888 0.77198 0.23025
 C663 C 0.24809 0.69889 0.30097
 C664 C 0.30079 0.70047 0.25004
 C665 C 0.29925 0.75061 0.30323
 C666 C 0.24880 0.80141 0.20112
 C667 C 0.19959 0.75237 0.20052
 C668 C 0.19996 0.80185 0.25018
 H669 H 0.22097 0.72048 0.22217
 H670 H 0.22100 0.77948 0.28169
 H671 H 0.27989 0.71964 0.28192
 H672 H 0.28031 0.77958 0.22295
 H673 H 0.28628 0.74248 0.19338
 H674 H 0.31041 0.75673 0.21702
 H675 H 0.18868 0.76255 0.28528
 H676 H 0.21257 0.73903 0.30836
 H677 H 0.23759 0.71646 0.19049
 H678 H 0.26078 0.69348 0.21444
 H679 H 0.25979 0.81079 0.28641
 H680 H 0.25844 0.78460 0.31224
 H681 H 0.21393 0.69215 0.25948
 H682 H 0.18965 0.71562 0.24092
 H683 H 0.30712 0.78669 0.26507
 H684 H 0.27085 0.82663 0.24768
 O685 O 0.75016 0.30716 0.28020
 O686 O 0.77374 0.31413 0.24975
 O687 O 0.69319 0.27992 0.24825
 O688 O 0.68530 0.25146 0.22684
 O689 O 0.72001 0.24942 0.30626
 O690 O 0.75075 0.22557 0.31228
 O691 O 0.75132 0.22087 0.19188
 O692 O 0.72561 0.24940 0.18643
 O693 O 0.80718 0.25092 0.21892
 O694 O 0.81407 0.27483 0.25033
 O695 O 0.78096 0.19366 0.24814
 O696 O 0.75091 0.18643 0.27252
 O697 O 0.75341 0.19443 0.21809
 O698 O 0.72439 0.18931 0.24752
 O699 O 0.80711 0.22029 0.24836
 O700 O 0.81357 0.25200 0.27376
 O701 O 0.78084 0.25029 0.19254
 O702 O 0.75054 0.27556 0.18597
 O703 O 0.75054 0.28047 0.30627
 O704 O 0.77500 0.25000 0.31224
 O705 O 0.69378 0.24924 0.27975
 O706 O 0.68917 0.22360 0.24873
 O707 O 0.71903 0.30684 0.24910
 O708 O 0.74969 0.31374 0.22526
 Zr709 Zr 0.74907 0.28973 0.25032
 O710 O 0.76995 0.27137 0.22977
 Zr711 Zr 0.71118 0.25052 0.24998
 O712 O 0.73026 0.23065 0.22903
 Zr713 Zr 0.74966 0.25088 0.28854
 O714 O 0.77030 0.23074 0.26951
 Zr715 Zr 0.75113 0.25029 0.20996
 O716 O 0.72999 0.27045 0.22883
 Zr717 Zr 0.78959 0.25022 0.24867
 O718 O 0.77065 0.27068 0.26952
 Zr719 Zr 0.75141 0.21130 0.24815
 O720 O 0.73061 0.22946 0.26932
 O721 O 0.72894 0.27111 0.27055
 O722 O 0.77183 0.22975 0.22784
 C723 C 0.75084 0.30071 0.30030
 C724 C 0.69900 0.30023 0.24809
 C725 C 0.69988 0.24876 0.29994
 C726 C 0.75263 0.20070 0.19798
 C727 C 0.80099 0.25083 0.19874
 C728 C 0.80105 0.20004 0.24820
 H729 H 0.77899 0.28155 0.22098
 H730 H 0.77945 0.22171 0.27939
 H731 H 0.71943 0.28039 0.27991
 H732 H 0.72058 0.22143 0.21979
 H733 H 0.71439 0.26016 0.19123
 H734 H 0.69040 0.24360 0.21358
 H735 H 0.81105 0.23963 0.28398
 H736 H 0.78643 0.26039 0.30718
 H737 H 0.76193 0.28649 0.18972
 H738 H 0.73966 0.30850 0.21360
 H739 H 0.76132 0.19065 0.28422
 H740 H 0.74059 0.21396 0.30715
 H741 H 0.78565 0.30886 0.25948
 H742 H 0.81024 0.28637 0.23956
 H743 H 0.69310 0.21360 0.26092
 H744 H 0.72931 0.17506 0.24133
 C745 C 0.26587 0.08754 0.07390
 C746 C 0.28331 0.08906 0.05889
 C747 C 0.28456 0.07488 0.04094
 C748 C 0.26871 0.05835 0.03775
 C749 C 0.25125 0.05683 0.05284
 C750 C 0.24990 0.07119 0.07071
 C751 C 0.26402 0.10342 0.09237
 C752 C 0.25626 0.09674 0.11306
 C753 C 0.25427 0.11188 0.13024
 C754 C 0.26006 0.13402 0.12713
 C755 C 0.26800 0.14061 0.10650
 C756 C 0.26985 0.12556 0.08933
 C757 C 0.25772 0.15032 0.14517
 C758 C 0.25079 0.17186 0.14056
 C759 C 0.24935 0.18751 0.15722
 C760 C 0.25460 0.18200 0.17900
 C761 C 0.26105 0.16034 0.18377
 C762 C 0.26268 0.14469 0.16702
 H763 H 0.29611 0.10121 0.06104
 H764 H 0.29826 0.07656 0.02973
 H765 H 0.23813 0.04509 0.05035
 H766 H 0.23594 0.06992 0.08163
 H767 H 0.25185 0.07977 0.11603
 H768 H 0.24791 0.10629 0.14585
 H769 H 0.27294 0.15745 0.10361
 H770 H 0.27558 0.13138 0.07356
 H771 H 0.24633 0.17664 0.12404
 H772 H 0.24400 0.20396 0.15302
 H773 H 0.26525 0.15560 0.20038
 H774 H 0.26828 0.12831 0.17110
 C775 C 0.76070 0.58763 0.57776
 C776 C 0.74205 0.57497 0.57266
 C777 C 0.74204 0.56106 0.55439
 C778 C 0.76067 0.55954 0.54097
 C779 C 0.77940 0.57184 0.54616
 C780 C 0.77947 0.58566 0.56445
 C781 C 0.76028 0.60350 0.59630
 C782 C 0.77019 0.62423 0.59410
 C783 C 0.76930 0.63949 0.61118
 C784 C 0.75837 0.63447 0.63086
 C785 C 0.74865 0.61365 0.63318
 C786 C 0.74959 0.59834 0.61608
 C787 C 0.75686 0.65107 0.64867
 C788 C 0.75891 0.64490 0.67081
 C789 C 0.75763 0.66066 0.68748
 C790 C 0.75432 0.68295 0.68237
 C791 C 0.75217 0.68907 0.66022
 C792 C 0.75338 0.67333 0.64361
 H793 H 0.72723 0.57634 0.58236
 H794 H 0.72736 0.55185 0.55041
 H795 H 0.79388 0.57087 0.53589
 H796 H 0.79420 0.59491 0.56811
 H797 H 0.77830 0.62887 0.57899
 H798 H 0.77722 0.65526 0.60897
 H799 H 0.73995 0.60934 0.64805
 H800 H 0.74199 0.58243 0.61838
 H801 H 0.76184 0.62792 0.67525
 H802 H 0.75940 0.65537 0.70436
 H803 H 0.74941 0.70604 0.65566
 H804 H 0.75131 0.67858 0.62675
 C805 C 0.73421 0.92530 0.09043
 C806 C 0.71750 0.94104 0.09290
 C807 C 0.71616 0.95903 0.07877
 C808 C 0.73112 0.96153 0.06133
 C809 C 0.74774 0.94562 0.05876
 C810 C 0.74924 0.92775 0.07310
 C811 C 0.73636 0.90687 0.10635
 C812 C 0.74320 0.88589 0.09946
 C813 C 0.74554 0.86877 0.11461
 C814 C 0.74100 0.87220 0.13698
 C815 C 0.73397 0.89312 0.14378
 C816 C 0.73182 0.91024 0.12871
 C817 C 0.74359 0.85415 0.15326
 C818 C 0.75139 0.85869 0.17450
 C819 C 0.75299 0.84204 0.19016
 C820 C 0.74710 0.82035 0.18491
 C821 C 0.73982 0.81563 0.16354
 C822 C 0.73798 0.83238 0.14791
 H823 H 0.70539 0.93948 0.10580
 H824 H 0.70308 0.97085 0.08125
 H825 H 0.76021 0.94751 0.04623
 H826 H 0.76264 0.91625 0.07103
 H827 H 0.74661 0.88264 0.08233
 H828 H 0.75120 0.85294 0.10882
 H829 H 0.72996 0.89629 0.16080
 H830 H 0.72686 0.92624 0.13470
 H831 H 0.75638 0.87514 0.17905
 H832 H 0.75897 0.84616 0.20639
 H833 H 0.73509 0.79909 0.15903
 H834 H 0.73168 0.82833 0.13180
 C835 C 0.24019 0.42035 0.58684
 C836 C 0.25883 0.42565 0.57427
 C837 C 0.25872 0.44398 0.56042
 C838 C 0.23998 0.45726 0.55888
 C839 C 0.22125 0.45186 0.57107
 C840 C 0.22130 0.43351 0.58483
 C841 C 0.24074 0.40180 0.60271
 C842 C 0.23071 0.40392 0.62337
 C843 C 0.23176 0.38687 0.63866
 C844 C 0.24298 0.36730 0.63375
 C845 C 0.25279 0.36502 0.61298
 C846 C 0.25169 0.38209 0.59764
 C847 C 0.24474 0.34958 0.65045
 C848 C 0.24301 0.32733 0.64446
 C849 C 0.24442 0.31079 0.66036
 C850 C 0.24755 0.31615 0.68260
 C851 C 0.24945 0.33841 0.68850
 C852 C 0.24811 0.35488 0.67264
 H853 H 0.27374 0.41607 0.57567
 H854 H 0.27340 0.44812 0.55129
 H855 H 0.20667 0.46201 0.57008
 H856 H 0.20656 0.42969 0.59400
 H857 H 0.22239 0.41896 0.62794
 H858 H 0.22376 0.38904 0.65437
 H859 H 0.26170 0.35022 0.60875
 H860 H 0.25939 0.37985 0.58178
 H861 H 0.24020 0.32272 0.62753
 H862 H 0.24286 0.29383 0.65524
 H863 H 0.25208 0.34317 0.70543
 H864 H 0.24995 0.37182 0.67775
 C865 C 0.73851 0.07565 0.91208
 C866 C 0.71974 0.06223 0.91314
 C867 C 0.71911 0.04416 0.92723
 C868 C 0.73709 0.03932 0.94073
 C869 C 0.75568 0.05287 0.94014
 C870 C 0.75639 0.07091 0.92593
 C871 C 0.73969 0.09398 0.89600
 C872 C 0.74989 0.11397 0.90147
 C873 C 0.75135 0.13095 0.88607
 C874 C 0.74265 0.12832 0.86486
 C875 C 0.73229 0.10840 0.85948
 C876 C 0.73090 0.09144 0.87483
 C877 C 0.74446 0.14613 0.84826
 C878 C 0.74876 0.14105 0.82618
 C879 C 0.75000 0.15764 0.81041
 C880 C 0.74710 0.17977 0.81635
 C881 C 0.74308 0.18491 0.83849
 C882 C 0.74174 0.16827 0.85426
 H883 H 0.70556 0.06563 0.90298
 H884 H 0.70466 0.03380 0.92751
 H885 H 0.76978 0.04917 0.95031
 H886 H 0.77119 0.08072 0.92532
 H887 H 0.75664 0.11654 0.91771
 H888 H 0.75961 0.14601 0.89067
 H889 H 0.72514 0.10594 0.84341
 H890 H 0.72321 0.07617 0.86995
 H891 H 0.75137 0.12421 0.82107
 H892 H 0.75335 0.15308 0.79356
 H893 H 0.74072 0.20178 0.84362
 H894 H 0.73817 0.17271 0.87109
 C895 C 0.24047 0.57562 0.41195
 C896 C 0.22172 0.56224 0.41363
 C897 C 0.22170 0.54384 0.42732
 C898 C 0.24032 0.53861 0.43976
 C899 C 0.25893 0.55208 0.43852
 C900 C 0.25901 0.57046 0.42474
 C901 C 0.24097 0.59431 0.39625
 C902 C 0.25156 0.61411 0.40167
 C903 C 0.25255 0.63137 0.38654
 C904 C 0.24298 0.62920 0.36565
 C905 C 0.23216 0.60951 0.36037
 C906 C 0.23122 0.59227 0.37544
 C907 C 0.24452 0.64720 0.34923
 C908 C 0.24813 0.64232 0.32698
 C909 C 0.24928 0.65908 0.31140
 C910 C 0.24696 0.68120 0.31767
 C911 C 0.24357 0.68613 0.33997
 C912 C 0.24234 0.66930 0.35557
 H913 H 0.20706 0.56594 0.40427
 H914 H 0.20723 0.53353 0.42808
 H915 H 0.27353 0.54807 0.44785
 H916 H 0.27382 0.58022 0.42360
 H917 H 0.25904 0.61629 0.41764
 H918 H 0.26116 0.64625 0.39105
 H919 H 0.22435 0.60741 0.34455
 H920 H 0.22319 0.57716 0.37061
 H921 H 0.25030 0.62551 0.32160
 H922 H 0.25211 0.65466 0.29442
 H923 H 0.24167 0.70297 0.34537
 H924 H 0.23932 0.67359 0.37255
 C925 C 0.25671 0.90840 0.92505
 C926 C 0.24416 0.92780 0.92587
 C927 C 0.24590 0.94216 0.94375
 C928 C 0.26020 0.93745 0.96130
 C929 C 0.27267 0.91799 0.96040
 C930 C 0.27120 0.90389 0.94242
 C931 C 0.25439 0.89256 0.90654
 C932 C 0.25607 0.86983 0.91036
 C933 C 0.25440 0.85486 0.89311
 C934 C 0.25059 0.86210 0.87153
 C935 C 0.24864 0.88482 0.86769
 C936 C 0.25060 0.89987 0.88496
 C937 C 0.24886 0.84593 0.85324
 C938 C 0.25712 0.85080 0.83222
 C939 C 0.25617 0.83520 0.81536
 C940 C 0.24725 0.81428 0.81925
 C941 C 0.23875 0.80949 0.84013
 C942 C 0.23936 0.82517 0.85683
 H943 H 0.23248 0.93159 0.91304
 H944 H 0.23535 0.95648 0.94427
 H945 H 0.28402 0.91387 0.97347
 H946 H 0.28155 0.88943 0.94217
 H947 H 0.25855 0.86350 0.92677
 H948 H 0.25639 0.83757 0.89672
 H949 H 0.24542 0.89101 0.85135
 H950 H 0.24943 0.91724 0.88134
 H951 H 0.26481 0.86647 0.82889
 H952 H 0.26290 0.83932 0.79944
 H953 H 0.23144 0.79363 0.84352
 H954 H 0.23229 0.82099 0.87258
 C955 C 0.75881 0.41233 0.42294
 C956 C 0.77772 0.41406 0.43609
 C957 C 0.77791 0.42775 0.45448
 C958 C 0.75932 0.44016 0.45992
 C959 C 0.74056 0.43888 0.44666
 C960 C 0.74030 0.42510 0.42830
 C961 C 0.75813 0.39660 0.40428
 C962 C 0.74730 0.40197 0.38461
 C963 C 0.74615 0.38678 0.36741
 C964 C 0.75578 0.36589 0.36951
 C965 C 0.76685 0.36067 0.38907
 C966 C 0.76795 0.37579 0.40625
 C967 C 0.75407 0.34940 0.35161
 C968 C 0.75058 0.32714 0.35660
 C969 C 0.74945 0.31144 0.33995
 C970 C 0.75169 0.31760 0.31783
 C971 C 0.75486 0.33991 0.31276
 C972 C 0.75607 0.35564 0.32948
 H973 H 0.79236 0.40473 0.43224
 H974 H 0.79250 0.42855 0.46461
 H975 H 0.72599 0.44820 0.45083
 H976 H 0.72539 0.42392 0.41871
 H977 H 0.73976 0.41794 0.38249
 H978 H 0.73737 0.39125 0.35262
 H979 H 0.77472 0.34485 0.39111
 H980 H 0.77616 0.37100 0.42126
 H981 H 0.74852 0.32183 0.37344
 H982 H 0.74676 0.29445 0.34448
 H983 H 0.75669 0.34522 0.29590
 H984 H 0.75898 0.37263 0.32510
 C985 C 0.08917 0.25097 0.07370
 C986 C 0.07045 0.23744 0.07330
 C987 C 0.05600 0.23797 0.05542
 C988 C 0.05998 0.25200 0.03750
 C989 C 0.07872 0.26550 0.03802
 C990 C 0.09287 0.26525 0.05597
 C991 C 0.10522 0.24991 0.09210
 C992 C 0.12777 0.25252 0.08798
 C993 C 0.14294 0.25214 0.10511
 C994 C 0.13608 0.24870 0.12686
 C995 C 0.11354 0.24578 0.13102
 C996 C 0.09828 0.24646 0.11385
 C997 C 0.15247 0.24829 0.14499
 C998 C 0.14745 0.25703 0.16579
 C999 C 0.16321 0.25720 0.18251
 C1000 C 0.18440 0.24897 0.17867
 C1001 C 0.18937 0.24007 0.15800
 C1002 C 0.17356 0.23955 0.14145
 H1003 H 0.06730 0.22593 0.08647
 H1004 H 0.04220 0.22674 0.05521
 H1005 H 0.08222 0.27665 0.02460
 H1006 H 0.10677 0.27633 0.05590
 H1007 H 0.13383 0.25476 0.07144
 H1008 H 0.16007 0.25482 0.10126
 H1009 H 0.10768 0.24280 0.14752
 H1010 H 0.08103 0.24457 0.11767
 H1011 H 0.13151 0.26417 0.16904
 H1012 H 0.15895 0.26419 0.19829
 H1013 H 0.20545 0.23322 0.15469
 H1014 H 0.17788 0.23214 0.12589
 C1015 C 0.58765 0.75084 0.57860
 C1016 C 0.57640 0.73134 0.57331
 C1017 C 0.56237 0.73055 0.55515
 C1018 C 0.55934 0.74922 0.54204
 C1019 C 0.57021 0.76877 0.54742
 C1020 C 0.58414 0.76962 0.56559
 C1021 C 0.60361 0.75141 0.59705
 C1022 C 0.62348 0.76295 0.59488
 C1023 C 0.63882 0.76311 0.61189
 C1024 C 0.63476 0.75164 0.63149
 C1025 C 0.61481 0.74027 0.63379
 C1026 C 0.59941 0.74015 0.61675
 C1027 C 0.65151 0.75128 0.64923
 C1028 C 0.64532 0.75264 0.67142
 C1029 C 0.66121 0.75236 0.68801
 C1030 C 0.68364 0.75075 0.68277
 C1031 C 0.68977 0.74932 0.66057
 C1032 C 0.67391 0.74954 0.64404
 H1033 H 0.57896 0.71653 0.58280
 H1034 H 0.55423 0.71528 0.55103
 H1035 H 0.56803 0.78330 0.53739
 H1036 H 0.59226 0.78498 0.56941
 H1037 H 0.62738 0.77155 0.57983
 H1038 H 0.65389 0.77227 0.60970
 H1039 H 0.61127 0.73112 0.64861
 H1040 H 0.58417 0.73129 0.61903
 H1041 H 0.62822 0.75423 0.67596
 H1042 H 0.65590 0.75352 0.70493
 H1043 H 0.70686 0.74786 0.65590
 H1044 H 0.67921 0.74805 0.62714
 C1045 C 0.07528 0.74245 0.91456
 C1046 C 0.06356 0.72292 0.91838
 C1047 C 0.04546 0.72281 0.93249
 C1048 C 0.03902 0.74214 0.94324
 C1049 C 0.05091 0.76155 0.93978
 C1050 C 0.06889 0.76171 0.92557
 C1051 C 0.09352 0.74297 0.89846
 C1052 C 0.09499 0.76018 0.88317
 C1053 C 0.11174 0.76045 0.86754
 C1054 C 0.12749 0.74361 0.86695
 C1055 C 0.12622 0.72653 0.88241
 C1056 C 0.10932 0.72614 0.89794
 C1057 C 0.14500 0.74380 0.85005
 C1058 C 0.16688 0.73915 0.85569
 C1059 C 0.18339 0.73974 0.83975
 C1060 C 0.17831 0.74476 0.81779
 C1061 C 0.15636 0.74918 0.81217
 C1062 C 0.13992 0.74879 0.82813
 H1063 H 0.06797 0.70791 0.90991
 H1064 H 0.03627 0.70776 0.93480
 H1065 H 0.04597 0.77666 0.94778
 H1066 H 0.07773 0.77694 0.92306
 H1067 H 0.08291 0.77324 0.88305
 H1068 H 0.11244 0.77392 0.85595
 H1069 H 0.13808 0.71326 0.88222
 H1070 H 0.10864 0.71275 0.90962
 H1071 H 0.17126 0.73542 0.87251
 H1072 H 0.20012 0.73623 0.84464
 H1073 H 0.15186 0.75314 0.79544
 H1074 H 0.12316 0.75220 0.82329
 C1075 C 0.57743 0.25174 0.41168
 C1076 C 0.57214 0.23299 0.42412
 C1077 C 0.55378 0.23299 0.43789
 C1078 C 0.54049 0.25173 0.43949
 C1079 C 0.54589 0.27055 0.42743
 C1080 C 0.56425 0.27061 0.41374
 C1081 C 0.59603 0.25135 0.39592
 C1082 C 0.59388 0.26136 0.37525
 C1083 C 0.61104 0.26064 0.36011
 C1084 C 0.63076 0.24979 0.36519
 C1085 C 0.63303 0.23994 0.38594
 C1086 C 0.61583 0.24068 0.40113
 C1087 C 0.64870 0.24866 0.34873
 C1088 C 0.67075 0.25129 0.35499
 C1089 C 0.68747 0.25099 0.33924
 C1090 C 0.68245 0.24807 0.31690
 C1091 C 0.66042 0.24505 0.31074
 C1092 C 0.64378 0.24530 0.32646
 H1093 H 0.58177 0.21811 0.42268
 H1094 H 0.54964 0.21825 0.44695
 H1095 H 0.53573 0.28513 0.42849
 H1096 H 0.56807 0.28541 0.40466
 H1097 H 0.57875 0.26946 0.37059
 H1098 H 0.60887 0.26867 0.34441
 H1099 H 0.64797 0.23132 0.39028
 H1100 H 0.61807 0.23299 0.41700
 H1101 H 0.67505 0.25411 0.37201
 H1102 H 0.70426 0.25343 0.34454
 H1103 H 0.65595 0.24258 0.29372
 H1104 H 0.62700 0.24278 0.32115
 C1105 C 0.92427 0.75767 0.09147
 C1106 C 0.92718 0.74126 0.07549
 C1107 C 0.94511 0.74191 0.06118
 C1108 C 0.96058 0.75908 0.06235
 C1109 C 0.95771 0.77534 0.07855
 C1110 C 0.93969 0.77480 0.09269
 C1111 C 0.90565 0.75659 0.10726
 C1112 C 0.90862 0.76293 0.12924
 C1113 C 0.89129 0.76181 0.14418
 C1114 C 0.87055 0.75411 0.13762
 C1115 C 0.86752 0.74780 0.11563
 C1116 C 0.88485 0.74907 0.10061
 C1117 C 0.85227 0.75265 0.15378
 C1118 C 0.83059 0.75787 0.14774
 C1119 C 0.81365 0.75721 0.16324
 C1120 C 0.81805 0.75148 0.18515
 C1121 C 0.83964 0.74592 0.19108
 C1122 C 0.85650 0.74639 0.17558
 H1123 H 0.91597 0.72751 0.07448
 H1124 H 0.94735 0.72844 0.04978
 H1125 H 0.96923 0.78882 0.08000
 H1126 H 0.93781 0.78790 0.10456
 H1127 H 0.92447 0.76850 0.13504
 H1128 H 0.89415 0.76714 0.16089
 H1129 H 0.85182 0.74161 0.11006
 H1130 H 0.88191 0.74429 0.08375
 H1131 H 0.82679 0.76300 0.13116
 H1132 H 0.79720 0.76170 0.15817
 H1133 H 0.84357 0.74119 0.20776
 H1134 H 0.87288 0.74177 0.18070
 C1135 C 0.42256 0.25162 0.58656
 C1136 C 0.42792 0.23282 0.57422
 C1137 C 0.44623 0.23282 0.56038
 C1138 C 0.45940 0.25161 0.55863
 C1139 C 0.45392 0.27049 0.57057
 C1140 C 0.43560 0.27056 0.58432
 C1141 C 0.40406 0.25122 0.60245
 C1142 C 0.40626 0.26141 0.62303
 C1143 C 0.38923 0.26063 0.63831
 C1144 C 0.36959 0.24954 0.63347
 C1145 C 0.36726 0.23952 0.61281
 C1146 C 0.38433 0.24033 0.59747
 C1147 C 0.35182 0.24830 0.65010
 C1148 C 0.32967 0.25056 0.64403
 C1149 C 0.31310 0.25010 0.65993
 C1150 C 0.31836 0.24739 0.68225
 C1151 C 0.34050 0.24476 0.68822
 C1152 C 0.35699 0.24516 0.67235
 H1153 H 0.41839 0.21790 0.57580
 H1154 H 0.45043 0.21804 0.55140
 H1155 H 0.46400 0.28511 0.56939
 H1156 H 0.43173 0.28540 0.59332
 H1157 H 0.42133 0.26968 0.62752
 H1158 H 0.39143 0.26880 0.65394
 H1159 H 0.35239 0.23072 0.60865
 H1160 H 0.38206 0.23249 0.58168
 H1161 H 0.32517 0.25320 0.62704
 H1162 H 0.29623 0.25224 0.65477
 H1163 H 0.34516 0.24245 0.70521
 H1164 H 0.37385 0.24291 0.67752
 C1165 C 0.91018 0.25572 0.92448
 C1166 C 0.90892 0.27330 0.93938
 C1167 C 0.92305 0.27441 0.95736
 C1168 C 0.93931 0.25829 0.96069
 C1169 C 0.94051 0.24064 0.94578
 C1170 C 0.92619 0.23942 0.92786
 C1171 C 0.89443 0.25418 0.90589
 C1172 C 0.90113 0.24635 0.88522
 C1173 C 0.88617 0.24492 0.86785
 C1174 C 0.86417 0.25132 0.87074
 C1175 C 0.85755 0.25924 0.89138
 C1176 C 0.87243 0.26054 0.90873
 C1177 C 0.84806 0.24973 0.85247
 C1178 C 0.82628 0.24344 0.85673
 C1179 C 0.81078 0.24285 0.83989
 C1180 C 0.81667 0.24831 0.81827
 C1181 C 0.83856 0.25408 0.81383
 C1182 C 0.85408 0.25486 0.83077
 H1183 H 0.89703 0.28633 0.93711
 H1184 H 0.92159 0.28824 0.96847
 H1185 H 0.95200 0.22731 0.94842
 H1186 H 0.92725 0.22537 0.91703
 H1187 H 0.91801 0.24153 0.88241
 H1188 H 0.89176 0.23856 0.85223
 H1189 H 0.84084 0.26464 0.89412
 H1190 H 0.86660 0.26632 0.92449
 H1191 H 0.82118 0.23887 0.87312
 H1192 H 0.79413 0.23801 0.84385
 H1193 H 0.84361 0.25842 0.79735
 H1194 H 0.87066 0.25998 0.82696
 C1195 C 0.41085 0.75043 0.42610
 C1196 C 0.41386 0.76904 0.43946
 C1197 C 0.42773 0.76816 0.45769
 C1198 C 0.43901 0.74875 0.46276
 C1199 C 0.43643 0.73025 0.44932
 C1200 C 0.42247 0.73107 0.43111
 C1201 C 0.39502 0.75102 0.40754
 C1202 C 0.39965 0.74024 0.38765
 C1203 C 0.38442 0.74043 0.37046
 C1204 C 0.36422 0.75137 0.37279
 C1205 C 0.35973 0.76233 0.39259
 C1206 C 0.37490 0.76211 0.40975
 C1207 C 0.34770 0.75112 0.35484
 C1208 C 0.32527 0.74887 0.35972
 C1209 C 0.30962 0.74880 0.34300
 C1210 C 0.31598 0.75087 0.32091
 C1211 C 0.33844 0.75299 0.31599
 C1212 C 0.35412 0.75313 0.33278
 H1213 H 0.40544 0.78429 0.43587
 H1214 H 0.42956 0.78256 0.46797
 H1215 H 0.44490 0.71509 0.45321
 H1216 H 0.42029 0.71638 0.42134
 H1217 H 0.41509 0.73174 0.38534
 H1218 H 0.38830 0.73167 0.35549
 H1219 H 0.34446 0.77116 0.39482
 H1220 H 0.37067 0.77032 0.42494
 H1221 H 0.31980 0.74689 0.37651
 H1222 H 0.29250 0.74695 0.34742
 H1223 H 0.34393 0.75466 0.29917
 H1224 H 0.37125 0.75512 0.32849
 C1225 C 0.08823 0.07727 0.23901
 C1226 C 0.07627 0.07154 0.25790
 C1227 C 0.06221 0.05343 0.25773
 C1228 C 0.05970 0.04079 0.23865
 C1229 C 0.07140 0.04654 0.21969
 C1230 C 0.08546 0.06468 0.21983
 C1231 C 0.10417 0.09574 0.23963
 C1232 C 0.12464 0.09382 0.22918
 C1233 C 0.14005 0.11075 0.23053
 C1234 C 0.13540 0.12999 0.24242
 C1235 C 0.11482 0.13206 0.25263
 C1236 C 0.09937 0.11512 0.25125
 C1237 C 0.15210 0.14767 0.24433
 C1238 C 0.14599 0.16992 0.24317
 C1239 C 0.16184 0.18648 0.24449
 C1240 C 0.18418 0.18116 0.24697
 C1241 C 0.19022 0.15891 0.24845
 C1242 C 0.17438 0.14239 0.24718
 H1243 H 0.07832 0.08063 0.27304
 H1244 H 0.05361 0.04896 0.27263
 H1245 H 0.06978 0.03684 0.20488
 H1246 H 0.09424 0.06881 0.20495
 H1247 H 0.12896 0.07902 0.22032
 H1248 H 0.15563 0.10877 0.22221
 H1249 H 0.11079 0.14660 0.26204
 H1250 H 0.08366 0.11720 0.25929
 H1251 H 0.12899 0.17452 0.24075
 H1252 H 0.15661 0.20343 0.24318
 H1253 H 0.20724 0.15419 0.25049
 H1254 H 0.17959 0.12543 0.24855
 C1255 C 0.58826 0.57633 0.75194
 C1256 C 0.58530 0.56300 0.77056
 C1257 C 0.57137 0.54481 0.76977
 C1258 C 0.55999 0.53975 0.75046
 C1259 C 0.56246 0.55320 0.73196
 C1260 C 0.57648 0.57138 0.73269
 C1261 C 0.60425 0.59475 0.75237
 C1262 C 0.59969 0.61471 0.74169
 C1263 C 0.61508 0.63176 0.74172
 C1264 C 0.63538 0.62920 0.75241
 C1265 C 0.63982 0.60932 0.76326
 C1266 C 0.62448 0.59230 0.76320
 C1267 C 0.65205 0.64701 0.75202
 C1268 C 0.67440 0.64194 0.74945
 C1269 C 0.69018 0.65855 0.74927
 C1270 C 0.68401 0.68070 0.75158
 C1271 C 0.66162 0.68580 0.75404
 C1272 C 0.64582 0.66913 0.75427
 H1273 H 0.59385 0.56656 0.78572
 H1274 H 0.56964 0.53451 0.78416
 H1275 H 0.55393 0.54931 0.71686
 H1276 H 0.57861 0.58114 0.71799
 H1277 H 0.58418 0.61719 0.73338
 H1278 H 0.61125 0.64680 0.73305
 H1279 H 0.65518 0.60692 0.77189
 H1280 H 0.62865 0.57705 0.77133
 H1281 H 0.67971 0.62510 0.74729
 H1282 H 0.70724 0.65400 0.74717
 H1283 H 0.65627 0.70267 0.75589
 H1284 H 0.62875 0.67355 0.75652
 C1285 C 0.92527 0.08887 0.74963
 C1286 C 0.94257 0.09350 0.76417
 C1287 C 0.96072 0.07962 0.76556
 C1288 C 0.96189 0.06029 0.75293
 C1289 C 0.94450 0.05555 0.73844
 C1290 C 0.92641 0.06967 0.73682
 C1291 C 0.90642 0.10432 0.74767
 C1292 C 0.88492 0.09658 0.74431
 C1293 C 0.86727 0.11126 0.74301
 C1294 C 0.87068 0.13402 0.74517
 C1295 C 0.89220 0.14170 0.74843
 C1296 C 0.90981 0.12710 0.74947
 C1297 C 0.85200 0.14981 0.74442
 C1298 C 0.85480 0.17078 0.73514
 C1299 C 0.83791 0.18625 0.73583
 C1300 C 0.81763 0.18104 0.74545
 C1301 C 0.81445 0.15985 0.75401
 C1302 C 0.83150 0.14444 0.75364
 H1303 H 0.94206 0.10784 0.77466
 H1304 H 0.97367 0.08375 0.77703
 H1305 H 0.94524 0.04132 0.72779
 H1306 H 0.91362 0.06583 0.72511
 H1307 H 0.88167 0.07914 0.74304
 H1308 H 0.85097 0.10477 0.74021
 H1309 H 0.89548 0.15905 0.75055
 H1310 H 0.92614 0.13373 0.75165
 H1311 H 0.87011 0.17533 0.72736
 H1312 H 0.84073 0.20235 0.72881
 H1313 H 0.79900 0.15543 0.76163
 H1314 H 0.82882 0.12857 0.76118
 C1315 C 0.42386 0.58905 0.24635
 C1316 C 0.42873 0.57677 0.26532
 C1317 C 0.44709 0.56298 0.26590
 C1318 C 0.46084 0.56125 0.24755
 C1319 C 0.45592 0.57317 0.22853
 C1320 C 0.43754 0.58686 0.22787
 C1321 C 0.40512 0.60470 0.24607
 C1322 C 0.40725 0.62522 0.23571
 C1323 C 0.38998 0.64029 0.23592
 C1324 C 0.37017 0.63531 0.24662
 C1325 C 0.36790 0.61469 0.25677
 C1326 C 0.38519 0.59955 0.25650
 C1327 C 0.35222 0.65183 0.24757
 C1328 C 0.33012 0.64554 0.24538
 C1329 C 0.31337 0.66126 0.24617
 C1330 C 0.31837 0.68363 0.24914
 C1331 C 0.34048 0.68985 0.25143
 C1332 C 0.35716 0.67416 0.25071
 H1333 H 0.41873 0.57831 0.27992
 H1334 H 0.45082 0.55396 0.28076
 H1335 H 0.46642 0.57195 0.21423
 H1336 H 0.43406 0.59578 0.21290
 H1337 H 0.42246 0.62985 0.22777
 H1338 H 0.39217 0.65589 0.22767
 H1339 H 0.35291 0.61042 0.26531
 H1340 H 0.38293 0.58380 0.26443
 H1341 H 0.32580 0.62849 0.24273
 H1342 H 0.29652 0.65590 0.24433
 H1343 H 0.34496 0.70687 0.25395
 H1344 H 0.37396 0.67951 0.25290
 C1345 C 0.07289 0.90889 0.75723
 C1346 C 0.06989 0.92561 0.74159
 C1347 C 0.05229 0.94027 0.74336
 C1348 C 0.03732 0.93872 0.76091
 C1349 C 0.04029 0.92178 0.77638
 C1350 C 0.05795 0.90728 0.77472
 C1351 C 0.09120 0.89284 0.75511
 C1352 C 0.08796 0.87065 0.76059
 C1353 C 0.10511 0.85554 0.75892
 C1354 C 0.12594 0.86215 0.75152
 C1355 C 0.12918 0.88432 0.74589
 C1356 C 0.11201 0.89950 0.74769
 C1357 C 0.14416 0.84594 0.74994
 C1358 C 0.16572 0.85177 0.75578
 C1359 C 0.18260 0.83619 0.75520
 C1360 C 0.17826 0.81439 0.74894
 C1361 C 0.15678 0.80868 0.74274
 C1362 C 0.13998 0.82428 0.74314
 H1363 H 0.08076 0.92696 0.72761
 H1364 H 0.04991 0.95231 0.73047
 H1365 H 0.02915 0.92003 0.79013
 H1366 H 0.05996 0.89484 0.78725
 H1367 H 0.07207 0.86486 0.76604
 H1368 H 0.10210 0.83868 0.76371
 H1369 H 0.14495 0.88993 0.73992
 H1370 H 0.11513 0.91651 0.74353
 H1371 H 0.16947 0.86824 0.76136
 H1372 H 0.19894 0.84110 0.76019
 H1373 H 0.15290 0.79209 0.73761
 H1374 H 0.12368 0.81933 0.73808
 C1375 C 0.57672 0.41245 0.24247
 C1376 C 0.57091 0.42403 0.26161
 C1377 C 0.55276 0.43809 0.26168
 C1378 C 0.54017 0.44088 0.24262
 C1379 C 0.54602 0.42961 0.22345
 C1380 C 0.56420 0.41561 0.22332
 C1381 C 0.59523 0.39654 0.24268
 C1382 C 0.59341 0.37640 0.23154
 C1383 C 0.61049 0.36111 0.23216
 C1384 C 0.62978 0.36552 0.24400
 C1385 C 0.63172 0.38575 0.25497
 C1386 C 0.61463 0.40109 0.25432
 C1387 C 0.64762 0.34890 0.24514
 C1388 C 0.66978 0.35523 0.24411
 C1389 C 0.68648 0.33948 0.24508
 C1390 C 0.68139 0.31703 0.24708
 C1391 C 0.65921 0.31075 0.24819
 C1392 C 0.64255 0.32648 0.24727
 H1393 H 0.58000 0.42172 0.27670
 H1394 H 0.54824 0.44648 0.27670
 H1395 H 0.53639 0.43154 0.20863
 H1396 H 0.56841 0.40720 0.20824
 H1397 H 0.57860 0.37225 0.22265
 H1398 H 0.60859 0.34581 0.22329
 H1399 H 0.64629 0.38957 0.26440
 H1400 H 0.61662 0.41655 0.26289
 H1401 H 0.67422 0.37235 0.24222
 H1402 H 0.70338 0.34491 0.24413
 H1403 H 0.65465 0.29364 0.24990
 H1404 H 0.62567 0.32108 0.24851
 C1405 C 0.91183 0.92598 0.25857
 C1406 C 0.91114 0.94180 0.27535
 C1407 C 0.92532 0.95981 0.27506
 C1408 C 0.94103 0.96224 0.25828
 C1409 C 0.94171 0.94634 0.24149
 C1410 C 0.92736 0.92842 0.24168
 C1411 C 0.89588 0.90748 0.25829
 C1412 C 0.90215 0.88645 0.25103
 C1413 C 0.88691 0.86928 0.25033
 C1414 C 0.86506 0.87271 0.25694
 C1415 C 0.85890 0.89366 0.26444
 C1416 C 0.87406 0.91083 0.26501
 C1417 C 0.84861 0.85470 0.25576
 C1418 C 0.82689 0.85922 0.24944
 C1419 C 0.81121 0.84254 0.24876
 C1420 C 0.81687 0.82082 0.25419
 C1421 C 0.83867 0.81616 0.26018
 C1422 C 0.85435 0.83294 0.26104
 H1423 H 0.89963 0.94028 0.28880
 H1424 H 0.92426 0.97169 0.28826
 H1425 H 0.95273 0.94823 0.22767
 H1426 H 0.92795 0.91687 0.22818
 H1427 H 0.91888 0.88323 0.24597
 H1428 H 0.89217 0.85340 0.24426
 H1429 H 0.84231 0.89682 0.26998
 H1430 H 0.86855 0.92686 0.27039
 H1431 H 0.82200 0.87568 0.24478
 H1432 H 0.79464 0.84667 0.24378
 H1433 H 0.84355 0.79961 0.26452
 H1434 H 0.87088 0.82892 0.26621
 C1435 C 0.41275 0.42230 0.75189
 C1436 C 0.41580 0.43553 0.77058
 C1437 C 0.42944 0.45394 0.76973
 C1438 C 0.44044 0.45932 0.75029
 C1439 C 0.43784 0.44601 0.73171
 C1440 C 0.42412 0.42761 0.73249
 C1441 C 0.39708 0.40361 0.75242
 C1442 C 0.40177 0.38382 0.74148
 C1443 C 0.38661 0.36656 0.74151
 C1444 C 0.36642 0.36875 0.75246
 C1445 C 0.36188 0.38844 0.76364
 C1446 C 0.37699 0.40566 0.76357
 C1447 C 0.34988 0.35084 0.75191
 C1448 C 0.32749 0.35585 0.74950
 C1449 C 0.31179 0.33919 0.74918
 C1450 C 0.31805 0.31704 0.75118
 C1451 C 0.34047 0.31198 0.75343
 C1452 C 0.35622 0.32871 0.75379
 H1453 H 0.40756 0.43171 0.78585
 H1454 H 0.43130 0.46411 0.78420
 H1455 H 0.44611 0.45012 0.71652
 H1456 H 0.42189 0.41794 0.71775
 H1457 H 0.41720 0.38166 0.73292
 H1458 H 0.39051 0.35167 0.73261
 H1459 H 0.34661 0.39054 0.77248
 H1460 H 0.37272 0.42077 0.77193
 H1461 H 0.32210 0.37270 0.74759
 H1462 H 0.29471 0.34372 0.74723
 H1463 H 0.34588 0.29510 0.75503
 H1464 H 0.37332 0.32435 0.75588
 C1465 C 0.08747 0.24610 0.92252
 C1466 C 0.08860 0.23006 0.93906
 C1467 C 0.07456 0.23091 0.95710
 C1468 C 0.05851 0.24745 0.95886
 C1469 C 0.05702 0.26325 0.94204
 C1470 C 0.07133 0.26257 0.92409
 C1471 C 0.10373 0.24609 0.90430
 C1472 C 0.09770 0.25241 0.88293
 C1473 C 0.11324 0.25267 0.86602
 C1474 C 0.13514 0.24651 0.87007
 C1475 C 0.14106 0.24002 0.89139
 C1476 C 0.12563 0.23996 0.90829
 C1477 C 0.15186 0.24700 0.85228
 C1478 C 0.17356 0.25340 0.85686
 C1479 C 0.18947 0.25339 0.84039
 C1480 C 0.18404 0.24726 0.81885
 C1481 C 0.16230 0.24113 0.81413
 C1482 C 0.14641 0.24090 0.83069
 H1483 H 0.10046 0.21684 0.93817
 H1484 H 0.07613 0.21843 0.96969
 H1485 H 0.04552 0.27677 0.94331
 H1486 H 0.07030 0.27545 0.91189
 H1487 H 0.08095 0.25702 0.87922
 H1488 H 0.10816 0.25799 0.84985
 H1489 H 0.15766 0.23483 0.89506
 H1490 H 0.13099 0.23538 0.92459
 H1491 H 0.17825 0.25866 0.87317
 H1492 H 0.20601 0.25843 0.84452
 H1493 H 0.15764 0.23618 0.79770
 H1494 H 0.12995 0.23557 0.82664
 C1495 C 0.58623 0.74601 0.42444
 C1496 C 0.58327 0.72707 0.43735
 C1497 C 0.56963 0.72754 0.45576
 C1498 C 0.55850 0.74685 0.46147
 C1499 C 0.56094 0.76566 0.44844
 C1500 C 0.57468 0.76525 0.43005
 C1501 C 0.60204 0.74592 0.40585
 C1502 C 0.59748 0.75735 0.38631
 C1503 C 0.61281 0.75783 0.36922
 C1504 C 0.63305 0.74690 0.37130
 C1505 C 0.63743 0.73520 0.39070
 C1506 C 0.62216 0.73477 0.40776
 C1507 C 0.64981 0.74805 0.35360
 C1508 C 0.67214 0.75030 0.35892
 C1509 C 0.68804 0.75115 0.34246
 C1510 C 0.68204 0.74989 0.32021
 C1511 C 0.65968 0.74780 0.31484
 C1512 C 0.64374 0.74690 0.33137
 H1513 H 0.59163 0.71189 0.43330
 H1514 H 0.56791 0.71290 0.46571
 H1515 H 0.55259 0.78075 0.45281
 H1516 H 0.57682 0.78019 0.42065
 H1517 H 0.58204 0.76592 0.38423
 H1518 H 0.60901 0.76713 0.35456
 H1519 H 0.65272 0.72635 0.39271
 H1520 H 0.62634 0.72604 0.42267
 H1521 H 0.67734 0.75164 0.37585
 H1522 H 0.70507 0.75288 0.34725
 H1523 H 0.65448 0.74669 0.29789
 H1524 H 0.62669 0.74493 0.32674
 C1525 C 0.92317 0.74517 0.91430
 C1526 C 0.92626 0.76163 0.93019
 C1527 C 0.94417 0.76081 0.94454
 C1528 C 0.95941 0.74341 0.94347
 C1529 C 0.95622 0.72699 0.92749
 C1530 C 0.93824 0.72772 0.91332
 C1531 C 0.90481 0.74656 0.89825
 C1532 C 0.90804 0.74017 0.87632
 C1533 C 0.89096 0.74147 0.86112
 C1534 C 0.87020 0.74940 0.86736
 C1535 C 0.86692 0.75582 0.88929
 C1536 C 0.88402 0.75440 0.90456
 C1537 C 0.85215 0.75084 0.85097
 C1538 C 0.83042 0.74561 0.85674
 C1539 C 0.81370 0.74611 0.84099
 C1540 C 0.81838 0.75169 0.81910
 C1541 C 0.84003 0.75731 0.81345
 C1542 C 0.85666 0.75699 0.82919
 H1543 H 0.91527 0.77559 0.93104
 H1544 H 0.94664 0.77436 0.95579
 H1545 H 0.96754 0.71331 0.92617
 H1546 H 0.93617 0.71455 0.90156
 H1547 H 0.92391 0.73438 0.87077
 H1548 H 0.89400 0.73606 0.84447
 H1549 H 0.85120 0.76220 0.89460
 H1550 H 0.88091 0.75926 0.92137
 H1551 H 0.82641 0.74058 0.87329
 H1552 H 0.79720 0.74165 0.84586
 H1553 H 0.84416 0.76199 0.79680
 H1554 H 0.87310 0.76162 0.82428
 C1555 C 0.42333 0.25036 0.41076
 C1556 C 0.42841 0.26920 0.42316
 C1557 C 0.44658 0.26933 0.43721
 C1558 C 0.45989 0.25063 0.43911
 C1559 C 0.45469 0.23172 0.42710
 C1560 C 0.43652 0.23152 0.41314
 C1561 C 0.40496 0.25058 0.39472
 C1562 C 0.40739 0.24037 0.37418
 C1563 C 0.39040 0.24083 0.35883
 C1564 C 0.37056 0.25161 0.36356
 C1565 C 0.36802 0.26172 0.38415
 C1566 C 0.38505 0.26124 0.39956
 C1567 C 0.35274 0.25235 0.34693
 C1568 C 0.33065 0.24972 0.35306
 C1569 C 0.31404 0.24970 0.33719
 C1570 C 0.31919 0.25225 0.31483
 C1571 C 0.34126 0.25525 0.30879
 C1572 C 0.35780 0.25534 0.32463
 H1573 H 0.41876 0.28405 0.42149
 H1574 H 0.45056 0.28414 0.44622
 H1575 H 0.46487 0.21717 0.42839
 H1576 H 0.43286 0.21665 0.40411
 H1577 H 0.42261 0.23229 0.36979
 H1578 H 0.39278 0.23262 0.34325
 H1579 H 0.35299 0.27031 0.38823
 H1580 H 0.38259 0.26909 0.41532
 H1581 H 0.32624 0.24719 0.37009
 H1582 H 0.29722 0.24735 0.34242
 H1583 H 0.34582 0.25753 0.29176
 H1584 H 0.37459 0.25786 0.31940
 C1585 C 0.07752 0.75795 0.08856
 C1586 C 0.07061 0.73905 0.07724
 C1587 C 0.05214 0.73973 0.06368
 C1588 C 0.04028 0.75932 0.06113
 C1589 C 0.04720 0.77828 0.07222
 C1590 C 0.06578 0.77765 0.08571
 C1591 C 0.09632 0.75682 0.10401
 C1592 C 0.11215 0.77361 0.10468
 C1593 C 0.12949 0.77267 0.11972
 C1594 C 0.13117 0.75507 0.13455
 C1595 C 0.11545 0.73821 0.13373
 C1596 C 0.09826 0.73905 0.11859
 C1597 C 0.14885 0.75448 0.15128
 C1598 C 0.14391 0.74884 0.17306
 C1599 C 0.16038 0.74820 0.18896
 C1600 C 0.18227 0.75302 0.18344
 C1601 C 0.18725 0.75866 0.16161
 C1602 C 0.17066 0.75950 0.14571
 H1603 H 0.07943 0.72370 0.07899
 H1604 H 0.04686 0.72489 0.05541
 H1605 H 0.03806 0.79346 0.07061
 H1606 H 0.07057 0.79238 0.09445
 H1607 H 0.11113 0.78742 0.09352
 H1608 H 0.14131 0.78595 0.12011
 H1609 H 0.11646 0.72435 0.14482
 H1610 H 0.08620 0.72599 0.11861
 H1611 H 0.12720 0.74518 0.17788
 H1612 H 0.15594 0.74382 0.20560
 H1613 H 0.20391 0.76257 0.15684
 H1614 H 0.17493 0.76378 0.12900
 C1615 C 0.57677 0.24964 0.58705
 C1616 C 0.56351 0.23087 0.58462
 C1617 C 0.54524 0.23124 0.57080
 C1618 C 0.54001 0.25026 0.55898
 C1619 C 0.55337 0.26890 0.56095
 C1620 C 0.57164 0.26859 0.57485
 C1621 C 0.59530 0.24965 0.60291
 C1622 C 0.61519 0.26028 0.59796
 C1623 C 0.63236 0.26061 0.61322
 C1624 C 0.62998 0.25036 0.63376
 C1625 C 0.61017 0.23958 0.63858
 C1626 C 0.59304 0.23928 0.62338
 C1627 C 0.64792 0.25102 0.65028
 C1628 C 0.64299 0.25393 0.67261
 C1629 C 0.65963 0.25384 0.68835
 C1630 C 0.68167 0.25091 0.68215
 C1631 C 0.68668 0.24841 0.65976
 C1632 C 0.66997 0.24844 0.64399
 H1633 H 0.56721 0.21591 0.59350
 H1634 H 0.53503 0.21673 0.56945
 H1635 H 0.54936 0.28379 0.55206
 H1636 H 0.58133 0.28340 0.57657
 H1637 H 0.61751 0.26825 0.58225
 H1638 H 0.64736 0.26920 0.60908
 H1639 H 0.60792 0.23126 0.65412
 H1640 H 0.57786 0.23120 0.62785
 H1641 H 0.62622 0.25642 0.67795
 H1642 H 0.65516 0.25608 0.70540
 H1643 H 0.70348 0.24612 0.65442
 H1644 H 0.67428 0.24597 0.62693
 C1645 C 0.91343 0.26232 0.07729
 C1646 C 0.91430 0.28086 0.06351
 C1647 C 0.92798 0.28106 0.04509
 C1648 C 0.94120 0.26284 0.04025
 C1649 C 0.94074 0.24450 0.05418
 C1650 C 0.92702 0.24424 0.07254
 C1651 C 0.89763 0.26136 0.09587
 C1652 C 0.90336 0.25116 0.11578
 C1653 C 0.88805 0.24934 0.13279
 C1654 C 0.86668 0.25768 0.13028
 C1655 C 0.86110 0.26822 0.11052
 C1656 C 0.87636 0.26998 0.09352
 C1657 C 0.85009 0.25520 0.14800
 C1658 C 0.82813 0.25044 0.14279
 C1659 C 0.81232 0.24875 0.15928
 C1660 C 0.81807 0.25167 0.18143
 C1661 C 0.84012 0.25597 0.18672
 C1662 C 0.85595 0.25776 0.17018
 H1663 H 0.90428 0.29516 0.06687
 H1664 H 0.92805 0.29530 0.03444
 H1665 H 0.95058 0.23014 0.05045
 H1666 H 0.92648 0.22957 0.08257
 H1667 H 0.91968 0.24456 0.11821
 H1668 H 0.89283 0.24100 0.14774
 H1669 H 0.84489 0.27513 0.10817
 H1670 H 0.87130 0.27768 0.07832
 H1671 H 0.82315 0.24791 0.12593
 H1672 H 0.79554 0.24520 0.15460
 H1673 H 0.84511 0.25838 0.20361
 H1674 H 0.87269 0.26163 0.17473
 C1675 C 0.41178 0.74394 0.58004
 C1676 C 0.41498 0.72520 0.56690
 C1677 C 0.42879 0.72600 0.54863
 C1678 C 0.43985 0.74545 0.54329
 C1679 C 0.43719 0.76405 0.55659
 C1680 C 0.42328 0.76331 0.57484
 C1681 C 0.39575 0.74353 0.59844
 C1682 C 0.40002 0.75469 0.61819
 C1683 C 0.38448 0.75486 0.63511
 C1684 C 0.36433 0.74388 0.63263
 C1685 C 0.36023 0.73247 0.61301
 C1686 C 0.37571 0.73234 0.59612
 C1687 C 0.34739 0.74466 0.65018
 C1688 C 0.32509 0.74687 0.64469
 C1689 C 0.30904 0.74739 0.66101
 C1690 C 0.31485 0.74581 0.68329
 C1691 C 0.33718 0.74375 0.68883
 C1692 C 0.35327 0.74318 0.67244
 H1693 H 0.40667 0.70994 0.57064
 H1694 H 0.43067 0.71152 0.53846
 H1695 H 0.44547 0.77926 0.55250
 H1696 H 0.42096 0.77810 0.58443
 H1697 H 0.41539 0.76329 0.62059
 H1698 H 0.38807 0.76395 0.64995
 H1699 H 0.34501 0.72359 0.61068
 H1700 H 0.37174 0.72382 0.58103
 H1701 H 0.32004 0.74845 0.62773
 H1702 H 0.29203 0.74912 0.65612
 H1703 H 0.34223 0.74239 0.70581
 H1704 H 0.37028 0.74122 0.67719
 C1705 C 0.26715 0.08552 0.92247
 C1706 C 0.25259 0.06777 0.92491
 C1707 C 0.25436 0.05353 0.94286
 C1708 C 0.27073 0.05669 0.95890
 C1709 C 0.28547 0.07430 0.95617
 C1710 C 0.28387 0.08831 0.93811
 C1711 C 0.26440 0.10162 0.90427
 C1712 C 0.26843 0.12408 0.90786
 C1713 C 0.26574 0.13934 0.89096
 C1714 C 0.25868 0.13263 0.87005
 C1715 C 0.25455 0.11017 0.86643
 C1716 C 0.25744 0.09485 0.88332
 C1717 C 0.25585 0.14904 0.85213
 C1718 C 0.26146 0.14384 0.83035
 C1719 C 0.25961 0.15959 0.81373
 C1720 C 0.25234 0.18097 0.81855
 C1721 C 0.24639 0.18608 0.84023
 C1722 C 0.24799 0.17028 0.85678
 H1723 H 0.23923 0.06536 0.91345
 H1724 H 0.24210 0.04080 0.94480
 H1725 H 0.29847 0.07715 0.96797
 H1726 H 0.29572 0.10146 0.93650
 H1727 H 0.27342 0.13000 0.92385
 H1728 H 0.26943 0.15641 0.89429
 H1729 H 0.24887 0.10443 0.85061
 H1730 H 0.25438 0.07767 0.87990
 H1731 H 0.26784 0.12776 0.82620
 H1732 H 0.26443 0.15517 0.79720
 H1733 H 0.24045 0.20232 0.84444
 H1734 H 0.24302 0.17473 0.87325
 C1735 C 0.75787 0.58846 0.42399
 C1736 C 0.73978 0.57506 0.42917
 C1737 C 0.74056 0.56091 0.44724
 C1738 C 0.75943 0.55988 0.46037
 C1739 C 0.77763 0.57291 0.45506
 C1740 C 0.77691 0.58698 0.43697
 C1741 C 0.75659 0.60459 0.40572
 C1742 C 0.76575 0.62564 0.40814
 C1743 C 0.76422 0.64107 0.39127
 C1744 C 0.75340 0.63590 0.37157
 C1745 C 0.74433 0.61481 0.36905
 C1746 C 0.74590 0.59933 0.38595
 C1747 C 0.75156 0.65257 0.35383
 C1748 C 0.75407 0.64660 0.33169
 C1749 C 0.75306 0.66251 0.31514
 C1750 C 0.74959 0.68474 0.32039
 C1751 C 0.74671 0.69061 0.34252
 C1752 C 0.74763 0.67472 0.35901
 H1753 H 0.72477 0.57603 0.41971
 H1754 H 0.72627 0.55116 0.45132
 H1755 H 0.79230 0.57234 0.46510
 H1756 H 0.79124 0.59681 0.43323
 H1757 H 0.77383 0.63036 0.42325
 H1758 H 0.77166 0.65705 0.39362
 H1759 H 0.73573 0.61038 0.35415
 H1760 H 0.73884 0.58319 0.38350
 H1761 H 0.75732 0.62970 0.32717
 H1762 H 0.75538 0.65741 0.29827
 H1763 H 0.74376 0.70753 0.34717
 H1764 H 0.74518 0.67980 0.37587
 C1765 C 0.73780 0.07723 0.08829
 C1766 C 0.72064 0.06217 0.09158
 C1767 C 0.71826 0.04395 0.07788
 C1768 C 0.73266 0.04049 0.06012
 C1769 C 0.74969 0.05579 0.05669
 C1770 C 0.75218 0.07393 0.07056
 C1771 C 0.74108 0.09582 0.10381
 C1772 C 0.74801 0.11655 0.09634
 C1773 C 0.75112 0.13389 0.11110
 C1774 C 0.74733 0.13090 0.13367
 C1775 C 0.74039 0.11017 0.14109
 C1776 C 0.73742 0.09285 0.12639
 C1777 C 0.75026 0.14927 0.14952
 C1778 C 0.75862 0.14520 0.17064
 C1779 C 0.75981 0.16201 0.18616
 C1780 C 0.75289 0.18340 0.18091
 C1781 C 0.74535 0.18774 0.15954
 C1782 C 0.74395 0.17083 0.14403
 H1783 H 0.70900 0.06443 0.10481
 H1784 H 0.70486 0.03268 0.08099
 H1785 H 0.76175 0.05319 0.04389
 H1786 H 0.76587 0.08493 0.06786
 H1787 H 0.75081 0.11945 0.07903
 H1788 H 0.75667 0.14958 0.10486
 H1789 H 0.73696 0.10735 0.15829
 H1790 H 0.73243 0.07703 0.13280
 H1791 H 0.76415 0.12893 0.17525
 H1792 H 0.76601 0.15819 0.20238
 H1793 H 0.73984 0.20404 0.15501
 H1794 H 0.73725 0.17450 0.12800
 C1795 C 0.24132 0.57471 0.58761
 C1796 C 0.25951 0.56966 0.57429
 C1797 C 0.25904 0.55144 0.56030
 C1798 C 0.24036 0.53802 0.55934
 C1799 C 0.22208 0.54315 0.57232
 C1800 C 0.22250 0.56139 0.58623
 C1801 C 0.24226 0.59320 0.60352
 C1802 C 0.23307 0.59089 0.62455
 C1803 C 0.23430 0.60797 0.63979
 C1804 C 0.24487 0.62778 0.63446
 C1805 C 0.25394 0.63021 0.61338
 C1806 C 0.25266 0.61310 0.59808
 C1807 C 0.24650 0.64568 0.65098
 C1808 C 0.24374 0.66780 0.64490
 C1809 C 0.24452 0.68447 0.66071
 C1810 C 0.24801 0.67937 0.68296
 C1811 C 0.25118 0.65728 0.68892
 C1812 C 0.25048 0.64068 0.67314
 H1813 H 0.27436 0.57938 0.57518
 H1814 H 0.27339 0.54751 0.55058
 H1815 H 0.20756 0.53290 0.57179
 H1816 H 0.20810 0.56500 0.59599
 H1817 H 0.22521 0.57570 0.62940
 H1818 H 0.22686 0.60567 0.65576
 H1819 H 0.26233 0.64520 0.60882
 H1820 H 0.25973 0.61548 0.58196
 H1821 H 0.24046 0.67219 0.62800
 H1822 H 0.24200 0.70131 0.65555
 H1823 H 0.25417 0.65274 0.70585
 H1824 H 0.25314 0.62387 0.67831
 C1825 C 0.73917 0.92158 0.91441
 C1826 C 0.75663 0.92651 0.92871
 C1827 C 0.75563 0.94492 0.94241
 C1828 C 0.73716 0.95866 0.94207
 C1829 C 0.71954 0.95358 0.92820
 C1830 C 0.72046 0.93515 0.91459
 C1831 C 0.74081 0.90303 0.89863
 C1832 C 0.73284 0.90541 0.87712
 C1833 C 0.73477 0.88831 0.86200
 C1834 C 0.74484 0.86840 0.86792
 C1835 C 0.75268 0.86589 0.88948
 C1836 C 0.75070 0.88304 0.90467
 C1837 C 0.74723 0.85050 0.85150
 C1838 C 0.74389 0.82841 0.85737
 C1839 C 0.74524 0.81178 0.84156
 C1840 C 0.74988 0.81691 0.81954
 C1841 C 0.75369 0.83896 0.81383
 C1842 C 0.75244 0.85551 0.82961
 H1843 H 0.77138 0.91657 0.92877
 H1844 H 0.76947 0.94878 0.95289
 H1845 H 0.70517 0.96407 0.92775
 H1846 H 0.70658 0.93162 0.90407
 H1847 H 0.72542 0.92068 0.87180
 H1848 H 0.72825 0.89067 0.84563
 H1849 H 0.76066 0.85082 0.89451
 H1850 H 0.75683 0.88061 0.92118
 H1851 H 0.73968 0.82403 0.87406
 H1852 H 0.74221 0.79496 0.84650
 H1853 H 0.75761 0.84349 0.79709
 H1854 H 0.75561 0.87230 0.82464
 C1855 C 0.24336 0.42150 0.41065
 C1856 C 0.22436 0.43460 0.41186
 C1857 C 0.22352 0.45269 0.42594
 C1858 C 0.24154 0.45789 0.43926
 C1859 C 0.26037 0.44464 0.43850
 C1860 C 0.26127 0.42657 0.42434
 C1861 C 0.24477 0.40320 0.39455
 C1862 C 0.25525 0.38333 0.39996
 C1863 C 0.25689 0.36638 0.38453
 C1864 C 0.24811 0.36893 0.36334
 C1865 C 0.23751 0.38874 0.35802
 C1866 C 0.23591 0.40566 0.37339
 C1867 C 0.24997 0.35112 0.34675
 C1868 C 0.25415 0.35620 0.32464
 C1869 C 0.25505 0.33965 0.30881
 C1870 C 0.25188 0.31753 0.31469
 C1871 C 0.24817 0.31237 0.33688
 C1872 C 0.24719 0.32898 0.35272
 H1873 H 0.21017 0.43095 0.40181
 H1874 H 0.20889 0.46281 0.42630
 H1875 H 0.27453 0.44864 0.44848
 H1876 H 0.27624 0.41701 0.42360
 H1877 H 0.26208 0.38084 0.41618
 H1878 H 0.26531 0.35139 0.38909
 H1879 H 0.23029 0.39114 0.34196
 H1880 H 0.22800 0.42085 0.36857
 H1881 H 0.25681 0.37304 0.31956
 H1882 H 0.25817 0.34423 0.29193
 H1883 H 0.24563 0.29552 0.34198
 H1884 H 0.24374 0.32453 0.36957
 C1885 C 0.25267 0.91317 0.07865
 C1886 C 0.27322 0.92190 0.07272
 C1887 C 0.27534 0.93504 0.05401
 C1888 C 0.25696 0.93970 0.04099
 C1889 C 0.23639 0.93138 0.04699
 C1890 C 0.23423 0.91831 0.06571
 C1891 C 0.25065 0.89794 0.09760
 C1892 C 0.23717 0.87926 0.09613
 C1893 C 0.23603 0.86427 0.11342
 C1894 C 0.24841 0.86752 0.13261
 C1895 C 0.26153 0.88643 0.13433
 C1896 C 0.26266 0.90147 0.11700
 C1897 C 0.24822 0.85076 0.15035
 C1898 C 0.24807 0.85695 0.17258
 C1899 C 0.24815 0.84099 0.18913
 C1900 C 0.24847 0.81851 0.18378
 C1901 C 0.24856 0.81240 0.16152
 C1902 C 0.24847 0.82831 0.14504
 H1903 H 0.28778 0.91801 0.08213
 H1904 H 0.29136 0.94123 0.04943
 H1905 H 0.22207 0.93485 0.03704
 H1906 H 0.21813 0.91211 0.06999
 H1907 H 0.22789 0.87590 0.08134
 H1908 H 0.22553 0.85002 0.11171
 H1909 H 0.27138 0.88931 0.14884
 H1910 H 0.27300 0.91582 0.11874
 H1911 H 0.24766 0.87413 0.17717
 H1912 H 0.24800 0.84629 0.20610
 H1913 H 0.24883 0.79527 0.15673
 H1914 H 0.24896 0.82299 0.12809
 C1915 C 0.75756 0.41162 0.57725
 C1916 C 0.73956 0.42521 0.57219
 C1917 C 0.74024 0.43918 0.55398
 C1918 C 0.75894 0.43984 0.54058
 C1919 C 0.77704 0.42660 0.54574
 C1920 C 0.77642 0.41271 0.56396
 C1921 C 0.75637 0.39570 0.59572
 C1922 C 0.76525 0.37451 0.59339
 C1923 C 0.76376 0.35927 0.61042
 C1924 C 0.75325 0.36476 0.63021
 C1925 C 0.74452 0.38600 0.63266
 C1926 C 0.74604 0.40131 0.61559
 C1927 C 0.75135 0.34822 0.64806
 C1928 C 0.75423 0.35423 0.67016
 C1929 C 0.75322 0.33839 0.68678
 C1930 C 0.74938 0.31619 0.68164
 C1931 C 0.74608 0.31031 0.65957
 C1932 C 0.74700 0.32612 0.64302
 H1933 H 0.72469 0.42454 0.58189
 H1934 H 0.72603 0.44911 0.55003
 H1935 H 0.79157 0.42690 0.53550
 H1936 H 0.79068 0.40273 0.56759
 H1937 H 0.77304 0.36954 0.57821
 H1938 H 0.77095 0.34316 0.60812
 H1939 H 0.73618 0.39069 0.64764
 H1940 H 0.73922 0.41756 0.61797
 H1941 H 0.75778 0.37109 0.67457
 H1942 H 0.75586 0.34348 0.70360
 H1943 H 0.74282 0.29343 0.65500
 H1944 H 0.74423 0.32103 0.62622
 C1945 C 0.07790 0.08632 0.75249
 C1946 C 0.07556 0.06994 0.76860
 C1947 C 0.05723 0.05608 0.76860
 C1948 C 0.04084 0.05822 0.75243
 C1949 C 0.04336 0.07456 0.73629
 C1950 C 0.06174 0.08819 0.73615
 C1951 C 0.09657 0.10206 0.75314
 C1952 C 0.09320 0.12423 0.74761
 C1953 C 0.11053 0.13916 0.74807
 C1954 C 0.13170 0.13244 0.75433
 C1955 C 0.13513 0.11029 0.75993
 C1956 C 0.11775 0.09525 0.75933
 C1957 C 0.14996 0.14865 0.75496
 C1958 C 0.17124 0.14289 0.74807
 C1959 C 0.18803 0.15859 0.74769
 C1960 C 0.18380 0.18039 0.75400
 C1961 C 0.16266 0.18600 0.76131
 C1962 C 0.14601 0.17031 0.76191
 H1963 H 0.08747 0.06836 0.78169
 H1964 H 0.05539 0.04436 0.78186
 H1965 H 0.03116 0.07663 0.72351
 H1966 H 0.06323 0.10030 0.72322
 H1967 H 0.07705 0.13016 0.74314
 H1968 H 0.10734 0.15600 0.74331
 H1969 H 0.15118 0.10461 0.76502
 H1970 H 0.12094 0.07826 0.76350
 H1971 H 0.17480 0.12640 0.74242
 H1972 H 0.20416 0.15378 0.74197
 H1973 H 0.15896 0.20257 0.76666
 H1974 H 0.12999 0.17519 0.76785
 C1975 C 0.57828 0.58808 0.25435
 C1976 C 0.56460 0.58514 0.27273
 C1977 C 0.54625 0.57145 0.27153
 C1978 C 0.54136 0.56024 0.25205
 C1979 C 0.55516 0.56270 0.23381
 C1980 C 0.57349 0.57648 0.23495
 C1981 C 0.59684 0.60393 0.25514
 C1982 C 0.61679 0.59939 0.24445
 C1983 C 0.63383 0.61480 0.24450
 C1984 C 0.63129 0.63510 0.25523
 C1985 C 0.61149 0.63944 0.26623
 C1986 C 0.59447 0.62410 0.26613
 C1987 C 0.64895 0.65194 0.25457
 C1988 C 0.64362 0.67426 0.25206
 C1989 C 0.66004 0.69023 0.25160
 C1990 C 0.68227 0.68431 0.25353
 C1991 C 0.68766 0.66195 0.25589
 C1992 C 0.67117 0.64595 0.25641
 H1993 H 0.56801 0.59354 0.28801
 H1994 H 0.53569 0.56975 0.28573
 H1995 H 0.55142 0.55435 0.21856
 H1996 H 0.58347 0.57862 0.22041
 H1997 H 0.61924 0.58392 0.23602
 H1998 H 0.64882 0.61101 0.23573
 H1999 H 0.60911 0.65477 0.27492
 H2000 H 0.57924 0.62826 0.27430
 H2001 H 0.62671 0.67941 0.25018
 H2002 H 0.65525 0.70726 0.24963
 H2003 H 0.70460 0.65681 0.25752
 H2004 H 0.67580 0.62891 0.25860
 C2005 C 0.08842 0.92460 0.24138
 C2006 C 0.08914 0.93961 0.22388
 C2007 C 0.07511 0.95773 0.22342
 C2008 C 0.05952 0.96109 0.24015
 C2009 C 0.05878 0.94597 0.25765
 C2010 C 0.07299 0.92793 0.25821
 C2011 C 0.10429 0.90605 0.24246
 C2012 C 0.09794 0.88538 0.25060
 C2013 C 0.11311 0.86817 0.25200
 C2014 C 0.13497 0.87123 0.24526
 C2015 C 0.14122 0.89182 0.23690
 C2016 C 0.12612 0.90902 0.23562
 C2017 C 0.15134 0.85320 0.24712
 C2018 C 0.17308 0.85786 0.25328
 C2019 C 0.18874 0.84117 0.25440
 C2020 C 0.18304 0.81932 0.24957
 C2021 C 0.16122 0.81453 0.24379
 C2022 C 0.14554 0.83131 0.24252
 H2023 H 0.10058 0.93736 0.21047
 H2024 H 0.07619 0.96898 0.20968
 H2025 H 0.04786 0.94861 0.27143
 H2026 H 0.07239 0.91701 0.27222
 H2027 H 0.08119 0.88247 0.25579
 H2028 H 0.10780 0.85259 0.25870
 H2029 H 0.15782 0.89466 0.23123
 H2030 H 0.13169 0.92478 0.22957
 H2031 H 0.17800 0.87444 0.25740
 H2032 H 0.20534 0.84542 0.25911
 H2033 H 0.15632 0.79789 0.23985
 H2034 H 0.12901 0.82719 0.23747
 C2035 C 0.58786 0.42224 0.74645
 C2036 C 0.58522 0.43560 0.72779
 C2037 C 0.57145 0.45394 0.72841
 C2038 C 0.55989 0.45913 0.74758
 C2039 C 0.56206 0.44567 0.76612
 C2040 C 0.57592 0.42734 0.76556
 C2041 C 0.60367 0.40363 0.74621
 C2042 C 0.59882 0.38375 0.75691
 C2043 C 0.61409 0.36657 0.75715
 C2044 C 0.63453 0.36890 0.74671
 C2045 C 0.63923 0.38868 0.73579
 C2046 C 0.62402 0.40584 0.73558
 C2047 C 0.65112 0.35101 0.74749
 C2048 C 0.67346 0.35602 0.75033
 C2049 C 0.68920 0.33936 0.75079
 C2050 C 0.68302 0.31723 0.74853
 C2051 C 0.66064 0.31217 0.74586
 C2052 C 0.64487 0.32888 0.74534
 H2053 H 0.59390 0.43194 0.71272
 H2054 H 0.56995 0.46423 0.71398
 H2055 H 0.55339 0.44964 0.78112
 H2056 H 0.57780 0.41758 0.78029
 H2057 H 0.58320 0.38146 0.76507
 H2058 H 0.61004 0.35161 0.76586
 H2059 H 0.65470 0.39090 0.72733
 H2060 H 0.62841 0.42101 0.72742
 H2061 H 0.67878 0.37286 0.75243
 H2062 H 0.70624 0.34389 0.75301
 H2063 H 0.65531 0.29530 0.74396
 H2064 H 0.62783 0.32451 0.74289
 C2065 C 0.91393 0.07883 0.25370
 C2066 C 0.91699 0.06765 0.27367
 C2067 C 0.93069 0.04924 0.27474
 C2068 C 0.94177 0.04191 0.25595
 C2069 C 0.93901 0.05321 0.23608
 C2070 C 0.92523 0.07151 0.23496
 C2071 C 0.89834 0.09748 0.25218
 C2072 C 0.88362 0.09889 0.23448
 C2073 C 0.86834 0.11596 0.23335
 C2074 C 0.86753 0.13208 0.24983
 C2075 C 0.88249 0.13091 0.26735
 C2076 C 0.89767 0.11371 0.26858
 C2077 C 0.85070 0.14967 0.24902
 C2078 C 0.85621 0.17156 0.25382
 C2079 C 0.84017 0.18801 0.25328
 C2080 C 0.81826 0.18285 0.24816
 C2081 C 0.81283 0.16093 0.24329
 C2082 C 0.82888 0.14456 0.24364
 H2083 H 0.90827 0.07276 0.28829
 H2084 H 0.93246 0.04052 0.29014
 H2085 H 0.94726 0.04759 0.22136
 H2086 H 0.92332 0.07991 0.21941
 H2087 H 0.88361 0.08650 0.22172
 H2088 H 0.85714 0.11657 0.21956
 H2089 H 0.88210 0.14302 0.28036
 H2090 H 0.90894 0.11310 0.28232
 H2091 H 0.87295 0.17597 0.25783
 H2092 H 0.84489 0.20473 0.25713
 H2093 H 0.79614 0.15638 0.23920
 H2094 H 0.82413 0.12778 0.24009
 C2095 C 0.41190 0.57644 0.74688
 C2096 C 0.42382 0.57130 0.76600
 C2097 C 0.43794 0.55317 0.76642
 C2098 C 0.44040 0.53996 0.74774
 C2099 C 0.42891 0.54524 0.72854
 C2100 C 0.41488 0.56338 0.72806
 C2101 C 0.39570 0.59473 0.74681
 C2102 C 0.37547 0.59227 0.73599
 C2103 C 0.35991 0.60911 0.73633
 C2104 C 0.36411 0.62881 0.74760
 C2105 C 0.38442 0.63139 0.75826
 C2106 C 0.40004 0.61453 0.75787
 C2107 C 0.34718 0.64638 0.74846
 C2108 C 0.35305 0.66865 0.74675
 C2109 C 0.33699 0.68508 0.74734
 C2110 C 0.31467 0.67959 0.74964
 C2111 C 0.30885 0.65731 0.75146
 C2112 C 0.32490 0.64094 0.75092
 H2113 H 0.42168 0.58083 0.78085
 H2114 H 0.44655 0.54911 0.78144
 H2115 H 0.43062 0.53513 0.71401
 H2116 H 0.40624 0.56709 0.71298
 H2117 H 0.37146 0.57714 0.72756
 H2118 H 0.34456 0.60670 0.72770
 H2119 H 0.38810 0.64629 0.76724
 H2120 H 0.41555 0.61702 0.76619
 H2121 H 0.37005 0.67337 0.74458
 H2122 H 0.34205 0.70206 0.74578
 H2123 H 0.29186 0.65246 0.75337
 H2124 H 0.31985 0.62398 0.75268
 C2125 C 0.92050 0.91445 0.76259
 C2126 C 0.93334 0.91530 0.78175
 C2127 C 0.95196 0.92870 0.78266
 C2128 C 0.95780 0.94170 0.76458
 C2129 C 0.94471 0.94128 0.74565
 C2130 C 0.92623 0.92776 0.74465
 C2131 C 0.90190 0.89887 0.76087
 C2132 C 0.89950 0.88576 0.74205
 C2133 C 0.88262 0.87033 0.74067
 C2134 C 0.86765 0.86780 0.75800
 C2135 C 0.86976 0.88119 0.77668
 C2136 C 0.88683 0.89648 0.77816
 C2137 C 0.85030 0.85081 0.75677
 C2138 C 0.82856 0.85569 0.76269
 C2139 C 0.81226 0.83957 0.76136
 C2140 C 0.81748 0.81817 0.75436
 C2141 C 0.83928 0.81331 0.74860
 C2142 C 0.85548 0.82948 0.74968
 H2143 H 0.92943 0.90501 0.79570
 H2144 H 0.96204 0.92867 0.79731
 H2145 H 0.94914 0.95103 0.73146
 H2146 H 0.91652 0.92753 0.72976
 H2147 H 0.91102 0.88711 0.72857
 H2148 H 0.88126 0.86033 0.72603
 H2149 H 0.85850 0.87945 0.79032
 H2150 H 0.88825 0.90647 0.79280
 H2151 H 0.82414 0.87206 0.76811
 H2152 H 0.79563 0.84379 0.76604
 H2153 H 0.84385 0.79700 0.74314
 H2154 H 0.87217 0.82523 0.74525
 C2155 C 0.42263 0.41382 0.24153
 C2156 C 0.42756 0.42686 0.25996
 C2157 C 0.44587 0.44070 0.25989
 C2158 C 0.45952 0.44181 0.24139
 C2159 C 0.45448 0.42914 0.22286
 C2160 C 0.43615 0.41537 0.22287
 C2161 C 0.40411 0.39793 0.24214
 C2162 C 0.40647 0.37697 0.23276
 C2163 C 0.38945 0.36167 0.23390
 C2164 C 0.36966 0.36688 0.24454
 C2165 C 0.36716 0.38793 0.25372
 C2166 C 0.38421 0.40328 0.25254
 C2167 C 0.35188 0.35024 0.24621
 C2168 C 0.32974 0.35622 0.24360
 C2169 C 0.31317 0.34032 0.24450
 C2170 C 0.31842 0.31808 0.24796
 C2171 C 0.34054 0.31221 0.25097
 C2172 C 0.35704 0.32809 0.25016
 H2173 H 0.41771 0.42581 0.27470
 H2174 H 0.44973 0.45015 0.27445
 H2175 H 0.46492 0.42976 0.20848
 H2176 H 0.43263 0.40581 0.20830
 H2177 H 0.42167 0.37219 0.22488
 H2178 H 0.39179 0.34573 0.22637
 H2179 H 0.35218 0.39240 0.26217
 H2180 H 0.38179 0.41937 0.25974
 H2181 H 0.32524 0.37313 0.24037
 H2182 H 0.29631 0.34541 0.24210
 H2183 H 0.34519 0.29529 0.25394
 H2184 H 0.37388 0.32300 0.25271
   
