data_POSCAR
  _audit_creation_date              2014-09-24
  _audit_creation_method            'ToBaCCo'
  _symmetry_space_group_name_H-M    'P1'
  _symmetry_Int_Tables_number       1
  _symmetry_cell_setting            triclinic
  loop_
  _symmetry_equiv_pos_as_xyz
 x,y,z
_cell_length_a 87.1023
_cell_length_b 86.8712
_cell_length_c 84.6815
_cell_angle_alpha 91.221400
_cell_angle_beta 90.994600
_cell_angle_gamma 89.759500
loop_
  _atom_site_label
  _atom_site_type_symbol
  _atom_site_fract_x
  _atom_site_fract_y
  _atom_site_fract_z
C1 C 0.31519 0.42990 0.91024
 C2 C 0.31860 0.41822 0.92089
 C3 C 0.33369 0.41510 0.92512
 C4 C 0.34560 0.42368 0.91870
 C5 C 0.34218 0.43515 0.90812
 C6 C 0.32692 0.43831 0.90395
 C7 C 0.30158 0.43594 0.90465
 N8 N 0.30489 0.44783 0.89514
 C9 C 0.32034 0.44941 0.89473
 C10 C 0.35556 0.44263 0.90500
 N11 N 0.36707 0.43628 0.91368
 C12 C 0.36113 0.42446 0.92194
 C13 C 0.33342 0.40363 0.93608
 N14 N 0.31858 0.39976 0.93853
 C15 C 0.30943 0.40867 0.92927
 H16 H 0.29019 0.43210 0.90755
 H17 H 0.32633 0.45803 0.88817
 H18 H 0.35664 0.45277 0.89787
 H19 H 0.36722 0.41757 0.93051
 H20 H 0.34329 0.39845 0.94186
 H21 H 0.29704 0.40828 0.92849
 C22 C 0.42156 0.84557 0.42454
 C23 C 0.40980 0.83456 0.42561
 C24 C 0.40742 0.82409 0.41328
 C25 C 0.41678 0.82407 0.40008
 C26 C 0.42855 0.83457 0.39911
 C27 C 0.43082 0.84555 0.41136
 C28 C 0.42639 0.85758 0.43434
 N29 N 0.43825 0.86488 0.42734
 C30 C 0.44102 0.85750 0.41337
 C31 C 0.43618 0.83118 0.38528
 N32 N 0.42918 0.81887 0.37803
 C33 C 0.41724 0.81461 0.38692
 C34 C 0.39536 0.81490 0.41707
 N35 N 0.39037 0.81927 0.43151
 C36 C 0.39906 0.83132 0.43695
 H37 H 0.42141 0.86074 0.44556
 H38 H 0.44976 0.86072 0.40512
 H39 H 0.44613 0.83708 0.38096
 H40 H 0.40976 0.80493 0.38427
 H41 H 0.39062 0.80554 0.40989
 H42 H 0.39756 0.83734 0.44814
 C43 C 0.94010 0.92562 0.81018
 C44 C 0.92772 0.93600 0.80981
 C45 C 0.92491 0.94558 0.82271
 C46 C 0.93450 0.94492 0.83618
 C47 C 0.94670 0.93469 0.83652
 C48 C 0.94951 0.92498 0.82346
 C49 C 0.94519 0.91455 0.79961
 N50 N 0.95749 0.90718 0.80621
 C51 C 0.96017 0.91354 0.82078
 C52 C 0.95381 0.93626 0.85109
 N53 N 0.94624 0.94728 0.85963
 C54 C 0.93440 0.95257 0.85058
 C55 C 0.91186 0.95397 0.81924
 N56 N 0.90674 0.94969 0.80453
 C57 C 0.91637 0.93873 0.79872
 H58 H 0.93998 0.91196 0.78819
 H59 H 0.96908 0.90989 0.82898
 H60 H 0.96366 0.92967 0.85502
 H61 H 0.92624 0.96134 0.85424
 H62 H 0.90644 0.96228 0.82704
 H63 H 0.91504 0.93296 0.78732
 C64 C 0.39813 -0.12052 0.33589
 C65 C 0.38821 -0.10805 0.33328
 C66 C 0.38754 -0.09599 0.34420
 C67 C 0.39665 -0.09641 0.35806
 C68 C 0.40610 -0.10898 0.36084
 C69 C 0.40692 -0.12105 0.34962
 C70 C 0.40343 -0.13193 0.32584
 N71 N 0.41545 -0.13920 0.33303
 C72 C 0.41735 -0.13288 0.34774
 C73 C 0.41502 -0.10548 0.37398
 N74 N 0.41146 -0.09104 0.37910
 C75 C 0.40018 -0.08539 0.36952
 C76 C 0.37832 -0.08475 0.33768
 N77 N 0.37337 -0.08978 0.32314
 C78 C 0.37938 -0.10399 0.32039
 H79 H 0.39943 -0.13386 0.31380
 H80 H 0.42669 -0.13559 0.35585
 H81 H 0.42424 -0.11246 0.37879
 H82 H 0.39545 -0.07387 0.37032
 H83 H 0.37561 -0.07372 0.34312
 H84 H 0.37773 -0.11072 0.30959
 C85 C 0.81758 0.33632 0.33758
 C86 C 0.82084 0.34755 0.32647
 C87 C 0.83348 0.34585 0.31691
 C88 C 0.84307 0.33292 0.31837
 C89 C 0.83983 0.32182 0.32928
 C90 C 0.82697 0.32351 0.33891
 C91 C 0.80597 0.33482 0.34828
 N92 N 0.80801 0.32137 0.35591
 C93 C 0.82087 0.31439 0.35030
 C94 C 0.85079 0.31044 0.32780
 N95 N 0.86060 0.31433 0.31628
 C96 C 0.85594 0.32810 0.31043
 C97 C 0.83350 0.35816 0.30694
 N98 N 0.82119 0.36726 0.31015
 C99 C 0.81339 0.36087 0.32215
 H100 H 0.79664 0.34286 0.35030
 H101 H 0.82561 0.30359 0.35430
 H102 H 0.85149 0.29997 0.33449
 H103 H 0.86129 0.33420 0.30100
 H104 H 0.84175 0.36023 0.29780
 H105 H 0.80298 0.36532 0.32731
 C106 C -0.18229 0.82706 0.81225
 C107 C -0.17095 0.81568 0.81031
 C108 C -0.17115 0.80271 0.81941
 C109 C -0.18258 0.80087 0.83056
 C110 C -0.19376 0.81204 0.83262
 C111 C -0.19363 0.82531 0.82333
 C112 C -0.18443 0.84092 0.80503
 N113 N -0.19776 0.84902 0.81137
 C114 C -0.20293 0.83819 0.82306
 C115 C -0.20287 0.80731 0.84482
 N116 N -0.19733 0.79358 0.85007
 C117 C -0.18497 0.78964 0.84134
 C118 C -0.15851 0.79398 0.81563
 N119 N -0.15059 0.80132 0.80443
 C120 C -0.15810 0.81464 0.80105
 H121 H -0.17720 0.84534 0.79591
 H122 H -0.21278 0.84017 0.83047
 H123 H -0.21249 0.81363 0.84964
 H124 H -0.17799 0.77941 0.84295
 H125 H -0.15509 0.78321 0.82089
 H126 H -0.15435 0.82320 0.79288
 C127 C 0.93901 0.33258 0.42016
 C128 C 0.93762 0.32068 0.40875
 C129 C 0.92714 0.30900 0.41077
 C130 C 0.91798 0.30898 0.42420
 C131 C 0.91935 0.32067 0.43547
 C132 C 0.92995 0.33259 0.43342
 C133 C 0.94802 0.34557 0.42118
 N134 N 0.94467 0.35351 0.43470
 C135 C 0.93360 0.34559 0.44228
 C136 C 0.90882 0.31775 0.44699
 N137 N 0.90116 0.30460 0.44299
 C138 C 0.90670 0.29918 0.42901
 C139 C 0.92802 0.29923 0.39784
 N140 N 0.93883 0.30459 0.38804
 C141 C 0.94476 0.31777 0.39459
 H142 H 0.95636 0.34905 0.41263
 H143 H 0.92842 0.34888 0.45336
 H144 H 0.90676 0.32477 0.45747
 H145 H 0.90277 0.28903 0.42257
 H146 H 0.92127 0.28893 0.39567
 H147 H 0.95342 0.32488 0.38941
 C148 C 0.41804 0.39879 0.85016
 C149 C 0.41964 0.38793 0.83791
 C150 C 0.41151 0.38953 0.82388
 C151 C 0.40127 0.40197 0.82217
 C152 C 0.39970 0.41280 0.83432
 C153 C 0.40839 0.41133 0.84838
 C154 C 0.42542 0.40036 0.86452
 N155 N 0.42088 0.41377 0.87148
 C156 C 0.41031 0.42057 0.86177
 C157 C 0.38890 0.42341 0.82941
 N158 N 0.38381 0.41921 0.81465
 C159 C 0.39143 0.40623 0.81012
 C160 C 0.41626 0.37775 0.81383
 N161 N 0.42703 0.36921 0.82158
 C162 C 0.42902 0.37529 0.83632
 H163 H 0.43410 0.39267 0.86923
 H164 H 0.40467 0.43150 0.86400
 H165 H 0.38495 0.43324 0.83627
 H166 H 0.38968 0.40011 0.79896
 H167 H 0.41232 0.37570 0.80178
 H168 H 0.43712 0.37108 0.84508
 C169 C 0.82250 0.90000 0.92300
 C170 C 0.82048 0.91009 0.91044
 C171 C 0.83129 0.92135 0.90786
 C172 C 0.84432 0.92261 0.91778
 C173 C 0.84631 0.91257 0.93008
 C174 C 0.83536 0.90121 0.93271
 C175 C 0.81357 0.88842 0.92872
 N176 N 0.82076 0.88259 0.94171
 C177 C 0.83412 0.89033 0.94415
 C178 C 0.85943 0.91681 0.93821
 N179 N 0.86553 0.92929 0.93117
 C180 C 0.85634 0.93287 0.91863
 C181 C 0.82610 0.92976 0.89526
 N182 N 0.81238 0.92386 0.89018
 C183 C 0.80892 0.91181 0.89937
 H184 H 0.80269 0.88467 0.92368
 H185 H 0.84224 0.88835 0.95373
 H186 H 0.86373 0.91134 0.94874
 H187 H 0.85809 0.94247 0.91091
 H188 H 0.83196 0.93940 0.89024
 H189 H 0.79860 0.90493 0.89818
 C190 C 0.33053 0.85342 0.33621
 C191 C 0.32986 0.84238 0.34798
 C192 C 0.34029 0.83033 0.34824
 C193 C 0.35170 0.82931 0.33671
 C194 C 0.35239 0.84030 0.32514
 C195 C 0.34167 0.85240 0.32483
 C196 C 0.32120 0.86567 0.33259
 N197 N 0.32635 0.87214 0.31916
 C198 C 0.33892 0.86409 0.31440
 C199 C 0.36406 0.83613 0.31519
 N200 N 0.37056 0.82287 0.32042
 C201 C 0.36303 0.81860 0.33353
 C202 C 0.33634 0.82108 0.36058
 N203 N 0.32383 0.82734 0.36776
 C204 C 0.31986 0.84035 0.36011
 H205 H 0.31112 0.86910 0.33908
 H206 H 0.34534 0.86632 0.30386
 H207 H 0.36714 0.84214 0.30466
 H208 H 0.36543 0.80827 0.34009
 H209 H 0.34213 0.81058 0.36390
 H210 H 0.31021 0.84771 0.36306
 C211 C 0.79312 0.42031 0.43836
 C212 C 0.79226 0.43343 0.42904
 C213 C 0.80298 0.44503 0.43113
 C214 C 0.81467 0.44373 0.44265
 C215 C 0.81549 0.43078 0.45183
 C216 C 0.80466 0.41901 0.44964
 C217 C 0.78493 0.40681 0.43823
 N218 N 0.79124 0.39734 0.44913
 C219 C 0.80334 0.40474 0.45619
 C220 C 0.82828 0.43181 0.46148
 N221 N 0.83658 0.44595 0.45878
 C222 C 0.82698 0.45300 0.44653
 C223 C 0.80001 0.45577 0.41972
 N224 N 0.78776 0.45090 0.41078
 C225 C 0.78292 0.43731 0.41648
 H226 H 0.77530 0.40389 0.43048
 H227 H 0.81094 0.40008 0.46513
 H228 H 0.83203 0.42319 0.46977
 H229 H 0.82955 0.46383 0.44109
 H230 H 0.80654 0.46613 0.41797
 H231 H 0.77361 0.43048 0.41146
 C232 C 0.93196 0.83124 -0.06526
 C233 C 0.91895 0.82183 -0.06507
 C234 C 0.91579 0.81180 -0.07759
 C235 C 0.92563 0.81112 -0.09055
 C236 C 0.93847 0.82044 -0.09075
 C237 C 0.94166 0.83060 -0.07801
 C238 C 0.93768 0.84213 -0.05475
 N239 N 0.95067 0.84815 -0.06078
 C240 C 0.95314 0.84119 -0.07503
 C241 C 0.94583 0.81740 -0.10473
 N242 N 0.93777 0.80641 -0.11305
 C243 C 0.92539 0.80258 -0.10444
 C244 C 0.90241 0.80423 -0.07417
 N245 N 0.89745 0.80946 -0.05988
 C246 C 0.90747 0.82026 -0.05429
 H247 H 0.93247 0.84553 -0.04372
 H248 H 0.96257 0.84375 -0.08271
 H249 H 0.95620 0.82296 -0.10843
 H250 H 0.91682 0.79415 -0.10802
 H251 H 0.89669 0.79574 -0.08169
 H252 H 0.90645 0.82652 -0.04316
 C253 C 0.31779 0.32933 0.81366
 C254 C 0.31564 0.31854 0.82547
 C255 C 0.32465 0.30539 0.82600
 C256 C 0.33594 0.30287 0.81452
 C257 C 0.33797 0.31356 0.80286
 C258 C 0.32887 0.32687 0.80244
 C259 C 0.31066 0.34306 0.81036
 N260 N 0.31716 0.34899 0.79733
 C261 C 0.32832 0.33915 0.79244
 C262 C 0.34967 0.30839 0.79348
 N263 N 0.35487 0.29474 0.79908
 C264 C 0.34656 0.29129 0.81197
 C265 C 0.31997 0.29715 0.83883
 N266 N 0.30835 0.30504 0.84594
 C267 C 0.30565 0.31807 0.83780
 H268 H 0.30138 0.34815 0.81701
 H269 H 0.33545 0.34077 0.78226
 H270 H 0.35417 0.31440 0.78353
 H271 H 0.34822 0.28116 0.81904
 H272 H 0.32466 0.28624 0.84254
 H273 H 0.29705 0.32666 0.84073
 C274 C 0.16617 0.57548 0.55759
 C275 C 0.17904 0.58525 0.55930
 C276 C 0.18998 0.58238 0.57096
 C277 C 0.18838 0.56987 0.58096
 C278 C 0.17584 0.56029 0.57923
 C279 C 0.16468 0.56312 0.56752
 C280 C 0.15334 0.57541 0.54774
 N281 N 0.14424 0.56334 0.55144
 C282 C 0.15114 0.55582 0.56358
 C283 C 0.17719 0.54928 0.59062
 N284 N 0.19021 0.55197 0.59926
 C285 C 0.19716 0.56457 0.59340
 C286 C 0.20093 0.59365 0.57034
 N287 N 0.19710 0.60336 0.55858
 C288 C 0.18369 0.59837 0.55171
 H289 H 0.15074 0.58361 0.53861
 H290 H 0.14662 0.54594 0.56947
 H291 H 0.16920 0.54002 0.59260
 H292 H 0.20779 0.56961 0.59773
 H293 H 0.21096 0.59481 0.57800
 H294 H 0.17761 0.60395 0.54216
 C295 C 0.58768 0.66774 0.05901
 C296 C 0.57428 0.65890 0.05751
 C297 C 0.56378 0.65920 0.06953
 C298 C 0.56652 0.66809 0.08317
 C299 C 0.57956 0.67705 0.08465
 C300 C 0.59029 0.67682 0.07245
 C301 C 0.59990 0.66970 0.04925
 N302 N 0.60985 0.67973 0.05636
 C303 C 0.60408 0.68416 0.07058
 C304 C 0.57862 0.68502 0.09888
 N305 N 0.56540 0.68083 0.10590
 C306 C 0.55803 0.67042 0.09645
 C307 C 0.55164 0.65015 0.06488
 N308 N 0.55452 0.64417 0.05036
 C309 C 0.56838 0.64939 0.04567
 H310 H 0.60150 0.66421 0.03779
 H311 H 0.60952 0.69192 0.07909
 H312 H 0.58681 0.69328 0.10369
 H313 H 0.54703 0.66531 0.09888
 H314 H 0.54142 0.64799 0.07159
 H315 H 0.57364 0.64675 0.03445
 C316 C 0.69546 0.20165 0.67597
 C317 C 0.68371 0.20115 0.68700
 C318 C 0.68220 0.18855 0.69659
 C319 C 0.69281 0.17629 0.69540
 C320 C 0.70449 0.17694 0.68451
 C321 C 0.70573 0.18960 0.67465
 C322 C 0.69854 0.21173 0.66414
 N323 N 0.71031 0.20599 0.65553
 C324 C 0.71489 0.19247 0.66196
 C325 C 0.71271 0.16349 0.68539
 N326 N 0.70647 0.15459 0.69652
 C327 C 0.69421 0.16226 0.70272
 C328 C 0.66893 0.19088 0.70511
 N329 N 0.66259 0.20458 0.70083
 C330 C 0.67161 0.21088 0.68985
 H331 H 0.69214 0.22209 0.66145
 H332 H 0.72377 0.18491 0.65747
 H333 H 0.72251 0.16031 0.67831
 H334 H 0.68680 0.15801 0.71175
 H335 H 0.66415 0.18303 0.71344
 H336 H 0.66921 0.22158 0.68393
 C337 C 1.06464 0.05266 0.22654
 C338 C 1.05495 0.06527 0.22366
 C339 C 1.04370 0.06429 0.21192
 C340 C 1.04199 0.05062 0.20289
 C341 C 1.05141 0.03814 0.20594
 C342 C 1.06276 0.03916 0.21780
 C343 C 1.07791 0.05110 0.23548
 N344 N 1.08409 0.03699 0.23227
 C345 C 1.07481 0.02960 0.22160
 C346 C 1.04861 0.02719 0.19435
 N347 N 1.03782 0.03267 0.18417
 C348 C 1.03358 0.04701 0.18936
 C349 C 1.03708 0.07867 0.21079
 N350 N 1.04399 0.08827 0.22162
 C351 C 1.05497 0.08018 0.22944
 H352 H 1.08305 0.05997 0.24297
 H353 H 1.07726 0.01850 0.21614
 H354 H 1.05468 0.01635 0.19288
 H355 H 1.02574 0.05469 0.18337
 H356 H 1.02829 0.08193 0.20231
 H357 H 1.06270 0.08493 0.23842
 C358 C 0.06896 0.16982 1.04035
 C359 C 0.08025 0.18115 1.03921
 C360 C 0.08007 0.19390 1.04923
 C361 C 0.06851 0.19554 1.06048
 C362 C 0.05736 0.18434 1.06164
 C363 C 0.05760 0.17134 1.05150
 C364 C 0.06699 0.15580 1.03282
 N365 N 0.05476 0.14870 1.03911
 C366 C 0.04890 0.15813 1.05057
 C367 C 0.04815 0.18859 1.07408
 N368 N 0.05347 0.20212 1.08046
 C369 C 0.06592 0.20639 1.07219
 C370 C 0.09289 0.20246 1.04612
 N371 N 0.10084 0.19514 1.03446
 C372 C 0.09313 0.18215 1.03014
 H373 H 0.07422 0.15087 1.02374
 H374 H 0.03939 0.15546 1.05807
 H375 H 0.03858 0.18201 1.07825
 H376 H 0.07279 0.21655 1.07471
 H377 H 0.09616 0.21309 1.05212
 H378 H 0.09687 0.17382 1.02130
 C379 C 0.16817 0.68813 0.68400
 C380 C 0.17960 0.68997 0.67276
 C381 C 0.19204 0.68007 0.67243
 C382 C 0.19325 0.66823 0.68337
 C383 C 0.18197 0.66636 0.69447
 C384 C 0.16928 0.67641 0.69478
 C385 C 0.15469 0.69591 0.68678
 N386 N 0.14749 0.68918 0.69896
 C387 C 0.15638 0.67729 0.70396
 C388 C 0.18601 0.65367 0.70316
 N389 N 0.19947 0.64791 0.69758
 C390 C 0.20393 0.65675 0.68549
 C391 C 0.20106 0.68425 0.66008
 N392 N 0.19433 0.69645 0.65286
 C393 C 0.18125 0.70006 0.66060
 H394 H 0.15062 0.70579 0.68037
 H395 H 0.15356 0.66974 0.71349
 H396 H 0.17944 0.64896 0.71262
 H397 H 0.21413 0.65481 0.67858
 H398 H 0.21171 0.67876 0.65671
 H399 H 0.17340 0.70924 0.65745
 C400 C 1.17970 0.16497 0.18076
 C401 C 1.16695 0.17483 0.18094
 C402 C 1.16610 0.18710 0.17077
 C403 C 1.17809 0.18963 0.16025
 C404 C 1.19065 0.17983 0.16019
 C405 C 1.19145 0.16748 0.17044
 C406 C 1.18366 0.15226 0.18936
 N407 N 1.19759 0.14708 0.18445
 C408 C 1.20238 0.15631 0.17284
 C409 C 1.20049 0.18476 0.14897
 N410 N 1.19430 0.19732 0.14207
 C411 C 1.18055 0.20047 0.14888
 C412 C 1.15253 0.19474 0.17375
 N413 N 1.14522 0.18736 0.18548
 C414 C 1.15398 0.17522 0.18991
 H415 H 1.17682 0.14727 0.19846
 H416 H 1.21313 0.15504 0.16670
 H417 H 1.21135 0.17947 0.14591
 H418 H 1.17281 0.20974 0.14579
 H419 H 1.14851 0.20499 0.16793
 H420 H 1.15113 0.16729 0.19911
 C421 C 0.67611 1.04410 0.55605
 C422 C 0.68768 1.04265 0.56762
 C423 C 0.69901 1.05365 0.56918
 C424 C 0.69900 1.06621 0.55907
 C425 C 0.68759 1.06773 0.54758
 C426 C 0.67593 1.05654 0.54609
 C427 C 0.66318 1.03558 0.55278
 N428 N 0.65499 1.04244 0.54112
 C429 C 0.66269 1.05530 0.53687
 C430 C 0.69038 1.08133 0.53995
 N431 N 0.70320 1.08797 0.54656
 C432 C 0.70842 1.07879 0.55827
 C433 C 0.70808 1.04980 0.58202
 N434 N 0.70245 1.03671 0.58824
 C435 C 0.69002 1.03226 0.57945
 H436 H 0.65967 1.02534 0.55883
 H437 H 0.65877 1.06345 0.52819
 H438 H 0.68344 1.08597 0.53045
 H439 H 0.71837 1.08114 0.56577
 H440 H 0.71775 1.05636 0.58662
 H441 H 0.68291 1.02241 0.58182
 C442 C 0.57348 0.55633 0.17101
 C443 C 0.58634 0.55702 0.18109
 C444 C 0.58873 0.56977 0.19079
 C445 C 0.57817 0.58198 0.19062
 C446 C 0.56542 0.58139 0.18060
 C447 C 0.56311 0.56844 0.17058
 C448 C 0.56876 0.54549 0.15999
 N449 N 0.55588 0.55070 0.15267
 C450 C 0.55224 0.56474 0.15905
 C451 C 0.55741 0.59498 0.18287
 N452 N 0.56501 0.60368 0.19405
 C453 C 0.57772 0.59583 0.19873
 C454 C 0.60251 0.56759 0.19866
 N455 N 0.60849 0.55379 0.19388
 C456 C 0.59863 0.54727 0.18316
 H457 H 0.57451 0.53472 0.15719
 H458 H 0.54255 0.57179 0.15555
 H459 H 0.54694 0.59823 0.17674
 H460 H 0.58605 0.59993 0.20746
 H461 H 0.60788 0.57571 0.20686
 H462 H 0.60049 0.53637 0.17703
 C463 C 0.68628 0.70342 0.21253
 C464 C 0.69903 0.69358 0.21354
 C465 C 0.70990 0.69340 0.20181
 C466 C 0.70824 0.70329 0.18898
 C467 C 0.69567 0.71307 0.18804
 C468 C 0.68455 0.71308 0.19986
 C469 C 0.67313 0.70462 0.22125
 N470 N 0.66341 0.71469 0.21419
 C471 C 0.67031 0.71999 0.20108
 C472 C 0.69640 0.72040 0.17385
 N473 N 0.70905 0.71538 0.16613
 C474 C 0.71638 0.70486 0.17528
 C475 C 0.71998 0.68152 0.20502
 N476 N 0.71541 0.67458 0.21840
 C477 C 0.70270 0.68196 0.22369
 H478 H 0.67050 0.69804 0.23157
 H479 H 0.66516 0.72763 0.19256
 H480 H 0.68807 0.72851 0.16923
 H481 H 0.72659 0.69846 0.17214
 H482 H 0.72951 0.67793 0.19779
 H483 H 0.69612 0.67857 0.23377
 C484 C 0.15993 0.08751 1.07093
 C485 C 0.17049 0.09953 1.07015
 C486 C 0.18231 0.10081 1.08118
 C487 C 0.18371 0.08996 1.09324
 C488 C 0.17328 0.07803 1.09398
 C489 C 0.16124 0.07681 1.08272
 C490 C 0.14726 0.08374 1.06182
 N491 N 0.14075 0.07099 1.06771
 C492 C 0.14921 0.06662 1.08054
 C493 C 0.17720 0.06919 1.10675
 N494 N 0.19066 0.07534 1.11491
 C495 C 0.19410 0.08856 1.10559
 C496 C 0.19068 0.11368 1.07740
 N497 N 0.18414 0.12009 1.06436
 C498 C 0.17178 0.11150 1.05992
 H499 H 0.14298 0.08989 1.05165
 H500 H 0.14680 0.05691 1.08788
 H501 H 0.17111 0.05906 1.11036
 H502 H 0.20360 0.09626 1.10812
 H503 H 0.20069 0.11798 1.08377
 H504 H 0.16427 0.11381 1.04992
 C505 C 0.57300 0.20550 0.54077
 C506 C 0.56101 0.20890 0.55122
 C507 C 0.54660 0.20265 0.54832
 C508 C 0.54407 0.19262 0.53540
 C509 C 0.55590 0.18905 0.52533
 C510 C 0.57040 0.19565 0.52793
 C511 C 0.58830 0.20954 0.54061
 N512 N 0.59491 0.20244 0.52793
 C513 C 0.58406 0.19385 0.52025
 C514 C 0.55075 0.17754 0.51515
 N515 N 0.53608 0.17400 0.51894
 C516 C 0.53189 0.18330 0.53120
 C517 C 0.53740 0.20707 0.56061
 N518 N 0.54585 0.21562 0.57106
 C519 C 0.56033 0.21687 0.56549
 H520 H 0.59409 0.21697 0.54919
 H521 H 0.58601 0.18676 0.50979
 H522 H 0.55763 0.17156 0.50644
 H523 H 0.52114 0.18253 0.53737
 H524 H 0.52556 0.20376 0.56220
 H525 H 0.56971 0.22285 0.57147
 C526 C 0.06771 0.56417 0.71036
 C527 C 0.05722 0.57631 0.70860
 C528 C 0.04653 0.57602 0.69628
 C529 C 0.04614 0.56337 0.68560
 C530 C 0.05647 0.55137 0.68751
 C531 C 0.06733 0.55182 0.69985
 C532 C 0.08027 0.56216 0.72019
 N533 N 0.08759 0.54900 0.71573
 C534 C 0.07966 0.54252 0.70335
 C535 C 0.05438 0.54120 0.67509
 N536 N 0.04303 0.54659 0.66557
 C537 C 0.03788 0.56020 0.67184
 C538 C 0.03875 0.58991 0.69688
 N539 N 0.04450 0.59846 0.70927
 C540 C 0.05577 0.59021 0.71643
 H541 H 0.08427 0.57009 0.72939
 H542 H 0.08279 0.53209 0.69697
 H543 H 0.06096 0.53080 0.67285
 H544 H 0.02918 0.56752 0.66662
 H545 H 0.02994 0.59358 0.68862
 H546 H 0.06273 0.59425 0.72639
 C547 C 0.66863 0.55102 0.06448
 C548 C 0.67961 0.55141 0.07683
 C549 C 0.69067 0.56287 0.07750
 C550 C 0.69084 0.57416 0.06584
 C551 C 0.68005 0.57364 0.05369
 C552 C 0.66899 0.56205 0.05297
 C553 C 0.65622 0.54163 0.06094
 N554 N 0.64922 0.54679 0.04755
 C555 C 0.65700 0.55921 0.04263
 C556 C 0.68235 0.58617 0.04446
 N557 N 0.69428 0.59439 0.05064
 C558 C 0.69961 0.58715 0.06375
 C559 C 0.69952 0.56055 0.09089
 N560 N 0.69415 0.54797 0.09830
 C561 C 0.68195 0.54239 0.08982
 H562 H 0.65261 0.53188 0.06766
 H563 H 0.65396 0.56588 0.03236
 H564 H 0.67560 0.58932 0.03416
 H565 H 0.70884 0.59118 0.07147
 H566 H 0.70896 0.56773 0.09500
 H567 H 0.67519 0.53251 0.09297
 C568 C 0.07885 0.69853 0.56272
 C569 C 0.09030 0.69628 0.55142
 C570 C 0.09065 0.68278 0.54253
 C571 C 0.07975 0.67133 0.54483
 C572 C 0.06843 0.67348 0.55591
 C573 C 0.06796 0.68723 0.56493
 C574 C 0.07604 0.71022 0.57352
 N575 N 0.06372 0.70636 0.58217
 C576 C 0.05870 0.69228 0.57703
 C577 C 0.05983 0.66017 0.55583
 N578 N 0.06578 0.65014 0.54497
 C579 C 0.07798 0.65687 0.53828
 C580 C 0.10317 0.68333 0.53296
 N581 N 0.11057 0.69679 0.53584
 C582 C 0.10279 0.70486 0.54713
 H583 H 0.08264 0.72069 0.57516
 H584 H 0.04935 0.68591 0.58195
 H585 H 0.05022 0.65790 0.56335
 H586 H 0.08511 0.65154 0.52932
 H587 H 0.10689 0.67438 0.52477
 H588 H 0.10601 0.71597 0.55211
 C589 C 0.57152 1.04691 0.66699
 C590 C 0.58017 1.04466 0.68095
 C591 C 0.57786 1.05426 0.69395
 C592 C 0.56721 1.06631 0.69318
 C593 C 0.55886 1.06866 0.67944
 C594 C 0.56095 1.05883 0.66631
 C595 C 0.57136 1.03969 0.65232
 N596 N 0.56093 1.04689 0.64284
 C597 C 0.55459 1.05870 0.65135
 C598 C 0.55037 1.08190 0.68166
 N599 N 0.55348 1.08765 0.69647
 C600 C 0.56368 1.07808 0.70358
 C601 C 0.58825 1.05019 0.70548
 N602 N 0.59701 1.03847 0.69984
 C603 C 0.59215 1.03491 0.68484
 H604 H 0.57835 1.02991 0.64880
 H605 H 0.54605 1.06678 0.64719
 H606 H 0.54301 1.08712 0.67285
 H607 H 0.56866 1.07991 0.71528
 H608 H 0.58981 1.05581 0.71694
 H609 H 0.59715 1.02622 0.67714
 C610 C 0.44406 0.32570 0.92376
 C611 C 0.44452 0.31443 0.91173
 C612 C 0.43402 0.30256 0.91131
 C613 C 0.42296 0.30176 0.92310
 C614 C 0.42246 0.31293 0.93500
 C615 C 0.43305 0.32508 0.93528
 C616 C 0.45256 0.33874 0.92661
 N617 N 0.44694 0.34624 0.93950
 C618 C 0.43497 0.33794 0.94495
 C619 C 0.41040 0.30940 0.94454
 N620 N 0.40362 0.29633 0.93873
 C621 C 0.41120 0.29164 0.92561
 C622 C 0.43689 0.29369 0.89798
 N623 N 0.44893 0.29998 0.89041
 C624 C 0.45364 0.31262 0.89877
 H625 H 0.46196 0.34271 0.91956
 H626 H 0.42802 0.34095 0.95502
 H627 H 0.40684 0.31602 0.95480
 H628 H 0.40826 0.28165 0.91833
 H629 H 0.43058 0.28356 0.89411
 H630 H 0.46292 0.32011 0.89548
 C631 C 0.92357 0.40081 0.35025
 C632 C 0.92046 0.38870 0.33941
 C633 C 0.90732 0.38915 0.33003
 C634 C 0.89734 0.40176 0.33104
 C635 C 0.90058 0.41394 0.34134
 C636 C 0.91377 0.41340 0.35112
 C637 C 0.93560 0.40362 0.36065
 N638 N 0.93348 0.41763 0.36775
 C639 C 0.92014 0.42373 0.36192
 C640 C 0.88969 0.42520 0.33848
 N641 N 0.88006 0.42002 0.32672
 C642 C 0.88460 0.40569 0.32223
 C643 C 0.90789 0.37686 0.31959
 N644 N 0.92121 0.36914 0.32210
 C645 C 0.92896 0.37616 0.33432
 H646 H 0.94533 0.39609 0.36277
 H647 H 0.91521 0.43473 0.36530
 H648 H 0.88909 0.43641 0.34427
 H649 H 0.87939 0.39889 0.31272
 H650 H 0.89975 0.37436 0.31008
 H651 H 0.94023 0.37287 0.33868
 C652 C 0.29362 0.94195 0.44581
 C653 C 0.29444 0.93047 0.45720
 C654 C 0.30613 0.93068 0.46845
 C655 C 0.31709 0.94246 0.46854
 C656 C 0.31633 0.95375 0.45727
 C657 C 0.30453 0.95346 0.44576
 C658 C 0.28449 0.94363 0.43255
 N659 N 0.28960 0.95579 0.42434
 C660 C 0.30188 0.96193 0.43239
 C661 C 0.32926 0.96270 0.45924
 N662 N 0.33784 0.95709 0.47145
 C663 C 0.33041 0.94475 0.47719
 C664 C 0.30525 0.91717 0.47662
 N665 N 0.29330 0.90878 0.47054
 C666 C 0.28660 0.91689 0.45875
 H667 H 0.27517 0.93611 0.42877
 H668 H 0.30884 0.97143 0.42865
 H669 H 0.33232 0.97215 0.45183
 H670 H 0.33471 0.93757 0.48661
 H671 H 0.31326 0.91347 0.48568
 H672 H 0.27726 0.91277 0.45121
 O673 O 0.24290 0.53795 0.73982
 O674 O 0.26952 0.53396 0.74614
 O675 O 0.23267 0.50076 0.70765
 O676 O 0.23514 0.47506 0.70748
 O677 O 0.20252 0.51089 0.74579
 O678 O 0.20310 0.50635 0.77333
 O679 O 0.26733 0.45578 0.75186
 O680 O 0.26932 0.46443 0.72513
 O681 O 0.27936 0.49199 0.78143
 O682 O 0.27285 0.51882 0.78378
 O683 O 0.23907 0.46846 0.78893
 O684 O 0.21298 0.46893 0.77705
 O685 O 0.24533 0.45162 0.76518
 O686 O 0.21781 0.45562 0.75807
 O687 O 0.25445 0.48843 0.79666
 O688 O 0.25242 0.51737 0.79442
 O689 O 0.28480 0.47655 0.76022
 O690 O 0.28656 0.48367 0.73417
 O691 O 0.22141 0.53376 0.75400
 O692 O 0.21827 0.52386 0.78011
 O693 O 0.20760 0.49566 0.72431
 O694 O 0.21624 0.46879 0.72280
 O695 O 0.24876 0.52032 0.71495
 O696 O 0.27491 0.51996 0.72708
 Zr697 Zr 0.25408 0.51635 0.73894
 O698 O 0.26711 0.50169 0.75359
 Zr699 Zr 0.23037 0.48802 0.72827
 O700 O 0.24253 0.47207 0.74223
 Zr701 Zr 0.22268 0.51034 0.75961
 O702 O 0.23417 0.49534 0.77492
 Zr703 Zr 0.26552 0.47888 0.74514
 O704 O 0.25395 0.49377 0.72921
 Zr705 Zr 0.25753 0.50123 0.77617
 O706 O 0.24568 0.51744 0.76213
 Zr707 Zr 0.23375 0.47287 0.76518
 O708 O 0.22052 0.48761 0.75078
 O709 O 0.23101 0.51059 0.73681
 O710 O 0.25687 0.47851 0.76788
 C711 C 0.23031 0.54244 0.74623
 C712 C 0.24019 0.51306 0.70479
 C713 C 0.19869 0.50437 0.73257
 C714 C 0.25836 0.44729 0.75979
 C715 C 0.28800 0.48240 0.77396
 C716 C 0.24703 0.47603 0.79931
 H717 H 0.27795 0.50506 0.75397
 H718 H 0.22924 0.49601 0.78534
 H719 H 0.22509 0.51767 0.73001
 H720 H 0.24184 0.46166 0.73733
 H721 H 0.26726 0.47073 0.71572
 H722 H 0.24192 0.46645 0.71058
 H723 H 0.24280 0.51408 0.79937
 H724 H 0.22758 0.53010 0.78231
 H725 H 0.28406 0.49000 0.72493
 H726 H 0.27504 0.51281 0.71782
 H727 H 0.21207 0.47684 0.78556
 H728 H 0.19947 0.49588 0.77039
 H729 H 0.26678 0.53698 0.75707
 H730 H 0.27986 0.52078 0.77499
 H731 H 0.20864 0.46818 0.73132
 H732 H 0.22180 0.45035 0.74850
 O733 O 0.21023 0.03357 0.26995
 O734 O 0.22071 0.03458 0.29617
 O735 O 0.24831 0.04779 0.24235
 O736 O 0.27297 0.04031 0.23934
 O737 O 0.22172 0.00904 0.22763
 O738 O 0.22145 -0.01751 0.23551
 O739 O 0.29077 0.00420 0.28115
 O740 O 0.28954 0.03068 0.27504
 O741 O 0.25438 -0.00626 0.30854
 O742 O 0.22605 -0.00210 0.30676
 O743 O 0.26365 -0.03295 0.26825
 O744 O 0.25739 -0.02983 0.23934
 O745 O 0.28531 -0.01642 0.26361
 O746 O 0.27576 -0.01580 0.23559
 O747 O 0.24911 -0.02864 0.28995
 O748 O 0.22190 -0.02014 0.29210
 O749 O 0.27430 0.00984 0.30413
 O750 O 0.27488 0.03679 0.29556
 O751 O 0.20477 0.01328 0.25336
 O752 O 0.20782 -0.01395 0.25541
 O753 O 0.24173 0.02498 0.22292
 O754 O 0.26924 0.01889 0.22453
 O755 O 0.23378 0.05205 0.26413
 O756 O 0.23921 0.04892 0.29178
 Zr757 Zr 0.23371 0.03084 0.27558
 O758 O 0.24800 0.01708 0.28972
 Zr759 Zr 0.25513 0.02464 0.24392
 O760 O 0.27062 0.01069 0.25685
 Zr761 Zr 0.22579 0.00153 0.25088
 O762 O 0.23987 -0.01356 0.26391
 Zr763 Zr 0.27038 0.01719 0.28087
 O764 O 0.25645 0.03247 0.26768
 Zr765 Zr 0.24100 -0.00598 0.28763
 O766 O 0.22545 0.00808 0.27496
 Zr767 Zr 0.26258 -0.01210 0.25612
 O768 O 0.24808 0.00154 0.24169
 O769 O 0.23267 0.02436 0.25185
 O770 O 0.26356 -0.00572 0.27994
 C771 C 0.20093 0.02543 0.26133
 C772 C 0.23991 0.05636 0.25129
 C773 C 0.22910 0.01824 0.21882
 C774 C 0.29494 -0.00937 0.27426
 C775 C 0.26687 0.00059 0.31280
 C776 C 0.25805 -0.03701 0.28145
 H777 H 0.24761 0.02097 0.30076
 H778 H 0.23586 -0.02416 0.26284
 H779 H 0.22566 0.03110 0.24578
 H780 H 0.28112 0.01141 0.25270
 H781 H 0.28545 0.03982 0.26956
 H782 H 0.28268 0.03582 0.24339
 H783 H 0.22112 -0.02799 0.28350
 H784 H 0.20519 -0.01234 0.26665
 H785 H 0.26689 0.03740 0.30370
 H786 H 0.24943 0.05280 0.28885
 H787 H 0.24844 -0.03555 0.24315
 H788 H 0.23057 -0.01867 0.22877
 H789 H 0.21470 0.02509 0.29765
 H790 H 0.22955 0.00728 0.31257
 H791 H 0.26562 0.00886 0.22018
 H792 H 0.28389 -0.00789 0.23553
 O793 O 0.50152 0.71636 0.21547
 O794 O 0.47491 0.72095 0.21714
 O795 O 0.51749 0.75880 0.19569
 O796 O 0.51665 0.78378 0.20190
 O797 O 0.54209 0.73910 0.23478
 O798 O 0.53775 0.73787 0.26224
 O799 O 0.47829 0.79557 0.24219
 O800 O 0.47843 0.79203 0.21490
 O801 O 0.46128 0.75476 0.26061
 O802 O 0.46795 0.72708 0.25676
 O803 O 0.50121 0.77361 0.28107
 O804 O 0.52773 0.77577 0.27373
 O805 O 0.49558 0.79424 0.26258
 O806 O 0.52503 0.79236 0.25701
 O807 O 0.48220 0.75571 0.28001
 O808 O 0.48602 0.72712 0.27263
 O809 O 0.45989 0.77499 0.24404
 O810 O 0.46262 0.77188 0.21364
 O811 O 0.52140 0.71628 0.23330
 O812 O 0.52093 0.72071 0.26187
 O813 O 0.54011 0.75862 0.21734
 O814 O 0.53220 0.78582 0.22204
 O815 O 0.50072 0.73874 0.19504
 O816 O 0.47330 0.73938 0.20148
 Zr817 Zr 0.49177 0.73838 0.21798
 O818 O 0.47698 0.75020 0.23357
 Zr819 Zr 0.51736 0.76666 0.21927
 O820 O 0.50346 0.78008 0.23435
 Zr821 Zr 0.52012 0.73810 0.24478
 O822 O 0.50687 0.75048 0.26139
 Zr823 Zr 0.48032 0.77392 0.23112
 O824 O 0.49398 0.76217 0.21433
 Zr825 Zr 0.48348 0.74577 0.25709
 O826 O 0.49685 0.73217 0.24143
 Zr827 Zr 0.50882 0.77429 0.25777
 O828 O 0.52384 0.76193 0.24272
 O829 O 0.51501 0.74300 0.22144
 O830 O 0.48571 0.76933 0.25455
 C831 C 0.51301 0.70988 0.22234
 C832 C 0.51072 0.74742 0.18867
 C833 C 0.54770 0.74801 0.22441
 C834 C 0.48426 0.80063 0.25522
 C835 C 0.45460 0.76677 0.25515
 C836 C 0.49004 0.76638 0.28713
 H837 H 0.46622 0.74722 0.23133
 H838 H 0.51020 0.74770 0.27218
 H839 H 0.52165 0.73705 0.21414
 H840 H 0.50493 0.79116 0.23244
 H841 H 0.48327 0.78832 0.20502
 H842 H 0.50886 0.79143 0.20523
 H843 H 0.49407 0.72987 0.28057
 H844 H 0.51114 0.71499 0.26081
 H845 H 0.45431 0.76543 0.21774
 H846 H 0.47383 0.74957 0.19651
 H847 H 0.52871 0.76567 0.27883
 H848 H 0.54197 0.74842 0.26285
 H849 H 0.47510 0.71625 0.22768
 H850 H 0.46045 0.72866 0.24803
 H851 H 0.53876 0.78395 0.23148
 H852 H 0.52019 0.80109 0.25146
 O853 O -0.00773 0.71880 0.71216
 O854 O -0.03382 0.72707 0.71324
 O855 O 0.01379 0.75599 0.68856
 O856 O 0.01569 0.78157 0.69204
 O857 O 0.03486 0.73736 0.72992
 O858 O 0.03024 0.74041 0.75758
 O859 O -0.02075 0.80256 0.73104
 O860 O -0.01931 0.79659 0.70369
 O861 O -0.04342 0.76662 0.75164
 O862 O -0.04033 0.73806 0.75111
 O863 O -0.00229 0.78229 0.77165
 O864 O 0.02505 0.77866 0.76533
 O865 O -0.00207 0.80178 0.75013
 O866 O 0.02560 0.79403 0.74785
 O867 O -0.02247 0.76583 0.77241
 O868 O -0.02351 0.73750 0.76766
 O869 O -0.04268 0.78406 0.73203
 O870 O -0.03871 0.78025 0.70363
 O871 O 0.01137 0.71795 0.73083
 O872 O 0.01151 0.72523 0.75852
 O873 O 0.03580 0.75513 0.71059
 O874 O 0.03210 0.78308 0.71213
 O875 O -0.00615 0.73917 0.68931
 O876 O -0.03287 0.74343 0.69544
 Zr877 Zr -0.01476 0.74199 0.71230
 O878 O -0.02787 0.75737 0.72613
 Zr879 Zr 0.01440 0.76642 0.71120
 O880 O 0.00242 0.78307 0.72472
 Zr881 Zr 0.01298 0.74075 0.73972
 O882 O 0.00120 0.75632 0.75467
 Zr883 Zr -0.02133 0.78006 0.72151
 O884 O -0.00936 0.76472 0.70630
 Zr885 Zr -0.02252 0.75451 0.75017
 O886 O -0.01083 0.73768 0.73644
 Zr887 Zr 0.00652 0.77908 0.74884
 O888 O 0.01987 0.76343 0.73525
 O889 O 0.00883 0.74375 0.71578
 O890 O -0.01715 0.77729 0.74559
 C891 C 0.00257 0.71162 0.72021
 C892 C 0.00505 0.74556 0.68228
 C893 C 0.04169 0.74419 0.71870
 C894 C -0.01273 0.80873 0.74233
 C895 C -0.04918 0.77777 0.74373
 C896 C -0.01375 0.77632 0.77857
 H897 H -0.03889 0.75561 0.72387
 H898 H 0.00389 0.75416 0.76579
 H899 H 0.01459 0.73625 0.70918
 H900 H 0.00552 0.79353 0.72174
 H901 H -0.01519 0.79113 0.69428
 H902 H 0.01052 0.79128 0.69524
 H903 H -0.01415 0.73844 0.77439
 H904 H 0.00094 0.72107 0.75814
 H905 H -0.04587 0.77170 0.70546
 H906 H -0.03143 0.75319 0.68985
 H907 H 0.02360 0.76969 0.77214
 H908 H 0.03597 0.75017 0.75680
 H909 H -0.03381 0.72295 0.72404
 H910 H -0.04741 0.73973 0.74204
 H911 H 0.03780 0.78169 0.72222
 H912 H 0.02398 0.80085 0.73876
 O913 O 0.03804 0.01112 0.02558
 O914 O 0.03644 0.00681 -0.00242
 O915 O -0.00518 0.03232 0.03589
 O916 O -0.02999 0.02661 0.03256
 O917 O 0.01208 -0.00485 0.06426
 O918 O 0.01293 -0.03246 0.06025
 O919 O -0.03842 -0.01597 -0.00639
 O920 O -0.03550 0.01173 -0.00470
 O921 O 0.00344 -0.03388 -0.01977
 O922 O 0.03022 -0.03090 -0.00987
 O923 O -0.01914 -0.05165 0.01927
 O924 O -0.02180 -0.04318 0.04723
 O925 O -0.04010 -0.03243 0.01404
 O926 O -0.03862 -0.02771 0.04322
 O927 O 0.00069 -0.05233 0.00214
 O928 O 0.02845 -0.04582 0.00821
 O929 O -0.01612 -0.01688 -0.02361
 O930 O -0.01482 0.00943 -0.02211
 O931 O 0.03653 -0.00578 0.04566
 O932 O 0.03225 -0.03287 0.04579
 O933 O -0.00681 0.01278 0.05976
 O934 O -0.03300 0.00852 0.04965
 O935 O 0.01594 0.03126 0.02047
 O936 O 0.01938 0.02239 -0.00719
 Zr937 Zr 0.01735 0.00814 0.01264
 O938 O 0.00637 -0.00741 -0.00324
 Zr939 Zr -0.01300 0.00945 0.03583
 O940 O -0.02530 -0.00608 0.02101
 Zr941 Zr 0.01489 -0.01617 0.04220
 O942 O 0.00384 -0.03286 0.02763
 Zr943 Zr -0.01751 -0.00453 -0.00218
 O944 O -0.00651 0.01253 0.01220
 Zr945 Zr 0.01026 -0.03010 0.00403
 O946 O 0.02281 -0.01458 0.01893
 Zr947 Zr -0.01994 -0.02871 0.02756
 O948 O -0.00902 -0.01312 0.04360
 O949 O 0.01068 0.00646 0.03595
 O950 O -0.01344 -0.02720 0.00412
 C951 C 0.04348 0.00468 0.03804
 C952 C 0.00633 0.03854 0.02927
 C953 C 0.00300 0.00605 0.06877
 C954 C -0.04511 -0.02668 0.00109
 C955 C -0.00732 -0.02790 -0.02825
 C956 C -0.01075 -0.05851 0.00897
 H957 H 0.01002 -0.00570 -0.01405
 H958 H 0.00638 -0.04326 0.03142
 H959 H 0.01597 0.01399 0.04308
 H960 H -0.03644 -0.00389 0.02150
 H961 H -0.03128 0.02184 -0.00126
 H962 H -0.03750 0.02251 0.02467
 H963 H 0.02555 -0.05237 0.01708
 H964 H 0.03793 -0.03372 0.03578
 H965 H -0.01037 0.01925 -0.01817
 H966 H 0.01052 0.02955 -0.00718
 H967 H -0.01237 -0.04954 0.04783
 H968 H 0.00222 -0.03178 0.06396
 H969 H 0.04166 -0.00309 -0.00025
 H970 H 0.02968 -0.02216 -0.01716
 H971 H -0.03192 -0.00059 0.05640
 H972 H -0.04574 -0.01956 0.03961
 O973 O 0.03226 0.52018 0.50919
 O974 O 0.02902 0.51722 0.48118
 O975 O -0.00814 0.54551 0.52242
 O976 O -0.03345 0.54285 0.51981
 O977 O 0.00592 0.50578 0.54843
 O978 O 0.00349 0.47851 0.54349
 O979 O -0.04828 0.50438 0.48012
 O980 O -0.04094 0.53094 0.48175
 O981 O -0.00967 0.48034 0.46418
 O982 O 0.01812 0.48096 0.47222
 O983 O -0.03213 0.46458 0.50267
 O984 O -0.03326 0.47164 0.53067
 O985 O -0.05104 0.48679 0.49938
 O986 O -0.04758 0.48971 0.52884
 O987 O -0.01237 0.46192 0.48561
 O988 O 0.01596 0.46576 0.49018
 O989 O -0.02675 0.50001 0.46147
 O990 O -0.02185 0.52587 0.46340
 O991 O 0.02943 0.50290 0.52875
 O992 O 0.02194 0.47620 0.52791
 O993 O -0.01127 0.52535 0.54538
 O994 O -0.03807 0.52456 0.53600
 O995 O 0.01265 0.54276 0.50666
 O996 O 0.01356 0.53523 0.47819
 Zr997 Zr 0.01086 0.52013 0.49722
 O998 O -0.00228 0.50648 0.48115
 Zr999 Zr -0.01844 0.52374 0.52160
 O1000 O -0.03283 0.51043 0.50662
 Zr1001 Zr 0.00661 0.49501 0.52586
 O1002 O -0.00681 0.48030 0.51111
 Zr1003 Zr -0.02560 0.51204 0.48321
 O1004 O -0.01234 0.52714 0.49790
 Zr1005 Zr -0.00086 0.48321 0.48740
 O1006 O 0.01387 0.49665 0.50236
 Zr1007 Zr -0.02999 0.48708 0.51203
 O1008 O -0.01680 0.50058 0.52829
 O1009 O 0.00475 0.51817 0.52068
 O1010 O -0.02409 0.48879 0.48846
 C1011 C 0.03731 0.51276 0.52120
 C1012 C 0.00409 0.55059 0.51614
 C1013 C -0.00183 0.51739 0.55370
 C1014 C -0.05606 0.49436 0.48746
 C1015 C -0.01995 0.48780 0.45636
 C1016 C -0.02443 0.45692 0.49236
 H1017 H 0.00113 0.50813 0.47025
 H1018 H -0.00534 0.46954 0.51439
 H1019 H 0.01110 0.52468 0.52794
 H1020 H -0.04356 0.51398 0.50777
 H1021 H -0.03517 0.54021 0.48535
 H1022 H -0.04122 0.54023 0.51155
 H1023 H 0.01302 0.45947 0.49923
 H1024 H 0.02768 0.47560 0.51793
 H1025 H -0.01532 0.53451 0.46714
 H1026 H 0.00575 0.54347 0.47931
 H1027 H -0.02406 0.46497 0.53136
 H1028 H -0.00705 0.48004 0.54743
 H1029 H 0.03276 0.50652 0.48232
 H1030 H 0.01749 0.48933 0.46450
 H1031 H -0.03771 0.51529 0.54260
 H1032 H -0.05398 0.49864 0.52579
 O1033 O 0.50155 0.05672 0.49521
 O1034 O 0.47465 0.05347 0.49765
 O1035 O 0.51882 0.01983 0.52457
 O1036 O 0.51788 -0.00564 0.52469
 O1037 O 0.53822 0.02838 0.47858
 O1038 O 0.53008 0.02146 0.45231
 O1039 O 0.47278 -0.02464 0.49214
 O1040 O 0.47886 -0.01537 0.51831
 O1041 O 0.45407 0.01191 0.46780
 O1042 O 0.46224 0.03842 0.46238
 O1043 O 0.48791 -0.01607 0.44943
 O1044 O 0.51737 -0.01467 0.45115
 O1045 O 0.49012 -0.03070 0.47320
 O1046 O 0.51824 -0.02753 0.47131
 O1047 O 0.47179 0.00430 0.44609
 O1048 O 0.47700 0.03284 0.44502
 O1049 O 0.45445 -0.00250 0.48993
 O1050 O 0.46271 0.00431 0.51717
 O1051 O 0.51796 0.05114 0.47523
 O1052 O 0.51398 0.03936 0.44945
 O1053 O 0.53867 0.01483 0.50128
 O1054 O 0.53088 -0.01251 0.50392
 O1055 O 0.50238 0.04006 0.52178
 O1056 O 0.47502 0.04043 0.51790
 Zr1057 Zr 0.49103 0.03561 0.49997
 O1058 O 0.47407 0.02106 0.49000
 Zr1059 Zr 0.51596 0.00681 0.50354
 O1060 O 0.49988 -0.00919 0.49408
 Zr1061 Zr 0.51510 0.02733 0.47088
 O1062 O 0.49923 0.01213 0.45971
 Zr1063 Zr 0.47739 -0.00142 0.49818
 O1064 O 0.49345 0.01352 0.50956
 Zr1065 Zr 0.47688 0.01915 0.46543
 O1066 O 0.49267 0.03531 0.47517
 Zr1067 Zr 0.50154 -0.00988 0.46933
 O1068 O 0.51883 0.00485 0.47897
 O1069 O 0.51348 0.02907 0.49533
 O1070 O 0.47908 -0.00310 0.47378
 C1071 C 0.51156 0.06056 0.48504
 C1072 C 0.51257 0.03242 0.52953
 C1073 C 0.54517 0.02297 0.49078
 C1074 C 0.47881 -0.03402 0.48205
 C1075 C 0.44758 0.00346 0.47795
 C1076 C 0.47672 -0.00921 0.44237
 H1077 H 0.46386 0.02525 0.49268
 H1078 H 0.50075 0.01185 0.44818
 H1079 H 0.52091 0.03639 0.50025
 H1080 H 0.50161 -0.01942 0.49869
 H1081 H 0.48528 -0.00970 0.52623
 H1082 H 0.51050 -0.01425 0.52385
 H1083 H 0.48425 0.02814 0.43745
 H1084 H 0.50423 0.04525 0.44953
 H1085 H 0.45679 0.01362 0.51435
 H1086 H 0.47525 0.03150 0.52498
 H1087 H 0.51400 -0.00906 0.44165
 H1088 H 0.53364 0.01082 0.45422
 H1089 H 0.47399 0.05581 0.48627
 H1090 H 0.45636 0.03991 0.47218
 H1091 H 0.53628 -0.01284 0.49372
 H1092 H 0.51774 -0.03157 0.48212
 O1093 O 0.53827 0.50732 0.00361
 O1094 O 0.53493 0.49886 -0.02457
 O1095 O 0.50212 0.54040 0.00875
 O1096 O 0.47663 0.54131 0.00619
 O1097 O 0.50878 0.50414 0.04264
 O1098 O 0.50163 0.47712 0.04204
 O1099 O 0.45827 0.49714 -0.02884
 O1100 O 0.46669 0.52367 -0.02911
 O1101 O 0.49068 0.46806 -0.03687
 O1102 O 0.51972 0.46668 -0.02840
 O1103 O 0.46641 0.46210 0.00171
 O1104 O 0.46600 0.47427 0.02884
 O1105 O 0.45153 0.48517 -0.00635
 O1106 O 0.45353 0.49295 0.02217
 O1107 O 0.48666 0.45397 -0.01290
 O1108 O 0.51440 0.45388 -0.00901
 O1109 O 0.48022 0.49064 -0.04503
 O1110 O 0.48760 0.51632 -0.04480
 O1111 O 0.53195 0.49413 0.02547
 O1112 O 0.52044 0.46960 0.02865
 O1113 O 0.49548 0.52554 0.03539
 O1114 O 0.46914 0.52695 0.02544
 O1115 O 0.52219 0.53200 -0.00604
 O1116 O 0.52520 0.52098 -0.02954
 Zr1117 Zr 0.51776 0.50851 -0.00993
 O1118 O 0.50311 0.49501 -0.02455
 Zr1119 Zr 0.48852 0.52081 0.01188
 O1120 O 0.47262 0.50756 -0.00157
 Zr1121 Zr 0.50839 0.48976 0.02228
 O1122 O 0.49358 0.47507 0.00912
 Zr1123 Zr 0.48090 0.50440 -0.02451
 O1124 O 0.49594 0.51913 -0.01167
 Zr1125 Zr 0.50074 0.47331 -0.01447
 O1126 O 0.51682 0.48627 -0.00068
 Zr1127 Zr 0.47168 0.48525 0.00765
 O1128 O 0.48612 0.49918 0.02231
 O1129 O 0.51059 0.51166 0.01320
 O1130 O 0.47877 0.48245 -0.01552
 C1131 C 0.54158 0.50122 0.01696
 C1132 C 0.51473 0.54253 0.00143
 C1133 C 0.50317 0.51763 0.04545
 C1134 C 0.44889 0.48948 -0.02054
 C1135 C 0.48333 0.47632 -0.04696
 C1136 C 0.47354 0.45191 -0.00663
 H1137 H 0.50714 0.49428 -0.03538
 H1138 H 0.49333 0.46491 0.01414
 H1139 H 0.51767 0.51839 0.01944
 H1140 H 0.46242 0.51259 -0.00178
 H1141 H 0.47269 0.53292 -0.02597
 H1142 H 0.46774 0.53842 -0.00066
 H1143 H 0.51177 0.45081 0.00180
 H1144 H 0.52642 0.46635 0.01931
 H1145 H 0.49340 0.52548 -0.04100
 H1146 H 0.51820 0.51831 -0.03849
 H1147 H 0.47335 0.46570 0.03036
 H1148 H 0.49163 0.48143 0.04538
 H1149 H 0.53825 0.48909 -0.01974
 H1150 H 0.51839 0.47131 -0.03891
 H1151 H 0.46760 0.51861 0.03303
 H1152 H 0.44925 0.50248 0.01763
 O1153 O 0.75643 0.26263 0.45422
 O1154 O 0.73004 0.26417 0.46253
 O1155 O 0.78146 0.27561 0.49623
 O1156 O 0.78380 0.26741 0.52108
 O1157 O 0.79450 0.23549 0.46840
 O1158 O 0.78462 0.20937 0.46700
 O1159 O 0.74183 0.23459 0.53606
 O1160 O 0.74808 0.26147 0.53422
 O1161 O 0.71362 0.22504 0.49627
 O1162 O 0.71651 0.22941 0.46734
 O1163 O 0.75011 0.19612 0.50746
 O1164 O 0.77858 0.19730 0.50283
 O1165 O 0.75673 0.21354 0.53111
 O1166 O 0.78305 0.21066 0.52207
 O1167 O 0.73033 0.20142 0.49055
 O1168 O 0.72913 0.21034 0.46341
 O1169 O 0.71904 0.24017 0.51788
 O1170 O 0.72615 0.26499 0.51898
 O1171 O 0.77102 0.24132 0.44930
 O1172 O 0.76624 0.21433 0.45136
 O1173 O 0.79924 0.25153 0.48950
 O1174 O 0.79643 0.24591 0.51756
 O1175 O 0.76185 0.28053 0.47895
 O1176 O 0.73388 0.27868 0.48163
 Zr1177 Zr 0.74913 0.26002 0.47763
 O1178 O 0.73402 0.24728 0.49135
 Zr1179 Zr 0.77848 0.25233 0.50183
 O1180 O 0.76466 0.23901 0.51641
 Zr1181 Zr 0.77120 0.22941 0.47068
 O1182 O 0.75681 0.21522 0.48381
 Zr1183 Zr 0.74189 0.24680 0.51490
 O1184 O 0.75596 0.26145 0.50168
 Zr1185 Zr 0.73433 0.22413 0.48370
 O1186 O 0.74830 0.23720 0.46877
 Zr1187 Zr 0.76377 0.21615 0.50769
 O1188 O 0.77927 0.22908 0.49423
 O1189 O 0.77169 0.25230 0.47823
 O1190 O 0.74108 0.22381 0.50743
 C1191 C 0.76489 0.25415 0.44524
 C1192 C 0.77392 0.28451 0.48694
 C1193 C 0.80331 0.24443 0.47676
 C1194 C 0.74825 0.22189 0.54013
 C1195 C 0.70995 0.23177 0.50936
 C1196 C 0.73755 0.19254 0.50007
 H1197 H 0.72364 0.25190 0.49068
 H1198 H 0.75715 0.20461 0.47940
 H1199 H 0.77842 0.25875 0.47182
 H1200 H 0.76869 0.23968 0.52739
 H1201 H 0.75231 0.27097 0.52976
 H1202 H 0.77773 0.26411 0.53016
 H1203 H 0.73758 0.20281 0.46207
 H1204 H 0.75568 0.21684 0.44772
 H1205 H 0.72989 0.27384 0.51305
 H1206 H 0.73767 0.28445 0.49110
 H1207 H 0.77454 0.19175 0.49333
 H1208 H 0.79085 0.20801 0.47676
 H1209 H 0.72885 0.25492 0.45560
 H1210 H 0.71172 0.23921 0.47086
 H1211 H 0.80046 0.23587 0.51368
 H1212 H 0.78498 0.21955 0.52930
 O1213 O 0.74722 0.76173 -0.03764
 O1214 O 0.72237 0.76055 -0.02630
 O1215 O 0.77391 0.78441 -0.00139
 O1216 O 0.77993 0.78094 0.02405
 O1217 O 0.79141 0.74353 -0.02449
 O1218 O 0.78629 0.71675 -0.02220
 O1219 O 0.74494 0.74311 0.04829
 O1220 O 0.74664 0.76986 0.04339
 O1221 O 0.71727 0.72361 0.01370
 O1222 O 0.71648 0.72349 -0.01542
 O1223 O 0.75984 0.70381 0.02452
 O1224 O 0.78645 0.70936 0.01759
 O1225 O 0.76361 0.72503 0.04493
 O1226 O 0.78998 0.72692 0.03318
 O1227 O 0.73764 0.70313 0.01001
 O1228 O 0.73293 0.70756 -0.01878
 O1229 O 0.72088 0.74281 0.03204
 O1230 O 0.72530 0.77044 0.02884
 O1231 O 0.76584 0.74363 -0.04153
 O1232 O 0.76543 0.71628 -0.03533
 O1233 O 0.79513 0.76296 -0.00640
 O1234 O 0.79561 0.76110 0.02271
 O1235 O 0.75186 0.78377 -0.01623
 O1236 O 0.72580 0.77790 -0.00893
 Zr1237 Zr 0.74326 0.76144 -0.01324
 O1238 O 0.73211 0.74813 0.00349
 Zr1239 Zr 0.77569 0.76231 0.00809
 O1240 O 0.76577 0.74939 0.02606
 Zr1241 Zr 0.76988 0.73447 -0.01891
 O1242 O 0.76014 0.72009 -0.00206
 Zr1243 Zr 0.74188 0.75268 0.02594
 O1244 O 0.75200 0.76733 0.00944
 Zr1245 Zr 0.73649 0.72465 -0.00091
 O1246 O 0.74595 0.73788 -0.01903
 Zr1247 Zr 0.76873 0.72584 0.02068
 O1248 O 0.78007 0.73881 0.00348
 O1249 O 0.76680 0.75783 -0.01442
 O1250 O 0.74509 0.72918 0.02180
 C1251 C 0.75662 0.75420 -0.04644
 C1252 C 0.76397 0.79054 -0.01076
 C1253 C 0.79926 0.75471 -0.01840
 C1254 C 0.75377 0.73238 0.05340
 C1255 C 0.71323 0.73152 0.02593
 C1256 C 0.74748 0.69716 0.01958
 H1257 H 0.72100 0.75044 0.00309
 H1258 H 0.76225 0.70922 -0.00494
 H1259 H 0.77164 0.76428 -0.02243
 H1260 H 0.77034 0.75233 0.03645
 H1261 H 0.75045 0.77894 0.03779
 H1262 H 0.77586 0.77805 0.03440
 H1263 H 0.74217 0.70090 -0.01908
 H1264 H 0.75452 0.71725 -0.03864
 H1265 H 0.71698 0.76875 0.02092
 H1266 H 0.72886 0.78363 0.00085
 H1267 H 0.78360 0.70272 0.00837
 H1268 H 0.79317 0.71714 -0.01278
 H1269 H 0.72178 0.75011 -0.03120
 H1270 H 0.71037 0.73292 -0.01333
 H1271 H 0.80113 0.75154 0.01966
 H1272 H 0.78954 0.73575 0.04074
 O1273 O 1.03497 0.23017 0.22845
 O1274 O 1.03313 0.23320 0.25688
 O1275 O 0.99170 0.20896 0.21637
 O1276 O 0.96687 0.21466 0.21814
 O1277 O 1.00903 0.24744 0.18998
 O1278 O 1.00871 0.27477 0.19484
 O1279 O 0.95819 0.25564 0.25935
 O1280 O 0.96114 0.22821 0.25690
 O1281 O 1.00013 0.27306 0.27453
 O1282 O 1.02703 0.27013 0.26527
 O1283 O 0.97577 0.29141 0.23823
 O1284 O 0.97518 0.28564 0.20814
 O1285 O 0.95549 0.27164 0.23854
 O1286 O 0.95792 0.27010 0.21011
 O1287 O 0.99756 0.29228 0.25342
 O1288 O 1.02501 0.28584 0.24803
 O1289 O 0.98062 0.25604 0.27721
 O1290 O 0.98150 0.22749 0.27309
 O1291 O 1.03298 0.24823 0.20941
 O1292 O 1.02792 0.27534 0.21021
 O1293 O 0.99057 0.22930 0.19287
 O1294 O 0.96401 0.23351 0.20187
 O1295 O 1.01283 0.20938 0.23256
 O1296 O 1.01611 0.21663 0.25957
 Zr1297 Zr 1.01421 0.23232 0.24090
 O1298 O 1.00318 0.24713 0.25719
 Zr1299 Zr 0.98383 0.23191 0.21660
 O1300 O 0.97140 0.24665 0.23186
 Zr1301 Zr 1.01117 0.25802 0.21246
 O1302 O 1.00005 0.27401 0.22745
 Zr1303 Zr 0.97923 0.24422 0.25529
 O1304 O 0.99037 0.22799 0.24030
 Zr1305 Zr 1.00687 0.27006 0.25094
 O1306 O 1.01943 0.25529 0.23574
 Zr1307 Zr 0.97636 0.26967 0.22669
 O1308 O 0.98731 0.25488 0.21016
 O1309 O 1.00745 0.23501 0.21750
 O1310 O 0.98317 0.26708 0.25012
 C1311 C 1.04022 0.23753 0.21666
 C1312 C 1.00315 0.20241 0.22331
 C1313 C 1.00051 0.23638 0.18466
 C1314 C 0.95084 0.26587 0.25141
 C1315 C 0.98936 0.26697 0.28242
 C1316 C 0.98486 0.29804 0.24837
 H1317 H 1.00710 0.24513 0.26797
 H1318 H 1.00238 0.28463 0.22431
 H1319 H 1.01290 0.22772 0.21040
 H1320 H 0.96031 0.24439 0.23081
 H1321 H 0.96470 0.21854 0.25173
 H1322 H 0.95920 0.21841 0.22579
 H1323 H 1.02219 0.29260 0.23918
 H1324 H 1.03418 0.27534 0.22008
 H1325 H 0.99100 0.22963 0.27929
 H1326 H 1.00562 0.21275 0.26131
 H1327 H 0.98283 0.29381 0.21040
 H1328 H 0.99779 0.27463 0.19143
 H1329 H 1.03849 0.24301 0.25503
 H1330 H 1.02632 0.26152 0.27267
 H1331 H 0.96546 0.24248 0.19503
 H1332 H 0.95202 0.26051 0.21131
 O1333 O 0.71092 1.01030 0.74322
 O1334 O 0.71318 1.00801 0.77143
 O1335 O 0.74686 1.04226 0.73365
 O1336 O 0.77233 1.04367 0.73786
 O1337 O 0.74138 1.00107 0.70507
 O1338 O 0.74824 0.97461 0.70896
 O1339 O 0.79111 1.00638 0.77716
 O1340 O 0.78092 1.03200 0.77522
 O1341 O 0.75611 0.97785 0.78899
 O1342 O 0.72868 0.97423 0.77882
 O1343 O 0.78291 0.96565 0.75161
 O1344 O 0.78418 0.97364 0.72343
 O1345 O 0.79774 0.98997 0.75711
 O1346 O 0.79625 0.99295 0.72803
 O1347 O 0.76261 0.95994 0.76689
 O1348 O 0.73488 0.95928 0.76134
 O1349 O 0.76860 1.00042 0.79399
 O1350 O 0.76143 1.02711 0.79074
 O1351 O 0.71780 0.99416 0.72301
 O1352 O 0.72955 0.96914 0.72321
 O1353 O 0.75477 1.02316 0.70991
 O1354 O 0.78064 1.02645 0.72048
 O1355 O 0.72656 1.03632 0.74894
 O1356 O 0.72522 1.02847 0.77566
 Zr1357 Zr 0.73134 1.01386 0.75647
 O1358 O 0.74562 1.00239 0.77275
 Zr1359 Zr 0.76089 1.02243 0.73402
 O1360 O 0.77653 1.01127 0.74933
 Zr1361 Zr 0.74134 0.99014 0.72706
 O1362 O 0.75600 0.97750 0.74206
 Zr1363 Zr 0.76789 1.01161 0.77230
 O1364 O 0.75311 1.02442 0.75741
 Zr1365 Zr 0.74825 0.97932 0.76540
 O1366 O 0.73246 0.99035 0.75005
 Zr1367 Zr 0.77781 0.98774 0.74296
 O1368 O 0.76361 0.99933 0.72644
 O1369 O 0.73891 1.01326 0.73333
 O1370 O 0.77033 0.98839 0.76614
 C1371 C 0.70790 1.00225 0.73062
 C1372 C 0.73398 1.04552 0.74021
 C1373 C 0.74729 1.01382 0.70073
 C1374 C 0.80070 0.99749 0.77003
 C1375 C 0.76386 0.98714 0.79801
 C1376 C 0.77570 0.95678 0.76089
 H1377 H 0.74116 1.00321 0.78338
 H1378 H 0.75646 0.96668 0.73824
 H1379 H 0.73190 1.01883 0.72609
 H1380 H 0.78667 1.01632 0.74911
 H1381 H 0.77480 1.04039 0.77046
 H1382 H 0.78122 1.04177 0.74500
 H1383 H 0.73855 0.95416 0.75156
 H1384 H 0.72330 0.96756 0.73269
 H1385 H 0.75159 1.02359 0.79502
 H1386 H 0.73398 1.03553 0.77759
 H1387 H 0.77690 0.96493 0.72267
 H1388 H 0.75861 0.97785 0.70580
 H1389 H 0.71111 0.99694 0.76947
 H1390 H 0.72811 0.98183 0.78766
 H1391 H 0.78256 1.01694 0.71416
 H1392 H 0.80034 1.00314 0.73137
 O1393 O 0.72638 0.54126 0.25094
 O1394 O 0.73195 0.54240 0.27848
 O1395 O 0.76943 0.55534 0.23143
 O1396 O 0.79373 0.54718 0.23176
 O1397 O 0.74463 0.51638 0.21177
 O1398 O 0.74279 0.49006 0.21932
 O1399 O 0.80371 0.51184 0.27643
 O1400 O 0.80327 0.53837 0.27121
 O1401 O 0.76263 0.50103 0.29702
 O1402 O 0.73514 0.50536 0.29029
 O1403 O 0.77835 0.47415 0.25905
 O1404 O 0.77840 0.47716 0.23026
 O1405 O 0.80076 0.49114 0.25976
 O1406 O 0.79668 0.49182 0.22975
 O1407 O 0.76035 0.47869 0.27773
 O1408 O 0.73313 0.48766 0.27469
 O1409 O 0.78347 0.51669 0.29632
 O1410 O 0.78520 0.54402 0.28851
 O1411 O 0.72361 0.52100 0.23363
 O1412 O 0.72603 0.49358 0.23668
 O1413 O 0.76557 0.53188 0.21071
 O1414 O 0.79263 0.52570 0.21787
 O1415 O 0.75076 0.55955 0.24951
 O1416 O 0.75131 0.55645 0.27776
 Zr1417 Zr 0.74846 0.53839 0.26084
 O1418 O 0.75980 0.52455 0.27744
 Zr1419 Zr 0.77508 0.53188 0.23383
 O1420 O 0.78791 0.51800 0.24951
 Zr1421 Zr 0.74463 0.50902 0.23529
 O1422 O 0.75614 0.49389 0.25064
 Zr1423 Zr 0.78345 0.52457 0.27299
 O1424 O 0.77229 0.53983 0.25735
 Zr1425 Zr 0.75306 0.50150 0.27408
 O1426 O 0.74012 0.51569 0.25880
 Zr1427 Zr 0.77998 0.49521 0.24739
 O1428 O 0.76825 0.50880 0.23047
 O1429 O 0.75154 0.53184 0.23738
 O1430 O 0.77666 0.50166 0.27087
 C1431 C 0.71864 0.53324 0.24071
 C1432 C 0.75959 0.56401 0.23850
 C1433 C 0.75370 0.52528 0.20441
 C1434 C 0.80799 0.49875 0.27073
 C1435 C 0.77450 0.50750 0.30341
 C1436 C 0.77036 0.47009 0.27086
 H1437 H 0.75750 0.52841 0.28820
 H1438 H 0.75228 0.48331 0.24878
 H1439 H 0.74585 0.53867 0.23010
 H1440 H 0.79900 0.51875 0.24737
 H1441 H 0.80021 0.54747 0.26503
 H1442 H 0.80201 0.54359 0.23894
 H1443 H 0.73391 0.47966 0.26624
 H1444 H 0.72114 0.49573 0.24696
 H1445 H 0.77612 0.54423 0.29536
 H1446 H 0.76196 0.56020 0.27679
 H1447 H 0.76811 0.47249 0.23108
 H1448 H 0.75299 0.48876 0.21448
 H1449 H 0.72591 0.53282 0.27911
 H1450 H 0.73758 0.51483 0.29649
 H1451 H 0.78954 0.51587 0.21265
 H1452 H 0.80549 0.49862 0.23234
 O1453 O 0.54004 0.22028 0.74165
 O1454 O 0.52850 0.21778 0.76643
 O1455 O 0.50338 0.20694 0.70941
 O1456 O 0.48027 0.21463 0.70268
 O1457 O 0.53075 0.24771 0.70108
 O1458 O 0.53076 0.27304 0.71183
 O1459 O 0.45864 0.24749 0.74736
 O1460 O 0.46087 0.22125 0.73985
 O1461 O 0.49301 0.25762 0.77949
 O1462 O 0.52044 0.25569 0.78075
 O1463 O 0.48543 0.28618 0.73997
 O1464 O 0.49180 0.28472 0.71260
 O1465 O 0.46402 0.26828 0.73258
 O1466 O 0.47593 0.26897 0.70495
 O1467 O 0.49713 0.28086 0.76345
 O1468 O 0.52604 0.27324 0.76631
 O1469 O 0.47362 0.24162 0.77162
 O1470 O 0.47478 0.21480 0.76091
 O1471 O 0.54615 0.24126 0.72743
 O1472 O 0.54202 0.26873 0.73342
 O1473 O 0.51145 0.23180 0.69272
 O1474 O 0.48300 0.23685 0.69274
 O1475 O 0.51725 0.20195 0.73176
 O1476 O 0.51003 0.20392 0.75940
 Zr1477 Zr 0.51635 0.22257 0.74527
 O1478 O 0.50108 0.23550 0.75927
 Zr1479 Zr 0.49684 0.23008 0.71223
 O1480 O 0.48013 0.24260 0.72491
 Zr1481 Zr 0.52514 0.25323 0.72457
 O1482 O 0.50956 0.26741 0.73704
 Zr1483 Zr 0.47928 0.23510 0.74832
 O1484 O 0.49423 0.22093 0.73495
 Zr1485 Zr 0.50725 0.25889 0.75986
 O1486 O 0.52397 0.24550 0.74788
 Zr1487 Zr 0.48740 0.26559 0.72686
 O1488 O 0.50351 0.25331 0.71297
 O1489 O 0.51872 0.23026 0.72239
 O1490 O 0.48529 0.25824 0.74995
 C1491 C 0.54965 0.22869 0.73447
 C1492 C 0.51133 0.19801 0.71826
 C1493 C 0.52391 0.23931 0.69051
 C1494 C 0.45497 0.26030 0.74098
 C1495 C 0.48034 0.25058 0.78180
 C1496 C 0.48911 0.28957 0.75433
 H1497 H 0.50101 0.23121 0.76998
 H1498 H 0.51323 0.27816 0.73726
 H1499 H 0.52607 0.22392 0.71624
 H1500 H 0.46996 0.24162 0.71963
 H1501 H 0.46548 0.21258 0.73379
 H1502 H 0.47071 0.21646 0.70857
 H1503 H 0.52500 0.28292 0.76043
 H1504 H 0.54494 0.26529 0.74413
 H1505 H 0.48196 0.21442 0.77007
 H1506 H 0.50039 0.19968 0.75475
 H1507 H 0.50209 0.28864 0.71568
 H1508 H 0.52209 0.27484 0.70438
 H1509 H 0.53394 0.22737 0.76962
 H1510 H 0.51907 0.24488 0.78384
 H1511 H 0.48753 0.24636 0.68863
 H1512 H 0.46682 0.26221 0.70444
 O1513 O 0.30936 0.74695 0.48861
 O1514 O 0.30067 0.71884 0.48784
 O1515 O 0.27323 0.77145 0.46929
 O1516 O 0.24747 0.77328 0.47235
 O1517 O 0.29158 0.78495 0.51499
 O1518 O 0.28905 0.77444 0.54120
 O1519 O 0.22572 0.73221 0.50363
 O1520 O 0.23159 0.73838 0.47712
 O1521 O 0.26033 0.70445 0.52034
 O1522 O 0.29026 0.70675 0.51874
 O1523 O 0.24686 0.74110 0.54678
 O1524 O 0.25241 0.76963 0.54670
 O1525 O 0.22745 0.74791 0.52544
 O1526 O 0.23637 0.77420 0.53006
 O1527 O 0.26388 0.72129 0.54451
 O1528 O 0.29035 0.71851 0.54009
 O1529 O 0.24320 0.70946 0.50052
 O1530 O 0.24766 0.71684 0.47476
 O1531 O 0.31095 0.76187 0.51101
 O1532 O 0.30483 0.75621 0.53776
 O1533 O 0.27437 0.78944 0.49508
 O1534 O 0.24683 0.78673 0.49487
 O1535 O 0.28816 0.75004 0.46627
 O1536 O 0.28742 0.72460 0.46719
 Zr1537 Zr 0.28653 0.73873 0.48780
 O1538 O 0.27052 0.72387 0.49797
 Zr1539 Zr 0.26275 0.76853 0.49135
 O1540 O 0.24603 0.75516 0.50226
 Zr1541 Zr 0.28853 0.76140 0.51984
 O1542 O 0.27310 0.74726 0.53171
 Zr1543 Zr 0.24807 0.73217 0.49453
 O1544 O 0.26384 0.74578 0.48223
 Zr1545 Zr 0.27397 0.72455 0.52256
 O1546 O 0.29110 0.73829 0.51225
 Zr1547 Zr 0.25054 0.75458 0.52676
 O1548 O 0.26608 0.76971 0.51609
 O1549 O 0.28517 0.76156 0.49550
 O1550 O 0.25139 0.73174 0.51890
 C1551 C 0.31662 0.75606 0.49832
 C1552 C 0.28268 0.76288 0.46148
 C1553 C 0.28501 0.79377 0.50487
 C1554 C 0.21996 0.73909 0.51577
 C1555 C 0.24888 0.70077 0.51120
 C1556 C 0.25320 0.72865 0.55170
 H1557 H 0.27160 0.71331 0.49352
 H1558 H 0.27554 0.74766 0.54315
 H1559 H 0.29232 0.76844 0.49011
 H1560 H 0.23570 0.75932 0.49979
 H1561 H 0.23729 0.74304 0.46842
 H1562 H 0.23755 0.76839 0.47463
 H1563 H 0.29279 0.72801 0.54624
 H1564 H 0.30908 0.74591 0.53507
 H1565 H 0.25348 0.72185 0.46637
 H1566 H 0.27883 0.71724 0.46771
 H1567 H 0.26011 0.76527 0.55409
 H1568 H 0.27962 0.78083 0.54122
 H1569 H 0.30763 0.71977 0.49718
 H1570 H 0.28614 0.69971 0.51038
 H1571 H 0.24810 0.79033 0.50598
 H1572 H 0.23038 0.77565 0.52016
 O1573 O 0.29557 0.25973 0.98768
 O1574 O 0.29077 0.23333 0.99405
 O1575 O 0.25843 0.27057 0.95654
 O1576 O 0.23268 0.26947 0.95703
 O1577 O 0.27047 0.30158 0.99468
 O1578 O 0.26624 0.30199 1.02242
 O1579 O 0.21311 0.23948 1.00157
 O1580 O 0.22117 0.23615 0.97462
 O1581 O 0.25043 0.22595 1.02959
 O1582 O 0.27737 0.23269 1.03155
 O1583 O 0.22722 0.26750 1.03852
 O1584 O 0.22909 0.29375 1.02737
 O1585 O 0.21003 0.26221 1.01500
 O1586 O 0.21527 0.28936 1.00846
 O1587 O 0.24595 0.25034 1.04503
 O1588 O 0.27504 0.25297 1.04351
 O1589 O 0.23351 0.22106 1.00937
 O1590 O 0.23964 0.21820 0.98301
 O1591 O 0.29264 0.28182 1.00229
 O1592 O 0.28340 0.28616 1.02863
 O1593 O 0.25471 0.29636 0.97354
 O1594 O 0.22751 0.28904 0.97268
 O1595 O 0.27738 0.25372 0.96325
 O1596 O 0.27650 0.22808 0.97514
 Zr1597 Zr 0.27372 0.24942 0.98730
 O1598 O 0.25894 0.23744 1.00212
 Zr1599 Zr 0.24621 0.27412 0.97754
 O1600 O 0.23016 0.26314 0.99183
 Zr1601 Zr 0.26935 0.28182 1.00843
 O1602 O 0.25430 0.27135 1.02408
 Zr1603 Zr 0.23608 0.23985 0.99431
 O1604 O 0.25105 0.25027 0.97811
 Zr1605 Zr 0.25936 0.24773 1.02479
 O1606 O 0.27563 0.25853 1.01051
 Zr1607 Zr 0.23177 0.27255 1.01489
 O1608 O 0.24661 0.28471 1.00016
 O1609 O 0.26881 0.27273 0.98554
 O1610 O 0.23660 0.24920 1.01708
 C1611 C 0.30071 0.27229 0.99410
 C1612 C 0.27031 0.26232 0.95332
 C1613 C 0.26390 0.30516 0.98156
 C1614 C 0.20508 0.24921 1.00959
 C1615 C 0.24015 0.21767 1.02254
 C1616 C 0.23376 0.25816 1.04808
 H1617 H 0.26197 0.22645 1.00227
 H1618 H 0.25522 0.27636 1.03463
 H1619 H 0.27595 0.27810 0.97857
 H1620 H 0.21973 0.26422 0.98718
 H1621 H 0.22734 0.23763 0.96506
 H1622 H 0.22399 0.26301 0.96024
 H1623 H 0.27139 0.26240 1.04904
 H1624 H 0.28875 0.27637 1.03096
 H1625 H 0.24609 0.22008 0.97378
 H1626 H 0.26900 0.22783 0.96623
 H1627 H 0.23699 0.29423 1.03590
 H1628 H 0.25593 0.30606 1.01965
 H1629 H 0.29456 0.23665 1.00467
 H1630 H 0.27848 0.22486 1.02300
 H1631 H 0.22755 0.29711 0.98110
 H1632 H 0.20992 0.28561 0.99873
 C1633 C 0.31304 0.36293 0.78941
 C1634 C 0.30123 0.37256 0.79467
 C1635 C 0.29583 0.38645 0.78637
 C1636 C 0.28143 0.39253 0.79031
 C1637 C 0.27572 0.40562 0.78298
 C1638 C 0.28428 0.41297 0.77141
 C1639 C 0.29885 0.40711 0.76768
 C1640 C 0.30459 0.39396 0.77505
 C1641 C 0.27874 0.42722 0.76384
 C1642 C 0.26331 0.43163 0.76362
 H1643 H 0.29499 0.36945 0.80503
 H1644 H 0.27455 0.38714 0.79916
 H1645 H 0.26476 0.41009 0.78677
 H1646 H 0.30583 0.41277 0.75909
 H1647 H 0.31595 0.38996 0.77202
 H1648 H 0.28717 0.43478 0.75886
 H1649 H 0.31904 0.36559 0.77874
 H1650 H 0.25464 0.42395 0.76788
 C1651 C 0.31995 -0.11599 0.31106
 C1652 C 0.30697 -0.10796 0.31630
 C1653 C 0.29915 -0.09575 0.30724
 C1654 C 0.28980 -0.08520 0.31540
 C1655 C 0.28187 -0.07370 0.30735
 C1656 C 0.28290 -0.07267 0.29085
 C1657 C 0.29221 -0.08324 0.28266
 C1658 C 0.30023 -0.09472 0.29073
 C1659 C 0.27525 -0.06015 0.28207
 C1660 C 0.26271 -0.05190 0.28791
 H1661 H 0.30242 -0.11027 0.32779
 H1662 H 0.28877 -0.08574 0.32811
 H1663 H 0.27526 -0.06548 0.31421
 H1664 H 0.29327 -0.08261 0.26996
 H1665 H 0.30701 -0.10287 0.28396
 H1666 H 0.28012 -0.05690 0.27094
 H1667 H 0.32520 -0.11264 0.30016
 H1668 H 0.25713 -0.05554 0.29851
 C1669 C 0.79541 0.86464 0.80709
 C1670 C 0.80169 0.87342 0.79524
 C1671 C 0.79529 0.88851 0.79058
 C1672 C 0.80143 0.89590 0.77754
 C1673 C 0.79559 0.91007 0.77267
 C1674 C 0.78354 0.91729 0.78087
 C1675 C 0.77741 0.90988 0.79395
 C1676 C 0.78321 0.89565 0.79877
 C1677 C 0.77675 0.93224 0.77608
 C1678 C 0.78306 0.94202 0.76498
 H1679 H 0.81153 0.86899 0.78890
 H1680 H 0.81069 0.89060 0.77100
 H1681 H 0.80046 0.91511 0.76236
 H1682 H 0.76808 0.91512 0.80048
 H1683 H 0.77823 0.89029 0.80890
 H1684 H 0.76632 0.93590 0.78191
 H1685 H 0.79890 0.85692 0.80911
 H1686 H 0.79383 0.93922 0.75945
 C1687 C 0.42560 0.85068 0.32644
 C1688 C 0.42599 0.84755 0.31016
 C1689 C 0.43896 0.83944 0.30258
 C1690 C 0.44290 0.84338 0.28720
 C1691 C 0.45503 0.83597 0.27956
 C1692 C 0.46333 0.82419 0.28708
 C1693 C 0.45952 0.82043 0.30258
 C1694 C 0.44744 0.82794 0.31025
 C1695 C 0.47545 0.81510 0.27903
 C1696 C 0.47667 0.81398 0.26262
 H1697 H 0.41765 0.85282 0.30237
 H1698 H 0.43663 0.85234 0.28111
 H1699 H 0.45781 0.83958 0.26782
 H1700 H 0.46574 0.81145 0.30866
 H1701 H 0.44458 0.82452 0.32204
 H1702 H 0.48216 0.80721 0.28614
 H1703 H 0.43477 0.84622 0.33387
 H1704 H 0.46931 0.82079 0.25508
 C1705 C -0.03433 0.89509 0.80015
 C1706 C -0.03720 0.88863 0.78510
 C1707 C -0.02941 0.87456 0.77902
 C1708 C -0.02965 0.87150 0.76268
 C1709 C -0.02336 0.85787 0.75649
 C1710 C -0.01684 0.84688 0.76659
 C1711 C -0.01621 0.85011 0.78290
 C1712 C -0.02253 0.86373 0.78909
 C1713 C -0.01100 0.83183 0.76065
 C1714 C -0.01648 0.82478 0.74670
 H1715 H -0.04536 0.89409 0.77723
 H1716 H -0.03481 0.87966 0.75465
 H1717 H -0.02365 0.85604 0.74382
 H1718 H -0.01125 0.84184 0.79093
 H1719 H -0.02242 0.86541 0.80178
 H1720 H -0.00336 0.82539 0.76832
 H1721 H -0.02517 0.89034 0.80736
 H1722 H -0.02497 0.83056 0.73946
 C1723 C -0.03991 -0.13978 -0.05396
 C1724 C -0.04187 -0.13427 -0.03848
 C1725 C -0.03349 -0.12099 -0.03126
 C1726 C -0.03965 -0.11383 -0.01778
 C1727 C -0.03253 -0.10103 -0.01066
 C1728 C -0.01884 -0.09518 -0.01674
 C1729 C -0.01255 -0.10246 -0.03013
 C1730 C -0.01974 -0.11527 -0.03731
 C1731 C -0.01142 -0.08103 -0.01010
 C1732 C -0.01515 -0.07434 0.00449
 H1733 H -0.05055 -0.13945 -0.03137
 H1734 H -0.05025 -0.11795 -0.01290
 H1735 H -0.03813 -0.09562 -0.00071
 H1736 H -0.00206 -0.09818 -0.03510
 H1737 H -0.01440 -0.12063 -0.04746
 H1738 H -0.00327 -0.07520 -0.01741
 H1739 H -0.03131 -0.13473 -0.06128
 H1740 H -0.02286 -0.08010 0.01227
 C1741 C -0.04852 0.36706 0.43920
 C1742 C -0.05239 0.37532 0.45297
 C1743 C -0.04536 0.39023 0.45800
 C1744 C -0.05303 0.39941 0.46921
 C1745 C -0.04686 0.41343 0.47458
 C1746 C -0.03266 0.41854 0.46904
 C1747 C -0.02502 0.40943 0.45772
 C1748 C -0.03122 0.39539 0.45230
 C1749 C -0.02570 0.43339 0.47443
 C1750 C -0.03023 0.44148 0.48803
 H1751 H -0.06146 0.37111 0.46025
 H1752 H -0.06396 0.39578 0.47375
 H1753 H -0.05347 0.42022 0.48287
 H1754 H -0.01412 0.41312 0.45317
 H1755 H -0.02473 0.38858 0.44391
 H1756 H -0.01667 0.43814 0.46738
 H1757 H -0.03997 0.37174 0.43155
 H1758 H -0.03887 0.43680 0.49554
 C1759 C 0.44624 -0.12249 0.43262
 C1760 C 0.44342 -0.11477 0.44700
 C1761 C 0.45208 -0.10089 0.45254
 C1762 C 0.44554 -0.09103 0.46397
 C1763 C 0.45320 -0.07772 0.46932
 C1764 C 0.46773 -0.07403 0.46345
 C1765 C 0.47436 -0.08402 0.45222
 C1766 C 0.46673 -0.09733 0.44690
 C1767 C 0.47603 -0.05962 0.46796
 C1768 C 0.47181 -0.04941 0.48016
 H1769 H 0.43415 -0.11853 0.45428
 H1770 H 0.43432 -0.09351 0.46859
 H1771 H 0.44749 -0.07028 0.47777
 H1772 H 0.48552 -0.08151 0.44748
 H1773 H 0.47249 -0.10482 0.43853
 H1774 H 0.48577 -0.05665 0.46086
 H1775 H 0.45501 -0.11808 0.42506
 H1776 H 0.46252 -0.05218 0.48788
 C1777 C 0.45260 0.35993 -0.05497
 C1778 C 0.44620 0.36845 -0.04247
 C1779 C 0.45209 0.38383 -0.03741
 C1780 C 0.44881 0.38964 -0.02221
 C1781 C 0.45466 0.40390 -0.01695
 C1782 C 0.46391 0.41256 -0.02687
 C1783 C 0.46687 0.40691 -0.04214
 C1784 C 0.46084 0.39288 -0.04747
 C1785 C 0.47127 0.42715 -0.02174
 C1786 C 0.46603 0.43694 -0.00967
 H1787 H 0.43688 0.36370 -0.03589
 H1788 H 0.44195 0.38300 -0.01429
 H1789 H 0.45229 0.40785 -0.00504
 H1790 H 0.47384 0.41345 -0.05006
 H1791 H 0.46306 0.38933 -0.05952
 H1792 H 0.48092 0.43083 -0.02862
 H1793 H 0.46255 0.36443 -0.06074
 H1794 H 0.45571 0.43426 -0.00337
 C1795 C 0.78603 0.38196 0.45175
 C1796 C 0.79311 0.37229 0.46269
 C1797 C 0.78813 0.35628 0.46525
 C1798 C 0.79205 0.34932 0.47958
 C1799 C 0.78749 0.33426 0.48251
 C1800 C 0.77906 0.32577 0.47103
 C1801 C 0.77530 0.33267 0.45663
 C1802 C 0.77986 0.34772 0.45370
 C1803 C 0.77357 0.30997 0.47370
 C1804 C 0.77974 0.30023 0.48510
 H1805 H 0.80235 0.37669 0.47015
 H1806 H 0.79847 0.35565 0.48865
 H1807 H 0.79035 0.32949 0.49388
 H1808 H 0.76889 0.32635 0.44755
 H1809 H 0.77706 0.35244 0.44229
 H1810 H 0.76456 0.30559 0.46584
 H1811 H 0.77613 0.37792 0.44500
 H1812 H 0.78945 0.30383 0.49240
 C1813 C 0.81594 0.87113 -0.04890
 C1814 C 0.80158 0.86413 -0.05076
 C1815 C 0.79655 0.85146 -0.04073
 C1816 C 0.78079 0.84916 -0.03869
 C1817 C 0.77560 0.83700 -0.02971
 C1818 C 0.78613 0.82672 -0.02279
 C1819 C 0.80190 0.82915 -0.02465
 C1820 C 0.80709 0.84132 -0.03361
 C1821 C 0.78122 0.81309 -0.01405
 C1822 C 0.76697 0.80607 -0.01645
 H1823 H 0.79334 0.86847 -0.05927
 H1824 H 0.77246 0.85684 -0.04404
 H1825 H 0.76337 0.83576 -0.02821
 H1826 H 0.81025 0.82136 -0.01951
 H1827 H 0.81931 0.84245 -0.03528
 H1828 H 0.78983 0.80733 -0.00688
 H1829 H 0.82342 0.86763 -0.03927
 H1830 H 0.75845 0.81109 -0.02424
 C1831 C 0.79827 0.31598 0.36813
 C1832 C 0.79797 0.30050 0.37222
 C1833 C 0.78877 0.29448 0.38526
 C1834 C 0.78537 0.27871 0.38526
 C1835 C 0.77767 0.27231 0.39787
 C1836 C 0.77344 0.28154 0.41095
 C1837 C 0.77643 0.29741 0.41074
 C1838 C 0.78408 0.30383 0.39808
 C1839 C 0.76650 0.27498 0.42519
 C1840 C 0.76868 0.25967 0.42948
 H1841 H 0.80442 0.29225 0.36521
 H1842 H 0.78878 0.27127 0.37549
 H1843 H 0.77514 0.26014 0.39729
 H1844 H 0.77329 0.30478 0.42066
 H1845 H 0.78675 0.31597 0.39868
 H1846 H 0.76105 0.28286 0.43347
 H1847 H 0.79055 0.32411 0.37375
 H1848 H 0.77509 0.25188 0.42193
 C1849 C 0.79781 0.78500 -0.13773
 C1850 C 0.78521 0.78885 -0.12841
 C1851 C 0.78121 0.77981 -0.11440
 C1852 C 0.76595 0.77952 -0.10938
 C1853 C 0.76196 0.77132 -0.09601
 C1854 C 0.77327 0.76342 -0.08722
 C1855 C 0.78849 0.76363 -0.09233
 C1856 C 0.79246 0.77181 -0.10566
 C1857 C 0.76991 0.75536 -0.07240
 C1858 C 0.75733 0.75893 -0.06299
 H1859 H 0.77780 0.79835 -0.13160
 H1860 H 0.75708 0.78559 -0.11590
 H1861 H 0.75003 0.77119 -0.09270
 H1862 H 0.79744 0.75777 -0.08572
 H1863 H 0.80444 0.77215 -0.10880
 H1864 H 0.77868 0.74775 -0.06773
 H1865 H 0.80410 0.77454 -0.13514
 H1866 H 0.74886 0.76719 -0.06693
 C1867 C 0.29441 0.45724 0.88640
 C1868 C 0.27911 0.45316 0.88369
 C1869 C 0.26989 0.46070 0.87131
 C1870 C 0.25976 0.45181 0.86194
 C1871 C 0.25318 0.45785 0.84824
 C1872 C 0.25667 0.47295 0.84378
 C1873 C 0.26558 0.48228 0.85405
 C1874 C 0.27211 0.47624 0.86773
 C1875 C 0.25235 0.47908 0.82818
 C1876 C 0.24777 0.46988 0.81527
 H1877 H 0.27471 0.44273 0.88866
 H1878 H 0.25764 0.43989 0.86470
 H1879 H 0.24583 0.45046 0.84105
 H1880 H 0.26814 0.49405 0.85109
 H1881 H 0.27935 0.48358 0.87515
 H1882 H 0.25444 0.49119 0.82629
 H1883 H 0.29912 0.46688 0.88022
 H1884 H 0.24513 0.45784 0.81658
 C1885 C 0.28357 -0.04007 0.41009
 C1886 C 0.28940 -0.02811 0.40114
 C1887 C 0.28356 -0.02450 0.38505
 C1888 C 0.28659 -0.00997 0.37887
 C1889 C 0.28139 -0.00620 0.36369
 C1890 C 0.27314 -0.01700 0.35432
 C1891 C 0.27017 -0.03152 0.36047
 C1892 C 0.27544 -0.03532 0.37557
 C1893 C 0.26707 -0.01348 0.33835
 C1894 C 0.27320 -0.00226 0.32873
 H1895 H 0.29840 -0.02084 0.40607
 H1896 H 0.29286 -0.00143 0.38587
 H1897 H 0.28362 0.00523 0.35950
 H1898 H 0.26390 -0.04006 0.35347
 H1899 H 0.27331 -0.04684 0.37956
 H1900 H 0.25779 -0.02059 0.33367
 H1901 H 0.27381 -0.04651 0.40547
 H1902 H 0.28317 0.00424 0.33265
 C1903 C -0.05059 -0.04757 -0.12536
 C1904 C -0.03803 -0.05285 -0.11639
 C1905 C -0.03443 -0.04720 -0.10011
 C1906 C -0.01932 -0.04860 -0.09426
 C1907 C -0.01539 -0.04333 -0.07901
 C1908 C -0.02660 -0.03668 -0.06922
 C1909 C -0.04175 -0.03547 -0.07500
 C1910 C -0.04568 -0.04074 -0.09023
 C1911 C -0.02297 -0.03045 -0.05319
 C1912 C -0.00987 -0.03429 -0.04432
 H1913 H -0.02996 -0.06085 -0.12162
 H1914 H -0.01045 -0.05358 -0.10161
 H1915 H -0.00354 -0.04421 -0.07514
 H1916 H -0.05063 -0.03048 -0.06766
 H1917 H -0.05755 -0.03991 -0.09407
 H1918 H -0.03142 -0.02285 -0.04785
 H1919 H -0.05794 -0.03873 -0.12035
 H1920 H -0.00176 -0.04272 -0.04876
 C1921 C -0.05672 0.42387 0.37884
 C1922 C -0.05798 0.43907 0.38448
 C1923 C -0.04768 0.44569 0.39694
 C1924 C -0.04460 0.46153 0.39700
 C1925 C -0.03579 0.46839 0.40916
 C1926 C -0.03014 0.45957 0.42175
 C1927 C -0.03282 0.44363 0.42145
 C1928 C -0.04155 0.43674 0.40920
 C1929 C -0.02204 0.46670 0.43560
 C1930 C -0.02498 0.48181 0.44073
 H1931 H -0.06617 0.44679 0.37904
 H1932 H -0.04908 0.46864 0.38761
 H1933 H -0.03349 0.48059 0.40866
 H1934 H -0.02860 0.43658 0.43101
 H1935 H -0.04395 0.42455 0.40968
 H1936 H -0.01507 0.45933 0.44302
 H1937 H -0.04722 0.41692 0.38309
 H1938 H -0.03297 0.48886 0.43411
 C1939 C 0.41985 -0.08285 0.39133
 C1940 C 0.42305 -0.06719 0.39009
 C1941 C 0.43398 -0.05880 0.40073
 C1942 C 0.44135 -0.04572 0.39508
 C1943 C 0.45181 -0.03747 0.40465
 C1944 C 0.45502 -0.04206 0.42016
 C1945 C 0.44769 -0.05516 0.42584
 C1946 C 0.43719 -0.06342 0.41627
 C1947 C 0.46594 -0.03351 0.43065
 C1948 C 0.46831 -0.01765 0.42973
 H1949 H 0.41865 -0.06124 0.37984
 H1950 H 0.43917 -0.04200 0.38312
 H1951 H 0.45753 -0.02766 0.39977
 H1952 H 0.44986 -0.05886 0.43781
 H1953 H 0.43147 -0.07321 0.42118
 H1954 H 0.47100 -0.03956 0.44052
 H1955 H 0.42551 -0.08945 0.40045
 H1956 H 0.46183 -0.01104 0.42119
 C1957 C 0.42719 0.41922 -0.11472
 C1958 C 0.42550 0.43438 -0.10922
 C1959 C 0.43538 0.44034 -0.09614
 C1960 C 0.44195 0.45496 -0.09722
 C1961 C 0.45242 0.46029 -0.08569
 C1962 C 0.45644 0.45108 -0.07274
 C1963 C 0.44921 0.43678 -0.07129
 C1964 C 0.43887 0.43139 -0.08291
 C1965 C 0.46738 0.45626 -0.06012
 C1966 C 0.47704 0.46894 -0.06131
 H1967 H 0.41885 0.44255 -0.11599
 H1968 H 0.43920 0.46214 -0.10719
 H1969 H 0.45708 0.47168 -0.08696
 H1970 H 0.45165 0.42970 -0.06118
 H1971 H 0.43359 0.42025 -0.08154
 H1972 H 0.46715 0.45038 -0.04896
 H1973 H 0.43523 0.41186 -0.10847
 H1974 H 0.47749 0.47532 -0.07210
 C1975 C 0.43358 0.81075 0.36388
 C1976 C 0.44873 0.81030 0.35885
 C1977 C 0.45397 0.79978 0.34602
 C1978 C 0.46940 0.79512 0.34594
 C1979 C 0.47484 0.78526 0.33403
 C1980 C 0.46499 0.78010 0.32170
 C1981 C 0.44948 0.78455 0.32190
 C1982 C 0.44401 0.79432 0.33389
 C1983 C 0.47059 0.77079 0.30810
 C1984 C 0.48576 0.77136 0.30313
 H1985 H 0.45734 0.81669 0.36561
 H1986 H 0.47726 0.79902 0.35523
 H1987 H 0.48675 0.78173 0.33459
 H1988 H 0.44167 0.78085 0.31248
 H1989 H 0.43212 0.79793 0.33330
 H1990 H 0.46213 0.76514 0.30045
 H1991 H 0.42520 0.80319 0.35825
 H1992 H 0.49411 0.77815 0.30979
 C1993 C -0.05901 0.80004 0.87252
 C1994 C -0.04576 0.80356 0.86420
 C1995 C -0.04208 0.79669 0.84853
 C1996 C -0.02673 0.79652 0.84378
 C1997 C -0.02270 0.79045 0.82901
 C1998 C -0.03404 0.78460 0.81850
 C1999 C -0.04940 0.78469 0.82326
 C2000 C -0.05343 0.79075 0.83807
 C2001 C -0.03025 0.77822 0.80264
 C2002 C -0.01699 0.78214 0.79463
 H2003 H -0.03722 0.81108 0.86958
 H2004 H -0.01776 0.80098 0.85162
 H2005 H -0.01069 0.79020 0.82602
 H2006 H -0.05836 0.78027 0.81538
 H2007 H -0.06544 0.79103 0.84109
 H2008 H -0.03864 0.77085 0.79671
 H2009 H -0.06689 0.79157 0.86753
 H2010 H -0.00904 0.79042 0.79982
 C2011 C 0.38260 0.81404 0.31306
 C2012 C 0.39107 0.81975 0.30059
 C2013 C 0.40253 0.81080 0.29137
 C2014 C 0.40477 0.79481 0.29283
 C2015 C 0.41536 0.78692 0.28334
 C2016 C 0.42393 0.79484 0.27215
 C2017 C 0.42163 0.81075 0.27074
 C2018 C 0.41108 0.81860 0.28018
 C2019 C 0.43556 0.78730 0.26191
 C2020 C 0.44044 0.77199 0.26294
 H2021 H 0.38923 0.83157 0.29726
 H2022 H 0.39826 0.78823 0.30105
 H2023 H 0.41663 0.77466 0.28482
 H2024 H 0.42806 0.81719 0.26228
 H2025 H 0.40957 0.83087 0.27868
 H2026 H 0.44147 0.79465 0.25383
 H2027 H 0.38505 0.80270 0.31749
 H2028 H 0.43522 0.76428 0.27110
 C2029 C -0.13627 0.79579 0.79834
 C2030 C -0.12880 0.80277 0.78595
 C2031 C -0.11390 0.79706 0.78005
 C2032 C -0.11014 0.79940 0.76425
 C2033 C -0.09629 0.79381 0.75825
 C2034 C -0.08581 0.78598 0.76808
 C2035 C -0.08947 0.78392 0.78396
 C2036 C -0.10331 0.78945 0.78993
 C2037 C -0.07118 0.77949 0.76228
 C2038 C -0.06416 0.78401 0.74844
 H2039 H -0.13434 0.81211 0.77980
 H2040 H -0.11809 0.80529 0.75645
 H2041 H -0.09407 0.79540 0.74588
 H2042 H -0.08154 0.77806 0.79182
 H2043 H -0.10557 0.78790 0.80231
 H2044 H -0.06529 0.77122 0.76967
 H2045 H -0.13137 0.78551 0.80341
 H2046 H -0.06922 0.79293 0.74129
 C2047 C 0.88895 0.29828 0.45205
 C2048 C 0.88166 0.28441 0.44781
 C2049 C 0.86832 0.27792 0.45610
 C2050 C 0.86325 0.26307 0.45171
 C2051 C 0.85033 0.25667 0.45862
 C2052 C 0.84212 0.26507 0.47010
 C2053 C 0.84736 0.27977 0.47472
 C2054 C 0.86022 0.28619 0.46778
 C2055 C 0.82800 0.25917 0.47738
 C2056 C 0.81878 0.24747 0.47074
 H2057 H 0.88589 0.27782 0.43782
 H2058 H 0.86926 0.25638 0.44280
 H2059 H 0.84692 0.24517 0.45497
 H2060 H 0.84125 0.28650 0.48354
 H2061 H 0.86345 0.29772 0.47145
 H2062 H 0.82391 0.26535 0.48774
 H2063 H 0.88549 0.30463 0.46251
 H2064 H 0.82212 0.24153 0.45999
 C2065 C 0.88392 0.80502 -0.05169
 C2066 C 0.87524 0.79212 -0.05618
 C2067 C 0.86157 0.78716 -0.04748
 C2068 C 0.85718 0.77164 -0.04847
 C2069 C 0.84440 0.76649 -0.04038
 C2070 C 0.83554 0.77685 -0.03130
 C2071 C 0.83990 0.79238 -0.03037
 C2072 C 0.85271 0.79753 -0.03843
 C2073 C 0.82182 0.77196 -0.02260
 C2074 C 0.81367 0.75850 -0.02622
 H2075 H 0.87912 0.78478 -0.06580
 H2076 H 0.86381 0.76343 -0.05535
 H2077 H 0.84171 0.75436 -0.04112
 H2078 H 0.83325 0.80062 -0.02353
 H2079 H 0.85543 0.80966 -0.03773
 H2080 H 0.81740 0.77979 -0.01362
 H2081 H 0.88089 0.81156 -0.04117
 H2082 H 0.81720 0.75099 -0.03585
 C2083 C -0.12187 -0.06246 -0.06409
 C2084 C -0.11273 -0.06653 -0.05107
 C2085 C -0.09988 -0.05723 -0.04434
 C2086 C -0.09089 -0.06368 -0.03225
 C2087 C -0.07918 -0.05526 -0.02478
 C2088 C -0.07623 -0.04006 -0.02916
 C2089 C -0.08484 -0.03370 -0.04157
 C2090 C -0.09667 -0.04213 -0.04903
 C2091 C -0.06393 -0.03090 -0.02131
 C2092 C -0.05917 -0.03345 -0.00576
 H2093 H -0.11503 -0.07716 -0.04519
 H2094 H -0.09299 -0.07532 -0.02847
 H2095 H -0.07236 -0.06079 -0.01571
 H2096 H -0.08261 -0.02208 -0.04528
 H2097 H -0.10333 -0.03659 -0.05817
 H2098 H -0.05841 -0.02205 -0.02800
 H2099 H -0.11900 -0.05238 -0.07069
 H2100 H -0.06524 -0.04161 0.00129
 C2101 C -0.14844 0.45112 0.46674
 C2102 C -0.14143 0.46495 0.46336
 C2103 C -0.12637 0.46921 0.47043
 C2104 C -0.12002 0.48355 0.46708
 C2105 C -0.10553 0.48764 0.47309
 C2106 C -0.09703 0.47733 0.48244
 C2107 C -0.10357 0.46316 0.48613
 C2108 C -0.11807 0.45909 0.48016
 C2109 C -0.08142 0.48091 0.48858
 C2110 C -0.07180 0.49153 0.48164
 H2111 H -0.14690 0.47270 0.45509
 H2112 H -0.12627 0.49160 0.45975
 H2113 H -0.10114 0.49891 0.47046
 H2114 H -0.09732 0.45508 0.49343
 H2115 H -0.12263 0.44794 0.48302
 H2116 H -0.07701 0.47425 0.49835
 H2117 H -0.15585 0.44907 0.46248
 H2118 H -0.07562 0.49769 0.47131
 C2119 C 0.35191 -0.03815 0.47681
 C2120 C 0.35977 -0.02580 0.47039
 C2121 C 0.37578 -0.02164 0.47487
 C2122 C 0.38127 -0.00711 0.47080
 C2123 C 0.39650 -0.00298 0.47408
 C2124 C 0.40662 -0.01340 0.48139
 C2125 C 0.40109 -0.02780 0.48573
 C2126 C 0.38589 -0.03198 0.48239
 C2127 C 0.42295 -0.00966 0.48458
 C2128 C 0.43111 0.00053 0.47542
 H2129 H 0.35407 -0.01872 0.46172
 H2130 H 0.37376 0.00107 0.46501
 H2131 H 0.40024 0.00840 0.47096
 H2132 H 0.40868 -0.03602 0.49136
 H2133 H 0.38234 -0.04344 0.48535
 H2134 H 0.42901 -0.01599 0.49367
 H2135 H 0.35723 -0.04436 0.48641
 H2136 H 0.42550 0.00604 0.46552
 C2137 C 0.38120 0.44278 -0.08475
 C2138 C 0.39219 0.43791 -0.07372
 C2139 C 0.40404 0.44845 -0.06713
 C2140 C 0.40929 0.44622 -0.05160
 C2141 C 0.41894 0.45696 -0.04411
 C2142 C 0.42361 0.47013 -0.05208
 C2143 C 0.41914 0.47192 -0.06790
 C2144 C 0.40939 0.46121 -0.07538
 C2145 C 0.43403 0.48148 -0.04450
 C2146 C 0.43473 0.48391 -0.02818
 H2147 H 0.39052 0.42723 -0.06767
 H2148 H 0.40554 0.43638 -0.04507
 H2149 H 0.42282 0.45483 -0.03215
 H2150 H 0.42310 0.48168 -0.07443
 H2151 H 0.40620 0.46298 -0.08760
 H2152 H 0.44223 0.48711 -0.05191
 H2153 H 0.38319 0.45328 -0.09102
 H2154 H 0.42613 0.47888 -0.02080
 C2155 C 0.37192 0.42631 0.80523
 C2156 C 0.36321 0.43889 0.81059
 C2157 C 0.35012 0.44557 0.80150
 C2158 C 0.34501 0.46049 0.80546
 C2159 C 0.33249 0.46709 0.79746
 C2160 C 0.32462 0.45877 0.78540
 C2161 C 0.32973 0.44386 0.78144
 C2162 C 0.34225 0.43728 0.78942
 C2163 C 0.31115 0.46513 0.77667
 C2164 C 0.30231 0.47758 0.78208
 H2165 H 0.36615 0.44430 0.82185
 H2166 H 0.35080 0.46714 0.81474
 H2167 H 0.32919 0.47872 0.80071
 H2168 H 0.32385 0.43714 0.77228
 H2169 H 0.34544 0.42559 0.78627
 H2170 H 0.30743 0.45907 0.76597
 H2171 H 0.36962 0.42145 0.79357
 H2172 H 0.30513 0.48326 0.79323
 C2173 C 0.36345 -0.08196 0.31215
 C2174 C 0.36010 -0.06626 0.31360
 C2175 C 0.34915 -0.05811 0.30301
 C2176 C 0.34960 -0.04196 0.30260
 C2177 C 0.33872 -0.03376 0.29375
 C2178 C 0.32711 -0.04158 0.28512
 C2179 C 0.32696 -0.05773 0.28509
 C2180 C 0.33775 -0.06593 0.29402
 C2181 C 0.31436 -0.03332 0.27715
 C2182 C 0.31177 -0.01768 0.27968
 H2183 H 0.36596 -0.05948 0.32270
 H2184 H 0.35825 -0.03564 0.30936
 H2185 H 0.33922 -0.02131 0.29396
 H2186 H 0.31813 -0.06402 0.27856
 H2187 H 0.33671 -0.07833 0.29425
 H2188 H 0.30564 -0.04003 0.27088
 H2189 H 0.35892 -0.08852 0.30213
 H2190 H 0.30347 -0.01380 0.27686
 C2191 C 0.10196 0.54396 0.72240
 C2192 C 0.11134 0.53319 0.71466
 C2193 C 0.12703 0.52906 0.72012
 C2194 C 0.13407 0.51587 0.71359
 C2195 C 0.14905 0.51179 0.71806
 C2196 C 0.15732 0.52095 0.72909
 C2197 C 0.15029 0.53410 0.73562
 C2198 C 0.13537 0.53821 0.73113
 C2199 C 0.17306 0.51711 0.73448
 C2200 C 0.18309 0.50728 0.72636
 H2201 H 0.10717 0.52763 0.70389
 H2202 H 0.12792 0.50865 0.70505
 H2203 H 0.15394 0.50138 0.71301
 H2204 H 0.15644 0.54137 0.74413
 H2205 H 0.13067 0.54872 0.73613
 H2206 H 0.17716 0.52285 0.74523
 H2207 H 0.10578 0.54933 0.73339
 H2208 H 0.17970 0.50193 0.71520
 C2209 C 0.09885 0.03114 0.23706
 C2210 C 0.10984 0.04016 0.24504
 C2211 C 0.12602 0.03519 0.24703
 C2212 C 0.13505 0.04183 0.25923
 C2213 C 0.15054 0.03780 0.26104
 C2214 C 0.15736 0.02717 0.25049
 C2215 C 0.14831 0.02055 0.23830
 C2216 C 0.13286 0.02457 0.23651
 C2217 C 0.17369 0.02245 0.25181
 C2218 C 0.18485 0.03063 0.26049
 H2219 H 0.10666 0.05135 0.24981
 H2220 H 0.13007 0.05009 0.26744
 H2221 H 0.15698 0.04292 0.27081
 H2222 H 0.15327 0.01239 0.22997
 H2223 H 0.12647 0.01959 0.22661
 H2224 H 0.17717 0.01226 0.24517
 H2225 H 0.10180 0.01951 0.23337
 H2226 H 0.18193 0.04122 0.26670
 C2227 C 0.64795 0.71746 0.21927
 C2228 C 0.63801 0.72782 0.21184
 C2229 C 0.62164 0.72966 0.21609
 C2230 C 0.61403 0.74346 0.21257
 C2231 C 0.59851 0.74549 0.21606
 C2232 C 0.59015 0.73360 0.22295
 C2233 C 0.59777 0.71980 0.22649
 C2234 C 0.61331 0.71778 0.22303
 C2235 C 0.57369 0.73529 0.22694
 C2236 C 0.56389 0.74607 0.21999
 H2237 H 0.64240 0.73518 0.20284
 H2238 H 0.62017 0.75278 0.20723
 H2239 H 0.59324 0.75647 0.21355
 H2240 H 0.59163 0.71044 0.23176
 H2241 H 0.61862 0.70680 0.22550
 H2242 H 0.56901 0.72745 0.23539
 H2243 H 0.64394 0.71114 0.22925
 H2244 H 0.56808 0.75338 0.21083
 C2245 C 0.13301 0.69357 0.70567
 C2246 C 0.12314 0.70403 0.69829
 C2247 C 0.10808 0.70915 0.70446
 C2248 C 0.09810 0.71702 0.69422
 C2249 C 0.08397 0.72257 0.69942
 C2250 C 0.07952 0.72054 0.71512
 C2251 C 0.08934 0.71243 0.72533
 C2252 C 0.10355 0.70686 0.72012
 C2253 C 0.06462 0.72647 0.72095
 C2254 C 0.05711 0.73900 0.71417
 H2255 H 0.12630 0.70845 0.68697
 H2256 H 0.10122 0.71886 0.68208
 H2257 H 0.07651 0.72823 0.69099
 H2258 H 0.08612 0.71062 0.73745
 H2259 H 0.11096 0.70107 0.72848
 H2260 H 0.05960 0.72101 0.73101
 H2261 H 0.12957 0.68809 0.71638
 H2262 H 0.06258 0.74521 0.70487
 C2263 C 0.61054 0.20332 0.52289
 C2264 C 0.62129 0.21329 0.52995
 C2265 C 0.63723 0.21479 0.52428
 C2266 C 0.64547 0.22821 0.52827
 C2267 C 0.66044 0.23020 0.52301
 C2268 C 0.66760 0.21867 0.51378
 C2269 C 0.65940 0.20524 0.50982
 C2270 C 0.64444 0.20323 0.51511
 C2271 C 0.68340 0.22040 0.50786
 C2272 C 0.69428 0.22997 0.51525
 H2273 H 0.61772 0.22099 0.53941
 H2274 H 0.64021 0.23730 0.53530
 H2275 H 0.66619 0.24092 0.52596
 H2276 H 0.66465 0.19619 0.50275
 H2277 H 0.63873 0.19251 0.51214
 H2278 H 0.68677 0.21338 0.49776
 H2279 H 0.61373 0.19641 0.51269
 H2280 H 0.69146 0.23615 0.52605
 C2281 C 0.62414 0.68416 0.04966
 C2282 C 0.63321 0.69596 0.05615
 C2283 C 0.64792 0.70054 0.04924
 C2284 C 0.65316 0.71564 0.05176
 C2285 C 0.66691 0.72043 0.04522
 C2286 C 0.67583 0.71006 0.03622
 C2287 C 0.67066 0.69490 0.03387
 C2288 C 0.65690 0.69013 0.04037
 C2289 C 0.69029 0.71464 0.02878
 C2290 C 0.69886 0.72748 0.03363
 H2291 H 0.62903 0.70271 0.06607
 H2292 H 0.64645 0.72385 0.05857
 H2293 H 0.67028 0.73231 0.04701
 H2294 H 0.67735 0.68667 0.02705
 H2295 H 0.65348 0.67826 0.03860
 H2296 H 0.69466 0.70722 0.01941
 H2297 H 0.62760 0.67841 0.03881
 H2298 H 0.69535 0.73451 0.04363
 C2299 C 0.12702 0.06413 0.06109
 C2300 C 0.12055 0.05068 0.06674
 C2301 C 0.10631 0.04383 0.05979
 C2302 C 0.10352 0.02806 0.06158
 C2303 C 0.09028 0.02121 0.05503
 C2304 C 0.07944 0.03009 0.04667
 C2305 C 0.08217 0.04587 0.04500
 C2306 C 0.09535 0.05271 0.05158
 C2307 C 0.06531 0.02341 0.03939
 C2308 C 0.05842 0.00994 0.04448
 H2309 H 0.12642 0.04452 0.07604
 H2310 H 0.11174 0.02096 0.06788
 H2311 H 0.08875 0.00896 0.05631
 H2312 H 0.07396 0.05300 0.03872
 H2313 H 0.09674 0.06499 0.05039
 H2314 H 0.05947 0.03002 0.03036
 H2315 H 0.12178 0.06959 0.05096
 H2316 H 0.06339 0.00374 0.05428
 C2317 C 0.12964 0.55978 0.54396
 C2318 C 0.12159 0.54625 0.54710
 C2319 C 0.10629 0.54203 0.54024
 C2320 C 0.10107 0.52688 0.54195
 C2321 C 0.08662 0.52234 0.53611
 C2322 C 0.07692 0.53294 0.52851
 C2323 C 0.08215 0.54808 0.52669
 C2324 C 0.09662 0.55263 0.53256
 C2325 C 0.06147 0.52864 0.52211
 C2326 C 0.05304 0.51601 0.52714
 H2327 H 0.12691 0.53793 0.55479
 H2328 H 0.10826 0.51844 0.54779
 H2329 H 0.08325 0.51048 0.53742
 H2330 H 0.07491 0.55649 0.52089
 H2331 H 0.09998 0.56449 0.53124
 H2332 H 0.05615 0.53630 0.51366
 H2333 H 0.12504 0.56774 0.53544
 H2334 H 0.05757 0.50886 0.53644
 C2335 C 0.64016 0.03703 0.53579
 C2336 C 0.63157 0.04382 0.52369
 C2337 C 0.61577 0.03863 0.51939
 C2338 C 0.61006 0.04067 0.50398
 C2339 C 0.59518 0.03589 0.49965
 C2340 C 0.58557 0.02917 0.51081
 C2341 C 0.59128 0.02732 0.52626
 C2342 C 0.60613 0.03202 0.53054
 C2343 C 0.56961 0.02399 0.50708
 C2344 C 0.56152 0.02705 0.49307
 H2345 H 0.63666 0.05277 0.51683
 H2346 H 0.61721 0.04581 0.49519
 H2347 H 0.59143 0.03743 0.48757
 H2348 H 0.58415 0.02234 0.53517
 H2349 H 0.60988 0.03071 0.54268
 H2350 H 0.56365 0.01801 0.51624
 H2351 H 0.63551 0.02711 0.54154
 H2352 H 0.56682 0.03348 0.48386
 C2353 C 0.63577 0.54096 0.03949
 C2354 C 0.62584 0.53039 0.04608
 C2355 C 0.61114 0.52577 0.03828
 C2356 C 0.60425 0.51185 0.04233
 C2357 C 0.59028 0.50730 0.03531
 C2358 C 0.58284 0.51672 0.02421
 C2359 C 0.58973 0.53060 0.02016
 C2360 C 0.60362 0.53518 0.02721
 C2361 C 0.56790 0.51267 0.01668
 C2362 C 0.55727 0.50295 0.02345
 H2363 H 0.62888 0.52524 0.05723
 H2364 H 0.60976 0.50443 0.05087
 H2365 H 0.58548 0.49636 0.03851
 H2366 H 0.58418 0.53812 0.01174
 H2367 H 0.60815 0.54627 0.02417
 H2368 H 0.56456 0.51872 0.00609
 H2369 H 0.63312 0.54545 0.02795
 H2370 H 0.55993 0.49751 0.03454
 C2371 C 0.03366 0.02517 0.17050
 C2372 C 0.02328 0.03118 0.15944
 C2373 C 0.02082 0.02402 0.14357
 C2374 C 0.00699 0.02675 0.13537
 C2375 C 0.00459 0.02069 0.12010
 C2376 C 0.01614 0.01197 0.11261
 C2377 C 0.02990 0.00912 0.12089
 C2378 C 0.03229 0.01515 0.13615
 C2379 C 0.01436 0.00573 0.09626
 C2380 C 0.00395 0.01168 0.08525
 H2381 H 0.01662 0.04134 0.16238
 H2382 H -0.00201 0.03355 0.14082
 H2383 H -0.00637 0.02280 0.11434
 H2384 H 0.03899 0.00247 0.11540
 H2385 H 0.04330 0.01317 0.14186
 H2386 H 0.02220 -0.00328 0.09246
 H2387 H 0.03895 0.01412 0.16792
 H2388 H -0.00343 0.02124 0.08849
 C2389 C 0.03859 0.53906 0.65095
 C2390 C 0.02671 0.54429 0.64120
 C2391 C 0.02291 0.53675 0.62578
 C2392 C 0.00797 0.53810 0.61953
 C2393 C 0.00409 0.53135 0.60486
 C2394 C 0.01521 0.52331 0.59602
 C2395 C 0.03010 0.52181 0.60237
 C2396 C 0.03397 0.52855 0.61701
 C2397 C 0.01181 0.51664 0.58011
 C2398 C 0.00034 0.52252 0.57023
 H2399 H 0.01960 0.55381 0.64516
 H2400 H -0.00077 0.54430 0.62606
 H2401 H -0.00763 0.53238 0.60061
 H2402 H 0.03888 0.51572 0.59579
 H2403 H 0.04574 0.52763 0.62119
 H2404 H 0.01943 0.50781 0.57550
 H2405 H 0.04475 0.52868 0.64757
 H2406 H -0.00664 0.53211 0.57426
 C2407 C 0.55771 0.04256 0.62756
 C2408 C 0.54657 0.04997 0.61823
 C2409 C 0.54242 0.04525 0.60176
 C2410 C 0.52835 0.05033 0.59537
 C2411 C 0.52383 0.04615 0.57995
 C2412 C 0.53343 0.03691 0.57047
 C2413 C 0.54756 0.03194 0.57680
 C2414 C 0.55209 0.03613 0.59223
 C2415 C 0.52888 0.03168 0.55427
 C2416 C 0.51735 0.03864 0.54517
 H2417 H 0.53991 0.05928 0.62331
 H2418 H 0.52068 0.05738 0.60243
 H2419 H 0.51269 0.04994 0.57573
 H2420 H 0.55518 0.02483 0.56974
 H2421 H 0.56321 0.03231 0.59648
 H2422 H 0.53508 0.02199 0.54920
 H2423 H 0.56379 0.03274 0.62265
 H2424 H 0.51165 0.04896 0.54946
 C2425 C 0.54832 0.54235 0.14001
 C2426 C 0.53824 0.54925 0.12929
 C2427 C 0.53237 0.54105 0.11490
 C2428 C 0.51876 0.54615 0.10757
 C2429 C 0.51313 0.53881 0.09379
 C2430 C 0.52118 0.52634 0.08694
 C2431 C 0.53477 0.52127 0.09429
 C2432 C 0.54039 0.52859 0.10800
 C2433 C 0.51602 0.51838 0.07216
 C2434 C 0.50619 0.52499 0.06101
 H2435 H 0.53461 0.56104 0.13137
 H2436 H 0.51242 0.55577 0.11258
 H2437 H 0.50243 0.54288 0.08869
 H2438 H 0.54126 0.51177 0.08921
 H2439 H 0.55123 0.52464 0.11287
 H2440 H 0.52122 0.50732 0.06934
 H2441 H 0.55137 0.53035 0.13833
 H2442 H 0.50146 0.53636 0.06310
 C2443 C 0.19516 0.54278 0.61233
 C2444 C 0.20769 0.54678 0.62212
 C2445 C 0.21270 0.53794 0.63613
 C2446 C 0.22719 0.54104 0.64300
 C2447 C 0.23220 0.53338 0.65653
 C2448 C 0.22273 0.52251 0.66358
 C2449 C 0.20834 0.51926 0.65660
 C2450 C 0.20331 0.52693 0.64312
 C2451 C 0.22719 0.51447 0.67823
 C2452 C 0.23829 0.51987 0.68908
 H2453 H 0.21431 0.55686 0.61944
 H2454 H 0.23468 0.54944 0.63788
 H2455 H 0.24351 0.53598 0.66129
 H2456 H 0.20079 0.51096 0.66181
 H2457 H 0.19192 0.52438 0.63856
 H2458 H 0.22041 0.50456 0.68130
 H2459 H 0.18876 0.53244 0.61454
 H2460 H 0.24471 0.53018 0.68678
 C2461 C 0.19973 0.06946 0.13040
 C2462 C 0.19633 0.05551 0.13732
 C2463 C 0.20445 0.05004 0.15171
 C2464 C 0.20117 0.03533 0.15731
 C2465 C 0.20848 0.02985 0.17095
 C2466 C 0.21919 0.03906 0.17942
 C2467 C 0.22258 0.05371 0.17371
 C2468 C 0.21530 0.05917 0.16004
 C2469 C 0.22710 0.03389 0.19411
 C2470 C 0.22206 0.02174 0.20330
 H2471 H 0.18748 0.04827 0.13193
 H2472 H 0.19294 0.02801 0.15106
 H2473 H 0.20577 0.01835 0.17462
 H2474 H 0.23079 0.06105 0.17994
 H2475 H 0.21811 0.07057 0.15608
 H2476 H 0.23679 0.04063 0.19846
 H2477 H 0.19500 0.07207 0.12276
 H2478 H 0.21188 0.01537 0.19981
 C2479 C 0.71542 0.21273 0.64121
 C2480 C 0.72486 0.20488 0.63054
 C2481 C 0.72819 0.21055 0.61457
 C2482 C 0.74079 0.20437 0.60647
 C2483 C 0.74393 0.20889 0.59111
 C2484 C 0.73436 0.21960 0.58345
 C2485 C 0.72184 0.22587 0.59160
 C2486 C 0.71869 0.22133 0.60693
 C2487 C 0.73710 0.22471 0.56716
 C2488 C 0.74589 0.21643 0.55624
 H2489 H 0.72990 0.19399 0.63381
 H2490 H 0.74827 0.19603 0.61206
 H2491 H 0.75393 0.20409 0.58543
 H2492 H 0.71428 0.23412 0.58597
 H2493 H 0.70859 0.22605 0.61250
 H2494 H 0.73143 0.23518 0.56343
 H2495 H 0.71104 0.22402 0.63835
 H2496 H 0.75104 0.20554 0.55935
 C2497 C 0.71292 0.72017 0.15055
 C2498 C 0.72577 0.71465 0.14248
 C2499 C 0.72921 0.71909 0.12609
 C2500 C 0.74437 0.71800 0.12074
 C2501 C 0.74798 0.72223 0.10537
 C2502 C 0.73641 0.72751 0.09500
 C2503 C 0.72125 0.72838 0.10029
 C2504 C 0.71764 0.72411 0.11558
 C2505 C 0.73957 0.73258 0.07880
 C2506 C 0.75227 0.72791 0.07000
 H2507 H 0.73389 0.70723 0.14845
 H2508 H 0.75348 0.71409 0.12856
 H2509 H 0.75983 0.72164 0.10180
 H2510 H 0.71210 0.73227 0.09250
 H2511 H 0.70574 0.72455 0.11897
 H2512 H 0.73085 0.73959 0.07312
 H2513 H 0.70548 0.72854 0.14498
 H2514 H 0.76059 0.71994 0.07486
 C2515 C 0.55917 0.68660 0.12035
 C2516 C 0.56038 0.70206 0.12483
 C2517 C 0.54985 0.70897 0.13651
 C2518 C 0.54480 0.72419 0.13463
 C2519 C 0.53366 0.73050 0.14459
 C2520 C 0.52754 0.72168 0.15669
 C2521 C 0.53284 0.70658 0.15875
 C2522 C 0.54401 0.70034 0.14889
 C2523 C 0.51614 0.72790 0.16783
 C2524 C 0.51610 0.74328 0.17284
 H2525 H 0.56725 0.70961 0.11782
 H2526 H 0.54913 0.73104 0.12515
 H2527 H 0.52969 0.74212 0.14259
 H2528 H 0.52849 0.69967 0.16817
 H2529 H 0.54801 0.68874 0.15100
 H2530 H 0.50976 0.71966 0.17454
 H2531 H 0.55095 0.67942 0.12614
 H2532 H 0.52325 0.75151 0.16703
 C2533 C 0.05800 0.71556 0.59512
 C2534 C 0.04415 0.71237 0.60244
 C2535 C 0.03850 0.72114 0.61641
 C2536 C 0.02281 0.72069 0.61985
 C2537 C 0.01714 0.72825 0.63330
 C2538 C 0.02715 0.73628 0.64374
 C2539 C 0.04280 0.73692 0.64017
 C2540 C 0.04846 0.72937 0.62673
 C2541 C 0.02188 0.74385 0.65855
 C2542 C 0.00842 0.73986 0.66620
 H2543 H 0.03686 0.70337 0.59752
 H2544 H 0.01488 0.71446 0.61209
 H2545 H 0.00494 0.72781 0.63537
 H2546 H 0.05077 0.74298 0.64803
 H2547 H 0.06069 0.72968 0.62478
 H2548 H 0.02967 0.75189 0.66445
 H2549 H 0.06461 0.72550 0.59898
 H2550 H 0.00084 0.73122 0.66106
 C2551 C 0.56103 0.61868 0.20025
 C2552 C 0.54727 0.62616 0.19645
 C2553 C 0.54309 0.64159 0.20299
 C2554 C 0.52759 0.64605 0.20292
 C2555 C 0.52317 0.66049 0.20895
 C2556 C 0.53424 0.67090 0.21502
 C2557 C 0.54973 0.66645 0.21510
 C2558 C 0.55416 0.65203 0.20905
 C2559 C 0.53006 0.68636 0.22142
 C2560 C 0.51674 0.69414 0.21680
 H2561 H 0.53886 0.62026 0.18901
 H2562 H 0.51883 0.63826 0.19834
 H2563 H 0.51106 0.66329 0.20904
 H2564 H 0.55849 0.67426 0.21965
 H2565 H 0.56627 0.64930 0.20891
 H2566 H 0.53823 0.69221 0.22924
 H2567 H 0.56892 0.62401 0.20868
 H2568 H 0.50905 0.68895 0.20806
 C2569 C 0.04062 0.61395 0.71404
 C2570 C 0.02920 0.62261 0.70654
 C2571 C 0.02594 0.63887 0.71107
 C2572 C 0.01137 0.64507 0.70774
 C2573 C 0.00796 0.66040 0.71175
 C2574 C 0.01919 0.66994 0.71898
 C2575 C 0.03375 0.66373 0.72229
 C2576 C 0.03716 0.64843 0.71829
 C2577 C 0.01623 0.68630 0.72332
 C2578 C 0.00451 0.69510 0.71653
 H2579 H 0.02205 0.61725 0.69744
 H2580 H 0.00253 0.63797 0.70218
 H2581 H -0.00353 0.66459 0.70935
 H2582 H 0.04263 0.67083 0.72778
 H2583 H 0.04868 0.64428 0.72060
 H2584 H 0.02421 0.69190 0.73153
 H2585 H 0.04687 0.61897 0.72401
 H2586 H -0.00306 0.69005 0.70760
 C2587 C 0.05011 0.13335 0.03469
 C2588 C 0.03756 0.12607 0.04129
 C2589 C 0.03359 0.10984 0.03749
 C2590 C 0.01839 0.10493 0.03918
 C2591 C 0.01432 0.08964 0.03579
 C2592 C 0.02549 0.07889 0.03087
 C2593 C 0.04069 0.08381 0.02927
 C2594 C 0.04474 0.09906 0.03264
 C2595 C 0.02184 0.06258 0.02712
 C2596 C 0.00883 0.05507 0.03242
 H2597 H 0.03009 0.13251 0.04910
 H2598 H 0.00961 0.11301 0.04295
 H2599 H 0.00241 0.08643 0.03683
 H2600 H 0.04952 0.07575 0.02558
 H2601 H 0.05668 0.10225 0.03170
 H2602 H 0.03028 0.05595 0.02059
 H2603 H 0.05672 0.12728 0.02581
 H2604 H 0.00062 0.06111 0.03974
 C2605 C 0.06079 0.63484 0.54094
 C2606 C 0.04628 0.62944 0.54465
 C2607 C 0.04061 0.61435 0.53869
 C2608 C 0.02487 0.61252 0.53554
 C2609 C 0.01922 0.59868 0.52913
 C2610 C 0.02923 0.58627 0.52601
 C2611 C 0.04495 0.58802 0.52940
 C2612 C 0.05060 0.60188 0.53577
 C2613 C 0.02375 0.57141 0.51922
 C2614 C 0.00874 0.56626 0.52087
 H2615 H 0.03830 0.63705 0.55062
 H2616 H 0.01697 0.62198 0.53767
 H2617 H 0.00708 0.59792 0.52635
 H2618 H 0.05288 0.57859 0.52725
 H2619 H 0.06275 0.60274 0.53851
 H2620 H 0.03213 0.56370 0.51395
 H2621 H 0.06816 0.62778 0.53358
 H2622 H 0.00056 0.57317 0.52741
 C2623 C 0.52711 0.16108 0.51336
 C2624 C 0.53269 0.15013 0.50257
 C2625 C 0.52558 0.13480 0.49990
 C2626 C 0.52954 0.12606 0.48644
 C2627 C 0.52421 0.11099 0.48424
 C2628 C 0.51492 0.10427 0.49563
 C2629 C 0.51062 0.11316 0.50886
 C2630 C 0.51594 0.12820 0.51106
 C2631 C 0.50964 0.08808 0.49439
 C2632 C 0.51638 0.07678 0.48475
 H2633 H 0.54303 0.15253 0.49621
 H2634 H 0.53694 0.13087 0.47766
 H2635 H 0.52744 0.10473 0.47363
 H2636 H 0.50346 0.10829 0.51781
 H2637 H 0.51291 0.13432 0.52181
 H2638 H 0.50058 0.08470 0.50220
 H2639 H 0.51604 0.15936 0.51863
 H2640 H 0.52572 0.07963 0.47711
 C2641 C 0.54419 0.63400 0.04207
 C2642 C 0.54907 0.62360 0.03046
 C2643 C 0.53938 0.61067 0.02466
 C2644 C 0.54299 0.60316 0.01036
 C2645 C 0.53472 0.59020 0.00517
 C2646 C 0.52279 0.58448 0.01433
 C2647 C 0.51893 0.59221 0.02838
 C2648 C 0.52723 0.60504 0.03361
 C2649 C 0.51460 0.57012 0.01017
 C2650 C 0.52153 0.55794 0.00202
 H2651 H 0.56059 0.62447 0.02597
 H2652 H 0.55232 0.60724 0.00329
 H2653 H 0.53775 0.58469 -0.00592
 H2654 H 0.50986 0.58792 0.03568
 H2655 H 0.52438 0.61003 0.04499
 H2656 H 0.50356 0.56830 0.01552
 H2657 H 0.53248 0.63365 0.04606
 H2658 H 0.53281 0.55929 -0.00292
 C2659 C 0.71016 0.10142 0.54283
 C2660 C 0.70523 0.11081 0.53049
 C2661 C 0.71311 0.12538 0.52663
 C2662 C 0.71163 0.13108 0.51128
 C2663 C 0.71889 0.14475 0.50721
 C2664 C 0.72769 0.15314 0.51850
 C2665 C 0.72917 0.14744 0.53383
 C2666 C 0.72188 0.13382 0.53792
 C2667 C 0.73550 0.16776 0.51478
 C2668 C 0.73063 0.17736 0.50265
 H2669 H 0.69583 0.10712 0.52283
 H2670 H 0.70497 0.12483 0.50235
 H2671 H 0.71777 0.14853 0.49516
 H2672 H 0.73582 0.15370 0.54277
 H2673 H 0.72294 0.13015 0.55001
 H2674 H 0.74471 0.17165 0.52264
 H2675 H 0.72031 0.10476 0.54960
 H2676 H 0.72072 0.17425 0.49542
 C2677 C 0.69916 0.60872 0.04430
 C2678 C 0.71219 0.61661 0.04974
 C2679 C 0.71678 0.63148 0.04305
 C2680 C 0.73234 0.63555 0.04311
 C2681 C 0.73701 0.64940 0.03657
 C2682 C 0.72610 0.65958 0.03006
 C2683 C 0.71053 0.65556 0.03020
 C2684 C 0.70588 0.64173 0.03669
 C2685 C 0.73037 0.67437 0.02294
 C2686 C 0.74440 0.68175 0.02568
 H2687 H 0.71970 0.61140 0.05843
 H2688 H 0.74094 0.62786 0.04798
 H2689 H 0.74915 0.65186 0.03644
 H2690 H 0.70187 0.66322 0.02538
 H2691 H 0.69373 0.63924 0.03688
 H2692 H 0.72166 0.68016 0.01593
 H2693 H 0.69255 0.61330 0.03451
 H2694 H 0.75303 0.67673 0.03334
 C2695 C 0.20779 0.63450 0.70260
 C2696 C 0.20321 0.62558 0.71521
 C2697 C 0.21120 0.61121 0.71986
 C2698 C 0.20886 0.60553 0.73502
 C2699 C 0.21568 0.59171 0.73966
 C2700 C 0.22490 0.58318 0.72913
 C2701 C 0.22746 0.58898 0.71408
 C2702 C 0.22058 0.60276 0.70941
 C2703 C 0.23171 0.56811 0.73325
 C2704 C 0.22515 0.55841 0.74417
 H2705 H 0.19360 0.62936 0.72222
 H2706 H 0.20173 0.61182 0.74331
 H2707 H 0.21374 0.58783 0.75151
 H2708 H 0.23446 0.58261 0.70574
 H2709 H 0.22236 0.60643 0.69747
 H2710 H 0.24123 0.56385 0.72632
 H2711 H 0.21810 0.63143 0.69634
 H2712 H 0.21493 0.56201 0.75033
 C2713 C 0.20633 0.13431 0.19024
 C2714 C 0.20192 0.12613 0.20337
 C2715 C 0.21113 0.11347 0.21008
 C2716 C 0.20876 0.10960 0.22581
 C2717 C 0.21695 0.09756 0.23264
 C2718 C 0.22777 0.08910 0.22381
 C2719 C 0.23003 0.09287 0.20800
 C2720 C 0.22180 0.10492 0.20116
 C2721 C 0.23593 0.07557 0.23023
 C2722 C 0.23610 0.07191 0.24618
 H2723 H 0.19175 0.12964 0.20964
 H2724 H 0.20045 0.11588 0.23286
 H2725 H 0.21433 0.09478 0.24466
 H2726 H 0.23803 0.08632 0.20084
 H2727 H 0.22358 0.10719 0.18882
 H2728 H 0.24106 0.06755 0.22185
 H2729 H 0.21707 0.13157 0.18458
 H2730 H 0.23150 0.07980 0.25494
 C2731 C 0.71246 1.13966 0.70032
 C2732 C 0.70594 1.13005 0.71136
 C2733 C 0.71244 1.11465 0.71493
 C2734 C 0.70965 1.10814 0.72963
 C2735 C 0.71600 1.09384 0.73349
 C2736 C 0.72516 1.08568 0.72260
 C2737 C 0.72775 1.09209 0.70784
 C2738 C 0.72135 1.10631 0.70395
 C2739 C 0.73248 1.07071 0.72625
 C2740 C 0.72689 1.06066 0.73741
 H2741 H 0.69627 1.13413 0.71814
 H2742 H 0.70278 1.11428 0.73827
 H2743 H 0.71399 1.08943 0.74512
 H2744 H 0.73465 1.08599 0.69919
 H2745 H 0.72331 1.11057 0.69226
 H2746 H 0.74217 1.06708 0.71921
 H2747 H 0.72278 1.13594 0.69440
 H2748 H 0.71655 1.06353 0.74374
 C2749 C 0.72145 0.66086 0.22542
 C2750 C 0.73212 0.65122 0.21800
 C2751 C 0.73610 0.63572 0.22392
 C2752 C 0.75002 0.62877 0.21953
 C2753 C 0.75381 0.61393 0.22452
 C2754 C 0.74362 0.60569 0.23387
 C2755 C 0.72972 0.61267 0.23821
 C2756 C 0.72593 0.62743 0.23323
 C2757 C 0.74684 0.58991 0.23943
 C2758 C 0.75806 0.58004 0.23327
 H2759 H 0.73764 0.65495 0.20741
 H2760 H 0.75800 0.63486 0.21228
 H2761 H 0.76475 0.60911 0.22112
 H2762 H 0.72159 0.60656 0.24530
 H2763 H 0.71484 0.63207 0.23639
 H2764 H 0.73934 0.58553 0.24837
 H2765 H 0.71677 0.65754 0.23660
 H2766 H 0.76538 0.58372 0.22390
 C2767 C 0.54846 0.10105 0.70322
 C2768 C 0.53869 0.11134 0.69547
 C2769 C 0.53462 0.12662 0.70225
 C2770 C 0.52127 0.13400 0.69679
 C2771 C 0.51725 0.14860 0.70264
 C2772 C 0.52670 0.15620 0.71394
 C2773 C 0.54002 0.14881 0.71944
 C2774 C 0.54404 0.13423 0.71358
 C2775 C 0.52308 0.17175 0.72028
 C2776 C 0.51396 0.18229 0.71217
 H2777 H 0.53357 0.10817 0.68415
 H2778 H 0.51386 0.12840 0.68802
 H2779 H 0.50668 0.15374 0.69839
 H2780 H 0.54751 0.15446 0.72809
 H2781 H 0.55471 0.12921 0.71771
 H2782 H 0.52861 0.17536 0.73130
 H2783 H 0.55244 0.10390 0.71510
 H2784 H 0.50907 0.17927 0.70070
 C2785 C 1.04128 0.10445 0.22423
 C2786 C 1.02914 0.11235 0.21700
 C2787 C 1.02639 0.12909 0.21949
 C2788 C 1.01163 0.13506 0.21657
 C2789 C 1.00859 0.15078 0.21878
 C2790 C 1.02035 0.16092 0.22377
 C2791 C 1.03511 0.15495 0.22660
 C2792 C 1.03816 0.13925 0.22438
 C2793 C 1.01769 0.17762 0.22656
 C2794 C 1.00526 0.18578 0.22022
 H2795 H 1.02088 0.10598 0.20981
 H2796 H 1.00237 0.12749 0.21278
 H2797 H 0.99696 0.15481 0.21683
 H2798 H 1.04439 0.16250 0.23041
 H2799 H 1.04980 0.13525 0.22628
 H2800 H 1.02627 0.18389 0.23351
 H2801 H 1.04877 0.11053 0.23254
 H2802 H 0.99698 0.18003 0.21250
 C2803 C 0.20602 0.61673 0.55511
 C2804 C 0.20392 0.62530 0.54145
 C2805 C 0.21375 0.63871 0.53787
 C2806 C 0.21573 0.64281 0.52209
 C2807 C 0.22510 0.65524 0.51833
 C2808 C 0.23255 0.66402 0.53034
 C2809 C 0.23049 0.65996 0.54611
 C2810 C 0.22113 0.64756 0.54987
 C2811 C 0.24241 0.67748 0.52700
 C2812 C 0.24119 0.68585 0.51313
 H2813 H 0.19555 0.62150 0.53263
 H2814 H 0.21019 0.63622 0.51262
 H2815 H 0.22660 0.65773 0.50600
 H2816 H 0.23596 0.66658 0.55561
 H2817 H 0.21953 0.64513 0.56220
 H2818 H 0.24988 0.68184 0.53642
 H2819 H 0.21538 0.61970 0.56316
 H2820 H 0.23291 0.68243 0.50407
 C2821 C 0.18877 0.13358 1.05615
 C2822 C 0.20215 0.14175 1.05997
 C2823 C 0.20715 0.15543 1.05120
 C2824 C 0.22269 0.15961 1.05190
 C2825 C 0.22791 0.17237 1.04377
 C2826 C 0.21760 0.18139 1.03489
 C2827 C 0.20206 0.17724 1.03419
 C2828 C 0.19683 0.16449 1.04234
 C2829 C 0.22267 0.19505 1.02617
 C2830 C 0.23578 0.20345 1.03044
 H2831 H 0.20973 0.13756 1.06919
 H2832 H 0.23088 0.15286 1.05862
 H2833 H 0.24005 0.17492 1.04429
 H2834 H 0.19387 0.18403 1.02749
 H2835 H 0.18468 0.16199 1.04184
 H2836 H 0.21528 0.19924 1.01675
 H2837 H 0.18176 0.13709 1.04618
 H2838 H 0.24253 0.20024 1.04071
 C2839 C 0.19965 0.70444 0.63932
 C2840 C 0.21147 0.69864 0.62994
 C2841 C 0.21715 0.70636 0.61576
 C2842 C 0.22547 0.69760 0.60472
 C2843 C 0.23136 0.70437 0.59132
 C2844 C 0.22922 0.72020 0.58877
 C2845 C 0.22074 0.72894 0.59969
 C2846 C 0.21485 0.72215 0.61313
 C2847 C 0.23535 0.72777 0.57471
 C2848 C 0.24789 0.72197 0.56643
 H2849 H 0.21637 0.68752 0.63259
 H2850 H 0.22734 0.68540 0.60641
 H2851 H 0.23733 0.69709 0.58292
 H2852 H 0.21886 0.74113 0.59794
 H2853 H 0.20879 0.72940 0.62149
 H2854 H 0.23000 0.73840 0.57096
 H2855 H 0.19372 0.71487 0.63600
 H2856 H 0.25395 0.71190 0.57060
 C2857 C 0.20120 0.20457 1.13007
 C2858 C 0.19512 0.21744 1.12254
 C2859 C 0.20299 0.22388 1.10886
 C2860 C 0.20278 0.23981 1.10641
 C2861 C 0.21118 0.24605 1.09412
 C2862 C 0.21980 0.23635 1.08412
 C2863 C 0.21953 0.22042 1.08627
 C2864 C 0.21108 0.21422 1.09836
 C2865 C 0.22943 0.24217 1.07144
 C2866 C 0.22621 0.25554 1.06317
 H2867 H 0.18510 0.22331 1.12708
 H2868 H 0.19651 0.24745 1.11428
 H2869 H 0.21126 0.25841 1.09280
 H2870 H 0.22585 0.21270 1.07851
 H2871 H 0.21095 0.20184 1.09947
 H2872 H 0.23837 0.23453 1.06714
 H2873 H 0.21214 0.20005 1.12614
 H2874 H 0.21663 0.26282 1.06644
 C2875 C 0.69962 0.54158 0.11290
 C2876 C 0.71354 0.54596 0.12010
 C2877 C 0.71920 0.53986 0.13539
 C2878 C 0.73492 0.54092 0.13921
 C2879 C 0.74066 0.53575 0.15371
 C2880 C 0.73070 0.52958 0.16484
 C2881 C 0.71501 0.52840 0.16095
 C2882 C 0.70928 0.53355 0.14645
 C2883 C 0.73607 0.52438 0.18060
 C2884 C 0.74997 0.52885 0.18783
 H2885 H 0.72095 0.55379 0.11405
 H2886 H 0.74282 0.54571 0.13090
 H2887 H 0.75287 0.53655 0.15602
 H2888 H 0.70706 0.52374 0.16930
 H2889 H 0.69705 0.53288 0.14420
 H2890 H 0.72814 0.51765 0.18733
 H2891 H 0.69284 0.53266 0.11810
 H2892 H 0.75780 0.53622 0.18177
 C2893 C 0.70756 1.02899 0.60225
 C2894 C 0.71930 1.03467 0.61218
 C2895 C 0.72350 1.02777 0.62755
 C2896 C 0.73784 1.03127 0.63452
 C2897 C 0.74193 1.02561 0.64935
 C2898 C 0.73164 1.01645 0.65763
 C2899 C 0.71743 1.01273 0.65057
 C2900 C 0.71331 1.01842 0.63577
 C2901 C 0.73524 1.01077 0.67365
 C2902 C 0.74509 1.01851 0.68425
 H2903 H 0.72578 1.04457 0.60864
 H2904 H 0.74592 1.03842 0.62846
 H2905 H 0.75318 1.02836 0.65422
 H2906 H 0.70929 1.00573 0.65672
 H2907 H 0.70197 1.01580 0.63110
 H2908 H 0.72890 1.00094 0.67770
 H2909 H 0.70175 1.01850 0.60524
 H2910 H 0.75063 1.02901 0.68078
 C2911 C 0.53996 0.22135 0.58575
 C2912 C 0.54901 0.22238 0.59949
 C2913 C 0.54247 0.22486 0.61543
 C2914 C 0.55219 0.22945 0.62805
 C2915 C 0.54650 0.23132 0.64334
 C2916 C 0.53091 0.22858 0.64632
 C2917 C 0.52126 0.22378 0.63376
 C2918 C 0.52693 0.22190 0.61852
 C2919 C 0.52429 0.22997 0.66230
 C2920 C 0.53111 0.23812 0.67492
 H2921 H 0.56129 0.22067 0.59864
 H2922 H 0.56426 0.23148 0.62608
 H2923 H 0.55445 0.23458 0.65276
 H2924 H 0.50927 0.22136 0.63575
 H2925 H 0.51910 0.21771 0.60940
 H2926 H 0.51318 0.22474 0.66402
 H2927 H 0.52773 0.22337 0.58632
 H2928 H 0.54178 0.24419 0.67337
 C2929 C 1.04813 0.21019 0.09320
 C2930 C 1.03522 0.20581 0.10162
 C2931 C 1.03007 0.21404 0.11612
 C2932 C 1.01482 0.21234 0.12088
 C2933 C 1.00967 0.21949 0.13477
 C2934 C 1.01978 0.22839 0.14431
 C2935 C 1.03497 0.23021 0.13947
 C2936 C 1.04012 0.22304 0.12562
 C2937 C 1.01513 0.23572 0.15945
 C2938 C 1.00280 0.23076 0.16834
 H2939 H 1.02829 0.19625 0.09734
 H2940 H 1.00684 0.20546 0.11379
 H2941 H 0.99778 0.21808 0.13789
 H2942 H 1.04302 0.23694 0.14664
 H2943 H 1.05208 0.22428 0.12270
 H2944 H 1.02267 0.24447 0.16454
 H2945 H 1.05414 0.22059 0.09685
 H2946 H 0.99554 0.22148 0.16398
 C2947 C 0.64840 0.21154 0.70567
 C2948 C 0.63741 0.20400 0.71444
 C2949 C 0.62199 0.21078 0.71722
 C2950 C 0.61373 0.20652 0.73050
 C2951 C 0.59909 0.21264 0.73326
 C2952 C 0.59232 0.22301 0.72259
 C2953 C 0.60060 0.22722 0.70932
 C2954 C 0.61518 0.22111 0.70657
 C2955 C 0.57673 0.22962 0.72471
 C2956 C 0.56559 0.22299 0.73402
 H2957 H 0.64010 0.19295 0.71948
 H2958 H 0.61869 0.19855 0.73886
 H2959 H 0.59328 0.20934 0.74383
 H2960 H 0.59564 0.23509 0.70086
 H2961 H 0.62089 0.22428 0.69588
 H2962 H 0.57354 0.23947 0.71772
 H2963 H 0.64595 0.22305 0.70166
 H2964 H 0.56818 0.21260 0.74037
 C2965 C 1.13093 0.19138 0.19271
 C2966 C 1.12149 0.20322 0.18727
 C2967 C 1.10678 0.20744 0.19473
 C2968 C 1.09558 0.21507 0.18571
 C2969 C 1.08158 0.21936 0.19232
 C2970 C 1.07860 0.21633 0.20824
 C2971 C 1.08975 0.20863 0.21725
 C2972 C 1.10376 0.20432 0.21063
 C2973 C 1.06394 0.22087 0.21561
 C2974 C 1.05533 0.23339 0.21041
 H2975 H 1.12454 0.20917 0.17670
 H2976 H 1.09760 0.21757 0.17344
 H2977 H 1.07307 0.22481 0.18483
 H2978 H 1.08772 0.20617 0.22952
 H2979 H 1.11226 0.19885 0.21811
 H2980 H 1.06005 0.21447 0.22562
 H2981 H 1.12726 0.18456 0.20249
 H2982 H 1.05967 0.24043 0.20109
 C2983 C 0.12470 0.70067 0.52847
 C2984 C 0.13329 0.71363 0.53284
 C2985 C 0.14871 0.71662 0.52654
 C2986 C 0.15444 0.73168 0.52727
 C2987 C 0.16923 0.73483 0.52213
 C2988 C 0.17867 0.72288 0.51633
 C2989 C 0.17287 0.70788 0.51531
 C2990 C 0.15810 0.70472 0.52049
 C2991 C 0.19466 0.72568 0.51165
 C2992 C 0.20365 0.73697 0.51913
 H2993 H 0.12861 0.72199 0.54111
 H2994 H 0.14745 0.74105 0.53186
 H2995 H 0.17322 0.74661 0.52268
 H2996 H 0.17997 0.69849 0.51095
 H2997 H 0.15434 0.69287 0.52017
 H2998 H 0.19991 0.71776 0.50326
 H2999 H 0.12892 0.69289 0.51938
 H3000 H 0.19886 0.74395 0.52860
 C3001 C 0.11520 0.19957 1.02783
 C3002 C 0.12419 0.21144 1.03438
 C3003 C 0.13929 0.21605 1.02824
 C3004 C 0.14546 0.23021 1.03339
 C3005 C 0.15974 0.23504 1.02820
 C3006 C 0.16821 0.22579 1.01761
 C3007 C 0.16220 0.21148 1.01269
 C3008 C 0.14790 0.20663 1.01792
 C3009 C 0.18356 0.23033 1.01204
 C3010 C 0.18916 0.24536 1.01324
 H3011 H 0.11995 0.21790 1.04446
 H3012 H 0.13921 0.23757 1.04156
 H3013 H 0.16412 0.24586 1.03284
 H3014 H 0.16862 0.20399 1.00480
 H3015 H 0.14389 0.19540 1.01405
 H3016 H 0.19082 0.22143 1.00695
 H3017 H 0.11910 0.19322 1.01753
 H3018 H 0.18202 0.25458 1.01780
 C3019 C 0.62302 0.54713 0.19824
 C3020 C 0.63286 0.55394 0.20950
 C3021 C 0.64818 0.54761 0.21360
 C3022 C 0.65491 0.55184 0.22820
 C3023 C 0.66952 0.54651 0.23241
 C3024 C 0.67784 0.53698 0.22195
 C3025 C 0.67105 0.53261 0.20741
 C3026 C 0.65641 0.53794 0.20319
 C3027 C 0.69346 0.53134 0.22589
 C3028 C 0.70312 0.53881 0.23686
 H3029 H 0.62908 0.56405 0.21601
 H3030 H 0.64880 0.55924 0.23643
 H3031 H 0.67410 0.54975 0.24395
 H3032 H 0.67721 0.52526 0.19916
 H3033 H 0.65181 0.53473 0.19165
 H3034 H 0.69774 0.52135 0.21942
 H3035 H 0.62625 0.53633 0.19260
 H3036 H 0.69945 0.54938 0.24267
 C3037 C 0.60987 1.03234 0.70849
 C3038 C 0.62150 1.02375 0.70134
 C3039 C 0.63617 1.02008 0.70957
 C3040 C 0.64516 1.00779 0.70391
 C3041 C 0.65945 1.00453 0.71088
 C3042 C 0.66516 1.01372 0.72355
 C3043 C 0.65607 1.02588 0.72932
 C3044 C 0.64181 1.02912 0.72238
 C3045 C 0.68054 1.01135 0.73090
 C3046 C 0.69221 1.00264 0.72394
 H3047 H 0.62004 1.01984 0.68919
 H3048 H 0.64110 1.00069 0.69403
 H3049 H 0.66586 0.99482 0.70626
 H3050 H 0.66019 1.03317 0.73902
 H3051 H 0.63553 1.03902 0.72681
 H3052 H 0.68312 1.01763 0.74181
 H3053 H 0.61097 1.03548 0.72089
 H3054 H 0.69022 0.99658 0.71283
 C3055 C 0.86761 0.42807 0.31922
 C3056 C 0.86675 0.44411 0.31907
 C3057 C 0.85526 0.45234 0.30924
 C3058 C 0.85884 0.46694 0.30356
 C3059 C 0.84850 0.47471 0.29367
 C3060 C 0.83427 0.46806 0.28948
 C3061 C 0.83059 0.45362 0.29542
 C3062 C 0.84091 0.44585 0.30525
 C3063 C 0.82297 0.47577 0.27903
 C3064 C 0.82169 0.49173 0.27800
 H3065 H 0.87571 0.45078 0.32496
 H3066 H 0.86981 0.47219 0.30649
 H3067 H 0.85181 0.48573 0.28913
 H3068 H 0.81957 0.44844 0.29263
 H3069 H 0.83751 0.43486 0.30981
 H3070 H 0.81414 0.46867 0.27343
 H3071 H 0.85966 0.42137 0.31193
 H3072 H 0.82940 0.49912 0.28482
 C3073 C 0.89318 0.95487 0.79627
 C3074 C 0.88330 0.96614 0.80241
 C3075 C 0.86881 0.97079 0.79434
 C3076 C 0.86216 0.98511 0.79820
 C3077 C 0.84837 0.98976 0.79099
 C3078 C 0.84086 0.98004 0.77984
 C3079 C 0.84749 0.96572 0.77604
 C3080 C 0.86122 0.96107 0.78326
 C3081 C 0.82622 0.98425 0.77185
 C3082 C 0.81599 0.99547 0.77745
 H3083 H 0.88640 0.97211 0.81333
 H3084 H 0.86774 0.99279 0.80674
 H3085 H 0.84380 1.00100 0.79404
 H3086 H 0.84190 0.95797 0.76759
 H3087 H 0.86560 0.94973 0.78032
 H3088 H 0.82282 0.97734 0.76158
 H3089 H 0.89072 0.94978 0.78474
 H3090 H 0.81862 1.00204 0.78813
 C3091 C 0.36745 0.28564 0.79319
 C3092 C 0.37484 0.28913 0.77916
 C3093 C 0.38878 0.28117 0.77323
 C3094 C 0.39387 0.28460 0.75805
 C3095 C 0.40730 0.27795 0.75214
 C3096 C 0.41599 0.26774 0.76137
 C3097 C 0.41082 0.26415 0.77645
 C3098 C 0.39743 0.27084 0.78239
 C3099 C 0.43043 0.26058 0.75582
 C3100 C 0.43956 0.26660 0.74403
 H3101 H 0.37023 0.29823 0.77198
 H3102 H 0.38745 0.29251 0.75072
 H3103 H 0.41071 0.28076 0.74033
 H3104 H 0.41733 0.25633 0.78382
 H3105 H 0.39421 0.26804 0.79424
 H3106 H 0.43472 0.25079 0.76231
 H3107 H 0.37111 0.27585 0.79996
 H3108 H 0.43614 0.27698 0.73807
 C3109 C 0.87328 0.30487 0.31124
 C3110 C 0.88293 0.30909 0.29907
 C3111 C 0.89543 0.29923 0.29277
 C3112 C 0.90096 0.30237 0.27774
 C3113 C 0.91272 0.29353 0.27118
 C3114 C 0.91940 0.28131 0.27956
 C3115 C 0.91409 0.27833 0.29476
 C3116 C 0.90219 0.28715 0.30131
 C3117 C 0.93243 0.27214 0.27320
 C3118 C 0.93616 0.27185 0.25723
 H3119 H 0.88080 0.31982 0.29318
 H3120 H 0.89616 0.31176 0.27101
 H3121 H 0.91678 0.29673 0.25973
 H3122 H 0.91920 0.26917 0.30160
 H3123 H 0.89860 0.28462 0.31312
 H3124 H 0.93965 0.26590 0.28144
 H3125 H 0.87492 0.29387 0.31680
 H3126 H 0.92884 0.27755 0.24872
 C3127 C 0.37764 0.81205 0.43882
 C3128 C 0.37688 0.81004 0.45508
 C3129 C 0.36541 0.79950 0.46174
 C3130 C 0.36919 0.79103 0.47523
 C3131 C 0.35906 0.77994 0.48076
 C3132 C 0.34496 0.77721 0.47288
 C3133 C 0.34101 0.78603 0.45974
 C3134 C 0.35100 0.79717 0.45433
 C3135 C 0.33396 0.76545 0.47793
 C3136 C 0.33167 0.76190 0.49371
 H3137 H 0.38601 0.81454 0.46267
 H3138 H 0.38019 0.79266 0.48117
 H3139 H 0.36246 0.77326 0.49089
 H3140 H 0.33006 0.78438 0.45368
 H3141 H 0.34741 0.80389 0.44429
 H3142 H 0.32547 0.76155 0.46922
 H3143 H 0.36959 0.80594 0.43111
 H3144 H 0.33907 0.76693 0.50282
 C3145 C 0.39039 0.28864 0.94460
 C3146 C 0.38288 0.29358 0.95825
 C3147 C 0.36851 0.28658 0.96381
 C3148 C 0.36396 0.28963 0.97940
 C3149 C 0.35014 0.28382 0.98491
 C3150 C 0.34053 0.27492 0.97484
 C3151 C 0.34519 0.27166 0.95936
 C3152 C 0.35893 0.27753 0.95382
 C3153 C 0.32551 0.26912 0.97989
 C3154 C 0.31673 0.27657 0.99139
 H3155 H 0.38774 0.30287 0.96537
 H3156 H 0.37110 0.29656 0.98734
 H3157 H 0.34710 0.28626 0.99704
 H3158 H 0.33794 0.26489 0.95137
 H3159 H 0.36170 0.27525 0.94161
 H3160 H 0.32046 0.25963 0.97313
 H3161 H 0.38630 0.27859 0.93809
 H3162 H 0.32108 0.28679 0.99744
 C3163 C 0.78122 0.45790 0.39700
 C3164 C 0.78840 0.46991 0.38929
 C3165 C 0.78291 0.47612 0.37401
 C3166 C 0.78890 0.49016 0.36903
 C3167 C 0.78463 0.49611 0.35437
 C3168 C 0.77437 0.48800 0.34428
 C3169 C 0.76820 0.47410 0.34935
 C3170 C 0.77247 0.46815 0.36397
 C3171 C 0.76989 0.49345 0.32840
 C3172 C 0.77840 0.50397 0.31992
 H3173 H 0.79869 0.47492 0.39448
 H3174 H 0.79696 0.49655 0.37650
 H3175 H 0.78935 0.50706 0.35111
 H3176 H 0.76029 0.46762 0.34179
 H3177 H 0.76783 0.45712 0.36705
 H3178 H 0.76001 0.48806 0.32266
 H3179 H 0.77062 0.45316 0.39224
 H3180 H 0.78870 0.50906 0.32501
 C3181 C 0.80277 0.92908 0.87742
 C3182 C 0.80527 0.94306 0.87010
 C3183 C 0.79554 0.94891 0.85703
 C3184 C 0.79617 0.96462 0.85372
 C3185 C 0.78766 0.97065 0.84118
 C3186 C 0.77825 0.96102 0.83159
 C3187 C 0.77766 0.94527 0.83487
 C3188 C 0.78621 0.93923 0.84744
 C3189 C 0.76988 0.96667 0.81745
 C3190 C 0.76832 0.98222 0.81389
 H3191 H 0.81436 0.95048 0.87456
 H3192 H 0.80342 0.97228 0.86080
 H3193 H 0.78895 0.98275 0.83891
 H3194 H 0.77075 0.93753 0.82751
 H3195 H 0.78575 0.92697 0.84926
 H3196 H 0.76564 0.95815 0.80892
 H3197 H 0.79292 0.92216 0.87399
 H3198 H 0.77212 0.99108 0.82219
 C3199 C 0.31558 0.82173 0.38101
 C3200 C 0.31865 0.80750 0.38778
 C3201 C 0.31004 0.80143 0.40129
 C3202 C 0.31646 0.78923 0.40980
 C3203 C 0.30881 0.78311 0.42259
 C3204 C 0.29442 0.78899 0.42711
 C3205 C 0.28798 0.80119 0.41865
 C3206 C 0.29559 0.80726 0.40578
 C3207 C 0.28625 0.78306 0.44093
 C3208 C 0.28838 0.76812 0.44626
 H3209 H 0.32803 0.80058 0.38331
 H3210 H 0.32756 0.78452 0.40665
 H3211 H 0.31440 0.77402 0.42909
 H3212 H 0.27692 0.80593 0.42191
 H3213 H 0.28994 0.81633 0.39934
 H3214 H 0.27844 0.79073 0.44711
 H3215 H 0.30664 0.82902 0.38579
 H3216 H 0.29545 0.76013 0.43958
 C3217 C 0.29986 0.30104 0.85965
 C3218 C 0.30383 0.28873 0.86929
 C3219 C 0.29549 0.28518 0.88393
 C3220 C 0.29695 0.27044 0.89031
 C3221 C 0.28941 0.26674 0.90419
 C3222 C 0.28033 0.27781 0.91207
 C3223 C 0.27885 0.29251 0.90569
 C3224 C 0.28644 0.29624 0.89190
 C3225 C 0.27231 0.27464 0.92695
 C3226 C 0.27685 0.26324 0.93744
 H3227 H 0.31320 0.28122 0.86593
 H3228 H 0.30388 0.26172 0.88446
 H3229 H 0.29060 0.25518 0.90855
 H3230 H 0.27202 0.30129 0.91158
 H3231 H 0.28538 0.30790 0.88781
 H3232 H 0.26331 0.28259 0.93048
 H3233 H 0.29001 0.30810 0.86254
 H3234 H 0.28645 0.25577 0.93471
 C3235 C 0.45584 0.29495 0.87593
 C3236 C 0.45012 0.28282 0.86650
 C3237 C 0.45706 0.27828 0.85124
 C3238 C 0.45470 0.26332 0.84505
 C3239 C 0.46136 0.25866 0.83079
 C3240 C 0.47047 0.26894 0.82247
 C3241 C 0.47270 0.28389 0.82858
 C3242 C 0.46588 0.28861 0.84264
 C3243 C 0.47818 0.26456 0.80766
 C3244 C 0.47287 0.25318 0.79708
 H3245 H 0.44060 0.27611 0.87057
 H3246 H 0.44790 0.25516 0.85140
 H3247 H 0.45966 0.24694 0.82655
 H3248 H 0.47964 0.29202 0.82235
 H3249 H 0.46748 0.30043 0.84655
 H3250 H 0.48793 0.27146 0.80441
 H3251 H 0.46598 0.30100 0.87233
 H3252 H 0.46254 0.24682 0.79949
 C3253 C 0.94265 0.29727 0.37324
 C3254 C 0.95556 0.30131 0.36473
 C3255 C 0.95988 0.29341 0.34976
 C3256 C 0.97532 0.29335 0.34533
 C3257 C 0.97988 0.28590 0.33138
 C3258 C 0.96897 0.27853 0.32139
 C3259 C 0.95350 0.27870 0.32577
 C3260 C 0.94896 0.28612 0.33974
 C3261 C 0.97318 0.27055 0.30642
 C3262 C 0.98668 0.27344 0.29834
 H3263 H 0.96339 0.30983 0.36968
 H3264 H 0.98395 0.29891 0.35284
 H3265 H 0.99195 0.28578 0.32866
 H3266 H 0.94485 0.27321 0.31825
 H3267 H 0.93688 0.28631 0.34249
 H3268 H 0.96474 0.26293 0.30093
 H3269 H 0.93561 0.28774 0.36907
 H3270 H 0.99482 0.28182 0.30295
 C3271 C 0.43562 0.35623 0.81574
 C3272 C 0.43847 0.35382 0.79972
 C3273 C 0.44916 0.34169 0.79397
 C3274 C 0.45704 0.34389 0.77989
 C3275 C 0.46740 0.33278 0.77428
 C3276 C 0.46988 0.31907 0.78254
 C3277 C 0.46200 0.31689 0.79663
 C3278 C 0.45170 0.32801 0.80226
 C3279 C 0.48013 0.30661 0.77663
 C3280 C 0.48297 0.30422 0.76060
 H3281 H 0.43396 0.36198 0.79131
 H3282 H 0.45533 0.35434 0.77331
 H3283 H 0.47351 0.33507 0.76358
 H3284 H 0.46355 0.30638 0.80311
 H3285 H 0.44554 0.32570 0.81293
 H3286 H 0.48383 0.29788 0.78485
 H3287 H 0.44150 0.34914 0.82431
 H3288 H 0.47818 0.31209 0.75208
 C3289 C 0.92650 0.35691 0.31191
 C3290 C 0.94207 0.35473 0.30890
 C3291 C 0.94764 0.34459 0.29591
 C3292 C 0.96189 0.34775 0.28920
 C3293 C 0.96740 0.33867 0.27667
 C3294 C 0.95878 0.32612 0.27072
 C3295 C 0.94455 0.32298 0.27742
 C3296 C 0.93906 0.33201 0.28996
 C3297 C 0.96442 0.31568 0.25805
 C3298 C 0.97999 0.31263 0.25583
 H3299 H 0.95035 0.36205 0.31504
 H3300 H 0.96869 0.35741 0.29353
 H3301 H 0.97829 0.34161 0.27161
 H3302 H 0.93783 0.31326 0.27317
 H3303 H 0.92823 0.32892 0.29506
 H3304 H 0.95607 0.30822 0.25214
 H3305 H 0.91802 0.35083 0.30469
 H3306 H 0.98854 0.31906 0.26260
 C3307 C 0.28916 0.89326 0.47409
 C3308 C 0.29737 0.88428 0.48487
 C3309 C 0.29432 0.86765 0.48674
 C3310 C 0.29818 0.86059 0.50104
 C3311 C 0.29536 0.84489 0.50308
 C3312 C 0.28878 0.83594 0.49069
 C3313 C 0.28525 0.84297 0.47631
 C3314 C 0.28807 0.85859 0.47429
 C3315 C 0.28475 0.81951 0.49228
 C3316 C 0.29015 0.80990 0.50422
 H3317 H 0.30618 0.88953 0.49234
 H3318 H 0.30316 0.86730 0.51076
 H3319 H 0.29804 0.83997 0.51441
 H3320 H 0.28030 0.83633 0.46653
 H3321 H 0.28551 0.86343 0.46287
 H3322 H 0.27719 0.81461 0.48321
 H3323 H 0.27951 0.88824 0.46766
 H3324 H 0.29844 0.81403 0.51297
 C3325 C 0.31386 0.38778 0.94878
 C3326 C 0.29843 0.38515 0.95202
 C3327 C 0.29312 0.37162 0.96062
 C3328 C 0.27816 0.36624 0.95764
 C3329 C 0.27300 0.35291 0.96475
 C3330 C 0.28272 0.34477 0.97505
 C3331 C 0.29737 0.35062 0.97871
 C3332 C 0.30257 0.36391 0.97154
 C3333 C 0.27801 0.33020 0.98215
 C3334 C 0.26734 0.32023 0.97496
 H3335 H 0.28970 0.39257 0.94703
 H3336 H 0.27056 0.37218 0.94952
 H3337 H 0.26141 0.34908 0.96216
 H3338 H 0.30494 0.34471 0.98688
 H3339 H 0.31394 0.36806 0.97461
 H3340 H 0.28405 0.32663 0.99276
 H3341 H 0.32263 0.38023 0.95350
 H3342 H 0.26192 0.32311 0.96381
 C3343 C 0.81736 0.38096 0.30162
 C3344 C 0.80407 0.38960 0.30456
 C3345 C 0.79938 0.40358 0.29583
 C3346 C 0.78476 0.40986 0.29860
 C3347 C 0.77980 0.42314 0.29097
 C3348 C 0.78943 0.43059 0.28040
 C3349 C 0.80392 0.42415 0.27735
 C3350 C 0.80893 0.41090 0.28506
 C3351 C 0.78500 0.44511 0.27251
 C3352 C 0.77300 0.45471 0.27745
 H3353 H 0.79639 0.38581 0.31356
 H3354 H 0.77710 0.40444 0.30673
 H3355 H 0.76838 0.42737 0.29338
 H3356 H 0.81158 0.42959 0.26923
 H3357 H 0.82035 0.40671 0.28261
 H3358 H 0.79221 0.44895 0.26308
 H3359 H 0.82497 0.38426 0.29236
 H3360 H 0.76601 0.45160 0.28730
   
