data_POSCAR
  _audit_creation_date              2014-09-24
  _audit_creation_method            'ToBaCCo'
  _symmetry_space_group_name_H-M    'P1'
  _symmetry_Int_Tables_number       1
  _symmetry_cell_setting            triclinic
  loop_
  _symmetry_equiv_pos_as_xyz
 x,y,z
_cell_length_a 72.4114
_cell_length_b 72.5391
_cell_length_c 72.6967
_cell_angle_alpha 89.967100
_cell_angle_beta 89.991900
_cell_angle_gamma 89.869700
loop_
  _atom_site_label
  _atom_site_type_symbol
  _atom_site_fract_x
  _atom_site_fract_y
  _atom_site_fract_z
N1 N 0.37177 0.32058 0.33403
 N2 N 0.37149 0.33345 0.32126
 C3 C 0.38578 0.33077 0.30969
 C4 C 0.39541 0.31548 0.31561
 C5 C 0.38623 0.30927 0.33101
 H6 H 0.38892 0.33919 0.29782
 H7 H 0.38974 0.29739 0.33931
 Cu8 Cu 0.35247 0.35241 0.32124
 Cu9 Cu 0.35344 0.31948 0.35364
 Cu10 Cu 0.31950 0.35342 0.35362
 N11 N 0.33349 0.37141 0.32123
 N12 N 0.32061 0.37172 0.33399
 C13 C 0.30930 0.38617 0.33096
 C14 C 0.31552 0.39533 0.31555
 C15 C 0.33082 0.38567 0.30964
 H16 H 0.29741 0.38971 0.33927
 H17 H 0.33926 0.38880 0.29777
 N18 N 0.32079 0.33371 0.37228
 N19 N 0.33369 0.32079 0.37228
 C20 C 0.33082 0.30940 0.38665
 C21 C 0.31548 0.31554 0.39604
 C22 C 0.30938 0.33087 0.38665
 H23 H 0.33915 0.29747 0.39000
 H24 H 0.29746 0.33922 0.39000
 H25 H 0.33246 0.33245 0.33937
 H26 H 0.34741 0.34735 0.35401
 N27 N 0.37227 0.82121 -0.16656
 N28 N 0.37192 0.83403 -0.17937
 C29 C 0.38617 0.83131 -0.19101
 C30 C 0.39584 0.81606 -0.18503
 C31 C 0.38673 0.80989 -0.16957
 H32 H 0.38924 0.83968 -0.20293
 H33 H 0.39027 0.79805 -0.16123
 Cu34 Cu 0.35288 0.85299 -0.17936
 Cu35 Cu 0.35397 0.82014 -0.14691
 Cu36 Cu 0.31997 0.85402 -0.14689
 N37 N 0.33390 0.87201 -0.17934
 N38 N 0.32104 0.87233 -0.16653
 C39 C 0.30975 0.88681 -0.16950
 C40 C 0.31598 0.89597 -0.18491
 C41 C 0.33123 0.88630 -0.19091
 H42 H 0.29791 0.89036 -0.16114
 H43 H 0.33965 0.88941 -0.20279
 N44 N 0.32131 0.83431 -0.12820
 N45 N 0.33427 0.82144 -0.12821
 C46 C 0.33146 0.81005 -0.11384
 C47 C 0.31611 0.81611 -0.10443
 C48 C 0.30993 0.83142 -0.11381
 H49 H 0.33982 0.79814 -0.11051
 H50 H 0.29797 0.83971 -0.11046
 H51 H 0.33290 0.83304 -0.16116
 H52 H 0.34786 0.84798 -0.14658
 N53 N 0.87170 0.32132 -0.16624
 N54 N 0.87141 0.33416 -0.17903
 C55 C 0.88566 0.33142 -0.19064
 C56 C 0.89530 0.31613 -0.18471
 C57 C 0.88614 0.30998 -0.16928
 H58 H 0.88879 0.33982 -0.20253
 H59 H 0.88966 0.29812 -0.16095
 Cu60 Cu 0.85244 0.35319 -0.17902
 Cu61 Cu 0.85338 0.32026 -0.14660
 Cu62 Cu 0.81953 0.35429 -0.14658
 N63 N 0.83351 0.37225 -0.17900
 N64 N 0.82066 0.37261 -0.16619
 C65 C 0.80936 0.38708 -0.16920
 C66 C 0.81558 0.39619 -0.18464
 C67 C 0.83083 0.38650 -0.19061
 H68 H 0.79750 0.39063 -0.16087
 H69 H 0.83923 0.38957 -0.20253
 N70 N 0.82077 0.33458 -0.12793
 N71 N 0.83365 0.32163 -0.12792
 C72 C 0.83070 0.31022 -0.11358
 C73 C 0.81535 0.31637 -0.10422
 C74 C 0.80932 0.33174 -0.11360
 H75 H 0.83897 0.29824 -0.11025
 H76 H 0.79739 0.34009 -0.11028
 H77 H 0.83240 0.33324 -0.16087
 H78 H 0.84741 0.34810 -0.14625
 N79 N 0.87231 0.82191 0.33480
 N80 N 0.87140 0.83403 0.32136
 C81 C 0.88507 0.83061 0.30924
 C82 C 0.89498 0.81565 0.31555
 C83 C 0.88659 0.81039 0.33174
 H84 H 0.88771 0.83842 0.29685
 H85 H 0.89063 0.79914 0.34065
 Cu86 Cu 0.85277 0.85341 0.32134
 Cu87 Cu 0.85539 0.82253 0.35560
 Cu88 Cu 0.81910 0.85373 0.35327
 N89 N 0.83347 0.87210 0.32126
 N90 N 0.82022 0.87202 0.33366
 C91 C 0.80874 0.88631 0.33050
 C92 C 0.81523 0.89573 0.31537
 C93 C 0.83085 0.88643 0.30973
 H94 H 0.79663 0.88959 0.33858
 H95 H 0.83955 0.88983 0.29813
 N96 N 0.82073 0.83425 0.37214
 N97 N 0.83466 0.82250 0.37314
 C98 C 0.83191 0.81108 0.38751
 C99 C 0.81558 0.81603 0.39590
 C100 C 0.80878 0.83067 0.38589
 H101 H 0.84100 0.79994 0.39151
 H102 H 0.79609 0.83812 0.38846
 H103 H 0.83396 0.83302 0.34011
 H104 H 0.84701 0.85002 0.35431
 N105 N 0.62892 0.67980 0.33377
 N106 N 0.62883 0.66657 0.32140
 C107 C 0.61366 0.66835 0.31081
 C108 C 0.60386 0.68347 0.31695
 C109 C 0.61390 0.69051 0.33144
 H110 H 0.61036 0.65974 0.29913
 H111 H 0.61085 0.70282 0.33927
 Cu112 Cu 0.64931 0.64935 0.31919
 Cu113 Cu 0.64929 0.68295 0.35090
 Cu114 Cu 0.67944 0.64585 0.35434
 N115 N 0.66658 0.62891 0.32103
 N116 N 0.67821 0.62748 0.33485
 C117 C 0.68879 0.61237 0.33244
 C118 C 0.68337 0.60396 0.31633
 C119 C 0.66932 0.61475 0.30936
 H120 H 0.69988 0.60808 0.34146
 H121 H 0.66191 0.61261 0.29663
 N122 N 0.67856 0.66597 0.37254
 N123 N 0.66728 0.68023 0.37102
 C124 C 0.67023 0.69180 0.38520
 C125 C 0.68398 0.68443 0.39604
 C126 C 0.68905 0.66814 0.38770
 H127 H 0.66303 0.70470 0.38740
 H128 H 0.69978 0.65878 0.39219
 H129 H 0.67030 0.66745 0.33870
 H130 H 0.65225 0.65489 0.35201
 N131 N 0.62776 0.17783 -0.16566
 N132 N 0.62896 0.16597 -0.17929
 C133 C 0.61473 0.16871 -0.19093
 C134 C 0.60417 0.18301 -0.18416
 C135 C 0.61277 0.18857 -0.16819
 H136 H 0.61240 0.16112 -0.20351
 H137 H 0.60868 0.19985 -0.15934
 Cu138 Cu 0.64921 0.14842 -0.18095
 Cu139 Cu 0.64622 0.17908 -0.14623
 Cu140 Cu 0.68317 0.14873 -0.14952
 N141 N 0.66668 0.12811 -0.17884
 N142 N 0.68005 0.12836 -0.16660
 C143 C 0.69092 0.11346 -0.16901
 C144 C 0.68380 0.10336 -0.18340
 C145 C 0.66850 0.11297 -0.18943
 H146 H 0.70336 0.11057 -0.16128
 H147 H 0.65978 0.10956 -0.20101
 N148 N 0.68059 0.16683 -0.12950
 N149 N 0.66640 0.17822 -0.12806
 C150 C 0.66866 0.18877 -0.11297
 C151 C 0.68493 0.18361 -0.10458
 C152 C 0.69220 0.16976 -0.11533
 H153 H 0.65936 0.19958 -0.10855
 H154 H 0.70504 0.16246 -0.11306
 H155 H 0.66763 0.16954 -0.16191
 H156 H 0.65508 0.15179 -0.14821
 N157 N 0.12825 0.67902 -0.16624
 N158 N 0.12851 0.66615 -0.17899
 C159 C 0.11423 0.66888 -0.19058
 C160 C 0.10464 0.68420 -0.18468
 C161 C 0.11384 0.69038 -0.16928
 H162 H 0.11108 0.66047 -0.20244
 H163 H 0.11034 0.70226 -0.16099
 Cu164 Cu 0.14753 0.64717 -0.17900
 Cu165 Cu 0.14660 0.68008 -0.14664
 Cu166 Cu 0.18056 0.64618 -0.14665
 N167 N 0.16653 0.62816 -0.17901
 N168 N 0.17944 0.62787 -0.16628
 C169 C 0.19080 0.61347 -0.16935
 C170 C 0.18458 0.60432 -0.18475
 C171 C 0.16923 0.61393 -0.19062
 H172 H 0.20271 0.60997 -0.16108
 H173 H 0.16079 0.61081 -0.20248
 N174 N 0.17927 0.66588 -0.12799
 N175 N 0.16634 0.67878 -0.12800
 C176 C 0.16921 0.69019 -0.11367
 C177 C 0.18457 0.68412 -0.10429
 C178 C 0.19069 0.66878 -0.11364
 H179 H 0.16087 0.70212 -0.11035
 H180 H 0.20265 0.66047 -0.11030
 H181 H 0.16757 0.66711 -0.16094
 H182 H 0.15265 0.65221 -0.14625
 N183 N 0.12807 0.17916 0.33410
 N184 N 0.12844 0.16637 0.32128
 C185 C 0.11418 0.16910 0.30966
 C186 C 0.10448 0.18432 0.31563
 C187 C 0.11360 0.19046 0.33109
 H188 H 0.11110 0.16073 0.29775
 H189 H 0.11000 0.20226 0.33945
 Cu190 Cu 0.14745 0.14741 0.32128
 Cu191 Cu 0.14631 0.18017 0.35380
 Cu192 Cu 0.18025 0.14623 0.35380
 N193 N 0.16642 0.12840 0.32128
 N194 N 0.17923 0.12801 0.33411
 C195 C 0.19052 0.11354 0.33111
 C196 C 0.18435 0.10445 0.31565
 C197 C 0.16912 0.11417 0.30967
 H198 H 0.20233 0.10994 0.33948
 H199 H 0.16073 0.11110 0.29776
 N200 N 0.17888 0.16585 0.37253
 N201 N 0.16597 0.17877 0.37253
 C202 C 0.16878 0.19009 0.38694
 C203 C 0.18409 0.18392 0.39636
 C204 C 0.19023 0.16863 0.38694
 H205 H 0.16045 0.20201 0.39029
 H206 H 0.20216 0.16029 0.39029
 H207 H 0.16739 0.16729 0.33955
 H208 H 0.15237 0.15233 0.35407
 N209 N 0.62809 0.32088 0.66635
 N210 N 0.62841 0.33369 0.67916
 C211 C 0.61413 0.33104 0.69075
 C212 C 0.60446 0.31583 0.68479
 C213 C 0.61362 0.30964 0.66936
 H214 H 0.61101 0.33943 0.70265
 H215 H 0.61008 0.29782 0.66103
 Cu216 Cu 0.64745 0.35254 0.67919
 Cu217 Cu 0.64639 0.31978 0.64668
 Cu218 Cu 0.68028 0.35361 0.64670
 N219 N 0.66637 0.37152 0.67919
 N220 N 0.67920 0.37184 0.66638
 C221 C 0.69048 0.38626 0.66938
 C222 C 0.68429 0.39540 0.68482
 C223 C 0.66904 0.38575 0.69079
 H224 H 0.70232 0.38980 0.66103
 H225 H 0.66063 0.38887 0.70268
 N226 N 0.67897 0.33398 0.62799
 N227 N 0.66609 0.32109 0.62798
 C228 C 0.66897 0.30976 0.61357
 C229 C 0.68428 0.31590 0.60417
 C230 C 0.69036 0.33117 0.61359
 H231 H 0.66066 0.29786 0.61020
 H232 H 0.70226 0.33951 0.61025
 H233 H 0.66740 0.33259 0.66090
 H234 H 0.65238 0.34760 0.64639
 N235 N 0.62831 0.82080 1.16641
 N236 N 0.62864 0.83358 1.17924
 C237 C 0.61446 0.83082 1.19092
 C238 C 0.60484 0.81556 1.18500
 C239 C 0.61393 0.80946 1.16949
 H240 H 0.61138 0.83915 1.20287
 H241 H 0.61042 0.79762 1.16117
 Cu242 Cu 0.64762 0.85250 1.17922
 Cu243 Cu 0.64656 0.81977 1.14668
 Cu244 Cu 0.68038 0.85368 1.14667
 N245 N 0.66650 0.87152 1.17920
 N246 N 0.67929 0.87189 1.16635
 C247 C 0.69057 0.88631 1.16935
 C248 C 0.68441 0.89539 1.18482
 C249 C 0.66920 0.88573 1.19082
 H250 H 0.70239 0.88987 1.16098
 H251 H 0.66084 0.88879 1.20277
 N252 N 0.67907 0.83408 1.12793
 N253 N 0.66621 0.82117 1.12793
 C254 C 0.66911 0.80985 1.11352
 C255 C 0.68440 0.81603 1.10411
 C256 C 0.69044 0.83131 1.11353
 H257 H 0.66084 0.79791 1.11017
 H258 H 0.70233 0.83967 1.11019
 H259 H 0.66757 0.83261 1.16087
 H260 H 0.65250 0.84762 1.14641
 N261 N 0.12815 0.32095 1.16627
 N262 N 0.12837 0.33384 1.17900
 C263 C 0.11409 0.33116 1.19058
 C264 C 0.10453 0.31586 1.18470
 C265 C 0.11375 0.30963 1.16933
 H266 H 0.11089 0.33961 1.20242
 H267 H 0.11030 0.29774 1.16106
 Cu268 Cu 0.14726 0.35284 1.17910
 Cu269 Cu 0.14644 0.31988 1.14664
 Cu270 Cu 0.18024 0.35371 1.14659
 N271 N 0.16627 0.37173 1.17895
 N272 N 0.17916 0.37197 1.16619
 C273 C 0.19047 0.38637 1.16920
 C274 C 0.18424 0.39556 1.18458
 C275 C 0.16895 0.38598 1.19052
 H276 H 0.20235 0.38985 1.16088
 H277 H 0.16051 0.38916 1.20238
 N278 N 0.17897 0.33408 1.12792
 N279 N 0.16612 0.32117 1.12794
 C280 C 0.16901 0.30981 1.11355
 C281 C 0.18430 0.31597 1.10412
 C282 C 0.19035 0.33127 1.11352
 H283 H 0.16073 0.29788 1.11022
 H284 H 0.20223 0.33962 1.11016
 H285 H 0.16736 0.33282 1.16100
 H286 H 0.15236 0.34775 1.14633
 N287 N 0.12794 0.82093 0.66601
 N288 N 0.12829 0.83372 0.67884
 C289 C 0.11403 0.83105 0.69045
 C290 C 0.10435 0.81586 0.68447
 C291 C 0.11348 0.80969 0.66901
 H292 H 0.11093 0.83941 0.70237
 H293 H 0.10991 0.79790 0.66066
 Cu294 Cu 0.14730 0.85259 0.67889
 Cu295 Cu 0.14623 0.81985 0.64634
 Cu296 Cu 0.18015 0.85366 0.64641
 N297 N 0.16627 0.87150 0.67893
 N298 N 0.17909 0.87184 0.66610
 C299 C 0.19043 0.88620 0.66918
 C300 C 0.18430 0.89526 0.68468
 C301 C 0.16903 0.88565 0.69061
 H302 H 0.20229 0.88973 0.66084
 H303 H 0.16067 0.88871 0.70256
 N304 N 0.17883 0.83407 0.62768
 N305 N 0.16595 0.82118 0.62765
 C306 C 0.16886 0.80983 0.61326
 C307 C 0.18420 0.81597 0.60390
 C308 C 0.19025 0.83125 0.61333
 H309 H 0.16059 0.79791 0.60990
 H310 H 0.20219 0.83955 0.61003
 H311 H 0.16726 0.83263 0.66062
 H312 H 0.15225 0.84766 0.64609
 N313 N 0.37251 0.67820 0.66557
 N314 N 0.37121 0.66647 0.67931
 C315 C 0.38535 0.66924 0.69102
 C316 C 0.39597 0.68341 0.68417
 C317 C 0.38750 0.68887 0.66808
 H318 H 0.38758 0.66176 0.70370
 H319 H 0.39166 0.70004 0.65915
 Cu320 Cu 0.35101 0.64898 0.68103
 Cu321 Cu 0.35414 0.67940 0.64606
 Cu322 Cu 0.31718 0.64924 0.64942
 N323 N 0.33361 0.62873 0.67890
 N324 N 0.32031 0.62894 0.66658
 C325 C 0.30950 0.61405 0.66901
 C326 C 0.31656 0.60400 0.68351
 C327 C 0.33178 0.61364 0.68954
 H328 H 0.29713 0.61110 0.66122
 H329 H 0.34045 0.61027 0.70119
 N330 N 0.31982 0.66722 0.62932
 N331 N 0.33403 0.67852 0.62783
 C332 C 0.33180 0.68899 0.61266
 C333 C 0.31553 0.68388 0.60430
 C334 C 0.30823 0.67014 0.61512
 H335 H 0.34111 0.69973 0.60818
 H336 H 0.29537 0.66293 0.61289
 H337 H 0.33267 0.67009 0.66179
 H338 H 0.34529 0.65219 0.64825
 N339 N 0.37212 0.17877 1.16595
 N340 N 0.37206 0.16572 1.17853
 C341 C 0.38635 0.16839 1.19010
 C342 C 0.39576 0.18385 1.18435
 C343 C 0.38644 0.19017 1.16907
 H344 H 0.38962 0.15986 1.20187
 H345 H 0.38976 0.20220 1.16093
 Cu346 Cu 0.35326 0.14661 1.17852
 Cu347 Cu 0.35369 0.17999 1.14645
 Cu348 Cu 0.31986 0.14618 1.14647
 N349 N 0.33411 0.12785 1.17855
 N350 N 0.32106 0.12778 1.16596
 C351 C 0.30964 0.11349 1.16907
 C352 C 0.31595 0.10417 1.18436
 C353 C 0.33142 0.11358 1.19012
 H354 H 0.29760 0.11017 1.16092
 H355 H 0.33995 0.11030 1.20189
 N356 N 0.32102 0.16594 1.12789
 N357 N 0.33388 0.17883 1.12787
 C358 C 0.33097 0.19021 1.11349
 C359 C 0.31564 0.18410 1.10412
 C360 C 0.30959 0.16878 1.11352
 H361 H 0.33929 0.20210 1.11011
 H362 H 0.29772 0.16043 1.11017
 H363 H 0.33296 0.16689 1.16094
 H364 H 0.34774 0.15216 1.14588
 N365 N 0.87183 0.67907 1.16626
 N366 N 0.87154 0.66623 1.17906
 C367 C 0.88583 0.66890 1.19063
 C368 C 0.89546 0.68413 1.18466
 C369 C 0.88628 0.69033 1.16925
 H370 H 0.88898 0.66049 1.20251
 H371 H 0.88980 0.70216 1.16091
 Cu372 Cu 0.85257 0.64732 1.17909
 Cu373 Cu 0.85354 0.68015 1.14659
 Cu374 Cu 0.81971 0.64627 1.14663
 N375 N 0.83362 0.62837 1.17912
 N376 N 0.82080 0.62804 1.16631
 C377 C 0.80951 0.61363 1.16932
 C378 C 0.81569 0.60451 1.18478
 C379 C 0.83093 0.61415 1.19074
 H380 H 0.79768 0.61009 1.16097
 H381 H 0.83931 0.61104 1.20266
 N382 N 0.82099 0.66589 1.12791
 N383 N 0.83384 0.67881 1.12790
 C384 C 0.83093 0.69016 1.11350
 C385 C 0.81564 0.68399 1.10410
 C386 C 0.80960 0.66868 1.11352
 H387 H 0.83919 0.70210 1.11014
 H388 H 0.79772 0.66033 1.11018
 H389 H 0.83258 0.66728 1.16087
 H390 H 0.84761 0.65232 1.14630
 N391 N 0.87203 0.17892 0.66626
 N392 N 0.87169 0.16618 0.67915
 C393 C 0.88600 0.16884 0.69068
 C394 C 0.89571 0.18398 0.68461
 C395 C 0.88654 0.19013 0.66917
 H396 H 0.88908 0.16054 0.70265
 H397 H 0.89007 0.20193 0.66079
 Cu398 Cu 0.85249 0.14746 0.67972
 Cu399 Cu 0.85366 0.18003 0.64673
 Cu400 Cu 0.81987 0.14625 0.64680
 N401 N 0.83364 0.12840 0.67933
 N402 N 0.82092 0.12799 0.66641
 C403 C 0.80960 0.11359 0.66943
 C404 C 0.81565 0.10456 0.68499
 C405 C 0.83085 0.11423 0.69100
 H406 H 0.79779 0.11005 0.66105
 H407 H 0.83910 0.11124 0.70304
 N408 N 0.82110 0.16587 0.62810
 N409 N 0.83393 0.17880 0.62810
 C410 C 0.83102 0.19017 0.61371
 C411 C 0.81573 0.18400 0.60430
 C412 C 0.80971 0.16867 0.61370
 H413 H 0.83929 0.20210 0.61037
 H414 H 0.79785 0.16029 0.61034
 H415 H 0.83264 0.16730 0.66111
 H416 H 0.84781 0.15215 0.64683
 N417 N 0.32030 0.37101 0.66638
 N418 N 0.33362 0.37119 0.67867
 C419 C 0.33179 0.38631 0.68927
 C420 C 0.31655 0.39599 0.68323
 C421 C 0.30948 0.38593 0.66878
 H422 H 0.34047 0.38968 0.70090
 H423 H 0.29707 0.38890 0.66102
 Cu424 Cu 0.35103 0.35088 0.68082
 Cu425 Cu 0.31716 0.35068 0.64928
 Cu426 Cu 0.35403 0.32023 0.64608
 N427 N 0.37128 0.33335 0.67913
 N428 N 0.37248 0.32148 0.66551
 C429 C 0.38749 0.31077 0.66802
 C430 C 0.39608 0.31635 0.68399
 C431 C 0.38551 0.33064 0.69076
 H432 H 0.39158 0.29949 0.65918
 H433 H 0.38784 0.33824 0.70334
 N434 N 0.33386 0.32110 0.62791
 N435 N 0.31971 0.33254 0.62930
 C436 C 0.30810 0.32962 0.61513
 C437 C 0.31534 0.31571 0.60443
 C438 C 0.33159 0.31052 0.61285
 H439 H 0.29529 0.33694 0.61282
 H440 H 0.34085 0.29966 0.60848
 H441 H 0.33260 0.32981 0.66174
 H442 H 0.34525 0.34752 0.64807
 N443 N 0.32107 0.87194 0.16588
 N444 N 0.33390 0.87162 0.17869
 C445 C 0.33119 0.88587 0.19027
 C446 C 0.31591 0.89553 0.18430
 C447 C 0.30974 0.88639 0.16888
 H448 H 0.33958 0.88898 0.20217
 H449 H 0.29789 0.88993 0.16053
 Cu450 Cu 0.35288 0.85262 0.17873
 Cu451 Cu 0.32001 0.85365 0.14625
 Cu452 Cu 0.35399 0.81977 0.14633
 N453 N 0.37193 0.83370 0.17876
 N454 N 0.37228 0.82087 0.16597
 C455 C 0.38677 0.80960 0.16899
 C456 C 0.39592 0.81580 0.18440
 C457 C 0.38621 0.83103 0.19035
 H458 H 0.39035 0.79777 0.16067
 H459 H 0.38932 0.83944 0.20223
 N460 N 0.33431 0.82107 0.12761
 N461 N 0.32137 0.83396 0.12757
 C462 C 0.31001 0.83108 0.11317
 C463 C 0.31618 0.81577 0.10381
 C464 C 0.33151 0.80968 0.11325
 H465 H 0.29807 0.83940 0.10979
 H466 H 0.33988 0.79777 0.10993
 H467 H 0.33295 0.83268 0.16052
 H468 H 0.34792 0.84762 0.14595
 N469 N 0.82054 0.37206 0.16571
 N470 N 0.83342 0.37173 0.17847
 C471 C 0.83073 0.38597 0.19008
 C472 C 0.81543 0.39563 0.18417
 C473 C 0.80921 0.38650 0.16876
 H474 H 0.83916 0.38907 0.20195
 H475 H 0.79733 0.39004 0.16045
 Cu476 Cu 0.85240 0.35273 0.17846
 Cu477 Cu 0.81946 0.35380 0.14606
 Cu478 Cu 0.85340 0.31987 0.14601
 N479 N 0.87140 0.33376 0.17844
 N480 N 0.87171 0.32091 0.16566
 C481 C 0.88616 0.30959 0.16870
 C482 C 0.89531 0.31576 0.18412
 C483 C 0.88566 0.33104 0.19004
 H484 H 0.88969 0.29774 0.16038
 H485 H 0.88878 0.33943 0.20193
 N486 N 0.83368 0.32123 0.12733
 N487 N 0.82077 0.33415 0.12737
 C488 C 0.80934 0.33133 0.11302
 C489 C 0.81542 0.31602 0.10360
 C490 C 0.83078 0.30987 0.11296
 H491 H 0.79739 0.33966 0.10972
 H492 H 0.83909 0.29793 0.10960
 H493 H 0.83242 0.33279 0.16031
 H494 H 0.84737 0.34773 0.14569
 N495 N 0.82035 0.87243 0.66607
 N496 N 0.83332 0.87222 0.67875
 C497 C 0.83059 0.88646 0.69035
 C498 C 0.81518 0.89599 0.68452
 C499 C 0.80894 0.88678 0.66916
 H500 H 0.83908 0.88966 0.70216
 H501 H 0.79700 0.89024 0.66090
 Cu502 Cu 0.85251 0.85341 0.67874
 Cu503 Cu 0.81936 0.85420 0.64641
 Cu504 Cu 0.85334 0.82038 0.64639
 N505 N 0.87134 0.83426 0.67878
 N506 N 0.87158 0.82136 0.66607
 C507 C 0.88594 0.80994 0.66918
 C508 C 0.89512 0.81611 0.68459
 C509 C 0.88556 0.83148 0.69043
 H510 H 0.88942 0.79804 0.66091
 H511 H 0.88873 0.83991 0.70228
 N512 N 0.83371 0.82174 0.62766
 N513 N 0.82075 0.83459 0.62767
 C514 C 0.80939 0.83176 0.61326
 C515 C 0.81560 0.81650 0.60383
 C516 C 0.83094 0.81041 0.61324
 H517 H 0.79741 0.84004 0.60993
 H518 H 0.83932 0.79851 0.60989
 H519 H 0.83242 0.83334 0.66082
 H520 H 0.84727 0.84823 0.64602
 N521 N 0.67899 0.62804 0.66634
 N522 N 0.66627 0.62845 0.67925
 C523 C 0.66889 0.61408 0.69072
 C524 C 0.68399 0.60426 0.68458
 C525 C 0.69015 0.61343 0.66916
 H526 H 0.66058 0.61103 0.70269
 H527 H 0.70192 0.60981 0.66074
 Cu528 Cu 0.64752 0.64768 0.67994
 Cu529 Cu 0.68014 0.64646 0.64691
 Cu530 Cu 0.64631 0.68032 0.64696
 N531 N 0.62830 0.66644 0.67931
 N532 N 0.62790 0.67917 0.66642
 C533 C 0.61330 0.69034 0.66929
 C534 C 0.60414 0.68418 0.68471
 C535 C 0.61394 0.66907 0.69081
 H536 H 0.60969 0.70213 0.66089
 H537 H 0.61089 0.66076 0.70277
 N538 N 0.66611 0.67917 0.62841
 N539 N 0.67901 0.66626 0.62838
 C540 C 0.69046 0.66917 0.61406
 C541 C 0.68439 0.68455 0.60473
 C542 C 0.66902 0.69063 0.61411
 H543 H 0.70238 0.66082 0.61069
 H544 H 0.66068 0.70256 0.61078
 H545 H 0.66732 0.66749 0.66131
 H546 H 0.65214 0.65240 0.64704
 N547 N 0.67956 0.12785 0.16602
 N548 N 0.66664 0.12808 0.17874
 C549 C 0.66934 0.11380 0.19031
 C550 C 0.68470 0.10424 0.18443
 C551 C 0.69094 0.11345 0.16906
 H552 H 0.66088 0.11062 0.20215
 H553 H 0.70286 0.10998 0.16079
 Cu554 Cu 0.64756 0.14699 0.17886
 Cu555 Cu 0.68060 0.14613 0.14642
 Cu556 Cu 0.64667 0.17999 0.14640
 N557 N 0.62861 0.16602 0.17874
 N558 N 0.62837 0.17893 0.16602
 C559 C 0.61393 0.19026 0.16906
 C560 C 0.60471 0.18402 0.18442
 C561 C 0.61431 0.16870 0.19031
 H562 H 0.61043 0.20216 0.16078
 H563 H 0.61114 0.16025 0.20215
 N564 N 0.66636 0.17868 0.12772
 N565 N 0.67928 0.16578 0.12774
 C566 C 0.69065 0.16857 0.11333
 C567 C 0.68451 0.18385 0.10389
 C568 C 0.66918 0.19001 0.11328
 H569 H 0.70257 0.16022 0.10999
 H570 H 0.66081 0.20190 0.10989
 H571 H 0.66760 0.16703 0.16081
 H572 H 0.65267 0.15214 0.14612
 N573 N 0.17916 0.62814 0.16561
 N574 N 0.16641 0.62854 0.17849
 C575 C 0.16904 0.61420 0.18999
 C576 C 0.18417 0.60441 0.18391
 C577 C 0.19035 0.61356 0.16849
 H578 H 0.16070 0.61115 0.20196
 H579 H 0.20216 0.60996 0.16010
 Cu580 Cu 0.14764 0.64776 0.17909
 Cu581 Cu 0.18030 0.64653 0.14612
 Cu582 Cu 0.14645 0.68041 0.14618
 N583 N 0.12850 0.66660 0.17859
 N584 N 0.12810 0.67934 0.16571
 C585 C 0.11357 0.69059 0.16865
 C586 C 0.10445 0.68446 0.18411
 C587 C 0.11420 0.66930 0.19016
 H588 H 0.10999 0.70239 0.16027
 H589 H 0.11116 0.66100 0.20213
 N590 N 0.16617 0.67918 0.12756
 N591 N 0.17910 0.66629 0.12754
 C592 C 0.19053 0.66921 0.11320
 C593 C 0.18441 0.68456 0.10385
 C594 C 0.16904 0.69062 0.11324
 H595 H 0.20248 0.66089 0.10985
 H596 H 0.16070 0.70255 0.10992
 H597 H 0.16750 0.66755 0.16050
 H598 H 0.15234 0.65249 0.14619
 N599 N 0.18005 0.12847 0.66710
 N600 N 0.16657 0.12816 0.67924
 C601 C 0.16850 0.11316 0.69002
 C602 C 0.18400 0.10371 0.68426
 C603 C 0.19109 0.11376 0.66979
 H604 H 0.15962 0.10960 0.70144
 H605 H 0.20353 0.11082 0.66208
 Cu606 Cu 0.14856 0.14804 0.68001
 Cu607 Cu 0.18274 0.14847 0.64933
 Cu608 Cu 0.14599 0.17940 0.64637
 N609 N 0.12849 0.16581 0.67929
 N610 N 0.12759 0.17810 0.66599
 C611 C 0.11277 0.18900 0.66871
 C612 C 0.10398 0.18312 0.68447
 C613 C 0.11423 0.16844 0.69091
 H614 H 0.10888 0.20053 0.66010
 H615 H 0.11163 0.16052 0.70325
 N616 N 0.16616 0.17835 0.62809
 N617 N 0.18017 0.16669 0.62930
 C618 C 0.19171 0.16956 0.61505
 C619 C 0.18458 0.18365 0.60449
 C620 C 0.16847 0.18899 0.61306
 H621 H 0.20443 0.16213 0.61261
 H622 H 0.15932 0.20000 0.60881
 H623 H 0.16730 0.16932 0.66167
 H624 H 0.15466 0.15212 0.64749
 N625 N 0.32065 0.62787 0.33363
 N626 N 0.33351 0.62818 0.32085
 C627 C 0.33085 0.61394 0.30926
 C628 C 0.31558 0.60432 0.31520
 C629 C 0.30937 0.61346 0.33062
 H630 H 0.33927 0.61081 0.29737
 H631 H 0.29751 0.60993 0.33895
 Cu632 Cu 0.35247 0.64710 0.32083
 Cu633 Cu 0.31955 0.64611 0.35328
 Cu634 Cu 0.35337 0.68000 0.35325
 N635 N 0.37136 0.66609 0.32080
 N636 N 0.37163 0.67894 0.33356
 C637 C 0.38603 0.69025 0.33050
 C638 C 0.39519 0.68407 0.31506
 C639 C 0.38560 0.66879 0.30917
 H640 H 0.38954 0.70210 0.33880
 H641 H 0.38875 0.66038 0.29729
 N642 N 0.33369 0.67865 0.37196
 N643 N 0.32083 0.66575 0.37196
 C644 C 0.30945 0.66853 0.38637
 C645 C 0.31553 0.68381 0.39579
 C646 C 0.33082 0.68998 0.38638
 H647 H 0.29756 0.66019 0.38972
 H648 H 0.33911 0.70189 0.38974
 H649 H 0.33241 0.66708 0.33898
 H650 H 0.34744 0.65214 0.35360
 N651 N 0.32089 0.12770 0.83372
 N652 N 0.33376 0.12801 0.82094
 C653 C 0.33106 0.11381 0.80930
 C654 C 0.31577 0.10420 0.81521
 C655 C 0.30958 0.11331 0.83066
 H656 H 0.33948 0.11070 0.79741
 H657 H 0.29770 0.10980 0.83897
 Cu658 Cu 0.35272 0.14695 0.82096
 Cu659 Cu 0.31975 0.14597 0.85335
 Cu660 Cu 0.35351 0.17990 0.85332
 N661 N 0.37166 0.16591 0.82098
 N662 N 0.37187 0.17880 0.83371
 C663 C 0.38629 0.19010 0.83068
 C664 C 0.39553 0.18386 0.81531
 C665 C 0.38596 0.16857 0.80941
 H666 H 0.38976 0.20197 0.83896
 H667 H 0.38916 0.16012 0.79758
 N668 N 0.33377 0.17859 0.87199
 N669 N 0.32096 0.16564 0.87202
 C670 C 0.30953 0.16846 0.88638
 C671 C 0.31550 0.18382 0.89574
 C672 C 0.33080 0.18999 0.88634
 H673 H 0.29765 0.16010 0.88973
 H674 H 0.33904 0.20195 0.88966
 H675 H 0.33261 0.16692 0.83906
 H676 H 0.34764 0.15204 0.85372
 N677 N 0.82095 0.62782 0.83382
 N678 N 0.83379 0.62815 0.82101
 C679 C 0.83114 0.61392 0.80942
 C680 C 0.81590 0.60427 0.81537
 C681 C 0.80968 0.61338 0.83082
 H682 H 0.83954 0.61084 0.79752
 H683 H 0.79785 0.60983 0.83914
 Cu684 Cu 0.85271 0.64715 0.82096
 Cu685 Cu 0.81982 0.64609 0.85344
 Cu686 Cu 0.85356 0.68004 0.85341
 N687 N 0.87159 0.66617 0.82096
 N688 N 0.87185 0.67901 0.83375
 C689 C 0.88624 0.69034 0.83070
 C690 C 0.89540 0.68418 0.81525
 C691 C 0.88582 0.66890 0.80935
 H692 H 0.88974 0.70218 0.83900
 H693 H 0.88896 0.66051 0.79746
 N694 N 0.83387 0.67867 0.87211
 N695 N 0.82104 0.66574 0.87211
 C696 C 0.80962 0.66854 0.88649
 C697 C 0.81564 0.68385 0.89589
 C698 C 0.83094 0.69002 0.88650
 H699 H 0.79773 0.66018 0.88982
 H700 H 0.83919 0.70197 0.88984
 H701 H 0.83266 0.66710 0.83915
 H702 H 0.84771 0.65219 0.85373
 N703 N 0.82107 0.12765 0.33397
 N704 N 0.83388 0.12802 0.32114
 C705 C 0.83123 0.11378 0.30954
 C706 C 0.81603 0.10408 0.31553
 C707 C 0.80983 0.11319 0.33098
 H708 H 0.83962 0.11070 0.29762
 H709 H 0.79801 0.10961 0.33934
 Cu710 Cu 0.85276 0.14703 0.32109
 Cu711 Cu 0.81993 0.14591 0.35360
 Cu712 Cu 0.85366 0.17990 0.35352
 N713 N 0.87166 0.16604 0.32104
 N714 N 0.87193 0.17887 0.33383
 C715 C 0.88632 0.19019 0.33077
 C716 C 0.89547 0.18404 0.31532
 C717 C 0.88588 0.16877 0.30941
 H718 H 0.88982 0.20204 0.33909
 H719 H 0.88902 0.16039 0.29751
 N720 N 0.83399 0.17852 0.37226
 N721 N 0.82117 0.16558 0.37229
 C722 C 0.80978 0.16837 0.38668
 C723 C 0.81579 0.18369 0.39607
 C724 C 0.83107 0.18988 0.38665
 H725 H 0.79791 0.16001 0.39004
 H726 H 0.83932 0.20183 0.38997
 H727 H 0.83269 0.16695 0.33930
 H728 H 0.84778 0.15205 0.35387
 N729 N 0.67911 0.37196 0.33366
 N730 N 0.66627 0.37164 0.32086
 C731 C 0.66892 0.38590 0.30927
 C732 C 0.68415 0.39555 0.31524
 C733 C 0.69037 0.38640 0.33066
 H734 H 0.66051 0.38902 0.29738
 H735 H 0.70221 0.38994 0.33900
 Cu736 Cu 0.64738 0.35264 0.32082
 Cu737 Cu 0.68024 0.35368 0.35331
 Cu738 Cu 0.64647 0.31974 0.35324
 N739 N 0.62847 0.33366 0.32078
 N740 N 0.62821 0.32079 0.33355
 C741 C 0.61382 0.30948 0.33050
 C742 C 0.60464 0.31567 0.31507
 C743 C 0.61423 0.33096 0.30916
 H744 H 0.61032 0.29762 0.33881
 H745 H 0.61107 0.33939 0.29729
 N746 N 0.66614 0.32107 0.37197
 N747 N 0.67898 0.33400 0.37199
 C748 C 0.69036 0.33119 0.38639
 C749 C 0.68432 0.31587 0.39578
 C750 C 0.66903 0.30971 0.38636
 H751 H 0.70224 0.33954 0.38974
 H752 H 0.66077 0.29777 0.38970
 H753 H 0.66745 0.33271 0.33902
 H754 H 0.65238 0.34761 0.35360
 N755 N 0.67874 0.87201 0.83380
 N756 N 0.66588 0.87168 0.82101
 C757 C 0.66851 0.88594 0.80942
 C758 C 0.68374 0.89560 0.81536
 C759 C 0.68998 0.88646 0.83078
 H760 H 0.66007 0.88906 0.79755
 H761 H 0.70182 0.89001 0.83911
 Cu762 Cu 0.64701 0.85267 0.82102
 Cu763 Cu 0.67991 0.85372 0.85343
 Cu764 Cu 0.64612 0.81978 0.85345
 N765 N 0.62804 0.83376 0.82105
 N766 N 0.62777 0.82090 0.83382
 C767 C 0.61332 0.80964 0.83082
 C768 C 0.60411 0.81589 0.81544
 C769 C 0.61373 0.83113 0.80950
 H770 H 0.60980 0.79780 0.83915
 H771 H 0.61056 0.83958 0.79765
 N772 N 0.66587 0.82109 0.87210
 N773 N 0.67870 0.83403 0.87209
 C774 C 0.69012 0.83123 0.88646
 C775 C 0.68411 0.81591 0.89587
 C776 C 0.66882 0.80973 0.88649
 H777 H 0.70199 0.83961 0.88980
 H778 H 0.66056 0.79780 0.88987
 H779 H 0.66704 0.83272 0.83922
 H780 H 0.65200 0.84764 0.85381
 N781 N 0.17917 0.37231 0.83359
 N782 N 0.16638 0.37197 0.82073
 C783 C 0.16913 0.38615 0.80907
 C784 C 0.18438 0.39579 0.81503
 C785 C 0.19049 0.38671 0.83055
 H786 H 0.16078 0.38923 0.79713
 H787 H 0.20231 0.39025 0.83891
 Cu788 Cu 0.14740 0.35302 0.82078
 Cu789 Cu 0.18018 0.35411 0.85332
 Cu790 Cu 0.14624 0.32032 0.85339
 N791 N 0.12831 0.33419 0.82085
 N792 N 0.12796 0.32141 0.83370
 C793 C 0.11347 0.31019 0.83074
 C794 C 0.10433 0.31635 0.81527
 C795 C 0.11404 0.33153 0.80926
 H796 H 0.10990 0.29840 0.83912
 H797 H 0.11095 0.33989 0.79732
 N798 N 0.16594 0.32162 0.87210
 N799 N 0.17883 0.33450 0.87208
 C800 C 0.19022 0.33166 0.88647
 C801 C 0.18414 0.31636 0.89589
 C802 C 0.16882 0.31026 0.88650
 H803 H 0.20216 0.33995 0.88978
 H804 H 0.16053 0.29834 0.88984
 H805 H 0.16730 0.33310 0.83916
 H806 H 0.15227 0.34816 0.85362
 N807 N 0.17905 0.87186 0.33367
 N808 N 0.16619 0.87157 0.32089
 C809 C 0.16888 0.88579 0.30927
 C810 C 0.18416 0.89540 0.31518
 C811 C 0.19036 0.88625 0.33062
 H812 H 0.16045 0.88892 0.29738
 H813 H 0.20223 0.88977 0.33894
 Cu814 Cu 0.14721 0.85264 0.32096
 Cu815 Cu 0.18014 0.85362 0.35336
 Cu816 Cu 0.14625 0.81980 0.35346
 N817 N 0.12820 0.83375 0.32102
 N818 N 0.12792 0.82090 0.33381
 C819 C 0.11347 0.80964 0.33082
 C820 C 0.10428 0.81585 0.31541
 C821 C 0.11391 0.83109 0.30945
 H822 H 0.10995 0.79780 0.33915
 H823 H 0.11076 0.83950 0.29757
 N824 N 0.16598 0.82110 0.37213
 N825 N 0.17886 0.83400 0.37209
 C826 C 0.19027 0.83119 0.38647
 C827 C 0.18422 0.81590 0.39591
 C828 C 0.16889 0.80976 0.38654
 H829 H 0.20218 0.83952 0.38977
 H830 H 0.16061 0.79784 0.38993
 H831 H 0.16722 0.83265 0.33914
 H832 H 0.15224 0.84763 0.35374
 C833 C 0.24292 1.05787 0.25633
 C834 C 0.25701 1.05788 0.24377
 C835 C 0.26109 1.03956 0.24003
 N836 N 0.24994 1.02843 0.24995
 C837 C 0.23880 1.03955 0.25995
 C838 C 0.27452 1.03365 0.22718
 C839 C 0.27842 1.01500 0.22282
 C840 C 0.28964 1.00944 0.20837
 C841 C 0.28965 0.99050 0.20833
 C842 C 0.27843 0.98490 0.22276
 N843 N 0.27193 0.99994 0.23173
 C844 C 0.27453 0.96625 0.22703
 C845 C 0.26107 0.96032 0.23983
 C846 C 0.25698 0.94200 0.24347
 C847 C 0.24286 0.94199 0.25600
 C848 C 0.23874 0.96031 0.25971
 N849 N 0.24990 0.97144 0.24979
 C850 C 0.22529 0.96622 0.27253
 C851 C 0.22138 0.98486 0.27689
 C852 C 0.21014 0.99042 0.29133
 C853 C 0.21017 1.00937 0.29140
 C854 C 0.22142 1.01497 0.27700
 N855 N 0.22790 0.99993 0.26802
 C856 C 0.22536 1.03362 0.27276
 H857 H 0.23652 1.07002 0.26219
 H858 H 0.26343 1.07003 0.23799
 H859 H 0.23526 0.99996 0.25581
 H860 H 0.29688 1.01812 0.19864
 H861 H 0.29689 0.98183 0.19857
 H862 H 0.26341 0.92985 0.23764
 H863 H 0.23645 0.92984 0.26179
 H864 H 0.20293 1.01803 0.30116
 H865 H 0.26461 0.99992 0.24395
 H866 H 0.20288 0.98174 0.30103
 C867 C 0.24339 0.44201 0.75541
 C868 C 0.25747 0.44203 0.74284
 C869 C 0.26156 0.46036 0.73921
 N870 N 0.25043 0.47146 0.74924
 C871 C 0.23930 0.46032 0.75918
 C872 C 0.27495 0.46632 0.72636
 C873 C 0.27880 0.48497 0.72207
 C874 C 0.29000 0.49058 0.70762
 C875 C 0.28999 0.50952 0.70767
 C876 C 0.27881 0.51507 0.72215
 N877 N 0.27231 0.50001 0.73104
 C878 C 0.27497 0.53371 0.72657
 C879 C 0.26157 0.53963 0.73945
 C880 C 0.25749 0.55794 0.74321
 C881 C 0.24342 0.55792 0.75580
 C882 C 0.23932 0.53960 0.75942
 N883 N 0.25043 0.52849 0.74939
 C884 C 0.22590 0.53366 0.77227
 C885 C 0.22201 0.51499 0.77653
 C886 C 0.21079 0.50938 0.79095
 C887 C 0.21079 0.49043 0.79089
 C888 C 0.22200 0.48488 0.77644
 N889 N 0.22851 0.49995 0.76755
 C890 C 0.22589 0.46623 0.77205
 H891 H 0.23698 0.42984 0.76119
 H892 H 0.26388 0.42990 0.73696
 H893 H 0.23584 0.49998 0.75534
 H894 H 0.29724 0.48193 0.69786
 H895 H 0.29722 0.51820 0.69795
 H896 H 0.26390 0.57010 0.73742
 H897 H 0.23703 0.57007 0.76168
 H898 H 0.20354 0.48175 0.80060
 H899 H 0.26499 0.49997 0.74327
 H900 H 0.20354 0.51803 0.80071
 C901 C 0.74337 0.05761 0.24370
 C902 C 0.75745 0.05760 0.25625
 C903 C 0.76153 0.03927 0.25999
 N904 N 0.75038 0.02816 0.25006
 C905 C 0.73925 0.03930 0.24007
 C906 C 0.77495 0.03334 0.27284
 C907 C 0.77883 0.01468 0.27721
 C908 C 0.79004 0.00910 0.29167
 C909 C 0.79001 -0.00985 0.29172
 C910 C 0.77878 -0.01542 0.27731
 N911 N 0.77232 -0.00037 0.26832
 C912 C 0.77484 -0.03406 0.27306
 C913 C 0.76141 -0.03997 0.26024
 C914 C 0.75729 -0.05828 0.25660
 C915 C 0.74320 -0.05826 0.24406
 C916 C 0.73912 -0.03994 0.24033
 N917 N 0.75028 -0.02882 0.25025
 C918 C 0.72570 -0.03399 0.22748
 C919 C 0.72182 -0.01535 0.22311
 C920 C 0.71061 -0.00977 0.20865
 C921 C 0.71064 0.00918 0.20858
 C922 C 0.72187 0.01475 0.22300
 N923 N 0.72834 -0.00030 0.23199
 C924 C 0.72581 0.03339 0.22725
 H925 H 0.73697 0.06977 0.23784
 H926 H 0.76387 0.06974 0.26204
 H927 H 0.73567 -0.00029 0.24421
 H928 H 0.79728 0.01777 0.30138
 H929 H 0.79724 -0.01852 0.30149
 H930 H 0.76369 -0.07044 0.26245
 H931 H 0.73677 -0.07040 0.23828
 H932 H 0.70342 0.01785 0.19882
 H933 H 0.76499 -0.00037 0.25610
 H934 H 0.70336 -0.01844 0.19894
 C935 C 0.74301 0.55776 0.74375
 C936 C 0.75714 0.55775 0.75626
 C937 C 0.76126 0.53943 0.75996
 N938 N 0.75009 0.52831 0.75004
 C939 C 0.73891 0.53945 0.74010
 C940 C 0.77473 0.53349 0.77276
 C941 C 0.77865 0.51483 0.77709
 C942 C 0.78990 0.50924 0.79151
 C943 C 0.78990 0.49029 0.79154
 C944 C 0.77864 0.48472 0.77715
 N945 N 0.77213 0.49978 0.76820
 C946 C 0.77472 0.46608 0.77288
 C947 C 0.76126 0.46017 0.76008
 C948 C 0.75716 0.44186 0.75643
 C949 C 0.74304 0.44188 0.74391
 C950 C 0.73893 0.46020 0.74022
 N951 N 0.75009 0.47131 0.75013
 C952 C 0.72546 0.46614 0.72741
 C953 C 0.72154 0.48480 0.72308
 C954 C 0.71028 0.49039 0.70867
 C955 C 0.71028 0.50933 0.70864
 C956 C 0.72154 0.51490 0.72304
 N957 N 0.72806 0.49984 0.73198
 C958 C 0.72544 0.53354 0.72732
 H959 H 0.73658 0.56993 0.73793
 H960 H 0.76355 0.56989 0.76205
 H961 H 0.73542 0.49984 0.74418
 H962 H 0.79716 0.51790 0.80122
 H963 H 0.79715 0.48162 0.80128
 H964 H 0.76358 0.42970 0.76225
 H965 H 0.73662 0.42974 0.73812
 H966 H 0.70302 0.51801 0.69890
 H967 H 0.76477 0.49979 0.75600
 H968 H 0.70302 0.48172 0.69896
 C969 C 0.24287 0.55791 0.24341
 C970 C 0.25695 0.55789 0.25597
 C971 C 0.26106 0.53957 0.25967
 N972 N 0.24993 0.52846 0.24972
 C973 C 0.23879 0.53960 0.23975
 C974 C 0.27450 0.53363 0.27251
 C975 C 0.27842 0.51499 0.27687
 C976 C 0.28965 0.50942 0.29132
 C977 C 0.28965 0.49047 0.29137
 C978 C 0.27843 0.48489 0.27695
 N979 N 0.27192 0.49993 0.26798
 C980 C 0.27451 0.46624 0.27270
 C981 C 0.26107 0.46033 0.25989
 C982 C 0.25698 0.44202 0.25624
 C983 C 0.24288 0.44204 0.24370
 C984 C 0.23878 0.46036 0.23999
 N985 N 0.24992 0.47147 0.24992
 C986 C 0.22535 0.46630 0.22715
 C987 C 0.22144 0.48494 0.22278
 C988 C 0.21023 0.49050 0.20832
 C989 C 0.21024 0.50945 0.20825
 C990 C 0.22145 0.51504 0.22267
 N991 N 0.22794 0.50000 0.23166
 C992 C 0.22536 0.53368 0.22692
 H993 H 0.23645 0.57007 0.23758
 H994 H 0.26334 0.57004 0.26178
 H995 H 0.23526 0.50000 0.24388
 H996 H 0.29689 0.51809 0.30103
 H997 H 0.29690 0.48181 0.30112
 H998 H 0.26339 0.42986 0.26207
 H999 H 0.23647 0.42989 0.23791
 H1000 H 0.20300 0.51811 0.19848
 H1001 H 0.26459 0.49993 0.25577
 H1002 H 0.20298 0.48182 0.19861
 C1003 C 0.75651 1.05835 0.74474
 C1004 C 0.74244 1.05827 0.75733
 C1005 C 0.73836 1.03993 0.76088
 N1006 N 0.74950 1.02887 0.75081
 C1007 C 0.76061 1.04006 0.74091
 C1008 C 0.72496 1.03391 0.77370
 C1009 C 0.72107 1.01522 0.77783
 C1010 C 0.70986 1.00952 0.79222
 C1011 C 0.70986 0.99057 0.79203
 C1012 C 0.72107 0.98512 0.77753
 N1013 N 0.72756 1.00025 0.76875
 C1014 C 0.72494 0.96651 0.77301
 C1015 C 0.73839 0.96067 0.76014
 C1016 C 0.74251 0.94238 0.75633
 C1017 C 0.75660 0.94246 0.74378
 C1018 C 0.76067 0.96080 0.74022
 N1019 N 0.74951 0.97186 0.75026
 C1020 C 0.77409 0.96681 0.72742
 C1021 C 0.77797 0.98549 0.72326
 C1022 C 0.78917 0.99118 0.70886
 C1023 C 0.78914 1.01013 0.70901
 C1024 C 0.77793 1.01560 0.72351
 N1025 N 0.77147 1.00047 0.73233
 C1026 C 0.77402 1.03422 0.72799
 H1027 H 0.76290 1.07054 0.73900
 H1028 H 0.73602 1.07038 0.76325
 H1029 H 0.76416 1.00038 0.74456
 H1030 H 0.70262 1.01810 0.80205
 H1031 H 0.70264 0.98181 0.80170
 H1032 H 0.73612 0.93018 0.76207
 H1033 H 0.76303 0.93034 0.73787
 H1034 H 0.79636 1.01888 0.69934
 H1035 H 0.73489 1.00035 0.75652
 H1036 H 0.79640 0.98259 0.69904
 C1037 C 0.74271 0.44219 0.25614
 C1038 C 0.75681 0.44219 0.24359
 C1039 C 0.76093 0.46050 0.23997
 N1040 N 0.74980 0.47163 0.24996
 C1041 C 0.73864 0.46051 0.25988
 C1042 C 0.77438 0.46643 0.22716
 C1043 C 0.77831 0.48508 0.22293
 C1044 C 0.78955 0.49069 0.20852
 C1045 C 0.78957 0.50964 0.20861
 C1046 C 0.77835 0.51519 0.22306
 N1047 N 0.77183 0.50011 0.23193
 C1048 C 0.77446 0.53383 0.22746
 C1049 C 0.76104 0.53975 0.24032
 C1050 C 0.75696 0.55807 0.24406
 C1051 C 0.74286 0.55808 0.25661
 C1052 C 0.73874 0.53976 0.26023
 N1053 N 0.74987 0.52863 0.25024
 C1054 C 0.72528 0.53383 0.27303
 C1055 C 0.72137 0.51517 0.27726
 C1056 C 0.71012 0.50955 0.29167
 C1057 C 0.71010 0.49061 0.29158
 C1058 C 0.72133 0.48507 0.27713
 N1059 N 0.72786 0.50014 0.26827
 C1060 C 0.72521 0.46643 0.27273
 H1061 H 0.73629 0.43004 0.26192
 H1062 H 0.76321 0.43003 0.23774
 H1063 H 0.73521 0.50017 0.25606
 H1064 H 0.79679 0.48204 0.19875
 H1065 H 0.79683 0.51833 0.19891
 H1066 H 0.76338 0.57022 0.23828
 H1067 H 0.73645 0.57023 0.26247
 H1068 H 0.70284 0.48192 0.30127
 H1069 H 0.76449 0.50009 0.24414
 H1070 H 0.70288 0.51820 0.30143
 C1071 C 0.24348 -0.05845 0.74401
 C1072 C 0.25762 -0.05837 0.75650
 C1073 C 0.26164 -0.04003 0.76010
 N1074 N 0.25040 -0.02897 0.75015
 C1075 C 0.23927 -0.04016 0.74028
 C1076 C 0.27510 -0.03402 0.77286
 C1077 C 0.27891 -0.01534 0.77707
 C1078 C 0.29014 -0.00967 0.79145
 C1079 C 0.29004 0.00928 0.79136
 C1080 C 0.27874 0.01477 0.77694
 N1081 N 0.27231 -0.00034 0.76809
 C1082 C 0.27471 0.03339 0.77257
 C1083 C 0.26120 0.03922 0.75976
 C1084 C 0.25697 0.05752 0.75603
 C1085 C 0.24284 0.05742 0.74352
 C1086 C 0.23884 0.03908 0.73992
 N1087 N 0.25009 0.02803 0.74988
 C1088 C 0.22541 0.03307 0.72715
 C1089 C 0.22160 0.01439 0.72294
 C1090 C 0.21038 0.00872 0.70855
 C1091 C 0.21048 -0.01022 0.70864
 C1092 C 0.22175 -0.01570 0.72309
 N1093 N 0.22818 -0.00060 0.73194
 C1094 C 0.22576 -0.03432 0.72748
 H1095 H 0.23712 -0.07064 0.73825
 H1096 H 0.26412 -0.07049 0.76234
 H1097 H 0.23552 -0.00053 0.74416
 H1098 H 0.29745 -0.01828 0.80121
 H1099 H 0.29725 0.01801 0.80104
 H1100 H 0.26332 0.06971 0.76178
 H1101 H 0.23634 0.06953 0.73767
 H1102 H 0.20327 -0.01895 0.69896
 H1103 H 0.26494 -0.00041 0.75589
 H1104 H 0.20309 0.01733 0.69877
 C1105 C 0.25600 0.24281 0.94206
 C1106 C 0.24343 0.25694 0.94206
 C1107 C 0.23978 0.26107 0.96034
 N1108 N 0.24978 0.24992 0.97143
 C1109 C 0.25974 0.23874 0.96033
 C1110 C 0.22693 0.27455 0.96625
 C1111 C 0.22263 0.27847 0.98486
 C1112 C 0.20821 0.28980 0.99044
 C1113 C 0.20823 0.28981 1.00935
 C1114 C 0.22267 0.27849 1.01491
 N1115 N 0.23157 0.27192 0.99988
 C1116 C 0.22703 0.27459 1.03351
 C1117 C 0.23994 0.26117 1.03942
 C1118 C 0.24369 0.25711 1.05770
 C1119 C 0.25628 0.24300 1.05770
 C1120 C 0.25993 0.23887 1.03942
 N1121 N 0.24991 0.25000 1.02832
 C1122 C 0.27281 0.22542 1.03351
 C1123 C 0.27709 0.22147 1.01489
 C1124 C 0.29151 0.21015 1.00931
 C1125 C 0.29146 0.21011 0.99041
 C1126 C 0.27701 0.22141 0.98485
 N1127 N 0.26813 0.22800 0.99988
 C1128 C 0.27264 0.22530 0.96624
 H1129 H 0.26179 0.23636 0.92993
 H1130 H 0.23758 0.26336 0.92994
 H1131 H 0.25593 0.23544 0.99989
 H1132 H 0.19847 0.29711 0.98180
 H1133 H 0.19852 0.29713 1.01800
 H1134 H 0.23789 0.26356 1.06983
 H1135 H 0.26213 0.23659 1.06983
 H1136 H 0.30117 0.20279 0.98175
 H1137 H 0.24377 0.26448 0.99987
 H1138 H 0.30126 0.20285 1.01796
 C1139 C 0.24395 0.75698 0.55781
 C1140 C 0.25649 0.74283 0.55780
 C1141 C 0.26012 0.73869 0.53952
 N1142 N 0.25013 0.74985 0.52843
 C1143 C 0.24020 0.76105 0.53953
 C1144 C 0.27294 0.72519 0.53360
 C1145 C 0.27723 0.72127 0.51499
 C1146 C 0.29164 0.70993 0.50941
 C1147 C 0.29163 0.70995 0.49051
 C1148 C 0.27722 0.72130 0.48496
 N1149 N 0.26832 0.72787 0.49998
 C1150 C 0.27289 0.72525 0.46636
 C1151 C 0.26006 0.73875 0.46046
 C1152 C 0.25641 0.74290 0.44218
 C1153 C 0.24386 0.75705 0.44219
 C1154 C 0.24012 0.76109 0.46046
 N1155 N 0.25006 0.74988 0.47156
 C1156 C 0.22722 0.77450 0.46638
 C1157 C 0.22287 0.77836 0.48499
 C1158 C 0.20835 0.78955 0.49058
 C1159 C 0.20838 0.78954 0.50948
 C1160 C 0.22291 0.77835 0.51503
 N1161 N 0.23187 0.77187 0.50000
 C1162 C 0.22730 0.77447 0.53363
 H1163 H 0.23818 0.76345 0.56994
 H1164 H 0.26233 0.73640 0.56992
 H1165 H 0.24416 0.76456 0.49999
 H1166 H 0.30136 0.70260 0.51805
 H1167 H 0.30134 0.70263 0.48185
 H1168 H 0.26225 0.73650 0.43005
 H1169 H 0.23807 0.76352 0.43006
 H1170 H 0.19860 0.79677 0.51814
 H1171 H 0.25613 0.73534 0.49999
 H1172 H 0.19855 0.79678 0.48194
 C1173 C 0.24345 0.74365 -0.05816
 C1174 C 0.25744 0.75633 -0.05818
 C1175 C 0.26145 0.76012 -0.03991
 N1176 N 0.25036 0.75010 -0.02880
 C1177 C 0.23933 0.74000 -0.03988
 C1178 C 0.27477 0.77308 -0.03401
 C1179 C 0.27869 0.77740 -0.01540
 C1180 C 0.28998 0.79179 -0.00984
 C1181 C 0.29000 0.79178 0.00906
 C1182 C 0.27872 0.77739 0.01465
 N1183 N 0.27217 0.76850 -0.00036
 C1184 C 0.27483 0.77307 0.03327
 C1185 C 0.26147 0.76016 0.03920
 C1186 C 0.25743 0.75641 0.05749
 C1187 C 0.24341 0.74379 0.05750
 C1188 C 0.23928 0.74012 0.03923
 N1189 N 0.25035 0.75017 0.02812
 C1190 C 0.22585 0.72727 0.03333
 C1191 C 0.22187 0.72300 0.01473
 C1192 C 0.21040 0.70874 0.00918
 C1193 C 0.21043 0.70869 -0.00973
 C1194 C 0.22191 0.72293 -0.01533
 N1195 N 0.22853 0.73178 -0.00032
 C1196 C 0.22593 0.72713 -0.03395
 H1197 H 0.23711 0.73776 -0.07028
 H1198 H 0.26383 0.76216 -0.07032
 H1199 H 0.23613 0.74382 -0.00034
 H1200 H 0.29729 0.80148 -0.01850
 H1201 H 0.29733 0.80146 0.01771
 H1202 H 0.26384 0.76224 0.06960
 H1203 H 0.23705 0.73793 0.06964
 H1204 H 0.20301 0.69908 -0.01836
 H1205 H 0.26476 0.75633 -0.00035
 H1206 H 0.20296 0.69916 0.01785
 C1207 C 0.24346 0.24288 0.44247
 C1208 C 0.25621 0.25679 0.44246
 C1209 C 0.25994 0.26086 0.46073
 N1210 N 0.24986 0.24983 0.47183
 C1211 C 0.23975 0.23881 0.46076
 C1212 C 0.27282 0.27426 0.46664
 C1213 C 0.27700 0.27836 0.48524
 C1214 C 0.29103 0.29011 0.49080
 C1215 C 0.29102 0.29013 0.50971
 C1216 C 0.27698 0.27840 0.51530
 N1217 N 0.26830 0.27159 0.50028
 C1218 C 0.27277 0.27434 0.53391
 C1219 C 0.25995 0.26090 0.53986
 C1220 C 0.25625 0.25682 0.55814
 C1221 C 0.24355 0.24285 0.55816
 C1222 C 0.23983 0.23877 0.53989
 N1223 N 0.24988 0.24983 0.52879
 C1224 C 0.22700 0.22532 0.53398
 C1225 C 0.22278 0.22126 0.51538
 C1226 C 0.20876 0.20950 0.50982
 C1227 C 0.20872 0.20953 0.49091
 C1228 C 0.22273 0.22130 0.48532
 N1229 N 0.23144 0.22808 0.50034
 C1230 C 0.22689 0.22540 0.46670
 H1231 H 0.23756 0.23654 0.43036
 H1232 H 0.26210 0.26313 0.43032
 H1233 H 0.24330 0.23595 0.50032
 H1234 H 0.30045 0.29777 0.48214
 H1235 H 0.30043 0.29781 0.51835
 H1236 H 0.26214 0.26317 0.57026
 H1237 H 0.23768 0.23650 0.57029
 H1238 H 0.19931 0.20185 0.48227
 H1239 H 0.25642 0.26374 0.50029
 H1240 H 0.19937 0.20181 0.51848
 C1241 C 0.74369 0.75707 0.94214
 C1242 C 0.75626 0.74295 0.94214
 C1243 C 0.75997 0.73885 0.96042
 N1244 N 0.75000 0.75001 0.97152
 C1245 C 0.74000 0.76117 0.96042
 C1246 C 0.77286 0.72542 0.96633
 C1247 C 0.77723 0.72155 0.98493
 C1248 C 0.79177 0.71038 0.99049
 C1249 C 0.79178 0.71038 1.00940
 C1250 C 0.77724 0.72156 1.01496
 N1251 N 0.76824 0.72803 0.99995
 C1252 C 0.77289 0.72544 1.03356
 C1253 C 0.76002 0.73888 1.03947
 C1254 C 0.75635 0.74298 1.05775
 C1255 C 0.74379 0.75711 1.05776
 C1256 C 0.74008 0.76121 1.03948
 N1257 N 0.75004 0.75004 1.02837
 C1258 C 0.72718 0.77463 1.03357
 C1259 C 0.72281 0.77850 1.01497
 C1260 C 0.70825 0.78966 1.00941
 C1261 C 0.70823 0.78964 0.99051
 C1262 C 0.72277 0.77848 0.98494
 N1263 N 0.73179 0.77202 0.99995
 C1264 C 0.72711 0.77459 0.96634
 H1265 H 0.73785 0.76350 0.93002
 H1266 H 0.76208 0.73652 0.93002
 H1267 H 0.74411 0.76475 0.99995
 H1268 H 0.80157 0.70317 0.98184
 H1269 H 0.80159 0.70318 1.01805
 H1270 H 0.76218 0.73655 1.06988
 H1271 H 0.73798 0.76355 1.06988
 H1272 H 0.69841 0.79683 0.98186
 H1273 H 0.75594 0.73532 0.99995
 H1274 H 0.69845 0.79686 1.01807
 C1275 C 0.74360 0.25691 0.55785
 C1276 C 0.75620 0.24281 0.55786
 C1277 C 0.75993 0.23873 0.53959
 N1278 N 0.74994 0.24988 0.52848
 C1279 C 0.73992 0.26101 0.53956
 C1280 C 0.77285 0.22531 0.53369
 C1281 C 0.77717 0.22139 0.51508
 C1282 C 0.79163 0.21011 0.50952
 C1283 C 0.79161 0.21008 0.49062
 C1284 C 0.77714 0.22135 0.48504
 N1285 N 0.76821 0.22790 0.50006
 C1286 C 0.77279 0.22522 0.46643
 C1287 C 0.75987 0.23863 0.46050
 C1288 C 0.75611 0.24266 0.44222
 C1289 C 0.74353 0.25678 0.44220
 C1290 C 0.73989 0.26094 0.46047
 N1291 N 0.74991 0.24982 0.47158
 C1292 C 0.72705 0.27443 0.46638
 C1293 C 0.72276 0.27841 0.48498
 C1294 C 0.70840 0.28982 0.49054
 C1295 C 0.70840 0.28983 0.50945
 C1296 C 0.72276 0.27842 0.51502
 N1297 N 0.73164 0.27181 0.50001
 C1298 C 0.72705 0.27447 0.53363
 H1299 H 0.73776 0.26333 0.56997
 H1300 H 0.76202 0.23639 0.57000
 H1301 H 0.74378 0.26427 0.50001
 H1302 H 0.80138 0.20283 0.51818
 H1303 H 0.80135 0.20278 0.48197
 H1304 H 0.76189 0.23619 0.43010
 H1305 H 0.73767 0.26317 0.43007
 H1306 H 0.69872 0.29720 0.51809
 H1307 H 0.75599 0.23530 0.50005
 H1308 H 0.69872 0.29719 0.48188
 C1309 C 0.74352 0.24295 0.05750
 C1310 C 0.75600 0.25710 0.05747
 C1311 C 0.75972 0.26113 0.03919
 N1312 N 0.74984 0.24991 0.02811
 C1313 C 0.73990 0.23877 0.03923
 C1314 C 0.77254 0.27456 0.03324
 C1315 C 0.77684 0.27846 0.01462
 C1316 C 0.79123 0.28975 0.00902
 C1317 C 0.79120 0.28975 -0.00988
 C1318 C 0.77679 0.27846 -0.01542
 N1319 N 0.76791 0.27191 -0.00038
 C1320 C 0.77245 0.27456 -0.03402
 C1321 C 0.75966 0.26107 -0.03991
 C1322 C 0.75594 0.25698 -0.05817
 C1323 C 0.74352 0.24277 -0.05814
 C1324 C 0.73993 0.23862 -0.03986
 N1325 N 0.74984 0.24983 -0.02878
 C1326 C 0.72725 0.22505 -0.03391
 C1327 C 0.72298 0.22111 -0.01530
 C1328 C 0.70872 0.20966 -0.00970
 C1329 C 0.70869 0.20972 0.00920
 C1330 C 0.72294 0.22121 0.01474
 N1331 N 0.73178 0.22781 -0.00029
 C1332 C 0.72716 0.22524 0.03334
 H1333 H 0.73772 0.23654 0.06964
 H1334 H 0.76175 0.26358 0.06958
 H1335 H 0.74385 0.23540 -0.00030
 H1336 H 0.80094 0.29705 0.01766
 H1337 H 0.80089 0.29705 -0.01855
 H1338 H 0.76166 0.26346 -0.07031
 H1339 H 0.73774 0.23632 -0.07025
 H1340 H 0.69906 0.20233 0.01786
 H1341 H 0.75572 0.26450 -0.00036
 H1342 H 0.69911 0.20222 -0.01834
 C1343 C 0.74270 0.74344 0.44231
 C1344 C 0.75647 0.75636 0.44220
 C1345 C 0.76057 0.76020 0.46044
 N1346 N 0.74969 0.75002 0.47161
 C1347 C 0.73873 0.73974 0.46062
 C1348 C 0.77393 0.77319 0.46626
 C1349 C 0.77806 0.77750 0.48484
 C1350 C 0.78994 0.79145 0.49032
 C1351 C 0.78999 0.79154 0.50924
 C1352 C 0.77814 0.77764 0.51492
 N1353 N 0.77123 0.76898 0.49995
 C1354 C 0.77413 0.77349 0.53357
 C1355 C 0.76088 0.76048 0.53961
 C1356 C 0.75696 0.75672 0.55792
 C1357 C 0.74323 0.74376 0.55802
 C1358 C 0.73910 0.73995 0.53978
 N1359 N 0.74993 0.75020 0.52862
 C1360 C 0.72574 0.72696 0.53396
 C1361 C 0.72154 0.72271 0.51538
 C1362 C 0.70952 0.70888 0.50990
 C1363 C 0.70942 0.70884 0.49098
 C1364 C 0.72139 0.72265 0.48530
 N1365 N 0.72843 0.73119 0.50028
 C1366 C 0.72541 0.72680 0.46666
 H1367 H 0.73638 0.73743 0.43023
 H1368 H 0.76269 0.76228 0.43002
 H1369 H 0.73662 0.74279 0.50020
 H1370 H 0.79772 0.80072 0.48160
 H1371 H 0.79782 0.80088 0.51782
 H1372 H 0.76328 0.76273 0.56999
 H1373 H 0.73704 0.73780 0.57020
 H1374 H 0.70149 0.69960 0.48239
 H1375 H 0.76321 0.75726 0.50003
 H1376 H 0.70167 0.69968 0.51862
 C1377 C 1.05794 0.25718 0.24387
 C1378 C 1.05793 0.24306 0.25638
 C1379 C 1.03958 0.23894 0.25998
 N1380 N 1.02844 0.25009 0.25001
 C1381 C 1.03959 0.26126 0.24012
 C1382 C 1.03363 0.22548 0.27274
 C1383 C 1.01495 0.22154 0.27697
 C1384 C 1.00935 0.21027 0.29135
 C1385 C 0.99037 0.21026 0.29128
 C1386 C 0.98480 0.22152 0.27687
 N1387 N 0.99989 0.22805 0.26801
 C1388 C 0.96612 0.22542 0.27252
 C1389 C 0.96019 0.23888 0.25971
 C1390 C 0.94185 0.24299 0.25599
 C1391 C 0.94186 0.25709 0.24347
 C1392 C 0.96021 0.26118 0.23984
 N1393 N 0.97135 0.25002 0.24980
 C1394 C 0.96615 0.27462 0.22704
 C1395 C 0.98483 0.27855 0.22280
 C1396 C 0.99044 0.28979 0.20841
 C1397 C 1.00942 0.28982 0.20848
 C1398 C 1.01499 0.27859 0.22292
 N1399 N 0.99990 0.27206 0.23178
 C1400 C 1.03366 0.27470 0.22730
 H1401 H 1.07011 0.26360 0.23811
 H1402 H 1.07010 0.23665 0.26222
 H1403 H 0.99987 0.26471 0.24399
 H1404 H 1.01802 0.20301 0.30109
 H1405 H 0.98168 0.20299 0.30097
 H1406 H 0.92967 0.23659 0.26177
 H1407 H 0.92969 0.26351 0.23763
 H1408 H 1.01812 0.29708 0.19880
 H1409 H 0.99991 0.23543 0.25582
 H1410 H 0.98177 0.29703 0.19865
 C1411 C 0.55809 0.25697 0.74391
 C1412 C 0.55815 0.24280 0.75635
 C1413 C 0.53981 0.23864 0.76000
 N1414 N 0.52863 0.24983 0.75011
 C1415 C 0.53973 0.26105 0.74024
 C1416 C 0.53392 0.22512 0.77272
 C1417 C 0.51524 0.22119 0.77700
 C1418 C 0.50968 0.20988 0.79136
 C1419 C 0.49071 0.20987 0.79137
 C1420 C 0.48508 0.22117 0.77701
 N1421 N 0.50014 0.22773 0.76812
 C1422 C 0.46638 0.22507 0.77271
 C1423 C 0.46040 0.23854 0.75995
 C1424 C 0.44203 0.24265 0.75630
 C1425 C 0.44198 0.25679 0.74382
 C1426 C 0.46032 0.26090 0.74014
 N1427 N 0.47150 0.24972 0.75003
 C1428 C 0.46622 0.27439 0.72737
 C1429 C 0.48489 0.27832 0.72310
 C1430 C 0.49045 0.28960 0.70872
 C1431 C 0.50943 0.28964 0.70874
 C1432 C 0.51505 0.27838 0.72314
 N1433 N 0.49998 0.27182 0.73202
 C1434 C 0.53374 0.27452 0.72747
 H1435 H 0.57024 0.26344 0.73813
 H1436 H 0.57034 0.23637 0.76212
 H1437 H 0.50000 0.26444 0.74422
 H1438 H 0.51839 0.20258 0.80104
 H1439 H 0.48204 0.20257 0.80106
 H1440 H 0.42988 0.23621 0.76211
 H1441 H 0.42979 0.26323 0.73806
 H1442 H 0.51809 0.29693 0.69905
 H1443 H 0.50012 0.23515 0.75595
 H1444 H 0.48175 0.29687 0.69901
 C1445 C -0.05803 0.24307 0.74367
 C1446 C -0.05807 0.25723 0.75612
 C1447 C -0.03973 0.26130 0.75982
 N1448 N -0.02856 0.25008 0.74997
 C1449 C -0.03968 0.23892 0.74007
 C1450 C -0.03382 0.27477 0.77258
 C1451 C -0.01515 0.27868 0.77688
 C1452 C -0.00959 0.29000 0.79122
 C1453 C 0.00939 0.28999 0.79124
 C1454 C 0.01502 0.27867 0.77691
 N1455 N -0.00004 0.27211 0.76803
 C1456 C 0.03371 0.27472 0.77266
 C1457 C 0.03968 0.26115 0.76000
 C1458 C 0.05804 0.25697 0.75641
 C1459 C 0.05806 0.24277 0.74399
 C1460 C 0.03972 0.23871 0.74031
 N1461 N 0.02856 0.24996 0.75012
 C1462 C 0.03380 0.22521 0.72758
 C1463 C 0.01514 0.22135 0.72323
 C1464 C 0.00959 0.21006 0.70886
 C1465 C -0.00939 0.21011 0.70880
 C1466 C -0.01502 0.22143 0.72314
 N1467 N 0.00003 0.22794 0.73207
 C1468 C -0.03371 0.22540 0.72736
 H1469 H -0.07019 0.23666 0.73786
 H1470 H -0.07026 0.26369 0.76186
 H1471 H 0.00000 0.23534 0.74423
 H1472 H -0.01830 0.29731 0.80088
 H1473 H 0.01804 0.29730 0.80092
 H1474 H 0.07020 0.26339 0.76219
 H1475 H 0.07024 0.23628 0.73826
 H1476 H -0.01805 0.20283 0.69910
 H1477 H -0.00001 0.26468 0.75587
 H1478 H 0.01829 0.20274 0.69920
 C1479 C 0.44201 0.24275 0.24377
 C1480 C 0.44200 0.25684 0.25630
 C1481 C 0.46035 0.26094 0.25993
 N1482 N 0.47150 0.24980 0.24998
 C1483 C 0.46037 0.23866 0.24006
 C1484 C 0.46628 0.27437 0.27272
 C1485 C 0.48495 0.27831 0.27697
 C1486 C 0.49053 0.28958 0.29134
 C1487 C 0.50951 0.28961 0.29130
 C1488 C 0.51511 0.27835 0.27690
 N1489 N 0.50003 0.27181 0.26804
 C1490 C 0.53379 0.27444 0.27258
 C1491 C 0.53974 0.26095 0.25983
 C1492 C 0.55809 0.25680 0.25618
 C1493 C 0.55810 0.24268 0.24370
 C1494 C 0.53975 0.23863 0.24001
 N1495 N 0.52860 0.24982 0.24991
 C1496 C 0.53383 0.22520 0.22722
 C1497 C 0.51516 0.22132 0.22291
 C1498 C 0.50958 0.21011 0.20849
 C1499 C 0.49060 0.21012 0.20850
 C1500 C 0.48500 0.22133 0.22293
 N1501 N 0.50007 0.22782 0.23185
 C1502 C 0.46632 0.22524 0.22725
 H1503 H 0.42985 0.23634 0.23798
 H1504 H 0.42982 0.26324 0.26213
 H1505 H 0.50007 0.23514 0.24406
 H1506 H 0.48184 0.29684 0.30107
 H1507 H 0.51819 0.29688 0.30099
 H1508 H 0.57026 0.26319 0.26199
 H1509 H 0.57028 0.23623 0.23792
 H1510 H 0.48193 0.20290 0.19877
 H1511 H 0.50003 0.26444 0.25585
 H1512 H 0.51828 0.20287 0.19876
 C1513 C 1.05789 0.75735 0.74386
 C1514 C 1.05793 0.74323 0.75636
 C1515 C 1.03959 0.73908 0.75998
 N1516 N 1.02842 0.75022 0.75004
 C1517 C 1.03953 0.76141 0.74014
 C1518 C 1.03368 0.72558 0.77273
 C1519 C 1.01501 0.72164 0.77699
 C1520 C 1.00943 0.71035 0.79136
 C1521 C 0.99045 0.71033 0.79133
 C1522 C 0.98485 0.72161 0.77694
 N1523 N 0.99992 0.72816 0.76807
 C1524 C 0.96616 0.72551 0.77262
 C1525 C 0.96020 0.73899 0.75985
 C1526 C 0.94184 0.74310 0.75618
 C1527 C 0.94181 0.75723 0.74369
 C1528 C 0.96015 0.76134 0.74003
 N1529 N 0.97132 0.75017 0.74994
 C1530 C 0.96606 0.77481 0.72726
 C1531 C 0.98473 0.77873 0.72297
 C1532 C 0.99030 0.78997 0.70856
 C1533 C 1.00928 0.78997 0.70858
 C1534 C 1.01489 0.77874 0.72300
 N1535 N 0.99982 0.77223 0.73191
 C1536 C 1.03357 0.77484 0.72732
 H1537 H 1.07005 0.76379 0.73808
 H1538 H 1.07012 0.73684 0.76219
 H1539 H 0.99983 0.76488 0.74412
 H1540 H 1.01812 0.70308 0.80108
 H1541 H 0.98177 0.70305 0.80102
 H1542 H 0.92968 0.73667 0.76197
 H1543 H 0.92963 0.76365 0.73790
 H1544 H 1.01796 0.79722 0.69886
 H1545 H 0.99992 0.73554 0.75588
 H1546 H 0.98161 0.79722 0.69883
 C1547 C 0.55828 0.75671 0.24468
 C1548 C 0.55814 0.74263 0.25724
 C1549 C 0.53976 0.73859 0.26074
 N1550 N 0.52872 0.74976 0.25066
 C1551 C 0.53998 0.76085 0.24081
 C1552 C 0.53367 0.72518 0.27350
 C1553 C 0.51494 0.72133 0.27759
 C1554 C 0.50918 0.71010 0.29194
 C1555 C 0.49021 0.71012 0.29171
 C1556 C 0.48479 0.72136 0.27723
 N1557 N 0.49997 0.72786 0.26849
 C1558 C 0.46616 0.72528 0.27269
 C1559 C 0.46036 0.73875 0.25985
 C1560 C 0.44206 0.74292 0.25601
 C1561 C 0.44219 0.75704 0.24352
 C1562 C 0.46058 0.76108 0.24002
 N1563 N 0.47162 0.74988 0.25004
 C1564 C 0.46666 0.77452 0.22729
 C1565 C 0.48538 0.77835 0.22315
 C1566 C 0.49112 0.78956 0.20878
 C1567 C 0.51010 0.78949 0.20895
 C1568 C 0.51554 0.77824 0.22342
 N1569 N 0.50037 0.77179 0.23221
 C1570 C 0.53418 0.77427 0.22790
 H1571 H 0.57052 0.76307 0.23898
 H1572 H 0.57025 0.73618 0.26318
 H1573 H 0.50024 0.76445 0.24442
 H1574 H 0.51775 0.70283 0.30177
 H1575 H 0.48141 0.70288 0.30133
 H1576 H 0.42982 0.73654 0.26169
 H1577 H 0.43008 0.76351 0.23761
 H1578 H 0.51888 0.79670 0.19930
 H1579 H 0.50011 0.73521 0.25629
 H1580 H 0.48253 0.79684 0.19897
 C1581 C 0.05792 0.74326 0.24371
 C1582 C 0.05783 0.75733 0.25626
 C1583 C 0.03945 0.76137 0.25992
 N1584 N 0.02838 0.75021 0.24996
 C1585 C 0.03959 0.73912 0.24001
 C1586 C 0.03343 0.77476 0.27274
 C1587 C 0.01473 0.77860 0.27704
 C1588 C 0.00906 0.78982 0.29144
 C1589 C -0.00992 0.78974 0.29144
 C1590 C -0.01544 0.77847 0.27705
 N1591 N -0.00031 0.77203 0.26813
 C1592 C -0.03409 0.77446 0.27276
 C1593 C -0.03994 0.76102 0.25994
 C1594 C -0.05826 0.75686 0.25626
 C1595 C -0.05817 0.74277 0.24374
 C1596 C -0.03979 0.73874 0.24008
 N1597 N -0.02872 0.74992 0.25001
 C1598 C -0.03377 0.72533 0.22727
 C1599 C -0.01507 0.72152 0.22295
 C1600 C -0.00941 0.71033 0.20853
 C1601 C 0.00956 0.71044 0.20850
 C1602 C 0.01509 0.72170 0.22290
 N1603 N -0.00003 0.72811 0.23184
 C1604 C 0.03374 0.72569 0.22719
 H1605 H 0.07013 0.73690 0.23790
 H1606 H 0.06996 0.76375 0.26209
 H1607 H -0.00007 0.73545 0.24405
 H1608 H 0.01770 0.79712 0.30115
 H1609 H -0.01865 0.79696 0.30115
 H1610 H -0.07048 0.76322 0.26205
 H1611 H -0.07030 0.73632 0.23793
 H1612 H 0.01829 0.70324 0.19876
 H1613 H -0.00027 0.76466 0.25594
 H1614 H -0.01806 0.70303 0.19883
 C1615 C 0.44147 0.75727 0.75631
 C1616 C 0.44151 0.74311 0.74386
 C1617 C 0.45987 0.73900 0.74021
 N1618 N 0.47098 0.75021 0.75007
 C1619 C 0.45981 0.76140 0.75995
 C1620 C 0.46585 0.72550 0.72748
 C1621 C 0.48454 0.72161 0.72319
 C1622 C 0.49016 0.71035 0.70881
 C1623 C 0.50914 0.71036 0.70881
 C1624 C 0.51469 0.72162 0.72320
 N1625 N 0.49959 0.72815 0.73209
 C1626 C 0.53335 0.72552 0.72751
 C1627 C 0.53926 0.73897 0.74028
 C1628 C 0.55761 0.74305 0.74396
 C1629 C 0.55757 0.75719 0.75643
 C1630 C 0.53922 0.76133 0.76006
 N1631 N 0.52810 0.75016 0.75015
 C1632 C 0.53324 0.77483 0.77278
 C1633 C 0.51455 0.77879 0.77703
 C1634 C 0.50893 0.79010 0.79137
 C1635 C 0.48995 0.79012 0.79134
 C1636 C 0.48439 0.77882 0.77698
 N1637 N 0.49949 0.77225 0.76812
 C1638 C 0.46572 0.77490 0.77268
 H1639 H 0.42928 0.76370 0.76209
 H1640 H 0.42935 0.73666 0.73809
 H1641 H 0.49952 0.76484 0.75596
 H1642 H 0.48150 0.70307 0.69910
 H1643 H 0.51784 0.70309 0.69911
 H1644 H 0.56979 0.73661 0.73818
 H1645 H 0.56973 0.76360 0.76222
 H1646 H 0.48124 0.79742 0.80101
 H1647 H 0.49957 0.73552 0.74428
 H1648 H 0.51759 0.79738 0.80106
 C1649 C 0.41134 0.30732 0.30709
 C1650 C 0.42451 0.30031 0.29973
 C1651 C 0.43957 0.29180 0.29079
 C1652 C 0.45200 0.28414 0.28280
 C1653 C 0.41085 0.80825 0.80685
 C1654 C 0.42399 0.80116 0.79949
 C1655 C 0.43901 0.79253 0.79059
 C1656 C 0.45142 0.78477 0.78266
 C1657 C -0.08879 0.30794 0.80675
 C1658 C -0.07562 0.30089 0.79940
 C1659 C -0.06056 0.29232 0.79051
 C1660 C -0.04813 0.28461 0.78258
 C1661 C -0.08916 0.80734 0.30702
 C1662 C -0.07600 0.80028 0.29968
 C1663 C -0.06091 0.79178 0.29078
 C1664 C -0.04844 0.78416 0.28282
 C1665 C 0.58792 0.69163 0.30842
 C1666 C 0.57487 0.69876 0.30096
 C1667 C 0.56003 0.70748 0.29184
 C1668 C 0.54780 0.71530 0.28370
 C1669 C 0.58838 0.19138 0.80722
 C1670 C 0.57538 0.19861 0.79976
 C1671 C 0.56051 0.20739 0.79073
 C1672 C 0.54819 0.21523 0.78273
 C1673 C 1.08870 0.69240 0.80681
 C1674 C 1.07552 0.69945 0.79951
 C1675 C 1.06043 0.70803 0.79065
 C1676 C 1.04799 0.71575 0.78274
 C1677 C 1.08855 0.19247 0.30710
 C1678 C 1.07538 0.19949 0.29975
 C1679 C 1.06032 0.20801 0.29081
 C1680 C 1.04790 0.21569 0.28283
 C1681 C 0.58854 0.30770 0.69332
 C1682 C 0.57539 0.30068 0.70065
 C1683 C 0.56036 0.29211 0.70954
 C1684 C 0.54797 0.28438 0.71747
 C1685 C 0.58904 0.80731 0.19362
 C1686 C 0.57596 0.80023 0.20103
 C1687 C 0.56096 0.79165 0.20998
 C1688 C 0.54854 0.78398 0.21793
 C1689 C 1.08861 0.30772 0.19321
 C1690 C 1.07544 0.30071 0.20053
 C1691 C 1.06037 0.29218 0.20939
 C1692 C 1.04795 0.28450 0.21730
 C1693 C 1.08843 0.80775 0.69301
 C1694 C 1.07527 0.80078 0.70037
 C1695 C 1.06023 0.79228 0.70930
 C1696 C 1.04783 0.78462 0.71727
 C1697 C 0.41169 0.69176 0.69285
 C1698 C 0.42462 0.69897 0.70037
 C1699 C 0.43940 0.70775 0.70946
 C1700 C 0.45164 0.71560 0.71749
 C1701 C 0.41160 0.19207 0.19294
 C1702 C 0.42469 0.19914 0.20033
 C1703 C 0.43968 0.20773 0.20926
 C1704 C 0.45206 0.21544 0.21722
 C1705 C -0.08859 0.69223 0.19314
 C1706 C -0.07542 0.69923 0.20045
 C1707 C -0.06037 0.70777 0.20932
 C1708 C -0.04798 0.71548 0.21725
 C1709 C -0.08842 0.19219 0.69313
 C1710 C -0.07531 0.19926 0.70048
 C1711 C -0.06032 0.20785 0.70939
 C1712 C -0.04795 0.21558 0.71734
 C1713 C 0.30740 0.41127 0.30704
 C1714 C 0.30043 0.42446 0.29969
 C1715 C 0.29194 0.43955 0.29077
 C1716 C 0.28429 0.45197 0.28279
 C1717 C 0.30827 -0.08893 0.80706
 C1718 C 0.30126 -0.07572 0.79976
 C1719 C 0.29272 -0.06063 0.79089
 C1720 C 0.28499 -0.04823 0.78294
 C1721 C 0.80781 0.41122 0.80724
 C1722 C 0.80078 0.42436 0.79987
 C1723 C 0.79222 0.43940 0.79093
 C1724 C 0.78453 0.45181 0.78295
 C1725 C 0.80754 -0.08916 0.30734
 C1726 C 0.80060 -0.07593 0.30004
 C1727 C 0.79217 -0.06080 0.29116
 C1728 C 0.78457 -0.04834 0.28318
 C1729 C 0.30841 0.58812 0.69206
 C1730 C 0.30130 0.57509 0.69951
 C1731 C 0.29262 0.56023 0.70855
 C1732 C 0.28483 0.54794 0.71656
 C1733 C 0.30772 1.08835 0.19292
 C1734 C 0.30064 1.07526 0.20029
 C1735 C 0.29204 1.06027 0.20920
 C1736 C 0.28433 1.04790 0.21715
 C1737 C 0.80754 0.58862 0.19329
 C1738 C 0.80051 0.57549 0.20062
 C1739 C 0.79196 0.56047 0.20951
 C1740 C 0.78426 0.54808 0.21745
 C1741 C 0.80732 1.08883 0.69364
 C1742 C 0.80017 1.07581 0.70107
 C1743 C 0.79152 1.06089 0.71004
 C1744 C 0.78379 1.04852 0.71800
 C1745 C 0.69170 0.58817 0.30773
 C1746 C 0.69889 0.57517 0.30026
 C1747 C 0.70763 0.56032 0.29119
 C1748 C 0.71543 0.54804 0.28313
 C1749 C 0.69158 1.08832 0.80852
 C1750 C 0.69871 1.07525 0.80109
 C1751 C 0.70738 1.06036 0.79201
 C1752 C 0.71514 1.04808 0.78391
 C1753 C 0.19278 0.58844 0.80668
 C1754 C 0.19983 0.57531 0.79931
 C1755 C 0.20840 0.56029 0.79036
 C1756 C 0.21610 0.54790 0.78237
 C1757 C 0.19248 1.08852 0.30715
 C1758 C 0.19945 1.07534 0.29980
 C1759 C 0.20794 1.06028 0.29086
 C1760 C 0.21559 1.04787 0.28287
 C1761 C 0.69242 0.41131 0.69331
 C1762 C 0.69942 0.42446 0.70062
 C1763 C 0.70796 0.43950 0.70948
 C1764 C 0.71565 0.45190 0.71740
 C1765 C 0.69259 -0.08874 0.19334
 C1766 C 0.69963 -0.07562 0.20066
 C1767 C 0.70820 -0.06061 0.20953
 C1768 C 0.71590 -0.04823 0.21746
 C1769 C 0.19238 0.41146 0.19305
 C1770 C 0.19938 0.42461 0.20035
 C1771 C 0.20790 0.43965 0.20920
 C1772 C 0.21557 0.45205 0.21713
 C1773 C 0.19254 -0.08897 0.69328
 C1774 C 0.19964 -0.07592 0.70068
 C1775 C 0.20825 -0.06098 0.70960
 C1776 C 0.21597 -0.04861 0.71753
 C1777 C 0.30710 0.30725 0.41191
 C1778 C 0.29983 0.30017 0.42503
 C1779 C 0.29093 0.29162 0.44003
 C1780 C 0.28293 0.28397 0.45241
 C1781 C 0.30779 0.80764 -0.08860
 C1782 C 0.30070 0.80027 -0.07553
 C1783 C 0.29214 0.79127 -0.06058
 C1784 C 0.28448 0.78322 -0.04823
 C1785 C 0.80681 0.30800 -0.08847
 C1786 C 0.79941 0.30083 -0.07546
 C1787 C 0.79044 0.29216 -0.06056
 C1788 C 0.78246 0.28440 -0.04824
 C1789 C 0.80716 0.80741 0.41158
 C1790 C 0.79998 0.80003 0.42460
 C1791 C 0.79134 0.79113 0.43956
 C1792 C 0.78365 0.78320 0.45195
 C1793 C 0.69271 0.30762 0.58830
 C1794 C 0.70003 0.30055 0.57519
 C1795 C 0.70897 0.29198 0.56020
 C1796 C 0.71696 0.28428 0.54784
 C1797 C 0.69285 0.80776 1.08825
 C1798 C 0.70019 0.80069 1.07514
 C1799 C 0.70911 0.79213 1.06016
 C1800 C 0.71710 0.78443 1.04779
 C1801 C 0.19272 0.30770 1.08824
 C1802 C 0.20004 0.30063 1.07512
 C1803 C 0.20896 0.29208 1.06011
 C1804 C 0.21695 0.28439 1.04774
 C1805 C 0.19272 0.80765 0.58811
 C1806 C 0.20013 0.80054 0.57507
 C1807 C 0.20915 0.79196 0.56016
 C1808 C 0.21719 0.78426 0.54783
 C1809 C 0.30721 0.69202 0.58829
 C1810 C 0.29992 0.69904 0.57513
 C1811 C 0.29100 0.70761 0.56013
 C1812 C 0.28301 0.71534 0.54779
 C1813 C 0.30721 0.19237 1.08823
 C1814 C 0.29989 0.19942 1.07511
 C1815 C 0.29094 0.20797 1.06010
 C1816 C 0.28293 0.21564 1.04772
 C1817 C 0.80720 0.69225 1.08823
 C1818 C 0.79988 0.69933 1.07512
 C1819 C 0.79096 0.70791 1.06013
 C1820 C 0.78297 0.71562 1.04777
 C1821 C 0.80729 0.19227 0.58842
 C1822 C 0.79995 0.19934 0.57530
 C1823 C 0.79099 0.20788 0.56030
 C1824 C 0.78297 0.21555 0.54792
 C1825 C 0.69217 0.69268 0.41202
 C1826 C 0.69924 0.69989 0.42518
 C1827 C 0.70785 0.70873 0.44017
 C1828 C 0.71558 0.71670 0.45250
 C1829 C 0.69324 0.19175 -0.08860
 C1830 C 0.70049 0.19878 -0.07544
 C1831 C 0.70935 0.20737 -0.06044
 C1832 C 0.71728 0.21514 -0.04810
 C1833 C 0.19292 0.69258 -0.08849
 C1834 C 0.20002 0.69994 -0.07543
 C1835 C 0.20857 0.70893 -0.06048
 C1836 C 0.21622 0.71698 -0.04815
 C1837 C 0.19249 0.19224 0.41219
 C1838 C 0.19981 0.19936 0.42526
 C1839 C 0.20875 0.20797 0.44019
 C1840 C 0.21677 0.21566 0.45251
 C1841 C 0.30838 0.41190 0.69174
 C1842 C 0.30127 0.42495 0.69917
 C1843 C 0.29258 0.43983 0.70821
 C1844 C 0.28480 0.45212 0.71626
 C1845 C 0.30772 0.91143 0.19280
 C1846 C 0.30067 0.92458 0.20013
 C1847 C 0.29208 0.93962 0.20903
 C1848 C 0.28436 0.95201 0.21698
 C1849 C 0.80728 0.41155 0.19271
 C1850 C 0.80029 0.42471 0.20008
 C1851 C 0.79180 0.43976 0.20903
 C1852 C 0.78414 0.45217 0.21704
 C1853 C 0.80703 0.91193 0.69301
 C1854 C 0.80005 0.92512 0.70034
 C1855 C 0.79156 0.94020 0.70926
 C1856 C 0.78390 0.95261 0.71726
 C1857 C 0.69217 0.58833 0.69306
 C1858 C 0.69923 0.57518 0.70040
 C1859 C 0.70785 0.56017 0.70931
 C1860 C 0.71560 0.54779 0.71728
 C1861 C 0.69286 0.08831 0.19293
 C1862 C 0.69987 0.07514 0.20027
 C1863 C 0.70838 0.06007 0.20918
 C1864 C 0.71604 0.04765 0.21716
 C1865 C 0.19233 0.58848 0.19243
 C1866 C 0.19935 0.57534 0.19981
 C1867 C 0.20789 0.56032 0.20879
 C1868 C 0.21558 0.54793 0.21681
 C1869 C 0.19208 0.08771 0.69272
 C1870 C 0.19912 0.07456 0.70007
 C1871 C 0.20774 0.05957 0.70903
 C1872 C 0.21551 0.04724 0.71704
 C1873 C 0.30746 0.58843 0.30670
 C1874 C 0.30047 0.57528 0.29937
 C1875 C 0.29196 0.56026 0.29048
 C1876 C 0.28428 0.54787 0.28254
 C1877 C 0.30762 0.08833 0.80666
 C1878 C 0.30061 0.07519 0.79932
 C1879 C 0.29210 0.06014 0.79045
 C1880 C 0.28445 0.04771 0.78254
 C1881 C 0.80778 0.58834 0.80686
 C1882 C 0.80078 0.57519 0.79955
 C1883 C 0.79224 0.56014 0.79069
 C1884 C 0.78455 0.54774 0.78277
 C1885 C 0.80792 0.08817 0.30702
 C1886 C 0.80093 0.07502 0.29969
 C1887 C 0.79242 0.05998 0.29080
 C1888 C 0.78475 0.04758 0.28287
 C1889 C 0.69224 0.41149 0.30676
 C1890 C 0.69921 0.42467 0.29946
 C1891 C 0.70772 0.43974 0.29062
 C1892 C 0.71540 0.45217 0.28272
 C1893 C 0.69184 0.91152 0.80686
 C1894 C 0.69884 0.92468 0.79956
 C1895 C 0.70739 0.93975 0.79075
 C1896 C 0.71511 0.95219 0.78290
 C1897 C 0.19262 0.41160 0.80644
 C1898 C 0.19972 0.42467 0.79903
 C1899 C 0.20834 0.43962 0.79007
 C1900 C 0.21608 0.45197 0.78209
 C1901 C 0.19229 0.91131 0.30666
 C1902 C 0.19929 0.92447 0.29934
 C1903 C 0.20781 0.93953 0.29047
 C1904 C 0.21549 0.95195 0.28255
 C1905 C 0.41186 0.30800 0.69264
 C1906 C 0.42484 0.30079 0.70015
 C1907 C 0.43967 0.29204 0.70925
 C1908 C 0.45196 0.28423 0.71732
 C1909 C 0.41187 0.80768 0.19291
 C1910 C 0.42506 0.80067 0.20025
 C1911 C 0.44011 0.79212 0.20917
 C1912 C 0.45249 0.78439 0.21716
 C1913 C 0.91124 0.30760 0.19265
 C1914 C 0.92441 0.30060 0.20002
 C1915 C 0.93947 0.29208 0.20896
 C1916 C 0.95189 0.28440 0.21695
 C1917 C 0.91104 0.80792 0.69312
 C1918 C 0.92422 0.80088 0.70044
 C1919 C 0.93931 0.79233 0.70931
 C1920 C 0.95176 0.78463 0.71724
 C1921 C 0.58872 0.30754 0.30657
 C1922 C 0.57556 0.30053 0.29927
 C1923 C 0.56049 0.29198 0.29043
 C1924 C 0.54806 0.28427 0.28255
 C1925 C 0.58816 0.80780 0.80694
 C1926 C 0.57498 0.80083 0.79960
 C1927 C 0.55992 0.79233 0.79072
 C1928 C 0.54750 0.78465 0.78279
 C1929 C 0.08843 0.30817 0.80674
 C1930 C 0.07531 0.30109 0.79940
 C1931 C 0.06032 0.29243 0.79052
 C1932 C 0.04796 0.28463 0.78261
 C1933 C 0.08832 0.80775 0.30693
 C1934 C 0.07514 0.80078 0.29961
 C1935 C 0.06007 0.79227 0.29074
 C1936 C 0.04766 0.78458 0.28279
 C1937 C 0.58821 0.69235 0.69323
 C1938 C 0.57506 0.69939 0.70059
 C1939 C 0.56003 0.70797 0.70952
 C1940 C 0.54763 0.71569 0.71749
 C1941 C 0.58878 0.19218 0.19294
 C1942 C 0.57560 0.19919 0.20029
 C1943 C 0.56054 0.20772 0.20920
 C1944 C 0.54811 0.21541 0.21717
 C1945 C 0.08858 0.69269 0.19269
 C1946 C 0.07546 0.69974 0.20010
 C1947 C 0.06046 0.70830 0.20910
 C1948 C 0.04806 0.71597 0.21711
 C1949 C 0.08821 0.19143 0.69314
 C1950 C 0.07521 0.19864 0.70061
 C1951 C 0.06036 0.20742 0.70963
 C1952 C 0.04806 0.21529 0.71762
 C1953 C 0.41109 0.69221 0.30653
 C1954 C 0.42425 0.69923 0.29921
 C1955 C 0.43933 0.70777 0.29039
 C1956 C 0.45179 0.71547 0.28255
 C1957 C 0.41148 0.19198 0.80682
 C1958 C 0.42466 0.19898 0.79951
 C1959 C 0.43973 0.20751 0.79065
 C1960 C 0.45214 0.21522 0.78272
 C1961 C 0.91130 0.69234 0.80672
 C1962 C 0.92445 0.69937 0.79939
 C1963 C 0.93950 0.70794 0.79052
 C1964 C 0.95190 0.71567 0.78260
 C1965 C 0.91134 0.19224 0.30675
 C1966 C 0.92445 0.19930 0.29938
 C1967 C 0.93946 0.20789 0.29046
 C1968 C 0.95185 0.21561 0.28252
 C1969 C 0.30703 0.30752 0.58849
 C1970 C 0.29975 0.30046 0.57537
 C1971 C 0.29083 0.29186 0.56042
 C1972 C 0.28284 0.28414 0.54810
 C1973 C 0.30790 0.80735 0.08795
 C1974 C 0.30082 0.80005 0.07484
 C1975 C 0.29227 0.79114 0.05985
 C1976 C 0.28459 0.78316 0.04748
 C1977 C 0.80694 0.30772 0.08779
 C1978 C 0.79958 0.30063 0.07472
 C1979 C 0.79062 0.29206 0.05977
 C1980 C 0.78262 0.28437 0.04743
 C1981 C 0.80727 0.80807 0.58801
 C1982 C 0.80014 0.80073 0.57495
 C1983 C 0.79154 0.79175 0.56003
 C1984 C 0.78386 0.78369 0.54772
 C1985 C 0.30712 0.69206 0.41168
 C1986 C 0.29981 0.69913 0.42480
 C1987 C 0.29091 0.70771 0.43979
 C1988 C 0.28294 0.71543 0.45215
 C1989 C 0.30701 0.19212 0.91157
 C1990 C 0.29965 0.19921 0.92467
 C1991 C 0.29071 0.20778 0.93965
 C1992 C 0.28272 0.21549 0.95201
 C1993 C 0.80717 0.69214 0.91173
 C1994 C 0.79983 0.69924 0.92482
 C1995 C 0.79090 0.70785 0.93978
 C1996 C 0.78292 0.71559 0.95212
 C1997 C 0.80731 0.19200 0.41189
 C1998 C 0.79992 0.19911 0.42496
 C1999 C 0.79093 0.20770 0.43990
 C2000 C 0.78290 0.21542 0.45223
 C2001 C 0.69274 0.30759 0.41166
 C2002 C 0.70006 0.30051 0.42478
 C2003 C 0.70898 0.29194 0.43978
 C2004 C 0.71697 0.28424 0.45215
 C2005 C 0.69258 0.80766 0.91173
 C2006 C 0.69995 0.80060 0.92483
 C2007 C 0.70894 0.79205 0.93980
 C2008 C 0.71698 0.78437 0.95214
 C2009 C 0.19260 0.30800 0.91171
 C2010 C 0.19994 0.30084 0.92477
 C2011 C 0.20888 0.29217 0.93971
 C2012 C 0.21687 0.28440 0.95205
 C2013 C 0.19270 0.80762 0.41177
 C2014 C 0.20007 0.80055 0.42486
 C2015 C 0.20906 0.79199 0.43983
 C2016 C 0.21709 0.78430 0.45218
 C2017 C 0.69272 0.69294 0.58887
 C2018 C 0.69983 0.70018 0.57574
 C2019 C 0.70841 0.70901 0.56070
 C2020 C 0.71606 0.71692 0.54827
 C2021 C 0.69290 0.19211 0.08801
 C2022 C 0.70022 0.19919 0.07490
 C2023 C 0.70914 0.20776 0.05993
 C2024 C 0.71712 0.21545 0.04757
 C2025 C 0.19273 0.69300 0.08802
 C2026 C 0.19983 0.70032 0.07492
 C2027 C 0.20840 0.70923 0.05994
 C2028 C 0.21608 0.71721 0.04757
 C2029 C 0.19291 0.19191 0.58858
 C2030 C 0.20016 0.19905 0.57548
 C2031 C 0.20903 0.20773 0.56053
 C2032 C 0.21698 0.21550 0.54820
   
