data_POSCAR
  _audit_creation_date              2014-09-24
  _audit_creation_method            'ToBaCCo'
  _symmetry_space_group_name_H-M    'P1'
  _symmetry_Int_Tables_number       1
  _symmetry_cell_setting            triclinic
  loop_
  _symmetry_equiv_pos_as_xyz
 x,y,z
_cell_length_a 45.1643
_cell_length_b 45.1113
_cell_length_c 45.2266
_cell_angle_alpha 90.011900
_cell_angle_beta 89.968700
_cell_angle_gamma 89.683300
loop_
  _atom_site_label
  _atom_site_type_symbol
  _atom_site_fract_x
  _atom_site_fract_y
  _atom_site_fract_z
C1 C 0.22178 0.97195 0.01469
 C2 C 0.22739 0.97168 -0.01615
 C3 C 0.22841 0.99925 -0.03115
 C4 C 0.22506 1.02674 -0.01629
 C5 C 0.21826 1.02610 0.01429
 C6 C 0.21618 0.99895 0.02898
 H7 H 0.21116 0.99891 0.05245
 H8 H 0.22990 0.99934 -0.05488
 C9 C 0.74138 0.47402 0.51101
 C10 C 0.74071 0.47423 0.47983
 C11 C 0.73945 0.50159 0.46486
 C12 C 0.73824 0.52862 0.48036
 C13 C 0.73768 0.52827 0.51155
 C14 C 0.73954 0.50097 0.52640
 H15 H 0.73987 0.50061 0.55030
 H16 H 0.73967 0.50194 0.44094
 C17 C 0.75239 1.01493 0.96770
 C18 C 0.75280 0.98349 0.96740
 C19 C 0.75089 0.96789 0.99428
 C20 C 0.74959 0.98238 1.02193
 C21 C 0.75219 1.01368 1.02231
 C22 C 0.75335 1.02933 0.99544
 H23 H 0.75664 1.05299 0.99659
 H24 H 0.75039 0.94405 0.99307
 C25 C 0.25174 0.51290 0.46965
 C26 C 0.25023 0.48158 0.46997
 C27 C 0.24755 0.46696 0.49730
 C28 C 0.24821 0.48237 0.52431
 C29 C 0.25080 0.51352 0.52410
 C30 C 0.25280 0.52830 0.49678
 H31 H 0.25635 0.55199 0.49661
 H32 H 0.24374 0.44331 0.49751
 C33 C 1.02471 0.24948 0.01759
 C34 C 1.02537 0.24752 -0.01394
 C35 C 0.99815 0.24766 -0.02941
 C36 C 0.97072 0.24843 -0.01485
 C37 C 0.97009 0.24961 0.01617
 C38 C 0.99685 0.24968 0.03185
 H39 H 0.99556 0.24769 0.05558
 H40 H 0.99799 0.24931 -0.05323
 C41 C 0.47674 0.74184 0.52471
 C42 C 0.47751 0.74506 0.49367
 C43 C 0.50519 0.74623 0.47939
 C44 C 0.53203 0.74338 0.49505
 C45 C 0.53120 0.74044 0.52616
 C46 C 0.50351 0.73878 0.54029
 H47 H 0.50270 0.73391 0.56368
 H48 H 0.50595 0.75056 0.45588
 C49 C 0.01776 0.74955 0.03650
 C50 C -0.01272 0.74245 0.03730
 C51 C -0.02707 0.73643 0.01031
 C52 C -0.01295 0.73900 -0.01736
 C53 C 0.01736 0.74724 -0.01814
 C54 C 0.03223 0.75164 0.00898
 H55 H 0.05593 0.75498 0.00875
 H56 H -0.05052 0.73191 0.01021
 C57 C 0.51044 0.27075 0.47140
 C58 C 0.47964 0.27629 0.47354
 C59 C 0.46626 0.27753 0.50149
 C60 C 0.48247 0.27299 0.52758
 C61 C 0.51342 0.26900 0.52579
 C62 C 0.52695 0.26766 0.49772
 H63 H 0.55061 0.26416 0.49635
 H64 H 0.44267 0.28194 0.50289
 C65 C 0.97705 -0.01817 0.24062
 C66 C 0.97221 0.01287 0.23767
 C67 C 0.99684 0.03156 0.23418
 C68 C 1.02610 0.02101 0.23527
 C69 C 1.03134 -0.00961 0.24004
 C70 C 1.00657 -0.02854 0.24151
 H71 H 1.01025 -0.05226 0.24250
 H72 H 0.99314 0.05508 0.23056
 C73 C 0.47639 0.48015 0.74039
 C74 C 0.47037 0.51081 0.74336
 C75 C 0.49435 0.53066 0.74478
 C76 C 0.52396 0.52091 0.74481
 C77 C 0.52985 0.49011 0.74325
 C78 C 0.50595 0.47041 0.74033
 H79 H 0.51044 0.44691 0.73771
 H80 H 0.48993 0.55431 0.74551
 C81 C 1.01503 0.97248 0.73066
 C82 C 0.98387 0.97245 0.73081
 C83 C 0.96857 0.99965 0.73175
 C84 C 0.98343 1.02718 0.73196
 C85 C 1.01486 1.02688 0.73266
 C86 C 1.03000 0.99962 0.73098
 H87 H 1.05390 0.99958 0.72911
 H88 H 0.94489 0.99897 0.73461
 C89 C 0.51532 0.47419 0.25000
 C90 C 0.48418 0.47644 0.25024
 C91 C 0.47088 0.50465 0.25044
 C92 C 0.48785 0.53067 0.25088
 C93 C 0.51903 0.52840 0.25211
 C94 C 0.53232 0.50014 0.25125
 H95 H 0.55618 0.49817 0.25127
 H96 H 0.44701 0.50647 0.24993
 O97 O 0.25871 0.17823 0.19170
 O98 O 0.30039 0.17074 0.22586
 O99 O 0.18660 0.19647 0.24872
 O100 O 0.17532 0.22861 0.28467
 O101 O 0.20414 0.25194 0.17359
 O102 O 0.23798 0.29155 0.16494
 O103 O 0.26404 0.27959 0.32395
 O104 O 0.23677 0.23489 0.33122
 O105 O 0.33770 0.25439 0.27195
 O106 O 0.34464 0.22928 0.22859
 O107 O 0.28564 0.32935 0.25046
 O108 O 0.23779 0.33613 0.22391
 O109 O 0.25287 0.31871 0.29424
 O110 O 0.21202 0.32752 0.25917
 O111 O 0.32534 0.29970 0.24065
 O112 O 0.33306 0.26371 0.19794
 O113 O 0.30846 0.24738 0.31229
 O114 O 0.27518 0.20600 0.32249
 O115 O 0.25155 0.21837 0.16199
 O116 O 0.27488 0.26528 0.15571
 O117 O 0.17463 0.24325 0.21342
 O118 O 0.16969 0.26999 0.26035
 O119 O 0.22623 0.16649 0.23914
 O120 O 0.27127 0.16139 0.26488
 Zr121 Zr 0.26172 0.19616 0.23480
 O122 O 0.28987 0.22192 0.26143
 Zr123 Zr 0.20402 0.23973 0.24944
 O124 O 0.22959 0.26699 0.27735
 Zr125 Zr 0.24699 0.25400 0.19149
 O126 O 0.27412 0.28220 0.21652
 Zr127 Zr 0.26535 0.24292 0.29507
 O128 O 0.23746 0.21457 0.27025
 Zr129 Zr 0.30760 0.25690 0.23671
 O130 O 0.28239 0.22898 0.20892
 Zr131 Zr 0.24958 0.30022 0.25174
 O132 O 0.22137 0.27489 0.22440
 O133 O 0.22737 0.21984 0.21520
 O134 O 0.28461 0.27722 0.27128
 C135 C 0.25554 0.19053 0.16620
 C136 C 0.19866 0.17084 0.24475
 C137 C 0.17873 0.24813 0.18573
 C138 C 0.25889 0.30730 0.31954
 C139 C 0.33377 0.25126 0.29986
 C140 C 0.31339 0.32502 0.24614
 H141 H 0.30590 0.20912 0.26925
 H142 H 0.28232 0.29777 0.20356
 H143 H 0.21464 0.20709 0.20278
 H144 H 0.21697 0.27529 0.29323
 H145 H 0.22317 0.21889 0.32504
 H146 H 0.18318 0.23814 0.30270
 H147 H 0.32721 0.28300 0.18926
 H148 H 0.29340 0.25373 0.15829
 H149 H 0.29182 0.19485 0.31352
 H150 H 0.25964 0.16536 0.28303
 H151 H 0.25207 0.33666 0.20734
 H152 H 0.22368 0.30395 0.17609
 H153 H 0.29442 0.15091 0.21851
 H154 H 0.33695 0.21134 0.21872
 H155 H 0.17125 0.28684 0.24643
 H156 H 0.20109 0.31935 0.27626
 O157 O 0.73409 0.83066 0.20723
 O158 O 0.69760 0.83173 0.24858
 O159 O 0.81499 0.81003 0.24987
 O160 O 0.83277 0.77532 0.28063
 O161 O 0.78642 0.75823 0.17456
 O162 O 0.75056 0.72005 0.16822
 O163 O 0.75254 0.71799 0.32967
 O164 O 0.78135 0.76257 0.33558
 O165 O 0.67208 0.74493 0.29372
 O166 O 0.65917 0.77781 0.24860
 O167 O 0.71891 0.67492 0.25739
 O168 O 0.76150 0.67151 0.22159
 O169 O 0.76050 0.68265 0.29465
 O170 O 0.79275 0.67684 0.25237
 O171 O 0.67806 0.70452 0.25525
 O172 O 0.66038 0.74142 0.22249
 O173 O 0.70709 0.75147 0.32920
 O174 O 0.74170 0.79139 0.33686
 O175 O 0.73824 0.79326 0.17364
 O176 O 0.71352 0.74752 0.16713
 O177 O 0.82219 0.76595 0.20911
 O178 O 0.83528 0.73638 0.25199
 O179 O 0.77387 0.83952 0.24878
 O180 O 0.73462 0.84225 0.28144
 Zr181 Zr 0.73890 0.80906 0.24857
 O182 O 0.71636 0.78065 0.27795
 Zr183 Zr 0.79892 0.76616 0.24967
 O184 O 0.77876 0.73582 0.27891
 Zr185 Zr 0.74698 0.75532 0.19882
 O186 O 0.72446 0.72488 0.22554
 Zr187 Zr 0.74650 0.75732 0.30484
 O188 O 0.76907 0.78849 0.27789
 Zr189 Zr 0.69495 0.74765 0.25341
 O190 O 0.71480 0.77787 0.22384
 Zr191 Zr 0.75476 0.70447 0.25431
 O192 O 0.77796 0.73260 0.22512
 O193 O 0.76987 0.78800 0.22155
 O194 O 0.72358 0.72486 0.28167
 C195 C 0.73390 0.82047 0.18062
 C196 C 0.80203 0.83556 0.24969
 C197 C 0.81349 0.76167 0.18236
 C198 C 0.75825 0.69122 0.32153
 C199 C 0.68034 0.74678 0.32077
 C200 C 0.69076 0.67907 0.25709
 H201 H 0.70210 0.79237 0.28978
 H202 H 0.71416 0.71037 0.21287
 H203 H 0.78031 0.80185 0.20820
 H204 H 0.79409 0.72644 0.29146
 H205 H 0.79317 0.77971 0.32880
 H206 H 0.82876 0.76331 0.29847
 H207 H 0.66839 0.72921 0.20614
 H208 H 0.69572 0.75844 0.17397
 H209 H 0.72465 0.80398 0.33117
 H210 H 0.74805 0.83655 0.29779
 H211 H 0.74370 0.67095 0.20888
 H212 H 0.76635 0.70672 0.17570
 H213 H 0.70078 0.85234 0.24166
 H214 H 0.65817 0.79016 0.26666
 H215 H 0.83147 0.72038 0.23752
 H216 H 0.80740 0.68476 0.26652
 O217 O 0.74629 0.17605 0.78795
 O218 O 0.70952 0.17388 0.74668
 O219 O 0.82432 0.20697 0.74436
 O220 O 0.83730 0.24568 0.71586
 O221 O 0.79215 0.24983 0.82393
 O222 O 0.75259 0.28623 0.83194
 O223 O 0.75307 0.29604 0.67173
 O224 O 0.78596 0.25432 0.66397
 O225 O 0.67485 0.25964 0.70525
 O226 O 0.66704 0.22196 0.74949
 O227 O 0.71309 0.33199 0.74759
 O228 O 0.75640 0.33698 0.78269
 O229 O 0.75451 0.33059 0.70833
 O230 O 0.78637 0.33817 0.74984
 O231 O 0.67620 0.29785 0.74786
 O232 O 0.66219 0.25829 0.77602
 O233 O 0.71122 0.25978 0.67046
 O234 O 0.74861 0.22344 0.66009
 O235 O 0.74701 0.21188 0.82340
 O236 O 0.71889 0.25493 0.83340
 O237 O 0.82719 0.24681 0.78786
 O238 O 0.83659 0.28189 0.74879
 O239 O 0.78647 0.17373 0.74516
 O240 O 0.74715 0.16814 0.71360
 Zr241 Zr 0.74831 0.20022 0.74775
 O242 O 0.72289 0.22770 0.71969
 Zr243 Zr 0.80347 0.24882 0.74817
 O244 O 0.77987 0.27892 0.72134
 Zr245 Zr 0.75179 0.25175 0.80027
 O246 O 0.72512 0.28071 0.77524
 Zr247 Zr 0.75045 0.25538 0.69448
 O248 O 0.77598 0.22493 0.71936
 Zr249 Zr 0.69800 0.25688 0.74592
 O250 O 0.72150 0.22774 0.77429
 Zr251 Zr 0.75239 0.30615 0.74764
 O252 O 0.77945 0.27889 0.77477
 O253 O 0.77736 0.22266 0.77533
 O254 O 0.72379 0.28407 0.71910
 C255 C 0.74532 0.18478 0.81507
 C256 C 0.81401 0.18042 0.74345
 C257 C 0.81917 0.24788 0.81502
 C258 C 0.75452 0.32292 0.68105
 C259 C 0.68401 0.26090 0.67831
 C260 C 0.68561 0.32459 0.74823
 H261 H 0.70997 0.21535 0.70717
 H262 H 0.71326 0.29311 0.78889
 H263 H 0.78922 0.20881 0.78754
 H264 H 0.79395 0.29058 0.70938
 H265 H 0.79907 0.23765 0.66984
 H266 H 0.83244 0.25975 0.69979
 H267 H 0.66991 0.26666 0.79467
 H268 H 0.70183 0.24322 0.82632
 H269 H 0.73324 0.20877 0.66516
 H270 H 0.75872 0.17633 0.69692
 H271 H 0.73897 0.33473 0.79574
 H272 H 0.76864 0.29985 0.82599
 H273 H 0.71470 0.15343 0.75296
 H274 H 0.66505 0.21269 0.72977
 H275 H 0.83084 0.29644 0.76419
 H276 H 0.80271 0.33125 0.73697
 O277 O 0.24851 0.82087 0.79449
 O278 O 0.28279 0.82867 0.75635
 O279 O 0.17226 0.78998 0.74567
 O280 O 0.16195 0.75230 0.71549
 O281 O 0.19853 0.74688 0.82625
 O282 O 0.23618 0.71171 0.83809
 O283 O 0.25222 0.70591 0.67602
 O284 O 0.22211 0.74611 0.66534
 O285 O 0.32640 0.74013 0.72016
 O286 O 0.33267 0.77281 0.76424
 O287 O 0.28398 0.66570 0.75406
 O288 O 0.23994 0.65704 0.78206
 O289 O 0.24745 0.66911 0.71001
 O290 O 0.20872 0.66232 0.75048
 O291 O 0.32041 0.69975 0.76004
 O292 O 0.32884 0.74058 0.79378
 O293 O 0.29475 0.74206 0.68110
 O294 O 0.25642 0.77980 0.66962
 O295 O 0.24266 0.78592 0.83029
 O296 O 0.27176 0.74151 0.84080
 O297 O 0.16636 0.74776 0.78758
 O298 O 0.16224 0.71416 0.74488
 O299 O 0.20962 0.82333 0.75049
 O300 O 0.25363 0.82937 0.72087
 Zr301 Zr 0.24806 0.79750 0.75466
 O302 O 0.27725 0.77120 0.72984
 Zr303 Zr 0.19369 0.74849 0.74967
 O304 O 0.22041 0.72024 0.72348
 Zr305 Zr 0.24060 0.74560 0.80615
 O306 O 0.26880 0.71631 0.78282
 Zr307 Zr 0.25259 0.74487 0.70080
 O308 O 0.22323 0.77350 0.72360
 Zr309 Zr 0.29899 0.74099 0.75771
 O310 O 0.27278 0.77022 0.78334
 Zr311 Zr 0.24504 0.69179 0.75110
 O312 O 0.21601 0.71826 0.77745
 O313 O 0.21688 0.77461 0.77949
 O314 O 0.27654 0.71504 0.72688
 C315 C 0.24641 0.81285 0.82156
 C316 C 0.18233 0.81660 0.74682
 C317 C 0.17222 0.74726 0.81539
 C318 C 0.24993 0.67861 0.68326
 C319 C 0.32085 0.74079 0.69235
 C320 C 0.31118 0.67302 0.75800
 H321 H 0.29139 0.78413 0.71938
 H322 H 0.27897 0.70319 0.79710
 H323 H 0.20391 0.78802 0.79110
 H324 H 0.20772 0.70920 0.70954
 H325 H 0.20646 0.76055 0.67085
 H326 H 0.16990 0.74159 0.69811
 H327 H 0.32149 0.72607 0.80840
 H328 H 0.28810 0.75529 0.83613
 H329 H 0.27357 0.79217 0.67507
 H330 H 0.24021 0.82369 0.70454
 H331 H 0.25036 0.66298 0.80032
 H332 H 0.22300 0.69662 0.82931
 H333 H 0.29797 0.82028 0.76977
 H334 H 0.33200 0.78691 0.74750
 H335 H 0.16575 0.69991 0.76117
 H336 H 0.19762 0.66579 0.73194
 O337 O 0.23946 0.32541 0.70690
 O338 O 0.20131 0.32746 0.74684
 O339 O 0.31790 0.30116 0.75173
 O340 O 0.33305 0.26512 0.78277
 O341 O 0.28932 0.25085 0.67507
 O342 O 0.25201 0.21479 0.66691
 O343 O 0.24850 0.21091 0.82865
 O344 O 0.27918 0.25358 0.83601
 O345 O 0.17088 0.24121 0.79004
 O346 O 0.16088 0.27536 0.74505
 O347 O 0.21576 0.16996 0.75424
 O348 O 0.26009 0.16538 0.72012
 O349 O 0.25589 0.17550 0.79358
 O350 O 0.28963 0.16841 0.75295
 O351 O 0.17624 0.20123 0.75089
 O352 O 0.16138 0.23912 0.71850
 O353 O 0.20486 0.24632 0.82676
 O354 O 0.24146 0.28495 0.83570
 O355 O 0.24394 0.28834 0.67298
 O356 O 0.21614 0.24400 0.66541
 O357 O 0.32441 0.25812 0.71040
 O358 O 0.33493 0.22648 0.75295
 O359 O 0.27781 0.33207 0.75042
 O360 O 0.23724 0.33613 0.78116
 Zr361 Zr 0.24165 0.30314 0.74811
 O362 O 0.21701 0.27536 0.77632
 Zr363 Zr 0.30000 0.25790 0.75046
 O364 O 0.27757 0.22809 0.77873
 Zr365 Zr 0.24916 0.24967 0.69802
 O366 O 0.22463 0.21986 0.72356
 Zr367 Zr 0.24534 0.25059 0.80386
 O368 O 0.27009 0.28105 0.77804
 Zr369 Zr 0.19512 0.24357 0.75061
 O370 O 0.21712 0.27332 0.72214
 Zr371 Zr 0.25305 0.19794 0.75316
 O372 O 0.27836 0.22541 0.72500
 O373 O 0.27261 0.28115 0.72188
 O374 O 0.22181 0.21937 0.77960
 C375 C 0.24055 0.31563 0.68015
 C376 C 0.30580 0.32713 0.75189
 C377 C 0.31619 0.25422 0.68341
 C378 C 0.25297 0.18391 0.82048
 C379 C 0.17827 0.24269 0.81735
 C380 C 0.18781 0.17525 0.75273
 H381 H 0.20287 0.28754 0.78782
 H382 H 0.21423 0.20593 0.71033
 H383 H 0.28409 0.29476 0.70918
 H384 H 0.29198 0.21790 0.79172
 H385 H 0.29245 0.26977 0.82963
 H386 H 0.32830 0.25249 0.79998
 H387 H 0.16975 0.22757 0.70187
 H388 H 0.19916 0.25666 0.67131
 H389 H 0.22422 0.29747 0.83043
 H390 H 0.24968 0.32971 0.79801
 H391 H 0.24256 0.16526 0.70703
 H392 H 0.26677 0.20051 0.67471
 H393 H 0.20552 0.34794 0.74011
 H394 H 0.15958 0.28728 0.76337
 H395 H 0.33078 0.21102 0.73799
 H396 H 0.30450 0.17626 0.76690
 O397 O 0.76248 0.66235 0.71331
 O398 O 0.80404 0.65836 0.74725
 O399 O 0.69107 0.68980 0.76675
 O400 O 0.68141 0.72615 0.79924
 O401 O 0.70888 0.73521 0.68562
 O402 O 0.74399 0.77094 0.67066
 O403 O 0.77308 0.77977 0.83013
 O404 O 0.74499 0.73814 0.84418
 O405 O 0.84420 0.74913 0.78039
 O406 O 0.84994 0.71641 0.74159
 O407 O 0.79273 0.81957 0.74890
 O408 O 0.74425 0.82409 0.72486
 O409 O 0.76163 0.81519 0.79618
 O410 O 0.71947 0.82007 0.76127
 O411 O 0.83188 0.78832 0.74231
 O412 O 0.83817 0.74599 0.70593
 O413 O 0.81619 0.74406 0.82186
 O414 O 0.78102 0.70602 0.83768
 O415 O 0.75332 0.69764 0.67848
 O416 O 0.78041 0.74223 0.66564
 O417 O 0.67973 0.73253 0.72657
 O418 O 0.67651 0.76478 0.77042
 O419 O 0.72993 0.65789 0.76080
 O420 O 0.77545 0.65600 0.78815
 Zr421 Zr 0.76630 0.68598 0.75319
 O422 O 0.79580 0.71442 0.77520
 Zr423 Zr 0.70970 0.73239 0.76251
 O424 O 0.73656 0.76223 0.78632
 Zr425 Zr 0.75202 0.73758 0.70253
 O426 O 0.77987 0.76852 0.72314
 Zr427 Zr 0.77234 0.73988 0.80626
 O428 O 0.74295 0.70943 0.78610
 Zr429 Zr 0.81349 0.74566 0.74579
 O430 O 0.78721 0.71449 0.72271
 Zr431 Zr 0.75653 0.79154 0.75631
 O432 O 0.72747 0.76343 0.73276
 O433 O 0.73212 0.70762 0.73102
 O434 O 0.79164 0.77064 0.77796
 C435 C 0.75751 0.67065 0.68663
 C436 C 0.70237 0.66354 0.76546
 C437 C 0.68354 0.73394 0.69840
 C438 C 0.76825 0.80677 0.82251
 C439 C 0.84112 0.74758 0.80853
 C440 C 0.82022 0.81432 0.74394
 H441 H 0.81182 0.70248 0.78427
 H442 H 0.78785 0.78203 0.70794
 H443 H 0.71874 0.69390 0.72050
 H444 H 0.72454 0.77275 0.80134
 H445 H 0.73002 0.72264 0.84040
 H446 H 0.68980 0.73760 0.81587
 H447 H 0.83150 0.76316 0.69403
 H448 H 0.79743 0.72870 0.66893
 H449 H 0.79717 0.69331 0.82998
 H450 H 0.76218 0.66128 0.80479
 H451 H 0.75691 0.82128 0.70722
 H452 H 0.73066 0.78563 0.68012
 H453 H 0.79735 0.63773 0.74367
 H454 H 0.84174 0.69726 0.73489
 H455 H 0.67805 0.77963 0.75438
 H456 H 0.70944 0.81492 0.78001
 O457 O 0.25364 0.67993 0.29488
 O458 O 0.21845 0.67493 0.25406
 O459 O 0.33068 0.71335 0.25088
 O460 O 0.34229 0.75240 0.22256
 O461 O 0.29853 0.75433 0.33128
 O462 O 0.25879 0.78917 0.34063
 O463 O 0.25460 0.80071 0.17985
 O464 O 0.28846 0.76047 0.17076
 O465 O 0.17857 0.76346 0.21540
 O466 O 0.16937 0.72817 0.25209
 O467 O 0.21699 0.83600 0.25644
 O468 O 0.26036 0.84212 0.29036
 O469 O 0.25692 0.83528 0.21636
 O470 O 0.29083 0.84251 0.25791
 O471 O 0.18069 0.80125 0.25757
 O472 O 0.17131 0.75780 0.28974
 O473 O 0.21405 0.76398 0.17968
 O474 O 0.25233 0.72761 0.16865
 O475 O 0.25411 0.71520 0.33087
 O476 O 0.22492 0.75795 0.34131
 O477 O 0.33306 0.75311 0.29463
 O478 O 0.34069 0.78872 0.25502
 O479 O 0.29371 0.67916 0.25159
 O480 O 0.25348 0.67442 0.21905
 Zr481 Zr 0.25483 0.70452 0.25501
 O482 O 0.22778 0.73180 0.22845
 Zr483 Zr 0.30871 0.75455 0.25517
 O484 O 0.28385 0.78407 0.22873
 Zr485 Zr 0.25781 0.75552 0.30811
 O486 O 0.23043 0.78466 0.28390
 Zr487 Zr 0.25411 0.76005 0.20257
 O488 O 0.28132 0.73029 0.22654
 Zr489 Zr 0.20295 0.76047 0.25522
 O490 O 0.22764 0.73100 0.28229
 Zr491 Zr 0.25661 0.81071 0.25579
 O492 O 0.28440 0.78368 0.28246
 O493 O 0.28374 0.72736 0.28244
 O494 O 0.22768 0.78818 0.22801
 C495 C 0.25271 0.68820 0.32212
 C496 C 0.32104 0.68656 0.24969
 C497 C 0.32547 0.75348 0.32196
 C498 C 0.25564 0.82761 0.18908
 C499 C 0.18702 0.76492 0.18824
 C500 C 0.18966 0.82815 0.25756
 H501 H 0.21450 0.71933 0.21638
 H502 H 0.21885 0.79693 0.29788
 H503 H 0.29610 0.71371 0.29439
 H504 H 0.29731 0.79602 0.21634
 H505 H 0.30249 0.74443 0.17622
 H506 H 0.33629 0.76556 0.20611
 H507 H 0.17567 0.77363 0.30421
 H508 H 0.20819 0.74569 0.33437
 H509 H 0.23619 0.71365 0.17332
 H510 H 0.26677 0.68228 0.20355
 H511 H 0.24395 0.83871 0.30443
 H512 H 0.27333 0.80403 0.33381
 H513 H 0.22556 0.65468 0.25910
 H514 H 0.17710 0.71021 0.26204
 H515 H 0.33506 0.80284 0.27084
 H516 H 0.30571 0.83724 0.24271
 O517 O 0.74346 0.32361 0.28894
 O518 O 0.77826 0.33202 0.25062
 O519 O 0.66903 0.28807 0.24425
 O520 O 0.65861 0.24885 0.21638
 O521 O 0.70272 0.24482 0.32429
 O522 O 0.74370 0.21504 0.33507
 O523 O 0.74893 0.20688 0.17203
 O524 O 0.71677 0.24543 0.16234
 O525 O 0.82395 0.24591 0.21174
 O526 O 0.83253 0.27751 0.25323
 O527 O 0.78705 0.16948 0.24816
 O528 O 0.74401 0.15991 0.27995
 O529 O 0.74785 0.17040 0.20671
 O530 O 0.71258 0.16170 0.24864
 O531 O 0.82208 0.20528 0.25180
 O532 O 0.82881 0.24839 0.28613
 O533 O 0.79022 0.24526 0.17442
 O534 O 0.74909 0.28090 0.16457
 O535 O 0.74275 0.28872 0.32531
 O536 O 0.77687 0.24698 0.33430
 O537 O 0.66772 0.24731 0.28819
 O538 O 0.66291 0.21171 0.24661
 O539 O 0.70512 0.32310 0.24454
 O540 O 0.74859 0.33140 0.21558
 Zr541 Zr 0.74477 0.29946 0.24957
 O542 O 0.77379 0.27419 0.22356
 Zr543 Zr 0.69266 0.24778 0.24846
 O544 O 0.71925 0.22050 0.22108
 Zr545 Zr 0.74318 0.24798 0.30186
 O546 O 0.77125 0.21956 0.27744
 Zr547 Zr 0.74896 0.24621 0.19626
 O548 O 0.71951 0.27370 0.22032
 Zr549 Zr 0.79859 0.24548 0.25049
 O550 O 0.77256 0.27401 0.27705
 Zr551 Zr 0.74678 0.19359 0.24749
 O552 O 0.71818 0.21909 0.27512
 O553 O 0.71623 0.27539 0.27641
 O554 O 0.77576 0.21797 0.22130
 C555 C 0.74293 0.31578 0.31614
 C556 C 0.67803 0.31504 0.24262
 C557 C 0.67576 0.24519 0.31543
 C558 C 0.74830 0.17960 0.17975
 C559 C 0.81689 0.24584 0.18431
 C560 C 0.81405 0.17811 0.25040
 H561 H 0.78663 0.28766 0.21214
 H562 H 0.78284 0.20715 0.29129
 H563 H 0.70282 0.28816 0.28824
 H564 H 0.70635 0.20869 0.20801
 H565 H 0.70038 0.25857 0.16883
 H566 H 0.66626 0.23867 0.19857
 H567 H 0.82495 0.23163 0.29968
 H568 H 0.79120 0.26263 0.32896
 H569 H 0.76649 0.29360 0.16820
 H570 H 0.73568 0.32473 0.19922
 H571 H 0.75886 0.16425 0.29540
 H572 H 0.73334 0.19771 0.32665
 H573 H 0.79329 0.32505 0.26499
 H574 H 0.82692 0.29422 0.24020
 H575 H 0.66809 0.19826 0.26314
 H576 H 0.69920 0.16567 0.23178
 C577 C 0.21453 0.05271 0.03300
 C578 C 0.23711 0.07331 0.03653
 C579 C 0.23857 0.09217 0.06302
 N580 N 0.25694 0.11585 0.06377
 N581 N 0.25938 0.13211 0.08826
 C582 C 0.24390 0.12497 0.11302
 N583 N 0.22577 0.10114 0.11234
 N584 N 0.22310 0.08509 0.08779
 C585 C 0.24643 0.14255 0.14024
 C586 C 0.25591 0.17181 0.13968
 H587 H 0.25536 0.07385 0.02100
 H588 H 0.23853 0.13305 0.16077
 H589 H 0.19683 0.05228 0.04919
 H590 H 0.26104 0.18214 0.11868
 C591 C 0.73776 0.55623 0.52884
 C592 C 0.72575 0.55809 0.55716
 C593 C 0.73111 0.58341 0.57666
 N594 N 0.72661 0.58035 0.60611
 N595 N 0.73281 0.60242 0.62453
 C596 C 0.74361 0.62845 0.61417
 N597 N 0.74764 0.63176 0.58463
 N598 N 0.74169 0.60953 0.56618
 C599 C 0.75055 0.65269 0.63459
 C600 C 0.75484 0.64707 0.66455
 H601 H 0.71377 0.53952 0.56633
 H602 H 0.75223 0.67504 0.62604
 H603 H 0.74868 0.57543 0.51961
 H604 H 0.75502 0.62438 0.67243
 C605 C 0.74557 0.96629 0.04859
 C606 C 0.73801 0.93628 0.05027
 C607 C 0.73542 0.92034 0.07851
 N608 N 0.72715 0.89153 0.07826
 N609 N 0.72574 0.87615 0.10329
 C610 C 0.73252 0.88892 0.12960
 N611 N 0.74053 0.91788 0.12995
 N612 N 0.74196 0.93333 0.10484
 C613 C 0.73279 0.87119 0.15698
 C614 C 0.72906 0.84060 0.15564
 H615 H 0.73300 0.92353 0.03075
 H616 H 0.73811 0.88179 0.17779
 H617 H 0.74706 0.97774 0.06949
 H618 H 0.72487 0.83028 0.13443
 C619 C 0.24485 0.46581 0.55248
 C620 C 0.25594 0.43717 0.55601
 C621 C 0.25145 0.41968 0.58296
 N622 N 0.25834 0.39045 0.58261
 N623 N 0.25417 0.37384 0.60650
 C624 C 0.24305 0.38581 0.63175
 N625 N 0.23644 0.41520 0.63228
 N626 N 0.24044 0.43184 0.60823
 C627 C 0.23878 0.36713 0.65809
 C628 C 0.23947 0.33641 0.65529
 H629 H 0.26805 0.42671 0.53814
 H630 H 0.23581 0.37741 0.67954
 H631 H 0.23363 0.47639 0.57087
 H632 H 0.24112 0.32677 0.63339
 C633 C 0.75223 0.03149 0.94103
 C634 C 0.74455 0.06158 0.93953
 C635 C 0.74471 0.07907 0.91206
 N636 N 0.73648 0.10796 0.91332
 N637 N 0.73682 0.12475 0.88917
 C638 C 0.74538 0.11339 0.86270
 N639 N 0.75345 0.08435 0.86131
 N640 N 0.75315 0.06747 0.88558
 C641 C 0.74665 0.13261 0.83627
 C642 C 0.74236 0.16312 0.83912
 H643 H 0.73670 0.07318 0.95893
 H644 H 0.75219 0.12307 0.81499
 H645 H 0.75695 0.02047 0.92031
 H646 H 0.73799 0.17224 0.86086
 C647 C 0.25322 0.52989 0.44147
 C648 C 0.24038 0.55801 0.43898
 C649 C 0.24333 0.57722 0.41288
 N650 N 0.23350 0.60560 0.41459
 N651 N 0.23647 0.62396 0.39179
 C652 C 0.24930 0.61466 0.36625
 N653 N 0.25888 0.58610 0.36434
 N654 N 0.25605 0.56771 0.38730
 C655 C 0.25304 0.63538 0.34128
 C656 C 0.24975 0.66585 0.34558
 H657 H 0.22801 0.56700 0.45748
 H658 H 0.25922 0.62679 0.31977
 H659 H 0.26426 0.52021 0.42251
 H660 H 0.24531 0.67408 0.36766
 C661 C 0.23141 0.94446 0.96857
 C662 C 0.24213 0.94185 0.93965
 C663 C 0.24310 0.91349 0.92352
 N664 N 0.25418 0.91303 0.89570
 N665 N 0.25417 0.88814 0.87996
 C666 C 0.24307 0.86263 0.89132
 N667 N 0.23223 0.86294 0.91934
 N668 N 0.23221 0.88795 0.93516
 C669 C 0.24183 0.83553 0.87297
 C670 C 0.24864 0.83720 0.84297
 H671 H 0.25070 0.96084 0.92797
 H672 H 0.23432 0.81490 0.88255
 H673 H 0.22644 0.92391 0.97969
 H674 H 0.25500 0.85844 0.83382
 C675 C 0.74302 0.44610 0.46297
 C676 C 0.72914 0.44201 0.43583
 C677 C 0.73183 0.41430 0.41899
 N678 N 0.72187 0.41345 0.39079
 N679 N 0.72479 0.38892 0.37474
 C680 C 0.73763 0.36419 0.38628
 N681 N 0.74715 0.36482 0.41472
 N682 N 0.74438 0.38950 0.43078
 C683 C 0.74179 0.33760 0.36782
 C684 C 0.74093 0.34037 0.33721
 H685 H 0.71603 0.45974 0.42628
 H686 H 0.74627 0.31634 0.37805
 H687 H 0.75537 0.42783 0.47251
 H688 H 0.73834 0.36229 0.32769
 C689 C 0.05094 0.24915 0.03486
 C690 C 0.05204 0.25786 0.06459
 C691 C 0.07887 0.25539 0.08274
 N692 N 0.07706 0.26066 0.11220
 N693 N 0.10096 0.25847 0.12926
 C694 C 0.12762 0.25104 0.11745
 N695 N 0.12951 0.24594 0.08793
 N696 N 0.10553 0.24796 0.07087
 C697 C 0.15416 0.24893 0.13608
 C698 C 0.15233 0.24912 0.16686
 H699 H 0.03296 0.26754 0.07540
 H700 H 0.17551 0.24681 0.12534
 H701 H 0.07156 0.24195 0.02509
 H702 H 0.13085 0.24961 0.17752
 C703 C 0.55875 0.73775 0.54410
 C704 C 0.55989 0.74700 0.57361
 C705 C 0.58580 0.74259 0.59282
 N706 N 0.58346 0.74863 0.62213
 N707 N 0.60651 0.74486 0.64011
 C708 C 0.63285 0.73496 0.62941
 N709 N 0.63525 0.72899 0.60006
 N710 N 0.61211 0.73261 0.58208
 C711 C 0.65881 0.73172 0.64881
 C712 C 0.65695 0.73421 0.67955
 H713 H 0.54085 0.75778 0.58348
 H714 H 0.68009 0.72759 0.63847
 H715 H 0.57844 0.72837 0.53404
 H716 H 0.63553 0.73687 0.69005
 C717 C 0.03528 0.74753 0.95414
 C718 C 0.05911 0.76692 0.95079
 C719 C 0.08177 0.76449 0.92744
 N720 N 0.07807 0.74749 0.90289
 N721 N 0.09958 0.74539 0.88266
 C722 C 0.12559 0.76000 0.88644
 N723 N 0.12917 0.77686 0.91098
 N724 N 0.10765 0.77918 0.93096
 C725 C 0.15029 0.75743 0.86524
 C726 C 0.14691 0.74792 0.83610
 H727 H 0.06277 0.78368 0.96752
 H728 H 0.17183 0.76492 0.87256
 H729 H 0.03075 0.73135 0.93708
 H730 H 0.12506 0.74266 0.82784
 C731 C 0.52599 0.26983 0.44238
 C732 C 0.55023 0.25108 0.43753
 C733 C 0.56820 0.25103 0.41034
 N734 N 0.59341 0.23461 0.40961
 N735 N 0.61085 0.23482 0.38590
 C736 C 0.60376 0.25135 0.36182
 N737 N 0.57827 0.26751 0.36231
 N738 N 0.56082 0.26744 0.38618
 C739 C 0.62396 0.25248 0.33611
 C740 C 0.65327 0.24292 0.33885
 H741 H 0.55705 0.23598 0.45487
 H742 H 0.61640 0.26247 0.31568
 H743 H 0.51808 0.28378 0.42455
 H744 H 0.66094 0.23507 0.36017
 C745 C 0.97110 0.74350 0.06422
 C746 C 0.94245 0.73234 0.06780
 C747 C 0.92349 0.73932 0.09332
 N748 N 0.89445 0.73204 0.09212
 N749 N 0.87626 0.73906 0.11418
 C750 C 0.88635 0.75358 0.13841
 N751 N 0.91553 0.76059 0.13987
 N752 N 0.93377 0.75375 0.11761
 C753 C 0.86597 0.76105 0.16279
 C754 C 0.83543 0.75981 0.15847
 H755 H 0.93253 0.71846 0.05112
 H756 H 0.87493 0.76684 0.18422
 H757 H 0.98079 0.75444 0.08316
 H758 H 0.82701 0.75533 0.13649
 C759 C 0.46668 0.27310 0.55640
 C760 C 0.43918 0.25957 0.55935
 C761 C 0.42176 0.25959 0.58678
 N762 N 0.39468 0.24687 0.58659
 N763 N 0.37783 0.24715 0.61068
 C764 C 0.38733 0.26012 0.63602
 N765 N 0.41463 0.27263 0.63639
 N766 N 0.43155 0.27241 0.61216
 C767 C 0.36784 0.26121 0.66224
 C768 C 0.33816 0.25336 0.65951
 H769 H 0.42968 0.24834 0.54045
 H770 H 0.37641 0.26910 0.68315
 H771 H 0.47710 0.28293 0.57557
 H772 H 0.32989 0.24688 0.63798
 C773 C 0.94288 0.24971 0.96775
 C774 C 0.93992 0.23545 0.94061
 C775 C 0.91321 0.23819 0.92232
 N776 N 0.91371 0.22767 0.89428
 N777 N 0.89020 0.23074 0.87685
 C778 C 0.86520 0.24433 0.88680
 N779 N 0.86448 0.25448 0.91504
 N780 N 0.88813 0.25156 0.93248
 C781 C 0.83963 0.24845 0.86703
 C782 C 0.84321 0.24533 0.83662
 H783 H 0.95806 0.22225 0.93196
 H784 H 0.81834 0.25470 0.87622
 H785 H 0.92418 0.26194 0.97663
 H786 H 0.86510 0.24075 0.82786
 C787 C 0.44978 0.74837 0.47613
 C788 C 0.44757 0.73825 0.44705
 C789 C 0.42094 0.74220 0.42869
 N790 N 0.42226 0.73504 0.39962
 N791 N 0.39872 0.73859 0.38228
 C792 C 0.37283 0.74935 0.39331
 N793 N 0.37137 0.75629 0.42251
 N794 N 0.39504 0.75288 0.43989
 C795 C 0.34686 0.75331 0.37385
 C796 C 0.35002 0.75158 0.34323
 H797 H 0.46622 0.72698 0.43695
 H798 H 0.32538 0.75785 0.38356
 H799 H 0.43059 0.75855 0.48636
 H800 H 0.37195 0.74838 0.33400
 C801 C 0.04962 0.04348 0.23124
 C802 C 0.07416 0.04628 0.24973
 C803 C 0.09397 0.07202 0.24750
 N804 N 0.12145 0.07104 0.25962
 N805 N 0.13927 0.09447 0.25802
 C806 C 0.13011 0.11983 0.24453
 N807 N 0.10254 0.12089 0.23271
 N808 N 0.08487 0.09739 0.23404
 C809 C 0.14914 0.14615 0.24308
 C810 C 0.17976 0.14443 0.24649
 H811 H 0.07857 0.02987 0.26664
 H812 H 0.13887 0.16728 0.23787
 H813 H 0.04527 0.06091 0.21531
 H814 H 0.19030 0.12298 0.24921
 C815 C 0.54707 0.54426 0.74507
 C816 C 0.57359 0.54283 0.76093
 C817 C 0.59409 0.56824 0.76186
 N818 N 0.62195 0.56486 0.77271
 N819 N 0.64053 0.58776 0.77356
 C820 C 0.63182 0.61496 0.76383
 N821 N 0.60392 0.61835 0.75325
 N822 N 0.58545 0.59546 0.75220
 C823 C 0.65189 0.64063 0.76430
 C824 C 0.68241 0.63792 0.76842
 H825 H 0.57929 0.52320 0.77345
 H826 H 0.64248 0.66221 0.75935
 H827 H 0.54153 0.56489 0.73408
 H828 H 0.69215 0.61614 0.77154
 C829 C 0.96718 0.05412 0.73292
 C830 C 0.93717 0.05628 0.72541
 C831 C 0.91935 0.08336 0.72902
 N832 N 0.88995 0.08221 0.72327
 N833 N 0.87287 0.10601 0.72699
 C834 C 0.88451 0.13196 0.73655
 N835 N 0.91404 0.13327 0.74209
 N836 N 0.93118 0.10934 0.73848
 C837 C 0.86535 0.15811 0.74096
 C838 C 0.83462 0.15538 0.74018
 H839 H 0.92566 0.03762 0.71594
 H840 H 0.87539 0.17942 0.74526
 H841 H 0.97822 0.07439 0.73911
 H842 H 0.82495 0.13367 0.73713
 C843 C 0.47250 0.55988 0.25112
 C844 C 0.44638 0.56455 0.23535
 C845 C 0.42826 0.59150 0.23815
 N846 N 0.40059 0.59176 0.22662
 N847 N 0.38306 0.61530 0.22993
 C848 C 0.39258 0.63960 0.24478
 N849 N 0.42048 0.63959 0.25594
 N850 N 0.43800 0.61588 0.25281
 C851 C 0.37273 0.66519 0.24921
 C852 C 0.34225 0.66215 0.24574
 H853 H 0.43792 0.54712 0.22127
 H854 H 0.38195 0.68610 0.25640
 H855 H 0.48167 0.57778 0.26410
 H856 H 0.33324 0.64054 0.24056
 C857 C 0.03227 0.94441 0.72969
 C858 C 0.05921 0.94145 0.74438
 C859 C 0.07731 0.91442 0.74319
 N860 N 0.10508 0.91496 0.75442
 N861 N 0.12224 0.89096 0.75333
 C862 C 0.11226 0.86541 0.74109
 N863 N 0.08430 0.86470 0.73012
 N864 N 0.06714 0.88885 0.73105
 C865 C 0.13151 0.83904 0.73986
 C866 C 0.16174 0.84172 0.74508
 H867 H 0.06774 0.95980 0.75718
 H868 H 0.12200 0.81766 0.73473
 H869 H 0.02335 0.92560 0.71786
 H870 H 0.17100 0.86355 0.74865
 C871 C 0.53042 0.44492 0.24957
 C872 C 0.55639 0.44028 0.23360
 C873 C 0.57328 0.41244 0.23477
 N874 N 0.60030 0.41117 0.22183
 N875 N 0.61684 0.38679 0.22382
 C876 C 0.60697 0.36265 0.23872
 N877 N 0.57966 0.36366 0.25123
 N878 N 0.56312 0.38818 0.24937
 C879 C 0.62623 0.33648 0.24240
 C880 C 0.65661 0.33909 0.23803
 H881 H 0.56534 0.45811 0.22033
 H882 H 0.61693 0.31587 0.25031
 H883 H 0.52075 0.42669 0.26171
 H884 H 0.66564 0.36051 0.23219
 C885 C 0.95504 0.95957 0.24217
 C886 C 0.92478 0.96255 0.24836
 C887 C 0.90538 0.93623 0.24841
 N888 N 0.87582 0.93910 0.25327
 N889 N 0.85835 0.91533 0.25323
 C890 C 0.86983 0.88781 0.24841
 N891 N 0.89932 0.88496 0.24365
 N892 N 0.91671 0.90868 0.24360
 C893 C 0.85119 0.86115 0.24832
 C894 C 0.82043 0.86242 0.25019
 H895 H 0.91499 0.98336 0.25490
 H896 H 0.86215 0.83983 0.24616
 H897 H 0.96279 0.93695 0.23942
 H898 H 0.80940 0.88377 0.25157
 C899 C 0.45351 0.45701 0.73619
 C900 C 0.42733 0.45510 0.75248
 C901 C 0.40827 0.42863 0.75073
 N902 N 0.38081 0.42896 0.76296
 N903 N 0.36375 0.40494 0.76195
 C904 C 0.37360 0.37956 0.74892
 N905 N 0.40113 0.37917 0.73691
 N906 N 0.41808 0.40324 0.73772
 C907 C 0.35516 0.35267 0.74785
 C908 C 0.32486 0.35350 0.75369
 H909 H 0.42122 0.47258 0.76773
 H910 H 0.36547 0.33200 0.74113
 H911 H 0.45945 0.43852 0.72205
 H912 H 0.31434 0.37459 0.75853
 C913 C 0.05229 0.24717 0.96989
 C914 C 0.05459 0.23636 0.94096
 C915 C 0.08177 0.23795 0.92319
 N916 N 0.08117 0.22801 0.89494
 N917 N 0.10504 0.22987 0.87785
 C918 C 0.13054 0.24170 0.88833
 N919 N 0.13131 0.25140 0.91675
 N920 N 0.10731 0.24963 0.93389
 C921 C 0.15658 0.24455 0.86891
 C922 C 0.15394 0.23960 0.83861
 H923 H 0.03603 0.22541 0.93063
 H924 H 0.17751 0.25152 0.87822
 H925 H 0.07243 0.25505 0.97998
 H926 H 0.13251 0.23385 0.82957
 C927 C 0.56048 0.74453 0.47850
 C928 C 0.56307 0.73223 0.45028
 C929 C 0.58925 0.73552 0.43125
 N930 N 0.58799 0.72548 0.40304
 N931 N 0.61076 0.72904 0.38475
 C932 C 0.63581 0.74275 0.39394
 N933 N 0.63728 0.75254 0.42232
 N934 N 0.61436 0.74908 0.44065
 C935 C 0.66067 0.74735 0.37327
 C936 C 0.65694 0.74270 0.34300
 H937 H 0.54453 0.72021 0.44108
 H938 H 0.68163 0.75522 0.38173
 H939 H 0.57946 0.75509 0.48851
 H940 H 0.63540 0.73612 0.33483
 C941 C 0.96884 0.73328 0.95793
 C942 C 0.97042 0.74627 0.92986
 C943 C 0.94477 0.74391 0.90951
 N944 N 0.94516 0.75684 0.88237
 N945 N 0.92128 0.75596 0.86496
 C946 C 0.89609 0.74232 0.87417
 N947 N 0.89578 0.72942 0.90118
 N948 N 0.91960 0.73017 0.91842
 C949 C 0.86902 0.74161 0.85604
 C950 C 0.86831 0.74990 0.82641
 H951 H 0.98824 0.76101 0.92393
 H952 H 0.84908 0.73316 0.86628
 H953 H 0.94896 0.72067 0.96239
 H954 H 0.88853 0.75689 0.81562
 C955 C 0.45985 0.28093 0.44789
 C956 C 0.45890 0.26194 0.42359
 C957 C 0.43335 0.26219 0.40335
 N958 N 0.43475 0.24785 0.37700
 N959 N 0.41119 0.24700 0.35924
 C960 C 0.38529 0.26016 0.36740
 N961 N 0.38385 0.27429 0.39381
 N962 N 0.40745 0.27537 0.41139
 C963 C 0.35878 0.25876 0.34861
 C964 C 0.36034 0.25208 0.31860
 H965 H 0.47593 0.24526 0.42045
 H966 H 0.33760 0.26440 0.35842
 H967 H 0.44200 0.29684 0.45070
 H968 H 0.38175 0.24887 0.30823
 C969 C 0.03534 0.75152 0.06430
 C970 C 0.06054 0.76902 0.06723
 C971 C 0.07898 0.76850 0.09408
 N972 N 0.10594 0.78154 0.09369
 N973 N 0.12351 0.78029 0.11729
 C974 C 0.11475 0.76612 0.14229
 N975 N 0.08755 0.75348 0.14289
 N976 N 0.07002 0.75457 0.11918
 C977 C 0.13481 0.76354 0.16792
 C978 C 0.16503 0.76853 0.16457
 H979 H 0.06758 0.78293 0.04907
 H980 H 0.12614 0.75601 0.18893
 H981 H 0.02855 0.73816 0.08297
 H982 H 0.17348 0.77416 0.14287
 C983 C 0.53147 0.26510 0.55299
 C984 C 0.56033 0.27562 0.55521
 C985 C 0.57836 0.27225 0.58206
 N986 N 0.60714 0.28050 0.58144
 N987 N 0.62412 0.27743 0.60528
 C988 C 0.61298 0.26611 0.63077
 N989 N 0.58405 0.25812 0.63155
 N990 N 0.56705 0.26108 0.60759
 C991 C 0.63216 0.26215 0.65688
 C992 C 0.66276 0.26448 0.65403
 H993 H 0.57024 0.28707 0.53667
 H994 H 0.62238 0.25654 0.67800
 H995 H 0.52150 0.25470 0.57210
 H996 H 0.67209 0.26864 0.63234
 C997 C 0.94163 0.24880 0.03256
 C998 C 0.93805 0.26275 0.05981
 C999 C 0.91146 0.25912 0.07799
 N1000 N 0.91202 0.26797 0.10659
 N1001 N 0.88865 0.26389 0.12397
 C1002 C 0.86376 0.25091 0.11338
 N1003 N 0.86297 0.24245 0.08460
 N1004 N 0.88649 0.24634 0.06722
 C1005 C 0.83819 0.24611 0.13284
 C1006 C 0.84158 0.24742 0.16339
 H1007 H 0.95589 0.27582 0.06892
 H1008 H 0.81680 0.24133 0.12319
 H1009 H 0.92325 0.23671 0.02317
 H1010 H 0.86350 0.25049 0.17263
 C1011 C 0.44829 0.74049 0.54117
 C1012 C 0.44578 0.75133 0.56996
 C1013 C 0.41900 0.74819 0.58803
 N1014 N 0.42024 0.75497 0.61718
 N1015 N 0.39649 0.75198 0.63430
 C1016 C 0.37054 0.74218 0.62290
 N1017 N 0.36917 0.73560 0.59363
 N1018 N 0.39304 0.73843 0.57649
 C1019 C 0.34422 0.73923 0.64182
 C1020 C 0.34656 0.74076 0.67252
 H1021 H 0.46452 0.76212 0.58021
 H1022 H 0.32285 0.73593 0.63152
 H1023 H 0.42910 0.73090 0.53059
 H1024 H 0.36825 0.74257 0.68259
 C1025 C 0.22704 0.05401 0.96821
 C1026 C 0.24070 0.05697 0.94055
 C1027 C 0.24204 0.08495 0.92378
 N1028 N 0.25659 0.08520 0.89757
 N1029 N 0.25760 0.10970 0.88126
 C1030 C 0.24413 0.13506 0.89045
 N1031 N 0.22972 0.13496 0.91686
 N1032 N 0.22868 0.11033 0.93324
 C1033 C 0.24419 0.16175 0.87142
 C1034 C 0.25526 0.16014 0.84263
 H1035 H 0.25221 0.03838 0.93066
 H1036 H 0.23398 0.18204 0.87932
 H1037 H 0.21876 0.07404 0.97855
 H1038 H 0.26416 0.13921 0.83480
 C1039 C 0.73686 0.55704 0.46387
 C1040 C 0.75360 0.56181 0.43847
 C1041 C 0.75327 0.59004 0.42220
 N1042 N 0.77003 0.59271 0.39751
 N1043 N 0.76965 0.61770 0.38191
 C1044 C 0.75258 0.64109 0.39038
 N1045 N 0.73601 0.63858 0.41531
 N1046 N 0.73635 0.61349 0.43095
 C1047 C 0.75085 0.66802 0.37190
 C1048 C 0.76315 0.66796 0.34366
 H1049 H 0.76797 0.54433 0.43032
 H1050 H 0.73791 0.68686 0.37942
 H1051 H 0.72369 0.57507 0.47281
 H1052 H 0.77453 0.64820 0.33596
 C1053 C 0.75433 0.03063 0.05046
 C1054 C 0.73973 0.05761 0.05453
 C1055 C 0.74219 0.07512 0.08185
 N1056 N 0.73149 0.10322 0.08227
 N1057 N 0.73381 0.11979 0.10648
 C1058 C 0.74676 0.10889 0.13134
 N1059 N 0.75713 0.08058 0.13111
 N1060 N 0.75497 0.06401 0.10675
 C1061 C 0.74983 0.12776 0.15781
 C1062 C 0.74709 0.15840 0.15516
 H1063 H 0.72622 0.06657 0.03685
 H1064 H 0.75496 0.11777 0.17899
 H1065 H 0.76774 0.02182 0.06827
 H1066 H 0.74392 0.16783 0.13333
 C1067 C 0.25274 0.53048 0.55227
 C1068 C 0.24196 0.55935 0.55519
 C1069 C 0.24385 0.57627 0.58295
 N1070 N 0.23654 0.60542 0.58285
 N1071 N 0.23829 0.62141 0.60749
 C1072 C 0.24727 0.60890 0.63332
 N1073 N 0.25428 0.57958 0.63357
 N1074 N 0.25269 0.56356 0.60879
 C1075 C 0.24956 0.62705 0.66041
 C1076 C 0.24940 0.65785 0.65824
 H1077 H 0.23162 0.57020 0.53648
 H1078 H 0.25188 0.61636 0.68173
 H1079 H 0.26228 0.51973 0.57147
 H1080 H 0.24876 0.66782 0.63644
 C1081 C 0.75354 0.96606 0.93945
 C1082 C 0.77019 0.93999 0.93721
 C1083 C 0.76863 0.91970 0.91182
 N1084 N 0.78224 0.89290 0.91355
 N1085 N 0.78035 0.87357 0.89141
 C1086 C 0.76482 0.88032 0.86659
 N1087 N 0.75144 0.90729 0.86468
 N1088 N 0.75320 0.92662 0.88694
 C1089 C 0.76219 0.85872 0.84230
 C1090 C 0.77086 0.82921 0.84595
 H1091 H 0.78422 0.93339 0.95551
 H1092 H 0.75244 0.86591 0.82161
 H1093 H 0.74029 0.97327 0.92083
 H1094 H 0.77932 0.82194 0.86717
 C1095 C 0.25005 0.46376 0.44224
 C1096 C 0.26208 0.43513 0.44122
 C1097 C 0.25994 0.41542 0.41538
 N1098 N 0.26979 0.38703 0.41759
 N1099 N 0.26766 0.36846 0.39480
 C1100 C 0.25560 0.37761 0.36886
 N1101 N 0.24585 0.40607 0.36657
 N1102 N 0.24789 0.42463 0.38943
 C1103 C 0.25325 0.35737 0.34340
 C1104 C 0.26028 0.32721 0.34534
 H1105 H 0.27326 0.42630 0.46049
 H1106 H 0.24564 0.36652 0.32259
 H1107 H 0.24040 0.47318 0.42243
 H1108 H 0.26711 0.31790 0.36635
 C1109 C 0.22330 0.94482 0.03323
 C1110 C 0.23906 0.94492 0.05973
 C1111 C 0.24116 0.91921 0.07949
 N1112 N 0.25431 0.92239 0.10622
 N1113 N 0.25633 0.89959 0.12477
 C1114 C 0.24539 0.87266 0.11723
 N1115 N 0.23242 0.86937 0.09035
 N1116 N 0.23028 0.89226 0.07181
 C1117 C 0.24710 0.84757 0.13792
 C1118 C 0.25535 0.85172 0.16732
 H1119 H 0.25034 0.96494 0.06651
 H1120 H 0.24057 0.82581 0.13027
 H1121 H 0.21240 0.92475 0.02612
 H1122 H 0.26031 0.87383 0.17518
 C1123 C 0.74272 0.44582 0.52786
 C1124 C 0.75817 0.44346 0.55441
 C1125 C 0.75743 0.41682 0.57299
 N1126 N 0.76909 0.41792 0.60055
 N1127 N 0.76768 0.39452 0.61835
 C1128 C 0.75465 0.36905 0.60924
 N1129 N 0.74333 0.36775 0.58148
 N1130 N 0.74460 0.39128 0.56368
 C1131 C 0.75224 0.34357 0.62935
 C1132 C 0.75690 0.34711 0.65957
 H1133 H 0.77065 0.46220 0.56253
 H1134 H 0.74561 0.32227 0.62057
 H1135 H 0.73136 0.42660 0.51922
 H1136 H 0.76178 0.36895 0.66822
 C1137 C 0.03270 0.05447 0.73389
 C1138 C 0.05939 0.05548 0.74944
 C1139 C 0.07930 0.08107 0.74883
 N1140 N 0.10690 0.07843 0.76039
 N1141 N 0.12562 0.10111 0.75965
 C1142 C 0.11735 0.12734 0.74742
 N1143 N 0.08966 0.13009 0.73605
 N1144 N 0.07098 0.10732 0.73663
 C1145 C 0.13771 0.15261 0.74659
 C1146 C 0.16776 0.14969 0.75324
 H1147 H 0.06658 0.03632 0.76201
 H1148 H 0.12886 0.17396 0.73995
 H1149 H 0.02516 0.07396 0.72208
 H1150 H 0.17695 0.12807 0.75838
 C1151 C 0.53782 0.55528 0.25227
 C1152 C 0.56608 0.55572 0.26473
 C1153 C 0.58536 0.58170 0.26263
 N1154 N 0.61413 0.57949 0.27100
 N1155 N 0.63210 0.60268 0.26869
 C1156 C 0.62187 0.62894 0.25802
 N1157 N 0.59306 0.63121 0.24988
 N1158 N 0.57513 0.60798 0.25204
 C1159 C 0.64127 0.65476 0.25542
 C1160 C 0.67184 0.65279 0.25919
 H1161 H 0.57473 0.53640 0.27603
 H1162 H 0.63113 0.67585 0.24985
 H1163 H 0.52930 0.57530 0.24209
 H1164 H 0.68218 0.63150 0.26352
 C1165 C 0.06023 0.97811 0.24172
 C1166 C 0.06597 0.95176 0.25713
 C1167 C 0.09411 0.93524 0.25686
 N1168 N 0.09556 0.90945 0.27211
 N1169 N 0.11971 0.89255 0.27109
 C1170 C 0.14352 0.90071 0.25478
 N1171 N 0.14239 0.92687 0.23985
 N1172 N 0.11803 0.94384 0.24077
 C1173 C 0.16936 0.88061 0.25243
 C1174 C 0.16622 0.85074 0.25975
 H1175 H 0.04874 0.94218 0.27070
 H1176 H 0.19007 0.88874 0.24358
 H1177 H 0.07876 0.98971 0.23203
 H1178 H 0.14460 0.84279 0.26633
 C1179 C 0.56026 0.47752 0.74312
 C1180 C 0.56651 0.45215 0.75964
 C1181 C 0.59383 0.43451 0.75718
 N1182 N 0.59493 0.40782 0.77083
 N1183 N 0.61836 0.39015 0.76771
 C1184 C 0.64176 0.39846 0.75087
 N1185 N 0.64102 0.42550 0.73761
 N1186 N 0.61737 0.44320 0.74058
 C1187 C 0.66682 0.37781 0.74641
 C1188 C 0.66252 0.34751 0.75063
 H1189 H 0.54940 0.44340 0.77396
 H1190 H 0.68798 0.38608 0.73887
 H1191 H 0.57734 0.48779 0.72987
 H1192 H 0.64045 0.33975 0.75581
 C1193 C 0.94260 0.02712 0.23627
 C1194 C 0.93661 0.05206 0.25358
 C1195 C 0.90954 0.07021 0.25144
 N1196 N 0.90852 0.09645 0.26599
 N1197 N 0.88488 0.11404 0.26396
 C1198 C 0.86118 0.10607 0.24739
 N1199 N 0.86195 0.07956 0.23309
 N1200 N 0.88578 0.06196 0.23497
 C1201 C 0.83543 0.12623 0.24464
 C1202 C 0.83810 0.15608 0.25226
 H1203 H 0.95349 0.05962 0.26881
 H1204 H 0.81486 0.11796 0.23563
 H1205 H 0.92618 0.01887 0.22095
 H1206 H 0.85951 0.16425 0.25920
 C1207 C 0.43982 0.52318 0.74331
 C1208 C 0.43240 0.54664 0.76207
 C1209 C 0.40481 0.56403 0.76027
 N1210 N 0.40218 0.58867 0.77721
 N1211 N 0.37856 0.60623 0.77492
 C1212 C 0.35648 0.59986 0.75565
 N1213 N 0.35875 0.57484 0.73901
 N1214 N 0.38258 0.55727 0.74118
 C1215 C 0.33128 0.62060 0.75206
 C1216 C 0.33405 0.64996 0.76132
 H1217 H 0.44862 0.55399 0.77809
 H1218 H 0.31147 0.61340 0.74073
 H1219 H 0.42343 0.51414 0.72841
 H1220 H 0.35503 0.65713 0.77040
 C1221 C 0.96718 0.94418 0.73230
 C1222 C 0.93864 0.94119 0.72098
 C1223 C 0.92127 0.91407 0.72491
 N1224 N 0.89190 0.91447 0.71880
 N1225 N 0.87553 0.89040 0.72302
 C1226 C 0.88797 0.86496 0.73336
 N1227 N 0.91744 0.86442 0.73913
 N1228 N 0.93380 0.88859 0.73510
 C1229 C 0.86990 0.83845 0.73842
 C1230 C 0.83913 0.84026 0.73941
 H1231 H 0.92816 0.95952 0.70954
 H1232 H 0.88098 0.81745 0.74230
 H1233 H 0.97750 0.92524 0.74288
 H1234 H 0.82834 0.86167 0.73724
 C1235 C 0.46552 0.44958 0.24810
 C1236 C 0.43710 0.44816 0.25999
 C1237 C 0.41814 0.42222 0.25583
 N1238 N 0.38942 0.42343 0.26447
 N1239 N 0.37173 0.40029 0.26038
 C1240 C 0.38216 0.37509 0.24757
 N1241 N 0.41095 0.37379 0.23913
 N1242 N 0.42861 0.39699 0.24309
 C1243 C 0.36294 0.34937 0.24321
 C1244 C 0.33258 0.35102 0.24832
 H1245 H 0.42815 0.46662 0.27245
 H1246 H 0.37294 0.32875 0.23590
 H1247 H 0.47437 0.43036 0.23673
 H1248 H 0.32255 0.37193 0.25471
   
