data_POSCAR
  _audit_creation_date              2014-09-24
  _audit_creation_method            'ToBaCCo'
  _symmetry_space_group_name_H-M    'P1'
  _symmetry_Int_Tables_number       1
  _symmetry_cell_setting            triclinic
  loop_
  _symmetry_equiv_pos_as_xyz
 x,y,z
_cell_length_a 44.7855
_cell_length_b 42.6534
_cell_length_c 45.5988
_cell_angle_alpha 89.872600
_cell_angle_beta 89.886800
_cell_angle_gamma 90.062100
loop_
  _atom_site_label
  _atom_site_type_symbol
  _atom_site_fract_x
  _atom_site_fract_y
  _atom_site_fract_z
O1 O 0.37853 0.33749 -0.03237
 O2 O 0.34284 0.37491 0.03171
 O3 O 0.38506 0.33310 0.02449
 O4 O 0.33754 0.38013 -0.02457
 O5 O 0.30334 0.34291 -0.02379
 O6 O 0.35093 0.29577 0.02498
 O7 O 0.30903 0.33723 0.03255
 O8 O 0.34397 0.30057 -0.03158
 Cu9 Cu 0.36454 0.36005 -0.00021
 Cu10 Cu 0.32348 0.31532 0.00069
 C11 C 0.36705 0.31278 -0.04310
 C12 C 0.31955 0.36258 0.04278
 C13 C 0.37610 0.30636 0.03311
 C14 C 0.31221 0.36970 -0.03249
 O15 O 0.66561 0.62873 0.02765
 O16 O 0.62686 0.66930 -0.03260
 O17 O 0.66610 0.62466 -0.02924
 O18 O 0.62540 0.67311 0.02428
 O19 O 0.66262 0.70710 0.02452
 O20 O 0.70045 0.66153 -0.03291
 O21 O 0.66146 0.70619 -0.03223
 O22 O 0.70248 0.66294 0.02450
 Cu23 Cu 0.64238 0.64535 -0.00221
 Cu24 Cu 0.68547 0.68789 -0.00413
 C25 C 0.69086 0.63876 0.03614
 C26 C 0.63741 0.69490 -0.04247
 C27 C 0.68985 0.63524 -0.04091
 C28 C 0.63720 0.69823 0.03370
 O29 O 0.65005 0.37737 0.96024
 O30 O 0.61668 0.34072 1.02594
 O31 O 0.65828 0.38236 1.01682
 O32 O 0.60811 0.33620 0.96966
 O33 O 0.64056 0.29731 0.97004
 O34 O 0.69272 0.34575 1.01278
 O35 O 0.65179 0.30444 1.02537
 O36 O 0.68193 0.33809 0.95718
 Cu37 Cu 0.62994 0.36301 0.99336
 Cu38 Cu 0.67015 0.31765 0.99112
 C39 C 0.67145 0.36362 0.94723
 C40 C 0.62873 0.31647 1.03701
 C41 C 0.68426 0.37214 1.02265
 C42 C 0.61558 0.30861 0.96223
 O43 O 0.34259 0.63029 0.97153
 O44 O 0.38319 0.66439 1.03421
 O45 O 0.34050 0.62315 1.02840
 O46 O 0.38557 0.67117 0.97751
 O47 O 0.35171 0.70863 0.97979
 O48 O 0.30811 0.66180 1.03247
 O49 O 0.34997 0.70253 1.03649
 O50 O 0.30854 0.66737 0.97547
 Cu51 Cu 0.36628 0.64341 1.00254
 Cu52 Cu 0.32619 0.68886 1.00610
 C53 C 0.31842 0.64288 0.96301
 C54 C 0.37336 0.68927 1.04609
 C55 C 0.31693 0.63456 1.03973
 C56 C 0.37634 0.69816 0.97001
 O57 O 0.02424 0.34317 0.37025
 O58 O -0.03902 0.37659 0.32918
 O59 O -0.03303 0.33878 0.37343
 O60 O 0.01901 0.38277 0.32618
 O61 O 0.02124 0.34260 0.29581
 O62 O -0.03197 0.29922 0.34240
 O63 O -0.03701 0.33699 0.29818
 O64 O 0.02588 0.30355 0.33918
 Cu65 Cu -0.00724 0.36448 0.35271
 Cu66 Cu -0.00526 0.31669 0.31571
 C67 C 0.03553 0.31737 0.36189
 C68 C -0.04910 0.36221 0.30690
 C69 C -0.04151 0.31149 0.36602
 C70 C 0.02921 0.37009 0.30307
 O71 O 0.02667 0.65647 0.62271
 O72 O -0.02828 0.61441 0.66844
 O73 O -0.03182 0.65474 0.62507
 O74 O 0.02953 0.61657 0.66587
 O75 O 0.03012 0.65630 0.69681
 O76 O -0.03227 0.69296 0.65752
 O77 O -0.02767 0.65321 0.70036
 O78 O 0.02581 0.69599 0.65386
 Cu79 Cu -0.00108 0.63170 0.64223
 Cu80 Cu -0.00102 0.67858 0.68021
 C81 C 0.03578 0.68336 0.63063
 C82 C -0.03707 0.62644 0.69242
 C83 C -0.04280 0.68029 0.63457
 C84 C 0.04032 0.63007 0.68831
 O85 O 0.96562 0.65445 0.36780
 O86 O 1.02751 0.61948 0.32622
 O87 O 1.02341 0.65993 0.36922
 O88 O 0.97017 0.61555 0.32349
 O89 O 0.96798 0.65543 0.29263
 O90 O 1.02193 0.69881 0.33734
 O91 O 1.02580 0.65859 0.29450
 O92 O 0.96394 0.69391 0.33644
 Cu93 Cu 0.99684 0.63348 0.34993
 Cu94 Cu 0.99480 0.68068 0.31215
 C95 C 0.95424 0.68015 0.35931
 C96 C 1.03688 0.63268 0.30298
 C97 C 1.03177 0.68710 0.36104
 C98 C 0.96021 0.62792 0.30008
 O99 O 0.98119 0.34475 0.62522
 O100 O 1.03259 0.38777 0.67378
 O101 O 1.03962 0.34915 0.63020
 O102 O 0.97536 0.38408 0.66893
 O103 O 0.97608 0.34500 0.70074
 O104 O 1.03738 0.30837 0.65993
 O105 O 1.03350 0.34716 0.70387
 O106 O 0.97970 0.30580 0.65711
 Cu107 Cu 1.00716 0.37031 0.64620
 Cu108 Cu 1.00662 0.32253 0.68341
 C109 C 0.97145 0.31800 0.63304
 C110 C 1.04166 0.37482 0.69724
 C111 C 1.04936 0.32255 0.63838
 C112 C 0.96547 0.37100 0.69206
 O113 O 0.37873 0.03375 0.34048
 O114 O 0.33807 -0.02793 0.38065
 O115 O 0.38015 -0.02724 0.34094
 O116 O 0.33615 0.03272 0.37991
 O117 O 0.30210 0.03092 0.34505
 O118 O 0.34634 -0.02804 0.30581
 O119 O 0.30477 -0.03004 0.34508
 O120 O 0.34444 0.03291 0.30578
 Cu121 Cu 0.36174 0.00304 0.36399
 Cu122 Cu 0.32103 0.00141 0.32190
 C123 C 0.36854 0.04386 0.31627
 C124 C 0.31455 -0.03963 0.36962
 C125 C 0.37065 -0.03793 0.31669
 C126 C 0.31139 0.04175 0.36928
 O127 O 0.66330 -0.02595 0.61228
 O128 O 0.61798 0.02667 0.65833
 O129 O 0.66062 0.03446 0.61936
 O130 O 0.62174 -0.03381 0.65169
 O131 O 0.65717 -0.03723 0.68512
 O132 O 0.69352 0.03315 0.65531
 O133 O 0.65153 0.02292 0.69353
 O134 O 0.69852 -0.02626 0.64608
 Cu135 Cu 0.63743 0.00068 0.63194
 Cu136 Cu 0.67850 -0.00214 0.67357
 C137 C 0.68890 -0.03459 0.62110
 C138 C 0.62685 0.03342 0.68400
 C139 C 0.68380 0.04536 0.63180
 C140 C 0.63315 -0.04739 0.67382
 O141 O 0.33895 1.02502 0.60681
 O142 O 0.38068 0.96770 0.65115
 O143 O 0.34039 0.96354 0.61004
 O144 O 0.37898 1.02805 0.64814
 O145 O 0.34238 1.02995 0.68057
 O146 O 0.30544 0.96359 0.64425
 O147 O 0.34517 0.96893 0.68478
 O148 O 0.30246 1.02427 0.63942
 Cu149 Cu 0.36324 0.99602 0.62554
 Cu150 Cu 0.32027 0.99689 0.66559
 C151 C 0.31353 1.03434 0.61554
 C152 C 0.37010 0.95867 0.67561
 C153 C 0.31661 0.95214 0.62102
 C154 C 0.36723 1.03999 0.67088
 O155 O 0.66456 1.03178 0.39031
 O156 O 0.62407 0.97650 0.34275
 O157 O 0.66314 0.97117 0.38437
 O158 O 0.62531 1.03756 0.34800
 O159 O 0.66229 1.04052 0.31608
 O160 O 0.69905 0.97332 0.35118
 O161 O 0.66030 0.97968 0.30999
 O162 O 0.70129 1.03343 0.35808
 Cu163 Cu 0.64053 1.00418 0.36958
 Cu164 Cu 0.68430 1.00723 0.33051
 C165 C 0.69024 1.04155 0.38258
 C166 C 0.63554 0.96826 0.31845
 C167 C 0.68742 0.96070 0.37372
 C168 C 0.63745 1.05040 0.32580
 C169 C 0.81510 0.80781 0.51423
 C170 C 0.81386 0.80578 0.48447
 C171 C 0.83334 0.78438 0.46735
 C172 C 0.79364 0.82639 0.46731
 C173 C 0.79782 0.83219 0.52987
 C174 C 0.83429 0.78707 0.53236
 C175 C 0.86450 0.78449 0.47101
 C176 C 0.88259 0.76534 0.45360
 C177 C 0.86980 0.74617 0.43205
 C178 C 0.83877 0.74628 0.42815
 C179 C 0.82068 0.76519 0.44569
 C180 C 0.80566 0.84753 0.44688
 C181 C 0.78694 0.86718 0.43071
 C182 C 0.75579 0.86592 0.43456
 C183 C 0.74382 0.84461 0.45503
 C184 C 0.76257 0.82485 0.47108
 C185 C 0.77158 0.82413 0.54491
 C186 C 0.75400 0.84745 0.55775
 C187 C 0.76296 0.87898 0.55644
 C188 C 0.78979 0.88684 0.54221
 C189 C 0.80692 0.86363 0.52870
 C190 C 0.83264 0.75427 0.53009
 C191 C 0.85092 0.73518 0.54744
 C192 C 0.87094 0.74854 0.56763
 C193 C 0.87255 0.78140 0.56970
 C194 C 0.85431 0.80039 0.55240
 H195 H 0.87486 0.79984 0.48691
 H196 H 0.90657 0.76619 0.45638
 H197 H 0.82861 0.73180 0.41142
 H198 H 0.79675 0.76501 0.44226
 H199 H 0.82960 0.84904 0.44372
 H200 H 0.79692 0.88368 0.41549
 H201 H 0.75285 0.80821 0.48634
 H202 H 0.76432 0.79992 0.54593
 H203 H 0.73352 0.84090 0.56886
 H204 H 0.79705 0.91104 0.54096
 H205 H 0.82716 0.87013 0.51713
 H206 H 0.81706 0.74347 0.51504
 H207 H 0.84900 0.70997 0.54548
 H208 H 0.88814 0.79255 0.58449
 H209 H 0.85613 0.82562 0.55441
 H210 H 0.71991 0.84289 0.45825
 C211 C 0.19100 0.19953 0.51185
 C212 C 0.18843 0.19993 0.48202
 C213 C 0.16641 0.21936 0.46585
 C214 C 0.20689 0.17859 0.46379
 C215 C 0.20980 0.17508 0.52582
 C216 C 0.17371 0.22049 0.53199
 C217 C 0.13594 0.21922 0.47336
 C218 C 0.11551 0.23678 0.45699
 C219 C 0.12508 0.25382 0.43232
 C220 C 0.15538 0.25350 0.42454
 C221 C 0.17586 0.23656 0.44123
 C222 C 0.19313 0.15476 0.44762
 C223 C 0.21035 0.13346 0.43173
 C224 C 0.24172 0.13576 0.43141
 C225 C 0.25534 0.16027 0.44709
 C226 C 0.23807 0.18151 0.46309
 C227 C 0.23709 0.18296 0.53887
 C228 C 0.25473 0.15965 0.55174
 C229 C 0.24487 0.12836 0.55231
 C230 C 0.21739 0.12066 0.53944
 C231 C 0.20009 0.14381 0.52611
 C232 C 0.16776 0.25207 0.52527
 C233 C 0.14943 0.27016 0.54352
 C234 C 0.13804 0.25780 0.57003
 C235 C 0.14638 0.22705 0.57776
 C236 C 0.16329 0.20857 0.55887
 H237 H 0.12798 0.20534 0.49169
 H238 H 0.09211 0.23627 0.46301
 H239 H 0.16318 0.26646 0.40555
 H240 H 0.19916 0.23671 0.43482
 H241 H 0.16907 0.15218 0.44797
 H242 H 0.19908 0.11462 0.42034
 H243 H 0.24899 0.20013 0.47512
 H244 H 0.24478 0.20704 0.53883
 H245 H 0.27575 0.16610 0.56176
 H246 H 0.20947 0.09667 0.53946
 H247 H 0.17899 0.13746 0.51617
 H248 H 0.17677 0.26273 0.50560
 H249 H 0.14416 0.29363 0.53633
 H250 H 0.13978 0.21680 0.59844
 H251 H 0.16793 0.18466 0.56539
 H252 H 0.27922 0.16339 0.44696
 C253 C 0.18111 0.81008 0.47927
 C254 C 0.18253 0.80727 0.50901
 C255 C 0.16080 0.78767 0.52542
 C256 C 0.20480 0.82456 0.52690
 C257 C 0.20087 0.83174 0.46250
 C258 C 0.15952 0.79131 0.46200
 C259 C 0.13014 0.79449 0.52465
 C260 C 0.11001 0.77669 0.54121
 C261 C 0.12030 0.75189 0.55873
 C262 C 0.15089 0.74487 0.55921
 C263 C 0.17104 0.76281 0.54285
 C264 C 0.19488 0.84370 0.54989
 C265 C 0.21517 0.86124 0.56625
 C266 C 0.24590 0.85987 0.56008
 C267 C 0.25590 0.84031 0.53730
 C268 C 0.23555 0.82256 0.52102
 C269 C 0.21631 0.82060 0.43782
 C270 C 0.23578 0.84021 0.42239
 C271 C 0.24048 0.87119 0.43161
 C272 C 0.22453 0.88263 0.45585
 C273 C 0.20442 0.86326 0.47080
 C274 C 0.16072 0.75847 0.46202
 C275 C 0.14017 0.74104 0.44573
 C276 C 0.11797 0.75610 0.42899
 C277 C 0.11693 0.78916 0.42934
 C278 C 0.13767 0.80651 0.44535
 H279 H 0.12192 0.81383 0.51154
 H280 H 0.08647 0.78225 0.54028
 H281 H 0.15920 0.72591 0.57275
 H282 H 0.19464 0.75738 0.54379
 H283 H 0.17127 0.84564 0.55474
 H284 H 0.20667 0.87646 0.58330
 H285 H 0.24371 0.80755 0.50364
 H286 H 0.21373 0.79650 0.43081
 H287 H 0.24780 0.83094 0.40369
 H288 H 0.22742 0.90663 0.46302
 H289 H 0.19195 0.87275 0.48909
 H290 H 0.17769 0.74637 0.47457
 H291 H 0.14218 0.71589 0.44616
 H292 H 0.09971 0.80183 0.41769
 H293 H 0.13632 0.83187 0.44523
 H294 H 0.27947 0.83860 0.53222
 C295 C 0.80966 0.19823 0.49402
 C296 C 0.81113 0.20203 0.52366
 C297 C 0.83573 0.22016 0.53739
 C298 C 0.79047 0.18494 0.54366
 C299 C 0.79013 0.17418 0.48049
 C300 C 0.82981 0.21560 0.47385
 C301 C 0.86565 0.21236 0.53159
 C302 C 0.88878 0.22864 0.54526
 C303 C 0.88234 0.25270 0.56512
 C304 C 0.85255 0.26044 0.57118
 C305 C 0.82934 0.24412 0.55749
 C306 C 0.80218 0.16509 0.56527
 C307 C 0.78337 0.14546 0.58144
 C308 C 0.75232 0.14547 0.57661
 C309 C 0.74053 0.16662 0.55593
 C310 C 0.75941 0.18626 0.53973
 C311 C 0.77048 0.18256 0.45788
 C312 C 0.75322 0.15968 0.44401
 C313 C 0.75554 0.12822 0.45256
 C314 C 0.77500 0.11978 0.47521
 C315 C 0.79239 0.14257 0.48893
 C316 C 0.83053 0.24843 0.47353
 C317 C 0.85065 0.26437 0.45534
 C318 C 0.87057 0.24782 0.43705
 C319 C 0.86934 0.21478 0.43741
 C320 C 0.84900 0.19894 0.45530
 H321 H 0.87106 0.19336 0.51680
 H322 H 0.91171 0.22222 0.54067
 H323 H 0.84734 0.27873 0.58681
 H324 H 0.80641 0.25010 0.56256
 H325 H 0.82608 0.16353 0.56857
 H326 H 0.79344 0.12915 0.59670
 H327 H 0.74989 0.20173 0.52337
 H328 H 0.76872 0.20676 0.45086
 H329 H 0.73843 0.16638 0.42631
 H330 H 0.77726 0.09546 0.48170
 H331 H 0.80801 0.13550 0.50578
 H332 H 0.81561 0.26169 0.48751
 H333 H 0.85028 0.28959 0.45585
 H334 H 0.88471 0.20084 0.42463
 H335 H 0.84894 0.17355 0.45542
 H336 H 0.71685 0.16783 0.55185
 C337 C 0.51674 0.81633 0.81016
 C338 C 0.48660 0.81949 0.81298
 C339 C 0.46867 0.84011 0.79341
 C340 C 0.47012 0.80221 0.83628
 C341 C 0.53398 0.79744 0.83144
 C342 C 0.53443 0.83222 0.78684
 C343 C 0.47720 0.87125 0.78755
 C344 C 0.46113 0.88940 0.76748
 C345 C 0.43563 0.87711 0.75381
 C346 C 0.42613 0.84667 0.76097
 C347 C 0.44258 0.82830 0.78046
 C348 C 0.45424 0.81884 0.85769
 C349 C 0.43968 0.80288 0.88039
 C350 C 0.44071 0.76996 0.88206
 C351 C 0.45593 0.75334 0.86003
 C352 C 0.47035 0.76932 0.83727
 C353 C 0.54530 0.76815 0.82315
 C354 C 0.56228 0.75057 0.84285
 C355 C 0.56892 0.76252 0.87076
 C356 C 0.55749 0.79186 0.87903
 C357 C 0.53986 0.80908 0.85957
 C358 C 0.52696 0.82946 0.75703
 C359 C 0.54374 0.84518 0.73561
 C360 C 0.56870 0.86325 0.74360
 C361 C 0.57640 0.86545 0.77337
 C362 C 0.55947 0.85011 0.79471
 H363 H 0.49654 0.88136 0.79815
 H364 H 0.46845 0.91310 0.76279
 H365 H 0.40642 0.83679 0.75080
 H366 H 0.43527 0.80455 0.78495
 H367 H 0.45370 0.84422 0.85716
 H368 H 0.42818 0.81636 0.89703
 H369 H 0.48184 0.75604 0.82048
 H370 H 0.54086 0.75893 0.80148
 H371 H 0.57092 0.72801 0.83605
 H372 H 0.56217 0.80137 0.90053
 H373 H 0.53127 0.83173 0.86616
 H374 H 0.50808 0.81530 0.75038
 H375 H 0.53743 0.84298 0.71280
 H376 H 0.59518 0.87961 0.78027
 H377 H 0.56571 0.85266 0.81751
 H378 H 0.45653 0.72797 0.86025
 C379 C 0.52148 0.18858 0.18905
 C380 C 0.49112 0.18660 0.18732
 C381 C 0.47330 0.16619 0.20717
 C382 C 0.47408 0.20428 0.16477
 C383 C 0.53897 0.20797 0.16803
 C384 C 0.53894 0.17135 0.21162
 C385 C 0.47958 0.13406 0.21021
 C386 C 0.46243 0.11536 0.22904
 C387 C 0.43849 0.12842 0.24467
 C388 C 0.43173 0.16027 0.24104
 C389 C 0.44901 0.17901 0.22249
 C390 C 0.45595 0.18786 0.14502
 C391 C 0.44094 0.20373 0.12271
 C392 C 0.44361 0.23645 0.11972
 C393 C 0.46110 0.25300 0.14011
 C394 C 0.47607 0.23706 0.16254
 C395 C 0.55781 0.23166 0.17867
 C396 C 0.57359 0.25085 0.15921
 C397 C 0.57076 0.24655 0.12890
 C398 C 0.55258 0.22240 0.11817
 C399 C 0.53696 0.20303 0.13763
 C400 C 0.53233 0.17391 0.24166
 C401 C 0.54897 0.15715 0.26237
 C402 C 0.57293 0.13812 0.25346
 C403 C 0.57969 0.13596 0.22342
 C404 C 0.56292 0.15245 0.20277
 H405 H 0.49763 0.12347 0.19790
 H406 H 0.46747 0.09063 0.23087
 H407 H 0.41316 0.17066 0.25277
 H408 H 0.44357 0.20363 0.22020
 H409 H 0.45403 0.16259 0.14647
 H410 H 0.42775 0.19025 0.10735
 H411 H 0.48946 0.25023 0.17797
 H412 H 0.55986 0.23562 0.20203
 H413 H 0.58775 0.26929 0.16774
 H414 H 0.55056 0.21855 0.09479
 H415 H 0.52309 0.18440 0.12903
 H416 H 0.51433 0.18889 0.24905
 H417 H 0.54340 0.15944 0.28538
 H418 H 0.59767 0.12111 0.21578
 H419 H 0.56844 0.15015 0.17973
 H420 H 0.46307 0.27826 0.13890
 C421 C 0.47720 0.18307 0.80810
 C422 C 0.50748 0.18177 0.81095
 C423 C 0.52657 0.16175 0.79205
 C424 C 0.52260 0.19915 0.83475
 C425 C 0.45922 0.20406 0.82715
 C426 C 0.46046 0.16340 0.78676
 C427 C 0.54558 0.13964 0.80505
 C428 C 0.56175 0.11872 0.78775
 C429 C 0.55940 0.11950 0.75701
 C430 C 0.54130 0.14258 0.74395
 C431 C 0.52516 0.16363 0.76132
 C432 C 0.52009 0.18887 0.86389
 C433 C 0.53312 0.20613 0.88651
 C434 C 0.54820 0.23425 0.88033
 C435 C 0.55082 0.24440 0.85112
 C436 C 0.53846 0.22669 0.82841
 C437 C 0.46366 0.23663 0.82666
 C438 C 0.44761 0.25603 0.84563
 C439 C 0.42641 0.24325 0.86506
 C440 C 0.42162 0.21064 0.86503
 C441 C 0.43783 0.19126 0.84618
 C442 C 0.43862 0.17728 0.76889
 C443 C 0.42293 0.15935 0.74846
 C444 C 0.42917 0.12733 0.74523
 C445 C 0.45048 0.11321 0.76346
 C446 C 0.46555 0.13095 0.78449
 H447 H 0.54707 0.13777 0.82868
 H448 H 0.57537 0.10121 0.79854
 H449 H 0.53952 0.14433 0.72034
 H450 H 0.51105 0.18093 0.75083
 H451 H 0.50788 0.16762 0.86904
 H452 H 0.53092 0.19790 0.90890
 H453 H 0.54051 0.23485 0.80599
 H454 H 0.47965 0.24698 0.81165
 H455 H 0.45154 0.28107 0.84489
 H456 H 0.40578 0.19998 0.88000
 H457 H 0.43411 0.16616 0.84681
 H458 H 0.43399 0.20214 0.77049
 H459 H 0.40641 0.17059 0.73468
 H460 H 0.45515 0.08838 0.76165
 H461 H 0.48135 0.11938 0.79881
 H462 H 0.56265 0.26586 0.84590
 C463 C 0.49134 0.82107 0.18639
 C464 C 0.52163 0.82362 0.18408
 C465 C 0.53901 0.84344 0.20468
 C466 C 0.53901 0.80649 0.16132
 C467 C 0.47385 0.79907 0.16795
 C468 C 0.47394 0.84044 0.20742
 C469 C 0.55838 0.86649 0.19366
 C470 C 0.57473 0.88540 0.21276
 C471 C 0.57210 0.88149 0.24328
 C472 C 0.55281 0.85822 0.25426
 C473 C 0.53664 0.83917 0.23513
 C474 C 0.53045 0.80688 0.13166
 C475 C 0.54647 0.78966 0.11088
 C476 C 0.57197 0.77278 0.11921
 C477 C 0.58126 0.77342 0.14856
 C478 C 0.56483 0.78996 0.16945
 C479 C 0.48070 0.76695 0.16691
 C480 C 0.46399 0.74674 0.14924
 C481 C 0.43982 0.75820 0.13278
 C482 C 0.43300 0.79034 0.13404
 C483 C 0.44975 0.81050 0.15155
 C484 C 0.45395 0.82585 0.22691
 C485 C 0.43715 0.84373 0.24652
 C486 C 0.44021 0.87640 0.24696
 C487 C 0.46000 0.89114 0.22750
 C488 C 0.47657 0.87330 0.20762
 H489 H 0.56056 0.87007 0.17022
 H490 H 0.58913 0.90334 0.20362
 H491 H 0.55063 0.85440 0.27765
 H492 H 0.52226 0.82107 0.24407
 H493 H 0.51129 0.82036 0.12459
 H494 H 0.53927 0.78993 0.08823
 H495 H 0.57208 0.78957 0.19209
 H496 H 0.49892 0.75759 0.17979
 H497 H 0.46965 0.72207 0.14882
 H498 H 0.41491 0.80004 0.12120
 H499 H 0.44413 0.83519 0.15203
 H500 H 0.45146 0.80059 0.22698
 H501 H 0.42176 0.83213 0.26135
 H502 H 0.46222 0.91643 0.22741
 H503 H 0.49132 0.88509 0.19232
 H504 H 0.60089 0.76057 0.15542
 C505 C 0.80823 0.51100 0.81367
 C506 C 0.80635 0.47924 0.81085
 C507 C 0.78317 0.46012 0.82592
 C508 C 0.82922 0.46198 0.79380
 C509 C 0.83006 0.52908 0.79579
 C510 C 0.78949 0.52914 0.83464
 C511 C 0.79180 0.43397 0.84257
 C512 C 0.77066 0.41665 0.85821
 C513 C 0.74033 0.42505 0.85749
 C514 C 0.73155 0.45080 0.84025
 C515 C 0.75275 0.46800 0.82435
 C516 C 0.85908 0.46220 0.80302
 C517 C 0.88092 0.44701 0.78652
 C518 C 0.87325 0.43161 0.76046
 C519 C 0.84334 0.43093 0.75142
 C520 C 0.82136 0.44584 0.76818
 C521 C 0.82886 0.52826 0.76507
 C522 C 0.85022 0.54410 0.74829
 C523 C 0.87317 0.56119 0.76191
 C524 C 0.87387 0.56242 0.79276
 C525 C 0.85242 0.54668 0.80952
 C526 C 0.77658 0.55756 0.82559
 C527 C 0.75941 0.57523 0.84502
 C528 C 0.75437 0.56454 0.87369
 C529 C 0.76731 0.53632 0.88296
 C530 C 0.78533 0.51912 0.86380
 H531 H 0.81512 0.42747 0.84416
 H532 H 0.77823 0.39725 0.87160
 H533 H 0.70830 0.45761 0.83908
 H534 H 0.74550 0.48775 0.81122
 H535 H 0.86542 0.47434 0.82290
 H536 H 0.90391 0.44758 0.79385
 H537 H 0.79835 0.44534 0.76092
 H538 H 0.81140 0.51520 0.75411
 H539 H 0.84832 0.54317 0.72476
 H540 H 0.89144 0.57502 0.80400
 H541 H 0.85367 0.54759 0.83323
 H542 H 0.77969 0.56602 0.80337
 H543 H 0.74962 0.59704 0.83754
 H544 H 0.76398 0.52797 0.90518
 H545 H 0.79602 0.49803 0.87179
 H546 H 0.83699 0.41870 0.73162
 C547 C 0.18635 0.51457 0.17891
 C548 C 0.18470 0.48258 0.17983
 C549 C 0.20612 0.46268 0.16335
 C550 C 0.16115 0.46592 0.19703
 C551 C 0.16725 0.53425 0.19813
 C552 C 0.20708 0.53163 0.15880
 C553 C 0.19535 0.44057 0.14328
 C554 C 0.21516 0.42316 0.12617
 C555 C 0.24616 0.42723 0.12906
 C556 C 0.25693 0.44873 0.14985
 C557 C 0.23708 0.46617 0.16699
 C558 C 0.13090 0.47440 0.19466
 C559 C 0.10923 0.45940 0.21176
 C560 C 0.11722 0.43481 0.23063
 C561 C 0.14719 0.42538 0.23211
 C562 C 0.16899 0.44093 0.21558
 C563 C 0.16793 0.53073 0.22870
 C564 C 0.14868 0.54817 0.24645
 C565 C 0.12844 0.56963 0.23400
 C566 C 0.12866 0.57375 0.20334
 C567 C 0.14800 0.55641 0.18565
 C568 C 0.22383 0.55700 0.16950
 C569 C 0.24281 0.57380 0.15092
 C570 C 0.24583 0.56517 0.12143
 C571 C 0.22915 0.53996 0.11052
 C572 C 0.20942 0.52374 0.12891
 H573 H 0.17155 0.43760 0.14011
 H574 H 0.20610 0.40744 0.10989
 H575 H 0.28069 0.45213 0.15279
 H576 H 0.24581 0.48278 0.18273
 H577 H 0.12405 0.49275 0.17969
 H578 H 0.08614 0.46668 0.20995
 H579 H 0.19209 0.43373 0.21758
 H580 H 0.18314 0.51418 0.23875
 H581 H 0.14986 0.54468 0.26983
 H582 H 0.11313 0.58958 0.19280
 H583 H 0.14725 0.55951 0.16207
 H584 H 0.22225 0.56379 0.19233
 H585 H 0.25543 0.59335 0.15962
 H586 H 0.23091 0.53336 0.08766
 H587 H 0.19592 0.50514 0.11974
 H588 H 0.15383 0.40648 0.24658
 C589 C 0.81124 0.47584 0.17361
 C590 C 0.81423 0.50762 0.17427
 C591 C 0.79542 0.52771 0.15520
 C592 C 0.83625 0.52383 0.19350
 C593 C 0.82634 0.45513 0.19508
 C594 C 0.79361 0.46063 0.15018
 C595 C 0.80869 0.54794 0.13472
 C596 C 0.79098 0.56709 0.11696
 C597 C 0.75966 0.56644 0.11956
 C598 C 0.74651 0.54618 0.14025
 C599 C 0.76424 0.52716 0.15802
 C600 C 0.86609 0.51372 0.19518
 C601 C 0.88667 0.52971 0.21265
 C602 C 0.87811 0.55679 0.22796
 C603 C 0.84841 0.56709 0.22611
 C604 C 0.82767 0.55070 0.20916
 C605 C 0.82360 0.46061 0.22530
 C606 C 0.84014 0.44295 0.24529
 C607 C 0.85946 0.41920 0.23548
 C608 C 0.86113 0.41287 0.20526
 C609 C 0.84460 0.43058 0.18527
 C610 C 0.76524 0.44825 0.15624
 C611 C 0.74788 0.43583 0.13359
 C612 C 0.75918 0.43468 0.10488
 C613 C 0.78793 0.44623 0.09904
 C614 C 0.80488 0.45952 0.12149
 H615 H 0.83275 0.54866 0.13233
 H616 H 0.80179 0.58210 0.10098
 H617 H 0.72251 0.54546 0.14306
 H618 H 0.75365 0.51219 0.17419
 H619 H 0.87363 0.49374 0.18260
 H620 H 0.90955 0.52156 0.21341
 H621 H 0.80488 0.55909 0.20815
 H622 H 0.80917 0.47907 0.23332
 H623 H 0.83807 0.44812 0.26844
 H624 H 0.87605 0.39505 0.19689
 H625 H 0.84702 0.42594 0.16205
 H626 H 0.75630 0.44900 0.17832
 H627 H 0.72578 0.42687 0.13845
 H628 H 0.79695 0.44554 0.07699
 H629 H 0.82676 0.46904 0.11655
 H630 H 0.84123 0.58782 0.23782
 C631 C 0.18851 0.49203 0.82331
 C632 C 0.19114 0.52365 0.82031
 C633 C 0.21085 0.54187 0.83986
 C634 C 0.17253 0.54164 0.79927
 C635 C 0.16607 0.47383 0.80656
 C636 C 0.20709 0.47437 0.84454
 C637 C 0.20219 0.54786 0.86887
 C638 C 0.22043 0.56583 0.88712
 C639 C 0.24786 0.57741 0.87676
 C640 C 0.25679 0.57074 0.84791
 C641 C 0.23816 0.55347 0.82942
 C642 C 0.15299 0.56472 0.80973
 C643 C 0.13312 0.57961 0.79073
 C644 C 0.13263 0.57207 0.76074
 C645 C 0.15297 0.54967 0.75010
 C646 C 0.17280 0.53465 0.76919
 C647 C 0.17526 0.44882 0.78876
 C648 C 0.15444 0.43242 0.77189
 C649 C 0.12415 0.44075 0.77276
 C650 C 0.11488 0.46534 0.79099
 C651 C 0.13562 0.48151 0.80805
 C652 C 0.23823 0.47332 0.84161
 C653 C 0.25549 0.45657 0.86179
 C654 C 0.24192 0.44052 0.88530
 C655 C 0.21061 0.44169 0.88800
 C656 C 0.19339 0.45824 0.86772
 H657 H 0.18116 0.53893 0.87719
 H658 H 0.21326 0.57052 0.90938
 H659 H 0.27785 0.57952 0.83953
 H660 H 0.24508 0.54895 0.80705
 H661 H 0.15219 0.57028 0.83288
 H662 H 0.11735 0.59611 0.79982
 H663 H 0.18793 0.51710 0.76064
 H664 H 0.19864 0.44253 0.78741
 H665 H 0.16212 0.41386 0.75764
 H666 H 0.09156 0.47194 0.79204
 H667 H 0.12800 0.50028 0.82216
 H668 H 0.24913 0.48523 0.82352
 H669 H 0.27928 0.45584 0.85840
 H670 H 0.19936 0.43016 0.90609
 H671 H 0.16935 0.45886 0.87034
 H672 H 0.15347 0.54365 0.72706
 C673 C 0.27986 0.36405 0.08140
 C674 C 0.30380 0.37824 0.06710
 C675 C 0.31039 0.40937 0.07578
 C676 C 0.29231 0.42510 0.09676
 C677 C 0.26705 0.41020 0.10953
 C678 C 0.26233 0.37913 0.10122
 C679 C 0.24147 0.35198 0.10419
 C680 C 0.26131 0.33510 0.08161
 H681 H 0.32870 0.42199 0.06564
 H682 H 0.29736 0.44929 0.10192
 H683 H 0.21876 0.35698 0.09564
 H684 H 0.24222 0.34130 0.12643
 H685 H 0.25004 0.33106 0.06025
 H686 H 0.27353 0.31465 0.09075
 C687 C 0.69595 0.59420 0.07160
 C688 C 0.70673 0.62242 0.06001
 C689 C 0.73318 0.63477 0.07218
 C690 C 0.74994 0.61723 0.09252
 C691 C 0.74064 0.58692 0.10108
 C692 C 0.71246 0.57693 0.09162
 C693 C 0.70316 0.54648 0.07837
 C694 C 0.68509 0.56541 0.05639
 H695 H 0.74168 0.65732 0.06505
 H696 H 0.77065 0.62697 0.10064
 H697 H 0.68903 0.53238 0.09353
 H698 H 0.72213 0.53359 0.06828
 H699 H 0.66058 0.56218 0.05891
 H700 H 0.69358 0.56354 0.03352
 C701 C 0.67863 0.40846 0.91211
 C702 C 0.68444 0.37741 0.92033
 C703 C 0.70428 0.36011 0.90259
 C704 C 0.72095 0.37504 0.88036
 C705 C 0.71821 0.40760 0.87548
 C706 C 0.69510 0.42319 0.89020
 C707 C 0.69543 0.45365 0.90626
 C708 C 0.67747 0.43752 0.93028
 H709 H 0.70841 0.33555 0.90706
 H710 H 0.73732 0.36147 0.86836
 H711 H 0.68264 0.47213 0.89453
 H712 H 0.71824 0.46068 0.91330
 H713 H 0.65438 0.44677 0.93240
 H714 H 0.68987 0.43513 0.95128
 C715 C 0.31406 0.60586 0.92046
 C716 C 0.30161 0.62913 0.93835
 C717 C 0.27221 0.63889 0.93198
 C718 C 0.25490 0.62277 0.91112
 C719 C 0.26684 0.59700 0.89578
 C720 C 0.29718 0.59042 0.89945
 C721 C 0.31226 0.55985 0.90524
 C722 C 0.33070 0.57672 0.92833
 H723 H 0.26191 0.65764 0.94435
 H724 H 0.23184 0.62956 0.90789
 H725 H 0.32571 0.55189 0.88616
 H726 H 0.29685 0.54193 0.91456
 H727 H 0.35477 0.57837 0.92256
 H728 H 0.32593 0.56861 0.95106
 C729 C 0.06276 0.30763 0.40890
 C730 C 0.05976 0.30289 0.37887
 C731 C 0.08040 0.28191 0.36590
 C732 C 0.10227 0.26643 0.38315
 C733 C 0.10350 0.27089 0.41390
 C734 C 0.08306 0.29203 0.42557
 C735 C 0.07144 0.30515 0.45358
 C736 C 0.04822 0.32258 0.43471
 H737 H 0.07951 0.27723 0.34258
 H738 H 0.11753 0.25031 0.37260
 H739 H 0.08785 0.32091 0.46436
 H740 H 0.06143 0.28685 0.46795
 H741 H 0.05106 0.34847 0.43473
 H742 H 0.02500 0.31408 0.43811
 C743 C 0.06622 0.73104 0.61929
 C744 C 0.05872 0.69988 0.61318
 C745 C 0.07487 0.68464 0.59073
 C746 C 0.09539 0.70145 0.57320
 C747 C 0.09961 0.73386 0.57740
 C748 C 0.08596 0.74767 0.60175
 C749 C 0.06840 0.77724 0.60464
 C750 C 0.04677 0.75898 0.62397
 H751 H 0.07108 0.66006 0.58615
 H752 H 0.10695 0.68947 0.55561
 H753 H 0.05815 0.78505 0.58371
 H754 H 0.08089 0.79565 0.61673
 H755 H 0.02425 0.75614 0.61409
 H756 H 0.04687 0.76686 0.64719
 C757 C 0.92334 0.68424 0.40496
 C758 C 0.92960 0.69419 0.37631
 C759 C 0.91189 0.71855 0.36464
 C760 C 0.89137 0.73467 0.38258
 C761 C 0.88866 0.72713 0.41255
 C762 C 0.90354 0.70045 0.42273
 C763 C 0.92204 0.69514 0.44948
 C764 C 0.94378 0.67735 0.42998
 H765 H 0.91487 0.72613 0.34215
 H766 H 0.87902 0.75424 0.37351
 H767 H 0.91055 0.67988 0.46577
 H768 H 0.93172 0.71705 0.45854
 H769 H 0.94478 0.65188 0.43506
 H770 H 0.96584 0.68912 0.42764
 C771 C 0.94036 0.27074 0.62213
 C772 C 0.95079 0.30047 0.61389
 C773 C 0.94134 0.31241 0.58652
 C774 C 0.91946 0.29648 0.57000
 C775 C 0.90685 0.26841 0.58058
 C776 C 0.91902 0.25505 0.60580
 C777 C 0.90381 0.24248 0.63249
 C778 C 0.92718 0.25971 0.65046
 H779 H 0.94980 0.33461 0.57849
 H780 H 0.91155 0.30669 0.54969
 H781 H 0.90567 0.21655 0.63411
 H782 H 0.88087 0.25195 0.63536
 H783 H 0.94245 0.24369 0.66247
 H784 H 0.91780 0.27920 0.66376
 C785 C 0.41406 0.07693 0.30793
 C786 C 0.38490 0.06854 0.30015
 C787 C 0.37202 0.08421 0.27599
 C788 C 0.38930 0.10454 0.25840
 C789 C 0.41987 0.10905 0.26428
 C790 C 0.43119 0.09650 0.29035
 C791 C 0.45912 0.07865 0.29667
 C792 C 0.44029 0.05715 0.31594
 H793 H 0.34906 0.07971 0.26987
 H794 H 0.37924 0.11529 0.23929
 H795 H 0.47546 0.09280 0.30931
 H796 H 0.46840 0.06650 0.27717
 H797 H 0.44585 0.05895 0.33962
 H798 H 0.43849 0.03283 0.30736
 C799 C 0.61834 0.06216 0.73096
 C800 C 0.60817 0.05316 0.70324
 C801 C 0.57928 0.06290 0.69497
 C802 C 0.56293 0.08388 0.71267
 C803 C 0.57515 0.09566 0.73900
 C804 C 0.60228 0.08278 0.74834
 C805 C 0.62990 0.09870 0.75895
 C806 C 0.64752 0.07611 0.73987
 H807 H 0.56972 0.05526 0.67439
 H808 H 0.54110 0.09139 0.70534
 H809 H 0.63356 0.09495 0.78280
 H810 H 0.63146 0.12350 0.75151
 H811 H 0.66129 0.05937 0.75276
 H812 H 0.65932 0.08778 0.72134
 C813 C 0.37215 0.91665 0.71391
 C814 C 0.38674 0.93566 0.69333
 C815 C 0.41780 0.93148 0.68979
 C816 C 0.43386 0.91192 0.70909
 C817 C 0.41904 0.89562 0.73181
 C818 C 0.38785 0.89684 0.73240
 C819 C 0.36722 0.90287 0.75748
 C820 C 0.35001 0.92468 0.73722
 H821 H 0.42991 0.94466 0.67329
 H822 H 0.45789 0.91034 0.70685
 H823 H 0.37837 0.91523 0.77592
 H824 H 0.35440 0.88157 0.76380
 H825 H 0.35119 0.94970 0.74393
 H826 H 0.32726 0.91595 0.73194
 C827 C 0.59294 0.93173 0.30854
 C828 C 0.62054 0.94440 0.30030
 C829 C 0.63431 0.93218 0.27493
 C830 C 0.61907 0.91083 0.25681
 C831 C 0.58972 0.90119 0.26366
 C832 C 0.57794 0.91064 0.29071
 C833 C 0.54826 0.92465 0.29774
 C834 C 0.56469 0.94781 0.31723
 H835 H 0.65640 0.93990 0.26846
 H836 H 0.62995 0.90269 0.23703
 H837 H 0.53376 0.90818 0.31023
 H838 H 0.53755 0.93577 0.27835
 H839 H 0.55961 0.94469 0.34093
 H840 H 0.56358 0.97241 0.30915
 C841 C 0.40831 0.30724 0.91988
 C842 C 0.38031 0.29811 0.93062
 C843 C 0.36517 0.27410 0.91545
 C844 C 0.37949 0.25725 0.89295
 C845 C 0.40936 0.26391 0.88520
 C846 C 0.42247 0.29054 0.89775
 C847 C 0.45244 0.29451 0.91153
 C848 C 0.43694 0.31278 0.93578
 H849 H 0.34281 0.26722 0.92188
 H850 H 0.36761 0.23814 0.88262
 H851 H 0.46758 0.30923 0.89791
 H852 H 0.46215 0.27192 0.91911
 H853 H 0.44318 0.33801 0.93608
 H854 H 0.43766 0.30082 0.95746
 C855 C 0.60050 0.69646 0.91637
 C856 C 0.62199 0.71152 0.93359
 C857 C 0.62909 0.74290 0.92656
 C858 C 0.61233 0.75943 0.90552
 C859 C 0.58851 0.74474 0.89075
 C860 C 0.58440 0.71259 0.89524
 C861 C 0.55651 0.69468 0.90171
 C862 C 0.57412 0.67706 0.92498
 H863 H 0.64647 0.75520 0.93836
 H864 H 0.61734 0.78391 0.90151
 H865 H 0.54971 0.67964 0.88299
 H866 H 0.53850 0.70969 0.91089
 H867 H 0.57735 0.65186 0.91969
 H868 H 0.56636 0.68191 0.94771
 C869 C 0.41839 0.69503 0.07838
 C870 C 0.38887 0.70291 0.07155
 C871 C 0.37446 0.72497 0.08968
 C872 C 0.39057 0.74161 0.11104
 C873 C 0.42153 0.73678 0.11456
 C874 C 0.43434 0.71161 0.09937
 C875 C 0.46250 0.71016 0.08188
 C876 C 0.44505 0.69206 0.05888
 H877 H 0.35115 0.73063 0.08635
 H878 H 0.37908 0.75939 0.12364
 H879 H 0.47987 0.69577 0.09290
 H880 H 0.47010 0.73363 0.07424
 H881 H 0.45246 0.66732 0.05663
 H882 H 0.44246 0.70504 0.03785
 C883 C 0.58680 0.30945 0.07288
 C884 C 0.61577 0.30204 0.06357
 C885 C 0.63168 0.27948 0.08000
 C886 C 0.61741 0.26232 0.10246
 C887 C 0.58697 0.26722 0.10858
 C888 C 0.57269 0.29233 0.09478
 C889 C 0.54314 0.29399 0.07981
 C890 C 0.55859 0.31274 0.05573
 H891 H 0.65460 0.27389 0.07451
 H892 H 0.62955 0.24395 0.11371
 H893 H 0.52666 0.30798 0.09249
 H894 H 0.53499 0.27074 0.07230
 H895 H 0.55094 0.33749 0.05454
 H896 H 0.55948 0.30029 0.03434
 C897 C 0.26606 0.06114 0.60155
 C898 C 0.29667 0.05722 0.59795
 C899 C 0.31058 0.07715 0.57705
 C900 C 0.29387 0.10044 0.56190
 C901 C 0.26278 0.10383 0.56681
 C902 C 0.25000 0.08283 0.58656
 C903 C 0.22186 0.07566 0.60269
 C904 C 0.24006 0.05090 0.61960
 H905 H 0.33435 0.07539 0.57300
 H906 H 0.30523 0.11572 0.54649
 H907 H 0.20446 0.06541 0.58824
 H908 H 0.21443 0.09557 0.61659
 H909 H 0.23332 0.02636 0.61479
 H910 H 0.24296 0.05657 0.64320
 C911 C 0.73573 0.07055 0.39365
 C912 C 0.70683 0.06079 0.40135
 C913 C 0.69591 0.07022 0.42914
 C914 C 0.71218 0.09156 0.44653
 C915 C 0.73952 0.10378 0.43642
 C916 C 0.75167 0.09137 0.41080
 C917 C 0.76506 0.10741 0.38483
 C918 C 0.74749 0.08464 0.36589
 H919 H 0.67431 0.06231 0.43693
 H920 H 0.70279 0.09963 0.46707
 H921 H 0.78961 0.10383 0.38356
 H922 H 0.75759 0.13214 0.38250
 H923 H 0.76196 0.06805 0.35361
 H924 H 0.72977 0.09617 0.35267
 C925 C 0.73899 0.94614 0.60468
 C926 C 0.70786 0.94599 0.60191
 C927 C 0.69544 0.92704 0.57971
 C928 C 0.71349 0.90578 0.56403
 C929 C 0.74437 0.90373 0.56972
 C930 C 0.75683 0.92584 0.58869
 C931 C 0.77803 0.92143 0.61356
 C932 C 0.75843 0.94365 0.63114
 H933 H 0.67160 0.92714 0.57580
 H934 H 0.70316 0.89010 0.54838
 H935 H 0.80048 0.93125 0.60860
 H936 H 0.77800 0.89702 0.62219
 H937 H 0.76964 0.96622 0.63634
 H938 H 0.74702 0.93208 0.64996
 C939 C 0.28018 0.91406 0.37044
 C940 C 0.29858 0.93521 0.38537
 C941 C 0.30138 0.93136 0.41600
 C942 C 0.28306 0.90986 0.43120
 C943 C 0.26214 0.89132 0.41596
 C944 C 0.26272 0.89240 0.38532
 C945 C 0.23769 0.89548 0.36396
 C946 C 0.25681 0.91933 0.34765
 H947 H 0.31627 0.94629 0.42841
 H948 H 0.28444 0.90860 0.45489
 H949 H 0.21727 0.90577 0.37395
 H950 H 0.23403 0.87353 0.35138
 H951 H 0.24744 0.94346 0.34821
 H952 H 0.26409 0.91111 0.32565
 C953 C 0.07443 0.37749 0.74153
 C954 C 0.06111 0.39235 0.71750
 C955 C 0.06577 0.42492 0.71434
 C956 C 0.08584 0.44087 0.73285
 C957 C 0.10204 0.42444 0.75442
 C958 C 0.09459 0.39302 0.75937
 C959 C 0.11356 0.36449 0.76285
 C960 C 0.09135 0.34744 0.74334
 H961 H 0.05467 0.43790 0.69709
 H962 H 0.08976 0.46568 0.72941
 H963 H 0.11363 0.35568 0.78581
 H964 H 0.13594 0.36683 0.75254
 H965 H 0.07858 0.32891 0.75511
 H966 H 0.10088 0.34025 0.72184
 C967 C 0.06774 0.58577 0.29039
 C968 C 0.05995 0.61701 0.28507
 C969 C 0.07356 0.63203 0.26093
 C970 C 0.09622 0.61694 0.24476
 C971 C 0.10589 0.58636 0.25221
 C972 C 0.09016 0.57092 0.27465
 C973 C 0.10055 0.55371 0.30142
 C974 C 0.07558 0.56963 0.31830
 H975 H 0.06741 0.65577 0.25506
 H976 H 0.10675 0.62966 0.22697
 H977 H 0.12296 0.56134 0.30905
 H978 H 0.09746 0.52793 0.29944
 H979 H 0.08372 0.58608 0.33541
 H980 H 0.05780 0.55312 0.32555
 C981 C 0.91275 0.40406 0.29814
 C982 C 0.92460 0.37463 0.29130
 C983 C 0.91021 0.35716 0.26918
 C984 C 0.88748 0.37077 0.25205
 C985 C 0.87875 0.40219 0.25661
 C986 C 0.89043 0.41746 0.28122
 C987 C 0.90368 0.44944 0.28375
 C988 C 0.92813 0.43481 0.30233
 H989 H 0.91748 0.33359 0.26407
 H990 H 0.87790 0.35721 0.23437
 H991 H 0.88905 0.46567 0.29628
 H992 H 0.91180 0.45863 0.26232
 H993 H 0.92754 0.44261 0.32556
 H994 H 0.95052 0.43565 0.29176
 C995 C 0.93379 0.57806 0.70540
 C996 C 0.94194 0.60904 0.71148
 C997 C 0.92958 0.62287 0.73681
 C998 C 0.90732 0.60725 0.75314
 C999 C 0.89669 0.57745 0.74455
 C1000 C 0.91161 0.56280 0.72120
 C1001 C 0.90076 0.54614 0.69436
 C1002 C 0.92547 0.56259 0.67734
 H1003 H 0.93606 0.64630 0.74333
 H1004 H 0.89749 0.61919 0.77173
 H1005 H 0.87831 0.55387 0.68701
 H1006 H 0.90394 0.52035 0.69586
 H1007 H 0.91703 0.57945 0.66067
 H1008 H 0.94312 0.54632 0.66949
 C1009 C 0.72740 0.63153 0.92039
 C1010 C 0.70400 0.61829 0.93675
 C1011 C 0.69456 0.58777 0.92880
 C1012 C 0.71063 0.57025 0.90787
 C1013 C 0.73586 0.58318 0.89386
 C1014 C 0.74259 0.61461 0.89921
 C1015 C 0.77174 0.62953 0.90668
 C1016 C 0.75510 0.64809 0.92998
 H1017 H 0.67581 0.57673 0.93977
 H1018 H 0.70390 0.54637 0.90326
 H1019 H 0.78038 0.64439 0.88849
 H1020 H 0.78807 0.61256 0.91591
 H1021 H 0.75421 0.67364 0.92520
 H1022 H 0.76175 0.64187 0.95275
 C1023 C 0.30240 0.41803 0.94015
 C1024 C 0.29384 0.38796 0.94938
 C1025 C 0.26576 0.37700 0.93968
 C1026 C 0.24902 0.39414 0.91900
 C1027 C 0.25977 0.42272 0.90726
 C1028 C 0.28613 0.43475 0.91952
 C1029 C 0.31397 0.44818 0.90625
 C1030 C 0.33157 0.43023 0.92926
 H1031 H 0.25719 0.35454 0.94698
 H1032 H 0.22826 0.38416 0.91123
 H1033 H 0.31535 0.47404 0.90894
 H1034 H 0.31869 0.43937 0.88381
 H1035 H 0.34261 0.44573 0.94554
 H1036 H 0.34597 0.41152 0.91990
 C1037 C 0.27786 0.63165 0.07699
 C1038 C 0.30100 0.61755 0.06098
 C1039 C 0.30838 0.58625 0.06835
 C1040 C 0.29070 0.56908 0.08840
 C1041 C 0.26589 0.58312 0.10208
 C1042 C 0.26109 0.61504 0.09731
 C1043 C 0.23305 0.63185 0.08936
 C1044 C 0.25140 0.65007 0.06698
 H1045 H 0.32682 0.57446 0.05764
 H1046 H 0.29588 0.54469 0.09261
 H1047 H 0.22468 0.64666 0.10764
 H1048 H 0.21612 0.61613 0.07930
 H1049 H 0.25351 0.67538 0.07235
 H1050 H 0.24513 0.64489 0.04390
 C1051 C 0.73329 0.38058 0.04488
 C1052 C 0.70371 0.39006 0.03994
 C1053 C 0.69443 0.41837 0.05332
 C1054 C 0.71284 0.43362 0.07392
 C1055 C 0.74115 0.42143 0.08093
 C1056 C 0.75165 0.39612 0.06452
 C1057 C 0.76600 0.36644 0.07453
 C1058 C 0.74584 0.34932 0.05306
 H1059 H 0.67231 0.42770 0.04942
 H1060 H 0.70449 0.45412 0.08524
 H1061 H 0.76104 0.36090 0.09788
 H1062 H 0.79001 0.36541 0.06841
 H1063 H 0.72915 0.33387 0.06398
 H1064 H 0.75828 0.33836 0.03463
 C1065 C 0.92211 0.68304 0.59334
 C1066 C 0.93319 0.69457 0.62000
 C1067 C 0.91896 0.72135 0.63175
 C1068 C 0.89745 0.73789 0.61547
 C1069 C 0.88973 0.72842 0.58683
 C1070 C 0.90098 0.69955 0.57721
 C1071 C 0.91511 0.69096 0.54869
 C1072 C 0.93828 0.67294 0.56628
 H1073 H 0.92529 0.73046 0.65301
 H1074 H 0.88790 0.75888 0.62490
 H1075 H 0.92446 0.71159 0.53685
 H1076 H 0.90050 0.67554 0.53531
 H1077 H 0.96110 0.68311 0.56465
 H1078 H 0.93701 0.64716 0.56295
 C1079 C 0.92906 0.30699 0.41105
 C1080 C 0.93868 0.29482 0.38413
 C1081 C 0.92740 0.26517 0.37605
 C1082 C 0.90508 0.25032 0.39290
 C1083 C 0.89354 0.26426 0.41871
 C1084 C 0.90710 0.29235 0.42778
 C1085 C 0.89415 0.32337 0.43650
 C1086 C 0.91858 0.33907 0.41868
 H1087 H 0.93464 0.25400 0.35595
 H1088 H 0.89607 0.22849 0.38475
 H1089 H 0.89617 0.32775 0.46044
 H1090 H 0.87162 0.32758 0.42708
 H1091 H 0.93504 0.35190 0.43238
 H1092 H 0.91003 0.35224 0.39936
 C1093 C 0.08082 0.27720 0.62933
 C1094 C 0.07340 0.30848 0.62375
 C1095 C 0.09097 0.32472 0.60293
 C1096 C 0.11308 0.30896 0.58649
 C1097 C 0.11764 0.27623 0.58968
 C1098 C 0.10190 0.26148 0.61259
 C1099 C 0.08370 0.23201 0.61268
 C1100 C 0.06082 0.24923 0.63112
 H1101 H 0.08722 0.34941 0.59874
 H1102 H 0.12562 0.32259 0.57075
 H1103 H 0.09463 0.21262 0.62493
 H1104 H 0.07540 0.22568 0.59049
 H1105 H 0.05901 0.23999 0.65387
 H1106 H 0.03917 0.25284 0.61970
 C1107 C 0.06194 0.69338 0.40539
 C1108 C 0.05150 0.70460 0.37840
 C1109 C 0.06141 0.73460 0.36954
 C1110 C 0.08310 0.75090 0.38575
 C1111 C 0.09550 0.73806 0.41163
 C1112 C 0.08345 0.70943 0.42146
 C1113 C 0.09800 0.67928 0.43047
 C1114 C 0.07407 0.66203 0.41337
 H1115 H 0.05343 0.74510 0.34938
 H1116 H 0.09099 0.77306 0.37712
 H1117 H 0.09656 0.67519 0.45452
 H1118 H 0.12055 0.67603 0.42070
 H1119 H 0.05846 0.64856 0.42760
 H1120 H 0.08293 0.64902 0.39412
 C1121 C 0.58833 0.91798 0.68113
 C1122 C 0.61833 0.92494 0.68684
 C1123 C 0.63349 0.90553 0.70698
 C1124 C 0.61775 0.88337 0.72392
 C1125 C 0.58649 0.88027 0.72119
 C1126 C 0.57278 0.89611 0.69789
 C1127 C 0.54489 0.91524 0.69751
 C1128 C 0.56191 0.93923 0.67926
 H1129 H 0.65707 0.90890 0.71112
 H1130 H 0.62972 0.87028 0.74052
 H1131 H 0.53853 0.92394 0.71963
 H1132 H 0.52664 0.90352 0.68518
 H1133 H 0.56550 0.96186 0.69082
 H1134 H 0.55339 0.94138 0.65647
 C1135 C 0.37568 0.92313 0.27612
 C1136 C 0.38759 0.93756 0.30107
 C1137 C 0.41595 0.92744 0.31071
 C1138 C 0.43297 0.90649 0.29360
 C1139 C 0.42169 0.89511 0.26687
 C1140 C 0.39225 0.90224 0.25954
 C1141 C 0.37969 0.91417 0.23137
 C1142 C 0.36154 0.93717 0.24952
 H1143 H 0.42564 0.93693 0.33053
 H1144 H 0.45534 0.90035 0.30049
 H1145 H 0.36573 0.89628 0.22019
 H1146 H 0.39678 0.92569 0.21727
 H1147 H 0.33712 0.93257 0.24870
 H1148 H 0.36814 0.96204 0.24597
 C1149 C 0.59305 0.08526 0.31729
 C1150 C 0.62264 0.07701 0.31098
 C1151 C 0.63755 0.09445 0.28906
 C1152 C 0.62186 0.11598 0.27146
 C1153 C 0.59088 0.12053 0.27532
 C1154 C 0.57759 0.10655 0.29994
 C1155 C 0.54914 0.08851 0.30251
 C1156 C 0.56607 0.06512 0.32142
 H1157 H 0.66087 0.09012 0.28428
 H1158 H 0.63366 0.12770 0.25382
 H1159 H 0.54162 0.07866 0.28120
 H1160 H 0.53183 0.10168 0.31487
 H1161 H 0.56847 0.04168 0.31104
 H1162 H 0.55837 0.06475 0.34460
 C1163 C 0.36727 0.08671 0.70423
 C1164 C 0.38274 0.06566 0.68623
 C1165 C 0.41397 0.06944 0.68386
 C1166 C 0.42921 0.09051 0.70230
 C1167 C 0.41341 0.10875 0.72286
 C1168 C 0.38223 0.10805 0.72180
 C1169 C 0.36005 0.10472 0.74607
 C1170 C 0.34364 0.08129 0.72683
 H1171 H 0.42684 0.05451 0.66941
 H1172 H 0.45337 0.09145 0.70153
 H1173 H 0.34729 0.12670 0.74976
 H1174 H 0.36984 0.09403 0.76613
 H1175 H 0.32142 0.08979 0.71948
 H1176 H 0.34392 0.05702 0.73581
 C1177 C 0.59041 0.71567 0.05899
 C1178 C 0.62124 0.71742 0.05543
 C1179 C 0.63631 0.73903 0.07378
 C1180 C 0.62041 0.75710 0.09477
 C1181 C 0.58897 0.75461 0.09738
 C1182 C 0.57511 0.73361 0.07847
 C1183 C 0.54574 0.71956 0.07073
 C1184 C 0.56304 0.69940 0.04842
 H1185 H 0.66031 0.74169 0.07226
 H1186 H 0.63263 0.77311 0.10871
 H1187 H 0.53043 0.73681 0.06036
 H1188 H 0.53606 0.70579 0.08916
 H1189 H 0.55789 0.70519 0.02520
 H1190 H 0.56310 0.67400 0.05390
 C1191 C 0.38504 0.25838 0.06344
 C1192 C 0.39515 0.28717 0.05252
 C1193 C 0.42416 0.29681 0.06059
 C1194 C 0.44058 0.27983 0.08168
 C1195 C 0.42831 0.25289 0.09522
 C1196 C 0.40117 0.24172 0.08416
 C1197 C 0.37359 0.23159 0.10000
 C1198 C 0.35589 0.24989 0.07729
 H1199 H 0.43365 0.31815 0.05165
 H1200 H 0.46239 0.28841 0.08800
 H1201 H 0.37205 0.24160 0.12245
 H1202 H 0.37001 0.20584 0.09864
 H1203 H 0.34405 0.27053 0.08655
 H1204 H 0.34214 0.23466 0.06288
 C1205 C 0.59700 0.25669 0.94416
 C1206 C 0.59496 0.28945 0.94451
 C1207 C 0.57258 0.30340 0.92708
 C1208 C 0.55618 0.28526 0.90689
 C1209 C 0.56139 0.25278 0.90434
 C1210 C 0.58033 0.23877 0.92485
 C1211 C 0.60508 0.21587 0.92045
 C1212 C 0.62343 0.23556 0.94158
 H1213 H 0.56922 0.32854 0.92748
 H1214 H 0.54056 0.29680 0.89234
 H1215 H 0.61392 0.21606 0.89764
 H1216 H 0.59940 0.19229 0.92928
 H1217 H 0.64291 0.24716 0.93096
 H1218 H 0.62838 0.22326 0.96253
 C1219 C 0.38441 0.74712 0.94056
 C1220 C 0.39457 0.71780 0.95009
 C1221 C 0.42303 0.70811 0.94034
 C1222 C 0.43871 0.72560 0.91901
 C1223 C 0.42629 0.75319 0.90694
 C1224 C 0.39989 0.76438 0.91964
 C1225 C 0.37180 0.77540 0.90541
 C1226 C 0.35484 0.75643 0.92829
 H1227 H 0.43263 0.68637 0.94817
 H1228 H 0.46001 0.71690 0.91130
 H1229 H 0.36915 0.76629 0.88273
 H1230 H 0.36863 0.80111 0.90779
 H1231 H 0.34237 0.73626 0.91889
 H1232 H 0.34188 0.77123 0.94378
 C1233 C 0.69329 0.92194 0.41481
 C1234 C 0.70220 0.93341 0.38736
 C1235 C 0.72602 0.91796 0.37319
 C1236 C 0.74260 0.89475 0.38790
 C1237 C 0.73583 0.88655 0.41718
 C1238 C 0.70970 0.89909 0.42933
 C1239 C 0.70473 0.91407 0.45849
 C1240 C 0.68679 0.93911 0.44259
 H1241 H 0.73281 0.92481 0.35129
 H1242 H 0.76149 0.88430 0.37678
 H1243 H 0.72573 0.92310 0.46837
 H1244 H 0.69089 0.89917 0.47324
 H1245 H 0.69735 0.96271 0.44323
 H1246 H 0.66263 0.93862 0.44822
 C1247 C 0.30899 0.91571 0.57844
 C1248 C 0.30189 0.92503 0.60703
 C1249 C 0.27982 0.90766 0.62207
 C1250 C 0.26278 0.88488 0.60736
 C1251 C 0.26732 0.87903 0.57723
 C1252 C 0.29208 0.89328 0.56389
 C1253 C 0.29431 0.91037 0.53537
 C1254 C 0.31282 0.93492 0.55128
 H1255 H 0.27460 0.91278 0.64476
 H1256 H 0.24503 0.87311 0.61921
 H1257 H 0.27236 0.91931 0.52764
 H1258 H 0.30730 0.89702 0.51879
 H1259 H 0.30164 0.95813 0.55278
 H1260 H 0.33646 0.93566 0.54384
 C1261 C 0.30073 0.07449 0.41368
 C1262 C 0.29285 0.06448 0.38555
 C1263 C 0.26601 0.07620 0.37371
 C1264 C 0.24962 0.09949 0.38850
 C1265 C 0.25965 0.11188 0.41547
 C1266 C 0.28484 0.09775 0.42813
 C1267 C 0.31286 0.11126 0.44081
 C1268 C 0.32998 0.08535 0.42538
 H1269 H 0.25818 0.06826 0.35254
 H1270 H 0.22967 0.10861 0.37820
 H1271 H 0.31348 0.10926 0.46512
 H1272 H 0.31855 0.13476 0.43184
 H1273 H 0.33996 0.06807 0.44077
 H1274 H 0.34523 0.09409 0.40790
 C1275 C 0.69556 0.08040 0.58916
 C1276 C 0.70052 0.07154 0.61828
 C1277 C 0.72387 0.08664 0.63340
 C1278 C 0.73987 0.11140 0.62029
 C1279 C 0.73319 0.12172 0.59157
 C1280 C 0.71132 0.10488 0.57614
 C1281 C 0.68403 0.11586 0.56022
 C1282 C 0.66715 0.08879 0.57420
 H1283 H 0.72941 0.07983 0.65562
 H1284 H 0.75716 0.12283 0.63294
 H1285 H 0.68636 0.11354 0.53605
 H1286 H 0.67591 0.13904 0.56795
 H1287 H 0.66018 0.07062 0.55816
 H1288 H 0.64947 0.09642 0.58978
 C1289 C 0.94084 0.57720 0.28014
 C1290 C 0.94027 0.60999 0.28063
 C1291 C 0.92177 0.62527 0.26008
 C1292 C 0.90187 0.60799 0.24250
 C1293 C 0.90049 0.57501 0.24464
 C1294 C 0.92173 0.56015 0.26233
 C1295 C 0.91792 0.53504 0.28487
 C1296 C 0.93870 0.55387 0.30447
 H1297 H 0.92167 0.65061 0.25852
 H1298 H 0.88705 0.62046 0.22781
 H1299 H 0.92784 0.51250 0.27762
 H1300 H 0.89467 0.53347 0.29336
 H1301 H 0.96037 0.54198 0.30862
 H1302 H 0.92746 0.56348 0.32427
 C1303 C 0.92863 0.41431 0.70009
 C1304 C 0.94244 0.38678 0.70984
 C1305 C 0.93538 0.37615 0.73837
 C1306 C 0.91296 0.39095 0.75497
 C1307 C 0.89678 0.41626 0.74317
 C1308 C 0.90622 0.42862 0.71628
 C1309 C 0.88900 0.43709 0.68941
 C1310 C 0.91362 0.42144 0.67167
 H1311 H 0.94670 0.35603 0.74766
 H1312 H 0.90753 0.38195 0.77657
 H1313 H 0.88792 0.46286 0.68598
 H1314 H 0.86725 0.42466 0.68786
 H1315 H 0.92671 0.43824 0.65811
 H1316 H 0.90612 0.39995 0.66003
 C1317 C 0.07967 0.63107 0.72714
 C1318 C 0.06464 0.61513 0.70505
 C1319 C 0.07348 0.58361 0.70054
 C1320 C 0.09595 0.56956 0.71825
 C1321 C 0.11024 0.58664 0.74098
 C1322 C 0.10103 0.61768 0.74419
 C1323 C 0.10598 0.64701 0.76132
 C1324 C 0.08174 0.66202 0.74198
 H1325 H 0.06274 0.56961 0.68382
 H1326 H 0.10146 0.54518 0.71459
 H1327 H 0.12862 0.65700 0.75765
 H1328 H 0.09906 0.64481 0.78464
 H1329 H 0.09039 0.68063 0.72712
 H1330 H 0.06098 0.66796 0.75414
 C1331 C 0.07050 0.37170 0.26609
 C1332 C 0.05073 0.38728 0.28456
 C1333 C 0.05293 0.42046 0.28471
 C1334 C 0.07424 0.43622 0.26677
 C1335 C 0.09435 0.41916 0.24884
 C1336 C 0.09140 0.38670 0.24959
 C1337 C 0.10391 0.35704 0.23764
 C1338 C 0.08035 0.34000 0.25653
 H1339 H 0.03820 0.43420 0.29846
 H1340 H 0.07535 0.46158 0.26735
 H1341 H 0.12721 0.35282 0.24500
 H1342 H 0.10008 0.35474 0.21366
 H1343 H 0.09009 0.32618 0.27485
 H1344 H 0.06300 0.32773 0.24345
   
