data_POSCAR
  _audit_creation_date              2014-09-24
  _audit_creation_method            'ToBaCCo'
  _symmetry_space_group_name_H-M    'P1'
  _symmetry_Int_Tables_number       1
  _symmetry_cell_setting            triclinic
  loop_
  _symmetry_equiv_pos_as_xyz
 x,y,z
_cell_length_a 55.3322
_cell_length_b 55.2465
_cell_length_c 55.2950
_cell_angle_alpha 90.066000
_cell_angle_beta 90.054400
_cell_angle_gamma 90.086000
loop_
  _atom_site_label
  _atom_site_type_symbol
  _atom_site_fract_x
  _atom_site_fract_y
  _atom_site_fract_z
C1 C 0.30294 0.44750 0.91803
 N2 N 0.29285 0.42767 0.92846
 C3 C 0.30299 0.41739 0.94833
 N4 N 0.32358 0.42708 0.95765
 C5 C 0.33403 0.44688 0.94744
 N6 N 0.32353 0.45693 0.92760
 C7 C 0.44643 0.83510 0.44597
 N8 N 0.45611 0.82507 0.42571
 C9 C 0.44650 0.80471 0.41579
 N10 N 0.42688 0.79435 0.42631
 C11 C 0.41697 0.80402 0.44660
 N12 N 0.42681 0.82441 0.45625
 C13 C 0.94655 0.91715 0.80445
 N14 N 0.95617 0.92700 0.82483
 C15 C 0.94589 0.94663 0.83551
 N16 N 0.92565 0.95634 0.82547
 C17 C 0.91577 0.94672 0.80510
 N18 N 0.92630 0.92708 0.79476
 C19 C 0.44617 -0.08482 0.30357
 N20 N 0.42652 -0.07422 0.29327
 C21 C 0.41667 -0.05387 0.30292
 N22 N 0.42660 -0.04415 0.32320
 C23 C 0.44625 -0.05442 0.33375
 N24 N 0.45587 -0.07475 0.32383
 C25 C 0.80306 0.30232 0.33257
 N26 N 0.82350 0.29279 0.32289
 C27 C 0.83387 0.30281 0.30300
 N28 N 0.82361 0.32270 0.29286
 C29 C 0.80316 0.33249 0.30230
 N30 N 0.79306 0.32223 0.32220
 C31 C -0.19608 0.83430 0.80463
 N32 N -0.17647 0.82370 0.79438
 C33 C -0.16659 0.80344 0.80413
 N34 N -0.17647 0.79389 0.82449
 C35 C -0.19608 0.80424 0.83508
 N36 N -0.20573 0.82448 0.82498
 C37 C 0.94615 0.33479 0.44570
 N38 N 0.92653 0.32411 0.45598
 C39 C 0.91674 0.30366 0.44639
 N40 N 0.92672 0.29392 0.42617
 C41 C 0.94634 0.30427 0.41564
 N42 N 0.95590 0.32469 0.42550
 C43 C 0.44713 0.44733 0.83415
 N44 N 0.42731 0.45748 0.82375
 C45 C 0.41760 0.44808 0.80321
 N46 N 0.42785 0.42819 0.79307
 C47 C 0.44770 0.41782 0.80312
 N48 N 0.45717 0.42747 0.82367
 C49 C 0.80623 0.91409 0.94486
 N50 N 0.82639 0.92429 0.95463
 C51 C 0.83653 0.94444 0.94478
 N52 N 0.82617 0.95439 0.92482
 C53 C 0.80599 0.94452 0.91480
 N54 N 0.79620 0.92437 0.92491
 C55 C 0.30325 0.83383 0.30241
 N56 N 0.29316 0.82351 0.32232
 C57 C 0.30310 0.80356 0.33265
 N58 N 0.32349 0.79396 0.32293
 C59 C 0.33385 0.80395 0.30303
 N60 N 0.32364 0.82389 0.29294
 C61 C 0.80222 0.41773 0.44783
 N62 N 0.82270 0.42752 0.45727
 C63 C 0.83299 0.44741 0.44714
 N64 N 0.82264 0.45742 0.42725
 C65 C 0.80216 0.44787 0.41756
 N66 N 0.79213 0.42796 0.42791
 C67 C 0.94607 0.83525 -0.05423
 N68 N 0.92591 0.82507 -0.04453
 C69 C 0.91603 0.80475 -0.05426
 N70 N 0.92649 0.79459 -0.07402
 C71 C 0.94668 0.80442 -0.08404
 N72 N 0.95630 0.82475 -0.07399
 C73 C 0.30132 0.33150 0.80188
 N74 N 0.29147 0.32143 0.82201
 C75 C 0.30136 0.30138 0.83220
 N76 N 0.32144 0.29150 0.82212
 C77 C 0.33154 0.30131 0.80199
 N78 N 0.32141 0.32136 0.79205
 C79 C 0.16671 0.55362 0.55360
 N80 N 0.17653 0.54392 0.57393
 C81 C 0.19616 0.55422 0.58458
 N82 N 0.20588 0.57454 0.57473
 C83 C 0.19629 0.58450 0.55442
 N84 N 0.17666 0.57395 0.54403
 C85 C 0.58196 0.69850 0.05118
 N86 N 0.57172 0.67840 0.04132
 C87 C 0.55160 0.66836 0.05123
 N88 N 0.54184 0.67855 0.07134
 C89 C 0.55183 0.69864 0.08145
 N90 N 0.57194 0.70843 0.07130
 C91 C 0.69600 0.19673 0.66622
 N92 N 0.67569 0.20633 0.67611
 C93 C 0.66577 0.19661 0.69637
 N94 N 0.67634 0.17698 0.70667
 C95 C 0.69666 0.16715 0.69704
 N96 N 0.70632 0.17709 0.67677
 C97 C 1.08458 0.05267 0.19653
 N98 N 1.07425 0.04257 0.17659
 C99 C 1.05372 0.05191 0.16680
 N100 N 1.04352 0.07167 0.17730
 C101 C 1.05349 0.08201 0.19726
 N102 N 1.07403 0.07243 0.20670
 C103 C 0.05287 0.16625 1.05340
 N104 N 0.04296 0.17663 1.07338
 C105 C 0.05303 0.19660 1.08371
 N106 N 0.07336 0.20618 1.07374
 C107 C 0.08354 0.19613 1.05377
 N108 N 0.07321 0.17617 1.04376
 C109 C 0.16499 0.69533 0.69535
 N110 N 0.17508 0.70523 0.67527
 C111 C 0.19514 0.69536 0.66512
 N112 N 0.20501 0.67526 0.67521
 C113 C 0.19516 0.66511 0.69529
 N114 N 0.17511 0.67523 0.70520
 C115 C 1.19609 0.16447 0.19505
 N116 N 1.20569 0.17454 0.17477
 C117 C 1.19604 0.19487 0.16486
 N118 N 1.17647 0.20516 0.17558
 C119 C 1.16664 0.19545 0.19588
 N120 N 1.17652 0.17510 0.20544
 C121 C 0.66738 1.05337 0.55264
 N122 N 0.67773 1.04320 0.57246
 C123 C 0.69764 1.05324 0.58281
 N124 N 0.70708 1.07382 0.57323
 C125 C 0.69697 1.08434 0.55343
 N126 N 0.67708 1.07394 0.54330
 C127 C 0.55271 0.55222 0.16764
 N128 N 0.54263 0.57212 0.17794
 C129 C 0.55267 0.58251 0.19785
 N130 N 0.57317 0.57285 0.20734
 C131 C 0.58350 0.55295 0.19727
 N132 N 0.57318 0.54281 0.17738
 C133 C 0.66765 0.69767 0.19749
 N134 N 0.67739 0.67717 0.20691
 C135 C 0.69728 0.66690 0.19681
 N136 N 0.70734 0.67732 0.17697
 C137 C 0.69786 0.69781 0.16730
 N138 N 0.67795 0.70781 0.17763
 C139 C 0.16579 0.05314 1.05409
 N140 N 0.17577 0.04343 1.07436
 C141 C 0.19557 0.05357 1.08490
 N142 N 0.20538 0.07376 1.07483
 C143 C 0.19573 0.08374 1.05458
 N144 N 0.17592 0.07335 1.04438
 C145 C 0.58386 0.19684 0.55388
 N146 N 0.57401 0.20656 0.57419
 C147 C 0.55366 0.19697 0.58406
 N148 N 0.54325 0.17735 0.57346
 C149 C 0.55284 0.16742 0.55315
 N150 N 0.57320 0.17723 0.54354
 C151 C 0.08425 0.55408 0.69642
 N152 N 0.07429 0.57437 0.70606
 C153 C 0.05409 0.58432 0.69626
 N154 N 0.04392 0.57379 0.67649
 C155 C 0.05362 0.55348 0.66661
 N156 N 0.07383 0.54380 0.67665
 C157 C 0.66750 0.55229 0.05220
 N158 N 0.67778 0.57222 0.04214
 C159 C 0.69773 0.58254 0.05216
 N160 N 0.70727 0.57279 0.07259
 C161 C 0.69721 0.55287 0.08291
 N162 N 0.67729 0.54279 0.07263
 C163 C 0.05427 0.69639 0.58449
 N164 N 0.04396 0.67669 0.57392
 C165 C 0.05359 0.66680 0.55359
 N166 N 0.07387 0.67674 0.54393
 C167 C 0.08443 0.69643 0.55425
 N168 N 0.07454 0.70609 0.57456
 C169 C 0.55278 1.05304 0.66620
 N170 N 0.57266 1.04302 0.67664
 C171 C 0.58281 1.05300 0.69671
 N172 N 0.57293 1.07335 0.70631
 C173 C 0.55306 1.08363 0.69620
 N174 N 0.54315 1.07339 0.67615
 C175 C 0.44687 0.33388 0.94739
 N176 N 0.45705 0.32339 0.92761
 C177 C 0.44769 0.30278 0.91794
 N178 N 0.42781 0.29267 0.92821
 C179 C 0.41740 0.30281 0.94802
 N180 N 0.42701 0.32342 0.95743
 C181 C 0.94621 0.44549 0.33477
 N182 N 0.92661 0.45584 0.32412
 C183 C 0.91675 0.44626 0.30373
 N184 N 0.92663 0.42597 0.29399
 C185 C 0.94624 0.41538 0.30429
 N186 N 0.95587 0.42523 0.32467
 C187 C 0.30338 0.94810 0.41697
 N188 N 0.29323 0.92831 0.42742
 C189 C 0.30333 0.91803 0.44730
 N190 N 0.32393 0.92768 0.45663
 C191 C 0.33444 0.94745 0.44641
 N192 N 0.32400 0.95750 0.42654
 O193 O 0.25162 0.46925 0.81489
 O194 O 0.20916 0.47114 0.80604
 O195 O 0.28035 0.43540 0.75166
 O196 O 0.28057 0.44221 0.71178
 O197 O 0.31436 0.49878 0.78138
 O198 O 0.30543 0.54116 0.77938
 O199 O 0.21859 0.50195 0.68730
 O200 O 0.22285 0.45968 0.69416
 O201 O 0.18680 0.53101 0.74851
 O202 O 0.19538 0.52920 0.79238
 O203 O 0.24795 0.56309 0.71924
 O204 O 0.29192 0.55456 0.72140
 O205 O 0.24777 0.53091 0.68730
 O206 O 0.29196 0.52842 0.69590
 O207 O 0.21892 0.56316 0.74823
 O208 O 0.22153 0.55458 0.79260
 O209 O 0.18678 0.50214 0.71924
 O210 O 0.19455 0.45842 0.72226
 O211 O 0.28058 0.49849 0.81499
 O212 O 0.27828 0.54121 0.80608
 O213 O 0.31433 0.46945 0.75251
 O214 O 0.30513 0.47344 0.70917
 O215 O 0.25158 0.43549 0.78099
 O216 O 0.20900 0.44440 0.77892
 Zr217 Zr 0.23689 0.47059 0.77977
 O218 O 0.21365 0.49197 0.75856
 Zr219 Zr 0.27940 0.47067 0.73738
 O220 O 0.25785 0.49177 0.71407
 Zr221 Zr 0.27925 0.51327 0.77995
 O222 O 0.25805 0.53646 0.75849
 Zr223 Zr 0.22113 0.48615 0.72177
 O224 O 0.24256 0.46253 0.74294
 Zr225 Zr 0.22133 0.52876 0.76427
 O226 O 0.24252 0.50742 0.78792
 Zr227 Zr 0.26374 0.52859 0.72174
 O228 O 0.28736 0.50749 0.74322
 O229 O 0.27344 0.47662 0.77395
 O230 O 0.22701 0.52293 0.72751
 C231 C 0.26858 0.48140 0.82526
 C232 C 0.26837 0.42509 0.76873
 C233 C 0.32466 0.48170 0.76941
 C234 C 0.23026 0.51938 0.67724
 C235 C 0.17673 0.51949 0.73098
 C236 C 0.23049 0.57317 0.73075
 H237 H 0.19670 0.48811 0.76262
 H238 H 0.26201 0.55347 0.76236
 H239 H 0.28372 0.46624 0.78427
 H240 H 0.26146 0.48774 0.69703
 H241 H 0.23061 0.44523 0.70134
 H242 H 0.27092 0.44733 0.69762
 H243 H 0.23544 0.56554 0.79003
 H244 H 0.26231 0.54012 0.81407
 H245 H 0.18430 0.46071 0.73672
 H246 H 0.20988 0.43651 0.76286
 H247 H 0.28992 0.56507 0.73575
 H248 H 0.31311 0.54054 0.76323
 H249 H 0.20983 0.48729 0.81378
 H250 H 0.18518 0.51458 0.79064
 H251 H 0.31422 0.48865 0.71186
 H252 H 0.28947 0.51432 0.68515
 O253 O 0.31445 -0.00162 0.27990
 O254 O 0.30566 0.04095 0.27775
 O255 O 0.25153 -0.03032 0.31401
 O256 O 0.21153 -0.03051 0.30734
 O257 O 0.28087 -0.06458 0.25087
 O258 O 0.27846 -0.05587 0.20841
 O259 O 0.18681 0.03118 0.24751
 O260 O 0.19392 0.02713 0.28969
 O261 O 0.24785 0.06300 0.21805
 O262 O 0.29182 0.05443 0.21997
 O263 O 0.21849 0.00164 0.18632
 O264 O 0.22057 -0.04237 0.19506
 O265 O 0.18664 0.00191 0.21863
 O266 O 0.19519 -0.04232 0.22122
 O267 O 0.24756 0.03068 0.18609
 O268 O 0.29179 0.02831 0.19455
 O269 O 0.21875 0.06310 0.24699
 O270 O 0.22205 0.05548 0.29074
 O271 O 0.31438 -0.03077 0.25083
 O272 O 0.30527 -0.02862 0.20813
 O273 O 0.25216 -0.06446 0.28025
 O274 O 0.20882 -0.05540 0.27626
 O275 O 0.28087 -0.00146 0.31367
 O276 O 0.27871 0.04113 0.30464
 Zr277 Zr 0.27939 0.01313 0.27857
 O278 O 0.25811 0.03630 0.25719
 Zr279 Zr 0.23699 -0.02952 0.27882
 O280 O 0.21362 -0.00804 0.25770
 Zr281 Zr 0.27930 -0.02951 0.23614
 O282 O 0.25778 -0.00835 0.21294
 Zr283 Zr 0.22136 0.02877 0.26314
 O284 O 0.24262 0.00743 0.28676
 Zr285 Zr 0.26364 0.02846 0.22046
 O286 O 0.28735 0.00732 0.24178
 Zr287 Zr 0.22107 -0.01405 0.22089
 O288 O 0.24260 -0.03762 0.24204
 O289 O 0.27349 -0.02351 0.27272
 O290 O 0.22692 0.02276 0.22639
 C291 C 0.32471 -0.01870 0.26787
 C292 C 0.26872 -0.01830 0.32416
 C293 C 0.26905 -0.07482 0.26809
 C294 C 0.17664 0.01944 0.23017
 C295 C 0.23038 0.07311 0.22954
 C296 C 0.23005 0.01906 0.17615
 H297 H 0.26219 0.05330 0.26096
 H298 H 0.26157 -0.01238 0.19595
 H299 H 0.28385 -0.03373 0.28311
 H300 H 0.19661 -0.01167 0.26178
 H301 H 0.20115 0.01937 0.30412
 H302 H 0.19730 -0.02103 0.30213
 H303 H 0.28936 0.01414 0.18387
 H304 H 0.31333 -0.01264 0.20917
 H305 H 0.23643 0.06583 0.28830
 H306 H 0.26269 0.04027 0.31256
 H307 H 0.23492 -0.04044 0.18459
 H308 H 0.26236 -0.06364 0.20923
 H309 H 0.31336 0.04014 0.26162
 H310 H 0.28996 0.06490 0.23436
 H311 H 0.21142 -0.06453 0.26108
 H312 H 0.18461 -0.03987 0.23541
 O313 O 0.56448 0.71974 0.24834
 O314 O 0.55561 0.72181 0.29079
 O315 O 0.50142 0.68576 0.21941
 O316 O 0.46149 0.69249 0.21925
 O317 O 0.53098 0.74900 0.18537
 O318 O 0.52900 0.79141 0.19427
 O319 O 0.43697 0.75242 0.28107
 O320 O 0.44386 0.71018 0.27688
 O321 O 0.49815 0.78168 0.31298
 O322 O 0.54206 0.77980 0.30439
 O323 O 0.46892 0.81359 0.25170
 O324 O 0.47099 0.80487 0.20774
 O325 O 0.43693 0.78131 0.25188
 O326 O 0.44555 0.77871 0.20767
 O327 O 0.49791 0.81374 0.28078
 O328 O 0.54215 0.80522 0.27835
 O329 O 0.46892 0.75277 0.31299
 O330 O 0.47195 0.70905 0.30523
 O331 O 0.56461 0.74883 0.21928
 O332 O 0.55568 0.79158 0.22151
 O333 O 0.50211 0.71967 0.18540
 O334 O 0.45885 0.72361 0.19455
 O335 O 0.53071 0.68600 0.24828
 O336 O 0.52852 0.69501 0.29088
 Zr337 Zr 0.52939 0.72112 0.26298
 O338 O 0.50820 0.74257 0.28617
 Zr339 Zr 0.48704 0.72100 0.22035
 O340 O 0.46374 0.74217 0.24186
 Zr341 Zr 0.52957 0.76362 0.22051
 O342 O 0.50811 0.78688 0.24168
 Zr343 Zr 0.47143 0.73669 0.27862
 O344 O 0.49260 0.71300 0.25723
 Zr345 Zr 0.51390 0.77933 0.27845
 O346 O 0.53753 0.75793 0.25729
 Zr347 Zr 0.47137 0.77900 0.23595
 O348 O 0.49285 0.75781 0.21237
 O349 O 0.52358 0.72700 0.22637
 O350 O 0.47715 0.77346 0.27272
 C351 C 0.57485 0.73179 0.23137
 C352 C 0.51852 0.67554 0.23142
 C353 C 0.51899 0.73189 0.17505
 C354 C 0.42688 0.76978 0.26937
 C355 C 0.48065 0.77017 0.32305
 C356 C 0.48047 0.82374 0.26916
 H357 H 0.51226 0.73877 0.30314
 H358 H 0.51198 0.80388 0.23770
 H359 H 0.53390 0.71661 0.21610
 H360 H 0.44672 0.73811 0.23821
 H361 H 0.45104 0.69571 0.26913
 H362 H 0.44729 0.69769 0.22878
 H363 H 0.53972 0.81597 0.26426
 H364 H 0.56368 0.79053 0.23749
 H365 H 0.48641 0.71137 0.31549
 H366 H 0.51249 0.68707 0.28992
 H367 H 0.48538 0.81533 0.20970
 H368 H 0.51284 0.79077 0.18659
 H369 H 0.56336 0.73795 0.29010
 H370 H 0.54020 0.76534 0.31475
 H371 H 0.46146 0.73884 0.18549
 H372 H 0.43482 0.76460 0.21015
 O373 O -0.03061 0.81469 0.75223
 O374 O -0.02877 0.80587 0.70973
 O375 O -0.06429 0.75140 0.78107
 O376 O -0.05748 0.71144 0.78114
 O377 O -0.00124 0.78135 0.81493
 O378 O 0.04119 0.77912 0.80607
 O379 O 0.00205 0.68708 0.71902
 O380 O -0.04010 0.69390 0.72329
 O381 O 0.03110 0.74836 0.68725
 O382 O 0.02915 0.79236 0.69592
 O383 O 0.06317 0.71911 0.74836
 O384 O 0.05476 0.72111 0.79228
 O385 O 0.03102 0.68708 0.74815
 O386 O 0.02854 0.69571 0.79246
 O387 O 0.06319 0.74817 0.71935
 O388 O 0.05462 0.79250 0.72196
 O389 O 0.00229 0.71904 0.68722
 O390 O -0.04144 0.72213 0.69510
 O391 O -0.00139 0.81484 0.78118
 O392 O 0.04130 0.80592 0.77886
 O393 O -0.03045 0.75237 0.81490
 O394 O -0.02622 0.70890 0.80573
 O395 O -0.06425 0.78080 0.75231
 O396 O -0.05545 0.77865 0.70962
 Zr397 Zr -0.02925 0.77956 0.73746
 O398 O -0.00790 0.75840 0.71415
 Zr399 Zr -0.02909 0.73712 0.77999
 O400 O -0.00805 0.71384 0.75834
 Zr401 Zr 0.01338 0.77977 0.77984
 O402 O 0.03654 0.75834 0.75855
 Zr403 Zr -0.01369 0.72157 0.72161
 O404 O -0.03727 0.74269 0.74314
 Zr405 Zr 0.02882 0.76415 0.72181
 O406 O 0.00751 0.78777 0.74308
 Zr407 Zr 0.02872 0.72154 0.76421
 O408 O 0.00767 0.74300 0.78792
 O409 O -0.02318 0.77371 0.77401
 O410 O 0.02303 0.72735 0.72746
 C411 C -0.01851 0.82507 0.76922
 C412 C -0.07456 0.76856 0.76919
 C413 C -0.01837 0.76943 0.82520
 C414 C 0.01947 0.67702 0.73064
 C415 C 0.01963 0.73079 0.67716
 C416 C 0.07321 0.73068 0.73089
 H417 H -0.01176 0.76247 0.69719
 H418 H 0.05352 0.76224 0.76249
 H419 H -0.03355 0.78405 0.78429
 H420 H -0.01205 0.69678 0.76195
 H421 H -0.05449 0.70103 0.73118
 H422 H -0.05232 0.69725 0.77154
 H423 H 0.06548 0.79001 0.73595
 H424 H 0.04019 0.81395 0.76291
 H425 H -0.03905 0.73650 0.68473
 H426 H -0.06335 0.76259 0.71056
 H427 H 0.06501 0.73568 0.79049
 H428 H 0.04043 0.76300 0.81382
 H429 H -0.01264 0.81361 0.71036
 H430 H 0.01468 0.79046 0.68558
 H431 H -0.01111 0.71173 0.81492
 H432 H 0.01450 0.68488 0.78993
 O433 O 0.06449 0.03066 0.00225
 O434 O 0.05560 0.02888 -0.04027
 O435 O 0.00152 0.06429 0.03137
 O436 O -0.03844 0.05746 0.03147
 O437 O 0.03120 0.00093 0.06484
 O438 O 0.02890 -0.04151 0.05567
 O439 O -0.06300 -0.00216 -0.03106
 O440 O -0.05625 0.04011 -0.02627
 O441 O -0.00210 -0.03092 -0.06297
 O442 O 0.04193 -0.02892 -0.05439
 O443 O -0.03107 -0.06336 -0.00191
 O444 O -0.02903 -0.05489 0.04211
 O445 O -0.06300 -0.03131 -0.00213
 O446 O -0.05454 -0.02882 0.04222
 O447 O -0.00217 -0.06324 -0.03102
 O448 O 0.04203 -0.05463 -0.02861
 O449 O -0.03123 -0.00200 -0.06276
 O450 O -0.02804 0.04175 -0.05454
 O451 O 0.06461 0.00131 0.03105
 O452 O 0.05564 -0.04143 0.02844
 O453 O 0.00235 0.03018 0.06508
 O454 O -0.04101 0.02608 0.05595
 O455 O 0.03076 0.06431 0.00250
 O456 O 0.02854 0.05564 -0.04018
 Zr457 Zr 0.02940 0.02931 -0.01248
 O458 O 0.00813 0.00803 -0.03587
 Zr459 Zr -0.01290 0.02902 0.03015
 O460 O -0.03626 0.00799 0.00844
 Zr461 Zr 0.02957 -0.01353 0.02964
 O462 O 0.00807 -0.03664 0.00826
 Zr463 Zr -0.02861 0.01379 -0.02826
 O464 O -0.00738 0.03733 -0.00667
 Zr465 Zr 0.01381 -0.02878 -0.02845
 O466 O 0.03750 -0.00753 -0.00709
 Zr467 Zr -0.02865 -0.02886 0.01405
 O468 O -0.00712 -0.00783 0.03783
 O469 O 0.02361 0.02312 0.02406
 O470 O -0.02289 -0.02301 -0.02266
 C471 C 0.07484 0.01851 0.01918
 C472 C 0.01863 0.07462 0.01946
 C473 C 0.01934 0.01800 0.07527
 C474 C -0.07301 -0.01977 -0.01964
 C475 C -0.01961 -0.01935 -0.07295
 C476 C -0.01957 -0.07337 -0.01944
 H477 H 0.01216 0.01198 -0.05281
 H478 H 0.01193 -0.05366 0.01211
 H479 H 0.03396 0.03347 0.03439
 H480 H -0.05329 0.01195 0.01208
 H481 H -0.04910 0.05454 -0.01837
 H482 H -0.05269 0.05227 0.02198
 H483 H 0.03970 -0.06540 -0.01452
 H484 H 0.06364 -0.04023 0.01248
 H485 H -0.01373 0.03941 -0.06497
 H486 H 0.01253 0.06355 -0.03918
 H487 H -0.01461 -0.06526 0.04015
 H488 H 0.01284 -0.04077 0.06351
 H489 H 0.06331 0.01274 -0.03970
 H490 H 0.03995 -0.01446 -0.06473
 H491 H -0.03835 0.01079 0.06488
 H492 H -0.06532 -0.01477 0.03974
 O493 O 0.06442 0.53059 0.50127
 O494 O 0.05560 0.52865 0.45878
 O495 O 0.00137 0.56435 0.53016
 O496 O -0.03858 0.55757 0.53007
 O497 O 0.03092 0.50125 0.56402
 O498 O 0.02872 0.45876 0.55510
 O499 O -0.06316 0.49795 0.46828
 O500 O -0.05604 0.54012 0.47233
 O501 O -0.00202 0.46858 0.43633
 O502 O 0.04191 0.47059 0.44494
 O503 O -0.03129 0.43660 0.49742
 O504 O -0.02923 0.44512 0.54134
 O505 O -0.06323 0.46896 0.49738
 O506 O -0.05451 0.47132 0.54157
 O507 O -0.00221 0.43651 0.46847
 O508 O 0.04206 0.44519 0.47101
 O509 O -0.03125 0.49740 0.43632
 O510 O -0.02801 0.54118 0.44404
 O511 O 0.06446 0.50142 0.53025
 O512 O 0.05549 0.45866 0.52794
 O513 O 0.00207 0.53051 0.56396
 O514 O -0.04125 0.52637 0.55476
 O515 O 0.03072 0.56427 0.50139
 O516 O 0.02847 0.55538 0.45869
 Zr517 Zr 0.02934 0.52919 0.48652
 O518 O 0.00815 0.50774 0.46321
 Zr519 Zr -0.01305 0.52912 0.52902
 O520 O -0.03633 0.50797 0.50741
 Zr521 Zr 0.02942 0.48658 0.52889
 O522 O 0.00796 0.46333 0.50761
 Zr523 Zr -0.02861 0.51355 0.47068
 O524 O -0.00745 0.53723 0.49218
 Zr525 Zr 0.01378 0.47097 0.47087
 O526 O 0.03742 0.49238 0.49214
 Zr527 Zr -0.02876 0.47115 0.51327
 O528 O -0.00729 0.49232 0.53697
 O529 O 0.02347 0.52319 0.52307
 O530 O -0.02296 0.47677 0.47652
 C531 C 0.07473 0.51853 0.51828
 C532 C 0.01855 0.57462 0.51830
 C533 C 0.01901 0.51839 0.57429
 C534 C -0.07331 0.48061 0.47999
 C535 C -0.01956 0.48002 0.42626
 C536 C -0.01970 0.42647 0.48001
 H537 H 0.01222 0.51156 0.44625
 H538 H 0.01182 0.44633 0.51156
 H539 H 0.03381 0.53358 0.53338
 H540 H -0.05334 0.51200 0.51105
 H541 H -0.04882 0.55455 0.48017
 H542 H -0.05278 0.55235 0.52052
 H543 H 0.03958 0.43437 0.48502
 H544 H 0.06350 0.45975 0.51198
 H545 H -0.01358 0.53883 0.43377
 H546 H 0.01246 0.56328 0.45964
 H547 H -0.01475 0.43482 0.53951
 H548 H 0.01261 0.45947 0.56282
 H549 H 0.06326 0.51248 0.45939
 H550 H 0.04006 0.48507 0.43461
 H551 H -0.03854 0.51122 0.56391
 H552 H -0.06517 0.48547 0.53918
 O553 O 0.56423 0.03107 0.50153
 O554 O 0.55546 0.02910 0.45909
 O555 O 0.50098 0.06473 0.53029
 O556 O 0.46112 0.05780 0.53047
 O557 O 0.53080 0.00171 0.56431
 O558 O 0.52864 -0.04076 0.55545
 O559 O 0.43680 -0.00186 0.46826
 O560 O 0.44371 0.04029 0.47247
 O561 O 0.49802 -0.03105 0.43658
 O562 O 0.54196 -0.02896 0.44532
 O563 O 0.46875 -0.06312 0.49770
 O564 O 0.47047 -0.05461 0.54147
 O565 O 0.43669 -0.03086 0.49733
 O566 O 0.44533 -0.02824 0.54174
 O567 O 0.49782 -0.06314 0.46875
 O568 O 0.54200 -0.05444 0.47130
 O569 O 0.46879 -0.00223 0.43650
 O570 O 0.47197 0.04162 0.44438
 O571 O 0.56435 0.00189 0.53051
 O572 O 0.55535 -0.04092 0.52824
 O573 O 0.50190 0.03091 0.56422
 O574 O 0.45852 0.02654 0.55497
 O575 O 0.53038 0.06467 0.50158
 O576 O 0.52831 0.05573 0.45891
 Zr577 Zr 0.52916 0.02958 0.48678
 O578 O 0.50805 0.00810 0.46346
 Zr579 Zr 0.48674 0.02943 0.52928
 O580 O 0.46349 0.00828 0.50759
 Zr581 Zr 0.52930 -0.01299 0.52919
 O582 O 0.50787 -0.03627 0.50789
 Zr583 Zr 0.47128 0.01387 0.47087
 O584 O 0.49236 0.03755 0.49243
 Zr585 Zr 0.51374 -0.02865 0.47116
 O586 O 0.53732 -0.00721 0.49244
 Zr587 Zr 0.47110 -0.02853 0.51346
 O588 O 0.49256 -0.00736 0.53721
 O589 O 0.52329 0.02360 0.52335
 O590 O 0.47698 -0.02291 0.47673
 C591 C 0.57460 0.01900 0.51850
 C592 C 0.51812 0.07503 0.51840
 C593 C 0.51887 0.01883 0.57457
 C594 C 0.42667 -0.01927 0.47985
 C595 C 0.48052 -0.01960 0.42646
 C596 C 0.48037 -0.07322 0.48030
 H597 H 0.51215 0.01193 0.44651
 H598 H 0.51174 -0.05326 0.51186
 H599 H 0.53360 0.03403 0.53363
 H600 H 0.44646 0.01228 0.51118
 H601 H 0.45082 0.05472 0.48041
 H602 H 0.44701 0.05264 0.52075
 H603 H 0.53960 -0.06517 0.48540
 H604 H 0.56344 -0.03979 0.51231
 H605 H 0.48625 0.03914 0.43395
 H606 H 0.51228 0.06362 0.45984
 H607 H 0.48520 -0.06461 0.53995
 H608 H 0.51251 -0.04008 0.56314
 H609 H 0.56314 0.01294 0.45969
 H610 H 0.54004 -0.01455 0.43491
 H611 H 0.46132 0.01145 0.56418
 H612 H 0.43444 -0.01432 0.53909
 O613 O 0.56409 0.53048 0.00147
 O614 O 0.55515 0.52853 -0.04098
 O615 O 0.50102 0.56439 0.03037
 O616 O 0.46112 0.55754 0.03059
 O617 O 0.53066 0.50117 0.06434
 O618 O 0.52850 0.45873 0.05542
 O619 O 0.43646 0.49771 -0.03134
 O620 O 0.44344 0.53996 -0.02706
 O621 O 0.49760 0.46868 -0.06334
 O622 O 0.54145 0.47048 -0.05472
 O623 O 0.46846 0.43649 -0.00200
 O624 O 0.47052 0.44523 0.04193
 O625 O 0.43643 0.46877 -0.00221
 O626 O 0.44509 0.47127 0.04196
 O627 O 0.49739 0.43642 -0.03108
 O628 O 0.54160 0.44510 -0.02872
 O629 O 0.46844 0.49757 -0.06330
 O630 O 0.47140 0.54116 -0.05544
 O631 O 0.56419 0.50132 0.03046
 O632 O 0.55517 0.45861 0.02823
 O633 O 0.50185 0.53046 0.06435
 O634 O 0.45855 0.52638 0.05525
 O635 O 0.53031 0.56424 0.00155
 O636 O 0.52813 0.55526 -0.04105
 Zr637 Zr 0.52897 0.52912 -0.01317
 O638 O 0.50770 0.50768 -0.03640
 Zr639 Zr 0.48667 0.52910 0.02943
 O640 O 0.46331 0.50793 0.00788
 Zr641 Zr 0.52912 0.48655 0.02921
 O642 O 0.50761 0.46329 0.00799
 Zr643 Zr 0.47095 0.51349 -0.02886
 O644 O 0.49219 0.53717 -0.00744
 Zr645 Zr 0.51335 0.47091 -0.02876
 O646 O 0.53705 0.49231 -0.00756
 Zr647 Zr 0.47090 0.47110 0.01372
 O648 O 0.49243 0.49229 0.03735
 O649 O 0.52319 0.52317 0.02342
 O650 O 0.47661 0.47669 -0.02306
 C651 C 0.57446 0.51838 0.01841
 C652 C 0.51810 0.57467 0.01836
 C653 C 0.51875 0.51827 0.07466
 C654 C 0.42635 0.48034 -0.01965
 C655 C 0.48017 0.48026 -0.07343
 C656 C 0.48002 0.42634 -0.01941
 H657 H 0.51175 0.51153 -0.05336
 H658 H 0.51148 0.44630 0.01195
 H659 H 0.53355 0.53358 0.03368
 H660 H 0.44630 0.51195 0.01153
 H661 H 0.45066 0.55442 -0.01927
 H662 H 0.44690 0.55232 0.02107
 H663 H 0.53923 0.43436 -0.01462
 H664 H 0.56314 0.45966 0.01225
 H665 H 0.48598 0.53906 -0.06554
 H666 H 0.51213 0.56320 -0.04009
 H667 H 0.48495 0.43486 0.04004
 H668 H 0.51240 0.45943 0.06319
 H669 H 0.56288 0.51240 -0.04032
 H670 H 0.53970 0.48505 -0.06495
 H671 H 0.46119 0.51115 0.06429
 H672 H 0.43445 0.48544 0.03958
 O673 O 0.78077 0.31424 0.49846
 O674 O 0.77906 0.30543 0.54091
 O675 O 0.81457 0.25100 0.46956
 O676 O 0.80778 0.21091 0.46983
 O677 O 0.75160 0.28045 0.43557
 O678 O 0.70919 0.27825 0.44438
 O679 O 0.74804 0.18664 0.53168
 O680 O 0.79020 0.19353 0.52744
 O681 O 0.71906 0.24808 0.56329
 O682 O 0.72121 0.29210 0.55448
 O683 O 0.68692 0.21866 0.50220
 O684 O 0.69559 0.22039 0.45821
 O685 O 0.71907 0.18650 0.50255
 O686 O 0.72150 0.19482 0.45835
 O687 O 0.68697 0.24788 0.53111
 O688 O 0.69567 0.29204 0.52857
 O689 O 0.74786 0.21883 0.56345
 O690 O 0.79151 0.22179 0.55564
 O691 O 0.75166 0.31420 0.46940
 O692 O 0.70904 0.30515 0.47144
 O693 O 0.78075 0.25149 0.43571
 O694 O 0.77662 0.20819 0.44498
 O695 O 0.81448 0.28051 0.49827
 O696 O 0.80576 0.27834 0.54092
 Zr697 Zr 0.77951 0.27912 0.51313
 O698 O 0.75811 0.25802 0.53644
 Zr699 Zr 0.77939 0.23651 0.47070
 O700 O 0.75822 0.21329 0.49233
 Zr701 Zr 0.73695 0.27907 0.47067
 O702 O 0.71373 0.25773 0.49199
 Zr703 Zr 0.76383 0.22116 0.52906
 O704 O 0.78749 0.24224 0.50755
 Zr705 Zr 0.72142 0.26372 0.52871
 O706 O 0.74277 0.28726 0.50741
 Zr707 Zr 0.72146 0.22090 0.48644
 O708 O 0.74263 0.24226 0.46271
 O709 O 0.77350 0.27313 0.47656
 O710 O 0.72711 0.22688 0.52318
 C711 C 0.76866 0.32455 0.48149
 C712 C 0.82482 0.26827 0.48141
 C713 C 0.76867 0.26843 0.42533
 C714 C 0.73063 0.17649 0.52005
 C715 C 0.73053 0.23062 0.57345
 C716 C 0.67686 0.23040 0.51955
 H717 H 0.76196 0.26217 0.55339
 H718 H 0.69676 0.26161 0.48800
 H719 H 0.78384 0.28348 0.46627
 H720 H 0.76220 0.19622 0.48876
 H721 H 0.80463 0.20066 0.51960
 H722 H 0.80247 0.19666 0.47925
 H723 H 0.68497 0.28964 0.51443
 H724 H 0.71005 0.31323 0.48740
 H725 H 0.78933 0.23637 0.56578
 H726 H 0.81365 0.26230 0.53998
 H727 H 0.68525 0.23486 0.46004
 H728 H 0.70993 0.26209 0.43667
 H729 H 0.76294 0.31315 0.54030
 H730 H 0.73550 0.29008 0.56505
 H731 H 0.76138 0.21077 0.43595
 H732 H 0.73568 0.18421 0.46075
 O733 O 0.74856 0.68593 0.03033
 O734 O 0.79095 0.69473 0.02856
 O735 O 0.71978 0.74917 0.06423
 O736 O 0.71976 0.78913 0.05751
 O737 O 0.68579 0.71957 0.00096
 O738 O 0.69473 0.72165 -0.04141
 O739 O 0.78204 0.81348 -0.00219
 O740 O 0.77755 0.80675 0.04000
 O741 O 0.81348 0.75238 -0.03130
 O742 O 0.80475 0.70833 -0.02940
 O743 O 0.75235 0.78165 -0.06334
 O744 O 0.70849 0.77982 -0.05475
 O745 O 0.75295 0.81361 -0.03120
 O746 O 0.70855 0.80523 -0.02851
 O747 O 0.78131 0.75258 -0.06344
 O748 O 0.77876 0.70829 -0.05491
 O749 O 0.81358 0.78152 -0.00229
 O750 O 0.80563 0.77835 0.04146
 O751 O 0.71955 0.68587 0.00117
 O752 O 0.72184 0.69487 -0.04152
 O753 O 0.68587 0.74849 0.03024
 O754 O 0.69522 0.79186 0.02625
 O755 O 0.74849 0.71976 0.06410
 O756 O 0.79113 0.72189 0.05526
 Zr757 Zr 0.76328 0.72106 0.02907
 O758 O 0.78660 0.74223 0.00773
 Zr759 Zr 0.72086 0.76356 0.02903
 O760 O 0.74252 0.78687 0.00800
 Zr761 Zr 0.72092 0.72098 -0.01355
 O762 O 0.74221 0.74245 -0.03670
 Zr763 Zr 0.77920 0.77905 0.01362
 O764 O 0.75767 0.75791 0.03718
 Zr765 Zr 0.77893 0.73658 -0.02904
 O766 O 0.75764 0.71294 -0.00773
 Zr767 Zr 0.73665 0.77926 -0.02881
 O768 O 0.71293 0.75777 -0.00777
 O769 O 0.72673 0.72695 0.02305
 O770 O 0.77334 0.77336 -0.02314
 C771 C 0.73158 0.67557 0.01821
 C772 C 0.73168 0.73201 0.07448
 C773 C 0.67550 0.73158 0.01802
 C774 C 0.77055 0.82357 -0.01969
 C775 C 0.82360 0.76986 -0.01971
 C776 C 0.76974 0.77006 -0.07346
 H777 H 0.80354 0.73813 0.01159
 H778 H 0.73823 0.73860 -0.05369
 H779 H 0.71642 0.71661 0.03339
 H780 H 0.73898 0.80393 0.01203
 H781 H 0.76969 0.79964 0.05443
 H782 H 0.72939 0.80332 0.05239
 H783 H 0.76468 0.71072 -0.06566
 H784 H 0.73778 0.68682 -0.04042
 H785 H 0.81600 0.76400 0.03901
 H786 H 0.79017 0.73790 0.06326
 H787 H 0.71022 0.76528 -0.06506
 H788 H 0.68706 0.73781 -0.04072
 H789 H 0.79041 0.68711 0.01236
 H790 H 0.81518 0.71027 -0.01499
 H791 H 0.68617 0.78922 0.01102
 H792 H 0.71128 0.81615 -0.01458
 O793 O 1.06460 0.21871 0.24833
 O794 O 1.05581 0.22086 0.29085
 O795 O 1.00154 0.18479 0.21951
 O796 O 0.96156 0.19153 0.21950
 O797 O 1.03111 0.24794 0.18550
 O798 O 1.02901 0.29042 0.19435
 O799 O 0.93713 0.25146 0.28122
 O800 O 0.94403 0.20922 0.27707
 O801 O 0.99834 0.28075 0.31309
 O802 O 1.04228 0.27877 0.30449
 O803 O 0.96910 0.31264 0.25192
 O804 O 0.97117 0.30391 0.20789
 O805 O 0.93709 0.28036 0.25204
 O806 O 0.94564 0.27784 0.20789
 O807 O 0.99818 0.31279 0.28091
 O808 O 1.04238 0.30421 0.27845
 O809 O 0.96908 0.25187 0.31312
 O810 O 0.97214 0.20811 0.30540
 O811 O 1.06468 0.24782 0.21928
 O812 O 1.05580 0.29059 0.22155
 O813 O 1.00225 0.21860 0.18555
 O814 O 0.95897 0.22265 0.19467
 O815 O 1.03086 0.18503 0.24836
 O816 O 1.02870 0.19403 0.29098
 Zr817 Zr 1.02954 0.22015 0.26308
 O818 O 1.00838 0.24159 0.28629
 Zr819 Zr 0.98714 0.22003 0.22049
 O820 O 0.96388 0.24122 0.24202
 Zr821 Zr 1.02967 0.26264 0.22060
 O822 O 1.00827 0.28591 0.24181
 Zr823 Zr 0.97160 0.23573 0.27877
 O824 O 0.99274 0.21204 0.25737
 Zr825 Zr 1.01410 0.27835 0.27857
 O826 O 1.03769 0.25695 0.25737
 Zr827 Zr 0.97152 0.27805 0.23611
 O828 O 0.99294 0.25683 0.21250
 O829 O 1.02367 0.22604 0.22649
 O830 O 0.97734 0.27251 0.27288
 C831 C 1.07491 0.23073 0.23129
 C832 C 1.01869 0.17458 0.23148
 C833 C 1.01919 0.23076 0.17522
 C834 C 0.92703 0.26881 0.26952
 C835 C 0.98082 0.26928 0.32317
 C836 C 0.98070 0.32279 0.26935
 H837 H 1.01244 0.23780 0.30326
 H838 H 1.01215 0.30291 0.23783
 H839 H 1.03398 0.21563 0.21622
 H840 H 0.94685 0.23718 0.23838
 H841 H 0.95120 0.19476 0.26929
 H842 H 0.94733 0.19681 0.22893
 H843 H 1.03997 0.31493 0.26434
 H844 H 1.06383 0.28952 0.23751
 H845 H 0.98658 0.21046 0.31568
 H846 H 1.01266 0.18612 0.29006
 H847 H 0.98553 0.31441 0.20989
 H848 H 1.01288 0.28969 0.18662
 H849 H 1.06359 0.23699 0.29010
 H850 H 1.04037 0.26434 0.31488
 H851 H 0.96161 0.23787 0.18560
 H852 H 0.93503 0.26362 0.21025
 O853 O 0.74844 1.06459 0.71965
 O854 O 0.79090 1.05584 0.72169
 O855 O 0.71975 1.00135 0.68561
 O856 O 0.71982 0.96130 0.69236
 O857 O 0.68558 1.03088 0.74860
 O858 O 0.69434 1.02870 0.79110
 O859 O 0.78146 0.93703 0.75239
 O860 O 0.77733 0.94387 0.71015
 O861 O 0.81314 0.99844 0.78158
 O862 O 0.80434 1.04247 0.77955
 O863 O 0.75213 0.96884 0.81333
 O864 O 0.70800 0.97101 0.80463
 O865 O 0.75219 0.93691 0.78116
 O866 O 0.70811 0.94533 0.77865
 O867 O 0.78106 0.99803 0.81351
 O868 O 0.77837 1.04233 0.80507
 O869 O 0.81326 0.96911 0.75276
 O870 O 0.80558 0.97211 0.70902
 O871 O 0.71936 1.06459 0.74870
 O872 O 0.72139 1.05563 0.79134
 O873 O 0.68576 1.00198 0.71930
 O874 O 0.69493 0.95866 0.72341
 O875 O 0.74848 1.03082 0.68590
 O876 O 0.79105 1.02874 0.69490
 Zr877 Zr 0.76316 1.02950 0.72100
 O878 O 0.78638 1.00837 0.74245
 Zr879 Zr 0.72069 0.98693 0.72081
 O880 O 0.74221 0.96370 0.74204
 Zr881 Zr 0.72063 1.02949 0.76340
 O882 O 0.74186 1.00814 0.78669
 Zr883 Zr 0.77894 0.97152 0.73660
 O884 O 0.75755 0.99263 0.71288
 Zr885 Zr 0.77859 1.01408 0.77916
 O886 O 0.75737 1.03764 0.75775
 Zr887 Zr 0.73624 0.97134 0.77882
 O888 O 0.71262 0.99270 0.75757
 O889 O 0.72660 1.02353 0.72683
 O890 O 0.77297 0.97727 0.77331
 C891 C 0.73142 1.07490 0.73169
 C892 C 0.73167 1.01857 0.67543
 C893 C 0.67538 1.01891 0.73141
 C894 C 0.76975 0.92690 0.76972
 C895 C 0.82326 0.98091 0.77014
 C896 C 0.76959 0.98043 0.82344
 H897 H 0.80333 1.01249 0.73868
 H898 H 0.73787 1.01200 0.80368
 H899 H 0.71635 1.03386 0.71643
 H900 H 0.73862 0.94663 0.73801
 H901 H 0.76956 0.95101 0.69568
 H902 H 0.72923 0.94705 0.69768
 H903 H 0.76434 1.03979 0.81584
 H904 H 0.73740 1.06360 0.79047
 H905 H 0.81580 0.98662 0.71135
 H906 H 0.79017 1.01267 0.68700
 H907 H 0.71014 0.98524 0.81529
 H908 H 0.68666 1.01251 0.79034
 H909 H 0.79016 1.06362 0.73781
 H910 H 0.81488 1.04049 0.76525
 H911 H 0.68583 0.96129 0.73860
 H912 H 0.71043 0.93478 0.76438
 O913 O 0.78097 0.43566 0.25116
 O914 O 0.77906 0.44455 0.20872
 O915 O 0.81470 0.49877 0.28035
 O916 O 0.80808 0.53879 0.28023
 O917 O 0.75154 0.46922 0.31406
 O918 O 0.70923 0.47111 0.30505
 O919 O 0.74833 0.56336 0.21840
 O920 O 0.79051 0.55645 0.22266
 O921 O 0.71923 0.50205 0.18639
 O922 O 0.72093 0.45822 0.19486
 O923 O 0.68716 0.53124 0.24781
 O924 O 0.69586 0.52934 0.29164
 O925 O 0.71941 0.56336 0.24751
 O926 O 0.72200 0.55475 0.29175
 O927 O 0.68704 0.50222 0.21871
 O928 O 0.69577 0.45788 0.22105
 O929 O 0.74813 0.53129 0.18642
 O930 O 0.79166 0.52839 0.19426
 O931 O 0.75187 0.43553 0.28018
 O932 O 0.70916 0.44442 0.27779
 O933 O 0.78076 0.49820 0.31410
 O934 O 0.77690 0.54151 0.30492
 O935 O 0.81460 0.46944 0.25146
 O936 O 0.80578 0.47177 0.20874
 Zr937 Zr 0.77961 0.47081 0.23655
 O938 O 0.75821 0.49201 0.21332
 Zr939 Zr 0.77957 0.51324 0.27915
 O940 O 0.75849 0.53656 0.25760
 Zr941 Zr 0.73705 0.47060 0.27889
 O942 O 0.71387 0.49209 0.25770
 Zr943 Zr 0.76404 0.52884 0.22085
 O944 O 0.78767 0.50767 0.24229
 Zr945 Zr 0.72148 0.48631 0.22094
 O946 O 0.74284 0.46264 0.24211
 Zr947 Zr 0.72172 0.52889 0.26345
 O948 O 0.74282 0.50738 0.28707
 O949 O 0.77361 0.47664 0.27313
 O950 O 0.72729 0.52312 0.22667
 C951 C 0.76892 0.42527 0.26814
 C952 C 0.82494 0.48159 0.26844
 C953 C 0.76857 0.48127 0.32441
 C954 C 0.73098 0.57346 0.23007
 C955 C 0.73081 0.51952 0.17630
 C956 C 0.67700 0.51960 0.23042
 H957 H 0.76204 0.48793 0.19636
 H958 H 0.69690 0.48819 0.26167
 H959 H 0.78393 0.46630 0.28344
 H960 H 0.76253 0.55361 0.26126
 H961 H 0.80494 0.54925 0.23042
 H962 H 0.80288 0.55305 0.27077
 H963 H 0.68496 0.46033 0.23507
 H964 H 0.71034 0.43633 0.26185
 H965 H 0.78959 0.51372 0.18422
 H966 H 0.81381 0.48776 0.20986
 H967 H 0.68557 0.51479 0.28984
 H968 H 0.70986 0.48726 0.31280
 H969 H 0.76293 0.43680 0.20933
 H970 H 0.73561 0.45985 0.18479
 H971 H 0.76168 0.53890 0.31395
 H972 H 0.73601 0.56558 0.28922
 O973 O 0.43547 0.25142 0.78103
 O974 O 0.44434 0.20900 0.77912
 O975 O 0.49874 0.28042 0.81492
 O976 O 0.53860 0.28052 0.80814
 O977 O 0.46904 0.31449 0.75192
 O978 O 0.47098 0.30567 0.70951
 O979 O 0.56292 0.21869 0.74817
 O980 O 0.55607 0.22280 0.79041
 O981 O 0.50171 0.18680 0.71898
 O982 O 0.45790 0.19533 0.72085
 O983 O 0.53093 0.24830 0.68716
 O984 O 0.52900 0.29216 0.69593
 O985 O 0.56293 0.24793 0.71933
 O986 O 0.55437 0.29223 0.72211
 O987 O 0.50193 0.21919 0.68695
 O988 O 0.45762 0.22160 0.69570
 O989 O 0.53092 0.18673 0.74786
 O990 O 0.52800 0.19442 0.79150
 O991 O 0.43536 0.28052 0.75197
 O992 O 0.44429 0.27846 0.70931
 O993 O 0.49799 0.31440 0.78112
 O994 O 0.54126 0.30521 0.77701
 O995 O 0.46934 0.25162 0.81477
 O996 O 0.47152 0.20890 0.80575
 Zr997 Zr 0.47059 0.23683 0.77967
 O998 O 0.49170 0.21363 0.75814
 Zr999 Zr 0.51301 0.27944 0.77970
 O1000 O 0.53624 0.25791 0.75851
 Zr1001 Zr 0.47040 0.27936 0.73722
 O1002 O 0.49181 0.25819 0.71392
 Zr1003 Zr 0.52849 0.22112 0.76395
 O1004 O 0.50741 0.24253 0.78769
 Zr1005 Zr 0.48600 0.22138 0.72141
 O1006 O 0.46242 0.24253 0.74289
 Zr1007 Zr 0.52855 0.26391 0.72176
 O1008 O 0.50713 0.28750 0.74297
 O1009 O 0.47644 0.27346 0.77379
 O1010 O 0.52275 0.22709 0.72722
 C1011 C 0.42508 0.26837 0.76895
 C1012 C 0.48162 0.26848 0.82517
 C1013 C 0.48108 0.32477 0.76900
 C1014 C 0.57299 0.23042 0.73082
 C1015 C 0.51917 0.17668 0.73048
 C1016 C 0.51934 0.23089 0.67697
 H1017 H 0.48762 0.19664 0.76191
 H1018 H 0.48791 0.26221 0.69695
 H1019 H 0.46612 0.28373 0.78419
 H1020 H 0.55327 0.26154 0.76254
 H1021 H 0.54892 0.23054 0.80489
 H1022 H 0.55275 0.27093 0.80294
 H1023 H 0.46016 0.23559 0.68484
 H1024 H 0.43630 0.26245 0.71028
 H1025 H 0.51341 0.18429 0.78932
 H1026 H 0.48752 0.20993 0.81371
 H1027 H 0.51447 0.29039 0.68565
 H1028 H 0.48711 0.31342 0.71019
 H1029 H 0.43669 0.20955 0.76294
 H1030 H 0.45963 0.18509 0.73540
 H1031 H 0.53856 0.31439 0.76189
 H1032 H 0.56523 0.28962 0.73608
 O1033 O 0.28095 0.81499 0.49852
 O1034 O 0.27912 0.80617 0.54095
 O1035 O 0.31461 0.75179 0.46952
 O1036 O 0.30780 0.71178 0.46946
 O1037 O 0.25157 0.78144 0.43563
 O1038 O 0.20918 0.77925 0.44452
 O1039 O 0.24827 0.68735 0.53148
 O1040 O 0.29040 0.69427 0.52719
 O1041 O 0.21913 0.74846 0.56326
 O1042 O 0.22130 0.79260 0.55468
 O1043 O 0.18706 0.71928 0.50214
 O1044 O 0.19554 0.72113 0.45825
 O1045 O 0.21923 0.68724 0.50242
 O1046 O 0.22172 0.69578 0.45809
 O1047 O 0.18707 0.74840 0.53114
 O1048 O 0.19571 0.79262 0.52876
 O1049 O 0.24797 0.71925 0.56324
 O1050 O 0.29174 0.72256 0.55543
 O1051 O 0.25178 0.81507 0.46951
 O1052 O 0.20909 0.80604 0.47173
 O1053 O 0.28074 0.75250 0.43565
 O1054 O 0.27657 0.70913 0.44480
 O1055 O 0.31457 0.78120 0.49833
 O1056 O 0.30578 0.77902 0.54100
 Zr1057 Zr 0.27958 0.77986 0.51316
 O1058 O 0.25822 0.75867 0.53644
 Zr1059 Zr 0.27941 0.73738 0.47058
 O1060 O 0.25833 0.71407 0.49218
 Zr1061 Zr 0.23698 0.77995 0.47076
 O1062 O 0.21380 0.75848 0.49202
 Zr1063 Zr 0.26400 0.72186 0.52891
 O1064 O 0.28759 0.74302 0.50743
 Zr1065 Zr 0.22150 0.76435 0.52877
 O1066 O 0.24283 0.78799 0.50753
 Zr1067 Zr 0.22156 0.72168 0.48634
 O1068 O 0.24265 0.74316 0.46266
 O1069 O 0.27353 0.77398 0.47658
 O1070 O 0.22727 0.72755 0.52308
 C1071 C 0.26886 0.82535 0.48156
 C1072 C 0.32489 0.76898 0.48144
 C1073 C 0.26864 0.76948 0.42533
 C1074 C 0.23082 0.67723 0.51990
 C1075 C 0.23058 0.73090 0.57329
 C1076 C 0.17700 0.73091 0.51957
 H1077 H 0.26207 0.76276 0.55341
 H1078 H 0.19682 0.76235 0.48807
 H1079 H 0.28389 0.78433 0.46631
 H1080 H 0.26232 0.69702 0.48855
 H1081 H 0.30481 0.70143 0.51935
 H1082 H 0.30260 0.69757 0.47900
 H1083 H 0.18502 0.79028 0.51460
 H1084 H 0.21020 0.81410 0.48770
 H1085 H 0.28926 0.73685 0.56591
 H1086 H 0.31366 0.76297 0.54004
 H1087 H 0.18535 0.73572 0.46000
 H1088 H 0.20987 0.76310 0.43678
 H1089 H 0.26295 0.81380 0.54041
 H1090 H 0.23557 0.79051 0.56525
 H1091 H 0.26138 0.71180 0.43572
 H1092 H 0.23572 0.68497 0.46064
 O1093 O 0.25148 0.28052 0.93625
 O1094 O 0.20908 0.27870 0.94516
 O1095 O 0.28052 0.31430 0.99960
 O1096 O 0.28048 0.30743 1.03952
 O1097 O 0.31434 0.25128 0.96973
 O1098 O 0.30543 0.20877 0.97174
 O1099 O 0.21858 0.24740 1.06371
 O1100 O 0.22298 0.28974 1.05704
 O1101 O 0.18670 0.21857 1.00242
 O1102 O 0.19535 0.22058 0.95848
 O1103 O 0.24797 0.18642 1.03154
 O1104 O 0.29188 0.19512 1.02956
 O1105 O 0.24769 0.21847 1.06363
 O1106 O 0.29191 0.22115 1.05517
 O1107 O 0.21886 0.18641 1.00258
 O1108 O 0.22132 0.19513 0.95832
 O1109 O 0.18673 0.24743 1.03170
 O1110 O 0.19461 0.29106 1.02895
 O1111 O 0.28044 0.25135 0.93608
 O1112 O 0.27832 0.20868 0.94495
 O1113 O 0.31432 0.28045 0.99877
 O1114 O 0.30519 0.27621 1.04205
 O1115 O 0.25176 0.31425 0.97019
 O1116 O 0.20911 0.30537 0.97235
 Zr1117 Zr 0.23689 0.27916 0.97139
 O1118 O 0.21364 0.25767 0.99251
 Zr1119 Zr 0.27941 0.27902 1.01384
 O1120 O 0.25786 0.25779 1.03705
 Zr1121 Zr 0.27924 0.23657 0.97113
 O1122 O 0.25798 0.21327 0.99247
 Zr1123 Zr 0.22115 0.26338 1.02933
 O1124 O 0.24259 0.28711 1.00826
 Zr1125 Zr 0.22125 0.22090 0.98669
 O1126 O 0.24249 0.24236 0.96315
 Zr1127 Zr 0.26371 0.22100 1.02926
 O1128 O 0.28735 0.24224 1.00789
 O1129 O 0.27344 0.27317 0.97724
 O1130 O 0.22697 0.22661 1.02347
 C1131 C 0.26837 0.26839 0.92583
 C1132 C 0.26862 0.32460 0.98246
 C1133 C 0.32464 0.26836 0.98178
 C1134 C 0.23019 0.22993 1.07371
 C1135 C 0.17663 0.23010 1.01992
 C1136 C 0.23050 0.17633 1.01997
 H1137 H 0.19669 0.26151 0.98844
 H1138 H 0.26193 0.19628 0.98854
 H1139 H 0.28371 0.28357 0.96691
 H1140 H 0.26149 0.26176 1.05411
 H1141 H 0.23074 0.30424 1.04991
 H1142 H 0.27106 0.30212 1.05376
 H1143 H 0.23533 0.18430 0.96076
 H1144 H 0.26230 0.20962 0.93703
 H1145 H 0.18455 0.28901 1.01431
 H1146 H 0.21013 0.31329 0.98839
 H1147 H 0.28998 0.18477 1.01508
 H1148 H 0.31323 0.20951 0.98784
 H1149 H 0.20964 0.26255 0.93742
 H1150 H 0.18501 0.23504 0.96041
 H1151 H 0.31423 0.26100 1.03934
 H1152 H 0.28941 0.23520 1.06598
 C1153 C 0.27153 0.36570 0.80290
 C1154 C 0.29140 0.35434 0.79189
 C1155 C 0.30249 0.36569 0.77203
 C1156 C 0.29449 0.38827 0.76397
 C1157 C 0.27519 0.40005 0.77557
 C1158 C 0.26353 0.38828 0.79485
 H1159 H 0.26248 0.35746 0.81818
 H1160 H 0.31778 0.35743 0.76303
 H1161 H 0.30389 0.39676 0.74904
 H1162 H 0.24857 0.39677 0.80419
 C1163 C 0.30453 -0.13333 0.27264
 C1164 C 0.29353 -0.14475 0.29259
 C1165 C 0.27313 -0.13368 0.30308
 C1166 C 0.26469 -0.11142 0.29458
 C1167 C 0.27632 -0.09963 0.27531
 C1168 C 0.29605 -0.11108 0.26416
 H1169 H 0.32013 -0.14121 0.26383
 H1170 H 0.26392 -0.14183 0.31832
 H1171 H 0.24938 -0.10318 0.30357
 H1172 H 0.30543 -0.10257 0.24923
 C1173 C 0.77427 0.86861 0.80561
 C1174 C 0.79409 0.85716 0.79461
 C1175 C 0.80506 0.86829 0.77456
 C1176 C 0.79681 0.89064 0.76611
 C1177 C 0.77736 0.90238 0.77748
 C1178 C 0.76600 0.89094 0.79715
 H1179 H 0.76534 0.86056 0.82105
 H1180 H 0.82035 0.85999 0.76561
 H1181 H 0.80600 0.89890 0.75093
 H1182 H 0.75098 0.89944 0.80638
 C1183 C 0.47544 0.88197 0.30520
 C1184 C 0.45560 0.89347 0.29409
 C1185 C 0.44496 0.88228 0.27376
 C1186 C 0.45339 0.85998 0.26533
 C1187 C 0.47274 0.84826 0.27689
 C1188 C 0.48385 0.85969 0.29672
 H1189 H 0.48431 0.88989 0.32078
 H1190 H 0.42975 0.89045 0.26453
 H1191 H 0.44441 0.85172 0.24998
 H1192 H 0.49881 0.85122 0.30608
 C1193 C -0.05380 0.88367 0.77372
 C1194 C -0.04298 0.89481 0.79390
 C1195 C -0.02281 0.88369 0.80464
 C1196 C -0.01428 0.86151 0.79604
 C1197 C -0.02571 0.84989 0.77647
 C1198 C -0.04527 0.86148 0.76512
 H1199 H -0.06929 0.89176 0.76492
 H1200 H -0.01395 0.89180 0.82013
 H1201 H 0.00085 0.85315 0.80522
 H1202 H -0.05450 0.85309 0.74999
 C1203 C -0.05557 -0.13162 -0.02475
 C1204 C -0.04448 -0.14306 -0.04466
 C1205 C -0.02420 -0.13182 -0.05525
 C1206 C -0.01579 -0.10953 -0.04669
 C1207 C -0.02732 -0.09787 -0.02727
 C1208 C -0.04712 -0.10935 -0.01622
 H1209 H -0.07112 -0.13959 -0.01592
 H1210 H -0.01499 -0.13994 -0.07050
 H1211 H -0.00047 -0.10125 -0.05563
 H1212 H -0.05645 -0.10091 -0.00122
 C1213 C -0.02467 0.36818 0.44402
 C1214 C -0.04448 0.35659 0.45512
 C1215 C -0.05514 0.36777 0.47540
 C1216 C -0.04675 0.39013 0.48381
 C1217 C -0.02742 0.40192 0.47226
 C1218 C -0.01630 0.39051 0.45246
 H1219 H -0.01578 0.36027 0.42846
 H1220 H -0.07032 0.35953 0.48463
 H1221 H -0.05574 0.39837 0.49913
 H1222 H -0.00136 0.39905 0.44311
 C1223 C 0.44515 -0.13202 0.47575
 C1224 C 0.45581 -0.14314 0.45544
 C1225 C 0.47557 -0.13151 0.44433
 C1226 C 0.48389 -0.10916 0.45277
 C1227 C 0.47275 -0.09779 0.47259
 C1228 C 0.45348 -0.10964 0.48416
 H1229 H 0.43000 -0.14030 0.48499
 H1230 H 0.48446 -0.13938 0.42875
 H1231 H 0.49880 -0.10058 0.44341
 H1232 H 0.44449 -0.10144 0.49950
 C1233 C 0.44487 0.36744 -0.02362
 C1234 C 0.45598 0.35590 -0.04345
 C1235 C 0.47594 0.36736 -0.05441
 C1236 C 0.48403 0.38991 -0.04627
 C1237 C 0.47248 0.40166 -0.02691
 C1238 C 0.45299 0.39000 -0.01550
 H1239 H 0.42955 0.35932 -0.01452
 H1240 H 0.48516 0.35918 -0.06962
 H1241 H 0.49913 0.39832 -0.05548
 H1242 H 0.44367 0.39849 -0.00052
 C1243 C 0.80327 0.38369 0.47780
 C1244 C 0.79211 0.39505 0.45799
 C1245 C 0.77200 0.38382 0.44717
 C1246 C 0.76385 0.36133 0.45534
 C1247 C 0.77560 0.34953 0.47456
 C1248 C 0.79512 0.36120 0.48598
 H1249 H 0.81874 0.39185 0.48665
 H1250 H 0.76289 0.39208 0.43194
 H1251 H 0.74873 0.35291 0.44614
 H1252 H 0.80458 0.35269 0.50086
 C1253 C 0.77610 0.88152 -0.05599
 C1254 C 0.79649 0.89263 -0.04540
 C1255 C 0.80733 0.88131 -0.02529
 C1256 C 0.79852 0.85926 -0.01658
 C1257 C 0.77861 0.84791 -0.02763
 C1258 C 0.76733 0.85948 -0.04724
 H1259 H 0.76706 0.88956 -0.07138
 H1260 H 0.82295 0.88918 -0.01646
 H1261 H 0.80768 0.85088 -0.00144
 H1262 H 0.75195 0.85129 -0.05621
 C1263 C 0.77268 0.30307 0.36627
 C1264 C 0.79279 0.29219 0.35518
 C1265 C 0.80373 0.27227 0.36656
 C1266 C 0.79536 0.26402 0.38892
 C1267 C 0.77582 0.27547 0.40045
 C1268 C 0.76431 0.29482 0.38864
 H1269 H 0.76374 0.31839 0.35799
 H1270 H 0.81918 0.26337 0.35851
 H1271 H 0.80465 0.24905 0.39744
 H1272 H 0.74920 0.30407 0.39695
 C1273 C 0.77476 0.80607 -0.13162
 C1274 C 0.79449 0.79486 -0.14319
 C1275 C 0.80505 0.77450 -0.13207
 C1276 C 0.79665 0.76613 -0.10977
 C1277 C 0.77741 0.77778 -0.09797
 C1278 C 0.76637 0.79766 -0.10932
 H1279 H 0.76595 0.82169 -0.13949
 H1280 H 0.82017 0.76519 -0.14030
 H1281 H 0.80557 0.75075 -0.10158
 H1282 H 0.75150 0.80708 -0.10077
 C1283 C 0.30357 0.47763 0.88412
 C1284 C 0.29264 0.45766 0.89544
 C1285 C 0.27254 0.44672 0.88429
 C1286 C 0.26418 0.45496 0.86191
 C1287 C 0.27569 0.47436 0.85015
 C1288 C 0.29520 0.48589 0.86175
 H1289 H 0.31901 0.48658 0.89222
 H1290 H 0.26361 0.43135 0.89253
 H1291 H 0.24908 0.44567 0.85354
 H1292 H 0.30449 0.50090 0.85327
 C1293 C 0.27273 -0.05255 0.38345
 C1294 C 0.29305 -0.04177 0.39437
 C1295 C 0.30411 -0.02200 0.38281
 C1296 C 0.29565 -0.01381 0.36045
 C1297 C 0.27591 -0.02519 0.34908
 C1298 C 0.26428 -0.04437 0.36107
 H1299 H 0.26368 -0.06775 0.39186
 H1300 H 0.31972 -0.01318 0.39073
 H1301 H 0.30506 0.00103 0.35179
 H1302 H 0.24902 -0.05355 0.35289
 C1303 C -0.05576 -0.02421 -0.13108
 C1304 C -0.04464 -0.04397 -0.14275
 C1305 C -0.02429 -0.05460 -0.13169
 C1306 C -0.01583 -0.04624 -0.10937
 C1307 C -0.02739 -0.02698 -0.09748
 C1308 C -0.04726 -0.01587 -0.10877
 H1309 H -0.07136 -0.01536 -0.13890
 H1310 H -0.01505 -0.06975 -0.13999
 H1311 H -0.00046 -0.05522 -0.10123
 H1312 H -0.05662 -0.00098 -0.10016
 C1313 C -0.02462 0.44378 0.36813
 C1314 C -0.04436 0.45493 0.35652
 C1315 C -0.05494 0.47532 0.36762
 C1316 C -0.04652 0.48377 0.38992
 C1317 C -0.02726 0.47219 0.40175
 C1318 C -0.01622 0.45228 0.39043
 H1319 H -0.01581 0.42814 0.36028
 H1320 H -0.07007 0.48459 0.35936
 H1321 H -0.05545 0.49918 0.39808
 H1322 H -0.00134 0.44289 0.39900
 C1323 C 0.47583 -0.05561 0.36817
 C1324 C 0.45613 -0.04445 0.35663
 C1325 C 0.44534 -0.02426 0.36771
 C1326 C 0.45362 -0.01584 0.39008
 C1327 C 0.47294 -0.02738 0.40191
 C1328 C 0.48413 -0.04718 0.39053
 H1329 H 0.48462 -0.07117 0.36016
 H1330 H 0.43016 -0.01518 0.35935
 H1331 H 0.44456 -0.00054 0.39828
 H1332 H 0.49903 -0.05654 0.39911
 C1333 C 0.44529 0.47635 -0.13237
 C1334 C 0.45629 0.45643 -0.14387
 C1335 C 0.47614 0.44532 -0.13238
 C1336 C 0.48420 0.45338 -0.10981
 C1337 C 0.47273 0.47280 -0.09810
 C1338 C 0.45338 0.48438 -0.10980
 H1339 H 0.43007 0.48558 -0.14051
 H1340 H 0.48527 0.43003 -0.14055
 H1341 H 0.49919 0.44406 -0.10136
 H1342 H 0.44413 0.49944 -0.10135
 C1343 C 0.47604 0.80605 0.38139
 C1344 C 0.45636 0.79480 0.39290
 C1345 C 0.44555 0.77460 0.38178
 C1346 C 0.45380 0.76626 0.35940
 C1347 C 0.47309 0.77788 0.34760
 C1348 C 0.48430 0.79770 0.35902
 H1349 H 0.48483 0.82163 0.38943
 H1350 H 0.43038 0.76545 0.39012
 H1351 H 0.44472 0.75094 0.35116
 H1352 H 0.49919 0.80712 0.35047
 C1353 C -0.02310 0.80522 0.88357
 C1354 C -0.04331 0.79445 0.89475
 C1355 C -0.05386 0.77403 0.88364
 C1356 C -0.04518 0.76537 0.86155
 C1357 C -0.02568 0.77681 0.84994
 C1358 C -0.01445 0.79654 0.86147
 H1359 H -0.01423 0.82082 0.89150
 H1360 H -0.06929 0.76498 0.89162
 H1361 H -0.05425 0.75008 0.85325
 H1362 H 0.00066 0.80577 0.85309
 C1363 C 0.36824 0.80510 0.27346
 C1364 C 0.35686 0.79415 0.29338
 C1365 C 0.36821 0.77435 0.30459
 C1366 C 0.39065 0.76609 0.29647
 C1367 C 0.40230 0.77741 0.27691
 C1368 C 0.39068 0.79684 0.26533
 H1369 H 0.36004 0.82036 0.26435
 H1370 H 0.35998 0.76544 0.31995
 H1371 H 0.39905 0.75109 0.30584
 H1372 H 0.39910 0.80602 0.25023
 C1373 C -0.13327 0.80357 0.77338
 C1374 C -0.14428 0.79291 0.79367
 C1375 C -0.13305 0.77289 0.80459
 C1376 C -0.11087 0.76437 0.79605
 C1377 C -0.09938 0.77566 0.77638
 C1378 C -0.11110 0.79505 0.76485
 H1379 H -0.14145 0.81894 0.76443
 H1380 H -0.14106 0.76416 0.82017
 H1381 H -0.10241 0.74937 0.80537
 H1382 H -0.10283 0.80417 0.74963
 C1383 C 0.88333 0.30379 0.47706
 C1384 C 0.89444 0.29306 0.45688
 C1385 C 0.88335 0.27284 0.44606
 C1386 C 0.86120 0.26418 0.45461
 C1387 C 0.84961 0.27552 0.47420
 C1388 C 0.86120 0.29514 0.48562
 H1389 H 0.89140 0.31931 0.48593
 H1390 H 0.89143 0.26404 0.43055
 H1391 H 0.85284 0.24903 0.44538
 H1392 H 0.85285 0.30431 0.50077
 C1393 C 0.88192 0.80568 -0.02440
 C1394 C 0.89324 0.79468 -0.04432
 C1395 C 0.88203 0.77459 -0.05527
 C1396 C 0.85973 0.76615 -0.04691
 C1397 C 0.84811 0.77755 -0.02738
 C1398 C 0.85964 0.79724 -0.01604
 H1399 H 0.89004 0.82115 -0.01548
 H1400 H 0.89024 0.76564 -0.07063
 H1401 H 0.85139 0.75095 -0.05610
 H1402 H 0.85124 0.80649 -0.00096
 C1403 C -0.13075 -0.05649 -0.02530
 C1404 C -0.14201 -0.04577 -0.04551
 C1405 C -0.13085 -0.02546 -0.05618
 C1406 C -0.10882 -0.01666 -0.04740
 C1407 C -0.09734 -0.02782 -0.02767
 C1408 C -0.10874 -0.04765 -0.01655
 H1409 H -0.13865 -0.07205 -0.01639
 H1410 H -0.13884 -0.01653 -0.07166
 H1411 H -0.10057 -0.00136 -0.05644
 H1412 H -0.10043 -0.05672 -0.00132
 C1413 C -0.13242 0.44596 0.47646
 C1414 C -0.14383 0.45702 0.45663
 C1415 C -0.13234 0.47668 0.44529
 C1416 C -0.10970 0.48467 0.45318
 C1417 C -0.09801 0.47322 0.47264
 C1418 C -0.10978 0.45395 0.48436
 H1419 H -0.14074 0.43080 0.48566
 H1420 H -0.14061 0.48566 0.42998
 H1421 H -0.10119 0.49957 0.44373
 H1422 H -0.10134 0.44471 0.49941
 C1423 C 0.36781 -0.05437 0.47555
 C1424 C 0.35643 -0.04341 0.45555
 C1425 C 0.36800 -0.02358 0.44445
 C1426 C 0.39050 -0.01545 0.45265
 C1427 C 0.40207 -0.02684 0.47221
 C1428 C 0.39031 -0.04622 0.48373
 H1429 H 0.35961 -0.06960 0.48477
 H1430 H 0.35995 -0.01448 0.42910
 H1431 H 0.39901 -0.00046 0.44335
 H1432 H 0.39865 -0.05542 0.49886
 C1433 C 0.36749 0.47595 -0.05467
 C1434 C 0.35603 0.45608 -0.04351
 C1435 C 0.36754 0.44514 -0.02358
 C1436 C 0.39006 0.45335 -0.01555
 C1437 C 0.40172 0.47275 -0.02714
 C1438 C 0.39002 0.48413 -0.04661
 H1439 H 0.35933 0.48504 -0.06998
 H1440 H 0.35942 0.42990 -0.01433
 H1441 H 0.39851 0.44415 -0.00047
 H1442 H 0.39844 0.49914 -0.05596
 C1443 C 0.38388 0.44748 0.77285
 C1444 C 0.39498 0.45825 0.79306
 C1445 C 0.38356 0.47801 0.80427
 C1446 C 0.36112 0.48618 0.79606
 C1447 C 0.34957 0.47479 0.77644
 C1448 C 0.36144 0.45564 0.76465
 H1449 H 0.39220 0.43229 0.76370
 H1450 H 0.39163 0.48682 0.81981
 H1451 H 0.35255 0.50101 0.80556
 H1452 H 0.35313 0.44647 0.74944
 C1453 C 0.38316 -0.05417 0.27227
 C1454 C 0.39435 -0.04335 0.29242
 C1455 C 0.38331 -0.02312 0.30318
 C1456 C 0.36116 -0.01453 0.29463
 C1457 C 0.34950 -0.02594 0.27508
 C1458 C 0.36101 -0.04558 0.26371
 H1459 H 0.39118 -0.06971 0.26345
 H1460 H 0.39145 -0.01426 0.31865
 H1461 H 0.35286 0.00065 0.30381
 H1462 H 0.35259 -0.05481 0.24860
 C1463 C 0.11815 0.52397 0.69561
 C1464 C 0.10706 0.54415 0.70640
 C1465 C 0.11851 0.55535 0.72617
 C1466 C 0.14082 0.54698 0.73454
 C1467 C 0.15222 0.52719 0.72334
 C1468 C 0.14045 0.51560 0.70396
 H1469 H 0.10984 0.51485 0.68037
 H1470 H 0.11049 0.57091 0.73496
 H1471 H 0.14935 0.55637 0.74950
 H1472 H 0.14868 0.50031 0.69490
 C1473 C 0.11801 0.02363 0.19476
 C1474 C 0.10651 0.04355 0.20577
 C1475 C 0.11790 0.05459 0.22577
 C1476 C 0.14036 0.04645 0.23400
 C1477 C 0.15205 0.02699 0.22256
 C1478 C 0.14045 0.01550 0.20303
 H1479 H 0.10994 0.01446 0.17942
 H1480 H 0.10975 0.06989 0.23491
 H1481 H 0.14874 0.05573 0.24910
 H1482 H 0.14889 0.00045 0.19377
 C1483 C 0.63358 0.69669 0.22743
 C1484 C 0.64503 0.70785 0.20767
 C1485 C 0.63399 0.72809 0.19695
 C1486 C 0.61162 0.73639 0.20519
 C1487 C 0.59973 0.72468 0.22437
 C1488 C 0.61121 0.70500 0.23568
 H1489 H 0.64159 0.68113 0.23619
 H1490 H 0.64232 0.73720 0.18176
 H1491 H 0.60336 0.75162 0.19607
 H1492 H 0.60262 0.69554 0.25052
 C1493 C 0.13122 0.69457 0.72562
 C1494 C 0.14238 0.70548 0.70556
 C1495 C 0.13121 0.72560 0.69476
 C1496 C 0.10910 0.73417 0.70339
 C1497 C 0.09760 0.72286 0.72304
 C1498 C 0.10909 0.70314 0.73425
 H1499 H 0.13931 0.67907 0.73443
 H1500 H 0.13931 0.73449 0.67932
 H1501 H 0.10078 0.74939 0.69429
 H1502 H 0.10078 0.69396 0.74941
 C1503 C 0.61844 0.22626 0.55515
 C1504 C 0.60684 0.20652 0.54402
 C1505 C 0.61794 0.19548 0.52397
 C1506 C 0.64039 0.20357 0.51567
 C1507 C 0.65227 0.22293 0.52719
 C1508 C 0.64088 0.23436 0.54685
 H1509 H 0.61042 0.23523 0.57060
 H1510 H 0.60953 0.18026 0.51492
 H1511 H 0.64861 0.19434 0.50049
 H1512 H 0.64948 0.24932 0.55618
 C1513 C 0.61619 0.72835 0.05220
 C1514 C 0.60483 0.70837 0.04123
 C1515 C 0.61621 0.69717 0.02144
 C1516 C 0.63878 0.70519 0.01339
 C1517 C 0.65052 0.72463 0.02492
 C1518 C 0.63875 0.73638 0.04416
 H1519 H 0.60793 0.73749 0.06742
 H1520 H 0.60797 0.68178 0.01249
 H1521 H 0.64727 0.69573 -0.00150
 H1522 H 0.64721 0.75144 0.05345
 C1523 C 0.13341 0.05393 0.02381
 C1524 C 0.14453 0.04322 0.04409
 C1525 C 0.13330 0.02294 0.05472
 C1526 C 0.11116 0.01437 0.04604
 C1527 C 0.09963 0.02576 0.02647
 C1528 C 0.11126 0.04533 0.01516
 H1529 H 0.14143 0.06941 0.01487
 H1530 H 0.14124 0.01395 0.07020
 H1531 H 0.10277 -0.00080 0.05517
 H1532 H 0.10295 0.05451 -0.00000
 C1533 C 0.13325 0.55401 0.52292
 C1534 C 0.14439 0.54312 0.54301
 C1535 C 0.13330 0.52285 0.55364
 C1536 C 0.11114 0.51428 0.54501
 C1537 C 0.09952 0.52577 0.52553
 C1538 C 0.11108 0.54545 0.51429
 H1539 H 0.14132 0.56959 0.51420
 H1540 H 0.14141 0.51393 0.56906
 H1541 H 0.10280 0.49906 0.55410
 H1542 H 0.10270 0.55473 0.49923
 C1543 C 0.63371 0.02285 0.55308
 C1544 C 0.64476 0.04314 0.54241
 C1545 C 0.63332 0.05427 0.52263
 C1546 C 0.61096 0.04590 0.51431
 C1547 C 0.59947 0.02618 0.52557
 C1548 C 0.61134 0.01449 0.54478
 H1549 H 0.64203 0.01376 0.56829
 H1550 H 0.64134 0.06986 0.51389
 H1551 H 0.60238 0.05534 0.49945
 H1552 H 0.60308 -0.00077 0.55387
 C1553 C 0.63360 0.55299 0.02200
 C1554 C 0.64482 0.54212 0.04205
 C1555 C 0.63349 0.52220 0.05309
 C1556 C 0.61106 0.51394 0.04487
 C1557 C 0.59939 0.52541 0.02540
 C1558 C 0.61115 0.54475 0.01379
 H1559 H 0.64183 0.56831 0.01299
 H1560 H 0.64165 0.51330 0.06850
 H1561 H 0.60258 0.49897 0.05424
 H1562 H 0.60274 0.55399 -0.00129
 C1563 C 0.05507 0.02236 0.13370
 C1564 C 0.04395 0.04213 0.14535
 C1565 C 0.02338 0.05251 0.13447
 C1566 C 0.01491 0.04412 0.11217
 C1567 C 0.02665 0.02506 0.10013
 C1568 C 0.04654 0.01398 0.11140
 H1569 H 0.07079 0.01364 0.14144
 H1570 H 0.01408 0.06760 0.14280
 H1571 H -0.00053 0.05304 0.10408
 H1572 H 0.05602 -0.00079 0.10270
 C1573 C 0.02314 0.55370 0.63298
 C1574 C 0.04329 0.54299 0.64416
 C1575 C 0.05421 0.52291 0.63300
 C1576 C 0.04577 0.51434 0.61074
 C1577 C 0.02620 0.52565 0.59911
 C1578 C 0.01471 0.54514 0.61074
 H1579 H 0.01421 0.56912 0.64110
 H1580 H 0.06970 0.51413 0.64113
 H1581 H 0.05506 0.49928 0.60235
 H1582 H -0.00044 0.55427 0.60235
 C1583 C 0.55376 0.02297 0.63355
 C1584 C 0.54312 0.04330 0.64468
 C1585 C 0.52315 0.05423 0.63323
 C1586 C 0.51478 0.04575 0.61093
 C1587 C 0.52606 0.02609 0.59942
 C1588 C 0.54536 0.01453 0.61122
 H1589 H 0.56901 0.01383 0.64172
 H1590 H 0.51423 0.06977 0.64115
 H1591 H 0.49982 0.05508 0.60242
 H1592 H 0.55445 -0.00071 0.60294
 C1593 C 0.55369 0.52221 0.13356
 C1594 C 0.54255 0.54201 0.14499
 C1595 C 0.52238 0.55276 0.13388
 C1596 C 0.51414 0.54451 0.11144
 C1597 C 0.52584 0.52529 0.09957
 C1598 C 0.54543 0.51395 0.11112
 H1599 H 0.56919 0.51342 0.14163
 H1600 H 0.51329 0.56798 0.14219
 H1601 H 0.49896 0.55365 0.10312
 H1602 H 0.55487 0.49908 0.10255
 C1603 C 0.22577 0.55527 0.61897
 C1604 C 0.20592 0.54424 0.60748
 C1605 C 0.19492 0.52418 0.61860
 C1606 C 0.20315 0.51574 0.64096
 C1607 C 0.22263 0.52714 0.65272
 C1608 C 0.23402 0.54683 0.64131
 H1609 H 0.23473 0.57072 0.61093
 H1610 H 0.17961 0.51521 0.61027
 H1611 H 0.19393 0.50055 0.64920
 H1612 H 0.24906 0.55607 0.64982
 C1613 C 0.22505 0.05499 0.11797
 C1614 C 0.20504 0.04403 0.10654
 C1615 C 0.19428 0.02380 0.11775
 C1616 C 0.20275 0.01533 0.14001
 C1617 C 0.22226 0.02677 0.15166
 C1618 C 0.23350 0.04649 0.14019
 H1619 H 0.23403 0.07050 0.11003
 H1620 H 0.17894 0.01468 0.10962
 H1621 H 0.19366 0.00008 0.14830
 H1622 H 0.24859 0.05575 0.14861
 C1623 C 0.69468 0.22619 0.63172
 C1624 C 0.70591 0.20656 0.64333
 C1625 C 0.72609 0.19575 0.63232
 C1626 C 0.73444 0.20393 0.60993
 C1627 C 0.72283 0.22316 0.59802
 C1628 C 0.70304 0.23438 0.60933
 H1629 H 0.67912 0.23498 0.63969
 H1630 H 0.73522 0.18063 0.64075
 H1631 H 0.74973 0.19486 0.60177
 H1632 H 0.69364 0.24923 0.60069
 C1633 C 0.69713 0.72819 0.13357
 C1634 C 0.70801 0.70810 0.14472
 C1635 C 0.72794 0.69715 0.13338
 C1636 C 0.73618 0.70548 0.11101
 C1637 C 0.72470 0.72498 0.09940
 C1638 C 0.70536 0.73652 0.11118
 H1639 H 0.68181 0.73714 0.14181
 H1640 H 0.73685 0.68172 0.14148
 H1641 H 0.75115 0.69617 0.10252
 H1642 H 0.69610 0.75160 0.10281
 C1643 C 0.55325 0.72841 0.11577
 C1644 C 0.54202 0.70861 0.10434
 C1645 C 0.52207 0.69765 0.11566
 C1646 C 0.51411 0.70571 0.13824
 C1647 C 0.52589 0.72496 0.15007
 C1648 C 0.54529 0.73648 0.13836
 H1649 H 0.56861 0.73736 0.10755
 H1650 H 0.51291 0.68243 0.10736
 H1651 H 0.49907 0.69643 0.14668
 H1652 H 0.55477 0.75138 0.14690
 C1653 C 0.05550 0.72607 0.61889
 C1654 C 0.04437 0.70626 0.60739
 C1655 C 0.02425 0.69539 0.61850
 C1656 C 0.01587 0.70371 0.64085
 C1657 C 0.02737 0.72314 0.65263
 C1658 C 0.04712 0.73440 0.64123
 H1659 H 0.07101 0.73493 0.61086
 H1660 H 0.01519 0.68012 0.61017
 H1661 H 0.00062 0.69458 0.64907
 H1662 H 0.05644 0.74940 0.64977
 C1663 C 0.52228 0.61620 0.19709
 C1664 C 0.54242 0.60516 0.20797
 C1665 C 0.55344 0.61665 0.22783
 C1666 C 0.54511 0.63907 0.23600
 C1667 C 0.52556 0.65058 0.22452
 C1668 C 0.51396 0.63864 0.20525
 H1669 H 0.51328 0.60784 0.18181
 H1670 H 0.56891 0.60863 0.23673
 H1671 H 0.55447 0.64769 0.25092
 H1672 H 0.49884 0.64693 0.19599
 C1673 C 0.05514 0.61862 0.72603
 C1674 C 0.04415 0.60722 0.70611
 C1675 C 0.02418 0.61843 0.69509
 C1676 C 0.01580 0.64079 0.70340
 C1677 C 0.02717 0.65248 0.72296
 C1678 C 0.04676 0.64097 0.73435
 H1679 H 0.07053 0.61051 0.73500
 H1680 H 0.01524 0.61017 0.67972
 H1681 H 0.00068 0.64912 0.69417
 H1682 H 0.05598 0.64943 0.74945
 C1683 C 0.05385 0.13340 0.02360
 C1684 C 0.04304 0.14479 0.04368
 C1685 C 0.02277 0.13363 0.05438
 C1686 C 0.01431 0.11129 0.04598
 C1687 C 0.02579 0.09952 0.02660
 C1688 C 0.04536 0.11109 0.01522
 H1689 H 0.06933 0.14134 0.01462
 H1690 H 0.01371 0.14177 0.06972
 H1691 H -0.00085 0.10296 0.05514
 H1692 H 0.05461 0.10261 0.00019
 C1693 C 0.02293 0.63325 0.55378
 C1694 C 0.04308 0.64443 0.54304
 C1695 C 0.05385 0.63333 0.52285
 C1696 C 0.04529 0.61113 0.51423
 C1697 C 0.02574 0.59947 0.52557
 C1698 C 0.01437 0.61105 0.54515
 H1699 H 0.01411 0.64132 0.56928
 H1700 H 0.06932 0.64146 0.51404
 H1701 H 0.05448 0.60278 0.49909
 H1702 H -0.00074 0.60263 0.55433
 C1703 C 0.55302 0.13395 0.52246
 C1704 C 0.54231 0.14505 0.54267
 C1705 C 0.52226 0.13383 0.55355
 C1706 C 0.51379 0.11155 0.54507
 C1707 C 0.52515 0.09995 0.52550
 C1708 C 0.54455 0.11168 0.51398
 H1709 H 0.56841 0.14213 0.51354
 H1710 H 0.51349 0.14191 0.56907
 H1711 H 0.49878 0.10308 0.55436
 H1712 H 0.55371 0.10333 0.49883
 C1713 C 0.52168 0.63417 0.05250
 C1714 C 0.54152 0.64549 0.04134
 C1715 C 0.55244 0.63407 0.02142
 C1716 C 0.54430 0.61147 0.01344
 C1717 C 0.52502 0.59973 0.02517
 C1718 C 0.51353 0.61157 0.04452
 H1719 H 0.51276 0.64247 0.06783
 H1720 H 0.56769 0.64228 0.01231
 H1721 H 0.55356 0.60294 -0.00155
 H1722 H 0.49862 0.60310 0.05397
 C1723 C 0.69523 0.11777 0.52436
 C1724 C 0.70620 0.10630 0.54430
 C1725 C 0.72614 0.11777 0.55536
 C1726 C 0.73437 0.14025 0.54718
 C1727 C 0.72298 0.15190 0.52768
 C1728 C 0.70349 0.14024 0.51620
 H1729 H 0.67993 0.10965 0.51517
 H1730 H 0.73525 0.10964 0.57067
 H1731 H 0.74944 0.14867 0.55645
 H1732 H 0.69428 0.14865 0.50111
 C1733 C 0.69698 0.61638 0.02191
 C1734 C 0.70788 0.60521 0.04198
 C1735 C 0.72780 0.61658 0.05299
 C1736 C 0.73604 0.63901 0.04473
 C1737 C 0.72456 0.65063 0.02524
 C1738 C 0.70521 0.63883 0.01365
 H1739 H 0.68165 0.60812 0.01292
 H1740 H 0.73672 0.60846 0.06841
 H1741 H 0.75102 0.64752 0.05408
 H1742 H 0.69595 0.64720 -0.00143
 C1743 C 0.22531 0.63121 0.69453
 C1744 C 0.20532 0.64246 0.70545
 C1745 C 0.19453 0.63133 0.72560
 C1746 C 0.20310 0.60918 0.73420
 C1747 C 0.22269 0.59760 0.72288
 C1748 C 0.23388 0.60905 0.70313
 H1749 H 0.23410 0.63927 0.67901
 H1750 H 0.17914 0.63949 0.73450
 H1751 H 0.19402 0.60090 0.74944
 H1752 H 0.24900 0.60066 0.69395
 C1753 C 0.19503 0.13171 0.22490
 C1754 C 0.20555 0.14277 0.20448
 C1755 C 0.22526 0.13115 0.19328
 C1756 C 0.23367 0.10887 0.20177
 C1757 C 0.22268 0.09759 0.22171
 C1758 C 0.20346 0.10944 0.23334
 H1759 H 0.17993 0.13997 0.23421
 H1760 H 0.23402 0.13896 0.17761
 H1761 H 0.24852 0.10029 0.19235
 H1762 H 0.19457 0.10131 0.24878
 C1763 C 0.69635 1.13362 0.72760
 C1764 C 0.70713 1.14478 0.70747
 C1765 C 0.72722 1.13364 0.69662
 C1766 C 0.73570 1.11139 0.70506
 C1767 C 0.72430 1.09975 0.72458
 C1768 C 0.70483 1.11138 0.73605
 H1769 H 0.68092 1.14173 0.73648
 H1770 H 0.73605 1.14177 0.68115
 H1771 H 0.75076 1.10300 0.69581
 H1772 H 0.69563 1.10298 0.75115
 C1773 C 0.72668 0.63237 0.19511
 C1774 C 0.70694 0.64376 0.20635
 C1775 C 0.69591 0.63231 0.22618
 C1776 C 0.70404 0.60976 0.23420
 C1777 C 0.72343 0.59810 0.22260
 C1778 C 0.73481 0.60982 0.20312
 H1779 H 0.73564 0.64066 0.17981
 H1780 H 0.68069 0.64055 0.23530
 H1781 H 0.69483 0.60130 0.24925
 H1782 H 0.74978 0.60140 0.19375
 C1783 C 0.55422 0.11787 0.72605
 C1784 C 0.54327 0.10662 0.70601
 C1785 C 0.52354 0.11809 0.69484
 C1786 C 0.51535 0.14055 0.70312
 C1787 C 0.52669 0.15208 0.72279
 C1788 C 0.54604 0.14031 0.73433
 H1789 H 0.56943 0.10956 0.73514
 H1790 H 0.51464 0.10996 0.67938
 H1791 H 0.50041 0.14906 0.69377
 H1792 H 0.55522 0.14863 0.74953
 C1793 C 1.02284 0.11549 0.19674
 C1794 C 1.04305 0.10450 0.20755
 C1795 C 1.05395 0.11591 0.22753
 C1796 C 1.04545 0.13821 0.23587
 C1797 C 1.02584 0.14967 0.22445
 C1798 C 1.01435 0.13781 0.20507
 H1799 H 1.01393 0.10719 0.18138
 H1800 H 1.06947 0.10793 0.23639
 H1801 H 1.05474 0.14677 0.25087
 H1802 H 0.99919 0.14607 0.19585
 C1803 C 0.22586 0.61898 0.55587
 C1804 C 0.20621 0.60742 0.54457
 C1805 C 0.19552 0.61848 0.52433
 C1806 C 0.20386 0.64084 0.51597
 C1807 C 0.22314 0.65269 0.52763
 C1808 C 0.23422 0.64134 0.54751
 H1809 H 0.23457 0.61100 0.57148
 H1810 H 0.18037 0.61009 0.51514
 H1811 H 0.19488 0.64902 0.50062
 H1812 H 0.24909 0.64994 0.55696
 C1813 C 0.22558 0.11799 1.05577
 C1814 C 0.20576 0.10656 1.04461
 C1815 C 0.19499 0.11771 1.02446
 C1816 C 0.20340 0.14004 1.01609
 C1817 C 0.22282 0.15177 1.02764
 C1818 C 0.23400 0.14032 1.04739
 H1819 H 0.23436 0.10993 1.07130
 H1820 H 0.17972 0.10942 1.01539
 H1821 H 0.19434 0.14831 1.00083
 H1822 H 0.24898 0.14881 1.05675
 C1823 C 0.19441 0.72564 0.63130
 C1824 C 0.20529 0.70557 0.64249
 C1825 C 0.22538 0.69475 0.63133
 C1826 C 0.23398 0.70338 0.60920
 C1827 C 0.22271 0.72305 0.59769
 C1828 C 0.20301 0.73427 0.60917
 H1829 H 0.17893 0.73446 0.63939
 H1830 H 0.23425 0.67930 0.63944
 H1831 H 0.24918 0.69427 0.60090
 H1832 H 0.19387 0.74944 0.60083
 C1833 C 0.19482 0.22489 1.13225
 C1834 C 0.20543 0.20447 1.14321
 C1835 C 0.22519 0.19341 1.13155
 C1836 C 0.23357 0.20205 1.10934
 C1837 C 0.22248 0.22199 1.09814
 C1838 C 0.20320 0.23348 1.11002
 H1839 H 0.17966 0.23409 1.14055
 H1840 H 0.23404 0.17775 1.13929
 H1841 H 0.24847 0.19273 1.10073
 H1842 H 0.19424 0.24890 1.10194
 C1843 C 0.69577 0.52342 0.11742
 C1844 C 0.70688 0.54325 0.10601
 C1845 C 0.72669 0.55445 0.11742
 C1846 C 0.73479 0.54641 0.13996
 C1847 C 0.72330 0.52695 0.15165
 C1848 C 0.70387 0.51537 0.13996
 H1849 H 0.68050 0.51433 0.10916
 H1850 H 0.73572 0.56975 0.10916
 H1851 H 0.74980 0.55577 0.14840
 H1852 H 0.69458 0.50033 0.14841
 C1853 C 0.69706 1.02261 0.61633
 C1854 C 0.70787 1.04285 0.60534
 C1855 C 0.72779 1.05382 0.61675
 C1856 C 0.73609 1.04536 0.63907
 C1857 C 0.72468 1.02571 0.65053
 C1858 C 0.70535 1.01415 0.63866
 H1859 H 0.68174 1.01364 0.60802
 H1860 H 0.73665 1.06936 0.60877
 H1861 H 0.75105 1.05469 0.64763
 H1862 H 0.69613 0.99896 0.64692
 C1863 C 0.55512 0.22642 0.61864
 C1864 C 0.54381 0.20679 0.60700
 C1865 C 0.52361 0.19599 0.61802
 C1866 C 0.51531 0.20418 0.64043
 C1867 C 0.52699 0.22341 0.65238
 C1868 C 0.54681 0.23462 0.64106
 H1869 H 0.57069 0.23520 0.61068
 H1870 H 0.51442 0.18087 0.60956
 H1871 H 0.49999 0.19511 0.64859
 H1872 H 0.55627 0.24946 0.64972
 C1873 C 1.05439 0.22640 0.11657
 C1874 C 1.04337 0.20638 0.10516
 C1875 C 1.02304 0.19579 0.11630
 C1876 C 1.01469 0.20424 0.13860
 C1877 C 1.02635 0.22357 0.15038
 C1878 C 1.04600 0.23483 0.13887
 H1879 H 1.06993 0.23529 0.10864
 H1880 H 1.01382 0.18050 0.10815
 H1881 H 0.99944 0.19517 0.14688
 H1882 H 1.05539 0.24981 0.14737
 C1883 C 0.63169 0.19535 0.72627
 C1884 C 0.64284 0.20634 0.70624
 C1885 C 0.63133 0.22610 0.69513
 C1886 C 0.60895 0.23426 0.70347
 C1887 C 0.59751 0.22288 0.72312
 C1888 C 0.60930 0.20350 0.73460
 H1889 H 0.64004 0.18011 0.73530
 H1890 H 0.63939 0.23504 0.67970
 H1891 H 0.60041 0.24923 0.69417
 H1892 H 0.60104 0.19430 0.74977
 C1893 C 1.13325 0.19511 0.22659
 C1894 C 1.14440 0.20599 0.20650
 C1895 C 1.13339 0.22630 0.19589
 C1896 C 1.11129 0.23492 0.20454
 C1897 C 1.09966 0.22344 0.22403
 C1898 C 1.11115 0.20373 0.23524
 H1899 H 1.14125 0.17951 0.23529
 H1900 H 1.14150 0.23521 0.18047
 H1901 H 1.10301 0.25016 0.19547
 H1902 H 1.10275 0.19445 0.25030
 C1903 C 0.11877 0.72615 0.55544
 C1904 C 0.10730 0.70633 0.54431
 C1905 C 0.11840 0.69545 0.52418
 C1906 C 0.14073 0.70379 0.51579
 C1907 C 0.15249 0.72323 0.52728
 C1908 C 0.14109 0.73450 0.54703
 H1909 H 0.11075 0.73501 0.57095
 H1910 H 0.11008 0.68017 0.51514
 H1911 H 0.14896 0.69466 0.50054
 H1912 H 0.14960 0.74950 0.55636
 C1913 C 0.11793 0.19472 1.02418
 C1914 C 0.10654 0.20589 1.04398
 C1915 C 0.11788 0.22586 1.05499
 C1916 C 0.14033 0.23405 1.04683
 C1917 C 0.15202 0.22250 1.02742
 C1918 C 0.14039 0.20292 1.01600
 H1919 H 0.10972 0.17932 1.01522
 H1920 H 0.10963 0.23494 1.07026
 H1921 H 0.14872 0.24918 1.05606
 H1922 H 0.14884 0.19357 1.00101
 C1923 C 0.61795 0.52349 0.19574
 C1924 C 0.60664 0.54339 0.20685
 C1925 C 0.61819 0.55465 0.22654
 C1926 C 0.64076 0.54661 0.23453
 C1927 C 0.65234 0.52708 0.22304
 C1928 C 0.64051 0.51545 0.20372
 H1929 H 0.60958 0.51434 0.18055
 H1930 H 0.61002 0.57000 0.23555
 H1931 H 0.64932 0.55601 0.24946
 H1932 H 0.64886 0.50036 0.19444
 C1933 C 0.61656 1.05382 0.72708
 C1934 C 0.60538 1.04282 0.70702
 C1935 C 0.61663 1.02275 0.69621
 C1936 C 0.63894 1.01445 0.70466
 C1937 C 0.65055 1.02601 0.72416
 C1938 C 0.63887 1.04553 0.73554
 H1939 H 0.60838 1.06926 0.73594
 H1940 H 0.60851 1.01376 0.68079
 H1941 H 0.64737 0.99935 0.69546
 H1942 H 0.64724 1.05486 0.75061
 C1943 C 0.88340 0.44615 0.27292
 C1944 C 0.89448 0.45684 0.29319
 C1945 C 0.88338 0.47700 0.30402
 C1946 C 0.86126 0.48564 0.29539
 C1947 C 0.84971 0.47434 0.27572
 C1948 C 0.86129 0.45479 0.26429
 H1949 H 0.89148 0.43067 0.26404
 H1950 H 0.89144 0.48577 0.31959
 H1951 H 0.85291 0.50075 0.30464
 H1952 H 0.85296 0.44564 0.24908
 C1953 C 0.88134 0.97625 0.80636
 C1954 C 0.89293 0.95660 0.79512
 C1955 C 0.88196 0.94584 0.77483
 C1956 C 0.85965 0.95410 0.76637
 C1957 C 0.84776 0.97336 0.77797
 C1958 C 0.85903 0.98453 0.79789
 H1959 H 0.88927 0.98500 0.82200
 H1960 H 0.89037 0.93070 0.76568
 H1961 H 0.85152 0.94506 0.75098
 H1962 H 0.85040 0.99938 0.80730
 C1963 C 0.36568 0.30238 0.77214
 C1964 C 0.35441 0.29140 0.79210
 C1965 C 0.36586 0.27165 0.80329
 C1966 C 0.38843 0.26365 0.79527
 C1967 C 0.40010 0.27520 0.77586
 C1968 C 0.38824 0.29439 0.76413
 H1969 H 0.35736 0.31757 0.76302
 H1970 H 0.35768 0.26269 0.81865
 H1971 H 0.39698 0.24879 0.80472
 H1972 H 0.39665 0.30369 0.74909
 C1973 C 0.86831 0.27330 0.30466
 C1974 C 0.85694 0.29307 0.29341
 C1975 C 0.86833 0.30403 0.27351
 C1976 C 0.89080 0.29582 0.26543
 C1977 C 0.90245 0.27642 0.27704
 C1978 C 0.89079 0.26509 0.29659
 H1979 H 0.86007 0.26439 0.32001
 H1980 H 0.86011 0.31927 0.26438
 H1981 H 0.89923 0.30500 0.25033
 H1982 H 0.89921 0.25012 0.30598
 C1983 C 0.38348 0.77332 0.44621
 C1984 C 0.39464 0.79348 0.45706
 C1985 C 0.38355 0.80424 0.47725
 C1986 C 0.36136 0.79569 0.48575
 C1987 C 0.34972 0.77614 0.47429
 C1988 C 0.36129 0.76476 0.45472
 H1989 H 0.39155 0.76450 0.43071
 H1990 H 0.39168 0.81972 0.48614
 H1991 H 0.35302 0.80488 0.50090
 H1992 H 0.35288 0.74965 0.44545
 C1993 C 0.38340 0.30353 0.97801
 C1994 C 0.39480 0.29251 0.95814
 C1995 C 0.38371 0.27233 0.94726
 C1996 C 0.36133 0.26395 0.95546
 C1997 C 0.34950 0.27553 0.97476
 C1998 C 0.36104 0.29514 0.98622
 H1999 H 0.39146 0.31904 0.98691
 H2000 H 0.39199 0.26333 0.93197
 H2001 H 0.35301 0.24877 0.94622
 H2002 H 0.35251 0.30449 1.00116
 C2003 C 0.80301 0.47787 0.38357
 C2004 C 0.79201 0.45792 0.39488
 C2005 C 0.77205 0.44687 0.38360
 C2006 C 0.76389 0.45498 0.36110
 C2007 C 0.77549 0.47434 0.34936
 C2008 C 0.79485 0.48598 0.36109
 H2009 H 0.81835 0.48690 0.39178
 H2010 H 0.76308 0.43152 0.39182
 H2011 H 0.74890 0.44561 0.35264
 H2012 H 0.80418 0.50099 0.35264
 C2013 C 0.77544 0.94387 0.88119
 C2014 C 0.79555 0.95481 0.89233
 C2015 C 0.80616 0.97510 0.88126
 C2016 C 0.79730 0.98382 0.85926
 C2017 C 0.77760 0.97248 0.84778
 C2018 C 0.76658 0.95259 0.85919
 H2019 H 0.76678 0.92824 0.88922
 H2020 H 0.82163 0.98402 0.88933
 H2021 H 0.80627 0.99916 0.85101
 H2022 H 0.75141 0.94338 0.85088
 C2023 C 0.30363 0.77337 0.36653
 C2024 C 0.29280 0.79341 0.35525
 C2025 C 0.27279 0.80438 0.36643
 C2026 C 0.26440 0.79608 0.38878
 C2027 C 0.27580 0.77660 0.40048
 C2028 C 0.29524 0.76507 0.38886
 H2029 H 0.31901 0.76439 0.35841
 H2030 H 0.26394 0.81979 0.35823
 H2031 H 0.24937 0.80539 0.39716
 H2032 H 0.30445 0.74999 0.39729
 C2033 C 0.27171 0.30271 0.86653
 C2034 C 0.29145 0.29152 0.85510
 C2035 C 0.30241 0.27157 0.86641
 C2036 C 0.29441 0.26356 0.88899
 C2037 C 0.27522 0.27530 0.90083
 C2038 C 0.26370 0.29471 0.88913
 H2039 H 0.26276 0.31806 0.85833
 H2040 H 0.31760 0.26244 0.85811
 H2041 H 0.30370 0.24853 0.89742
 H2042 H 0.24885 0.30416 0.89767
 C2043 C 0.44716 0.27224 0.88430
 C2044 C 0.45794 0.29247 0.89540
 C2045 C 0.47781 0.30353 0.88404
 C2046 C 0.48608 0.29516 0.86167
 C2047 C 0.47468 0.27554 0.85011
 C2048 C 0.45542 0.26389 0.86192
 H2049 H 0.43189 0.26320 0.89256
 H2050 H 0.48664 0.31907 0.89210
 H2051 H 0.50099 0.30457 0.85314
 H2052 H 0.44623 0.24869 0.85359
 C2053 C 0.94554 0.27398 0.38178
 C2054 C 0.95629 0.29426 0.39282
 C2055 C 0.97599 0.30546 0.38132
 C2056 C 0.98434 0.29699 0.35902
 C2057 C 0.97319 0.27710 0.34767
 C2058 C 0.95388 0.26551 0.35948
 H2059 H 0.93036 0.26486 0.39012
 H2060 H 0.98474 0.32110 0.38930
 H2061 H 0.99924 0.30638 0.35046
 H2062 H 0.94485 0.25014 0.35129
 C2063 C 0.47759 0.38374 0.80390
 C2064 C 0.45776 0.39517 0.79288
 C2065 C 0.44682 0.38404 0.77276
 C2066 C 0.45492 0.36157 0.76447
 C2067 C 0.47416 0.34970 0.77608
 C2068 C 0.48569 0.36129 0.79561
 H2069 H 0.48652 0.39183 0.81936
 H2070 H 0.43157 0.39235 0.76376
 H2071 H 0.44564 0.35322 0.74935
 H2072 H 0.50060 0.35273 0.80496
 C2073 C 0.97597 0.38112 0.30529
 C2074 C 0.95612 0.39252 0.29426
 C2075 C 0.94522 0.38134 0.27415
 C2076 C 0.95355 0.35901 0.26568
 C2077 C 0.97303 0.34732 0.27710
 C2078 C 0.98432 0.35881 0.29682
 H2079 H 0.98486 0.38921 0.32078
 H2080 H 0.92991 0.38959 0.26517
 H2081 H 0.94440 0.35070 0.25046
 H2082 H 0.99935 0.35036 0.30608
 C2083 C 0.27273 0.88444 0.44693
 C2084 C 0.29301 0.89550 0.45762
 C2085 C 0.30409 0.88413 0.47747
 C2086 C 0.29569 0.86178 0.48581
 C2087 C 0.27600 0.85026 0.47452
 C2088 C 0.26434 0.86209 0.45527
 H2089 H 0.26367 0.89271 0.43168
 H2090 H 0.31967 0.89216 0.48622
 H2091 H 0.30511 0.85324 0.50070
 H2092 H 0.24910 0.85379 0.44615
 C2093 C 0.30385 0.38340 0.97843
 C2094 C 0.29271 0.39483 0.95864
 C2095 C 0.27239 0.38379 0.94800
 C2096 C 0.26402 0.36142 0.95631
 C2097 C 0.27574 0.34954 0.97550
 C2098 C 0.29547 0.36104 0.98676
 H2099 H 0.31947 0.39142 0.98714
 H2100 H 0.26328 0.39211 0.93280
 H2101 H 0.24875 0.35315 0.94723
 H2102 H 0.30494 0.35245 1.00159
 C2103 C 0.80409 0.36654 0.27227
 C2104 C 0.79297 0.35510 0.29205
 C2105 C 0.77272 0.36614 0.30272
 C2106 C 0.76438 0.38851 0.29440
 C2107 C 0.77606 0.40038 0.27519
 C2108 C 0.79575 0.38890 0.26394
 H2109 H 0.81966 0.35853 0.26353
 H2110 H 0.76362 0.35783 0.31792
 H2111 H 0.74914 0.39677 0.30349
 H2112 H 0.80519 0.39748 0.24909
   
