data_POSCAR
  _audit_creation_date              2014-09-24
  _audit_creation_method            'ToBaCCo'
  _symmetry_space_group_name_H-M    'P1'
  _symmetry_Int_Tables_number       1
  _symmetry_cell_setting            triclinic
  loop_
  _symmetry_equiv_pos_as_xyz
 x,y,z
_cell_length_a 81.3829
_cell_length_b 81.3916
_cell_length_c 81.4578
_cell_angle_alpha 90.013200
_cell_angle_beta 89.985500
_cell_angle_gamma 89.898500
loop_
  _atom_site_label
  _atom_site_type_symbol
  _atom_site_fract_x
  _atom_site_fract_y
  _atom_site_fract_z
C1 C 0.35747 0.33329 0.34566
 C2 C 0.34528 0.33331 0.35783
 C3 C 0.33324 0.34537 0.35783
 C4 C 0.33323 0.35755 0.34566
 C5 C 0.34527 0.35753 0.33363
 C6 C 0.35746 0.34533 0.33362
 C7 C 0.37030 0.32276 0.34228
 N8 N 0.37797 0.32820 0.32856
 C9 C 0.37029 0.34193 0.32312
 C10 C 0.34189 0.37035 0.32312
 N11 N 0.32817 0.37805 0.32857
 C12 C 0.32272 0.37039 0.34228
 C13 C 0.32273 0.34201 0.37065
 N14 N 0.32819 0.32829 0.37832
 C15 C 0.34191 0.32282 0.37065
 H16 H 0.37365 0.31184 0.34908
 H17 H 0.37363 0.34873 0.31220
 H18 H 0.34870 0.37368 0.31220
 H19 H 0.31179 0.37375 0.34909
 H20 H 0.31180 0.34884 0.37400
 H21 H 0.34873 0.31188 0.37399
 C22 C 0.35771 0.83342 -0.15495
 C23 C 0.34552 0.83343 -0.14278
 C24 C 0.33346 0.84547 -0.14278
 C25 C 0.33345 0.85765 -0.15496
 C26 C 0.34550 0.85764 -0.16699
 C27 C 0.35770 0.84546 -0.16699
 C28 C 0.37056 0.82290 -0.15831
 N29 N 0.37823 0.82835 -0.17202
 C30 C 0.37054 0.84208 -0.17748
 C31 C 0.34211 0.87047 -0.17750
 N32 N 0.32838 0.87815 -0.17204
 C33 C 0.32292 0.87048 -0.15833
 C34 C 0.32296 0.84211 -0.12997
 N35 N 0.32842 0.82839 -0.12229
 C36 C 0.34215 0.82293 -0.12996
 H37 H 0.37390 0.81197 -0.15148
 H38 H 0.37387 0.84890 -0.18840
 H39 H 0.34894 0.87379 -0.18841
 H40 H 0.31199 0.87382 -0.15151
 H41 H 0.31202 0.84893 -0.12663
 H42 H 0.34898 0.81201 -0.12661
 C43 C 0.85759 0.33350 -0.15489
 C44 C 0.84541 0.33351 -0.14272
 C45 C 0.83336 0.34557 -0.14271
 C46 C 0.83336 0.35776 -0.15487
 C47 C 0.84540 0.35775 -0.16690
 C48 C 0.85759 0.34555 -0.16692
 C49 C 0.87043 0.32297 -0.15827
 N50 N 0.87810 0.32843 -0.17198
 C51 C 0.87042 0.34217 -0.17742
 C52 C 0.84203 0.37059 -0.17739
 N53 N 0.82830 0.37828 -0.17192
 C54 C 0.82284 0.37061 -0.15822
 C55 C 0.82286 0.34220 -0.12989
 N56 N 0.82831 0.32847 -0.12223
 C57 C 0.84203 0.32300 -0.12991
 H58 H 0.87376 0.31204 -0.15146
 H59 H 0.87375 0.34900 -0.18834
 H60 H 0.84886 0.37392 -0.18831
 H61 H 0.81191 0.37395 -0.15139
 H62 H 0.81193 0.34903 -0.12653
 H63 H 0.84886 0.31207 -0.12658
 C64 C 0.85778 0.83359 0.34549
 C65 C 0.84560 0.83360 0.35767
 C66 C 0.83354 0.84564 0.35767
 C67 C 0.83350 0.85781 0.34549
 C68 C 0.84554 0.85780 0.33345
 C69 C 0.85775 0.84562 0.33344
 C70 C 0.87063 0.82308 0.34212
 N71 N 0.87828 0.82853 0.32840
 C72 C 0.87058 0.84225 0.32293
 C73 C 0.84214 0.87062 0.32294
 N74 N 0.82840 0.87829 0.32840
 C75 C 0.82296 0.87064 0.34212
 C76 C 0.82305 0.84227 0.37050
 N77 N 0.82853 0.82857 0.37818
 C78 C 0.84226 0.82311 0.37050
 H79 H 0.87399 0.81216 0.34894
 H80 H 0.87389 0.84907 0.31201
 H81 H 0.84895 0.87395 0.31201
 H82 H 0.81203 0.87397 0.34895
 H83 H 0.81211 0.84909 0.37385
 H84 H 0.84910 0.81219 0.37384
 C85 C 0.64250 0.66677 0.34563
 C86 C 0.65467 0.66675 0.35781
 C87 C 0.66670 0.65468 0.35783
 C88 C 0.66670 0.64248 0.34567
 C89 C 0.65467 0.64250 0.33363
 C90 C 0.64250 0.65472 0.33361
 C91 C 0.62968 0.67731 0.34224
 N92 N 0.62201 0.67186 0.32853
 C93 C 0.62968 0.65811 0.32310
 C94 C 0.65804 0.62965 0.32315
 N95 N 0.67175 0.62195 0.32860
 C96 C 0.67720 0.62962 0.34231
 C97 C 0.67720 0.65805 0.37065
 N98 N 0.67176 0.67179 0.37830
 C99 C 0.65805 0.67727 0.37062
 H100 H 0.62634 0.68825 0.34903
 H101 H 0.62634 0.65129 0.31219
 H102 H 0.65123 0.62632 0.31223
 H103 H 0.68812 0.62626 0.34912
 H104 H 0.68812 0.65120 0.37400
 H105 H 0.65124 0.68821 0.37395
 C106 C 0.64218 0.16657 -0.15487
 C107 C 0.65437 0.16657 -0.14270
 C108 C 0.66643 0.15453 -0.14269
 C109 C 0.66645 0.14234 -0.15486
 C110 C 0.65440 0.14233 -0.16689
 C111 C 0.64220 0.15452 -0.16689
 C112 C 0.62933 0.17708 -0.15823
 N113 N 0.62167 0.17161 -0.17194
 C114 C 0.62936 0.15788 -0.17739
 C115 C 0.65779 0.12949 -0.17738
 N116 N 0.67153 0.12182 -0.17192
 C117 C 0.67698 0.12950 -0.15822
 C118 C 0.67693 0.15791 -0.12988
 N119 N 0.67146 0.17163 -0.12222
 C120 C 0.65773 0.17709 -0.12988
 H121 H 0.62599 0.18801 -0.15141
 H122 H 0.62604 0.15104 -0.18830
 H123 H 0.65097 0.12615 -0.18830
 H124 H 0.68791 0.12617 -0.15140
 H125 H 0.68786 0.15109 -0.12654
 H126 H 0.65090 0.18801 -0.12654
 C127 C 0.14229 0.66650 -0.15483
 C128 C 0.15449 0.66648 -0.14267
 C129 C 0.16653 0.65442 -0.14267
 C130 C 0.16652 0.64223 -0.15484
 C131 C 0.15447 0.64224 -0.16686
 C132 C 0.14228 0.65445 -0.16686
 C133 C 0.12946 0.67703 -0.15819
 N134 N 0.12178 0.67158 -0.17189
 C135 C 0.12945 0.65784 -0.17735
 C136 C 0.15783 0.62940 -0.17736
 N137 N 0.17155 0.62171 -0.17191
 C138 C 0.17703 0.62938 -0.15821
 C139 C 0.17704 0.65779 -0.12986
 N140 N 0.17159 0.67152 -0.12219
 C141 C 0.15787 0.67699 -0.12986
 H142 H 0.12614 0.68797 -0.15136
 H143 H 0.12611 0.65101 -0.18826
 H144 H 0.15099 0.62607 -0.18827
 H145 H 0.18796 0.62603 -0.15140
 H146 H 0.18797 0.65095 -0.12653
 H147 H 0.15105 0.68793 -0.12651
 C148 C 0.14237 0.16663 0.34528
 C149 C 0.15452 0.16659 0.35748
 C150 C 0.16658 0.15454 0.35748
 C151 C 0.16662 0.14239 0.34528
 C152 C 0.15461 0.14242 0.33321
 C153 C 0.14241 0.15462 0.33322
 C154 C 0.12954 0.17716 0.34191
 N155 N 0.12191 0.17173 0.32817
 C156 C 0.12961 0.15802 0.32269
 C157 C 0.15802 0.12962 0.32269
 N158 N 0.17174 0.12192 0.32816
 C159 C 0.17716 0.12956 0.34190
 C160 C 0.17705 0.15788 0.37033
 N161 N 0.17156 0.17159 0.37802
 C162 C 0.15786 0.17706 0.37033
 H163 H 0.12618 0.18808 0.34875
 H164 H 0.12631 0.15122 0.31175
 H165 H 0.15122 0.12631 0.31174
 H166 H 0.18807 0.12620 0.34874
 H167 H 0.18797 0.15105 0.37368
 H168 H 0.15102 0.18799 0.37369
 C169 C 0.64242 0.33330 0.65455
 C170 C 0.65459 0.33332 0.64236
 C171 C 0.66662 0.34535 0.64236
 C172 C 0.66662 0.35751 0.65455
 C173 C 0.65459 0.35750 0.66660
 C174 C 0.64242 0.34533 0.66660
 C175 C 0.62961 0.32280 0.65793
 N176 N 0.62195 0.32823 0.67166
 C177 C 0.62961 0.34194 0.67712
 C178 C 0.65797 0.37031 0.67712
 N179 N 0.67168 0.37798 0.67167
 C180 C 0.67712 0.37033 0.65794
 C181 C 0.67711 0.34198 0.62953
 N182 N 0.67167 0.32828 0.62184
 C183 C 0.65797 0.32282 0.62952
 H184 H 0.62627 0.31188 0.65111
 H185 H 0.62628 0.34874 0.68805
 H186 H 0.65117 0.37364 0.68805
 H187 H 0.68803 0.37367 0.65112
 H188 H 0.68803 0.34879 0.62618
 H189 H 0.65116 0.31190 0.62618
 C190 C 0.64192 0.83334 1.15478
 C191 C 0.65409 0.83333 1.14258
 C192 C 0.66615 0.84533 1.14260
 C193 C 0.66620 0.85747 1.15481
 C194 C 0.65418 0.85748 1.16687
 C195 C 0.64197 0.84535 1.16685
 C196 C 0.62908 0.82286 1.15814
 N197 N 0.62144 0.82832 1.17188
 C198 C 0.62915 0.84199 1.17737
 C199 C 0.65760 0.87027 1.17739
 N200 N 0.67133 0.87791 1.17194
 C201 C 0.67673 0.87025 1.15820
 C202 C 0.67663 0.84195 1.12976
 N203 N 0.67115 0.82827 1.12205
 C204 C 0.65743 0.82285 1.12973
 H205 H 0.62571 0.81197 1.15129
 H206 H 0.62585 0.84880 1.18831
 H207 H 0.65081 0.87361 1.18834
 H208 H 0.68765 0.87357 1.15138
 H209 H 0.68757 0.84874 1.12642
 H210 H 0.65059 0.81196 1.12636
 C211 C 0.14203 0.33326 1.15475
 C212 C 0.15419 0.33329 1.14255
 C213 C 0.16619 0.34535 1.14253
 C214 C 0.16618 0.35752 1.15471
 C215 C 0.15417 0.35749 1.16678
 C216 C 0.14202 0.34529 1.16680
 C217 C 0.12925 0.32272 1.15815
 N218 N 0.12159 0.32816 1.17188
 C219 C 0.12923 0.34189 1.17734
 C220 C 0.15753 0.37032 1.17728
 N221 N 0.17121 0.37802 1.17180
 C222 C 0.17665 0.37036 1.15807
 C223 C 0.17667 0.34200 1.12968
 N224 N 0.17125 0.32828 1.12201
 C225 C 0.15757 0.32280 1.12971
 H226 H 0.12594 0.31180 1.15132
 H227 H 0.12590 0.34870 1.18827
 H228 H 0.15073 0.37365 1.18822
 H229 H 0.18755 0.37373 1.15123
 H230 H 0.18757 0.34883 1.12632
 H231 H 0.15078 0.31186 1.12638
 C232 C 0.14266 0.83375 0.65481
 C233 C 0.15481 0.83378 0.64260
 C234 C 0.16684 0.84581 0.64260
 C235 C 0.16686 0.85796 0.65481
 C236 C 0.15486 0.85793 0.66688
 C237 C 0.14269 0.84575 0.66688
 C238 C 0.12986 0.82324 0.65818
 N239 N 0.12221 0.82865 0.67193
 C240 C 0.12989 0.84235 0.67741
 C241 C 0.15824 0.87072 0.67742
 N242 N 0.17194 0.87840 0.67194
 C243 C 0.17737 0.87077 0.65819
 C244 C 0.17731 0.84247 0.62973
 N245 N 0.17185 0.82878 0.62204
 C246 C 0.15816 0.82331 0.62973
 H247 H 0.12650 0.81234 0.65134
 H248 H 0.12657 0.84913 0.68836
 H249 H 0.15144 0.87402 0.68837
 H250 H 0.18828 0.87411 0.65134
 H251 H 0.18822 0.84928 0.62638
 H252 H 0.15134 0.81240 0.62638
 C253 C 0.35755 0.66650 0.65446
 C254 C 0.34539 0.66650 0.64226
 C255 C 0.33335 0.65448 0.64226
 C256 C 0.33332 0.64232 0.65445
 C257 C 0.34534 0.64232 0.66651
 C258 C 0.35752 0.65448 0.66651
 C259 C 0.37037 0.67699 0.65784
 N260 N 0.37801 0.67156 0.67157
 C261 C 0.37033 0.65787 0.67703
 C262 C 0.34194 0.62953 0.67702
 N263 N 0.32823 0.62187 0.67157
 C264 C 0.32281 0.62952 0.65783
 C265 C 0.32287 0.65785 0.62942
 N266 N 0.32834 0.67155 0.62174
 C267 C 0.34204 0.67699 0.62942
 H268 H 0.37372 0.68790 0.65102
 H269 H 0.37364 0.65107 0.68797
 H270 H 0.34873 0.62620 0.68796
 H271 H 0.31189 0.62619 0.65101
 H272 H 0.31195 0.65106 0.62607
 H273 H 0.34887 0.68790 0.62608
 C274 C 0.35744 0.16618 1.15457
 C275 C 0.34526 0.16619 1.14240
 C276 C 0.33320 0.15419 1.14242
 C277 C 0.33318 0.14204 1.15461
 C278 C 0.34522 0.14203 1.16665
 C279 C 0.35741 0.15417 1.16663
 C280 C 0.37028 0.17666 1.15793
 N281 N 0.37794 0.17122 1.17165
 C282 C 0.37024 0.15754 1.17712
 C283 C 0.34182 0.12923 1.17718
 N284 N 0.32809 0.12159 1.17173
 C285 C 0.32264 0.12925 1.15801
 C286 C 0.32270 0.15757 1.12959
 N287 N 0.32818 0.17126 1.12190
 C288 C 0.34190 0.17668 1.12956
 H289 H 0.37364 0.18756 1.15109
 H290 H 0.37357 0.15074 1.18805
 H291 H 0.34864 0.12591 1.18811
 H292 H 0.31171 0.12594 1.15119
 H293 H 0.31177 0.15079 1.12626
 H294 H 0.34873 0.18758 1.12620
 C295 C 0.85758 0.66664 1.15463
 C296 C 0.84542 0.66660 1.14244
 C297 C 0.83343 0.65452 1.14242
 C298 C 0.83346 0.64235 1.15461
 C299 C 0.84548 0.64240 1.16666
 C300 C 0.85761 0.65461 1.16667
 C301 C 0.87035 0.67719 1.15802
 N302 N 0.87803 0.67177 1.17175
 C303 C 0.87040 0.65804 1.17719
 C304 C 0.84214 0.62957 1.17716
 N305 N 0.82846 0.62185 1.17169
 C306 C 0.82301 0.62950 1.15797
 C307 C 0.82294 0.65786 1.12959
 N308 N 0.82834 0.67159 1.12192
 C309 C 0.84202 0.67708 1.12961
 H310 H 0.87366 0.68812 1.15121
 H311 H 0.87376 0.65124 1.18812
 H312 H 0.84895 0.62626 1.18809
 H313 H 0.81211 0.62612 1.15115
 H314 H 0.81205 0.65101 1.12623
 H315 H 0.84879 0.68803 1.12627
 C316 C 0.85804 0.16680 0.65486
 C317 C 0.84590 0.16677 0.64264
 C318 C 0.83387 0.15473 0.64263
 C319 C 0.83384 0.14260 0.65485
 C320 C 0.84583 0.14263 0.66692
 C321 C 0.85800 0.15480 0.66693
 C322 C 0.87084 0.17732 0.65824
 N323 N 0.87846 0.17189 0.67200
 C324 C 0.87078 0.15820 0.67747
 C325 C 0.84241 0.12984 0.67745
 N326 N 0.82872 0.12216 0.67197
 C327 C 0.82333 0.12979 0.65822
 C328 C 0.82341 0.15807 0.62977
 N329 N 0.82888 0.17176 0.62208
 C330 C 0.84256 0.17723 0.62978
 H331 H 0.87419 0.18822 0.65140
 H332 H 0.87408 0.15141 0.68843
 H333 H 0.84919 0.12652 0.68840
 H334 H 0.81243 0.12643 0.65137
 H335 H 0.81251 0.15126 0.62641
 H336 H 0.84938 0.18814 0.62643
 C337 C 0.33321 0.35744 0.65479
 C338 C 0.33322 0.34525 0.64262
 C339 C 0.34527 0.33320 0.64262
 C340 C 0.35745 0.33319 0.65478
 C341 C 0.35745 0.34524 0.66681
 C342 C 0.34525 0.35743 0.66681
 C343 C 0.32270 0.37028 0.65816
 N344 N 0.32815 0.37796 0.67186
 C345 C 0.34187 0.37027 0.67730
 C346 C 0.37028 0.34185 0.67730
 N347 N 0.37797 0.32813 0.67185
 C348 C 0.37030 0.32268 0.65815
 C349 C 0.34190 0.32269 0.62980
 N350 N 0.32818 0.32815 0.62213
 C351 C 0.32272 0.34188 0.62980
 H352 H 0.31177 0.37364 0.65135
 H353 H 0.34869 0.37362 0.68821
 H354 H 0.37363 0.34868 0.68821
 H355 H 0.37365 0.31175 0.65134
 H356 H 0.34873 0.31176 0.62646
 H357 H 0.31179 0.34871 0.62646
 C358 C 0.33326 0.85803 0.15415
 C359 C 0.33327 0.84584 0.14198
 C360 C 0.34532 0.83380 0.14196
 C361 C 0.35752 0.83379 0.15412
 C362 C 0.35752 0.84583 0.16615
 C363 C 0.34532 0.85802 0.16616
 C364 C 0.32274 0.87086 0.15754
 N365 N 0.32820 0.87854 0.17124
 C366 C 0.34194 0.87085 0.17667
 C367 C 0.37036 0.84245 0.17663
 N368 N 0.37805 0.82873 0.17117
 C369 C 0.37037 0.82328 0.15748
 C370 C 0.34195 0.82329 0.12915
 N371 N 0.32821 0.82874 0.12149
 C372 C 0.32275 0.84247 0.12917
 H373 H 0.31181 0.87421 0.15074
 H374 H 0.34876 0.87420 0.18757
 H375 H 0.37370 0.84927 0.18754
 H376 H 0.37372 0.81235 0.15066
 H377 H 0.34878 0.81236 0.12579
 H378 H 0.31181 0.84929 0.12584
 C379 C 0.83374 0.35734 0.15423
 C380 C 0.83376 0.34516 0.14206
 C381 C 0.84581 0.33312 0.14205
 C382 C 0.85800 0.33311 0.15422
 C383 C 0.85798 0.34515 0.16625
 C384 C 0.84578 0.35734 0.16626
 C385 C 0.82321 0.37017 0.15761
 N386 N 0.82865 0.37785 0.17132
 C387 C 0.84238 0.37017 0.17676
 C388 C 0.87081 0.34178 0.17675
 N389 N 0.87851 0.32805 0.17130
 C390 C 0.87084 0.32260 0.15760
 C391 C 0.84245 0.32261 0.12923
 N392 N 0.82872 0.32807 0.12157
 C393 C 0.82325 0.34179 0.12924
 H394 H 0.81228 0.37352 0.15080
 H395 H 0.84919 0.37351 0.18768
 H396 H 0.87414 0.34859 0.18767
 H397 H 0.87420 0.31168 0.15079
 H398 H 0.84928 0.31168 0.12589
 H399 H 0.81232 0.34861 0.12590
 C400 C 0.83365 0.85785 0.65478
 C401 C 0.83367 0.84567 0.64260
 C402 C 0.84572 0.83362 0.64260
 C403 C 0.85790 0.83361 0.65477
 C404 C 0.85788 0.84564 0.66681
 C405 C 0.84568 0.85784 0.66681
 C406 C 0.82313 0.87069 0.65815
 N407 N 0.82857 0.87835 0.67187
 C408 C 0.84229 0.87067 0.67731
 C409 C 0.87070 0.84225 0.67731
 N410 N 0.87839 0.82853 0.67186
 C411 C 0.87073 0.82309 0.65815
 C412 C 0.84236 0.82312 0.62977
 N413 N 0.82864 0.82858 0.62210
 C414 C 0.82317 0.84231 0.62977
 H415 H 0.81221 0.87404 0.65134
 H416 H 0.84910 0.87400 0.68823
 H417 H 0.87403 0.84906 0.68823
 H418 H 0.87409 0.81216 0.65134
 H419 H 0.84919 0.81219 0.62643
 H420 H 0.81224 0.84913 0.62643
 C421 C 0.66676 0.64244 0.65470
 C422 C 0.66676 0.65463 0.64254
 C423 C 0.65471 0.66667 0.64253
 C424 C 0.64251 0.66668 0.65469
 C425 C 0.64251 0.65463 0.66672
 C426 C 0.65471 0.64244 0.66672
 C427 C 0.67728 0.62960 0.65807
 N428 N 0.67182 0.62192 0.67177
 C429 C 0.65809 0.62961 0.67721
 C430 C 0.62966 0.65801 0.67720
 N431 N 0.62198 0.67174 0.67176
 C432 C 0.62966 0.67719 0.65806
 C433 C 0.65809 0.67718 0.62972
 N434 N 0.67182 0.67173 0.62206
 C435 C 0.67728 0.65800 0.62973
 H436 H 0.68822 0.62625 0.65127
 H437 H 0.65126 0.62626 0.68812
 H438 H 0.62631 0.65119 0.68811
 H439 H 0.62631 0.68812 0.65125
 H440 H 0.65126 0.68811 0.62638
 H441 H 0.68822 0.65118 0.62639
 C442 C 0.66688 0.14198 0.15427
 C443 C 0.66686 0.15415 0.14209
 C444 C 0.65479 0.16618 0.14206
 C445 C 0.64259 0.16618 0.15423
 C446 C 0.64261 0.15416 0.16627
 C447 C 0.65482 0.14199 0.16629
 C448 C 0.67741 0.12917 0.15767
 N449 N 0.67197 0.12151 0.17138
 C450 C 0.65822 0.12918 0.17680
 C451 C 0.62976 0.15754 0.17675
 N452 N 0.62206 0.17124 0.17129
 C453 C 0.62973 0.17668 0.15758
 C454 C 0.65815 0.17668 0.12924
 N455 N 0.67189 0.17123 0.12159
 C456 C 0.67737 0.15753 0.12927
 H457 H 0.68836 0.12582 0.15087
 H458 H 0.65140 0.12584 0.18771
 H459 H 0.62643 0.15073 0.18767
 H460 H 0.62637 0.18760 0.15077
 H461 H 0.65131 0.18759 0.12589
 H462 H 0.68832 0.15072 0.12595
 C463 C 0.16633 0.64266 0.15428
 C464 C 0.16633 0.65484 0.14211
 C465 C 0.15430 0.66692 0.14213
 C466 C 0.14213 0.66695 0.15432
 C467 C 0.14214 0.65491 0.16635
 C468 C 0.15431 0.64269 0.16632
 C469 C 0.17683 0.62980 0.15763
 N470 N 0.17139 0.62214 0.17134
 C471 C 0.15768 0.62985 0.17681
 C472 C 0.12933 0.65832 0.17687
 N473 N 0.12166 0.67206 0.17144
 C474 C 0.12932 0.67749 0.15772
 C475 C 0.15768 0.67742 0.12931
 N476 N 0.17138 0.67193 0.12162
 C477 C 0.17682 0.65819 0.12928
 H478 H 0.18775 0.62643 0.15080
 H479 H 0.15088 0.62653 0.18774
 H480 H 0.12599 0.65151 0.18778
 H481 H 0.12598 0.68843 0.15092
 H482 H 0.15087 0.68836 0.12598
 H483 H 0.18774 0.65134 0.12591
 C484 C 0.16633 0.14206 0.65471
 C485 C 0.16632 0.15424 0.64254
 C486 C 0.15427 0.16630 0.64254
 C487 C 0.14209 0.16631 0.65472
 C488 C 0.14210 0.15428 0.66675
 C489 C 0.15429 0.14208 0.66675
 C490 C 0.17685 0.12922 0.65808
 N491 N 0.17141 0.12156 0.67179
 C492 C 0.15768 0.12925 0.67724
 C493 C 0.12927 0.15767 0.67726
 N494 N 0.12158 0.17139 0.67181
 C495 C 0.12925 0.17683 0.65810
 C496 C 0.15764 0.17679 0.62972
 N497 N 0.17136 0.17133 0.62205
 C498 C 0.17682 0.15760 0.62971
 H499 H 0.18777 0.12587 0.65126
 H500 H 0.15087 0.12591 0.68816
 H501 H 0.12593 0.15086 0.68817
 H502 H 0.12590 0.18776 0.65129
 H503 H 0.15081 0.18773 0.62639
 H504 H 0.18775 0.15078 0.62637
 C505 C 0.33350 0.64249 0.34509
 C506 C 0.33350 0.65466 0.35728
 C507 C 0.34552 0.66669 0.35727
 C508 C 0.35769 0.66670 0.34508
 C509 C 0.35769 0.65467 0.33304
 C510 C 0.34552 0.64249 0.33304
 C511 C 0.32301 0.62967 0.34172
 N512 N 0.32845 0.62200 0.32800
 C513 C 0.34215 0.62967 0.32254
 C514 C 0.37051 0.65805 0.32253
 N515 N 0.37817 0.67176 0.32798
 C516 C 0.37050 0.67720 0.34171
 C517 C 0.34215 0.67719 0.37011
 N518 N 0.32844 0.67174 0.37779
 C519 C 0.32300 0.65803 0.37011
 H520 H 0.31209 0.62632 0.34855
 H521 H 0.34896 0.62633 0.31161
 H522 H 0.37385 0.65124 0.31160
 H523 H 0.37384 0.68812 0.34853
 H524 H 0.34895 0.68811 0.37345
 H525 H 0.31209 0.65122 0.37346
 C526 C 0.33354 0.14188 0.84551
 C527 C 0.33351 0.15407 0.85768
 C528 C 0.34554 0.16610 0.85769
 C529 C 0.35775 0.16608 0.84553
 C530 C 0.35777 0.15403 0.83350
 C531 C 0.34560 0.14186 0.83350
 C532 C 0.32305 0.12906 0.84213
 N533 N 0.32852 0.12137 0.82843
 C534 C 0.34224 0.12903 0.82300
 C535 C 0.37061 0.15739 0.82302
 N536 N 0.37827 0.17111 0.82847
 C537 C 0.37057 0.17657 0.84217
 C538 C 0.34214 0.17662 0.87050
 N539 N 0.32841 0.17119 0.87815
 C540 C 0.32299 0.15747 0.87048
 H541 H 0.31211 0.12574 0.84893
 H542 H 0.34908 0.12567 0.81209
 H543 H 0.37398 0.15057 0.81211
 H544 H 0.37389 0.18750 0.84897
 H545 H 0.34894 0.18754 0.87384
 H546 H 0.31206 0.15067 0.87381
 C547 C 0.83377 0.64216 0.84559
 C548 C 0.83374 0.65436 0.85775
 C549 C 0.84577 0.66639 0.85775
 C550 C 0.85797 0.66636 0.84559
 C551 C 0.85800 0.65430 0.83357
 C552 C 0.84582 0.64213 0.83358
 C553 C 0.82327 0.62934 0.84222
 N554 N 0.82875 0.62164 0.82853
 C555 C 0.84247 0.62929 0.82309
 C556 C 0.87084 0.65765 0.82308
 N557 N 0.87849 0.67137 0.82852
 C558 C 0.87079 0.67685 0.84221
 C559 C 0.84236 0.67692 0.87054
 N560 N 0.82864 0.67150 0.87820
 C561 C 0.82321 0.65777 0.87055
 H562 H 0.81234 0.62602 0.84902
 H563 H 0.84930 0.62593 0.81218
 H564 H 0.87420 0.65082 0.81218
 H565 H 0.87412 0.68779 0.84901
 H566 H 0.84916 0.68785 0.87388
 H567 H 0.81228 0.65097 0.87388
 C568 C 0.83409 0.14197 0.34540
 C569 C 0.83408 0.15415 0.35757
 C570 C 0.84611 0.16618 0.35756
 C571 C 0.85829 0.16617 0.34538
 C572 C 0.85830 0.15413 0.33335
 C573 C 0.84613 0.14195 0.33336
 C574 C 0.82359 0.12915 0.34203
 N575 N 0.82904 0.12147 0.32832
 C576 C 0.84276 0.12913 0.32286
 C577 C 0.87112 0.15749 0.32285
 N578 N 0.87878 0.17121 0.32828
 C579 C 0.87110 0.17667 0.34200
 C580 C 0.84272 0.17670 0.37038
 N581 N 0.82901 0.17126 0.37805
 C582 C 0.82357 0.15754 0.37039
 H583 H 0.81267 0.12582 0.34885
 H584 H 0.84957 0.12578 0.31194
 H585 H 0.87447 0.15067 0.31193
 H586 H 0.87444 0.18759 0.34880
 H587 H 0.84953 0.18762 0.37371
 H588 H 0.81265 0.15074 0.37374
 C589 C 0.66654 0.35741 0.34533
 C590 C 0.66654 0.34523 0.35751
 C591 C 0.65451 0.33320 0.35750
 C592 C 0.64234 0.33320 0.34532
 C593 C 0.64234 0.34524 0.33329
 C594 C 0.65451 0.35741 0.33330
 C595 C 0.67703 0.37023 0.34197
 N596 N 0.67159 0.37790 0.32826
 C597 C 0.65788 0.37024 0.32280
 C598 C 0.62952 0.34187 0.32278
 N599 N 0.62186 0.32815 0.32823
 C600 C 0.62953 0.32270 0.34194
 C601 C 0.65790 0.32269 0.37032
 N602 N 0.67160 0.32813 0.37799
 C603 C 0.67704 0.34185 0.37033
 H604 H 0.68795 0.37357 0.34879
 H605 H 0.65107 0.37358 0.31188
 H606 H 0.62618 0.34868 0.31187
 H607 H 0.62619 0.31178 0.34875
 H608 H 0.65109 0.31177 0.37365
 H609 H 0.68796 0.34866 0.37367
 C610 C 0.66620 0.85806 0.84557
 C611 C 0.66621 0.84587 0.85773
 C612 C 0.65417 0.83384 0.85772
 C613 C 0.64199 0.83386 0.84555
 C614 C 0.64198 0.84591 0.83353
 C615 C 0.65416 0.85808 0.83354
 C616 C 0.67670 0.87087 0.84220
 N617 N 0.67125 0.87856 0.82850
 C618 C 0.65753 0.87091 0.82305
 C619 C 0.62916 0.84255 0.82303
 N620 N 0.62150 0.82884 0.82847
 C621 C 0.62917 0.82337 0.84217
 C622 C 0.65756 0.82332 0.87053
 N623 N 0.67128 0.82875 0.87820
 C624 C 0.67672 0.84247 0.87054
 H625 H 0.68763 0.87420 0.84901
 H626 H 0.65072 0.87426 0.81214
 H627 H 0.62582 0.84937 0.81212
 H628 H 0.62584 0.81244 0.84897
 H629 H 0.65075 0.81240 0.87386
 H630 H 0.68764 0.84926 0.87388
 C631 C 0.16605 0.35782 0.84559
 C632 C 0.16607 0.34563 0.85774
 C633 C 0.15404 0.33360 0.85774
 C634 C 0.14185 0.33362 0.84557
 C635 C 0.14184 0.34567 0.83355
 C636 C 0.15401 0.35784 0.83356
 C637 C 0.17655 0.37064 0.84222
 N638 N 0.17109 0.37833 0.82852
 C639 C 0.15737 0.37068 0.82308
 C640 C 0.12901 0.34231 0.82306
 N641 N 0.12135 0.32859 0.82849
 C642 C 0.12904 0.32312 0.84219
 C643 C 0.15743 0.32307 0.87054
 N644 N 0.17115 0.32850 0.87820
 C645 C 0.17659 0.34223 0.87055
 H646 H 0.18748 0.37397 0.84903
 H647 H 0.15055 0.37404 0.81217
 H648 H 0.12566 0.34914 0.81215
 H649 H 0.12571 0.31219 0.84899
 H650 H 0.15063 0.31215 0.87387
 H651 H 0.18751 0.34903 0.87389
 C652 C 0.16636 0.85832 0.34546
 C653 C 0.16638 0.84614 0.35763
 C654 C 0.15435 0.83412 0.35765
 C655 C 0.14215 0.83413 0.34549
 C656 C 0.14212 0.84617 0.33346
 C657 C 0.15430 0.85834 0.33345
 C658 C 0.17685 0.87114 0.34207
 N659 N 0.17138 0.87881 0.32837
 C660 C 0.15766 0.87116 0.32294
 C661 C 0.12929 0.84280 0.32298
 N662 N 0.12163 0.82909 0.32844
 C663 C 0.12932 0.82364 0.34214
 C664 C 0.15775 0.82361 0.37046
 N665 N 0.17147 0.82904 0.37811
 C666 C 0.17691 0.84276 0.37043
 H667 H 0.18779 0.87447 0.34886
 H668 H 0.15083 0.87450 0.31203
 H669 H 0.12593 0.84961 0.31207
 H670 H 0.12600 0.81271 0.34895
 H671 H 0.15094 0.81269 0.37381
 H672 H 0.18783 0.84956 0.37375
 O673 O 0.24816 1.01665 0.27076
 O674 O 0.27070 0.98458 0.24812
 O675 O 0.27074 1.01660 0.24815
 O676 O 0.24813 0.98463 0.27074
 O677 O 0.22895 0.98469 0.25162
 O678 O 0.25155 1.01667 0.22903
 O679 O 0.25152 0.98465 0.22900
 O680 O 0.22897 1.01671 0.25165
 Cu681 Cu 0.26135 1.00061 0.26136
 Cu682 Cu 0.23833 1.00069 0.23841
 C683 C 0.23472 1.02221 0.26506
 C684 C 0.26495 0.97909 0.23470
 C685 C 0.26500 1.02214 0.23474
 C686 C 0.23469 0.97915 0.26503
 O687 O 0.24788 0.51623 0.77099
 O688 O 0.27049 0.48414 0.74845
 O689 O 0.27049 0.51615 0.74841
 O690 O 0.24787 0.48421 0.77101
 O691 O 0.22871 0.48423 0.75186
 O692 O 0.25134 0.51617 0.72926
 O693 O 0.25134 0.48416 0.72929
 O694 O 0.22873 0.51625 0.75184
 Cu695 Cu 0.26110 0.50018 0.76163
 Cu696 Cu 0.23811 0.50020 0.73865
 C697 C 0.23445 0.52177 0.76526
 C698 C 0.26476 0.47861 0.73503
 C699 C 0.26477 0.52167 0.73498
 C700 C 0.23443 0.47871 0.76529
 O701 O 0.75204 -0.01639 0.27108
 O702 O 0.72951 0.01566 0.24842
 O703 O 0.72941 -0.01636 0.24852
 O704 O 0.75211 0.01562 0.27099
 O705 O 0.77127 0.01549 0.25183
 O706 O 0.74856 -0.01650 0.22936
 O707 O 0.74866 0.01551 0.22926
 O708 O 0.77119 -0.01653 0.25191
 Cu709 Cu 0.73885 -0.00035 0.26167
 Cu710 Cu 0.76184 -0.00053 0.23867
 C711 C 0.76546 -0.02199 0.26535
 C712 C 0.73524 0.02111 0.23498
 C713 C 0.73512 -0.02194 0.23511
 C714 C 0.76556 0.02107 0.26524
 O715 O 0.77116 0.51571 0.75186
 O716 O 0.74853 0.48375 0.72928
 O717 O 0.74855 0.51576 0.72929
 O718 O 0.77113 0.48369 0.75185
 O719 O 0.75197 0.48374 0.77100
 O720 O 0.72939 0.51581 0.74844
 O721 O 0.72937 0.48379 0.74843
 O722 O 0.75199 0.51575 0.77101
 Cu723 Cu 0.76176 0.49972 0.73865
 Cu724 Cu 0.73876 0.49978 0.76164
 C725 C 0.76543 0.52124 0.76528
 C726 C 0.73509 0.47826 0.73501
 C727 C 0.73512 0.52132 0.73502
 C728 C 0.76540 0.47818 0.76527
 O729 O 0.24802 0.48398 0.22908
 O730 O 0.27068 0.51599 0.25155
 O731 O 0.27063 0.48398 0.25164
 O732 O 0.24806 0.51600 0.22899
 O733 O 0.22891 0.51612 0.24815
 O734 O 0.25147 0.48410 0.27080
 O735 O 0.25153 0.51612 0.27071
 O736 O 0.22886 0.48410 0.24824
 Cu737 Cu 0.26127 0.49998 0.23839
 Cu738 Cu 0.23828 0.50012 0.26139
 C739 C 0.23458 0.47852 0.23483
 C740 C 0.26497 0.52158 0.26496
 C741 C 0.26490 0.47852 0.26508
 C742 C 0.23464 0.52158 0.23471
 O743 O 0.77076 0.98438 0.74857
 O744 O 0.74810 1.01644 0.77110
 O745 O 0.74810 0.98443 0.77110
 O746 O 0.77078 1.01640 0.74859
 O747 O 0.75167 1.01644 0.72939
 O748 O 0.72900 0.98446 0.75190
 O749 O 0.72899 1.01648 0.75190
 O750 O 0.75166 0.98442 0.72938
 Cu751 Cu 0.76135 1.00041 0.76176
 Cu752 Cu 0.73841 1.00045 0.73872
 C753 C 0.76507 0.97887 0.73513
 C754 C 0.73468 1.02199 0.76534
 C755 C 0.73469 0.97893 0.76534
 C756 C 0.76509 1.02193 0.73516
 O757 O 0.74842 0.51581 0.27089
 O758 O 0.77099 0.48378 0.24822
 O759 O 0.77100 0.51580 0.24828
 O760 O 0.74840 0.48379 0.27082
 O761 O 0.72923 0.48387 0.25169
 O762 O 0.75183 0.51587 0.22915
 O763 O 0.75182 0.48385 0.22909
 O764 O 0.72924 0.51588 0.25176
 Cu765 Cu 0.76162 0.49978 0.26147
 Cu766 Cu 0.73861 0.49988 0.23851
 C767 C 0.73499 0.52137 0.26518
 C768 C 0.76525 0.47830 0.23480
 C769 C 0.76526 0.52135 0.23488
 C770 C 0.73496 0.47831 0.26509
 O771 O 0.24835 -0.01654 0.72917
 O772 O 0.27095 0.01545 0.75174
 O773 O 0.27098 -0.01657 0.75172
 O774 O 0.24832 0.01548 0.72919
 O775 O 0.22918 0.01549 0.74836
 O776 O 0.25184 -0.01656 0.77089
 O777 O 0.25181 0.01546 0.77091
 O778 O 0.22921 -0.01653 0.74834
 Cu779 Cu 0.26157 -0.00055 0.73853
 Cu780 Cu 0.23859 -0.00054 0.76155
 C781 C 0.23493 -0.02205 0.73491
 C782 C 0.26523 0.02097 0.76517
 C783 C 0.26527 -0.02209 0.76514
 C784 C 0.23489 0.02101 0.73494
 O785 O 0.24801 0.27071 0.98398
 O786 O 0.27062 0.24807 1.01596
 O787 O 0.27063 0.24808 0.98397
 O788 O 0.24801 0.27070 1.01598
 O789 O 0.22885 0.25157 1.01597
 O790 O 0.25147 0.22895 0.98396
 O791 O 0.25146 0.22894 1.01595
 O792 O 0.22886 0.25157 0.98398
 Cu793 Cu 0.26124 0.26131 0.99997
 Cu794 Cu 0.23824 0.23834 0.99996
 C795 C 0.23458 0.26500 0.97847
 C796 C 0.26489 0.23465 1.02147
 C797 C 0.26491 0.23466 0.97845
 C798 C 0.23458 0.26499 1.02149
 O799 O 0.24834 0.77118 0.48386
 O800 O 0.27092 0.74848 0.51581
 O801 O 0.27092 0.74852 0.48382
 O802 O 0.24836 0.77116 0.51585
 O803 O 0.22917 0.75206 0.51585
 O804 O 0.25173 0.72942 0.48381
 O805 O 0.25173 0.72938 0.51580
 O806 O 0.22915 0.75208 0.48386
 Cu807 Cu 0.26156 0.76175 0.49984
 Cu808 Cu 0.23852 0.73882 0.49983
 C809 C 0.23489 0.76550 0.47835
 C810 C 0.26517 0.73506 0.52132
 C811 C 0.26517 0.73511 0.47829
 C812 C 0.23493 0.76547 0.52138
 O813 O 0.27080 0.75181 -0.01633
 O814 O 0.24819 0.72929 0.01568
 O815 O 0.24823 0.72922 -0.01631
 O816 O 0.27076 0.75187 0.01566
 O817 O 0.25158 0.77104 0.01561
 O818 O 0.22904 0.74839 -0.01637
 O819 O 0.22900 0.74846 0.01563
 O820 O 0.25162 0.77098 -0.01638
 Cu821 Cu 0.26142 0.73863 -0.00032
 Cu822 Cu 0.23839 0.76164 -0.00038
 C823 C 0.26506 0.76523 -0.02187
 C824 C 0.23474 0.73503 0.02117
 C825 C 0.23480 0.73495 -0.02185
 C826 C 0.26501 0.76532 0.02115
 O827 O 0.27066 0.25152 0.48419
 O828 O 0.24807 0.22891 0.51615
 O829 O 0.24808 0.22893 0.48416
 O830 O 0.27065 0.25149 0.51618
 O831 O 0.25146 0.27066 0.51620
 O832 O 0.22890 0.24811 0.48418
 O833 O 0.22889 0.24808 0.51617
 O834 O 0.25147 0.27069 0.48421
 Cu835 Cu 0.26129 0.23829 0.50017
 Cu836 Cu 0.23826 0.26131 0.50019
 C837 C 0.26491 0.26496 0.47869
 C838 C 0.23463 0.23464 0.52167
 C839 C 0.23465 0.23468 0.47865
 C840 C 0.26490 0.26492 0.52171
 O841 O 0.74806 0.77093 0.98402
 O842 O 0.77066 0.74830 1.01599
 O843 O 0.77070 0.74833 0.98400
 O844 O 0.74801 0.77088 1.01601
 O845 O 0.72888 0.75172 1.01596
 O846 O 0.75158 0.72916 0.98396
 O847 O 0.75154 0.72913 1.01595
 O848 O 0.72893 0.75177 0.98396
 Cu849 Cu 0.76127 0.76153 1.00001
 Cu850 Cu 0.73832 0.73853 0.99995
 C851 C 0.73464 0.76521 0.97848
 C852 C 0.76495 0.73486 1.02149
 C853 C 0.76501 0.73490 0.97847
 C854 C 0.73458 0.76514 1.02150
 O855 O 0.72944 0.25154 0.51591
 O856 O 0.75212 0.22893 0.48394
 O857 O 0.75212 0.22898 0.51593
 O858 O 0.72944 0.25149 0.48392
 O859 O 0.74854 0.27068 0.48389
 O860 O 0.77122 0.24817 0.51590
 O861 O 0.77122 0.24812 0.48390
 O862 O 0.74854 0.27073 0.51588
 Cu863 Cu 0.73887 0.23831 0.49992
 Cu864 Cu 0.76179 0.26135 0.49989
 C865 C 0.73513 0.26498 0.52141
 C866 C 0.76553 0.23467 0.47841
 C867 C 0.76554 0.23474 0.52143
 C868 C 0.73512 0.26493 0.47838
 O869 O 0.72917 0.24819 -0.01627
 O870 O 0.75183 0.27069 0.01572
 O871 O 0.75176 0.27077 -0.01627
 O872 O 0.72925 0.24812 0.01572
 O873 O 0.74843 0.22894 0.01562
 O874 O 0.77094 0.25159 -0.01637
 O875 O 0.77101 0.25151 0.01562
 O876 O 0.74835 0.22901 -0.01637
 Cu877 Cu 0.73858 0.26136 -0.00027
 Cu878 Cu 0.76160 0.23834 -0.00039
 C879 C 0.73490 0.23477 -0.02184
 C880 C 0.76528 0.26494 0.02118
 C881 C 0.76518 0.26504 -0.02184
 C882 C 0.73501 0.23467 0.02119
 O883 O 0.72934 0.74849 0.48420
 O884 O 0.75193 0.77107 0.51618
 O885 O 0.75192 0.77107 0.48419
 O886 O 0.72936 0.74848 0.51619
 O887 O 0.74854 0.72931 0.51617
 O888 O 0.77110 0.75190 0.48417
 O889 O 0.77112 0.75189 0.51616
 O890 O 0.74852 0.72932 0.48418
 Cu891 Cu 0.73872 0.76170 0.50019
 Cu892 Cu 0.76174 0.73868 0.50017
 C893 C 0.73508 0.73506 0.47867
 C894 C 0.76537 0.76533 0.52169
 C895 C 0.76536 0.76533 0.47866
 C896 C 0.73510 0.73505 0.52170
 O897 O 1.01657 0.27069 0.24822
 O898 O 0.98460 0.24805 0.27076
 O899 O 1.01662 0.24810 0.27080
 O900 O 0.98455 0.27063 0.24816
 O901 O 0.98466 0.25145 0.22903
 O902 O 1.01672 0.22893 0.25166
 O903 O 0.98470 0.22887 0.25162
 O904 O 1.01668 0.25152 0.22908
 Cu905 Cu 1.00058 0.26129 0.26140
 Cu906 Cu 1.00070 0.23827 0.23843
 C907 C 1.02214 0.26497 0.23480
 C908 C 0.97913 0.23460 0.26503
 C909 C 1.02220 0.23467 0.26509
 C910 C 0.97908 0.26488 0.23474
 O911 O 0.51624 0.22876 0.75183
 O912 O 0.48416 0.25136 0.72928
 O913 O 0.51618 0.25137 0.72927
 O914 O 0.48422 0.22874 0.75184
 O915 O 0.48418 0.24789 0.77100
 O916 O 0.51614 0.27052 0.74843
 O917 O 0.48412 0.27051 0.74845
 O918 O 0.51620 0.24791 0.77099
 Cu919 Cu 0.50020 0.23814 0.73864
 Cu920 Cu 0.50015 0.26112 0.76164
 C921 C 0.52175 0.23449 0.76525
 C922 C 0.47861 0.26478 0.73502
 C923 C 0.52167 0.26480 0.73500
 C924 C 0.47868 0.23446 0.76527
 O925 O 0.01549 0.24834 0.72925
 O926 O -0.01657 0.27101 0.75178
 O927 O 0.01545 0.27098 0.75180
 O928 O -0.01653 0.24836 0.72923
 O929 O -0.01652 0.22924 0.74841
 O930 O 0.01545 0.25185 0.77097
 O931 O -0.01657 0.25188 0.77095
 O932 O 0.01550 0.22921 0.74843
 Cu933 Cu -0.00054 0.26159 0.73860
 Cu934 Cu -0.00054 0.23863 0.76161
 C935 C 0.02102 0.23491 0.73500
 C936 C -0.02210 0.26530 0.76521
 C937 C 0.02097 0.26527 0.76523
 C938 C -0.02204 0.23495 0.73497
 O939 O 0.51592 0.24795 0.22899
 O940 O 0.48390 0.27053 0.25165
 O941 O 0.51592 0.27054 0.25159
 O942 O 0.48390 0.24794 0.22905
 O943 O 0.48398 0.22877 0.24819
 O944 O 0.51599 0.25137 0.27072
 O945 O 0.48397 0.25137 0.27078
 O946 O 0.51600 0.22878 0.24812
 Cu947 Cu 0.49990 0.26116 0.23840
 Cu948 Cu 0.49999 0.23815 0.26137
 C949 C 0.52148 0.23452 0.23470
 C950 C 0.47841 0.26480 0.26507
 C951 C 0.52147 0.26481 0.26499
 C952 C 0.47842 0.23451 0.23478
 O953 O 1.01649 0.72900 0.75192
 O954 O 0.98444 0.75165 0.72938
 O955 O 1.01646 0.75166 0.72940
 O956 O 0.98447 0.72901 0.75191
 O957 O 0.98442 0.74813 0.77110
 O958 O 1.01641 0.77078 0.74859
 O959 O 0.98439 0.77077 0.74857
 O960 O 1.01644 0.74812 0.77111
 Cu961 Cu 1.00047 0.73842 0.73873
 Cu962 Cu 1.00041 0.76137 0.76176
 C963 C 1.02199 0.73470 0.76535
 C964 C 0.97889 0.76507 0.73513
 C965 C 1.02195 0.76508 0.73515
 C966 C 0.97893 0.73471 0.76535
 O967 O 0.48416 0.75202 0.22884
 O968 O 0.51618 0.72946 0.25151
 O969 O 0.48416 0.72943 0.25142
 O970 O 0.51618 0.75204 0.22891
 O971 O 0.51609 0.77121 0.24804
 O972 O 0.48406 0.74861 0.27056
 O973 O 0.51608 0.74863 0.27064
 O974 O 0.48407 0.77120 0.24797
 Cu975 Cu 0.50018 0.73882 0.23825
 Cu976 Cu 0.50006 0.76183 0.26122
 C977 C 0.47859 0.76545 0.23454
 C978 C 0.52165 0.73520 0.26494
 C979 C 0.47859 0.73517 0.26483
 C980 C 0.52166 0.76547 0.23464
 O981 O -0.01638 0.77142 0.25194
 O982 O 0.01567 0.74887 0.22929
 O983 O -0.01635 0.74883 0.22934
 O984 O 0.01564 0.77146 0.25189
 O985 O 0.01572 0.75230 0.27102
 O986 O -0.01626 0.72966 0.24848
 O987 O 0.01576 0.72971 0.24842
 O988 O -0.01630 0.75226 0.27107
 Cu989 Cu -0.00036 0.76207 0.23870
 Cu990 Cu -0.00026 0.73906 0.26167
 C991 C -0.02187 0.76568 0.26536
 C992 C 0.02124 0.73545 0.23500
 C993 C -0.02182 0.73539 0.23507
 C994 C 0.02120 0.76573 0.26529
 O995 O 0.51571 0.75199 0.77092
 O996 O 0.48376 0.72933 0.74835
 O997 O 0.51578 0.72936 0.74836
 O998 O 0.48369 0.75196 0.77090
 O999 O 0.48365 0.77110 0.75174
 O1000 O 0.51575 0.74850 0.72920
 O1001 O 0.48373 0.74847 0.72918
 O1002 O 0.51567 0.77113 0.75175
 Cu1003 Cu 0.49974 0.73874 0.76155
 Cu1004 Cu 0.49969 0.76172 0.73855
 C1005 C 0.52120 0.76542 0.76518
 C1006 C 0.47824 0.73504 0.73492
 C1007 C 0.52130 0.73508 0.73494
 C1008 C 0.47813 0.76538 0.76516
 C1009 C 0.44639 0.29685 0.27616
 C1010 C 0.44009 0.29046 0.29081
 C1011 C 0.44646 0.27580 0.29717
 C1012 C 0.45902 0.26750 0.28887
 C1013 C 0.39125 0.32042 0.32081
 C1014 C 0.45894 0.28857 0.26784
 C1015 C 0.42691 0.29879 0.29917
 C1016 C 0.41576 0.30569 0.30608
 C1017 C 0.40259 0.31368 0.31407
 C1018 C 0.46536 0.27376 0.27407
 H1019 H 0.44153 0.30817 0.27113
 H1020 H 0.44166 0.27074 0.30849
 H1021 H 0.46368 0.25614 0.29399
 H1022 H 0.46355 0.29372 0.25648
 C1023 C 0.44606 0.79742 0.77612
 C1024 C 0.43973 0.79105 0.79077
 C1025 C 0.44610 0.77641 0.79717
 C1026 C 0.45868 0.76811 0.78891
 C1027 C 0.39080 0.82101 0.82065
 C1028 C 0.45864 0.78914 0.76784
 C1029 C 0.42652 0.79939 0.79909
 C1030 C 0.41536 0.80629 0.80597
 C1031 C 0.40217 0.81427 0.81393
 C1032 C 0.46505 0.77435 0.77411
 H1033 H 0.44120 0.80874 0.77106
 H1034 H 0.44127 0.77136 0.80849
 H1035 H 0.46334 0.75676 0.79406
 H1036 H 0.46327 0.79428 0.75648
 C1037 C -0.05412 0.29740 0.77615
 C1038 C -0.06046 0.29105 0.79080
 C1039 C -0.05412 0.27641 0.79720
 C1040 C -0.04155 0.26808 0.78895
 C1041 C -0.10934 0.32108 0.82068
 C1042 C -0.04155 0.28910 0.76787
 C1043 C -0.07366 0.29941 0.79911
 C1044 C -0.08481 0.30633 0.80599
 C1045 C -0.09799 0.31433 0.81396
 C1046 C -0.03516 0.27430 0.77415
 H1047 H -0.05896 0.30873 0.77107
 H1048 H -0.05895 0.27137 0.80852
 H1049 H -0.03691 0.25672 0.79411
 H1050 H -0.03692 0.29422 0.75651
 C1051 C -0.05394 0.79769 0.27643
 C1052 C -0.06024 0.79129 0.29108
 C1053 C -0.05386 0.77665 0.29744
 C1054 C -0.04128 0.76836 0.28915
 C1055 C -0.10915 0.82119 0.32105
 C1056 C -0.04137 0.78943 0.26812
 C1057 C -0.07344 0.79961 0.29943
 C1058 C -0.08460 0.80649 0.30634
 C1059 C -0.09779 0.81446 0.31432
 C1060 C -0.03494 0.77463 0.27435
 H1061 H -0.05881 0.80901 0.27139
 H1062 H -0.05866 0.77158 0.30876
 H1063 H -0.03661 0.75700 0.29428
 H1064 H -0.03676 0.79459 0.25676
 C1065 C 0.55367 0.70317 0.27605
 C1066 C 0.55995 0.70957 0.29071
 C1067 C 0.55356 0.72422 0.29706
 C1068 C 0.54101 0.73252 0.28875
 C1069 C 0.60875 0.67963 0.32076
 C1070 C 0.54112 0.71144 0.26772
 C1071 C 0.57312 0.70124 0.29908
 C1072 C 0.58426 0.69435 0.30601
 C1073 C 0.59741 0.68637 0.31401
 C1074 C 0.53469 0.72624 0.27394
 H1075 H 0.55854 0.69184 0.27102
 H1076 H 0.55834 0.72929 0.30839
 H1077 H 0.53633 0.74388 0.29387
 H1078 H 0.53654 0.70628 0.25635
 C1079 C 0.55383 0.20246 0.77621
 C1080 C 0.56015 0.20884 0.79086
 C1081 C 0.55378 0.22348 0.79725
 C1082 C 0.54120 0.23178 0.78899
 C1083 C 0.60909 0.17894 0.82073
 C1084 C 0.54125 0.21073 0.76793
 C1085 C 0.57337 0.20052 0.79917
 C1086 C 0.58453 0.19363 0.80605
 C1087 C 0.59773 0.18566 0.81401
 C1088 C 0.53483 0.22553 0.77420
 H1089 H 0.55869 0.19114 0.77115
 H1090 H 0.55860 0.22854 0.80857
 H1091 H 0.53653 0.24313 0.79415
 H1092 H 0.53663 0.20559 0.75658
 C1093 C 1.05399 0.72361 0.79735
 C1094 C 1.06034 0.70897 0.79094
 C1095 C 1.05402 0.70262 0.77628
 C1096 C 1.04146 0.71092 0.76801
 C1097 C 1.10922 0.67894 0.82079
 C1098 C 1.04142 0.73194 0.78910
 C1099 C 1.07354 0.70061 0.79925
 C1100 C 1.08469 0.69369 0.80612
 C1101 C 1.09787 0.68569 0.81408
 C1102 C 1.03505 0.72571 0.77429
 H1103 H 1.05880 0.72865 0.80868
 H1104 H 1.05887 0.69130 0.77120
 H1105 H 1.03683 0.70580 0.75664
 H1106 H 1.03677 0.74329 0.79427
 C1107 C 1.05415 0.22371 0.29718
 C1108 C 1.06054 0.20906 0.29082
 C1109 C 1.05425 0.20266 0.27617
 C1110 C 1.04169 0.21092 0.26784
 C1111 C 1.10936 0.17910 0.32082
 C1112 C 1.04159 0.23200 0.28888
 C1113 C 1.07372 0.20073 0.29918
 C1114 C 1.08486 0.19383 0.30609
 C1115 C 1.09802 0.18585 0.31408
 C1116 C 1.03526 0.22573 0.27408
 H1117 H 1.05894 0.22878 0.30850
 H1118 H 1.05912 0.19133 0.27113
 H1119 H 1.03709 0.20577 0.25649
 H1120 H 1.03692 0.24336 0.29401
 C1121 C 0.55362 0.27586 0.70296
 C1122 C 0.55992 0.29051 0.70935
 C1123 C 0.55358 0.29688 0.72400
 C1124 C 0.54104 0.28859 0.73230
 C1125 C 0.60869 0.32048 0.67942
 C1126 C 0.54108 0.26754 0.71123
 C1127 C 0.57309 0.29885 0.70102
 C1128 C 0.58422 0.30576 0.69413
 C1129 C 0.59736 0.31374 0.68615
 C1130 C 0.53469 0.27379 0.72604
 H1131 H 0.55846 0.27081 0.69164
 H1132 H 0.55839 0.30820 0.72906
 H1133 H 0.53640 0.29373 0.74366
 H1134 H 0.53647 0.25618 0.70609
 C1135 C 0.55362 0.79752 0.22369
 C1136 C 0.56000 0.79113 0.20907
 C1137 C 0.55371 0.77647 0.20268
 C1138 C 0.54114 0.76817 0.21093
 C1139 C 0.60888 0.82100 0.17921
 C1140 C 0.54105 0.78925 0.23197
 C1141 C 0.57320 0.79945 0.20077
 C1142 C 0.58435 0.80633 0.19389
 C1143 C 0.59753 0.81429 0.18593
 C1144 C 0.53471 0.77444 0.22571
 H1145 H 0.55842 0.80885 0.22876
 H1146 H 0.55858 0.77140 0.19138
 H1147 H 0.53654 0.75681 0.20578
 H1148 H 0.53638 0.79440 0.24330
 C1149 C 1.05400 0.29709 0.22382
 C1150 C 1.06038 0.29072 0.20918
 C1151 C 1.05412 0.27605 0.20281
 C1152 C 1.04159 0.26771 0.21107
 C1153 C 1.10908 0.32079 0.17924
 C1154 C 1.04147 0.28878 0.23211
 C1155 C 1.07353 0.29909 0.20086
 C1156 C 1.08464 0.30602 0.19396
 C1157 C 1.09777 0.31403 0.18598
 C1158 C 1.03516 0.27396 0.22586
 H1159 H 1.05877 0.30844 0.22887
 H1160 H 1.05898 0.27099 0.19149
 H1161 H 1.03701 0.25634 0.20593
 H1162 H 1.03680 0.29393 0.24345
 C1163 C 1.05392 0.77619 0.70316
 C1164 C 1.06022 0.79083 0.70957
 C1165 C 1.05386 0.79718 0.72423
 C1166 C 1.04132 0.78887 0.73250
 C1167 C 1.10896 0.82088 0.67969
 C1168 C 1.04138 0.76786 0.71141
 C1169 C 1.07338 0.79920 0.70126
 C1170 C 1.08450 0.80612 0.69438
 C1171 C 1.09764 0.81413 0.68641
 C1172 C 1.03498 0.77408 0.72622
 H1173 H 1.05877 0.77116 0.69183
 H1174 H 1.05866 0.80850 0.72931
 H1175 H 1.03667 0.79399 0.74387
 H1176 H 1.03678 0.75650 0.70624
 C1177 C 0.44635 0.70295 0.72392
 C1178 C 0.44001 0.70930 0.70927
 C1179 C 0.44631 0.72395 0.70288
 C1180 C 0.45884 0.73228 0.71115
 C1181 C 0.39126 0.67931 0.67934
 C1182 C 0.45887 0.71125 0.73222
 C1183 C 0.42685 0.70095 0.70094
 C1184 C 0.41573 0.69404 0.69405
 C1185 C 0.40259 0.68605 0.68607
 C1186 C 0.46522 0.72605 0.72596
 H1187 H 0.44154 0.69162 0.72899
 H1188 H 0.44148 0.72899 0.69156
 H1189 H 0.46345 0.74364 0.70600
 H1190 H 0.46351 0.70612 0.74358
 C1191 C 0.44639 0.22350 0.20282
 C1192 C 0.44009 0.20885 0.20920
 C1193 C 0.44647 0.20246 0.22383
 C1194 C 0.45903 0.21073 0.23210
 C1195 C 0.39122 0.17895 0.17938
 C1196 C 0.45895 0.23180 0.21107
 C1197 C 0.42690 0.20052 0.20090
 C1198 C 0.41575 0.19363 0.19403
 C1199 C 0.40257 0.18567 0.18608
 C1200 C 0.46537 0.22554 0.22584
 H1201 H 0.44153 0.22857 0.19152
 H1202 H 0.44167 0.19113 0.22889
 H1203 H 0.46369 0.20558 0.24344
 H1204 H 0.46355 0.24316 0.20592
 C1205 C -0.05369 0.70327 0.22407
 C1206 C -0.06005 0.70964 0.20944
 C1207 C -0.05378 0.72431 0.20307
 C1208 C -0.04126 0.73265 0.21133
 C1209 C -0.10874 0.67956 0.17951
 C1210 C -0.04116 0.71158 0.23237
 C1211 C -0.07320 0.70127 0.20111
 C1212 C -0.08431 0.69435 0.19422
 C1213 C -0.09743 0.68633 0.18624
 C1214 C -0.03484 0.72640 0.22612
 H1215 H -0.05847 0.69193 0.22913
 H1216 H -0.05864 0.72937 0.19175
 H1217 H -0.03667 0.74402 0.20619
 H1218 H -0.03650 0.70644 0.24371
 C1219 C -0.05397 0.22389 0.70293
 C1220 C -0.06029 0.20925 0.70932
 C1221 C -0.05397 0.20289 0.72398
 C1222 C -0.04143 0.21118 0.73228
 C1223 C -0.10902 0.17925 0.67936
 C1224 C -0.04143 0.23220 0.71120
 C1225 C -0.07344 0.20090 0.70099
 C1226 C -0.08456 0.19399 0.69409
 C1227 C -0.09770 0.18599 0.68610
 C1228 C -0.03507 0.22597 0.72601
 H1229 H -0.05879 0.22893 0.69160
 H1230 H -0.05879 0.19157 0.72905
 H1231 H -0.03681 0.20605 0.74365
 H1232 H -0.03681 0.24355 0.70605
 C1233 C 0.27587 0.44660 0.29719
 C1234 C 0.29052 0.44019 0.29082
 C1235 C 0.29690 0.44646 0.27616
 C1236 C 0.28864 0.45902 0.26783
 C1237 C 0.32041 0.39133 0.32082
 C1238 C 0.26759 0.45915 0.28889
 C1239 C 0.29883 0.42700 0.29918
 C1240 C 0.30572 0.41585 0.30609
 C1241 C 0.31368 0.40268 0.31408
 C1242 C 0.27385 0.46547 0.27408
 H1243 H 0.27081 0.44182 0.30853
 H1244 H 0.30822 0.44157 0.27111
 H1245 H 0.29379 0.46360 0.25646
 H1246 H 0.25624 0.46384 0.29403
 C1247 C 0.27635 -0.05409 0.79714
 C1248 C 0.29101 -0.06044 0.79074
 C1249 C 0.29737 -0.05411 0.77609
 C1250 C 0.28907 -0.04154 0.76781
 C1251 C 0.32102 -0.10930 0.82063
 C1252 C 0.26803 -0.04153 0.78889
 C1253 C 0.29937 -0.07363 0.79905
 C1254 C 0.30628 -0.08478 0.80594
 C1255 C 0.31428 -0.09795 0.81390
 C1256 C 0.27426 -0.03515 0.77409
 H1257 H 0.27131 -0.05892 0.80846
 H1258 H 0.30869 -0.05894 0.77102
 H1259 H 0.29420 -0.03691 0.75645
 H1260 H 0.25667 -0.03688 0.79405
 C1261 C 0.79743 0.44611 0.77625
 C1262 C 0.79104 0.43979 0.79089
 C1263 C 0.77639 0.44616 0.79728
 C1264 C 0.76810 0.45874 0.78902
 C1265 C 0.82096 0.39086 0.82076
 C1266 C 0.78916 0.45869 0.76797
 C1267 C 0.79937 0.42658 0.79921
 C1268 C 0.80626 0.41541 0.80609
 C1269 C 0.81423 0.40222 0.81404
 C1270 C 0.77436 0.46511 0.77423
 H1271 H 0.80875 0.44125 0.77119
 H1272 H 0.77133 0.44134 0.80859
 H1273 H 0.75674 0.46340 0.79417
 H1274 H 0.79431 0.46332 0.75662
 C1275 C 0.77643 -0.05392 0.29746
 C1276 C 0.79107 -0.06032 0.29108
 C1277 C 0.79746 -0.05405 0.27642
 C1278 C 0.78920 -0.04149 0.26810
 C1279 C 0.82104 -0.10916 0.32106
 C1280 C 0.76814 -0.04136 0.28916
 C1281 C 0.79940 -0.07351 0.29944
 C1282 C 0.80630 -0.08465 0.30635
 C1283 C 0.81429 -0.09781 0.31433
 C1284 C 0.77440 -0.03504 0.27434
 H1285 H 0.77137 -0.05870 0.30879
 H1286 H 0.80878 -0.05894 0.27137
 H1287 H 0.79435 -0.03691 0.25673
 H1288 H 0.75679 -0.03667 0.29430
 C1289 C 0.27582 0.55359 0.70293
 C1290 C 0.29047 0.55990 0.70930
 C1291 C 0.29684 0.55357 0.72395
 C1292 C 0.28856 0.54105 0.73226
 C1293 C 0.32046 0.60862 0.67933
 C1294 C 0.26750 0.54106 0.71121
 C1295 C 0.29882 0.57305 0.70096
 C1296 C 0.30572 0.58417 0.69405
 C1297 C 0.31371 0.59731 0.68606
 C1298 C 0.27375 0.53469 0.72601
 H1299 H 0.27077 0.55841 0.69160
 H1300 H 0.30817 0.55839 0.72900
 H1301 H 0.29369 0.53642 0.74362
 H1302 H 0.25614 0.53644 0.70607
 C1303 C 0.29709 1.05402 0.22370
 C1304 C 0.29070 1.06038 0.20907
 C1305 C 0.27603 1.05410 0.20271
 C1306 C 0.26771 1.04157 0.21099
 C1307 C 0.32073 1.10908 0.17909
 C1308 C 0.28880 1.04150 0.23201
 C1309 C 0.29906 1.07353 0.20073
 C1310 C 0.30597 1.08464 0.19383
 C1311 C 0.31397 1.09777 0.18584
 C1312 C 0.27397 1.03517 0.22578
 H1313 H 0.30843 1.05881 0.22874
 H1314 H 0.27097 1.05894 0.19140
 H1315 H 0.25634 1.03698 0.20587
 H1316 H 0.29395 1.03685 0.24335
 C1317 C 0.79730 0.55331 0.22391
 C1318 C 0.79091 0.55968 0.20929
 C1319 C 0.77626 0.55338 0.20291
 C1320 C 0.76796 0.54082 0.21116
 C1321 C 0.82075 0.60857 0.17944
 C1322 C 0.78904 0.54075 0.23219
 C1323 C 0.79923 0.57288 0.20099
 C1324 C 0.80611 0.58403 0.19411
 C1325 C 0.81405 0.59721 0.18615
 C1326 C 0.77423 0.53440 0.22594
 H1327 H 0.80863 0.55812 0.22897
 H1328 H 0.77119 0.55824 0.19161
 H1329 H 0.75660 0.53621 0.20602
 H1330 H 0.79419 0.53609 0.24353
 C1331 C 0.77623 1.05388 0.70317
 C1332 C 0.79087 1.06018 0.70958
 C1333 C 0.79720 1.05383 0.72424
 C1334 C 0.78889 1.04130 0.73252
 C1335 C 0.82095 1.10891 0.67972
 C1336 C 0.76789 1.04135 0.71141
 C1337 C 0.79925 1.07333 0.70128
 C1338 C 0.80618 1.08445 0.69440
 C1339 C 0.81419 1.09759 0.68644
 C1340 C 0.77410 1.03495 0.72622
 H1341 H 0.77121 1.05872 0.69184
 H1342 H 0.80852 1.05863 0.72933
 H1343 H 0.79400 1.03665 0.74388
 H1344 H 0.75654 1.03675 0.70624
 C1345 C 0.70297 0.55342 0.27627
 C1346 C 0.70937 0.55972 0.29091
 C1347 C 0.72402 0.55334 0.29727
 C1348 C 0.73230 0.54077 0.28897
 C1349 C 0.67950 0.60865 0.32087
 C1350 C 0.71123 0.54085 0.26795
 C1351 C 0.70106 0.57293 0.29926
 C1352 C 0.69418 0.58409 0.30616
 C1353 C 0.68622 0.59728 0.31414
 C1354 C 0.72603 0.53442 0.27417
 H1355 H 0.69164 0.55829 0.27123
 H1356 H 0.72909 0.55814 0.30859
 H1357 H 0.74366 0.53609 0.29410
 H1358 H 0.70607 0.53625 0.25659
 C1359 C 0.72357 1.05400 0.79734
 C1360 C 0.70893 1.06036 0.79092
 C1361 C 0.70259 1.05403 0.77626
 C1362 C 0.71090 1.04146 0.76799
 C1363 C 0.67889 1.10925 0.82075
 C1364 C 0.73190 1.04143 0.78909
 C1365 C 0.70057 1.07356 0.79922
 C1366 C 0.69365 1.08471 0.80609
 C1367 C 0.68564 1.09790 0.81404
 C1368 C 0.72569 1.03505 0.77428
 H1369 H 0.72859 1.05883 0.80867
 H1370 H 0.69128 1.05888 0.77117
 H1371 H 0.70579 1.03683 0.75662
 H1372 H 0.74325 1.03678 0.79426
 C1373 C 0.20242 0.55385 0.77623
 C1374 C 0.20880 0.56018 0.79087
 C1375 C 0.22344 0.55381 0.79725
 C1376 C 0.23174 0.54123 0.78900
 C1377 C 0.17889 0.60913 0.82075
 C1378 C 0.21069 0.54126 0.76794
 C1379 C 0.20047 0.57339 0.79918
 C1380 C 0.19358 0.58456 0.80607
 C1381 C 0.18561 0.59776 0.81403
 C1382 C 0.22549 0.53485 0.77421
 H1383 H 0.19110 0.55870 0.77116
 H1384 H 0.22850 0.55864 0.80857
 H1385 H 0.24310 0.53657 0.79415
 H1386 H 0.20555 0.53663 0.75659
 C1387 C 0.22375 1.05418 0.29714
 C1388 C 0.20908 1.06055 0.29080
 C1389 C 0.20269 1.05424 0.27616
 C1390 C 0.21095 1.04168 0.26783
 C1391 C 0.17911 1.10937 0.32081
 C1392 C 0.23204 1.04162 0.28884
 C1393 C 0.20075 1.07373 0.29916
 C1394 C 0.19385 1.08487 0.30607
 C1395 C 0.18586 1.09803 0.31407
 C1396 C 0.22577 1.03527 0.27405
 H1397 H 0.22882 1.05899 0.30846
 H1398 H 0.19135 1.05909 0.27112
 H1399 H 0.20579 1.03707 0.25648
 H1400 H 0.24341 1.03696 0.29396
 C1401 C 0.72405 0.44631 0.70297
 C1402 C 0.70939 0.44001 0.70935
 C1403 C 0.70301 0.44636 0.72400
 C1404 C 0.71130 0.45889 0.73230
 C1405 C 0.67943 0.39124 0.67942
 C1406 C 0.73236 0.45884 0.71125
 C1407 C 0.70105 0.42685 0.70103
 C1408 C 0.69414 0.41572 0.69413
 C1409 C 0.68616 0.40257 0.68616
 C1410 C 0.72611 0.46524 0.72604
 H1411 H 0.72910 0.44147 0.69165
 H1412 H 0.69168 0.44156 0.72906
 H1413 H 0.70616 0.46354 0.74365
 H1414 H 0.74373 0.46345 0.70610
 C1415 C 0.72396 -0.05395 0.20317
 C1416 C 0.70928 -0.06018 0.20957
 C1417 C 0.70294 -0.05378 0.22421
 C1418 C 0.71127 -0.04125 0.23247
 C1419 C 0.67912 -0.10886 0.17970
 C1420 C 0.73232 -0.04142 0.21141
 C1421 C 0.70088 -0.07332 0.20127
 C1422 C 0.69393 -0.08443 0.19439
 C1423 C 0.68589 -0.09756 0.18643
 C1424 C 0.72610 -0.03497 0.22619
 H1425 H 0.72899 -0.05883 0.19185
 H1426 H 0.69159 -0.05853 0.22928
 H1427 H 0.70615 -0.03657 0.24382
 H1428 H 0.74370 -0.03686 0.20624
 C1429 C 0.22352 0.44647 0.20291
 C1430 C 0.20886 0.44019 0.20932
 C1431 C 0.20249 0.44658 0.22394
 C1432 C 0.21079 0.45915 0.23219
 C1433 C 0.17894 0.39131 0.17953
 C1434 C 0.23184 0.45903 0.21113
 C1435 C 0.20052 0.42699 0.20103
 C1436 C 0.19362 0.41584 0.19418
 C1437 C 0.18565 0.40266 0.18624
 C1438 C 0.22559 0.46547 0.22591
 H1439 H 0.22857 0.44159 0.19160
 H1440 H 0.19117 0.44180 0.22902
 H1441 H 0.20565 0.46383 0.24354
 H1442 H 0.24320 0.46362 0.20597
 C1443 C 0.22390 -0.05400 0.70286
 C1444 C 0.20925 -0.06032 0.70925
 C1445 C 0.20288 -0.05399 0.72391
 C1446 C 0.21117 -0.04145 0.73221
 C1447 C 0.17929 -0.10907 0.67930
 C1448 C 0.23221 -0.04146 0.71114
 C1449 C 0.20091 -0.07348 0.70092
 C1450 C 0.19401 -0.08461 0.69402
 C1451 C 0.18603 -0.09775 0.68604
 C1452 C 0.22596 -0.03508 0.72595
 H1453 H 0.22895 -0.05882 0.69153
 H1454 H 0.19156 -0.05881 0.72898
 H1455 H 0.20603 -0.03682 0.74358
 H1456 H 0.24356 -0.03683 0.70598
 C1457 C 0.27589 0.29702 0.44675
 C1458 C 0.29055 0.29064 0.44041
 C1459 C 0.29695 0.27598 0.44673
 C1460 C 0.28869 0.26767 0.45927
 C1461 C 0.32044 0.32055 0.39159
 C1462 C 0.26760 0.28875 0.45929
 C1463 C 0.29887 0.29897 0.42723
 C1464 C 0.30575 0.30586 0.41609
 C1465 C 0.31372 0.31383 0.40293
 C1466 C 0.27387 0.27393 0.46566
 H1467 H 0.27081 0.30836 0.44193
 H1468 H 0.30828 0.27091 0.44189
 H1469 H 0.29385 0.25631 0.46389
 H1470 H 0.25623 0.29390 0.46393
 C1471 C 0.27608 0.79722 -0.05388
 C1472 C 0.29075 0.79081 -0.06019
 C1473 C 0.29714 0.77617 -0.05383
 C1474 C 0.28886 0.76789 -0.04127
 C1475 C 0.32068 0.82066 -0.10902
 C1476 C 0.26777 0.78897 -0.04132
 C1477 C 0.29908 0.79911 -0.07337
 C1478 C 0.30598 0.80599 -0.08451
 C1479 C 0.31395 0.81394 -0.09768
 C1480 C 0.27404 0.77417 -0.03492
 H1481 H 0.27101 0.80854 -0.05873
 H1482 H 0.30848 0.77109 -0.05863
 H1483 H 0.29401 0.75654 -0.03662
 H1484 H 0.25640 0.79413 -0.03671
 C1485 C 0.79715 0.27609 -0.05386
 C1486 C 0.79074 0.29076 -0.06014
 C1487 C 0.77609 0.29714 -0.05376
 C1488 C 0.76783 0.28885 -0.04121
 C1489 C 0.82057 0.32072 -0.10896
 C1490 C 0.78891 0.26777 -0.04131
 C1491 C 0.79903 0.29911 -0.07332
 C1492 C 0.80590 0.30601 -0.08446
 C1493 C 0.81386 0.31399 -0.09762
 C1494 C 0.77411 0.27402 -0.03488
 H1495 H 0.80847 0.27103 -0.05873
 H1496 H 0.77101 0.30848 -0.05855
 H1497 H 0.75647 0.29399 -0.03654
 H1498 H 0.79408 0.25639 -0.03672
 C1499 C 0.79737 0.77631 0.44666
 C1500 C 0.79097 0.79096 0.44034
 C1501 C 0.77631 0.79736 0.44668
 C1502 C 0.76803 0.78910 0.45924
 C1503 C 0.82081 0.82083 0.39146
 C1504 C 0.78912 0.76802 0.45922
 C1505 C 0.79928 0.79928 0.42714
 C1506 C 0.80615 0.80616 0.41599
 C1507 C 0.81410 0.81412 0.40282
 C1508 C 0.77431 0.77429 0.46562
 H1509 H 0.80870 0.77124 0.44182
 H1510 H 0.77124 0.80869 0.44186
 H1511 H 0.75667 0.79425 0.46389
 H1512 H 0.79428 0.75666 0.46385
 C1513 C 0.70306 0.27597 0.55338
 C1514 C 0.70940 0.29064 0.55970
 C1515 C 0.72402 0.29704 0.55335
 C1516 C 0.73235 0.28877 0.54080
 C1517 C 0.67942 0.32053 0.60856
 C1518 C 0.71135 0.26768 0.54083
 C1519 C 0.70105 0.29897 0.57289
 C1520 C 0.69414 0.30585 0.58404
 C1521 C 0.68616 0.31382 0.59721
 C1522 C 0.72614 0.27395 0.53444
 H1523 H 0.69175 0.27090 0.55823
 H1524 H 0.72905 0.30838 0.55817
 H1525 H 0.74369 0.29393 0.53616
 H1526 H 0.70624 0.25630 0.53622
 C1527 C 0.72347 0.79712 1.05353
 C1528 C 0.70883 0.79072 1.05984
 C1529 C 0.70248 0.77608 1.05347
 C1530 C 0.71078 0.76781 1.04090
 C1531 C 0.67888 0.82054 1.10875
 C1532 C 0.73180 0.78888 1.04096
 C1533 C 0.70048 0.79901 1.07304
 C1534 C 0.69357 0.80588 1.08420
 C1535 C 0.68559 0.81383 1.09739
 C1536 C 0.72558 0.77408 1.03455
 H1537 H 0.72850 0.80844 1.05838
 H1538 H 0.69116 0.77100 1.05828
 H1539 H 0.70566 0.75645 1.03625
 H1540 H 0.74315 0.79404 1.03635
 C1541 C 0.22356 0.29702 1.05349
 C1542 C 0.20891 0.29065 1.05982
 C1543 C 0.20253 0.27602 1.05348
 C1544 C 0.21080 0.26771 1.04092
 C1545 C 0.17900 0.32054 1.10872
 C1546 C 0.23186 0.28875 1.04093
 C1547 C 0.20058 0.29898 1.07302
 C1548 C 0.19369 0.30587 1.08418
 C1549 C 0.18572 0.31383 1.09736
 C1550 C 0.22561 0.27396 1.03454
 H1551 H 0.22862 0.30834 1.05833
 H1552 H 0.19121 0.27097 1.05831
 H1553 H 0.20566 0.25637 1.03628
 H1554 H 0.24322 0.29388 1.03630
 C1555 C 0.22401 0.79751 0.55341
 C1556 C 0.20935 0.79116 0.55976
 C1557 C 0.20294 0.77654 0.55341
 C1558 C 0.21118 0.76823 0.54083
 C1559 C 0.17957 0.82105 0.60872
 C1560 C 0.23228 0.78922 0.54083
 C1561 C 0.20106 0.79949 0.57297
 C1562 C 0.19420 0.80638 0.58414
 C1563 C 0.18627 0.81434 0.59735
 C1564 C 0.22599 0.77445 0.53444
 H1565 H 0.22909 0.80881 0.55825
 H1566 H 0.19161 0.77151 0.55825
 H1567 H 0.20601 0.75689 0.53619
 H1568 H 0.24364 0.79434 0.53619
 C1569 C 0.27613 0.70296 0.55326
 C1570 C 0.29079 0.70930 0.55960
 C1571 C 0.29720 0.72393 0.55328
 C1572 C 0.28894 0.73226 0.54073
 C1573 C 0.32061 0.67930 0.60845
 C1574 C 0.26785 0.71127 0.54071
 C1575 C 0.29909 0.70094 0.57278
 C1576 C 0.30596 0.69403 0.58393
 C1577 C 0.31390 0.68604 0.59710
 C1578 C 0.27413 0.72606 0.53435
 H1579 H 0.27105 0.69165 0.55808
 H1580 H 0.30853 0.72895 0.55811
 H1581 H 0.29411 0.74361 0.53611
 H1582 H 0.25648 0.70616 0.53607
 C1583 C 0.29693 0.22359 1.05344
 C1584 C 0.29055 0.20895 1.05977
 C1585 C 0.27590 0.20258 1.05343
 C1586 C 0.26760 0.21087 1.04088
 C1587 C 0.32044 0.17901 1.10862
 C1588 C 0.28866 0.23191 1.04089
 C1589 C 0.29887 0.20061 1.07295
 C1590 C 0.30576 0.19371 1.08410
 C1591 C 0.31372 0.18574 1.09727
 C1592 C 0.27386 0.22567 1.03451
 H1593 H 0.30825 0.22864 1.05828
 H1594 H 0.27084 0.19127 1.05825
 H1595 H 0.25625 0.20574 1.03624
 H1596 H 0.29380 0.24326 1.03627
 C1597 C 0.79699 0.72384 1.05347
 C1598 C 0.79062 0.70919 1.05979
 C1599 C 0.77599 0.70280 1.05344
 C1600 C 0.76769 0.71108 1.04089
 C1601 C 0.82058 0.67931 1.10864
 C1602 C 0.78871 0.73215 1.04092
 C1603 C 0.79896 0.70086 1.07297
 C1604 C 0.80585 0.69397 1.08412
 C1605 C 0.81384 0.68602 1.09729
 C1606 C 0.77392 0.72589 1.03452
 H1607 H 0.80830 0.72890 1.05831
 H1608 H 0.77095 0.69147 1.05825
 H1609 H 0.75634 0.70593 1.03624
 H1610 H 0.79384 0.74351 1.03630
 C1611 C 0.77664 0.20279 0.55347
 C1612 C 0.79126 0.20921 0.55980
 C1613 C 0.79760 0.22386 0.55343
 C1614 C 0.78931 0.23211 0.54086
 C1615 C 0.82116 0.17947 0.60876
 C1616 C 0.76832 0.21102 0.54089
 C1617 C 0.79960 0.20094 0.57301
 C1618 C 0.80649 0.19409 0.58418
 C1619 C 0.81446 0.18616 0.59738
 C1620 C 0.77453 0.22582 0.53449
 H1621 H 0.77161 0.19147 0.55832
 H1622 H 0.80891 0.22895 0.55826
 H1623 H 0.79442 0.24347 0.53621
 H1624 H 0.75698 0.20584 0.53627
 C1625 C 0.70303 0.72408 0.44672
 C1626 C 0.70943 0.70942 0.44038
 C1627 C 0.72409 0.70303 0.44670
 C1628 C 0.73239 0.71129 0.45925
 C1629 C 0.67951 0.67953 0.39157
 C1630 C 0.71130 0.73237 0.45927
 C1631 C 0.70110 0.70110 0.42720
 C1632 C 0.69421 0.69422 0.41606
 C1633 C 0.68623 0.68625 0.40291
 C1634 C 0.72612 0.72610 0.46563
 H1635 H 0.69170 0.72915 0.44191
 H1636 H 0.72916 0.69170 0.44186
 H1637 H 0.74376 0.70613 0.46387
 H1638 H 0.70615 0.74373 0.46391
 C1639 C 0.70278 0.22386 -0.05375
 C1640 C 0.70917 0.20922 -0.06013
 C1641 C 0.72384 0.20280 -0.05385
 C1642 C 0.73216 0.21104 -0.04130
 C1643 C 0.67920 0.17938 -0.10895
 C1644 C 0.71108 0.23213 -0.04120
 C1645 C 0.70081 0.20092 -0.07331
 C1646 C 0.69391 0.19405 -0.08445
 C1647 C 0.68592 0.18610 -0.09761
 C1648 C 0.72591 0.22584 -0.03487
 H1649 H 0.69144 0.22895 -0.05854
 H1650 H 0.72890 0.19148 -0.05872
 H1651 H 0.74354 0.20587 -0.03671
 H1652 H 0.70594 0.24348 -0.03653
 C1653 C 0.20280 0.72389 -0.05383
 C1654 C 0.20921 0.70923 -0.06013
 C1655 C 0.22387 0.70285 -0.05378
 C1656 C 0.23214 0.71114 -0.04123
 C1657 C 0.17934 0.67926 -0.10893
 C1658 C 0.21105 0.73221 -0.04129
 C1659 C 0.20091 0.70088 -0.07331
 C1660 C 0.19403 0.69397 -0.08444
 C1661 C 0.18607 0.68599 -0.09760
 C1662 C 0.22586 0.72596 -0.03489
 H1663 H 0.19148 0.72895 -0.05868
 H1664 H 0.22895 0.69151 -0.05858
 H1665 H 0.24350 0.70600 -0.03658
 H1666 H 0.20589 0.74359 -0.03668
 C1667 C 0.20265 0.22374 0.44663
 C1668 C 0.20906 0.20909 0.44028
 C1669 C 0.22371 0.20269 0.44661
 C1670 C 0.23199 0.21094 0.45919
 C1671 C 0.17927 0.17930 0.39133
 C1672 C 0.21090 0.23201 0.45921
 C1673 C 0.20076 0.20080 0.42707
 C1674 C 0.19390 0.19393 0.41590
 C1675 C 0.18596 0.18599 0.40270
 C1676 C 0.22570 0.22573 0.46559
 H1677 H 0.19132 0.22882 0.44180
 H1678 H 0.22879 0.19137 0.44177
 H1679 H 0.24335 0.20578 0.46382
 H1680 H 0.20573 0.24337 0.46385
 C1681 C 0.27579 0.44656 0.70304
 C1682 C 0.29044 0.44020 0.70944
 C1683 C 0.29682 0.44655 0.72407
 C1684 C 0.28853 0.45913 0.73235
 C1685 C 0.32039 0.39126 0.67959
 C1686 C 0.26748 0.45915 0.71130
 C1687 C 0.29878 0.42699 0.70113
 C1688 C 0.30568 0.41582 0.69425
 C1689 C 0.31366 0.40263 0.68630
 C1690 C 0.27373 0.46554 0.72608
 H1691 H 0.27074 0.44173 0.69173
 H1692 H 0.30814 0.44170 0.72914
 H1693 H 0.29368 0.46377 0.74370
 H1694 H 0.25613 0.46380 0.70615
 C1695 C 0.27590 0.94710 0.20263
 C1696 C 0.29056 0.94072 0.20898
 C1697 C 0.29696 0.94702 0.22362
 C1698 C 0.28871 0.95960 0.23194
 C1699 C 0.32045 0.89182 0.17899
 C1700 C 0.26762 0.95967 0.21093
 C1701 C 0.29887 0.92752 0.20063
 C1702 C 0.30575 0.91636 0.19372
 C1703 C 0.31372 0.90318 0.18573
 C1704 C 0.27390 0.96602 0.22572
 H1705 H 0.27082 0.94229 0.19132
 H1706 H 0.30829 0.94216 0.22865
 H1707 H 0.29387 0.96421 0.24329
 H1708 H 0.25625 0.96434 0.20581
 C1709 C 0.77625 0.44634 0.20270
 C1710 C 0.79091 0.43997 0.20906
 C1711 C 0.79730 0.44627 0.22370
 C1712 C 0.78903 0.45883 0.23203
 C1713 C 0.82088 0.39113 0.17907
 C1714 C 0.76795 0.45890 0.21100
 C1715 C 0.79924 0.42679 0.20070
 C1716 C 0.80614 0.41564 0.19379
 C1717 C 0.81413 0.40247 0.18580
 C1718 C 0.77422 0.46525 0.22580
 H1719 H 0.77118 0.44154 0.19138
 H1720 H 0.80863 0.44142 0.22874
 H1721 H 0.79418 0.46344 0.24338
 H1722 H 0.75659 0.46356 0.20588
 C1723 C 0.77617 0.94689 0.70311
 C1724 C 0.79080 0.94051 0.70952
 C1725 C 0.79715 0.94683 0.72419
 C1726 C 0.78885 0.95939 0.73247
 C1727 C 0.82080 0.89164 0.67961
 C1728 C 0.76785 0.95945 0.71137
 C1729 C 0.79916 0.92732 0.70120
 C1730 C 0.80607 0.91617 0.69431
 C1731 C 0.81406 0.90299 0.68634
 C1732 C 0.77406 0.96581 0.72619
 H1733 H 0.77114 0.94207 0.69178
 H1734 H 0.80846 0.94197 0.72927
 H1735 H 0.79396 0.96401 0.74384
 H1736 H 0.75650 0.96411 0.70620
 C1737 C 0.72413 0.55334 0.70301
 C1738 C 0.70948 0.55971 0.70939
 C1739 C 0.70310 0.55339 0.72403
 C1740 C 0.71136 0.54081 0.73232
 C1741 C 0.67957 0.60863 0.67951
 C1742 C 0.73243 0.54076 0.71127
 C1743 C 0.70116 0.57291 0.70107
 C1744 C 0.69427 0.58408 0.69419
 C1745 C 0.68630 0.59727 0.68622
 C1746 C 0.72616 0.53439 0.72606
 H1747 H 0.72920 0.55815 0.69169
 H1748 H 0.69177 0.55825 0.72909
 H1749 H 0.70621 0.53619 0.74367
 H1750 H 0.74378 0.53609 0.70612
 C1751 C 0.72428 0.05301 0.20285
 C1752 C 0.70965 0.05943 0.20921
 C1753 C 0.70326 0.05318 0.22388
 C1754 C 0.71151 0.04062 0.23222
 C1755 C 0.67974 0.10824 0.17915
 C1756 C 0.73257 0.04046 0.21116
 C1757 C 0.70133 0.07261 0.20084
 C1758 C 0.69444 0.08375 0.19391
 C1759 C 0.68647 0.09690 0.18590
 C1760 C 0.72630 0.03416 0.22598
 H1761 H 0.72935 0.05778 0.19151
 H1762 H 0.69194 0.05807 0.22893
 H1763 H 0.70636 0.03606 0.24359
 H1764 H 0.74391 0.03576 0.20602
 C1765 C 0.20263 0.55365 0.22366
 C1766 C 0.20902 0.55993 0.20900
 C1767 C 0.22366 0.55353 0.20262
 C1768 C 0.23195 0.54096 0.21091
 C1769 C 0.17914 0.60884 0.17908
 C1770 C 0.21089 0.54108 0.23197
 C1771 C 0.20071 0.57313 0.20066
 C1772 C 0.19383 0.58429 0.19376
 C1773 C 0.18586 0.59748 0.18579
 C1774 C 0.22569 0.53464 0.22572
 H1775 H 0.19132 0.55853 0.22871
 H1776 H 0.22873 0.55832 0.19129
 H1777 H 0.24330 0.53628 0.20577
 H1778 H 0.20574 0.53649 0.24334
 C1779 C 0.20280 0.05303 0.72401
 C1780 C 0.20916 0.05937 0.70936
 C1781 C 0.22382 0.05303 0.70296
 C1782 C 0.23214 0.04046 0.71121
 C1783 C 0.17917 0.10827 0.67952
 C1784 C 0.21110 0.04046 0.73228
 C1785 C 0.20081 0.07257 0.70106
 C1786 C 0.19390 0.08373 0.69419
 C1787 C 0.18591 0.09691 0.68623
 C1788 C 0.22590 0.03407 0.72600
 H1789 H 0.19148 0.05787 0.72908
 H1790 H 0.22886 0.05786 0.69164
 H1791 H 0.24350 0.03581 0.70604
 H1792 H 0.20597 0.03583 0.74363
 C1793 C 0.27605 0.55362 0.29688
 C1794 C 0.29071 0.55989 0.29047
 C1795 C 0.29707 0.55349 0.27584
 C1796 C 0.28877 0.54094 0.26759
 C1797 C 0.32070 0.60873 0.32026
 C1798 C 0.26772 0.54107 0.28865
 C1799 C 0.29907 0.57307 0.29875
 C1800 C 0.30598 0.58422 0.30561
 C1801 C 0.31397 0.59738 0.31355
 C1802 C 0.27396 0.53462 0.27387
 H1803 H 0.27100 0.55851 0.30819
 H1804 H 0.30841 0.55827 0.27076
 H1805 H 0.29391 0.53625 0.25625
 H1806 H 0.25636 0.53649 0.29382
 C1807 C 0.27625 0.05294 0.79719
 C1808 C 0.29089 0.05927 0.79080
 C1809 C 0.29727 0.05293 0.77614
 C1810 C 0.28899 0.04038 0.76785
 C1811 C 0.32079 0.10810 0.82069
 C1812 C 0.26795 0.04039 0.78893
 C1813 C 0.29922 0.07245 0.79911
 C1814 C 0.30611 0.08359 0.80600
 C1815 C 0.31407 0.09676 0.81396
 C1816 C 0.27420 0.03401 0.77412
 H1817 H 0.27120 0.05777 0.80852
 H1818 H 0.30858 0.05775 0.77107
 H1819 H 0.29413 0.03574 0.75649
 H1820 H 0.25660 0.03576 0.79409
 C1821 C 0.77645 0.55322 0.79730
 C1822 C 0.79111 0.55953 0.79091
 C1823 C 0.79749 0.55317 0.77627
 C1824 C 0.78921 0.54062 0.76798
 C1825 C 0.82101 0.60836 0.82079
 C1826 C 0.76815 0.54067 0.78904
 C1827 C 0.79944 0.57270 0.79923
 C1828 C 0.80633 0.58385 0.80611
 C1829 C 0.81429 0.59701 0.81407
 C1830 C 0.77440 0.53427 0.77424
 H1831 H 0.77139 0.55806 0.80862
 H1832 H 0.80882 0.55798 0.77121
 H1833 H 0.79436 0.53598 0.75663
 H1834 H 0.75679 0.53606 0.79418
 C1835 C 0.77666 0.05310 0.29717
 C1836 C 0.79132 0.05937 0.29076
 C1837 C 0.79768 0.05297 0.27613
 C1838 C 0.78937 0.04042 0.26788
 C1839 C 0.82130 0.10819 0.32058
 C1840 C 0.76832 0.04055 0.28894
 C1841 C 0.79968 0.07255 0.29905
 C1842 C 0.80659 0.08369 0.30592
 C1843 C 0.81457 0.09685 0.31387
 C1844 C 0.77456 0.03411 0.27416
 H1845 H 0.77161 0.05798 0.30848
 H1846 H 0.80901 0.05775 0.27105
 H1847 H 0.79450 0.03574 0.25653
 H1848 H 0.75696 0.03598 0.29411
 C1849 C 0.72394 0.44629 0.29706
 C1850 C 0.70928 0.44000 0.29068
 C1851 C 0.70289 0.44638 0.27605
 C1852 C 0.71117 0.45893 0.26778
 C1853 C 0.67933 0.39118 0.32052
 C1854 C 0.73225 0.45884 0.28881
 C1855 C 0.70094 0.42682 0.29898
 C1856 C 0.69404 0.41568 0.30586
 C1857 C 0.68606 0.40252 0.31381
 C1858 C 0.72599 0.46526 0.27403
 H1859 H 0.72900 0.44143 0.30836
 H1860 H 0.69156 0.44159 0.27100
 H1861 H 0.70602 0.46360 0.25644
 H1862 H 0.74362 0.46344 0.29395
 C1863 C 0.70261 0.94699 0.77625
 C1864 C 0.70896 0.94065 0.79091
 C1865 C 0.72359 0.94696 0.79733
 C1866 C 0.73191 0.95951 0.78908
 C1867 C 0.67900 0.89183 0.82076
 C1868 C 0.71091 0.95953 0.76798
 C1869 C 0.70061 0.92747 0.79921
 C1870 C 0.69370 0.91633 0.80609
 C1871 C 0.68573 0.90317 0.81405
 C1872 C 0.72569 0.96590 0.77427
 H1873 H 0.69130 0.94217 0.77116
 H1874 H 0.72862 0.94213 0.80866
 H1875 H 0.74325 0.96413 0.79426
 H1876 H 0.70579 0.96417 0.75661
 C1877 C 0.20238 0.44678 0.77628
 C1878 C 0.20875 0.44044 0.79092
 C1879 C 0.22340 0.44675 0.79731
 C1880 C 0.23171 0.45930 0.78904
 C1881 C 0.17883 0.39161 0.82079
 C1882 C 0.21066 0.45933 0.76799
 C1883 C 0.20042 0.42726 0.79924
 C1884 C 0.19353 0.41612 0.80612
 C1885 C 0.18555 0.40296 0.81408
 C1886 C 0.22546 0.46568 0.77425
 H1887 H 0.19105 0.44197 0.77122
 H1888 H 0.22846 0.44192 0.80863
 H1889 H 0.24307 0.46391 0.79419
 H1890 H 0.20552 0.46396 0.75664
 C1891 C 0.22369 0.94717 0.29704
 C1892 C 0.20902 0.94088 0.29068
 C1893 C 0.20263 0.94723 0.27605
 C1894 C 0.21090 0.95978 0.26775
 C1895 C 0.17912 0.89208 0.32061
 C1896 C 0.23199 0.95972 0.28877
 C1897 C 0.20069 0.92771 0.29901
 C1898 C 0.19380 0.91657 0.30590
 C1899 C 0.18584 0.90342 0.31388
 C1900 C 0.22572 0.96612 0.27399
 H1901 H 0.22876 0.94233 0.30835
 H1902 H 0.19129 0.94243 0.27101
 H1903 H 0.20575 0.96443 0.25641
 H1904 H 0.24336 0.96432 0.29390
 C1905 C 0.44653 0.29682 0.72407
 C1906 C 0.44020 0.29044 0.70943
 C1907 C 0.44657 0.27580 0.70303
 C1908 C 0.45916 0.26750 0.71129
 C1909 C 0.39127 0.32037 0.67958
 C1910 C 0.45912 0.28854 0.73235
 C1911 C 0.42699 0.29877 0.70112
 C1912 C 0.41583 0.30567 0.69425
 C1913 C 0.40264 0.31364 0.68629
 C1914 C 0.46553 0.27375 0.72608
 H1915 H 0.44168 0.30814 0.72914
 H1916 H 0.44175 0.27074 0.69172
 H1917 H 0.46381 0.25614 0.70613
 H1918 H 0.46374 0.29369 0.74370
 C1919 C 0.44655 0.79747 0.22347
 C1920 C 0.44025 0.79107 0.20883
 C1921 C 0.44663 0.77642 0.20246
 C1922 C 0.45920 0.76814 0.21076
 C1923 C 0.39134 0.82098 0.17891
 C1924 C 0.45911 0.78921 0.23179
 C1925 C 0.42705 0.79939 0.20048
 C1926 C 0.41589 0.80628 0.19359
 C1927 C 0.40271 0.81425 0.18562
 C1928 C 0.46554 0.77441 0.22556
 H1929 H 0.44168 0.80880 0.22852
 H1930 H 0.44183 0.77135 0.19114
 H1931 H 0.46387 0.75677 0.20563
 H1932 H 0.46371 0.79437 0.24314
 C1933 C 0.94699 0.29686 0.22367
 C1934 C 0.94070 0.29045 0.20902
 C1935 C 0.94711 0.27581 0.20266
 C1936 C 0.95968 0.26753 0.21095
 C1937 C 0.89180 0.32031 0.17905
 C1938 C 0.95956 0.28861 0.23199
 C1939 C 0.92750 0.29876 0.20067
 C1940 C 0.91634 0.30563 0.19376
 C1941 C 0.90316 0.31359 0.18578
 C1942 C 0.96601 0.27381 0.22575
 H1943 H 0.94211 0.30818 0.22871
 H1944 H 0.94231 0.27073 0.19134
 H1945 H 0.96436 0.25618 0.20582
 H1946 H 0.96416 0.29377 0.24334
 C1947 C 0.94685 0.79714 0.72418
 C1948 C 0.94054 0.79078 0.70952
 C1949 C 0.94691 0.77615 0.70311
 C1950 C 0.95948 0.76783 0.71137
 C1951 C 0.89168 0.82077 0.67961
 C1952 C 0.95941 0.78884 0.73247
 C1953 C 0.92735 0.79913 0.70119
 C1954 C 0.91620 0.80604 0.69431
 C1955 C 0.90303 0.81403 0.68633
 C1956 C 0.96583 0.77405 0.72618
 H1957 H 0.94199 0.80845 0.72926
 H1958 H 0.94211 0.77111 0.69178
 H1959 H 0.96414 0.75648 0.70621
 H1960 H 0.96403 0.79397 0.74383
 C1961 C 0.55348 0.27582 0.29697
 C1962 C 0.55978 0.29048 0.29059
 C1963 C 0.55341 0.29686 0.27596
 C1964 C 0.54086 0.28858 0.26768
 C1965 C 0.60859 0.32041 0.32048
 C1966 C 0.54093 0.26752 0.28871
 C1967 C 0.57295 0.29881 0.29890
 C1968 C 0.58409 0.30571 0.30579
 C1969 C 0.59725 0.31368 0.31375
 C1970 C 0.53452 0.27378 0.27394
 H1971 H 0.55834 0.27076 0.30828
 H1972 H 0.55821 0.30819 0.27091
 H1973 H 0.53620 0.29373 0.25634
 H1974 H 0.53633 0.25615 0.29386
 C1975 C 0.55314 0.77650 0.79720
 C1976 C 0.55944 0.79114 0.79081
 C1977 C 0.55310 0.79750 0.77616
 C1978 C 0.54057 0.78921 0.76787
 C1979 C 0.60823 0.82110 0.82071
 C1980 C 0.54060 0.76818 0.78894
 C1981 C 0.57261 0.79949 0.79913
 C1982 C 0.58374 0.80639 0.80602
 C1983 C 0.59690 0.81437 0.81399
 C1984 C 0.53422 0.77441 0.77414
 H1985 H 0.55797 0.77145 0.80853
 H1986 H 0.55791 0.80883 0.77110
 H1987 H 0.53593 0.79434 0.75651
 H1988 H 0.53599 0.75682 0.79409
 C1989 C 0.05293 0.29731 0.77620
 C1990 C 0.05926 0.29094 0.79085
 C1991 C 0.05293 0.27631 0.79725
 C1992 C 0.04038 0.26801 0.78899
 C1993 C 0.10808 0.32085 0.82074
 C1994 C 0.04038 0.28903 0.76791
 C1995 C 0.07243 0.29928 0.79917
 C1996 C 0.08357 0.30617 0.80606
 C1997 C 0.09674 0.31414 0.81402
 C1998 C 0.03400 0.27424 0.77418
 H1999 H 0.05775 0.30862 0.77113
 H2000 H 0.05775 0.27127 0.80858
 H2001 H 0.03575 0.25666 0.79415
 H2002 H 0.03575 0.29416 0.75655
 C2003 C 0.05321 0.77676 0.29726
 C2004 C 0.05950 0.79142 0.29088
 C2005 C 0.05312 0.79781 0.27626
 C2006 C 0.04057 0.78952 0.26798
 C2007 C 0.10835 0.82135 0.32071
 C2008 C 0.04066 0.76846 0.28901
 C2009 C 0.07268 0.79976 0.29918
 C2010 C 0.08383 0.80665 0.30605
 C2011 C 0.09700 0.81463 0.31400
 C2012 C 0.03423 0.77471 0.27424
 H2013 H 0.05807 0.77170 0.30857
 H2014 H 0.05792 0.80914 0.27120
 H2015 H 0.03590 0.79467 0.25664
 H2016 H 0.03606 0.75709 0.29416
 C2017 C 0.55339 0.70305 0.72399
 C2018 C 0.55972 0.70942 0.70934
 C2019 C 0.55335 0.72405 0.70295
 C2020 C 0.54076 0.73236 0.71120
 C2021 C 0.60867 0.67949 0.67949
 C2022 C 0.54080 0.71132 0.73227
 C2023 C 0.57293 0.70108 0.70103
 C2024 C 0.58410 0.69419 0.69416
 C2025 C 0.59730 0.68621 0.68620
 C2026 C 0.53438 0.72611 0.72600
 H2027 H 0.55824 0.69173 0.72906
 H2028 H 0.55817 0.72910 0.69163
 H2029 H 0.53610 0.74371 0.70604
 H2030 H 0.53617 0.70619 0.74362
 C2031 C 0.55346 0.22354 0.20261
 C2032 C 0.55984 0.20889 0.20897
 C2033 C 0.55353 0.20249 0.22362
 C2034 C 0.54096 0.21076 0.23194
 C2035 C 0.60875 0.17899 0.17903
 C2036 C 0.54089 0.23183 0.21091
 C2037 C 0.57304 0.20057 0.20063
 C2038 C 0.58420 0.19369 0.19373
 C2039 C 0.59739 0.18572 0.18575
 C2040 C 0.53454 0.22556 0.22571
 H2041 H 0.55826 0.22861 0.19129
 H2042 H 0.55840 0.19117 0.22866
 H2043 H 0.53636 0.20560 0.24329
 H2044 H 0.53622 0.24319 0.20578
 C2045 C 0.05328 0.70342 0.22390
 C2046 C 0.05957 0.70981 0.20925
 C2047 C 0.05319 0.72446 0.20290
 C2048 C 0.04064 0.73276 0.21120
 C2049 C 0.10839 0.67984 0.17921
 C2050 C 0.04073 0.71169 0.23223
 C2051 C 0.07275 0.70148 0.20088
 C2052 C 0.08389 0.69458 0.19396
 C2053 C 0.09705 0.68659 0.18596
 C2054 C 0.03430 0.72649 0.22600
 H2055 H 0.05815 0.69209 0.22894
 H2056 H 0.05799 0.72953 0.19157
 H2057 H 0.03597 0.74412 0.20608
 H2058 H 0.03613 0.70653 0.24359
 C2059 C 0.05306 0.20282 0.72407
 C2060 C 0.05940 0.20917 0.70942
 C2061 C 0.05305 0.22382 0.70302
 C2062 C 0.04048 0.23215 0.71127
 C2063 C 0.10830 0.17916 0.67956
 C2064 C 0.04048 0.21112 0.73234
 C2065 C 0.07260 0.20081 0.70111
 C2066 C 0.08376 0.19390 0.69424
 C2067 C 0.09694 0.18590 0.68628
 C2068 C 0.03409 0.22592 0.72607
 H2069 H 0.05789 0.19150 0.72915
 H2070 H 0.05789 0.22885 0.69169
 H2071 H 0.03584 0.24350 0.70610
 H2072 H 0.03584 0.20600 0.74370
 C2073 C 0.44654 0.72414 0.29678
 C2074 C 0.44026 0.70948 0.29039
 C2075 C 0.44665 0.70309 0.27577
 C2076 C 0.45921 0.71138 0.26750
 C2077 C 0.39144 0.67951 0.32024
 C2078 C 0.45910 0.73245 0.28853
 C2079 C 0.42708 0.70113 0.29869
 C2080 C 0.41594 0.69423 0.30557
 C2081 C 0.40278 0.68624 0.31352
 C2082 C 0.46554 0.72619 0.27376
 H2083 H 0.44167 0.72920 0.30808
 H2084 H 0.44187 0.69176 0.27071
 H2085 H 0.46389 0.70623 0.25616
 H2086 H 0.46369 0.74382 0.29368
 C2087 C 0.44675 0.20240 0.77624
 C2088 C 0.44040 0.20877 0.79088
 C2089 C 0.44670 0.22342 0.79728
 C2090 C 0.45925 0.23173 0.78902
 C2091 C 0.39155 0.17885 0.82073
 C2092 C 0.45930 0.21068 0.76796
 C2093 C 0.42721 0.20043 0.79919
 C2094 C 0.41607 0.19354 0.80607
 C2095 C 0.40290 0.18557 0.81402
 C2096 C 0.46565 0.22548 0.77422
 H2097 H 0.44194 0.19107 0.77117
 H2098 H 0.44186 0.22847 0.80860
 H2099 H 0.46386 0.24308 0.79417
 H2100 H 0.46395 0.20554 0.75660
 C2101 C 0.94694 0.72365 0.79734
 C2102 C 0.94062 0.70901 0.79092
 C2103 C 0.94697 0.70266 0.77627
 C2104 C 0.95952 0.71094 0.76799
 C2105 C 0.89177 0.67910 0.82078
 C2106 C 0.95949 0.73196 0.78909
 C2107 C 0.92744 0.70068 0.79923
 C2108 C 0.91629 0.69378 0.80610
 C2109 C 0.90312 0.68582 0.81406
 C2110 C 0.96589 0.72573 0.77428
 H2111 H 0.94210 0.72869 0.80866
 H2112 H 0.94215 0.69134 0.77118
 H2113 H 0.96417 0.70582 0.75663
 H2114 H 0.96411 0.74330 0.79426
 C2115 C 0.94723 0.20251 0.27601
 C2116 C 0.94085 0.20889 0.29064
 C2117 C 0.94713 0.22356 0.29702
 C2118 C 0.95968 0.23188 0.28876
 C2119 C 0.89205 0.17895 0.32053
 C2120 C 0.95978 0.21080 0.26772
 C2121 C 0.92768 0.20055 0.29895
 C2122 C 0.91654 0.19365 0.30584
 C2123 C 0.90339 0.18568 0.31381
 C2124 C 0.96610 0.22562 0.27398
 H2125 H 0.94244 0.19118 0.27095
 H2126 H 0.94227 0.22862 0.30833
 H2127 H 0.96427 0.24325 0.29391
 H2128 H 0.96444 0.20566 0.25638
 C2129 C 0.29694 0.27588 0.55368
 C2130 C 0.29053 0.29053 0.56003
 C2131 C 0.27587 0.29693 0.55371
 C2132 C 0.26758 0.28867 0.54115
 C2133 C 0.32043 0.32041 0.60886
 C2134 C 0.28867 0.26760 0.54113
 C2135 C 0.29886 0.29885 0.57321
 C2136 C 0.30575 0.30573 0.58436
 C2137 C 0.31371 0.31369 0.59752
 C2138 C 0.27386 0.27387 0.53476
 H2139 H 0.30827 0.27081 0.55850
 H2140 H 0.27080 0.30826 0.55855
 H2141 H 0.25622 0.29383 0.53653
 H2142 H 0.29383 0.25624 0.53648
 C2143 C 0.29701 0.77637 0.05313
 C2144 C 0.29060 0.79103 0.05943
 C2145 C 0.27594 0.79741 0.05308
 C2146 C 0.26767 0.78912 0.04053
 C2147 C 0.32047 0.82100 0.10823
 C2148 C 0.28876 0.76805 0.04059
 C2149 C 0.29890 0.79938 0.07260
 C2150 C 0.30578 0.80628 0.08374
 C2151 C 0.31374 0.81427 0.09690
 C2152 C 0.27395 0.77430 0.03418
 H2153 H 0.30833 0.77131 0.05797
 H2154 H 0.27086 0.80875 0.05788
 H2155 H 0.25630 0.79426 0.03588
 H2156 H 0.29392 0.75668 0.03598
 C2157 C 0.77634 0.29690 0.05320
 C2158 C 0.79102 0.29049 0.05948
 C2159 C 0.79740 0.27585 0.05310
 C2160 C 0.78910 0.26758 0.04055
 C2161 C 0.82098 0.32032 0.10830
 C2162 C 0.76802 0.28866 0.04065
 C2163 C 0.79937 0.29879 0.07266
 C2164 C 0.80627 0.30565 0.08380
 C2165 C 0.81426 0.31361 0.09696
 C2166 C 0.77428 0.27387 0.03422
 H2167 H 0.77129 0.30822 0.05806
 H2168 H 0.80874 0.27076 0.05788
 H2169 H 0.79425 0.25623 0.03588
 H2170 H 0.75665 0.29383 0.03606
 C2171 C 0.77636 0.79736 0.55367
 C2172 C 0.79102 0.79096 0.55999
 C2173 C 0.79742 0.77630 0.55365
 C2174 C 0.78915 0.76801 0.54110
 C2175 C 0.82090 0.82084 0.60883
 C2176 C 0.76806 0.78909 0.54111
 C2177 C 0.79934 0.79928 0.57317
 C2178 C 0.80623 0.80616 0.58431
 C2179 C 0.81419 0.81413 0.59748
 C2180 C 0.77434 0.77428 0.53473
 H2181 H 0.77129 0.80868 0.55850
 H2182 H 0.80875 0.77123 0.55847
 H2183 H 0.79431 0.75665 0.53646
 H2184 H 0.75670 0.79425 0.53649
 C2185 C 0.27613 0.70307 0.44628
 C2186 C 0.29079 0.70941 0.43995
 C2187 C 0.29720 0.72404 0.44630
 C2188 C 0.28893 0.73235 0.45887
 C2189 C 0.32070 0.67948 0.39108
 C2190 C 0.26784 0.71135 0.45884
 C2191 C 0.29911 0.70107 0.42676
 C2192 C 0.30600 0.69418 0.41561
 C2193 C 0.31397 0.68621 0.40243
 C2194 C 0.27412 0.72613 0.46524
 H2195 H 0.27105 0.69176 0.44144
 H2196 H 0.30853 0.72907 0.44148
 H2197 H 0.29410 0.74368 0.46351
 H2198 H 0.25647 0.70624 0.46347
 C2199 C 0.29699 0.22360 0.94651
 C2200 C 0.29062 0.20895 0.94017
 C2201 C 0.27596 0.20259 0.94649
 C2202 C 0.26764 0.21088 0.95903
 C2203 C 0.32064 0.17896 0.89140
 C2204 C 0.28870 0.23192 0.95905
 C2205 C 0.29897 0.20060 0.92701
 C2206 C 0.30589 0.19369 0.91588
 C2207 C 0.31389 0.18570 0.90273
 C2208 C 0.27389 0.22568 0.96541
 H2209 H 0.30832 0.22864 0.94169
 H2210 H 0.27091 0.19127 0.94166
 H2211 H 0.25628 0.20575 0.96366
 H2212 H 0.29383 0.24327 0.96368
 C2213 C 0.77614 0.70287 0.94650
 C2214 C 0.79079 0.70926 0.94020
 C2215 C 0.79713 0.72391 0.94654
 C2216 C 0.78882 0.73221 0.95908
 C2217 C 0.82086 0.67928 0.89145
 C2218 C 0.76780 0.71114 0.95904
 C2219 C 0.79917 0.70092 0.92704
 C2220 C 0.80609 0.69402 0.91591
 C2221 C 0.81410 0.68602 0.90277
 C2222 C 0.77401 0.72595 0.96543
 H2223 H 0.77111 0.69154 0.94167
 H2224 H 0.80846 0.72898 0.94173
 H2225 H 0.79393 0.74357 0.96372
 H2226 H 0.75644 0.70599 0.96365
 C2227 C 0.79760 0.22366 0.44644
 C2228 C 0.79127 0.20899 0.44013
 C2229 C 0.77664 0.20259 0.44648
 C2230 C 0.76831 0.21087 0.45902
 C2231 C 0.82125 0.17903 0.39132
 C2232 C 0.78931 0.23197 0.45898
 C2233 C 0.79962 0.20065 0.42696
 C2234 C 0.80653 0.19375 0.41582
 C2235 C 0.81452 0.18576 0.40266
 C2236 C 0.77452 0.22570 0.46538
 H2237 H 0.80891 0.22873 0.44159
 H2238 H 0.77161 0.19125 0.44167
 H2239 H 0.75697 0.20571 0.46367
 H2240 H 0.79442 0.24334 0.46359
 C2241 C 0.70303 0.27585 0.44642
 C2242 C 0.70936 0.29051 0.44008
 C2243 C 0.72400 0.29692 0.44640
 C2244 C 0.73233 0.28867 0.45895
 C2245 C 0.67936 0.32038 0.39126
 C2246 C 0.71134 0.26757 0.45897
 C2247 C 0.70100 0.29881 0.42690
 C2248 C 0.69409 0.30569 0.41576
 C2249 C 0.68609 0.31366 0.40260
 C2250 C 0.72612 0.27386 0.46534
 H2251 H 0.69172 0.27077 0.44161
 H2252 H 0.72902 0.30825 0.44156
 H2253 H 0.74367 0.29384 0.46357
 H2254 H 0.70623 0.25621 0.46362
 C2255 C 0.70261 0.77627 0.94650
 C2256 C 0.70897 0.79094 0.94021
 C2257 C 0.72361 0.79731 0.94657
 C2258 C 0.73191 0.78901 0.95911
 C2259 C 0.67903 0.82097 0.89145
 C2260 C 0.71089 0.76795 0.95904
 C2261 C 0.70064 0.79930 0.92705
 C2262 C 0.69374 0.80622 0.91592
 C2263 C 0.68577 0.81422 0.90278
 C2264 C 0.72567 0.77419 0.96545
 H2265 H 0.69130 0.77122 0.94165
 H2266 H 0.72865 0.80865 0.94178
 H2267 H 0.74325 0.79415 0.96376
 H2268 H 0.70576 0.75658 0.96364
 C2269 C 0.22355 0.29708 0.94654
 C2270 C 0.20890 0.29072 0.94021
 C2271 C 0.20252 0.27607 0.94653
 C2272 C 0.21081 0.26775 0.95906
 C2273 C 0.17892 0.32073 0.89145
 C2274 C 0.23186 0.28879 0.95907
 C2275 C 0.20055 0.29908 0.92705
 C2276 C 0.19365 0.30599 0.91592
 C2277 C 0.18566 0.31399 0.90278
 C2278 C 0.22561 0.27399 0.96544
 H2279 H 0.22860 0.30841 0.94172
 H2280 H 0.19119 0.27103 0.94170
 H2281 H 0.20566 0.25640 0.96369
 H2282 H 0.24322 0.29392 0.96370
 C2283 C 0.22390 0.79760 0.44643
 C2284 C 0.20923 0.79127 0.44011
 C2285 C 0.20283 0.77664 0.44644
 C2286 C 0.21111 0.76830 0.45897
 C2287 C 0.17925 0.82128 0.39136
 C2288 C 0.23220 0.78929 0.45896
 C2289 C 0.20089 0.79964 0.42695
 C2290 C 0.19399 0.80655 0.41583
 C2291 C 0.18600 0.81454 0.40268
 C2292 C 0.22593 0.77451 0.46533
 H2293 H 0.22897 0.80892 0.44160
 H2294 H 0.19149 0.77161 0.44162
 H2295 H 0.20595 0.75695 0.46359
 H2296 H 0.24357 0.79440 0.46358
 C2297 C 0.70307 0.72405 0.55367
 C2298 C 0.70947 0.70939 0.55999
 C2299 C 0.72413 0.70300 0.55365
 C2300 C 0.73242 0.71127 0.54110
 C2301 C 0.67957 0.67947 0.60880
 C2302 C 0.71134 0.73235 0.54112
 C2303 C 0.70115 0.70106 0.57317
 C2304 C 0.69426 0.69417 0.58430
 C2305 C 0.68630 0.68620 0.59746
 C2306 C 0.72615 0.72608 0.53474
 H2307 H 0.69174 0.72912 0.55851
 H2308 H 0.72921 0.69167 0.55847
 H2309 H 0.74379 0.70612 0.53646
 H2310 H 0.70618 0.74372 0.53650
 C2311 C 0.70304 0.22361 0.05321
 C2312 C 0.70945 0.20894 0.05949
 C2313 C 0.72410 0.20256 0.05311
 C2314 C 0.73236 0.21085 0.04056
 C2315 C 0.67963 0.17898 0.10832
 C2316 C 0.71128 0.23194 0.04066
 C2317 C 0.70116 0.20059 0.07267
 C2318 C 0.69429 0.19369 0.08381
 C2319 C 0.68634 0.18571 0.09698
 C2320 C 0.72608 0.22568 0.03423
 H2321 H 0.69172 0.22868 0.05808
 H2322 H 0.72918 0.19122 0.05789
 H2323 H 0.74372 0.20571 0.03588
 H2324 H 0.70611 0.24331 0.03607
 C2325 C 0.22372 0.70306 0.05318
 C2326 C 0.20906 0.70947 0.05949
 C2327 C 0.20266 0.72411 0.05312
 C2328 C 0.21094 0.73238 0.04057
 C2329 C 0.17912 0.67965 0.10834
 C2330 C 0.23203 0.71130 0.04063
 C2331 C 0.20072 0.70117 0.07268
 C2332 C 0.19382 0.69430 0.08382
 C2333 C 0.18585 0.68636 0.09699
 C2334 C 0.22577 0.72610 0.03422
 H2335 H 0.22879 0.69174 0.05804
 H2336 H 0.19132 0.72919 0.05793
 H2337 H 0.20579 0.74373 0.03591
 H2338 H 0.24340 0.70614 0.03602
 C2339 C 0.20259 0.22363 0.55363
 C2340 C 0.20899 0.20897 0.55995
 C2341 C 0.22365 0.20258 0.55361
 C2342 C 0.23195 0.21086 0.54107
 C2343 C 0.17910 0.17907 0.60877
 C2344 C 0.21086 0.23193 0.54109
 C2345 C 0.20067 0.20064 0.57313
 C2346 C 0.19379 0.19375 0.58427
 C2347 C 0.18582 0.18579 0.59743
 C2348 C 0.22567 0.22567 0.53470
 H2349 H 0.19126 0.22869 0.55847
 H2350 H 0.22873 0.19125 0.55843
 H2351 H 0.24331 0.20571 0.53643
 H2352 H 0.20570 0.24330 0.53647
   
