data_POSCAR
  _audit_creation_date              2014-09-24
  _audit_creation_method            'ToBaCCo'
  _symmetry_space_group_name_H-M    'P1'
  _symmetry_Int_Tables_number       1
  _symmetry_cell_setting            triclinic
  loop_
  _symmetry_equiv_pos_as_xyz
 x,y,z
_cell_length_a 48.9285
_cell_length_b 49.2337
_cell_length_c 49.0451
_cell_angle_alpha 89.990200
_cell_angle_beta 89.610000
_cell_angle_gamma 90.503800
loop_
  _atom_site_label
  _atom_site_type_symbol
  _atom_site_fract_x
  _atom_site_fract_y
  _atom_site_fract_z
C1 C 0.08409 0.01925 0.22123
 H2 H 0.08495 0.03303 0.23839
 C3 C 0.06516 0.02348 0.20055
 H4 H 0.05119 0.04035 0.20219
 C5 C 0.10260 -0.01833 0.19748
 H6 H 0.11790 -0.03393 0.19587
 C7 C 0.08415 -0.01468 0.17619
 H8 H 0.08507 -0.02810 0.15876
 N9 N 0.10243 -0.00124 0.21927
 C10 C 0.13868 -0.00240 0.30024
 H11 H 0.15985 -0.00149 0.29375
 C12 C 0.13223 -0.00249 0.32792
 H13 H 0.14864 -0.00160 0.34261
 C14 C 0.09176 -0.00445 0.28872
 H15 H 0.07611 -0.00532 0.27330
 C16 C 0.08434 -0.00479 0.31640
 H17 H 0.06292 -0.00553 0.32203
 Zn18 Zn 0.13119 -0.00126 0.24472
 N19 N 0.11859 -0.00276 0.28128
 C20 C 0.15365 0.05099 0.25773
 N21 N 0.15101 0.03133 0.23842
 C22 C 0.16240 0.03429 0.21322
 C23 C 0.17833 0.05711 0.20702
 C24 C 0.16917 0.07437 0.25227
 C25 C 0.14450 -0.05687 0.24009
 C26 C 0.16195 -0.07917 0.23824
 C27 C 0.20031 -0.04799 0.23574
 C28 C 0.18214 -0.02644 0.23742
 N29 N 0.15480 -0.03115 0.23948
 H30 H 0.14386 0.04859 0.27739
 H31 H 0.15957 0.01852 0.19812
 H32 H 0.18768 0.05883 0.18702
 H33 H 0.17144 0.08956 0.26804
 H34 H 0.12269 -0.06007 0.24233
 H35 H 0.15298 -0.09931 0.23893
 H36 H 0.22198 -0.04337 0.23448
 H37 H 0.19011 -0.00594 0.23797
 C38 C 0.10478 -0.00338 0.33636
 C39 C 0.06548 0.00681 0.17735
 C40 C 0.19048 -0.07496 0.23640
 C41 C 0.18202 0.07741 0.22673
 C42 C 0.41313 0.03098 0.78428
 H43 H 0.41437 0.04422 0.76670
 C44 C 0.42939 0.03619 0.80689
 H45 H 0.44312 0.05356 0.80655
 C46 C 0.39351 -0.00773 0.80576
 H47 H 0.37927 -0.02462 0.80528
 C48 C 0.40936 -0.00314 0.82902
 H49 H 0.40735 -0.01689 0.84613
 N50 N 0.39599 0.00911 0.78389
 C51 C 0.39123 0.00413 0.69597
 H52 H 0.36991 0.00866 0.69273
 C53 C 0.40844 -0.00064 0.67373
 H54 H 0.40022 0.00051 0.65334
 C55 C 0.42740 -0.00436 0.72668
 H56 H 0.43447 -0.00661 0.74738
 C57 C 0.44519 -0.00970 0.70506
 H58 H 0.46606 -0.01541 0.70930
 Zn59 Zn 0.37631 0.00540 0.75112
 N60 N 0.40101 0.00248 0.72178
 C61 C 0.35806 0.05652 0.72949
 N62 N 0.35430 0.03650 0.74835
 C63 C 0.33356 0.03743 0.76685
 C64 C 0.31436 0.05803 0.76571
 C65 C 0.33960 0.07806 0.72810
 C66 C 0.36332 -0.05090 0.75605
 C67 C 0.34740 -0.07421 0.75141
 C68 C 0.31234 -0.04576 0.73244
 C69 C 0.32870 -0.02311 0.73770
 N70 N 0.35360 -0.02594 0.74950
 H71 H 0.37513 0.05570 0.71543
 H72 H 0.33141 0.02147 0.78189
 H73 H 0.29746 0.05795 0.78009
 H74 H 0.34235 0.09366 0.71273
 H75 H 0.38370 -0.05280 0.76420
 H76 H 0.35556 -0.09392 0.75647
 H77 H 0.29274 -0.04298 0.72275
 H78 H 0.32186 -0.00335 0.73126
 C79 C 0.43573 -0.00788 0.67823
 C80 C 0.42775 0.01899 0.82961
 C81 C 0.32165 -0.07172 0.73919
 C82 C 0.31711 0.07847 0.74600
 C83 C 0.91396 0.50880 0.29435
 H84 H 0.92865 0.50772 0.27781
 C85 C 0.92290 0.51065 0.32156
 H86 H 0.94460 0.51112 0.32565
 C87 C 0.86783 0.50870 0.30930
 H88 H 0.84632 0.50727 0.30455
 C89 C 0.87566 0.51086 0.33626
 H90 H 0.85977 0.51141 0.35173
 N91 N 0.88672 0.50755 0.28894
 C92 C 0.88176 0.52532 0.20487
 H93 H 0.86650 0.53994 0.21049
 C94 C 0.89087 0.52489 0.17801
 H95 H 0.88287 0.53967 0.16384
 C96 C 0.90849 0.48691 0.21540
 H97 H 0.91418 0.47134 0.22981
 C98 C 0.91827 0.48576 0.18834
 H99 H 0.93162 0.46945 0.18210
 Zn100 Zn 0.86830 0.50253 0.25535
 N101 N 0.88987 0.50605 0.22287
 C102 C 0.85086 0.55553 0.25876
 N103 N 0.84102 0.52975 0.25597
 C104 C 0.81370 0.52439 0.25679
 C105 C 0.79513 0.54559 0.26038
 C106 C 0.83310 0.57726 0.26184
 C107 C 0.86362 0.44974 0.27482
 C108 C 0.85594 0.42255 0.27542
 C109 C 0.82633 0.43041 0.23709
 C110 C 0.83493 0.45771 0.23698
 N111 N 0.85322 0.46681 0.25581
 H112 H 0.87271 0.55910 0.25890
 H113 H 0.80631 0.50369 0.25554
 H114 H 0.77344 0.54108 0.26135
 H115 H 0.84150 0.59751 0.26425
 H116 H 0.87876 0.45685 0.28908
 H117 H 0.86498 0.40937 0.29051
 H118 H 0.81219 0.42324 0.22175
 H119 H 0.82747 0.47146 0.22158
 C120 C 0.90840 0.50435 0.16912
 C121 C 0.90348 0.51143 0.34301
 C122 C 0.83731 0.41247 0.25631
 C123 C 0.80485 0.57240 0.26290
 C124 C 0.59372 0.52341 0.72016
 H125 H 0.59348 0.53624 0.73807
 C126 C 0.57747 0.52978 0.69800
 H127 H 0.56471 0.54762 0.69903
 C128 C 0.61104 0.48466 0.69737
 H129 H 0.62445 0.46734 0.69721
 C130 C 0.59510 0.49041 0.67450
 H131 H 0.59615 0.47713 0.65696
 N132 N 0.60981 0.50108 0.71963
 C133 C 0.61337 0.49832 0.80747
 H134 H 0.63424 0.50440 0.81158
 C135 C 0.59493 0.49422 0.82906
 H136 H 0.60177 0.49742 0.84975
 C137 C 0.57948 0.48549 0.77556
 H138 H 0.57370 0.48136 0.75474
 C139 C 0.56058 0.48084 0.79644
 H140 H 0.54023 0.47372 0.79137
 Zn141 Zn 0.63012 0.49695 0.75176
 N142 N 0.60524 0.49428 0.78132
 C143 C 0.64944 0.54972 0.77009
 N144 N 0.65277 0.52835 0.75280
 C145 C 0.67123 0.52945 0.73201
 C146 C 0.68743 0.55247 0.72798
 C147 C 0.66518 0.57346 0.76661
 C148 C 0.64024 0.44048 0.74621
 C149 C 0.65554 0.41672 0.74892
 C150 C 0.69373 0.44415 0.76396
 C151 C 0.67790 0.46729 0.76064
 N152 N 0.65167 0.46513 0.75190
 H153 H 0.63400 0.54880 0.78594
 H154 H 0.67293 0.51245 0.71813
 H155 H 0.70179 0.55279 0.71109
 H156 H 0.66209 0.59043 0.78027
 H157 H 0.61906 0.43921 0.74012
 H158 H 0.64604 0.39725 0.74470
 H159 H 0.71443 0.44636 0.77137
 H160 H 0.68633 0.48691 0.76600
 C161 C 0.56817 0.48523 0.82357
 C162 C 0.57797 0.51322 0.67479
 C163 C 0.68256 0.41845 0.75826
 C164 C 0.68434 0.57503 0.74514
 C165 C 0.27709 0.09135 0.97536
 H166 H 0.25828 0.08872 0.96417
 C167 C 0.29944 0.07518 0.96921
 H168 H 0.29759 0.06011 0.95323
 C169 C 0.30199 0.11435 1.00976
 H170 H 0.30293 0.12991 1.02527
 C171 C 0.32499 0.09845 1.00429
 H172 H 0.34341 0.10184 1.01592
 N173 N 0.27855 0.11021 0.99553
 C174 C 0.19166 0.11475 1.01156
 H175 H 0.18784 0.13587 1.00697
 C176 C 0.16984 0.09710 1.01697
 H177 H 0.14920 0.10482 1.01672
 C178 C 0.22331 0.07904 1.01723
 H179 H 0.24420 0.07212 1.01742
 C180 C 0.20213 0.06080 1.02328
 H181 H 0.20688 0.03983 1.02774
 Zn182 Zn 0.24586 0.12971 1.00041
 N183 N 0.21767 0.10528 1.01083
 C184 C 0.21844 0.13255 0.95040
 N185 N 0.23813 0.14468 0.96572
 C186 C 0.25526 0.16379 0.95482
 C187 C 0.25322 0.17100 0.92728
 C188 C 0.21582 0.13900 0.92292
 C189 C 0.25562 0.14783 1.05333
 C190 C 0.25383 0.16525 1.07571
 C191 C 0.23579 0.19977 1.04596
 C192 C 0.23847 0.18179 1.02405
 N193 N 0.24801 0.15628 1.02815
 H194 H 0.20579 0.11658 0.95891
 H195 H 0.27130 0.17251 0.96721
 H196 H 0.26754 0.18561 0.91874
 H197 H 0.20050 0.12845 0.91099
 H198 H 0.26228 0.12713 1.05619
 H199 H 0.25978 0.15747 1.09539
 H200 H 0.22750 0.21973 1.04213
 H201 H 0.23177 0.18781 1.00400
 C202 C 0.17500 0.06965 1.02248
 C203 C 0.32374 0.07843 0.98385
 C204 C 0.24314 0.19156 1.07247
 C205 C 0.23367 0.15800 0.91087
 C206 C 0.70567 0.39974 0.95594
 H207 H 0.72104 0.39680 0.94027
 C208 C 0.68271 0.41531 0.95051
 H209 H 0.68045 0.42430 0.93051
 C210 C 0.69029 0.39179 1.00121
 H211 H 0.69335 0.38252 1.02091
 C212 C 0.66679 0.40696 0.99655
 H213 H 0.65212 0.40953 1.01293
 N214 N 0.70940 0.38901 0.98115
 C215 C 0.79795 0.38444 0.98344
 H216 H 0.80097 0.36286 0.98601
 C217 C 0.82034 0.40224 0.98409
 H218 H 0.84058 0.39408 0.98692
 C219 C 0.76756 0.42135 0.97869
 H220 H 0.74695 0.42890 0.97779
 C221 C 0.78927 0.43981 0.97944
 H222 H 0.78507 0.46134 0.97843
 Zn223 Zn 0.74232 0.37028 0.98669
 N224 N 0.77218 0.39425 0.98098
 C225 C 0.75986 0.34127 0.94005
 N226 N 0.74237 0.34117 0.96170
 C227 C 0.72170 0.32263 0.96372
 C228 C 0.71755 0.30357 0.94305
 C229 C 0.75635 0.32267 0.91883
 C230 C 0.74602 0.37973 1.04146
 C231 C 0.74915 0.37458 1.06913
 C232 C 0.75042 0.32653 1.05905
 C233 C 0.74724 0.33272 1.03138
 N234 N 0.74489 0.35899 1.02327
 H235 H 0.77569 0.35664 0.93848
 H236 H 0.70768 0.32346 0.98085
 H237 H 0.70047 0.28950 0.94464
 H238 H 0.77009 0.32359 0.90148
 H239 H 0.74456 0.40046 1.03433
 H240 H 0.74983 0.39174 1.08295
 H241 H 0.75217 0.30542 1.06484
 H242 H 0.74692 0.31659 1.01643
 C243 C 0.81600 0.43036 0.98271
 C244 C 0.66309 0.41933 0.97105
 C245 C 0.75134 0.34767 1.07852
 C246 C 0.73455 0.30393 0.91989
 C247 C 0.22277 0.91604 0.48692
 H248 H 0.24068 0.91911 0.47420
 C249 C 0.20135 0.93432 0.48571
 H250 H 0.20283 0.95138 0.47182
 C251 C 0.19954 0.89024 0.52086
 H252 H 0.19910 0.87306 0.53458
 C253 C 0.17725 0.90789 0.51993
 H254 H 0.15978 0.90434 0.53316
 N255 N 0.22194 0.89506 0.50490
 C256 C 0.30972 0.88848 0.51172
 H257 H 0.31274 0.86768 0.50533
 C258 C 0.33225 0.90540 0.51631
 H259 H 0.35263 0.89742 0.51358
 C260 C 0.27936 0.92402 0.52317
 H261 H 0.25874 0.93111 0.52621
 C262 C 0.30129 0.94148 0.52845
 H263 H 0.29730 0.96205 0.53509
 Zn264 Zn 0.25440 0.87475 0.50581
 N265 N 0.28392 0.89828 0.51429
 C266 C 0.27767 0.87320 0.45370
 N267 N 0.25950 0.86018 0.47035
 C268 C 0.24306 0.83994 0.46071
 C269 C 0.24475 0.83200 0.43328
 C270 C 0.27995 0.86603 0.42637
 C271 C 0.24901 0.85777 0.55915
 C272 C 0.25282 0.84107 0.58173
 C273 C 0.26685 0.80513 0.55128
 C274 C 0.26241 0.82247 0.52917
 N275 N 0.25391 0.84833 0.53356
 H276 H 0.28962 0.89010 0.46119
 H277 H 0.22815 0.83046 0.47413
 H278 H 0.23127 0.81616 0.42584
 H279 H 0.29433 0.87708 0.41356
 H280 H 0.24323 0.87873 0.56207
 H281 H 0.24949 0.84934 0.60190
 H282 H 0.27436 0.78483 0.54758
 H283 H 0.26708 0.81572 0.50871
 C284 C 0.32809 0.93237 0.52446
 C285 C 0.17843 0.93058 0.50260
 C286 C 0.26240 0.81456 0.57797
 C287 C 0.26322 0.84542 0.41571
 C288 C 0.80156 0.59285 0.49835
 H289 H 0.78702 0.58203 0.48576
 C290 C 0.82929 0.58589 0.49744
 H291 H 0.83587 0.56944 0.48438
 C292 C 0.81108 0.62866 0.52921
 H293 H 0.80421 0.64598 0.54080
 C294 C 0.83885 0.62275 0.52851
 H295 H 0.85288 0.63521 0.54019
 N296 N 0.79302 0.61388 0.51419
 C297 C 0.70303 0.61117 0.51585
 H298 H 0.70023 0.63280 0.51337
 C299 C 0.68025 0.59415 0.51850
 H300 H 0.66005 0.60290 0.51813
 C301 C 0.73298 0.57388 0.51997
 H302 H 0.75356 0.56615 0.52083
 C303 C 0.71065 0.55609 0.52326
 H304 H 0.71425 0.53464 0.52636
 Zn305 Zn 0.75690 0.62748 0.51199
 N306 N 0.72874 0.60086 0.51599
 C307 C 0.73321 0.63843 0.46082
 N308 N 0.75381 0.64535 0.47799
 C309 C 0.77195 0.66555 0.47154
 C310 C 0.76873 0.68075 0.44766
 C311 C 0.72884 0.65348 0.43728
 C312 C 0.75366 0.64298 0.56642
 C313 C 0.74841 0.65985 0.58864
 C314 C 0.73671 0.69570 0.55723
 C315 C 0.74254 0.67823 0.53558
 N316 N 0.75093 0.65245 0.54055
 H317 H 0.71965 0.62169 0.46560
 H318 H 0.78839 0.67040 0.48541
 H319 H 0.78261 0.69743 0.44314
 H320 H 0.71163 0.64844 0.42439
 H321 H 0.75986 0.62220 0.56971
 H322 H 0.75061 0.65184 0.60904
 H323 H 0.72992 0.71613 0.55298
 H324 H 0.73983 0.68512 0.51486
 C325 C 0.68388 0.56621 0.52220
 C326 C 0.84832 0.60133 0.51232
 C327 C 0.73973 0.68656 0.58415
 C328 C 0.74641 0.67517 0.43080
 C329 C 0.03466 0.21768 0.08616
 H330 H 0.04881 0.23468 0.08603
 C331 C 0.03985 0.19494 0.07006
 H332 H 0.05815 0.19462 0.05752
 C333 C -0.00634 0.19757 0.10288
 H334 H -0.02414 0.19859 0.11599
 C335 C -0.00183 0.17430 0.08722
 H336 H -0.01651 0.15777 0.08817
 N337 N 0.01170 0.21875 0.10183
 C338 C 0.00793 0.30678 0.11124
 H339 H 0.01260 0.30917 0.13263
 C340 C 0.00065 0.32947 0.09575
 H341 H 0.00060 0.34923 0.10541
 C342 C 0.00001 0.27769 0.07360
 H343 H -0.00145 0.25738 0.06536
 C344 C -0.00828 0.29956 0.05774
 H345 H -0.01505 0.29566 0.03711
 Zn346 Zn 0.00664 0.25047 0.12288
 N347 N 0.00726 0.28150 0.10004
 C348 C 0.05663 0.26744 0.14743
 N349 N 0.03441 0.25070 0.14927
 C350 C 0.03308 0.23035 0.16794
 C351 C 0.05469 0.22605 0.18571
 C352 C 0.07893 0.26366 0.16471
 C353 C -0.04842 0.24995 0.11910
 C354 C -0.07551 0.25398 0.12625
 C355 C -0.06209 0.25742 0.17349
 C356 C -0.03484 0.25370 0.16529
 N357 N -0.02866 0.25034 0.13837
 H358 H 0.05761 0.28289 0.13179
 H359 H 0.01553 0.21683 0.16835
 H360 H 0.05335 0.20937 0.20008
 H361 H 0.09667 0.27678 0.16260
 H362 H -0.04293 0.24739 0.09788
 H363 H -0.09077 0.25422 0.11035
 H364 H -0.06691 0.26084 0.19478
 H365 H -0.01869 0.25460 0.18020
 C366 C -0.00866 0.32586 0.06889
 C367 C 0.02147 0.17289 0.07041
 C368 C -0.08258 0.25826 0.15360
 C369 C 0.07824 0.24243 0.18388
 C370 C 0.02154 0.78157 0.41805
 H371 H 0.03276 0.76283 0.41975
 C372 C 0.03018 0.80440 0.43264
 H373 H 0.04737 0.80258 0.44629
 C374 C -0.01249 0.80727 0.39598
 H375 H -0.02796 0.80869 0.38042
 C376 C -0.00440 0.83072 0.41010
 H377 H -0.01459 0.84966 0.40594
 N378 N 0.00067 0.78336 0.39999
 C379 C 0.00280 0.70070 0.36735
 H380 H 0.00361 0.70707 0.34629
 C381 C 0.00437 0.67323 0.37357
 H382 H 0.00623 0.65880 0.35702
 C383 C -0.00042 0.71208 0.41417
 H384 H -0.00261 0.72735 0.42985
 C385 C 0.00106 0.68447 0.42139
 H386 H 0.00025 0.67877 0.44268
 Zn387 Zn -0.00140 0.75555 0.37336
 N388 N 0.00067 0.71958 0.38743
 C389 C 0.05290 0.74708 0.35516
 N390 N 0.03002 0.76212 0.35136
 C391 C 0.03055 0.78462 0.33530
 C392 C 0.05474 0.79271 0.32220
 C393 C 0.07756 0.75449 0.34251
 C394 C -0.05900 0.76091 0.36420
 C395 C -0.08321 0.75616 0.34961
 C396 C -0.05571 0.74212 0.31116
 C397 C -0.03223 0.74799 0.32611
 N398 N -0.03414 0.75668 0.35231
 H399 H 0.05240 0.72992 0.36890
 H400 H 0.01232 0.79672 0.33330
 H401 H 0.05474 0.81083 0.30969
 H402 H 0.09550 0.74237 0.34612
 H403 H -0.06011 0.76698 0.38537
 H404 H -0.10260 0.75927 0.35983
 H405 H -0.05316 0.73441 0.29062
 H406 H -0.01237 0.74420 0.31717
 C407 C 0.00356 0.66467 0.40083
 C408 C 0.01769 0.82959 0.42824
 C409 C -0.08187 0.74568 0.32287
 C410 C 0.07876 0.77776 0.32597
 C411 C 0.52045 0.28016 0.90488
 H412 H 0.53487 0.26362 0.90490
 C413 C 0.52576 0.30334 0.92020
 H414 H 0.54436 0.30434 0.93200
 C415 C 0.47887 0.29859 0.88912
 H416 H 0.46082 0.29669 0.87666
 C417 C 0.48350 0.32246 0.90417
 H418 H 0.46869 0.33864 0.90346
 N419 N 0.49722 0.27796 0.89003
 C420 C 0.49899 0.18947 0.88674
 H421 H 0.50338 0.18582 0.86541
 C422 C 0.49564 0.16751 0.90466
 H423 H 0.49778 0.14703 0.89697
 C424 C 0.48908 0.22054 0.92226
 H425 H 0.48557 0.24115 0.92889
 C426 C 0.48517 0.19925 0.94069
 H427 H 0.47929 0.20383 0.96150
 Zn428 Zn 0.49505 0.24467 0.87064
 N429 N 0.49573 0.21538 0.89580
 C430 C 0.54789 0.22893 0.84908
 N431 N 0.52566 0.24516 0.84651
 C432 C 0.52493 0.26497 0.82724
 C433 C 0.54691 0.26902 0.80943
 C434 C 0.57058 0.23246 0.83173
 C435 C 0.43746 0.24428 0.86263
 C436 C 0.41335 0.23735 0.84889
 C437 C 0.44082 0.22164 0.81106
 C438 C 0.46426 0.22929 0.82523
 N439 N 0.46227 0.24034 0.85056
 H440 H 0.54837 0.21373 0.86498
 H441 H 0.50722 0.27790 0.82594
 H442 H 0.54578 0.28506 0.79438
 H443 H 0.58817 0.21955 0.83420
 H444 H 0.43641 0.25210 0.88321
 H445 H 0.39380 0.24032 0.85886
 H446 H 0.44297 0.21249 0.79109
 H447 H 0.48411 0.22530 0.81640
 C448 C 0.48817 0.17232 0.93193
 C449 C 0.50720 0.32490 0.92011
 C450 C 0.41496 0.22547 0.82291
 C451 C 0.57028 0.25287 0.81164
 C452 C 0.53410 0.71853 0.59491
 H453 H 0.54908 0.73411 0.59936
 C454 C 0.54162 0.69640 0.57902
 H455 H 0.56248 0.69499 0.57164
 C456 C 0.48862 0.70200 0.59844
 H457 H 0.46770 0.70487 0.60467
 C458 C 0.49540 0.67918 0.58286
 H459 H 0.47966 0.66440 0.57804
 N460 N 0.50817 0.72076 0.60478
 C461 C 0.51577 0.80681 0.60751
 H462 H 0.52705 0.80955 0.62619
 C463 C 0.51140 0.82907 0.59045
 H464 H 0.52004 0.84858 0.59596
 C465 C 0.48891 0.77862 0.57888
 H466 H 0.47949 0.75907 0.57499
 C467 C 0.48403 0.80024 0.56133
 H468 H 0.47116 0.79698 0.54373
 Zn469 Zn 0.50357 0.75267 0.62593
 N470 N 0.50435 0.78226 0.60154
 C471 C 0.55723 0.76428 0.64649
 N472 N 0.53221 0.75301 0.65140
 C473 C 0.52726 0.73778 0.67405
 C474 C 0.54790 0.73317 0.69282
 C475 C 0.57856 0.76018 0.66481
 C476 C 0.46817 0.78140 0.65700
 C477 C 0.44615 0.78788 0.67373
 C478 C 0.42956 0.74179 0.66904
 C479 C 0.45230 0.73604 0.65261
 N480 N 0.47077 0.75600 0.64645
 H481 H 0.56104 0.77543 0.62784
 H482 H 0.50741 0.72842 0.67711
 H483 H 0.54359 0.72058 0.71046
 H484 H 0.59846 0.76881 0.66022
 H485 H 0.48357 0.79668 0.65274
 H486 H 0.44459 0.80827 0.68184
 H487 H 0.41512 0.72571 0.67391
 H488 H 0.45551 0.71551 0.64586
 C489 C 0.49489 0.82598 0.56728
 C490 C 0.52229 0.67619 0.57314
 C491 C 0.42641 0.76804 0.67978
 C492 C 0.57405 0.74408 0.68813
 C493 C 0.89521 0.96469 0.70459
 H494 H 0.88653 0.94749 0.71535
 C495 C 0.90416 0.96164 0.67902
 H496 H 0.90223 0.94193 0.66937
 C497 C 0.91001 1.01094 0.70613
 H498 H 0.91093 1.03041 0.71631
 C499 C 0.92124 1.00823 0.67817
 H500 H 0.93060 1.02584 0.66862
 N501 N 0.89704 0.99070 0.71769
 C502 C 0.89693 1.01326 0.80562
 H503 H 0.87761 1.02345 0.80837
 C504 C 0.91327 1.00945 0.82713
 H505 H 0.90704 1.01723 0.84682
 C506 C 0.92727 0.98998 0.77562
 H507 H 0.93184 0.98062 0.75622
 C508 C 0.94597 0.98552 0.79859
 H509 H 0.96442 0.97408 0.79479
 Zn510 Zn 0.87805 0.99779 0.75081
 N511 N 0.90411 1.00233 0.77931
 C512 C 0.85254 0.96066 0.78727
 N513 N 0.85414 0.96824 0.76058
 C514 C 0.83869 0.95539 0.74141
 C515 C 0.82179 0.93348 0.74862
 C516 C 0.83523 0.93946 0.79548
 C517 C 0.85926 1.05307 0.75694
 C518 C 0.84287 1.07510 0.74973
 C519 C 0.82163 1.04716 0.71528
 C520 C 0.83834 1.02581 0.72311
 N521 N 0.85647 1.02888 0.74380
 H522 H 0.86458 0.97098 0.80242
 H523 H 0.83982 0.96162 0.72034
 H524 H 0.81006 0.92317 0.73304
 H525 H 0.83432 0.93368 0.81678
 H526 H 0.87441 1.05550 0.77269
 H527 H 0.84539 1.09412 0.76048
 H528 H 0.80736 1.04408 0.69877
 H529 H 0.83711 1.00681 0.71225
 C530 C 0.93900 0.99383 0.82384
 C531 C 0.91725 0.98489 0.66442
 C532 C 0.82365 1.07221 0.72865
 C533 C 0.81996 0.92539 0.77597
 C534 C 0.41586 0.48389 0.21639
 H535 H 0.42023 0.46938 0.23230
 C536 C 0.43281 0.48542 0.19343
 H537 H 0.45016 0.47200 0.19165
 C538 C 0.38902 0.52017 0.19995
 H539 H 0.37241 0.53421 0.20291
 C540 C 0.40487 0.52168 0.17615
 H541 H 0.40040 0.53686 0.16087
 N542 N 0.39507 0.50181 0.21976
 C543 C 0.39172 0.50437 0.30901
 H544 H 0.36998 0.50399 0.31280
 C545 C 0.40965 0.50212 0.33091
 H546 H 0.40142 0.49981 0.35133
 C547 C 0.42886 0.50739 0.27794
 H548 H 0.43647 0.51004 0.25744
 C549 C 0.44749 0.50458 0.29916
 H550 H 0.46919 0.50465 0.29465
 Zn551 Zn 0.37607 0.50280 0.25382
 N552 N 0.40148 0.50594 0.28300
 C553 C 0.33565 0.47105 0.27911
 N554 N 0.35522 0.47046 0.25931
 C555 C 0.35970 0.44751 0.24451
 C556 C 0.34474 0.42377 0.25004
 C557 C 0.32027 0.44786 0.28529
 C558 C 0.35789 0.55578 0.26804
 C559 C 0.33917 0.57711 0.26886
 C560 C 0.30815 0.54984 0.24195
 C561 C 0.32756 0.52927 0.24130
 N562 N 0.35175 0.53246 0.25440
 H563 H 0.33179 0.48967 0.29008
 H564 H 0.37500 0.44743 0.22856
 H565 H 0.34886 0.40571 0.23820
 H566 H 0.30493 0.44886 0.30127
 H567 H 0.37729 0.55780 0.27831
 H568 H 0.34429 0.59547 0.27990
 H569 H 0.28892 0.54678 0.23153
 H570 H 0.32322 0.51053 0.23060
 C571 C 0.43788 0.50127 0.32592
 C572 C 0.42750 0.50469 0.17323
 C573 C 0.31383 0.57414 0.25584
 C574 C 0.32485 0.42373 0.27085
 C575 C 0.60515 0.99096 0.30576
 H576 H 0.61910 0.97409 0.30580
 C577 C 0.59133 0.99718 0.32860
 H578 H 0.59425 0.98494 0.34664
 C579 C 0.58616 1.02814 0.28145
 H580 H 0.58462 1.04052 0.26340
 C581 C 0.57047 1.03567 0.30596
 H582 H 0.55723 1.05316 0.30481
 N583 N 0.60168 1.00681 0.28137
 C584 C 0.59143 0.96299 0.21096
 H585 H 0.60550 0.94784 0.21792
 C586 C 0.57296 0.95621 0.19043
 H587 H 0.57292 0.93589 0.18195
 C588 C 0.57465 1.00796 0.21241
 H589 H 0.57564 1.02830 0.22052
 C590 C 0.55664 1.00232 0.19120
 H591 H 0.54363 1.01822 0.18348
 Zn592 Zn 0.61923 0.99854 0.24766
 N593 N 0.59217 0.98862 0.22145
 C594 C 0.63697 0.94509 0.26081
 N595 N 0.64486 0.96983 0.25099
 C596 C 0.67040 0.97388 0.24057
 C597 C 0.68870 0.95237 0.23866
 C598 C 0.65467 0.92297 0.25930
 C599 C 0.65313 1.04461 0.25377
 C600 C 0.66428 1.06995 0.24676
 C601 C 0.64361 1.06560 0.20236
 C602 C 0.63359 1.04010 0.20995
 N603 N 0.63756 1.03057 0.23563
 H604 H 0.61640 0.94216 0.26855
 H605 H 0.67628 0.99355 0.23260
 H606 H 0.70864 0.95594 0.22955
 H607 H 0.64759 0.90332 0.26641
 H608 H 0.65615 1.03649 0.27401
 H609 H 0.67590 1.08097 0.26190
 H610 H 0.63930 1.07305 0.18206
 H611 H 0.62214 1.02823 0.19540
 C612 C 0.55586 0.97623 0.17995
 C613 C 0.57237 1.02069 0.32881
 C614 C 0.65875 1.08122 0.22100
 C615 C 0.68074 0.92636 0.24753
 C616 C 0.08868 0.47997 0.78137
 H617 H 0.09140 0.46383 0.76666
 C618 C 0.07386 0.47502 0.80528
 H619 H 0.06491 0.45509 0.80866
 C620 C 0.09983 0.52441 0.79646
 H621 H 0.11128 0.54305 0.79387
 C622 C 0.08466 0.52051 0.82044
 H623 H 0.08450 0.53628 0.83582
 N624 N 0.10231 0.50390 0.77796
 C625 C 0.13958 0.50789 0.69673
 H626 H 0.16043 0.50991 0.70370
 C627 C 0.13414 0.50780 0.66893
 H628 H 0.15102 0.50994 0.65467
 C629 C 0.09252 0.50229 0.70724
 H630 H 0.07650 0.49996 0.72239
 C631 C 0.08611 0.50207 0.67939
 H632 H 0.06501 0.49967 0.67332
 Zn633 Zn 0.13096 0.50378 0.75178
 N634 N 0.11899 0.50492 0.71523
 C635 C 0.15232 0.45238 0.73713
 N636 N 0.15051 0.47123 0.75733
 C637 C 0.16277 0.46737 0.78184
 C638 C 0.17985 0.44519 0.78578
 C639 C 0.16833 0.42935 0.74062
 C640 C 0.14457 0.55932 0.75390
 C641 C 0.16090 0.58204 0.75938
 C642 C 0.19803 0.55203 0.77043
 C643 C 0.18114 0.52998 0.76444
 N644 N 0.15463 0.53389 0.75731
 H645 H 0.14169 0.45533 0.71814
 H646 H 0.16031 0.48229 0.79785
 H647 H 0.19062 0.44299 0.80487
 H648 H 0.17022 0.41482 0.72414
 H649 H 0.12364 0.56190 0.74750
 H650 H 0.15232 0.60210 0.75728
 H651 H 0.21892 0.54847 0.77657
 H652 H 0.18942 0.50983 0.76555
 C653 C 0.10718 0.50467 0.65985
 C654 C 0.07270 0.49506 0.82558
 C655 C 0.18785 0.57841 0.76826
 C656 C 0.18292 0.42612 0.76486
 C657 C 0.80258 0.89972 0.01412
 H658 H 0.80404 0.88397 0.02932
 C659 C 0.82576 0.91518 0.00748
 H660 H 0.84471 0.91100 0.01782
 C661 C 0.77623 0.92411 -0.01778
 H662 H 0.75678 0.92761 -0.02744
 C663 C 0.79887 0.94004 -0.02504
 H664 H 0.79664 0.95563 -0.04043
 N665 N 0.77855 0.90406 0.00112
 C666 C 0.69225 0.89496 -0.00242
 H667 H 0.69156 0.87666 -0.01460
 C668 C 0.66836 0.90979 0.00213
 H669 H 0.64940 0.90283 -0.00682
 C670 C 0.71764 0.92559 0.02503
 H671 H 0.73686 0.93127 0.03431
 C672 C 0.69436 0.94086 0.03019
 H673 H 0.69596 0.95854 0.04324
 Zn674 Zn 0.74771 0.88124 0.00745
 N675 N 0.71611 0.90288 0.00938
 C676 C 0.73323 0.86700 0.06172
 N677 N 0.75120 0.86205 0.04099
 C678 C 0.77001 0.84195 0.04300
 C679 C 0.76960 0.82442 0.06536
 C680 C 0.73286 0.85061 0.08494
 C681 C 0.74742 0.86598 -0.04789
 C682 C 0.75100 0.84829 -0.06986
 C683 C 0.74878 0.81055 -0.03848
 C684 C 0.74465 0.82891 -0.01720
 N685 N 0.74538 0.85615 -0.02201
 H686 H 0.71836 0.88293 0.05990
 H687 H 0.78413 0.83835 0.02634
 H688 H 0.78344 0.80737 0.06592
 H689 H 0.71772 0.85403 0.10076
 H690 H 0.74738 0.88760 -0.05145
 H691 H 0.75373 0.85658 -0.09015
 H692 H 0.74928 0.78899 -0.03413
 H693 H 0.74166 0.82126 0.00321
 C694 C 0.66920 0.93281 0.01906
 C695 C 0.82415 0.93542 -0.01264
 C696 C 0.75269 0.82027 -0.06506
 C697 C 0.75055 0.82850 0.08634
 C698 C 0.27995 0.42953 0.48085
 H699 H 0.25910 0.43577 0.47763
 C700 C 0.30143 0.44817 0.47685
 H701 H 0.29688 0.46880 0.47086
 C702 C 0.31145 0.39501 0.49186
 H703 H 0.31517 0.37412 0.49749
 C704 C 0.33339 0.41294 0.48842
 H705 H 0.35391 0.40553 0.49131
 N706 N 0.28534 0.40358 0.48855
 C707 C 0.20467 0.37351 0.47469
 H708 H 0.21186 0.35546 0.46452
 C709 C 0.17705 0.37998 0.47336
 H710 H 0.16347 0.36711 0.46162
 C711 C 0.21316 0.41101 0.50379
 H712 H 0.22724 0.42244 0.51636
 C713 C 0.18562 0.41846 0.50271
 H714 H 0.17873 0.43582 0.51433
 Zn715 Zn 0.25831 0.37622 0.49431
 N716 N 0.22214 0.38894 0.48975
 C717 C 0.24526 0.34137 0.53909
 N718 N 0.26060 0.36304 0.53061
 C719 C 0.27560 0.37786 0.54857
 C720 C 0.27563 0.37115 0.57613
 C721 C 0.24483 0.33379 0.56668
 C722 C 0.26348 0.35824 0.44167
 C723 C 0.26792 0.34066 0.41990
 C724 C 0.27774 0.30498 0.45213
 C725 C 0.27275 0.32329 0.47344
 N726 N 0.26548 0.34928 0.46779
 H727 H 0.23287 0.33035 0.52455
 H728 H 0.28683 0.39561 0.54180
 H729 H 0.28752 0.38357 0.58998
 H730 H 0.23227 0.31675 0.57316
 H731 H 0.25811 0.37916 0.43782
 H732 H 0.26607 0.34835 0.39934
 H733 H 0.28335 0.28428 0.45682
 H734 H 0.27477 0.31676 0.49437
 C735 C 0.16716 0.40257 0.48761
 C736 C 0.32855 0.43998 0.48095
 C737 C 0.27499 0.31359 0.42496
 C738 C 0.25996 0.34905 0.58561
 C739 C 0.21813 0.57262 -0.01185
 H740 H 0.23894 0.56580 -0.01413
 C741 C 0.19670 0.55401 -0.01453
 H742 H 0.20153 0.53299 -0.01874
 C743 C 0.18688 0.60827 -0.00395
 H744 H 0.18334 0.62949 0.00043
 C745 C 0.16476 0.59023 -0.00596
 H746 H 0.14430 0.59802 -0.00343
 N747 N 0.21294 0.59899 -0.00572
 C748 C 0.27407 0.58427 0.02553
 H749 H 0.25574 0.58199 0.03780
 C750 C 0.29646 0.56791 0.03063
 H751 H 0.29510 0.55309 0.04691
 C752 C 0.29775 0.60660 -0.01046
 H753 H 0.29816 0.62193 -0.02623
 C754 C 0.32086 0.59058 -0.00596
 H755 H 0.33883 0.59359 -0.01860
 Zn756 Zn 0.24228 0.62302 0.00230
 N757 N 0.27489 0.60293 0.00512
 C758 C 0.25465 0.65742 0.04681
 N759 N 0.23686 0.63828 0.03730
 C760 C 0.21784 0.62658 0.05398
 C761 C 0.21634 0.63374 0.08134
 C762 C 0.25371 0.66540 0.07421
 C763 C 0.24922 0.64154 -0.05124
 C764 C 0.24737 0.65978 -0.07295
 C765 C 0.23359 0.69454 -0.04105
 C766 C 0.23600 0.67570 -0.01991
 N767 N 0.24358 0.64974 -0.02535
 H768 H 0.27021 0.66574 0.03336
 H769 H 0.20478 0.61047 0.04661
 H770 H 0.20143 0.62361 0.09431
 H771 H 0.26840 0.68014 0.08165
 H772 H 0.25446 0.62058 -0.05509
 H773 H 0.25146 0.65264 -0.09342
 H774 H 0.22703 0.71498 -0.03641
 H775 H 0.23079 0.68159 0.00069
 C776 C 0.32025 0.57084 0.01481
 C777 C 0.16956 0.56248 -0.01069
 C778 C 0.23910 0.68660 -0.06801
 C779 C 0.23466 0.65302 0.09188
 C780 C 0.72702 0.07558 0.49912
 H781 H 0.74722 0.06760 0.50227
 C782 C 0.70490 0.05769 0.49707
 H783 H 0.70824 0.03603 0.49865
 C784 C 0.69800 0.11327 0.49224
 H785 H 0.69575 0.13489 0.48912
 C786 C 0.67522 0.09615 0.49074
 H787 H 0.65534 0.10477 0.48685
 N788 N 0.72336 0.10267 0.49531
 C789 C 0.80705 0.10855 0.50245
 H790 H 0.80668 0.12484 0.51718
 C791 C 0.82944 0.09108 0.50153
 H792 H 0.84622 0.09410 0.51553
 C793 C 0.78554 0.08394 0.46691
 H794 H 0.76830 0.08092 0.45365
 C795 C 0.80697 0.06558 0.46595
 H796 H 0.80616 0.04873 0.45177
 Zn797 Zn 0.75343 0.12593 0.48775
 N798 N 0.78548 0.10449 0.48550
 C799 C 0.74057 0.14831 0.53906
 N800 N 0.75664 0.15203 0.51654
 C801 C 0.77645 0.17160 0.51612
 C802 C 0.78115 0.18774 0.53919
 C803 C 0.74460 0.16392 0.56251
 C804 C 0.73473 0.12204 0.43523
 C805 C 0.73150 0.12758 0.40769
 C806 C 0.75188 0.17177 0.41493
 C807 C 0.75508 0.16518 0.44266
 N808 N 0.74686 0.14038 0.45216
 H809 H 0.72523 0.13241 0.53938
 H810 H 0.78947 0.17386 0.49835
 H811 H 0.79748 0.20272 0.53864
 H812 H 0.73187 0.16005 0.58023
 H813 H 0.72814 0.10249 0.44289
 H814 H 0.72241 0.11222 0.39471
 H815 H 0.75918 0.19121 0.40743
 H816 H 0.76478 0.17953 0.45625
 C817 C 0.82910 0.06896 0.48353
 C818 C 0.67882 0.06796 0.49200
 C819 C 0.74050 0.15244 0.39704
 C820 C 0.76545 0.18365 0.56300
 C821 C 0.98205 0.70980 0.92183
 H822 H 0.96816 0.72566 0.92802
 C823 C 0.98445 0.68752 0.93716
 H824 H 0.97257 0.68571 0.95580
 C825 C 1.01291 0.69298 0.88822
 H826 H 1.02512 0.69547 0.86999
 C827 C 1.01429 0.66698 0.90325
 H828 H 1.02742 0.65112 0.89546
 N829 N 0.99852 0.71316 0.89767
 C830 C 1.00577 0.80447 0.89272
 H831 H 1.00951 0.80673 0.87111
 C832 C 1.00274 0.82663 0.90826
 H833 H 1.00375 0.84646 0.89877
 C834 C 1.00225 0.77470 0.93086
 H835 H 1.00235 0.75481 0.93989
 C836 C 0.99772 0.79843 0.94866
 H837 H 0.99407 0.79492 0.97020
 Zn838 Zn 1.00079 0.74775 0.87980
 N839 N 1.00409 0.77772 0.90453
 C840 C 0.97069 0.77315 0.83929
 N841 N 0.96904 0.75377 0.85898
 C842 C 0.94522 0.74022 0.86417
 C843 C 0.92164 0.74643 0.84951
 C844 C 0.94774 0.77998 0.82423
 C845 C 1.05575 0.75737 0.86403
 C846 C 1.07882 0.75427 0.84738
 C847 C 1.05054 0.73099 0.81441
 C848 C 1.02809 0.73463 0.83157
 N849 N 1.03114 0.74729 0.85599
 H850 H 0.98993 0.78334 0.83520
 H851 H 0.94436 0.72489 0.87993
 H852 H 0.90283 0.73564 0.85413
 H853 H 0.94958 0.79559 0.80875
 H854 H 1.05763 0.76708 0.88372
 H855 H 1.09837 0.76183 0.85439
 H856 H 1.04777 0.72032 0.79531
 H857 H 1.00832 0.72652 0.82587
 C858 C 0.99699 0.82358 0.93788
 C859 C 1.00206 0.66488 0.92776
 C860 C 1.07637 0.74051 0.82241
 C861 C 0.92274 0.76674 0.82937
 C862 C 0.48575 0.20316 0.40951
 H863 H 0.46521 0.20617 0.40246
 C864 C 0.49161 0.18016 0.42515
 H865 H 0.47561 0.16537 0.42923
 C866 C 0.53106 0.21945 0.41488
 H867 H 0.54637 0.23493 0.41102
 C868 C 0.53764 0.19716 0.43088
 H869 H 0.55811 0.19558 0.43898
 N870 N 0.50574 0.22180 0.40392
 C871 C 0.51398 0.30774 0.39778
 H872 H 0.52614 0.30947 0.37938
 C873 C 0.50908 0.33080 0.41359
 H874 H 0.51817 0.34997 0.40744
 C875 C 0.48559 0.28111 0.42687
 H876 H 0.47588 0.26180 0.43140
 C877 C 0.48016 0.30357 0.44318
 H878 H 0.46655 0.30124 0.46054
 Zn879 Zn 0.50273 0.25312 0.38155
 N880 N 0.50209 0.28358 0.40461
 C881 C 0.46843 0.28050 0.34779
 N882 N 0.47119 0.25544 0.35907
 C883 C 0.45361 0.23485 0.35263
 C884 C 0.43149 0.23961 0.33531
 C885 C 0.44705 0.28598 0.33011
 C886 C 0.55829 0.26379 0.36406
 C887 C 0.58082 0.25878 0.34706
 C888 C 0.55148 0.23139 0.31844
 C889 C 0.52974 0.23689 0.33581
 N890 N 0.53339 0.25278 0.35810
 H891 H 0.48312 0.29633 0.35230
 H892 H 0.45705 0.21455 0.35992
 H893 H 0.41771 0.22305 0.33034
 H894 H 0.44531 0.30615 0.32151
 H895 H 0.56099 0.27550 0.38250
 H896 H 0.60060 0.26723 0.35224
 H897 H 0.54797 0.21836 0.30101
 H898 H 0.51000 0.22769 0.33198
 C899 C 0.49159 0.32891 0.43636
 C900 C 0.51799 0.17691 0.43574
 C901 C 0.57750 0.24207 0.32410
 C902 C 0.42809 0.26551 0.32389
 C903 C 1.00219 0.29277 0.58055
 H904 H 1.00502 0.27753 0.56493
 C905 C 1.00261 0.32053 0.57355
 H906 H 1.00541 0.32624 0.55241
 C907 C 0.99618 0.30391 0.62713
 H908 H 0.99388 0.29743 0.64807
 C909 C 0.99636 0.33146 0.62117
 H910 H 0.99410 0.34566 0.63789
 N911 N 0.99904 0.28511 0.60708
 C912 C 1.01455 0.19744 0.60043
 H913 H 1.02942 0.19681 0.61662
 C914 C 1.00799 0.17355 0.58621
 H915 H 1.01866 0.15502 0.59102
 C916 C 0.98071 0.22168 0.57648
 H917 H 0.96906 0.24006 0.57390
 C918 C 0.97362 0.19840 0.56176
 H919 H 0.95710 0.19950 0.54724
 Zn920 Zn 1.00111 0.24930 0.62159
 N921 N 1.00071 0.22081 0.59553
 C922 C 0.97046 0.22046 0.66032
 N923 N 0.96997 0.24255 0.64372
 C924 C 0.94731 0.25823 0.64182
 C925 C 0.92410 0.25223 0.65751
 C926 C 0.94778 0.21380 0.67646
 C927 C 1.05836 0.24746 0.63242
 C928 C 1.08156 0.25412 0.64780
 C929 C 1.05177 0.26563 0.68544
 C930 C 1.02940 0.25800 0.66974
 N931 N 1.03291 0.24964 0.64357
 H932 H 0.98857 0.20803 0.66102
 H933 H 0.94701 0.27518 0.62783
 H934 H 0.90637 0.26505 0.65572
 H935 H 0.94865 0.19620 0.68965
 H936 H 1.06061 0.24169 0.61125
 H937 H 1.10154 0.25277 0.63832
 H938 H 1.04807 0.27305 0.70592
 H939 H 1.00904 0.26040 0.67801
 C940 C 0.98679 0.17370 0.56702
 C941 C 0.99987 0.34036 0.59415
 C942 C 1.07835 0.26424 0.67448
 C943 C 0.92419 0.22976 0.67516
 C944 C 0.47520 0.77881 0.08396
 H945 H 0.46233 0.76142 0.07950
 C946 C 0.47598 0.80081 0.06592
 H947 H 0.46356 0.80039 0.04773
 C948 C 0.50836 0.80003 0.11199
 H949 H 0.52168 0.79946 0.12940
 C950 C 0.50888 0.82289 0.09514
 H951 H 0.52250 0.83969 0.09982
 N952 N 0.49206 0.77829 0.10594
 C953 C 0.49747 0.68999 0.11317
 H954 H 0.49544 0.68701 0.13489
 C955 C 0.49514 0.66766 0.09570
 H956 H 0.49130 0.64769 0.10422
 C957 C 0.50381 0.71961 0.07559
 H958 H 0.50755 0.73977 0.06770
 C959 C 0.50101 0.69799 0.05740
 H960 H 0.50226 0.70183 0.03568
 Zn961 Zn 0.49561 0.74567 0.12678
 N962 N 0.50059 0.71553 0.10288
 C963 C 0.46575 0.72116 0.16929
 N964 N 0.46346 0.73854 0.14788
 C965 C 0.43872 0.74864 0.14067
 C966 C 0.41498 0.74079 0.15484
 C967 C 0.44260 0.71273 0.18390
 C968 C 0.55094 0.73959 0.14315
 C969 C 0.57414 0.74599 0.15856
 C970 C 0.54567 0.77274 0.18847
 C971 C 0.52308 0.76574 0.17264
 N972 N 0.52613 0.74982 0.15021
 H973 H 0.48560 0.71348 0.17479
 H974 H 0.43722 0.76237 0.12359
 H975 H 0.39551 0.74880 0.14851
 H976 H 0.44497 0.69867 0.20068
 H977 H 0.55292 0.72726 0.12500
 H978 H 0.59379 0.73819 0.15224
 H979 H 0.54281 0.78595 0.20589
 H980 H 0.50319 0.77387 0.17762
 C981 C 0.49579 0.67179 0.06741
 C982 C 0.49322 0.82298 0.07138
 C983 C 0.57171 0.76319 0.18130
 C984 C 0.41672 0.72234 0.17662
 O985 O 0.07207 1.03703 1.00183
 O986 O 0.06088 1.03292 0.95377
 O987 O 0.00116 1.06836 1.03943
 O988 O -0.04376 1.05822 1.04146
 O989 O 0.03790 0.99542 1.07134
 O990 O 0.03794 0.94888 1.05662
 O991 O -0.07225 0.99631 0.96810
 O992 O -0.06627 1.04183 0.97668
 O993 O -0.00212 0.97106 0.92536
 O994 O 0.04979 0.97587 0.93716
 O995 O -0.02874 0.92509 0.99502
 O996 O -0.02727 0.93361 1.04491
 O997 O -0.06905 0.96088 0.99764
 O998 O -0.05888 0.95814 1.04538
 O999 O 0.00128 0.92975 0.95978
 O1000 O 0.04669 0.94005 0.95739
 O1001 O -0.03716 1.00070 0.93002
 O1002 O -0.03050 1.04851 0.94348
 O1003 O 0.07506 1.00132 1.03109
 O1004 O 0.06716 0.95361 1.02591
 O1005 O 0.00406 1.02651 1.07537
 O1006 O -0.04469 1.02171 1.06615
 O1007 O 0.03344 1.07187 1.00594
 O1008 O 0.02463 1.06536 0.95768
 Zr1009 Zr 0.03212 1.03400 0.98640
 O1010 O 0.00782 1.01101 0.95951
 Zr1011 Zr -0.01368 1.02801 1.03643
 O1012 O -0.03975 1.00475 1.01147
 Zr1013 Zr 0.03606 0.98286 1.03035
 O1014 O 0.01222 0.95775 1.00514
 Zr1015 Zr -0.03348 1.01472 0.97031
 O1016 O -0.00954 1.04032 0.99554
 Zr1017 Zr 0.01635 0.96966 0.96414
 O1018 O 0.04294 0.99277 0.98918
 Zr1019 Zr -0.02941 0.96349 1.01398
 O1020 O -0.00534 0.98642 1.04161
 O1021 O 0.02746 1.02387 1.02740
 O1022 O -0.02524 0.97321 0.97276
 C1023 C 0.08525 1.02213 1.01872
 C1024 C 0.01955 1.08169 1.02589
 C1025 C 0.02350 1.01225 1.08526
 C1026 C -0.08232 0.97555 0.98062
 C1027 C -0.02247 0.98439 0.91586
 C1028 C -0.01523 0.91560 0.97463
 H1029 H 0.01127 1.01748 0.94069
 H1030 H 0.01799 0.93878 1.00800
 H1031 H 0.03899 1.03506 1.03962
 H1032 H -0.05894 1.00792 1.01693
 H1033 H -0.05815 1.05896 0.98362
 H1034 H -0.05912 1.05334 1.02937
 H1035 H 0.05134 0.93245 0.97542
 H1036 H 0.07551 0.95661 1.00770
 H1037 H -0.04678 1.04834 0.93153
 H1038 H 0.03951 1.07912 0.95874
 H1039 H -0.01061 0.92284 1.04151
 H1040 H 0.02060 0.94845 1.06713
 H1041 H 0.07335 1.04884 0.95520
 H1042 H 0.04451 0.98996 0.92386
 H1043 H -0.04148 1.00363 1.07430
 H1044 H -0.06933 0.97518 1.04694
 O1045 O 0.50149 0.47807 0.42553
 O1046 O 0.54877 0.48035 0.43286
 O1047 O 0.47337 0.43151 0.49618
 O1048 O 0.47165 0.43596 0.54103
 O1049 O 0.43103 0.50534 0.47112
 O1050 O 0.44138 0.55245 0.47694
 O1051 O 0.54547 0.49934 0.57030
 O1052 O 0.53971 0.45429 0.55858
 O1053 O 0.57760 0.54028 0.50293
 O1054 O 0.56744 0.54169 0.45661
 O1055 O 0.50798 0.57215 0.54242
 O1056 O 0.46081 0.56154 0.54483
 O1057 O 0.51257 0.53136 0.57532
 O1058 O 0.46109 0.52807 0.56798
 O1059 O 0.54003 0.57601 0.50891
 O1060 O 0.53482 0.57043 0.45830
 O1061 O 0.57960 0.50417 0.53168
 O1062 O 0.56975 0.45660 0.51970
 O1063 O 0.46808 0.50951 0.43091
 O1064 O 0.47042 0.55598 0.44575
 O1065 O 0.43319 0.46907 0.49961
 O1066 O 0.44668 0.46961 0.54883
 O1067 O 0.50252 0.43573 0.46007
 O1068 O 0.55178 0.44677 0.46646
 Zr1069 Zr 0.51923 0.47507 0.46444
 O1070 O 0.54634 0.49752 0.48901
 Zr1071 Zr 0.47339 0.46989 0.51467
 O1072 O 0.49929 0.49104 0.54153
 Zr1073 Zr 0.47097 0.52179 0.47183
 O1074 O 0.49603 0.54570 0.49717
 Zr1075 Zr 0.54036 0.48647 0.52991
 O1076 O 0.51464 0.46217 0.50523
 Zr1077 Zr 0.53739 0.53898 0.48765
 O1078 O 0.51219 0.51706 0.46023
 Zr1079 Zr 0.49194 0.53277 0.53781
 O1080 O 0.46388 0.51140 0.51286
 O1081 O 0.47808 0.48034 0.47392
 O1082 O 0.53325 0.52815 0.52848
 C1083 C 0.48212 0.49293 0.41635
 C1084 C 0.48591 0.42198 0.47524
 C1085 C 0.42019 0.48477 0.48336
 C1086 C 0.53255 0.51721 0.58433
 C1087 C 0.59043 0.52479 0.51959
 C1088 C 0.52656 0.58541 0.52934
 H1089 H 0.56532 0.49413 0.48286
 H1090 H 0.49094 0.56496 0.49498
 H1091 H 0.46601 0.46962 0.46180
 H1092 H 0.49619 0.48440 0.56034
 H1093 H 0.53346 0.43788 0.54867
 H1094 H 0.48751 0.43758 0.55330
 H1095 H 0.51938 0.58223 0.46349
 H1096 H 0.48800 0.55608 0.43565
 H1097 H 0.58322 0.45570 0.53469
 H1098 H 0.54951 0.43281 0.45206
 H1099 H 0.45875 0.57213 0.52784
 H1100 H 0.43311 0.54965 0.49522
 H1101 H 0.54723 0.46506 0.41975
 H1102 H 0.56166 0.52891 0.44216
 H1103 H 0.43496 0.48582 0.54726
 H1104 H 0.46594 0.51241 0.57958
 O1105 O 0.46453 0.00314 0.57299
 O1106 O 0.46948 0.05035 0.56023
 O1107 O 0.43227 -0.03604 0.50341
 O1108 O 0.44199 -0.03847 0.45851
 O1109 O 0.50404 -0.06800 0.54104
 O1110 O 0.55090 -0.05501 0.54128
 O1111 O 0.50783 0.03378 0.42906
 O1112 O 0.46138 0.02563 0.43396
 O1113 O 0.53468 0.07511 0.49739
 O1114 O 0.52903 0.06632 0.54854
 O1115 O 0.57726 0.00502 0.47227
 O1116 O 0.56804 -0.04388 0.47472
 O1117 O 0.54200 0.00297 0.43261
 O1118 O 0.54137 -0.04589 0.44449
 O1119 O 0.57336 0.04048 0.50161
 O1120 O 0.56208 0.04238 0.54886
 O1121 O 0.50366 0.07146 0.46331
 O1122 O 0.45490 0.05900 0.46914
 O1123 O 0.49963 -0.02659 0.57704
 O1124 O 0.54787 -0.02312 0.56875
 O1125 O 0.47350 -0.07226 0.50658
 O1126 O 0.47805 -0.06357 0.45776
 O1127 O 0.42910 -0.00152 0.53410
 O1128 O 0.43719 0.04617 0.52386
 Zr1129 Zr 0.46780 0.01712 0.53262
 O1130 O 0.49210 0.04291 0.50813
 Zr1131 Zr 0.47271 -0.03363 0.48827
 O1132 O 0.49684 -0.00964 0.46169
 Zr1133 Zr 0.51800 -0.02765 0.53810
 O1134 O 0.54424 -0.00387 0.51370
 Zr1135 Zr 0.48819 0.03166 0.46717
 O1136 O 0.46148 0.00740 0.49125
 Zr1137 Zr 0.53345 0.03719 0.51709
 O1138 O 0.50907 0.01356 0.54392
 Zr1139 Zr 0.53818 -0.01315 0.47231
 O1140 O 0.51429 -0.03957 0.49707
 O1141 O 0.47687 -0.02400 0.52917
 O1142 O 0.52969 0.02810 0.47582
 C1143 C 0.47931 -0.01327 0.58682
 C1144 C 0.41897 -0.02175 0.52098
 C1145 C 0.48729 -0.08193 0.52649
 C1146 C 0.52848 0.02092 0.41937
 C1147 C 0.52150 0.08481 0.47708
 C1148 C 0.58708 0.02559 0.48509
 H1149 H 0.48631 0.06190 0.51103
 H1150 H 0.56324 -0.00714 0.51947
 H1151 H 0.46532 -0.03570 0.54105
 H1152 H 0.49352 -0.01513 0.44260
 H1153 H 0.44379 0.01915 0.44179
 H1154 H 0.44700 -0.02647 0.44308
 H1155 H 0.57238 0.02527 0.55051
 H1156 H 0.54560 -0.00466 0.57641
 H1157 H 0.45579 0.07089 0.45283
 H1158 H 0.42311 0.04571 0.53850
 H1159 H 0.57808 -0.04121 0.49197
 H1160 H 0.55171 -0.06508 0.52383
 H1161 H 0.45328 0.04959 0.57247
 H1162 H 0.51380 0.07840 0.54359
 H1163 H 0.49608 -0.07192 0.46096
 H1164 H 0.52576 -0.04494 0.43184
 O1165 O -0.07612 0.45608 0.98747
 O1166 O -0.05317 0.45089 0.94536
 O1167 O -0.01581 0.43198 1.04669
 O1168 O 0.02204 0.44678 1.06459
 O1169 O -0.06315 0.50838 1.05349
 O1170 O -0.05650 0.55223 1.03390
 O1171 O 0.07296 0.49220 0.98553
 O1172 O 0.06420 0.44999 1.00174
 O1173 O 0.01992 0.51095 0.92406
 O1174 O -0.02585 0.50905 0.91703
 O1175 O 0.02559 0.56782 0.99176
 O1176 O 0.01599 0.56780 1.03710
 O1177 O 0.06389 0.53295 1.00523
 O1178 O 0.03944 0.53840 1.05288
 O1179 O 0.00680 0.55814 0.95063
 O1180 O -0.04054 0.54208 0.93904
 O1181 O 0.04777 0.47901 0.94210
 O1182 O 0.03718 0.43522 0.96414
 O1183 O -0.08581 0.49735 1.00560
 O1184 O -0.07388 0.54401 0.99673
 O1185 O -0.03307 0.48007 1.07375
 O1186 O 0.01871 0.48666 1.07674
 O1187 O -0.03868 0.42247 1.00754
 O1188 O -0.01814 0.42286 0.96201
 Zr1189 Zr -0.03331 0.45732 0.98327
 O1190 O -0.00207 0.47634 0.96054
 Zr1191 Zr -0.00362 0.47298 1.04248
 O1192 O 0.02988 0.49087 1.02155
 Zr1193 Zr -0.04757 0.51506 1.01428
 O1194 O -0.01607 0.53595 0.99383
 Zr1195 Zr 0.03439 0.47417 0.98249
 O1196 O 0.00363 0.45359 1.00478
 Zr1197 Zr -0.00897 0.51808 0.95554
 O1198 O -0.04255 0.49833 0.97520
 Zr1199 Zr 0.02139 0.53185 1.01425
 O1200 O -0.01142 0.51458 1.03729
 O1201 O -0.04033 0.47422 1.02155
 O1202 O 0.02829 0.51560 0.97559
 C1203 C -0.09296 0.47435 0.99543
 C1204 C -0.02861 0.41561 1.03065
 C1205 C -0.05473 0.49478 1.07402
 C1206 C 0.08034 0.51558 0.99448
 C1207 C 0.03940 0.49360 0.92221
 C1208 C 0.01749 0.57472 0.96796
 H1209 H -0.00083 0.46698 0.94273
 H1210 H -0.02210 0.55502 0.99264
 H1211 H -0.05519 0.46453 1.03146
 H1212 H 0.04684 0.48863 1.03213
 H1213 H 0.05417 0.43502 1.01097
 H1214 H 0.03847 0.44405 1.05311
 H1215 H -0.04298 0.55799 0.95110
 H1216 H -0.07756 0.53789 0.97788
 H1217 H 0.05576 0.43330 0.95619
 H1218 H -0.03187 0.40794 0.96268
 H1219 H -0.00316 0.57340 1.03431
 H1220 H -0.04328 0.55426 1.04897
 H1221 H -0.06485 0.43434 0.94651
 H1222 H -0.03737 0.49265 0.91969
 H1223 H 0.01066 0.50416 1.08247
 H1224 H 0.05639 0.52762 1.05380
 O1225 O 0.01015 0.42736 0.52673
 O1226 O -0.01953 0.42585 0.48756
 O1227 O 0.08117 0.47089 0.49921
 O1228 O 0.09120 0.51039 0.47906
 O1229 O 0.03890 0.49702 0.57283
 O1230 O -0.00178 0.52133 0.58089
 O1231 O 0.01017 0.54878 0.43360
 O1232 O 0.04535 0.51836 0.42528
 O1233 O -0.05849 0.50444 0.45556
 O1234 O -0.06597 0.46530 0.49072
 O1235 O -0.03527 0.56906 0.50458
 O1236 O 0.00073 0.57701 0.53824
 O1237 O 0.00432 0.57689 0.46994
 O1238 O 0.03184 0.58244 0.51219
 O1239 O -0.06542 0.53447 0.49756
 O1240 O -0.07468 0.49327 0.51986
 O1241 O -0.02337 0.51120 0.42573
 O1242 O 0.01545 0.47962 0.42034
 O1243 O 0.00401 0.45545 0.56308
 O1244 O -0.02950 0.48994 0.57347
 O1245 O 0.07438 0.50360 0.54340
 O1246 O 0.08186 0.54005 0.50956
 O1247 O 0.05102 0.43604 0.49267
 O1248 O 0.01775 0.43318 0.45636
 Zr1249 Zr 0.01248 0.45464 0.49360
 O1250 O -0.01252 0.47938 0.46929
 Zr1251 Zr 0.05647 0.50540 0.50450
 O1252 O 0.03349 0.53190 0.48008
 Zr1253 Zr 0.00460 0.49527 0.54724
 O1254 O -0.02051 0.52172 0.52515
 Zr1255 Zr 0.01131 0.50989 0.45089
 O1256 O 0.03701 0.48367 0.47305
 Zr1257 Zr -0.04046 0.50010 0.49409
 O1258 O -0.01758 0.47304 0.51824
 Zr1259 Zr 0.00348 0.55074 0.50420
 O1260 O 0.02849 0.52636 0.52936
 O1261 O 0.03373 0.47535 0.52399
 O1262 O -0.01804 0.53022 0.47398
 C1263 C 0.00610 0.43169 0.55230
 C1264 C 0.07543 0.44575 0.49455
 C1265 C 0.06439 0.50083 0.56757
 C1266 C 0.00718 0.57245 0.44421
 C1267 C -0.04891 0.50863 0.43144
 C1268 C -0.05968 0.55958 0.50197
 H1269 H -0.02175 0.46807 0.45539
 H1270 H -0.03361 0.53022 0.53791
 H1271 H 0.04531 0.46322 0.53502
 H1272 H 0.04583 0.54526 0.47118
 H1273 H 0.05859 0.50357 0.42823
 H1274 H 0.08501 0.51976 0.46240
 H1275 H -0.07076 0.50222 0.53747
 H1276 H -0.04179 0.47663 0.56454
 H1277 H 0.01313 0.48841 0.40231
 H1278 H 0.02288 0.41417 0.46044
 H1279 H -0.01372 0.56973 0.55048
 H1280 H 0.00928 0.53791 0.57731
 H1281 H -0.01213 0.40724 0.48933
 H1282 H -0.06331 0.45755 0.47230
 H1283 H 0.07403 0.55068 0.52481
 H1284 H 0.04624 0.58186 0.49795
 O1285 O 0.56542 0.99116 0.03730
 O1286 O 0.56157 1.03856 0.03219
 O1287 O 0.49191 0.96716 0.07856
 O1288 O 0.44692 0.97310 0.07255
 O1289 O 0.51632 0.92249 0.00755
 O1290 O 0.51759 0.93095 -0.03939
 O1291 O 0.42617 1.04260 0.00323
 O1292 O 0.43420 1.03900 0.04918
 O1293 O 0.49890 1.06779 -0.03479
 O1294 O 0.54426 1.05494 -0.03220
 O1295 O 0.45615 1.00074 -0.06591
 O1296 O 0.45105 0.95330 -0.05340
 O1297 O 0.42121 1.00860 -0.02780
 O1298 O 0.42458 0.95767 -0.02257
 O1299 O 0.49263 1.02944 -0.06893
 O1300 O 0.54269 1.02071 -0.05934
 O1301 O 0.46740 1.07356 -0.00108
 O1302 O 0.47513 1.06607 0.04817
 O1303 O 0.56122 0.95723 0.00606
 O1304 O 0.54969 0.95799 -0.04183
 O1305 O 0.48575 0.92820 0.04213
 O1306 O 0.43860 0.94512 0.03907
 O1307 O 0.52853 0.99587 0.07634
 O1308 O 0.52553 1.04486 0.06341
 Zr1309 Zr 0.52787 1.01130 0.03623
 O1310 O 0.50714 1.03848 0.01069
 Zr1311 Zr 0.47463 0.96925 0.03954
 O1312 O 0.45117 0.99546 0.01535
 Zr1313 Zr 0.52121 0.96161 -0.00944
 O1314 O 0.49919 0.98657 -0.03622
 Zr1315 Zr 0.46517 1.03574 0.01903
 O1316 O 0.48605 1.00999 0.04641
 Zr1317 Zr 0.51111 1.02721 -0.03035
 O1318 O 0.53505 1.00195 -0.00522
 Zr1319 Zr 0.45742 0.98581 -0.02587
 O1320 O 0.47897 0.95776 -0.00157
 O1321 O 0.51631 0.97076 0.03154
 O1322 O 0.46932 1.02632 -0.02221
 C1323 C 0.57497 0.97107 0.02364
 C1324 C 0.51279 0.97901 0.08911
 C1325 C 0.50141 0.91343 0.02730
 C1326 C 0.41257 1.02973 -0.01506
 C1327 C 0.48178 1.08231 -0.02135
 C1328 C 0.47147 1.01761 -0.07900
 H1329 H 0.51430 1.05709 0.01373
 H1330 H 0.50239 0.98048 -0.05516
 H1331 H 0.52679 0.95819 0.04317
 H1332 H 0.43171 0.99393 0.02074
 H1333 H 0.44233 1.03287 0.06654
 H1334 H 0.43388 0.98747 0.06756
 H1335 H 0.53678 1.00588 -0.07161
 H1336 H 0.56122 0.97460 -0.04151
 H1337 H 0.46123 1.08056 0.04704
 H1338 H 0.53870 1.04238 0.07846
 H1339 H 0.46770 0.95170 -0.06484
 H1340 H 0.49802 0.92571 -0.03983
 H1341 H 0.57335 1.03702 0.04851
 H1342 H 0.55710 1.04932 -0.01781
 H1343 H 0.43961 0.93356 0.02258
 H1344 H 0.41266 0.96352 -0.00733
 O1345 O 0.41960 0.50386 0.02725
 O1346 O 0.42376 0.45649 0.01895
 O1347 O 0.49277 0.52172 0.07249
 O1348 O 0.53764 0.52221 0.06603
 O1349 O 0.46958 0.57342 0.00237
 O1350 O 0.47078 0.56698 -0.04540
 O1351 O 0.56099 0.45497 -0.00559
 O1352 O 0.55055 0.45603 0.04066
 O1353 O 0.49000 0.43024 -0.04651
 O1354 O 0.44446 0.44252 -0.04459
 O1355 O 0.53326 0.49926 -0.07314
 O1356 O 0.53649 0.54686 -0.05787
 O1357 O 0.56633 0.49009 -0.03534
 O1358 O 0.56289 0.54027 -0.02740
 O1359 O 0.49692 0.47086 -0.07884
 O1360 O 0.44654 0.47818 -0.07004
 O1361 O 0.52118 0.42419 -0.01298
 O1362 O 0.51026 0.42815 0.03630
 O1363 O 0.42541 0.53950 -0.00180
 O1364 O 0.43802 0.54063 -0.04917
 O1365 O 0.49807 0.56603 0.03795
 O1366 O 0.54588 0.54983 0.03476
 O1367 O 0.45410 0.49647 0.06670
 O1368 O 0.45824 0.44846 0.05139
 Zr1369 Zr 0.45715 0.48340 0.02595
 O1370 O 0.47949 0.45760 -0.00005
 Zr1371 Zr 0.51012 0.52537 0.03320
 O1372 O 0.53489 0.50085 0.00826
 Zr1373 Zr 0.46566 0.53528 -0.01670
 O1374 O 0.48877 0.51169 -0.04411
 Zr1375 Zr 0.52114 0.46043 0.00953
 O1376 O 0.49860 0.48434 0.03742
 Zr1377 Zr 0.47705 0.47065 -0.04060
 O1378 O 0.45177 0.49470 -0.01513
 Zr1379 Zr 0.53005 0.51250 -0.03259
 O1380 O 0.50742 0.53904 -0.00735
 O1381 O 0.46884 0.52416 0.02400
 O1382 O 0.51844 0.47178 -0.03125
 C1383 C 0.41093 0.52506 0.01482
 C1384 C 0.47088 0.51006 0.08154
 C1385 C 0.48329 0.58154 0.02314
 C1386 C 0.57480 0.46851 -0.02347
 C1387 C 0.50765 0.41586 -0.03375
 C1388 C 0.51853 0.48317 -0.08759
 H1389 H 0.47253 0.43875 0.00188
 H1390 H 0.48625 0.51871 -0.06279
 H1391 H 0.45803 0.53591 0.03632
 H1392 H 0.55411 0.50225 0.01425
 H1393 H 0.54126 0.46060 0.05804
 H1394 H 0.54864 0.50581 0.06259
 H1395 H 0.45240 0.49412 -0.08095
 H1396 H 0.42688 0.52379 -0.05023
 H1397 H 0.52456 0.41406 0.03488
 H1398 H 0.44395 0.44987 0.06574
 H1399 H 0.52109 0.54777 -0.07080
 H1400 H 0.49013 0.57288 -0.04429
 H1401 H 0.41105 0.45724 0.03478
 H1402 H 0.43061 0.44770 -0.03081
 H1403 H 0.54524 0.56233 0.01897
 H1404 H 0.57384 0.53407 -0.01175
 O1405 O -0.07634 -0.00144 0.50113
 O1406 O -0.06330 -0.04536 0.48459
 O1407 O -0.02677 0.01164 0.57138
 O1408 O 0.01657 0.01559 0.58210
 O1409 O -0.02877 0.07335 0.50493
 O1410 O -0.00913 0.07469 0.46040
 O1411 O 0.07185 -0.03893 0.51204
 O1412 O 0.04801 -0.04493 0.55235
 O1413 O 0.01855 -0.06062 0.44887
 O1414 O -0.02849 -0.04119 0.43454
 O1415 O 0.06518 0.01465 0.44851
 O1416 O 0.05729 0.05982 0.46945
 O1417 O 0.08326 0.00241 0.49454
 O1418 O 0.07197 0.05002 0.50614
 O1419 O 0.03676 -0.01416 0.42592
 O1420 O -0.00754 -0.01152 0.41336
 O1421 O 0.03801 -0.07058 0.48958
 O1422 O 0.01187 -0.07236 0.53315
 O1423 O -0.06446 0.03930 0.48242
 O1424 O -0.03728 0.04818 0.44217
 O1425 O -0.01158 0.06284 0.54648
 O1426 O 0.03433 0.04666 0.56018
 O1427 O -0.05576 -0.01644 0.54842
 O1428 O -0.04493 -0.05869 0.52752
 Zr1429 Zr -0.03866 -0.01980 0.50949
 O1430 O -0.00617 -0.04007 0.49041
 Zr1431 Zr 0.00332 0.02273 0.54187
 O1432 O 0.03763 0.00362 0.52420
 Zr1433 Zr -0.02143 0.03887 0.48104
 O1434 O 0.01193 0.02102 0.46064
 Zr1435 Zr 0.02894 -0.03707 0.51457
 O1436 O -0.00428 -0.01894 0.53529
 Zr1437 Zr 0.00419 -0.02046 0.45376
 O1438 O -0.03055 -0.00170 0.47137
 Zr1439 Zr 0.04616 0.02165 0.48626
 O1440 O 0.01371 0.04272 0.50525
 O1441 O -0.03159 0.02114 0.51827
 O1442 O 0.03935 -0.01926 0.47739
 C1443 C -0.08222 0.02155 0.49039
 C1444 C -0.04749 -0.00474 0.57023
 C1445 C -0.02249 0.07948 0.52953
 C1446 C 0.08942 -0.02117 0.50366
 C1447 C 0.03090 -0.07684 0.46520
 C1448 C 0.05876 0.00023 0.42769
 H1449 H -0.01204 -0.05915 0.48773
 H1450 H 0.01550 0.03071 0.44331
 H1451 H -0.04699 0.03006 0.52784
 H1452 H 0.05334 0.00481 0.53675
 H1453 H 0.03369 -0.04319 0.56658
 H1454 H 0.02814 -0.00074 0.58125
 H1455 H -0.01176 0.00807 0.41285
 H1456 H -0.04636 0.03145 0.43542
 H1457 H 0.02651 -0.08605 0.53475
 H1458 H -0.06432 -0.06077 0.53324
 H1459 H 0.04808 0.06161 0.45165
 H1460 H 0.00752 0.08138 0.46969
 H1461 H -0.08142 -0.04817 0.49339
 H1462 H -0.03128 -0.05861 0.44427
 H1463 H 0.03862 0.06167 0.54737
 H1464 H 0.07696 0.04229 0.52403
 O1465 O 0.72223 0.17047 0.23286
 O1466 O 0.76719 0.16892 0.21450
 O1467 O 0.73202 0.21659 0.30698
 O1468 O 0.74247 0.25828 0.31984
 O1469 O 0.66796 0.23354 0.24718
 O1470 O 0.66692 0.25990 0.20748
 O1471 O 0.80717 0.29619 0.25126
 O1472 O 0.80902 0.26559 0.28651
 O1473 O 0.80237 0.25463 0.17847
 O1474 O 0.78008 0.21528 0.16398
 O1475 O 0.74822 0.31415 0.19121
 O1476 O 0.70810 0.32119 0.21638
 O1477 O 0.77213 0.32275 0.23729
 O1478 O 0.72223 0.32401 0.25526
 O1479 O 0.76091 0.27991 0.16290
 O1480 O 0.74198 0.23342 0.15218
 O1481 O 0.82386 0.26064 0.21898
 O1482 O 0.82227 0.22828 0.25840
 O1483 O 0.68841 0.19580 0.21436
 O1484 O 0.68354 0.23216 0.18078
 O1485 O 0.68607 0.24362 0.28853
 O1486 O 0.71561 0.28454 0.30167
 O1487 O 0.74518 0.18153 0.27982
 O1488 O 0.78979 0.18190 0.25487
 Zr1489 Zr 0.75275 0.19954 0.24138
 O1490 O 0.78058 0.22568 0.22117
 Zr1491 Zr 0.72845 0.24960 0.28012
 O1492 O 0.75714 0.27709 0.26311
 Zr1493 Zr 0.70067 0.23660 0.22004
 O1494 O 0.72622 0.26530 0.20083
 Zr1495 Zr 0.79176 0.25678 0.24800
 O1496 O 0.76508 0.22985 0.26904
 Zr1497 Zr 0.76189 0.24554 0.18846
 O1498 O 0.73530 0.21615 0.20581
 Zr1499 Zr 0.73979 0.29506 0.22863
 O1500 O 0.71010 0.26886 0.24678
 O1501 O 0.71701 0.21821 0.25431
 O1502 O 0.77499 0.27635 0.21447
 C1503 C 0.69906 0.17296 0.22101
 C1504 C 0.73850 0.19164 0.30312
 C1505 C 0.66590 0.23729 0.27291
 C1506 C 0.79663 0.31937 0.24612
 C1507 C 0.82360 0.25981 0.19275
 C1508 C 0.75538 0.30492 0.16777
 H1509 H 0.79673 0.21538 0.21487
 H1510 H 0.71622 0.27331 0.18538
 H1511 H 0.70451 0.20499 0.26327
 H1512 H 0.76234 0.29064 0.27707
 H1513 H 0.80305 0.25083 0.29896
 H1514 H 0.76216 0.26259 0.31796
 H1515 H 0.72725 0.24656 0.14859
 H1516 H 0.69468 0.21860 0.17093
 H1517 H 0.84004 0.23807 0.25921
 H1518 H 0.78592 0.16351 0.26223
 H1519 H 0.69603 0.31052 0.20427
 H1520 H 0.66664 0.27624 0.21924
 H1521 H 0.76500 0.15092 0.22339
 H1522 H 0.77442 0.19766 0.17203
 H1523 H 0.69966 0.29188 0.29186
 H1524 H 0.73485 0.32668 0.27073
 O1525 O 0.75002 0.71457 0.68997
 O1526 O 0.79735 0.71903 0.70367
 O1527 O 0.70939 0.68248 0.76060
 O1528 O 0.70384 0.69359 0.80436
 O1529 O 0.67846 0.75490 0.72016
 O1530 O 0.69204 0.80126 0.72031
 O1531 O 0.77559 0.75556 0.83535
 O1532 O 0.76939 0.71002 0.82883
 O1533 O 0.82135 0.78348 0.76675
 O1534 O 0.81340 0.77698 0.71492
 O1535 O 0.75314 0.82567 0.79230
 O1536 O 0.70317 0.81952 0.78613
 O1537 O 0.74609 0.79062 0.83020
 O1538 O 0.69779 0.79209 0.81579
 O1539 O 0.78716 0.82253 0.76077
 O1540 O 0.79107 0.81125 0.71466
 O1541 O 0.81598 0.75369 0.80181
 O1542 O 0.80419 0.70495 0.79494
 O1543 O 0.72073 0.74990 0.68520
 O1544 O 0.72482 0.79782 0.69317
 O1545 O 0.67295 0.72394 0.75415
 O1546 O 0.67996 0.72946 0.80353
 O1547 O 0.74405 0.67937 0.72963
 O1548 O 0.79193 0.68695 0.73988
 Zr1549 Zr 0.76320 0.71769 0.73066
 O1550 O 0.78879 0.74147 0.75564
 Zr1551 Zr 0.71099 0.72327 0.77393
 O1552 O 0.73468 0.74695 0.80074
 Zr1553 Zr 0.71906 0.76821 0.72395
 O1554 O 0.74275 0.79405 0.74859
 Zr1555 Zr 0.77629 0.73772 0.79643
 O1556 O 0.75221 0.71161 0.77189
 Zr1557 Zr 0.78387 0.78262 0.74613
 O1558 O 0.76050 0.75877 0.71899
 Zr1559 Zr 0.73224 0.78814 0.78979
 O1560 O 0.70592 0.76471 0.76474
 O1561 O 0.72187 0.72719 0.73321
 O1562 O 0.77363 0.77898 0.78731
 C1563 C 0.73402 0.72950 0.67575
 C1564 C 0.72399 0.66914 0.74333
 C1565 C 0.66397 0.73794 0.73406
 C1566 C 0.76228 0.77607 0.84453
 C1567 C 0.83015 0.77093 0.78784
 C1568 C 0.77370 0.83551 0.77906
 H1569 H 0.80792 0.73556 0.75323
 H1570 H 0.74015 0.81305 0.74274
 H1571 H 0.71040 0.71562 0.72128
 H1572 H 0.72824 0.74359 0.81961
 H1573 H 0.76284 0.69287 0.82047
 H1574 H 0.71692 0.69735 0.81918
 H1575 H 0.77362 0.82061 0.71127
 H1576 H 0.74340 0.79506 0.68558
 H1577 H 0.81580 0.70590 0.81142
 H1578 H 0.79153 0.67296 0.72534
 H1579 H 0.70785 0.83021 0.76965
 H1580 H 0.68241 0.80279 0.73805
 H1581 H 0.79661 0.70308 0.69134
 H1582 H 0.82635 0.76302 0.72117
 H1583 H 0.67116 0.74692 0.79907
 H1584 H 0.69744 0.77629 0.82825
 O1585 O 0.23535 0.28547 0.67557
 O1586 O 0.24061 0.23917 0.66471
 O1587 O 0.17437 0.28283 0.74027
 O1588 O 0.17043 0.26909 0.78320
 O1589 O 0.25174 0.33071 0.75019
 O1590 O 0.29725 0.31824 0.75851
 O1591 O 0.22749 0.18986 0.79506
 O1592 O 0.18617 0.20016 0.77543
 O1593 O 0.28534 0.18325 0.73245
 O1594 O 0.29448 0.20832 0.69289
 O1595 O 0.30594 0.23203 0.79789
 O1596 O 0.29040 0.27781 0.81422
 O1597 O 0.25706 0.21664 0.81885
 O1598 O 0.25662 0.26302 0.83170
 O1599 O 0.31767 0.21597 0.75605
 O1600 O 0.32096 0.23900 0.71060
 O1601 O 0.24387 0.17206 0.75043
 O1602 O 0.19970 0.18573 0.73075
 O1603 O 0.26425 0.31249 0.69984
 O1604 O 0.30752 0.30280 0.72101
 O1605 O 0.20890 0.31940 0.76441
 O1606 O 0.20024 0.28998 0.80479
 O1607 O 0.18636 0.26876 0.69771
 O1608 O 0.20075 0.22255 0.68602
 Zr1609 Zr 0.22619 0.25335 0.70307
 O1610 O 0.24413 0.21846 0.72024
 Zr1611 Zr 0.20883 0.27674 0.76460
 O1612 O 0.22522 0.24256 0.78388
 Zr1613 Zr 0.26862 0.29349 0.73780
 O1614 O 0.28796 0.26032 0.75632
 Zr1615 Zr 0.22458 0.20923 0.75728
 O1616 O 0.20497 0.24259 0.73917
 Zr1617 Zr 0.28478 0.22608 0.73092
 O1618 O 0.26806 0.26021 0.71085
 Zr1619 Zr 0.26686 0.24914 0.79214
 O1620 O 0.24959 0.28483 0.77541
 O1621 O 0.22766 0.28750 0.72816
 O1622 O 0.26562 0.21490 0.76732
 C1623 C 0.25119 0.30638 0.67803
 C1624 C 0.16894 0.27789 0.71515
 C1625 C 0.22796 0.33678 0.75941
 C1626 C 0.24092 0.19593 0.81666
 C1627 C 0.26750 0.16584 0.74101
 C1628 C 0.32272 0.22056 0.78127
 H1629 H 0.24299 0.20305 0.70731
 H1630 H 0.30714 0.26559 0.75990
 H1631 H 0.21879 0.30331 0.71956
 H1632 H 0.21448 0.23875 0.80062
 H1633 H 0.17227 0.20988 0.76465
 H1634 H 0.16997 0.24962 0.78806
 H1635 H 0.33086 0.25151 0.72292
 H1636 H 0.30971 0.29132 0.70459
 H1637 H 0.19628 0.16782 0.73945
 H1638 H 0.19035 0.23007 0.67050
 H1639 H 0.30739 0.28136 0.80369
 H1640 H 0.29179 0.31804 0.77798
 H1641 H 0.22836 0.24572 0.65010
 H1642 H 0.28490 0.21914 0.67897
 H1643 H 0.21642 0.30043 0.81102
 H1644 H 0.23649 0.26227 0.83341
 O1645 O 0.18932 0.76921 0.30375
 O1646 O 0.20139 0.72663 0.31987
 O1647 O 0.27029 0.80918 0.30107
 O1648 O 0.30987 0.80389 0.27886
 O1649 O 0.21300 0.81891 0.23557
 O1650 O 0.20125 0.79088 0.19764
 O1651 O 0.31907 0.71199 0.24508
 O1652 O 0.32405 0.73430 0.28623
 O1653 O 0.24251 0.67035 0.25116
 O1654 O 0.19928 0.68290 0.26705
 O1655 O 0.25933 0.71467 0.18180
 O1656 O 0.26035 0.75950 0.16849
 O1657 O 0.30809 0.72880 0.20337
 O1658 O 0.29333 0.77572 0.18705
 O1659 O 0.22877 0.68908 0.20588
 O1660 O 0.18501 0.70072 0.22960
 O1661 O 0.28513 0.68016 0.26655
 O1662 O 0.29086 0.70672 0.30946
 O1663 O 0.17880 0.78673 0.26221
 O1664 O 0.17421 0.76473 0.21847
 O1665 O 0.25516 0.82903 0.25191
 O1666 O 0.30118 0.81289 0.23842
 O1667 O 0.23880 0.78452 0.32508
 O1668 O 0.24630 0.73468 0.33323
 Zr1669 Zr 0.22874 0.75255 0.29803
 O1670 O 0.24458 0.71677 0.28049
 Zr1671 Zr 0.27206 0.79132 0.26232
 O1672 O 0.29030 0.75716 0.24443
 Zr1673 Zr 0.21162 0.77620 0.23671
 O1674 O 0.22729 0.74174 0.21690
 Zr1675 Zr 0.28574 0.72293 0.26972
 O1676 O 0.27073 0.75819 0.28946
 Zr1677 Zr 0.22521 0.70843 0.24359
 O1678 O 0.20690 0.74226 0.26249
 Zr1679 Zr 0.26926 0.74686 0.20863
 O1680 O 0.25256 0.78309 0.22510
 O1681 O 0.23116 0.78648 0.27275
 O1682 O 0.26648 0.71263 0.23338
 C1683 C 0.17305 0.78129 0.28721
 C1684 C 0.25640 0.80401 0.32281
 C1685 C 0.23203 0.83584 0.24191
 C1686 C 0.32451 0.71688 0.21987
 C1687 C 0.26637 0.66332 0.25911
 C1688 C 0.24275 0.69435 0.18433
 H1689 H 0.24234 0.70133 0.29327
 H1690 H 0.21682 0.73852 0.20002
 H1691 H 0.22315 0.80269 0.28158
 H1692 H 0.30976 0.76165 0.24105
 H1693 H 0.32022 0.74652 0.30181
 H1694 H 0.32124 0.78746 0.28015
 H1695 H 0.18330 0.70895 0.21129
 H1696 H 0.16607 0.75030 0.23010
 H1697 H 0.30617 0.69366 0.30874
 H1698 H 0.23956 0.74403 0.34983
 H1699 H 0.24044 0.76265 0.16779
 H1700 H 0.21830 0.79825 0.18941
 H1701 H 0.19600 0.73566 0.33717
 H1702 H 0.19081 0.69464 0.28107
 H1703 H 0.29242 0.81698 0.22077
 H1704 H 0.31075 0.77796 0.19695
 O1705 O 0.17948 0.72324 0.76129
 O1706 O 0.18662 0.73073 0.71350
 O1707 O 0.25107 0.67990 0.78590
 O1708 O 0.29616 0.68588 0.78625
 O1709 O 0.22499 0.75178 0.83115
 O1710 O 0.22871 0.79928 0.82210
 O1711 O 0.32288 0.75191 0.71440
 O1712 O 0.31288 0.70671 0.71875
 O1713 O 0.25265 0.78989 0.68492
 O1714 O 0.20247 0.78937 0.70231
 O1715 O 0.29338 0.82288 0.75373
 O1716 O 0.29599 0.81178 0.80093
 O1717 O 0.32731 0.78366 0.74781
 O1718 O 0.32055 0.77940 0.79919
 O1719 O 0.25861 0.82605 0.72349
 O1720 O 0.21136 0.82115 0.72684
 O1721 O 0.28348 0.75581 0.68129
 O1722 O 0.27306 0.70738 0.69057
 O1723 O 0.18346 0.75480 0.79497
 O1724 O 0.19693 0.80199 0.79428
 O1725 O 0.25467 0.71677 0.82711
 O1726 O 0.30341 0.71927 0.81238
 O1727 O 0.21449 0.68370 0.75779
 O1728 O 0.21916 0.69489 0.70969
 Zr1729 Zr 0.21797 0.72332 0.74229
 O1730 O 0.24162 0.74694 0.71520
 Zr1731 Zr 0.26888 0.71894 0.78658
 O1732 O 0.29483 0.74178 0.76080
 Zr1733 Zr 0.22424 0.76903 0.79184
 O1734 O 0.24852 0.79442 0.76680
 Zr1735 Zr 0.28292 0.73747 0.72001
 O1736 O 0.25920 0.71176 0.74545
 Zr1737 Zr 0.23867 0.78810 0.72565
 O1738 O 0.21231 0.76481 0.75100
 Zr1739 Zr 0.28981 0.78323 0.76928
 O1740 O 0.26586 0.76019 0.79728
 O1741 O 0.22773 0.72797 0.78331
 O1742 O 0.28004 0.77895 0.72820
 C1743 C 0.16965 0.73735 0.78100
 C1744 C 0.23000 0.67009 0.77371
 C1745 C 0.23823 0.73164 0.84101
 C1746 C 0.33654 0.77010 0.72736
 C1747 C 0.26979 0.77553 0.67126
 C1748 C 0.27928 0.83599 0.73619
 H1749 H 0.23544 0.74324 0.69639
 H1750 H 0.24573 0.81351 0.77232
 H1751 H 0.21614 0.71652 0.79540
 H1752 H 0.31392 0.73590 0.76327
 H1753 H 0.30380 0.68979 0.72513
 H1754 H 0.30883 0.68888 0.77075
 H1755 H 0.21110 0.82804 0.74577
 H1756 H 0.18649 0.80200 0.77705
 H1757 H 0.28758 0.70753 0.67636
 H1758 H 0.20329 0.68231 0.71127
 H1759 H 0.27884 0.82204 0.80315
 H1760 H 0.24743 0.79745 0.82937
 H1761 H 0.17288 0.71582 0.71441
 H1762 H 0.20413 0.77573 0.68760
 H1763 H 0.30186 0.73551 0.82417
 H1764 H 0.33247 0.76415 0.79383
 O1765 O 0.18558 0.25386 0.21054
 O1766 O 0.19896 0.29987 0.21418
 O1767 O 0.25725 0.21565 0.17679
 O1768 O 0.30094 0.21024 0.18790
 O1769 O 0.21510 0.18047 0.24656
 O1770 O 0.21483 0.19055 0.29379
 O1771 O 0.33000 0.28012 0.25522
 O1772 O 0.32530 0.27450 0.20845
 O1773 O 0.26185 0.32103 0.28404
 O1774 O 0.21507 0.31701 0.27880
 O1775 O 0.28613 0.24907 0.32314
 O1776 O 0.28200 0.20110 0.31323
 O1777 O 0.32547 0.24734 0.28768
 O1778 O 0.31130 0.19821 0.28474
 O1779 O 0.25696 0.28461 0.32090
 O1780 O 0.20706 0.28509 0.30734
 O1781 O 0.29659 0.31845 0.25321
 O1782 O 0.29135 0.30921 0.20420
 O1783 O 0.18063 0.22250 0.24434
 O1784 O 0.18847 0.22342 0.29276
 O1785 O 0.24946 0.17754 0.21534
 O1786 O 0.29935 0.18444 0.22291
 O1787 O 0.22667 0.25009 0.17446
 O1788 O 0.23796 0.29802 0.18606
 Zr1789 Zr 0.22664 0.26685 0.21408
 O1790 O 0.25097 0.29096 0.23998
 Zr1791 Zr 0.26995 0.21526 0.21766
 O1792 O 0.29661 0.23786 0.24265
 Zr1793 Zr 0.21928 0.21989 0.26256
 O1794 O 0.24388 0.24182 0.29000
 Zr1795 Zr 0.29199 0.27964 0.23571
 O1796 O 0.26805 0.25685 0.20793
 Zr1797 Zr 0.24150 0.28340 0.28099
 O1798 O 0.21458 0.26167 0.25519
 Zr1799 Zr 0.28522 0.23229 0.28365
 O1800 O 0.26012 0.20739 0.25875
 O1801 O 0.22906 0.22537 0.22164
 O1802 O 0.28268 0.27395 0.27687
 C1803 C 0.17122 0.23693 0.22474
 C1804 C 0.24053 0.23073 0.16365
 C1805 C 0.22884 0.16756 0.22838
 C1806 C 0.33922 0.26592 0.27507
 C1807 C 0.28272 0.33110 0.27148
 C1808 C 0.27382 0.26948 0.33376
 H1809 H 0.24830 0.31033 0.23539
 H1810 H 0.23784 0.23772 0.30883
 H1811 H 0.21711 0.21472 0.20933
 H1812 H 0.31567 0.23230 0.23911
 H1813 H 0.31739 0.26919 0.19068
 H1814 H 0.31573 0.22324 0.19241
 H1815 H 0.20871 0.27039 0.32097
 H1816 H 0.18092 0.24192 0.29104
 H1817 H 0.30817 0.32050 0.20561
 H1818 H 0.22566 0.29740 0.17009
 H1819 H 0.26398 0.20284 0.32227
 H1820 H 0.23226 0.18051 0.29443
 H1821 H 0.18837 0.29962 0.19700
 H1822 H 0.20265 0.31334 0.26339
 H1823 H 0.29388 0.17403 0.23937
 H1824 H 0.32494 0.20027 0.26989
 O1825 O 0.73006 0.70716 0.32323
 O1826 O 0.68640 0.70714 0.30312
 O1827 O 0.77969 0.67864 0.25521
 O1828 O 0.78940 0.69266 0.21295
 O1829 O 0.80945 0.74719 0.30348
 O1830 O 0.79586 0.79222 0.30806
 O1831 O 0.72339 0.75877 0.18032
 O1832 O 0.72738 0.71294 0.18353
 O1833 O 0.67126 0.78171 0.24683
 O1834 O 0.67078 0.77213 0.29331
 O1835 O 0.74456 0.82514 0.23302
 O1836 O 0.79255 0.81679 0.24102
 O1837 O 0.75271 0.79313 0.19126
 O1838 O 0.79990 0.79129 0.21061
 O1839 O 0.70610 0.81972 0.25863
 O1840 O 0.69983 0.80225 0.30568
 O1841 O 0.67900 0.75492 0.20991
 O1842 O 0.68812 0.70680 0.21231
 O1843 O 0.76218 0.73869 0.33470
 O1844 O 0.76020 0.78719 0.33026
 O1845 O 0.81673 0.71983 0.26697
 O1846 O 0.81370 0.72755 0.21806
 O1847 O 0.74156 0.67296 0.28143
 O1848 O 0.69594 0.68175 0.26715
 Zr1849 Zr 0.72389 0.71166 0.28138
 O1850 O 0.70172 0.73848 0.25687
 Zr1851 Zr 0.78021 0.72019 0.24470
 O1852 O 0.75997 0.74658 0.21791
 Zr1853 Zr 0.76874 0.76022 0.29781
 O1854 O 0.74857 0.78882 0.27308
 Zr1855 Zr 0.71782 0.73811 0.21723
 O1856 O 0.73876 0.70928 0.24115
 Zr1857 Zr 0.70690 0.77860 0.27028
 O1858 O 0.72649 0.75144 0.29714
 Zr1859 Zr 0.76276 0.78656 0.23259
 O1860 O 0.78552 0.76045 0.25814
 O1861 O 0.76565 0.72020 0.28456
 O1862 O 0.72099 0.77848 0.23004
 C1863 C 0.74482 0.71979 0.34065
 C1864 C 0.76288 0.66385 0.26919
 C1865 C 0.82497 0.73246 0.28834
 C1866 C 0.73808 0.77962 0.17416
 C1867 C 0.66384 0.77074 0.22425
 C1868 C 0.72277 0.83427 0.24437
 H1869 H 0.68223 0.73291 0.25721
 H1870 H 0.75138 0.80715 0.28083
 H1871 H 0.77556 0.70760 0.29667
 H1872 H 0.76818 0.74465 0.19954
 H1873 H 0.73148 0.69475 0.19099
 H1874 H 0.77713 0.69709 0.19769
 H1875 H 0.71539 0.81504 0.30775
 H1876 H 0.74078 0.78425 0.33533
 H1877 H 0.67942 0.70903 0.19423
 H1878 H 0.70312 0.67459 0.24967
 H1879 H 0.78801 0.82485 0.25894
 H1880 H 0.80664 0.79630 0.29138
 H1881 H 0.68654 0.68986 0.31361
 H1882 H 0.67449 0.75672 0.30565
 H1883 H 0.82224 0.74489 0.22386
 H1884 H 0.80005 0.77770 0.19576
 O1885 O 0.67649 0.23845 0.78088
 O1886 O 0.69025 0.19163 0.77831
 O1887 O 0.74763 0.27736 0.81411
 O1888 O 0.79129 0.28386 0.80337
 O1889 O 0.70760 0.31134 0.74256
 O1890 O 0.70777 0.29901 0.69571
 O1891 O 0.82206 0.21291 0.73898
 O1892 O 0.81519 0.22012 0.78571
 O1893 O 0.75508 0.16974 0.70980
 O1894 O 0.70786 0.17282 0.71518
 O1895 O 0.77961 0.24067 0.66908
 O1896 O 0.77569 0.28877 0.67724
 O1897 O 0.81827 0.24399 0.70493
 O1898 O 0.80400 0.29320 0.70603
 O1899 O 0.74924 0.20558 0.67118
 O1900 O 0.70019 0.20346 0.68507
 O1901 O 0.78901 0.17446 0.74086
 O1902 O 0.78230 0.18337 0.78877
 O1903 O 0.67232 0.26924 0.74668
 O1904 O 0.68082 0.26601 0.69825
 O1905 O 0.74167 0.31511 0.77360
 O1906 O 0.79118 0.30819 0.76799
 O1907 O 0.71638 0.24295 0.81693
 O1908 O 0.72476 0.19575 0.80802
 Zr1909 Zr 0.71739 0.22552 0.77775
 O1910 O 0.74247 0.20099 0.75304
 Zr1911 Zr 0.76120 0.27733 0.77331
 O1912 O 0.78840 0.25464 0.74919
 Zr1913 Zr 0.71133 0.27106 0.72820
 O1914 O 0.73659 0.24852 0.70170
 Zr1915 Zr 0.78337 0.21314 0.75743
 O1916 O 0.75871 0.23610 0.78420
 Zr1917 Zr 0.73402 0.20702 0.71160
 O1918 O 0.70631 0.22927 0.73641
 Zr1919 Zr 0.77790 0.25871 0.70796
 O1920 O 0.75229 0.28393 0.73194
 O1921 O 0.72024 0.26691 0.76932
 O1922 O 0.77514 0.21727 0.71593
 C1923 C 0.66252 0.25527 0.76671
 C1924 C 0.73031 0.26255 0.82742
 C1925 C 0.72177 0.32494 0.75994
 C1926 C 0.83181 0.22640 0.71867
 C1927 C 0.77587 0.16080 0.72292
 C1928 C 0.76678 0.22052 0.65832
 H1929 H 0.73973 0.18173 0.75826
 H1930 H 0.73098 0.25205 0.68272
 H1931 H 0.70829 0.27796 0.78124
 H1932 H 0.80736 0.26065 0.75279
 H1933 H 0.80631 0.22455 0.80335
 H1934 H 0.80594 0.27059 0.79985
 H1935 H 0.70071 0.21917 0.67251
 H1936 H 0.67298 0.24758 0.70087
 H1937 H 0.79986 0.17344 0.78839
 H1938 H 0.74236 0.20041 0.81675
 H1939 H 0.75780 0.28665 0.66819
 H1940 H 0.72532 0.30913 0.69475
 H1941 H 0.67827 0.19276 0.79470
 H1942 H 0.69437 0.17729 0.72957
 H1943 H 0.78692 0.31764 0.75073
 H1944 H 0.81764 0.29158 0.72072
 N1945 N 0.01674 1.03258 1.13005
 N1946 N 0.02720 1.03147 1.15486
 C1947 C 0.04740 1.01296 1.15411
 C1948 C 0.04902 1.00283 1.12786
 N1949 N 0.02962 1.01562 1.11357
 H1950 H 0.06323 0.98815 1.11970
 N1951 N 0.53004 0.54062 0.62780
 N1952 N 0.54167 0.54012 0.65206
 C1953 C 0.56046 0.52021 0.65144
 C1954 C 0.56000 0.50849 0.62586
 N1955 N 0.54078 0.52184 0.61183
 H1956 H 0.57235 0.49205 0.61808
 N1957 N 0.48827 -0.02992 0.63263
 N1958 N 0.47742 -0.02859 0.65741
 C1959 C 0.45414 -0.01425 0.65525
 C1960 C 0.45108 -0.00680 0.62836
 N1961 N 0.47274 -0.01695 0.61500
 H1962 H 0.43506 0.00526 0.61941
 N1963 N -0.09688 0.50522 1.09687
 N1964 N -0.10717 0.50832 1.12157
 C1965 C -0.08771 0.50102 1.13937
 C1966 C -0.06488 0.49288 1.12452
 N1967 N -0.07158 0.49607 1.09801
 H1968 H -0.04505 0.48712 1.13213
 N1969 N -0.09496 0.51142 0.41438
 N1970 N -0.10825 0.51228 0.39107
 C1971 C -0.08944 0.51199 0.37077
 C1972 C -0.06379 0.51108 0.38269
 N1973 N -0.06833 0.51065 0.40988
 H1974 H -0.04398 0.51011 0.37282
 N1975 N 0.47714 1.04202 -0.12191
 N1976 N 0.46592 1.04296 -0.14638
 C1977 C 0.44543 1.02439 -0.14660
 C1978 C 0.44444 1.01205 -0.12133
 N1979 N 0.46451 1.02361 -0.10661
 H1980 H 0.43054 0.99633 -0.11420
 N1981 N 0.51207 0.46534 -0.13347
 N1982 N 0.52467 0.46563 -0.15747
 C1983 C 0.54820 0.47981 -0.15429
 C1984 C 0.54957 0.48825 -0.12751
 N1985 N 0.52669 0.47885 -0.11529
 H1986 H 0.56534 0.50038 -0.11789
 N1987 N 0.10380 0.00751 0.40831
 N1988 N 0.11669 0.00662 0.38456
 C1989 C 0.09828 -0.00147 0.36582
 C1990 C 0.07346 -0.00573 0.37906
 N1991 N 0.07791 0.00015 0.40551
 H1992 H 0.05407 -0.01183 0.37040
 N1993 N 0.13023 1.01395 1.03798
 N1994 N 0.15450 1.02601 1.03944
 C1995 C 0.15231 1.05015 1.02661
 C1996 C 0.12598 1.05240 1.01705
 N1997 N 0.11294 1.02944 1.02453
 H1998 H 0.11727 1.06879 1.00533
 N1999 N 0.63542 0.51320 0.53687
 N2000 N 0.66061 0.52330 0.53759
 C2001 C 0.65992 0.54786 0.52544
 C2002 C 0.63335 0.55244 0.51714
 N2003 N 0.61877 0.53037 0.52468
 H2004 H 0.62544 0.56986 0.50639
 N2005 N 0.61518 0.46813 -0.05248
 N2006 N 0.63869 0.45523 -0.05481
 C2007 C 0.63964 0.43719 -0.03413
 C2008 C 0.61583 0.43941 -0.01902
 N2009 N 0.60122 0.45892 -0.03116
 H2010 H 0.60965 0.42806 -0.00107
 N2011 N 0.13701 -0.01089 0.49473
 N2012 N 0.16095 -0.02308 0.49383
 C2013 C 0.15675 -0.04884 0.50233
 C2014 C 0.12931 -0.05206 0.50867
 N2015 N 0.11779 -0.02787 0.50353
 H2016 H 0.11862 -0.07036 0.51501
 N2017 N 0.37441 -0.01397 0.54162
 N2018 N 0.34993 -0.02557 0.54305
 C2019 C 0.35134 -0.04887 0.52865
 C2020 C 0.37750 -0.05112 0.51818
 N2021 N 0.39116 -0.02895 0.52673
 H2022 H 0.38572 -0.06698 0.50532
 N2023 N -0.14068 0.48751 0.99607
 N2024 N -0.16519 0.47660 0.99235
 C2025 C -0.16143 0.45007 0.98662
 C2026 C -0.13369 0.44507 0.98692
 N2027 N -0.12157 0.46892 0.99293
 H2028 H -0.12328 0.42608 0.98338
 N2029 N -0.07866 0.60365 0.51313
 N2030 N -0.10274 0.61527 0.51648
 C2031 C -0.12195 0.59645 0.51032
 C2032 C -0.10877 0.57280 0.50296
 N2033 N -0.08182 0.57819 0.50505
 H2034 H -0.11780 0.55341 0.49754
 N2035 N 0.37051 1.02874 -0.04110
 N2036 N 0.34672 1.04128 -0.04198
 C2037 C 0.34710 1.06057 -0.02241
 C2038 C 0.37207 1.05945 -0.00948
 N2039 N 0.38596 1.03934 -0.02174
 H2040 H 0.37933 1.07158 0.00743
 N2041 N 0.04550 1.12379 1.02246
 N2042 N 0.04672 1.14812 1.03386
 C2043 C 0.02685 1.14893 1.05304
 C2044 C 0.01333 1.12409 1.05303
 N2045 N 0.02563 1.10909 1.03367
 H2046 H -0.00355 1.11744 1.06582
 N2047 N 0.55352 0.62724 0.52936
 N2048 N 0.55298 0.65168 0.54065
 C2049 C 0.53044 0.65250 0.55667
 C2050 C 0.51728 0.62770 0.55501
 N2051 N 0.53233 0.61259 0.53785
 H2052 H 0.49869 0.62117 0.56526
 N2053 N 0.00942 0.59233 0.39910
 N2054 N 0.00853 0.61628 0.38700
 C2055 C 0.00542 0.63516 0.40671
 C2056 C 0.00442 0.62175 0.43160
 N2057 N 0.00700 0.59508 0.42582
 H2058 H 0.00204 0.63036 0.45177
 N2059 N 0.46560 1.12836 -0.01418
 N2060 N 0.46723 1.15261 -0.02579
 C2061 C 0.48200 1.14976 -0.04895
 C2062 C 0.48941 1.12278 -0.05114
 N2063 N 0.47878 1.11020 -0.02905
 H2064 H 0.50154 1.11329 -0.06696
 N2065 N 0.53309 0.37401 -0.03284
 N2066 N 0.53361 0.34986 -0.04456
 C2067 C 0.51314 0.34909 -0.06284
 C2068 C 0.49995 0.37394 -0.06196
 N2069 N 0.51314 0.38881 -0.04295
 H2070 H 0.48262 0.38054 -0.07375
 N2071 N 0.05264 -0.12084 0.46898
 N2072 N 0.04915 -0.14605 0.46018
 C2073 C 0.02869 -0.14569 0.44186
 C2074 C 0.02005 -0.11904 0.43941
 N2075 N 0.03556 -0.10426 0.45662
 H2076 H 0.00323 -0.11135 0.42756
 N2077 N 0.46816 -0.12707 0.51884
 N2078 N 0.47004 -0.15192 0.52894
 C2079 C 0.48768 -0.15061 0.54996
 C2080 C 0.49650 -0.12403 0.55248
 N2081 N 0.48383 -0.11009 0.53277
 H2082 H 0.51076 -0.11554 0.56701
 N2083 N -0.03860 0.36850 1.02056
 N2084 N -0.03241 0.34404 1.02966
 C2085 C -0.01924 0.34743 1.05353
 C2086 C -0.01791 0.37507 1.05892
 N2087 N -0.03014 0.38742 1.03777
 H2088 H -0.00747 0.38532 1.07541
 N2089 N 0.75544 0.35041 0.14875
 N2090 N 0.75407 0.36253 0.12473
 C2091 C 0.75392 0.34283 0.10551
 C2092 C 0.75565 0.31802 0.11882
 N2093 N 0.75646 0.32377 0.14562
 H2094 H 0.75523 0.29777 0.11025
 N2095 N 0.28713 0.76574 0.62566
 N2096 N 0.28509 0.77515 0.60045
 C2097 C 0.26919 0.79739 0.60168
 C2098 C 0.26160 0.80132 0.62858
 N2099 N 0.27324 0.78122 0.64282
 H2100 H 0.24858 0.81691 0.63701
 N2101 N 0.71744 0.73844 0.62995
 N2102 N 0.71876 0.72776 0.60519
 C2103 C 0.73335 0.70472 0.60724
 C2104 C 0.74099 0.70165 0.63412
 N2105 N 0.73065 0.72306 0.64754
 H2106 H 0.75319 0.68576 0.64304
 N2107 N 0.22600 0.24275 0.11774
 N2108 N 0.22695 0.23275 0.09265
 C2109 C 0.23918 0.20826 0.09407
 C2110 C 0.24580 0.20375 0.12117
 N2111 N 0.23720 0.22563 0.13510
 H2112 H 0.25593 0.18650 0.13013
 N2113 N 0.22085 0.15682 0.83930
 N2114 N 0.21801 0.14649 0.86405
 C2115 C 0.23236 0.16260 0.88110
 C2116 C 0.24439 0.18318 0.86581
 N2117 N 0.23661 0.17877 0.83987
 H2118 H 0.25660 0.20018 0.87286
 N2119 N 0.71414 0.71171 0.37803
 N2120 N 0.71354 0.69943 0.40195
 C2121 C 0.73950 0.69281 0.40777
 C2122 C 0.75626 0.70165 0.38661
 N2123 N 0.73946 0.71336 0.36852
 H2124 H 0.77776 0.69759 0.38346
 N2125 N 0.27762 0.84290 0.34432
 N2126 N 0.28015 0.85422 0.36859
 C2127 C 0.26496 0.83931 0.38620
 C2128 C 0.25275 0.81833 0.37170
 N2129 N 0.26128 0.82139 0.34568
 H2130 H 0.23972 0.80210 0.37930
 N2131 N 0.70874 0.25541 0.87190
 N2132 N 0.70955 0.26574 0.89685
 C2133 C 0.72843 0.28592 0.89650
 C2134 C 0.73906 0.28768 0.87038
 N2135 N 0.72624 0.26840 0.85574
 H2136 H 0.75415 0.30190 0.86252
 N2137 N 0.83743 0.34054 0.26374
 N2138 N 0.84875 0.36475 0.26693
 C2139 C 0.83157 0.38298 0.25603
 C2140 C 0.80908 0.36901 0.24591
 N2141 N 0.81364 0.34257 0.25129
 H2142 H 0.79115 0.37717 0.23615
 N2143 N 0.27252 0.88001 0.71490
 N2144 N 0.28307 0.90486 0.71546
 C2145 C 0.30466 0.90426 0.73244
 C2146 C 0.30704 0.87809 0.74227
 N2147 N 0.28661 0.86368 0.73085
 H2148 H 0.32159 0.87042 0.75683
 N2149 N 0.24657 0.88295 0.23787
 N2150 N 0.23578 0.90745 0.23635
 C2151 C 0.20830 0.90420 0.23620
 C2152 C 0.20270 0.87653 0.23730
 N2153 N 0.22708 0.86419 0.23842
 H2154 H 0.18309 0.86622 0.23822
 N2155 N 0.73090 0.36909 0.77976
 N2156 N 0.72135 0.39413 0.77955
 C2157 C 0.69900 0.39396 0.76362
 C2158 C 0.69510 0.36774 0.75400
 N2159 N 0.71551 0.35294 0.76458
 H2160 H 0.67943 0.36026 0.74038
 N2161 N 0.73096 0.62596 0.72075
 N2162 N 0.72115 0.60085 0.72083
 C2163 C 0.70091 0.59981 0.73964
 C2164 C 0.69858 0.62542 0.75113
 N2165 N 0.71769 0.64105 0.73869
 H2166 H 0.68440 0.63213 0.76671
 N2167 N 0.22982 0.12649 0.20076
 N2168 N 0.21759 0.10241 0.19954
 C2169 C 0.19965 0.10119 0.22056
 C2170 C 0.20125 0.12540 0.23469
 N2171 N 0.22027 0.14054 0.22169
 H2172 H 0.18970 0.13157 0.25251
 N2173 N 0.25713 0.11858 0.74991
 N2174 N 0.26969 0.09501 0.75184
 C2175 C 0.29586 0.09933 0.74413
 C2176 C 0.29899 0.12641 0.73722
 N2177 N 0.27431 0.13767 0.74125
 H2178 H 0.31760 0.13716 0.73165
 N2179 N 0.75010 0.61708 0.27997
 N2180 N 0.76036 0.59231 0.27808
 C2181 C 0.78581 0.59506 0.26762
 C2182 C 0.79079 0.62237 0.26310
 N2183 N 0.76808 0.63535 0.27111
 H2184 H 0.80896 0.63190 0.25460
 N2185 N 0.84718 0.27552 0.15260
 N2186 N 0.87177 0.27530 0.14141
 C2187 C 0.88884 0.26493 0.16010
 C2188 C 0.87389 0.25906 0.18350
 N2189 N 0.84796 0.26586 0.17773
 H2190 H 0.88064 0.24888 0.20179
 N2191 N 0.37880 0.79649 0.72707
 N2192 N 0.40294 0.79660 0.71471
 C2193 C 0.40325 0.77499 0.69777
 C2194 C 0.37845 0.76165 0.70004
 N2195 N 0.36385 0.77573 0.71846
 H2196 H 0.37150 0.74377 0.68918
 N2197 N 0.36607 0.19764 0.77672
 N2198 N 0.39102 0.19885 0.78690
 C2199 C 0.39028 0.21633 0.80806
 C2200 C 0.36373 0.22558 0.81075
 N2201 N 0.34935 0.21345 0.79073
 H2202 H 0.35619 0.24122 0.82429
 N2203 N 0.87136 0.72099 0.27632
 N2204 N 0.89673 0.72513 0.28451
 C2205 C 0.89553 0.73825 0.30867
 C2206 C 0.86792 0.74191 0.31503
 N2207 N 0.85367 0.73083 0.29421
 H2208 H 0.85907 0.75245 0.33227
 N2209 N 0.13173 0.80807 0.28520
 N2210 N 0.10634 0.80743 0.29469
 C2211 C 0.10463 0.78667 0.31260
 C2212 C 0.13020 0.77482 0.31406
 N2213 N 0.14643 0.78882 0.29669
 H2214 H 0.13607 0.75683 0.32519
 N2215 N 0.61807 0.27613 0.76093
 N2216 N 0.59343 0.27593 0.77225
 C2217 C 0.59394 0.25813 0.79319
 C2218 C 0.62000 0.24736 0.79428
 N2219 N 0.63434 0.25918 0.77383
 H2220 H 0.62793 0.23280 0.80867
 N2221 N 0.61828 0.71867 0.73979
 N2222 N 0.59395 0.72011 0.72823
 C2223 C 0.59643 0.73743 0.70698
 C2224 C 0.62315 0.74654 0.70587
 N2225 N 0.63602 0.73435 0.72659
 H2226 H 0.63248 0.76059 0.69153
 N2227 N 0.12634 0.21658 0.23163
 N2228 N 0.10138 0.21771 0.22153
 C2229 C 0.10200 0.23625 0.20125
 C2230 C 0.12840 0.24643 0.19920
 N2231 N 0.14286 0.23357 0.21846
 H2232 H 0.13647 0.26130 0.18495
 N2233 N -0.01299 0.96815 0.86991
 N2234 N -0.02248 0.97085 0.84484
 C2235 C -0.04483 0.98675 0.84637
 C2236 C -0.04872 0.99361 0.87352
 N2237 N -0.02848 0.98157 0.88742
 H2238 H -0.06435 1.00634 0.88239
 N2239 N 0.49255 0.48116 0.36920
 N2240 N 0.48168 0.48370 0.34466
 C2241 C 0.45719 0.49568 0.34815
 C2242 C 0.45339 0.50041 0.37562
 N2243 N 0.47586 0.49106 0.38798
 H2244 H 0.43617 0.50991 0.38565
 N2245 N 0.52669 0.04702 0.37733
 N2246 N 0.53822 0.04757 0.35284
 C2247 C 0.55650 0.02715 0.35190
 C2248 C 0.55578 0.01408 0.37692
 N2249 N 0.53694 0.02710 0.39205
 H2250 H 0.56741 -0.00328 0.38352
 N2251 N 0.06050 0.46355 0.88975
 N2252 N 0.06833 0.46271 0.86395
 C2253 C 0.06368 0.48746 0.85331
 C2254 C 0.05268 0.50372 0.87366
 N2255 N 0.05113 0.48790 0.89606
 H2256 H 0.04666 0.52478 0.87240
 N2257 N 0.10981 0.50498 0.58689
 N2258 N 0.12177 0.50621 0.61098
 C2259 C 0.10190 0.50399 0.63011
 C2260 C 0.07716 0.50125 0.61678
 N2261 N 0.08308 0.50197 0.58991
 H2262 H 0.05691 0.49921 0.62558
 N2263 N 0.51249 0.94895 0.12851
 N2264 N 0.52390 0.94723 0.15288
 C2265 C 0.53847 0.97032 0.15638
 C2266 C 0.53591 0.98615 0.13339
 N2267 N 0.51957 0.97209 0.11652
 H2268 H 0.54573 1.00546 0.12896
 N2269 N 0.48444 0.51546 0.12880
 N2270 N 0.47373 0.51346 0.15361
 C2271 C 0.44681 0.50842 0.15045
 C2272 C 0.44126 0.50732 0.12294
 N2273 N 0.46532 0.51179 0.11016
 H2274 H 0.42189 0.50306 0.11322
 N2275 N -0.07590 -0.03522 0.59650
 N2276 N -0.08488 -0.03917 0.62164
 C2277 C -0.07613 -0.01795 0.63668
 C2278 C -0.06117 -0.00064 0.61962
 N2279 N -0.06166 -0.01231 0.59476
 H2280 H -0.05062 0.01808 0.62471
 N2281 N -0.12642 0.98146 0.95857
 N2282 N -0.15161 0.97142 0.96005
 C2283 C -0.15151 0.95159 0.97909
 C2284 C -0.12528 0.94973 0.98911
 N2285 N -0.11035 0.96863 0.97582
 H2286 H -0.11775 0.93640 1.00486
 N2287 N 0.37497 0.49459 0.46500
 N2288 N 0.35023 0.48336 0.46413
 C2289 C 0.35166 0.45935 0.47734
 C2290 C 0.37813 0.45634 0.48644
 N2291 N 0.39196 0.47866 0.47833
 H2292 H 0.38658 0.43971 0.49800
 N2293 N 0.36726 0.52094 0.03826
 N2294 N 0.34301 0.53259 0.03879
 C2295 C 0.34376 0.55300 0.02039
 C2296 C 0.36950 0.55349 0.00854
 N2297 N 0.38344 0.53318 0.02029
 H2298 H 0.37737 0.56706 -0.00706
 N2299 N -0.12990 0.00953 0.48339
 N2300 N -0.15388 0.02153 0.48103
 C2301 C -0.14929 0.04844 0.48396
 C2302 C -0.12174 0.05264 0.48801
 N2303 N -0.11044 0.02787 0.48746
 H2304 H -0.11099 0.07169 0.49113
 N2305 N 0.63375 0.01418 0.47251
 N2306 N 0.65872 0.02447 0.47495
 C2307 C 0.65598 0.04927 0.48630
 C2308 C 0.62861 0.05395 0.49063
 N2309 N 0.61548 0.03162 0.48176
 H2310 H 0.61919 0.07150 0.49997
 N2311 N 0.12763 0.50467 0.98496
 N2312 N 0.15186 0.51668 0.98318
 C2313 C 0.14820 0.54324 0.98886
 C2314 C 0.12064 0.54705 0.99442
 N2315 N 0.10869 0.52247 0.99180
 H2316 H 0.11019 0.56560 0.99977
 N2317 N 0.09432 0.40188 0.48248
 N2318 N 0.11832 0.38988 0.48009
 C2319 C 0.13752 0.40825 0.48745
 C2320 C 0.12442 0.43207 0.49448
 N2321 N 0.09754 0.42718 0.49106
 H2322 H 0.13344 0.45111 0.50103
 N2323 N 0.61844 0.97712 0.04627
 N2324 N 0.64369 0.96778 0.04537
 C2325 C 0.64427 0.94812 0.02622
 C2326 C 0.61826 0.94562 0.01542
 N2327 N 0.60286 0.96410 0.02853
 H2328 H 0.61132 0.93227 -0.00068
 N2329 N -0.02470 0.86915 0.98837
 N2330 N -0.02056 0.84409 0.97958
 C2331 C -0.01003 0.84603 0.95412
 C2332 C -0.00798 0.87338 0.94758
 N2333 N -0.01732 0.88702 0.96949
 H2334 H 0.00052 0.88259 0.92933
 N2335 N 0.46452 0.37789 0.48272
 N2336 N 0.46581 0.35280 0.47317
 C2337 C 0.48419 0.35308 0.45252
 C2338 C 0.49403 0.37931 0.44960
 N2339 N 0.48123 0.39406 0.46878
 H2340 H 0.50931 0.38694 0.43543
 N2341 N 0.00036 0.41152 0.59697
 N2342 N -0.00154 0.38742 0.60872
 C2343 C 0.00085 0.36850 0.58892
 C2344 C 0.00438 0.38213 0.56429
 N2345 N 0.00394 0.40888 0.57037
 H2346 H 0.00688 0.37366 0.54408
 N2347 N 0.50433 0.86599 0.01379
 N2348 N 0.50116 0.84150 0.02465
 C2349 C 0.49639 0.84518 0.05151
 C2350 C 0.49677 0.87268 0.05684
 N2351 N 0.50179 0.88491 0.03279
 H2352 H 0.49348 0.88279 0.07618
 N2353 N 0.47443 0.62890 0.01266
 N2354 N 0.47823 0.65329 0.02345
 C2355 C 0.48925 0.64952 0.04830
 C2356 C 0.49201 0.62193 0.05245
 N2357 N 0.48252 0.60984 0.02975
 H2358 H 0.50048 0.61166 0.06995
 N2359 N -0.04491 0.12295 0.52517
 N2360 N -0.04254 0.14822 0.53410
 C2361 C -0.02265 0.14853 0.55302
 C2362 C -0.01314 0.12213 0.55567
 N2363 N -0.02764 0.10689 0.53795
 H2364 H 0.00350 0.11495 0.56809
 N2365 N 0.54753 0.12705 0.47918
 N2366 N 0.54715 0.15181 0.46867
 C2367 C 0.52536 0.15286 0.45197
 C2368 C 0.51248 0.12782 0.45241
 N2369 N 0.52697 0.11237 0.46957
 H2370 H 0.49454 0.12135 0.44127
 N2371 N 0.00922 0.62035 0.98247
 N2372 N 0.00316 0.64441 0.97238
 C2373 C 0.00648 0.64279 0.94515
 C2374 C 0.01484 0.61657 0.93882
 N2375 N 0.01625 0.60330 0.96282
 H2376 H 0.01795 0.60763 0.91888
 N2377 N 0.22098 0.74065 0.88688
 N2378 N 0.22112 0.72942 0.91144
 C2379 C 0.23500 0.70591 0.90926
 C2380 C 0.24341 0.70317 0.88245
 N2381 N 0.23424 0.72519 0.86924
 H2382 H 0.25503 0.68687 0.87336
 N2383 N 0.73747 0.14708 0.32440
 N2384 N 0.73785 0.13609 0.34902
 C2385 C 0.73914 0.15667 0.36719
 C2386 C 0.73939 0.18082 0.35278
 N2387 N 0.73825 0.17387 0.32621
 H2388 H 0.74044 0.20132 0.36072
 N2389 N 0.29240 0.25988 0.37888
 N2390 N 0.29290 0.27089 0.40357
 C2391 C 0.27935 0.29460 0.40198
 C2392 C 0.27045 0.29768 0.37551
 N2393 N 0.27900 0.27569 0.36181
 H2394 H 0.25857 0.31405 0.36703
 N2395 N 0.77456 0.76619 0.89157
 N2396 N 0.77163 0.77705 0.91613
 C2397 C 0.75949 0.80132 0.91266
 C2398 C 0.75514 0.80502 0.88519
 N2399 N 0.76482 0.78272 0.87278
 H2400 H 0.74529 0.82190 0.87522
 N2401 N 0.73772 0.76930 0.12594
 N2402 N 0.74206 0.78139 0.10219
 C2403 C 0.74675 0.80785 0.10759
 C2404 C 0.74508 0.81174 0.13542
 N2405 N 0.73942 0.78713 0.14607
 H2406 H 0.74779 0.83042 0.14675
 N2407 N 0.26748 0.34828 0.65793
 N2408 N 0.27043 0.36005 0.63388
 C2409 C 0.25932 0.34321 0.61524
 C2410 C 0.24912 0.32052 0.62890
 N2411 N 0.25476 0.32460 0.65548
 H2412 H 0.23967 0.30250 0.62038
 N2413 N 0.79051 0.22828 0.61515
 N2414 N 0.79057 0.21925 0.58970
 C2415 C 0.77150 0.19934 0.58821
 C2416 C 0.75980 0.19641 0.61394
 N2417 N 0.77226 0.21481 0.63007
 H2418 H 0.74382 0.18245 0.62037
 N2419 N 0.22382 0.65393 0.16375
 N2420 N 0.22084 0.64259 0.13955
 C2421 C 0.23428 0.65852 0.12145
 C2422 C 0.24592 0.68007 0.13550
 N2423 N 0.23877 0.67637 0.16181
 H2424 H 0.25728 0.69724 0.12738
 N2425 N 0.23912 0.62488 0.79134
 N2426 N 0.22859 0.60004 0.79004
 C2427 C 0.20548 0.60174 0.77527
 C2428 C 0.20215 0.62840 0.76756
 N2429 N 0.22351 0.64210 0.77796
 H2430 H 0.18630 0.63693 0.75496
 N2431 N 0.66846 0.14606 0.19287
 N2432 N 0.65782 0.12126 0.19197
 C2433 C 0.66693 0.10777 0.21408
 C2434 C 0.68385 0.12525 0.22849
 N2435 N 0.68412 0.14878 0.21457
 H2436 H 0.69477 0.12153 0.24722
 N2437 N 0.77422 0.11693 0.69956
 N2438 N 0.78653 0.09307 0.70068
 C2439 C 0.80572 0.09483 0.72032
 C2440 C 0.80479 0.12066 0.73112
 N2441 N 0.78496 0.13373 0.71768
 H2442 H 0.81693 0.12912 0.74746
 N2443 N 0.25473 0.61597 0.25114
 N2444 N 0.26669 0.59200 0.24975
 C2445 C 0.29312 0.59585 0.25655
 C2446 C 0.29693 0.62315 0.26232
 N2447 N 0.27248 0.63492 0.25864
 H2448 H 0.31577 0.63363 0.26736
 N2449 N 0.27884 0.37313 0.29726
 N2450 N 0.28946 0.39795 0.29756
 C2451 C 0.30867 0.39905 0.27768
 C2452 C 0.30954 0.37385 0.26523
 N2453 N 0.29064 0.35837 0.27804
 H2454 H 0.32213 0.36747 0.24821
 N2455 N 0.77722 0.87552 0.80824
 N2456 N 0.78955 0.89962 0.80828
 C2457 C 0.80272 0.90205 0.78411
 C2458 C 0.79828 0.87865 0.76935
 N2459 N 0.78234 0.86266 0.78509
 H2460 H 0.80639 0.87346 0.74945
 N2461 N 0.73358 0.88002 0.22864
 N2462 N 0.72324 0.90477 0.22944
 C2463 C 0.69923 0.90305 0.24311
 C2464 C 0.69520 0.87619 0.25063
 N2465 N 0.71705 0.86258 0.24118
 H2466 H 0.67818 0.86732 0.26178
 N2467 N 0.23967 0.38245 0.77464
 N2468 N 0.22798 0.40651 0.77716
 C2469 C 0.20225 0.40370 0.76777
 C2470 C 0.19842 0.37723 0.75952
 N2471 N 0.22219 0.36471 0.76417
 H2472 H 0.18034 0.36805 0.75069
 N2473 N 0.12495 0.71730 0.77322
 N2474 N 0.09987 0.71790 0.78342
 C2475 C 0.10044 0.73483 0.80505
 C2476 C 0.12687 0.74462 0.80780
 N2477 N 0.14142 0.73315 0.78755
 H2478 H 0.13479 0.75872 0.82278
 N2479 N 0.62119 0.21690 0.27182
 N2480 N 0.59742 0.21781 0.28459
 C2481 C 0.60047 0.23480 0.30592
 C2482 C 0.62733 0.24415 0.30602
 N2483 N 0.63939 0.23245 0.28429
 H2484 H 0.63677 0.25881 0.31951
 N2485 N 0.61972 0.79280 0.22767
 N2486 N 0.59494 0.79099 0.21710
 C2487 C 0.59587 0.77195 0.19733
 C2488 C 0.62237 0.76226 0.19600
 N2489 N 0.63652 0.77581 0.21526
 H2490 H 0.63032 0.74620 0.18323
 N2491 N 0.12229 0.29103 0.72388
 N2492 N 0.09756 0.28669 0.71406
 C2493 C 0.10056 0.27357 0.69008
 C2494 C 0.12839 0.27042 0.68532
 N2495 N 0.14113 0.28148 0.70703
 H2496 H 0.13828 0.25935 0.66901
 N2497 N 0.87503 0.20270 0.72241
 N2498 N 0.89978 0.20299 0.71131
 C2499 C 0.90006 0.22271 0.69218
 C2500 C 0.87449 0.23448 0.69189
 N2501 N 0.85959 0.22141 0.71101
 H2502 H 0.86733 0.25088 0.67918
 N2503 N 0.36786 0.69345 0.22322
 N2504 N 0.39276 0.69476 0.21252
 C2505 C 0.39213 0.71311 0.19207
 C2506 C 0.36566 0.72274 0.19040
 N2507 N 0.35125 0.70996 0.21016
 H2508 H 0.35805 0.73880 0.17752
 N2509 N 0.38155 0.29216 0.27506
 N2510 N 0.40536 0.29274 0.28772
 C2511 C 0.40545 0.27149 0.30512
 C2512 C 0.38079 0.25785 0.30276
 N2513 N 0.36653 0.27143 0.28385
 H2514 H 0.37364 0.24027 0.31408
 N2515 N 0.87357 0.79489 0.78407
 N2516 N 0.89842 0.79424 0.79450
 C2517 C 0.89836 0.77445 0.81356
 C2518 C 0.87243 0.76304 0.81456
 N2519 N 0.85770 0.77638 0.79585
 H2520 H 0.86510 0.74632 0.82702
   
