data_POSCAR
  _audit_creation_date              2014-09-24
  _audit_creation_method            'ToBaCCo'
  _symmetry_space_group_name_H-M    'P1'
  _symmetry_Int_Tables_number       1
  _symmetry_cell_setting            triclinic
  loop_
  _symmetry_equiv_pos_as_xyz
 x,y,z
_cell_length_a 47.5681
_cell_length_b 47.5517
_cell_length_c 47.5668
_cell_angle_alpha 90.046300
_cell_angle_beta 90.044700
_cell_angle_gamma 90.023400
loop_
  _atom_site_label
  _atom_site_type_symbol
  _atom_site_fract_x
  _atom_site_fract_y
  _atom_site_fract_z
O1 O 0.27654 1.02552 0.02479
 O2 O 0.27517 0.96859 -0.02743
 O3 O 0.27598 1.02368 -0.02958
 O4 O 0.27435 0.97062 0.02692
 O5 O 0.22797 0.97200 0.02658
 O6 O 0.22959 1.02480 -0.02985
 O7 O 0.22888 0.97022 -0.02837
 O8 O 0.23015 1.02656 0.02501
 Cu9 Cu 0.28015 0.99697 -0.00134
 Cu10 Cu 0.22450 0.99849 -0.00169
 C11 C 0.25364 1.03578 0.03384
 C12 C 0.25187 0.95957 -0.03691
 C13 C 0.25303 1.03341 -0.03924
 C14 C 0.25081 0.96225 0.03638
 O15 O 0.77128 0.52840 0.52954
 O16 O 0.77198 0.47500 0.47338
 O17 O 0.77020 0.52994 0.47479
 O18 O 0.77306 0.47343 0.52775
 O19 O 0.72668 0.47218 0.52891
 O20 O 0.72384 0.52813 0.47539
 O21 O 0.72559 0.47373 0.47411
 O22 O 0.72493 0.52664 0.53048
 Cu23 Cu 0.77628 0.50193 0.50130
 Cu24 Cu 0.72061 0.50009 0.50233
 C25 C 0.74797 0.53647 0.53974
 C26 C 0.74887 0.46526 0.46418
 C27 C 0.74653 0.53848 0.46583
 C28 C 0.75036 0.46311 0.53732
 O29 O 0.72280 0.97426 1.02994
 O30 O 0.72410 1.02923 0.97550
 O31 O 0.72321 0.97472 0.97479
 O32 O 0.72415 1.02859 1.03039
 O33 O 0.77048 1.02800 1.03034
 O34 O 0.76959 0.97349 0.97525
 O35 O 0.77050 1.02847 0.97593
 O36 O 0.76911 0.97297 1.02990
 Cu37 Cu 0.71893 1.00173 1.00261
 Cu38 Cu 0.77456 1.00058 1.00287
 C39 C 0.74570 0.96424 1.03940
 C40 C 0.74753 1.03836 0.96654
 C41 C 0.74624 0.96495 0.96547
 C42 C 0.74745 1.03764 1.03988
 O43 O 0.23260 0.47155 0.52720
 O44 O 0.23205 0.52468 0.47098
 O45 O 0.23261 0.47021 0.47229
 O46 O 0.23240 0.52625 0.52590
 O47 O 0.27880 0.52675 0.52554
 O48 O 0.27902 0.47031 0.47256
 O49 O 0.27846 0.52513 0.47113
 O50 O 0.27901 0.47173 0.52687
 Cu51 Cu 0.22774 0.49815 0.49915
 Cu52 Cu 0.28348 0.49853 0.49906
 C53 C 0.25592 0.46239 0.53645
 C54 C 0.25520 0.53401 0.46150
 C55 C 0.25588 0.46065 0.46334
 C56 C 0.25559 0.53620 0.53473
 O57 O 1.02786 0.23366 0.02655
 O58 O 0.97331 0.23373 -0.02860
 O59 O 1.02811 0.23342 -0.02805
 O60 O 0.97303 0.23276 0.02624
 O61 O 0.97483 0.27909 0.02852
 O62 O 1.02589 0.27976 -0.02963
 O63 O 0.97118 0.27995 -0.02603
 O64 O 1.02938 0.28002 0.02477
 Cu65 Cu 1.00055 0.22872 -0.00100
 Cu66 Cu 1.00025 0.28436 -0.00058
 C67 C 1.03836 0.25689 0.03461
 C68 C 0.96251 0.25691 -0.03644
 C69 C 1.03619 0.25669 -0.03834
 C70 C 0.96488 0.25579 0.03702
 O71 O 0.52691 0.72649 0.52934
 O72 O 0.47118 0.72547 0.47522
 O73 O 0.52612 0.72476 0.47484
 O74 O 0.47250 0.72526 0.53031
 O75 O 0.47253 0.77168 0.53028
 O76 O 0.52487 0.77110 0.47282
 O77 O 0.47013 0.77188 0.47583
 O78 O 0.52751 0.77287 0.52740
 Cu79 Cu 0.49911 0.72084 0.50241
 Cu80 Cu 0.49873 0.77653 0.50152
 C81 C 0.53694 0.74996 0.53732
 C82 C 0.46094 0.74861 0.46655
 C83 C 0.53475 0.74773 0.46437
 C84 C 0.46355 0.74845 0.54003
 O85 O 0.02642 0.72874 -0.02696
 O86 O -0.02808 0.72729 0.02772
 O87 O -0.02835 0.72896 -0.02693
 O88 O 0.02681 0.72876 0.02777
 O89 O 0.02805 0.77512 0.02621
 O90 O -0.03084 0.77513 -0.02377
 O91 O -0.02670 0.77359 0.03059
 O92 O 0.02367 0.77497 -0.02848
 Cu93 Cu -0.00072 0.72379 0.00037
 Cu94 Cu -0.00143 0.77935 0.00126
 C95 C 0.03404 0.75203 -0.03758
 C96 C -0.03656 0.75010 0.03870
 C97 C -0.03948 0.75214 -0.03432
 C98 C 0.03725 0.75201 0.03588
 O99 O 0.52946 0.22452 0.47336
 O100 O 0.47306 0.22303 0.52572
 O101 O 0.47471 0.22449 0.47113
 O102 O 0.52779 0.22534 0.52800
 O103 O 0.52844 0.27172 0.52619
 O104 O 0.47219 0.27079 0.47348
 O105 O 0.47370 0.26939 0.52807
 O106 O 0.52697 0.27083 0.47157
 Cu107 Cu 0.50136 0.21969 0.49953
 Cu108 Cu 0.50023 0.27534 0.49986
 C109 C 0.53769 0.24779 0.46325
 C110 C 0.46390 0.24583 0.53609
 C111 C 0.46400 0.24762 0.46305
 C112 C 0.53755 0.24881 0.53637
 O113 O 1.03079 0.02650 0.26743
 O114 O 0.97445 -0.02625 0.27233
 O115 O 1.02941 -0.02795 0.26890
 O116 O 0.97618 0.02845 0.26948
 O117 O 0.97250 0.02501 0.22335
 O118 O 1.02742 -0.02905 0.22255
 O119 O 0.97321 -0.02959 0.22613
 O120 O 1.02722 0.02589 0.22116
 Cu121 Cu 1.00292 0.00033 0.27419
 Cu122 Cu 0.99988 -0.00206 0.21865
 C123 C 1.03843 0.03545 0.24349
 C124 C 0.96432 -0.03724 0.25015
 C125 C 1.03761 -0.03799 0.24553
 C126 C 0.96505 0.03613 0.24643
 O127 O 0.52523 0.52700 0.76930
 O128 O 0.47125 0.47167 0.76844
 O129 O 0.52600 0.47222 0.76808
 O130 O 0.47043 0.52642 0.76839
 O131 O 0.46898 0.52480 0.72204
 O132 O 0.52788 0.47475 0.72179
 O133 O 0.47338 0.47024 0.72210
 O134 O 0.52353 0.52927 0.72298
 Cu135 Cu 0.49821 0.49929 0.77322
 Cu136 Cu 0.49846 0.49983 0.71757
 C137 C 0.53330 0.53790 0.74632
 C138 C 0.46342 0.46117 0.74516
 C139 C 0.53672 0.46456 0.74482
 C140 C 0.45989 0.53450 0.74519
 O141 O 0.96903 1.02645 0.72830
 O142 O 1.02463 0.97313 0.72682
 O143 O 0.97015 0.97204 0.72972
 O144 O 1.02403 1.02795 0.72782
 O145 O 1.02451 1.02878 0.77422
 O146 O 0.97263 0.97182 0.77606
 O147 O 1.02731 0.97410 0.77312
 O148 O 0.97021 1.02696 0.77462
 Cu149 Cu 0.99686 0.99992 0.72353
 Cu150 Cu 0.99877 1.00039 0.77915
 C151 C 0.95993 1.03588 0.75156
 C152 C 1.03549 0.96443 0.74957
 C153 C 0.96243 0.96222 0.75334
 C154 C 1.03323 1.03807 0.75082
 O155 O 0.47303 0.52528 0.22430
 O156 O 0.52864 0.47202 0.22371
 O157 O 0.47433 0.47070 0.22697
 O158 O 0.52773 0.52702 0.22316
 O159 O 0.53060 0.52732 0.26948
 O160 O 0.47534 0.47344 0.27328
 O161 O 0.53033 0.47285 0.27008
 O162 O 0.47591 0.52827 0.27052
 Cu163 Cu 0.50079 0.49864 0.21989
 Cu164 Cu 0.50319 0.50057 0.27550
 C165 C 0.46503 0.53603 0.24736
 C166 C 0.53884 0.46310 0.24668
 C167 C 0.46554 0.46267 0.25089
 C168 C 0.53843 0.53660 0.24574
 O169 O 0.25199 0.17745 0.20655
 O170 O 0.28232 0.16779 0.24563
 O171 O 0.17875 0.21100 0.24472
 O172 O 0.16826 0.24600 0.27446
 O173 O 0.21538 0.25287 0.17385
 O174 O 0.25495 0.28277 0.16779
 O175 O 0.25248 0.28525 0.32196
 O176 O 0.21858 0.24915 0.32765
 O177 O 0.32383 0.24775 0.28851
 O178 O 0.33426 0.21863 0.24860
 O179 O 0.29110 0.32139 0.25345
 O180 O 0.25239 0.33157 0.22002
 O181 O 0.25184 0.32024 0.28945
 O182 O 0.22132 0.33035 0.24852
 O183 O 0.32485 0.28763 0.25151
 O184 O 0.33310 0.24734 0.21788
 O185 O 0.28918 0.24794 0.32138
 O186 O 0.24982 0.21483 0.32763
 O187 O 0.25475 0.21233 0.17391
 O188 O 0.28599 0.25188 0.16817
 O189 O 0.18057 0.25094 0.20657
 O190 O 0.17326 0.28290 0.24651
 O191 O 0.21216 0.17677 0.24553
 O192 O 0.25097 0.16744 0.27665
 Zr193 Zr 0.25056 0.19887 0.24525
 O194 O 0.27658 0.22182 0.27275
 Zr195 Zr 0.20177 0.24871 0.24535
 O196 O 0.22529 0.27363 0.27353
 Zr197 Zr 0.25268 0.24981 0.19750
 O198 O 0.27826 0.27526 0.22323
 Zr199 Zr 0.25169 0.24813 0.29802
 O200 O 0.22525 0.22278 0.27260
 Zr201 Zr 0.30226 0.24951 0.24988
 O202 O 0.27884 0.22383 0.22200
 Zr203 Zr 0.25301 0.29917 0.25053
 O204 O 0.22729 0.27640 0.22215
 O205 O 0.22558 0.22327 0.21908
 O206 O 0.27872 0.27510 0.27656
 C207 C 0.25404 0.18625 0.18108
 C208 C 0.18643 0.18509 0.24504
 C209 C 0.18934 0.25282 0.18109
 C210 C 0.25231 0.31133 0.31494
 C211 C 0.31517 0.24765 0.31410
 C212 C 0.31689 0.31341 0.25314
 H213 H 0.28790 0.20859 0.28405
 H214 H 0.29023 0.28726 0.21123
 H215 H 0.21379 0.21175 0.20635
 H216 H 0.21248 0.28477 0.28552
 H217 H 0.20398 0.23599 0.32075
 H218 H 0.17370 0.25698 0.29127
 H219 H 0.33091 0.26409 0.20574
 H220 H 0.30024 0.23803 0.17434
 H221 H 0.26541 0.20166 0.32374
 H222 H 0.23772 0.17369 0.29143
 H223 H 0.26813 0.32825 0.20686
 H224 H 0.24294 0.29811 0.17510
 H225 H 0.29745 0.17464 0.23309
 H226 H 0.32799 0.20261 0.26026
 H227 H 0.17938 0.29644 0.23194
 H228 H 0.20718 0.32600 0.26312
 O229 O 0.74877 0.82580 0.21476
 O230 O 0.71934 0.83364 0.25453
 O231 O 0.82297 0.79065 0.25308
 O232 O 0.83261 0.75404 0.28138
 O233 O 0.78823 0.75171 0.17926
 O234 O 0.74833 0.72280 0.17057
 O235 O 0.74946 0.71225 0.32449
 O236 O 0.78156 0.74883 0.33277
 O237 O 0.67712 0.75130 0.29133
 O238 O 0.66869 0.78409 0.25177
 O239 O 0.71014 0.68001 0.25187
 O240 O 0.75055 0.67165 0.21988
 O241 O 0.74705 0.67917 0.29006
 O242 O 0.77985 0.67067 0.25037
 O243 O 0.67665 0.71408 0.25147
 O244 O 0.66820 0.75508 0.22158
 O245 O 0.71102 0.74879 0.32495
 O246 O 0.74982 0.78225 0.33393
 O247 O 0.75019 0.79269 0.18019
 O248 O 0.71778 0.75449 0.17178
 O249 O 0.82234 0.75246 0.21278
 O250 O 0.82871 0.71876 0.25098
 O251 O 0.78935 0.82469 0.25479
 O252 O 0.75024 0.83250 0.28530
 Zr253 Zr 0.75105 0.80258 0.25242
 O254 O 0.72461 0.77822 0.27818
 Zr255 Zr 0.80006 0.75285 0.25104
 O256 O 0.77584 0.72639 0.27716
 Zr257 Zr 0.75041 0.75420 0.20200
 O258 O 0.72407 0.72765 0.22563
 Zr259 Zr 0.74902 0.75056 0.30249
 O260 O 0.77584 0.77727 0.27903
 Zr261 Zr 0.69946 0.75195 0.25312
 O262 O 0.72353 0.77883 0.22710
 Zr263 Zr 0.74845 0.70216 0.25226
 O264 O 0.77505 0.72631 0.22588
 O265 O 0.77686 0.77969 0.22562
 O266 O 0.72229 0.72489 0.27899
 C267 C 0.74881 0.81829 0.18878
 C268 C 0.81511 0.81647 0.25472
 C269 C 0.81411 0.75144 0.18705
 C270 C 0.74793 0.68663 0.31603
 C271 C 0.68520 0.74969 0.31707
 C272 C 0.68442 0.68821 0.25121
 H273 H 0.71304 0.79081 0.28996
 H274 H 0.71243 0.71639 0.21259
 H275 H 0.78893 0.79187 0.21384
 H276 H 0.78836 0.71457 0.28878
 H277 H 0.79617 0.76236 0.32669
 H278 H 0.82688 0.74183 0.29719
 H279 H 0.67274 0.74121 0.20675
 H280 H 0.70370 0.76835 0.17836
 H281 H 0.73388 0.79519 0.33071
 H282 H 0.76252 0.82506 0.30037
 H283 H 0.73518 0.67558 0.20642
 H284 H 0.76044 0.70717 0.17705
 H285 H 0.70392 0.82717 0.24212
 H286 H 0.67253 0.79732 0.26737
 H287 H 0.82224 0.70542 0.23635
 H288 H 0.79341 0.67423 0.26574
 O289 O 0.74631 0.17907 0.79318
 O290 O 0.71594 0.17039 0.75384
 O291 O 0.82126 0.20949 0.75390
 O292 O 0.83267 0.24429 0.72408
 O293 O 0.78694 0.25403 0.82512
 O294 O 0.74773 0.28443 0.83153
 O295 O 0.75176 0.28646 0.67740
 O296 O 0.78265 0.24826 0.67171
 O297 O 0.67754 0.25127 0.71126
 O298 O 0.66747 0.22135 0.75273
 O299 O 0.71252 0.32382 0.74685
 O300 O 0.75254 0.33249 0.77973
 O301 O 0.75030 0.32141 0.70998
 O302 O 0.78242 0.33095 0.74982
 O303 O 0.67778 0.29105 0.74845
 O304 O 0.66731 0.25251 0.78081
 O305 O 0.71201 0.25118 0.67818
 O306 O 0.74961 0.21611 0.67160
 O307 O 0.74784 0.21408 0.82581
 O308 O 0.71630 0.25352 0.83155
 O309 O 0.82140 0.24967 0.79227
 O310 O 0.82960 0.28117 0.75253
 O311 O 0.78641 0.17666 0.75333
 O312 O 0.74714 0.16839 0.72326
 Zr313 Zr 0.74895 0.20017 0.75431
 O314 O 0.72383 0.22395 0.72673
 Zr315 Zr 0.79972 0.24815 0.75370
 O316 O 0.77686 0.27398 0.72582
 Zr317 Zr 0.74935 0.25128 0.80194
 O318 O 0.72429 0.27735 0.77641
 Zr319 Zr 0.74957 0.24938 0.70137
 O320 O 0.77500 0.22305 0.72673
 Zr321 Zr 0.69926 0.25240 0.74985
 O322 O 0.72195 0.22621 0.77780
 Zr323 Zr 0.75000 0.30044 0.74891
 O324 O 0.77536 0.27688 0.77698
 O325 O 0.77522 0.22365 0.78017
 O326 O 0.72345 0.27717 0.72297
 C327 C 0.74643 0.18801 0.81872
 C328 C 0.81244 0.18392 0.75330
 C329 C 0.81289 0.25264 0.81773
 C330 C 0.75126 0.31254 0.68448
 C331 C 0.68607 0.25130 0.68562
 C332 C 0.68650 0.31659 0.74714
 H333 H 0.71201 0.21110 0.71546
 H334 H 0.71283 0.28974 0.78852
 H335 H 0.78682 0.21176 0.79270
 H336 H 0.78999 0.28472 0.71382
 H337 H 0.79660 0.23451 0.67877
 H338 H 0.82760 0.25580 0.70753
 H339 H 0.67232 0.26686 0.79502
 H340 H 0.70187 0.23982 0.82541
 H341 H 0.73329 0.20380 0.67536
 H342 H 0.75959 0.17458 0.70779
 H343 H 0.73639 0.33024 0.79263
 H344 H 0.76031 0.29937 0.82434
 H345 H 0.70108 0.17783 0.76637
 H346 H 0.67122 0.20697 0.73818
 H347 H 0.82350 0.29541 0.76643
 H348 H 0.79632 0.32589 0.73522
 O349 O 0.24650 0.81909 0.79212
 O350 O 0.27941 0.82808 0.75520
 O351 O 0.17494 0.78878 0.74565
 O352 O 0.16390 0.75291 0.71818
 O353 O 0.20433 0.74523 0.82104
 O354 O 0.24187 0.71322 0.82937
 O355 O 0.25145 0.71272 0.67550
 O356 O 0.21880 0.74992 0.66785
 O357 O 0.32077 0.74597 0.71455
 O358 O 0.32901 0.77593 0.75579
 O359 O 0.28312 0.67444 0.74600
 O360 O 0.24218 0.66491 0.77607
 O361 O 0.24641 0.67750 0.70739
 O362 O 0.21252 0.66838 0.74621
 O363 O 0.31778 0.70694 0.75112
 O364 O 0.32552 0.74615 0.78534
 O365 O 0.28891 0.75035 0.67919
 O366 O 0.25092 0.78321 0.67039
 O367 O 0.24565 0.78376 0.82440
 O368 O 0.27422 0.74272 0.83190
 O369 O 0.17210 0.74960 0.78592
 O370 O 0.16703 0.71665 0.74532
 O371 O 0.20904 0.82181 0.75159
 O372 O 0.24971 0.82998 0.72221
 Zr373 Zr 0.24653 0.79823 0.75314
 O374 O 0.27365 0.77471 0.72726
 Zr375 Zr 0.19616 0.75019 0.74869
 O376 O 0.22077 0.72486 0.72188
 Zr377 Zr 0.24332 0.74669 0.80018
 O378 O 0.26975 0.72065 0.77603
 Zr379 Zr 0.24979 0.74968 0.69976
 O380 O 0.22247 0.77558 0.72358
 Zr381 Zr 0.29653 0.74576 0.75154
 O382 O 0.27211 0.77194 0.77803
 Zr383 Zr 0.24574 0.69803 0.74656
 O384 O 0.21885 0.72133 0.77336
 O385 O 0.21884 0.77449 0.77703
 O386 O 0.27410 0.72143 0.72278
 C387 C 0.24661 0.80990 0.81752
 C388 C 0.18329 0.81440 0.74792
 C389 C 0.17893 0.74710 0.81198
 C390 C 0.24940 0.68660 0.68215
 C391 C 0.31420 0.74823 0.68843
 C392 C 0.30909 0.68151 0.74830
 H393 H 0.28623 0.78769 0.71704
 H394 H 0.28039 0.70807 0.78868
 H395 H 0.20670 0.78650 0.78892
 H396 H 0.20846 0.71435 0.70882
 H397 H 0.20413 0.76341 0.67389
 H398 H 0.17100 0.74388 0.70086
 H399 H 0.32133 0.72983 0.79752
 H400 H 0.28964 0.75576 0.82686
 H401 H 0.26512 0.79699 0.67678
 H402 H 0.23646 0.82480 0.70700
 H403 H 0.25630 0.66813 0.79100
 H404 H 0.22965 0.69860 0.82096
 H405 H 0.29379 0.82014 0.76799
 H406 H 0.32552 0.79104 0.74196
 H407 H 0.17079 0.70367 0.76115
 H408 H 0.19988 0.67317 0.73041
 O409 O 0.25153 0.32036 0.70883
 O410 O 0.22174 0.33025 0.74811
 O411 O 0.32402 0.28415 0.74865
 O412 O 0.33267 0.24801 0.77774
 O413 O 0.28830 0.24457 0.67569
 O414 O 0.24783 0.21603 0.66783
 O415 O 0.24884 0.21022 0.82183
 O416 O 0.28130 0.24662 0.82923
 O417 O 0.17721 0.25155 0.78721
 O418 O 0.16953 0.28186 0.74634
 O419 O 0.20813 0.17693 0.74955
 O420 O 0.24838 0.16630 0.71874
 O421 O 0.24563 0.17608 0.78850
 O422 O 0.27759 0.16559 0.74893
 O423 O 0.17578 0.21205 0.75083
 O424 O 0.16869 0.25157 0.71734
 O425 O 0.21060 0.24815 0.82124
 O426 O 0.25014 0.28020 0.82967
 O427 O 0.25124 0.28610 0.67537
 O428 O 0.21789 0.24845 0.66809
 O429 O 0.32232 0.24528 0.70931
 O430 O 0.32760 0.21211 0.74850
 O431 O 0.29153 0.31927 0.74870
 O432 O 0.25273 0.32918 0.77914
 Zr433 Zr 0.25259 0.29827 0.74719
 O434 O 0.22540 0.27555 0.77358
 Zr435 Zr 0.30002 0.24706 0.74750
 O436 O 0.27499 0.22221 0.77431
 Zr437 Zr 0.25052 0.24832 0.69829
 O438 O 0.22342 0.22328 0.72264
 Zr439 Zr 0.24881 0.24791 0.79886
 O440 O 0.27650 0.27307 0.77467
 Zr441 Zr 0.19962 0.24920 0.74929
 O442 O 0.22442 0.27458 0.72253
 Zr443 Zr 0.24706 0.19795 0.75004
 O444 O 0.27438 0.22050 0.72302
 O445 O 0.27766 0.27372 0.72122
 O446 O 0.22150 0.22222 0.77609
 C447 C 0.25124 0.31201 0.68310
 C448 C 0.31701 0.31025 0.74905
 C449 C 0.31414 0.24407 0.68357
 C450 C 0.24727 0.18435 0.81418
 C451 C 0.18493 0.25040 0.81305
 C452 C 0.18269 0.18596 0.75031
 H453 H 0.21418 0.28891 0.78483
 H454 H 0.21142 0.21194 0.71001
 H455 H 0.29009 0.28521 0.70913
 H456 H 0.28726 0.21044 0.78625
 H457 H 0.29624 0.25953 0.82264
 H458 H 0.32638 0.23682 0.79409
 H459 H 0.17176 0.23573 0.70421
 H460 H 0.20389 0.26243 0.67455
 H461 H 0.23541 0.29417 0.82523
 H462 H 0.26489 0.32188 0.79437
 H463 H 0.23378 0.17072 0.70460
 H464 H 0.25992 0.20050 0.67460
 H465 H 0.20655 0.32420 0.73522
 H466 H 0.17439 0.29628 0.76053
 H467 H 0.32119 0.19887 0.73375
 H468 H 0.29158 0.16952 0.76381
 O469 O 0.74628 0.67573 0.71720
 O470 O 0.77558 0.66792 0.75761
 O471 O 0.67353 0.71426 0.75181
 O472 O 0.66378 0.75168 0.77869
 O473 O 0.71245 0.74954 0.67863
 O474 O 0.75315 0.77785 0.67116
 O475 O 0.74805 0.79157 0.82463
 O476 O 0.71334 0.75675 0.83234
 O477 O 0.81899 0.74831 0.79515
 O478 O 0.82863 0.71661 0.75664
 O479 O 0.78943 0.82119 0.75293
 O480 O 0.75119 0.83038 0.71968
 O481 O 0.74961 0.82401 0.78959
 O482 O 0.71992 0.83204 0.74756
 O483 O 0.82176 0.78628 0.75725
 O484 O 0.82970 0.74459 0.72523
 O485 O 0.78414 0.75341 0.82742
 O486 O 0.74374 0.72192 0.83552
 O487 O 0.75064 0.70808 0.68223
 O488 O 0.78307 0.74598 0.67417
 O489 O 0.67716 0.75115 0.71086
 O490 O 0.67042 0.78623 0.74829
 O491 O 0.70575 0.67910 0.75537
 O492 O 0.74352 0.67070 0.78779
 Zr493 Zr 0.74485 0.69986 0.75430
 O494 O 0.77117 0.72384 0.78061
 Zr495 Zr 0.69777 0.75113 0.75003
 O496 O 0.72174 0.77724 0.77669
 Zr497 Zr 0.74933 0.74714 0.70305
 O498 O 0.77540 0.77344 0.72732
 Zr499 Zr 0.74691 0.75280 0.80349
 O500 O 0.72001 0.72652 0.77948
 Zr501 Zr 0.79805 0.74892 0.75623
 O502 O 0.77423 0.72215 0.72978
 Zr503 Zr 0.75059 0.80013 0.75230
 O504 O 0.72447 0.77623 0.72526
 O505 O 0.72108 0.72310 0.72603
 O506 O 0.77508 0.77725 0.78054
 C507 C 0.74900 0.68262 0.69120
 C508 C 0.68034 0.68819 0.75389
 C509 C 0.68633 0.75086 0.68544
 C510 C 0.74882 0.81704 0.81567
 C511 C 0.81013 0.75092 0.82051
 C512 C 0.81481 0.81231 0.75530
 H513 H 0.78186 0.71104 0.79298
 H514 H 0.78797 0.78414 0.71471
 H515 H 0.70912 0.71106 0.71396
 H516 H 0.70910 0.78963 0.78759
 H517 H 0.69852 0.74348 0.82614
 H518 H 0.66942 0.76354 0.79483
 H519 H 0.82841 0.76089 0.71238
 H520 H 0.79717 0.73286 0.68206
 H521 H 0.75893 0.70801 0.83280
 H522 H 0.73060 0.67866 0.80202
 H523 H 0.76605 0.82490 0.70622
 H524 H 0.74086 0.79370 0.67671
 H525 H 0.79097 0.67314 0.74463
 H526 H 0.82215 0.70201 0.76994
 H527 H 0.67711 0.79842 0.73282
 H528 H 0.70551 0.82927 0.76228
 O529 O 0.24941 0.67536 0.28793
 O530 O 0.21965 0.66760 0.24764
 O531 O 0.32367 0.71007 0.25082
 O532 O 0.33443 0.74688 0.22334
 O533 O 0.28678 0.74937 0.32389
 O534 O 0.24663 0.77900 0.33084
 O535 O 0.25246 0.78838 0.17742
 O536 O 0.28518 0.75162 0.17049
 O537 O 0.17936 0.74834 0.20817
 O538 O 0.16972 0.71664 0.24830
 O539 O 0.21109 0.82082 0.24920
 O540 O 0.25106 0.82906 0.28205
 O541 O 0.24895 0.82152 0.21171
 O542 O 0.28048 0.83050 0.25186
 O543 O 0.17782 0.78672 0.24543
 O544 O 0.16795 0.74700 0.27743
 O545 O 0.21421 0.75162 0.17568
 O546 O 0.25318 0.71843 0.16796
 O547 O 0.24880 0.70900 0.32200
 O548 O 0.21622 0.74701 0.32919
 O549 O 0.32190 0.74815 0.29149
 O550 O 0.32956 0.78203 0.25350
 O551 O 0.28990 0.67621 0.24871
 O552 O 0.25162 0.66786 0.21765
 Zr553 Zr 0.25171 0.69832 0.25004
 O554 O 0.22631 0.72245 0.22307
 Zr555 Zr 0.30086 0.74798 0.25249
 O556 O 0.27750 0.77436 0.22555
 Zr557 Zr 0.24966 0.74716 0.29994
 O558 O 0.22401 0.77342 0.27529
 Zr559 Zr 0.25149 0.75005 0.19943
 O560 O 0.27737 0.72338 0.22398
 Zr561 Zr 0.20043 0.74886 0.24707
 O562 O 0.22351 0.72228 0.27426
 Zr563 Zr 0.24940 0.79869 0.24952
 O564 O 0.27523 0.77474 0.27676
 O565 O 0.27678 0.72146 0.27733
 O566 O 0.22415 0.77580 0.22196
 C567 C 0.24873 0.68324 0.31382
 C568 C 0.31569 0.68427 0.24912
 C569 C 0.31289 0.74921 0.31695
 C570 C 0.25057 0.81401 0.18581
 C571 C 0.18818 0.75019 0.18272
 C572 C 0.18547 0.81257 0.24692
 H573 H 0.21515 0.70972 0.21101
 H574 H 0.21191 0.78480 0.28776
 H575 H 0.28858 0.70933 0.28944
 H576 H 0.29037 0.78614 0.21428
 H577 H 0.29939 0.73789 0.17705
 H578 H 0.32915 0.75895 0.20725
 H579 H 0.17157 0.76180 0.29159
 H580 H 0.20186 0.73393 0.32168
 H581 H 0.23746 0.70518 0.17102
 H582 H 0.26385 0.67533 0.20257
 H583 H 0.23518 0.82541 0.29495
 H584 H 0.25980 0.79408 0.32517
 H585 H 0.20463 0.67367 0.26069
 H586 H 0.17428 0.70291 0.23336
 H587 H 0.32271 0.79535 0.26796
 H588 H 0.29494 0.82633 0.23753
 O589 O 0.75262 0.32429 0.28905
 O590 O 0.78407 0.33160 0.25037
 O591 O 0.68042 0.28932 0.24799
 O592 O 0.66920 0.25172 0.22324
 O593 O 0.71408 0.25091 0.32452
 O594 O 0.75306 0.22152 0.33375
 O595 O 0.75544 0.21027 0.17976
 O596 O 0.72250 0.24654 0.17077
 O597 O 0.82615 0.24980 0.21395
 O598 O 0.83554 0.28008 0.25297
 O599 O 0.79111 0.17777 0.25079
 O600 O 0.75198 0.16939 0.28369
 O601 O 0.75217 0.17732 0.21421
 O602 O 0.72094 0.17016 0.25531
 O603 O 0.82531 0.21112 0.25204
 O604 O 0.83298 0.25256 0.28466
 O605 O 0.79294 0.24776 0.17963
 O606 O 0.75417 0.28033 0.17006
 O607 O 0.75345 0.29137 0.32373
 O608 O 0.78451 0.25203 0.33248
 O609 O 0.68025 0.25205 0.29070
 O610 O 0.67427 0.21724 0.25201
 O611 O 0.71396 0.32337 0.24983
 O612 O 0.75330 0.33033 0.21841
 Zr613 Zr 0.75201 0.30082 0.25161
 O614 O 0.77871 0.27618 0.22640
 Zr615 Zr 0.70273 0.25151 0.25247
 O616 O 0.72685 0.22500 0.22644
 Zr617 Zr 0.75204 0.25267 0.30210
 O618 O 0.77802 0.22550 0.27874
 Zr619 Zr 0.75453 0.24875 0.20155
 O620 O 0.72745 0.27562 0.22464
 Zr621 Zr 0.80321 0.24952 0.25167
 O622 O 0.77925 0.27702 0.27719
 Zr623 Zr 0.75335 0.20048 0.25187
 O624 O 0.72710 0.22499 0.27813
 O625 O 0.72585 0.27816 0.27817
 O626 O 0.78034 0.22273 0.22549
 C627 C 0.75335 0.31698 0.31504
 C628 C 0.68827 0.31517 0.24795
 C629 C 0.68827 0.25098 0.31652
 C630 C 0.75368 0.18471 0.18829
 C631 C 0.81860 0.24887 0.18804
 C632 C 0.81699 0.18542 0.25114
 H633 H 0.79058 0.28877 0.21493
 H634 H 0.78945 0.21398 0.29170
 H635 H 0.71370 0.29048 0.28974
 H636 H 0.71420 0.21343 0.21466
 H637 H 0.70782 0.26018 0.17643
 H638 H 0.67604 0.24233 0.20600
 H639 H 0.83040 0.23616 0.29719
 H640 H 0.79898 0.26552 0.32605
 H641 H 0.76908 0.29414 0.17445
 H642 H 0.73995 0.32355 0.20394
 H643 H 0.76718 0.17345 0.29729
 H644 H 0.74172 0.20557 0.32663
 H645 H 0.79864 0.32555 0.26395
 H646 H 0.82987 0.29568 0.24047
 H647 H 0.67888 0.20524 0.26838
 H648 H 0.70739 0.17357 0.23990
 C649 C 0.25571 0.10196 0.09451
 C650 C 0.27894 0.09771 0.07685
 C651 C 0.27832 0.07596 0.05716
 C652 C 0.25447 0.05875 0.05473
 C653 C 0.23163 0.06379 0.07268
 N654 N 0.23293 0.08479 0.09208
 C655 C 0.25579 0.12411 0.11625
 N656 N 0.24311 0.11899 0.14136
 C657 C 0.24258 0.13837 0.16238
 C658 C 0.25489 0.16493 0.15850
 C659 C 0.26764 0.17083 0.13258
 C660 C 0.26834 0.15041 0.11149
 H661 H 0.29639 0.07273 0.04370
 H662 H 0.21296 0.05081 0.07161
 H663 H 0.23221 0.13313 0.18193
 H664 H 0.27727 0.19110 0.12873
 H665 H 0.29759 0.11063 0.07863
 H666 H 0.27813 0.15531 0.09156
 C667 C 0.74753 0.59654 0.60647
 C668 C 0.72415 0.57896 0.60252
 C669 C 0.72418 0.55953 0.58055
 C670 C 0.74758 0.55731 0.56276
 C671 C 0.77055 0.57526 0.56743
 N672 N 0.76985 0.59436 0.58870
 C673 C 0.74808 0.61792 0.62895
 N674 N 0.76085 0.64305 0.62401
 C675 C 0.76158 0.66388 0.64359
 C676 C 0.74929 0.65982 0.67010
 C677 C 0.73661 0.63381 0.67585
 C678 C 0.73581 0.61289 0.65529
 H679 H 0.70603 0.54609 0.57762
 H680 H 0.78890 0.57434 0.55401
 H681 H 0.77180 0.68355 0.63843
 H682 H 0.72687 0.62983 0.69604
 H683 H 0.70581 0.58058 0.61589
 H684 H 0.72596 0.59293 0.66007
 C685 C 0.74477 0.90340 0.10347
 C686 C 0.71962 0.91657 0.09564
 C687 C 0.71979 0.93638 0.07402
 C688 C 0.74512 0.94366 0.06058
 C689 C 0.76986 0.92989 0.06923
 N690 N 0.76900 0.91019 0.08991
 C691 C 0.74537 0.88196 0.12580
 N692 N 0.76087 0.85821 0.12201
 C693 C 0.76209 0.83757 0.14173
 C694 C 0.74766 0.84057 0.16728
 C695 C 0.73203 0.86515 0.17186
 C696 C 0.73056 0.88575 0.15102
 H697 H 0.70012 0.94628 0.06819
 H698 H 0.78987 0.93451 0.05944
 H699 H 0.77461 0.81901 0.13761
 H700 H 0.72063 0.86818 0.19133
 H701 H 0.69997 0.91124 0.10582
 H702 H 0.71838 0.90462 0.15472
 C703 C 0.25577 0.39762 0.59835
 C704 C 0.27939 0.40113 0.58106
 C705 C 0.27963 0.42263 0.56117
 C706 C 0.25625 0.44033 0.55821
 C707 C 0.23311 0.43624 0.57603
 N708 N 0.23353 0.41540 0.59558
 C709 C 0.25470 0.37517 0.61963
 N710 N 0.24248 0.38042 0.64496
 C711 C 0.24110 0.36063 0.66553
 C712 C 0.25198 0.33359 0.66087
 C713 C 0.26414 0.32760 0.63469
 C714 C 0.26573 0.34837 0.61411
 H715 H 0.29789 0.42512 0.54781
 H716 H 0.21479 0.44966 0.57454
 H717 H 0.23135 0.36596 0.68539
 H718 H 0.27283 0.30701 0.63031
 H719 H 0.29760 0.38763 0.58313
 H720 H 0.27512 0.34342 0.59398
 C721 C 0.74824 0.10365 0.90502
 C722 C 0.77171 0.09990 0.92251
 C723 C 0.77164 0.07834 0.94238
 C724 C 0.74809 0.06081 0.94514
 C725 C 0.72506 0.06523 0.92721
 N726 N 0.72580 0.08608 0.90767
 C727 C 0.74762 0.12591 0.88346
 N728 N 0.73531 0.12060 0.85816
 C729 C 0.73450 0.14010 0.83726
 C730 C 0.74614 0.16690 0.84148
 C731 C 0.75835 0.17300 0.86765
 C732 C 0.75931 0.15252 0.88860
 H733 H 0.78984 0.07558 0.95580
 H734 H 0.70661 0.05196 0.92852
 H735 H 0.72469 0.13467 0.81744
 H736 H 0.76764 0.19340 0.87173
 H737 H 0.79010 0.11318 0.92055
 H738 H 0.76881 0.15755 0.90867
 C739 C 0.25405 0.59748 0.39831
 C740 C 0.27790 0.59438 0.41539
 C741 C 0.27844 0.57333 0.43573
 C742 C 0.25514 0.55564 0.43933
 C743 C 0.23179 0.55923 0.42162
 N744 N 0.23189 0.57969 0.40166
 C745 C 0.25257 0.61984 0.37698
 N746 N 0.24060 0.61441 0.35153
 C747 C 0.23903 0.63426 0.33099
 C748 C 0.24940 0.66147 0.33585
 C749 C 0.26127 0.66756 0.36217
 C750 C 0.26305 0.64680 0.38268
 H751 H 0.29688 0.57118 0.44894
 H752 H 0.21355 0.54577 0.42357
 H753 H 0.22956 0.62883 0.31101
 H754 H 0.26962 0.68827 0.36674
 H755 H 0.29603 0.60793 0.41288
 H756 H 0.27222 0.65186 0.40290
 C757 C 0.25065 0.89406 0.90376
 C758 C 0.27601 0.90127 0.91689
 C759 C 0.27651 0.92325 0.93630
 C760 C 0.25163 0.93769 0.94323
 C761 C 0.22660 0.92951 0.92967
 N762 N 0.22683 0.90847 0.91029
 C763 C 0.24957 0.87177 0.88229
 N764 N 0.23478 0.87624 0.85822
 C765 C 0.23361 0.85679 0.83729
 C766 C 0.24742 0.83089 0.84029
 C767 C 0.26220 0.82557 0.86522
 C768 C 0.26361 0.84611 0.88616
 H769 H 0.29637 0.92866 0.94608
 H770 H 0.20692 0.94005 0.93408
 H771 H 0.22171 0.86147 0.81845
 H772 H 0.27309 0.80580 0.86824
 H773 H 0.29534 0.89042 0.91173
 H774 H 0.27526 0.84192 0.90527
 C775 C 0.74967 0.40346 0.39916
 C776 C 0.72587 0.42052 0.40270
 C777 C 0.72552 0.44056 0.42410
 C778 C 0.74897 0.44393 0.44166
 C779 C 0.77237 0.42647 0.43742
 N780 N 0.77204 0.40672 0.41672
 C781 C 0.75068 0.38176 0.37705
 N782 N 0.76311 0.35658 0.38260
 C783 C 0.76428 0.33559 0.36319
 C784 C 0.75293 0.33963 0.33625
 C785 C 0.74056 0.36566 0.32996
 C786 C 0.73921 0.38667 0.35034
 H787 H 0.70704 0.45360 0.42675
 H788 H 0.79074 0.42825 0.45075
 H789 H 0.77420 0.31588 0.36875
 H790 H 0.73150 0.36959 0.30943
 H791 H 0.70755 0.41806 0.38940
 H792 H 0.72962 0.40665 0.34515
 C793 C 0.10475 0.25711 0.09501
 C794 C 0.10136 0.28027 0.07708
 C795 C 0.07953 0.28028 0.05749
 C796 C 0.06135 0.25713 0.05546
 C797 C 0.06552 0.23434 0.07372
 N798 N 0.08665 0.23502 0.09297
 C799 C 0.12701 0.25651 0.11660
 N800 N 0.12160 0.24406 0.14177
 C801 C 0.14106 0.24290 0.16266
 C802 C 0.16798 0.25429 0.15860
 C803 C 0.17418 0.26677 0.13262
 C804 C 0.15369 0.26812 0.11165
 H805 H 0.07699 0.29829 0.04380
 H806 H 0.05179 0.21620 0.07296
 H807 H 0.13557 0.23276 0.18227
 H808 H 0.19475 0.27570 0.12864
 H809 H 0.11504 0.29842 0.07855
 H810 H 0.15883 0.27767 0.09165
 C811 C 0.60295 0.75181 0.59809
 C812 C 0.59981 0.77439 0.57938
 C813 C 0.57811 0.77386 0.55965
 C814 C 0.55987 0.75072 0.55821
 C815 C 0.56384 0.72849 0.57718
 N816 N 0.58480 0.72972 0.59660
 C817 C 0.62494 0.75193 0.61996
 N818 N 0.61904 0.74084 0.64565
 C819 C 0.63821 0.74051 0.66685
 C820 C 0.66533 0.75135 0.66258
 C821 C 0.67204 0.76238 0.63609
 C822 C 0.65184 0.76293 0.61480
 H823 H 0.57572 0.79144 0.54538
 H824 H 0.55005 0.71038 0.57688
 H825 H 0.63235 0.73147 0.68688
 H826 H 0.69277 0.77085 0.63196
 H827 H 0.61355 0.79252 0.58040
 H828 H 0.65733 0.77143 0.59442
 C829 C 0.09339 0.75181 0.89691
 C830 C 0.07991 0.77703 0.90413
 C831 C 0.06046 0.77728 0.92610
 C832 C 0.05390 0.75231 0.94055
 C833 C 0.06789 0.72749 0.93242
 N834 N 0.08719 0.72796 0.91138
 C835 C 0.11473 0.75072 0.87446
 N836 N 0.13815 0.73472 0.87823
 C837 C 0.15879 0.73308 0.85853
 C838 C 0.15617 0.74767 0.83304
 C839 C 0.13188 0.76376 0.82844
 C840 C 0.11124 0.76557 0.84922
 H841 H 0.05038 0.79697 0.93153
 H842 H 0.06383 0.70774 0.94296
 H843 H 0.17715 0.72032 0.86274
 H844 H 0.12917 0.77543 0.80908
 H845 H 0.08479 0.79644 0.89328
 H846 H 0.09264 0.77814 0.84547
 C847 C 0.60282 0.24795 0.40163
 C848 C 0.59974 0.22476 0.41957
 C849 C 0.57832 0.22469 0.43950
 C850 C 0.56015 0.24780 0.44187
 C851 C 0.56387 0.27058 0.42350
 N852 N 0.58469 0.27000 0.40391
 C853 C 0.62516 0.24864 0.38019
 N854 N 0.61977 0.26016 0.35455
 C855 C 0.63945 0.26095 0.33383
 C856 C 0.66650 0.25014 0.33860
 C857 C 0.67260 0.23867 0.36507
 C858 C 0.65197 0.23772 0.38582
 H859 H 0.57614 0.20667 0.45323
 H860 H 0.55010 0.28867 0.42452
 H861 H 0.63404 0.27029 0.31379
 H862 H 0.69322 0.23017 0.36964
 H863 H 0.61347 0.20668 0.41791
 H864 H 0.65707 0.22891 0.40617
 C865 C 0.89933 0.74830 0.10150
 C866 C 0.90261 0.72529 0.08333
 C867 C 0.92383 0.72573 0.06314
 C868 C 0.94157 0.74918 0.06073
 C869 C 0.93772 0.77172 0.07942
 N870 N 0.91711 0.77063 0.09923
 C871 C 0.87708 0.74865 0.12312
 N872 N 0.88243 0.76053 0.14863
 C873 C 0.86281 0.76139 0.16941
 C874 C 0.83580 0.75034 0.16485
 C875 C 0.82973 0.73845 0.13854
 C876 C 0.85034 0.73738 0.11772
 H877 H 0.92611 0.70789 0.04915
 H878 H 0.95113 0.79008 0.07840
 H879 H 0.86821 0.77105 0.18931
 H880 H 0.80914 0.72977 0.13414
 H881 H 0.88915 0.70699 0.08494
 H882 H 0.84525 0.72829 0.09747
 C883 C 0.39898 0.24279 0.59785
 C884 C 0.40262 0.22007 0.57940
 C885 C 0.42397 0.22104 0.55939
 C886 C 0.44146 0.24473 0.55745
 C887 C 0.43713 0.26703 0.57629
 N888 N 0.41643 0.26542 0.59595
 C889 C 0.37688 0.24241 0.61955
 N890 N 0.38220 0.25403 0.64517
 C891 C 0.36271 0.25430 0.66606
 C892 C 0.33586 0.24290 0.66147
 C893 C 0.32982 0.23119 0.63508
 C894 C 0.35033 0.23071 0.61415
 H895 H 0.42665 0.20336 0.54527
 H896 H 0.45035 0.28555 0.57561
 H897 H 0.36803 0.26389 0.68601
 H898 H 0.30931 0.22231 0.63067
 H899 H 0.38945 0.20155 0.58073
 H900 H 0.34527 0.22181 0.59381
 C901 C 0.89780 0.25708 0.90334
 C902 C 0.90492 0.28216 0.91709
 C903 C 0.92660 0.28220 0.93683
 C904 C 0.94090 0.25714 0.94342
 C905 C 0.93290 0.23243 0.92917
 N906 N 0.91209 0.23310 0.90956
 C907 C 0.87555 0.25635 0.88179
 N908 N 0.87949 0.24079 0.85810
 C909 C 0.85991 0.23953 0.83731
 C910 C 0.83437 0.25404 0.84006
 C911 C 0.82964 0.26974 0.86456
 C912 C 0.85031 0.27119 0.88535
 H913 H 0.93191 0.30184 0.94710
 H914 H 0.94336 0.21264 0.93327
 H915 H 0.86414 0.22690 0.81884
 H916 H 0.81016 0.28117 0.86745
 H917 H 0.89420 0.30165 0.91221
 H918 H 0.84644 0.28340 0.90418
 C919 C 0.39558 0.74949 0.40503
 C920 C 0.39869 0.77236 0.42341
 C921 C 0.42005 0.77200 0.44346
 C922 C 0.43807 0.74875 0.44556
 C923 C 0.43414 0.72618 0.42694
 N924 N 0.41347 0.72723 0.40717
 C925 C 0.37382 0.74955 0.38291
 N926 N 0.37980 0.73826 0.35730
 C927 C 0.36083 0.73819 0.33589
 C928 C 0.33388 0.74958 0.33984
 C929 C 0.32714 0.76083 0.36625
 C930 C 0.34709 0.76104 0.38775
 H931 H 0.42241 0.78987 0.45741
 H932 H 0.44779 0.70799 0.42775
 H933 H 0.36671 0.72893 0.31595
 H934 H 0.30654 0.76969 0.37020
 H935 H 0.38518 0.79062 0.42188
 H936 H 0.34152 0.76972 0.40805
 C937 C 0.10114 0.09962 0.24043
 C938 C 0.08268 0.09629 0.21761
 C939 C 0.06248 0.07497 0.21830
 C940 C 0.06042 0.05730 0.24180
 C941 C 0.07946 0.06119 0.26403
 N942 N 0.09920 0.08182 0.26272
 C943 C 0.12274 0.12191 0.24084
 N944 N 0.14800 0.11667 0.25325
 C945 C 0.16866 0.13640 0.25471
 C946 C 0.16417 0.16345 0.24383
 C947 C 0.13812 0.16941 0.23133
 C948 C 0.11744 0.14866 0.22960
 H949 H 0.04821 0.07260 0.20070
 H950 H 0.07875 0.04779 0.28241
 H951 H 0.18841 0.13103 0.26467
 H952 H 0.13385 0.19001 0.22260
 H953 H 0.08403 0.10977 0.19934
 H954 H 0.09737 0.15368 0.22011
 C955 C 0.59385 0.60411 0.74850
 C956 C 0.57639 0.60115 0.72487
 C957 C 0.55675 0.57937 0.72402
 C958 C 0.55422 0.56082 0.74678
 C959 C 0.57207 0.56452 0.77001
 N960 N 0.59136 0.58561 0.77017
 C961 C 0.61537 0.62638 0.75006
 N962 N 0.64034 0.62080 0.76291
 C963 C 0.66126 0.64022 0.76464
 C964 C 0.65743 0.66723 0.75338
 C965 C 0.63159 0.67360 0.74064
 C966 C 0.61059 0.65321 0.73880
 H967 H 0.54341 0.57717 0.70568
 H968 H 0.57094 0.55048 0.78787
 H969 H 0.68081 0.63455 0.77481
 H970 H 0.62780 0.69417 0.73163
 H971 H 0.57826 0.61514 0.70703
 H972 H 0.59077 0.65849 0.72893
 C973 C 0.89606 0.09699 0.75167
 C974 C 0.90339 0.08365 0.72647
 C975 C 0.92474 0.06360 0.72641
 C976 C 0.93849 0.05622 0.75157
 C977 C 0.93022 0.07000 0.77644
 N978 N 0.90977 0.09001 0.77580
 C979 C 0.87407 0.11880 0.75219
 N980 N 0.87860 0.14313 0.76660
 C981 C 0.85935 0.16429 0.76706
 C982 C 0.83361 0.16127 0.75290
 C983 C 0.82831 0.13611 0.73845
 C984 C 0.84861 0.11496 0.73778
 H985 H 0.93023 0.05371 0.70663
 H986 H 0.94027 0.06528 0.79631
 H987 H 0.86401 0.18328 0.77873
 H988 H 0.80868 0.13301 0.72732
 H989 H 0.89307 0.08909 0.70691
 H990 H 0.84437 0.09569 0.72640
 C991 C 0.40064 0.59852 0.24631
 C992 C 0.40374 0.58033 0.22329
 C993 C 0.42486 0.56006 0.22365
 C994 C 0.44274 0.55763 0.24698
 C995 C 0.43902 0.57627 0.26958
 N996 N 0.41848 0.59616 0.26859
 C997 C 0.37853 0.62026 0.24664
 N998 N 0.38393 0.64574 0.25856
 C999 C 0.36440 0.66663 0.25927
 C1000 C 0.33747 0.66218 0.24797
 C1001 C 0.33140 0.63591 0.23599
 C1002 C 0.35188 0.61499 0.23514
 H1003 H 0.42706 0.54616 0.20574
 H1004 H 0.45258 0.57524 0.28783
 H1005 H 0.36977 0.68650 0.26902
 H1006 H 0.31087 0.63158 0.22713
 H1007 H 0.39027 0.58203 0.20501
 H1008 H 0.34673 0.59477 0.22602
 C1009 C 0.09861 0.90060 0.74632
 C1010 C 0.08118 0.90515 0.72298
 C1011 C 0.06083 0.92618 0.72402
 C1012 C 0.05755 0.94256 0.74834
 C1013 C 0.07556 0.93752 0.77119
 N1014 N 0.09552 0.91706 0.76957
 C1015 C 0.12020 0.87829 0.74607
 N1016 N 0.14520 0.88265 0.75933
 C1017 C 0.16584 0.86283 0.75976
 C1018 C 0.16161 0.83663 0.74676
 C1019 C 0.13582 0.83163 0.73332
 C1020 C 0.11519 0.85241 0.73278
 H1021 H 0.04744 0.92940 0.70587
 H1022 H 0.07389 0.94989 0.79023
 H1023 H 0.18530 0.86737 0.77068
 H1024 H 0.13164 0.81167 0.72315
 H1025 H 0.08345 0.89282 0.70397
 H1026 H 0.09531 0.84803 0.72256
 C1027 C 0.60191 0.39936 0.24471
 C1028 C 0.58393 0.40281 0.22158
 C1029 C 0.56348 0.42375 0.22221
 C1030 C 0.56064 0.44104 0.24595
 C1031 C 0.57906 0.43696 0.26864
 N1032 N 0.59914 0.41664 0.26738
 C1033 C 0.62388 0.37751 0.24478
 N1034 N 0.64913 0.38301 0.25711
 C1035 C 0.67018 0.36367 0.25787
 C1036 C 0.66612 0.33681 0.24627
 C1037 C 0.64011 0.33063 0.23381
 C1038 C 0.61904 0.35096 0.23284
 H1039 H 0.54973 0.42626 0.20423
 H1040 H 0.57771 0.45008 0.28720
 H1041 H 0.68983 0.36911 0.26801
 H1042 H 0.63610 0.31012 0.22473
 H1043 H 0.58594 0.38976 0.20303
 H1044 H 0.59899 0.34574 0.22339
 C1045 C 0.90093 0.90132 0.25548
 C1046 C 0.90930 0.91567 0.27983
 C1047 C 0.93061 0.93579 0.27820
 C1048 C 0.94321 0.94216 0.25220
 C1049 C 0.93400 0.92725 0.22830
 N1050 N 0.91364 0.90730 0.23060
 C1051 C 0.87880 0.87962 0.25635
 N1052 N 0.88215 0.85554 0.24122
 C1053 C 0.86237 0.83489 0.24091
 C1054 C 0.83716 0.83826 0.25583
 C1055 C 0.83310 0.86308 0.27123
 C1056 C 0.85403 0.88367 0.27183
 H1057 H 0.93691 0.94656 0.29726
 H1058 H 0.94315 0.93113 0.20784
 H1059 H 0.86608 0.81615 0.22851
 H1060 H 0.81387 0.86643 0.28294
 H1061 H 0.89978 0.91105 0.29998
 H1062 H 0.85064 0.90281 0.28369
 C1063 C 0.40318 0.39469 0.74553
 C1064 C 0.42124 0.39771 0.72241
 C1065 C 0.44077 0.41961 0.72211
 C1066 C 0.44260 0.43818 0.74496
 C1067 C 0.42417 0.43440 0.76768
 N1068 N 0.40499 0.41322 0.76728
 C1069 C 0.38170 0.37235 0.74647
 N1070 N 0.35631 0.37796 0.75840
 C1071 C 0.33545 0.35846 0.75963
 C1072 C 0.33978 0.33133 0.74884
 C1073 C 0.36604 0.32492 0.73703
 C1074 C 0.38697 0.34542 0.73563
 H1075 H 0.45459 0.42187 0.70417
 H1076 H 0.42476 0.44846 0.78558
 H1077 H 0.31556 0.36414 0.76911
 H1078 H 0.37019 0.30425 0.72841
 H1079 H 0.41992 0.38367 0.70453
 H1080 H 0.40713 0.34015 0.72648
 C1081 C 0.09890 0.25660 0.89751
 C1082 C 0.08123 0.28004 0.90051
 C1083 C 0.06087 0.28020 0.92160
 C1084 C 0.05784 0.25692 0.93943
 C1085 C 0.07601 0.23394 0.93580
 N1086 N 0.09597 0.23444 0.91536
 C1087 C 0.12073 0.25554 0.87552
 N1088 N 0.14569 0.24264 0.88107
 C1089 C 0.16659 0.24093 0.86162
 C1090 C 0.16267 0.25213 0.83461
 C1091 C 0.13691 0.26509 0.82836
 C1092 C 0.11600 0.26699 0.84877
 H1093 H 0.04734 0.29838 0.92380
 H1094 H 0.07456 0.21572 0.94935
 H1095 H 0.18605 0.23053 0.86717
 H1096 H 0.13301 0.27398 0.80777
 H1097 H 0.08339 0.29823 0.88701
 H1098 H 0.09617 0.27684 0.84350
 C1099 C 0.59942 0.74643 0.40209
 C1100 C 0.59563 0.72308 0.41969
 C1101 C 0.57425 0.72341 0.43972
 C1102 C 0.55685 0.74706 0.44255
 C1103 C 0.56123 0.76994 0.42443
 N1104 N 0.58198 0.76898 0.40476
 C1105 C 0.62183 0.74686 0.38062
 N1106 N 0.61690 0.75946 0.35540
 C1107 C 0.63665 0.76039 0.33474
 C1108 C 0.66338 0.74864 0.33916
 C1109 C 0.66901 0.73596 0.36518
 C1110 C 0.64827 0.73486 0.38585
 H1111 H 0.57158 0.70529 0.45325
 H1112 H 0.54809 0.78847 0.42578
 H1113 H 0.63159 0.77061 0.31506
 H1114 H 0.68936 0.72666 0.36944
 H1115 H 0.60877 0.70460 0.41775
 H1116 H 0.65304 0.72516 0.40588
 C1117 C 0.89487 0.75279 0.90645
 C1118 C 0.90205 0.77769 0.92047
 C1119 C 0.92402 0.77756 0.93989
 C1120 C 0.93857 0.75249 0.94589
 C1121 C 0.93047 0.72794 0.93143
 N1122 N 0.90937 0.72879 0.91212
 C1123 C 0.87245 0.75235 0.88504
 N1124 N 0.87629 0.73720 0.86107
 C1125 C 0.85672 0.73647 0.84024
 C1126 C 0.83131 0.75118 0.84318
 C1127 C 0.82666 0.76641 0.86801
 C1128 C 0.84730 0.76728 0.88886
 H1129 H 0.92938 0.79708 0.95035
 H1130 H 0.94109 0.70815 0.93510
 H1131 H 0.86093 0.72424 0.82150
 H1132 H 0.80732 0.77802 0.87105
 H1133 H 0.89121 0.79721 0.91601
 H1134 H 0.84351 0.77920 0.90789
 C1135 C 0.39917 0.24818 0.40096
 C1136 C 0.40169 0.27083 0.41969
 C1137 C 0.42300 0.27066 0.43980
 C1138 C 0.44158 0.24783 0.44157
 C1139 C 0.43836 0.22555 0.42246
 N1140 N 0.41767 0.22639 0.40268
 C1141 C 0.37710 0.24787 0.37915
 N1142 N 0.38309 0.23755 0.35313
 C1143 C 0.36375 0.23731 0.33204
 C1144 C 0.33644 0.24747 0.33676
 C1145 C 0.32972 0.25764 0.36363
 C1146 C 0.35001 0.25806 0.38478
 H1147 H 0.42479 0.28829 0.45412
 H1148 H 0.45245 0.20769 0.42300
 H1149 H 0.36967 0.22901 0.31169
 H1150 H 0.30889 0.26558 0.36821
 H1151 H 0.38765 0.28871 0.41851
 H1152 H 0.34445 0.26593 0.40540
 C1153 C 0.10374 0.75264 0.09627
 C1154 C 0.10005 0.77585 0.07845
 C1155 C 0.07824 0.77569 0.05884
 C1156 C 0.06035 0.75232 0.05666
 C1157 C 0.06481 0.72948 0.07479
 N1158 N 0.08592 0.73033 0.09408
 C1159 C 0.12600 0.75227 0.11791
 N1160 N 0.12077 0.73971 0.14307
 C1161 C 0.14020 0.73891 0.16402
 C1162 C 0.16693 0.75081 0.16005
 C1163 C 0.17293 0.76342 0.13408
 C1164 C 0.15249 0.76436 0.11304
 H1165 H 0.07547 0.79376 0.04527
 H1166 H 0.05131 0.71117 0.07392
 H1167 H 0.13484 0.72874 0.18365
 H1168 H 0.19329 0.77284 0.13017
 H1169 H 0.11347 0.79418 0.08004
 H1170 H 0.15749 0.77406 0.09308
 C1171 C 0.60207 0.25137 0.59877
 C1172 C 0.59866 0.27414 0.58036
 C1173 C 0.57746 0.27332 0.56015
 C1174 C 0.55988 0.24972 0.55794
 C1175 C 0.56399 0.22734 0.57673
 N1176 N 0.58454 0.22882 0.59661
 C1177 C 0.62405 0.25166 0.62069
 N1178 N 0.61845 0.24036 0.64637
 C1179 C 0.63776 0.24029 0.66749
 C1180 C 0.66468 0.25158 0.66310
 C1181 C 0.67099 0.26292 0.63662
 C1182 C 0.65070 0.26318 0.61546
 H1183 H 0.57496 0.29105 0.54608
 H1184 H 0.55068 0.20889 0.57586
 H1185 H 0.63220 0.23107 0.68753
 H1186 H 0.69152 0.27181 0.63238
 H1187 H 0.61191 0.29260 0.58189
 H1188 H 0.65596 0.27188 0.59510
 C1189 C 0.90391 0.25416 0.10280
 C1190 C 0.92156 0.27764 0.09993
 C1191 C 0.94129 0.27831 0.07827
 C1192 C 0.94373 0.25551 0.05972
 C1193 C 0.92563 0.23246 0.06327
 N1194 N 0.90625 0.23246 0.08427
 C1195 C 0.88254 0.25274 0.12522
 N1196 N 0.85724 0.24049 0.11975
 C1197 C 0.83655 0.23892 0.13942
 C1198 C 0.84099 0.24969 0.16656
 C1199 C 0.86717 0.26182 0.17277
 C1200 C 0.88790 0.26354 0.15214
 H1201 H 0.95482 0.29652 0.07620
 H1202 H 0.92667 0.21458 0.04920
 H1203 H 0.81674 0.22915 0.13389
 H1204 H 0.87147 0.27038 0.19344
 H1205 H 0.91984 0.29548 0.11398
 H1206 H 0.90800 0.27291 0.15732
 C1207 C 0.40227 0.74758 0.60566
 C1208 C 0.41984 0.72421 0.60178
 C1209 C 0.43978 0.72451 0.58030
 C1210 C 0.44256 0.74818 0.56293
 C1211 C 0.42472 0.77121 0.56761
 N1212 N 0.40507 0.77023 0.58837
 C1213 C 0.38025 0.74771 0.62755
 N1214 N 0.35518 0.76040 0.62211
 C1215 C 0.33385 0.76076 0.64113
 C1216 C 0.33729 0.74821 0.66763
 C1217 C 0.36317 0.73550 0.67386
 C1218 C 0.38460 0.73504 0.65384
 H1219 H 0.45310 0.70628 0.57736
 H1220 H 0.42604 0.78975 0.55449
 H1221 H 0.31431 0.77104 0.63561
 H1222 H 0.36671 0.72559 0.69405
 H1223 H 0.41778 0.70564 0.61477
 H1224 H 0.40446 0.72520 0.65902
 C1225 C 0.25286 0.09811 0.89857
 C1226 C 0.27677 0.09424 0.91544
 C1227 C 0.27710 0.07269 0.93535
 C1228 C 0.25354 0.05529 0.93874
 C1229 C 0.23016 0.05969 0.92124
 N1230 N 0.23048 0.08056 0.90172
 C1231 C 0.25153 0.12074 0.87739
 N1232 N 0.23824 0.11592 0.85248
 C1233 C 0.23649 0.13587 0.83207
 C1234 C 0.24812 0.16267 0.83642
 C1235 C 0.26132 0.16825 0.86222
 C1236 C 0.26324 0.14731 0.88265
 H1237 H 0.29555 0.06997 0.94842
 H1238 H 0.21168 0.04653 0.92304
 H1239 H 0.22592 0.13082 0.81254
 H1240 H 0.27058 0.18863 0.86642
 H1241 H 0.29511 0.10752 0.91309
 H1242 H 0.27345 0.15198 0.90246
 C1243 C 0.74433 0.60093 0.40126
 C1244 C 0.72112 0.58310 0.40505
 C1245 C 0.72163 0.56303 0.42645
 C1246 C 0.74536 0.56039 0.44380
 C1247 C 0.76807 0.57873 0.43940
 N1248 N 0.76691 0.59842 0.41869
 C1249 C 0.74469 0.62256 0.37896
 N1250 N 0.75740 0.64771 0.38405
 C1251 C 0.75852 0.66847 0.36442
 C1252 C 0.74691 0.66425 0.33759
 C1253 C 0.73412 0.63829 0.33176
 C1254 C 0.73277 0.61750 0.35243
 H1255 H 0.70366 0.54930 0.42916
 H1256 H 0.78665 0.57753 0.45250
 H1257 H 0.76877 0.68811 0.36967
 H1258 H 0.72489 0.63418 0.31134
 H1259 H 0.70263 0.58490 0.39189
 H1260 H 0.72298 0.59753 0.34752
 C1261 C 0.74879 0.09905 0.10347
 C1262 C 0.72317 0.08677 0.09567
 C1263 C 0.72263 0.06669 0.07429
 C1264 C 0.74770 0.05828 0.06104
 C1265 C 0.77295 0.07117 0.06965
 N1266 N 0.77280 0.09116 0.09012
 C1267 C 0.75004 0.12057 0.12572
 N1268 N 0.76593 0.14407 0.12183
 C1269 C 0.76739 0.16485 0.14145
 C1270 C 0.75275 0.16225 0.16692
 C1271 C 0.73680 0.13790 0.17158
 C1272 C 0.73514 0.11716 0.15091
 H1273 H 0.70260 0.05753 0.06848
 H1274 H 0.79279 0.06567 0.05996
 H1275 H 0.78015 0.18324 0.13727
 H1276 H 0.72519 0.13517 0.19098
 H1277 H 0.70371 0.09296 0.10571
 H1278 H 0.72263 0.09851 0.15467
 C1279 C 0.25488 0.60244 0.59548
 C1280 C 0.27868 0.59857 0.57850
 C1281 C 0.27903 0.57677 0.55883
 C1282 C 0.25559 0.55910 0.55577
 C1283 C 0.23219 0.56372 0.57312
 N1284 N 0.23253 0.58479 0.59246
 C1285 C 0.25381 0.62468 0.61715
 N1286 N 0.23997 0.61954 0.64164
 C1287 C 0.23834 0.63892 0.66259
 C1288 C 0.25071 0.66553 0.65931
 C1289 C 0.26463 0.67148 0.63401
 C1290 C 0.26640 0.65106 0.61297
 H1291 H 0.29751 0.57388 0.54587
 H1292 H 0.21380 0.55040 0.57157
 H1293 H 0.22719 0.63359 0.68169
 H1294 H 0.27447 0.69175 0.63066
 H1295 H 0.29704 0.61184 0.58077
 H1296 H 0.27712 0.65602 0.59353
 C1297 C 0.74601 0.90369 0.89983
 C1298 C 0.72303 0.92196 0.90272
 C1299 C 0.72293 0.94175 0.92440
 C1300 C 0.74585 0.94366 0.94287
 C1301 C 0.76843 0.92502 0.93924
 N1302 N 0.76782 0.90556 0.91828
 C1303 C 0.74670 0.88203 0.87762
 N1304 N 0.75782 0.85633 0.88350
 C1305 C 0.75872 0.83533 0.86410
 C1306 C 0.74846 0.83983 0.83679
 C1307 C 0.73749 0.86638 0.83012
 C1308 C 0.73636 0.88745 0.85052
 H1309 H 0.70511 0.95575 0.92652
 H1310 H 0.78638 0.92569 0.95323
 H1311 H 0.76759 0.81522 0.86999
 H1312 H 0.72939 0.87070 0.80928
 H1313 H 0.70514 0.92064 0.88871
 H1314 H 0.72785 0.90784 0.84507
 C1315 C 0.25592 0.39527 0.40179
 C1316 C 0.27920 0.39847 0.41965
 C1317 C 0.27931 0.41999 0.43960
 C1318 C 0.25610 0.43801 0.44209
 C1319 C 0.23320 0.43406 0.42388
 N1320 N 0.23380 0.41326 0.40425
 C1321 C 0.25519 0.37319 0.38000
 N1322 N 0.24331 0.37896 0.35461
 C1323 C 0.24221 0.35963 0.33356
 C1324 C 0.25301 0.33247 0.33771
 C1325 C 0.26484 0.32593 0.36393
 C1326 C 0.26617 0.34628 0.38503
 H1327 H 0.29739 0.42239 0.45324
 H1328 H 0.21503 0.44771 0.42498
 H1329 H 0.23269 0.36541 0.31371
 H1330 H 0.27338 0.30523 0.36799
 H1331 H 0.29733 0.38483 0.41786
 H1332 H 0.27531 0.34090 0.40517
 C1333 C 0.24858 0.90036 0.10136
 C1334 C 0.22536 0.91811 0.09736
 C1335 C 0.22602 0.93822 0.07603
 C1336 C 0.24990 0.94096 0.05896
 C1337 C 0.27269 0.92281 0.06366
 N1338 N 0.27138 0.90306 0.08429
 C1339 C 0.24862 0.87854 0.12343
 N1340 N 0.26141 0.85344 0.11833
 C1341 C 0.26211 0.83248 0.13776
 C1342 C 0.24993 0.83645 0.16435
 C1343 C 0.23702 0.86234 0.17015
 C1344 C 0.23615 0.88333 0.14972
 H1345 H 0.20796 0.95175 0.07303
 H1346 H 0.29137 0.92407 0.05074
 H1347 H 0.27247 0.81289 0.13255
 H1348 H 0.22733 0.86624 0.19039
 H1349 H 0.20669 0.91614 0.11021
 H1350 H 0.22628 0.90325 0.15463
 C1351 C 0.75282 0.39705 0.59810
 C1352 C 0.77578 0.40099 0.58001
 C1353 C 0.77514 0.42276 0.56035
 C1354 C 0.75150 0.44029 0.55836
 C1355 C 0.72895 0.43559 0.57679
 N1356 N 0.73028 0.41458 0.59613
 C1357 C 0.75285 0.37480 0.61975
 N1358 N 0.74074 0.38007 0.64513
 C1359 C 0.74017 0.36062 0.66606
 C1360 C 0.75180 0.33381 0.66183
 C1361 C 0.76389 0.32774 0.63562
 C1362 C 0.76467 0.34824 0.61462
 H1363 H 0.79297 0.42573 0.54652
 H1364 H 0.71045 0.44881 0.57608
 H1365 H 0.73036 0.36603 0.68585
 H1366 H 0.77302 0.30729 0.63149
 H1367 H 0.79425 0.38775 0.58141
 H1368 H 0.77399 0.34322 0.59448
 C1369 C 0.09467 0.10339 0.75101
 C1370 C 0.07669 0.10024 0.77413
 C1371 C 0.05664 0.07889 0.77397
 C1372 C 0.05418 0.06094 0.75069
 C1373 C 0.07240 0.06491 0.72785
 N1374 N 0.09218 0.08558 0.72870
 C1375 C 0.11676 0.12513 0.75086
 N1376 N 0.14226 0.11911 0.73938
 C1377 C 0.16367 0.13808 0.73918
 C1378 C 0.15979 0.16503 0.75060
 C1379 C 0.13350 0.17179 0.76208
 C1380 C 0.11201 0.15186 0.76242
 H1381 H 0.04299 0.07648 0.79203
 H1382 H 0.07129 0.05130 0.70963
 H1383 H 0.18355 0.13218 0.72983
 H1384 H 0.12964 0.19238 0.77106
 H1385 H 0.07852 0.11369 0.79241
 H1386 H 0.09180 0.15743 0.77128
 C1387 C 0.60002 0.60194 0.24454
 C1388 C 0.58177 0.59881 0.22153
 C1389 C 0.56197 0.57709 0.22155
 C1390 C 0.56007 0.55885 0.24463
 C1391 C 0.57888 0.56258 0.26709
 N1392 N 0.59824 0.58358 0.26639
 C1393 C 0.62130 0.62452 0.24560
 N1394 N 0.64656 0.61932 0.25803
 C1395 C 0.66699 0.63923 0.25999
 C1396 C 0.66229 0.66644 0.24958
 C1397 C 0.63620 0.67239 0.23715
 C1398 C 0.61575 0.65145 0.23492
 H1399 H 0.54785 0.57487 0.20382
 H1400 H 0.57828 0.54875 0.28514
 H1401 H 0.68675 0.63387 0.26993
 H1402 H 0.63175 0.69312 0.22883
 H1403 H 0.58300 0.61274 0.20358
 H1404 H 0.59566 0.65643 0.22545
 C1405 C 0.09962 0.89727 0.24395
 C1406 C 0.08188 0.90100 0.22069
 C1407 C 0.06176 0.92228 0.22117
 C1408 C 0.05905 0.93962 0.24488
 C1409 C 0.07724 0.93525 0.26770
 N1410 N 0.09699 0.91461 0.26659
 C1411 C 0.12134 0.87518 0.24419
 N1412 N 0.14644 0.88034 0.25694
 C1413 C 0.16732 0.86084 0.25781
 C1414 C 0.16323 0.83415 0.24584
 C1415 C 0.13735 0.82830 0.23295
 C1416 C 0.11644 0.84878 0.23193
 H1417 H 0.04818 0.92501 0.20309
 H1418 H 0.07598 0.94839 0.28625
 H1419 H 0.18691 0.86606 0.26818
 H1420 H 0.13336 0.80796 0.22346
 H1421 H 0.08382 0.88794 0.20214
 H1422 H 0.09650 0.84383 0.22211
 C1423 C 0.60249 0.40342 0.74390
 C1424 C 0.59949 0.42192 0.72112
 C1425 C 0.57794 0.44181 0.72138
 C1426 C 0.55965 0.44361 0.74444
 C1427 C 0.56344 0.42481 0.76685
 N1428 N 0.58429 0.40526 0.76590
 C1429 C 0.62453 0.38156 0.74420
 N1430 N 0.61881 0.35612 0.75600
 C1431 C 0.63810 0.33504 0.75690
 C1432 C 0.66520 0.33919 0.74595
 C1433 C 0.67166 0.36541 0.73408
 C1434 C 0.65135 0.38655 0.73297
 H1435 H 0.57568 0.45589 0.70363
 H1436 H 0.54960 0.42535 0.78490
 H1437 H 0.63237 0.31523 0.76650
 H1438 H 0.69233 0.36949 0.72547
 H1439 H 0.61325 0.42065 0.70304
 H1440 H 0.65674 0.40672 0.72392
 C1441 C 0.90123 0.09914 0.24660
 C1442 C 0.90367 0.08092 0.22353
 C1443 C 0.92468 0.06052 0.22340
 C1444 C 0.94307 0.05802 0.24633
 C1445 C 0.94004 0.07676 0.26894
 N1446 N 0.91960 0.09675 0.26843
 C1447 C 0.87924 0.12096 0.24751
 N1448 N 0.88508 0.14640 0.25929
 C1449 C 0.86568 0.16738 0.26055
 C1450 C 0.83844 0.16304 0.25001
 C1451 C 0.83191 0.13679 0.23821
 C1452 C 0.85225 0.11579 0.23678
 H1453 H 0.92636 0.04653 0.20550
 H1454 H 0.95401 0.07568 0.28688
 H1455 H 0.87144 0.18726 0.27004
 H1456 H 0.81115 0.13259 0.22981
 H1457 H 0.88975 0.08265 0.20559
 H1458 H 0.84678 0.09559 0.22779
 C1459 C 0.39359 0.59512 0.74496
 C1460 C 0.39734 0.57754 0.72155
 C1461 C 0.41907 0.55784 0.72159
 C1462 C 0.43683 0.55533 0.74501
 C1463 C 0.43233 0.57325 0.76804
 N1464 N 0.41129 0.59262 0.76733
 C1465 C 0.37134 0.61678 0.74554
 N1466 N 0.37644 0.64171 0.75867
 C1467 C 0.35700 0.66264 0.75972
 C1468 C 0.33039 0.65888 0.74747
 C1469 C 0.32453 0.63314 0.73426
 C1470 C 0.34497 0.61213 0.73309
 H1471 H 0.42187 0.54446 0.70336
 H1472 H 0.44573 0.57216 0.78640
 H1473 H 0.36227 0.68209 0.77034
 H1474 H 0.30427 0.62938 0.72454
 H1475 H 0.38403 0.57937 0.70317
 H1476 H 0.34004 0.59235 0.72294
 C1477 C 0.90161 0.89627 0.75620
 C1478 C 0.91966 0.90043 0.77917
 C1479 C 0.93942 0.92210 0.77830
 C1480 C 0.94148 0.93935 0.75447
 C1481 C 0.92310 0.93443 0.73191
 N1482 N 0.90369 0.91349 0.73344
 C1483 C 0.87984 0.87419 0.75648
 N1484 N 0.85477 0.87924 0.74365
 C1485 C 0.83372 0.85991 0.74322
 C1486 C 0.83751 0.83349 0.75579
 C1487 C 0.86337 0.82766 0.76873
 C1488 C 0.88451 0.84801 0.76929
 H1489 H 0.95319 0.92524 0.79617
 H1490 H 0.92386 0.94744 0.71327
 H1491 H 0.81418 0.86511 0.73276
 H1492 H 0.86713 0.80751 0.77864
 H1493 H 0.91816 0.88751 0.79783
 H1494 H 0.90441 0.84314 0.77920
 C1495 C 0.40189 0.39937 0.25547
 C1496 C 0.40600 0.41761 0.27832
 C1497 C 0.42698 0.43809 0.27695
 C1498 C 0.44361 0.44070 0.25273
 C1499 C 0.43890 0.42196 0.23039
 N1500 N 0.41860 0.40190 0.23238
 C1501 C 0.37991 0.37741 0.25597
 N1502 N 0.38489 0.35223 0.24325
 C1503 C 0.36536 0.33133 0.24260
 C1504 C 0.33875 0.33546 0.25465
 C1505 C 0.33310 0.36136 0.26764
 C1506 C 0.35367 0.38227 0.26853
 H1507 H 0.42999 0.45207 0.29468
 H1508 H 0.45148 0.42309 0.21147
 H1509 H 0.37043 0.31174 0.23216
 H1510 H 0.31282 0.36539 0.27717
 H1511 H 0.39342 0.41583 0.29719
 H1512 H 0.34883 0.40224 0.27834
   
