data_POSCAR
  _audit_creation_date              2014-09-24
  _audit_creation_method            'ToBaCCo'
  _symmetry_space_group_name_H-M    'P1'
  _symmetry_Int_Tables_number       1
  _symmetry_cell_setting            triclinic
  loop_
  _symmetry_equiv_pos_as_xyz
 x,y,z
_cell_length_a 61.7943
_cell_length_b 62.4319
_cell_length_c 61.7780
_cell_angle_alpha 90.443000
_cell_angle_beta 90.241300
_cell_angle_gamma 89.311400
loop_
  _atom_site_label
  _atom_site_type_symbol
  _atom_site_fract_x
  _atom_site_fract_y
  _atom_site_fract_z
C1 C 0.34188 1.32080 0.30336
 C2 C 0.33655 1.30455 0.31782
 C3 C 0.31971 1.30763 0.33218
 C4 C 0.30832 1.32710 0.33252
 C5 C 0.31383 1.34335 0.31868
 C6 C 0.33075 1.34012 0.30386
 C7 C 0.35753 1.32220 0.28777
 N8 N 0.35633 1.34196 0.27856
 C9 C 0.34002 1.35305 0.28864
 C10 C 0.30099 1.36082 0.32391
 N11 N 0.28769 1.35549 0.34059
 C12 C 0.29232 1.33475 0.34580
 C13 C 0.31927 1.29016 0.34553
 N14 N 0.33569 1.27672 0.33983
 C15 C 0.34631 1.28530 0.32283
 H16 H 0.36920 1.30971 0.28396
 H17 H 0.33454 1.36910 0.28482
 H18 H 0.30144 1.37617 0.31595
 H19 H 0.28556 1.32589 0.35908
 H20 H 0.30889 1.28814 0.35943
 H21 H 0.36079 1.27861 0.31549
 C22 C 0.37567 0.84948 0.83718
 C23 C 0.37049 0.83347 0.85205
 C24 C 0.35214 0.83563 0.86466
 C25 C 0.33896 0.85396 0.86283
 C26 C 0.34439 0.87001 0.84869
 C27 C 0.36274 0.86764 0.83559
 C28 C 0.39086 0.85046 0.82099
 N29 N 0.38733 0.86869 0.80951
 C30 C 0.37027 0.87936 0.81853
 C31 C 0.32841 0.88551 0.84990
 N32 N 0.31310 0.87910 0.86420
 C33 C 0.31958 0.85972 0.87211
 C34 C 0.35048 0.81733 0.87677
 N35 N 0.36753 0.80424 0.87201
 C36 C 0.37981 0.81393 0.85684
 H37 H 0.40292 0.83829 0.81726
 H38 H 0.36281 0.89378 0.81216
 H39 H 0.32759 0.89985 0.84019
 H40 H 0.31114 0.85046 0.88409
 H41 H 0.33792 0.81388 0.88836
 H42 H 0.39429 0.80713 0.84961
 C43 C 0.87267 1.35954 0.84196
 C44 C 0.87518 1.34032 0.85339
 C45 C 0.86174 1.33618 0.87060
 C46 C 0.84587 1.35112 0.87678
 C47 C 0.84388 1.37038 0.86609
 C48 C 0.85742 1.37465 0.84845
 C49 C 0.88186 1.36684 0.82326
 N50 N 0.87274 1.38615 0.81812
 C51 C 0.85797 1.39115 0.83375
 C52 C 0.82637 1.38107 0.87498
 N53 N 0.81738 1.36848 0.89044
 C54 C 0.82948 1.35016 0.89160
 C55 C 0.86719 1.31632 0.87836
 N56 N 0.88386 1.30827 0.86647
 C57 C 0.88884 1.32281 0.85104
 H58 H 0.89432 1.35850 0.81414
 H59 H 0.84726 1.40499 0.83374
 H60 H 0.81984 1.39621 0.86938
 H61 H 0.82666 1.33689 0.90235
 H62 H 0.85991 1.30854 0.89209
 H63 H 0.90143 1.32081 0.83905
 C64 C 0.86826 0.85523 0.33752
 C65 C 0.87166 0.83820 0.35181
 C66 C 0.85774 0.83528 0.36901
 C67 C 0.84037 0.84969 0.37230
 C68 C 0.83723 0.86664 0.35824
 C69 C 0.85140 0.86954 0.34084
 C70 C 0.87856 0.86112 0.31887
 N71 N 0.86861 0.87896 0.31077
 C72 C 0.85204 0.88429 0.32437
 C73 C 0.81881 0.87744 0.36470
 N74 N 0.81074 0.86762 0.38241
 C75 C 0.82388 0.85069 0.38728
 C76 C 0.86465 0.81705 0.37961
 N77 N 0.88255 0.80919 0.36941
 C78 C 0.88694 0.82202 0.35241
 H79 H 0.89262 0.85311 0.31209
 H80 H 0.84056 0.89730 0.32203
 H81 H 0.81174 0.89141 0.35702
 H82 H 0.82128 0.83960 0.40037
 H83 H 0.85734 0.81009 0.39377
 H84 H 0.90012 0.81955 0.34113
 C85 C 0.63730 0.65007 0.33373
 C86 C 0.63374 0.66717 0.34818
 C87 C 0.64796 0.67064 0.36519
 C88 C 0.66607 0.65706 0.36787
 C89 C 0.66975 0.64051 0.35327
 C90 C 0.65535 0.63707 0.33605
 C91 C 0.62628 0.64303 0.31570
 N92 N 0.63737 0.62618 0.30671
 C93 C 0.65530 0.62260 0.31915
 C94 C 0.68856 0.63027 0.35939
 N95 N 0.69644 0.64008 0.37742
 C96 C 0.68278 0.65653 0.38273
 C97 C 0.64108 0.68899 0.37577
 N98 N 0.62325 0.69683 0.36541
 C99 C 0.61860 0.68349 0.34860
 H100 H 0.61171 0.65036 0.30921
 H101 H 0.66727 0.61006 0.31658
 H102 H 0.69580 0.61643 0.35146
 H103 H 0.68495 0.66741 0.39627
 H104 H 0.64911 0.69666 0.38932
 H105 H 0.60548 0.68578 0.33714
 C106 C 0.62397 0.13364 0.84904
 C107 C 0.62677 0.15073 0.86393
 C108 C 0.64186 0.14861 0.88051
 C109 C 0.65445 0.12992 0.88233
 C110 C 0.65113 0.11307 0.86832
 C111 C 0.63577 0.11488 0.85177
 C112 C 0.61188 0.13093 0.83027
 N113 N 0.61591 0.11089 0.82198
 C114 C 0.63050 0.10115 0.83531
 C115 C 0.66646 0.09759 0.87281
 N116 N 0.67965 0.10492 0.88888
 C117 C 0.67206 0.12466 0.89498
 C118 C 0.64094 0.16687 0.89295
 N119 N 0.62562 0.18019 0.88460
 C120 C 0.61702 0.17069 0.86665
 H121 H 0.60095 0.14271 0.82333
 H122 H 0.63800 0.08561 0.83261
 H123 H 0.66894 0.08300 0.86354
 H124 H 0.67906 0.13488 0.90731
 H125 H 0.65031 0.17005 0.90745
 H126 H 0.60401 0.17737 0.85695
 C127 C 1.12850 0.63635 0.85135
 C128 C 1.12464 0.65061 0.86871
 C129 C 1.13836 0.65037 0.88648
 C130 C 1.15625 0.63650 0.88700
 C131 C 1.15995 0.62236 0.87016
 C132 C 1.14603 0.62231 0.85220
 C133 C 1.11916 0.63393 0.83115
 N134 N 1.13070 0.61894 0.81982
 C135 C 1.14713 0.61180 0.83263
 C136 C 1.17961 0.61251 0.87404
 N137 N 1.18828 0.62083 0.89257
 C138 C 1.17383 0.63544 0.90061
 C139 C 1.13208 0.66666 0.90011
 N140 N 1.11493 0.67704 0.89114
 C141 C 1.11028 0.66749 0.87182
 H142 H 1.10557 0.64307 0.82485
 H143 H 1.15929 0.60006 0.82793
 H144 H 1.18776 0.60157 0.86301
 H145 H 1.17598 0.64509 0.91506
 H146 H 1.14011 0.67136 0.91499
 H147 H 1.09782 0.67280 0.86065
 C148 C 1.10825 0.13275 0.35057
 C149 C 1.11260 0.15072 0.36347
 C150 C 1.13103 0.15127 0.37636
 C151 C 1.14545 0.13360 0.37634
 C152 C 1.14091 0.11584 0.36371
 C153 C 1.12248 0.11560 0.35048
 C154 C 1.09315 0.12911 0.33455
 N155 N 1.09837 0.11046 0.32414
 C156 C 1.11622 0.10204 0.33408
 C157 C 1.15790 0.10167 0.36571
 N158 N 1.17309 0.11026 0.37911
 C159 C 1.16558 0.12998 0.38553
 C160 C 1.13177 0.17150 0.38558
 N161 N 1.11449 0.18307 0.37826
 C162 C 1.10276 0.17049 0.36474
 H163 H 1.08070 0.14037 0.32951
 H164 H 1.12463 0.08743 0.32938
 H165 H 1.15944 0.08668 0.35692
 H166 H 1.17390 0.14095 0.39624
 H167 H 1.14442 0.17766 0.39600
 H168 H 1.08835 0.17557 0.35606
 C169 C 0.62390 1.36151 0.65335
 C170 C 0.62269 1.34503 0.63795
 C171 C 0.64026 1.34026 0.62495
 C172 C 0.65921 1.35232 0.62693
 C173 C 0.66038 1.36871 0.64215
 C174 C 0.64266 1.37306 0.65578
 C175 C 0.60974 1.36831 0.66905
 N176 N 0.61944 1.38353 0.68153
 C177 C 0.63968 1.38653 0.67337
 C178 C 0.68059 1.37760 0.64039
 N179 N 0.69168 1.36702 0.62454
 C180 C 0.67877 1.35141 0.61638
 C181 C 0.63492 1.32248 0.61276
 N182 N 0.61454 1.31649 0.61812
 C183 C 0.60695 1.33028 0.63345
 H184 H 0.59407 1.36138 0.67196
 H185 H 0.65156 1.39756 0.67968
 H186 H 0.68680 1.39079 0.64995
 H187 H 0.68312 1.34052 0.60334
 H188 H 0.64526 1.31424 0.60122
 H189 H 0.59150 1.32906 0.64151
 C190 C 0.62281 0.85398 1.15464
 C191 C 0.62677 0.83899 1.13815
 C192 C 0.64525 0.84026 1.12570
 C193 C 0.65992 0.85695 1.12943
 C194 C 0.65601 0.87173 1.14582
 C195 C 0.63752 0.86996 1.15877
 C196 C 0.60700 0.85544 1.17019
 N197 N 0.61204 0.87159 1.18418
 C198 C 0.63073 0.88058 1.17716
 C199 C 0.67292 0.88587 1.14599
 N200 N 0.68702 0.88011 1.13010
 C201 C 0.67929 0.86230 1.12003
 C202 C 0.64576 0.82234 1.11250
 N203 N 0.62810 0.81028 1.11679
 C204 C 0.61640 0.82049 1.13240
 H205 H 0.59372 0.84446 1.17199
 H206 H 0.63897 0.89384 1.18482
 H207 H 0.67485 0.89933 1.15696
 H208 H 0.68694 0.85410 1.10653
 H209 H 0.65846 0.81805 1.10121
 H210 H 0.60209 0.81426 1.14006
 C211 C 1.14759 1.34072 1.17288
 C212 C 1.14909 1.32456 1.15684
 C213 C 1.16346 1.32681 1.13982
 C214 C 1.17610 1.34526 1.13826
 C215 C 1.17413 1.36125 1.15361
 C216 C 1.16017 1.35884 1.17114
 C217 C 1.13690 1.34238 1.19251
 N218 N 1.14315 1.36080 1.20254
 C219 C 1.15723 1.37095 1.18951
 C220 C 1.18834 1.37709 1.14834
 N221 N 1.19931 1.37111 1.13015
 C222 C 1.19190 1.35146 1.12400
 C223 C 1.16241 1.30855 1.12732
 N224 N 1.14764 1.29526 1.13606
 C225 C 1.13937 1.30488 1.15412
 H226 H 1.12643 1.33054 1.19953
 H227 H 1.16543 1.38569 1.19356
 H228 H 1.19108 1.39146 1.15781
 H229 H 1.19716 1.34239 1.10995
 H230 H 1.17163 1.30521 1.11279
 H231 H 1.12747 1.29791 1.16468
 C232 C 1.11840 0.85891 0.64858
 C233 C 1.12427 0.84350 0.63291
 C234 C 1.14249 0.84647 0.62036
 C235 C 1.15487 0.86496 0.62302
 C236 C 1.14899 0.88024 0.63827
 C237 C 1.13080 0.87708 0.65124
 C238 C 1.10314 0.85919 0.66484
 N239 N 1.10630 0.87689 0.67733
 C240 C 1.12308 0.88795 0.66904
 C241 C 1.16458 0.89580 0.63823
 N242 N 1.17981 0.89025 0.62337
 C243 C 1.17402 0.87138 0.61403
 C244 C 1.14541 0.82831 0.60791
 N245 N 1.12932 0.81445 0.61245
 C246 C 1.11630 0.82360 0.62770
 H247 H 1.09162 0.84674 0.66823
 H248 H 1.12984 0.90234 0.67609
 H249 H 1.16520 0.90973 0.64874
 H250 H 1.18320 0.86284 0.60175
 H251 H 1.15845 0.82526 0.59661
 H252 H 1.10253 0.81598 0.63504
 C253 C 0.37378 0.65224 0.66221
 C254 C 0.37417 0.67110 0.65010
 C255 C 0.35908 0.67441 0.63383
 C256 C 0.34319 0.65901 0.62972
 C257 C 0.34293 0.64035 0.64154
 C258 C 0.35836 0.63689 0.65792
 C259 C 0.38577 0.64533 0.67963
 N260 N 0.37805 0.62613 0.68606
 C261 C 0.36131 0.62078 0.67282
 C262 C 0.32515 0.62899 0.63488
 N263 N 0.31423 0.64038 0.61944
 C264 C 0.32544 0.65879 0.61622
 C265 C 0.36304 0.69421 0.62515
 N266 N 0.38006 0.70298 0.63586
 C267 C 0.38690 0.68901 0.65123
 H268 H 0.39901 0.65379 0.68722
 H269 H 0.35153 0.60662 0.67439
 H270 H 0.32002 0.61410 0.64195
 H271 H 0.32120 0.67136 0.60499
 H272 H 0.35397 0.70186 0.61226
 H273 H 0.40023 0.69164 0.66233
 C274 C 0.37088 0.15267 1.15311
 C275 C 0.36841 0.16461 1.13408
 C276 C 0.35161 0.16024 1.11977
 C277 C 0.33683 0.14395 1.12457
 C278 C 0.33908 0.13269 1.14360
 C279 C 0.35619 0.13691 1.15775
 C280 C 0.38545 0.15334 1.17012
 N281 N 0.37973 0.13836 1.18485
 C282 C 0.36182 0.12832 1.17734
 C283 C 0.32193 0.11914 1.14518
 N284 N 0.30904 0.12151 1.12744
 C285 C 0.31825 0.13660 1.11459
 C286 C 0.35260 0.17520 1.10346
 N287 N 0.36930 0.18857 1.10778
 C288 C 0.37908 0.18213 1.12639
 H289 H 0.39902 0.16404 1.17176
 H290 H 0.35362 0.11541 1.18540
 H291 H 0.31937 0.10813 1.15834
 H292 H 0.31145 0.14272 1.09967
 H293 H 0.34138 0.17690 1.09006
 H294 H 0.39262 0.19002 1.13409
 C295 C 0.85705 0.65934 1.18188
 C296 C 0.85964 0.67623 1.16724
 C297 C 0.84481 0.67916 1.15060
 C298 C 0.82713 0.66538 1.14845
 C299 C 0.82465 0.64881 1.16289
 C300 C 0.83956 0.64585 1.17972
 C301 C 0.86855 0.65270 1.19985
 N302 N 0.85825 0.63574 1.20863
 C303 C 0.84051 0.63148 1.19641
 C304 C 0.80612 0.63820 1.15726
 N305 N 0.79715 0.64795 1.13977
 C306 C 0.80984 0.66468 1.13430
 C307 C 0.85103 0.69689 1.13924
 N308 N 0.86917 0.70493 1.14860
 C309 C 0.87453 0.69240 1.16577
 H310 H 0.88305 0.65995 1.20635
 H311 H 0.82913 0.61881 1.19946
 H312 H 0.79939 0.62463 1.16559
 H313 H 0.80677 0.67547 1.12097
 H314 H 0.84262 0.70379 1.12551
 H315 H 0.88823 0.69488 1.17644
 C316 C 0.83674 0.17751 0.69075
 C317 C 0.83961 0.18942 0.67166
 C318 C 0.82340 0.18976 0.65603
 C319 C 0.80409 0.17871 0.65935
 C320 C 0.80104 0.16787 0.67843
 C321 C 0.81734 0.16734 0.69413
 C322 C 0.85014 0.17198 0.70789
 N323 N 0.83906 0.15903 0.72162
 C324 C 0.81889 0.15645 0.71321
 C325 C 0.78159 0.15761 0.67696
 N326 N 0.77274 0.16177 0.65729
 C327 C 0.78635 0.17475 0.64638
 C328 C 0.83033 0.20229 0.63932
 N329 N 0.85012 0.21004 0.64446
 C330 C 0.85604 0.20219 0.66415
 H331 H 0.86675 0.17692 0.71000
 H332 H 0.80659 0.14601 0.71950
 H333 H 0.77495 0.14685 0.68881
 H334 H 0.78388 0.18027 0.62997
 H335 H 0.82122 0.20626 0.62486
 H336 H 0.87098 0.20585 0.67254
 C337 C 1.37774 0.38308 0.64804
 C338 C 1.35801 0.38585 0.63707
 C339 C 1.35160 0.37083 0.62190
 C340 C 1.36484 0.35306 0.61729
 C341 C 1.38454 0.35054 0.62766
 C342 C 1.39102 0.36561 0.64337
 C343 C 1.38641 0.39339 0.66569
 N344 N 1.40459 0.38267 0.67196
 C345 C 1.40772 0.36577 0.65830
 C346 C 1.39307 0.33112 0.62094
 N347 N 1.37884 0.32160 0.60700
 C348 C 1.36152 0.33511 0.60480
 C349 C 1.33110 0.37642 0.61522
 N350 N 1.32493 0.39458 0.62585
 C351 C 1.34129 0.40051 0.63927
 H352 H 1.37934 0.40700 0.67414
 H353 H 1.42020 0.35360 0.66014
 H354 H 1.40793 0.32397 0.62696
 H355 H 1.34739 0.33232 0.59483
 H356 H 1.32128 0.36777 0.60361
 H357 H 1.34075 0.41405 0.65033
 C358 C 1.36184 0.87849 1.14924
 C359 C 1.34859 0.87576 1.13095
 C360 C 1.35131 0.85793 1.11777
 C361 C 1.36709 0.84247 1.12286
 C362 C 1.38023 0.84514 1.14078
 C363 C 1.37733 0.86315 1.15426
 C364 C 1.36188 0.89349 1.16568
 N365 N 1.37666 0.88742 1.18095
 C366 C 1.38615 0.86880 1.17393
 C367 C 1.39337 0.82720 1.14214
 N368 N 1.38818 0.81344 1.12572
 C369 C 1.37201 0.82282 1.11394
 C370 C 1.33522 0.85850 1.10231
 N371 N 1.32263 0.87607 1.10602
 C372 C 1.33063 0.88673 1.12349
 H373 H 1.35090 0.90707 1.16695
 H374 H 1.39868 0.85988 1.18236
 H375 H 1.40500 0.82403 1.15490
 H376 H 1.36445 0.81615 1.09961
 H377 H 1.33209 0.84638 1.09010
 H378 H 1.32340 0.90094 1.13072
 C379 C 0.85961 0.36267 1.17042
 C380 C 0.84076 0.36534 1.15800
 C381 C 0.83642 0.35132 1.14115
 C382 C 0.85109 0.33464 1.13630
 C383 C 0.87003 0.33253 1.14809
 C384 C 0.87433 0.34663 1.16533
 C385 C 0.86678 0.37250 1.18901
 N386 N 0.88567 0.36296 1.19543
 C387 C 0.89055 0.34729 1.18070
 C388 C 0.88067 0.31456 1.14048
 N389 N 0.86857 0.30535 1.12447
 C390 C 0.85042 0.31775 1.12188
 C391 C 0.81679 0.35739 1.13238
 N392 N 0.80933 0.37493 1.14331
 C393 C 0.82384 0.37984 1.15909
 H394 H 0.85863 0.38568 1.19718
 H395 H 0.90403 0.33612 1.18180
 H396 H 0.89551 0.30811 1.14726
 H397 H 0.83751 0.31492 1.11038
 H398 H 0.80875 0.34991 1.11873
 H399 H 0.82218 0.39298 1.17052
 C400 C 0.85513 0.87835 0.65064
 C401 C 0.84135 0.87549 0.63288
 C402 C 0.84573 0.85974 0.61764
 C403 C 0.86410 0.84651 0.62011
 C404 C 0.87793 0.84947 0.63758
 C405 C 0.87337 0.86554 0.65300
 C406 C 0.85361 0.89126 0.66868
 N407 N 0.87051 0.88666 0.68202
 C408 C 0.88277 0.87100 0.67253
 C409 C 0.89346 0.83347 0.63661
 N410 N 0.88923 0.82080 0.61916
 C411 C 0.87134 0.82868 0.60897
 C412 C 0.82889 0.86003 0.60290
 N413 N 0.81445 0.87550 0.60903
 C414 C 0.82200 0.88499 0.62735
 H415 H 0.84086 0.90283 0.67208
 H416 H 0.89688 0.86346 0.67976
 H417 H 0.90623 0.83061 0.64832
 H418 H 0.86380 0.82160 0.59482
 H419 H 0.82696 0.84937 0.58914
 H420 H 0.81397 0.89787 0.63611
 C421 C 0.65342 0.64841 0.67333
 C422 C 0.66969 0.64485 0.65796
 C423 C 0.67289 0.65957 0.64174
 C424 C 0.65972 0.67796 0.64053
 C425 C 0.64344 0.68136 0.65553
 C426 C 0.64039 0.66654 0.67221
 C427 C 0.64767 0.63746 0.69158
 N428 N 0.63150 0.64847 0.70173
 C429 C 0.62690 0.66629 0.68992
 C430 C 0.63349 0.70056 0.65050
 N431 N 0.64347 0.70888 0.63294
 C432 C 0.65958 0.69520 0.62680
 C433 C 0.69022 0.65241 0.62969
 N434 N 0.69754 0.63363 0.63816
 C435 C 0.68504 0.62889 0.65547
 H436 H 0.65541 0.62300 0.69750
 H437 H 0.61488 0.67838 0.69404
 H438 H 0.62022 0.70812 0.65917
 H439 H 0.67031 0.69757 0.61324
 H440 H 0.69697 0.66027 0.61574
 H441 H 0.68729 0.61511 0.66581
 C442 C 0.64763 1.12314 1.15716
 C443 C 0.65976 1.11857 1.13872
 C444 C 0.65806 1.13154 1.12085
 C445 C 0.64372 1.14910 1.12114
 C446 C 0.63136 1.15364 1.13932
 C447 C 0.63304 1.14012 1.15759
 C448 C 0.64779 1.11377 1.17704
 N449 N 0.63306 1.12392 1.18983
 C450 C 0.62365 1.13997 1.17800
 C451 C 0.62044 1.17271 1.13514
 N452 N 0.62559 1.17949 1.11479
 C453 C 0.63981 1.16488 1.10631
 C454 C 0.67342 1.12444 1.10623
 N455 N 0.68386 1.10724 1.11486
 C456 C 0.67561 1.10353 1.13470
 H457 H 0.65750 1.09995 1.18158
 H458 H 0.61156 1.15119 1.18400
 H459 H 0.60951 1.18086 1.14618
 H460 H 0.64792 1.16609 1.09089
 H461 H 0.67734 1.13172 1.09091
 H462 H 0.68167 1.09158 1.14589
 C463 C 0.13580 0.62040 1.15862
 C464 C 0.15248 0.62049 1.14325
 C465 C 0.15451 0.63759 1.12914
 C466 C 0.13966 0.65497 1.13035
 C467 C 0.12343 0.65460 1.14566
 C468 C 0.12116 0.63715 1.15931
 C469 C 0.13047 0.60676 1.17523
 N470 N 0.11254 0.61473 1.18547
 C471 C 0.10679 0.63332 1.17558
 C472 C 0.11255 0.67372 1.14509
 N473 N 0.12127 0.68610 1.12950
 C474 C 0.13767 0.67457 1.11999
 C475 C 0.17258 0.63328 1.11658
 N476 N 0.18116 0.61399 1.12255
 C477 C 0.16897 0.60619 1.13887
 H478 H 0.13895 0.59207 1.17934
 H479 H 0.09390 0.64410 1.18065
 H480 H 0.09898 0.67813 1.15528
 H481 H 0.14820 0.68044 1.10745
 H482 H 0.17885 0.64331 1.10390
 H483 H 0.17204 0.59123 1.14716
 C484 C 0.12834 1.12291 0.65394
 C485 C 0.14317 1.11800 0.63738
 C486 C 0.14530 1.13183 0.62010
 C487 C 0.13268 1.15060 0.61906
 C488 C 0.11855 1.15556 0.63558
 C489 C 0.11637 1.14170 0.65309
 C490 C 0.12387 1.11351 0.67350
 N491 N 0.10967 1.12631 0.68469
 C492 C 0.10515 1.14363 0.67213
 C493 C 0.11021 1.17561 0.63166
 N494 N 0.11877 1.18312 0.61293
 C495 C 0.13252 1.16770 0.60510
 C496 C 0.16278 1.12490 0.60822
 N497 N 0.17148 1.10730 0.61786
 C498 C 0.15944 1.10278 0.63558
 H499 H 0.13149 1.09903 0.67951
 H500 H 0.09435 1.15679 0.67626
 H501 H 0.09857 1.18389 0.64184
 H502 H 0.14270 1.16913 0.59099
 H503 H 0.16953 1.13289 0.59435
 H504 H 0.16336 1.09048 0.64726
 C505 C 1.35809 0.63113 0.33918
 C506 C 1.34100 0.63468 0.35389
 C507 C 1.34155 0.65219 0.36790
 C508 C 1.35904 0.66637 0.36741
 C509 C 1.37562 0.66274 0.35297
 C510 C 1.37541 0.64488 0.33929
 C511 C 1.36183 0.61647 0.32262
 N512 N 1.38132 0.62079 0.31333
 C513 C 1.38957 0.63819 0.32365
 C514 C 1.38928 0.67981 0.35413
 N515 N 1.38168 0.69396 0.36919
 C516 C 1.36329 0.68560 0.37772
 C517 C 1.32269 0.65217 0.37965
 N518 N 1.31075 0.63503 0.37342
 C519 C 1.32182 0.62424 0.35766
 H520 H 1.35124 0.60354 0.31793
 H521 H 1.40427 0.64634 0.31931
 H522 H 1.40374 0.68168 0.34453
 H523 H 1.35286 0.69355 0.38938
 H524 H 1.31806 0.66376 0.39196
 H525 H 1.31617 0.61007 0.34928
 C526 C 1.34156 1.14523 0.83273
 C527 C 1.32219 1.14832 0.84437
 C528 C 1.31971 1.16631 0.85742
 C529 C 1.33638 1.18114 0.85935
 C530 C 1.35552 1.17782 0.84850
 C531 C 1.35816 1.15982 0.83510
 C532 C 1.34818 1.13052 0.81722
 N533 N 1.36834 1.13586 0.81051
 C534 C 1.37458 1.15363 0.82147
 C535 C 1.36856 1.19496 0.85303
 N536 N 1.35770 1.20887 0.86636
 C537 C 1.33791 1.20030 0.87025
 C538 C 1.29962 1.16557 0.86665
 N539 N 1.28978 1.14741 0.85991
 C540 C 1.30339 1.13670 0.84622
 H541 H 1.33879 1.11740 0.81076
 H542 H 1.38949 1.16214 0.81876
 H543 H 1.38442 1.19735 0.84619
 H544 H 1.32545 1.20712 0.88052
 H545 H 1.29289 1.17707 0.87807
 H546 H 1.29995 1.12152 0.83842
 C547 C 0.85754 0.62380 0.84510
 C548 C 0.84512 0.62420 0.86394
 C549 C 0.84492 0.64211 0.87733
 C550 C 0.85777 0.65984 0.87208
 C551 C 0.87018 0.65921 0.85344
 C552 C 0.87011 0.64112 0.83996
 C553 C 0.85903 0.60936 0.82824
 N554 N 0.87240 0.61751 0.81311
 C555 C 0.87936 0.63688 0.82017
 C556 C 0.88003 0.67865 0.85151
 N557 N 0.87417 0.69119 0.86857
 C558 C 0.86061 0.67985 0.88133
 C559 C 0.82990 0.63832 0.89335
 N560 N 0.82146 0.61852 0.88997
 C561 C 0.83070 0.60987 0.87203
 H562 H 0.85060 0.59431 0.82679
 H563 H 0.88953 0.64754 0.81107
 H564 H 0.89070 0.68337 0.83859
 H565 H 0.85299 0.68589 0.89594
 H566 H 0.82513 0.64926 0.90620
 H567 H 0.82651 0.59459 0.86484
 C568 C 0.83787 1.15139 0.32565
 C569 C 0.81803 1.15352 0.33667
 C570 C 0.81455 1.17103 0.35012
 C571 C 0.83065 1.18623 0.35320
 C572 C 0.85032 1.18397 0.34288
 C573 C 0.85392 1.16647 0.32887
 C574 C 0.84563 1.13686 0.31054
 N575 N 0.86589 1.14273 0.30461
 C576 C 0.87110 1.16073 0.31588
 C577 C 0.86282 1.20108 0.34934
 N578 N 0.85099 1.21354 0.36317
 C579 C 0.83131 1.20453 0.36558
 C580 C 0.79428 1.16939 0.35874
 N581 N 0.78520 1.15116 0.35117
 C582 C 0.79957 1.14121 0.33767
 H583 H 0.83704 1.12318 0.30412
 H584 H 0.88599 1.16950 0.31414
 H585 H 0.87920 1.20430 0.34426
 H586 H 0.81851 1.21066 0.37590
 H587 H 0.78686 1.18037 0.37025
 H588 H 0.79683 1.12616 0.32936
 C589 C 0.65902 0.35431 0.33112
 C590 C 0.67875 0.35332 0.34276
 C591 C 0.68163 0.33773 0.35840
 C592 C 0.66516 0.32337 0.36295
 C593 C 0.64575 0.32468 0.35200
 C594 C 0.64261 0.34030 0.33614
 C595 C 0.65169 0.36625 0.31372
 N596 N 0.63114 0.36006 0.30849
 C597 C 0.62560 0.34428 0.32240
 C598 C 0.63328 0.30795 0.35881
 N599 N 0.64477 0.29649 0.37365
 C600 C 0.66427 0.30597 0.37636
 C601 C 0.70205 0.33969 0.36678
 N602 N 0.71175 0.35634 0.35705
 C603 C 0.69774 0.36493 0.34232
 H604 H 0.66070 0.37858 0.30563
 H605 H 0.61078 0.33523 0.32182
 H606 H 0.61745 0.30385 0.35260
 H607 H 0.67710 0.30040 0.38697
 H608 H 0.70925 0.32998 0.37942
 H609 H 0.70112 0.37850 0.33213
 C610 C 0.64043 0.87178 0.84139
 C611 C 0.65860 0.86822 0.85485
 C612 C 0.65820 0.85194 0.86998
 C613 C 0.63979 0.83927 0.87213
 C614 C 0.62194 0.84298 0.85920
 C615 C 0.62224 0.85928 0.84381
 C616 C 0.63623 0.88537 0.82424
 N617 N 0.61594 0.88142 0.81659
 C618 C 0.60735 0.86552 0.82853
 C619 C 0.60685 0.82778 0.86409
 N620 N 0.61512 0.81484 0.87973
 C621 C 0.63530 0.82183 0.88478
 C622 C 0.67793 0.85147 0.88026
 N623 N 0.69037 0.86719 0.87206
 C624 C 0.67872 0.87760 0.85652
 H625 H 0.64716 0.89705 0.81767
 H626 H 0.59165 0.85846 0.82578
 H627 H 0.59131 0.82583 0.85622
 H628 H 0.64607 0.81469 0.89663
 H629 H 0.68283 0.84060 0.89300
 H630 H 0.68456 0.89078 0.84698
 C631 C 0.16781 0.34531 0.82496
 C632 C 0.18788 0.34339 0.83569
 C633 C 0.19110 0.32710 0.85044
 C634 C 0.17451 0.31286 0.85498
 C635 C 0.15471 0.31494 0.84478
 C636 C 0.15131 0.33133 0.82970
 C637 C 0.16017 0.35872 0.80898
 N638 N 0.13933 0.35341 0.80399
 C639 C 0.13388 0.33671 0.81689
 C640 C 0.14194 0.29859 0.85210
 N641 N 0.15365 0.28671 0.86645
 C642 C 0.17358 0.29545 0.86831
 C643 C 0.21176 0.32868 0.85835
 N644 N 0.22128 0.34571 0.84904
 C645 C 0.20684 0.35491 0.83514
 H646 H 0.16922 0.37157 0.80183
 H647 H 0.11874 0.32820 0.81636
 H648 H 0.12555 0.29529 0.84692
 H649 H 0.18651 0.28961 0.87865
 H650 H 0.21915 0.31853 0.87053
 H651 H 0.20987 0.36896 0.82550
 C652 C 0.13561 0.86922 0.34253
 C653 C 0.15387 0.86623 0.35603
 C654 C 0.15325 0.85114 0.37237
 C655 C 0.13454 0.83920 0.37573
 C656 C 0.11648 0.84271 0.36301
 C657 C 0.11700 0.85782 0.34645
 C658 C 0.13194 0.88051 0.32364
 N659 N 0.11146 0.87642 0.31635
 C660 C 0.10232 0.86267 0.33052
 C661 C 0.10149 0.82756 0.36834
 N662 N 0.11012 0.81478 0.38388
 C663 C 0.13031 0.82189 0.38863
 C664 C 0.17317 0.85074 0.38229
 N665 N 0.18588 0.86548 0.37281
 C666 C 0.17431 0.87505 0.35667
 H667 H 0.14351 0.89070 0.31578
 H668 H 0.08670 0.85521 0.32859
 H669 H 0.08609 0.82503 0.36036
 H670 H 0.14150 0.81436 0.39984
 H671 H 0.17796 0.84073 0.39577
 H672 H 0.18036 0.88741 0.34618
 O673 O 0.97749 0.92387 0.88933
 O674 O 0.97697 0.89967 0.86313
 C675 C 0.97012 0.91720 0.87132
 C676 C 0.95341 0.92992 0.85980
 C677 C 0.94882 0.92572 0.83798
 H678 H 0.95758 0.91305 0.82958
 O679 O 1.02141 1.07614 0.89183
 O680 O 1.02194 1.10135 0.86702
 C681 C 1.02886 1.08356 0.87434
 C682 C 1.04588 1.07126 0.86274
 C683 C 1.05094 1.07556 0.84103
 H684 H 1.04188 1.08778 0.83241
 O685 O 0.89242 0.98167 0.91940
 O686 O 0.86647 0.98294 0.89482
 C687 C 0.87446 0.97505 0.91204
 C688 C 0.86282 0.95786 0.92345
 C689 C 0.84177 0.95242 0.91712
 H690 H 0.83400 0.96100 0.90398
 O691 O 1.10637 1.01788 0.92332
 O692 O 1.13162 1.01836 0.89822
 C693 C 1.12381 1.02541 0.91596
 C694 C 1.13481 1.04301 0.92768
 C695 C 1.15519 1.04976 0.92086
 H696 H 1.16319 1.04156 0.90754
 O697 O 0.92102 0.89478 0.97519
 O698 O 0.89581 0.87006 0.97450
 C699 C 0.91352 0.87743 0.96756
 C700 C 0.92537 0.86570 0.95039
 C701 C 0.92032 0.84439 0.94559
 H702 H 0.90782 0.83647 0.95471
 O703 O 1.07559 1.10569 0.98196
 O704 O 1.10082 1.13039 0.98244
 C705 C 1.08313 1.12316 0.97501
 C706 C 1.07155 1.13464 0.95754
 C707 C 1.07794 1.15516 0.95116
 H708 H 1.09093 1.16316 0.95970
 O709 O 0.92111 1.02359 0.88982
 O710 O 0.89518 1.02499 0.86523
 C711 C 0.91311 1.03160 0.87263
 C712 C 0.92472 1.04904 0.86161
 C713 C 0.91693 1.05806 0.84217
 H714 H 0.90245 1.05183 0.83458
 O715 O 1.07717 0.97697 0.89202
 O716 O 1.10241 0.97737 0.86688
 C717 C 1.08477 0.97007 0.87419
 C718 C 1.07338 0.95293 0.86214
 C719 C 1.08145 0.94539 0.84230
 H720 H 1.09532 0.95309 0.83523
 O721 O 1.01946 0.89257 0.91773
 O722 O 1.01865 0.86820 0.89171
 C723 C 1.02646 0.87518 0.90943
 C724 C 1.04425 0.86317 0.92011
 C725 C 1.05114 0.84334 0.91170
 H726 H 1.04281 0.83640 0.89791
 O727 O 0.97933 1.10540 0.92166
 O728 O 0.97943 1.13094 0.89718
 C729 C 0.97197 1.12304 0.91450
 C730 C 0.95422 1.13406 0.92628
 C731 C 0.94431 1.15260 0.91788
 H732 H 0.94997 1.15913 0.90276
 O733 O 0.89732 1.07705 0.98207
 O734 O 0.87195 1.10216 0.98384
 C735 C 0.87937 1.08487 0.97561
 C736 C 0.86720 1.07428 0.95789
 C737 C 0.84664 1.08202 0.95212
 H738 H 0.83924 1.09475 0.96165
 O739 O 1.10735 0.91793 0.97464
 O740 O 1.13228 0.89236 0.97347
 C741 C 1.12479 0.91022 0.96692
 C742 C 1.13611 0.92166 0.94957
 C743 C 1.15509 0.91295 0.94070
 H744 H 1.16225 0.89875 0.94785
 O745 O 0.97931 1.07704 0.89121
 O746 O 0.97982 1.10248 0.86663
 C747 C 0.97212 1.08517 0.87378
 C748 C 0.95406 1.07487 0.86214
 C749 C 0.94633 1.08345 0.84268
 H750 H 0.95425 1.09717 0.83576
 O751 O 1.01966 0.92208 0.88881
 O752 O 1.01919 0.89781 0.86269
 C753 C 1.02700 0.91474 0.87103
 C754 C 1.04523 0.92574 0.86048
 C755 C 1.05379 0.91819 0.84073
 H756 H 1.04671 0.90438 0.83284
 O757 O 1.10816 0.97590 0.92032
 O758 O 1.13343 0.97646 0.89525
 C759 C 1.12571 0.96853 0.91234
 C760 C 1.13666 0.95000 0.92264
 C761 C 1.15545 0.94069 0.91353
 H762 H 1.16243 0.94751 0.89913
 O763 O 0.89378 1.02331 0.92146
 O764 O 0.86759 1.02485 0.89716
 C765 C 0.87603 1.03133 0.91485
 C766 C 0.86549 1.04856 0.92786
 C767 C 0.84501 1.05687 0.92209
 H768 H 0.83666 1.05057 0.90801
 O769 O 0.92674 1.10618 0.98175
 O770 O 0.90127 1.13120 0.98308
 C771 C 0.91848 1.12356 0.97475
 C772 C 0.92834 1.13444 0.95607
 C773 C 0.91882 1.15312 0.94760
 H774 H 0.90513 1.16045 0.95581
 O775 O 1.07789 0.88878 0.97362
 O776 O 1.10269 0.86311 0.97220
 C777 C 1.08507 0.87139 0.96540
 C778 C 1.07294 0.86113 0.94742
 C779 C 1.07949 0.84113 0.93887
 H780 H 1.09326 0.83268 0.94579
 O781 O 1.07796 1.01865 0.89234
 O782 O 1.10319 1.01890 0.86717
 C783 C 1.08548 1.02604 0.87483
 C784 C 1.07355 1.04309 0.86324
 C785 C 1.07865 1.04775 0.84174
 H786 H 1.09164 1.03893 0.83386
 O787 O 0.92175 0.98195 0.88965
 O788 O 0.89618 0.98308 0.86466
 C789 C 0.91393 0.97531 0.87186
 C790 C 0.92572 0.95822 0.85984
 C791 C 0.92119 0.95371 0.83795
 H792 H 0.90896 0.96298 0.82944
 O793 O 1.02114 1.10505 0.92238
 O794 O 1.02149 1.13056 0.89788
 C795 C 1.02829 1.12275 0.91560
 C796 C 1.04480 1.13426 0.92835
 C797 C 1.05116 1.15486 0.92238
 H798 H 1.04369 1.16254 0.90851
 O799 O 0.97731 0.89324 0.91756
 O800 O 0.97643 0.86873 0.89168
 C801 C 0.96962 0.87608 0.90968
 C802 C 0.95250 0.86488 0.92174
 C803 C 0.94700 0.84352 0.91690
 H804 H 0.95540 0.83485 0.90414
 O805 O 1.10539 1.07617 0.98004
 O806 O 1.13076 1.10072 0.98035
 C807 C 1.12295 1.08351 0.97262
 C808 C 1.13425 1.07187 0.95479
 C809 C 1.15455 1.07864 0.94733
 H810 H 1.16225 1.09241 0.95469
 O811 O 0.89116 0.92449 0.97581
 O812 O 0.86583 0.89993 0.97485
 C813 C 0.87352 0.91742 0.96805
 C814 C 0.86220 0.92959 0.95068
 C815 C 0.84108 0.92427 0.94395
 H816 H 0.83262 0.91143 0.95186
 Cu817 Cu 0.99844 0.91038 0.90596
 Cu818 Cu 0.99761 0.88115 0.87467
 Cu819 Cu 1.00038 1.08830 0.90919
 Cu820 Cu 1.00086 1.11891 0.87967
 Cu821 Cu 0.90986 1.00253 0.90747
 Cu822 Cu 0.87870 1.00403 0.87804
 Cu823 Cu 1.08996 0.99730 0.90959
 Cu824 Cu 1.12024 0.99787 0.87943
 C825 C 0.94196 0.94632 0.87053
 H826 H 0.94545 0.94955 0.88744
 C827 C 0.93300 0.93768 0.82683
 C828 C 1.05708 1.05480 0.87357
 H829 H 1.05329 1.05137 0.89029
 C830 C 1.06718 1.06361 0.83027
 C831 C 0.87281 0.94652 0.94039
 H832 H 0.88912 0.95059 0.94525
 C833 C 0.83065 0.93584 0.92734
 C834 C 1.12456 1.05396 0.94486
 H835 H 1.10876 1.04886 0.95014
 C836 C 1.16516 1.06748 0.93052
 C837 C 0.94165 0.87574 0.93860
 H838 H 0.94557 0.89223 0.94230
 C839 C 0.93116 0.83309 0.92912
 C840 C 1.05483 1.12442 0.94616
 H841 H 1.05011 1.10841 0.95069
 C842 C 1.06770 1.16538 0.93367
 C843 C 0.94341 1.05748 0.87128
 H844 H 0.94927 1.05099 0.88645
 C845 C 0.92782 1.07522 0.83254
 C846 C 1.05511 0.94318 0.87097
 H847 H 1.04894 0.94881 0.88641
 C848 C 1.07202 0.92786 0.83159
 C849 C 1.05514 0.87189 0.93804
 H850 H 1.05011 0.88740 0.94434
 C851 C 1.06869 0.83225 0.92092
 C852 C 0.94619 1.12520 0.94544
 H853 H 0.95344 1.11064 0.95177
 C854 C 0.92648 1.16218 0.92837
 C855 C 0.87642 1.05738 0.94584
 H856 H 0.89241 1.05147 0.95015
 C857 C 0.83553 1.07371 0.93414
 C858 C 1.12719 0.94037 0.94069
 H859 H 1.11238 0.94703 0.94740
 C860 C 1.16463 0.92196 0.92238
 O861 O 1.02428 0.91555 1.10370
 O862 O 1.02473 0.88978 1.12789
 C863 C 1.03224 0.90723 1.12071
 C864 C 1.05071 0.91792 1.13170
 C865 C 1.05951 0.91012 1.15128
 H866 H 1.05254 0.89625 1.15888
 O867 O 0.98052 1.07168 1.11291
 O868 O 0.98098 1.09581 1.13913
 C869 C 0.97305 1.07903 1.13068
 C870 C 0.95445 1.06832 1.14105
 C871 C 0.94388 1.07770 1.15906
 H872 H 0.94975 1.09255 1.16595
 O873 O 0.89609 1.01670 1.07972
 O874 O 0.87053 1.01702 1.10453
 C875 C 0.87871 1.02462 1.08735
 C876 C 0.86847 1.04329 1.07648
 C877 C 0.84872 1.05195 1.08397
 H878 H 0.84042 1.04459 1.09737
 O879 O 1.10978 0.97262 1.07327
 O880 O 1.13566 0.97198 1.09795
 C881 C 1.12754 0.96497 1.08041
 C882 C 1.13845 0.94709 1.06884
 C883 C 1.15793 0.93862 1.07688
 H884 H 1.16567 0.94619 1.09068
 O885 O 1.07796 0.88791 1.01575
 O886 O 1.10279 0.86226 1.01433
 C887 C 1.08536 0.86999 1.02213
 C888 C 1.07376 0.85806 1.03893
 C889 C 1.08009 0.83708 1.04394
 H890 H 1.09360 0.82981 1.03540
 O891 O 0.92782 1.10595 1.02426
 O892 O 0.90280 1.13143 1.02534
 C893 C 0.92050 1.12344 1.03217
 C894 C 0.93237 1.13407 1.05003
 C895 C 0.92765 1.15535 1.05620
 H896 H 0.91591 1.16455 1.04698
 O897 O 0.92435 0.97324 1.10812
 O898 O 0.89912 0.97296 1.13324
 C899 C 0.91664 0.96542 1.12530
 C900 C 0.92807 0.94707 1.13565
 C901 C 0.92007 0.93767 1.15461
 H902 H 0.90535 0.94397 1.16182
 O903 O 1.08030 1.01323 1.10551
 O904 O 1.10631 1.01238 1.13005
 C905 C 1.08818 1.01958 1.12343
 C906 C 1.07643 1.03579 1.13658
 C907 C 1.08322 1.04039 1.15776
 H908 H 1.09608 1.03079 1.16479
 O909 O 0.98028 0.88940 1.07369
 O910 O 0.98016 0.86342 1.09766
 C911 C 0.97247 0.87206 1.08062
 C912 C 0.95395 0.86217 1.06897
 C913 C 0.94616 0.84210 1.07524
 H914 H 0.95433 0.83339 1.08805
 O915 O 1.02339 1.10052 1.08418
 O916 O 1.02413 1.12445 1.11061
 C917 C 1.03103 1.11755 1.09248
 C918 C 1.04810 1.12945 1.08097
 C919 C 1.05472 1.14956 1.08863
 H920 H 1.04734 1.15626 1.10308
 O921 O 0.89132 0.92342 1.01828
 O922 O 0.86609 0.89875 1.01724
 C923 C 0.87387 0.91569 1.02548
 C924 C 0.86306 0.92582 1.04434
 C925 C 0.84426 0.91684 1.05285
 H926 H 0.83678 0.90348 1.04454
 O927 O 1.10582 1.07409 1.02193
 O928 O 1.13135 1.09850 1.02227
 C929 C 1.12386 1.08083 1.02885
 C930 C 1.13632 1.06802 1.04467
 C931 C 1.15792 1.07292 1.04906
 H932 H 1.16527 1.08627 1.04088
 O933 O 1.02292 1.06960 1.11182
 O934 O 1.02372 1.09334 1.13842
 C935 C 1.03078 1.07615 1.12963
 C936 C 1.04867 1.06375 1.13970
 C937 C 1.05632 1.06884 1.16055
 H938 H 1.04904 1.08215 1.16929
 O939 O 0.98194 0.91693 1.10509
 O940 O 0.98218 0.89115 1.12928
 C941 C 0.97482 0.90899 1.12250
 C942 C 0.95705 0.92003 1.13444
 C943 C 0.94933 0.91145 1.15378
 H944 H 0.95787 0.89797 1.16087
 O945 O 1.10961 1.01454 1.07525
 O946 O 1.13575 1.01374 1.09965
 C947 C 1.12749 1.02151 1.08252
 C948 C 1.13841 1.03905 1.07096
 C949 C 1.16019 1.04420 1.07520
 H950 H 1.16946 1.03497 1.08685
 O951 O 0.89341 0.97503 1.07955
 O952 O 0.86809 0.97508 1.10458
 C953 C 0.87557 0.96807 1.08678
 C954 C 0.86390 0.95117 1.07462
 C955 C 0.84506 0.94184 1.08303
 H956 H 0.83850 0.94748 1.09831
 O957 O 1.07728 1.10459 1.02442
 O958 O 1.10251 1.12925 1.02502
 C959 C 1.08524 1.12150 1.03265
 C960 C 1.07448 1.13172 1.05165
 C961 C 1.08091 1.15191 1.05962
 H962 H 1.09343 1.16062 1.05134
 O963 O 0.92121 0.89404 1.01743
 O964 O 0.89597 0.86937 1.01655
 C965 C 0.91362 0.87652 1.02426
 C966 C 0.92523 0.86447 1.04155
 C967 C 0.91765 0.84447 1.04825
 H968 H 0.90333 0.83789 1.04067
 O969 O 1.08092 0.97160 1.10323
 O970 O 1.10682 0.97088 1.12790
 C971 C 1.08914 0.96371 1.12032
 C972 C 1.07838 0.94570 1.13125
 C973 C 1.08680 0.93774 1.15069
 H974 H 1.10059 0.94549 1.15813
 O975 O 0.92426 1.01520 1.11060
 O976 O 0.89886 1.01503 1.13555
 C977 C 0.91643 1.02240 1.12825
 C978 C 0.92706 1.04034 1.13984
 C979 C 0.91697 1.04979 1.15789
 H980 H 0.90234 1.04284 1.16423
 O981 O 0.98154 1.10113 1.08367
 O982 O 0.98224 1.12554 1.10967
 C983 C 0.97492 1.11880 1.09161
 C984 C 0.95861 1.13150 1.07955
 C985 C 0.95354 1.15260 1.08572
 H986 H 0.96141 1.15946 1.09980
 O987 O 1.02242 0.88645 1.07348
 O988 O 1.02249 0.86045 1.09742
 C989 C 1.02945 0.86836 1.07995
 C990 C 1.04634 0.85692 1.06718
 C991 C 1.05273 0.83567 1.07189
 H992 H 1.04453 0.82705 1.08453
 O993 O 1.10856 0.91589 1.01655
 O994 O 1.13353 0.89037 1.01554
 C995 C 1.12621 0.90781 1.02351
 C996 C 1.13787 0.91875 1.04135
 C997 C 1.15743 0.91038 1.04974
 H998 H 1.16453 0.89595 1.04283
 O999 O 0.89914 1.07581 1.02432
 O1000 O 0.87413 1.10127 1.02578
 C1001 C 0.88181 1.08349 1.03238
 C1002 C 0.87041 1.07202 1.04978
 C1003 C 0.85079 1.08033 1.05758
 H1004 H 0.84375 1.09456 1.05032
 Cu1005 Cu 1.00234 0.90465 1.08663
 Cu1006 Cu 1.00239 0.87365 1.11551
 Cu1007 Cu 1.00201 1.08322 1.09565
 Cu1008 Cu 1.00281 1.11209 1.12722
 Cu1009 Cu 0.90863 0.91173 0.99668
 Cu1010 Cu 0.87836 0.88210 0.99563
 Cu1011 Cu 1.09043 0.90519 0.99529
 Cu1012 Cu 1.12034 0.87444 0.99376
 Cu1013 Cu 0.91540 1.08880 1.00301
 Cu1014 Cu 0.88501 1.11903 1.00472
 Cu1015 Cu 1.08837 1.08782 1.00202
 Cu1016 Cu 1.11884 1.11726 1.00261
 Cu1017 Cu 0.91205 0.99491 1.09205
 Cu1018 Cu 0.88166 0.99502 1.12199
 Cu1019 Cu 1.09260 0.99324 1.08677
 Cu1020 Cu 1.12376 0.99228 1.11635
 C1021 C 1.06027 0.93580 1.12195
 H1022 H 1.05388 0.94179 1.10678
 C1023 C 1.07770 0.91993 1.16077
 C1024 C 0.94593 1.04958 1.13168
 H1025 H 0.95355 1.04258 1.11749
 C1026 C 0.92487 1.06869 1.16732
 C1027 C 0.87914 1.05340 1.05922
 H1028 H 0.89449 1.04708 1.05348
 C1029 C 0.83995 1.07059 1.07466
 C1030 C 1.12865 0.93721 1.05095
 H1031 H 1.11339 0.94353 1.04492
 C1032 C 1.16738 0.92017 1.06771
 C1033 C 1.05679 0.86778 1.05045
 H1034 H 1.05214 0.88414 1.04680
 C1035 C 1.06955 0.82553 1.06012
 C1036 C 0.94806 1.12244 1.06162
 H1037 H 0.95168 1.10602 1.05699
 C1038 C 0.93833 1.16486 1.07397
 C1039 C 0.94655 0.93806 1.12571
 H1040 H 0.95241 0.94469 1.11071
 C1041 C 0.93055 0.91971 1.16379
 C1042 C 1.05888 1.04723 1.12785
 H1043 H 1.05356 1.04366 1.11150
 C1044 C 1.07358 1.05711 1.16987
 C1045 C 0.94348 0.87314 1.05196
 H1046 H 0.94925 0.88869 1.04712
 C1047 C 0.92802 0.83308 1.06498
 C1048 C 1.05793 1.12077 1.06239
 H1049 H 1.05298 1.10518 1.05652
 C1050 C 1.07089 1.16109 1.07799
 C1051 C 0.87260 0.94313 1.05517
 H1052 H 0.88734 0.94986 1.04885
 C1053 C 0.83531 0.92446 1.07233
 C1054 C 1.12674 1.05095 1.05550
 H1055 H 1.10996 1.04723 1.05222
 C1056 C 1.17015 1.06096 1.06396
 O1057 O 0.98362 0.41544 0.40210
 O1058 O 0.98329 0.38876 0.37850
 C1059 C 0.97613 0.40686 0.38495
 C1060 C 0.95864 0.41801 0.37280
 C1061 C 0.94930 0.40869 0.35416
 H1062 H 0.95507 0.39327 0.34829
 O1063 O 1.02957 0.57325 0.39453
 O1064 O 1.03070 0.59660 0.36797
 C1065 C 1.03751 0.57942 0.37672
 C1066 C 1.05497 0.56648 0.36637
 C1067 C 1.06353 0.57221 0.34615
 H1068 H 1.05740 0.58638 0.33807
 O1069 O 0.89916 0.47797 0.42578
 O1070 O 0.87471 0.47732 0.39967
 C1071 C 0.88162 0.47079 0.41792
 C1072 C 0.86935 0.45432 0.42975
 C1073 C 0.84898 0.44800 0.42216
 H1074 H 0.84186 0.45571 0.40813
 O1075 O 1.11399 0.51323 0.42664
 O1076 O 1.13923 0.51056 0.40160
 C1077 C 1.13187 0.51928 0.41875
 C1078 C 1.14393 0.53694 0.42941
 C1079 C 1.16445 0.54281 0.42198
 H1080 H 1.17164 0.53413 0.40852
 O1081 O 0.92346 0.39375 0.48886
 O1082 O 0.89805 0.36927 0.48907
 C1083 C 0.91609 0.37598 0.48219
 C1084 C 0.92851 0.36337 0.46590
 C1085 C 0.92162 0.34295 0.45919
 H1086 H 0.90736 0.33598 0.46630
 O1087 O 1.08714 0.60230 0.47906
 O1088 O 1.11284 0.62651 0.47854
 C1089 C 1.09512 0.61920 0.47124
 C1090 C 1.08382 0.63033 0.45335
 C1091 C 1.09169 0.64973 0.44554
 H1092 H 1.10574 0.65691 0.45308
 O1093 O 0.93018 0.51731 0.39472
 O1094 O 0.90594 0.51636 0.36845
 C1095 C 0.92332 0.52377 0.37644
 C1096 C 0.93539 0.54047 0.36471
 C1097 C 0.92895 0.54698 0.34384
 H1098 H 0.91549 0.53925 0.33583
 O1099 O 1.08318 0.47088 0.39884
 O1100 O 1.10802 0.46856 0.37338
 C1101 C 1.09034 0.46233 0.38148
 C1102 C 1.07814 0.44465 0.37107
 C1103 C 1.08356 0.43689 0.35026
 H1104 H 1.09644 0.44431 0.34128
 O1105 O 1.02550 0.38758 0.43389
 O1106 O 1.02565 0.36088 0.41031
 C1107 C 1.03288 0.36953 0.42751
 C1108 C 1.05031 0.35886 0.44014
 C1109 C 1.05685 0.33765 0.43553
 H1110 H 1.04855 0.32866 0.42301
 O1111 O 0.98683 0.60523 0.42101
 O1112 O 0.98743 0.62864 0.39451
 C1113 C 0.97940 0.62210 0.41213
 C1114 C 0.96066 0.63349 0.42211
 C1115 C 0.95118 0.65175 0.41240
 H1116 H 0.95809 0.65829 0.39782
 O1117 O 0.89773 0.57861 0.47681
 O1118 O 0.87255 0.60389 0.47530
 C1119 C 0.88031 0.58613 0.46870
 C1120 C 0.86957 0.57445 0.45080
 C1121 C 0.85090 0.58289 0.44074
 H1122 H 0.84385 0.59778 0.44663
 O1123 O 1.11180 0.42015 0.49028
 O1124 O 1.13664 0.39457 0.49214
 C1125 C 1.12922 0.41154 0.48347
 C1126 C 1.14022 0.42059 0.46446
 C1127 C 1.15805 0.40980 0.45530
 H1128 H 1.16493 0.39600 0.46343
 O1129 O 0.98757 0.57323 0.39430
 O1130 O 0.98852 0.59640 0.36755
 C1131 C 0.98085 0.57959 0.37599
 C1132 C 0.96361 0.56763 0.36460
 C1133 C 0.95709 0.57371 0.34378
 H1134 H 0.96504 0.58691 0.33592
 O1135 O 1.02572 0.41561 0.40314
 O1136 O 1.02545 0.38911 0.37932
 C1137 C 1.03283 0.40695 0.38588
 C1138 C 1.04997 0.41762 0.37342
 C1139 C 1.05547 0.41021 0.35267
 H1140 H 1.04695 0.39672 0.34572
 O1141 O 1.11207 0.47157 0.42938
 O1142 O 1.13696 0.46884 0.40400
 C1143 C 1.12923 0.46292 0.42199
 C1144 C 1.13989 0.44533 0.43406
 C1145 C 1.15735 0.43397 0.42485
 H1146 H 1.16315 0.43843 0.40901
 O1147 O 0.89926 0.51967 0.42306
 O1148 O 0.87506 0.51883 0.39674
 C1149 C 0.88207 0.52692 0.41428
 C1150 C 0.87054 0.54543 0.42414
 C1151 C 0.85176 0.55391 0.41443
 H1152 H 0.84493 0.54596 0.40039
 O1153 O 0.92829 0.60661 0.47582
 O1154 O 0.90306 0.63185 0.47441
 C1155 C 0.92071 0.62371 0.46757
 C1156 C 0.93201 0.63393 0.44933
 C1157 C 0.92293 0.65209 0.43952
 H1158 H 0.90830 0.65925 0.44614
 O1159 O 1.08203 0.39144 0.49124
 O1160 O 1.10684 0.36583 0.49350
 C1161 C 1.08948 0.37328 0.48527
 C1162 C 1.07797 0.36083 0.46842
 C1163 C 1.08435 0.33970 0.46356
 H1164 H 1.09778 0.33250 0.47230
 O1165 O 1.08331 0.51277 0.39793
 O1166 O 1.10847 0.51034 0.37279
 C1167 C 1.09114 0.51881 0.38007
 C1168 C 1.08057 0.53639 0.36794
 C1169 C 1.08834 0.54192 0.34752
 H1170 H 1.10088 0.53209 0.34012
 O1171 O 0.92967 0.47536 0.39724
 O1172 O 0.90522 0.47461 0.37116
 C1173 C 0.92230 0.46710 0.37991
 C1174 C 0.93290 0.44792 0.37028
 C1175 C 0.92420 0.43867 0.35153
 H1176 H 0.91094 0.44669 0.34326
 O1177 O 1.02918 0.60384 0.42305
 O1178 O 1.03009 0.62741 0.39668
 C1179 C 1.03709 0.62053 0.41475
 C1180 C 1.05518 0.63139 0.42594
 C1181 C 1.06323 0.65093 0.41840
 H1182 H 1.05564 0.65875 0.40468
 O1183 O 0.98327 0.38919 0.43439
 O1184 O 0.98342 0.36242 0.41089
 C1185 C 0.97594 0.37135 0.42789
 C1186 C 0.95810 0.36111 0.43975
 C1187 C 0.95126 0.34061 0.43366
 H1188 H 0.95961 0.33198 0.42084
 O1189 O 1.11634 0.57234 0.48085
 O1190 O 1.14223 0.59631 0.48025
 C1191 C 1.13419 0.57886 0.47336
 C1192 C 1.14518 0.56614 0.45609
 C1193 C 1.16575 0.57177 0.44840
 H1194 H 1.17418 0.58510 0.45575
 O1195 O 0.89465 0.42399 0.48537
 O1196 O 0.86891 0.39984 0.48528
 C1197 C 0.87733 0.41654 0.47732
 C1198 C 0.86726 0.42737 0.45833
 C1199 C 0.84707 0.42090 0.45002
 H1200 H 0.83841 0.40796 0.45755
 Cu1201 Cu 1.00456 0.40460 0.42075
 Cu1202 Cu 1.00448 0.37259 0.39241
 Cu1203 Cu 1.00824 0.58668 0.41095
 Cu1204 Cu 1.00926 0.61467 0.37905
 Cu1205 Cu 0.91706 0.49775 0.41279
 Cu1206 Cu 0.88784 0.49666 0.38135
 Cu1207 Cu 1.09563 0.49232 0.41571
 Cu1208 Cu 1.12569 0.48936 0.38542
 C1209 C 0.95030 0.43764 0.38069
 H1210 H 0.95691 0.44464 0.39535
 C1211 C 0.93180 0.41886 0.34364
 C1212 C 1.06368 0.54855 0.37714
 H1213 H 1.05766 0.54433 0.39296
 C1214 C 1.08032 0.55999 0.33661
 C1215 C 0.87823 0.44414 0.44803
 H1216 H 0.89397 0.44896 0.45394
 C1217 C 0.83781 0.43139 0.43210
 C1218 C 1.13456 0.54859 0.44658
 H1219 H 1.11862 0.54429 0.45221
 C1220 C 1.17560 0.56008 0.43141
 C1221 C 0.94687 0.37224 0.45614
 H1222 H 0.95200 0.38816 0.46077
 C1223 C 0.93307 0.33147 0.44319
 C1224 C 1.06547 0.62136 0.44358
 H1225 H 1.05955 0.60618 0.44935
 C1226 C 1.08156 0.66010 0.42811
 C1227 C 0.95287 0.55081 0.37485
 H1228 H 0.95770 0.54620 0.39105
 C1229 C 0.93986 0.56352 0.33324
 C1230 C 1.06119 0.43498 0.38237
 H1231 H 1.05708 0.44064 0.39847
 C1232 C 1.07205 0.41982 0.34084
 C1233 C 1.06085 0.37020 0.45675
 H1234 H 1.05603 0.38659 0.46030
 C1235 C 1.07380 0.32787 0.44729
 C1236 C 0.95098 0.62487 0.44066
 H1237 H 0.95783 0.61061 0.44801
 C1238 C 0.93210 0.66093 0.42094
 C1239 C 0.87912 0.55563 0.44248
 H1240 H 0.89377 0.54932 0.44985
 C1241 C 0.84193 0.57278 0.42243
 C1242 C 1.13148 0.43857 0.45391
 H1243 H 1.11754 0.44681 0.46074
 C1244 C 1.16640 0.41602 0.43522
 O1245 O 1.02323 0.42786 0.61648
 O1246 O 1.02306 0.40385 0.64247
 C1247 C 1.03094 0.42055 0.63412
 C1248 C 1.04971 0.43119 0.64454
 C1249 C 1.06056 0.42166 0.66223
 H1250 H 1.05494 0.40661 0.66859
 O1251 O 0.98315 0.58279 0.60434
 O1252 O 0.98316 0.60881 0.62872
 C1253 C 0.97593 0.59103 0.62173
 C1254 C 0.95918 0.57969 0.63409
 C1255 C 0.95467 0.58574 0.65551
 H1256 H 0.96316 0.59913 0.66267
 O1257 O 0.89553 0.52647 0.57965
 O1258 O 0.87064 0.52990 0.60494
 C1259 C 0.87858 0.53562 0.58697
 C1260 C 0.86842 0.55348 0.57476
 C1261 C 0.84992 0.56411 0.58289
 H1262 H 0.84277 0.55891 0.59791
 O1263 O 1.11090 0.48204 0.58699
 O1264 O 1.13560 0.48299 0.61285
 C1265 C 1.12824 0.47480 0.59546
 C1266 C 1.13944 0.45624 0.58524
 C1267 C 1.15882 0.44791 0.59399
 H1268 H 1.16613 0.45549 0.60801
 O1269 O 1.08121 0.39393 0.53319
 O1270 O 1.10615 0.36845 0.53535
 C1271 C 1.08837 0.37674 0.54162
 C1272 C 1.07593 0.36653 0.55904
 C1273 C 1.08250 0.34666 0.56756
 H1274 H 1.09685 0.33869 0.56127
 O1275 O 0.92741 0.60947 0.51790
 O1276 O 0.90222 0.63474 0.51634
 C1277 C 0.91974 0.62739 0.52428
 C1278 C 0.93081 0.63942 0.54171
 C1279 C 0.92217 0.65896 0.54915
 H1280 H 0.90820 0.66589 0.54104
 O1281 O 0.92264 0.48486 0.61207
 O1282 O 0.89735 0.48746 0.63706
 C1283 C 0.91467 0.47888 0.62996
 C1284 C 0.92560 0.46144 0.64216
 C1285 C 0.91616 0.45250 0.66075
 H1286 H 0.90081 0.45863 0.66669
 O1287 O 1.08084 0.52581 0.61347
 O1288 O 1.10513 0.52690 0.63970
 C1289 C 1.08780 0.53393 0.63104
 C1290 C 1.07563 0.55194 0.64109
 C1291 C 1.07970 0.55846 0.66255
 H1292 H 1.09160 0.54987 0.67216
 O1293 O 0.97943 0.39927 0.58788
 O1294 O 0.97903 0.37565 0.61423
 C1295 C 0.97146 0.38268 0.59646
 C1296 C 0.95265 0.37188 0.58626
 C1297 C 0.94312 0.35446 0.59660
 H1298 H 0.95034 0.34823 0.61130
 O1299 O 1.02616 0.60950 0.57444
 O1300 O 1.02585 0.63604 0.59822
 C1301 C 1.03352 0.62719 0.58122
 C1302 C 1.05126 0.63750 0.56929
 C1303 C 1.05584 0.65912 0.57291
 H1304 H 1.04628 0.66823 0.58450
 O1305 O 0.89212 0.42638 0.52755
 O1306 O 0.86626 0.40236 0.52777
 C1307 C 0.87404 0.41993 0.53457
 C1308 C 0.86256 0.43281 0.55135
 C1309 C 0.84164 0.42755 0.55828
 H1310 H 0.83320 0.41447 0.55050
 O1311 O 1.11554 0.57454 0.52316
 O1312 O 1.14133 0.59864 0.52279
 C1313 C 1.13310 0.58190 0.53072
 C1314 C 1.14364 0.57111 0.54930
 C1315 C 1.16482 0.57625 0.55568
 H1316 H 1.17394 0.58754 0.54624
 O1317 O 1.02508 0.58353 0.60708
 O1318 O 1.02495 0.61000 0.63096
 C1319 C 1.03198 0.59185 0.62463
 C1320 C 1.04830 0.58028 0.63778
 C1321 C 1.05249 0.58658 0.65923
 H1322 H 1.04370 0.60008 0.66615
 O1323 O 0.98079 0.43014 0.61602
 O1324 O 0.98068 0.40643 0.64229
 C1325 C 0.97333 0.42354 0.63384
 C1326 C 0.95496 0.43497 0.64420
 C1327 C 0.94566 0.42663 0.66288
 H1328 H 0.95332 0.41308 0.67078
 O1329 O 1.11113 0.52356 0.58450
 O1330 O 1.13570 0.52456 0.61047
 C1331 C 1.12876 0.53072 0.59214
 C1332 C 1.14128 0.54636 0.57956
 C1333 C 1.16233 0.55188 0.58591
 H1334 H 1.16928 0.54479 0.60033
 O1335 O 0.89377 0.48475 0.58147
 O1336 O 0.86836 0.48797 0.60627
 C1337 C 0.87571 0.47911 0.58916
 C1338 C 0.86353 0.46177 0.57822
 C1339 C 0.84270 0.45626 0.58503
 H1340 H 0.83533 0.46499 0.59836
 O1341 O 1.08639 0.60464 0.52090
 O1342 O 1.11180 0.62914 0.52049
 C1343 C 1.09375 0.62248 0.52744
 C1344 C 1.08097 0.63535 0.54327
 C1345 C 1.08537 0.65715 0.54715
 H1346 H 1.09826 0.66486 0.53843
 O1347 O 0.92170 0.39695 0.53092
 O1348 O 0.89609 0.37268 0.53155
 C1349 C 0.91349 0.38041 0.53929
 C1350 C 0.92412 0.37064 0.55858
 C1351 C 0.91476 0.35322 0.56937
 H1352 H 0.89984 0.34642 0.56333
 O1353 O 1.08009 0.48399 0.61498
 O1354 O 1.10476 0.48500 0.64086
 C1355 C 1.08748 0.47728 0.63293
 C1356 C 1.07679 0.45941 0.64413
 C1357 C 1.08688 0.45008 0.66214
 H1358 H 1.10123 0.45739 0.66891
 O1359 O 0.92588 0.52618 0.60850
 O1360 O 0.90123 0.52898 0.63414
 C1361 C 0.91907 0.53474 0.62591
 C1362 C 0.93184 0.55186 0.63638
 C1363 C 0.92793 0.55780 0.65797
 H1364 H 0.91623 0.54899 0.66725
 O1365 O 0.98375 0.61240 0.57521
 O1366 O 0.98348 0.63860 0.59934
 C1367 C 0.97622 0.63026 0.58205
 C1368 C 0.95832 0.64095 0.57013
 C1369 C 0.94924 0.66046 0.57759
 H1370 H 0.95582 0.66821 0.59187
 O1371 O 1.02182 0.39777 0.58738
 O1372 O 1.02117 0.37383 0.61344
 C1373 C 1.02869 0.38039 0.59562
 C1374 C 1.04628 0.36814 0.58494
 C1375 C 1.05272 0.34809 0.59291
 H1376 H 1.04355 0.34092 0.60581
 O1377 O 1.11094 0.42287 0.53257
 O1378 O 1.13595 0.39744 0.53445
 C1379 C 1.12828 0.41538 0.54080
 C1380 C 1.13930 0.42725 0.55841
 C1381 C 1.15861 0.41922 0.56733
 H1382 H 1.16605 0.40493 0.56046
 O1383 O 0.89825 0.57998 0.51926
 O1384 O 0.87316 0.60533 0.51762
 C1385 C 0.88074 0.58835 0.52616
 C1386 C 0.86945 0.57895 0.54488
 C1387 C 0.85085 0.58910 0.55315
 H1388 H 0.84404 0.60288 0.54490
 Cu1389 Cu 1.00142 0.41618 0.59934
 Cu1390 Cu 1.00095 0.38759 0.63075
 Cu1391 Cu 1.00459 0.59453 0.58779
 Cu1392 Cu 1.00434 0.62605 0.61663
 Cu1393 Cu 0.91047 0.41268 0.50814
 Cu1394 Cu 0.87977 0.38359 0.50838
 Cu1395 Cu 1.09404 0.40972 0.51166
 Cu1396 Cu 1.12402 0.37911 0.51410
 Cu1397 Cu 0.91540 0.59106 0.49759
 Cu1398 Cu 0.88519 0.62146 0.49579
 Cu1399 Cu 1.09889 0.58597 0.50109
 Cu1400 Cu 1.12972 0.61502 0.50052
 Cu1401 Cu 0.91192 0.50517 0.59291
 Cu1402 Cu 0.88184 0.50894 0.62309
 Cu1403 Cu 1.09325 0.50387 0.59741
 Cu1404 Cu 1.12270 0.50509 0.62866
 C1405 C 1.05804 0.45003 0.63559
 H1406 H 1.05033 0.45704 0.62150
 C1407 C 1.07946 0.43084 0.67087
 C1408 C 0.94776 0.56266 0.62465
 H1409 H 0.95092 0.55812 0.60799
 C1410 C 0.93935 0.57469 0.66774
 C1411 C 0.87802 0.56099 0.55567
 H1412 H 0.89258 0.55327 0.54956
 C1413 C 0.84118 0.58207 0.57229
 C1414 C 1.12994 0.44588 0.56733
 H1415 H 1.11483 0.45195 0.56072
 C1416 C 1.16838 0.42929 0.58519
 C1417 C 1.05775 0.37709 0.56779
 H1418 H 1.05292 0.39266 0.56169
 C1419 C 1.07096 0.33729 0.58453
 C1420 C 0.94906 0.63069 0.55209
 H1421 H 0.95560 0.61544 0.54656
 C1422 C 0.93098 0.66946 0.56727
 C1423 C 0.94503 0.45257 0.63413
 H1424 H 0.95206 0.45887 0.61950
 C1425 C 0.92600 0.43478 0.67095
 C1426 C 1.05979 0.56286 0.62894
 H1427 H 1.05668 0.55804 0.61234
 C1428 C 1.06796 0.57564 0.67185
 C1429 C 0.94312 0.37976 0.56717
 H1430 H 0.95023 0.39341 0.55931
 C1431 C 0.92405 0.34524 0.58858
 C1432 C 1.06376 0.62578 0.55432
 H1433 H 1.06029 0.60902 0.55153
 C1434 C 1.07254 0.66922 0.56168
 C1435 C 0.87318 0.45008 0.56128
 H1436 H 0.88938 0.45407 0.55618
 C1437 C 0.83148 0.43930 0.57506
 C1438 C 1.13214 0.55595 0.56117
 H1439 H 1.11578 0.55198 0.55639
 C1440 C 1.17440 0.56661 0.57395
 O1441 O 0.47455 0.92407 0.39377
 O1442 O 0.47424 0.89782 0.36969
 C1443 C 0.46686 0.91572 0.37665
 C1444 C 0.44873 0.92649 0.36501
 C1445 C 0.44123 0.91792 0.34541
 H1446 H 0.44978 0.90439 0.33825
 O1447 O 0.51477 1.07661 0.38841
 O1448 O 0.51428 1.10156 0.36331
 C1449 C 0.52179 1.08408 0.37076
 C1450 C 0.53905 1.07255 0.35885
 C1451 C 0.54490 1.07917 0.33813
 H1452 H 0.53656 1.09276 0.33100
 O1453 O 0.38549 0.98227 0.41996
 O1454 O 0.36014 0.98193 0.39473
 C1455 C 0.36769 0.97522 0.41261
 C1456 C 0.35596 0.95875 0.42481
 C1457 C 0.33503 0.95274 0.41869
 H1458 H 0.32722 0.96053 0.40508
 O1459 O 0.60176 1.02200 0.41734
 O1460 O 0.62658 1.02105 0.39178
 C1461 C 0.61925 1.02883 0.40938
 C1462 C 0.63092 1.04630 0.42046
 C1463 C 0.65109 1.05292 0.41288
 H1464 H 0.65850 1.04478 0.39919
 O1465 O 0.41623 0.90106 0.47880
 O1466 O 0.39174 0.87569 0.48001
 C1467 C 0.40914 0.88307 0.47237
 C1468 C 0.42126 0.87042 0.45602
 C1469 C 0.41516 0.84936 0.45127
 H1470 H 0.40112 0.84288 0.45919
 O1471 O 0.57274 1.10702 0.47502
 O1472 O 0.59727 1.13238 0.47422
 C1473 C 0.57957 1.12456 0.46753
 C1474 C 0.56704 1.13570 0.45051
 C1475 C 0.57257 1.15647 0.44426
 H1476 H 0.58550 1.16473 0.45262
 O1477 O 0.41565 1.02210 0.38921
 O1478 O 0.39052 1.02156 0.36378
 C1479 C 0.40804 1.02897 0.37140
 C1480 C 0.41913 1.04646 0.36002
 C1481 C 0.41025 1.05512 0.34101
 H1482 H 0.39611 1.04784 0.33377
 O1483 O 0.57174 0.97945 0.38957
 O1484 O 0.59649 0.97858 0.36395
 C1485 C 0.57919 0.97147 0.37215
 C1486 C 0.56828 0.95311 0.36176
 C1487 C 0.57685 0.94408 0.34284
 H1488 H 0.59029 0.95180 0.33499
 O1489 O 0.51741 0.89536 0.42370
 O1490 O 0.51705 0.86886 0.39990
 C1491 C 0.52466 0.87738 0.41702
 C1492 C 0.54242 0.86663 0.42914
 C1493 C 0.54869 0.84537 0.42436
 H1494 H 0.53998 0.83640 0.41212
 O1495 O 0.47293 1.10640 0.41854
 O1496 O 0.47282 1.13137 0.39346
 C1497 C 0.46570 1.12400 0.41111
 C1498 C 0.44849 1.13586 0.42273
 C1499 C 0.44128 1.15576 0.41506
 H1500 H 0.44878 1.16265 0.40094
 O1501 O 0.38736 1.08036 0.47675
 O1502 O 0.36246 1.10596 0.47642
 C1503 C 0.36992 1.08824 0.46914
 C1504 C 0.35855 1.07718 0.45114
 C1505 C 0.33888 1.08542 0.44334
 H1506 H 0.33144 1.09903 0.45150
 O1507 O 0.60581 0.92739 0.47801
 O1508 O 0.63107 0.90217 0.47857
 C1509 C 0.62313 0.91918 0.47042
 C1510 C 0.63353 0.92918 0.45140
 C1511 C 0.65251 0.92028 0.44225
 H1512 H 0.66001 0.90630 0.44950
 O1513 O 0.47252 1.07735 0.38844
 O1514 O 0.47214 1.10234 0.36339
 C1515 C 0.46482 1.08505 0.37102
 C1516 C 0.44673 1.07413 0.35995
 C1517 C 0.43744 1.08275 0.34108
 H1518 H 0.44396 1.09724 0.33426
 O1519 O 0.51676 0.92228 0.39200
 O1520 O 0.51669 0.89599 0.36798
 C1521 C 0.52409 0.91372 0.37475
 C1522 C 0.54178 0.92441 0.36299
 C1523 C 0.55102 0.91522 0.34418
 H1524 H 0.54489 0.90028 0.33776
 O1525 O 0.60257 0.98033 0.41808
 O1526 O 0.62735 0.97937 0.39249
 C1527 C 0.62012 0.97270 0.41043
 C1528 C 0.63190 0.95542 0.42215
 C1529 C 0.65098 0.94655 0.41354
 H1530 H 0.65775 0.95334 0.39902
 O1531 O 0.38641 1.02392 0.41902
 O1532 O 0.36109 1.02376 0.39377
 C1533 C 0.36889 1.03150 0.41123
 C1534 C 0.35796 1.04977 0.42252
 C1535 C 0.33827 1.05852 0.41479
 H1536 H 0.33065 1.05171 0.40054
 O1537 O 0.41656 1.10951 0.47618
 O1538 O 0.39170 1.13518 0.47567
 C1539 C 0.40912 1.12692 0.46844
 C1540 C 0.42062 1.13733 0.45054
 C1541 C 0.41339 1.15716 0.44245
 H1542 H 0.39964 1.16531 0.44976
 O1543 O 0.57585 0.89885 0.47953
 O1544 O 0.60096 0.87345 0.48039
 C1545 C 0.58319 0.88086 0.47298
 C1546 C 0.57105 0.86851 0.45648
 C1547 C 0.57711 0.84734 0.45147
 H1548 H 0.59078 0.84008 0.45978
 O1549 O 0.57256 1.02115 0.38705
 O1550 O 0.59718 1.02035 0.36132
 C1551 C 0.57966 1.02791 0.36907
 C1552 C 0.56749 1.04511 0.35764
 C1553 C 0.57313 1.05188 0.33666
 H1554 H 0.58624 1.04390 0.32811
 O1555 O 0.41575 0.98027 0.39113
 O1556 O 0.39065 0.97944 0.36569
 C1557 C 0.40818 0.97212 0.37383
 C1558 C 0.41979 0.95367 0.36354
 C1559 C 0.41224 0.94441 0.34408
 H1560 H 0.39786 0.95088 0.33632
 O1561 O 0.51487 1.10614 0.41813
 O1562 O 0.51458 1.13115 0.39308
 C1563 C 0.52192 1.12363 0.41072
 C1564 C 0.53897 1.13521 0.42264
 C1565 C 0.54475 1.15598 0.41654
 H1566 H 0.53651 1.16364 0.40310
 O1567 O 0.47521 0.89522 0.42365
 O1568 O 0.47481 0.86875 0.39981
 C1569 C 0.46774 0.87742 0.41710
 C1570 C 0.45023 0.86721 0.42946
 C1571 C 0.44430 0.84584 0.42534
 H1572 H 0.45350 0.83638 0.41378
 O1573 O 0.60366 1.07855 0.47401
 O1574 O 0.62829 1.10379 0.47299
 C1575 C 0.62079 1.08621 0.46594
 C1576 C 0.63169 1.07468 0.44789
 C1577 C 0.65171 1.08147 0.43973
 H1578 H 0.65972 1.09515 0.44691
 O1579 O 0.38499 0.92934 0.47833
 O1580 O 0.36043 0.90405 0.47947
 C1581 C 0.36744 0.92128 0.47143
 C1582 C 0.35564 0.93204 0.45349
 C1583 C 0.33465 0.92596 0.44701
 H1584 H 0.32640 0.91338 0.45555
 Cu1585 Cu 0.49607 0.91184 0.41067
 Cu1586 Cu 0.49562 0.88026 0.38188
 Cu1587 Cu 0.49383 1.08904 0.40587
 Cu1588 Cu 0.49347 1.11908 0.37572
 Cu1589 Cu 0.40335 1.00216 0.40732
 Cu1590 Cu 0.37313 1.00159 0.37689
 Cu1591 Cu 0.58464 1.00092 0.40552
 Cu1592 Cu 0.61437 0.99974 0.37480
 C1593 C 0.43807 0.94453 0.37385
 H1594 H 0.44373 0.95114 0.38909
 C1595 C 0.42282 0.92639 0.33498
 C1596 C 0.55024 1.05543 0.36838
 H1597 H 0.54586 1.05053 0.38455
 C1598 C 0.56162 1.06884 0.32666
 C1599 C 0.36598 0.94852 0.44233
 H1600 H 0.38222 0.95308 0.44695
 C1601 C 0.32411 0.93655 0.42976
 C1602 C 0.62152 1.05703 0.43816
 H1603 H 0.60591 1.05197 0.44402
 C1604 C 0.66156 1.07044 0.42238
 C1605 C 0.43884 0.87920 0.44512
 H1606 H 0.44333 0.89563 0.44846
 C1607 C 0.42677 0.83667 0.43633
 C1608 C 0.55006 1.12528 0.43978
 H1609 H 0.54589 1.10913 0.44436
 C1610 C 0.56152 1.16671 0.42728
 C1611 C 0.43755 1.05589 0.36918
 H1612 H 0.44430 1.04947 0.38403
 C1613 C 0.41910 1.07344 0.33157
 C1614 C 0.55056 0.94337 0.37157
 H1615 H 0.54404 0.95024 0.38636
 C1616 C 0.56881 0.92491 0.33420
 C1617 C 0.55359 0.87795 0.44537
 H1618 H 0.54899 0.89438 0.44903
 C1619 C 0.56593 0.83552 0.43563
 C1620 C 0.43831 1.12688 0.44068
 H1621 H 0.44370 1.11139 0.44653
 C1622 C 0.42374 1.16646 0.42474
 C1623 C 0.36787 1.05923 0.44077
 H1624 H 0.38322 1.05295 0.44662
 C1625 C 0.32871 1.07650 0.42507
 C1626 C 0.62345 0.94679 0.44123
 H1627 H 0.60857 0.95342 0.44782
 C1628 C 0.66125 0.92877 0.42318
 O1629 O 0.51939 0.93132 0.60904
 O1630 O 0.51933 0.90633 0.63405
 C1631 C 0.52693 0.92356 0.62653
 C1632 C 0.54520 0.93442 0.63764
 C1633 C 0.55450 0.92615 0.65676
 H1634 H 0.54782 0.91203 0.66418
 O1635 O 0.47480 1.08430 0.60657
 O1636 O 0.47431 1.11087 0.63029
 C1637 C 0.46688 1.09318 0.62340
 C1638 C 0.44833 1.08307 0.63442
 C1639 C 0.43881 1.09250 0.65296
 H1640 H 0.44549 1.10694 0.65999
 O1641 O 0.38675 1.02820 0.57726
 O1642 O 0.36171 1.02889 0.60260
 C1643 C 0.36912 1.03570 0.58479
 C1644 C 0.35769 1.05297 0.57289
 C1645 C 0.33756 1.06108 0.57991
 H1646 H 0.32992 1.05430 0.59400
 O1647 O 0.60467 0.98640 0.57838
 O1648 O 0.63047 0.98698 0.60315
 C1649 C 0.62254 0.97926 0.58577
 C1650 C 0.63387 0.96137 0.57444
 C1651 C 0.65336 0.95310 0.58277
 H1652 H 0.66070 0.96067 0.59678
 O1653 O 0.57661 0.90024 0.52153
 O1654 O 0.60175 0.87487 0.52235
 C1655 C 0.58410 0.88289 0.52937
 C1656 C 0.57219 0.87220 0.54699
 C1657 C 0.57819 0.85153 0.55393
 H1658 H 0.59134 0.84301 0.54597
 O1659 O 0.41744 1.11055 0.51815
 O1660 O 0.39298 1.13657 0.51752
 C1661 C 0.41066 1.12875 0.52471
 C1662 C 0.42360 1.14074 0.54088
 C1663 C 0.42027 1.16287 0.54440
 H1664 H 0.40823 1.17146 0.53495
 O1665 O 0.41786 0.98783 0.60727
 O1666 O 0.39339 0.98856 0.63317
 C1667 C 0.41103 0.98125 0.62536
 C1668 C 0.42371 0.96479 0.63718
 C1669 C 0.41862 0.95955 0.65860
 H1670 H 0.40523 0.96767 0.66657
 O1671 O 0.57565 1.02876 0.60853
 O1672 O 0.60117 1.02943 0.63355
 C1673 C 0.58332 1.03647 0.62602
 C1674 C 0.57140 1.05414 0.63716
 C1675 C 0.57848 1.06273 0.65712
 H1676 H 0.59271 1.05607 0.66500
 O1677 O 0.47676 0.90331 0.57843
 O1678 O 0.47643 0.87827 0.60341
 C1679 C 0.46926 0.88593 0.58572
 C1680 C 0.45192 0.87465 0.57359
 C1681 C 0.44668 0.85339 0.57871
 H1682 H 0.45571 0.84503 0.59118
 O1683 O 0.51789 1.11063 0.57600
 O1684 O 0.51815 1.13696 0.60000
 C1685 C 0.52562 1.12819 0.58291
 C1686 C 0.54389 1.13813 0.57125
 C1687 C 0.55319 1.15721 0.57903
 H1688 H 0.54668 1.16513 0.59329
 O1689 O 0.38638 0.93125 0.52070
 O1690 O 0.36214 0.90565 0.52181
 C1691 C 0.36942 0.92333 0.52878
 C1692 C 0.35855 0.93422 0.54713
 C1693 C 0.33999 0.92537 0.55621
 H1694 H 0.33281 0.91133 0.54882
 O1695 O 0.60446 1.07860 0.51638
 O1696 O 0.62920 1.10374 0.51532
 C1697 C 0.62201 1.08656 0.52331
 C1698 C 0.63355 1.07642 0.54162
 C1699 C 0.65321 1.08475 0.54904
 H1700 H 0.66060 1.09788 0.54054
 O1701 O 0.51714 1.08300 0.60696
 O1702 O 0.51676 1.10928 0.63102
 C1703 C 0.52430 1.09145 0.62428
 C1704 C 0.54219 1.08085 0.63620
 C1705 C 0.54937 1.08917 0.65604
 H1706 H 0.54081 1.10263 0.66332
 O1707 O 0.47712 0.93288 0.60825
 O1708 O 0.47701 0.90809 0.63349
 C1709 C 0.46984 0.92568 0.62591
 C1710 C 0.45259 0.93771 0.63747
 C1711 C 0.44742 0.93281 0.65896
 H1712 H 0.45678 0.92068 0.66741
 O1713 O 0.60432 1.02797 0.57784
 O1714 O 0.63006 1.02875 0.60265
 C1715 C 0.62208 1.03537 0.58489
 C1716 C 0.63327 1.05199 0.57233
 C1717 C 0.65278 1.06083 0.57977
 H1718 H 0.66010 1.05520 0.59468
 O1719 O 0.38711 0.98659 0.57862
 O1720 O 0.36243 0.98703 0.60430
 C1721 C 0.36983 0.97934 0.58671
 C1722 C 0.35870 0.96140 0.57574
 C1723 C 0.34003 0.95229 0.58467
 H1724 H 0.33316 0.95881 0.59946
 O1725 O 0.57423 1.10745 0.51722
 O1726 O 0.59898 1.13258 0.51628
 C1727 C 0.58186 1.12494 0.52437
 C1728 C 0.57125 1.13632 0.54269
 C1729 C 0.58028 1.15523 0.55084
 H1730 H 0.59441 1.16188 0.54315
 O1731 O 0.41745 0.90319 0.52086
 O1732 O 0.39326 0.87751 0.52187
 C1733 C 0.41081 0.88571 0.52867
 C1734 C 0.42353 0.87471 0.54580
 C1735 C 0.41860 0.85358 0.55123
 H1736 H 0.40552 0.84555 0.54288
 O1737 O 0.57559 0.98697 0.60826
 O1738 O 0.60126 0.98739 0.63316
 C1739 C 0.58370 0.97982 0.62571
 C1740 C 0.57300 0.96202 0.63700
 C1741 C 0.58211 0.95346 0.65589
 H1742 H 0.59649 0.96058 0.66284
 O1743 O 0.41693 1.02950 0.60621
 O1744 O 0.39202 1.03029 0.63167
 C1745 C 0.40932 1.03748 0.62359
 C1746 C 0.42023 1.05577 0.63418
 C1747 C 0.41098 1.06544 0.65250
 H1748 H 0.39640 1.05891 0.65941
 O1749 O 0.47568 1.11107 0.57482
 O1750 O 0.47601 1.13781 0.59839
 C1751 C 0.46878 1.12930 0.58111
 C1752 C 0.45216 1.14076 0.56829
 C1753 C 0.44854 1.16268 0.57172
 H1754 H 0.45792 1.17099 0.58395
 O1755 O 0.51909 0.90278 0.57843
 O1756 O 0.51869 0.87769 0.60336
 C1757 C 0.52624 0.88516 0.58589
 C1758 C 0.54374 0.87338 0.57439
 C1759 C 0.54998 0.85281 0.58108
 H1760 H 0.54174 0.84553 0.59455
 O1761 O 0.60593 0.92956 0.52060
 O1762 O 0.63119 0.90434 0.52134
 C1763 C 0.62344 0.92200 0.52840
 C1764 C 0.63442 0.93343 0.54642
 C1765 C 0.65385 0.92528 0.55520
 H1766 H 0.66118 0.91095 0.54833
 O1767 O 0.38698 1.08211 0.51907
 O1768 O 0.36228 1.10788 0.51884
 C1769 C 0.36960 1.09038 0.52641
 C1770 C 0.35809 1.07975 0.54426
 C1771 C 0.33794 1.08753 0.55135
 H1772 H 0.33028 1.10077 0.54293
 Cu1773 Cu 0.49809 0.92009 0.59109
 Cu1774 Cu 0.49774 0.89008 0.62107
 Cu1775 Cu 0.49636 1.09455 0.58877
 Cu1776 Cu 0.49625 1.12636 0.61735
 Cu1777 Cu 0.40358 0.91889 0.49942
 Cu1778 Cu 0.37441 0.88820 0.50090
 Cu1779 Cu 0.58865 0.91663 0.49986
 Cu1780 Cu 0.61890 0.88629 0.50073
 Cu1781 Cu 0.40454 1.09303 0.49770
 Cu1782 Cu 0.37474 1.12388 0.49719
 Cu1783 Cu 0.58636 1.09030 0.49563
 Cu1784 Cu 0.61592 1.12065 0.49457
 Cu1785 Cu 0.40460 1.00788 0.58975
 Cu1786 Cu 0.37490 1.00871 0.62054
 Cu1787 Cu 0.58744 1.00760 0.59083
 Cu1788 Cu 0.61831 1.00822 0.62065
 C1789 C 0.55447 0.95252 0.62811
 H1790 H 0.54763 0.95884 0.61327
 C1791 C 0.57311 0.93552 0.66581
 C1792 C 0.43899 1.06458 0.62533
 H1793 H 0.44594 1.05737 0.61091
 C1794 C 0.41996 1.08382 0.66184
 C1795 C 0.36769 1.06232 0.55495
 H1796 H 0.38337 1.05642 0.54966
 C1797 C 0.32758 1.07843 0.56923
 C1798 C 0.62463 0.95157 0.55609
 H1799 H 0.60940 0.95765 0.54975
 C1800 C 0.66334 0.93493 0.57348
 C1801 C 0.55481 0.88288 0.55721
 H1802 H 0.55019 0.89887 0.55213
 C1803 C 0.56700 0.84163 0.57086
 C1804 C 0.43978 1.12993 0.55273
 H1805 H 0.44245 1.11292 0.55017
 C1806 C 0.43302 1.17404 0.55959
 C1807 C 0.44083 0.95388 0.62682
 H1808 H 0.44466 0.95762 0.61018
 C1809 C 0.43050 0.94369 0.66971
 C1810 C 0.55313 1.06324 0.62703
 H1811 H 0.54777 1.05703 0.61152
 C1812 C 0.56753 1.08037 0.66662
 C1813 C 0.44039 0.88510 0.55691
 H1814 H 0.44422 0.90148 0.55290
 C1815 C 0.43023 0.84266 0.56737
 C1816 C 0.55299 1.12789 0.55295
 H1817 H 0.54617 1.11306 0.54698
 C1818 C 0.57156 1.16565 0.56902
 C1819 C 0.36766 0.95236 0.55685
 H1820 H 0.38225 0.95901 0.55009
 C1821 C 0.33078 0.93409 0.57506
 C1822 C 0.62389 1.05980 0.55314
 H1823 H 0.60858 1.05348 0.54758
 C1824 C 0.66282 1.07717 0.56813
 O1825 O 0.49632 0.42520 0.88498
 O1826 O 0.49872 0.40108 0.85881
 C1827 C 0.49031 0.41810 0.86657
 C1828 C 0.47283 0.42939 0.85458
 C1829 C 0.46470 0.42109 0.83490
 H1830 H 0.47174 0.40667 0.82791
 O1831 O 0.53294 0.58016 0.89723
 O1832 O 0.53444 0.60569 0.87282
 C1833 C 0.54150 0.58811 0.88052
 C1834 C 0.56007 0.57686 0.87032
 C1835 C 0.56743 0.58267 0.84975
 H1836 H 0.55892 0.59510 0.84089
 O1837 O 0.40760 0.47949 0.91086
 O1838 O 0.38391 0.47996 0.88405
 C1839 C 0.39073 0.47215 0.90177
 C1840 C 0.37909 0.45411 0.91164
 C1841 C 0.35932 0.44739 0.90284
 H1842 H 0.35238 0.45570 0.88908
 O1843 O 0.61781 0.52439 0.93335
 O1844 O 0.64569 0.52549 0.91124
 C1845 C 0.63587 0.53231 0.92798
 C1846 C 0.64504 0.55019 0.94088
 C1847 C 0.66464 0.55973 0.93488
 H1848 H 0.67369 0.55347 0.92120
 O1849 O 0.43478 0.39271 0.96899
 O1850 O 0.41067 0.36718 0.96521
 C1851 C 0.42868 0.37536 0.96016
 C1852 C 0.44211 0.36499 0.94317
 C1853 C 0.43638 0.34489 0.93488
 H1854 H 0.42317 0.33634 0.94220
 O1855 O 0.57954 0.60837 0.99028
 O1856 O 0.60388 0.63371 0.99406
 C1857 C 0.58746 0.62610 0.98445
 C1858 C 0.57801 0.63753 0.96575
 C1859 C 0.58675 0.65698 0.95895
 H1860 H 0.59970 0.66428 0.96818
 O1861 O 0.43679 0.52335 0.88499
 O1862 O 0.41299 0.52397 0.85830
 C1863 C 0.42975 0.53142 0.86747
 C1864 C 0.44079 0.55012 0.85818
 C1865 C 0.43279 0.56011 0.83939
 H1866 H 0.41872 0.55371 0.83121
 O1867 O 0.59271 0.48328 0.89872
 O1868 O 0.62077 0.48417 0.87680
 C1869 C 0.60247 0.47669 0.88181
 C1870 C 0.59257 0.45989 0.86809
 C1871 C 0.60125 0.45458 0.84775
 H1872 H 0.61479 0.46355 0.84166
 O1873 O 0.53684 0.39542 0.91707
 O1874 O 0.53936 0.37146 0.89076
 C1875 C 0.54507 0.37826 0.90932
 C1876 C 0.56166 0.36622 0.92182
 C1877 C 0.57038 0.34704 0.91356
 H1878 H 0.56444 0.34071 0.89830
 O1879 O 0.48766 0.60761 0.92424
 O1880 O 0.48941 0.63374 0.90050
 C1881 C 0.48067 0.62534 0.91695
 C1882 C 0.46204 0.63614 0.92754
 C1883 C 0.45619 0.65710 0.92184
 H1884 H 0.46551 0.66537 0.90974
 O1885 O 0.39781 0.57504 0.97315
 O1886 O 0.37164 0.59929 0.97091
 C1887 C 0.38050 0.58191 0.96442
 C1888 C 0.37084 0.56965 0.94635
 C1889 C 0.34905 0.57276 0.94057
 H1890 H 0.33913 0.58342 0.95034
 O1891 O 0.61290 0.42083 0.98602
 O1892 O 0.63954 0.39705 0.98722
 C1893 C 0.63173 0.41471 0.98036
 C1894 C 0.64447 0.42824 0.96549
 C1895 C 0.66657 0.42389 0.96183
 H1896 H 0.67454 0.41094 0.97043
 O1897 O 0.49100 0.58038 0.89272
 O1898 O 0.49240 0.60638 0.86881
 C1899 C 0.48481 0.58865 0.87498
 C1900 C 0.46794 0.57799 0.86187
 C1901 C 0.45998 0.58759 0.84295
 H1902 H 0.46735 0.60209 0.83713
 O1903 O 0.53833 0.42645 0.88953
 O1904 O 0.54095 0.40265 0.86309
 C1905 C 0.54730 0.41977 0.87229
 C1906 C 0.56557 0.43197 0.86334
 C1907 C 0.57460 0.42666 0.84314
 H1908 H 0.56797 0.41350 0.83383
 O1909 O 0.61696 0.48234 0.93312
 O1910 O 0.64509 0.48346 0.91133
 C1911 C 0.63551 0.47546 0.92755
 C1912 C 0.64609 0.45790 0.93984
 C1913 C 0.66795 0.45305 0.93624
 H1914 H 0.67676 0.46218 0.92442
 O1915 O 0.40592 0.52115 0.91306
 O1916 O 0.38203 0.52137 0.88641
 C1917 C 0.38828 0.52798 0.90487
 C1918 C 0.37486 0.54368 0.91696
 C1919 C 0.35332 0.54763 0.91079
 H1920 H 0.34696 0.53956 0.89661
 O1921 O 0.42552 0.60592 0.97611
 O1922 O 0.39971 0.63049 0.97367
 C1923 C 0.41824 0.62335 0.96822
 C1924 C 0.43142 0.63524 0.95242
 C1925 C 0.42579 0.65632 0.94648
 H1926 H 0.41194 0.66421 0.95388
 O1927 O 0.58544 0.38994 0.98100
 O1928 O 0.61179 0.36586 0.98203
 C1929 C 0.59471 0.37332 0.97320
 C1930 C 0.58583 0.36333 0.95317
 C1931 C 0.59435 0.34395 0.94463
 H1932 H 0.60719 0.33551 0.95312
 O1933 O 0.59072 0.52483 0.90128
 O1934 O 0.61845 0.52569 0.87894
 C1935 C 0.59988 0.53252 0.88476
 C1936 C 0.58877 0.54971 0.87244
 C1937 C 0.59606 0.55579 0.85192
 H1938 H 0.61011 0.54784 0.84498
 O1939 O 0.43906 0.48152 0.88343
 O1940 O 0.41537 0.48210 0.85663
 C1941 C 0.43267 0.47473 0.86509
 C1942 C 0.44482 0.45735 0.85395
 C1943 C 0.43709 0.44898 0.83434
 H1944 H 0.42311 0.45634 0.82663
 O1945 O 0.52963 0.60920 0.92726
 O1946 O 0.53150 0.63490 0.90307
 C1947 C 0.53731 0.62691 0.92103
 C1948 C 0.55358 0.63794 0.93460
 C1949 C 0.56247 0.65746 0.92805
 H1950 H 0.55697 0.66491 0.91319
 O1951 O 0.49491 0.39615 0.91461
 O1952 O 0.49729 0.37183 0.88862
 C1953 C 0.48863 0.37880 0.90600
 C1954 C 0.47089 0.36683 0.91623
 C1955 C 0.46453 0.34690 0.90783
 H1956 H 0.47268 0.34023 0.89379
 O1957 O 0.60937 0.57920 0.99179
 O1958 O 0.63369 0.60457 0.99554
 C1959 C 0.62730 0.58738 0.98655
 C1960 C 0.64059 0.57720 0.96941
 C1961 C 0.66007 0.58655 0.96311
 H1962 H 0.66584 0.60069 0.97149
 O1963 O 0.40374 0.42088 0.96608
 O1964 O 0.37955 0.39546 0.96207
 C1965 C 0.38736 0.41327 0.95634
 C1966 C 0.37750 0.42515 0.93801
 C1967 C 0.35784 0.41849 0.92873
 H1968 H 0.34955 0.40479 0.93524
 Cu1969 Cu 0.51637 0.41328 0.90408
 Cu1970 Cu 0.51933 0.38437 0.87266
 Cu1971 Cu 0.51022 0.59173 0.91275
 Cu1972 Cu 0.51211 0.62278 0.88388
 Cu1973 Cu 0.42480 0.50139 0.90072
 Cu1974 Cu 0.39626 0.50190 0.86859
 Cu1975 Cu 0.60180 0.50362 0.91884
 Cu1976 Cu 0.63538 0.50475 0.89248
 C1977 C 0.46287 0.44764 0.86382
 H1978 H 0.46865 0.45381 0.87919
 C1979 C 0.44659 0.43067 0.82490
 C1980 C 0.57071 0.56025 0.88141
 H1981 H 0.56517 0.55579 0.89735
 C1982 C 0.58535 0.57213 0.84031
 C1983 C 0.38795 0.44306 0.92939
 H1984 H 0.40325 0.44813 0.93620
 C1985 C 0.34860 0.42966 0.91126
 C1986 C 0.63328 0.55894 0.95833
 H1987 H 0.61803 0.55192 0.96287
 C1988 C 0.67210 0.57806 0.94582
 C1989 C 0.45962 0.37573 0.93397
 H1990 H 0.46402 0.39137 0.94018
 C1991 C 0.44722 0.33585 0.91702
 C1992 C 0.56130 0.62824 0.95360
 H1993 H 0.55478 0.61303 0.95856
 C1994 C 0.57917 0.66698 0.94008
 C1995 C 0.45845 0.55911 0.86918
 H1996 H 0.46437 0.55180 0.88394
 C1997 C 0.44220 0.57899 0.83176
 C1998 C 0.57461 0.44868 0.87559
 H1999 H 0.56797 0.45265 0.89134
 C2000 C 0.59238 0.43801 0.83510
 C2001 C 0.56935 0.37414 0.94167
 H2002 H 0.56286 0.38914 0.94790
 C2003 C 0.58674 0.33582 0.92469
 C2004 C 0.44970 0.62539 0.94300
 H2005 H 0.45404 0.60912 0.94734
 C2006 C 0.43828 0.66745 0.93136
 C2007 C 0.38349 0.55476 0.93476
 H2008 H 0.40026 0.55212 0.93930
 C2009 C 0.34001 0.56178 0.92276
 C2010 C 0.63446 0.44552 0.95463
 H2011 H 0.61745 0.44901 0.95725
 C2012 C 0.67849 0.43637 0.94733
 O2013 O 0.52065 0.41766 1.10779
 O2014 O 0.51846 0.39245 1.13245
 C2015 C 0.52677 0.40964 1.12573
 C2016 C 0.54421 0.42023 1.13829
 C2017 C 0.55434 0.41017 1.15617
 H2018 H 0.54895 0.39465 1.16151
 O2019 O 0.47039 0.57298 1.10906
 O2020 O 0.46767 0.59672 1.13554
 C2021 C 0.46131 0.57964 1.12629
 C2022 C 0.44281 0.56760 1.13513
 C2023 C 0.43327 0.57341 1.15501
 H2024 H 0.43969 0.58676 1.16418
 O2025 O 0.38728 0.51757 1.06762
 O2026 O 0.36025 0.51584 1.09067
 C2027 C 0.36904 0.52440 1.07436
 C2028 C 0.35866 0.54312 1.06356
 C2029 C 0.33924 0.55240 1.07137
 H2030 H 0.33109 0.54530 1.08499
 O2031 O 0.60467 0.47618 1.08576
 O2032 O 0.62818 0.47593 1.11271
 C2033 C 0.62163 0.46850 1.09463
 C2034 C 0.63322 0.45012 1.08424
 C2035 C 0.65130 0.44051 1.09445
 H2036 H 0.65736 0.44698 1.10959
 O2037 O 0.58156 0.38782 1.02338
 O2038 O 0.60775 0.36359 1.02473
 C2039 C 0.58937 0.37051 1.03103
 C2040 C 0.57714 0.35919 1.04816
 C2041 C 0.58477 0.33989 1.05741
 H2042 H 0.59949 0.33241 1.05140
 O2043 O 0.42226 0.60471 1.01817
 O2044 O 0.39662 0.62948 1.01588
 C2045 C 0.41353 0.62195 1.02501
 C2046 C 0.42268 0.63281 1.04429
 C2047 C 0.41420 0.65251 1.05144
 H2048 H 0.40203 0.66053 1.04167
 O2049 O 0.41747 0.47550 1.09678
 O2050 O 0.39054 0.47363 1.11998
 C2051 C 0.40918 0.46749 1.11360
 C2052 C 0.42122 0.45088 1.12595
 C2053 C 0.41349 0.44437 1.14613
 H2054 H 0.39872 0.45146 1.15245
 O2055 O 0.57211 0.51745 1.11407
 O2056 O 0.59560 0.51758 1.14103
 C2057 C 0.57823 0.52461 1.13237
 C2058 C 0.56523 0.54162 1.14338
 C2059 C 0.57057 0.54850 1.16445
 H2060 H 0.58360 0.54054 1.17310
 O2061 O 0.48057 0.39042 1.07331
 O2062 O 0.47780 0.36556 1.09827
 C2063 C 0.47211 0.37330 1.08012
 C2064 C 0.45495 0.36264 1.06724
 C2065 C 0.44502 0.34428 1.07524
 H2066 H 0.45084 0.33729 1.09020
 O2067 O 0.51373 0.60400 1.08433
 O2068 O 0.51106 0.62822 1.11040
 C2069 C 0.51987 0.62139 1.09307
 C2070 C 0.53760 0.63347 1.08296
 C2071 C 0.54215 0.65460 1.08940
 H2072 H 0.53261 0.66216 1.10205
 O2073 O 0.39891 0.42024 1.00796
 O2074 O 0.37476 0.39479 1.00391
 C2075 C 0.38081 0.41215 1.01279
 C2076 C 0.36715 0.42238 1.02967
 C2077 C 0.34784 0.41276 1.03610
 H2078 H 0.34203 0.39900 1.02715
 O2079 O 0.60599 0.57767 1.03359
 O2080 O 0.63036 0.60298 1.03731
 C2081 C 0.62284 0.58498 1.04273
 C2082 C 0.63363 0.57250 1.05997
 C2083 C 0.65411 0.57839 1.06774
 H2084 H 0.66238 0.59164 1.06035
 O2085 O 0.51272 0.57303 1.11179
 O2086 O 0.51023 0.59697 1.13811
 C2087 C 0.51879 0.58004 1.13014
 C2088 C 0.53628 0.56869 1.14213
 C2089 C 0.54219 0.57560 1.16295
 H2090 H 0.53384 0.58926 1.17005
 O2091 O 0.47855 0.42035 1.10255
 O2092 O 0.47624 0.39559 1.12766
 C2093 C 0.46962 0.41310 1.11939
 C2094 C 0.45090 0.42474 1.12907
 C2095 C 0.44298 0.41869 1.14938
 H2096 H 0.45137 0.40634 1.15847
 O2097 O 0.60430 0.51827 1.08715
 O2098 O 0.62796 0.51801 1.11396
 C2099 C 0.62125 0.52557 1.09613
 C2100 C 0.63294 0.54338 1.08599
 C2101 C 0.65328 0.54968 1.09386
 H2102 H 0.66054 0.54121 1.10734
 O2103 O 0.38942 0.47545 1.06547
 O2104 O 0.36237 0.47347 1.08848
 C2105 C 0.37186 0.46696 1.07141
 C2106 C 0.36291 0.44883 1.05872
 C2107 C 0.34405 0.43843 1.06547
 H2108 H 0.33587 0.44402 1.07995
 O2109 O 0.57506 0.60633 1.03223
 O2110 O 0.59929 0.63178 1.03584
 C2111 C 0.58125 0.62371 1.04092
 C2112 C 0.56746 0.63453 1.05727
 C2113 C 0.57155 0.65572 1.06357
 H2114 H 0.58429 0.66439 1.05561
 O2115 O 0.42878 0.39093 1.01103
 O2116 O 0.40458 0.36549 1.00720
 C2117 C 0.42072 0.37334 1.01715
 C2118 C 0.42977 0.36244 1.03655
 C2119 C 0.41989 0.34406 1.04501
 H2120 H 0.40593 0.33728 1.03696
 O2121 O 0.57365 0.47567 1.11351
 O2122 O 0.59721 0.47590 1.14042
 C2123 C 0.58055 0.46818 1.13134
 C2124 C 0.57006 0.44942 1.14100
 C2125 C 0.57964 0.43945 1.15889
 H2126 H 0.59351 0.44671 1.16668
 O2127 O 0.41479 0.51687 1.09936
 O2128 O 0.38778 0.51491 1.12246
 C2129 C 0.40565 0.52294 1.11678
 C2130 C 0.41567 0.53980 1.13033
 C2131 C 0.40662 0.54553 1.15036
 H2132 H 0.39291 0.53674 1.15634
 O2133 O 0.47187 0.60337 1.08094
 O2134 O 0.46901 0.62736 1.10719
 C2135 C 0.46337 0.62041 1.08864
 C2136 C 0.44658 0.63190 1.07587
 C2137 C 0.43742 0.65138 1.08318
 H2138 H 0.44266 0.65812 1.09850
 O2139 O 0.52266 0.38966 1.07657
 O2140 O 0.51998 0.36444 1.10117
 C2141 C 0.52899 0.37191 1.08440
 C2142 C 0.54746 0.36022 1.07433
 C2143 C 0.55515 0.34097 1.08316
 H2144 H 0.54664 0.33398 1.09662
 O2145 O 0.60848 0.41894 1.02773
 O2146 O 0.63482 0.39483 1.02901
 C2147 C 0.62566 0.41167 1.03649
 C2148 C 0.63484 0.42241 1.05593
 C2149 C 0.65284 0.41326 1.06635
 H2150 H 0.66047 0.39904 1.05953
 O2151 O 0.39260 0.57597 1.01493
 O2152 O 0.36693 0.60072 1.01269
 C2153 C 0.37420 0.58337 1.02067
 C2154 C 0.36149 0.57206 1.03728
 C2155 C 0.34209 0.58099 1.04516
 H2156 H 0.33579 0.59564 1.03813
 Cu2157 Cu 0.50093 0.40707 1.08766
 Cu2158 Cu 0.49779 0.37702 1.11736
 Cu2159 Cu 0.49240 0.58593 1.09395
 Cu2160 Cu 0.48927 0.61464 1.12556
 Cu2161 Cu 0.41902 0.40868 0.98891
 Cu2162 Cu 0.39004 0.37813 0.98414
 Cu2163 Cu 0.59433 0.40658 1.00430
 Cu2164 Cu 0.62607 0.37788 1.00578
 Cu2165 Cu 0.41214 0.58799 0.99576
 Cu2166 Cu 0.38118 0.61751 0.99292
 Cu2167 Cu 0.58997 0.59037 1.01171
 Cu2168 Cu 0.61923 0.62084 1.01621
 Cu2169 Cu 0.40478 0.49657 1.07982
 Cu2170 Cu 0.37242 0.49418 1.10759
 Cu2171 Cu 0.58637 0.49701 1.09738
 Cu2172 Cu 0.61463 0.49697 1.12969
 C2173 C 0.55219 0.43990 1.13100
 H2174 H 0.54498 0.44747 1.11695
 C2175 C 0.57241 0.41961 1.16624
 C2176 C 0.43390 0.55072 1.12299
 H2177 H 0.44085 0.54640 1.10747
 C2178 C 0.41515 0.56239 1.16281
 C2179 C 0.36946 0.55303 1.04640
 H2180 H 0.38459 0.54628 1.04055
 C2181 C 0.33095 0.57152 1.06237
 C2182 C 0.62517 0.44094 1.06492
 H2183 H 0.61103 0.44789 1.05715
 C2184 C 0.66096 0.42189 1.08571
 C2185 C 0.55837 0.36900 1.05669
 H2186 H 0.55260 0.38404 1.05005
 C2187 C 0.57389 0.33074 1.07508
 C2188 C 0.43909 0.62282 1.05641
 H2189 H 0.44565 0.60755 1.05096
 C2190 C 0.42116 0.66187 1.07103
 C2191 C 0.44008 0.44109 1.11757
 H2192 H 0.44593 0.44574 1.10181
 C2193 C 0.42427 0.42840 1.15803
 C2194 C 0.54784 0.55162 1.13249
 H2195 H 0.54366 0.54650 1.11623
 C2196 C 0.55914 0.56555 1.17441
 C2197 C 0.44735 0.37150 1.04777
 H2198 H 0.45475 0.38589 1.04169
 C2199 C 0.42726 0.33509 1.06456
 C2200 C 0.55031 0.62363 1.06684
 H2201 H 0.54715 0.60724 1.06202
 C2202 C 0.55902 0.66596 1.07963
 C2203 C 0.37431 0.44066 1.04079
 H2204 H 0.38928 0.44808 1.03595
 C2205 C 0.33637 0.42026 1.05431
 C2206 C 0.62332 0.55481 1.06897
 H2207 H 0.60746 0.55029 1.06311
 C2208 C 0.66411 0.56710 1.08472
 C2209 C 1.10153 1.09115 1.29035
 C2210 C 1.09304 1.08569 1.27003
 C2211 C 1.07133 1.09092 1.26491
 C2212 C 1.05867 1.10215 1.28007
 C2213 C 1.06763 1.10864 1.29985
 C2214 C 1.08917 1.10318 1.30533
 C2215 C 1.06287 1.08538 1.24452
 C2216 C 1.07626 1.07577 1.22881
 C2217 C 1.09824 1.07144 1.23373
 C2218 C 1.10633 1.07589 1.25444
 C2219 C 1.11194 1.06313 1.21772
 C2220 C 1.10401 1.05907 1.19698
 C2221 C 1.08196 1.06242 1.19194
 C2222 C 1.06817 1.07080 1.20812
 H2223 H 1.11834 1.08736 1.29370
 H2224 H 1.04200 1.10640 1.27642
 H2225 H 1.05749 1.11756 1.31105
 H2226 H 1.04612 1.08915 1.24067
 H2227 H 1.12315 1.07233 1.25822
 H2228 H 1.12893 1.06013 1.22112
 H2229 H 1.11536 1.05348 1.18484
 H2230 H 1.05113 1.07337 1.20477
 C2231 C 1.10601 0.61132 0.78915
 C2232 C 1.10256 0.60441 0.76771
 C2233 C 1.12046 0.59886 0.75452
 C2234 C 1.14146 0.60027 0.76298
 C2235 C 1.14473 0.60695 0.78434
 C2236 C 1.12710 0.61248 0.79766
 C2237 C 1.11712 0.59195 0.73312
 C2238 C 1.09608 0.59039 0.72471
 C2239 C 1.07816 0.59583 0.73791
 C2240 C 1.08150 0.60283 0.75930
 C2241 C 1.05716 0.59422 0.72946
 C2242 C 1.05392 0.58747 0.70811
 C2243 C 1.07161 0.58219 0.69474
 C2244 C 1.09269 0.58357 0.70325
 H2245 H 1.09231 0.61537 0.79935
 H2246 H 1.15537 0.59615 0.75310
 H2247 H 1.16114 0.60801 0.79040
 H2248 H 1.13089 0.58776 0.72303
 H2249 H 1.06774 0.60702 0.76939
 H2250 H 1.04323 0.59822 0.73936
 H2251 H 1.03751 0.58623 0.70205
 H2252 H 1.10645 0.57975 0.69304
 C2253 C 0.60099 1.11497 0.78578
 C2254 C 0.59552 1.10567 0.76565
 C2255 C 0.59607 1.08313 0.76310
 C2256 C 0.60208 1.07028 0.78058
 C2257 C 0.60821 1.07958 0.80020
 C2258 C 0.60812 1.10206 0.80313
 C2259 C 0.59092 1.07374 0.74306
 C2260 C 0.58562 1.08658 0.72527
 C2261 C 0.58534 1.10914 0.72766
 C2262 C 0.59011 1.11853 0.74784
 C2263 C 0.58028 1.12195 0.70979
 C2264 C 0.57515 1.11253 0.68987
 C2265 C 0.57489 1.09010 0.68739
 C2266 C 0.58047 1.07721 0.70515
 H2267 H 0.60099 1.13225 0.78737
 H2268 H 0.60240 1.05298 0.77899
 H2269 H 0.61269 1.06894 0.81324
 H2270 H 0.59126 1.05644 0.74125
 H2271 H 0.58984 1.13583 0.74962
 H2272 H 0.58015 1.13926 0.71123
 H2273 H 0.57124 1.12284 0.67635
 H2274 H 0.58018 1.05991 0.70347
 C2275 C 0.60997 0.61498 1.28110
 C2276 C 0.60410 0.60395 1.26214
 C2277 C 0.62016 0.59353 1.24956
 C2278 C 0.64167 0.59338 1.25678
 C2279 C 0.64731 0.60375 1.27609
 C2280 C 0.63166 0.61514 1.28833
 C2281 C 0.61446 0.58349 1.22998
 C2282 C 0.59277 0.58324 1.22314
 C2283 C 0.57659 0.59266 1.23636
 C2284 C 0.58236 0.60316 1.25563
 C2285 C 0.55486 0.59161 1.23001
 C2286 C 0.54923 0.58196 1.21038
 C2287 C 0.56522 0.57359 1.19639
 C2288 C 0.58702 0.57398 1.20316
 H2289 H 0.59742 0.62283 1.29053
 H2290 H 0.65418 0.58531 1.24745
 H2291 H 0.66418 0.60359 1.28080
 H2292 H 0.62687 0.57593 1.22007
 H2293 H 0.56996 0.61078 1.26550
 H2294 H 0.54221 0.59837 1.24016
 H2295 H 0.53225 0.58127 1.20607
 H2296 H 0.59962 0.56774 1.19264
 C2297 C 0.88550 0.87835 1.27558
 C2298 C 0.89126 0.88874 1.25646
 C2299 C 0.88645 0.91075 1.25390
 C2300 C 0.87495 0.92170 1.27016
 C2301 C 0.86850 0.91102 1.28886
 C2302 C 0.87410 0.88929 1.29210
 C2303 C 0.89316 0.92135 1.23512
 C2304 C 0.90399 0.90998 1.21860
 C2305 C 0.90768 0.88770 1.22081
 C2306 C 0.90159 0.87731 1.23979
 C2307 C 0.91744 0.87609 1.20399
 C2308 C 0.92406 0.88645 1.18532
 C2309 C 0.92171 0.90883 1.18324
 C2310 C 0.91126 0.92045 1.19993
 H2311 H 0.88924 0.86144 1.27710
 H2312 H 0.87092 0.93854 1.26843
 H2313 H 0.85995 0.92014 1.30116
 H2314 H 0.88988 0.93835 1.23333
 H2315 H 0.90486 0.86030 1.24158
 H2316 H 0.91994 0.85893 1.20523
 H2317 H 0.93108 0.87680 1.17247
 H2318 H 0.90920 0.93765 1.19869
 C2319 C 0.88503 0.38753 0.78114
 C2320 C 0.88931 0.39916 0.76237
 C2321 C 0.88634 0.42161 0.76227
 C2322 C 0.87794 0.43188 0.78074
 C2323 C 0.87288 0.42004 0.79919
 C2324 C 0.87687 0.39775 0.79987
 C2325 C 0.89192 0.43334 0.74378
 C2326 C 0.89999 0.42272 0.72528
 C2327 C 0.90167 0.40008 0.72516
 C2328 C 0.89650 0.38851 0.74369
 C2329 C 0.90895 0.38928 0.70663
 C2330 C 0.91562 0.40076 0.68871
 C2331 C 0.91550 0.42330 0.68899
 C2332 C 0.90693 0.43425 0.70708
 H2333 H 0.88734 0.37032 0.78074
 H2334 H 0.87533 0.44907 0.78096
 H2335 H 0.86675 0.42859 0.81322
 H2336 H 0.89019 0.45065 0.74386
 H2337 H 0.89833 0.37120 0.74365
 H2338 H 0.90992 0.37194 0.70615
 H2339 H 0.92150 0.39193 0.67471
 H2340 H 0.90658 0.45161 0.70739
 C2341 C 0.39867 0.89586 0.78316
 C2342 C 0.40634 0.90128 0.76261
 C2343 C 0.41324 0.88493 0.74816
 C2344 C 0.41291 0.86351 0.75475
 C2345 C 0.40511 0.85824 0.77518
 C2346 C 0.39755 0.87430 0.78945
 C2347 C 0.41991 0.89020 0.72722
 C2348 C 0.41967 0.91162 0.72051
 C2349 C 0.41323 0.92801 0.73512
 C2350 C 0.40669 0.92275 0.75611
 C2351 C 0.41313 0.94939 0.72837
 C2352 C 0.41899 0.95447 0.70723
 C2353 C 0.42499 0.93828 0.69240
 C2354 C 0.42544 0.91685 0.69928
 H2355 H 0.39318 0.90838 0.79414
 H2356 H 0.41819 0.85079 0.74390
 H2357 H 0.40423 0.84151 0.77946
 H2358 H 0.42495 0.87763 0.71605
 H2359 H 0.40148 0.93531 0.76722
 H2360 H 0.40840 0.96217 0.73940
 H2361 H 0.41891 0.97114 0.70251
 H2362 H 0.42975 0.90416 0.68797
 C2363 C 0.37003 0.37114 1.25712
 C2364 C 0.38208 0.37834 1.23947
 C2365 C 0.39294 0.36338 1.22598
 C2366 C 0.39223 0.34157 1.23081
 C2367 C 0.38048 0.33450 1.24856
 C2368 C 0.36882 0.34908 1.26183
 C2369 C 0.40412 0.37044 1.20773
 C2370 C 0.40469 0.39231 1.20289
 C2371 C 0.39449 0.40737 1.21681
 C2372 C 0.38323 0.40029 1.23501
 C2373 C 0.39538 0.42924 1.21208
 C2374 C 0.40570 0.43611 1.19336
 C2375 C 0.41519 0.42122 1.17894
 C2376 C 0.41492 0.39932 1.18406
 H2377 H 0.36199 0.38290 1.26732
 H2378 H 0.40054 0.32988 1.22068
 H2379 H 0.37992 0.31743 1.25114
 H2380 H 0.41214 0.35889 1.19718
 H2381 H 0.37510 0.41183 1.24549
 H2382 H 0.38787 0.44102 1.22270
 H2383 H 0.40607 0.45310 1.19005
 H2384 H 0.42195 0.38763 1.17301
 C2385 C 0.86899 1.14375 0.74207
 C2386 C 0.87629 1.13083 0.75927
 C2387 C 0.86144 1.12376 0.77496
 C2388 C 0.83959 1.12952 0.77315
 C2389 C 0.83232 1.14159 0.75563
 C2390 C 0.84678 1.14872 0.73964
 C2391 C 0.86855 1.11082 0.79210
 C2392 C 0.89031 1.10442 0.79357
 C2393 C 0.90513 1.11109 0.77765
 C2394 C 0.89808 1.12436 0.76071
 C2395 C 0.92684 1.10449 0.77905
 C2396 C 0.93393 1.09199 0.79640
 C2397 C 0.91949 1.08583 0.81269
 C2398 C 0.89756 1.09176 0.81092
 H2399 H 0.88044 1.14867 0.72992
 H2400 H 0.82801 1.12438 0.78510
 H2401 H 0.81527 1.14562 0.75488
 H2402 H 0.85713 1.10562 0.80421
 H2403 H 0.90951 1.12955 0.74860
 H2404 H 0.93840 1.10927 0.76693
 H2405 H 0.95088 1.08745 0.79732
 H2406 H 0.88634 1.08729 0.82351
 C2407 C 0.88641 0.61926 0.23171
 C2408 C 0.89251 0.60774 0.25024
 C2409 C 0.87658 0.60170 0.26533
 C2410 C 0.85479 0.60687 0.26138
 C2411 C 0.84884 0.61798 0.24272
 C2412 C 0.86457 0.62439 0.22783
 C2413 C 0.88268 0.59072 0.28416
 C2414 C 0.90451 0.58562 0.28808
 C2415 C 0.92035 0.59119 0.27271
 C2416 C 0.91426 0.60221 0.25391
 C2417 C 0.94213 0.58602 0.27661
 C2418 C 0.94829 0.57617 0.29592
 C2419 C 0.93280 0.57125 0.31167
 C2420 C 0.91082 0.57556 0.30741
 H2421 H 0.89854 0.62393 0.22009
 H2422 H 0.84236 0.60232 0.27272
 H2423 H 0.83193 0.62188 0.24001
 H2424 H 0.87048 0.58635 0.29586
 H2425 H 0.92647 0.60668 0.24227
 H2426 H 0.95446 0.59000 0.26494
 H2427 H 0.96529 0.57275 0.29875
 H2428 H 0.89878 0.57200 0.31953
 C2429 C 0.37870 1.12608 0.22254
 C2430 C 0.38915 1.11862 0.24120
 C2431 C 0.41200 1.11855 0.24238
 C2432 C 0.42393 1.12661 0.22501
 C2433 C 0.41333 1.13392 0.20635
 C2434 C 0.39066 1.13326 0.20480
 C2435 C 0.42246 1.11006 0.26068
 C2436 C 0.41032 1.10154 0.27770
 C2437 C 0.38745 1.10210 0.27659
 C2438 C 0.37703 1.11070 0.25842
 C2439 C 0.37530 1.09377 0.29357
 C2440 C 0.38565 1.08465 0.31140
 C2441 C 0.40837 1.08352 0.31258
 C2442 C 0.42063 1.09223 0.29568
 H2443 H 0.36119 1.12593 0.22164
 H2444 H 0.44145 1.12679 0.22565
 H2445 H 0.42286 1.13931 0.19283
 H2446 H 0.44000 1.10975 0.26153
 H2447 H 0.35949 1.11087 0.25750
 H2448 H 0.35777 1.09426 0.29305
 H2449 H 0.37581 1.07861 0.32441
 H2450 H 0.43814 1.09138 0.29633
 C2451 C 0.39296 0.62504 0.72306
 C2452 C 0.40069 0.61364 0.74100
 C2453 C 0.40133 0.59100 0.74039
 C2454 C 0.39380 0.58018 0.72190
 C2455 C 0.38591 0.59169 0.70413
 C2456 C 0.38563 0.61420 0.70449
 C2457 C 0.40950 0.57963 0.75823
 C2458 C 0.41688 0.59065 0.77670
 C2459 C 0.41584 0.61329 0.77734
 C2460 C 0.40782 0.62462 0.75950
 C2461 C 0.42289 0.62431 0.79581
 C2462 C 0.43118 0.61308 0.81346
 C2463 C 0.43278 0.59059 0.81296
 C2464 C 0.42539 0.57944 0.79452
 H2465 H 0.39241 0.64238 0.72363
 H2466 H 0.39408 0.56283 0.72114
 H2467 H 0.38040 0.58304 0.68993
 H2468 H 0.41015 0.56226 0.75773
 H2469 H 0.40719 0.64200 0.75998
 H2470 H 0.42199 0.64165 0.79664
 H2471 H 0.43620 0.62206 0.82764
 H2472 H 0.42659 0.56211 0.79389
 C2473 C 1.10843 0.88813 0.71542
 C2474 C 1.09862 0.89345 0.73515
 C2475 C 1.07586 0.89264 0.73710
 C2476 C 1.06340 0.88580 0.71933
 C2477 C 1.07340 0.88018 0.69975
 C2478 C 1.09593 0.88168 0.69759
 C2479 C 1.06602 0.89880 0.75670
 C2480 C 1.07873 0.90553 0.77436
 C2481 C 1.10154 0.90564 0.77244
 C2482 C 1.11131 0.89968 0.75288
 C2483 C 1.11429 0.91191 0.79009
 C2484 C 1.10461 0.91856 0.80935
 C2485 C 1.08194 0.91934 0.81134
 C2486 C 1.06907 0.91243 0.79382
 H2487 H 1.12588 0.88888 0.71390
 H2488 H 1.04595 0.88492 0.72054
 H2489 H 1.06357 0.87515 0.68613
 H2490 H 1.04854 0.89849 0.75815
 H2491 H 1.12879 0.90007 0.75139
 H2492 H 1.13179 0.91180 0.78896
 H2493 H 1.11495 0.92316 0.82275
 H2494 H 1.05158 0.91296 0.79510
 C2495 C 1.11660 0.37058 0.23081
 C2496 C 1.11197 0.37960 0.25127
 C2497 C 1.12914 0.38505 0.26546
 C2498 C 1.15057 0.38143 0.25898
 C2499 C 1.15501 0.37300 0.23848
 C2500 C 1.13814 0.36761 0.22422
 C2501 C 1.12466 0.39432 0.28575
 C2502 C 1.10323 0.39851 0.29202
 C2503 C 1.08606 0.39322 0.27779
 C2504 C 1.09052 0.38372 0.25758
 C2505 C 1.06467 0.39750 0.28404
 C2506 C 1.06028 0.40660 0.30429
 C2507 C 1.07715 0.41163 0.31875
 C2508 C 1.09867 0.40776 0.31236
 H2509 H 1.10359 0.36669 0.21969
 H2510 H 1.16393 0.38551 0.26961
 H2511 H 1.17169 0.37078 0.23356
 H2512 H 1.13786 0.39841 0.29659
 H2513 H 1.07733 0.37968 0.24671
 H2514 H 1.05131 0.39369 0.27332
 H2515 H 1.04358 0.40967 0.30871
 H2516 H 1.11180 0.41140 0.32343
 C2517 C 0.61207 0.88588 0.22054
 C2518 C 0.60125 0.89020 0.24000
 C2519 C 0.57880 0.88655 0.24159
 C2520 C 0.56778 0.87757 0.22393
 C2521 C 0.57889 0.87229 0.20491
 C2522 C 0.60113 0.87670 0.20279
 C2523 C 0.56782 0.89189 0.26081
 C2524 C 0.57922 0.90017 0.27866
 C2525 C 0.60193 0.90253 0.27733
 C2526 C 0.61272 0.89782 0.25799
 C2527 C 0.61355 0.90984 0.29532
 C2528 C 0.60271 0.91583 0.31415
 C2529 C 0.57998 0.91510 0.31526
 C2530 C 0.56833 0.90655 0.29766
 H2531 H 0.62930 0.88867 0.21972
 H2532 H 0.55059 0.87449 0.22486
 H2533 H 0.56981 0.86547 0.19158
 H2534 H 0.55048 0.88962 0.26186
 H2535 H 0.63006 0.90013 0.25692
 H2536 H 0.63099 0.91128 0.29473
 H2537 H 0.61216 0.92161 0.32775
 H2538 H 0.55084 0.90574 0.29838
 C2539 C 0.62410 0.40133 0.71627
 C2540 C 0.61523 0.40847 0.73601
 C2541 C 0.59259 0.40795 0.73912
 C2542 C 0.57922 0.40040 0.72251
 C2543 C 0.58816 0.39266 0.70325
 C2544 C 0.61075 0.39267 0.69985
 C2545 C 0.58368 0.41451 0.75895
 C2546 C 0.59716 0.42097 0.77603
 C2547 C 0.61982 0.42139 0.77304
 C2548 C 0.62870 0.41541 0.75296
 C2549 C 0.63324 0.42744 0.79031
 C2550 C 0.62434 0.43280 0.81042
 C2551 C 0.60181 0.43246 0.81361
 C2552 C 0.58832 0.42667 0.79618
 H2553 H 0.64150 0.40130 0.71441
 H2554 H 0.56182 0.40006 0.72455
 H2555 H 0.57715 0.38696 0.69090
 H2556 H 0.56630 0.41407 0.76128
 H2557 H 0.64609 0.41567 0.75071
 H2558 H 0.65066 0.42774 0.78837
 H2559 H 0.63517 0.43686 0.82360
 H2560 H 0.57091 0.42664 0.79825
 C2561 C 1.28148 1.10872 1.10268
 C2562 C 1.26205 1.09776 1.09905
 C2563 C 1.25034 1.08970 1.11676
 C2564 C 1.25870 1.09193 1.13770
 C2565 C 1.27835 1.10218 1.14116
 C2566 C 1.28997 1.11103 1.12378
 C2567 C 1.23040 1.07969 1.11331
 C2568 C 1.22215 1.07729 1.09227
 C2569 C 1.23439 1.08441 1.07446
 C2570 C 1.25417 1.09470 1.07795
 C2571 C 1.22642 1.08153 1.05342
 C2572 C 1.20606 1.07270 1.05008
 C2573 C 1.19311 1.06677 1.06770
 C2574 C 1.20158 1.06847 1.08878
 H2575 H 1.29028 1.11477 1.08894
 H2576 H 1.24998 1.08581 1.15148
 H2577 H 1.28384 1.10392 1.15770
 H2578 H 1.22122 1.07397 1.12699
 H2579 H 1.26329 1.10053 1.06428
 H2580 H 1.23572 1.08655 1.03956
 H2581 H 1.20012 1.07106 1.03364
 H2582 H 1.19178 1.06396 1.10248
 C2583 C 1.28713 0.61372 0.61105
 C2584 C 1.26686 0.60833 0.60238
 C2585 C 1.25384 0.62424 0.59250
 C2586 C 1.26162 0.64511 0.59081
 C2587 C 1.28191 0.65035 0.59924
 C2588 C 1.29490 0.63489 0.60994
 C2589 C 1.23319 0.61908 0.58463
 C2590 C 1.22550 0.59811 0.58632
 C2591 C 1.23883 0.58203 0.59558
 C2592 C 1.25939 0.58724 0.60360
 C2593 C 1.23131 0.56101 0.59685
 C2594 C 1.21061 0.55600 0.58941
 C2595 C 1.19687 0.57194 0.58076
 C2596 C 1.20459 0.59299 0.57909
 H2597 H 1.29687 0.60119 0.61834
 H2598 H 1.25189 0.65750 0.58317
 H2599 H 1.28680 0.66684 0.59804
 H2600 H 1.22308 0.63140 0.57734
 H2601 H 1.26947 0.57494 0.61097
 H2602 H 1.24142 0.54844 0.60366
 H2603 H 1.20538 0.53955 0.59041
 H2604 H 1.19418 0.60553 0.57267
 C2605 C 0.75319 1.14405 0.62744
 C2606 C 0.73556 1.13213 0.61990
 C2607 C 0.71795 1.12824 0.63385
 C2608 C 0.71823 1.13645 0.65502
 C2609 C 0.73601 1.14797 0.66249
 C2610 C 0.75367 1.15172 0.64885
 C2611 C 0.70048 1.11603 0.62651
 C2612 C 0.70040 1.10758 0.60542
 C2613 C 0.71800 1.11147 0.59146
 C2614 C 0.73547 1.12372 0.59880
 C2615 C 0.71773 1.10319 0.57031
 C2616 C 0.70001 1.09153 0.56291
 C2617 C 0.68241 1.08773 0.57661
 C2618 C 0.68283 1.09557 0.59795
 H2619 H 0.76693 1.14660 0.61697
 H2620 H 0.70487 1.13366 0.66591
 H2621 H 0.73611 1.15384 0.67902
 H2622 H 0.68698 1.11307 0.63720
 H2623 H 0.74897 1.12667 0.58810
 H2624 H 0.73107 1.10600 0.55940
 H2625 H 0.69993 1.08559 0.54638
 H2626 H 0.66911 1.09297 0.60847
 C2627 C 0.77185 0.61997 1.12797
 C2628 C 0.75198 0.61376 1.11905
 C2629 C 0.73723 0.62953 1.11152
 C2630 C 0.74289 0.65121 1.11253
 C2631 C 0.76282 0.65724 1.12132
 C2632 C 0.77730 0.64172 1.12939
 C2633 C 0.71703 0.62338 1.10327
 C2634 C 0.71151 0.60165 1.10226
 C2635 C 0.72650 0.58588 1.10931
 C2636 C 0.74661 0.59203 1.11773
 C2637 C 0.72109 0.56418 1.10792
 C2638 C 0.70095 0.55812 1.09977
 C2639 C 0.68570 0.57364 1.09306
 C2640 C 0.69119 0.59544 1.09438
 H2641 H 0.78311 0.60789 1.13385
 H2642 H 0.73182 0.66351 1.10676
 H2643 H 0.76667 0.67408 1.12238
 H2644 H 0.70561 0.63549 1.09771
 H2645 H 0.75801 0.57993 1.12335
 H2646 H 0.73247 0.55188 1.11308
 H2647 H 0.69741 0.54121 1.09854
 H2648 H 0.67954 0.60765 1.08961
 C2649 C 1.27652 0.87882 0.87767
 C2650 C 1.25739 0.88970 0.88328
 C2651 C 1.25604 0.91220 0.88138
 C2652 C 1.27359 0.92330 0.87286
 C2653 C 1.29242 0.91226 0.86661
 C2654 C 1.29437 0.88989 0.86939
 C2655 C 1.23721 0.92316 0.88812
 C2656 C 1.21959 0.91176 0.89626
 C2657 C 1.22069 0.88913 0.89704
 C2658 C 1.23959 0.87829 0.89073
 C2659 C 1.20293 0.87763 0.90437
 C2660 C 1.18450 0.88841 0.91168
 C2661 C 1.18355 0.91095 0.91226
 C2662 C 1.20102 0.92256 0.90398
 H2663 H 1.27710 0.86156 0.87914
 H2664 H 1.27282 0.94055 0.87110
 H2665 H 1.30575 0.92148 0.86051
 H2666 H 1.23632 0.94049 0.88713
 H2667 H 1.24050 0.86096 0.89178
 H2668 H 1.20336 0.86027 0.90466
 H2669 H 1.17100 0.87900 0.91717
 H2670 H 1.20049 0.93992 0.90421
 C2671 C 1.25719 0.35971 0.36467
 C2672 C 1.24266 0.37279 0.37613
 C2673 C 1.24345 0.39524 0.37398
 C2674 C 1.25862 0.40418 0.35999
 C2675 C 1.27308 0.39101 0.34849
 C2676 C 1.27289 0.36853 0.35092
 C2677 C 1.22903 0.40831 0.38579
 C2678 C 1.21366 0.39907 0.39944
 C2679 C 1.21276 0.37654 0.40125
 C2680 C 1.22731 0.36357 0.38969
 C2681 C 1.19716 0.36726 0.41445
 C2682 C 1.18234 0.38014 0.42560
 C2683 C 1.18305 0.40260 0.42413
 C2684 C 1.19896 0.41196 0.41110
 H2685 H 1.25574 0.34257 0.36630
 H2686 H 1.25942 0.42139 0.35806
 H2687 H 1.28482 0.39869 0.33834
 H2688 H 1.22965 0.42559 0.38424
 H2689 H 1.22663 0.34629 0.39120
 H2690 H 1.19616 0.35000 0.41584
 H2691 H 1.16995 0.37239 0.43497
 H2692 H 1.19986 0.42923 0.40993
 C2693 C 0.77307 0.88100 0.38178
 C2694 C 0.75418 0.88779 0.39246
 C2695 C 0.75344 0.88776 0.41534
 C2696 C 0.77148 0.88029 0.42707
 C2697 C 0.79015 0.87324 0.41625
 C2698 C 0.79121 0.87384 0.39356
 C2699 C 0.73478 0.89535 0.42603
 C2700 C 0.71680 0.90276 0.41410
 C2701 C 0.71744 0.90211 0.39121
 C2702 C 0.73610 0.89472 0.38057
 C2703 C 0.69946 0.90907 0.37925
 C2704 C 0.68115 0.91713 0.38976
 C2705 C 0.68046 0.91870 0.41249
 C2706 C 0.69829 0.91108 0.42461
 H2707 H 0.77368 0.88115 0.36425
 H2708 H 0.77121 0.88003 0.44460
 H2709 H 0.80400 0.86782 0.42560
 H2710 H 0.73431 0.89561 0.44358
 H2711 H 0.73661 0.89452 0.36302
 H2712 H 0.69958 0.90840 0.36171
 H2713 H 0.66747 0.92222 0.37999
 H2714 H 0.69802 0.91215 0.44212
 C2715 C 0.79108 0.39393 0.90446
 C2716 C 0.77139 0.39818 0.91497
 C2717 C 0.75858 0.38104 0.92211
 C2718 C 0.76630 0.36000 0.91982
 C2719 C 0.78622 0.35589 0.90999
 C2720 C 0.79867 0.37271 0.90158
 C2721 C 0.73814 0.38519 0.93110
 C2722 C 0.73052 0.40632 0.93342
 C2723 C 0.74397 0.42350 0.92757
 C2724 C 0.76424 0.41934 0.91826
 C2725 C 0.73670 0.44460 0.93066
 C2726 C 0.71587 0.44868 0.93835
 C2727 C 0.70170 0.43176 0.94272
 C2728 C 0.70945 0.41055 0.94087
 H2729 H 0.80064 0.40722 0.89894
 H2730 H 0.75679 0.34667 0.92537
 H2731 H 0.79115 0.33933 0.90797
 H2732 H 0.72804 0.37198 0.93596
 H2733 H 0.77426 0.43254 0.91322
 H2734 H 0.74695 0.45797 0.92671
 H2735 H 0.71064 0.46519 0.94035
 H2736 H 0.69880 0.39731 0.94417
 C2737 C 0.72470 0.88016 1.11681
 C2738 C 0.74342 0.89117 1.11084
 C2739 C 0.74383 0.91378 1.11231
 C2740 C 0.72563 0.92494 1.12016
 C2741 C 0.70713 0.91384 1.12625
 C2742 C 0.70639 0.89139 1.12446
 C2743 C 0.76232 0.92486 1.10575
 C2744 C 0.78044 0.91360 1.09774
 C2745 C 0.78011 0.89095 1.09672
 C2746 C 0.76166 0.87991 1.10328
 C2747 C 0.79818 0.87966 1.08888
 C2748 C 0.81620 0.89065 1.08153
 C2749 C 0.81656 0.91318 1.08180
 C2750 C 0.79873 0.92459 1.09036
 H2751 H 0.72439 0.86284 1.11566
 H2752 H 0.72563 0.94225 1.12145
 H2753 H 0.69317 0.92286 1.13192
 H2754 H 0.76253 0.94222 1.10666
 H2755 H 0.76142 0.86255 1.10227
 H2756 H 0.79829 0.86231 1.08818
 H2757 H 0.82990 0.88147 1.07549
 H2758 H 0.79883 0.94195 1.09062
 C2759 C 0.71988 0.39327 0.61579
 C2760 C 0.74051 0.39812 0.60785
 C2761 C 0.75479 0.38136 0.60153
 C2762 C 0.74805 0.36004 0.60302
 C2763 C 0.72735 0.35538 0.61058
 C2764 C 0.71312 0.37190 0.61710
 C2765 C 0.77549 0.38616 0.59374
 C2766 C 0.78201 0.40754 0.59192
 C2767 C 0.76758 0.42428 0.59794
 C2768 C 0.74700 0.41948 0.60596
 C2769 C 0.77398 0.44561 0.59586
 C2770 C 0.79454 0.45037 0.58812
 C2771 C 0.80927 0.43393 0.58242
 C2772 C 0.80276 0.41247 0.58426
 H2773 H 0.70887 0.40611 0.62047
 H2774 H 0.75874 0.34698 0.59822
 H2775 H 0.72251 0.33882 0.61157
 H2776 H 0.78647 0.37328 0.58902
 H2777 H 0.73601 0.43236 0.61066
 H2778 H 0.76306 0.45864 0.60022
 H2779 H 0.79890 0.46703 0.58649
 H2780 H 0.81396 0.39960 0.58015
 C2781 C 0.21858 0.89066 0.61454
 C2782 C 0.23749 0.90174 0.60964
 C2783 C 0.23711 0.92438 0.60895
 C2784 C 0.21785 0.93553 0.61376
 C2785 C 0.19910 0.92432 0.61882
 C2786 C 0.19925 0.90182 0.61895
 C2787 C 0.25587 0.93543 0.60318
 C2788 C 0.27494 0.92408 0.59801
 C2789 C 0.27535 0.90144 0.59928
 C2790 C 0.25668 0.89046 0.60516
 C2791 C 0.29431 0.89006 0.59417
 C2792 C 0.31249 0.90088 0.58703
 C2793 C 0.31210 0.92328 0.58494
 C2794 C 0.29344 0.93489 0.59100
 H2795 H 0.21889 0.87331 0.61501
 H2796 H 0.21724 0.95287 0.61341
 H2797 H 0.18431 0.93320 0.62216
 H2798 H 0.25551 0.95278 0.60233
 H2799 H 0.25698 0.87310 0.60584
 H2800 H 0.29494 0.87275 0.59524
 H2801 H 0.32684 0.89167 0.58279
 H2802 H 0.29303 0.95217 0.58937
 C2803 C 0.23084 0.37243 1.10706
 C2804 C 0.24791 0.38405 1.09814
 C2805 C 0.24896 0.40642 1.10154
 C2806 C 0.23319 0.41672 1.11419
 C2807 C 0.21675 0.40496 1.12373
 C2808 C 0.21524 0.38262 1.12034
 C2809 C 0.26599 0.41808 1.09264
 C2810 C 0.28251 0.40751 1.08112
 C2811 C 0.28178 0.38505 1.07824
 C2812 C 0.26430 0.37352 1.08640
 C2813 C 0.29877 0.37440 1.06762
 C2814 C 0.31643 0.38582 1.06006
 C2815 C 0.31725 0.40828 1.06234
 C2816 C 0.30000 0.41900 1.07282
 H2817 H 0.23053 0.35526 1.10457
 H2818 H 0.23373 0.43386 1.11697
 H2819 H 0.20487 0.41363 1.13327
 H2820 H 0.26667 0.43528 1.09514
 H2821 H 0.26373 0.35630 1.08405
 H2822 H 0.29862 0.35715 1.06556
 H2823 H 0.32964 0.37686 1.05278
 H2824 H 0.30013 0.43628 1.07459
 C2825 C 0.71553 1.10758 0.90424
 C2826 C 0.73575 1.09821 0.90874
 C2827 C 0.73896 1.07595 0.90571
 C2828 C 0.72189 1.06348 0.89791
 C2829 C 0.70204 1.07306 0.89258
 C2830 C 0.69854 1.09528 0.89554
 C2831 C 0.75926 1.06661 0.91014
 C2832 C 0.77657 1.07942 0.91692
 C2833 C 0.77341 1.10180 0.91936
 C2834 C 0.75300 1.11098 0.91555
 C2835 C 0.79077 1.11470 0.92549
 C2836 C 0.81102 1.10555 0.92958
 C2837 C 0.81428 1.08324 0.92797
 C2838 C 0.79699 1.07027 0.92132
 H2839 H 0.71367 1.12474 0.90618
 H2840 H 0.72400 1.04637 0.89553
 H2841 H 0.68931 1.06289 0.88647
 H2842 H 0.76168 1.04949 0.90801
 H2843 H 0.75062 1.12813 0.91757
 H2844 H 0.78869 1.13190 0.92713
 H2845 H 0.82418 1.11599 0.93411
 H2846 H 0.79928 1.05307 0.92007
 C2847 C 0.73343 0.62485 0.37762
 C2848 C 0.75176 0.61726 0.38875
 C2849 C 0.75251 0.61847 0.41160
 C2850 C 0.73504 0.62775 0.42286
 C2851 C 0.71684 0.63534 0.41161
 C2852 C 0.71573 0.63367 0.38894
 C2853 C 0.77056 0.61019 0.42277
 C2854 C 0.78788 0.60077 0.41135
 C2855 C 0.78723 0.59999 0.38847
 C2856 C 0.76922 0.60824 0.37733
 C2857 C 0.80457 0.59083 0.37704
 C2858 C 0.82231 0.58222 0.38812
 C2859 C 0.82305 0.58244 0.41089
 C2860 C 0.80577 0.59195 0.42241
 H2861 H 0.73289 0.62384 0.36011
 H2862 H 0.73534 0.62889 0.44037
 H2863 H 0.70335 0.64196 0.42067
 H2864 H 0.77105 0.61092 0.44032
 H2865 H 0.76868 0.60744 0.35979
 H2866 H 0.80442 0.59029 0.35950
 H2867 H 0.83559 0.57552 0.37880
 H2868 H 0.80605 0.59214 0.43995
 C2869 C 0.21030 1.11317 0.39139
 C2870 C 0.23050 1.10348 0.39574
 C2871 C 0.23296 1.08099 0.39401
 C2872 C 0.21536 1.06864 0.38740
 C2873 C 0.19555 1.07841 0.38241
 C2874 C 0.19258 1.10082 0.38436
 C2875 C 0.25297 1.07120 0.39883
 C2876 C 0.27073 1.08367 0.40498
 C2877 C 0.26845 1.10623 0.40599
 C2878 C 0.24835 1.11597 0.40154
 C2879 C 0.28628 1.11872 0.41163
 C2880 C 0.30601 1.10898 0.41691
 C2881 C 0.30831 1.08652 0.41692
 C2882 C 0.29066 1.07394 0.41044
 H2883 H 0.20880 1.13043 0.39256
 H2884 H 0.21693 1.05138 0.38600
 H2885 H 0.18237 1.06813 0.37767
 H2886 H 0.25470 1.05391 0.39780
 H2887 H 0.24661 1.13325 0.40260
 H2888 H 0.28492 1.13604 0.41219
 H2889 H 0.31948 1.11909 0.42130
 H2890 H 0.29220 1.05663 0.41040
 C2891 C 0.21977 0.59764 0.89501
 C2892 C 0.24108 0.59399 0.90209
 C2893 C 0.25190 0.61000 0.91408
 C2894 C 0.24085 0.62886 0.91984
 C2895 C 0.21942 0.63211 0.91339
 C2896 C 0.20869 0.61683 0.90038
 C2897 C 0.27359 0.60692 0.92011
 C2898 C 0.28436 0.58767 0.91499
 C2899 C 0.27316 0.57117 0.90408
 C2900 C 0.25170 0.57454 0.89738
 C2901 C 0.28363 0.55155 0.90009
 C2902 C 0.30507 0.54836 0.90661
 C2903 C 0.31680 0.56498 0.91662
 C2904 C 0.30614 0.58467 0.92071
 H2905 H 0.21170 0.58526 0.88576
 H2906 H 0.24885 0.64122 0.92921
 H2907 H 0.21179 0.64720 0.91770
 H2908 H 0.28202 0.61943 0.92890
 H2909 H 0.24327 0.56204 0.88859
 H2910 H 0.27517 0.53857 0.89211
 H2911 H 0.31233 0.53273 0.90389
 H2912 H 0.31477 0.59786 0.92806
 C2913 C 1.12036 1.26808 1.12639
 C2914 C 1.11488 1.24836 1.11672
 C2915 C 1.13138 1.23466 1.10856
 C2916 C 1.15302 1.24102 1.10997
 C2917 C 1.15827 1.26083 1.11916
 C2918 C 1.14205 1.27452 1.12746
 C2919 C 1.12599 1.21491 1.09899
 C2920 C 1.10427 1.20877 1.09719
 C2921 C 1.08777 1.22265 1.10504
 C2922 C 1.09317 1.24227 1.11483
 C2923 C 1.06609 1.21666 1.10303
 C2924 C 1.06075 1.19696 1.09374
 C2925 C 1.07695 1.18269 1.08634
 C2926 C 1.09875 1.18889 1.08785
 H2927 H 1.10776 1.27870 1.13250
 H2928 H 1.16589 1.23077 1.10379
 H2929 H 1.17508 1.26548 1.11991
 H2930 H 1.13869 1.20438 1.09289
 H2931 H 1.08047 1.25281 1.12092
 H2932 H 1.05322 1.22718 1.10876
 H2933 H 1.04382 1.19283 1.09241
 H2934 H 1.11142 1.17803 1.08233
 C2935 C 1.10654 0.78542 0.59825
 C2936 C 1.10421 0.76457 0.58999
 C2937 C 1.12267 0.75122 0.58726
 C2938 C 1.14323 0.75924 0.59221
 C2939 C 1.14542 0.78014 0.60013
 C2940 C 1.12710 0.79328 0.60348
 C2941 C 1.12025 0.73003 0.57991
 C2942 C 1.09960 0.72205 0.57524
 C2943 C 1.08125 0.73570 0.57733
 C2944 C 1.08367 0.75683 0.58466
 C2945 C 1.06065 0.72785 0.57252
 C2946 C 1.05808 0.70646 0.56657
 C2947 C 1.07603 0.69244 0.56532
 C2948 C 1.09687 0.70050 0.56911
 H2949 H 1.09240 0.79562 0.60054
 H2950 H 1.15757 0.74930 0.59014
 H2951 H 1.16139 0.78591 0.60417
 H2952 H 1.13438 0.71969 0.57817
 H2953 H 1.06954 0.76714 0.58657
 H2954 H 1.04646 0.73815 0.57380
 H2955 H 1.04192 0.70072 0.56330
 H2956 H 1.11080 0.68981 0.56824
 C2957 C 0.61490 1.27859 0.60649
 C2958 C 0.60392 1.25991 0.60045
 C2959 C 0.58115 1.26045 0.59801
 C2960 C 0.56977 1.27967 0.60171
 C2961 C 0.58080 1.29812 0.60800
 C2962 C 0.60342 1.29775 0.61048
 C2963 C 0.57013 1.24176 0.59200
 C2964 C 0.58161 1.22253 0.58845
 C2965 C 0.60438 1.22202 0.59107
 C2966 C 0.61537 1.24068 0.59705
 C2967 C 0.61587 1.20287 0.58744
 C2968 C 0.60501 1.18450 0.58080
 C2969 C 0.58246 1.18486 0.57778
 C2970 C 0.57076 1.20386 0.58200
 H2971 H 0.63230 1.27808 0.60871
 H2972 H 0.55233 1.28041 0.59990
 H2973 H 0.57167 1.31276 0.61090
 H2974 H 0.55268 1.24221 0.59003
 H2975 H 0.63282 1.24024 0.59900
 H2976 H 0.63329 1.20217 0.58947
 H2977 H 0.61428 1.16994 0.57784
 H2978 H 0.55337 1.20425 0.57956
 C2979 C 0.60217 0.78186 1.10744
 C2980 C 0.59774 0.76059 1.10165
 C2981 C 0.61499 0.74638 1.09654
 C2982 C 0.63630 0.75385 1.09686
 C2983 C 0.64057 0.77503 1.10279
 C2984 C 0.62360 0.78915 1.10848
 C2985 C 0.61067 0.72492 1.09148
 C2986 C 0.58932 0.71750 1.09138
 C2987 C 0.57205 0.73179 1.09616
 C2988 C 0.57637 0.75325 1.10127
 C2989 C 0.55074 0.72435 1.09578
 C2990 C 0.54652 0.70298 1.09059
 C2991 C 0.56355 0.68855 1.08588
 C2992 C 0.58498 0.69600 1.08653
 H2993 H 0.58892 0.79268 1.11145
 H2994 H 0.64971 0.74318 1.09295
 H2995 H 0.65722 0.78013 1.10367
 H2996 H 0.62392 0.71397 1.08771
 H2997 H 0.56313 0.76418 1.10511
 H2998 H 0.53730 0.73512 1.09930
 H2999 H 0.52986 0.69785 1.08987
 H3000 H 0.59834 0.68504 1.08336
 C3001 C 0.88322 1.27090 0.87880
 C3002 C 0.89399 1.25215 0.88528
 C3003 C 0.91674 1.25053 0.88340
 C3004 C 0.92821 1.26751 0.87434
 C3005 C 0.91732 1.28622 0.86797
 C3006 C 0.89481 1.28824 0.87059
 C3007 C 0.92763 1.23218 0.89100
 C3008 C 0.91601 1.21552 0.90051
 C3009 C 0.89319 1.21700 0.90181
 C3010 C 0.88234 1.23524 0.89413
 C3011 C 0.88157 1.20031 0.91106
 C3012 C 0.89242 1.18247 0.91939
 C3013 C 0.91514 1.18100 0.91878
 C3014 C 0.92683 1.19754 0.90904
 H3015 H 0.86581 1.27220 0.88051
 H3016 H 0.94564 1.26653 0.87267
 H3017 H 0.92658 1.29942 0.86178
 H3018 H 0.94512 1.23104 0.88985
 H3019 H 0.86486 1.23647 0.89544
 H3020 H 0.86406 1.20110 0.91197
 H3021 H 0.88295 1.16973 0.92623
 H3022 H 0.94435 1.19667 0.90855
 C3023 C 0.88411 0.77131 0.38022
 C3024 C 0.89602 0.75276 0.38551
 C3025 C 0.91888 0.75343 0.38651
 C3026 C 0.92944 0.77253 0.38153
 C3027 C 0.91747 0.79078 0.37577
 C3028 C 0.89475 0.79037 0.37531
 C3029 C 0.93077 0.73507 0.39256
 C3030 C 0.92007 0.71600 0.39747
 C3031 C 0.89724 0.71523 0.39572
 C3032 C 0.88539 0.73358 0.38981
 C3033 C 0.88652 0.69620 0.40032
 C3034 C 0.89813 0.67835 0.40751
 C3035 C 0.92071 0.67912 0.41031
 C3036 C 0.93171 0.69784 0.40465
 H3037 H 0.86659 0.77089 0.37952
 H3038 H 0.94694 0.77335 0.38208
 H3039 H 0.92589 0.80537 0.37198
 H3040 H 0.94827 0.73570 0.39368
 H3041 H 0.86787 0.73299 0.38880
 H3042 H 0.86907 0.69525 0.39881
 H3043 H 0.88936 0.66397 0.41139
 H3044 H 0.94911 0.69857 0.40677
 C3045 C 0.36479 1.25678 0.35808
 C3046 C 0.37183 1.24013 0.37149
 C3047 C 0.35685 1.22486 0.37883
 C3048 C 0.33497 1.22683 0.37292
 C3049 C 0.32802 1.24381 0.35991
 C3050 C 0.34291 1.25874 0.35230
 C3051 C 0.36399 1.20793 0.39192
 C3052 C 0.38589 1.20616 0.39780
 C3053 C 0.40072 1.22176 0.39086
 C3054 C 0.39359 1.23863 0.37776
 C3055 C 0.42258 1.21997 0.39675
 C3056 C 0.42987 1.20242 0.40865
 C3057 C 0.41542 1.18646 0.41499
 C3058 C 0.39333 1.18869 0.40998
 H3059 H 0.37618 1.26862 0.35259
 H3060 H 0.32325 1.21536 0.37847
 H3061 H 0.31106 1.24530 0.35568
 H3062 H 0.35259 1.19605 0.39733
 H3063 H 0.40501 1.25046 0.37226
 H3064 H 0.43411 1.23185 0.39170
 H3065 H 0.44694 1.20102 0.41253
 H3066 H 0.38215 1.17630 0.41462
 C3067 C 0.39326 0.77753 0.88655
 C3068 C 0.39770 0.75748 0.89575
 C3069 C 0.38059 0.74318 0.89966
 C3070 C 0.35927 0.74945 0.89477
 C3071 C 0.35496 0.76960 0.88589
 C3072 C 0.37192 0.78368 0.88151
 C3073 C 0.38511 0.72284 0.90825
 C3074 C 0.40651 0.71669 0.91307
 C3075 C 0.42350 0.73126 0.90966
 C3076 C 0.41900 0.75152 0.90102
 C3077 C 0.44482 0.72523 0.91466
 C3078 C 0.44941 0.70473 0.92235
 C3079 C 0.43280 0.68980 0.92514
 C3080 C 0.41127 0.69605 0.92085
 H3081 H 0.40635 0.78849 0.88351
 H3082 H 0.34594 0.73876 0.89772
 H3083 H 0.33842 0.77406 0.88205
 H3084 H 0.37202 0.71177 0.91099
 H3085 H 0.43209 0.76256 0.89818
 H3086 H 0.45800 0.73626 0.91235
 H3087 H 0.46607 0.70045 0.92595
 H3088 H 0.39835 0.68465 0.92283
 C3089 C 1.10122 0.71399 0.88677
 C3090 C 1.09490 0.73372 0.89599
 C3091 C 1.09208 0.73548 0.91867
 C3092 C 1.09531 0.71743 0.93168
 C3093 C 1.10204 0.69803 0.92242
 C3094 C 1.10531 0.69621 0.90000
 C3095 C 1.08652 0.75531 0.92804
 C3096 C 1.08397 0.77349 0.91507
 C3097 C 1.08666 0.77171 0.89238
 C3098 C 1.09203 0.75184 0.88299
 C3099 C 1.08396 0.78989 0.87944
 C3100 C 1.07847 0.80959 0.88884
 C3101 C 1.07571 0.81153 0.91134
 C3102 C 1.07867 0.79344 0.92441
 H3103 H 1.10404 0.71272 0.86951
 H3104 H 1.09317 0.71846 0.94906
 H3105 H 1.10510 0.68443 0.93282
 H3106 H 1.08445 0.75664 0.94543
 H3107 H 1.09422 0.75053 0.86561
 H3108 H 1.08600 0.78884 0.86205
 H3109 H 1.07636 0.82341 0.87850
 H3110 H 1.07633 0.79481 0.94176
 C3111 C 1.10996 0.21316 0.40402
 C3112 C 1.10340 0.23439 0.40843
 C3113 C 1.09727 0.24800 0.39117
 C3114 C 1.09772 0.24015 0.36987
 C3115 C 1.10372 0.21891 0.36571
 C3116 C 1.10978 0.20524 0.38269
 C3117 C 1.09044 0.26911 0.39547
 C3118 C 1.08925 0.27673 0.41684
 C3119 C 1.09518 0.26310 0.43412
 C3120 C 1.10238 0.24208 0.42980
 C3121 C 1.09369 0.27069 0.45546
 C3122 C 1.08648 0.29159 0.45968
 C3123 C 1.08075 0.30541 0.44264
 C3124 C 1.08214 0.29777 0.42121
 H3125 H 1.11439 0.20254 0.41715
 H3126 H 1.09308 0.25033 0.35646
 H3127 H 1.10361 0.21304 0.34918
 H3128 H 1.08580 0.27950 0.38220
 H3129 H 1.10693 0.23166 0.44307
 H3130 H 1.09802 0.26044 0.46892
 H3131 H 1.08524 0.29691 0.47635
 H3132 H 1.07803 0.30830 0.40790
 C3133 C 0.61021 0.72409 0.39163
 C3134 C 0.60039 0.74403 0.39619
 C3135 C 0.59287 0.75704 0.37902
 C3136 C 0.59481 0.74964 0.35763
 C3137 C 0.60441 0.72971 0.35325
 C3138 C 0.61241 0.71687 0.37014
 C3139 C 0.58381 0.77731 0.38346
 C3140 C 0.58211 0.78475 0.40489
 C3141 C 0.58910 0.77149 0.42208
 C3142 C 0.59818 0.75123 0.41763
 C3143 C 0.58721 0.77885 0.44346
 C3144 C 0.57907 0.79938 0.44779
 C3145 C 0.57273 0.81304 0.43084
 C3146 C 0.57394 0.80542 0.40938
 H3147 H 0.61612 0.71417 0.40475
 H3148 H 0.58910 0.75936 0.34426
 H3149 H 0.60611 0.72458 0.33657
 H3150 H 0.57833 0.78739 0.37025
 H3151 H 0.60378 0.74121 0.43083
 H3152 H 0.59228 0.76883 0.45685
 H3153 H 0.57789 0.80465 0.46449
 H3154 H 0.56926 0.81581 0.39614
 C3155 C 0.61764 0.21909 0.88322
 C3156 C 0.61264 0.23854 0.89393
 C3157 C 0.60792 0.23854 0.91634
 C3158 C 0.60849 0.21920 0.92768
 C3159 C 0.61396 0.20009 0.91705
 C3160 C 0.61859 0.19984 0.89481
 C3161 C 0.60284 0.25786 0.92711
 C3162 C 0.60256 0.27729 0.91583
 C3163 C 0.60763 0.27732 0.89350
 C3164 C 0.61258 0.25799 0.88270
 C3165 C 0.60738 0.29670 0.88223
 C3166 C 0.60146 0.31574 0.89273
 C3167 C 0.59577 0.31590 0.91475
 C3168 C 0.59683 0.29663 0.92637
 H3169 H 0.62149 0.21896 0.86612
 H3170 H 0.60496 0.21887 0.94484
 H3171 H 0.61465 0.18537 0.92619
 H3172 H 0.59906 0.25776 0.94423
 H3173 H 0.61634 0.25808 0.86557
 H3174 H 0.61136 0.29707 0.86517
 H3175 H 0.60093 0.33043 0.88350
 H3176 H 0.59231 0.29658 0.94331
 C3177 C 0.88123 0.72928 1.11986
 C3178 C 0.89119 0.74823 1.11328
 C3179 C 0.90012 0.76220 1.12898
 C3180 C 0.89937 0.75670 1.15093
 C3181 C 0.88958 0.73770 1.15731
 C3182 C 0.88020 0.72395 1.14190
 C3183 C 0.90949 0.78149 1.12250
 C3184 C 0.91016 0.78692 1.10050
 C3185 C 0.90167 0.77269 1.08479
 C3186 C 0.89221 0.75347 1.09128
 C3187 C 0.90260 0.77801 1.06283
 C3188 C 0.91151 0.79740 1.05645
 C3189 C 0.91956 0.81198 1.07190
 C3190 C 0.91898 0.80647 1.09395
 H3191 H 0.87432 0.71860 1.10784
 H3192 H 0.90618 0.76718 1.16318
 H3193 H 0.88884 0.73402 1.17438
 H3194 H 0.91612 0.79231 1.13456
 H3195 H 0.88550 0.74268 1.07922
 H3196 H 0.89635 0.76720 1.05056
 H3197 H 0.91214 0.80097 1.03934
 H3198 H 0.92489 0.81760 1.10609
 C3199 C 0.87049 0.24368 0.64181
 C3200 C 0.87948 0.26000 0.62925
 C3201 C 0.88013 0.25783 0.60645
 C3202 C 0.87171 0.23937 0.59662
 C3203 C 0.86232 0.22348 0.60920
 C3204 C 0.86156 0.22551 0.63185
 C3205 C 0.88886 0.27424 0.59383
 C3206 C 0.89668 0.29297 0.60371
 C3207 C 0.89581 0.29516 0.62651
 C3208 C 0.88735 0.27866 0.63911
 C3209 C 0.90339 0.31388 0.63640
 C3210 C 0.91208 0.33017 0.62393
 C3211 C 0.91348 0.32812 0.60128
 C3212 C 0.90545 0.30952 0.59121
 H3213 H 0.86959 0.24549 0.65925
 H3214 H 0.87203 0.23741 0.57918
 H3215 H 0.85548 0.20959 0.60127
 H3216 H 0.88940 0.27251 0.57636
 H3217 H 0.88672 0.28042 0.65658
 H3218 H 0.90269 0.31591 0.65383
 H3219 H 0.91775 0.34449 0.63207
 H3220 H 0.90650 0.30773 0.57378
 C3221 C 0.39153 0.73067 0.61034
 C3222 C 0.40019 0.75087 0.60613
 C3223 C 0.40626 0.76440 0.62354
 C3224 C 0.40410 0.75719 0.64486
 C3225 C 0.39577 0.73688 0.64888
 C3226 C 0.38918 0.72360 0.63169
 C3227 C 0.41421 0.78492 0.61934
 C3228 C 0.41627 0.79202 0.59795
 C3229 C 0.41078 0.77818 0.58058
 C3230 C 0.40276 0.75774 0.58477
 C3231 C 0.41308 0.78513 0.55924
 C3232 C 0.42009 0.80582 0.55508
 C3233 C 0.42485 0.82006 0.57215
 C3234 C 0.42333 0.81288 0.59361
 H3235 H 0.38677 0.72031 0.59703
 H3236 H 0.40875 0.76727 0.65841
 H3237 H 0.39402 0.73170 0.66546
 H3238 H 0.41857 0.79542 0.63270
 H3239 H 0.39829 0.74728 0.57142
 H3240 H 0.40918 0.77465 0.54574
 H3241 H 0.42159 0.81080 0.53840
 H3242 H 0.42686 0.82372 0.60692
 C3243 C 0.37966 0.22646 1.10718
 C3244 C 0.38605 0.24477 1.09601
 C3245 C 0.38787 0.24415 1.07321
 C3246 C 0.38241 0.22532 1.06195
 C3247 C 0.37574 0.20718 1.07324
 C3248 C 0.37474 0.20750 1.09594
 C3249 C 0.39538 0.26223 1.06216
 C3250 C 0.40101 0.28089 1.07370
 C3251 C 0.39837 0.28158 1.09644
 C3252 C 0.39093 0.26357 1.10741
 C3253 C 0.40363 0.30015 1.10802
 C3254 C 0.41223 0.31765 1.09738
 C3255 C 0.41592 0.31699 1.07493
 C3256 C 0.40971 0.29871 1.06303
 H3257 H 0.37852 0.22687 1.12468
 H3258 H 0.38354 0.22454 1.04447
 H3259 H 0.37195 0.19268 1.06435
 H3260 H 0.39716 0.26166 1.04471
 H3261 H 0.38930 0.26408 1.12489
 H3262 H 0.40143 0.30101 1.12540
 H3263 H 0.41632 0.33173 1.10683
 H3264 H 0.41241 0.29804 1.04571
 C3265 C 1.10196 1.10206 0.71396
 C3266 C 1.09399 1.09849 0.73485
 C3267 C 1.08649 1.11594 0.74757
 C3268 C 1.08632 1.13655 0.73887
 C3269 C 1.09367 1.13994 0.71785
 C3270 C 1.10191 1.12283 0.70511
 C3271 C 1.07931 1.11250 0.76876
 C3272 C 1.07911 1.09174 0.77724
 C3273 C 1.08578 1.07419 0.76417
 C3274 C 1.09333 1.07768 0.74315
 C3275 C 1.08494 1.05340 0.77239
 C3276 C 1.07816 1.05003 0.79357
 C3277 C 1.07242 1.06739 0.80714
 C3278 C 1.07258 1.08824 0.79868
 H3279 H 1.10748 1.08847 0.70442
 H3280 H 1.08056 1.15012 0.74836
 H3281 H 1.09364 1.15623 0.71206
 H3282 H 1.07392 1.12597 0.77864
 H3283 H 1.09876 1.06422 0.73329
 H3284 H 1.08966 1.03974 0.76248
 H3285 H 1.07757 1.03373 0.79937
 H3286 H 1.06828 1.10180 0.80890
 C3287 C 1.11456 0.59481 0.21877
 C3288 C 1.10514 0.58922 0.23856
 C3289 C 1.08310 0.59414 0.24247
 C3290 C 1.07096 0.60494 0.22673
 C3291 C 1.08074 0.61155 0.20766
 C3292 C 1.10270 0.60675 0.20343
 C3293 C 1.07369 0.58876 0.26229
 C3294 C 1.08632 0.57946 0.27868
 C3295 C 1.10855 0.57520 0.27502
 C3296 C 1.11770 0.57966 0.25485
 C3297 C 1.12137 0.56688 0.29172
 C3298 C 1.11228 0.56261 0.31182
 C3299 C 1.09000 0.56599 0.31551
 C3300 C 1.07714 0.57459 0.29878
 H3301 H 1.13157 0.59134 0.21615
 H3302 H 1.05404 0.60882 0.22943
 H3303 H 1.07089 0.62015 0.19601
 H3304 H 1.05672 0.59236 0.26516
 H3305 H 1.13472 0.57624 0.25205
 H3306 H 1.13851 0.56386 0.28933
 H3307 H 1.12281 0.55668 0.32452
 H3308 H 1.05996 0.57723 0.30126
 C3309 C 0.60743 1.11886 0.21876
 C3310 C 0.60261 1.10921 0.23870
 C3311 C 0.61949 1.10041 0.25153
 C3312 C 0.64077 1.10087 0.24402
 C3313 C 0.64522 1.10907 0.22363
 C3314 C 0.62868 1.11803 0.21061
 C3315 C 0.61482 1.09072 0.27136
 C3316 C 0.59335 1.08870 0.27814
 C3317 C 0.57637 1.09667 0.26490
 C3318 C 0.58111 1.10727 0.24554
 C3319 C 0.55489 1.09377 0.27119
 C3320 C 0.55026 1.08367 0.29066
 C3321 C 0.56697 1.07666 0.30460
 C3322 C 0.58856 1.07885 0.29795
 H3323 H 0.59443 1.12526 0.20882
 H3324 H 0.65392 1.09421 0.25360
 H3325 H 0.66183 1.10866 0.21813
 H3326 H 0.62787 1.08429 0.28126
 H3327 H 0.56804 1.11355 0.23557
 H3328 H 0.54165 1.09939 0.26109
 H3329 H 0.53345 1.08168 0.29502
 H3330 H 0.60163 1.07357 0.30846
 C3331 C 0.62141 0.62128 0.72860
 C3332 C 0.61378 0.61576 0.74914
 C3333 C 0.60657 0.63199 0.76356
 C3334 C 0.60680 0.65345 0.75702
 C3335 C 0.61451 0.65882 0.73655
 C3336 C 0.62214 0.64285 0.72223
 C3337 C 0.59948 0.62655 0.78434
 C3338 C 0.59950 0.60505 0.79085
 C3339 C 0.60645 0.58881 0.77630
 C3340 C 0.61351 0.59426 0.75554
 C3341 C 0.60633 0.56736 0.78280
 C3342 C 0.59947 0.56201 0.80354
 C3343 C 0.59269 0.57799 0.81827
 C3344 C 0.59275 0.59954 0.81173
 H3345 H 0.62688 0.60878 0.71760
 H3346 H 0.60131 0.66610 0.76784
 H3347 H 0.61508 0.67555 0.73218
 H3348 H 0.59409 0.63902 0.79545
 H3349 H 0.61898 0.58179 0.74445
 H3350 H 0.61149 0.55471 0.77181
 H3351 H 0.59921 0.54527 0.80798
 H3352 H 0.58782 0.61207 0.82298
 C3353 C 0.89489 0.89954 0.71089
 C3354 C 0.89818 0.90811 0.73170
 C3355 C 0.88020 0.91270 0.74514
 C3356 C 0.85923 0.90909 0.73733
 C3357 C 0.85610 0.90077 0.71653
 C3358 C 0.87386 0.89575 0.70321
 C3359 C 0.88348 0.92056 0.76622
 C3360 C 0.90452 0.92385 0.77407
 C3361 C 0.92246 0.91973 0.76042
 C3362 C 0.91918 0.91195 0.73933
 C3363 C 0.94346 0.92304 0.76824
 C3364 C 0.94673 0.92961 0.78961
 C3365 C 0.92909 0.93306 0.80358
 C3366 C 0.90796 0.93064 0.79553
 H3367 H 0.90863 0.89595 0.70058
 H3368 H 0.84526 0.91254 0.74737
 H3369 H 0.83976 0.89780 0.71100
 H3370 H 0.86969 0.92380 0.77661
 H3371 H 0.93297 0.90856 0.72899
 H3372 H 0.95737 0.92015 0.75796
 H3373 H 0.96316 0.93172 0.79537
 H3374 H 0.89427 0.93315 0.80622
 C3375 C 0.88632 0.37694 0.23192
 C3376 C 0.89753 0.38146 0.25112
 C3377 C 0.92002 0.37740 0.25249
 C3378 C 0.93067 0.36777 0.23486
 C3379 C 0.91918 0.36249 0.21600
 C3380 C 0.89692 0.36746 0.21405
 C3381 C 0.93140 0.38308 0.27142
 C3382 C 0.92037 0.39230 0.28911
 C3383 C 0.89763 0.39515 0.28797
 C3384 C 0.88643 0.38991 0.26898
 C3385 C 0.88638 0.40356 0.30574
 C3386 C 0.89758 0.41011 0.32415
 C3387 C 0.92031 0.40877 0.32509
 C3388 C 0.93162 0.39917 0.30774
 H3389 H 0.86906 0.38008 0.23135
 H3390 H 0.94788 0.36432 0.23564
 H3391 H 0.92801 0.35535 0.20265
 H3392 H 0.94876 0.38048 0.27231
 H3393 H 0.86907 0.39260 0.26805
 H3394 H 0.86893 0.40543 0.30526
 H3395 H 0.88842 0.41676 0.33757
 H3396 H 0.94912 0.39790 0.30835
 C3397 C 0.38907 0.88626 0.21807
 C3398 C 0.39273 0.89652 0.23800
 C3399 C 0.38882 0.91876 0.24019
 C3400 C 0.38032 0.93017 0.22259
 C3401 C 0.37588 0.91968 0.20300
 C3402 C 0.38055 0.89764 0.20027
 C3403 C 0.39343 0.92916 0.25992
 C3404 C 0.40133 0.91742 0.27765
 C3405 C 0.40411 0.89496 0.27565
 C3406 C 0.40005 0.88472 0.25583
 C3407 C 0.41110 0.88304 0.29347
 C3408 C 0.41612 0.89329 0.31292
 C3409 C 0.41476 0.91575 0.31488
 C3410 C 0.40679 0.92771 0.29725
 H3411 H 0.39204 0.86918 0.21683
 H3412 H 0.37706 0.94722 0.22397
 H3413 H 0.36959 0.92914 0.18974
 H3414 H 0.39089 0.94633 0.26146
 H3415 H 0.40262 0.86756 0.25428
 H3416 H 0.41288 0.86578 0.29233
 H3417 H 0.42140 0.88354 0.32641
 H3418 H 0.40554 0.94500 0.29851
 C3419 C 0.40478 0.39132 0.71076
 C3420 C 0.41574 0.39607 0.73004
 C3421 C 0.43861 0.39643 0.73039
 C3422 C 0.45008 0.39124 0.71143
 C3423 C 0.43895 0.38623 0.69226
 C3424 C 0.41624 0.38666 0.69173
 C3425 C 0.44950 0.40225 0.74956
 C3426 C 0.43773 0.40769 0.76830
 C3427 C 0.41486 0.40659 0.76793
 C3428 C 0.40406 0.40076 0.74887
 C3429 C 0.40301 0.41178 0.78651
 C3430 C 0.41357 0.41886 0.80512
 C3431 C 0.43620 0.42094 0.80557
 C3432 C 0.44831 0.41476 0.78726
 H3433 H 0.38724 0.39122 0.71049
 H3434 H 0.46761 0.39126 0.71137
 H3435 H 0.44800 0.38255 0.67770
 H3436 H 0.46703 0.40290 0.74979
 H3437 H 0.38651 0.40027 0.74859
 H3438 H 0.38551 0.41078 0.78654
 H3439 H 0.40396 0.42305 0.81919
 H3440 H 0.46576 0.41626 0.78750
 C3441 C 1.11461 0.88897 1.27944
 C3442 C 1.10478 0.89355 1.25938
 C3443 C 1.08198 0.89347 1.25741
 C3444 C 1.06940 0.88855 1.27541
 C3445 C 1.07925 0.88321 1.29503
 C3446 C 1.10200 0.88314 1.29740
 C3447 C 1.07209 0.89806 1.23745
 C3448 C 1.08473 0.90229 1.21921
 C3449 C 1.10757 0.90184 1.22104
 C3450 C 1.11743 0.89766 1.24110
 C3451 C 1.12020 0.90570 1.20276
 C3452 C 1.11036 0.91064 1.18303
 C3453 C 1.08768 0.91193 1.18114
 C3454 C 1.07492 0.90727 1.19924
 H3455 H 1.13210 0.88868 1.28056
 H3456 H 1.05189 0.88852 1.27426
 H3457 H 1.06884 0.87954 1.30850
 H3458 H 1.05458 0.89822 1.23608
 H3459 H 1.13494 0.89749 1.24246
 H3460 H 1.13771 0.90520 1.20378
 H3461 H 1.12055 0.91382 1.16922
 H3462 H 1.05743 0.90831 1.19799
 C3463 C 1.13553 0.37407 0.77114
 C3464 C 1.12244 0.38266 0.75464
 C3465 C 1.09973 0.38059 0.75557
 C3466 C 1.09055 0.36944 0.77276
 C3467 C 1.10370 0.36032 0.78878
 C3468 C 1.12643 0.36256 0.78836
 C3469 C 1.08661 0.38956 0.73925
 C3470 C 1.09602 0.40012 0.72170
 C3471 C 1.11882 0.40150 0.72050
 C3472 C 1.13183 0.39300 0.73703
 C3473 C 1.12833 0.41136 0.70273
 C3474 C 1.11544 0.42023 0.68649
 C3475 C 1.09269 0.41986 0.68779
 C3476 C 1.08306 0.40939 0.70535
 H3477 H 1.15290 0.37560 0.76986
 H3478 H 1.07316 0.36766 0.77377
 H3479 H 1.09583 0.35208 0.80184
 H3480 H 1.06916 0.38820 0.74013
 H3481 H 1.14930 0.39432 0.73612
 H3482 H 1.14578 0.41224 0.70138
 H3483 H 1.12339 0.42746 0.67283
 H3484 H 1.06559 0.40886 0.70655
 C3485 C 0.61687 0.89504 0.77913
 C3486 C 0.60594 0.90221 0.76046
 C3487 C 0.58331 0.90594 0.76108
 C3488 C 0.57204 0.90259 0.78037
 C3489 C 0.58295 0.89511 0.79870
 C3490 C 0.60537 0.89110 0.79823
 C3491 C 0.57227 0.91270 0.74239
 C3492 C 0.58352 0.91572 0.72300
 C3493 C 0.60615 0.91201 0.72239
 C3494 C 0.61720 0.90530 0.74109
 C3495 C 0.61742 0.91519 0.70307
 C3496 C 0.60648 0.92236 0.68464
 C3497 C 0.58404 0.92631 0.68508
 C3498 C 0.57256 0.92265 0.70425
 H3499 H 0.63411 0.89170 0.77858
 H3500 H 0.55473 0.90540 0.78118
 H3501 H 0.57384 0.89227 0.81330
 H3502 H 0.55492 0.91555 0.74292
 H3503 H 0.63454 0.90242 0.74055
 H3504 H 0.63474 0.91238 0.70228
 H3505 H 0.61560 0.92496 0.66998
 H3506 H 0.55528 0.92585 0.70473
 C3507 C 0.62779 0.37597 1.27296
 C3508 C 0.61480 0.38167 1.25509
 C3509 C 0.59205 0.37990 1.25628
 C3510 C 0.58272 0.37180 1.27507
 C3511 C 0.59574 0.36526 1.29238
 C3512 C 0.61848 0.36726 1.29170
 C3513 C 0.57901 0.38612 1.23866
 C3514 C 0.58847 0.39360 1.21958
 C3515 C 0.61131 0.39446 1.21812
 C3516 C 0.62428 0.38873 1.23590
 C3517 C 0.62087 0.40133 1.19895
 C3518 C 0.60800 0.40824 1.18175
 C3519 C 0.58528 0.40867 1.18336
 C3520 C 0.57555 0.40067 1.20211
 H3521 H 0.64520 0.37722 1.27170
 H3522 H 0.56531 0.37031 1.27631
 H3523 H 0.58780 0.35919 1.30659
 H3524 H 0.56154 0.38513 1.23979
 H3525 H 0.64175 0.38975 1.23477
 H3526 H 0.63832 0.40178 1.19741
 H3527 H 0.61587 0.41392 1.16728
 H3528 H 0.55806 0.40089 1.20348
 C3529 C 0.86968 1.12402 1.26938
 C3530 C 0.88264 1.11512 1.25288
 C3531 C 0.90540 1.11438 1.25537
 C3532 C 0.91479 1.12274 1.27430
 C3533 C 0.90179 1.13188 1.29049
 C3534 C 0.87914 1.13260 1.28822
 C3535 C 0.91838 1.10542 1.23889
 C3536 C 0.90888 1.09733 1.21985
 C3537 C 0.88611 1.09836 1.21735
 C3538 C 0.87318 1.10717 1.23385
 C3539 C 0.87655 1.09050 1.19836
 C3540 C 0.88931 1.08132 1.18213
 C3541 C 0.91193 1.07969 1.18448
 C3542 C 0.92168 1.08807 1.20332
 H3543 H 0.85227 1.12481 1.26733
 H3544 H 0.93219 1.12234 1.27653
 H3545 H 0.90942 1.13829 1.30491
 H3546 H 0.93582 1.10476 1.24087
 H3547 H 0.85573 1.10784 1.23187
 H3548 H 0.85916 1.09133 1.19610
 H3549 H 0.88141 1.07545 1.16760
 H3550 H 0.93909 1.08691 1.20532
 C3551 C 0.89792 0.60906 0.78384
 C3552 C 0.90224 0.60111 0.76303
 C3553 C 0.88522 0.59259 0.75035
 C3554 C 0.86434 0.59146 0.75904
 C3555 C 0.86028 0.59911 0.77994
 C3556 C 0.87694 0.60825 0.79231
 C3557 C 0.88929 0.58554 0.72916
 C3558 C 0.91022 0.58662 0.72061
 C3559 C 0.92737 0.59441 0.73356
 C3560 C 0.92325 0.60173 0.75465
 C3561 C 0.94835 0.59491 0.72514
 C3562 C 0.95228 0.58808 0.70395
 C3563 C 0.93524 0.58096 0.69063
 C3564 C 0.91422 0.58017 0.69921
 H3565 H 0.91081 0.61590 0.79353
 H3566 H 0.85114 0.58488 0.74961
 H3567 H 0.84398 0.59852 0.78624
 H3568 H 0.87618 0.57932 0.71932
 H3569 H 0.93635 0.60802 0.76447
 H3570 H 0.96173 0.60057 0.73493
 H3571 H 0.96874 0.58835 0.69803
 H3572 H 0.90085 0.57499 0.68914
 C3573 C 0.37004 1.12320 0.77276
 C3574 C 0.38219 1.11671 0.75465
 C3575 C 0.40470 1.11277 0.75682
 C3576 C 0.41465 1.11553 0.77708
 C3577 C 0.40253 1.12257 0.79486
 C3578 C 0.38020 1.12647 0.79283
 C3579 C 0.41689 1.10640 0.73870
 C3580 C 0.40691 1.10412 0.71837
 C3581 C 0.38444 1.10837 0.71622
 C3582 C 0.37225 1.11457 0.73435
 C3583 C 0.37442 1.10609 0.69599
 C3584 C 0.38634 1.09896 0.67818
 C3585 C 0.40852 1.09415 0.68019
 C3586 C 0.41888 1.09721 0.70023
 H3587 H 0.35288 1.12665 0.77108
 H3588 H 0.43187 1.11265 0.77907
 H3589 H 0.41057 1.12520 0.81024
 H3590 H 0.43411 1.10324 0.74041
 H3591 H 0.35503 1.11773 0.73264
 H3592 H 0.35727 1.10937 0.69402
 H3593 H 0.37813 1.09674 0.66281
 H3594 H 0.43596 1.09333 0.70187
 C3595 C 0.37830 0.60066 1.27978
 C3596 C 0.38805 0.59329 1.26050
 C3597 C 0.41074 0.59460 1.25801
 C3598 C 0.42330 0.60328 1.27468
 C3599 C 0.41346 0.61154 1.29323
 C3600 C 0.39082 0.61072 1.29598
 C3601 C 0.42052 0.58788 1.23866
 C3602 C 0.40784 0.58069 1.22129
 C3603 C 0.38512 0.57964 1.22356
 C3604 C 0.37539 0.58556 1.24327
 C3605 C 0.37248 0.57309 1.20590
 C3606 C 0.38221 0.56777 1.18618
 C3607 C 0.40485 0.56850 1.18377
 C3608 C 0.41755 0.57492 1.20155
 H3609 H 0.36087 0.60009 1.28133
 H3610 H 0.44072 0.60427 1.27311
 H3611 H 0.42377 0.61839 1.30560
 H3612 H 0.43794 0.58889 1.23687
 H3613 H 0.35796 0.58477 1.24496
 H3614 H 0.35502 0.57238 1.20723
 H3615 H 0.37192 0.56332 1.17270
 H3616 H 0.43501 0.57534 1.20010
 C3617 C 1.12465 1.26516 0.88252
 C3618 C 1.11775 1.24662 0.89302
 C3619 C 1.13301 1.23044 0.89844
 C3620 C 1.15487 1.23311 0.89338
 C3621 C 1.16157 1.25157 0.88291
 C3622 C 1.14657 1.26775 0.87734
 C3623 C 1.12616 1.21173 0.90860
 C3624 C 1.10421 1.20886 0.91317
 C3625 C 1.08894 1.22507 0.90786
 C3626 C 1.09583 1.24393 0.89797
 C3627 C 1.06695 1.22195 0.91214
 C3628 C 1.06008 1.20270 0.92105
 C3629 C 1.07513 1.18643 0.92609
 C3630 C 1.09722 1.18976 0.92244
 H3631 H 1.11300 1.27764 0.87855
 H3632 H 1.16675 1.22084 0.89735
 H3633 H 1.17850 1.25301 0.87884
 H3634 H 1.13787 1.19928 0.91262
 H3635 H 1.08411 1.25631 0.89381
 H3636 H 1.05502 1.23419 0.90822
 H3637 H 1.04298 1.20042 0.92384
 H3638 H 1.10885 1.17712 0.92601
 C3639 C 1.11393 0.77699 0.39442
 C3640 C 1.10478 0.75739 0.40002
 C3641 C 1.08215 0.75597 0.40290
 C3642 C 1.06908 0.77426 0.40007
 C3643 C 1.07832 0.79368 0.39417
 C3644 C 1.10078 0.79519 0.39128
 C3645 C 1.07299 0.73630 0.40842
 C3646 C 1.08618 0.71804 0.41100
 C3647 C 1.10881 0.71951 0.40796
 C3648 C 1.11794 0.73915 0.40250
 C3649 C 1.12201 0.70133 0.41061
 C3650 C 1.11298 0.68194 0.41666
 C3651 C 1.09059 0.68034 0.42006
 C3652 C 1.07720 0.69838 0.41688
 H3653 H 1.13121 0.77792 0.39179
 H3654 H 1.05171 0.77351 0.40220
 H3655 H 1.06794 0.80757 0.39183
 H3656 H 1.05564 0.73522 0.41070
 H3657 H 1.13529 0.74024 0.40021
 H3658 H 1.13934 0.70216 0.40824
 H3659 H 1.12353 0.66814 0.41884
 H3660 H 1.05994 0.69726 0.41965
 C3661 C 0.61606 1.27258 0.38646
 C3662 C 0.60949 1.25292 0.39488
 C3663 C 0.62523 1.23726 0.40048
 C3664 C 0.64722 1.24160 0.39777
 C3665 C 0.65361 1.26114 0.38926
 C3666 C 0.63813 1.27676 0.38338
 C3667 C 0.61874 1.21742 0.40842
 C3668 C 0.59671 1.21297 0.41072
 C3669 C 0.58094 1.22866 0.40530
 C3670 C 0.58744 1.24859 0.39751
 C3671 C 0.55893 1.22403 0.40755
 C3672 C 0.55258 1.20395 0.41486
 C3673 C 0.56815 1.18822 0.42013
 C3674 C 0.59021 1.19292 0.41810
 H3675 H 0.60400 1.28459 0.38227
 H3676 H 0.65948 1.22976 0.40194
 H3677 H 0.67068 1.26379 0.38679
 H3678 H 0.63082 1.20537 0.41259
 H3679 H 0.57536 1.26060 0.39323
 H3680 H 0.54662 1.23587 0.40353
 H3681 H 0.53549 1.20074 0.41651
 H3682 H 0.60233 1.18077 0.42178
 C3683 C 0.61723 0.77870 0.89571
 C3684 C 0.60723 0.76022 0.90337
 C3685 C 0.58439 0.75914 0.90378
 C3686 C 0.57197 0.77669 0.89672
 C3687 C 0.58207 0.79504 0.88910
 C3688 C 0.60477 0.79621 0.88839
 C3689 C 0.57435 0.74052 0.91111
 C3690 C 0.58689 0.72297 0.91805
 C3691 C 0.60974 0.72416 0.91781
 C3692 C 0.61975 0.74274 0.91044
 C3693 C 0.62224 0.70670 0.92491
 C3694 C 0.61223 0.68820 0.93218
 C3695 C 0.58955 0.68678 0.93241
 C3696 C 0.57695 0.70423 0.92526
 H3697 H 0.63472 0.77922 0.89496
 H3698 H 0.55445 0.77621 0.89702
 H3699 H 0.57209 0.80839 0.88384
 H3700 H 0.55683 0.73967 0.91135
 H3701 H 0.63727 0.74358 0.91016
 H3702 H 0.63976 0.70733 0.92480
 H3703 H 0.62226 0.67484 0.93738
 H3704 H 0.55945 0.70331 0.92556
 C3705 C 0.89456 1.27786 1.11404
 C3706 C 0.89925 1.25789 1.10448
 C3707 C 0.88251 1.24593 1.09480
 C3708 C 0.86152 1.25460 1.09401
 C3709 C 0.85699 1.27465 1.10325
 C3710 C 0.87330 1.28642 1.11395
 C3711 C 0.88698 1.22544 1.08628
 C3712 C 0.90808 1.21689 1.08713
 C3713 C 0.92498 1.22929 1.09602
 C3714 C 0.92046 1.24966 1.10470
 C3715 C 0.94612 1.22101 1.09639
 C3716 C 0.95045 1.20039 1.08860
 C3717 C 0.93369 1.18744 1.08055
 C3718 C 0.91252 1.19602 1.07954
 H3719 H 0.90770 1.28677 1.12124
 H3720 H 0.84849 1.24572 1.08650
 H3721 H 0.84040 1.28030 1.10281
 H3722 H 0.87402 1.21608 1.07922
 H3723 H 0.93339 1.25896 1.11187
 H3724 H 0.95931 1.23042 1.10286
 H3725 H 0.96700 1.19452 1.08899
 H3726 H 0.89939 1.18628 1.07351
 C3727 C 0.88886 0.78325 0.60681
 C3728 C 0.89965 0.76408 0.60138
 C3729 C 0.92250 0.76295 0.60230
 C3730 C 0.93411 0.78097 0.60920
 C3731 C 0.92317 0.79993 0.61495
 C3732 C 0.90051 0.80128 0.61355
 C3733 C 0.93331 0.74389 0.59628
 C3734 C 0.92149 0.72591 0.58955
 C3735 C 0.89860 0.72701 0.58923
 C3736 C 0.88786 0.74605 0.59506
 C3737 C 0.88674 0.70906 0.58289
 C3738 C 0.89738 0.69032 0.57636
 C3739 C 0.92013 0.68913 0.57584
 C3740 C 0.93213 0.70693 0.58286
 H3741 H 0.87135 0.78409 0.60611
 H3742 H 0.95162 0.78041 0.61013
 H3743 H 0.93240 0.81369 0.62014
 H3744 H 0.95085 0.74308 0.59673
 H3745 H 0.87032 0.74688 0.59456
 H3746 H 0.86921 0.70956 0.58281
 H3747 H 0.88773 0.67669 0.57162
 H3748 H 0.94966 0.70622 0.58254
 C3749 C 0.40155 1.29181 0.59553
 C3750 C 0.40373 1.27116 0.58661
 C3751 C 0.38513 1.25967 0.58038
 C3752 C 0.36473 1.26947 0.58218
 C3753 C 0.36269 1.29026 0.59049
 C3754 C 0.38100 1.30164 0.59777
 C3755 C 0.38720 1.23852 0.57269
 C3756 C 0.40772 1.22884 0.57085
 C3757 C 0.42638 1.24078 0.57602
 C3758 C 0.42427 1.26179 0.58395
 C3759 C 0.44689 1.23138 0.57361
 C3760 C 0.44892 1.21002 0.56716
 C3761 C 0.43049 1.19750 0.56325
 C3762 C 0.40989 1.20724 0.56449
 H3763 H 0.41600 1.30036 0.60021
 H3764 H 0.35028 1.26097 0.57736
 H3765 H 0.34654 1.29688 0.59211
 H3766 H 0.37286 1.22955 0.56842
 H3767 H 0.43861 1.27072 0.58836
 H3768 H 0.46137 1.24041 0.57712
 H3769 H 0.46502 1.20312 0.56569
 H3770 H 0.39556 1.19781 0.56149
 C3771 C 0.38560 0.77795 1.11016
 C3772 C 0.39472 0.75772 1.10589
 C3773 C 0.41608 0.75300 1.11269
 C3774 C 0.42755 0.76833 1.12465
 C3775 C 0.41807 0.78825 1.12953
 C3776 C 0.39714 0.79358 1.12192
 C3777 C 0.42556 0.73307 1.10740
 C3778 C 0.41365 0.71763 1.09594
 C3779 C 0.39189 0.72206 1.09021
 C3780 C 0.38266 0.74212 1.09498
 C3781 C 0.37966 0.70639 1.07968
 C3782 C 0.38902 0.68668 1.07426
 C3783 C 0.41101 0.68234 1.07871
 C3784 C 0.42315 0.69788 1.08994
 H3785 H 0.36916 0.78114 1.10490
 H3786 H 0.44389 0.76495 1.13019
 H3787 H 0.42761 0.79977 1.13845
 H3788 H 0.44213 0.72960 1.11219
 H3789 H 0.36609 0.74560 1.09016
 H3790 H 0.36283 0.70939 1.07559
 H3791 H 0.37893 0.67483 1.06645
 H3792 H 0.44009 0.69491 1.09353
 C3793 C 0.88716 0.72004 0.89272
 C3794 C 0.89557 0.74068 0.89568
 C3795 C 0.89759 0.75445 0.87772
 C3796 C 0.89127 0.74730 0.85712
 C3797 C 0.88328 0.72665 0.85428
 C3798 C 0.88121 0.71283 0.87198
 C3799 C 0.90594 0.77509 0.88060
 C3800 C 0.91236 0.78218 0.90122
 C3801 C 0.91054 0.76832 0.91913
 C3802 C 0.90219 0.74769 0.91625
 C3803 C 0.91685 0.77543 0.93974
 C3804 C 0.92425 0.79627 0.94272
 C3805 C 0.92566 0.81036 0.92516
 C3806 C 0.92012 0.80307 0.90432
 H3807 H 0.88584 0.70934 0.90637
 H3808 H 0.89267 0.75761 0.84318
 H3809 H 0.87866 0.72141 0.83818
 H3810 H 0.90734 0.78566 0.86683
 H3811 H 0.90074 0.73714 0.93003
 H3812 H 0.91567 0.76502 0.95362
 H3813 H 0.92860 0.80155 0.95889
 H3814 H 0.92100 0.81393 0.89074
 C3815 C 0.87903 0.23443 0.38213
 C3816 C 0.88527 0.25273 0.39383
 C3817 C 0.87025 0.26974 0.39704
 C3818 C 0.84925 0.26812 0.38862
 C3819 C 0.84311 0.24976 0.37727
 C3820 C 0.85788 0.23278 0.37395
 C3821 C 0.87643 0.28811 0.40858
 C3822 C 0.89748 0.28976 0.41690
 C3823 C 0.91246 0.27268 0.41389
 C3824 C 0.90624 0.25425 0.40244
 C3825 C 0.93358 0.27452 0.42200
 C3826 C 0.94002 0.29338 0.43231
 C3827 C 0.92539 0.31059 0.43497
 C3828 C 0.90399 0.30851 0.42765
 H3829 H 0.89039 0.22126 0.37985
 H3830 H 0.83755 0.28100 0.39089
 H3831 H 0.82678 0.24882 0.37096
 H3832 H 0.86494 0.30120 0.41089
 H3833 H 0.91776 0.24121 0.40005
 H3834 H 0.94525 0.26159 0.41990
 H3835 H 0.95660 0.29473 0.43789
 H3836 H 0.89274 0.32187 0.42938
 C3837 C 0.38701 0.72363 0.39399
 C3838 C 0.39626 0.74361 0.39864
 C3839 C 0.40791 0.75439 0.38245
 C3840 C 0.41109 0.74455 0.36230
 C3841 C 0.40278 0.72426 0.35813
 C3842 C 0.39032 0.71359 0.37373
 C3843 C 0.41629 0.77478 0.38667
 C3844 C 0.41395 0.78421 0.40720
 C3845 C 0.40343 0.77288 0.42378
 C3846 C 0.39431 0.75284 0.41931
 C3847 C 0.40218 0.78181 0.44458
 C3848 C 0.41067 0.80203 0.44878
 C3849 C 0.41999 0.81413 0.43212
 C3850 C 0.42187 0.80483 0.41137
 H3851 H 0.37806 0.71553 0.40648
 H3852 H 0.42009 0.75251 0.34974
 H3853 H 0.40536 0.71745 0.34219
 H3854 H 0.42477 0.78322 0.37405
 H3855 H 0.38585 0.74440 0.43194
 H3856 H 0.39463 0.77316 0.45762
 H3857 H 0.40973 0.80822 0.46516
 H3858 H 0.42891 0.81379 0.39827
 C3859 C 0.38742 0.23286 0.87369
 C3860 C 0.39503 0.25247 0.88168
 C3861 C 0.38021 0.26788 0.88984
 C3862 C 0.35812 0.26334 0.89021
 C3863 C 0.35068 0.24367 0.88261
 C3864 C 0.36513 0.22809 0.87408
 C3865 C 0.38769 0.28753 0.89771
 C3866 C 0.40988 0.29178 0.89798
 C3867 C 0.42482 0.27629 0.89014
 C3868 C 0.41728 0.25678 0.88185
 C3869 C 0.44704 0.28056 0.89091
 C3870 C 0.45440 0.29991 0.89960
 C3871 C 0.43963 0.31539 0.90744
 C3872 C 0.41735 0.31126 0.90625
 H3873 H 0.39911 0.22116 0.86791
 H3874 H 0.34655 0.27501 0.89641
 H3875 H 0.33342 0.24115 0.88287
 H3876 H 0.37626 0.29939 0.90389
 H3877 H 0.42871 0.24490 0.87574
 H3878 H 0.45874 0.26884 0.88505
 H3879 H 0.47166 0.30260 0.90049
 H3880 H 0.40573 0.32324 0.91173
 C3881 C 1.11582 0.71503 1.10408
 C3882 C 1.10657 0.73524 1.09944
 C3883 C 1.09759 0.74787 1.11636
 C3884 C 1.09740 0.73994 1.13742
 C3885 C 1.10540 0.71946 1.14167
 C3886 C 1.11465 0.70662 1.12514
 C3887 C 1.08853 0.76808 1.11196
 C3888 C 1.08744 0.77555 1.09068
 C3889 C 1.09557 0.76261 1.07360
 C3890 C 1.10545 0.74273 1.07810
 C3891 C 1.09361 0.76974 1.05225
 C3892 C 1.08422 0.78971 1.04791
 C3893 C 1.07701 0.80324 1.06484
 C3894 C 1.07837 0.79581 1.08623
 H3895 H 1.12248 0.70532 1.09105
 H3896 H 1.09061 0.74939 1.15058
 H3897 H 1.10482 0.71391 1.15820
 H3898 H 1.08199 0.77781 1.12506
 H3899 H 1.11190 0.73296 1.06499
 H3900 H 1.09938 0.75991 1.03890
 H3901 H 1.08285 0.79466 1.03121
 H3902 H 1.07300 0.80600 1.09948
 C3903 C 1.10629 0.21976 0.61686
 C3904 C 1.10191 0.23990 0.60795
 C3905 C 1.10546 0.24337 0.58570
 C3906 C 1.11410 0.22676 0.57291
 C3907 C 1.11894 0.20682 0.58202
 C3908 C 1.11476 0.20285 0.60407
 C3909 C 1.10029 0.26336 0.57666
 C3910 C 1.09199 0.27999 0.58974
 C3911 C 1.08923 0.27664 0.61217
 C3912 C 1.09406 0.25661 0.62109
 C3913 C 1.08154 0.29336 0.62536
 C3914 C 1.07617 0.31313 0.61639
 C3915 C 1.07804 0.31652 0.59399
 C3916 C 1.08625 0.29988 0.58078
 H3917 H 1.10371 0.21766 0.63402
 H3918 H 1.11704 0.22914 0.55583
 H3919 H 1.12517 0.19433 0.57146
 H3920 H 1.10269 0.26595 0.55950
 H3921 H 1.09163 0.25402 0.63825
 H3922 H 1.07963 0.29113 0.64262
 H3923 H 1.07053 0.32581 0.62709
 H3924 H 1.08770 0.30218 0.56348
 C3925 C 0.61629 0.73489 0.61969
 C3926 C 0.61091 0.75426 0.60949
 C3927 C 0.62752 0.76800 0.60259
 C3928 C 0.64923 0.76184 0.60553
 C3929 C 0.65442 0.74233 0.61532
 C3930 C 0.63804 0.72881 0.62265
 C3931 C 0.62216 0.78767 0.59296
 C3932 C 0.60040 0.79368 0.58994
 C3933 C 0.58384 0.77963 0.59632
 C3934 C 0.58919 0.76007 0.60610
 C3935 C 0.56214 0.78547 0.59303
 C3936 C 0.55681 0.80530 0.58410
 C3937 C 0.57305 0.81979 0.57839
 C3938 C 0.59489 0.81367 0.58100
 H3939 H 0.60361 0.72434 0.62504
 H3940 H 0.66217 0.77210 0.60027
 H3941 H 0.67128 0.73791 0.61754
 H3942 H 0.63490 0.79833 0.58793
 H3943 H 0.57645 0.74944 0.61120
 H3944 H 0.54926 0.77479 0.59758
 H3945 H 0.53988 0.80941 0.58184
 H3946 H 0.60757 0.82472 0.57678
 C3947 C 0.61084 0.21581 1.11650
 C3948 C 0.60546 0.23516 1.10598
 C3949 C 0.60707 0.23649 1.08321
 C3950 C 0.61424 0.21864 1.07137
 C3951 C 0.62018 0.19975 1.08189
 C3952 C 0.61876 0.19793 1.10464
 C3953 C 0.60163 0.25567 1.07261
 C3954 C 0.59493 0.27378 1.08451
 C3955 C 0.59377 0.27261 1.10734
 C3956 C 0.59888 0.25332 1.11790
 C3957 C 0.58743 0.29076 1.11926
 C3958 C 0.58174 0.30972 1.10871
 C3959 C 0.58210 0.31098 1.08596
 C3960 C 0.58914 0.29298 1.07395
 H3961 H 0.60985 0.21518 1.13397
 H3962 H 0.61546 0.21931 1.05389
 H3963 H 0.62538 0.18638 1.07191
 H3964 H 0.60269 0.25652 1.05512
 H3965 H 0.59782 0.25248 1.13540
 H3966 H 0.58668 0.29026 1.13677
 H3967 H 0.57686 0.32344 1.11842
 H3968 H 0.58947 0.29370 1.05643
 C3969 C 1.26623 1.11921 0.87412
 C3970 C 1.24692 1.11316 0.88421
 C3971 C 1.23009 1.12846 0.88723
 C3972 C 1.23279 1.14947 0.88001
 C3973 C 1.25220 1.15544 0.87042
 C3974 C 1.26911 1.14047 0.86756
 C3975 C 1.21094 1.12262 0.89767
 C3976 C 1.20840 1.10168 0.90521
 C3977 C 1.22522 1.08637 0.90219
 C3978 C 1.24435 1.09221 0.89172
 C3979 C 1.22254 1.06539 0.90953
 C3980 C 1.20321 1.05949 0.91933
 C3981 C 1.18633 1.07449 0.92220
 C3982 C 1.18914 1.09568 0.91542
 H3983 H 1.27937 1.10771 0.87224
 H3984 H 1.22008 1.16139 0.88215
 H3985 H 1.25416 1.17188 0.86540
 H3986 H 1.19806 1.13437 0.89996
 H3987 H 1.25724 1.08046 0.88945
 H3988 H 1.23525 1.05346 0.90738
 H3989 H 1.20131 1.04307 0.92447
 H3990 H 1.17604 1.10724 0.91734
 C3991 C 1.28405 0.60804 0.38464
 C3992 C 1.26392 0.60279 0.39364
 C3993 C 1.24923 0.61931 0.39970
 C3994 C 1.25499 0.64074 0.39683
 C3995 C 1.27513 0.64581 0.38816
 C3996 C 1.28985 0.62958 0.38197
 C3997 C 1.22907 0.61416 0.40857
 C3998 C 1.22341 0.59268 0.41165
 C3999 C 1.23820 0.57619 0.40581
 C4000 C 1.25831 0.58133 0.39681
 C4001 C 1.23261 0.55476 0.40900
 C4002 C 1.21247 0.54967 0.41763
 C4003 C 1.19742 0.56586 0.42321
 C4004 C 1.20314 0.58742 0.42032
 H4005 H 1.29539 0.59541 0.38016
 H4006 H 1.24396 0.65361 0.40136
 H4007 H 1.27914 0.66249 0.38607
 H4008 H 1.21780 0.62686 0.41310
 H4009 H 1.26958 0.56863 0.39227
 H4010 H 1.24378 0.54191 0.40476
 H4011 H 1.20868 0.53297 0.42000
 H4012 H 1.19166 0.60007 0.42435
 C4013 C 0.76181 1.12240 0.36457
 C4014 C 0.74242 1.11609 0.37438
 C4015 C 0.72527 1.13113 0.37695
 C4016 C 0.72764 1.15205 0.36936
 C4017 C 0.74708 1.15827 0.36006
 C4018 C 0.76440 1.14365 0.35786
 C4019 C 0.70619 1.12518 0.38742
 C4020 C 0.70400 1.10440 0.39547
 C4021 C 0.72103 1.08927 0.39273
 C4022 C 0.74012 1.09521 0.38221
 C4023 C 0.71862 1.06840 0.40049
 C4024 C 0.69944 1.06248 0.41057
 C4025 C 0.68246 1.07739 0.41338
 C4026 C 0.68492 1.09842 0.40601
 H4027 H 0.77526 1.11117 0.36317
 H4028 H 0.71466 1.16375 0.37111
 H4029 H 0.74883 1.17469 0.35493
 H4030 H 0.69312 1.13678 0.38944
 H4031 H 0.75321 1.08364 0.38025
 H4032 H 0.73146 1.05658 0.39852
 H4033 H 0.69775 1.04616 0.41610
 H4034 H 0.67171 1.10987 0.40785
 C4035 C 0.78552 0.62050 0.90711
 C4036 C 0.76722 0.61005 0.91511
 C4037 C 0.76790 0.58762 0.91826
 C4038 C 0.78697 0.57610 0.91381
 C4039 C 0.80488 0.58653 0.90540
 C4040 C 0.80420 0.60869 0.90164
 C4041 C 0.74935 0.57695 0.92520
 C4042 C 0.73000 0.58836 0.92877
 C4043 C 0.72940 0.61084 0.92593
 C4044 C 0.74802 0.62155 0.91923
 C4045 C 0.71008 0.62222 0.92960
 C4046 C 0.69151 0.61148 0.93596
 C4047 C 0.69187 0.58914 0.93870
 C4048 C 0.71119 0.57765 0.93501
 H4049 H 0.78483 0.63754 0.90395
 H4050 H 0.78783 0.55893 0.91619
 H4051 H 0.81921 0.57722 0.90132
 H4052 H 0.74986 0.55973 0.92742
 H4053 H 0.74745 0.63874 0.91684
 H4054 H 0.70929 0.63943 0.92748
 H4055 H 0.67672 0.62062 0.93855
 H4056 H 0.71162 0.56044 0.93729
 C4057 C 1.28404 0.88572 1.10715
 C4058 C 1.26428 0.88988 1.09672
 C4059 C 1.26318 0.88977 1.07384
 C4060 C 1.28184 0.88484 1.06183
 C4061 C 1.30139 0.88021 1.07242
 C4062 C 1.30265 0.88090 1.09510
 C4063 C 1.24350 0.89466 1.06341
 C4064 C 1.22491 0.89949 1.07562
 C4065 C 1.22600 0.89886 1.09851
 C4066 C 1.24564 0.89411 1.10887
 C4067 C 1.20750 0.90339 1.11075
 C4068 C 1.18827 0.90938 1.10053
 C4069 C 1.18715 0.91102 1.07786
 C4070 C 1.20538 0.90546 1.06541
 H4071 H 1.28493 0.88581 1.12468
 H4072 H 1.28132 0.88453 1.04430
 H4073 H 1.31565 0.87638 1.06295
 H4074 H 1.24270 0.89493 1.04588
 H4075 H 1.24647 0.89395 1.12642
 H4076 H 1.20800 0.90273 1.12827
 H4077 H 1.17428 0.91320 1.11040
 H4078 H 1.20463 0.90670 1.04793
 C4079 C 1.28552 0.39289 0.62088
 C4080 C 1.26547 0.40286 0.61704
 C4081 C 1.26403 0.42544 0.61586
 C4082 C 1.28266 0.43766 0.61938
 C4083 C 1.30261 0.42755 0.62333
 C4084 C 1.30424 0.40510 0.62363
 C4085 C 1.24415 0.43533 0.61070
 C4086 C 1.22580 0.42286 0.60656
 C4087 C 1.22721 0.40031 0.60849
 C4088 C 1.24697 0.39048 0.61383
 C4089 C 1.20896 0.38782 0.60444
 C4090 C 1.18968 0.39744 0.59762
 C4091 C 1.18825 0.41973 0.59475
 C4092 C 1.20622 0.43245 0.59984
 H4093 H 1.28665 0.37557 0.62152
 H4094 H 1.28188 0.45499 0.61867
 H4095 H 1.31691 0.43721 0.62542
 H4096 H 1.24310 0.45262 0.60939
 H4097 H 1.24809 0.37317 0.61492
 H4098 H 1.20972 0.37056 0.60606
 H4099 H 1.17590 0.38738 0.59424
 H4100 H 1.20525 0.44965 0.59764
 C4101 C 0.77645 0.88755 0.61093
 C4102 C 0.75718 0.89427 0.60094
 C4103 C 0.75557 0.89420 0.57811
 C4104 C 0.77319 0.88686 0.56571
 C4105 C 0.79238 0.88016 0.57586
 C4106 C 0.79428 0.88081 0.59852
 C4107 C 0.73652 0.90175 0.56811
 C4108 C 0.71913 0.90936 0.58072
 C4109 C 0.72071 0.90894 0.60357
 C4110 C 0.73967 0.90136 0.61351
 C4111 C 0.70337 0.91634 0.61618
 C4112 C 0.68473 0.92448 0.60631
 C4113 C 0.68306 0.92551 0.58363
 C4114 C 0.70029 0.91764 0.57090
 H4115 H 0.77763 0.88769 0.62843
 H4116 H 0.77225 0.88660 0.54820
 H4117 H 0.80597 0.87507 0.56600
 H4118 H 0.73533 0.90194 0.55059
 H4119 H 0.74091 0.90128 0.63103
 H4120 H 0.70425 0.91594 0.63369
 H4121 H 0.67151 0.92991 0.61650
 H4122 H 0.69925 0.91842 0.55340
 C4123 C 0.77101 0.37589 1.13217
 C4124 C 0.75219 0.38734 1.12644
 C4125 C 0.75221 0.40999 1.12669
 C4126 C 0.77088 0.42078 1.13343
 C4127 C 0.78947 0.40923 1.13938
 C4128 C 0.78980 0.38673 1.13845
 C4129 C 0.73372 0.42145 1.11989
 C4130 C 0.71522 0.41051 1.11285
 C4131 C 0.71506 0.38785 1.11336
 C4132 C 0.73349 0.37643 1.12016
 C4133 C 0.69659 0.37688 1.10656
 C4134 C 0.67877 0.38814 1.09844
 C4135 C 0.67903 0.41060 1.09689
 C4136 C 0.69711 0.42177 1.10472
 H4137 H 0.77110 0.35853 1.13174
 H4138 H 0.77119 0.43812 1.13385
 H4139 H 0.80384 0.41787 1.14411
 H4140 H 0.73387 0.43882 1.11970
 H4141 H 0.73341 0.35906 1.12017
 H4142 H 0.69610 0.35954 1.10709
 H4143 H 0.66483 0.37921 1.09297
 H4144 H 0.69745 0.43909 1.10359
 C4145 C 0.72161 1.10913 1.10355
 C4146 C 0.74135 1.09895 1.09874
 C4147 C 0.74227 1.07641 1.09620
 C4148 C 0.72339 1.06445 1.09875
 C4149 C 0.70395 1.07470 1.10430
 C4150 C 0.70299 1.09704 1.10667
 C4151 C 0.76209 1.06621 1.09156
 C4152 C 0.78103 1.07824 1.08984
 C4153 C 0.78007 1.10075 1.09281
 C4154 C 0.76024 1.11095 1.09708
 C4155 C 0.79897 1.11276 1.09132
 C4156 C 0.81856 1.10270 1.08627
 C4157 C 0.81962 1.08047 1.08262
 C4158 C 0.80088 1.06822 1.08487
 H4159 H 0.72086 1.12634 1.10595
 H4160 H 0.72379 1.04716 1.09701
 H4161 H 0.68965 1.06525 1.10703
 H4162 H 0.76279 1.04895 1.08944
 H4163 H 0.75954 1.12821 1.09926
 H4164 H 0.79855 1.12997 1.09373
 H4165 H 0.83292 1.11237 1.08484
 H4166 H 0.80161 1.05108 1.08194
 C4167 C 0.73380 0.63159 0.62180
 C4168 C 0.75164 0.61969 0.61427
 C4169 C 0.75146 0.59707 0.61522
 C4170 C 0.73349 0.58678 0.62401
 C4171 C 0.71585 0.59880 0.63167
 C4172 C 0.71579 0.62127 0.63050
 C4173 C 0.76920 0.58514 0.60736
 C4174 C 0.78715 0.59559 0.59869
 C4175 C 0.78738 0.61824 0.59807
 C4176 C 0.76964 0.63012 0.60582
 C4177 C 0.80535 0.62869 0.58963
 C4178 C 0.82284 0.61687 0.58156
 C4179 C 0.82269 0.59434 0.58164
 C4180 C 0.80483 0.58378 0.59047
 H4181 H 0.73403 0.64892 0.62118
 H4182 H 0.73306 0.56947 0.62491
 H4183 H 0.70207 0.59052 0.63821
 H4184 H 0.76901 0.56778 0.60794
 H4185 H 0.76981 0.64748 0.60521
 H4186 H 0.80586 0.64603 0.58922
 H4187 H 0.83660 0.62540 0.57532
 H4188 H 0.80451 0.56642 0.59054
 C4189 C 0.20922 1.11060 0.60609
 C4190 C 0.22938 1.10155 0.60089
 C4191 C 0.23243 1.07909 0.60173
 C4192 C 0.21523 1.06615 0.60823
 C4193 C 0.19520 1.07539 0.61370
 C4194 C 0.19199 1.09764 0.61241
 C4195 C 0.25256 1.07003 0.59604
 C4196 C 0.26967 1.08321 0.58972
 C4197 C 0.26661 1.10570 0.58939
 C4198 C 0.24651 1.11470 0.59492
 C4199 C 0.28367 1.11891 0.58337
 C4200 C 0.30351 1.10997 0.57729
 C4201 C 0.30670 1.08763 0.57695
 C4202 C 0.28973 1.07431 0.58349
 H4203 H 0.20698 1.12784 0.60556
 H4204 H 0.21726 1.04891 0.60909
 H4205 H 0.18210 1.06519 0.61863
 H4206 H 0.25489 1.05279 0.59646
 H4207 H 0.24417 1.13194 0.59447
 H4208 H 0.28164 1.13617 0.58325
 H4209 H 0.31644 1.12060 0.57283
 H4210 H 0.29196 1.05707 0.58322
 C4211 C 0.21824 0.61474 1.10736
 C4212 C 0.23686 0.60392 1.09968
 C4213 C 0.23686 0.58134 1.09750
 C4214 C 0.21830 0.56998 1.10309
 C4215 C 0.20004 0.58080 1.11103
 C4216 C 0.19980 0.60323 1.11334
 C4217 C 0.25542 0.57045 1.08993
 C4218 C 0.27413 0.58181 1.08467
 C4219 C 0.27417 0.60437 1.08702
 C4220 C 0.25556 0.61527 1.09442
 C4221 C 0.29286 0.61571 1.08191
 C4222 C 0.31124 0.60491 1.07428
 C4223 C 0.31141 0.58251 1.07149
 C4224 C 0.29278 0.57101 1.07699
 H4225 H 0.21828 0.63201 1.10930
 H4226 H 0.21797 0.55269 1.10150
 H4227 H 0.18597 0.57162 1.11534
 H4228 H 0.25532 0.55315 1.08822
 H4229 H 0.25566 0.63257 1.09616
 H4230 H 0.29325 0.63298 1.08376
 H4231 H 0.32547 0.61415 1.07060
 H4232 H 0.29264 0.55376 1.07486
 C4233 C 0.71875 0.89297 0.88241
 C4234 C 0.73944 0.89724 0.89092
 C4235 C 0.75384 0.88007 0.89556
 C4236 C 0.74728 0.85896 0.89174
 C4237 C 0.72656 0.85486 0.88373
 C4238 C 0.71211 0.87175 0.87904
 C4239 C 0.77449 0.88424 0.90411
 C4240 C 0.78089 0.90537 0.90829
 C4241 C 0.76639 0.92251 0.90387
 C4242 C 0.74581 0.91835 0.89516
 C4243 C 0.77273 0.94359 0.90813
 C4244 C 0.79338 0.94773 0.91627
 C4245 C 0.80816 0.93092 0.92035
 C4246 C 0.80166 0.90968 0.91661
 H4247 H 0.70756 0.90604 0.87909
 H4248 H 0.75808 0.84561 0.89520
 H4249 H 0.72176 0.83841 0.88114
 H4250 H 0.78553 0.87105 0.90755
 H4251 H 0.73476 0.93154 0.89173
 H4252 H 0.76179 0.95691 0.90498
 H4253 H 0.79787 0.96421 0.91930
 H4254 H 0.81296 0.89660 0.91954
 C4255 C 0.73587 0.38427 0.37132
 C4256 C 0.75561 0.38980 0.38122
 C4257 C 0.77280 0.37461 0.38196
 C4258 C 0.77010 0.35435 0.37247
 C4259 C 0.75028 0.34884 0.36320
 C4260 C 0.73297 0.36360 0.36280
 C4261 C 0.79219 0.37966 0.39265
 C4262 C 0.79463 0.39966 0.40280
 C4263 C 0.77755 0.41495 0.40187
 C4264 C 0.75819 0.40994 0.39108
 C4265 C 0.78018 0.43508 0.41170
 C4266 C 0.79963 0.44013 0.42206
 C4267 C 0.81662 0.42504 0.42311
 C4268 C 0.81397 0.40473 0.41365
 H4269 H 0.72235 0.39549 0.37142
 H4270 H 0.78307 0.34252 0.37287
 H4271 H 0.74812 0.33278 0.35689
 H4272 H 0.80527 0.36794 0.39328
 H4273 H 0.74506 0.42162 0.39055
 H4274 H 0.76733 0.44702 0.41111
 H4275 H 0.80155 0.45594 0.42909
 H4276 H 0.82724 0.39321 0.41412
 C4277 C 0.21385 0.89166 0.38305
 C4278 C 0.23427 0.89625 0.39201
 C4279 C 0.24884 0.87931 0.39700
 C4280 C 0.24267 0.85809 0.39306
 C4281 C 0.22215 0.85367 0.38469
 C4282 C 0.20757 0.87035 0.37965
 C4283 C 0.26921 0.88382 0.40604
 C4284 C 0.27516 0.90506 0.41041
 C4285 C 0.26045 0.92195 0.40567
 C4286 C 0.24018 0.91746 0.39644
 C4287 C 0.26631 0.94314 0.41008
 C4288 C 0.28672 0.94765 0.41859
 C4289 C 0.30173 0.93110 0.42291
 C4290 C 0.29568 0.90974 0.41915
 H4291 H 0.20250 0.90455 0.37952
 H4292 H 0.25357 0.84490 0.39681
 H4293 H 0.21754 0.83715 0.38219
 H4294 H 0.28039 0.87081 0.40973
 H4295 H 0.22900 0.93046 0.39277
 H4296 H 0.25521 0.95627 0.40670
 H4297 H 0.29092 0.96421 0.42158
 H4298 H 0.30719 0.89688 0.42229
 C4299 C 0.24622 0.37498 0.85834
 C4300 C 0.26612 0.38177 0.86689
 C4301 C 0.28272 0.36652 0.87111
 C4302 C 0.27929 0.34486 0.86634
 C4303 C 0.25933 0.33822 0.85829
 C4304 C 0.24255 0.35312 0.85453
 C4305 C 0.30227 0.37306 0.88051
 C4306 C 0.30539 0.39462 0.88603
 C4307 C 0.28892 0.40993 0.88160
 C4308 C 0.26944 0.40343 0.87198
 C4309 C 0.29217 0.43149 0.88705
 C4310 C 0.31152 0.43783 0.89680
 C4311 C 0.32791 0.42272 0.90141
 C4312 C 0.32471 0.40110 0.89599
 H4313 H 0.23321 0.38649 0.85572
 H4314 H 0.29184 0.33297 0.86939
 H4315 H 0.25679 0.32132 0.85533
 H4316 H 0.31490 0.36131 0.88386
 H4317 H 0.25675 0.41515 0.86877
 H4318 H 0.27975 0.44345 0.88379
 H4319 H 0.31364 0.45457 0.90093
 H4320 H 0.33741 0.38941 0.89923
   
