data_POSCAR
  _audit_creation_date              2014-09-24
  _audit_creation_method            'ToBaCCo'
  _symmetry_space_group_name_H-M    'P1'
  _symmetry_Int_Tables_number       1
  _symmetry_cell_setting            triclinic
  loop_
  _symmetry_equiv_pos_as_xyz
 x,y,z
_cell_length_a 36.0005
_cell_length_b 36.0340
_cell_length_c 41.8929
_cell_angle_alpha 90.019500
_cell_angle_beta 90.026100
_cell_angle_gamma 89.835600
loop_
  _atom_site_label
  _atom_site_type_symbol
  _atom_site_fract_x
  _atom_site_fract_y
  _atom_site_fract_z
C1 C 0.43110 -0.05015 0.25654
 C2 C 0.44604 -0.01815 0.24220
 C3 C 0.46249 -0.02040 0.21217
 C4 C 0.46410 -0.05403 0.19597
 C5 C 0.44866 -0.08610 0.20984
 C6 C 0.43203 -0.08427 0.24037
 C7 C 0.44629 0.01770 0.25883
 C8 C 0.46295 0.01980 0.28880
 C9 C 0.46525 0.05358 0.30479
 C10 C 0.45023 0.08588 0.29072
 C11 C 0.43342 0.08412 0.26028
 C12 C 0.43181 0.04992 0.24437
 H13 H 0.41789 -0.04812 0.27973
 H14 H 0.47406 0.00433 0.20128
 H15 H 0.47418 -0.00517 0.29969
 H16 H 0.41844 0.04809 0.22124
 H17 H 0.44850 -0.11190 0.19651
 H18 H 0.45051 0.11190 0.30374
 C19 C 0.06738 -0.05019 0.74381
 C20 C 0.05268 -0.01788 0.75797
 C21 C 0.03634 -0.01968 0.78808
 C22 C 0.03466 -0.05316 0.80448
 C23 C 0.04985 -0.08551 0.79075
 C24 C 0.06632 -0.08412 0.76018
 C25 C 0.05285 0.01786 0.74116
 C26 C 0.03672 0.01996 0.71097
 C27 C 0.03510 0.05361 0.69471
 C28 C 0.05023 0.08579 0.70876
 C29 C 0.06651 0.08404 0.73942
 C30 C 0.06746 0.04998 0.75557
 H31 H 0.08058 -0.04862 0.72060
 H32 H 0.02499 0.00528 0.79887
 H33 H 0.02541 -0.00493 0.70008
 H34 H 0.08047 0.04816 0.77887
 H35 H 0.05000 -0.11123 0.80417
 H36 H 0.05046 0.11168 0.69558
 C37 C 0.56915 0.44903 0.24411
 C38 C 0.55458 0.48131 0.25841
 C39 C 0.53761 0.47929 0.28823
 C40 C 0.53510 0.44560 0.30421
 C41 C 0.55018 0.41325 0.29038
 C42 C 0.56732 0.41488 0.26008
 C43 C 0.55493 0.51713 0.24180
 C44 C 0.53837 0.51948 0.21182
 C45 C 0.53642 0.55325 0.19587
 C46 C 0.55168 0.58531 0.20990
 C47 C 0.56843 0.58334 0.24036
 C48 C 0.56969 0.54914 0.25629
 H49 H 0.58274 0.45076 0.22107
 H50 H 0.52629 0.50424 0.29908
 H51 H 0.52688 0.49476 0.20083
 H52 H 0.58296 0.54714 0.27947
 H53 H 0.54970 0.38734 0.30351
 H54 H 0.55161 0.61126 0.19682
 C55 C 0.93252 0.44988 0.75679
 C56 C 0.94715 0.48190 0.74224
 C57 C 0.96329 0.47958 0.71210
 C58 C 0.96490 0.44587 0.69601
 C59 C 0.94977 0.41379 0.71012
 C60 C 0.93347 0.41571 0.74076
 C61 C 0.94742 0.51780 0.75881
 C62 C 0.96407 0.51994 0.78877
 C63 C 0.96620 0.55369 0.80480
 C64 C 0.95108 0.58595 0.79077
 C65 C 0.93430 0.58417 0.76033
 C66 C 0.93282 0.54999 0.74438
 H67 H 0.91951 0.45185 0.78007
 H68 H 0.97464 0.50432 0.70104
 H69 H 0.97536 0.49499 0.79968
 H70 H 0.91942 0.54814 0.72126
 H71 H 0.94955 0.38789 0.69696
 H72 H 0.95122 0.61193 0.80384
 C73 C 0.26600 0.32641 1.04014
 C74 C 0.26642 0.34782 1.01193
 C75 C 0.29664 0.37164 1.00615
 C76 C 0.32607 0.37430 1.02813
 C77 C 0.32546 0.35255 1.05595
 C78 C 0.29557 0.32854 1.06221
 C79 C 0.23419 0.34774 0.98956
 C80 C 0.20393 0.37180 0.99505
 C81 C 0.17458 0.37432 0.97296
 C82 C 0.17531 0.35221 0.94536
 C83 C 0.20521 0.32801 0.93941
 C84 C 0.23471 0.32598 0.96152
 H85 H 0.24232 0.30883 1.04516
 H86 H 0.29672 0.38885 0.98492
 H87 H 0.20378 0.38930 1.01611
 H88 H 0.25838 0.30822 0.95662
 H89 H 0.34783 0.35515 1.07317
 H90 H 0.15307 0.35464 0.92800
 C91 C 0.73383 0.17312 1.04080
 C92 C 0.73314 0.15212 1.01237
 C93 C 0.70275 0.12857 1.00639
 C94 C 0.67342 0.12578 1.02843
 C95 C 0.67428 0.14714 1.05647
 C96 C 0.70435 0.17087 1.06289
 C97 C 0.76535 0.15222 0.99007
 C98 C 0.79577 0.12846 0.99581
 C99 C 0.82521 0.12602 0.97385
 C100 C 0.82446 0.14795 0.94615
 C101 C 0.79440 0.17189 0.93999
 C102 C 0.76477 0.17380 0.96196
 H103 H 0.75766 0.19046 1.04597
 H104 H 0.70250 0.11163 0.98500
 H105 H 0.79597 0.11112 1.01695
 H106 H 0.74100 0.19135 0.95690
 H107 H 0.65199 0.14443 1.07374
 H108 H 0.84679 0.14558 0.92890
 C109 C 0.23328 0.67383 0.53909
 C110 C 0.23264 0.65254 0.51082
 C111 C 0.20240 0.62868 0.50513
 C112 C 0.17318 0.62592 0.52729
 C113 C 0.17403 0.64758 0.55515
 C114 C 0.20393 0.67156 0.56127
 C115 C 0.26485 0.65260 0.48849
 C116 C 0.29510 0.62861 0.49413
 C117 C 0.32464 0.62626 0.47226
 C118 C 0.32413 0.64849 0.44474
 C119 C 0.29423 0.67267 0.43867
 C120 C 0.26452 0.67451 0.46057
 H121 H 0.25695 0.69140 0.54413
 H122 H 0.20218 0.61150 0.48388
 H123 H 0.29513 0.61106 0.51514
 H124 H 0.24088 0.69228 0.45560
 H125 H 0.15190 0.64496 0.57256
 H126 H 0.34653 0.64619 0.42754
 C127 C 0.76775 0.82724 0.53870
 C128 C 0.76815 0.84914 0.51080
 C129 C 0.79818 0.87334 0.50544
 C130 C 0.82748 0.87584 0.52760
 C131 C 0.82685 0.85358 0.55513
 C132 C 0.79712 0.82928 0.56088
 C133 C 0.73603 0.84907 0.48838
 C134 C 0.70577 0.87311 0.49383
 C135 C 0.67633 0.87536 0.47183
 C136 C 0.67700 0.85304 0.44435
 C137 C 0.70695 0.82886 0.43848
 C138 C 0.73650 0.82706 0.46053
 H139 H 0.74423 0.80937 0.54346
 H140 H 0.79816 0.89086 0.48440
 H141 H 0.70563 0.89073 0.51481
 H142 H 0.76016 0.80926 0.45571
 H143 H 0.84898 0.85591 0.57261
 H144 H 0.65469 0.85527 0.42704
 C145 C -0.05164 0.25387 0.32357
 C146 C -0.01852 0.23912 0.33597
 C147 C -0.02000 0.21157 0.35936
 C148 C -0.05393 0.20096 0.37221
 C149 C -0.08686 0.21490 0.35993
 C150 C -0.08572 0.24096 0.33533
 C151 C 0.01598 0.26014 0.33505
 C152 C 0.01841 0.28869 0.35748
 C153 C 0.05278 0.29936 0.36936
 C154 C 0.08519 0.28465 0.35682
 C155 C 0.08310 0.25767 0.33303
 C156 C 0.04861 0.24461 0.32237
 H157 H -0.05078 0.27611 0.30617
 H158 H 0.00561 0.20163 0.37019
 H159 H -0.00669 0.29918 0.36875
 H160 H 0.04715 0.22156 0.30580
 H161 H -0.11327 0.20582 0.36973
 H162 H 0.11191 0.29359 0.36600
 C163 C -0.05048 0.74231 0.17582
 C164 C -0.01789 0.75789 0.16330
 C165 C -0.02038 0.78562 0.14012
 C166 C -0.05467 0.79552 0.12753
 C167 C -0.08707 0.78076 0.13984
 C168 C -0.08500 0.75458 0.16431
 C169 C 0.01718 0.73762 0.16373
 C170 C 0.02009 0.70947 0.14096
 C171 C 0.05455 0.70004 0.12832
 C172 C 0.08673 0.71553 0.14054
 C173 C 0.08421 0.74199 0.16475
 C174 C 0.04953 0.75385 0.17610
 H175 H -0.04886 0.71999 0.19311
 H176 H 0.00476 0.79625 0.12913
 H177 H -0.00498 0.69844 0.13007
 H178 H 0.04765 0.77655 0.19301
 H179 H -0.11373 0.78940 0.13018
 H180 H 0.11361 0.70755 0.13092
 C181 C 0.45040 0.24353 0.67615
 C182 C 0.48249 0.25996 0.66354
 C183 C 0.47918 0.28797 0.64070
 C184 C 0.44456 0.29720 0.62838
 C185 C 0.41264 0.28153 0.64076
 C186 C 0.41556 0.25515 0.66498
 C187 C 0.51787 0.24029 0.66331
 C188 C 0.52111 0.21286 0.63993
 C189 C 0.55569 0.20393 0.62738
 C190 C 0.58765 0.21934 0.63998
 C191 C 0.58480 0.24516 0.66466
 C192 C 0.55000 0.25646 0.67613
 H193 H 0.45259 0.22100 0.69319
 H194 H 0.50398 0.29924 0.62960
 H195 H 0.49627 0.20180 0.62872
 H196 H 0.54785 0.27856 0.69359
 H197 H 0.38567 0.28951 0.63136
 H198 H 0.61460 0.21156 0.63043
 C199 C 0.44988 0.75474 0.82437
 C200 C 0.48252 0.73909 0.83683
 C201 C 0.48021 0.71138 0.86003
 C202 C 0.44594 0.70158 0.87271
 C203 C 0.41347 0.71650 0.86039
 C204 C 0.41548 0.74265 0.83594
 C205 C 0.51740 0.75942 0.83639
 C206 C 0.52022 0.78755 0.85918
 C207 C 0.55473 0.79760 0.87113
 C208 C 0.58692 0.78260 0.85845
 C209 C 0.58442 0.75604 0.83434
 C210 C 0.54977 0.74363 0.82352
 H211 H 0.45131 0.77708 0.80710
 H212 H 0.50551 0.70074 0.87091
 H213 H 0.49526 0.79830 0.87049
 H214 H 0.54797 0.72097 0.80658
 H215 H 0.38674 0.70814 0.86998
 H216 H 0.61378 0.79117 0.86760
 C217 C -0.30131 0.68156 0.99275
 C218 C -0.26922 0.69651 1.00700
 C219 C -0.27134 0.71297 1.03703
 C220 C -0.30490 0.71454 1.05334
 C221 C -0.33707 0.69906 1.03958
 C222 C -0.33538 0.68244 1.00901
 C223 C -0.23340 0.69673 0.99031
 C224 C -0.23139 0.71335 0.96034
 C225 C -0.19761 0.71567 0.94434
 C226 C -0.16524 0.70075 0.95837
 C227 C -0.16692 0.68397 0.98879
 C228 C -0.20111 0.68231 1.00473
 H229 H -0.29937 0.66835 0.96954
 H230 H -0.24653 0.72455 1.04783
 H231 H -0.25642 0.72452 0.94946
 H232 H -0.20286 0.66896 1.02787
 H233 H -0.36281 0.69886 1.05300
 H234 H -0.13922 0.70106 0.94533
 C235 C -0.30221 0.31853 0.50666
 C236 C -0.26998 0.30379 0.49239
 C237 C -0.27212 0.28646 0.46274
 C238 C -0.30586 0.28379 0.44680
 C239 C -0.33821 0.29910 0.46056
 C240 C -0.33650 0.31660 0.49077
 C241 C -0.23401 0.30440 0.50885
 C242 C -0.23136 0.28802 0.53887
 C243 C -0.19740 0.28616 0.55460
 C244 C -0.16546 0.30137 0.54032
 C245 C -0.16774 0.31797 0.50984
 C246 C -0.20212 0.31911 0.49411
 H247 H -0.30026 0.33237 0.52960
 H248 H -0.24718 0.27502 0.45194
 H249 H -0.25599 0.27655 0.55004
 H250 H -0.20435 0.33223 0.47090
 H251 H -0.36414 0.29849 0.44739
 H252 H -0.13935 0.30135 0.55322
 C253 C 0.20008 -0.18346 0.00607
 C254 C 0.23220 -0.19823 -0.00834
 C255 C 0.23000 -0.21478 -0.03834
 C256 C 0.19624 -0.21660 -0.05445
 C257 C 0.16403 -0.20128 -0.04043
 C258 C 0.16588 -0.18462 -0.00993
 C259 C 0.26813 -0.19807 0.00822
 C260 C 0.27043 -0.21418 0.03839
 C261 C 0.30416 -0.21560 0.05458
 C262 C 0.33624 -0.20033 0.04047
 C263 C 0.33430 -0.18412 0.00980
 C264 C 0.30014 -0.18335 -0.00628
 H265 H 0.20199 -0.17013 0.02921
 H266 H 0.25492 -0.22620 -0.04922
 H267 H 0.24560 -0.22555 0.04934
 H268 H 0.29815 -0.17035 -0.02956
 H269 H 0.13805 -0.20117 -0.05353
 H270 H 0.36219 -0.19992 0.05362
 C271 C 0.20056 1.18218 0.49307
 C272 C 0.23252 1.19720 0.50746
 C273 C 0.23020 1.21351 0.53754
 C274 C 0.19653 1.21489 0.55370
 C275 C 0.16451 1.19938 0.53976
 C276 C 0.16645 1.18291 0.50920
 C277 C 0.26834 1.19762 0.49079
 C278 C 0.27020 1.21405 0.46075
 C279 C 0.30384 1.21615 0.44453
 C280 C 0.33629 1.20123 0.45848
 C281 C 0.33478 1.18471 0.48904
 C282 C 0.30069 1.18326 0.50515
 H283 H 0.20255 1.16903 0.46985
 H284 H 0.25491 1.22514 0.54847
 H285 H 0.24510 1.22515 0.44992
 H286 H 0.29903 1.17003 0.52834
 H287 H 0.13865 1.19900 0.55300
 H288 H 0.36220 1.20133 0.44529
 C289 C 0.07584 0.51712 0.21072
 C290 C 0.09783 0.51739 0.23859
 C291 C 0.12212 0.54732 0.24401
 C292 C 0.12461 0.57664 0.22195
 C293 C 0.10230 0.57615 0.19445
 C294 C 0.07791 0.54652 0.18862
 C295 C 0.09772 0.48523 0.26091
 C296 C 0.12182 0.45503 0.25545
 C297 C 0.12397 0.42552 0.27734
 C298 C 0.10149 0.42607 0.30473
 C299 C 0.07725 0.45596 0.31061
 C300 C 0.07554 0.48557 0.28866
 H301 H 0.05791 0.49367 0.20590
 H302 H 0.13975 0.54728 0.26500
 H303 H 0.13955 0.45498 0.23454
 H304 H 0.05770 0.50918 0.29349
 H305 H 0.10472 0.59834 0.17709
 H306 H 0.10365 0.40372 0.32197
 C307 C -0.07671 0.98271 0.21047
 C308 C -0.09867 0.98223 0.23838
 C309 C -0.12272 0.95208 0.24373
 C310 C -0.12504 0.92274 0.22162
 C311 C -0.10274 0.92344 0.19409
 C312 C -0.07855 0.95329 0.18826
 C313 C -0.09882 1.01431 0.26089
 C314 C -0.12340 1.04423 0.25571
 C315 C -0.12598 1.07351 0.27789
 C316 C -0.10344 1.07295 0.30528
 C317 C -0.07876 1.04335 0.31091
 C318 C -0.07664 1.01400 0.28869
 H319 H -0.05896 1.00635 0.20577
 H320 H -0.14027 0.95202 0.26477
 H321 H -0.14112 1.04417 0.23477
 H322 H -0.05847 0.99058 0.29334
 H323 H -0.10500 0.90121 0.17670
 H324 H -0.10581 1.09506 0.32276
 C325 C 0.42300 0.48455 -0.29013
 C326 C 0.40147 0.48407 -0.26196
 C327 C 0.37780 0.45373 -0.25618
 C328 C 0.37542 0.42425 -0.27810
 C329 C 0.39727 0.42492 -0.30587
 C330 C 0.42113 0.45492 -0.31214
 C331 C 0.40143 0.51622 -0.23952
 C332 C 0.37707 0.54630 -0.24481
 C333 C 0.37444 0.57553 -0.22258
 C334 C 0.39677 0.57478 -0.19505
 C335 C 0.42124 0.54504 -0.18934
 C336 C 0.42336 0.51572 -0.21159
 H337 H 0.44050 0.50829 -0.29513
 H338 H 0.36054 0.45358 -0.23499
 H339 H 0.35948 0.54636 -0.26584
 H340 H 0.44134 0.49218 -0.20685
 H341 H 0.39488 0.40251 -0.32304
 H342 H 0.39437 0.59686 -0.17754
 C343 C 0.57609 0.01643 -0.29067
 C344 C 0.59728 0.01686 -0.26229
 C345 C 0.62102 0.04709 -0.25630
 C346 C 0.62384 0.07650 -0.27822
 C347 C 0.60229 0.07591 -0.30618
 C348 C 0.57836 0.04604 -0.31266
 C349 C 0.59716 -0.01538 -0.23998
 C350 C 0.62117 -0.04565 -0.24557
 C351 C 0.62381 -0.07494 -0.22347
 C352 C 0.60184 -0.07417 -0.19579
 C353 C 0.57768 -0.04427 -0.18974
 C354 C 0.57556 -0.01481 -0.21185
 H355 H 0.55858 -0.00725 -0.29586
 H356 H 0.63809 0.04715 -0.23497
 H357 H 0.63857 -0.04583 -0.26667
 H358 H 0.55786 0.00887 -0.20688
 H359 H 0.60502 0.09828 -0.32335
 H360 H 0.60436 -0.09637 -0.17844
 C361 C 0.00584 0.20076 0.92759
 C362 C -0.01019 0.23296 0.91464
 C363 C -0.03819 0.22987 0.89175
 C364 C -0.04788 0.19530 0.87976
 C365 C -0.03266 0.16328 0.89253
 C366 C -0.00623 0.16602 0.91676
 C367 C 0.00990 0.26798 0.91422
 C368 C 0.03764 0.27049 0.89105
 C369 C 0.04719 0.30477 0.87839
 C370 C 0.03204 0.33709 0.89063
 C371 C 0.00585 0.33496 0.91505
 C372 C -0.00603 0.30051 0.92666
 H373 H 0.02841 0.20276 0.94462
 H374 H -0.04911 0.25471 0.88038
 H375 H 0.04849 0.24538 0.88009
 H376 H -0.02840 0.29894 0.94390
 H377 H -0.04094 0.13637 0.88335
 H378 H 0.04025 0.36378 0.88094
 C379 C 0.49367 0.20016 0.07366
 C380 C 0.51005 0.23226 0.08630
 C381 C 0.53802 0.22901 0.10923
 C382 C 0.54725 0.19444 0.12160
 C383 C 0.53162 0.16252 0.10916
 C384 C 0.50527 0.16538 0.08488
 C385 C 0.49025 0.26755 0.08651
 C386 C 0.46257 0.27063 0.10969
 C387 C 0.45329 0.30512 0.12218
 C388 C 0.46863 0.33715 0.10971
 C389 C 0.49473 0.33446 0.08523
 C390 C 0.50636 0.29976 0.07384
 H391 H 0.47115 0.20232 0.05657
 H392 H 0.54922 0.25381 0.12037
 H393 H 0.45155 0.24575 0.12081
 H394 H 0.52866 0.29774 0.05655
 H395 H 0.53956 0.13559 0.11862
 H396 H 0.46059 0.36402 0.11923
 C397 C -0.00681 0.70033 0.57443
 C398 C 0.00939 0.73253 0.58706
 C399 C 0.03748 0.72944 0.60989
 C400 C 0.04701 0.69492 0.62218
 C401 C 0.03158 0.66290 0.60975
 C402 C 0.00511 0.66561 0.58556
 C403 C -0.01063 0.76770 0.58737
 C404 C -0.03829 0.77054 0.61059
 C405 C -0.04765 0.80495 0.62330
 C406 C -0.03239 0.83712 0.61092
 C407 C -0.00633 0.83462 0.58639
 C408 C 0.00536 0.80001 0.57484
 H409 H -0.02943 0.70235 0.55743
 H410 H 0.04855 0.75430 0.62103
 H411 H -0.04920 0.74547 0.62152
 H412 H 0.02765 0.79816 0.55752
 H413 H 0.03977 0.63602 0.61915
 H414 H -0.04042 0.86398 0.62051
 C415 C 0.50614 0.70024 0.42693
 C416 C 0.49079 0.73295 0.41432
 C417 C 0.46289 0.73078 0.39124
 C418 C 0.45258 0.69659 0.37883
 C419 C 0.46712 0.66407 0.39129
 C420 C 0.49349 0.66591 0.41562
 C421 C 0.51145 0.76765 0.41458
 C422 C 0.53962 0.77006 0.39177
 C423 C 0.54974 0.80434 0.37945
 C424 C 0.53480 0.83673 0.39179
 C425 C 0.50820 0.83467 0.41590
 C426 C 0.49574 0.80025 0.42709
 H427 H 0.52864 0.70154 0.44407
 H428 H 0.45250 0.75600 0.38014
 H429 H 0.55026 0.74493 0.38068
 H430 H 0.47300 0.79877 0.44398
 H431 H 0.45835 0.63747 0.38178
 H432 H 0.54336 0.86340 0.38230
 Zr433 Zr 0.01419 -0.07123 1.04297
 O434 O 0.05738 -0.06350 1.07655
 O435 O -0.00842 -0.12023 1.06001
 O436 O -0.00763 -0.06232 1.08980
 O437 O 0.06761 -0.10939 0.98156
 O438 O -0.05138 -0.01679 1.08317
 O439 O 0.05931 -0.10966 1.03559
 O440 O -0.06333 -0.12560 1.03302
 O441 O -0.04296 -0.06140 1.03765
 O442 O -0.00264 -0.09840 1.00127
 O443 O 0.00712 -0.01317 1.04220
 O444 O 0.04700 -0.04827 1.00636
 Zr445 Zr -0.03533 -0.00680 0.95554
 Zr446 Zr -0.04990 -0.00401 1.03418
 Zr447 Zr 0.02713 -0.07354 0.96444
 Zr448 Zr -0.05901 -0.08703 0.99538
 O449 O 0.07919 -0.06561 0.94225
 O450 O -0.11353 -0.08442 1.01446
 O451 O -0.02959 -0.06507 0.95639
 O452 O -0.06811 -0.02975 0.99213
 O453 O -0.01937 0.02055 0.99757
 O454 O 0.02166 -0.01606 0.96106
 C455 C -0.04041 -0.13454 1.05525
 C456 C 0.07613 -0.12012 1.00964
 C457 C -0.03360 -0.04053 1.10029
 O458 O -0.10534 -0.01328 1.04890
 O459 O -0.08523 0.03770 1.01546
 O460 O -0.07649 0.03478 0.96150
 C461 C -0.09220 0.04819 0.98667
 O462 O 0.08603 0.00468 1.03164
 Zr463 Zr 0.03702 0.00903 1.00384
 O464 O -0.01302 0.04334 0.93952
 O465 O -0.03858 0.04549 1.05947
 O466 O 0.03735 0.05451 1.03587
 O467 O 0.08699 0.01698 0.97802
 O468 O 0.03126 0.05751 0.97658
 C469 C 0.01081 0.06512 0.95242
 O470 O -0.08084 -0.01338 0.92401
 O471 O 0.01523 -0.12597 0.94416
 O472 O -0.01839 -0.02061 0.90829
 O473 O 0.02307 -0.06796 0.91513
 O474 O -0.05611 -0.14029 0.97395
 O475 O -0.09662 -0.08884 0.95630
 C476 C 0.00421 -0.04571 0.89773
 H477 H 0.00213 -0.12546 1.00218
 H478 H -0.09482 -0.02506 0.98814
 H479 H 0.03646 -0.00608 0.94311
 H480 H 0.01517 -0.00214 1.06270
 H481 H -0.12434 -0.10962 1.01291
 H482 H -0.11212 0.00728 1.06353
 H483 H -0.06150 0.05178 1.07141
 H484 H 0.05944 0.06960 1.03043
 H485 H -0.07761 -0.15468 0.98191
 H486 H 0.03757 -0.13347 0.93190
 H487 H 0.09371 -0.04971 0.95690
 H488 H 0.09649 0.04201 0.98346
 H489 H -0.11457 -0.10926 0.95953
 H490 H -0.07996 0.00742 0.90851
 H491 H 0.05708 -0.08542 1.09086
 H492 H 0.07823 0.00042 1.05396
 Zr493 Zr 0.51309 0.42894 0.54240
 O494 O 0.55629 0.43678 0.57594
 O495 O 0.49031 0.38018 0.55979
 O496 O 0.49139 0.43843 0.58919
 O497 O 0.56628 0.39004 0.48111
 O498 O 0.44772 0.48397 0.58229
 O499 O 0.55827 0.39048 0.53518
 O500 O 0.43512 0.37504 0.53320
 O501 O 0.45596 0.43891 0.53707
 O502 O 0.49608 0.40137 0.50095
 O503 O 0.50617 0.48702 0.54119
 O504 O 0.54585 0.45145 0.50555
 Zr505 Zr 0.46354 0.49263 0.45453
 Zr506 Zr 0.44915 0.49627 0.53319
 Zr507 Zr 0.52580 0.42579 0.46388
 Zr508 Zr 0.43971 0.41288 0.49505
 O509 O 0.57784 0.43327 0.44152
 O510 O 0.38512 0.41587 0.51394
 O511 O 0.46910 0.43435 0.45583
 O512 O 0.43078 0.47015 0.49137
 O513 O 0.47966 0.52035 0.49634
 O514 O 0.52051 0.48326 0.46005
 C515 C 0.45811 0.36616 0.55539
 C516 C 0.57499 0.37971 0.50925
 C517 C 0.46549 0.46037 0.59956
 O518 O 0.39371 0.48729 0.54805
 O519 O 0.41393 0.53791 0.51418
 O520 O 0.42248 0.53436 0.46022
 C521 C 0.40691 0.54811 0.48532
 O522 O 0.58512 0.50462 0.53031
 Zr523 Zr 0.53602 0.50876 0.50261
 O524 O 0.48582 0.54262 0.43813
 O525 O 0.46066 0.54598 0.55811
 O526 O 0.53660 0.55451 0.53434
 O527 O 0.58592 0.51635 0.47661
 O528 O 0.53020 0.55701 0.47504
 C529 C 0.50969 0.56448 0.45088
 O530 O 0.41799 0.48573 0.42310
 O531 O 0.51360 0.37320 0.44405
 O532 O 0.48052 0.47836 0.40737
 O533 O 0.52173 0.43086 0.41455
 O534 O 0.44248 0.35927 0.47428
 O535 O 0.40220 0.41066 0.45592
 C536 C 0.50305 0.45308 0.39700
 H537 H 0.50079 0.37432 0.50208
 H538 H 0.40408 0.47488 0.48738
 H539 H 0.53531 0.49303 0.44202
 H540 H 0.51430 0.49824 0.56159
 H541 H 0.37425 0.39068 0.51259
 H542 H 0.38700 0.50804 0.56251
 H543 H 0.43777 0.55246 0.57002
 H544 H 0.55864 0.56955 0.52869
 H545 H 0.42094 0.34506 0.48241
 H546 H 0.53587 0.36545 0.43182
 H547 H 0.59239 0.44944 0.45593
 H548 H 0.59544 0.54144 0.48179
 H549 H 0.38428 0.39023 0.45925
 H550 H 0.41887 0.50636 0.40743
 H551 H 0.55595 0.41494 0.59035
 H552 H 0.57738 0.50025 0.55263
 Zr553 Zr 0.48726 1.07215 0.54145
 O554 O 0.44409 1.06436 0.57501
 O555 O 0.50997 1.12102 0.55873
 O556 O 0.50892 1.06276 0.58826
 O557 O 0.43379 1.11067 0.48020
 O558 O 0.55273 1.01734 0.58141
 O559 O 0.44201 1.11048 0.53425
 O560 O 0.56496 1.12637 0.53193
 O561 O 0.54440 1.06237 0.53608
 O562 O 0.50402 1.09960 0.49989
 O563 O 0.49433 1.01410 0.54037
 O564 O 0.45443 1.04941 0.50470
 Zr565 Zr 0.53667 1.00826 0.45364
 Zr566 Zr 0.55135 1.00502 0.53231
 Zr567 Zr 0.47425 1.07495 0.46292
 Zr568 Zr 0.56039 1.08827 0.49393
 O569 O 0.42211 1.06729 0.44074
 O570 O 0.61504 1.08553 0.51277
 O571 O 0.53095 1.06653 0.45480
 O572 O 0.56948 1.03101 0.49037
 O573 O 0.52079 0.98069 0.49556
 O574 O 0.47970 1.01747 0.45925
 C575 C 0.54206 1.13521 0.55418
 C576 C 0.42518 1.12109 0.50834
 C577 C 0.53484 1.04086 0.59868
 O578 O 0.60676 1.01433 0.54713
 O579 O 0.58672 0.96349 0.51335
 O580 O 0.57796 0.96675 0.45939
 C581 C 0.59369 0.95320 0.48451
 O582 O 0.41537 0.99634 0.52964
 Zr583 Zr 0.46441 0.99213 0.50190
 O584 O 0.51453 0.95806 0.43751
 O585 O 0.54014 0.95528 0.55725
 O586 O 0.46402 0.94652 0.53377
 O587 O 0.41447 0.98422 0.47598
 O588 O 0.47031 0.94373 0.47453
 C589 C 0.49081 0.93619 0.45040
 O590 O 0.58203 1.01519 0.42205
 O591 O 0.48629 1.12745 0.44288
 O592 O 0.51935 1.02217 0.40647
 O593 O 0.47802 1.06958 0.41357
 O594 O 0.55739 1.14176 0.47297
 O595 O 0.59782 1.09041 0.45476
 C596 C 0.49665 1.04728 0.39604
 H597 H 0.49924 1.12665 0.50096
 H598 H 0.59619 1.02637 0.48635
 H599 H 0.46485 1.00756 0.44128
 H600 H 0.48629 1.00292 0.56080
 H601 H 0.62583 1.11075 0.51134
 H602 H 0.61360 0.99367 0.56162
 H603 H 0.56307 0.94894 0.56918
 H604 H 0.44195 0.93144 0.52824
 H605 H 0.57892 1.15607 0.48101
 H606 H 0.46393 1.13512 0.43072
 H607 H 0.40770 1.05107 0.45519
 H608 H 0.40503 0.95914 0.48129
 H609 H 0.61568 1.11091 0.45801
 H610 H 0.58115 0.99446 0.40646
 H611 H 0.44444 1.08622 0.58940
 H612 H 0.42316 1.00069 0.55196
 Zr613 Zr -0.01454 0.57177 1.04149
 O614 O -0.05795 0.56385 1.07480
 O615 O 0.00800 0.62062 1.05899
 O616 O 0.00674 0.56245 1.08838
 O617 O -0.06715 0.61072 0.97999
 O618 O 0.05036 0.51678 1.08183
 O619 O -0.05975 0.61001 1.03412
 O620 O 0.06395 0.62481 1.03357
 O621 O 0.04260 0.56168 1.03661
 O622 O 0.00289 0.59939 1.00023
 O623 O -0.00770 0.51370 1.04038
 O624 O -0.04702 0.54936 1.00440
 Zr625 Zr 0.03569 0.50797 0.95406
 Zr626 Zr 0.04937 0.50434 1.03277
 Zr627 Zr -0.02652 0.57500 0.96292
 Zr628 Zr 0.05929 0.58775 0.99479
 O629 O -0.07834 0.56780 0.94008
 O630 O 0.11398 0.58472 1.01351
 O631 O 0.03025 0.56628 0.95532
 O632 O 0.06816 0.53045 0.99112
 O633 O 0.01911 0.48029 0.99571
 O634 O -0.02130 0.51750 0.95916
 C635 C 0.04059 0.63398 1.05539
 C636 C -0.07622 0.62082 1.00812
 C637 C 0.03252 0.54051 1.09891
 O638 O 0.10468 0.51327 1.04805
 O639 O 0.08477 0.46268 1.01408
 O640 O 0.07674 0.46623 0.96006
 C641 C 0.09209 0.45249 0.98528
 O642 O -0.08656 0.49653 1.02900
 Zr643 Zr -0.03729 0.49206 1.00159
 O644 O 0.01343 0.45796 0.93761
 O645 O 0.03758 0.45466 1.05760
 O646 O -0.03819 0.44627 1.03324
 O647 O -0.08701 0.48457 0.97528
 O648 O -0.03155 0.44385 0.97402
 C649 C -0.01076 0.43626 0.95010
 O650 O 0.08145 0.51476 0.92287
 O651 O -0.01392 0.62754 0.94322
 O652 O 0.01904 0.52209 0.90678
 O653 O -0.02206 0.56977 0.91360
 O654 O 0.05663 0.64165 0.97459
 O655 O 0.09682 0.59020 0.95570
 C656 C -0.00336 0.54737 0.89621
 H657 H -0.00184 0.62644 1.00139
 H658 H 0.09489 0.52568 0.98731
 H659 H -0.03599 0.50774 0.94104
 H660 H -0.01602 0.50251 1.06072
 H661 H 0.12477 0.60996 1.01233
 H662 H 0.11121 0.49257 1.06261
 H663 H 0.06032 0.44822 1.06975
 H664 H -0.06036 0.43141 1.02757
 H665 H 0.07806 0.65575 0.98309
 H666 H -0.03610 0.63539 0.93089
 H667 H -0.09298 0.55139 0.95419
 H668 H -0.09676 0.45959 0.98055
 H669 H 0.11447 0.61088 0.95896
 H670 H 0.08067 0.49406 0.90724
 H671 H -0.05778 0.58569 1.08922
 H672 H -0.07896 0.50030 1.05145
 Zr673 Zr -0.01609 0.43039 0.45723
 O674 O -0.05954 0.43909 0.42403
 O675 O 0.00629 0.38157 0.43930
 O676 O 0.00532 0.43992 0.41044
 O677 O -0.06878 0.39129 0.51843
 O678 O 0.04906 0.48515 0.41738
 O679 O -0.06128 0.39229 0.46432
 O680 O 0.06196 0.37621 0.46512
 O681 O 0.04108 0.43993 0.46225
 O682 O 0.00126 0.40226 0.49834
 O683 O -0.00910 0.48839 0.45878
 O684 O -0.04851 0.45270 0.49447
 Zr685 Zr 0.03429 0.49291 0.54519
 Zr686 Zr 0.04798 0.49719 0.46651
 Zr687 Zr -0.02809 0.42651 0.53580
 Zr688 Zr 0.05768 0.41334 0.50391
 O689 O -0.07990 0.43400 0.55863
 O690 O 0.11221 0.41612 0.48492
 O691 O 0.02870 0.43466 0.54350
 O692 O 0.06671 0.47053 0.50800
 O693 O 0.01779 0.52112 0.50372
 O694 O -0.02273 0.48391 0.53998
 C695 C 0.03867 0.36758 0.44311
 C696 C -0.07778 0.38139 0.49024
 C697 C 0.03121 0.46172 0.40010
 O698 O 0.10331 0.48803 0.45127
 O699 O 0.08342 0.53842 0.48552
 O700 O 0.07539 0.53442 0.53951
 C701 C 0.09074 0.54830 0.51440
 O702 O -0.08791 0.50612 0.47022
 Zr703 Zr -0.03864 0.50989 0.49771
 O704 O 0.01209 0.54288 0.56205
 O705 O 0.03628 0.54715 0.44198
 O706 O -0.03939 0.55602 0.46641
 O707 O -0.08836 0.51753 0.52402
 O708 O -0.03279 0.55777 0.52566
 C709 C -0.01202 0.56491 0.54968
 O710 O 0.08008 0.48551 0.57632
 O711 O -0.01572 0.37366 0.55513
 O712 O 0.01772 0.47835 0.59236
 O713 O -0.02359 0.43117 0.58517
 O714 O 0.05498 0.35941 0.52402
 O715 O 0.09542 0.41031 0.54285
 C716 C -0.00474 0.45315 0.60274
 H717 H -0.00352 0.37525 0.49700
 H718 H 0.09344 0.47504 0.51185
 H719 H -0.03738 0.49360 0.55818
 H720 H -0.01738 0.49984 0.43851
 H721 H 0.12298 0.39080 0.48590
 H722 H 0.10988 0.50881 0.43684
 H723 H 0.05904 0.55355 0.42991
 H724 H -0.06153 0.57099 0.47217
 H725 H 0.07636 0.34517 0.51549
 H726 H -0.03792 0.36591 0.56739
 H727 H -0.09453 0.45055 0.54455
 H728 H -0.09803 0.54265 0.51894
 H729 H 0.11317 0.38967 0.53931
 H730 H 0.07933 0.50604 0.59211
 H731 H -0.05943 0.41743 0.40941
 H732 H -0.08032 0.50263 0.44774
 Zr733 Zr 0.48536 -0.07053 -0.04260
 O734 O 0.44200 -0.06251 -0.07601
 O735 O 0.50840 -0.11919 -0.06026
 O736 O 0.50683 -0.06084 -0.08938
 O737 O 0.43247 -0.10967 0.01853
 O738 O 0.55029 -0.01535 -0.08239
 O739 O 0.44048 -0.10906 -0.03553
 O740 O 0.56358 -0.12455 -0.03365
 O741 O 0.54244 -0.06062 -0.03730
 O742 O 0.50255 -0.09827 -0.00125
 O743 O 0.49196 -0.01247 -0.04122
 O744 O 0.45249 -0.04819 -0.00565
 Zr745 Zr 0.53461 -0.00721 0.04542
 Zr746 Zr 0.54894 -0.00327 -0.03323
 Zr747 Zr 0.47273 -0.07400 0.03592
 Zr748 Zr 0.55885 -0.08681 0.00463
 O749 O 0.42064 -0.06666 0.05832
 O750 O 0.61340 -0.08378 -0.01431
 O751 O 0.52940 -0.06548 0.04395
 O752 O 0.56747 -0.02957 0.00850
 O753 O 0.51831 0.02068 0.00372
 O754 O 0.47770 -0.01654 0.03991
 C755 C 0.54064 -0.13329 -0.05589
 C756 C 0.42383 -0.11991 -0.00965
 C757 C 0.53257 -0.03886 -0.09971
 O758 O 0.60439 -0.01226 -0.04822
 O759 O 0.58407 0.03820 -0.01410
 O760 O 0.57551 0.03448 0.03985
 C761 C 0.59107 0.04827 0.01480
 O762 O 0.41292 0.00492 -0.03027
 Zr763 Zr 0.46200 0.00910 -0.00256
 O764 O 0.51201 0.04273 0.06193
 O765 O 0.53717 0.04659 -0.05790
 O766 O 0.46114 0.05499 -0.03412
 O767 O 0.41207 0.01662 0.02347
 O768 O 0.46747 0.05725 0.02514
 C769 C 0.48799 0.06462 0.04928
 O770 O 0.58018 -0.01420 0.07685
 O771 O 0.48528 -0.12664 0.05560
 O772 O 0.51771 -0.02157 0.09255
 O773 O 0.47673 -0.06901 0.08529
 O774 O 0.55640 -0.14050 0.02524
 O775 O 0.59644 -0.08918 0.04371
 C776 C 0.49530 -0.04683 0.10289
 H777 H 0.49799 -0.12533 -0.00249
 H778 H 0.59415 -0.02488 0.01249
 H779 H 0.46284 -0.00683 0.05797
 H780 H 0.48375 -0.00117 -0.06157
 H781 H 0.62441 -0.10898 -0.01306
 H782 H 0.61096 0.00853 -0.06263
 H783 H 0.55999 0.05308 -0.06984
 H784 H 0.43892 0.06992 -0.02850
 H785 H 0.57801 -0.15468 0.01704
 H786 H 0.46305 -0.13445 0.06779
 H787 H 0.40603 -0.05036 0.04402
 H788 H 0.40233 0.04168 0.01827
 H789 H 0.61447 -0.10961 0.04029
 H790 H 0.57919 0.00640 0.09257
 H791 H 0.44243 -0.08425 -0.09053
 H792 H 0.42069 0.00102 -0.05266
 Zr793 Zr 0.51471 0.57031 -0.04250
 O794 O 0.55798 0.56192 -0.07590
 O795 O 0.49214 0.61920 -0.06007
 O796 O 0.49303 0.56093 -0.08927
 O797 O 0.56786 0.60908 0.01871
 O798 O 0.44929 0.51570 -0.08234
 O799 O 0.55985 0.60855 -0.03536
 O800 O 0.43698 0.62493 -0.03351
 O801 O 0.45756 0.56077 -0.03724
 O802 O 0.49771 0.59813 -0.00113
 O803 O 0.50770 0.51230 -0.04121
 O804 O 0.54745 0.54773 -0.00557
 Zr805 Zr 0.46506 0.50722 0.04540
 Zr806 Zr 0.45067 0.50345 -0.03324
 Zr807 Zr 0.52739 0.57363 0.03602
 Zr808 Zr 0.44133 0.58704 0.00469
 O809 O 0.57943 0.56595 0.05844
 O810 O 0.38681 0.58436 -0.01439
 O811 O 0.47066 0.56547 0.04400
 O812 O 0.43232 0.52984 0.00850
 O813 O 0.48118 0.47927 0.00368
 O814 O 0.52204 0.51621 0.03992
 C815 C 0.46001 0.63355 -0.05570
 C816 C 0.57655 0.61930 -0.00945
 C817 C 0.46709 0.53916 -0.09962
 O818 O 0.39524 0.51274 -0.04817
 O819 O 0.41536 0.46210 -0.01418
 O820 O 0.42396 0.46572 0.03978
 C821 C 0.40835 0.45201 0.01471
 O822 O 0.58659 0.49438 -0.03034
 Zr823 Zr 0.53756 0.49051 -0.00258
 O824 O 0.48739 0.45716 0.06190
 O825 O 0.46212 0.45360 -0.05805
 O826 O 0.53800 0.44457 -0.03412
 O827 O 0.58753 0.48270 0.02339
 O828 O 0.53194 0.44246 0.02519
 C829 C 0.51138 0.43520 0.04931
 O830 O 0.41952 0.51451 0.07679
 O831 O 0.51517 0.62632 0.05577
 O832 O 0.48208 0.52141 0.09255
 O833 O 0.52336 0.56861 0.08537
 O834 O 0.44409 0.64066 0.02543
 O835 O 0.40370 0.58965 0.04370
 C836 C 0.50467 0.54651 0.10292
 H837 H 0.50244 0.62515 -0.00231
 H838 H 0.40562 0.52530 0.01248
 H839 H 0.53686 0.50640 0.05797
 H840 H 0.51581 0.50097 -0.06158
 H841 H 0.37598 0.60964 -0.01318
 H842 H 0.38855 0.49202 -0.06263
 H843 H 0.43924 0.44727 -0.07000
 H844 H 0.56015 0.42952 -0.02854
 H845 H 0.42259 0.65500 0.01721
 H846 H 0.53745 0.63398 0.06799
 H847 H 0.59395 0.54958 0.04412
 H848 H 0.59712 0.45760 0.01815
 H849 H 0.38574 0.61011 0.04022
 H850 H 0.42039 0.49391 0.09250
 H851 H 0.55772 0.58368 -0.09040
 H852 H 0.57880 0.49811 -0.05275
 Zr853 Zr 0.01502 1.06952 0.45754
 O854 O 0.05838 1.06051 0.42435
 O855 O -0.00723 1.11835 0.43956
 O856 O -0.00662 1.05986 0.41078
 O857 O 0.06821 1.10858 0.51850
 O858 O -0.05059 1.01493 0.41795
 O859 O 0.06018 1.10769 0.46443
 O860 O -0.06225 1.12482 0.46620
 O861 O -0.04219 1.06037 0.46277
 O862 O -0.00189 1.09776 0.49874
 O863 O 0.00774 1.01157 0.45919
 O864 O 0.04757 1.04709 0.49468
 Zr865 Zr -0.03513 1.00748 0.54579
 Zr866 Zr -0.04934 1.00314 0.46713
 Zr867 Zr 0.02760 1.07345 0.53610
 Zr868 Zr -0.05833 1.08707 0.50454
 O869 O 0.07961 1.06573 0.55855
 O870 O -0.11276 1.08454 0.48527
 O871 O -0.02919 1.06567 0.54405
 O872 O -0.06765 1.02995 0.50869
 O873 O -0.01907 0.97910 0.50426
 O874 O 0.02191 1.01610 0.54034
 C875 C -0.03919 1.13305 0.44393
 C876 C 0.07689 1.11858 0.49027
 C877 C -0.03265 1.03814 0.40054
 O878 O -0.10471 1.01257 0.45210
 O879 O -0.08479 0.96208 0.48631
 O880 O -0.07640 0.96610 0.54028
 C881 C -0.09193 0.95223 0.51522
 O882 O 0.08651 0.99326 0.47034
 Zr883 Zr 0.03738 0.98995 0.49804
 O884 O -0.01317 0.95746 0.56269
 O885 O -0.03809 0.95304 0.44261
 O886 O 0.03761 0.94372 0.46681
 O887 O 0.08726 0.98210 0.52412
 O888 O 0.03137 0.94219 0.52613
 C889 C 0.01072 0.93525 0.55027
 O890 O -0.08072 1.01531 0.57702
 O891 O 0.01561 1.12633 0.55557
 O892 O -0.01807 1.02191 0.59289
 O893 O 0.02358 1.06875 0.58551
 O894 O -0.05536 1.14078 0.52508
 O895 O -0.09614 1.09014 0.54340
 C896 C 0.00472 1.04690 0.60318
 H897 H 0.00297 1.12475 0.49740
 H898 H -0.09439 1.02558 0.51264
 H899 H 0.03665 1.00634 0.55846
 H900 H 0.01584 1.00002 0.43891
 H901 H -0.12345 1.10989 0.48628
 H902 H -0.11149 0.99179 0.43774
 H903 H -0.06098 0.94673 0.43066
 H904 H 0.05965 0.92858 0.47254
 H905 H -0.07674 1.15520 0.51675
 H906 H 0.03795 1.13398 0.56772
 H907 H 0.09405 1.04916 0.54433
 H908 H 0.09667 0.95686 0.51912
 H909 H -0.11400 1.11065 0.53973
 H910 H -0.08003 0.99482 0.59284
 H911 H 0.05826 1.08207 0.40963
 H912 H 0.07880 0.99679 0.44789
 Zr913 Zr 0.67928 0.26173 0.20861
 O914 O 0.68798 0.30492 0.17527
 O915 O 0.63033 0.23960 0.19083
 O916 O 0.68874 0.24019 0.16184
 O917 O 0.64063 0.31527 0.26963
 O918 O 0.73368 0.19592 0.16883
 O919 O 0.64128 0.30723 0.21557
 O920 O 0.62438 0.18446 0.21725
 O921 O 0.68852 0.20453 0.21383
 O922 O 0.65119 0.24497 0.24985
 O923 O 0.73730 0.25414 0.21009
 O924 O 0.70193 0.29413 0.24564
 Zr925 Zr 0.74188 0.21128 0.29671
 Zr926 Zr 0.74581 0.19707 0.21799
 Zr927 Zr 0.67572 0.27432 0.28710
 Zr928 Zr 0.66202 0.18852 0.25567
 O929 O 0.68371 0.32614 0.30966
 O930 O 0.66448 0.13397 0.23670
 O931 O 0.68361 0.21754 0.29507
 O932 O 0.71922 0.17892 0.25965
 O933 O 0.77003 0.22717 0.25506
 O934 O 0.73317 0.26832 0.29126
 C935 C 0.61592 0.20758 0.19505
 C936 C 0.63058 0.32408 0.24142
 C937 C 0.71039 0.21406 0.15151
 O938 O 0.73628 0.14180 0.20300
 O939 O 0.78704 0.16143 0.23703
 O940 O 0.78327 0.16977 0.29101
 C941 C 0.79705 0.15420 0.26590
 O942 O 0.75566 0.33281 0.22131
 Zr943 Zr 0.75914 0.28362 0.24887
 O944 O 0.79211 0.23293 0.31338
 O945 O 0.79581 0.20804 0.19330
 O946 O 0.80514 0.28376 0.21739
 O947 O 0.76721 0.33329 0.27507
 O948 O 0.80721 0.27716 0.27662
 C949 C 0.81433 0.25653 0.30075
 O950 O 0.73436 0.16581 0.32803
 O951 O 0.62277 0.26279 0.30656
 O952 O 0.72734 0.22837 0.34385
 O953 O 0.68031 0.27008 0.33644
 O954 O 0.60825 0.19189 0.27614
 O955 O 0.65908 0.15099 0.29470
 C956 C 0.70218 0.25115 0.35412
 H957 H 0.62417 0.25001 0.24856
 H958 H 0.72363 0.15218 0.26359
 H959 H 0.74300 0.28295 0.30938
 H960 H 0.74875 0.26219 0.18978
 H961 H 0.63912 0.12343 0.23787
 H962 H 0.75699 0.13492 0.18855
 H963 H 0.80204 0.18516 0.18129
 H964 H 0.82037 0.30564 0.22312
 H965 H 0.59382 0.17059 0.26784
 H966 H 0.61517 0.28517 0.31871
 H967 H 0.70017 0.34052 0.29539
 H968 H 0.79245 0.34255 0.26999
 H969 H 0.63841 0.13337 0.29124
 H970 H 0.75495 0.16649 0.34377
 H971 H 0.66626 0.30492 0.16069
 H972 H 0.75161 0.32519 0.19890
 Zr973 Zr 0.82166 0.73636 0.70785
 O974 O 0.81387 0.69316 0.67433
 O975 O 0.87066 0.75896 0.69071
 O976 O 0.81264 0.75791 0.66103
 O977 O 0.86008 0.68319 0.76924
 O978 O 0.76704 0.80160 0.66759
 O979 O 0.85997 0.69119 0.71517
 O980 O 0.87554 0.81424 0.71711
 O981 O 0.81171 0.79345 0.71304
 O982 O 0.84901 0.75336 0.74942
 O983 O 0.76354 0.74334 0.70868
 O984 O 0.79886 0.70366 0.74458
 Zr985 Zr 0.75731 0.78602 0.79523
 Zr986 Zr 0.75428 0.80031 0.71659
 Zr987 Zr 0.82427 0.72372 0.78637
 Zr988 Zr 0.83750 0.80969 0.75518
 O989 O 0.81667 0.67177 0.80878
 O990 O 0.83474 0.86426 0.73633
 O991 O 0.81566 0.78040 0.79430
 O992 O 0.78015 0.81869 0.75853
 O993 O 0.72985 0.76987 0.75331
 O994 O 0.76672 0.72908 0.78982
 C995 C 0.88460 0.79118 0.69503
 C996 C 0.87054 0.67446 0.74112
 C997 C 0.79080 0.78379 0.65052
 O998 O 0.76347 0.85567 0.70171
 O999 O 0.71253 0.83563 0.73526
 O1000 O 0.71562 0.82712 0.78925
 C1001 C 0.70209 0.84270 0.76405
 O1002 O 0.74593 0.66455 0.71937
 Zr1003 Zr 0.74150 0.71353 0.74714
 O1004 O 0.70717 0.76372 0.81134
 O1005 O 0.70470 0.78888 0.69139
 O1006 O 0.69584 0.71309 0.71526
 O1007 O 0.73375 0.66362 0.77302
 O1008 O 0.69311 0.71911 0.77457
 C1009 C 0.68548 0.73967 0.79863
 O1010 O 0.76398 0.83152 0.82671
 O1011 O 0.87676 0.73589 0.80649
 O1012 O 0.77111 0.76905 0.84248
 O1013 O 0.81870 0.72783 0.83567
 O1014 O 0.89106 0.80686 0.77616
 O1015 O 0.83952 0.84715 0.79433
 C1016 C 0.79627 0.74650 0.85305
 H1017 H 0.87609 0.74860 0.74842
 H1018 H 0.77542 0.84537 0.76247
 H1019 H 0.75679 0.71429 0.80779
 H1020 H 0.75246 0.73521 0.68823
 H1021 H 0.85997 0.87506 0.73779
 H1022 H 0.74287 0.86234 0.68706
 H1023 H 0.69839 0.81171 0.67936
 H1024 H 0.68085 0.69096 0.72071
 H1025 H 0.90535 0.82833 0.76803
 H1026 H 0.88441 0.71361 0.81874
 H1027 H 0.80046 0.65726 0.79438
 H1028 H 0.70874 0.65400 0.76759
 H1029 H 0.86007 0.86497 0.79114
 H1030 H 0.74317 0.83067 0.84222
 H1031 H 0.83580 0.69341 0.65999
 H1032 H 0.74989 0.67233 0.69700
 Zr1033 Zr 0.17935 0.23551 0.79224
 O1034 O 0.18745 0.19222 0.82563
 O1035 O 0.13046 0.25825 0.80974
 O1036 O 0.18883 0.25699 0.83906
 O1037 O 0.14052 0.18261 0.73090
 O1038 O 0.23431 0.30050 0.83225
 O1039 O 0.14101 0.19050 0.78499
 O1040 O 0.12498 0.31338 0.78317
 O1041 O 0.18913 0.29258 0.78705
 O1042 O 0.15166 0.25264 0.75083
 O1043 O 0.23744 0.24230 0.79105
 O1044 O 0.20190 0.20276 0.75532
 Zr1045 Zr 0.24289 0.28498 0.70449
 Zr1046 Zr 0.24653 0.29925 0.78314
 Zr1047 Zr 0.17615 0.22296 0.71369
 Zr1048 Zr 0.16298 0.30893 0.74507
 O1049 O 0.18373 0.17099 0.69120
 O1050 O 0.16580 0.36336 0.76420
 O1051 O 0.18457 0.27960 0.70577
 O1052 O 0.22027 0.31772 0.74137
 O1053 O 0.27072 0.26872 0.74625
 O1054 O 0.23366 0.22808 0.70990
 C1055 C 0.11622 0.29040 0.80534
 C1056 C 0.13026 0.17388 0.75904
 C1057 C 0.21076 0.28275 0.84948
 O1058 O 0.23731 0.35460 0.79820
 O1059 O 0.28795 0.33457 0.76416
 O1060 O 0.28446 0.32598 0.71020
 C1061 C 0.29811 0.34161 0.73530
 O1062 O 0.25503 0.16345 0.78019
 Zr1063 Zr 0.25921 0.21242 0.75244
 O1064 O 0.29296 0.26246 0.68812
 O1065 O 0.29642 0.28764 0.80790
 O1066 O 0.30513 0.21177 0.78405
 O1067 O 0.26686 0.16249 0.72646
 O1068 O 0.30738 0.21779 0.72477
 C1069 C 0.31480 0.23834 0.70070
 O1070 O 0.23591 0.33050 0.67307
 O1071 O 0.12348 0.23536 0.69388
 O1072 O 0.22869 0.26814 0.65731
 O1073 O 0.18127 0.22708 0.66435
 O1074 O 0.10937 0.30638 0.72420
 O1075 O 0.16062 0.34658 0.70608
 C1076 C 0.20348 0.24572 0.64686
 H1077 H 0.12459 0.24800 0.75196
 H1078 H 0.22489 0.34439 0.73742
 H1079 H 0.24346 0.21327 0.69185
 H1080 H 0.24873 0.23413 0.81142
 H1081 H 0.14054 0.37428 0.76293
 H1082 H 0.25806 0.36121 0.81268
 H1083 H 0.30281 0.31045 0.81990
 H1084 H 0.32008 0.18953 0.77852
 H1085 H 0.09506 0.32789 0.73240
 H1086 H 0.11578 0.21314 0.68162
 H1087 H 0.20000 0.15638 0.70555
 H1088 H 0.29191 0.15275 0.73178
 H1089 H 0.14018 0.36458 0.70953
 H1090 H 0.25658 0.32955 0.65741
 H1091 H 0.16563 0.19255 0.84009
 H1092 H 0.25135 0.17123 0.80260
 Zr1093 Zr 0.32039 0.76565 0.29175
 O1094 O 0.31168 0.80901 0.32498
 O1095 O 0.36931 0.74331 0.30966
 O1096 O 0.31081 0.74420 0.33856
 O1097 O 0.35910 0.81872 0.23058
 O1098 O 0.26582 0.70025 0.33155
 O1099 O 0.35845 0.81088 0.28466
 O1100 O 0.37536 0.68812 0.28325
 O1101 O 0.31116 0.70849 0.28661
 O1102 O 0.34850 0.74862 0.25053
 O1103 O 0.26236 0.75839 0.29021
 O1104 O 0.29775 0.79804 0.25461
 Zr1105 Zr 0.25791 0.71526 0.20370
 Zr1106 Zr 0.25387 0.70134 0.28240
 Zr1107 Zr 0.32399 0.77796 0.21317
 Zr1108 Zr 0.33772 0.69221 0.24482
 O1109 O 0.31606 0.82980 0.19057
 O1110 O 0.33527 0.63776 0.26392
 O1111 O 0.31616 0.72120 0.20533
 O1112 O 0.28054 0.68289 0.24081
 O1113 O 0.22968 0.73144 0.24526
 O1114 O 0.26655 0.77227 0.20901
 C1115 C 0.38377 0.71121 0.30546
 C1116 C 0.36918 0.82755 0.25876
 C1117 C 0.28909 0.71824 0.34888
 O1118 O 0.26339 0.64607 0.29750
 O1119 O 0.21268 0.66587 0.26336
 O1120 O 0.21652 0.67404 0.20938
 C1121 C 0.20272 0.65863 0.23449
 O1122 O 0.24397 0.83717 0.27874
 Zr1123 Zr 0.24054 0.78785 0.25135
 O1124 O 0.20771 0.73710 0.18691
 O1125 O 0.20382 0.71268 0.30699
 O1126 O 0.19457 0.78844 0.28287
 O1127 O 0.23242 0.83741 0.22498
 O1128 O 0.19242 0.78138 0.22367
 C1129 C 0.18537 0.76070 0.19955
 O1130 O 0.26557 0.66961 0.17252
 O1131 O 0.37692 0.76603 0.19371
 O1132 O 0.27233 0.73207 0.15655
 O1133 O 0.31928 0.77364 0.16379
 O1134 O 0.39151 0.69522 0.22437
 O1135 O 0.34072 0.65451 0.20588
 C1136 C 0.29739 0.75471 0.14619
 H1137 H 0.37552 0.75350 0.25182
 H1138 H 0.27614 0.65616 0.23692
 H1139 H 0.25671 0.78688 0.19086
 H1140 H 0.25089 0.76657 0.31050
 H1141 H 0.36064 0.62707 0.26280
 H1142 H 0.24263 0.63933 0.31190
 H1143 H 0.19752 0.68986 0.31898
 H1144 H 0.17930 0.81033 0.27702
 H1145 H 0.40594 0.67386 0.23271
 H1146 H 0.38450 0.78830 0.18148
 H1147 H 0.29954 0.84427 0.20479
 H1148 H 0.20714 0.84677 0.22999
 H1149 H 0.36138 0.63678 0.20941
 H1150 H 0.24500 0.67027 0.15674
 H1151 H 0.33336 0.80889 0.33960
 H1152 H 0.24822 0.82964 0.30114
 Zr1153 Zr 0.17883 0.76319 0.70874
 O1154 O 0.18704 0.80645 0.67538
 O1155 O 0.12993 0.74072 0.69118
 O1156 O 0.18821 0.74178 0.66192
 O1157 O 0.14013 0.81648 0.76989
 O1158 O 0.23352 0.69785 0.66869
 O1159 O 0.14063 0.80847 0.71582
 O1160 O 0.12455 0.68551 0.71758
 O1161 O 0.18848 0.70605 0.71391
 O1162 O 0.15106 0.74625 0.75009
 O1163 O 0.23690 0.75599 0.70997
 O1164 O 0.20144 0.79575 0.74568
 Zr1165 Zr 0.24224 0.71314 0.79651
 Zr1166 Zr 0.24585 0.69897 0.71781
 Zr1167 Zr 0.17559 0.77576 0.78726
 Zr1168 Zr 0.16231 0.68987 0.75586
 O1169 O 0.18325 0.82763 0.80981
 O1170 O 0.16498 0.63530 0.73695
 O1171 O 0.18392 0.71903 0.79517
 O1172 O 0.21959 0.68063 0.75957
 O1173 O 0.27009 0.72924 0.75478
 O1174 O 0.23309 0.77012 0.79112
 C1175 C 0.11580 0.70857 0.69543
 C1176 C 0.12994 0.82525 0.74170
 C1177 C 0.21002 0.71586 0.65148
 O1178 O 0.23653 0.64368 0.70278
 O1179 O 0.28732 0.66348 0.73668
 O1180 O 0.28385 0.67187 0.79067
 C1181 C 0.29753 0.65631 0.76551
 O1182 O 0.25477 0.83470 0.72097
 Zr1183 Zr 0.25873 0.78563 0.74865
 O1184 O 0.29232 0.73520 0.81304
 O1185 O 0.29569 0.71024 0.69299
 O1186 O 0.30466 0.78596 0.71709
 O1187 O 0.26648 0.83546 0.77469
 O1188 O 0.30685 0.77974 0.77639
 C1189 C 0.31421 0.75912 0.80047
 O1190 O 0.23516 0.66761 0.82785
 O1191 O 0.12286 0.76381 0.80696
 O1192 O 0.22799 0.73012 0.84370
 O1193 O 0.18067 0.77158 0.83661
 O1194 O 0.10861 0.69289 0.77650
 O1195 O 0.15987 0.65237 0.79494
 C1196 C 0.20284 0.75278 0.85413
 H1197 H 0.12401 0.75111 0.74890
 H1198 H 0.22418 0.65392 0.76349
 H1199 H 0.24292 0.78484 0.80919
 H1200 H 0.24820 0.76412 0.68961
 H1201 H 0.13970 0.62460 0.73826
 H1202 H 0.25720 0.63694 0.68825
 H1203 H 0.30199 0.68741 0.68094
 H1204 H 0.31971 0.80800 0.72271
 H1205 H 0.09430 0.67147 0.76828
 H1206 H 0.11519 0.78612 0.81917
 H1207 H 0.19961 0.84211 0.79552
 H1208 H 0.29160 0.84494 0.76949
 H1209 H 0.13925 0.63465 0.79162
 H1210 H 0.25584 0.66839 0.84351
 H1211 H 0.16526 0.80630 0.66087
 H1212 H 0.25089 0.82700 0.69857
 Zr1213 Zr 0.32097 0.23662 0.20772
 O1214 O 0.31309 0.19358 0.17406
 O1215 O 0.36996 0.25923 0.19052
 O1216 O 0.31175 0.25842 0.16094
 O1217 O 0.35934 0.18305 0.26894
 O1218 O 0.26633 0.30223 0.16779
 O1219 O 0.35926 0.19133 0.21490
 O1220 O 0.37530 0.31419 0.21734
 O1221 O 0.31124 0.29372 0.21314
 O1222 O 0.34845 0.25333 0.24931
 O1223 O 0.26288 0.24375 0.20874
 O1224 O 0.29815 0.20384 0.24440
 Zr1225 Zr 0.25703 0.28605 0.29550
 Zr1226 Zr 0.25384 0.30072 0.21685
 Zr1227 Zr 0.32372 0.22359 0.28622
 Zr1228 Zr 0.33716 0.30966 0.25531
 O1229 O 0.31581 0.17159 0.30844
 O1230 O 0.33449 0.36427 0.23651
 O1231 O 0.31534 0.28026 0.29437
 O1232 O 0.27986 0.31881 0.25883
 O1233 O 0.22944 0.27022 0.25355
 O1234 O 0.26619 0.22912 0.28989
 C1235 C 0.38416 0.29129 0.19510
 C1236 C 0.36980 0.17446 0.24081
 C1237 C 0.28993 0.28440 0.15055
 O1238 O 0.26315 0.35612 0.20215
 O1239 O 0.21225 0.33605 0.23578
 O1240 O 0.21549 0.32731 0.28974
 C1241 C 0.20193 0.34302 0.26462
 O1242 O 0.24501 0.16485 0.21946
 Zr1243 Zr 0.24082 0.21388 0.24718
 O1244 O 0.20676 0.26392 0.31160
 O1245 O 0.20412 0.28953 0.19177
 O1246 O 0.19523 0.21349 0.21522
 O1247 O 0.23281 0.16405 0.27312
 O1248 O 0.19232 0.21989 0.27443
 C1249 C 0.18479 0.24032 0.29861
 O1250 O 0.26384 0.33140 0.32712
 O1251 O 0.37637 0.23538 0.30623
 O1252 O 0.27119 0.26894 0.34268
 O1253 O 0.31858 0.22758 0.33555
 O1254 O 0.39068 0.30658 0.27633
 O1255 O 0.33934 0.34704 0.29452
 C1256 C 0.29641 0.24635 0.35309
 H1257 H 0.37552 0.24851 0.24826
 H1258 H 0.27523 0.34550 0.26286
 H1259 H 0.25627 0.21433 0.30787
 H1260 H 0.25170 0.23574 0.18829
 H1261 H 0.35975 0.37502 0.23798
 H1262 H 0.24249 0.36295 0.18762
 H1263 H 0.19779 0.31245 0.17987
 H1264 H 0.18010 0.19148 0.22074
 H1265 H 0.40505 0.32805 0.26830
 H1266 H 0.38396 0.21302 0.31839
 H1267 H 0.29971 0.15715 0.29389
 H1268 H 0.20770 0.15463 0.26776
 H1269 H 0.35989 0.36485 0.29130
 H1270 H 0.24310 0.33048 0.34270
 H1271 H 0.33500 0.19388 0.15971
 H1272 H 0.24947 0.17261 0.19715
 Zr1273 Zr 0.68113 0.73528 0.29201
 O1274 O 0.68995 0.69208 0.32537
 O1275 O 0.63230 0.75774 0.30991
 O1276 O 0.69081 0.75694 0.33870
 O1277 O 0.64199 0.68207 0.23111
 O1278 O 0.73595 0.80071 0.33151
 O1279 O 0.64297 0.69008 0.28518
 O1280 O 0.62653 0.81299 0.28360
 O1281 O 0.69055 0.79238 0.28671
 O1282 O 0.65287 0.75224 0.25084
 O1283 O 0.73917 0.74236 0.29036
 O1284 O 0.70346 0.70263 0.25493
 Zr1285 Zr 0.74346 0.78505 0.20371
 Zr1286 Zr 0.74784 0.79935 0.28235
 Zr1287 Zr 0.67713 0.72266 0.21352
 Zr1288 Zr 0.66385 0.80858 0.24496
 O1289 O 0.68479 0.67075 0.19095
 O1290 O 0.66658 0.86314 0.26384
 O1291 O 0.68517 0.77935 0.20551
 O1292 O 0.72106 0.81767 0.24078
 O1293 O 0.77178 0.76895 0.24527
 O1294 O 0.73457 0.72810 0.20922
 C1295 C 0.61806 0.78994 0.30580
 C1296 C 0.63207 0.67335 0.25935
 C1297 C 0.71261 0.78290 0.34891
 O1298 O 0.73858 0.85471 0.29735
 O1299 O 0.78900 0.83471 0.26313
 O1300 O 0.78492 0.82628 0.20918
 C1301 C 0.79882 0.84184 0.23421
 O1302 O 0.75702 0.66354 0.27926
 Zr1303 Zr 0.76067 0.71260 0.25156
 O1304 O 0.79353 0.76283 0.18698
 O1305 O 0.79796 0.78795 0.30686
 O1306 O 0.80688 0.71212 0.28287
 O1307 O 0.76841 0.66278 0.22544
 O1308 O 0.80860 0.71838 0.22365
 C1309 C 0.81568 0.73894 0.19951
 O1310 O 0.73599 0.83052 0.17232
 O1311 O 0.62414 0.73469 0.19419
 O1312 O 0.72866 0.76812 0.15664
 O1313 O 0.68154 0.72682 0.16414
 O1314 O 0.60992 0.80566 0.22474
 O1315 O 0.66074 0.84608 0.20590
 C1316 C 0.70340 0.74559 0.14643
 H1317 H 0.62585 0.74744 0.25221
 H1318 H 0.72551 0.84436 0.23679
 H1319 H 0.74426 0.71336 0.19109
 H1320 H 0.75069 0.73425 0.31066
 H1321 H 0.64123 0.87388 0.26280
 H1322 H 0.75940 0.86141 0.31173
 H1323 H 0.80433 0.81079 0.31882
 H1324 H 0.82189 0.68998 0.27722
 H1325 H 0.59560 0.82707 0.23313
 H1326 H 0.61640 0.71238 0.18206
 H1327 H 0.70129 0.65623 0.20517
 H1328 H 0.79357 0.65320 0.23057
 H1329 H 0.64013 0.86387 0.20943
 H1330 H 0.75651 0.82962 0.15652
 H1331 H 0.66831 0.69227 0.34002
 H1332 H 0.75350 0.67127 0.30170
 Zr1333 Zr 0.82054 0.26421 0.79300
 O1334 O 0.81240 0.30748 0.82644
 O1335 O 0.86931 0.24131 0.81067
 O1336 O 0.81087 0.24274 0.83976
 O1337 O 0.85969 0.31710 0.73191
 O1338 O 0.76539 0.19927 0.83276
 O1339 O 0.85891 0.30921 0.78598
 O1340 O 0.87459 0.18607 0.78424
 O1341 O 0.81067 0.20717 0.78772
 O1342 O 0.84838 0.24705 0.75170
 O1343 O 0.76244 0.25753 0.79162
 O1344 O 0.79818 0.29701 0.75604
 Zr1345 Zr 0.75727 0.21492 0.70500
 Zr1346 Zr 0.75328 0.20061 0.78362
 Zr1347 Zr 0.82407 0.27680 0.71449
 Zr1348 Zr 0.83696 0.19079 0.74584
 O1349 O 0.81683 0.32883 0.69204
 O1350 O 0.83396 0.13625 0.76470
 O1351 O 0.81559 0.22018 0.70648
 O1352 O 0.77966 0.18210 0.74193
 O1353 O 0.72929 0.23120 0.74667
 O1354 O 0.76657 0.27179 0.71052
 C1355 C 0.88335 0.20905 0.80643
 C1356 C 0.86979 0.32584 0.76010
 C1357 C 0.78890 0.21700 0.85007
 O1358 O 0.76230 0.14521 0.79860
 O1359 O 0.71177 0.16550 0.76446
 O1360 O 0.71553 0.17406 0.71052
 C1361 C 0.70170 0.15852 0.73555
 O1362 O 0.74498 0.33643 0.78075
 Zr1363 Zr 0.74086 0.28747 0.75295
 O1364 O 0.70730 0.23745 0.68844
 O1365 O 0.70336 0.21230 0.80829
 O1366 O 0.69483 0.28817 0.78441
 O1367 O 0.73337 0.33742 0.72701
 O1368 O 0.69279 0.28213 0.72509
 C1369 C 0.68544 0.26159 0.70097
 O1370 O 0.76443 0.16939 0.67360
 O1371 O 0.87676 0.26422 0.69484
 O1372 O 0.77147 0.23191 0.65789
 O1373 O 0.81898 0.27285 0.66512
 O1374 O 0.89076 0.19330 0.72536
 O1375 O 0.83946 0.15328 0.70673
 C1376 C 0.79669 0.25436 0.64754
 H1377 H 0.87545 0.25166 0.75295
 H1378 H 0.77498 0.15545 0.73793
 H1379 H 0.75684 0.28665 0.69247
 H1380 H 0.75110 0.26572 0.81196
 H1381 H 0.85921 0.12530 0.76350
 H1382 H 0.74150 0.13863 0.81301
 H1383 H 0.69689 0.18948 0.82023
 H1384 H 0.67990 0.31039 0.77882
 H1385 H 0.90495 0.17173 0.73361
 H1386 H 0.88458 0.28643 0.68265
 H1387 H 0.80031 0.34338 0.70622
 H1388 H 0.70828 0.34716 0.73221
 H1389 H 0.85995 0.13532 0.71015
 H1390 H 0.74383 0.17032 0.65786
 H1391 H 0.83417 0.30709 0.84097
 H1392 H 0.74866 0.32863 0.80316
 C1393 C 0.47895 1.05312 0.33515
 C1394 C 0.48909 1.05027 0.36251
 C1395 C -0.02036 0.55324 0.83522
 C1396 C -0.01051 0.55041 0.86264
 C1397 C 0.02069 -0.05213 0.83668
 C1398 C 0.01117 -0.04890 0.86414
 C1399 C 0.52037 0.44645 0.33615
 C1400 C 0.51035 0.44973 0.36348
 C1401 C 0.52193 0.55276 0.16382
 C1402 C 0.51199 0.54973 0.13646
 C1403 C 0.02188 1.05311 0.66419
 C1404 C 0.01206 1.05019 0.63674
 C1405 C -0.02117 0.44647 0.66379
 C1406 C -0.01166 0.44966 0.63632
 C1407 C 0.47832 -0.05335 0.16384
 C1408 C 0.48809 -0.05018 0.13644
 C1409 C 0.35578 0.40099 0.02315
 C1410 C 0.38009 0.42389 0.01930
 C1411 C -0.14452 0.90124 0.52332
 C1412 C -0.12021 0.92417 0.51975
 C1413 C -0.14494 0.09933 0.97865
 C1414 C -0.12052 0.07639 0.98231
 C1415 C 0.35438 0.59943 0.47705
 C1416 C 0.37869 0.57640 0.48079
 C1417 C 0.14344 0.59923 0.52252
 C1418 C 0.11907 0.57636 0.51887
 C1419 C 0.64363 0.09922 0.02334
 C1420 C 0.61929 0.07639 0.01944
 C1421 C 0.64648 0.90211 0.47645
 C1422 C 0.62205 0.92504 0.48006
 C1423 C 0.14482 0.40121 0.97753
 C1424 C 0.12043 0.42423 0.98101
 C1425 C 0.05348 0.32233 0.39679
 C1426 C 0.04932 0.34205 0.41933
 C1427 C 0.55570 -0.17929 -0.10155
 C1428 C 0.55152 -0.15923 -0.07924
 C1429 C -0.05529 -0.18128 1.10027
 C1430 C -0.05108 -0.16096 1.07819
 C1431 C 0.44331 0.32018 0.60100
 C1432 C 0.44734 0.34020 0.57868
 C1433 C 0.55688 1.18123 0.59981
 C1434 C 0.55283 1.16127 0.57743
 C1435 C 0.05534 0.67865 1.10207
 C1436 C 0.05139 0.65924 1.07930
 C1437 C 0.44544 0.67969 -0.10136
 C1438 C 0.44940 0.65963 -0.07902
 C1439 C -0.05381 1.17910 0.39817
 C1440 C -0.04964 1.15909 0.42051
 C1441 C 0.80191 0.72923 0.91398
 C1442 C 0.79914 0.73919 0.88660
 C1443 C 0.30303 0.22943 0.41406
 C1444 C 0.29980 0.23919 0.38665
 C1445 C 0.69504 0.26874 0.41492
 C1446 C 0.69855 0.25851 0.38765
 C1447 C 0.19672 0.76997 0.91511
 C1448 C 0.19965 0.76006 0.88770
 C1449 C 0.30373 0.77139 0.08514
 C1450 C 0.30076 0.76178 0.11261
 C1451 C 0.80248 0.27173 0.58665
 C1452 C 0.79973 0.26179 0.61402
 C1453 C 0.19711 0.22897 0.58587
 C1454 C 0.20021 0.23862 0.61330
 C1455 C 0.69606 0.72874 0.08549
 C1456 C 0.69960 0.73847 0.11288
 C1457 C 0.15155 0.60617 0.22651
 C1458 C 0.17457 0.63041 0.23005
 C1459 C 0.65055 0.10614 0.72693
 C1460 C 0.67349 0.13038 0.73088
 C1461 C 0.84836 0.10147 0.27374
 C1462 C 0.82526 0.12582 0.27030
 C1463 C 0.34885 0.60357 0.77325
 C1464 C 0.32578 0.62795 0.76983
 C1465 C 0.34891 0.39439 0.72689
 C1466 C 0.32614 0.36996 0.73074
 C1467 C 0.84969 0.89461 0.22597
 C1468 C 0.82685 0.87020 0.22961
 C1469 C 0.65072 0.89533 0.77188
 C1470 C 0.67378 0.87098 0.76835
 C1471 C 0.15076 0.39573 0.27271
 C1472 C 0.17373 0.37134 0.26908
 C1473 C 0.07012 0.30539 0.85095
 C1474 C 0.09015 0.30115 0.82863
 C1475 C 0.57260 0.80491 0.35195
 C1476 C 0.59238 0.80066 0.32945
 C1477 C 0.57010 0.19323 0.14909
 C1478 C 0.59001 0.19713 0.17154
 C1479 C 0.06996 0.69384 0.64961
 C1480 C 0.08990 0.69791 0.67200
 C1481 C 0.93059 0.80579 0.64932
 C1482 C 0.91061 0.80189 0.67172
 C1483 C 0.43037 0.30617 0.14962
 C1484 C 0.41029 0.30205 0.17191
 C1485 C 0.42960 0.69623 0.35138
 C1486 C 0.40967 0.70058 0.32899
 C1487 C 0.92917 0.19413 0.85231
 C1488 C 0.90922 0.19821 0.82989
 C1489 C 0.56030 1.04457 0.65834
 C1490 C 0.54675 1.04335 0.63174
 C1491 C 0.05821 0.54486 1.15832
 C1492 C 0.04447 0.54335 1.13186
 C1493 C -0.05987 -0.04500 1.15960
 C1494 C -0.04585 -0.04347 1.13321
 C1495 C 0.43952 0.45647 0.65904
 C1496 C 0.45334 0.45778 0.63255
 C1497 C 0.44106 0.54329 -0.15904
 C1498 C 0.45493 0.54186 -0.13258
 C1499 C -0.05875 1.04180 0.34113
 C1500 C -0.04480 1.04058 0.36756
 C1501 C 0.05730 0.45758 0.34079
 C1502 C 0.04335 0.45900 0.36718
 C1503 C 0.55818 -0.04259 -0.15929
 C1504 C 0.54455 -0.04131 -0.13274
 C1505 C 0.63459 0.66323 -0.00272
 C1506 C 0.60795 0.64422 -0.00960
 C1507 C 0.13483 1.16262 0.49658
 C1508 C 0.10825 1.14349 0.48991
 C1509 C 0.13408 -0.16445 1.00278
 C1510 C 0.10746 -0.14529 1.00967
 C1511 C 0.63325 0.33571 0.50245
 C1512 C 0.60649 0.35470 0.50935
 C1513 C -0.13607 0.33789 0.49691
 C1514 C -0.10935 0.35674 0.49004
 C1515 C 0.36597 -0.16401 -0.00299
 C1516 C 0.39254 -0.14494 -0.00985
 C1517 C 0.36683 1.16490 0.50169
 C1518 C 0.39366 1.14601 0.50851
 C1519 C -0.13485 0.66424 1.00144
 C1520 C -0.10791 0.64550 1.00821
 C1521 C -0.00771 0.63186 0.57219
 C1522 C -0.01277 0.60142 0.56191
 C1523 C 0.49226 0.13168 0.07151
 C1524 C 0.48712 0.10123 0.06130
 C1525 C 0.00658 0.13227 0.93031
 C1526 C 0.01164 0.10179 0.94055
 C1527 C 0.50571 0.63173 0.42882
 C1528 C 0.51052 0.60113 0.43891
 C1529 C 0.49543 0.86877 0.42885
 C1530 C 0.49025 0.89941 0.43870
 C1531 C -0.00671 0.36902 0.92816
 C1532 C -0.01161 0.39962 0.93818
 C1533 C 0.50736 0.36822 0.07175
 C1534 C 0.51230 0.39865 0.06145
 C1535 C 0.00629 0.86843 0.57299
 C1536 C 0.01136 0.89880 0.56262
 C1537 C 0.29401 0.31027 0.09107
 C1538 C 0.29264 0.29652 0.11757
 C1539 C 0.79535 0.80960 0.59117
 C1540 C 0.79376 0.79583 0.61761
 C1541 C 0.20581 0.69069 0.59185
 C1542 C 0.20733 0.70408 0.61845
 C1543 C 0.70617 0.18874 0.09190
 C1544 C 0.70772 0.20220 0.11849
 C1545 C 0.79273 0.19138 0.90958
 C1546 C 0.79141 0.20502 0.88306
 C1547 C 0.29277 0.69245 0.40836
 C1548 C 0.29158 0.70626 0.38189
 C1549 C 0.70864 0.80901 0.40824
 C1550 C 0.71003 0.79510 0.38183
 C1551 C 0.20688 0.30840 0.90901
 C1552 C 0.20819 0.29472 0.88250
 C1553 C 0.91353 0.38397 0.75355
 C1554 C 0.89462 0.35727 0.76036
 C1555 C 0.41286 0.88574 0.25214
 C1556 C 0.39393 0.85906 0.25897
 C1557 C 0.08632 0.88383 0.74784
 C1558 C 0.10521 0.85691 0.74135
 C1559 C 0.58718 0.38279 0.24764
 C1560 C 0.60597 0.35582 0.24106
 C1561 C 0.58844 0.61510 0.25304
 C1562 C 0.60735 0.64184 0.25973
 C1563 C 0.08643 0.11583 0.75222
 C1564 C 0.10536 0.14249 0.75913
 C1565 C 0.41359 0.11610 0.24754
 C1566 C 0.39470 0.14291 0.24067
 C1567 C 0.91435 0.61611 0.74771
 C1568 C 0.89542 0.64293 0.74098
 C1569 C 0.88272 0.74315 0.17703
 C1570 C 0.85225 0.73818 0.18732
 C1571 C 0.38187 0.24226 0.67840
 C1572 C 0.35139 0.23730 0.68865
 C1573 C 0.38137 0.75503 0.82274
 C1574 C 0.35081 0.75992 0.81257
 C1575 C 0.88161 0.25199 0.32290
 C1576 C 0.85099 0.25694 0.31281
 C1577 C 0.11724 0.24494 0.32006
 C1578 C 0.14795 0.23980 0.31025
 C1579 C 0.61830 0.74350 0.82084
 C1580 C 0.64883 0.73866 0.81059
 C1581 C 0.61849 0.25779 0.67831
 C1582 C 0.64891 0.26267 0.68874
 C1583 C 0.11810 0.75523 0.17769
 C1584 C 0.14864 0.76081 0.18764
   
