data_POSCAR
  _audit_creation_date              2014-09-24
  _audit_creation_method            'ToBaCCo'
  _symmetry_space_group_name_H-M    'P1'
  _symmetry_Int_Tables_number       1
  _symmetry_cell_setting            triclinic
  loop_
  _symmetry_equiv_pos_as_xyz
 x,y,z
_cell_length_a 35.9239
_cell_length_b 35.7526
_cell_length_c 25.5341
_cell_angle_alpha 91.253500
_cell_angle_beta 91.009900
_cell_angle_gamma 89.690500
loop_
  _atom_site_label
  _atom_site_type_symbol
  _atom_site_fract_x
  _atom_site_fract_y
  _atom_site_fract_z
Zr1 Zr -0.06130 0.00489 -0.00139
 O2 O -0.10692 -0.01762 -0.04501
 O3 O -0.08835 0.03267 0.06040
 O4 O -0.08976 -0.03574 0.04166
 O5 O -0.05048 0.08382 -0.07502
 O6 O -0.04345 -0.07572 0.06658
 O7 O -0.09368 0.04706 -0.03686
 O8 O -0.04041 0.05502 0.11161
 O9 O -0.02589 -0.00744 0.06197
 O10 O -0.02748 0.05182 0.01121
 O11 O -0.03192 -0.04350 -0.02487
 O12 O -0.03443 0.01369 -0.07317
 Zr13 Zr 0.06802 0.00033 -0.01899
 Zr14 Zr 0.00554 -0.05375 0.03691
 Zr15 Zr 0.00140 0.05897 -0.05784
 Zr16 Zr 0.00873 0.03881 0.07240
 O17 O -0.00256 0.06702 -0.13958
 O18 O 0.01215 0.01587 0.14820
 O19 O 0.03892 0.04917 0.00433
 O20 O 0.04074 -0.00818 0.05205
 O21 O 0.03465 -0.04686 -0.03207
 O22 O 0.03242 0.01242 -0.08211
 C23 C -0.07537 0.05072 0.10077
 C24 C -0.08419 0.07559 -0.06345
 C25 C -0.07772 -0.06528 0.06478
 O26 O 0.01465 -0.06314 0.11767
 O27 O 0.05638 -0.08229 0.04671
 O28 O 0.10003 -0.04320 0.01441
 C29 C 0.09016 -0.07343 0.03693
 O30 O -0.05469 -0.04304 -0.13034
 Zr31 Zr -0.00214 -0.03362 -0.09295
 O32 O 0.09486 -0.02910 -0.07945
 O33 O -0.00091 -0.10987 0.01032
 O34 O -0.00903 -0.09230 -0.10179
 O35 O -0.00014 -0.01469 -0.17100
 O36 O 0.04686 -0.05682 -0.12495
 C37 C 0.08178 -0.05202 -0.11455
 O38 O 0.11378 0.02157 0.02563
 O39 O 0.00277 0.11572 -0.03242
 O40 O 0.09691 0.04242 -0.05841
 O41 O 0.05135 0.08466 -0.07896
 O42 O 0.01015 0.09769 0.08351
 O43 O 0.06102 0.05584 0.10490
 C44 C 0.08555 0.07376 -0.07720
 H45 H -0.04156 0.07493 0.01992
 H46 H 0.05872 -0.01341 0.08084
 H47 H 0.04609 0.01723 -0.11459
 H48 H -0.04916 -0.06470 -0.03121
 H49 H 0.00744 0.03651 0.17381
 H50 H 0.01281 -0.09050 0.12248
 H51 H 0.00206 -0.12585 0.04137
 H52 H -0.00541 -0.09889 -0.13925
 H53 H 0.00839 0.10294 0.12164
 H54 H -0.00024 0.13109 -0.06407
 H55 H -0.00142 0.09437 -0.14475
 H56 H 0.00394 -0.03699 -0.19396
 H57 H 0.05765 0.06551 0.14115
 H58 H 0.13679 0.01347 0.00757
 H59 H -0.12992 -0.00981 -0.02669
 H60 H -0.05139 -0.05888 -0.16224
 Zr61 Zr 0.56839 0.49958 0.48090
 O62 O 0.61390 0.52112 0.52576
 O63 O 0.59516 0.46991 0.42073
 O64 O 0.60030 0.45610 0.51444
 O65 O 0.55254 0.58315 0.41941
 O66 O 0.55656 0.41756 0.54763
 O67 O 0.59773 0.54064 0.44050
 O68 O 0.54713 0.44270 0.37468
 O69 O 0.53495 0.45243 0.46819
 O70 O 0.53287 0.51142 0.41758
 O71 O 0.54107 0.49169 0.55200
 O72 O 0.53953 0.54874 0.50354
 Zr73 Zr 0.43909 0.50474 0.49813
 Zr74 Zr 0.50582 0.44617 0.53725
 Zr75 Zr 0.50216 0.55829 0.44116
 Zr76 Zr 0.49818 0.46549 0.40717
 O77 O 0.50377 0.61507 0.46631
 O78 O 0.49176 0.40669 0.39934
 O79 O 0.46614 0.51305 0.42636
 O80 O 0.46838 0.45614 0.47532
 O81 O 0.47442 0.49269 0.56171
 O82 O 0.47304 0.55166 0.51019
 C83 C 0.58203 0.44738 0.38520
 C84 C 0.58666 0.57181 0.42108
 C85 C 0.59035 0.42612 0.53747
 O86 O 0.49946 0.38985 0.51144
 O87 O 0.45689 0.42427 0.56669
 O88 O 0.41059 0.46414 0.54135
 C89 C 0.42264 0.43460 0.56454
 O90 O 0.56141 0.55607 0.60404
 Zr91 Zr 0.50913 0.53893 0.57164
 O92 O 0.41200 0.53296 0.55956
 O93 O 0.51463 0.43740 0.61823
 O94 O 0.51249 0.51652 0.64778
 O95 O 0.51056 0.59787 0.58199
 O96 O 0.45996 0.55541 0.61063
 C97 C 0.42499 0.55114 0.59982
 O98 O 0.39331 0.48220 0.45487
 O99 O 0.49831 0.56620 0.35938
 O100 O 0.40698 0.54663 0.46144
 O101 O 0.45039 0.58308 0.42315
 O102 O 0.49957 0.48407 0.32891
 O103 O 0.44559 0.45549 0.37019
 C104 C 0.41660 0.57488 0.43435
 H105 H 0.54648 0.51594 0.38496
 H106 H 0.45113 0.43494 0.46914
 H107 H 0.45896 0.57484 0.51854
 H108 H 0.55902 0.48658 0.58086
 H109 H 0.49540 0.39980 0.36198
 H110 H 0.50260 0.37407 0.54267
 H111 H 0.51295 0.41008 0.62340
 H112 H 0.50776 0.53733 0.67311
 H113 H 0.50359 0.46169 0.30607
 H114 H 0.49982 0.59351 0.35406
 H115 H 0.50122 0.63034 0.43449
 H116 H 0.50869 0.60337 0.62004
 H117 H 0.44887 0.43913 0.33879
 H118 H 0.37037 0.49017 0.47323
 H119 H 0.63703 0.51281 0.50818
 H120 H 0.55799 0.56613 0.64009
 Zr121 Zr 0.56741 -0.00454 0.49384
 O122 O 0.60771 0.02813 0.45636
 O123 O 0.60124 -0.04352 0.53277
 O124 O 0.60083 0.02670 0.54726
 O125 O 0.54756 -0.06144 0.38614
 O126 O 0.55945 0.05197 0.60487
 O127 O 0.59492 -0.03413 0.43390
 O128 O 0.55933 -0.08108 0.57227
 O129 O 0.54040 -0.01051 0.56518
 O130 O 0.53483 -0.05275 0.48580
 O131 O 0.53630 0.04485 0.50392
 O132 O 0.53260 0.00362 0.42745
 Zr133 Zr 0.43772 -0.00159 0.50242
 Zr134 Zr 0.50698 0.03738 0.57300
 Zr135 Zr 0.49828 -0.04373 0.42311
 Zr136 Zr 0.50647 -0.05744 0.55537
 O137 O 0.49386 -0.03140 0.34259
 O138 O 0.51313 -0.05473 0.63801
 O139 O 0.46859 -0.05150 0.49216
 O140 O 0.47300 -0.01001 0.56793
 O141 O 0.47014 0.04673 0.51037
 O142 O 0.46544 0.00414 0.43168
 C143 C 0.59267 -0.07192 0.56004
 C144 C 0.58230 -0.05557 0.39673
 C145 C 0.59260 0.04684 0.58788
 O146 O 0.50630 0.02581 0.65389
 O147 O 0.45808 0.06065 0.60411
 O148 O 0.41040 0.03219 0.55878
 C149 C 0.42329 0.05564 0.59348
 O150 O 0.54706 0.07251 0.40471
 Zr151 Zr 0.49908 0.05100 0.44089
 O152 O 0.40411 0.03802 0.46421
 O153 O 0.51201 0.09630 0.57827
 O154 O 0.50376 0.10828 0.46332
 O155 O 0.48943 0.05178 0.35873
 O156 O 0.44701 0.07693 0.42995
 C157 C 0.41341 0.06785 0.44049
 O158 O 0.39769 -0.03262 0.54286
 O159 O 0.49761 -0.10283 0.41729
 O160 O 0.40421 -0.03477 0.45095
 O161 O 0.44588 -0.06298 0.39629
 O162 O 0.50488 -0.11503 0.53375
 O163 O 0.45877 -0.08349 0.58615
 C164 C 0.41253 -0.05691 0.41225
 H165 H 0.54938 -0.07587 0.47902
 H166 H 0.45841 -0.01271 0.60016
 H167 H 0.44816 0.00688 0.40135
 H168 H 0.55264 0.06705 0.50638
 H169 H 0.52095 -0.07993 0.64944
 H170 H 0.50862 0.05017 0.67287
 H171 H 0.51349 0.10317 0.61604
 H172 H 0.49592 0.12324 0.43278
 H173 H 0.51297 -0.12944 0.56471
 H174 H 0.49689 -0.10948 0.37942
 H175 H 0.49214 -0.05573 0.32337
 H176 H 0.48250 0.07776 0.34977
 H177 H 0.46672 -0.10160 0.61299
 H178 H 0.37285 -0.02213 0.53363
 H179 H 0.63262 0.01769 0.46539
 H180 H 0.54001 0.09450 0.38373
 Zr181 Zr -0.06163 0.49791 -0.00526
 O182 O -0.10217 0.46746 0.03510
 O183 O -0.09507 0.53706 -0.04470
 O184 O -0.08920 0.53192 0.05045
 O185 O -0.05304 0.43669 -0.11114
 O186 O -0.04172 0.56018 0.09648
 O187 O -0.09484 0.46423 -0.05637
 O188 O -0.05176 0.57534 -0.07851
 O189 O -0.02921 0.54627 0.00324
 O190 O -0.03341 0.50352 -0.07566
 O191 O -0.02683 0.48933 0.06070
 O192 O -0.03097 0.44784 -0.01500
 Zr193 Zr 0.06827 0.49400 -0.01163
 Zr194 Zr 0.00735 0.53656 0.06623
 Zr195 Zr -0.00066 0.45550 -0.08349
 Zr196 Zr 0.00044 0.55013 -0.06557
 O197 O -0.00111 0.39640 -0.08870
 O198 O 0.00461 0.60729 -0.04259
 O199 O 0.03398 0.50261 -0.07834
 O200 O 0.03740 0.54358 -0.00242
 O201 O 0.04055 0.48837 0.05920
 O202 O 0.03544 0.44606 -0.02041
 C203 C -0.08568 0.56660 -0.06920
 C204 C -0.08655 0.44228 -0.09535
 C205 C -0.07646 0.55537 0.08520
 O206 O 0.01281 0.59544 0.07144
 O207 O 0.05957 0.55128 0.09878
 O208 O 0.10135 0.52561 0.04208
 C209 C 0.09286 0.54607 0.08234
 O210 O -0.04168 0.41594 0.07892
 Zr211 Zr 0.00642 0.44163 0.04871
 O212 O 0.10144 0.45486 0.02791
 O213 O 0.00609 0.52503 0.14711
 O214 O 0.01243 0.44419 0.13144
 O215 O 0.00452 0.38410 0.02678
 O216 O 0.05892 0.41749 0.06639
 C217 C 0.09243 0.42646 0.05485
 O218 O 0.10976 0.52586 -0.04790
 O219 O -0.00485 0.46737 -0.16422
 O220 O 0.09557 0.46415 -0.07170
 O221 O 0.04850 0.43847 -0.12116
 O222 O -0.00596 0.55012 -0.14819
 O223 O 0.04500 0.57823 -0.10096
 C224 C 0.08338 0.44388 -0.11063
 H225 H -0.05034 0.50627 -0.10638
 H226 H 0.05384 0.56570 0.00007
 H227 H 0.04996 0.42293 -0.02728
 H228 H -0.04167 0.48675 0.09272
 H229 H -0.00335 0.62236 -0.07301
 H230 H 0.01328 0.60246 0.10920
 H231 H 0.00813 0.54941 0.16613
 H232 H 0.01996 0.41892 0.14292
 H233 H -0.01320 0.57590 -0.15778
 H234 H -0.00678 0.44300 -0.18329
 H235 H -0.00223 0.38963 -0.12650
 H236 H 0.01230 0.36953 0.05774
 H237 H 0.06209 0.55875 -0.11483
 H238 H 0.13431 0.51476 -0.03850
 H239 H -0.12690 0.47794 0.02527
 H240 H -0.03402 0.39745 0.10538
 Zr241 Zr 0.06199 0.50113 0.49425
 O242 O 0.10739 0.46800 0.52053
 O243 O 0.08868 0.54025 0.44813
 O244 O 0.08646 0.47007 0.43227
 O245 O 0.06062 0.55512 0.60840
 O246 O 0.03717 0.44067 0.39205
 O247 O 0.09830 0.53162 0.54427
 O248 O 0.04117 0.57811 0.42085
 O249 O 0.02410 0.50730 0.43173
 O250 O 0.03132 0.54962 0.51161
 O251 O 0.03006 0.45205 0.49313
 O252 O 0.03875 0.49306 0.56868
 Zr253 Zr -0.06591 0.49927 0.52135
 Zr254 Zr -0.00974 0.45972 0.43331
 Zr255 Zr 0.00590 0.54087 0.58291
 Zr256 Zr -0.00760 0.55462 0.45110
 O257 O 0.01219 0.52842 0.66322
 O258 O -0.01413 0.55203 0.36840
 O259 O -0.03428 0.54889 0.52325
 O260 O -0.04212 0.50760 0.44783
 O261 O -0.03567 0.45050 0.50457
 O262 O -0.02750 0.49338 0.58321
 C263 C 0.07590 0.56919 0.42469
 C264 C 0.09271 0.55021 0.58715
 C265 C 0.07227 0.44705 0.39794
 O266 O -0.01899 0.47187 0.35342
 O267 O -0.06337 0.44117 0.41069
 O268 O -0.10123 0.46467 0.47451
 C269 C -0.09516 0.44482 0.43274
 O270 O 0.05661 0.42364 0.58708
 Zr271 Zr 0.00388 0.44605 0.56483
 O272 O -0.09242 0.46058 0.56826
 O273 O -0.00999 0.40059 0.42816
 O274 O 0.00459 0.38888 0.54079
 O275 O 0.00818 0.44509 0.64776
 O276 O -0.04514 0.42097 0.59067
 C277 C -0.07966 0.43073 0.58935
 O278 O -0.11163 0.53063 0.49216
 O279 O 0.00881 0.59988 0.58972
 O280 O -0.09097 0.53226 0.58071
 O281 O -0.04191 0.56242 0.62053
 O282 O -0.00637 0.61225 0.47259
 O283 O -0.05942 0.58107 0.43401
 C284 C -0.07707 0.55581 0.61455
 H285 H 0.04661 0.57252 0.51486
 H286 H -0.06154 0.51082 0.42029
 H287 H -0.03958 0.49095 0.61752
 H288 H 0.04570 0.42959 0.48673
 H289 H -0.00832 0.57713 0.35510
 H290 H -0.01994 0.44752 0.33412
 H291 H -0.01542 0.39367 0.39103
 H292 H 0.00151 0.37374 0.57246
 H293 H -0.00379 0.62661 0.44009
 H294 H 0.01398 0.60602 0.62716
 H295 H 0.01344 0.55273 0.68254
 H296 H 0.00325 0.41910 0.65835
 H297 H -0.05629 0.59862 0.40495
 H298 H -0.13444 0.52013 0.50737
 H299 H 0.13029 0.47826 0.50522
 H300 H 0.05304 0.40113 0.60831
 Zr301 Zr 0.43394 -0.00018 0.02139
 O302 O 0.38836 0.03127 -0.00804
 O303 O 0.40736 -0.03907 0.06802
 O304 O 0.39871 -0.03473 -0.02543
 O305 O 0.45769 0.06298 0.12053
 O306 O 0.43662 -0.05851 -0.08904
 O307 O 0.40871 0.03263 0.08081
 O308 O 0.45462 -0.07881 0.09003
 O309 O 0.46427 -0.04892 0.00472
 O310 O 0.47220 -0.00603 0.08338
 O311 O 0.45788 0.00804 -0.05212
 O312 O 0.46553 0.04947 0.02329
 Zr313 Zr 0.56184 0.00167 -0.00536
 Zr314 Zr 0.49029 -0.03985 -0.06650
 Zr315 Zr 0.50558 0.04146 0.08310
 Zr316 Zr 0.50366 -0.05333 0.06517
 O317 O 0.50847 0.10048 0.08986
 O318 O 0.50492 -0.11058 0.04156
 O319 O 0.53848 -0.00632 0.06902
 O320 O 0.52994 -0.04740 -0.00644
 O321 O 0.52409 0.00779 -0.06806
 O322 O 0.53115 0.05018 0.01188
 C323 C 0.42011 -0.06910 0.08868
 C324 C 0.42255 0.05623 0.11463
 C325 C 0.40483 -0.05478 -0.06696
 O326 O 0.49003 -0.09898 -0.07164
 O327 O 0.53743 -0.05934 -0.10711
 O328 O 0.58653 -0.02962 -0.06687
 C329 C 0.57253 -0.05297 -0.10090
 O330 O 0.44044 0.08150 -0.06577
 Zr331 Zr 0.49233 0.05513 -0.04879
 O332 O 0.58859 0.04079 -0.05149
 O333 O 0.48141 -0.02763 -0.14644
 O334 O 0.48579 0.05280 -0.13149
 O335 O 0.49355 0.11278 -0.02736
 O336 O 0.54114 0.07871 -0.07879
 C337 C 0.57587 0.06979 -0.07484
 O338 O 0.60728 -0.03133 0.02112
 O339 O 0.51164 0.02905 0.16344
 O340 O 0.59802 0.03206 0.04485
 O341 O 0.56026 0.05560 0.10886
 O342 O 0.50727 -0.05419 0.14815
 O343 O 0.55647 -0.07525 0.08796
 C344 C 0.59239 0.05060 0.08774
 H345 H 0.46001 -0.00849 0.11760
 H346 H 0.54560 -0.06988 -0.01258
 H347 H 0.54644 0.07307 0.01520
 H348 H 0.43849 0.01123 -0.07972
 H349 H 0.50202 -0.12562 0.07337
 H350 H 0.48476 -0.10591 -0.10881
 H351 H 0.48026 -0.05198 -0.16569
 H352 H 0.49157 0.07796 -0.14461
 H353 H 0.50238 -0.08019 0.15872
 H354 H 0.51285 0.05338 0.18272
 H355 H 0.51361 0.10664 0.12731
 H356 H 0.49603 0.12713 -0.05990
 H357 H 0.55298 -0.09753 0.10968
 H358 H 0.63023 -0.02104 0.00596
 H359 H 0.36549 0.02085 0.00712
 H360 H 0.44355 0.09925 -0.09458
 Zr361 Zr 0.43539 0.49322 0.02134
 O362 O 0.39757 0.51809 0.07462
 O363 O 0.39888 0.46529 -0.03067
 O364 O 0.40208 0.53480 -0.01476
 O365 O 0.45539 0.41470 0.09300
 O366 O 0.44462 0.57441 -0.04861
 O367 O 0.40824 0.45331 0.06645
 O368 O 0.43677 0.44403 -0.09576
 O369 O 0.46045 0.50425 -0.05005
 O370 O 0.46525 0.44485 0.00063
 O371 O 0.46892 0.54032 0.03640
 O372 O 0.47244 0.48300 0.08479
 Zr373 Zr 0.56467 0.49249 0.00551
 Zr374 Zr 0.49636 0.54919 -0.03390
 Zr375 Zr 0.50411 0.43635 0.06082
 Zr376 Zr 0.49152 0.45657 -0.06888
 O377 O 0.51351 0.42790 0.14175
 O378 O 0.48523 0.47928 -0.14456
 O379 O 0.53145 0.44483 -0.00989
 O380 O 0.52735 0.50220 -0.05736
 O381 O 0.53490 0.54082 0.02645
 O382 O 0.53923 0.48168 0.07658
 C383 C 0.40466 0.44829 -0.07463
 C384 C 0.42090 0.42480 0.09119
 C385 C 0.41114 0.56469 -0.03879
 O386 O 0.49234 0.55810 -0.11543
 O387 O 0.54567 0.57518 -0.05694
 O388 O 0.59253 0.53513 -0.03394
 C389 C 0.58025 0.56562 -0.05411
 O390 O 0.46205 0.53828 0.14574
 Zr391 Zr 0.50802 0.52896 0.09571
 O392 O 0.60098 0.52095 0.05772
 O393 O 0.49681 0.60549 -0.00642
 O394 O 0.50178 0.58741 0.10862
 O395 O 0.52364 0.51032 0.17135
 O396 O 0.56082 0.55252 0.11130
 C397 C 0.59340 0.54602 0.09281
 O398 O 0.60174 0.46964 -0.05041
 O399 O 0.49919 0.37970 0.03596
 O400 O 0.59804 0.44970 0.03765
 O401 O 0.55571 0.40846 0.06828
 O402 O 0.48811 0.39768 -0.07954
 O403 O 0.53708 0.43649 -0.11366
 C404 C 0.58920 0.41868 0.05884
 H405 H 0.44940 0.42241 -0.00381
 H406 H 0.54083 0.50674 -0.09009
 H407 H 0.55758 0.47638 0.10486
 H408 H 0.45352 0.56215 0.04702
 H409 H 0.47610 0.45899 -0.16843
 H410 H 0.49115 0.58554 -0.11990
 H411 H 0.49528 0.62146 -0.03765
 H412 H 0.51053 0.59306 0.14493
 H413 H 0.47853 0.39260 -0.11563
 H414 H 0.50102 0.36443 0.06784
 H415 H 0.51442 0.40048 0.14654
 H416 H 0.53153 0.53271 0.19216
 H417 H 0.52765 0.42538 -0.14716
 H418 H 0.62734 0.47637 -0.03854
 H419 H 0.37209 0.51106 0.06252
 H420 H 0.47042 0.55176 0.17810
 Zr421 Zr 0.06494 -0.00547 0.50963
 O422 O 0.10368 -0.02778 0.45558
 O423 O 0.09966 0.02407 0.56307
 O424 O 0.09269 0.03724 0.47007
 O425 O 0.05597 -0.08997 0.57126
 O426 O 0.04553 0.07628 0.44500
 O427 O 0.09830 -0.04796 0.54260
 O428 O 0.05818 0.05308 0.61730
 O429 O 0.03405 0.04236 0.52946
 O430 O 0.03839 -0.01678 0.57973
 O431 O 0.02847 0.00331 0.44551
 O432 O 0.03266 -0.05369 0.49325
 Zr433 Zr -0.06482 -0.00699 0.52086
 Zr434 Zr -0.00362 0.04983 0.46767
 Zr435 Zr 0.00419 -0.06264 0.56292
 Zr436 Zr 0.00598 0.02991 0.59765
 O437 O 0.00018 -0.11943 0.53832
 O438 O -0.00007 0.08842 0.60981
 O439 O -0.02870 -0.01655 0.58558
 O440 O -0.03216 0.04059 0.53697
 O441 O -0.03866 0.00433 0.45034
 O442 O -0.03380 -0.05490 0.50148
 C443 C 0.09119 0.04779 0.59965
 C444 C 0.08948 -0.07934 0.56280
 C445 C 0.08019 0.06723 0.44868
 O446 O -0.00394 0.10618 0.49489
 O447 O -0.05535 0.07460 0.45181
 O448 O -0.09802 0.03440 0.48398
 C449 C -0.08887 0.06460 0.46069
 O450 O 0.04002 -0.06210 0.38929
 Zr451 Zr -0.00646 -0.04290 0.43291
 O452 O -0.09988 -0.03597 0.46784
 O453 O -0.00708 0.05845 0.38604
 O454 O -0.01208 -0.02049 0.35697
 O455 O -0.00813 -0.10194 0.42306
 O456 O -0.06045 -0.05703 0.40452
 C457 C -0.09299 -0.05338 0.42450
 O458 O -0.10428 0.01723 0.57231
 O459 O 0.01280 -0.07087 0.64407
 O460 O -0.09198 -0.04702 0.56581
 O461 O -0.04466 -0.08484 0.59398
 O462 O 0.01921 0.01079 0.67387
 O463 O -0.04135 0.03956 0.64504
 C464 C -0.07925 -0.07520 0.59123
 H465 H 0.05633 -0.02181 0.60864
 H466 H -0.04796 0.06224 0.54712
 H467 H -0.04918 -0.07766 0.49677
 H468 H 0.04236 0.00795 0.41316
 H469 H 0.00666 0.09396 0.64695
 H470 H -0.00528 0.12208 0.46357
 H471 H -0.00853 0.08586 0.38136
 H472 H -0.02063 -0.04096 0.33298
 H473 H 0.02635 0.03303 0.69554
 H474 H 0.01383 -0.09826 0.64899
 H475 H 0.00184 -0.13459 0.57032
 H476 H -0.01731 -0.10757 0.38693
 H477 H -0.03378 0.05276 0.67799
 H478 H -0.12936 0.00964 0.55921
 H479 H 0.12891 -0.02047 0.46839
 H480 H 0.03120 -0.07378 0.35584
 Zr481 Zr 0.75577 0.17848 0.26686
 O482 O 0.72503 0.13970 0.31018
 O483 O 0.79391 0.14331 0.22776
 O484 O 0.72324 0.14223 0.21901
 O485 O 0.81355 0.20322 0.37135
 O486 O 0.69597 0.18072 0.15920
 O487 O 0.78783 0.15358 0.32644
 O488 O 0.83063 0.18402 0.18450
 O489 O 0.76018 0.20234 0.19304
 O490 O 0.80342 0.21183 0.27050
 O491 O 0.70612 0.20899 0.25610
 O492 O 0.74787 0.21631 0.33056
 Zr493 Zr 0.75157 0.30777 0.24732
 Zr494 Zr 0.71197 0.23501 0.18406
 Zr495 Zr 0.79487 0.25092 0.33078
 Zr496 Zr 0.80666 0.23723 0.19847
 O497 O 0.78262 0.25843 0.41107
 O498 O 0.80370 0.22705 0.11642
 O499 O 0.80153 0.27767 0.25899
 O500 O 0.75895 0.26952 0.18450
 O501 O 0.70341 0.27503 0.24362
 O502 O 0.74696 0.28333 0.32062
 C503 C 0.82176 0.15100 0.19893
 C504 C 0.80884 0.16782 0.36296
 C505 C 0.70177 0.14845 0.17927
 O506 O 0.72314 0.23041 0.10311
 O507 O 0.68899 0.28254 0.14814
 O508 O 0.71671 0.33232 0.19005
 C509 C 0.69386 0.31792 0.15580
 O510 O 0.67962 0.20336 0.35751
 Zr511 Zr 0.70031 0.24938 0.31571
 O512 O 0.71361 0.34354 0.28474
 O513 O 0.65325 0.23048 0.18027
 O514 O 0.64328 0.24315 0.29452
 O515 O 0.69977 0.26345 0.39681
 O516 O 0.67425 0.30225 0.32190
 C517 C 0.68392 0.33545 0.30926
 O518 O 0.78141 0.34594 0.20192
 O519 O 0.85372 0.25231 0.33590
 O520 O 0.78545 0.34367 0.29434
 O521 O 0.81324 0.30487 0.35334
 O522 O 0.86417 0.24024 0.21791
 O523 O 0.83093 0.28485 0.16439
 C524 C 0.80709 0.33734 0.33405
 H525 H 0.82671 0.19777 0.27743
 H526 H 0.76109 0.28262 0.15093
 H527 H 0.74445 0.30203 0.34953
 H528 H 0.68408 0.19250 0.25627
 H529 H 0.82906 0.22004 0.10497
 H530 H 0.69876 0.22747 0.08479
 H531 H 0.64604 0.22796 0.14271
 H532 H 0.62841 0.25316 0.32406
 H533 H 0.87806 0.23402 0.18569
 H534 H 0.86049 0.25488 0.37359
 H535 H 0.80681 0.26121 0.42997
 H536 H 0.67385 0.27055 0.40541
 H537 H 0.84793 0.27671 0.13621
 H538 H 0.77104 0.37124 0.20941
 H539 H 0.73534 0.11436 0.30264
 H540 H 0.65704 0.21118 0.37666
 Zr541 Zr 0.74482 0.81205 0.75250
 O542 O 0.76869 0.85839 0.79356
 O543 O 0.71581 0.83853 0.69152
 O544 O 0.78564 0.83913 0.70842
 O545 O 0.66760 0.80468 0.83058
 O546 O 0.82304 0.79130 0.68027
 O547 O 0.70437 0.84623 0.78903
 O548 O 0.68983 0.79001 0.64470
 O549 O 0.75391 0.77522 0.68894
 O550 O 0.69720 0.77887 0.74476
 O551 O 0.79305 0.78171 0.77288
 O552 O 0.73843 0.78681 0.82598
 Zr553 Zr 0.74735 0.68238 0.77380
 Zr554 Zr 0.80017 0.74292 0.71120
 Zr555 Zr 0.69214 0.75173 0.81550
 Zr556 Zr 0.70693 0.74110 0.68373
 O557 O 0.68746 0.75966 0.89746
 O558 O 0.72656 0.73579 0.60607
 O559 O 0.69856 0.71242 0.75380
 O560 O 0.75370 0.70821 0.70115
 O561 O 0.79524 0.71524 0.78159
 O562 O 0.73869 0.71979 0.83671
 C563 C 0.69526 0.82519 0.65389
 C564 C 0.67602 0.83803 0.81667
 C565 C 0.81450 0.82617 0.68466
 O566 O 0.80610 0.73278 0.62985
 O567 O 0.82722 0.69101 0.70085
 O568 O 0.78944 0.64867 0.73891
 C569 C 0.81883 0.65750 0.71356
 O570 O 0.79682 0.80658 0.87803
 Zr571 Zr 0.78547 0.75341 0.84262
 O572 O 0.77812 0.65558 0.83259
 O573 O 0.85697 0.74775 0.73371
 O574 O 0.84404 0.76051 0.84751
 O575 O 0.77010 0.75170 0.92238
 O576 O 0.81048 0.70399 0.87089
 C577 C 0.80411 0.66890 0.86257
 O578 O 0.72340 0.63656 0.73179
 O579 O 0.63495 0.74902 0.79450
 O580 O 0.70684 0.65525 0.81866
 O581 O 0.66815 0.70288 0.84394
 O582 O 0.64794 0.74072 0.67818
 O583 O 0.68768 0.68872 0.65332
 C584 C 0.67795 0.66819 0.84257
 H585 H 0.67414 0.79316 0.73721
 H586 H 0.75749 0.68946 0.67261
 H587 H 0.73525 0.70688 0.87017
 H588 H 0.81471 0.79851 0.77752
 H589 H 0.70526 0.74086 0.58203
 H590 H 0.83314 0.73340 0.62297
 H591 H 0.87171 0.74488 0.70142
 H592 H 0.85184 0.75671 0.88445
 H593 H 0.64084 0.74421 0.64091
 H594 H 0.62082 0.75249 0.82726
 H595 H 0.66053 0.75897 0.90509
 H596 H 0.79314 0.74679 0.94306
 H597 H 0.67542 0.69233 0.61874
 H598 H 0.73161 0.61353 0.74976
 H599 H 0.76083 0.88131 0.77499
 H600 H 0.81243 0.80336 0.90998
 Zr601 Zr 0.25324 0.31892 0.73166
 O602 O 0.22737 0.35614 0.67866
 O603 O 0.28315 0.35576 0.78128
 O604 O 0.21392 0.35337 0.76962
 O605 O 0.32864 0.29760 0.65509
 O606 O 0.17485 0.31205 0.80747
 O607 O 0.29241 0.34577 0.68527
 O608 O 0.30625 0.31751 0.84464
 O609 O 0.24498 0.29456 0.80440
 O610 O 0.30152 0.28833 0.74852
 O611 O 0.20528 0.28592 0.72162
 O612 O 0.25959 0.28126 0.66756
 Zr613 Zr 0.25267 0.18905 0.74916
 Zr614 Zr 0.19910 0.25922 0.79308
 Zr615 Zr 0.30643 0.24911 0.68770
 Zr616 Zr 0.29257 0.26256 0.81912
 O617 O 0.31066 0.24017 0.60583
 O618 O 0.27376 0.26922 0.89702
 O619 O 0.30101 0.22201 0.75932
 O620 O 0.24636 0.22741 0.81228
 O621 O 0.20396 0.21938 0.73260
 O622 O 0.26044 0.21421 0.67696
 C623 C 0.30144 0.34980 0.82399
 C624 C 0.32013 0.33258 0.65939
 C625 C 0.18474 0.34528 0.79546
 O626 O 0.19369 0.26628 0.87506
 O627 O 0.17531 0.21063 0.82300
 O628 O 0.21192 0.16243 0.79395
 C629 C 0.18412 0.17570 0.81988
 O630 O 0.19897 0.29123 0.61289
 Zr631 Zr 0.21304 0.24586 0.66204
 O632 O 0.22240 0.15210 0.70000
 O633 O 0.14215 0.25757 0.77068
 O634 O 0.15413 0.25003 0.65758
 O635 O 0.22853 0.23204 0.58418
 O636 O 0.19126 0.19221 0.64615
 C637 C 0.19795 0.15953 0.66441
 O638 O 0.27769 0.15212 0.80327
 O639 O 0.36391 0.25189 0.70707
 O640 O 0.29350 0.15465 0.71326
 O641 O 0.33222 0.19695 0.67695
 O642 O 0.35150 0.26549 0.82394
 O643 O 0.31421 0.21678 0.86204
 C644 C 0.32282 0.16340 0.68791
 H645 H 0.32426 0.30380 0.75125
 H646 H 0.24341 0.21442 0.84578
 H647 H 0.26420 0.19572 0.64809
 H648 H 0.18333 0.30148 0.71252
 H649 H 0.29508 0.27835 0.91880
 H650 H 0.16665 0.26779 0.88193
 H651 H 0.12773 0.25864 0.80341
 H652 H 0.14601 0.23956 0.62299
 H653 H 0.35828 0.27568 0.85921
 H654 H 0.37758 0.24974 0.67374
 H655 H 0.33758 0.23870 0.59823
 H656 H 0.20572 0.22357 0.56513
 H657 H 0.32727 0.22630 0.89406
 H658 H 0.27000 0.12641 0.79263
 H659 H 0.23483 0.38188 0.68954
 H660 H 0.18214 0.28240 0.58412
 Zr661 Zr 0.24398 0.68595 0.26504
 O662 O 0.27452 0.63939 0.23574
 O663 O 0.20772 0.66034 0.31677
 O664 O 0.27884 0.66166 0.32269
 O665 O 0.18428 0.68666 0.15720
 O666 O 0.31041 0.71138 0.35874
 O667 O 0.21042 0.64934 0.21963
 O668 O 0.17280 0.70916 0.34760
 O669 O 0.24190 0.72490 0.32741
 O670 O 0.19535 0.71721 0.25276
 O671 O 0.29289 0.71753 0.25943
 O672 O 0.24815 0.70821 0.18922
 Zr673 Zr 0.24546 0.81406 0.23519
 Zr674 Zr 0.28927 0.75822 0.31945
 Zr675 Zr 0.20040 0.74166 0.17996
 Zr676 Zr 0.19430 0.75721 0.31287
 O677 O 0.20783 0.73377 0.09844
 O678 O 0.20145 0.76525 0.39495
 O679 O 0.19596 0.78292 0.23954
 O680 O 0.24137 0.79124 0.31012
 O681 O 0.29435 0.78313 0.24678
 O682 O 0.24772 0.77476 0.17340
 C683 C 0.18094 0.67410 0.34395
 C684 C 0.18998 0.65473 0.17862
 C685 C 0.30421 0.67608 0.35309
 O686 O 0.28162 0.76910 0.40030
 O687 O 0.31061 0.81201 0.33693
 O688 O 0.28099 0.85029 0.27881
 C689 C 0.30454 0.84404 0.31625
 O690 O 0.31484 0.68914 0.16222
 Zr691 Zr 0.29516 0.74281 0.18664
 O692 O 0.28336 0.84005 0.18660
 O693 O 0.34817 0.75693 0.31809
 O694 O 0.35330 0.73981 0.20213
 O695 O 0.29077 0.73921 0.10372
 O696 O 0.32072 0.79168 0.16037
 C697 C 0.31253 0.82672 0.16437
 O698 O 0.21490 0.86019 0.26557
 O699 O 0.14153 0.74014 0.18084
 O700 O 0.21123 0.83846 0.17706
 O701 O 0.17832 0.78909 0.14255
 O702 O 0.13595 0.75592 0.29874
 O703 O 0.16939 0.80984 0.33133
 C704 C 0.18630 0.82420 0.14575
 H705 H 0.17233 0.70213 0.25272
 H706 H 0.23997 0.81108 0.33769
 H707 H 0.24876 0.78663 0.13879
 H708 H 0.31540 0.70166 0.26312
 H709 H 0.17723 0.76010 0.41125
 H710 H 0.30681 0.77036 0.41664
 H711 H 0.35726 0.76230 0.35435
 H712 H 0.36606 0.74184 0.16821
 H713 H 0.12372 0.75422 0.33310
 H714 H 0.13302 0.73468 0.14437
 H715 H 0.18262 0.73232 0.08220
 H716 H 0.31574 0.74462 0.08994
 H717 H 0.15368 0.80748 0.36256
 H718 H 0.22474 0.88295 0.24923
 H719 H 0.26496 0.61675 0.25276
 H720 H 0.33389 0.69195 0.13503
 Zr721 Zr 0.25166 0.80791 0.74848
 O722 O 0.28151 0.84633 0.70348
 O723 O 0.21369 0.84355 0.78627
 O724 O 0.21691 0.83283 0.69156
 O725 O 0.31356 0.80432 0.85403
 O726 O 0.18911 0.78334 0.64903
 O727 O 0.28561 0.84356 0.79580
 O728 O 0.17433 0.80209 0.82303
 O729 O 0.20347 0.77521 0.74439
 O730 O 0.24706 0.78308 0.82148
 O731 O 0.25898 0.76998 0.68522
 O732 O 0.30160 0.77770 0.75968
 Zr733 Zr 0.25582 0.67842 0.76653
 Zr734 Zr 0.21197 0.73548 0.68440
 Zr735 Zr 0.29494 0.75055 0.83114
 Zr736 Zr 0.20038 0.74919 0.81620
 O737 O 0.35380 0.75164 0.83594
 O738 O 0.14330 0.74316 0.79517
 O739 O 0.24792 0.71597 0.83058
 O740 O 0.20618 0.70907 0.75617
 O741 O 0.26017 0.70272 0.69298
 O742 O 0.30346 0.71175 0.77050
 C743 C 0.18399 0.83538 0.81072
 C744 C 0.30741 0.83695 0.83524
 C745 C 0.19405 0.81870 0.65717
 O746 O 0.15323 0.73109 0.68065
 O747 O 0.19581 0.68129 0.65900
 O748 O 0.22326 0.64247 0.71825
 C749 C 0.20168 0.64888 0.67868
 O750 O 0.33098 0.78532 0.66514
 Zr751 Zr 0.30667 0.73756 0.69876
 O752 O 0.29401 0.64348 0.72700
 O753 O 0.22310 0.73123 0.60342
 O754 O 0.30359 0.72773 0.61665
 O755 O 0.36419 0.74049 0.71819
 O756 O 0.33074 0.68446 0.68429
 C757 C 0.32191 0.65135 0.69832
 O758 O 0.22516 0.63928 0.80932
 O759 O 0.28295 0.75778 0.91156
 O760 O 0.28791 0.65327 0.82597
 O761 O 0.31340 0.70275 0.87148
 O762 O 0.20012 0.76271 0.89748
 O763 O 0.17952 0.70293 0.85733
 C764 C 0.30878 0.66739 0.86276
 H765 H 0.24461 0.80164 0.85058
 H766 H 0.18412 0.69260 0.75617
 H767 H 0.32674 0.69763 0.77733
 H768 H 0.26112 0.78325 0.65179
 H769 H 0.12851 0.75297 0.82492
 H770 H 0.14600 0.72890 0.64307
 H771 H 0.19870 0.72830 0.58513
 H772 H 0.32891 0.72068 0.60509
 H773 H 0.17430 0.77008 0.90623
 H774 H 0.30720 0.76047 0.93033
 H775 H 0.36070 0.75393 0.87362
 H776 H 0.37807 0.73442 0.68592
 H777 H 0.15728 0.71083 0.87719
 H778 H 0.23558 0.61402 0.80153
 H779 H 0.27120 0.87161 0.71132
 H780 H 0.34780 0.77729 0.63667
 Zr781 Zr 0.24677 0.18288 0.27366
 O782 O 0.22320 0.13647 0.23252
 O783 O 0.27765 0.15707 0.33328
 O784 O 0.28903 0.14895 0.23954
 O785 O 0.16658 0.20354 0.34157
 O786 O 0.32702 0.19112 0.20156
 O787 O 0.20608 0.15601 0.31853
 O788 O 0.30700 0.20630 0.37432
 O789 O 0.29440 0.21609 0.28203
 O790 O 0.23711 0.22091 0.33555
 O791 O 0.25369 0.20807 0.20069
 O792 O 0.19801 0.21242 0.25196
 Zr793 Zr 0.24377 0.31228 0.24969
 Zr794 Zr 0.29991 0.24305 0.21109
 Zr795 Zr 0.19060 0.25228 0.31270
 Zr796 Zr 0.28355 0.25497 0.34192
 O797 O 0.13370 0.24916 0.29021
 O798 O 0.34218 0.26120 0.34770
 O799 O 0.23655 0.28779 0.32348
 O800 O 0.29190 0.28244 0.27178
 O801 O 0.25374 0.27488 0.18710
 O802 O 0.19633 0.27883 0.24162
 C803 C 0.30186 0.17106 0.36566
 C804 C 0.17678 0.16896 0.34145
 C805 C 0.31854 0.15766 0.21434
 O806 O 0.35644 0.24801 0.23493
 O807 O 0.32311 0.29124 0.18006
 O808 O 0.28494 0.33908 0.20598
 C809 C 0.31427 0.32608 0.18344
 O810 O 0.18843 0.18778 0.15146
 Zr811 Zr 0.20694 0.24051 0.18157
 O812 O 0.21523 0.33801 0.18772
 O813 O 0.30676 0.23254 0.12998
 O814 O 0.22739 0.23479 0.10439
 O815 O 0.14801 0.23955 0.17505
 O816 O 0.18981 0.28894 0.14146
 C817 C 0.19497 0.32421 0.15011
 O818 O 0.26708 0.35917 0.29018
 O819 O 0.18468 0.26080 0.39438
 O820 O 0.20305 0.34663 0.28510
 O821 O 0.16595 0.30532 0.32656
 O822 O 0.26658 0.25548 0.42111
 O823 O 0.29501 0.30861 0.37576
 C824 C 0.17456 0.33859 0.31250
 H825 H 0.23337 0.20844 0.36927
 H826 H 0.31346 0.29936 0.27662
 H827 H 0.17329 0.29297 0.23342
 H828 H 0.25783 0.18913 0.17251
 H829 H 0.34953 0.25830 0.38500
 H830 H 0.37158 0.24498 0.20304
 H831 H 0.33388 0.23319 0.12364
 H832 H 0.20631 0.23960 0.07986
 H833 H 0.28919 0.25120 0.44301
 H834 H 0.15762 0.26028 0.40122
 H835 H 0.11914 0.25293 0.32251
 H836 H 0.14117 0.24277 0.13763
 H837 H 0.31067 0.30585 0.40775
 H838 H 0.25933 0.38184 0.27095
 H839 H 0.23144 0.11369 0.25104
 H840 H 0.17640 0.19110 0.11666
 Zr841 Zr 0.75364 0.68670 0.24380
 O842 O 0.77972 0.64804 0.29447
 O843 O 0.72208 0.65140 0.19370
 O844 O 0.71398 0.65876 0.28948
 O845 O 0.83147 0.69700 0.16864
 O846 O 0.67813 0.70643 0.32152
 O847 O 0.79400 0.65355 0.20491
 O848 O 0.69096 0.69260 0.14151
 O849 O 0.70463 0.71724 0.23072
 O850 O 0.75975 0.71395 0.17269
 O851 O 0.74921 0.72342 0.30903
 O852 O 0.80204 0.71981 0.25340
 Zr853 Zr 0.75330 0.81760 0.23289
 Zr854 Zr 0.70160 0.75536 0.29339
 Zr855 Zr 0.80574 0.74879 0.18309
 Zr856 Zr 0.71205 0.74594 0.16139
 O857 O 0.86356 0.75120 0.20021
 O858 O 0.65315 0.74963 0.16049
 O859 O 0.75847 0.78144 0.16676
 O860 O 0.70550 0.78432 0.22342
 O861 O 0.74722 0.79101 0.30457
 O862 O 0.80207 0.78659 0.24583
 C863 C 0.69792 0.65939 0.15782
 C864 C 0.82267 0.66312 0.17873
 C865 C 0.68667 0.67162 0.31691
 O866 O 0.64430 0.75524 0.27283
 O867 O 0.67871 0.80703 0.31425
 O868 O 0.71406 0.85065 0.27471
 C869 C 0.68678 0.84091 0.30363
 O870 O 0.81824 0.71243 0.35536
 Zr871 Zr 0.79522 0.75895 0.31546
 O872 O 0.78449 0.85318 0.28257
 O873 O 0.69758 0.75901 0.37595
 O874 O 0.77750 0.76400 0.39406
 O875 O 0.85421 0.76160 0.31803
 O876 O 0.80999 0.81346 0.34239
 C877 C 0.80443 0.84620 0.32345
 O878 O 0.72610 0.85632 0.18345
 O879 O 0.80807 0.74207 0.10068
 O880 O 0.79151 0.84555 0.18576
 O881 O 0.82720 0.79808 0.15207
 O882 O 0.72572 0.73499 0.08200
 O883 O 0.69705 0.79304 0.11601
 C884 C 0.81886 0.83296 0.15844
 H885 H 0.76301 0.69631 0.14268
 H886 H 0.68320 0.79997 0.21659
 H887 H 0.82489 0.80196 0.24819
 H888 H 0.74703 0.70954 0.34195
 H889 H 0.64445 0.74210 0.12482
 H890 H 0.63043 0.75432 0.30595
 H891 H 0.67072 0.76052 0.38404
 H892 H 0.79902 0.77305 0.41549
 H893 H 0.70239 0.72787 0.06312
 H894 H 0.83479 0.74066 0.09183
 H895 H 0.87651 0.75028 0.16624
 H896 H 0.86177 0.77083 0.35351
 H897 H 0.67922 0.78541 0.08780
 H898 H 0.73400 0.88170 0.19538
 H899 H 0.77165 0.62266 0.28276
 H900 H 0.83074 0.72128 0.38818
 Zr901 Zr 0.74558 0.31483 0.73671
 O902 O 0.71500 0.36107 0.76675
 O903 O 0.78330 0.34055 0.68757
 O904 O 0.78123 0.35142 0.77942
 O905 O 0.67845 0.28927 0.64447
 O906 O 0.81216 0.31317 0.83624
 O907 O 0.71133 0.33886 0.67833
 O908 O 0.82080 0.29207 0.66210
 O909 O 0.79448 0.28395 0.74855
 O910 O 0.74786 0.27517 0.67541
 O911 O 0.74168 0.29254 0.81201
 O912 O 0.69611 0.28375 0.74160
 Zr913 Zr 0.74420 0.18707 0.76816
 Zr914 Zr 0.78958 0.25954 0.82157
 Zr915 Zr 0.70056 0.24215 0.68247
 Zr916 Zr 0.79534 0.24330 0.68897
 O917 O 0.64169 0.24055 0.68289
 O918 O 0.85341 0.24051 0.70509
 O919 O 0.74831 0.20876 0.69203
 O920 O 0.79315 0.21846 0.76209
 O921 O 0.74219 0.22634 0.83011
 O922 O 0.69556 0.21825 0.75563
 C923 C 0.81253 0.32711 0.66560
 C924 C 0.68642 0.32438 0.64721
 C925 C 0.80582 0.34512 0.81548
 O926 O 0.84846 0.25702 0.82112
 O927 O 0.81013 0.21297 0.86212
 O928 O 0.77874 0.16308 0.82629
 C929 C 0.80389 0.17765 0.85689
 O930 O 0.66974 0.31131 0.83309
 Zr931 Zr 0.69456 0.25854 0.81532
 O932 O 0.70805 0.16168 0.82008
 O933 O 0.78193 0.27227 0.90193
 O934 O 0.70173 0.26713 0.89730
 O935 O 0.63621 0.25720 0.80132
 O936 O 0.67305 0.21056 0.85056
 C937 C 0.68123 0.17547 0.84711
 O938 O 0.77477 0.14041 0.73923
 O939 O 0.70826 0.23366 0.60109
 O940 O 0.71045 0.15017 0.72369
 O941 O 0.68435 0.18704 0.66071
 O942 O 0.79138 0.23933 0.60604
 O943 O 0.81479 0.18951 0.66482
 C944 C 0.68998 0.15530 0.68268
 H945 H 0.74889 0.28679 0.64063
 H946 H 0.81560 0.20254 0.76611
 H947 H 0.67252 0.20322 0.75582
 H948 H 0.74045 0.31263 0.83925
 H949 H 0.86635 0.24248 0.67130
 H950 H 0.85741 0.26295 0.85729
 H951 H 0.80710 0.27314 0.91837
 H952 H 0.67752 0.26200 0.91366
 H953 H 0.81650 0.24432 0.59247
 H954 H 0.68310 0.23207 0.58468
 H955 H 0.63333 0.23486 0.64641
 H956 H 0.62402 0.25561 0.83572
 H957 H 0.83464 0.19223 0.63878
 H958 H 0.76531 0.11786 0.75657
 H959 H 0.72475 0.38376 0.75012
 H960 H 0.65394 0.30915 0.86426
 C961 C 0.09738 0.40040 0.81931
 C962 C 0.10852 0.42624 0.85877
 C963 C 0.14750 0.43082 0.86690
 C964 C 0.17306 0.40606 0.84288
 C965 C 0.16014 0.37610 0.81113
 C966 C 0.12250 0.37576 0.79668
 C967 C 0.09505 0.34467 0.79290
 C968 C 0.06736 0.37147 0.81796
 H969 H 0.15833 0.45162 0.89456
 H970 H 0.20241 0.40831 0.85290
 H971 H 0.10239 0.32092 0.81850
 H972 H 0.08770 0.33692 0.75163
 H973 H 0.05926 0.36289 0.85775
 H974 H 0.04385 0.37903 0.79126
 C975 C 0.35092 0.58820 0.40358
 C976 C 0.38730 0.60032 0.41475
 C977 C 0.39599 0.63764 0.40363
 C978 C 0.36833 0.66247 0.38622
 C979 C 0.33121 0.65061 0.37832
 C980 C 0.32361 0.61261 0.38484
 C981 C 0.29444 0.59521 0.41725
 C982 C 0.32424 0.56861 0.43747
 H983 H 0.42402 0.64807 0.40975
 H984 H 0.37626 0.69095 0.37834
 H985 H 0.27283 0.58091 0.39265
 H986 H 0.28352 0.61468 0.44796
 H987 H 0.31973 0.53912 0.42428
 H988 H 0.33072 0.57262 0.47997
 C989 C 0.85829 0.91379 0.63214
 C990 C 0.89421 0.90141 0.61930
 C991 C 0.90488 0.86541 0.63547
 C992 C 0.87891 0.84135 0.65716
 C993 C 0.84159 0.85270 0.66401
 C994 C 0.83272 0.89014 0.65455
 C995 C 0.80086 0.90673 0.62466
 C996 C 0.82884 0.93270 0.60022
 H997 H 0.93279 0.85493 0.62887
 H998 H 0.88795 0.81340 0.66711
 H999 H 0.78101 0.92164 0.65080
 H1000 H 0.78792 0.88657 0.59608
 H1001 H 0.82508 0.96250 0.61242
 H1002 H 0.83205 0.92765 0.55748
 C1003 C 0.65317 0.08364 0.08231
 C1004 C 0.62509 0.06863 0.11285
 C1005 C 0.62832 0.07359 0.16764
 C1006 C 0.65619 0.09696 0.18985
 C1007 C 0.68029 0.11677 0.15749
 C1008 C 0.67950 0.10791 0.10393
 C1009 C 0.67888 0.13215 0.05707
 C1010 C 0.65036 0.10530 0.03303
 H1011 H 0.60801 0.06134 0.19291
 H1012 H 0.65644 0.10241 0.23175
 H1013 H 0.70581 0.13166 0.03628
 H1014 H 0.66716 0.16049 0.06519
 H1015 H 0.66132 0.08902 -0.00089
 H1016 H 0.62243 0.11817 0.02677
 C1017 C 0.85192 0.07768 0.41143
 C1018 C 0.88195 0.09038 0.44232
 C1019 C 0.88794 0.12928 0.44638
 C1020 C 0.86303 0.15457 0.42303
 C1021 C 0.83173 0.14163 0.39409
 C1022 C 0.82745 0.10278 0.38765
 C1023 C 0.79449 0.07933 0.39936
 C1024 C 0.82120 0.05204 0.42533
 H1025 H 0.91204 0.14017 0.46765
 H1026 H 0.86880 0.18421 0.42687
 H1027 H 0.78100 0.06765 0.36311
 H1028 H 0.77522 0.09340 0.42724
 H1029 H 0.82309 0.02466 0.40404
 H1030 H 0.81752 0.05025 0.46836
 C1031 C 0.36035 0.42141 0.60489
 C1032 C 0.39628 0.41000 0.59094
 C1033 C 0.40784 0.37378 0.60536
 C1034 C 0.38297 0.34886 0.62743
 C1035 C 0.34578 0.35939 0.63624
 C1036 C 0.33576 0.39673 0.62748
 C1037 C 0.30326 0.41225 0.59776
 C1038 C 0.33016 0.43921 0.57311
 H1039 H 0.43579 0.36387 0.59761
 H1040 H 0.39282 0.32103 0.63659
 H1041 H 0.28298 0.42641 0.62402
 H1042 H 0.29096 0.39161 0.56930
 H1043 H 0.32535 0.46886 0.58527
 H1044 H 0.33346 0.43425 0.53029
 C1045 C 0.58644 0.88957 0.84535
 C1046 C 0.59837 0.92377 0.86741
 C1047 C 0.63665 0.93222 0.86366
 C1048 C 0.66216 0.90505 0.84450
 C1049 C 0.64996 0.86861 0.83065
 C1050 C 0.61155 0.86268 0.82814
 C1051 C 0.58856 0.83126 0.84707
 C1052 C 0.56090 0.86067 0.86588
 H1053 H 0.64721 0.95876 0.87858
 H1054 H 0.69155 0.91161 0.84444
 H1055 H 0.60220 0.81596 0.87971
 H1056 H 0.57747 0.81337 0.81431
 H1057 H 0.55855 0.86221 0.90925
 H1058 H 0.53400 0.85959 0.84375
 C1059 C 0.12137 0.57628 0.16342
 C1060 C 0.12309 0.56673 0.10991
 C1061 C 0.15274 0.58170 0.08149
 C1062 C 0.17587 0.60963 0.10426
 C1063 C 0.17051 0.62200 0.15628
 C1064 C 0.14507 0.60270 0.18627
 C1065 C 0.11563 0.61753 0.22180
 C1066 C 0.08958 0.58864 0.19678
 H1067 H 0.15583 0.57458 0.04034
 H1068 H 0.19648 0.62289 0.08052
 H1069 H 0.10750 0.64684 0.21312
 H1070 H 0.12210 0.61225 0.26371
 H1071 H 0.06641 0.60157 0.17403
 H1072 H 0.08108 0.56673 0.22433
 C1073 C 0.35819 0.91708 0.12764
 C1074 C 0.39367 0.90534 0.11234
 C1075 C 0.40331 0.86747 0.11924
 C1076 C 0.37667 0.84178 0.13516
 C1077 C 0.33993 0.85344 0.14552
 C1078 C 0.33215 0.89182 0.14473
 C1079 C 0.30075 0.91213 0.11870
 C1080 C 0.32935 0.93973 0.09972
 H1081 H 0.43077 0.85716 0.10944
 H1082 H 0.38480 0.81271 0.13849
 H1083 H 0.28136 0.92471 0.14765
 H1084 H 0.28727 0.89531 0.08657
 H1085 H 0.32627 0.96819 0.11760
 H1086 H 0.33255 0.93886 0.05646
 C1087 C 0.59589 0.38821 0.33763
 C1088 C 0.60858 0.42252 0.35818
 C1089 C 0.64741 0.42768 0.36384
 C1090 C 0.67239 0.39982 0.34646
 C1091 C 0.65891 0.36598 0.32457
 C1092 C 0.62052 0.36044 0.32169
 C1093 C 0.59731 0.35024 0.27456
 C1094 C 0.57045 0.38081 0.29165
 H1095 H 0.65845 0.45297 0.38217
 H1096 H 0.70206 0.40439 0.35099
 H1097 H 0.58553 0.32166 0.27702
 H1098 H 0.61140 0.35616 0.23720
 H1099 H 0.54307 0.36978 0.30355
 H1100 H 0.56895 0.40457 0.26427
 C1101 C 0.84931 0.58221 0.91785
 C1102 C 0.88748 0.58982 0.91292
 C1103 C 0.89683 0.62321 0.88734
 C1104 C 0.86939 0.64917 0.87323
 C1105 C 0.83169 0.64244 0.88291
 C1106 C 0.82196 0.60750 0.90191
 C1107 C 0.79793 0.59868 0.94712
 C1108 C 0.82781 0.57112 0.96448
 H1109 H 0.92548 0.63037 0.87981
 H1110 H 0.87775 0.67466 0.85457
 H1111 H 0.77154 0.58490 0.93428
 H1112 H 0.79451 0.62287 0.97480
 H1113 H 0.81864 0.54148 0.96155
 H1114 H 0.84181 0.57938 1.00213
 C1115 C 0.10922 0.11031 0.63255
 C1116 C 0.12009 0.07382 0.61899
 C1117 C 0.15861 0.06632 0.61463
 C1118 C 0.18503 0.09401 0.62926
 C1119 C 0.17299 0.12983 0.64594
 C1120 C 0.13500 0.13757 0.64520
 C1121 C 0.11175 0.15420 0.68764
 C1122 C 0.08334 0.12415 0.67404
 H1123 H 0.16819 0.03904 0.60124
 H1124 H 0.21447 0.08748 0.62784
 H1125 H 0.10193 0.18287 0.67830
 H1126 H 0.12467 0.15129 0.72727
 H1127 H 0.05718 0.13586 0.65721
 H1128 H 0.07967 0.10372 0.70576
 C1129 C 0.08548 0.39054 0.34198
 C1130 C 0.09780 0.42424 0.36520
 C1131 C 0.13608 0.43256 0.36120
 C1132 C 0.16128 0.40550 0.34103
 C1133 C 0.14874 0.36932 0.32639
 C1134 C 0.11029 0.36372 0.32384
 C1135 C 0.08703 0.33217 0.34170
 C1136 C 0.05965 0.36152 0.36147
 H1137 H 0.14688 0.45883 0.37673
 H1138 H 0.19073 0.41183 0.34094
 H1139 H 0.10051 0.31622 0.37384
 H1140 H 0.07579 0.31491 0.30838
 H1141 H 0.05728 0.36231 0.40485
 H1142 H 0.03276 0.36108 0.33927
 C1143 C 0.35257 0.57742 0.91065
 C1144 C 0.38186 0.59028 0.94282
 C1145 C 0.38728 0.62920 0.94770
 C1146 C 0.36233 0.65434 0.92410
 C1147 C 0.33166 0.64120 0.89393
 C1148 C 0.32810 0.60235 0.88655
 C1149 C 0.29535 0.57813 0.89643
 C1150 C 0.32206 0.55104 0.92281
 H1151 H 0.41095 0.64021 0.96982
 H1152 H 0.36760 0.68403 0.92871
 H1153 H 0.28279 0.56663 0.85942
 H1154 H 0.27528 0.59150 0.92382
 H1155 H 0.32486 0.52392 0.90104
 H1156 H 0.31763 0.54870 0.96561
 C1157 C 0.62215 0.07614 0.66878
 C1158 C 0.62305 0.06727 0.61503
 C1159 C 0.65198 0.08282 0.58588
 C1160 C 0.67515 0.11073 0.60836
 C1161 C 0.67058 0.12249 0.66076
 C1162 C 0.64591 0.10263 0.69133
 C1163 C 0.61675 0.11689 0.72781
 C1164 C 0.59077 0.08778 0.70327
 H1165 H 0.65433 0.07623 0.54446
 H1166 H 0.69512 0.12454 0.58415
 H1167 H 0.60814 0.14614 0.71968
 H1168 H 0.62363 0.11151 0.76952
 H1169 H 0.56702 0.10051 0.68149
 H1170 H 0.58315 0.06547 0.73071
 C1171 C 0.85955 0.92176 0.10423
 C1172 C 0.89580 0.91042 0.09161
 C1173 C 0.90734 0.87453 0.10742
 C1174 C 0.88217 0.84972 0.12908
 C1175 C 0.84471 0.86005 0.13629
 C1176 C 0.83467 0.89726 0.12669
 C1177 C 0.80256 0.91240 0.09579
 C1178 C 0.82975 0.93913 0.07126
 H1179 H 0.93550 0.86473 0.10094
 H1180 H 0.89201 0.82205 0.13913
 H1181 H 0.78191 0.92683 0.12120
 H1182 H 0.79064 0.89145 0.06744
 H1183 H 0.82474 0.96890 0.08262
 H1184 H 0.83364 0.93368 0.02866
 C1185 C 0.85013 0.08941 0.90659
 C1186 C 0.88647 0.10141 0.91821
 C1187 C 0.89511 0.13900 0.90881
 C1188 C 0.86750 0.16408 0.89197
 C1189 C 0.83051 0.15222 0.88294
 C1190 C 0.82287 0.11411 0.88842
 C1191 C 0.79372 0.09646 0.92064
 C1192 C 0.82345 0.06955 0.94019
 H1193 H 0.92309 0.14937 0.91565
 H1194 H 0.87544 0.19272 0.88516
 H1195 H 0.77201 0.08246 0.89590
 H1196 H 0.78294 0.11566 0.95178
 H1197 H 0.81881 0.04020 0.92645
 H1198 H 0.83003 0.07311 0.98273
 C1199 C 0.15332 0.58375 0.58161
 C1200 C 0.12539 0.56847 0.61216
 C1201 C 0.12864 0.57348 0.66695
 C1202 C 0.15630 0.59715 0.68912
 C1203 C 0.18018 0.61722 0.65675
 C1204 C 0.17947 0.60826 0.60321
 C1205 C 0.17880 0.63237 0.55623
 C1206 C 0.15045 0.60529 0.53224
 H1207 H 0.10853 0.56099 0.69230
 H1208 H 0.15656 0.60257 0.73102
 H1209 H 0.20578 0.63193 0.53556
 H1210 H 0.16697 0.66068 0.56421
 H1211 H 0.16153 0.58899 0.49843
 H1212 H 0.12245 0.61799 0.52587
 C1213 C 0.60379 0.88229 0.37060
 C1214 C 0.60930 0.92069 0.36946
 C1215 C 0.64412 0.93352 0.35246
 C1216 C 0.67014 0.90801 0.33029
 C1217 C 0.66199 0.86940 0.32704
 C1218 C 0.62932 0.85747 0.35044
 C1219 C 0.59968 0.83118 0.33113
 C1220 C 0.57149 0.85886 0.35312
 H1221 H 0.65067 0.96304 0.35486
 H1222 H 0.69606 0.91841 0.31540
 H1223 H 0.60032 0.80445 0.35255
 H1224 H 0.59848 0.82830 0.28769
 H1225 H 0.55602 0.84779 0.38673
 H1226 H 0.55407 0.87234 0.32236
 C1227 C 0.35827 0.41375 0.13157
 C1228 C 0.39435 0.40149 0.11937
 C1229 C 0.40501 0.36556 0.13586
 C1230 C 0.37892 0.34141 0.15708
 C1231 C 0.34149 0.35261 0.16315
 C1232 C 0.33258 0.39001 0.15349
 C1233 C 0.30092 0.40648 0.12307
 C1234 C 0.32901 0.43261 0.09922
 H1235 H 0.43302 0.35517 0.12983
 H1236 H 0.38796 0.31351 0.16725
 H1237 H 0.28076 0.42128 0.14883
 H1238 H 0.28834 0.38627 0.09424
 H1239 H 0.32501 0.46236 0.11147
 H1240 H 0.33255 0.42769 0.05654
 C1241 C 0.61579 0.61038 0.09678
 C1242 C 0.62253 0.57285 0.10723
 C1243 C 0.65844 0.56262 0.12493
 C1244 C 0.68448 0.59067 0.13969
 C1245 C 0.67520 0.62896 0.13459
 C1246 C 0.64156 0.63768 0.10929
 C1247 C 0.61193 0.66529 0.12403
 C1248 C 0.58368 0.63500 0.11089
 H1249 H 0.66548 0.53346 0.13030
 H1250 H 0.71094 0.58253 0.15704
 H1251 H 0.61024 0.68889 0.09652
 H1252 H 0.61300 0.67345 0.16633
 H1253 H 0.56564 0.64139 0.07640
 H1254 H 0.56890 0.62543 0.14600
 C1255 C 0.09581 0.88807 0.83959
 C1256 C 0.10839 0.92275 0.85898
 C1257 C 0.14723 0.92813 0.86404
 C1258 C 0.17228 0.90013 0.84709
 C1259 C 0.15889 0.86590 0.82626
 C1260 C 0.12051 0.86020 0.82406
 C1261 C 0.09703 0.84917 0.77758
 C1262 C 0.07009 0.87981 0.79420
 H1263 H 0.15824 0.95375 0.88144
 H1264 H 0.20195 0.90495 0.85102
 H1265 H 0.08548 0.82057 0.78106
 H1266 H 0.11080 0.85463 0.73983
 H1267 H 0.04290 0.86877 0.80681
 H1268 H 0.06821 0.90315 0.76615
 C1269 C 0.34755 0.08219 0.41264
 C1270 C 0.38409 0.09389 0.42333
 C1271 C 0.39307 0.13138 0.41370
 C1272 C 0.36560 0.15674 0.39780
 C1273 C 0.32845 0.14525 0.39021
 C1274 C 0.32035 0.10725 0.39548
 C1275 C 0.29142 0.08990 0.42841
 C1276 C 0.32113 0.06262 0.44700
 H1277 H 0.42125 0.14146 0.41952
 H1278 H 0.37368 0.18529 0.39055
 H1279 H 0.26910 0.07629 0.40423
 H1280 H 0.28136 0.10917 0.45996
 H1281 H 0.31597 0.03333 0.43339
 H1282 H 0.32842 0.06607 0.48935
 C1283 C 0.85799 0.41721 0.62728
 C1284 C 0.89385 0.40551 0.61355
 C1285 C 0.90374 0.36794 0.62248
 C1286 C 0.87705 0.34233 0.63848
 C1287 C 0.83994 0.35374 0.64660
 C1288 C 0.83181 0.39198 0.64395
 C1289 C 0.80078 0.41167 0.61615
 C1290 C 0.82947 0.43958 0.59824
 H1291 H 0.93152 0.35773 0.61434
 H1292 H 0.88545 0.31349 0.64361
 H1293 H 0.78050 0.42417 0.64390
 H1294 H 0.78836 0.39448 0.58354
 H1295 H 0.82575 0.46798 0.61604
 H1296 H 0.83340 0.43899 0.55515
 C1297 C 0.90742 0.61800 0.12072
 C1298 C 0.89699 0.58091 0.11095
 C1299 C 0.85950 0.57134 0.11950
 C1300 C 0.83489 0.59758 0.14292
 C1301 C 0.84726 0.63398 0.15663
 C1302 C 0.88321 0.64378 0.14242
 C1303 C 0.91335 0.66253 0.17400
 C1304 C 0.94008 0.63409 0.15021
 H1305 H 0.84957 0.54351 0.10946
 H1306 H 0.80649 0.58946 0.15026
 H1307 H 0.90985 0.65954 0.21689
 H1308 H 0.91842 0.69152 0.16108
 H1309 H 0.95215 0.61450 0.17926
 H1310 H 0.96044 0.64692 0.12379
 C1311 C 0.65250 0.41176 0.57847
 C1312 C 0.61937 0.39954 0.55430
 C1313 C 0.61248 0.36077 0.55251
 C1314 C 0.63567 0.33594 0.58015
 C1315 C 0.66583 0.34943 0.61124
 C1316 C 0.67500 0.38733 0.60677
 C1317 C 0.68321 0.41640 0.64821
 C1318 C 0.65881 0.44310 0.61708
 H1319 H 0.58778 0.34994 0.53265
 H1320 H 0.62821 0.30663 0.58021
 H1321 H 0.71300 0.42449 0.64936
 H1322 H 0.67142 0.40943 0.68676
 H1323 H 0.67464 0.46637 0.60001
 H1324 H 0.63299 0.45168 0.63763
 C1325 C 0.14237 0.08244 0.41005
 C1326 C 0.10714 0.09374 0.42727
 C1327 C 0.09756 0.13179 0.42237
 C1328 C 0.12064 0.15626 0.39559
 C1329 C 0.15382 0.14331 0.37224
 C1330 C 0.16504 0.10658 0.38290
 C1331 C 0.17793 0.07597 0.34680
 C1332 C 0.15329 0.04959 0.37660
 H1333 H 0.07144 0.14240 0.43733
 H1334 H 0.11145 0.18494 0.39126
 H1335 H 0.20812 0.06992 0.35202
 H1336 H 0.16849 0.08000 0.30557
 H1337 H 0.16934 0.02849 0.39913
 H1338 H 0.12960 0.03822 0.35269
 C1339 C 0.35606 0.89657 0.93957
 C1340 C 0.37355 0.92370 0.91021
 C1341 C 0.36316 0.92639 0.85692
 C1342 C 0.33904 0.89971 0.83299
 C1343 C 0.32639 0.86900 0.86147
 C1344 C 0.33372 0.86942 0.91558
 C1345 C 0.34839 0.83955 0.95048
 C1346 C 0.37251 0.86938 0.97709
 H1347 H 0.37536 0.94769 0.83319
 H1348 H 0.33304 0.90132 0.79139
 H1349 H 0.36492 0.81793 0.92908
 H1350 H 0.32665 0.82852 0.97637
 H1351 H 0.40286 0.86485 0.97155
 H1352 H 0.36415 0.87576 1.01794
 C1353 C 0.15154 0.90821 0.60497
 C1354 C 0.11980 0.89510 0.57805
 C1355 C 0.11657 0.85623 0.56918
 C1356 C 0.14233 0.83132 0.59195
 C1357 C 0.17139 0.84472 0.62521
 C1358 C 0.17647 0.88361 0.62856
 C1359 C 0.18174 0.90896 0.67539
 C1360 C 0.15457 0.93587 0.64948
 H1361 H 0.09304 0.84501 0.54700
 H1362 H 0.13776 0.80157 0.58652
 H1363 H 0.21056 0.92004 0.67866
 H1364 H 0.17090 0.89688 0.71187
 H1365 H 0.16777 0.96238 0.63770
 H1366 H 0.12807 0.93939 0.67097
 C1367 C 0.64633 0.58302 0.37348
 C1368 C 0.61488 0.59675 0.39958
 C1369 C 0.61047 0.63577 0.40414
 C1370 C 0.63462 0.65984 0.37868
 C1371 C 0.66363 0.64563 0.34705
 C1372 C 0.67004 0.60691 0.34751
 C1373 C 0.67475 0.57969 0.30293
 C1374 C 0.64898 0.55359 0.33132
 H1375 H 0.58747 0.64770 0.42585
 H1376 H 0.62930 0.68963 0.38203
 H1377 H 0.70378 0.56897 0.30054
 H1378 H 0.66270 0.59004 0.26549
 H1379 H 0.66321 0.52790 0.34534
 H1380 H 0.62200 0.54871 0.31030
 C1381 C 0.40851 0.10904 0.17766
 C1382 C 0.39648 0.07743 0.14899
 C1383 C 0.35832 0.06815 0.15248
 C1384 C 0.33290 0.09282 0.17772
 C1385 C 0.34501 0.12762 0.19876
 C1386 C 0.38353 0.13367 0.20092
 C1387 C 0.40652 0.16690 0.18846
 C1388 C 0.43404 0.13983 0.16329
 H1389 H 0.34769 0.04306 0.13310
 H1390 H 0.30352 0.08615 0.17665
 H1391 H 0.41788 0.18123 0.22430
 H1392 H 0.39282 0.18547 0.15949
 H1393 H 0.46111 0.13839 0.18493
 H1394 H 0.43612 0.14295 0.12020
 C1395 C 0.89258 0.40157 0.83375
 C1396 C 0.88554 0.42412 0.87843
 C1397 C 0.84785 0.42617 0.89446
 C1398 C 0.82061 0.40197 0.87182
 C1399 C 0.83027 0.37605 0.83198
 C1400 C 0.86567 0.37863 0.81100
 C1401 C 0.89320 0.34906 0.79624
 C1402 C 0.92288 0.37399 0.82159
 H1403 H 0.83978 0.44422 0.92699
 H1404 H 0.79292 0.40172 0.88791
 H1405 H 0.89596 0.34592 0.75309
 H1406 H 0.88915 0.32256 0.81729
 H1407 H 0.94294 0.38489 0.79306
 H1408 H 0.93559 0.36177 0.85740
 C1409 C 0.63988 0.08585 0.89608
 C1410 C 0.60315 0.09657 0.90609
 C1411 C 0.59476 0.13511 0.90621
 C1412 C 0.62125 0.16117 0.89061
 C1413 C 0.65674 0.14930 0.87391
 C1414 C 0.66595 0.11143 0.87995
 C1415 C 0.68370 0.08337 0.84391
 C1416 C 0.65477 0.05548 0.86129
 H1417 H 0.56749 0.14513 0.91751
 H1418 H 0.61299 0.19028 0.88858
 H1419 H 0.71236 0.07597 0.85699
 H1420 H 0.68101 0.09058 0.80194
 H1421 H 0.66697 0.03209 0.88398
 H1422 H 0.63467 0.04700 0.82965
 C1423 C 0.40975 0.59722 0.67157
 C1424 C 0.39797 0.56999 0.63478
 C1425 C 0.35910 0.56442 0.62883
 C1426 C 0.33361 0.58939 0.65289
 C1427 C 0.34670 0.62058 0.68221
 C1428 C 0.38479 0.62215 0.69403
 C1429 C 0.41165 0.65377 0.69307
 C1430 C 0.43917 0.62644 0.66871
 H1431 H 0.34839 0.54268 0.60260
 H1432 H 0.30410 0.58627 0.64465
 H1433 H 0.42008 0.66368 0.73309
 H1434 H 0.40297 0.67593 0.66558
 H1435 H 0.46345 0.62042 0.69484
 H1436 H 0.44609 0.63329 0.62775
 C1437 C 0.15392 0.41430 0.09871
 C1438 C 0.12245 0.40119 0.07130
 C1439 C 0.12011 0.36262 0.05977
 C1440 C 0.14614 0.33757 0.08143
 C1441 C 0.17446 0.35059 0.11622
 C1442 C 0.17901 0.38951 0.12152
 C1443 C 0.18368 0.41399 0.16939
 C1444 C 0.15644 0.44116 0.14417
 H1445 H 0.09704 0.35167 0.03634
 H1446 H 0.14199 0.30789 0.07449
 H1447 H 0.21235 0.42530 0.17359
 H1448 H 0.17264 0.40110 0.20518
 H1449 H 0.16950 0.46800 0.13349
 H1450 H 0.12978 0.44405 0.16542
 C1451 C 0.87228 0.92468 0.34323
 C1452 C 0.87553 0.92761 0.39787
 C1453 C 0.84888 0.90890 0.42756
 C1454 C 0.82378 0.88361 0.40321
 C1455 C 0.82398 0.87782 0.34859
 C1456 C 0.84646 0.90095 0.31910
 C1457 C 0.87226 0.89104 0.27564
 C1458 C 0.90069 0.91674 0.30240
 H1459 H 0.84986 0.91092 0.46989
 H1460 H 0.80598 0.86693 0.42720
 H1461 H 0.86199 0.90160 0.23741
 H1462 H 0.88067 0.86104 0.27526
 H1463 H 0.90698 0.94185 0.27929
 H1464 H 0.92544 0.90144 0.31780
 C1465 C 0.90888 0.60869 0.67757
 C1466 C 0.89686 0.57711 0.64877
 C1467 C 0.85864 0.56798 0.65188
 C1468 C 0.83319 0.59274 0.67684
 C1469 C 0.84532 0.62751 0.69793
 C1470 C 0.88386 0.63342 0.70055
 C1471 C 0.90707 0.66656 0.68849
 C1472 C 0.93464 0.63939 0.66360
 H1473 H 0.84799 0.54294 0.63240
 H1474 H 0.80380 0.58615 0.67556
 H1475 H 0.91825 0.68080 0.72452
 H1476 H 0.89362 0.68523 0.65942
 H1477 H 0.96157 0.63782 0.68557
 H1478 H 0.93702 0.64255 0.62055
 C1479 C 0.65114 0.40675 0.10160
 C1480 C 0.61956 0.39330 0.07462
 C1481 C 0.61645 0.35435 0.06658
 C1482 C 0.64223 0.32977 0.09007
 C1483 C 0.67112 0.34359 0.12332
 C1484 C 0.67606 0.38249 0.12592
 C1485 C 0.68107 0.40833 0.17227
 C1486 C 0.65393 0.43487 0.14557
 H1487 H 0.59303 0.34285 0.04446
 H1488 H 0.63779 0.29996 0.08513
 H1489 H 0.70985 0.41952 0.17550
 H1490 H 0.67013 0.39661 0.20892
 H1491 H 0.66713 0.46124 0.13331
 H1492 H 0.62732 0.43857 0.16677
 C1493 C 0.38792 0.90563 0.33481
 C1494 C 0.38187 0.92340 0.38350
 C1495 C 0.34575 0.92066 0.40429
 C1496 C 0.31903 0.89642 0.38063
 C1497 C 0.32771 0.87535 0.33517
 C1498 C 0.36141 0.88254 0.31109
 C1499 C 0.39000 0.85607 0.29016
 C1500 C 0.41916 0.88112 0.31644
 H1501 H 0.33906 0.93488 0.44082
 H1502 H 0.29271 0.89232 0.39967
 H1503 H 0.39097 0.85616 0.24672
 H1504 H 0.38847 0.82788 0.30756
 H1505 H 0.43712 0.89535 0.28807
 H1506 H 0.43426 0.86733 0.34919
 C1507 C 0.14518 0.08653 0.87613
 C1508 C 0.11341 0.09948 0.90206
 C1509 C 0.10810 0.13847 0.90660
 C1510 C 0.13177 0.16319 0.88124
 C1511 C 0.16112 0.14959 0.84985
 C1512 C 0.16833 0.11099 0.85035
 C1513 C 0.17392 0.08387 0.80586
 C1514 C 0.14868 0.05715 0.83403
 H1515 H 0.08479 0.14985 0.92817
 H1516 H 0.12594 0.19289 0.88451
 H1517 H 0.20323 0.07390 0.80385
 H1518 H 0.16181 0.09385 0.76824
 H1519 H 0.16347 0.03181 0.84818
 H1520 H 0.12190 0.05162 0.81279
 C1521 C 0.15210 0.91222 0.07872
 C1522 C 0.11928 0.90003 0.05364
 C1523 C 0.11274 0.86121 0.05079
 C1524 C 0.13592 0.83620 0.07818
 C1525 C 0.16572 0.84955 0.11011
 C1526 C 0.17457 0.88761 0.10677
 C1527 C 0.18224 0.91621 0.14904
 C1528 C 0.15785 0.94311 0.11823
 H1529 H 0.08829 0.85042 0.03025
 H1530 H 0.12872 0.80682 0.07732
 H1531 H 0.21198 0.92452 0.15083
 H1532 H 0.17022 0.90864 0.18721
 H1533 H 0.17362 0.96677 0.10207
 H1534 H 0.13178 0.95119 0.13855
 C1535 C 0.85303 0.39901 0.43852
 C1536 C 0.87347 0.42385 0.40892
 C1537 C 0.86596 0.42461 0.35453
 C1538 C 0.84172 0.39820 0.33033
 C1539 C 0.82596 0.36958 0.35982
 C1540 C 0.83046 0.37206 0.41442
 C1541 C 0.84136 0.34313 0.45316
 C1542 C 0.86597 0.37261 0.47966
 H1543 H 0.88055 0.44407 0.33040
 H1544 H 0.83811 0.39810 0.28813
 H1545 H 0.85755 0.31960 0.43553
 H1546 H 0.81758 0.33476 0.47752
 H1547 H 0.89622 0.36613 0.47748
 H1548 H 0.85613 0.38098 0.51912
 C1549 C 0.40844 0.11688 0.63506
 C1550 C 0.39685 0.08086 0.62035
 C1551 C 0.35866 0.07250 0.62521
 C1552 C 0.33421 0.09859 0.64931
 C1553 C 0.34748 0.13371 0.66752
 C1554 C 0.38441 0.14256 0.65743
 C1555 C 0.41386 0.15811 0.69347
 C1556 C 0.44038 0.12980 0.66895
 H1557 H 0.34791 0.04575 0.61141
 H1558 H 0.30513 0.09153 0.65316
 H1559 H 0.40824 0.15293 0.73538
 H1560 H 0.42076 0.18752 0.68439
 H1561 H 0.45026 0.10810 0.69656
 H1562 H 0.46248 0.14313 0.64597
 C1563 C 0.64284 0.58108 0.90885
 C1564 C 0.60741 0.59226 0.92543
 C1565 C 0.59812 0.63045 0.92160
 C1566 C 0.62157 0.65517 0.89595
 C1567 C 0.65488 0.64236 0.87283
 C1568 C 0.66591 0.60548 0.88291
 C1569 C 0.67947 0.57523 0.84674
 C1570 C 0.65428 0.54855 0.87515
 H1571 H 0.57195 0.64101 0.93649
 H1572 H 0.61253 0.68394 0.89213
 H1573 H 0.70959 0.56918 0.85302
 H1574 H 0.67079 0.57964 0.80531
 H1575 H 0.66993 0.52720 0.89778
 H1576 H 0.63098 0.53744 0.85024
 C1577 C 0.36658 0.43035 0.84516
 C1578 C 0.37233 0.43038 0.89951
 C1579 C 0.34738 0.40975 0.92946
 C1580 C 0.32174 0.38521 0.90487
 C1581 C 0.31984 0.38186 0.84988
 C1582 C 0.34034 0.40714 0.82091
 C1583 C 0.36428 0.40046 0.77433
 C1584 C 0.39312 0.42570 0.80112
 H1585 H 0.35042 0.40945 0.97166
 H1586 H 0.30555 0.36685 0.92872
 H1587 H 0.35189 0.41268 0.73834
 H1588 H 0.37355 0.37083 0.77000
 H1589 H 0.39746 0.45228 0.78033
 H1590 H 0.41901 0.41050 0.81249
 C1591 C 0.90935 0.09642 0.17295
 C1592 C 0.89759 0.06944 0.13577
 C1593 C 0.85873 0.06414 0.12930
 C1594 C 0.83327 0.08918 0.15323
 C1595 C 0.84641 0.12011 0.18304
 C1596 C 0.88442 0.12136 0.19544
 C1597 C 0.91147 0.15284 0.19519
 C1598 C 0.93894 0.12553 0.17067
 H1599 H 0.84803 0.04262 0.10269
 H1600 H 0.80379 0.08635 0.14449
 H1601 H 0.91976 0.16239 0.23542
 H1602 H 0.90303 0.17526 0.16799
 H1603 H 0.96311 0.11925 0.19686
 H1604 H 0.94600 0.13265 0.12986
 C1605 C 0.65386 0.91586 0.60483
 C1606 C 0.62294 0.90294 0.57598
 C1607 C 0.62120 0.86456 0.56293
 C1608 C 0.64716 0.83936 0.58441
 C1609 C 0.67483 0.85200 0.62050
 C1610 C 0.67891 0.89088 0.62735
 C1611 C 0.68268 0.91445 0.67623
 C1612 C 0.65543 0.94180 0.65138
 H1613 H 0.59855 0.85382 0.53848
 H1614 H 0.64345 0.80976 0.57617
 H1615 H 0.71117 0.92602 0.68159
 H1616 H 0.67135 0.90068 0.71115
 H1617 H 0.66829 0.96904 0.64221
 H1618 H 0.62844 0.94388 0.67198
 C1619 C 0.13993 0.58510 0.39564
 C1620 C 0.10313 0.59581 0.40516
 C1621 C 0.09447 0.63424 0.40366
 C1622 C 0.12082 0.66009 0.38711
 C1623 C 0.15639 0.64810 0.37090
 C1624 C 0.16580 0.61045 0.37827
 C1625 C 0.18331 0.58185 0.34285
 C1626 C 0.15487 0.55411 0.36201
 H1627 H 0.06711 0.64433 0.41439
 H1628 H 0.11239 0.68909 0.38400
 H1629 H 0.21220 0.57494 0.35547
 H1630 H 0.17981 0.58828 0.30068
 H1631 H 0.16752 0.53145 0.38568
 H1632 H 0.13463 0.54465 0.33111
   
