data_POSCAR
  _audit_creation_date              2014-09-24
  _audit_creation_method            'ToBaCCo'
  _symmetry_space_group_name_H-M    'P1'
  _symmetry_Int_Tables_number       1
  _symmetry_cell_setting            triclinic
  loop_
  _symmetry_equiv_pos_as_xyz
 x,y,z
_cell_length_a 72.4469
_cell_length_b 72.2265
_cell_length_c 72.4716
_cell_angle_alpha 89.958300
_cell_angle_beta 89.981000
_cell_angle_gamma 90.069600
loop_
  _atom_site_label
  _atom_site_type_symbol
  _atom_site_fract_x
  _atom_site_fract_y
  _atom_site_fract_z
N1 N 0.17877 0.22241 0.22682
 N2 N 0.18362 0.20755 0.23608
 C3 C 0.17189 0.20517 0.25031
 C4 C 0.15894 0.21930 0.24996
 C5 C 0.16381 0.22997 0.23481
 H6 H 0.17281 0.19406 0.26025
 H7 H 0.15694 0.24226 0.22982
 Cu8 Cu 0.20480 0.19278 0.22864
 Cu9 Cu 0.19213 0.23085 0.20509
 Cu10 Cu 0.23040 0.20533 0.19193
 N11 N 0.22664 0.17892 0.22136
 N12 N 0.23654 0.18388 0.20700
 C13 C 0.25072 0.17204 0.20501
 C14 C 0.24972 0.15887 0.21891
 C15 C 0.23422 0.16374 0.22903
 H16 H 0.26104 0.17307 0.19430
 H17 H 0.22877 0.15670 0.24101
 N18 N 0.22195 0.22747 0.17847
 N19 N 0.20739 0.23718 0.18350
 C20 C 0.20518 0.25136 0.17165
 C21 C 0.21901 0.25062 0.15846
 C22 C 0.22938 0.23524 0.16328
 H23 H 0.19420 0.26143 0.17254
 H24 H 0.24151 0.23008 0.15631
 H25 H 0.20243 0.20528 0.19745
 H26 H 0.21733 0.21976 0.21276
 N27 N 0.67726 0.72081 0.72561
 N28 N 0.68244 0.70630 0.73522
 C29 C 0.67075 0.70398 0.74949
 C30 C 0.65748 0.71780 0.74881
 C31 C 0.66212 0.72821 0.73341
 H32 H 0.67195 0.69316 0.75971
 H33 H 0.65507 0.74030 0.72820
 Cu34 Cu 0.70405 0.69194 0.72823
 Cu35 Cu 0.69073 0.72933 0.70397
 Cu36 Cu 0.73031 0.70513 0.69223
 N37 N 0.72628 0.67849 0.72141
 N38 N 0.73651 0.68378 0.70738
 C39 C 0.75081 0.67206 0.70555
 C40 C 0.74955 0.65864 0.71917
 C41 C 0.73378 0.66323 0.72899
 H42 H 0.76132 0.67328 0.69503
 H43 H 0.72803 0.65587 0.74064
 N44 N 0.72168 0.72704 0.67854
 N45 N 0.70627 0.73586 0.68263
 C46 C 0.70375 0.74966 0.67038
 C47 C 0.71836 0.74962 0.65811
 C48 C 0.72949 0.73514 0.66372
 H49 H 0.69231 0.75925 0.67052
 H50 H 0.74215 0.73065 0.65723
 H51 H 0.70220 0.70411 0.69688
 H52 H 0.71604 0.71927 0.71252
 N53 N 0.32170 0.77913 0.72640
 N54 N 0.31670 0.79391 0.73569
 C55 C 0.32845 0.79638 0.74988
 C56 C 0.34157 0.78239 0.74948
 C57 C 0.33678 0.77173 0.73431
 H58 H 0.32744 0.80749 0.75979
 H59 H 0.34358 0.75937 0.72942
 Cu60 Cu 0.29499 0.80801 0.72846
 Cu61 Cu 0.30814 0.77033 0.70488
 Cu62 Cu 0.26910 0.79517 0.69231
 N63 N 0.27327 0.82212 0.72122
 N64 N 0.26299 0.81673 0.70730
 C65 C 0.24868 0.82843 0.70541
 C66 C 0.24997 0.84206 0.71889
 C67 C 0.26587 0.83751 0.72865
 H68 H 0.23825 0.82707 0.69485
 H69 H 0.27158 0.84469 0.74040
 N70 N 0.27764 0.77301 0.67889
 N71 N 0.29258 0.76368 0.68357
 C72 C 0.29494 0.74961 0.67162
 C73 C 0.28081 0.75005 0.65876
 C74 C 0.27011 0.76508 0.66385
 H75 H 0.30607 0.73970 0.67230
 H76 H 0.25788 0.77008 0.65691
 H77 H 0.29716 0.79560 0.69728
 H78 H 0.28282 0.78077 0.71275
 N79 N 0.82128 0.27740 0.22632
 N80 N 0.81684 0.29263 0.23514
 C81 C 0.82879 0.29526 0.24913
 C82 C 0.84141 0.28076 0.24922
 C83 C 0.83609 0.26972 0.23445
 H84 H 0.82807 0.30667 0.25871
 H85 H 0.84254 0.25711 0.22973
 Cu86 Cu 0.79533 0.30694 0.22777
 Cu87 Cu 0.80771 0.26869 0.20477
 Cu88 Cu 0.76938 0.29428 0.19158
 N89 N 0.77380 0.32123 0.22048
 N90 N 0.76355 0.31599 0.20646
 C91 C 0.74939 0.32788 0.20453
 C92 C 0.75083 0.34136 0.21805
 C93 C 0.76652 0.33666 0.22791
 H94 H 0.73894 0.32687 0.19394
 H95 H 0.77207 0.34381 0.23978
 N96 N 0.77764 0.27191 0.17834
 N97 N 0.79222 0.26220 0.18335
 C98 C 0.79436 0.24797 0.17156
 C99 C 0.78048 0.24869 0.15843
 C100 C 0.77014 0.26410 0.16323
 H101 H 0.80527 0.23784 0.17250
 H102 H 0.75811 0.26936 0.15619
 H103 H 0.79740 0.29414 0.19676
 H104 H 0.78259 0.27984 0.21229
 N105 N 0.82194 0.72149 0.27408
 N106 N 0.81686 0.70690 0.26451
 C107 C 0.82879 0.70446 0.25046
 C108 C 0.84208 0.71829 0.25122
 C109 C 0.83723 0.72882 0.26646
 H110 H 0.82774 0.69357 0.24031
 H111 H 0.84428 0.74091 0.27170
 Cu112 Cu 0.79497 0.69277 0.27127
 Cu113 Cu 0.80828 0.73008 0.29557
 Cu114 Cu 0.76936 0.70501 0.30797
 N115 N 0.77339 0.67850 0.27869
 N116 N 0.76332 0.68354 0.29290
 C117 C 0.74920 0.67160 0.29491
 C118 C 0.75046 0.65826 0.28125
 C119 C 0.76603 0.66309 0.27122
 H120 H 0.73892 0.67245 0.30569
 H121 H 0.77146 0.65604 0.25924
 N122 N 0.77777 0.72712 0.32150
 N123 N 0.79264 0.73659 0.31686
 C124 C 0.79481 0.75072 0.32878
 C125 C 0.78061 0.75017 0.34158
 C126 C 0.77008 0.73499 0.33649
 H127 H 0.80585 0.76077 0.32809
 H128 H 0.75782 0.72990 0.34330
 H129 H 0.79738 0.70457 0.30267
 H130 H 0.78293 0.71970 0.28759
 N131 N 0.32238 0.22158 -0.22701
 N132 N 0.31794 0.20631 -0.23579
 C133 C 0.32995 0.20364 -0.24972
 C134 C 0.34263 0.21812 -0.24982
 C135 C 0.33727 0.22922 -0.23510
 H136 H 0.32924 0.19217 -0.25924
 H137 H 0.34370 0.24187 -0.23043
 Cu138 Cu 0.29634 0.19203 -0.22843
 Cu139 Cu 0.30866 0.23044 -0.20558
 Cu140 Cu 0.27016 0.20491 -0.19253
 N141 N 0.27467 0.17777 -0.22122
 N142 N 0.26436 0.18313 -0.20730
 C143 C 0.25008 0.17136 -0.20540
 C144 C 0.25147 0.15781 -0.21883
 C145 C 0.26730 0.16233 -0.22862
 H146 H 0.23955 0.17252 -0.19489
 H147 H 0.27284 0.15509 -0.24042
 N148 N 0.27835 0.22733 -0.17935
 N149 N 0.29299 0.23704 -0.18428
 C150 C 0.29508 0.25127 -0.17246
 C151 C 0.28109 0.25053 -0.15943
 C152 C 0.27075 0.23514 -0.16430
 H153 H 0.30599 0.26144 -0.17331
 H154 H 0.25873 0.22984 -0.15724
 H155 H 0.29823 0.20506 -0.19750
 H156 H 0.28358 0.21925 -0.21323
 N157 N 0.67842 0.27647 -0.22766
 N158 N 0.68416 0.29037 -0.23787
 C159 C 0.67277 0.29229 -0.25244
 C160 C 0.65892 0.27900 -0.25121
 C161 C 0.66304 0.26926 -0.23518
 H162 H 0.67426 0.30286 -0.26288
 H163 H 0.65570 0.25753 -0.22953
 Cu164 Cu 0.70552 0.30501 -0.23051
 Cu165 Cu 0.69171 0.26820 -0.20575
 Cu166 Cu 0.73021 0.29377 -0.19298
 N167 N 0.72704 0.31941 -0.22318
 N168 N 0.73655 0.31494 -0.20840
 C169 C 0.75046 0.32708 -0.20622
 C170 C 0.74972 0.33997 -0.22039
 C171 C 0.73462 0.33460 -0.23090
 H172 H 0.76032 0.32652 -0.19506
 H173 H 0.72945 0.34126 -0.24319
 N174 N 0.72160 0.27188 -0.17918
 N175 N 0.70705 0.26205 -0.18410
 C176 C 0.70504 0.24782 -0.17223
 C177 C 0.71893 0.24879 -0.15915
 C178 C 0.72913 0.26425 -0.16399
 H179 H 0.69419 0.23756 -0.17296
 H180 H 0.74136 0.26936 -0.15714
 H181 H 0.70235 0.29382 -0.19890
 H182 H 0.71723 0.27851 -0.21333
 N183 N 0.17830 0.77746 0.27334
 N184 N 0.18285 0.79258 0.26432
 C185 C 0.17090 0.79507 0.25030
 C186 C 0.15811 0.78073 0.25054
 C187 C 0.16332 0.76985 0.26542
 H188 H 0.17158 0.80638 0.24057
 H189 H 0.15680 0.75728 0.27020
 Cu190 Cu 0.20436 0.80696 0.27171
 Cu191 Cu 0.19220 0.76854 0.29459
 Cu192 Cu 0.23100 0.79382 0.30716
 N193 N 0.22598 0.82131 0.27884
 N194 N 0.23676 0.81557 0.29225
 C195 C 0.25121 0.82716 0.29382
 C196 C 0.24940 0.84116 0.28079
 C197 C 0.23309 0.83694 0.27158
 H198 H 0.26201 0.82560 0.30397
 H199 H 0.22707 0.84437 0.26013
 N200 N 0.22275 0.77147 0.32051
 N201 N 0.20804 0.76183 0.31567
 C202 C 0.20596 0.74757 0.32747
 C203 C 0.21996 0.74827 0.34043
 C204 C 0.23034 0.76363 0.33557
 H205 H 0.19485 0.73760 0.32688
 H206 H 0.24257 0.76869 0.34246
 H207 H 0.20289 0.79384 0.30262
 H208 H 0.21726 0.77965 0.28665
 N209 N 0.47090 0.42729 0.47575
 N210 N 0.45638 0.43253 0.48527
 C211 C 0.45388 0.42075 0.49947
 C212 C 0.46757 0.40735 0.49888
 C213 C 0.47810 0.41201 0.48355
 H214 H 0.44299 0.42199 0.50956
 H215 H 0.49027 0.40500 0.47852
 Cu216 Cu 0.44260 0.45458 0.47840
 Cu217 Cu 0.47973 0.44104 0.45429
 Cu218 Cu 0.45583 0.48110 0.44277
 N219 N 0.42882 0.47662 0.47152
 N220 N 0.43432 0.48716 0.45778
 C221 C 0.42267 0.50154 0.45602
 C222 C 0.40904 0.49996 0.46936
 C223 C 0.41342 0.48395 0.47894
 H224 H 0.42385 0.51219 0.44560
 H225 H 0.40604 0.47817 0.49056
 N226 N 0.47783 0.47251 0.42921
 N227 N 0.48651 0.45694 0.43317
 C228 C 0.50029 0.45446 0.42093
 C229 C 0.50040 0.46926 0.40881
 C230 C 0.48602 0.48045 0.41450
 H231 H 0.50973 0.44288 0.42094
 H232 H 0.48161 0.49322 0.40810
 H233 H 0.46998 0.46647 0.46281
 H234 H 0.45478 0.45284 0.44710
 N235 N -0.02683 -0.07152 0.97689
 N236 N -0.04138 -0.06638 0.98642
 C237 C -0.04380 -0.07824 1.00057
 C238 C -0.03001 -0.09153 0.99991
 C239 C -0.01951 -0.08675 0.98465
 H240 H -0.05476 -0.07721 1.01064
 H241 H -0.00751 -0.09389 0.97941
 Cu242 Cu -0.05584 -0.04480 0.97931
 Cu243 Cu -0.01843 -0.05823 0.95509
 Cu244 Cu -0.04306 -0.01910 0.94284
 N245 N -0.07061 -0.02390 0.97084
 N246 N -0.06566 -0.01406 0.95641
 C247 C -0.07791 -0.00030 0.95386
 C248 C -0.09132 -0.00151 0.96746
 C249 C -0.08621 -0.01673 0.97796
 H250 H -0.07680 0.01008 0.94317
 H251 H -0.09325 -0.02214 0.98995
 N252 N -0.02183 -0.02821 0.92853
 N253 N -0.01215 -0.04286 0.93350
 C254 C 0.00189 -0.04513 0.92154
 C255 C 0.00088 -0.03140 0.90828
 C256 C -0.01438 -0.02097 0.91309
 H257 H 0.01203 -0.05608 0.92227
 H258 H -0.01942 -0.00877 0.90606
 H259 H -0.02846 -0.03316 0.96331
 H260 H -0.04384 -0.04720 0.94806
 N261 N 1.02720 0.57137 0.97626
 N262 N 1.04187 0.56644 0.98571
 C263 C 1.04414 0.57823 0.99991
 C264 C 1.03015 0.59132 0.99937
 C265 C 1.01967 0.58645 0.98411
 H266 H 1.05516 0.57730 1.00990
 H267 H 1.00749 0.59336 0.97897
 Cu268 Cu 1.05663 0.54516 0.97841
 Cu269 Cu 1.01896 0.55795 0.95446
 Cu270 Cu 1.04459 0.51957 0.94158
 N271 N 1.07064 0.52334 0.97123
 N272 N 1.06585 0.51345 0.95680
 C273 C 1.07772 0.49928 0.95486
 C274 C 1.09074 0.50026 0.96884
 C275 C 1.08575 0.51576 0.97897
 H276 H 1.07681 0.48899 0.94409
 H277 H 1.09263 0.52119 0.99103
 N278 N 1.02262 0.52798 0.92794
 N279 N 1.01286 0.54257 0.93283
 C280 C 0.99881 0.54470 0.92085
 C281 C 0.99972 0.53077 0.90773
 C282 C 1.01504 0.52045 0.91273
 H283 H 0.98868 0.55562 0.92167
 H284 H 1.02035 0.50832 0.90583
 H285 H 1.02988 0.53270 0.96223
 H286 H 1.04451 0.54766 0.94710
 N287 N 0.52788 0.07125 0.47684
 N288 N 0.54185 0.06547 0.48685
 C289 C 0.54416 0.07704 0.50124
 C290 C 0.53096 0.09086 0.50017
 C291 C 0.52088 0.08672 0.48446
 H292 H 0.55481 0.07568 0.51159
 H293 H 0.50915 0.09423 0.47911
 Cu294 Cu 0.55585 0.04352 0.48003
 Cu295 Cu 0.51951 0.05806 0.45496
 Cu296 Cu 0.54445 0.01930 0.44199
 N297 N 0.57018 0.02221 0.47199
 N298 N 0.56563 0.01281 0.45716
 C299 C 0.57776 -0.00107 0.45473
 C300 C 0.59071 -0.00037 0.46879
 C301 C 0.58542 0.01464 0.47948
 H302 H 0.57726 -0.01080 0.44343
 H303 H 0.59209 0.01963 0.49184
 N304 N 0.52260 0.02806 0.42840
 N305 N 0.51316 0.04287 0.43328
 C306 C 0.49906 0.04520 0.42141
 C307 C 0.49957 0.03118 0.40837
 C308 C 0.51474 0.02059 0.41329
 H309 H 0.48913 0.05630 0.42228
 H310 H 0.51967 0.00826 0.40648
 H311 H 0.52938 0.03229 0.46247
 H312 H 0.54508 0.04719 0.44837
 N313 N -0.02850 0.07286 0.52373
 N314 N -0.04215 0.06695 0.51335
 C315 C -0.04368 0.07806 0.49851
 C316 C -0.03031 0.09179 0.49967
 C317 C -0.02093 0.08797 0.51592
 H318 H -0.05392 0.07638 0.48782
 H319 H -0.00970 0.09577 0.52191
 Cu320 Cu -0.05731 0.04605 0.52091
 Cu321 Cu -0.02243 0.06118 0.54719
 Cu322 Cu -0.04104 0.01729 0.55339
 N323 N -0.07085 0.02396 0.52817
 N324 N -0.06442 0.01276 0.54093
 C325 C -0.07601 -0.00168 0.54286
 C326 C -0.09058 0.00057 0.53066
 C327 C -0.08680 0.01705 0.52158
 H328 H -0.07390 -0.01295 0.55244
 H329 H -0.09482 0.02336 0.51070
 N330 N -0.02087 0.02721 0.56872
 N331 N -0.01393 0.04396 0.56647
 C332 C -0.00056 0.04671 0.57907
 C333 C 0.00095 0.03098 0.58992
 C334 C -0.01221 0.01892 0.58293
 H335 H 0.00738 0.05932 0.58028
 H336 H -0.01528 0.00510 0.58778
 H337 H -0.02857 0.03644 0.53554
 H338 H -0.04589 0.04495 0.55261
 N339 N 0.47279 0.57149 0.02351
 N340 N 0.45880 0.56583 0.01343
 C341 C 0.45667 0.57745 -0.00096
 C342 C 0.47000 0.59116 0.00020
 C343 C 0.47996 0.58692 0.01595
 H344 H 0.44605 0.57621 -0.01135
 H345 H 0.49171 0.59436 0.02139
 Cu346 Cu 0.44456 0.54413 0.02058
 Cu347 Cu 0.48089 0.55830 0.04556
 Cu348 Cu 0.45553 0.51949 0.05821
 N349 N 0.43030 0.52245 0.02772
 N350 N 0.43456 0.51302 0.04264
 C351 C 0.42244 0.49905 0.04475
 C352 C 0.40987 0.49969 0.03037
 C353 C 0.41532 0.51475 0.01982
 H354 H 0.42286 0.48909 0.05588
 H355 H 0.40870 0.51989 0.00749
 N356 N 0.47723 0.52828 0.07213
 N357 N 0.48685 0.54303 0.06734
 C358 C 0.50083 0.54528 0.07939
 C359 C 0.50003 0.53125 0.09244
 C360 C 0.48483 0.52076 0.08734
 H361 H 0.51092 0.55626 0.07858
 H362 H 0.47967 0.50849 0.09413
 H363 H 0.47089 0.53262 0.03802
 H364 H 0.45537 0.54746 0.05225
 N365 N 0.52796 -0.07172 0.02362
 N366 N 0.54278 -0.06681 0.01438
 C367 C 0.54524 -0.07863 0.00022
 C368 C 0.53120 -0.09172 0.00061
 C369 C 0.52052 -0.08683 0.01572
 H370 H 0.55629 -0.07764 -0.00974
 H371 H 0.50823 -0.09370 0.02066
 Cu372 Cu 0.55698 -0.04511 0.02165
 Cu373 Cu 0.51924 -0.05813 0.04515
 Cu374 Cu 0.54444 -0.01934 0.05804
 N375 N 0.57118 -0.02343 0.02896
 N376 N 0.56599 -0.01329 0.04308
 C377 C 0.57777 0.00099 0.04503
 C378 C 0.59113 -0.00022 0.03141
 C379 C 0.58648 -0.01594 0.02146
 H380 H 0.57674 0.01139 0.05570
 H381 H 0.59357 -0.02136 0.00951
 N382 N 0.52224 -0.02780 0.07139
 N383 N 0.51268 -0.04256 0.06650
 C384 C 0.49854 -0.04482 0.07834
 C385 C 0.49916 -0.03082 0.09140
 C386 C 0.51441 -0.02029 0.08649
 H387 H 0.48852 -0.05586 0.07748
 H388 H 0.51957 -0.00815 0.09349
 H389 H 0.52997 -0.03275 0.03745
 H390 H 0.54456 -0.04742 0.05282
 N391 N 1.02732 0.42841 0.52314
 N392 N 1.04193 0.43343 0.51363
 C393 C 1.04428 0.42157 0.49950
 C394 C 1.03035 0.40840 0.50015
 C395 C 1.01986 0.41323 0.51539
 H396 H 1.05519 0.42257 0.48937
 H397 H 1.00777 0.40617 0.52060
 Cu398 Cu 1.05631 0.45510 0.52059
 Cu399 Cu 1.01903 0.44182 0.54490
 Cu400 Cu 1.04486 0.48002 0.55804
 N401 N 1.07084 0.47640 0.52829
 N402 N 1.06626 0.48608 0.54293
 C403 C 1.07836 0.50004 0.54510
 C404 C 1.09133 0.49914 0.53105
 C405 C 1.08607 0.48390 0.52065
 H406 H 1.07762 0.51016 0.55604
 H407 H 1.09281 0.47861 0.50846
 N408 N 1.02274 0.47169 0.57153
 N409 N 1.01289 0.45717 0.56651
 C410 C 0.99873 0.45508 0.57837
 C411 C 0.99965 0.46895 0.59156
 C412 C 1.01510 0.47920 0.58671
 H413 H 0.98848 0.44426 0.57741
 H414 H 1.02046 0.49125 0.59372
 H415 H 1.02980 0.46724 0.53744
 H416 H 1.04470 0.45204 0.55201
 Si417 Si 0.37398 -0.00038 0.25011
 Si418 Si 0.12513 -0.00009 0.74923
 Si419 Si 0.62559 0.49938 0.25043
 Si420 Si 0.87422 0.49962 0.74969
 Si421 Si 0.24972 0.37569 -0.00070
 Si422 Si 0.75029 0.12395 -0.00044
 Si423 Si 0.24994 0.62456 0.50031
 Si424 Si 0.75024 0.87546 0.50013
 Si425 Si -0.00021 0.25044 0.37392
 Si426 Si -0.00019 0.74960 0.12526
 Si427 Si 0.50008 0.24967 0.62526
 Si428 Si 0.49987 0.75021 0.87483
 C429 C 0.11355 0.22807 0.28747
 C430 C 0.11846 0.24173 0.27457
 C431 C 0.13315 0.23889 0.26241
 C432 C 0.14332 0.22232 0.26289
 C433 C 0.13839 0.20866 0.27584
 C434 C 0.12365 0.21150 0.28796
 C435 C 0.09792 0.23110 0.30034
 C436 C 0.08518 0.21686 0.30390
 C437 C 0.07030 0.21981 0.31582
 C438 C 0.06789 0.23704 0.32451
 C439 C 0.08076 0.25121 0.32106
 C440 C 0.09557 0.24829 0.30907
 C441 C 0.05183 0.24033 0.33685
 C442 C 0.04265 0.25747 0.33666
 C443 C 0.02735 0.26047 0.34796
 C444 C 0.02078 0.24639 0.35956
 C445 C 0.02992 0.22930 0.35990
 C446 C 0.04534 0.22631 0.34870
 H447 H 0.11077 0.25456 0.27373
 H448 H 0.13651 0.24977 0.25272
 H449 H 0.14579 0.19570 0.27662
 H450 H 0.12029 0.20080 0.29788
 H451 H 0.08650 0.20355 0.29717
 H452 H 0.06047 0.20870 0.31791
 H453 H 0.07950 0.26454 0.32777
 H454 H 0.10533 0.25943 0.30678
 H455 H 0.04706 0.26847 0.32750
 H456 H 0.02043 0.27375 0.34745
 H457 H 0.02514 0.21818 0.36869
 H458 H 0.05224 0.21304 0.34938
 C459 C 0.61220 0.72678 0.78646
 C460 C 0.61632 0.73984 0.77269
 C461 C 0.63096 0.73692 0.76049
 C462 C 0.64188 0.72088 0.76178
 C463 C 0.63774 0.70783 0.77560
 C464 C 0.62306 0.71074 0.78778
 C465 C 0.59661 0.72990 0.79938
 C466 C 0.58468 0.71532 0.80418
 C467 C 0.56982 0.71836 0.81611
 C468 C 0.56661 0.73603 0.82356
 C469 C 0.57869 0.75056 0.81890
 C470 C 0.59349 0.74754 0.80692
 C471 C 0.55061 0.73937 0.83596
 C472 C 0.54054 0.75594 0.83475
 C473 C 0.52553 0.75914 0.84639
 C474 C 0.52006 0.74580 0.85935
 C475 C 0.53018 0.72930 0.86072
 C476 C 0.54529 0.72610 0.84914
 H477 H 0.60805 0.75223 0.77119
 H478 H 0.63367 0.74733 0.75011
 H479 H 0.64574 0.69529 0.77707
 H480 H 0.62034 0.70053 0.79839
 H481 H 0.58661 0.70164 0.79839
 H482 H 0.56063 0.70694 0.81919
 H483 H 0.57683 0.76425 0.82467
 H484 H 0.60263 0.75897 0.80371
 H485 H 0.54416 0.76642 0.82469
 H486 H 0.51847 0.77223 0.84535
 H487 H 0.52665 0.71888 0.87083
 H488 H 0.55297 0.71335 0.85070
 C489 C 0.38667 0.77344 0.78746
 C490 C 0.38433 0.76193 0.77201
 C491 C 0.36974 0.76482 0.75973
 C492 C 0.35712 0.77933 0.76254
 C493 C 0.35950 0.79086 0.77800
 C494 C 0.37406 0.78793 0.79030
 C495 C 0.40222 0.77039 0.80052
 C496 C 0.41156 0.78549 0.80845
 C497 C 0.42617 0.78265 0.82070
 C498 C 0.43195 0.76463 0.82524
 C499 C 0.42261 0.74952 0.81730
 C500 C 0.40789 0.75236 0.80516
 C501 C 0.44784 0.76158 0.83790
 C502 C 0.44794 0.74661 0.85032
 C503 C 0.46321 0.74335 0.86166
 C504 C 0.47877 0.75490 0.86073
 C505 C 0.47828 0.77040 0.84910
 C506 C 0.46313 0.77358 0.83762
 H507 H 0.39394 0.75080 0.76923
 H508 H 0.36851 0.75566 0.74800
 H509 H 0.35010 0.80213 0.78076
 H510 H 0.37528 0.79690 0.80220
 H511 H 0.40773 0.79956 0.80500
 H512 H 0.43286 0.79462 0.82671
 H513 H 0.42683 0.73545 0.82025
 H514 H 0.40087 0.74041 0.79950
 H515 H 0.43615 0.73745 0.85139
 H516 H 0.46264 0.73185 0.87115
 H517 H 0.48953 0.78020 0.84887
 H518 H 0.46358 0.78530 0.82832
 C519 C -0.11390 0.27194 0.28622
 C520 C -0.11891 0.25836 0.27327
 C521 C -0.13349 0.26131 0.26104
 C522 C -0.14381 0.27783 0.26157
 C523 C -0.13893 0.29132 0.27476
 C524 C -0.12411 0.28847 0.28679
 C525 C -0.09798 0.26893 0.29890
 C526 C -0.09807 0.27611 0.31694
 C527 C -0.08299 0.27345 0.32868
 C528 C -0.06752 0.26325 0.32282
 C529 C -0.06759 0.25585 0.30487
 C530 C -0.08248 0.25883 0.29302
 C531 C -0.05135 0.26043 0.33523
 C532 C -0.03342 0.25914 0.32790
 C533 C -0.01828 0.25596 0.33936
 C534 C -0.02054 0.25459 0.35853
 C535 C -0.03835 0.25603 0.36596
 C536 C -0.05361 0.25877 0.35446
 H537 H -0.11168 0.24527 0.27267
 H538 H -0.13673 0.25036 0.25141
 H539 H -0.14623 0.30433 0.27571
 H540 H -0.12049 0.29941 0.29632
 H541 H -0.10986 0.28371 0.32210
 H542 H -0.08341 0.27960 0.34229
 H543 H -0.05617 0.24759 0.29990
 H544 H -0.08169 0.25334 0.27916
 H545 H -0.03096 0.26068 0.31325
 H546 H -0.00490 0.25457 0.33301
 H547 H -0.04063 0.25446 0.38061
 H548 H -0.06720 0.25920 0.36065
 C549 C -0.11208 0.72717 0.21416
 C550 C -0.11686 0.74061 0.22732
 C551 C -0.13169 0.73773 0.23931
 C552 C -0.14214 0.72132 0.23846
 C553 C -0.13735 0.70788 0.22527
 C554 C -0.12251 0.71078 0.21326
 C555 C -0.09626 0.73026 0.20146
 C556 C -0.09741 0.72505 0.18281
 C557 C -0.08255 0.72804 0.17086
 C558 C -0.06619 0.73630 0.17730
 C559 C -0.06504 0.74148 0.19595
 C560 C -0.07990 0.73849 0.20789
 C561 C -0.05039 0.73948 0.16462
 C562 C -0.04004 0.75594 0.16561
 C563 C -0.02511 0.75886 0.15375
 C564 C -0.02034 0.74548 0.14061
 C565 C -0.03049 0.72898 0.13965
 C566 C -0.04543 0.72603 0.15150
 H567 H -0.10928 0.75352 0.22817
 H568 H -0.13501 0.74851 0.24910
 H569 H -0.14490 0.69500 0.22426
 H570 H -0.11901 0.70005 0.20344
 H571 H -0.10993 0.71894 0.17737
 H572 H -0.08396 0.72415 0.15651
 H573 H -0.05252 0.74759 0.20140
 H574 H -0.07846 0.74237 0.22225
 H575 H -0.04360 0.76664 0.17543
 H576 H -0.01731 0.77163 0.15477
 H577 H -0.02687 0.71828 0.12989
 H578 H -0.05292 0.71308 0.15062
 C579 C 0.38740 0.22682 0.71313
 C580 C 0.38278 0.24022 0.72638
 C581 C 0.36813 0.23734 0.73860
 C582 C 0.35749 0.22100 0.73785
 C583 C 0.36210 0.20764 0.72443
 C584 C 0.37688 0.21049 0.71232
 C585 C 0.40317 0.22985 0.70029
 C586 C 0.40223 0.22395 0.68182
 C587 C 0.41705 0.22692 0.66978
 C588 C 0.43311 0.23594 0.67591
 C589 C 0.43408 0.24178 0.69437
 C590 C 0.41933 0.23874 0.70642
 C591 C 0.44882 0.23928 0.66315
 C592 C 0.45835 0.25624 0.66352
 C593 C 0.47346 0.25925 0.65193
 C594 C 0.47939 0.24536 0.63984
 C595 C 0.46975 0.22854 0.63911
 C596 C 0.45458 0.22552 0.65069
 H597 H 0.39035 0.25313 0.72716
 H598 H 0.36514 0.24818 0.74842
 H599 H 0.35457 0.19477 0.72330
 H600 H 0.38023 0.19972 0.70250
 H601 H 0.38991 0.21732 0.67655
 H602 H 0.41581 0.22245 0.65557
 H603 H 0.44640 0.24849 0.69959
 H604 H 0.42070 0.24314 0.72064
 H605 H 0.45406 0.26723 0.67273
 H606 H 0.48066 0.27239 0.65254
 H607 H 0.47398 0.21767 0.62978
 H608 H 0.44758 0.21227 0.65018
 C609 C 0.61398 0.27029 0.71223
 C610 C 0.61457 0.26126 0.72934
 C611 C 0.62947 0.26393 0.74129
 C612 C 0.64400 0.27608 0.73659
 C613 C 0.64319 0.28524 0.71940
 C614 C 0.62846 0.28219 0.70730
 C615 C 0.59818 0.26738 0.69965
 C616 C 0.60106 0.26179 0.68134
 C617 C 0.58605 0.25857 0.66962
 C618 C 0.56783 0.26126 0.67586
 C619 C 0.56511 0.26723 0.69417
 C620 C 0.58009 0.27004 0.70597
 C621 C 0.55171 0.25785 0.66346
 C622 C 0.53482 0.25150 0.67073
 C623 C 0.51947 0.24906 0.65934
 C624 C 0.52067 0.25266 0.64038
 C625 C 0.53764 0.25809 0.63286
 C626 C 0.55294 0.26097 0.64429
 H627 H 0.60353 0.25198 0.73339
 H628 H 0.62925 0.25669 0.75434
 H629 H 0.65401 0.29457 0.71500
 H630 H 0.62822 0.28935 0.69416
 H631 H 0.61493 0.25952 0.67624
 H632 H 0.58878 0.25367 0.65579
 H633 H 0.55139 0.26997 0.69941
 H634 H 0.57759 0.27457 0.71999
 H635 H 0.53342 0.24825 0.68524
 H636 H 0.50674 0.24418 0.66545
 H637 H 0.53896 0.26051 0.61816
 H638 H 0.56559 0.26598 0.63811
 C639 C 0.11239 0.77164 0.21337
 C640 C 0.11635 0.75886 0.22743
 C641 C 0.13115 0.76180 0.23943
 C642 C 0.14241 0.77759 0.23768
 C643 C 0.13847 0.79033 0.22353
 C644 C 0.12364 0.78740 0.21154
 C645 C 0.09652 0.76859 0.20076
 C646 C 0.08502 0.78339 0.19568
 C647 C 0.06996 0.78050 0.18398
 C648 C 0.06609 0.76274 0.17703
 C649 C 0.07764 0.74795 0.18208
 C650 C 0.09267 0.75084 0.19383
 C651 C 0.05010 0.75967 0.16455
 C652 C 0.03925 0.74357 0.16608
 C653 C 0.02428 0.74068 0.15426
 C654 C 0.01991 0.75377 0.14068
 C655 C 0.03049 0.76996 0.13925
 C656 C 0.04551 0.77284 0.15100
 H657 H 0.10780 0.74670 0.22934
 H658 H 0.13364 0.75162 0.25009
 H659 H 0.14677 0.80263 0.22163
 H660 H 0.12108 0.79738 0.20068
 H661 H 0.08747 0.79717 0.20103
 H662 H 0.06117 0.79213 0.18062
 H663 H 0.07523 0.73416 0.17672
 H664 H 0.10144 0.73921 0.19728
 H665 H 0.04218 0.73332 0.17658
 H666 H 0.01609 0.72821 0.15574
 H667 H 0.02726 0.78043 0.12911
 H668 H 0.05367 0.78530 0.14933
 C669 C 0.28659 0.11298 0.22838
 C670 C 0.28772 0.12337 0.21203
 C671 C 0.27580 0.13825 0.20898
 C672 C 0.26242 0.14307 0.22219
 C673 C 0.26130 0.13262 0.23855
 C674 C 0.27328 0.11778 0.24161
 C675 C 0.29926 0.09718 0.23157
 C676 C 0.30756 0.09453 0.24889
 C677 C 0.31961 0.07972 0.25183
 C678 C 0.32353 0.06713 0.23756
 C679 C 0.31511 0.06976 0.22027
 C680 C 0.30318 0.08464 0.21729
 C681 C 0.33621 0.05125 0.24070
 C682 C 0.34816 0.04519 0.22664
 C683 C 0.35962 0.02989 0.22937
 C684 C 0.35953 0.02051 0.24629
 C685 C 0.34791 0.02664 0.26047
 C686 C 0.33627 0.04180 0.25769
 H687 H 0.29799 0.12011 0.20167
 H688 H 0.27709 0.14586 0.19619
 H689 H 0.25126 0.13590 0.24909
 H690 H 0.27196 0.10988 0.25426
 H691 H 0.30497 0.10411 0.26008
 H692 H 0.32606 0.07830 0.26523
 H693 H 0.31749 0.06013 0.20908
 H694 H 0.29676 0.08618 0.20389
 H695 H 0.34871 0.05231 0.21350
 H696 H 0.36835 0.02535 0.21816
 H697 H 0.34757 0.01946 0.27359
 H698 H 0.32705 0.04585 0.26872
 C699 C 0.78598 0.61232 0.72826
 C700 C 0.78741 0.62303 0.71213
 C701 C 0.77563 0.63804 0.70920
 C702 C 0.76212 0.64273 0.72233
 C703 C 0.76073 0.63200 0.73848
 C704 C 0.77251 0.61698 0.74140
 C705 C 0.79851 0.59636 0.73135
 C706 C 0.79176 0.57977 0.73894
 C707 C 0.80354 0.56473 0.74178
 C708 C 0.82233 0.56595 0.73710
 C709 C 0.82908 0.58255 0.72953
 C710 C 0.81730 0.59758 0.72668
 C711 C 0.83486 0.54997 0.74007
 C712 C 0.84833 0.54544 0.72686
 C713 C 0.86017 0.53045 0.72967
 C714 C 0.85883 0.51980 0.74578
 C715 C 0.84527 0.52409 0.75888
 C716 C 0.83342 0.53908 0.75610
 H717 H 0.79747 0.61962 0.70162
 H718 H 0.77704 0.64580 0.69651
 H719 H 0.75066 0.63524 0.74900
 H720 H 0.77124 0.60915 0.75409
 H721 H 0.77729 0.57830 0.74241
 H722 H 0.79787 0.55203 0.74737
 H723 H 0.84354 0.58402 0.72605
 H724 H 0.82296 0.61028 0.72108
 H725 H 0.84955 0.55333 0.71420
 H726 H 0.87025 0.52720 0.71916
 H727 H 0.84391 0.51588 0.77132
 H728 H 0.82329 0.54230 0.76661
 C729 C 0.78612 0.38654 0.77068
 C730 C 0.77125 0.38320 0.75869
 C731 C 0.75946 0.36813 0.76157
 C732 C 0.76225 0.35600 0.77651
 C733 C 0.77716 0.35939 0.78849
 C734 C 0.78892 0.37446 0.78561
 C735 C 0.79866 0.40256 0.76765
 C736 C 0.81776 0.40080 0.77057
 C737 C 0.82954 0.41589 0.76784
 C738 C 0.82249 0.43304 0.76203
 C739 C 0.80342 0.43480 0.75904
 C740 C 0.79162 0.41974 0.76185
 C741 C 0.83501 0.44905 0.75913
 C742 C 0.83290 0.46058 0.74365
 C743 C 0.84476 0.47560 0.74090
 C744 C 0.85888 0.47936 0.75357
 C745 C 0.86090 0.46804 0.76915
 C746 C 0.84914 0.45293 0.77185
 H747 H 0.76884 0.39211 0.74692
 H748 H 0.74820 0.36606 0.75200
 H749 H 0.77984 0.35048 0.80017
 H750 H 0.80010 0.37679 0.79526
 H751 H 0.82366 0.38768 0.77473
 H752 H 0.84422 0.41407 0.76999
 H753 H 0.79758 0.44794 0.75482
 H754 H 0.77695 0.42163 0.75978
 H755 H 0.82223 0.45785 0.73355
 H756 H 0.84293 0.48429 0.72885
 H757 H 0.87149 0.47080 0.77928
 H758 H 0.85090 0.44444 0.78405
 C759 C 0.28565 -0.11365 0.27123
 C760 C 0.26823 -0.11416 0.26283
 C761 C 0.25636 -0.12914 0.26578
 C762 C 0.26146 -0.14381 0.27759
 C763 C 0.27895 -0.14304 0.28613
 C764 C 0.29096 -0.12825 0.28280
 C765 C 0.29823 -0.09785 0.26800
 C766 C 0.31638 -0.10084 0.26198
 C767 C 0.32819 -0.08587 0.25872
 C768 C 0.32221 -0.06757 0.26179
 C769 C 0.30403 -0.06473 0.26809
 C770 C 0.29213 -0.07968 0.27096
 C771 C 0.33481 -0.05154 0.25850
 C772 C 0.32778 -0.03445 0.25238
 C773 C 0.33943 -0.01923 0.24991
 C774 C 0.35841 -0.02078 0.25328
 C775 C 0.36564 -0.03795 0.25861
 C776 C 0.35396 -0.05310 0.26149
 H777 H 0.26390 -0.10302 0.25381
 H778 H 0.24306 -0.12890 0.25902
 H779 H 0.28368 -0.15397 0.29515
 H780 H 0.30434 -0.12808 0.28947
 H781 H 0.32130 -0.11477 0.25948
 H782 H 0.34191 -0.08867 0.25354
 H783 H 0.29901 -0.05094 0.27107
 H784 H 0.27822 -0.07710 0.27582
 H785 H 0.31326 -0.03280 0.24930
 H786 H 0.33351 -0.00635 0.24516
 H787 H 0.38033 -0.03958 0.26081
 H788 H 0.35995 -0.06592 0.26634
 C789 C 0.21363 -0.11266 0.72795
 C790 C 0.20965 -0.12600 0.71446
 C791 C 0.22161 -0.14087 0.71144
 C792 C 0.23788 -0.14290 0.72194
 C793 C 0.24172 -0.12948 0.73554
 C794 C 0.22980 -0.11455 0.73844
 C795 C 0.20096 -0.09680 0.73102
 C796 C 0.20800 -0.07887 0.73372
 C797 C 0.19607 -0.06391 0.73643
 C798 C 0.17685 -0.06657 0.73658
 C799 C 0.16982 -0.08452 0.73396
 C800 C 0.18174 -0.09946 0.73117
 C801 C 0.16418 -0.05067 0.73947
 C802 C 0.14855 -0.05248 0.75085
 C803 C 0.13675 -0.03746 0.75372
 C804 C 0.14037 -0.02039 0.74526
 C805 C 0.15579 -0.01855 0.73373
 C806 C 0.16764 -0.03354 0.73090
 H807 H 0.19737 -0.12481 0.70603
 H808 H 0.21787 -0.15072 0.70087
 H809 H 0.25399 -0.13025 0.74399
 H810 H 0.23314 -0.10457 0.74908
 H811 H 0.22274 -0.07636 0.73350
 H812 H 0.20191 -0.05027 0.73859
 H813 H 0.15507 -0.08698 0.73384
 H814 H 0.17593 -0.11315 0.72930
 H815 H 0.14560 -0.06545 0.75776
 H816 H 0.12482 -0.03925 0.76253
 H817 H 0.15872 -0.00549 0.72698
 H818 H 0.17940 -0.03179 0.72184
 C819 C 0.71455 0.38767 0.22729
 C820 C 0.70873 0.37250 0.21664
 C821 C 0.72050 0.35750 0.21361
 C822 C 0.73833 0.35727 0.22126
 C823 C 0.74412 0.37242 0.23197
 C824 C 0.73238 0.38747 0.23491
 C825 C 0.70206 0.40361 0.23049
 C826 C 0.70878 0.42184 0.22948
 C827 C 0.69703 0.43685 0.23259
 C828 C 0.67834 0.43393 0.23690
 C829 C 0.67162 0.41570 0.23790
 C830 C 0.68334 0.40070 0.23467
 C831 C 0.66589 0.44981 0.24043
 C832 C 0.65331 0.44927 0.25519
 C833 C 0.64138 0.46409 0.25840
 C834 C 0.64157 0.47957 0.24673
 C835 C 0.65441 0.48037 0.23228
 C836 C 0.66645 0.46560 0.22911
 H837 H 0.69512 0.37234 0.21047
 H838 H 0.71552 0.34602 0.20542
 H839 H 0.75778 0.37279 0.23798
 H840 H 0.73716 0.39888 0.24334
 H841 H 0.72311 0.42450 0.22610
 H842 H 0.70261 0.45075 0.23186
 H843 H 0.65724 0.41304 0.24101
 H844 H 0.67782 0.38680 0.23569
 H845 H 0.65288 0.43746 0.26440
 H846 H 0.63216 0.46338 0.27010
 H847 H 0.65500 0.49237 0.22332
 H848 H 0.67597 0.46640 0.21762
 C849 C 0.71387 0.61206 0.27216
 C850 C 0.73156 0.61231 0.26422
 C851 C 0.74342 0.62732 0.26711
 C852 C 0.73788 0.64235 0.27810
 C853 C 0.72019 0.64205 0.28608
 C854 C 0.70831 0.62710 0.28310
 C855 C 0.70124 0.59617 0.26906
 C856 C 0.68241 0.59914 0.26545
 C857 C 0.67051 0.58419 0.26255
 C858 C 0.67715 0.56594 0.26329
 C859 C 0.69597 0.56295 0.26693
 C860 C 0.70790 0.57791 0.26973
 C861 C 0.66451 0.55007 0.26025
 C862 C 0.66553 0.53427 0.27154
 C863 C 0.65366 0.51930 0.26861
 C864 C 0.64064 0.51983 0.25433
 C865 C 0.63962 0.53549 0.24296
 C866 C 0.65139 0.55054 0.24596
 H867 H 0.73616 0.60099 0.25559
 H868 H 0.75698 0.62701 0.26086
 H869 H 0.71539 0.65343 0.29451
 H870 H 0.69482 0.62720 0.28955
 H871 H 0.67692 0.61306 0.26469
 H872 H 0.65605 0.58689 0.25992
 H873 H 0.70150 0.54904 0.26741
 H874 H 0.72230 0.57519 0.27265
 H875 H 0.67538 0.53358 0.28275
 H876 H 0.65469 0.50725 0.27746
 H877 H 0.62990 0.53612 0.23167
 H878 H 0.65047 0.56243 0.23689
 C879 C 0.21448 0.11192 0.77209
 C880 C 0.20885 0.12728 0.78255
 C881 C 0.22085 0.14215 0.78549
 C882 C 0.23873 0.14205 0.77796
 C883 C 0.24433 0.12672 0.76742
 C884 C 0.23235 0.11180 0.76456
 C885 C 0.20173 0.09610 0.76906
 C886 C 0.20820 0.07779 0.77012
 C887 C 0.19619 0.06289 0.76730
 C888 C 0.17746 0.06598 0.76330
 C889 C 0.17100 0.08430 0.76227
 C890 C 0.18299 0.09918 0.76514
 C891 C 0.16473 0.05018 0.76006
 C892 C 0.15155 0.05098 0.74586
 C893 C 0.13967 0.03608 0.74265
 C894 C 0.14055 0.02015 0.75371
 C895 C 0.15387 0.01920 0.76771
 C896 C 0.16579 0.03409 0.77092
 H897 H 0.19522 0.12770 0.78867
 H898 H 0.21599 0.15377 0.79354
 H899 H 0.25803 0.12611 0.76150
 H900 H 0.23701 0.10024 0.75627
 H901 H 0.22253 0.07497 0.77331
 H902 H 0.20162 0.04895 0.76800
 H903 H 0.15661 0.08712 0.75939
 H904 H 0.17764 0.11313 0.76406
 H905 H 0.15068 0.06299 0.73696
 H906 H 0.13006 0.03706 0.73132
 H907 H 0.15536 0.00685 0.77598
 H908 H 0.17579 0.03304 0.78198
 C909 C 0.22779 0.28798 0.11272
 C910 C 0.23856 0.27192 0.11463
 C911 C 0.23574 0.25983 0.12944
 C912 C 0.22204 0.26346 0.14270
 C913 C 0.21126 0.27953 0.14075
 C914 C 0.21411 0.29163 0.12598
 C915 C 0.23077 0.30086 0.09698
 C916 C 0.21572 0.30954 0.08832
 C917 C 0.21851 0.32171 0.07359
 C918 C 0.23641 0.32538 0.06701
 C919 C 0.25146 0.31667 0.07565
 C920 C 0.24868 0.30462 0.09050
 C921 C 0.23937 0.33803 0.05105
 C922 C 0.25490 0.34973 0.05032
 C923 C 0.25796 0.36115 0.03504
 C924 C 0.24560 0.36110 0.02016
 C925 C 0.22971 0.35007 0.02120
 C926 C 0.22673 0.33848 0.03634
 H927 H 0.24903 0.26854 0.10452
 H928 H 0.24428 0.24760 0.13032
 H929 H 0.20065 0.28294 0.15067
 H930 H 0.20575 0.30401 0.12510
 H931 H 0.20173 0.30677 0.09279
 H932 H 0.20661 0.32833 0.06745
 H933 H 0.26541 0.31895 0.07081
 H934 H 0.26060 0.29837 0.09699
 H935 H 0.26464 0.35019 0.06164
 H936 H 0.26998 0.36999 0.03504
 H937 H 0.21945 0.35044 0.01040
 H938 H 0.21462 0.32969 0.03636
 C939 C 0.72728 0.78660 0.61255
 C940 C 0.70929 0.78241 0.61837
 C941 C 0.70639 0.77052 0.63332
 C942 C 0.72143 0.76232 0.64241
 C943 C 0.73943 0.76638 0.63640
 C944 C 0.74233 0.77859 0.62171
 C945 C 0.73034 0.79934 0.59693
 C946 C 0.74105 0.81533 0.59925
 C947 C 0.74380 0.82752 0.58452
 C948 C 0.73632 0.82370 0.56696
 C949 C 0.72575 0.80744 0.56475
 C950 C 0.72259 0.79555 0.57963
 C951 C 0.73961 0.83648 0.55107
 C952 C 0.72657 0.83810 0.53675
 C953 C 0.72992 0.84963 0.52163
 C954 C 0.74609 0.86026 0.52065
 C955 C 0.75882 0.85922 0.53517
 C956 C 0.75581 0.84722 0.55000
 H957 H 0.69751 0.78853 0.61147
 H958 H 0.69237 0.76754 0.63759
 H959 H 0.75127 0.76034 0.64323
 H960 H 0.75631 0.78163 0.61734
 H961 H 0.74701 0.81854 0.61258
 H962 H 0.75161 0.84003 0.58704
 H963 H 0.72010 0.80367 0.55146
 H964 H 0.71439 0.78317 0.57757
 H965 H 0.71361 0.83066 0.53724
 H966 H 0.71955 0.85058 0.51097
 H967 H 0.77121 0.86749 0.53519
 H968 H 0.76639 0.84627 0.56049
 C969 C 0.77142 0.78722 0.38734
 C970 C 0.78827 0.78743 0.37773
 C971 C 0.79123 0.77546 0.36289
 C972 C 0.77743 0.76294 0.35732
 C973 C 0.76058 0.76275 0.36695
 C974 C 0.75761 0.77476 0.38177
 C975 C 0.76829 0.79994 0.40312
 C976 C 0.75123 0.80891 0.40535
 C977 C 0.74831 0.82092 0.42018
 C978 C 0.76239 0.82422 0.43311
 C979 C 0.77944 0.81523 0.43089
 C980 C 0.78236 0.80323 0.41605
 C981 C 0.75931 0.83694 0.44891
 C982 C 0.77330 0.84915 0.45464
 C983 C 0.77056 0.86084 0.46974
 C984 C 0.75386 0.86045 0.47952
 C985 C 0.73971 0.84864 0.47356
 C986 C 0.74241 0.83693 0.45845
 H987 H 0.79910 0.79702 0.38157
 H988 H 0.80442 0.77598 0.35592
 H989 H 0.74957 0.75342 0.36305
 H990 H 0.74456 0.77412 0.38904
 H991 H 0.74021 0.80686 0.39546
 H992 H 0.73512 0.82785 0.42136
 H993 H 0.79044 0.81723 0.44079
 H994 H 0.79555 0.79630 0.41487
 H995 H 0.78631 0.84980 0.44731
 H996 H 0.78156 0.87016 0.47361
 H997 H 0.72651 0.84844 0.48049
 H998 H 0.73137 0.82767 0.45442
 C999 C 0.27212 0.28730 -0.11338
 C1000 C 0.28857 0.28819 -0.12361
 C1001 C 0.29148 0.27629 -0.13853
 C1002 C 0.27799 0.26322 -0.14360
 C1003 C 0.26152 0.26238 -0.13334
 C1004 C 0.25864 0.27426 -0.11841
 C1005 C 0.26902 0.29996 -0.09754
 C1006 C 0.26083 0.29341 -0.08121
 C1007 C 0.25787 0.30533 -0.06632
 C1008 C 0.26298 0.32408 -0.06743
 C1009 C 0.27118 0.33062 -0.08377
 C1010 C 0.27418 0.31869 -0.09865
 C1011 C 0.25973 0.33675 -0.05161
 C1012 C 0.27283 0.35030 -0.04684
 C1013 C 0.26979 0.36207 -0.03185
 C1014 C 0.25371 0.36042 -0.02117
 C1015 C 0.24047 0.34716 -0.02616
 C1016 C 0.24344 0.33543 -0.04118
 H1017 H 0.29933 0.29791 -0.11990
 H1018 H 0.30441 0.27727 -0.14592
 H1019 H 0.25072 0.25267 -0.13687
 H1020 H 0.24571 0.27342 -0.11095
 H1021 H 0.25696 0.27899 -0.07983
 H1022 H 0.25180 0.29978 -0.05382
 H1023 H 0.27500 0.34505 -0.08519
 H1024 H 0.28027 0.32420 -0.11115
 H1025 H 0.28556 0.35165 -0.05456
 H1026 H 0.28007 0.37245 -0.02876
 H1027 H 0.22764 0.34597 -0.01870
 H1028 H 0.23284 0.32549 -0.04477
 C1029 C 0.72882 0.21175 -0.11361
 C1030 C 0.73613 0.22976 -0.11352
 C1031 C 0.73298 0.24174 -0.12833
 C1032 C 0.72229 0.23603 -0.14348
 C1033 C 0.71490 0.21802 -0.14352
 C1034 C 0.71823 0.20596 -0.12878
 C1035 C 0.73218 0.19911 -0.09787
 C1036 C 0.73774 0.18074 -0.10088
 C1037 C 0.74120 0.16894 -0.08597
 C1038 C 0.73891 0.17516 -0.06771
 C1039 C 0.73310 0.19353 -0.06480
 C1040 C 0.72992 0.20538 -0.07969
 C1041 C 0.74243 0.16262 -0.05175
 C1042 C 0.74957 0.16966 -0.03510
 C1043 C 0.75205 0.15813 -0.01983
 C1044 C 0.74760 0.13928 -0.02090
 C1045 C 0.74138 0.13196 -0.03767
 C1046 C 0.73853 0.14354 -0.05288
 H1047 H 0.74445 0.23451 -0.10204
 H1048 H 0.73877 0.25555 -0.12778
 H1049 H 0.70672 0.21313 -0.15502
 H1050 H 0.71234 0.19218 -0.12912
 H1051 H 0.73975 0.17563 -0.11478
 H1052 H 0.74595 0.15502 -0.08880
 H1053 H 0.73074 0.19873 -0.05100
 H1054 H 0.72540 0.21942 -0.07701
 H1055 H 0.75337 0.18410 -0.03386
 H1056 H 0.75759 0.16400 -0.00728
 H1057 H 0.73827 0.11734 -0.03888
 H1058 H 0.73289 0.13758 -0.06536
 C1059 C 0.22852 0.71127 0.38632
 C1060 C 0.21721 0.70604 0.37146
 C1061 C 0.21444 0.71804 0.35659
 C1062 C 0.22298 0.73553 0.35619
 C1063 C 0.23435 0.74073 0.37103
 C1064 C 0.23705 0.72875 0.38595
 C1065 C 0.23134 0.69855 0.40216
 C1066 C 0.23125 0.70535 0.42032
 C1067 C 0.23375 0.69337 0.43525
 C1068 C 0.23645 0.67432 0.43235
 C1069 C 0.23662 0.66752 0.41419
 C1070 C 0.23405 0.67951 0.39926
 C1071 C 0.23914 0.66166 0.44826
 C1072 C 0.25248 0.64757 0.44764
 C1073 C 0.25546 0.63617 0.46296
 C1074 C 0.24530 0.63876 0.47924
 C1075 C 0.23136 0.65221 0.47952
 C1076 C 0.22842 0.66366 0.46428
 H1077 H 0.21029 0.69274 0.37145
 H1078 H 0.20571 0.71351 0.34537
 H1079 H 0.24103 0.75413 0.37128
 H1080 H 0.24597 0.73310 0.39712
 H1081 H 0.22902 0.71993 0.42301
 H1082 H 0.23377 0.69904 0.44908
 H1083 H 0.23852 0.65290 0.41154
 H1084 H 0.23437 0.67390 0.38541
 H1085 H 0.26088 0.64558 0.43544
 H1086 H 0.26570 0.62538 0.46192
 H1087 H 0.22266 0.65397 0.49146
 H1088 H 0.21764 0.67402 0.46498
 C1089 C 0.27251 0.71332 0.61260
 C1090 C 0.28955 0.71387 0.62182
 C1091 C 0.29223 0.72574 0.63681
 C1092 C 0.27793 0.73737 0.64292
 C1093 C 0.26088 0.73680 0.63370
 C1094 C 0.25819 0.72491 0.61873
 C1095 C 0.26966 0.70074 0.59664
 C1096 C 0.25957 0.70665 0.58116
 C1097 C 0.25675 0.69479 0.56622
 C1098 C 0.26397 0.67674 0.56638
 C1099 C 0.27416 0.67084 0.58179
 C1100 C 0.27696 0.68271 0.59676
 C1101 C 0.26067 0.66407 0.55060
 C1102 C 0.27479 0.65251 0.54399
 C1103 C 0.27160 0.64066 0.52907
 C1104 C 0.25428 0.64017 0.52044
 C1105 C 0.24012 0.65152 0.52721
 C1106 C 0.24327 0.66337 0.54209
 H1107 H 0.30095 0.70533 0.61726
 H1108 H 0.30562 0.72594 0.64340
 H1109 H 0.24947 0.74537 0.63813
 H1110 H 0.24480 0.72459 0.61212
 H1111 H 0.25405 0.72056 0.58050
 H1112 H 0.24908 0.69982 0.55441
 H1113 H 0.27967 0.65693 0.58242
 H1114 H 0.28456 0.67764 0.60859
 H1115 H 0.28838 0.65280 0.55020
 H1116 H 0.28277 0.63196 0.52437
 H1117 H 0.22641 0.65092 0.52142
 H1118 H 0.23198 0.67175 0.54717
 C1119 C 0.77149 0.21128 0.11283
 C1120 C 0.78709 0.20942 0.12417
 C1121 C 0.79001 0.22153 0.13891
 C1122 C 0.77740 0.23585 0.14269
 C1123 C 0.76182 0.23772 0.13126
 C1124 C 0.75890 0.22558 0.11653
 C1125 C 0.76834 0.19833 0.09724
 C1126 C 0.75056 0.19150 0.09350
 C1127 C 0.74759 0.17932 0.07882
 C1128 C 0.76233 0.17371 0.06752
 C1129 C 0.78012 0.18052 0.07129
 C1130 C 0.78309 0.19268 0.08598
 C1131 C 0.75915 0.16107 0.05167
 C1132 C 0.77192 0.14704 0.04743
 C1133 C 0.76924 0.13561 0.03210
 C1134 C 0.75385 0.13813 0.02067
 C1135 C 0.74077 0.15165 0.02520
 C1136 C 0.74343 0.16311 0.04048
 H1137 H 0.79694 0.19840 0.12181
 H1138 H 0.80220 0.21958 0.14729
 H1139 H 0.75177 0.24851 0.13361
 H1140 H 0.74687 0.22753 0.10788
 H1141 H 0.73896 0.19537 0.10210
 H1142 H 0.73377 0.17411 0.07644
 H1143 H 0.79171 0.17673 0.06264
 H1144 H 0.79690 0.19794 0.08833
 H1145 H 0.78392 0.14483 0.05604
 H1146 H 0.77920 0.12485 0.02930
 H1147 H 0.72867 0.15363 0.01664
 H1148 H 0.73340 0.17384 0.04328
 C1149 C 0.47619 0.36225 0.53716
 C1150 C 0.48790 0.36462 0.52186
 C1151 C 0.48512 0.37920 0.50946
 C1152 C 0.47052 0.39177 0.51200
 C1153 C 0.45879 0.38934 0.52729
 C1154 C 0.46161 0.37480 0.53971
 C1155 C 0.47915 0.34678 0.55040
 C1156 C 0.46405 0.33737 0.55823
 C1157 C 0.46681 0.32292 0.57076
 C1158 C 0.48475 0.31740 0.57569
 C1159 C 0.49985 0.32677 0.56781
 C1160 C 0.49709 0.34131 0.55539
 C1161 C 0.48774 0.30170 0.58868
 C1162 C 0.50251 0.30196 0.60128
 C1163 C 0.50599 0.28673 0.61267
 C1164 C 0.49483 0.27091 0.61161
 C1165 C 0.47947 0.27099 0.59987
 C1166 C 0.47607 0.28611 0.58834
 H1167 H 0.49912 0.35506 0.51931
 H1168 H 0.49444 0.38049 0.49788
 H1169 H 0.44743 0.39867 0.52985
 H1170 H 0.45250 0.37357 0.55148
 H1171 H 0.45005 0.34103 0.55451
 H1172 H 0.45485 0.31616 0.57668
 H1173 H 0.51387 0.32271 0.57104
 H1174 H 0.50904 0.34838 0.54980
 H1175 H 0.51143 0.31396 0.60234
 H1176 H 0.51746 0.28740 0.62215
 H1177 H 0.47044 0.25904 0.59916
 H1178 H 0.46461 0.28533 0.57879
 C1179 C -0.02167 0.86219 0.03667
 C1180 C -0.03800 0.87264 0.03750
 C1181 C -0.04070 0.88766 0.02563
 C1182 C -0.02714 0.89259 0.01263
 C1183 C -0.01077 0.88216 0.01188
 C1184 C -0.00808 0.86715 0.02374
 C1185 C -0.01881 0.84618 0.04921
 C1186 C -0.01063 0.82981 0.04267
 C1187 C -0.00785 0.81477 0.05447
 C1188 C -0.01317 0.81574 0.07309
 C1189 C -0.02137 0.83210 0.07963
 C1190 C -0.02416 0.84715 0.06782
 C1191 C -0.01015 0.79978 0.08566
 C1192 C -0.02363 0.79479 0.09872
 C1193 C -0.02075 0.77983 0.11061
 C1194 C -0.00429 0.76970 0.10975
 C1195 C 0.00906 0.77442 0.09657
 C1196 C 0.00622 0.78938 0.08468
 H1197 H -0.04883 0.86902 0.04715
 H1198 H -0.05355 0.89521 0.02655
 H1199 H 0.00010 0.88560 0.00225
 H1200 H 0.00477 0.85956 0.02296
 H1201 H -0.00662 0.82853 0.02833
 H1202 H -0.00177 0.80225 0.04894
 H1203 H -0.02536 0.83338 0.09397
 H1204 H -0.03023 0.85967 0.07335
 H1205 H -0.03653 0.80229 0.09956
 H1206 H -0.03147 0.77620 0.12033
 H1207 H 0.02177 0.76660 0.09557
 H1208 H 0.01693 0.79295 0.07488
 C1209 C 0.02141 0.63722 0.03652
 C1210 C 0.03695 0.62578 0.03843
 C1211 C 0.03976 0.61090 0.02644
 C1212 C 0.02712 0.60710 0.01220
 C1213 C 0.01157 0.61861 0.01031
 C1214 C 0.00875 0.63347 0.02232
 C1215 C 0.01843 0.65305 0.04923
 C1216 C 0.00071 0.65695 0.05611
 C1217 C -0.00211 0.67188 0.06803
 C1218 C 0.01270 0.68330 0.07331
 C1219 C 0.03042 0.67939 0.06641
 C1220 C 0.03325 0.66442 0.05454
 C1221 C 0.00968 0.69924 0.08592
 C1222 C 0.02276 0.70370 0.09956
 C1223 C 0.01993 0.71871 0.11138
 C1224 C 0.00388 0.72941 0.10991
 C1225 C -0.00916 0.72512 0.09629
 C1226 C -0.00630 0.71018 0.08440
 H1227 H 0.04683 0.62819 0.04938
 H1228 H 0.05190 0.60244 0.02842
 H1229 H 0.00150 0.61624 -0.00043
 H1230 H -0.00324 0.64219 0.02035
 H1231 H -0.01093 0.64827 0.05248
 H1232 H -0.01587 0.67431 0.07334
 H1233 H 0.04207 0.68810 0.06995
 H1234 H 0.04701 0.66193 0.04925
 H1235 H 0.03512 0.69545 0.10124
 H1236 H 0.03031 0.72186 0.12161
 H1237 H -0.02153 0.73340 0.09480
 H1238 H -0.01649 0.70736 0.07383
 C1239 C 0.52312 0.13664 0.53740
 C1240 C 0.53261 0.12074 0.54319
 C1241 C 0.53524 0.10591 0.53108
 C1242 C 0.52821 0.10659 0.51301
 C1243 C 0.51855 0.12246 0.50730
 C1244 C 0.51613 0.13737 0.51934
 C1245 C 0.52059 0.15251 0.55010
 C1246 C 0.52436 0.17059 0.54411
 C1247 C 0.52189 0.18561 0.55598
 C1248 C 0.51525 0.18295 0.57406
 C1249 C 0.51155 0.16476 0.58003
 C1250 C 0.51434 0.14970 0.56822
 C1251 C 0.51187 0.19910 0.58644
 C1252 C 0.51446 0.19773 0.60566
 C1253 C 0.51089 0.21287 0.61716
 C1254 C 0.50489 0.22972 0.60969
 C1255 C 0.50273 0.23129 0.59055
 C1256 C 0.50590 0.21611 0.57908
 H1257 H 0.53823 0.11990 0.55701
 H1258 H 0.54263 0.09385 0.53596
 H1259 H 0.51304 0.12349 0.49346
 H1260 H 0.50862 0.14943 0.51460
 H1261 H 0.52944 0.17309 0.53027
 H1262 H 0.52533 0.19931 0.55098
 H1263 H 0.50613 0.16213 0.59370
 H1264 H 0.51119 0.13588 0.57311
 H1265 H 0.51942 0.18503 0.61184
 H1266 H 0.51288 0.21144 0.63190
 H1267 H 0.49847 0.24414 0.58427
 H1268 H 0.50340 0.21769 0.56445
 C1269 C -0.02175 0.13784 0.46262
 C1270 C -0.03718 0.12622 0.46060
 C1271 C -0.03992 0.11127 0.47255
 C1272 C -0.02727 0.10755 0.48681
 C1273 C -0.01180 0.11916 0.48875
 C1274 C -0.00909 0.13413 0.47681
 C1275 C -0.01886 0.15374 0.44994
 C1276 C -0.01267 0.17087 0.45674
 C1277 C -0.00988 0.18582 0.44480
 C1278 C -0.01315 0.18397 0.42577
 C1279 C -0.01939 0.16684 0.41898
 C1280 C -0.02224 0.15191 0.43093
 C1281 C -0.01002 0.19983 0.41305
 C1282 C -0.02210 0.20316 0.39822
 C1283 C -0.01917 0.21812 0.38632
 C1284 C -0.00422 0.23011 0.38914
 C1285 C 0.00795 0.22678 0.40378
 C1286 C 0.00510 0.21178 0.41563
 H1287 H -0.04732 0.12888 0.44995
 H1288 H -0.05210 0.10282 0.47066
 H1289 H -0.00165 0.11669 0.49941
 H1290 H 0.00308 0.14268 0.47855
 H1291 H -0.01025 0.17280 0.47136
 H1292 H -0.00540 0.19892 0.45053
 H1293 H -0.02177 0.16485 0.40437
 H1294 H -0.02678 0.13881 0.42525
 H1295 H -0.03397 0.19433 0.39594
 H1296 H -0.02859 0.22021 0.37494
 H1297 H 0.01968 0.23580 0.40605
 H1298 H 0.01487 0.20942 0.42669
 C1299 C 0.47857 0.63706 0.96323
 C1300 C 0.48535 0.63768 0.98136
 C1301 C 0.48264 0.62275 0.99333
 C1302 C 0.47290 0.60697 0.98748
 C1303 C 0.46603 0.60641 0.96935
 C1304 C 0.46894 0.62127 0.95730
 C1305 C 0.48159 0.65285 0.95053
 C1306 C 0.48803 0.64988 0.93251
 C1307 C 0.49122 0.66484 0.92067
 C1308 C 0.48777 0.68310 0.92650
 C1309 C 0.48107 0.68596 0.94452
 C1310 C 0.47816 0.67102 0.95643
 C1311 C 0.49114 0.69911 0.91394
 C1312 C 0.49726 0.71619 0.92101
 C1313 C 0.49985 0.73139 0.90938
 C1314 C 0.49654 0.72985 0.89039
 C1315 C 0.49116 0.71269 0.88314
 C1316 C 0.48822 0.69754 0.89480
 H1317 H 0.49293 0.64966 0.98621
 H1318 H 0.48800 0.62369 1.00723
 H1319 H 0.45857 0.59443 0.96436
 H1320 H 0.46346 0.62052 0.94342
 H1321 H 0.49095 0.63599 0.92770
 H1322 H 0.49669 0.66207 0.90705
 H1323 H 0.47783 0.69973 0.94940
 H1324 H 0.47296 0.67364 0.97019
 H1325 H 0.50027 0.71781 0.93555
 H1326 H 0.50464 0.74426 0.91532
 H1327 H 0.48899 0.71107 0.86844
 H1328 H 0.48338 0.68471 0.88880
 C1329 C 0.52215 0.86301 0.96284
 C1330 C 0.53858 0.87332 0.96215
 C1331 C 0.54152 0.88800 0.97437
 C1332 C 0.52811 0.89267 0.98762
 C1333 C 0.51169 0.88228 0.98829
 C1334 C 0.50874 0.86765 0.97603
 C1335 C 0.51901 0.84744 0.94986
 C1336 C 0.50174 0.84500 0.94139
 C1337 C 0.49877 0.83030 0.92921
 C1338 C 0.51296 0.81762 0.92531
 C1339 C 0.53024 0.82008 0.93383
 C1340 C 0.53324 0.83485 0.94591
 C1341 C 0.50971 0.80176 0.91261
 C1342 C 0.52374 0.79560 0.90067
 C1343 C 0.52087 0.78033 0.88918
 C1344 C 0.50387 0.77109 0.88926
 C1345 C 0.48973 0.77733 0.90088
 C1346 C 0.49264 0.79245 0.91252
 H1347 H 0.54909 0.87018 0.95200
 H1348 H 0.55436 0.89559 0.97341
 H1349 H 0.50099 0.88542 0.99820
 H1350 H 0.49603 0.85980 0.97703
 H1351 H 0.49059 0.85462 0.94399
 H1352 H 0.48539 0.82901 0.92267
 H1353 H 0.54137 0.81039 0.93145
 H1354 H 0.54661 0.83624 0.95244
 H1355 H 0.53695 0.80261 0.90015
 H1356 H 0.53205 0.77571 0.88045
 H1357 H 0.47655 0.77025 0.90120
 H1358 H 0.48163 0.79658 0.92175
 C1359 C 0.02140 0.36263 0.46304
 C1360 C 0.00755 0.36811 0.47544
 C1361 C 0.01046 0.38293 0.48747
 C1362 C 0.02728 0.39267 0.48735
 C1363 C 0.04112 0.38719 0.47490
 C1364 C 0.03822 0.37233 0.46290
 C1365 C 0.01833 0.34680 0.45036
 C1366 C 0.03239 0.33380 0.44721
 C1367 C 0.02946 0.31884 0.43535
 C1368 C 0.01243 0.31657 0.42634
 C1369 C -0.00163 0.32958 0.42949
 C1370 C 0.00129 0.34453 0.44137
 C1371 C 0.00936 0.30073 0.41366
 C1372 C -0.00755 0.29118 0.41359
 C1373 C -0.01037 0.27624 0.40166
 C1374 C 0.00357 0.27068 0.38945
 C1375 C 0.02058 0.27997 0.38975
 C1376 C 0.02341 0.29491 0.40163
 H1377 H -0.00548 0.36077 0.47601
 H1378 H -0.00058 0.38678 0.49675
 H1379 H 0.05429 0.39426 0.47445
 H1380 H 0.04909 0.36854 0.45336
 H1381 H 0.04556 0.33502 0.45416
 H1382 H 0.04046 0.30888 0.43346
 H1383 H -0.01480 0.32838 0.42253
 H1384 H -0.00971 0.35448 0.44332
 H1385 H -0.01850 0.29503 0.42301
 H1386 H -0.02334 0.26890 0.40227
 H1387 H 0.03187 0.27568 0.38103
 H1388 H 0.03659 0.30200 0.40131
 C1389 C 0.36304 0.53656 0.47870
 C1390 C 0.37846 0.54258 0.46858
 C1391 C 0.39335 0.53069 0.46549
 C1392 C 0.39322 0.51256 0.47259
 C1393 C 0.37780 0.50659 0.48279
 C1394 C 0.36284 0.51844 0.48573
 C1395 C 0.34719 0.54912 0.48187
 C1396 C 0.32904 0.54279 0.47935
 C1397 C 0.31409 0.55463 0.48228
 C1398 C 0.31691 0.57303 0.48804
 C1399 C 0.33514 0.57929 0.49062
 C1400 C 0.35010 0.56751 0.48744
 C1401 C 0.30092 0.58556 0.49135
 C1402 C 0.30211 0.60461 0.48735
 C1403 C 0.28701 0.61626 0.49033
 C1404 C 0.27027 0.60907 0.49689
 C1405 C 0.26909 0.59019 0.50118
 C1406 C 0.28426 0.57857 0.49853
 H1407 H 0.37889 0.55644 0.46288
 H1408 H 0.40503 0.53579 0.45767
 H1409 H 0.37716 0.49271 0.48836
 H1410 H 0.35118 0.51350 0.49370
 H1411 H 0.32643 0.52874 0.47482
 H1412 H 0.30031 0.54940 0.47975
 H1413 H 0.33788 0.59323 0.49536
 H1414 H 0.36396 0.57267 0.48967
 H1415 H 0.31461 0.61051 0.48163
 H1416 H 0.28832 0.63088 0.48725
 H1417 H 0.25653 0.58434 0.50679
 H1418 H 0.28295 0.56413 0.50231
 C1419 C 0.86288 0.03561 -0.02346
 C1420 C 0.86798 0.02263 -0.00993
 C1421 C 0.88272 0.01052 -0.01292
 C1422 C 0.89283 0.01116 -0.02947
 C1423 C 0.88774 0.02416 -0.04299
 C1424 C 0.87295 0.03620 -0.04004
 C1425 C 0.84705 0.04838 -0.02036
 C1426 C 0.84757 0.06670 -0.02693
 C1427 C 0.83256 0.07857 -0.02429
 C1428 C 0.81671 0.07248 -0.01483
 C1429 C 0.81632 0.05422 -0.00807
 C1430 C 0.83122 0.04230 -0.01090
 C1431 C 0.80065 0.08505 -0.01201
 C1432 C 0.78252 0.07801 -0.01214
 C1433 C 0.76748 0.08961 -0.00881
 C1434 C 0.77021 0.10850 -0.00539
 C1435 C 0.78811 0.11579 -0.00606
 C1436 C 0.80323 0.10415 -0.00906
 H1437 H 0.86075 0.02197 0.00313
 H1438 H 0.88628 0.00086 -0.00209
 H1439 H 0.89505 0.02498 -0.05598
 H1440 H 0.86922 0.04579 -0.05090
 H1441 H 0.85964 0.07196 -0.03401
 H1442 H 0.83333 0.09245 -0.02988
 H1443 H 0.80452 0.04910 -0.00043
 H1444 H 0.83022 0.02823 -0.00584
 H1445 H 0.77990 0.06353 -0.01497
 H1446 H 0.75374 0.08374 -0.00908
 H1447 H 0.79045 0.13043 -0.00382
 H1448 H 0.81695 0.11010 -0.00871
 C1449 C 0.63683 0.03695 0.02220
 C1450 C 0.63670 0.01923 0.01420
 C1451 C 0.62185 0.00719 0.01711
 C1452 C 0.60683 0.01257 0.02816
 C1453 C 0.60698 0.03031 0.03614
 C1454 C 0.62179 0.04236 0.03317
 C1455 C 0.65262 0.04973 0.01920
 C1456 C 0.64961 0.06869 0.01602
 C1457 C 0.66449 0.08074 0.01334
 C1458 C 0.68271 0.07411 0.01383
 C1459 C 0.68571 0.05514 0.01700
 C1460 C 0.67084 0.04309 0.01964
 C1461 C 0.69855 0.08685 0.01090
 C1462 C 0.71469 0.08504 0.02151
 C1463 C 0.72987 0.09653 0.01826
 C1464 C 0.72928 0.10987 0.00424
 C1465 C 0.71300 0.11222 -0.00592
 C1466 C 0.69778 0.10075 -0.00268
 H1467 H 0.64801 0.01473 0.00553
 H1468 H 0.62227 -0.00639 0.01084
 H1469 H 0.59561 0.03500 0.04460
 H1470 H 0.62157 0.05585 0.03967
 H1471 H 0.63573 0.07419 0.01541
 H1472 H 0.66173 0.09530 0.01108
 H1473 H 0.69958 0.04957 0.01723
 H1474 H 0.67361 0.02859 0.02225
 H1475 H 0.71558 0.07474 0.03234
 H1476 H 0.74222 0.09476 0.02649
 H1477 H 0.71197 0.12281 -0.01641
 H1478 H 0.68555 0.10251 -0.01108
 C1479 C 0.13730 0.53598 0.52163
 C1480 C 0.13287 0.52224 0.50868
 C1481 C 0.11802 0.51025 0.51175
 C1482 C 0.10719 0.51179 0.52780
 C1483 C 0.11167 0.52562 0.54072
 C1484 C 0.12657 0.53754 0.53768
 C1485 C 0.15310 0.54865 0.51847
 C1486 C 0.16547 0.55265 0.53283
 C1487 C 0.18034 0.56462 0.52992
 C1488 C 0.18308 0.57306 0.51262
 C1489 C 0.17063 0.56903 0.49826
 C1490 C 0.15587 0.55688 0.50113
 C1491 C 0.19887 0.58591 0.50959
 C1492 C 0.20814 0.58641 0.49253
 C1493 C 0.22312 0.59831 0.48982
 C1494 C 0.22928 0.60976 0.50414
 C1495 C 0.22019 0.60929 0.52120
 C1496 C 0.20501 0.59764 0.52384
 H1497 H 0.14105 0.52062 0.49628
 H1498 H 0.11507 0.49983 0.50145
 H1499 H 0.10376 0.52731 0.55325
 H1500 H 0.12956 0.54816 0.54780
 H1501 H 0.16379 0.54628 0.54626
 H1502 H 0.18985 0.56703 0.54118
 H1503 H 0.17209 0.57549 0.48486
 H1504 H 0.14641 0.55419 0.48988
 H1505 H 0.20409 0.57734 0.48136
 H1506 H 0.23014 0.59832 0.47662
 H1507 H 0.22487 0.61769 0.53261
 H1508 H 0.19808 0.59787 0.53707
 C1509 C 0.13646 0.46325 -0.02158
 C1510 C 0.12572 0.46166 -0.03761
 C1511 C 0.11089 0.47362 -0.04069
 C1512 C 0.10650 0.48752 -0.02783
 C1513 C 0.11733 0.48911 -0.01179
 C1514 C 0.13211 0.47707 -0.00869
 C1515 C 0.15218 0.45053 -0.01839
 C1516 C 0.15490 0.44232 -0.00103
 C1517 C 0.16957 0.43011 0.00186
 C1518 C 0.18201 0.42601 -0.01249
 C1519 C 0.17934 0.43443 -0.02980
 C1520 C 0.16454 0.44645 -0.03274
 C1521 C 0.19781 0.41318 -0.00942
 C1522 C 0.20408 0.40156 -0.02370
 C1523 C 0.21945 0.39019 -0.02113
 C1524 C 0.22867 0.38997 -0.00415
 C1525 C 0.22217 0.40102 0.01032
 C1526 C 0.20701 0.41267 0.00768
 H1527 H 0.12865 0.45099 -0.04769
 H1528 H 0.10297 0.47191 -0.05321
 H1529 H 0.11444 0.49958 -0.00155
 H1530 H 0.14031 0.47872 0.00370
 H1531 H 0.14545 0.44509 0.01021
 H1532 H 0.17099 0.42369 0.01528
 H1533 H 0.18885 0.43198 -0.04106
 H1534 H 0.16292 0.45279 -0.04618
 H1535 H 0.19712 0.40124 -0.03691
 H1536 H 0.22418 0.38180 -0.03253
 H1537 H 0.22916 0.40102 0.02353
 H1538 H 0.20281 0.42158 0.01892
 C1539 C 0.63714 0.96317 0.47728
 C1540 C 0.63548 0.97969 0.48740
 C1541 C 0.62044 0.99147 0.48469
 C1542 C 0.60670 0.98710 0.47170
 C1543 C 0.60839 0.97063 0.46152
 C1544 C 0.62338 0.95880 0.46431
 C1545 C 0.65306 0.95052 0.48029
 C1546 C 0.66100 0.94082 0.46547
 C1547 C 0.67580 0.92876 0.46836
 C1548 C 0.68322 0.92626 0.48613
 C1549 C 0.67538 0.93613 0.50091
 C1550 C 0.66043 0.94798 0.49806
 C1551 C 0.69907 0.91349 0.48926
 C1552 C 0.70062 0.90352 0.50589
 C1553 C 0.71580 0.89209 0.50915
 C1554 C 0.72952 0.88999 0.49570
 C1555 C 0.72793 0.89957 0.47896
 C1556 C 0.71294 0.91132 0.47581
 H1557 H 0.64596 0.98367 0.49729
 H1558 H 0.61975 1.00408 0.49269
 H1559 H 0.59805 0.96666 0.45152
 H1560 H 0.62402 0.94605 0.45648
 H1561 H 0.65589 0.94264 0.45155
 H1562 H 0.68128 0.92126 0.45666
 H1563 H 0.68088 0.93488 0.51474
 H1564 H 0.65452 0.95500 0.50985
 H1565 H 0.69010 0.90451 0.51644
 H1566 H 0.71684 0.88515 0.52233
 H1567 H 0.73852 0.89827 0.46849
 H1568 H 0.71247 0.91901 0.46300
 C1569 C 0.86345 0.96381 0.52154
 C1570 C 0.86323 0.98186 0.51439
 C1571 C 0.87815 0.99377 0.51731
 C1572 C 0.89354 0.98793 0.52761
 C1573 C 0.89364 0.96985 0.53485
 C1574 C 0.87879 0.95788 0.53175
 C1575 C 0.84764 0.95122 0.51841
 C1576 C 0.85048 0.93326 0.51164
 C1577 C 0.83550 0.92149 0.50842
 C1578 C 0.81733 0.92727 0.51232
 C1579 C 0.81466 0.94525 0.51938
 C1580 C 0.82961 0.95714 0.52216
 C1581 C 0.80127 0.91469 0.50908
 C1582 C 0.78382 0.92194 0.50453
 C1583 C 0.76863 0.91029 0.50212
 C1584 C 0.77058 0.89105 0.50362
 C1585 C 0.78802 0.88366 0.50755
 C1586 C 0.80313 0.89533 0.51057
 H1587 H 0.85158 0.98667 0.50634
 H1588 H 0.87750 1.00758 0.51157
 H1589 H 0.90523 0.96482 0.54280
 H1590 H 0.87916 0.94406 0.53754
 H1591 H 0.86430 0.92847 0.50851
 H1592 H 0.83821 0.90797 0.50262
 H1593 H 0.80104 0.95016 0.52303
 H1594 H 0.82713 0.97090 0.52756
 H1595 H 0.78182 0.93666 0.50264
 H1596 H 0.75544 0.91648 0.49897
 H1597 H 0.78994 0.86882 0.50846
 H1598 H 0.81617 0.88910 0.51432
 C1599 C 0.36367 0.46321 0.02085
 C1600 C 0.37212 0.46411 0.03829
 C1601 C 0.38714 0.47588 0.04135
 C1602 C 0.39399 0.48715 0.02709
 C1603 C 0.38553 0.48629 0.00967
 C1604 C 0.37062 0.47442 0.00656
 C1605 C 0.34767 0.45067 0.01759
 C1606 C 0.33319 0.45604 0.00585
 C1607 C 0.31818 0.44429 0.00275
 C1608 C 0.31709 0.42694 0.01153
 C1609 C 0.33156 0.42159 0.02332
 C1610 C 0.34670 0.43325 0.02621
 C1611 C 0.30088 0.41458 0.00850
 C1612 C 0.30293 0.39520 0.00826
 C1613 C 0.28764 0.38368 0.00562
 C1614 C 0.27004 0.39124 0.00290
 C1615 C 0.26797 0.41053 0.00286
 C1616 C 0.28316 0.42206 0.00583
 H1617 H 0.36694 0.45596 0.04972
 H1618 H 0.39316 0.47632 0.05501
 H1619 H 0.39057 0.49461 -0.00170
 H1620 H 0.36468 0.47386 -0.00713
 H1621 H 0.33331 0.46946 -0.00082
 H1622 H 0.30749 0.44880 -0.00665
 H1623 H 0.33112 0.40847 0.03054
 H1624 H 0.35771 0.42851 0.03513
 H1625 H 0.31637 0.38889 0.00989
 H1626 H 0.28958 0.36881 0.00555
 H1627 H 0.25466 0.41685 0.00059
 H1628 H 0.28092 0.43687 0.00623
 C1629 C 0.53683 0.47821 0.36284
 C1630 C 0.53262 0.46016 0.36866
 C1631 C 0.52096 0.45725 0.38377
 C1632 C 0.51299 0.47234 0.39303
 C1633 C 0.51708 0.49040 0.38705
 C1634 C 0.52907 0.49331 0.37220
 C1635 C 0.54927 0.48128 0.34699
 C1636 C 0.56518 0.49215 0.34897
 C1637 C 0.57711 0.49484 0.33404
 C1638 C 0.57312 0.48713 0.31662
 C1639 C 0.55693 0.47645 0.31472
 C1640 C 0.54529 0.47336 0.32980
 C1641 C 0.58577 0.49016 0.30059
 C1642 C 0.58733 0.47684 0.28647
 C1643 C 0.59904 0.47979 0.27143
 C1644 C 0.61007 0.49568 0.27055
 C1645 C 0.60857 0.50908 0.28442
 C1646 C 0.59643 0.50645 0.29918
 H1647 H 0.53854 0.44834 0.36163
 H1648 H 0.51796 0.44319 0.38800
 H1649 H 0.51122 0.50228 0.39400
 H1650 H 0.53211 0.50734 0.36785
 H1651 H 0.56855 0.49826 0.36219
 H1652 H 0.58958 0.50276 0.33631
 H1653 H 0.55302 0.47062 0.30154
 H1654 H 0.53297 0.46505 0.32797
 H1655 H 0.57968 0.46398 0.28704
 H1656 H 0.59970 0.46948 0.26061
 H1657 H 0.61649 0.52177 0.28373
 H1658 H 0.59525 0.51737 0.30932
 C1659 C 0.03791 -0.02232 0.86265
 C1660 C 0.04417 -0.03076 0.87900
 C1661 C 0.03210 -0.03388 0.89373
 C1662 C 0.01357 -0.02833 0.89259
 C1663 C 0.00728 -0.01978 0.87638
 C1664 C 0.01926 -0.01696 0.86152
 C1665 C 0.05073 -0.01912 0.84687
 C1666 C 0.04878 -0.00342 0.83552
 C1667 C 0.06053 -0.00063 0.82048
 C1668 C 0.07468 -0.01329 0.81661
 C1669 C 0.07691 -0.02880 0.82805
 C1670 C 0.06497 -0.03178 0.84292
 C1671 C 0.08684 -0.01044 0.80045
 C1672 C 0.10610 -0.01168 0.80217
 C1673 C 0.11748 -0.00861 0.78687
 C1674 C 0.10981 -0.00443 0.76959
 C1675 C 0.09053 -0.00384 0.76779
 C1676 C 0.07917 -0.00657 0.78311
 H1677 H 0.05848 -0.03473 0.88057
 H1678 H 0.03738 -0.04028 0.90616
 H1679 H -0.00700 -0.01558 0.87505
 H1680 H 0.01380 -0.01081 0.84905
 H1681 H 0.03829 0.00685 0.83834
 H1682 H 0.05869 0.01156 0.81196
 H1683 H 0.08762 -0.03885 0.82520
 H1684 H 0.06671 -0.04420 0.85110
 H1685 H 0.11233 -0.01478 0.81540
 H1686 H 0.13223 -0.00979 0.78858
 H1687 H 0.08405 -0.00141 0.75461
 H1688 H 0.06433 -0.00595 0.78137
 C1689 C 0.03818 0.02190 0.63553
 C1690 C 0.04083 0.03685 0.62338
 C1691 C 0.02877 0.03978 0.60863
 C1692 C 0.01377 0.02780 0.60559
 C1693 C 0.01116 0.01278 0.61768
 C1694 C 0.02319 0.00989 0.63249
 C1695 C 0.05095 0.01890 0.65133
 C1696 C 0.05608 0.00091 0.65668
 C1697 C 0.06800 -0.00187 0.67159
 C1698 C 0.07521 0.01328 0.68144
 C1699 C 0.07016 0.03126 0.67600
 C1700 C 0.05812 0.03403 0.66120
 C1701 C 0.08771 0.01032 0.69748
 C1702 C 0.08668 0.02193 0.71302
 C1703 C 0.09816 0.01899 0.72820
 C1704 C 0.11073 0.00425 0.72833
 C1705 C 0.11194 -0.00730 0.71284
 C1706 C 0.10061 -0.00424 0.69752
 H1707 H 0.05240 0.04618 0.62512
 H1708 H 0.03139 0.05137 0.59954
 H1709 H -0.00030 0.00335 0.61592
 H1710 H 0.02056 -0.00159 0.64173
 H1711 H 0.05100 -0.01105 0.64925
 H1712 H 0.07136 -0.01592 0.67554
 H1713 H 0.07560 0.04327 0.68310
 H1714 H 0.05426 0.04806 0.65764
 H1715 H 0.07673 0.03308 0.71366
 H1716 H 0.09699 0.02804 0.74006
 H1717 H 0.12154 -0.01875 0.71254
 H1718 H 0.10203 -0.01325 0.68568
 C1719 C 0.53698 0.52186 0.13828
 C1720 C 0.52239 0.50954 0.13467
 C1721 C 0.51044 0.51258 0.11984
 C1722 C 0.51273 0.52805 0.10825
 C1723 C 0.52732 0.54038 0.11191
 C1724 C 0.53930 0.53731 0.12671
 C1725 C 0.54969 0.51860 0.15406
 C1726 C 0.55617 0.53348 0.16474
 C1727 C 0.56808 0.53041 0.17960
 C1728 C 0.57371 0.51237 0.18422
 C1729 C 0.56722 0.49748 0.17353
 C1730 C 0.55540 0.50057 0.15860
 C1731 C 0.58626 0.50909 0.20014
 C1732 C 0.59996 0.49532 0.19931
 C1733 C 0.61170 0.49223 0.21429
 C1734 C 0.61016 0.50303 0.23027
 C1735 C 0.59647 0.51667 0.23124
 C1736 C 0.58461 0.51967 0.21635
 H1737 H 0.52004 0.49765 0.14346
 H1738 H 0.49943 0.50273 0.11758
 H1739 H 0.52962 0.55244 0.10338
 H1740 H 0.55054 0.54694 0.12895
 H1741 H 0.55187 0.54752 0.16177
 H1742 H 0.57299 0.54222 0.18737
 H1743 H 0.57109 0.48339 0.17681
 H1744 H 0.55087 0.48881 0.15052
 H1745 H 0.60177 0.48705 0.18699
 H1746 H 0.62195 0.48142 0.21327
 H1747 H 0.59492 0.52499 0.24357
 H1748 H 0.57399 0.53012 0.21764
 C1749 C 0.46219 -0.02232 0.13735
 C1750 C 0.46079 -0.03829 0.12640
 C1751 C 0.47273 -0.04103 0.11151
 C1752 C 0.48643 -0.02788 0.10722
 C1753 C 0.48782 -0.01190 0.11824
 C1754 C 0.47584 -0.00916 0.13311
 C1755 C 0.44945 -0.01938 0.15312
 C1756 C 0.44183 -0.00183 0.15646
 C1757 C 0.42989 0.00098 0.17133
 C1758 C 0.42536 -0.01369 0.18328
 C1759 C 0.43294 -0.03127 0.17989
 C1760 C 0.44483 -0.03409 0.16496
 C1761 C 0.41295 -0.01059 0.19932
 C1762 C 0.39987 -0.02401 0.20455
 C1763 C 0.38825 -0.02101 0.21967
 C1764 C 0.38949 -0.00456 0.22990
 C1765 C 0.40237 0.00892 0.22454
 C1766 C 0.41404 0.00591 0.20951
 H1767 H 0.45026 -0.04858 0.12921
 H1768 H 0.47118 -0.05352 0.10346
 H1769 H 0.49811 -0.00142 0.11544
 H1770 H 0.47741 0.00318 0.14144
 H1771 H 0.44491 0.00970 0.14740
 H1772 H 0.42403 0.01461 0.17333
 H1773 H 0.42996 -0.04280 0.18899
 H1774 H 0.45068 -0.04772 0.16288
 H1775 H 0.39840 -0.03672 0.19677
 H1776 H 0.37822 -0.03153 0.22315
 H1777 H 0.40330 0.02197 0.23167
 H1778 H 0.42402 0.01650 0.20597
 C1779 C 0.96276 0.47809 0.63746
 C1780 C 0.96032 0.46279 0.62576
 C1781 C 0.97224 0.45985 0.61088
 C1782 C 0.98693 0.47212 0.60735
 C1783 C 0.98932 0.48743 0.61911
 C1784 C 0.97738 0.49039 0.63396
 C1785 C 0.95012 0.48118 0.65328
 C1786 C 0.94377 0.49906 0.65748
 C1787 C 0.93185 0.50196 0.67236
 C1788 C 0.92606 0.48704 0.68343
 C1789 C 0.93248 0.46916 0.67924
 C1790 C 0.94434 0.46626 0.66432
 C1791 C 0.91341 0.49010 0.69929
 C1792 C 0.89940 0.47722 0.70337
 C1793 C 0.88762 0.47999 0.71838
 C1794 C 0.88950 0.49578 0.72945
 C1795 C 0.90343 0.50864 0.72549
 C1796 C 0.91530 0.50584 0.71055
 H1797 H 0.94904 0.45320 0.62797
 H1798 H 0.96985 0.44791 0.60222
 H1799 H 1.00041 0.49722 0.61694
 H1800 H 0.97974 0.50218 0.64287
 H1801 H 0.94778 0.51079 0.64906
 H1802 H 0.92693 0.51585 0.67503
 H1803 H 0.92856 0.45742 0.68767
 H1804 H 0.94923 0.45237 0.66159
 H1805 H 0.89742 0.46508 0.69485
 H1806 H 0.87710 0.46977 0.72123
 H1807 H 0.90520 0.52081 0.73403
 H1808 H 0.92613 0.51586 0.70799
 C1809 C 0.96310 0.52153 0.86163
 C1810 C 0.97794 0.50950 0.86497
 C1811 C 0.98980 0.51250 0.87988
 C1812 C 0.98710 0.52758 0.89186
 C1813 C 0.97219 0.53959 0.88848
 C1814 C 0.96036 0.53661 0.87354
 C1815 C 0.95053 0.51839 0.84576
 C1816 C 0.94453 0.53332 0.83489
 C1817 C 0.93270 0.53038 0.81995
 C1818 C 0.92652 0.51244 0.81559
 C1819 C 0.93255 0.49751 0.82648
 C1820 C 0.94445 0.50044 0.84137
 C1821 C 0.91381 0.50935 0.79978
 C1822 C 0.91571 0.49367 0.78843
 C1823 C 0.90373 0.49081 0.77359
 C1824 C 0.88966 0.50354 0.76981
 C1825 C 0.88781 0.51929 0.78094
 C1826 C 0.89968 0.52211 0.79586
 H1827 H 0.98053 0.49789 0.85589
 H1828 H 1.00108 0.50293 0.88189
 H1829 H 0.96954 0.55133 0.89733
 H1830 H 0.94889 0.54598 0.87145
 H1831 H 0.94921 0.54727 0.83777
 H1832 H 0.92861 0.54215 0.81165
 H1833 H 0.92782 0.48356 0.82369
 H1834 H 0.94865 0.48870 0.84965
 H1835 H 0.92664 0.48375 0.79084
 H1836 H 0.90552 0.47869 0.76498
 H1837 H 0.87723 0.52946 0.77821
 H1838 H 0.89767 0.53420 0.80443
 C1839 C 0.46192 0.02227 0.36298
 C1840 C 0.45896 0.03669 0.37564
 C1841 C 0.47116 0.03959 0.39029
 C1842 C 0.48664 0.02810 0.39272
 C1843 C 0.48957 0.01364 0.38005
 C1844 C 0.47739 0.01078 0.36537
 C1845 C 0.44893 0.01927 0.34736
 C1846 C 0.44432 0.00127 0.34158
 C1847 C 0.43210 -0.00150 0.32691
 C1848 C 0.42407 0.01365 0.31773
 C1849 C 0.42863 0.03165 0.32359
 C1850 C 0.44096 0.03442 0.33815
 C1851 C 0.41126 0.01070 0.30194
 C1852 C 0.41132 0.02286 0.28678
 C1853 C 0.39969 0.01978 0.27173
 C1854 C 0.38814 0.00421 0.27119
 C1855 C 0.38740 -0.00748 0.28663
 C1856 C 0.39888 -0.00433 0.30182
 H1857 H 0.44704 0.04563 0.37440
 H1858 H 0.46829 0.05081 0.39971
 H1859 H 0.50132 0.00452 0.38133
 H1860 H 0.48024 -0.00030 0.35573
 H1861 H 0.45002 -0.01071 0.34850
 H1862 H 0.42915 -0.01554 0.32261
 H1863 H 0.42256 0.04365 0.31703
 H1864 H 0.44441 0.04847 0.34204
 H1865 H 0.42058 0.03462 0.28635
 H1866 H 0.39976 0.02970 0.26060
 H1867 H 0.37796 -0.01903 0.28717
 H1868 H 0.39796 -0.01360 0.31352
   
