data_POSCAR
  _audit_creation_date              2014-09-24
  _audit_creation_method            'ToBaCCo'
  _symmetry_space_group_name_H-M    'P1'
  _symmetry_Int_Tables_number       1
  _symmetry_cell_setting            triclinic
  loop_
  _symmetry_equiv_pos_as_xyz
 x,y,z
_cell_length_a 56.8472
_cell_length_b 56.9428
_cell_length_c 41.8405
_cell_angle_alpha 90.318300
_cell_angle_beta 89.387700
_cell_angle_gamma 89.966000
loop_
  _atom_site_label
  _atom_site_type_symbol
  _atom_site_fract_x
  _atom_site_fract_y
  _atom_site_fract_z
C1 C 0.30720 -0.03013 0.24209
 C2 C 0.31945 -0.01032 0.23107
 C3 C 0.33246 -0.01166 0.20247
 C4 C 0.33340 -0.03270 0.18504
 C5 C 0.32089 -0.05228 0.19571
 C6 C 0.30782 -0.05107 0.22426
 C7 C 0.32074 0.01111 0.25074
 C8 C 0.33610 0.01184 0.27674
 C9 C 0.33927 0.03279 0.29385
 C10 C 0.32670 0.05289 0.28544
 C11 C 0.31132 0.05225 0.25956
 C12 C 0.30842 0.03142 0.24204
 H13 H 0.29761 -0.02930 0.26462
 H14 H 0.34266 0.00336 0.19456
 H15 H 0.34621 -0.00366 0.28277
 H16 H 0.29695 0.03108 0.22152
 H17 H 0.32191 -0.06861 0.18229
 H18 H 0.32931 0.06917 0.29850
 C19 C 0.19590 -0.03280 0.75071
 C20 C 0.18465 -0.01145 0.75815
 C21 C 0.17049 -0.00972 0.78571
 C22 C 0.16716 -0.02922 0.80545
 C23 C 0.17868 -0.05032 0.79831
 C24 C 0.19306 -0.05216 0.77100
 C25 C 0.18446 0.00801 0.73509
 C26 C 0.17041 0.00608 0.70783
 C27 C 0.16640 0.02570 0.68857
 C28 C 0.17715 0.04714 0.69591
 C29 C 0.19138 0.04915 0.72292
 C30 C 0.19490 0.02966 0.74265
 H31 H 0.20611 -0.03452 0.72880
 H32 H 0.16078 0.00634 0.79056
 H33 H 0.16128 -0.01027 0.70301
 H34 H 0.20495 0.03151 0.76440
 H35 H 0.17551 -0.06563 0.81306
 H36 H 0.17348 0.06256 0.68165
 C37 C 0.69526 0.46780 0.25721
 C38 C 0.68355 0.48846 0.26667
 C39 C 0.66969 0.48856 0.29463
 C40 C 0.66733 0.46811 0.31284
 C41 C 0.67932 0.44771 0.30365
 C42 C 0.69325 0.44750 0.27586
 C43 C 0.68301 0.50898 0.24540
 C44 C 0.66866 0.50827 0.21835
 C45 C 0.66537 0.52843 0.19997
 C46 C 0.67700 0.54922 0.20801
 C47 C 0.69153 0.55006 0.23484
 C48 C 0.69440 0.53000 0.25374
 H49 H 0.70539 0.46740 0.23512
 H50 H 0.65979 0.50416 0.30123
 H51 H 0.65902 0.49237 0.21271
 H52 H 0.70489 0.53086 0.27519
 H53 H 0.67716 0.43178 0.31748
 H54 H 0.67397 0.56499 0.19422
 C55 C 0.81324 0.47005 0.75996
 C56 C 0.82606 0.48996 0.75053
 C57 C 0.84040 0.48898 0.72305
 C58 C 0.84198 0.46820 0.70513
 C59 C 0.82894 0.44855 0.71428
 C60 C 0.81463 0.44940 0.74166
 C61 C 0.82576 0.51142 0.77024
 C62 C 0.83990 0.51283 0.79744
 C63 C 0.84135 0.53391 0.81477
 C64 C 0.82832 0.55344 0.80528
 C65 C 0.81415 0.55206 0.77819
 C66 C 0.81293 0.53113 0.76055
 H67 H 0.80245 0.47062 0.78147
 H68 H 0.85081 0.50413 0.71622
 H69 H 0.85036 0.49778 0.80433
 H70 H 0.80238 0.53026 0.73914
 H71 H 0.83035 0.43246 0.70047
 H72 H 0.82963 0.56987 0.81843
 C73 C 0.24528 0.41019 1.03438
 C74 C 0.25762 0.42143 1.00958
 C75 C 0.27984 0.43102 1.01547
 C76 C 0.28971 0.42946 1.04585
 C77 C 0.27753 0.41800 1.07049
 C78 C 0.25532 0.40821 1.06469
 C79 C 0.24789 0.42197 0.97710
 C80 C 0.22526 0.43089 0.97200
 C81 C 0.21551 0.43020 0.94144
 C82 C 0.22823 0.42032 0.91590
 C83 C 0.25077 0.41119 0.92093
 C84 C 0.26070 0.41229 0.95136
 H85 H 0.22835 0.40217 1.02965
 H86 H 0.28951 0.43957 0.99631
 H87 H 0.21515 0.43807 0.99190
 H88 H 0.27786 0.40458 0.95537
 H89 H 0.28555 0.41624 1.09378
 H90 H 0.22029 0.41895 0.89250
 C91 C 0.75520 0.08731 1.04354
 C92 C 0.74246 0.07715 1.01845
 C93 C 0.71981 0.06839 1.02441
 C94 C 0.70993 0.06974 1.05514
 C95 C 0.72257 0.08009 1.08005
 C96 C 0.74519 0.08905 1.07420
 C97 C 0.75212 0.07734 0.98561
 C98 C 0.77463 0.06828 0.97921
 C99 C 0.78450 0.07000 0.94854
 C100 C 0.77200 0.08099 0.92417
 C101 C 0.74957 0.09021 0.93047
 C102 C 0.73953 0.08814 0.96101
 H103 H 0.77239 0.09487 1.03877
 H104 H 0.70974 0.06088 1.00500
 H105 H 0.78460 0.06029 0.99825
 H106 H 0.72249 0.09598 0.96607
 H107 H 0.71450 0.08189 1.10356
 H108 H 0.78006 0.08316 0.90075
 C109 C 0.25838 0.58562 0.54305
 C110 C 0.24574 0.57544 0.51785
 C111 C 0.22330 0.56617 0.52381
 C112 C 0.21351 0.56705 0.55461
 C113 C 0.22603 0.57745 0.57960
 C114 C 0.24842 0.58690 0.57377
 C115 C 0.25518 0.57629 0.48490
 C116 C 0.27776 0.56766 0.47791
 C117 C 0.28744 0.57018 0.44722
 C118 C 0.27469 0.58158 0.42343
 C119 C 0.25216 0.59037 0.43034
 C120 C 0.24232 0.58744 0.46087
 H121 H 0.27537 0.59360 0.53838
 H122 H 0.21329 0.55867 0.50433
 H123 H 0.28796 0.55944 0.49654
 H124 H 0.22524 0.59498 0.46646
 H125 H 0.21803 0.57897 0.60317
 H126 H 0.28263 0.58447 0.40010
 C127 C 0.73998 0.91387 0.54250
 C128 C 0.75328 0.92494 0.51848
 C129 C 0.77541 0.93422 0.52576
 C130 C 0.78425 0.93242 0.55678
 C131 C 0.77107 0.92103 0.58057
 C132 C 0.74898 0.91159 0.57333
 C133 C 0.74489 0.92480 0.48527
 C134 C 0.72263 0.93386 0.47820
 C135 C 0.71375 0.93197 0.44724
 C136 C 0.72699 0.92075 0.42324
 C137 C 0.74918 0.91147 0.43020
 C138 C 0.75825 0.91377 0.46105
 H139 H 0.72332 0.90573 0.53663
 H140 H 0.78594 0.94231 0.50705
 H141 H 0.71205 0.94195 0.49697
 H142 H 0.77509 0.90594 0.46664
 H143 H 0.77841 0.91850 0.60413
 H144 H 0.71968 0.91847 0.39958
 C145 C -0.03125 0.23398 0.38110
 C146 C -0.00923 0.23394 0.39597
 C147 C -0.00109 0.21332 0.41053
 C148 C -0.01505 0.19297 0.41054
 C149 C -0.03692 0.19311 0.39531
 C150 C -0.04498 0.21354 0.38041
 C151 C 0.00538 0.25539 0.39570
 C152 C -0.00238 0.27587 0.41155
 C153 C 0.01145 0.29626 0.41091
 C154 C 0.03277 0.29636 0.39382
 C155 C 0.04046 0.27614 0.37767
 C156 C 0.02692 0.25560 0.37892
 H157 H -0.03745 0.24983 0.36962
 H158 H 0.01589 0.21327 0.42211
 H159 H -0.01895 0.27581 0.42462
 H160 H 0.03289 0.23993 0.36641
 H161 H -0.04767 0.17736 0.39506
 H162 H 0.04342 0.31216 0.39315
 C163 C -0.02592 0.76258 0.12058
 C164 C -0.00440 0.76296 0.10380
 C165 C 0.00301 0.78376 0.08876
 C166 C -0.01121 0.80389 0.09016
 C167 C -0.03257 0.80340 0.10723
 C168 C -0.03989 0.78282 0.12260
 C169 C 0.01037 0.74163 0.10247
 C170 C 0.00194 0.72096 0.08804
 C171 C 0.01576 0.70053 0.08779
 C172 C 0.03776 0.70063 0.10257
 C173 C 0.04610 0.72107 0.11729
 C174 C 0.03256 0.74162 0.11688
 H175 H -0.03157 0.74658 0.13234
 H176 H 0.01952 0.78410 0.07556
 H177 H -0.01524 0.72087 0.07702
 H178 H 0.03898 0.75742 0.12846
 H179 H -0.04356 0.81898 0.10827
 H180 H 0.04836 0.68477 0.10288
 C181 C 0.47201 0.26341 0.61853
 C182 C 0.49421 0.26406 0.60362
 C183 C 0.50215 0.28497 0.58949
 C184 C 0.48783 0.30501 0.59003
 C185 C 0.46578 0.30432 0.60528
 C186 C 0.45792 0.28358 0.61970
 C187 C 0.50935 0.24306 0.60373
 C188 C 0.50272 0.22268 0.58700
 C189 C 0.51711 0.20271 0.58754
 C190 C 0.53782 0.20289 0.60535
 C191 C 0.54434 0.22302 0.62236
 C192 C 0.53026 0.24318 0.62128
 H193 H 0.46594 0.24737 0.62976
 H194 H 0.51932 0.28555 0.57798
 H195 H 0.48659 0.22250 0.57340
 H196 H 0.53534 0.25881 0.63443
 H197 H 0.45479 0.31990 0.60605
 H198 H 0.54889 0.18737 0.60593
 C199 C 0.47004 0.73698 0.88314
 C200 C 0.49205 0.73737 0.89803
 C201 C 0.50078 0.71677 0.91201
 C202 C 0.48744 0.69603 0.91142
 C203 C 0.46558 0.69577 0.89616
 C204 C 0.45696 0.71617 0.88185
 C205 C 0.50626 0.75910 0.89774
 C206 C 0.49746 0.77999 0.91146
 C207 C 0.51088 0.80064 0.91028
 C208 C 0.53284 0.80059 0.89474
 C209 C 0.54154 0.77994 0.88074
 C210 C 0.52842 0.75918 0.88260
 H211 H 0.46338 0.75273 0.87193
 H212 H 0.51778 0.71700 0.92354
 H213 H 0.48036 0.78009 0.92316
 H214 H 0.53516 0.74321 0.87162
 H215 H 0.45528 0.67974 0.89536
 H216 H 0.54310 0.81662 0.89344
 C217 C -0.27655 0.55567 1.00075
 C218 C -0.25639 0.56844 1.00903
 C219 C -0.25694 0.58328 1.03592
 C220 C -0.27754 0.58547 1.05431
 C221 C -0.29746 0.57245 1.04635
 C222 C -0.29704 0.55761 1.01956
 C223 C -0.23577 0.56894 0.98753
 C224 C -0.23615 0.58363 0.96080
 C225 C -0.21570 0.58718 0.94252
 C226 C -0.19494 0.57544 0.95041
 C227 C -0.19452 0.56054 0.97696
 C228 C -0.21488 0.55740 0.99567
 H229 H -0.27641 0.54481 0.97937
 H230 H -0.24171 0.59393 1.04155
 H231 H -0.25203 0.59338 0.95546
 H232 H -0.21430 0.54671 1.01701
 H233 H -0.31349 0.57452 1.06039
 H234 H -0.17887 0.57871 0.93690
 C235 C -0.28149 0.44851 0.49671
 C236 C -0.26070 0.43642 0.48868
 C237 C -0.26022 0.42143 0.46198
 C238 C -0.28043 0.41812 0.44372
 C239 C -0.30101 0.43045 0.45140
 C240 C -0.30160 0.44567 0.47788
 C241 C -0.24057 0.43625 0.51055
 C242 C -0.24193 0.42261 0.53833
 C243 C -0.22182 0.41862 0.55655
 C244 C -0.20045 0.42891 0.54763
 C245 C -0.19898 0.44270 0.52006
 C246 C -0.21898 0.44625 0.50137
 H247 H -0.28219 0.45935 0.51810
 H248 H -0.24458 0.41112 0.45679
 H249 H -0.25824 0.41376 0.54446
 H250 H -0.21759 0.45595 0.47921
 H251 H -0.31686 0.42726 0.43779
 H252 H -0.18471 0.42519 0.56115
 C253 C 0.21758 -0.05718 0.00251
 C254 C 0.23819 -0.06946 -0.00584
 C255 C 0.23804 -0.08521 -0.03176
 C256 C 0.21740 -0.08879 -0.04914
 C257 C 0.19703 -0.07624 -0.04106
 C258 C 0.19707 -0.06052 -0.01524
 C259 C 0.25890 -0.06859 0.01493
 C260 C 0.25923 -0.08277 0.04217
 C261 C 0.27982 -0.08509 0.05992
 C262 C 0.30001 -0.07261 0.05102
 C263 C 0.29978 -0.05821 0.02395
 C264 C 0.27928 -0.05632 0.00573
 H265 H 0.21739 -0.04558 0.02315
 H266 H 0.25368 -0.09544 -0.03735
 H267 H 0.24381 -0.09311 0.04834
 H268 H 0.27938 -0.04604 -0.01600
 H269 H 0.18094 -0.07923 -0.05420
 H270 H 0.31621 -0.07495 0.06414
 C271 C 0.21621 1.05400 0.49632
 C272 C 0.23675 1.06603 0.50497
 C273 C 0.23668 1.08025 0.53246
 C274 C 0.21618 1.08264 0.55103
 C275 C 0.19592 1.07030 0.54271
 C276 C 0.19586 1.05606 0.51536
 C277 C 0.25723 1.06663 0.48319
 C278 C 0.25619 1.08060 0.45576
 C279 C 0.27641 1.08441 0.43713
 C280 C 0.29757 1.07356 0.44529
 C281 C 0.29870 1.05942 0.47252
 C282 C 0.27859 1.05609 0.49167
 H283 H 0.21592 1.04364 0.47452
 H284 H 0.25217 1.09045 0.53833
 H285 H 0.23997 1.08969 0.45017
 H286 H 0.27969 1.04599 0.51349
 H287 H 0.17995 1.07250 0.55682
 H288 H 0.31343 1.07704 0.43143
 C289 C 0.16660 0.49355 0.21126
 C290 C 0.17774 0.50598 0.23587
 C291 C 0.18762 0.52802 0.22953
 C292 C 0.18639 0.53760 0.19889
 C293 C 0.17500 0.52531 0.17445
 C294 C 0.16499 0.50330 0.18072
 C295 C 0.17774 0.49660 0.26861
 C296 C 0.18613 0.47388 0.27434
 C297 C 0.18467 0.46433 0.30502
 C298 C 0.17461 0.47737 0.33010
 C299 C 0.16600 0.50002 0.32445
 C300 C 0.16782 0.50972 0.29386
 H301 H 0.15828 0.47681 0.21624
 H302 H 0.19604 0.53779 0.24856
 H303 H 0.19340 0.46350 0.25478
 H304 H 0.16044 0.52693 0.28932
 H305 H 0.17336 0.53311 0.15099
 H306 H 0.17263 0.46958 0.35357
 C307 C -0.16309 1.00699 0.21148
 C308 C -0.17357 0.99383 0.23609
 C309 C -0.18164 0.97105 0.22963
 C310 C -0.17925 0.96143 0.19890
 C311 C -0.16855 0.97450 0.17451
 C312 C -0.16031 0.99725 0.18085
 C313 C -0.17448 1.00324 0.26902
 C314 C -0.18390 1.02560 0.27516
 C315 C -0.18334 1.03516 0.30606
 C316 C -0.17312 1.02246 0.33092
 C317 C -0.16353 1.00018 0.32485
 C318 C -0.16446 0.99049 0.29408
 H319 H -0.15611 1.02432 0.21661
 H320 H -0.18944 0.96072 0.24872
 H321 H -0.19132 1.03565 0.25574
 H322 H -0.15636 0.97357 0.28928
 H323 H -0.16595 0.96672 0.15098
 H324 H -0.17185 1.03019 0.35460
 C325 C 0.33674 0.50683 -0.28747
 C326 C 0.32586 0.49369 -0.26315
 C327 C 0.31705 0.47128 -0.27010
 C328 C 0.31896 0.46206 -0.30111
 C329 C 0.33006 0.47509 -0.32522
 C330 C 0.33913 0.49743 -0.31836
 C331 C 0.32553 0.50267 -0.23003
 C332 C 0.31594 0.52482 -0.22310
 C333 C 0.31779 0.53446 -0.19236
 C334 C 0.32947 0.52203 -0.16845
 C335 C 0.33921 0.49991 -0.17531
 C336 C 0.33691 0.49013 -0.20590
 H337 H 0.34433 0.52382 -0.28190
 H338 H 0.30905 0.46089 -0.25125
 H339 H 0.30764 0.53478 -0.24193
 H340 H 0.34530 0.47348 -0.21153
 H341 H 0.33232 0.46751 -0.34891
 H342 H 0.33200 0.52997 -0.14511
 C343 C 0.66233 -0.00515 -0.30001
 C344 C 0.67273 0.00697 -0.27452
 C345 C 0.68182 0.02954 -0.27942
 C346 C 0.68053 0.03999 -0.30952
 C347 C 0.66988 0.02802 -0.33484
 C348 C 0.66061 0.00547 -0.33001
 C349 C 0.67247 -0.00328 -0.24227
 C350 C 0.68198 -0.02563 -0.23719
 C351 C 0.68055 -0.03592 -0.20694
 C352 C 0.66925 -0.02404 -0.18170
 C353 C 0.65954 -0.00174 -0.18675
 C354 C 0.66141 0.00871 -0.21686
 H355 H 0.65454 -0.02228 -0.29599
 H356 H 0.68952 0.03911 -0.25964
 H357 H 0.69033 -0.03507 -0.25685
 H358 H 0.65338 0.02571 -0.22091
 H359 H 0.66807 0.03656 -0.35780
 H360 H 0.66749 -0.03234 -0.15853
 C361 C -0.01225 0.22318 0.87163
 C362 C -0.01185 0.24486 0.85584
 C363 C -0.03234 0.25314 0.84114
 C364 C -0.05298 0.23968 0.84193
 C365 C -0.05330 0.21816 0.85803
 C366 C -0.03301 0.20996 0.87304
 C367 C 0.00985 0.25904 0.85535
 C368 C 0.02992 0.25111 0.83860
 C369 C 0.05049 0.26469 0.83825
 C370 C 0.05117 0.28596 0.85525
 C371 C 0.03131 0.29379 0.87229
 C372 C 0.01061 0.28046 0.87205
 H373 H 0.00347 0.21681 0.88322
 H374 H -0.03211 0.26985 0.82885
 H375 H 0.02938 0.23463 0.82552
 H376 H -0.00479 0.28657 0.88516
 H377 H -0.06930 0.20779 0.85884
 H378 H 0.06710 0.29645 0.85510
 C379 C 0.51113 0.22145 0.12909
 C380 C 0.51104 0.24315 0.14516
 C381 C 0.53159 0.25094 0.16037
 C382 C 0.55192 0.23694 0.15982
 C383 C 0.55189 0.21541 0.14340
 C384 C 0.53157 0.20772 0.12787
 C385 C 0.48961 0.25784 0.14520
 C386 C 0.46860 0.24962 0.15922
 C387 C 0.44814 0.26336 0.15838
 C388 C 0.44850 0.28512 0.14287
 C389 C 0.46929 0.29327 0.12853
 C390 C 0.48987 0.27977 0.13006
 H391 H 0.49541 0.21548 0.11704
 H392 H 0.53162 0.26766 0.17288
 H393 H 0.46827 0.23268 0.17094
 H394 H 0.50594 0.28607 0.11887
 H395 H 0.56763 0.20464 0.14275
 H396 H 0.43264 0.29568 0.14194
 C397 C 0.00999 0.71798 0.62939
 C398 C 0.01009 0.73951 0.64594
 C399 C 0.03068 0.74695 0.66136
 C400 C 0.05087 0.73276 0.66050
 C401 C 0.05065 0.71144 0.64363
 C402 C 0.03031 0.70410 0.62794
 C403 C -0.01130 0.75422 0.64656
 C404 C -0.03213 0.74586 0.66090
 C405 C -0.05264 0.75956 0.66059
 C406 C -0.05247 0.78142 0.64534
 C407 C -0.03186 0.78970 0.63067
 C408 C -0.01123 0.77625 0.63162
 H409 H -0.00578 0.71225 0.61727
 H410 H 0.03086 0.76352 0.67424
 H411 H -0.03224 0.72883 0.67239
 H412 H 0.00469 0.78261 0.62011
 H413 H 0.06631 0.70055 0.64273
 H414 H -0.06836 0.79197 0.64474
 C415 C 0.48903 0.72301 0.37028
 C416 C 0.48918 0.74487 0.35496
 C417 C 0.46841 0.75335 0.34118
 C418 C 0.44776 0.73994 0.34245
 C419 C 0.44770 0.71825 0.35811
 C420 C 0.46826 0.70986 0.37221
 C421 C 0.51066 0.75940 0.35502
 C422 C 0.53157 0.75134 0.34036
 C423 C 0.55194 0.76523 0.34120
 C424 C 0.55156 0.78686 0.35731
 C425 C 0.53089 0.79478 0.37224
 C426 C 0.51042 0.78122 0.37078
 H427 H 0.50490 0.71658 0.38143
 H428 H 0.46839 0.77027 0.32941
 H429 H 0.53190 0.73448 0.32819
 H430 H 0.49442 0.78739 0.38242
 H431 H 0.43166 0.70797 0.35944
 H432 H 0.56737 0.79749 0.35831
 B433 B -0.02707 0.01798 1.00607
 B434 B -0.03281 0.01197 0.96788
 B435 B -0.01444 0.03366 0.97716
 B436 B 0.00133 0.02599 1.00938
 B437 B -0.00775 -0.00168 1.01978
 B438 B -0.02935 -0.01014 0.99389
 B439 B 0.01092 -0.00372 0.95951
 B440 B 0.01672 0.00229 0.99761
 B441 B -0.00167 -0.01940 0.98839
 B442 B -0.01744 -0.01171 0.95616
 B443 B -0.00832 0.01592 0.94577
 B444 B 0.01320 0.02442 0.97163
 B445 B 0.47484 0.51995 0.51023
 B446 B 0.46969 0.51346 0.47201
 B447 B 0.48798 0.53522 0.48129
 B448 B 0.50323 0.52796 0.51418
 B449 B 0.49388 0.50045 0.52497
 B450 B 0.47267 0.49170 0.49866
 B451 B 0.51348 0.49755 0.46532
 B452 B 0.51872 0.50408 0.50345
 B453 B 0.50036 0.48233 0.49420
 B454 B 0.48517 0.48958 0.46132
 B455 B 0.49456 0.51705 0.45050
 B456 B 0.51570 0.52584 0.47680
 B457 B 0.52540 0.98973 0.49863
 B458 B 0.53169 0.99403 0.46008
 B459 B 0.51239 0.97348 0.47080
 B460 B 0.49667 0.98299 0.50275
 B461 B 0.50680 1.01061 0.51147
 B462 B 0.52891 1.01720 0.48487
 B463 B 0.48869 1.01112 0.45135
 B464 B 0.48233 1.00682 0.48988
 B465 B 0.50169 1.02737 0.47923
 B466 B 0.51739 1.01785 0.44725
 B467 B 0.50724 0.99022 0.43852
 B468 B 0.48516 0.98359 0.46509
 B469 B 0.02879 0.48485 1.01060
 B470 B 0.03428 0.49101 0.97231
 B471 B 0.01547 0.46970 0.98186
 B472 B 0.00022 0.47750 1.01508
 B473 B 0.01011 0.50487 1.02581
 B474 B 0.03165 0.51300 0.99912
 B475 B -0.00909 0.50782 0.96654
 B476 B -0.01468 0.50165 1.00474
 B477 B 0.00419 0.52295 0.99523
 B478 B 0.01940 0.51515 0.96202
 B479 B 0.00946 0.48783 0.95128
 B480 B -0.01200 0.47966 0.97795
 B481 B 0.02713 0.51178 0.49356
 B482 B 0.03198 0.50622 0.53201
 B483 B 0.01325 0.52732 0.52178
 B484 B -0.00137 0.51897 0.48875
 B485 B 0.00882 0.49148 0.47882
 B486 B 0.02991 0.48381 0.50582
 B487 B -0.01144 0.48941 0.53813
 B488 B -0.01637 0.49494 0.49971
 B489 B 0.00239 0.47384 0.50992
 B490 B 0.01701 0.48222 0.54293
 B491 B 0.00680 0.50968 0.55285
 B492 B -0.01424 0.51737 0.52588
 B493 B 0.52318 0.01785 -0.01278
 B494 B 0.52844 0.01114 0.02524
 B495 B 0.50988 0.03278 0.01660
 B496 B 0.49470 0.02558 -0.01649
 B497 B 0.50437 -0.00175 -0.02809
 B498 B 0.52571 -0.01047 -0.00204
 B499 B 0.48486 -0.00528 0.03148
 B500 B 0.47951 0.00145 -0.00645
 B501 B 0.49814 -0.02016 0.00217
 B502 B 0.51326 -0.01297 0.03524
 B503 B 0.50354 0.01431 0.04686
 B504 B 0.48228 0.02307 0.02083
 B505 B 0.47992 0.48367 -0.00961
 B506 B 0.47201 0.49091 0.02759
 B507 B 0.49059 0.46878 0.02106
 B508 B 0.50832 0.47528 -0.01022
 B509 B 0.50023 0.50269 -0.02289
 B510 B 0.47729 0.51217 0.00073
 B511 B 0.51536 0.50636 0.03859
 B512 B 0.52328 0.49912 0.00139
 B513 B 0.50469 0.52130 0.00791
 B514 B 0.48697 0.51477 0.03921
 B515 B 0.49509 0.48738 0.05185
 B516 B 0.51795 0.47787 0.02825
 B517 B -0.02898 0.98210 0.49740
 B518 B -0.03430 0.98860 0.53573
 B519 B -0.01632 0.96652 0.52604
 B520 B -0.00074 0.97359 0.49296
 B521 B -0.00950 1.00129 0.48242
 B522 B -0.03073 1.01040 0.50912
 B523 B 0.00975 1.00363 0.54178
 B524 B 0.01509 0.99712 0.50355
 B525 B -0.00285 1.01926 0.51317
 B526 B -0.01845 1.01217 0.54628
 B527 B -0.00967 0.98448 0.55679
 B528 B 0.01147 0.97535 0.53011
 B529 B 0.76385 0.22178 0.24917
 B530 B 0.75683 0.21584 0.28709
 B531 B 0.77903 0.23395 0.27878
 B532 B 0.77237 0.25004 0.24639
 B533 B 0.74481 0.24147 0.23484
 B534 B 0.73537 0.21983 0.26024
 B535 B 0.74153 0.25969 0.29514
 B536 B 0.74860 0.26567 0.25733
 B537 B 0.72635 0.24757 0.26555
 B538 B 0.73302 0.23146 0.29798
 B539 B 0.76057 0.24009 0.30951
 B540 B 0.77003 0.26162 0.28414
 B541 B 0.73253 0.77224 0.73932
 B542 B 0.74009 0.78080 0.77591
 B543 B 0.71807 0.76196 0.77100
 B544 B 0.72441 0.74383 0.74009
 B545 B 0.75164 0.75194 0.72597
 B546 B 0.76116 0.77528 0.74835
 B547 B 0.75613 0.73787 0.78781
 B548 B 0.74856 0.72931 0.75123
 B549 B 0.77063 0.74813 0.75615
 B550 B 0.76427 0.76626 0.78706
 B551 B 0.73706 0.75813 0.80117
 B552 B 0.72753 0.73485 0.77880
 B553 B 0.26321 0.27485 0.74840
 B554 B 0.25803 0.28021 0.70996
 B555 B 0.27903 0.26134 0.72011
 B556 B 0.27032 0.24634 0.75282
 B557 B 0.24272 0.25644 0.76260
 B558 B 0.23534 0.27783 0.73586
 B559 B 0.24118 0.23693 0.70296
 B560 B 0.24634 0.23155 0.74137
 B561 B 0.22535 0.25044 0.73123
 B562 B 0.23406 0.26542 0.69852
 B563 B 0.26165 0.25530 0.68874
 B564 B 0.26906 0.23395 0.71548
 B565 B 0.23365 0.72754 0.26221
 B566 B 0.24239 0.71998 0.22545
 B567 B 0.21962 0.73801 0.23066
 B568 B 0.22462 0.75572 0.26232
 B569 B 0.25177 0.74819 0.27660
 B570 B 0.26258 0.72558 0.25355
 B571 B 0.25728 0.76360 0.21538
 B572 B 0.24857 0.77122 0.25210
 B573 B 0.27135 0.75317 0.24688
 B574 B 0.26632 0.73548 0.21525
 B575 B 0.23923 0.74304 0.20101
 B576 B 0.22838 0.76555 0.22401
 B577 B 0.26461 0.72102 0.75023
 B578 B 0.25844 0.71522 0.78844
 B579 B 0.27980 0.73406 0.77911
 B580 B 0.27198 0.74956 0.74664
 B581 B 0.24459 0.73979 0.73619
 B582 B 0.23643 0.71810 0.76225
 B583 B 0.24162 0.75854 0.79625
 B584 B 0.24778 0.76439 0.75806
 B585 B 0.22643 0.74550 0.76736
 B586 B 0.23426 0.73003 0.79984
 B587 B 0.26166 0.73982 0.81031
 B588 B 0.26984 0.76147 0.78425
 B589 B 0.23274 0.27528 0.23818
 B590 B 0.23874 0.28115 0.27633
 B591 B 0.21686 0.26294 0.26724
 B592 B 0.22448 0.24696 0.23467
 B593 B 0.25230 0.25573 0.22387
 B594 B 0.26092 0.27736 0.24987
 B595 B 0.25405 0.23741 0.28386
 B596 B 0.24805 0.23145 0.24582
 B597 B 0.26994 0.24967 0.25486
 B598 B 0.26231 0.26565 0.28741
 B599 B 0.23453 0.25685 0.29820
 B600 B 0.22588 0.23531 0.27224
 B601 B 0.76867 0.77477 0.25749
 B602 B 0.76314 0.78045 0.21923
 B603 B 0.78423 0.76148 0.22870
 B604 B 0.77578 0.74617 0.26129
 B605 B 0.74829 0.75621 0.27167
 B606 B 0.74070 0.77787 0.24545
 B607 B 0.74614 0.73727 0.21174
 B608 B 0.75164 0.73150 0.24996
 B609 B 0.73060 0.75055 0.24053
 B610 B 0.73904 0.76581 0.20795
 B611 B 0.76652 0.75574 0.19755
 B612 B 0.77414 0.73413 0.22375
 B613 B 0.73454 0.22718 0.75937
 B614 B 0.74059 0.22156 0.72099
 B615 B 0.71868 0.23968 0.73092
 B616 B 0.72619 0.25545 0.76346
 B617 B 0.75401 0.24664 0.77341
 B618 B 0.76273 0.22520 0.74692
 B619 B 0.75578 0.26540 0.71359
 B620 B 0.74972 0.27107 0.75188
 B621 B 0.77167 0.25295 0.74202
 B622 B 0.76414 0.23717 0.70946
 B623 B 0.73634 0.24601 0.69955
 B624 B 0.72759 0.26736 0.72601
 C625 C 0.43161 1.02998 0.39560
 C626 C 0.41064 1.01800 0.40414
 C627 C 0.39002 1.02123 0.38588
 C628 C 0.39078 1.03559 0.35845
 C629 C 0.41129 1.04865 0.35106
 C630 C 0.43176 1.04593 0.36985
 C631 C 0.45208 1.05914 0.36211
 C632 C 0.45216 1.07462 0.33644
 C633 C 0.43215 1.07722 0.31794
 C634 C 0.41190 1.06439 0.32503
 C635 C 0.36905 1.00972 0.39538
 C636 C 0.36853 0.99526 0.42214
 C637 C 0.38887 0.99159 0.43956
 C638 C 0.40977 1.00261 0.43059
 C639 C 0.37140 1.03515 0.33625
 C640 C 0.35596 1.03412 0.31681
 C641 C 0.45288 1.02556 0.41333
 C642 C 0.46962 1.02046 0.42919
 H643 H 0.46802 1.05770 0.37588
 H644 H 0.46783 1.08465 0.33086
 H645 H 0.43231 1.08927 0.29802
 H646 H 0.39670 1.06711 0.31014
 H647 H 0.35283 1.01200 0.38245
 H648 H 0.35230 0.98675 0.42928
 H649 H 0.38844 0.98022 0.46022
 H650 H 0.42512 0.99915 0.44486
 C651 C -0.06844 0.53040 0.91828
 C652 C -0.07016 0.54989 0.89768
 C653 C -0.09098 0.55332 0.87983
 C654 C -0.10993 0.53740 0.88312
 C655 C -0.10924 0.51969 0.90659
 C656 C -0.08826 0.51587 0.92386
 C657 C -0.08757 0.49725 0.94611
 C658 C -0.10733 0.48339 0.95193
 C659 C -0.12804 0.48750 0.93551
 C660 C -0.12902 0.50530 0.91284
 C661 C -0.09221 0.57257 0.85872
 C662 C -0.07344 0.58820 0.85568
 C663 C -0.05312 0.58493 0.87336
 C664 C -0.05136 0.56594 0.89410
 C665 C -0.12855 0.53715 0.85975
 C666 C -0.14312 0.53587 0.83913
 C667 C -0.04632 0.52468 0.93316
 C668 C -0.02886 0.51837 0.94661
 H669 H -0.07190 0.49338 0.95952
 H670 H -0.10660 0.46947 0.96941
 H671 H -0.14339 0.47678 0.94024
 H672 H -0.14548 0.50789 0.90057
 H673 H -0.10777 0.57590 0.84477
 H674 H -0.07471 0.60295 0.83959
 H675 H -0.03864 0.59714 0.87099
 H676 H -0.03528 0.56411 0.90748
 C677 C 0.06833 -0.02193 0.90203
 C678 C 0.07148 -0.00856 0.87391
 C679 C 0.09287 -0.01026 0.85624
 C680 C 0.11100 -0.02536 0.86679
 C681 C 0.10786 -0.03870 0.89497
 C682 C 0.08638 -0.03705 0.91259
 C683 C 0.08360 -0.05045 0.94076
 C684 C 0.10160 -0.06499 0.95133
 C685 C 0.12264 -0.06654 0.93418
 C686 C 0.12583 -0.05360 0.90626
 C687 C 0.09565 0.00343 0.82827
 C688 C 0.07782 0.01834 0.81810
 C689 C 0.05690 0.01999 0.83541
 C690 C 0.05366 0.00675 0.86300
 C691 C 0.13235 -0.02748 0.84767
 C692 C 0.14897 -0.02853 0.82959
 C693 C 0.04740 -0.01826 0.92144
 C694 C 0.03058 -0.01327 0.93778
 H695 H 0.06758 -0.04972 0.95495
 H696 H 0.09927 -0.07498 0.97307
 H697 H 0.13659 -0.07778 0.94261
 H698 H 0.14251 -0.05527 0.89376
 H699 H 0.11161 0.00286 0.81397
 H700 H 0.08027 0.02866 0.79668
 H701 H 0.04308 0.03158 0.82742
 H702 H 0.03703 0.00862 0.87557
 C703 C 0.57368 0.47523 0.41643
 C704 C 0.57572 0.45549 0.39599
 C705 C 0.59692 0.45166 0.37843
 C706 C 0.61595 0.46746 0.38185
 C707 C 0.61481 0.48556 0.40504
 C708 C 0.59346 0.48974 0.42203
 C709 C 0.59241 0.50865 0.44412
 C710 C 0.61213 0.52245 0.45006
 C711 C 0.63316 0.51802 0.43388
 C712 C 0.63453 0.49992 0.41137
 C713 C 0.59847 0.43210 0.35755
 C714 C 0.57967 0.41657 0.35444
 C715 C 0.55899 0.42023 0.37183
 C716 C 0.55690 0.43950 0.39234
 C717 C 0.63531 0.46695 0.35899
 C718 C 0.65045 0.46733 0.33864
 C719 C 0.55133 0.48104 0.43142
 C720 C 0.53364 0.48726 0.44503
 H721 H 0.57647 0.51278 0.45733
 H722 H 0.61111 0.53658 0.46742
 H723 H 0.64846 0.52871 0.43869
 H724 H 0.65124 0.49709 0.39931
 H725 H 0.61432 0.42847 0.34382
 H726 H 0.58119 0.40159 0.33851
 H727 H 0.54447 0.40808 0.36941
 H728 H 0.54052 0.44162 0.40549
 C729 C 0.56979 0.52461 0.09951
 C730 C 0.58909 0.53853 0.08947
 C731 C 0.60967 0.53966 0.10845
 C732 C 0.61072 0.52695 0.13740
 C733 C 0.59131 0.51316 0.14750
 C734 C 0.57079 0.51203 0.12853
 C735 C 0.55167 0.49799 0.13901
 C736 C 0.55282 0.48541 0.16740
 C737 C 0.57290 0.48650 0.18597
 C738 C 0.59196 0.50018 0.17628
 C739 C 0.62891 0.55335 0.09769
 C740 C 0.62784 0.56557 0.06895
 C741 C 0.60770 0.56447 0.05042
 C742 C 0.58848 0.55116 0.06047
 C743 C 0.63140 0.52816 0.15740
 C744 C 0.64755 0.52851 0.17582
 C745 C 0.54989 0.52115 0.07870
 C746 C 0.53390 0.51619 0.06132
 H747 H 0.53561 0.49661 0.12546
 H748 H 0.53804 0.47477 0.17504
 H749 H 0.57373 0.47669 0.20802
 H750 H 0.60718 0.50038 0.19157
 H751 H 0.64496 0.55462 0.11125
 H752 H 0.64272 0.57590 0.06096
 H753 H 0.60703 0.57389 0.02804
 H754 H 0.57321 0.55076 0.04523
 C755 C 0.06854 1.01959 0.59600
 C756 C 0.07197 1.00516 0.62298
 C757 C 0.09353 1.00617 0.63973
 C758 C 0.11151 1.02173 0.62953
 C759 C 0.10821 1.03593 0.60227
 C760 C 0.08662 1.03485 0.58544
 C761 C 0.08371 1.04905 0.55812
 C762 C 0.10163 1.06393 0.54773
 C763 C 0.12272 1.06504 0.56421
 C764 C 0.12608 1.05122 0.59119
 C765 C 0.09659 0.99141 0.66653
 C766 C 0.07885 0.97615 0.67648
 C767 C 0.05774 0.97521 0.66011
 C768 C 0.05424 0.98948 0.63366
 C769 C 0.13273 1.02370 0.64834
 C770 C 0.14921 1.02480 0.66619
 C771 C 0.04718 1.01702 0.57776
 C772 C 0.02992 1.01277 0.56240
 H773 H 0.06763 1.04871 0.54449
 H774 H 0.09917 1.07460 0.52668
 H775 H 0.13655 1.07663 0.55598
 H776 H 0.14283 1.05252 0.60315
 H777 H 0.11271 0.99138 0.68003
 H778 H 0.08151 0.96501 0.69700
 H779 H 0.04398 0.96336 0.66794
 H780 H 0.03748 0.98810 0.62178
 C781 C -0.06935 0.46828 0.59255
 C782 C -0.09049 0.48031 0.58557
 C783 C -0.11049 0.47751 0.60575
 C784 C -0.10892 0.46346 0.63337
 C785 C -0.08844 0.44998 0.63888
 C786 C -0.06860 0.45232 0.61824
 C787 C -0.04821 0.43887 0.62426
 C788 C -0.04747 0.42349 0.65003
 C789 C -0.06687 0.42125 0.67032
 C790 C -0.08716 0.43434 0.66496
 C791 C -0.13160 0.48928 0.59806
 C792 C -0.13284 0.50356 0.57119
 C793 C -0.11308 0.50679 0.55186
 C794 C -0.09205 0.49550 0.55903
 C795 C -0.12721 0.46476 0.65770
 C796 C -0.14164 0.46637 0.67887
 C797 C -0.04820 0.47352 0.57441
 C798 C -0.03125 0.47937 0.55899
 H799 H -0.03274 0.44001 0.60904
 H800 H -0.03176 0.41327 0.65429
 H801 H -0.06621 0.40928 0.69030
 H802 H -0.10189 0.43191 0.68120
 H803 H -0.14736 0.48733 0.61253
 H804 H -0.14917 0.51228 0.56546
 H805 H -0.11406 0.51805 0.53115
 H806 H -0.07714 0.49864 0.54339
 C807 C 0.42467 -0.02835 0.07891
 C808 C 0.42227 -0.04859 0.09804
 C809 C 0.40106 -0.05236 0.11550
 C810 C 0.38243 -0.03599 0.11330
 C811 C 0.38379 -0.01746 0.09107
 C812 C 0.40515 -0.01333 0.07421
 C813 C 0.40651 0.00607 0.05326
 C814 C 0.38704 0.02043 0.04830
 C815 C 0.36597 0.01604 0.06433
 C816 C 0.36432 -0.00256 0.08575
 C817 C 0.39912 -0.07240 0.13514
 C818 C 0.41757 -0.08847 0.13710
 C819 C 0.43829 -0.08485 0.11982
 C820 C 0.44075 -0.06508 0.10056
 C821 C 0.36371 -0.03597 0.13705
 C822 C 0.34927 -0.03480 0.15824
 C823 C 0.44713 -0.02245 0.06451
 C824 C 0.46485 -0.01598 0.05135
 H825 H 0.42248 0.01018 0.04019
 H826 H 0.38828 0.03496 0.03180
 H827 H 0.35086 0.02715 0.06027
 H828 H 0.34760 -0.00537 0.09774
 H829 H 0.38322 -0.07599 0.14872
 H830 H 0.41575 -0.10383 0.15206
 H831 H 0.45253 -0.09740 0.12135
 H832 H 0.45713 -0.06298 0.08743
 C833 C 0.40243 0.47386 0.04904
 C834 C 0.39644 0.45654 0.07181
 C835 C 0.37296 0.44808 0.07380
 C836 C 0.35566 0.45715 0.05315
 C837 C 0.36156 0.47493 0.03093
 C838 C 0.38507 0.48318 0.02869
 C839 C 0.39081 0.50019 0.00529
 C840 C 0.37379 0.50878 -0.01531
 C841 C 0.35073 0.50087 -0.01293
 C842 C 0.34456 0.48422 0.00995
 C843 C 0.36746 0.43034 0.09621
 C844 C 0.38469 0.42124 0.11613
 C845 C 0.40764 0.42959 0.11426
 C846 C 0.41355 0.44705 0.09240
 C847 C 0.33223 0.44714 0.05291
 C848 C 0.31279 0.43895 0.05080
 C849 C 0.42672 0.48070 0.04449
 C850 C 0.44681 0.48580 0.03864
 H851 H 0.40851 0.50690 0.00247
 H852 H 0.37853 0.52162 -0.03323
 H853 H 0.33756 0.50759 -0.02899
 H854 H 0.32640 0.47855 0.01074
 H855 H 0.34984 0.42334 0.09855
 H856 H 0.38021 0.40761 0.13306
 H857 H 0.42097 0.42240 0.12969
 H858 H 0.43165 0.45293 0.09170
 C859 C -0.10133 0.96730 0.56359
 C860 C -0.11788 0.98024 0.58199
 C861 C -0.14163 0.97255 0.58391
 C862 C -0.14858 0.95193 0.56752
 C863 C -0.13175 0.93837 0.55040
 C864 C -0.10810 0.94617 0.54819
 C865 C -0.09184 0.93289 0.52961
 C866 C -0.09860 0.91224 0.51433
 C867 C -0.12167 0.90441 0.51692
 C868 C -0.13815 0.91728 0.53463
 C869 C -0.15803 0.98602 0.60187
 C870 C -0.15112 1.00652 0.61753
 C871 C -0.12787 1.01403 0.61565
 C872 C -0.11135 1.00110 0.59807
 C873 C -0.17321 0.94550 0.56593
 C874 C -0.19339 0.93963 0.56257
 C875 C -0.07795 0.97651 0.55772
 C876 C -0.05860 0.98298 0.54991
 H877 H -0.07374 0.93831 0.52663
 H878 H -0.08586 0.90229 0.50040
 H879 H -0.12688 0.88833 0.50502
 H880 H -0.15591 0.91049 0.53583
 H881 H -0.17628 0.98082 0.60403
 H882 H -0.16388 1.01662 0.63121
 H883 H -0.12260 1.02996 0.62786
 H884 H -0.09346 1.00757 0.59725
 C885 C -0.09980 0.03386 0.94232
 C886 C -0.11618 0.02110 0.92391
 C887 C -0.13987 0.02894 0.92222
 C888 C -0.14692 0.04953 0.93884
 C889 C -0.13026 0.06286 0.95608
 C890 C -0.10667 0.05491 0.95805
 C891 C -0.09055 0.06801 0.97659
 C892 C -0.09739 0.08863 0.99210
 C893 C -0.12041 0.09659 0.98980
 C894 C -0.13675 0.08389 0.97213
 C895 C -0.15610 0.01568 0.90419
 C896 C -0.14909 -0.00476 0.88824
 C897 C -0.12590 -0.01241 0.88991
 C898 C -0.10955 0.00030 0.90754
 C899 C -0.17151 0.05626 0.94025
 C900 C -0.19173 0.06226 0.94315
 C901 C -0.07646 0.02459 0.94764
 C902 C -0.05713 0.01799 0.95482
 H903 H -0.07250 0.06249 0.97933
 H904 H -0.08476 0.09846 1.00599
 H905 H -0.12568 0.11264 1.00189
 H906 H -0.15447 0.09076 0.97117
 H907 H -0.17430 0.02100 0.90218
 H908 H -0.16173 -0.01470 0.87452
 H909 H -0.12055 -0.02830 0.87748
 H910 H -0.09169 -0.00627 0.90816
 C911 C 0.40329 0.53513 0.44326
 C912 C 0.38724 0.52200 0.42479
 C913 C 0.36361 0.52983 0.42192
 C914 C 0.35630 0.55078 0.43744
 C915 C 0.37272 0.56458 0.45445
 C916 C 0.39623 0.55662 0.45763
 C917 C 0.41204 0.57017 0.47607
 C918 C 0.40501 0.59125 0.49021
 C919 C 0.38209 0.59922 0.48667
 C920 C 0.36603 0.58607 0.46913
 C921 C 0.34769 0.51619 0.40390
 C922 C 0.35494 0.49540 0.38906
 C923 C 0.37806 0.48774 0.39187
 C924 C 0.39410 0.50082 0.40955
 C925 C 0.33163 0.55722 0.43850
 C926 C 0.31131 0.56291 0.44143
 C927 C 0.42645 0.52588 0.44994
 C928 C 0.44560 0.51936 0.45805
 H929 H 0.42998 0.56464 0.47979
 H930 H 0.41741 0.60141 0.50403
 H931 H 0.37668 0.61562 0.49770
 H932 H 0.34838 0.59298 0.46715
 H933 H 0.32956 0.52151 0.40101
 H934 H 0.34255 0.48518 0.37530
 H935 H 0.38360 0.47158 0.38030
 H936 H 0.41192 0.49423 0.41108
 C937 C 0.09812 0.52967 0.55911
 C938 C 0.11430 0.51787 0.57880
 C939 C 0.13791 0.52594 0.58063
 C940 C 0.14511 0.54576 0.56276
 C941 C 0.12867 0.55805 0.54393
 C942 C 0.10513 0.54995 0.54202
 C943 C 0.08922 0.56208 0.52215
 C944 C 0.09628 0.58178 0.50501
 C945 C 0.11928 0.58983 0.50709
 C946 C 0.13537 0.57816 0.52625
 C947 C 0.15392 0.51364 0.60003
 C948 C 0.14680 0.49391 0.61717
 C949 C 0.12370 0.48602 0.61535
 C950 C 0.10755 0.49780 0.59639
 C951 C 0.16962 0.55279 0.56198
 C952 C 0.18980 0.55904 0.55956
 C953 C 0.07493 0.51999 0.55370
 C954 C 0.05583 0.51296 0.54613
 H955 H 0.07117 0.55650 0.51960
 H956 H 0.08383 0.59082 0.49000
 H957 H 0.12472 0.60515 0.49373
 H958 H 0.15307 0.58508 0.52701
 H959 H 0.17206 0.51915 0.60218
 H960 H 0.15928 0.48469 0.63191
 H961 H 0.11826 0.47068 0.62869
 H962 H 0.08976 0.49108 0.59571
 C963 C 0.59455 0.03316 0.05513
 C964 C 0.60143 0.05492 0.04172
 C965 C 0.62478 0.06314 0.04565
 C966 C 0.64124 0.04934 0.06239
 C967 C 0.63411 0.02806 0.07689
 C968 C 0.61063 0.01998 0.07331
 C969 C 0.60393 -0.00149 0.08759
 C970 C 0.62002 -0.01461 0.10499
 C971 C 0.64300 -0.00671 0.10845
 C972 C 0.65007 0.01437 0.09458
 C973 C 0.63128 0.08492 0.03198
 C974 C 0.61519 0.09812 0.01473
 C975 C 0.59243 0.08989 0.01044
 C976 C 0.58560 0.06851 0.02355
 C977 C 0.66581 0.05617 0.06220
 C978 C 0.68608 0.06215 0.06003
 C979 C 0.57151 0.02378 0.04787
 C980 C 0.55246 0.01717 0.03941
 H981 H 0.58623 -0.00828 0.08553
 H982 H 0.61462 -0.03099 0.11582
 H983 H 0.65543 -0.01697 0.12197
 H984 H 0.66810 0.01986 0.09797
 H985 H 0.64881 0.09203 0.03457
 H986 H 0.62045 0.11475 0.00451
 H987 H 0.58000 0.10011 -0.00313
 H988 H 0.56778 0.06280 0.01929
 C989 C 0.59853 0.96908 0.43717
 C990 C 0.60532 0.95056 0.45757
 C991 C 0.62895 0.94253 0.45721
 C992 C 0.64560 0.95291 0.43623
 C993 C 0.63857 0.97072 0.41488
 C994 C 0.61493 0.97886 0.41539
 C995 C 0.60833 0.99691 0.39422
 C996 C 0.62465 1.00663 0.37303
 C997 C 0.64779 0.99867 0.37251
 C998 C 0.65477 0.98093 0.39318
 C999 C 0.63548 0.92444 0.47847
 C1000 C 0.61911 0.91459 0.49947
 C1001 C 0.59597 0.92241 0.49978
 C1002 C 0.58906 0.94014 0.47913
 C1003 C 0.67008 0.94594 0.43799
 C1004 C 0.69019 0.93979 0.44124
 C1005 C 0.57526 0.97914 0.44097
 C1006 C 0.55595 0.98661 0.44730
 H1007 H 0.59050 1.00359 0.39376
 H1008 H 0.61932 1.02042 0.35693
 H1009 H 0.66041 1.00629 0.35601
 H1010 H 0.67294 0.97527 0.39191
 H1011 H 0.65327 0.91771 0.47913
 H1012 H 0.62443 0.90081 0.51559
 H1013 H 0.58329 0.91474 0.51614
 H1014 H 0.57085 0.94558 0.48030
 C1015 C 0.10035 0.46785 0.94217
 C1016 C 0.10698 0.44638 0.95648
 C1017 C 0.13035 0.43798 0.95281
 C1018 C 0.14705 0.45129 0.93532
 C1019 C 0.14019 0.47226 0.91998
 C1020 C 0.11670 0.48054 0.92337
 C1021 C 0.11027 0.50172 0.90828
 C1022 C 0.12661 0.51437 0.89025
 C1023 C 0.14960 0.50628 0.88694
 C1024 C 0.15642 0.48547 0.90162
 C1025 C 0.13661 0.41654 0.96746
 C1026 C 0.12026 0.40385 0.98541
 C1027 C 0.09747 0.41225 0.98940
 C1028 C 0.09085 0.43329 0.97530
 C1029 C 0.17155 0.44423 0.93537
 C1030 C 0.19174 0.43804 0.93722
 C1031 C 0.07732 0.47754 0.94930
 C1032 C 0.05828 0.48451 0.95782
 H1033 H 0.09257 0.50864 0.91019
 H1034 H 0.12141 0.53053 0.87880
 H1035 H 0.16223 0.51617 0.87292
 H1036 H 0.17447 0.47982 0.89834
 H1037 H 0.15416 0.40932 0.96515
 H1038 H 0.12535 0.38748 0.99640
 H1039 H 0.08483 0.40243 1.00351
 H1040 H 0.07298 0.43915 0.97936
 C1041 C -0.00703 0.40299 0.48600
 C1042 C 0.00782 0.38592 0.49970
 C1043 C 0.00910 0.36296 0.48624
 C1044 C -0.00453 0.35720 0.45915
 C1045 C -0.02067 0.37376 0.44696
 C1046 C -0.02190 0.39674 0.46040
 C1047 C -0.03780 0.41315 0.44739
 C1048 C -0.05225 0.40698 0.42201
 C1049 C -0.05108 0.38451 0.40891
 C1050 C -0.03546 0.36803 0.42109
 C1051 C 0.02443 0.34635 0.50000
 C1052 C 0.03807 0.35222 0.52635
 C1053 C 0.03681 0.37466 0.53950
 C1054 C 0.02191 0.39140 0.52639
 C1055 C -0.00039 0.33508 0.44239
 C1056 C 0.00432 0.31714 0.42815
 C1057 C -0.00525 0.42738 0.49608
 C1058 C -0.00263 0.44776 0.50317
 H1059 H -0.03930 0.43085 0.45677
 H1060 H -0.06441 0.41972 0.41245
 H1061 H -0.06234 0.37980 0.38918
 H1062 H -0.03520 0.35074 0.41020
 H1063 H 0.02595 0.32864 0.49067
 H1064 H 0.04967 0.33927 0.53662
 H1065 H 0.04742 0.37913 0.55997
 H1066 H 0.02145 0.40861 0.53751
 C1067 C 0.48745 -0.08969 -0.02674
 C1068 C 0.48710 -0.10898 -0.00561
 C1069 C 0.48882 -0.13226 -0.01797
 C1070 C 0.49081 -0.13603 -0.05139
 C1071 C 0.48926 -0.11678 -0.07256
 C1072 C 0.48754 -0.09355 -0.06019
 C1073 C 0.48636 -0.07455 -0.08181
 C1074 C 0.48686 -0.07840 -0.11472
 C1075 C 0.48859 -0.10112 -0.12683
 C1076 C 0.48980 -0.12015 -0.10611
 C1077 C 0.48884 -0.15127 0.00363
 C1078 C 0.48700 -0.14741 0.03651
 C1079 C 0.48525 -0.12465 0.04857
 C1080 C 0.48540 -0.10557 0.02784
 C1081 C 0.49646 -0.15922 -0.06402
 C1082 C 0.50239 -0.17787 -0.07536
 C1083 C 0.48980 -0.06593 -0.01447
 C1084 C 0.49279 -0.04593 -0.00591
 H1085 H 0.48488 -0.05656 -0.07353
 H1086 H 0.48589 -0.06368 -0.13091
 H1087 H 0.48896 -0.10403 -0.15242
 H1088 H 0.49101 -0.13751 -0.11668
 H1089 H 0.49006 -0.16926 -0.00469
 H1090 H 0.48691 -0.16216 0.05272
 H1091 H 0.48378 -0.12176 0.07411
 H1092 H 0.48391 -0.08818 0.03825
 C1093 C 0.00445 -0.08990 1.01335
 C1094 C 0.02505 -0.10122 1.02407
 C1095 C 0.02348 -0.12380 1.03841
 C1096 C 0.00130 -0.13492 1.04183
 C1097 C -0.01914 -0.12401 1.02970
 C1098 C -0.01755 -0.10148 1.01543
 C1099 C -0.03831 -0.09084 1.00385
 C1100 C -0.05997 -0.10214 1.00628
 C1101 C -0.06153 -0.12417 1.02022
 C1102 C -0.04143 -0.13505 1.03185
 C1103 C 0.04426 -0.13463 1.04930
 C1104 C 0.06603 -0.12357 1.04591
 C1105 C 0.06757 -0.10158 1.03174
 C1106 C 0.04734 -0.09038 1.02103
 C1107 C -0.00103 -0.15706 1.05882
 C1108 C -0.00475 -0.17509 1.07311
 C1109 C 0.00519 -0.06570 1.00260
 C1110 C 0.00369 -0.04534 0.99513
 H1111 H -0.03805 -0.07375 0.99268
 H1112 H -0.07563 -0.09376 0.99725
 H1113 H -0.07840 -0.13289 1.02205
 H1114 H -0.04360 -0.15222 1.04243
 H1115 H 0.04390 -0.15177 1.06035
 H1116 H 0.08179 -0.13214 1.05427
 H1117 H 0.08452 -0.09314 1.02903
 H1118 H 0.04937 -0.07328 1.01016
 C1119 C 0.51102 0.41338 0.52390
 C1120 C 0.51149 0.39353 0.50346
 C1121 C 0.50942 0.37062 0.51658
 C1122 C 0.50696 0.36778 0.55007
 C1123 C 0.50834 0.38757 0.57060
 C1124 C 0.51042 0.41043 0.55747
 C1125 C 0.51143 0.43000 0.57845
 C1126 C 0.51042 0.42703 0.61147
 C1127 C 0.50834 0.40467 0.62432
 C1128 C 0.50728 0.38510 0.60423
 C1129 C 0.50952 0.35104 0.49566
 C1130 C 0.51179 0.35400 0.46270
 C1131 C 0.51388 0.37641 0.44991
 C1132 C 0.51366 0.39604 0.46996
 C1133 C 0.50131 0.34492 0.56340
 C1134 C 0.49563 0.32647 0.57524
 C1135 C 0.50891 0.43680 0.51082
 C1136 C 0.50593 0.45664 0.50192
 H1137 H 0.51319 0.44774 0.56960
 H1138 H 0.51128 0.44218 0.62716
 H1139 H 0.50755 0.40246 0.64999
 H1140 H 0.50576 0.36805 0.61536
 H1141 H 0.50804 0.33329 0.50457
 H1142 H 0.51197 0.33881 0.44702
 H1143 H 0.51570 0.37861 0.42432
 H1144 H 0.51542 0.41314 0.45901
 C1145 C 0.50037 1.09698 0.50885
 C1146 C 0.51907 1.10094 0.53038
 C1147 C 0.52140 1.12312 0.54571
 C1148 C 0.50502 1.14124 0.53951
 C1149 C 0.48650 1.13738 0.51775
 C1150 C 0.48426 1.11520 0.50224
 C1151 C 0.46582 1.11180 0.48034
 C1152 C 0.44981 1.12971 0.47413
 C1153 C 0.45187 1.15133 0.48947
 C1154 C 0.47001 1.15524 0.51103
 C1155 C 0.54024 1.12662 0.56714
 C1156 C 0.55628 1.10875 0.57324
 C1157 C 0.55401 1.08706 0.55827
 C1158 C 0.53568 1.08309 0.53710
 C1159 C 0.50760 1.16376 0.55559
 C1160 C 0.51114 1.18188 0.56979
 C1161 C 0.49775 1.07378 0.49472
 C1162 C 0.49773 1.05366 0.48561
 H1163 H 0.46378 1.09534 0.46771
 H1164 H 0.43576 1.12684 0.45730
 H1165 H 0.43939 1.16519 0.48458
 H1166 H 0.47098 1.17235 0.52233
 H1167 H 0.54280 1.14317 0.57942
 H1168 H 0.57056 1.11176 0.58967
 H1169 H 0.56652 1.07321 0.56306
 H1170 H 0.53478 1.06591 0.52606
 C1171 C -0.00652 0.59255 1.02405
 C1172 C -0.00707 0.59623 1.05754
 C1173 C -0.00546 0.61938 1.07015
 C1174 C -0.00339 0.63873 1.04919
 C1175 C -0.00473 0.63516 1.01572
 C1176 C -0.00636 0.61197 1.00312
 C1177 C -0.00745 0.60875 0.96963
 C1178 C -0.00703 0.62794 0.94910
 C1179 C -0.00535 0.65062 0.96140
 C1180 C -0.00415 0.65429 0.99433
 C1181 C -0.00557 0.62258 1.10374
 C1182 C -0.00730 0.60345 1.12425
 C1183 C -0.00891 0.58080 1.11191
 C1184 C -0.00878 0.57712 1.07896
 C1185 C 0.00214 0.66181 1.06212
 C1186 C 0.00797 0.68033 1.07379
 C1187 C -0.00408 0.56884 1.01157
 C1188 C -0.00105 0.54882 1.00298
 H1189 H -0.00885 0.59142 0.95904
 H1190 H -0.00802 0.62520 0.92352
 H1191 H -0.00501 0.66546 0.94534
 H1192 H -0.00298 0.67222 1.00284
 H1193 H -0.00448 0.63987 1.11448
 H1194 H -0.00741 0.60622 1.14987
 H1195 H -0.01029 0.56600 1.12794
 H1196 H -0.01020 0.55919 1.07050
 C1197 C 0.51451 0.59121 -0.01898
 C1198 C 0.52299 0.59585 -0.05024
 C1199 C 0.51979 0.61847 -0.06381
 C1200 C 0.50818 0.63633 -0.04600
 C1201 C 0.50125 0.63214 -0.01391
 C1202 C 0.50444 0.60952 -0.00037
 C1203 C 0.49696 0.60562 0.03152
 C1204 C 0.48668 0.62360 0.04960
 C1205 C 0.48356 0.64571 0.03637
 C1206 C 0.49071 0.65003 0.00498
 C1207 C 0.52796 0.62251 -0.09535
 C1208 C 0.53898 0.60474 -0.11300
 C1209 C 0.54208 0.58263 -0.09973
 C1210 C 0.53422 0.57813 -0.06871
 C1211 C 0.50173 0.65828 -0.06133
 C1212 C 0.49542 0.67615 -0.07413
 C1213 C 0.51342 0.56715 -0.00764
 C1214 C 0.51081 0.54700 0.00037
 H1215 H 0.49911 0.58872 0.04285
 H1216 H 0.48112 0.62035 0.07401
 H1217 H 0.47555 0.65961 0.05049
 H1218 H 0.48799 0.66753 -0.00424
 H1219 H 0.52599 0.63945 -0.10663
 H1220 H 0.54511 0.60813 -0.13711
 H1221 H 0.55059 0.56887 -0.11358
 H1222 H 0.53712 0.56071 -0.05933
 C1223 C 0.00825 1.08831 0.48313
 C1224 C 0.00223 1.10810 0.50210
 C1225 C -0.00007 1.13055 0.48767
 C1226 C 0.00371 1.13308 0.45434
 C1227 C 0.01139 1.11358 0.43582
 C1228 C 0.01369 1.09115 0.45027
 C1229 C 0.02097 1.07183 0.43115
 C1230 C 0.02592 1.07460 0.39871
 C1231 C 0.02369 1.09652 0.38460
 C1232 C 0.01647 1.11584 0.40281
 C1233 C -0.00652 1.14998 0.50707
 C1234 C -0.01048 1.14734 0.53980
 C1235 C -0.00822 1.12541 0.55388
 C1236 C -0.00199 1.10592 0.53533
 C1237 C -0.00200 1.15514 0.43875
 C1238 C -0.00770 1.17308 0.42557
 C1239 C 0.00630 1.06479 0.49626
 C1240 C 0.00325 1.04492 0.50528
 H1241 H 0.02301 1.05446 0.44110
 H1242 H 0.03153 1.05964 0.38446
 H1243 H 0.02757 1.09857 0.35939
 H1244 H 0.01503 1.13255 0.39080
 H1245 H -0.00841 1.16739 0.49720
 H1246 H -0.01530 1.16242 0.55432
 H1247 H -0.01131 1.12347 0.57932
 H1248 H -0.00035 1.08921 0.54731
 C1249 C 0.77732 0.68381 0.84745
 C1250 C 0.76485 0.68148 0.87669
 C1251 C 0.76714 0.66064 0.89484
 C1252 C 0.78197 0.64227 0.88367
 C1253 C 0.79467 0.64471 0.85459
 C1254 C 0.79235 0.66560 0.83642
 C1255 C 0.80493 0.66759 0.80720
 C1256 C 0.81940 0.64943 0.79623
 C1257 C 0.82168 0.62901 0.81402
 C1258 C 0.80949 0.62658 0.84290
 C1259 C 0.75422 0.65861 0.92385
 C1260 C 0.73950 0.67664 0.93455
 C1261 C 0.73728 0.69703 0.91677
 C1262 C 0.74976 0.69952 0.88817
 C1263 C 0.78397 0.62110 0.90256
 C1264 C 0.78457 0.60454 0.92031
 C1265 C 0.77259 0.70385 0.82736
 C1266 C 0.76670 0.71975 0.81044
 H1267 H 0.80364 0.68313 0.79253
 H1268 H 0.82877 0.65116 0.77371
 H1269 H 0.83287 0.61493 0.80531
 H1270 H 0.81168 0.61033 0.85584
 H1271 H 0.75528 0.64310 0.93858
 H1272 H 0.72976 0.67476 0.95676
 H1273 H 0.72583 0.71100 0.92517
 H1274 H 0.74749 0.71577 0.87526
 C1275 C 0.27120 0.18071 0.34130
 C1276 C 0.25722 0.17804 0.36921
 C1277 C 0.25848 0.15696 0.38703
 C1278 C 0.27384 0.13871 0.37693
 C1279 C 0.28782 0.14137 0.34897
 C1280 C 0.28650 0.16248 0.33110
 C1281 C 0.30041 0.16473 0.30304
 C1282 C 0.31519 0.14658 0.29287
 C1283 C 0.31649 0.12594 0.31036
 C1284 C 0.30300 0.12325 0.33813
 C1285 C 0.24410 0.15462 0.41471
 C1286 C 0.22896 0.17258 0.42445
 C1287 C 0.22777 0.19323 0.40703
 C1288 C 0.24169 0.19603 0.37972
 C1289 C 0.27554 0.11772 0.39623
 C1290 C 0.27621 0.10141 0.41441
 C1291 C 0.26800 0.20130 0.32171
 C1292 C 0.26333 0.21790 0.30534
 H1293 H 0.29992 0.18045 0.28864
 H1294 H 0.32559 0.14851 0.27122
 H1295 H 0.32798 0.11192 0.30229
 H1296 H 0.30448 0.10684 0.35087
 H1297 H 0.24430 0.13889 0.42908
 H1298 H 0.21810 0.17046 0.44564
 H1299 H 0.21601 0.20716 0.41470
 H1300 H 0.24015 0.21247 0.36705
 C1301 C 0.72287 0.31718 0.35180
 C1302 C 0.70873 0.33569 0.34023
 C1303 C 0.70749 0.35733 0.35729
 C1304 C 0.72032 0.36023 0.38586
 C1305 C 0.73420 0.34156 0.39762
 C1306 C 0.73544 0.31998 0.38056
 C1307 C 0.74957 0.30162 0.39265
 C1308 C 0.76212 0.30453 0.42081
 C1309 C 0.76092 0.32564 0.43753
 C1310 C 0.74717 0.34400 0.42619
 C1311 C 0.69356 0.37573 0.34504
 C1312 C 0.68117 0.37280 0.31672
 C1313 C 0.68236 0.35162 0.30006
 C1314 C 0.69595 0.33320 0.31158
 C1315 C 0.71920 0.38209 0.40379
 C1316 C 0.71905 0.39923 0.42081
 C1317 C 0.72659 0.29619 0.33269
 C1318 C 0.73171 0.27934 0.31660
 H1319 H 0.75103 0.28482 0.38059
 H1320 H 0.77282 0.29031 0.42971
 H1321 H 0.77070 0.32783 0.45940
 H1322 H 0.74689 0.36007 0.44009
 H1323 H 0.69222 0.39254 0.35711
 H1324 H 0.67066 0.38707 0.30756
 H1325 H 0.67283 0.34950 0.27797
 H1326 H 0.69642 0.31707 0.29778
 C1327 C 0.22150 0.81690 0.85035
 C1328 C 0.20466 0.81760 0.87543
 C1329 C 0.20185 0.83841 0.89397
 C1330 C 0.21568 0.85845 0.88695
 C1331 C 0.23096 0.85838 0.86008
 C1332 C 0.23429 0.83739 0.84213
 C1333 C 0.25062 0.83743 0.81635
 C1334 C 0.26246 0.85787 0.80765
 C1335 C 0.25870 0.87856 0.82471
 C1336 C 0.24332 0.87886 0.85087
 C1337 C 0.18524 0.83860 0.91939
 C1338 C 0.17165 0.81883 0.92610
 C1339 C 0.17433 0.79851 0.90783
 C1340 C 0.19067 0.79778 0.88276
 C1341 C 0.21582 0.87823 0.90894
 C1342 C 0.21653 0.89405 0.92815
 C1343 C 0.22616 0.79519 0.83316
 C1344 C 0.23160 0.77807 0.81779
 H1345 H 0.25422 0.82177 0.80242
 H1346 H 0.27456 0.85765 0.78749
 H1347 H 0.26786 0.89442 0.81777
 H1348 H 0.24102 0.89533 0.86356
 H1349 H 0.18244 0.85407 0.93409
 H1350 H 0.15895 0.81929 0.94555
 H1351 H 0.16371 0.78322 0.91311
 H1352 H 0.19214 0.78162 0.86914
 C1353 C 0.27681 0.81879 0.15628
 C1354 C 0.26411 0.82063 0.12752
 C1355 C 0.26558 0.84148 0.10920
 C1356 C 0.27984 0.86035 0.11971
 C1357 C 0.29274 0.85842 0.14832
 C1358 C 0.29119 0.83754 0.16671
 C1359 C 0.30390 0.83607 0.19552
 C1360 C 0.31782 0.85471 0.20583
 C1361 C 0.31941 0.87509 0.18778
 C1362 C 0.30702 0.87704 0.15933
 C1363 C 0.25244 0.84300 0.08068
 C1364 C 0.23828 0.82448 0.07064
 C1365 C 0.23685 0.80408 0.08859
 C1366 C 0.24957 0.80207 0.11671
 C1367 C 0.28103 0.88148 0.10058
 C1368 C 0.28092 0.89788 0.08253
 C1369 C 0.27297 0.79859 0.17649
 C1370 C 0.26762 0.78238 0.19333
 H1371 H 0.30316 0.82057 0.21035
 H1372 H 0.32733 0.85337 0.22802
 H1373 H 0.33024 0.88950 0.19596
 H1374 H 0.30866 0.89327 0.14616
 H1375 H 0.25290 0.85848 0.06583
 H1376 H 0.22836 0.82598 0.04880
 H1377 H 0.22582 0.78972 0.08070
 H1378 H 0.24790 0.78580 0.12977
 C1379 C 0.77244 0.32217 0.65545
 C1380 C 0.75860 0.32454 0.62775
 C1381 C 0.75990 0.34544 0.60949
 C1382 C 0.77513 0.36384 0.61896
 C1383 C 0.78896 0.36147 0.64671
 C1384 C 0.78760 0.34054 0.66503
 C1385 C 0.80133 0.33861 0.69289
 C1386 C 0.81604 0.35686 0.70240
 C1387 C 0.81746 0.37727 0.68442
 C1388 C 0.80410 0.37968 0.65687
 C1389 C 0.74573 0.34744 0.58197
 C1390 C 0.73073 0.32933 0.57283
 C1391 C 0.72946 0.30889 0.59072
 C1392 C 0.74319 0.30642 0.61787
 C1393 C 0.77685 0.38468 0.59927
 C1394 C 0.77765 0.40089 0.58088
 C1395 C 0.76939 0.30165 0.67535
 C1396 C 0.76491 0.28505 0.69196
 H1397 H 0.80076 0.32307 0.70766
 H1398 H 0.82634 0.35517 0.72388
 H1399 H 0.82900 0.39130 0.69189
 H1400 H 0.80566 0.39593 0.64373
 H1401 H 0.74599 0.36300 0.56726
 H1402 H 0.72002 0.33119 0.55175
 H1403 H 0.71779 0.29485 0.58352
 H1404 H 0.74159 0.29014 0.63093
 C1405 C 0.22053 0.17761 0.65201
 C1406 C 0.20304 0.17639 0.62833
 C1407 C 0.19982 0.15521 0.61083
 C1408 C 0.21395 0.13538 0.61747
 C1409 C 0.22977 0.13594 0.64327
 C1410 C 0.23347 0.15726 0.66018
 C1411 C 0.25035 0.15772 0.68480
 C1412 C 0.26244 0.13745 0.69337
 C1413 C 0.25832 0.11643 0.67735
 C1414 C 0.24235 0.11563 0.65233
 C1415 C 0.18257 0.15447 0.58672
 C1416 C 0.16875 0.17408 0.58030
 C1417 C 0.17184 0.19478 0.59755
 C1418 C 0.18881 0.19603 0.62131
 C1419 C 0.21421 0.11557 0.59558
 C1420 C 0.21507 0.10001 0.57601
 C1421 C 0.22567 0.19968 0.66780
 C1422 C 0.23134 0.21711 0.68212
 H1423 H 0.25420 0.17363 0.69793
 H1424 H 0.27498 0.13805 0.71264
 H1425 H 0.26765 0.10070 0.68420
 H1426 H 0.23974 0.09893 0.64042
 H1427 H 0.17943 0.13868 0.57288
 H1428 H 0.15555 0.17320 0.56187
 H1429 H 0.16105 0.20995 0.59251
 H1430 H 0.19057 0.21246 0.63419
 C1431 C 0.72550 0.67916 0.15816
 C1432 C 0.70891 0.67885 0.13325
 C1433 C 0.70600 0.65817 0.11457
 C1434 C 0.71946 0.63789 0.12131
 C1435 C 0.73431 0.63754 0.14817
 C1436 C 0.73777 0.65839 0.16625
 C1437 C 0.75374 0.65795 0.19196
 C1438 C 0.76509 0.63725 0.20048
 C1439 C 0.76119 0.61670 0.18329
 C1440 C 0.74617 0.61679 0.15718
 C1441 C 0.68972 0.65836 0.08924
 C1442 C 0.67653 0.67839 0.08276
 C1443 C 0.67929 0.69858 0.10120
 C1444 C 0.69532 0.69892 0.12617
 C1445 C 0.71990 0.61841 0.09887
 C1446 C 0.72099 0.60295 0.07914
 C1447 C 0.73051 0.70077 0.17520
 C1448 C 0.73615 0.71782 0.19040
 H1449 H 0.75744 0.67349 0.20596
 H1450 H 0.77691 0.63716 0.22059
 H1451 H 0.76997 0.60063 0.19007
 H1452 H 0.74373 0.60042 0.14437
 H1453 H 0.68686 0.64300 0.07444
 H1454 H 0.66407 0.67822 0.06338
 H1455 H 0.66897 0.71407 0.09610
 H1456 H 0.69686 0.71499 0.13993
 C1457 C 0.22787 0.65091 0.19846
 C1458 C 0.20702 0.64599 0.18152
 C1459 C 0.19956 0.62236 0.17753
 C1460 C 0.21295 0.60388 0.19064
 C1461 C 0.23427 0.60878 0.20655
 C1462 C 0.24172 0.63240 0.21056
 C1463 C 0.26266 0.63696 0.22750
 C1464 C 0.27588 0.61868 0.24013
 C1465 C 0.26861 0.59556 0.23617
 C1466 C 0.24807 0.59056 0.21958
 C1467 C 0.17843 0.61784 0.16104
 C1468 C 0.16501 0.63617 0.14888
 C1469 C 0.17228 0.65930 0.15285
 C1470 C 0.19303 0.66427 0.16897
 C1471 C 0.20360 0.58022 0.19110
 C1472 C 0.19575 0.56067 0.19355
 C1473 C 0.23396 0.67498 0.20591
 C1474 C 0.23832 0.69487 0.21353
 H1475 H 0.26903 0.65467 0.23119
 H1476 H 0.29183 0.62248 0.25306
 H1477 H 0.27892 0.58140 0.24603
 H1478 H 0.24315 0.57229 0.21710
 H1479 H 0.17211 0.60012 0.15733
 H1480 H 0.14888 0.63240 0.13634
 H1481 H 0.16177 0.67345 0.14337
 H1482 H 0.19800 0.68252 0.17144
 C1483 C 0.71849 0.15496 0.69298
 C1484 C 0.69771 0.14781 0.70920
 C1485 C 0.68938 0.12448 0.70559
 C1486 C 0.70201 0.10834 0.68608
 C1487 C 0.72235 0.11568 0.66910
 C1488 C 0.73060 0.13911 0.67253
 C1489 C 0.75113 0.14602 0.65570
 C1490 C 0.76319 0.13020 0.63596
 C1491 C 0.75513 0.10727 0.63260
 C1492 C 0.73495 0.10000 0.64895
 C1493 C 0.66866 0.11769 0.72222
 C1494 C 0.65663 0.13347 0.74202
 C1495 C 0.66493 0.15624 0.74584
 C1496 C 0.68523 0.16339 0.72977
 C1497 C 0.69482 0.08392 0.68540
 C1498 C 0.68851 0.06376 0.68670
 C1499 C 0.72798 0.17809 0.69938
 C1500 C 0.73467 0.19729 0.70726
 H1501 H 0.75802 0.16369 0.65758
 H1502 H 0.77887 0.13576 0.62320
 H1503 H 0.76456 0.09505 0.61724
 H1504 H 0.72931 0.08201 0.64558
 H1505 H 0.66152 0.10015 0.72011
 H1506 H 0.64083 0.12798 0.75454
 H1507 H 0.65560 0.16845 0.76134
 H1508 H 0.69101 0.18125 0.73370
 C1509 C 0.77876 0.14882 0.31226
 C1510 C 0.79977 0.14231 0.29597
 C1511 C 0.80810 0.11886 0.29768
 C1512 C 0.79521 0.10198 0.31535
 C1513 C 0.77467 0.10867 0.33252
 C1514 C 0.76644 0.13221 0.33102
 C1515 C 0.74571 0.13847 0.34798
 C1516 C 0.73344 0.12192 0.36602
 C1517 C 0.74147 0.09887 0.36749
 C1518 C 0.76184 0.09222 0.35094
 C1519 C 0.82904 0.11273 0.28099
 C1520 C 0.84133 0.12927 0.26297
 C1521 C 0.83303 0.15216 0.26098
 C1522 C 0.81248 0.15866 0.27711
 C1523 C 0.80243 0.07755 0.31397
 C1524 C 0.80887 0.05749 0.31106
 C1525 C 0.76913 0.17207 0.30724
 C1526 C 0.76245 0.19139 0.30017
 H1527 H 0.73884 0.15620 0.34752
 H1528 H 0.71761 0.12699 0.37892
 H1529 H 0.73187 0.08608 0.38152
 H1530 H 0.76745 0.07412 0.35280
 H1531 H 0.83618 0.09512 0.28170
 H1532 H 0.85731 0.12428 0.25039
 H1533 H 0.84255 0.16496 0.24685
 H1534 H 0.80673 0.17663 0.27461
 C1535 C 0.28135 0.64853 0.81383
 C1536 C 0.30182 0.64159 0.79663
 C1537 C 0.30987 0.61804 0.79840
 C1538 C 0.29733 0.60155 0.81717
 C1539 C 0.27740 0.60871 0.83530
 C1540 C 0.26938 0.63232 0.83362
 C1541 C 0.24922 0.63904 0.85151
 C1542 C 0.23731 0.62288 0.87064
 C1543 C 0.24516 0.59978 0.87231
 C1544 C 0.26496 0.59267 0.85485
 C1545 C 0.33021 0.61143 0.78066
 C1546 C 0.34215 0.62760 0.76161
 C1547 C 0.33414 0.65059 0.75965
 C1548 C 0.31422 0.65758 0.77684
 C1549 C 0.30418 0.57702 0.81594
 C1550 C 0.31031 0.55686 0.81297
 C1551 C 0.27180 0.67179 0.80873
 C1552 C 0.26492 0.69104 0.80165
 H1553 H 0.24252 0.65683 0.85096
 H1554 H 0.22192 0.62831 0.88423
 H1555 H 0.23586 0.58730 0.88721
 H1556 H 0.27045 0.57455 0.85690
 H1557 H 0.33712 0.59374 0.78133
 H1558 H 0.35766 0.62223 0.74822
 H1559 H 0.34340 0.66310 0.74473
 H1560 H 0.30868 0.67563 0.77439
 C1561 C 0.28211 0.34686 0.68644
 C1562 C 0.27102 0.36363 0.66691
 C1563 C 0.27899 0.38729 0.66700
 C1564 C 0.29802 0.39396 0.68663
 C1565 C 0.30966 0.37696 0.70530
 C1566 C 0.30171 0.35335 0.70519
 C1567 C 0.31325 0.33680 0.72474
 C1568 C 0.33215 0.34334 0.74370
 C1569 C 0.33999 0.36644 0.74371
 C1570 C 0.32895 0.38313 0.72479
 C1571 C 0.26738 0.40388 0.64768
 C1572 C 0.24843 0.39726 0.62878
 C1573 C 0.24064 0.37411 0.62872
 C1574 C 0.25174 0.35740 0.64756
 C1575 C 0.30497 0.41841 0.68911
 C1576 C 0.31113 0.43848 0.69277
 C1577 C 0.27223 0.32356 0.69016
 C1578 C 0.26500 0.30428 0.69661
 H1579 H 0.30782 0.31864 0.72565
 H1580 H 0.34071 0.33042 0.75847
 H1581 H 0.35468 0.37148 0.75849
 H1582 H 0.33570 0.40087 0.72567
 H1583 H 0.27283 0.42207 0.64697
 H1584 H 0.23974 0.41017 0.61411
 H1585 H 0.22592 0.36905 0.61400
 H1586 H 0.24514 0.33959 0.64674
 C1587 C 0.78643 0.84684 0.19245
 C1588 C 0.77415 0.86311 0.17344
 C1589 C 0.78200 0.88677 0.17167
 C1590 C 0.80210 0.89391 0.18886
 C1591 C 0.81507 0.87731 0.20655
 C1592 C 0.80714 0.85374 0.20852
 C1593 C 0.81986 0.83768 0.22748
 C1594 C 0.84007 0.84460 0.24349
 C1595 C 0.84799 0.86761 0.24125
 C1596 C 0.83568 0.88387 0.22310
 C1597 C 0.76918 0.90289 0.15304
 C1598 C 0.74918 0.89582 0.13658
 C1599 C 0.74152 0.87266 0.13832
 C1600 C 0.75380 0.85641 0.15654
 C1601 C 0.80853 0.91852 0.19050
 C1602 C 0.81411 0.93880 0.19365
 C1603 C 0.77687 0.82365 0.19817
 C1604 C 0.76990 0.80450 0.20570
 H1605 H 0.81436 0.81963 0.23017
 H1606 H 0.84960 0.83203 0.25773
 H1607 H 0.86371 0.87294 0.25373
 H1608 H 0.84251 0.90158 0.22216
 H1609 H 0.77452 0.92107 0.15095
 H1610 H 0.73959 0.90837 0.12240
 H1611 H 0.72598 0.86725 0.12549
 H1612 H 0.74724 0.83858 0.15719
 C1613 C 0.72336 0.85071 0.79554
 C1614 C 0.70659 0.85726 0.81917
 C1615 C 0.69851 0.88085 0.82096
 C1616 C 0.70739 0.89772 0.79924
 C1617 C 0.72461 0.89126 0.77610
 C1618 C 0.73249 0.86763 0.77409
 C1619 C 0.74896 0.86133 0.74987
 C1620 C 0.75737 0.87793 0.72825
 C1621 C 0.74983 0.90110 0.73040
 C1622 C 0.73371 0.90781 0.75406
 C1623 C 0.68134 0.88692 0.84431
 C1624 C 0.67245 0.87015 0.86535
 C1625 C 0.68043 0.84708 0.86367
 C1626 C 0.69731 0.84061 0.84088
 C1627 C 0.69779 0.92131 0.79908
 C1628 C 0.68986 0.94087 0.79730
 C1629 C 0.72994 0.82631 0.79153
 C1630 C 0.73493 0.80613 0.78622
 H1631 H 0.75535 0.84352 0.74718
 H1632 H 0.76979 0.87276 0.70971
 H1633 H 0.75641 0.91394 0.71355
 H1634 H 0.72830 0.92602 0.75463
 H1635 H 0.67464 0.90465 0.84654
 H1636 H 0.65927 0.87507 0.88302
 H1637 H 0.67340 0.83410 0.87998
 H1638 H 0.70290 0.82244 0.84037
 C1639 C 0.21805 0.34814 0.30541
 C1640 C 0.19639 0.35539 0.29226
 C1641 C 0.18887 0.37901 0.29592
 C1642 C 0.20327 0.39534 0.31221
 C1643 C 0.22445 0.38788 0.32643
 C1644 C 0.23185 0.36415 0.32308
 C1645 C 0.25324 0.35711 0.33706
 C1646 C 0.26696 0.37310 0.35395
 C1647 C 0.25975 0.39634 0.35721
 C1648 C 0.23875 0.40375 0.34362
 C1649 C 0.16720 0.38589 0.28246
 C1650 C 0.15344 0.36989 0.26566
 C1651 C 0.16096 0.34683 0.26167
 C1652 C 0.18222 0.33962 0.27461
 C1653 C 0.19711 0.42003 0.31187
 C1654 C 0.19167 0.44039 0.30972
 C1655 C 0.22676 0.32478 0.29830
 C1656 C 0.23298 0.30548 0.29005
 H1657 H 0.25952 0.33920 0.33514
 H1658 H 0.28328 0.36743 0.36456
 H1659 H 0.27047 0.40870 0.37033
 H1660 H 0.23380 0.42198 0.34681
 H1661 H 0.16063 0.40366 0.28483
 H1662 H 0.13690 0.37545 0.25556
 H1663 H 0.15031 0.33446 0.24845
 H1664 H 0.18738 0.32156 0.27059
 C1665 C 0.15450 0.24285 0.75664
 C1666 C 0.13816 0.25942 0.74503
 C1667 C 0.11569 0.26173 0.75997
 C1668 C 0.10966 0.24739 0.78636
 C1669 C 0.12535 0.22963 0.79639
 C1670 C 0.14788 0.22741 0.78154
 C1671 C 0.16350 0.20994 0.79250
 C1672 C 0.15695 0.19486 0.81714
 C1673 C 0.13489 0.19697 0.83157
 C1674 C 0.11923 0.21419 0.82148
 C1675 C 0.09986 0.27879 0.74837
 C1676 C 0.10601 0.29310 0.72269
 C1677 C 0.12797 0.29080 0.70807
 C1678 C 0.14395 0.27421 0.71904
 C1679 C 0.08823 0.25222 0.80458
 C1680 C 0.07084 0.25734 0.81991
 C1681 C 0.17878 0.24362 0.74557
 C1682 C 0.19918 0.24565 0.73796
 H1683 H 0.18086 0.20770 0.78209
 H1684 H 0.16906 0.18149 0.82511
 H1685 H 0.12989 0.18522 0.85073
 H1686 H 0.10225 0.21517 0.83338
 H1687 H 0.08254 0.28117 0.75889
 H1688 H 0.09366 0.30603 0.71409
 H1689 H 0.13266 0.30194 0.68811
 H1690 H 0.16079 0.27300 0.70683
 C1691 C 0.66130 0.74485 0.27281
 C1692 C 0.64156 0.73621 0.25616
 C1693 C 0.61869 0.73798 0.27018
 C1694 C 0.61570 0.74869 0.30060
 C1695 C 0.63556 0.75676 0.31762
 C1696 C 0.65841 0.75479 0.30374
 C1697 C 0.67795 0.76319 0.32117
 C1698 C 0.67500 0.77329 0.35134
 C1699 C 0.65267 0.77525 0.36489
 C1700 C 0.63313 0.76711 0.34836
 C1701 C 0.59924 0.72915 0.25312
 C1702 C 0.60228 0.71888 0.22302
 C1703 C 0.62460 0.71735 0.20922
 C1704 C 0.64407 0.72598 0.22546
 C1705 C 0.59229 0.75282 0.31385
 C1706 C 0.57349 0.75768 0.32586
 C1707 C 0.68457 0.74462 0.25812
 C1708 C 0.70453 0.74603 0.24831
 H1709 H 0.69572 0.76205 0.31177
 H1710 H 0.69014 0.77963 0.36428
 H1711 H 0.65047 0.78311 0.38835
 H1712 H 0.61614 0.76899 0.36000
 H1713 H 0.58156 0.73001 0.26291
 H1714 H 0.58721 0.71214 0.21030
 H1715 H 0.62683 0.70944 0.18579
 H1716 H 0.66109 0.72457 0.21377
 C1717 C 0.65722 0.25865 0.23589
 C1718 C 0.65416 0.26651 0.20416
 C1719 C 0.63179 0.26452 0.18945
 C1720 C 0.61258 0.25469 0.20656
 C1721 C 0.61530 0.24829 0.23899
 C1722 C 0.63768 0.25029 0.25369
 C1723 C 0.64006 0.24339 0.28591
 C1724 C 0.62085 0.23482 0.30322
 C1725 C 0.59898 0.23287 0.28888
 C1726 C 0.59614 0.23947 0.25713
 C1727 C 0.62932 0.27208 0.15750
 C1728 C 0.64838 0.28131 0.14055
 C1729 C 0.67025 0.28318 0.15490
 C1730 C 0.67320 0.27592 0.18635
 C1731 C 0.59067 0.24952 0.19020
 C1732 C 0.57283 0.24428 0.17641
 C1733 C 0.68081 0.25670 0.24872
 C1734 C 0.70071 0.25368 0.25759
 H1735 H 0.65672 0.24470 0.29808
 H1736 H 0.62295 0.22968 0.32790
 H1737 H 0.58412 0.22620 0.30244
 H1738 H 0.57879 0.23770 0.24702
 H1739 H 0.61263 0.27100 0.14536
 H1740 H 0.64618 0.28701 0.11613
 H1741 H 0.68503 0.29028 0.14159
 H1742 H 0.69051 0.27783 0.19656
 C1743 C 0.15801 0.75057 0.73372
 C1744 C 0.15560 0.73755 0.70496
 C1745 C 0.13328 0.73577 0.69017
 C1746 C 0.11344 0.74707 0.70411
 C1747 C 0.11596 0.76053 0.73245
 C1748 C 0.13830 0.76216 0.74738
 C1749 C 0.14032 0.77532 0.77595
 C1750 C 0.12089 0.78684 0.78926
 C1751 C 0.09909 0.78539 0.77456
 C1752 C 0.09654 0.77235 0.74651
 C1753 C 0.13132 0.72244 0.66163
 C1754 C 0.15082 0.71121 0.64809
 C1755 C 0.17264 0.71296 0.66251
 C1756 C 0.17512 0.72595 0.69058
 C1757 C 0.09045 0.74379 0.68977
 C1758 C 0.07201 0.73959 0.67687
 C1759 C 0.18082 0.75130 0.74909
 C1760 C 0.20052 0.75013 0.75936
 H1761 H 0.15690 0.77676 0.78824
 H1762 H 0.12274 0.79691 0.81110
 H1763 H 0.08406 0.79438 0.78500
 H1764 H 0.07926 0.77168 0.73594
 H1765 H 0.11475 0.72056 0.64940
 H1766 H 0.14897 0.70109 0.62628
 H1767 H 0.18775 0.70420 0.65191
 H1768 H 0.19250 0.72674 0.70078
 C1769 C 0.84063 0.73608 0.72915
 C1770 C 0.85914 0.74464 0.74831
 C1771 C 0.88221 0.74672 0.73515
 C1772 C 0.88660 0.74020 0.70293
 C1773 C 0.86848 0.72989 0.68462
 C1774 C 0.84541 0.72782 0.69779
 C1775 C 0.82745 0.71793 0.67884
 C1776 C 0.83214 0.71027 0.64773
 C1777 C 0.85471 0.71224 0.63487
 C1778 C 0.87273 0.72196 0.65298
 C1779 C 0.90033 0.75579 0.75456
 C1780 C 0.89582 0.76253 0.78611
 C1781 C 0.87325 0.76050 0.79896
 C1782 C 0.85504 0.75170 0.78036
 C1783 C 0.90902 0.74600 0.68787
 C1784 C 0.92721 0.75190 0.67513
 C1785 C 0.81644 0.73836 0.74020
 C1786 C 0.79628 0.74173 0.74815
 H1787 H 0.80966 0.71593 0.68791
 H1788 H 0.81819 0.70278 0.63352
 H1789 H 0.85827 0.70622 0.61071
 H1790 H 0.89001 0.72310 0.64201
 H1791 H 0.91817 0.75761 0.74562
 H1792 H 0.90991 0.76936 0.80066
 H1793 H 0.86984 0.76575 0.82347
 H1794 H 0.83779 0.75032 0.79140
 C1795 C 0.34015 0.23904 0.22785
 C1796 C 0.35891 0.24674 0.24723
 C1797 C 0.38188 0.24917 0.23383
 C1798 C 0.38594 0.24384 0.20112
 C1799 C 0.36752 0.23456 0.18237
 C1800 C 0.34456 0.23215 0.19578
 C1801 C 0.32630 0.22333 0.17638
 C1802 C 0.33061 0.21704 0.14462
 C1803 C 0.35307 0.21930 0.13154
 C1804 C 0.37138 0.22799 0.15008
 C1805 C 0.40025 0.25734 0.25353
 C1806 C 0.39607 0.26289 0.28558
 C1807 C 0.37361 0.26052 0.29866
 C1808 C 0.35516 0.25258 0.27979
 C1809 C 0.40842 0.24966 0.18621
 C1810 C 0.42671 0.25545 0.17359
 C1811 C 0.31605 0.24079 0.23953
 C1812 C 0.29583 0.24369 0.24758
 H1813 H 0.30858 0.22113 0.18557
 H1814 H 0.31643 0.21039 0.13009
 H1815 H 0.35632 0.21435 0.10688
 H1816 H 0.38856 0.22941 0.13888
 H1817 H 0.41801 0.25939 0.24443
 H1818 H 0.41034 0.26905 0.30035
 H1819 H 0.37046 0.26485 0.32356
 H1820 H 0.33800 0.25091 0.29100
 C1821 C 0.34075 0.76537 0.27438
 C1822 C 0.34525 0.77353 0.30572
 C1823 C 0.36809 0.77100 0.31880
 C1824 C 0.38629 0.76038 0.30040
 C1825 C 0.38221 0.75397 0.26818
 C1826 C 0.35937 0.75649 0.25514
 C1827 C 0.35558 0.74954 0.22309
 C1828 C 0.37388 0.74044 0.20438
 C1829 C 0.39623 0.73798 0.21713
 C1830 C 0.40044 0.74461 0.24867
 C1831 C 0.37205 0.77881 0.35043
 C1832 C 0.35396 0.78891 0.36860
 C1833 C 0.33163 0.79137 0.35581
 C1834 C 0.32721 0.78378 0.32473
 C1835 C 0.40847 0.75428 0.31525
 C1836 C 0.42655 0.74820 0.32764
 C1837 C 0.31667 0.76336 0.26347
 C1838 C 0.29667 0.76000 0.25540
 H1839 H 0.33850 0.75125 0.21212
 H1840 H 0.37071 0.73528 0.17987
 H1841 H 0.41040 0.73090 0.20250
 H1842 H 0.41813 0.74245 0.25751
 H1843 H 0.38916 0.77731 0.36135
 H1844 H 0.35731 0.79484 0.39275
 H1845 H 0.31764 0.79917 0.37005
 H1846 H 0.30960 0.78615 0.31569
 C1847 C 0.84121 0.26387 0.76952
 C1848 C 0.84452 0.27031 0.80188
 C1849 C 0.86708 0.26798 0.81587
 C1850 C 0.88620 0.25921 0.79741
 C1851 C 0.88322 0.25434 0.76446
 C1852 C 0.86065 0.25668 0.75048
 C1853 C 0.85798 0.25127 0.71769
 C1854 C 0.87711 0.24381 0.69916
 C1855 C 0.89919 0.24153 0.71280
 C1856 C 0.90230 0.24667 0.74509
 C1857 C 0.86983 0.27407 0.84844
 C1858 C 0.85082 0.28217 0.86671
 C1859 C 0.82874 0.28433 0.85308
 C1860 C 0.82553 0.27855 0.82103
 C1861 C 0.90825 0.25339 0.81285
 C1862 C 0.92612 0.24760 0.82600
 C1863 C 0.81749 0.26197 0.75721
 C1864 C 0.79747 0.25897 0.74894
 H1865 H 0.84115 0.25289 0.70606
 H1866 H 0.87479 0.23979 0.67407
 H1867 H 0.91399 0.23573 0.69830
 H1868 H 0.91980 0.24470 0.75465
 H1869 H 0.88668 0.27270 0.86007
 H1870 H 0.85324 0.28674 0.89160
 H1871 H 0.81401 0.29050 0.86741
 H1872 H 0.80806 0.28065 0.81142
 C1873 C 0.58095 0.97444 0.55909
 C1874 C 0.60299 0.98337 0.54873
 C1875 C 0.62182 0.98522 0.57059
 C1876 C 0.61819 0.97908 0.60293
 C1877 C 0.59683 0.96840 0.61266
 C1878 C 0.57817 0.96594 0.59057
 C1879 C 0.55680 0.95566 0.60092
 C1880 C 0.55396 0.94795 0.63228
 C1881 C 0.57221 0.95040 0.65394
 C1882 C 0.59344 0.96055 0.64437
 C1883 C 0.64377 0.99393 0.55970
 C1884 C 0.64697 1.00077 0.52802
 C1885 C 0.62835 0.99956 0.50681
 C1886 C 0.60651 0.99124 0.51708
 C1887 C 0.63476 0.98703 0.62676
 C1888 C 0.64747 0.99517 0.64683
 C1889 C 0.56069 0.97666 0.53855
 C1890 C 0.54443 0.98073 0.52123
 H1891 H 0.54216 0.95340 0.58484
 H1892 H 0.53752 0.94005 0.63983
 H1893 H 0.56992 0.94440 0.67827
 H1894 H 0.60722 0.96200 0.66193
 H1895 H 0.65867 0.99532 0.57550
 H1896 H 0.66391 1.00725 0.51998
 H1897 H 0.63079 1.00512 0.48230
 H1898 H 0.59246 0.99096 0.49997
 C1899 C 0.08453 0.46819 1.07006
 C1900 C 0.08091 0.46227 1.10251
 C1901 C 0.09935 0.46553 1.12475
 C1902 C 0.12130 0.47455 1.11427
 C1903 C 0.12568 0.47803 1.08132
 C1904 C 0.10715 0.47512 1.05918
 C1905 C 0.11155 0.48002 1.02660
 C1906 C 0.13381 0.48687 1.01596
 C1907 C 0.15206 0.48930 1.03757
 C1908 C 0.14810 0.48512 1.06998
 C1909 C 0.09514 0.46025 1.15731
 C1910 C 0.07332 0.45184 1.16756
 C1911 C 0.05527 0.44864 1.14577
 C1912 C 0.05891 0.45383 1.11358
 C1913 C 0.13795 0.48330 1.13748
 C1914 C 0.15085 0.49192 1.15696
 C1915 C 0.06453 0.47062 1.04908
 C1916 C 0.04826 0.47510 1.03194
 H1917 H 0.09782 0.47854 1.00913
 H1918 H 0.13689 0.49037 0.99087
 H1919 H 0.16934 0.49461 1.02923
 H1920 H 0.16276 0.48731 1.08601
 H1921 H 0.10871 0.46237 1.17505
 H1922 H 0.07040 0.44780 1.19254
 H1923 H 0.03836 0.44212 1.15386
 H1924 H 0.04442 0.45102 1.09742
 C1925 C -0.08258 0.03347 1.06846
 C1926 C -0.07888 0.04007 1.10064
 C1927 C -0.09706 0.03669 1.12374
 C1928 C -0.11881 0.02689 1.11437
 C1929 C -0.12335 0.02276 1.08168
 C1930 C -0.10507 0.02574 1.05869
 C1931 C -0.10957 0.02013 1.02640
 C1932 C -0.13174 0.01257 1.01684
 C1933 C -0.14976 0.01008 1.03927
 C1934 C -0.14566 0.01492 1.07143
 C1935 C -0.09276 0.04266 1.15601
 C1936 C -0.07111 0.05187 1.16516
 C1937 C -0.05333 0.05519 1.14254
 C1938 C -0.05706 0.04932 1.11060
 C1939 C -0.13493 0.01782 1.13840
 C1940 C -0.14736 0.00872 1.15829
 C1941 C -0.06270 0.03133 1.04658
 C1942 C -0.04652 0.02717 1.02861
 H1943 H -0.09601 0.02157 1.00832
 H1944 H -0.13491 0.00856 0.99194
 H1945 H -0.16696 0.00421 1.03177
 H1946 H -0.16014 0.01265 1.08813
 H1947 H -0.10613 0.04046 1.17435
 H1948 H -0.06813 0.05644 1.18993
 H1949 H -0.03656 0.06234 1.14977
 H1950 H -0.04277 0.05223 1.09377
 C1951 C 0.41867 0.53491 0.57171
 C1952 C 0.42230 0.54003 0.60440
 C1953 C 0.40391 0.53610 0.62702
 C1954 C 0.38200 0.52720 0.61673
 C1955 C 0.37762 0.52443 0.58373
 C1956 C 0.39610 0.52802 0.56117
 C1957 C 0.39170 0.52385 0.52847
 C1958 C 0.36948 0.51703 0.51815
 C1959 C 0.35129 0.51392 0.54018
 C1960 C 0.35526 0.51739 0.57268
 C1961 C 0.40814 0.54062 0.65972
 C1962 C 0.42993 0.54890 0.66978
 C1963 C 0.44793 0.55274 0.64764
 C1964 C 0.44427 0.54832 0.61527
 C1965 C 0.36537 0.51789 0.63999
 C1966 C 0.35253 0.50878 0.65940
 C1967 C 0.43868 0.53319 0.54995
 C1968 C 0.45505 0.52925 0.53218
 H1969 H 0.40539 0.52587 0.51066
 H1970 H 0.36640 0.51407 0.49298
 H1971 H 0.33405 0.50863 0.53207
 H1972 H 0.34063 0.51469 0.58903
 H1973 H 0.39462 0.53797 0.67775
 H1974 H 0.43287 0.55234 0.69489
 H1975 H 0.46482 0.55916 0.65558
 H1976 H 0.45872 0.55161 0.59885
 C1977 C 0.42826 0.46729 -0.07539
 C1978 C 0.40568 0.45907 -0.06647
 C1979 C 0.38630 0.46275 -0.08708
 C1980 C 0.38983 0.47432 -0.11660
 C1981 C 0.41287 0.48039 -0.12680
 C1982 C 0.43214 0.47689 -0.10609
 C1983 C 0.45495 0.48366 -0.11639
 C1984 C 0.45862 0.49351 -0.14643
 C1985 C 0.43977 0.49690 -0.16677
 C1986 C 0.41713 0.49047 -0.15720
 C1987 C 0.36374 0.45499 -0.07735
 C1988 C 0.36052 0.44339 -0.04835
 C1989 C 0.37956 0.43952 -0.02839
 C1990 C 0.40190 0.44748 -0.03707
 C1991 C 0.37003 0.48163 -0.13578
 C1992 C 0.35506 0.48929 -0.15306
 C1993 C 0.44660 0.46939 -0.05182
 C1994 C 0.46171 0.47387 -0.03285
 H1995 H 0.47018 0.48120 -0.10147
 H1996 H 0.47618 0.49850 -0.15398
 H1997 H 0.44270 0.50454 -0.19011
 H1998 H 0.40308 0.49337 -0.17397
 H1999 H 0.34850 0.45757 -0.09221
 H2000 H 0.34317 0.43740 -0.04129
 H2001 H 0.37695 0.43051 -0.00592
 H2002 H 0.41620 0.44427 -0.02076
 C2003 C -0.08502 0.96606 0.43774
 C2004 C -0.08149 0.95867 0.40573
 C2005 C -0.09978 0.96153 0.38319
 C2006 C -0.12149 0.97157 0.39295
 C2007 C -0.12587 0.97649 0.42562
 C2008 C -0.10745 0.97408 0.44802
 C2009 C -0.11178 0.98054 0.48020
 C2010 C -0.13391 0.98830 0.49028
 C2011 C -0.15208 0.99017 0.46847
 C2012 C -0.14814 0.98455 0.43638
 C2013 C -0.09564 0.95478 0.35104
 C2014 C -0.07405 0.94531 0.34147
 C2015 C -0.05617 0.94249 0.36355
 C2016 C -0.05973 0.94912 0.39535
 C2017 C -0.13772 0.98008 0.36911
 C2018 C -0.15012 0.98865 0.34912
 C2019 C -0.06504 0.96856 0.45878
 C2020 C -0.04872 0.97289 0.47595
 H2021 H -0.09809 0.97958 0.49779
 H2022 H -0.13694 0.99295 0.51510
 H2023 H -0.16925 0.99618 0.47639
 H2024 H -0.16272 0.98638 0.42015
 H2025 H -0.10911 0.95656 0.33311
 H2026 H -0.07119 0.94014 0.31680
 H2027 H -0.03943 0.93514 0.35600
 H2028 H -0.04537 0.94656 0.41176
 C2029 C 0.08459 0.53058 0.43664
 C2030 C 0.10650 0.52162 0.44684
 C2031 C 0.12588 0.52075 0.42522
 C2032 C 0.12294 0.52795 0.39327
 C2033 C 0.10181 0.53901 0.38400
 C2034 C 0.08257 0.54044 0.40588
 C2035 C 0.06140 0.55106 0.39597
 C2036 C 0.05933 0.56010 0.36524
 C2037 C 0.07814 0.55864 0.34377
 C2038 C 0.09918 0.54815 0.35291
 C2039 C 0.14765 0.51182 0.43587
 C2040 C 0.15015 0.50386 0.46710
 C2041 C 0.13100 0.50414 0.48804
 C2042 C 0.10934 0.51266 0.47798
 C2043 C 0.13966 0.52015 0.36907
 C2044 C 0.15237 0.51176 0.34883
 C2045 C 0.06375 0.52687 0.45622
 C2046 C 0.04696 0.52168 0.47246
 H2047 H 0.04636 0.55260 0.41194
 H2048 H 0.04303 0.56826 0.35803
 H2049 H 0.07644 0.56567 0.31993
 H2050 H 0.11343 0.54750 0.33556
 H2051 H 0.16293 0.51114 0.42023
 H2052 H 0.16696 0.49723 0.47497
 H2053 H 0.13289 0.49768 0.51216
 H2054 H 0.09485 0.51222 0.49481
 C2055 C 0.57920 0.03397 -0.07348
 C2056 C 0.60179 0.02708 -0.06312
 C2057 C 0.62028 0.02370 -0.08577
 C2058 C 0.61589 0.02677 -0.11867
 C2059 C 0.59396 0.03576 -0.12870
 C2060 C 0.57555 0.03942 -0.10597
 C2061 C 0.55356 0.04779 -0.11656
 C2062 C 0.54990 0.05257 -0.14876
 C2063 C 0.56791 0.04901 -0.17102
 C2064 C 0.58972 0.04065 -0.16124
 C2065 C 0.64266 0.01662 -0.07492
 C2066 C 0.64665 0.01294 -0.04251
 C2067 C 0.62845 0.01588 -0.02039
 C2068 C 0.60621 0.02271 -0.03052
 C2069 C 0.63259 0.01789 -0.14224
 C2070 C 0.64547 0.00933 -0.16220
 C2071 C 0.55919 0.03186 -0.05188
 C2072 C 0.54284 0.02757 -0.03435
 H2073 H 0.53910 0.05088 -0.10003
 H2074 H 0.53299 0.05906 -0.15647
 H2075 H 0.56498 0.05276 -0.19600
 H2076 H 0.60326 0.03823 -0.17936
 H2077 H 0.65729 0.01405 -0.09134
 H2078 H 0.66390 0.00765 -0.03454
 H2079 H 0.63155 0.01280 0.00472
 H2080 H 0.59252 0.02463 -0.01266
 C2081 C 0.59446 0.51253 -0.01002
 C2082 C 0.60492 0.52767 -0.03273
 C2083 C 0.62856 0.53511 -0.02876
 C2084 C 0.64146 0.52746 -0.00198
 C2085 C 0.63120 0.51174 0.02022
 C2086 C 0.60765 0.50415 0.01610
 C2087 C 0.59755 0.48883 0.03903
 C2088 C 0.61027 0.48149 0.06543
 C2089 C 0.63329 0.48902 0.06953
 C2090 C 0.64375 0.50390 0.04721
 C2091 C 0.63859 0.55055 -0.05149
 C2092 C 0.62561 0.55843 -0.07739
 C2093 C 0.60245 0.55118 -0.08121
 C2094 C 0.59211 0.53598 -0.05918
 C2095 C 0.66438 0.53741 0.00442
 C2096 C 0.68285 0.54646 0.01097
 C2097 C 0.56954 0.50753 -0.01114
 C2098 C 0.54884 0.50364 -0.00852
 H2099 H 0.57968 0.48251 0.03696
 H2100 H 0.60217 0.47000 0.08290
 H2101 H 0.64307 0.48337 0.09017
 H2102 H 0.66170 0.50929 0.05145
 H2103 H 0.65655 0.55664 -0.04952
 H2104 H 0.63356 0.57023 -0.09459
 H2105 H 0.59247 0.55734 -0.10139
 H2106 H 0.57407 0.53076 -0.06313
 C2107 C 0.08540 1.01146 0.48693
 C2108 C 0.09977 1.00143 0.51070
 C2109 C 0.12331 1.00921 0.51426
 C2110 C 0.13240 1.02681 0.49384
 C2111 C 0.11821 1.03638 0.46955
 C2112 C 0.09460 1.02869 0.46612
 C2113 C 0.08052 1.03888 0.44223
 C2114 C 0.08953 1.05627 0.42229
 C2115 C 0.11264 1.06382 0.42562
 C2116 C 0.12691 1.05404 0.44893
 C2117 C 0.13706 0.99963 0.53901
 C2118 C 0.12777 0.98288 0.55972
 C2119 C 0.10476 0.97518 0.55617
 C2120 C 0.09087 0.98421 0.53193
 C2121 C 0.15554 1.03644 0.49976
 C2122 C 0.17428 1.04499 0.50614
 C2123 C 0.06053 1.00610 0.48700
 C2124 C 0.04000 1.00189 0.49103
 H2125 H 0.06249 1.03345 0.43873
 H2126 H 0.07855 1.06394 0.40414
 H2127 H 0.11954 1.07734 0.41006
 H2128 H 0.14477 1.06045 0.45064
 H2129 H 0.15506 1.00507 0.54276
 H2130 H 0.13847 0.97588 0.57866
 H2131 H 0.09759 0.96221 0.57237
 H2132 H 0.07306 0.97767 0.53022
 C2133 C 0.08682 -0.01371 1.01224
 C2134 C 0.10143 -0.00474 0.98752
 C2135 C 0.12489 -0.01297 0.98402
 C2136 C 0.13368 -0.02990 1.00547
 C2137 C 0.11929 -0.03833 1.03075
 C2138 C 0.09573 -0.03025 1.03407
 C2139 C 0.08143 -0.03933 1.05895
 C2140 C 0.09022 -0.05587 1.08015
 C2141 C 0.11329 -0.06376 1.07698
 C2142 C 0.12773 -0.05516 1.05258
 C2143 C 0.13885 -0.00451 0.95832
 C2144 C 0.12985 0.01158 0.93665
 C2145 C 0.10694 0.01975 0.94019
 C2146 C 0.09285 0.01183 0.96535
 C2147 C 0.15677 -0.04002 0.99979
 C2148 C 0.17549 -0.04897 0.99365
 C2149 C 0.06206 -0.00779 1.01252
 C2150 C 0.04163 -0.00311 1.00902
 H2151 H 0.06337 -0.03373 1.06228
 H2152 H 0.07905 -0.06268 1.09905
 H2153 H 0.12002 -0.07666 1.09345
 H2154 H 0.14554 -0.06182 1.05103
 H2155 H 0.15678 -0.01035 0.95454
 H2156 H 0.14069 0.01767 0.91696
 H2157 H 0.09998 0.03218 0.92324
 H2158 H 0.07513 0.01870 0.96700
 C2159 C 0.58750 0.48330 0.51689
 C2160 C 0.59199 0.46197 0.50031
 C2161 C 0.61544 0.45542 0.49244
 C2162 C 0.63438 0.46980 0.50226
 C2163 C 0.62996 0.49078 0.51959
 C2164 C 0.60641 0.49760 0.52682
 C2165 C 0.60234 0.51894 0.54339
 C2166 C 0.62104 0.53315 0.55269
 C2167 C 0.64407 0.52645 0.54573
 C2168 C 0.64859 0.50551 0.52938
 C2169 C 0.61934 0.43467 0.47429
 C2170 C 0.60062 0.42068 0.46452
 C2171 C 0.57771 0.42683 0.47280
 C2172 C 0.57337 0.44717 0.49052
 C2173 C 0.65827 0.46271 0.49433
 C2174 C 0.67750 0.45543 0.48696
 C2175 C 0.56352 0.49196 0.51866
 C2176 C 0.54345 0.49825 0.51550
 H2177 H 0.58470 0.52477 0.54938
 H2178 H 0.61764 0.54944 0.56537
 H2179 H 0.65853 0.53756 0.55300
 H2180 H 0.66677 0.50106 0.52435
 H2181 H 0.63685 0.42908 0.46729
 H2182 H 0.60393 0.40496 0.45050
 H2183 H 0.56321 0.41589 0.46526
 H2184 H 0.55528 0.45125 0.49628
 C2185 C -0.08452 0.47341 0.48251
 C2186 C -0.10255 0.48671 0.46823
 C2187 C -0.12652 0.48077 0.47394
 C2188 C -0.13223 0.46167 0.49409
 C2189 C -0.11414 0.44792 0.50759
 C2190 C -0.09023 0.45364 0.50145
 C2191 C -0.07244 0.43977 0.51546
 C2192 C -0.07809 0.42100 0.53527
 C2193 C -0.10149 0.41555 0.54156
 C2194 C -0.11937 0.42873 0.52788
 C2195 C -0.14428 0.49451 0.45979
 C2196 C -0.13851 0.51362 0.44057
 C2197 C -0.11506 0.51947 0.43508
 C2198 C -0.09720 0.50622 0.44873
 C2199 C -0.15656 0.45633 0.50184
 C2200 C -0.17627 0.45082 0.50954
 C2201 C -0.06051 0.48192 0.48245
 C2202 C -0.04066 0.48837 0.48686
 H2203 H -0.05400 0.44336 0.51142
 H2204 H -0.06423 0.41071 0.54592
 H2205 H -0.10582 0.40100 0.55708
 H2206 H -0.13730 0.42375 0.53349
 H2207 H -0.16274 0.49065 0.46347
 H2208 H -0.15231 0.52397 0.42990
 H2209 H -0.11069 0.53433 0.42015
 H2210 H -0.07920 0.51132 0.44374
 C2211 C 0.41080 -0.01969 -0.01962
 C2212 C 0.40664 -0.04137 -0.00411
 C2213 C 0.38335 -0.04804 0.00436
 C2214 C 0.36421 -0.03338 -0.00375
 C2215 C 0.36828 -0.01205 -0.02012
 C2216 C 0.39168 -0.00515 -0.02798
 C2217 C 0.39541 0.01653 -0.04351
 C2218 C 0.37653 0.03100 -0.05117
 C2219 C 0.35365 0.02424 -0.04357
 C2220 C 0.34947 0.00295 -0.02823
 C2221 C 0.37982 -0.06920 0.02142
 C2222 C 0.39874 -0.08348 0.02951
 C2223 C 0.42147 -0.07718 0.02066
 C2224 C 0.42545 -0.05642 0.00403
 C2225 C 0.34051 -0.04048 0.00508
 C2226 C 0.32148 -0.04776 0.01325
 C2227 C 0.43473 -0.01092 -0.02160
 C2228 C 0.45479 -0.00453 -0.01854
 H2229 H 0.41292 0.02242 -0.04996
 H2230 H 0.37968 0.04756 -0.06306
 H2231 H 0.33906 0.03555 -0.04955
 H2232 H 0.33140 -0.00156 -0.02266
 H2233 H 0.36247 -0.07492 0.02884
 H2234 H 0.39572 -0.09953 0.04268
 H2235 H 0.43611 -0.08834 0.02689
 H2236 H 0.44340 -0.05223 -0.00224
 C2237 C 0.41338 1.02840 0.50493
 C2238 C 0.40722 1.04658 0.48360
 C2239 C 0.38318 1.05166 0.47797
 C2240 C 0.36541 1.03923 0.49475
 C2241 C 0.37157 1.02169 0.51699
 C2242 C 0.39566 1.01616 0.52195
 C2243 C 0.40142 0.99819 0.54368
 C2244 C 0.38387 0.98607 0.56023
 C2245 C 0.36031 0.99154 0.55549
 C2246 C 0.35413 1.00913 0.53411
 C2247 C 0.37747 1.06889 0.45501
 C2248 C 0.39500 1.08078 0.43817
 C2249 C 0.41851 1.07610 0.44409
 C2250 C 0.42466 1.05940 0.46674
 C2251 C 0.34094 1.04468 0.48867
 C2252 C 0.32123 1.05059 0.48209
 C2253 C 0.43758 1.02032 0.50533
 C2254 C 0.45761 1.01391 0.50155
 H2255 H 0.41952 0.99346 0.54821
 H2256 H 0.38857 0.97239 0.57686
 H2257 H 0.34675 0.98208 0.56842
 H2258 H 0.33560 1.01274 0.53108
 H2259 H 0.35944 1.07324 0.44955
 H2260 H 0.39031 1.09370 0.42046
 H2261 H 0.43206 1.08528 0.43078
 H2262 H 0.44320 1.05643 0.47056
 C2263 C -0.08325 0.52345 1.01870
 C2264 C -0.10243 0.50925 1.02828
 C2265 C -0.12576 0.51600 1.02052
 C2266 C -0.12969 0.53681 1.00301
 C2267 C -0.11049 0.55114 0.99369
 C2268 C -0.08727 0.54466 1.00208
 C2269 C -0.06838 0.55938 0.99274
 C2270 C -0.07222 0.57959 0.97496
 C2271 C -0.09490 0.58568 0.96617
 C2272 C -0.11389 0.57175 0.97548
 C2273 C -0.14465 0.50134 1.02989
 C2274 C -0.14059 0.48054 1.04636
 C2275 C -0.11775 0.47392 1.05386
 C2276 C -0.09881 0.48807 1.04497
 C2277 C -0.15335 0.54373 0.99442
 C2278 C -0.17247 0.55069 0.98671
 C2279 C -0.05938 0.51460 1.02050
 C2280 C -0.03937 0.50803 1.01721
 H2281 H -0.05047 0.55533 0.99894
 H2282 H -0.05751 0.59048 0.96779
 H2283 H -0.09781 0.60130 0.95213
 H2284 H -0.13120 0.57728 0.96808
 H2285 H -0.16269 0.50573 1.02444
 H2286 H -0.15523 0.46948 1.05330
 H2287 H -0.11470 0.45775 1.06664
 H2288 H -0.08135 0.48231 1.05140
 C2289 C 0.02617 0.59671 0.54970
 C2290 C 0.04251 0.60040 0.57454
 C2291 C 0.04462 0.62297 0.58890
 C2292 C 0.03000 0.64160 0.57881
 C2293 C 0.01435 0.63815 0.55310
 C2294 C 0.01250 0.61565 0.53842
 C2295 C -0.00336 0.61257 0.51291
 C2296 C -0.01702 0.63120 0.50217
 C2297 C -0.01525 0.65319 0.51655
 C2298 C 0.00022 0.65672 0.54175
 C2299 C 0.06123 0.62626 0.61348
 C2300 C 0.07533 0.60776 0.62363
 C2301 C 0.07304 0.58562 0.60988
 C2302 C 0.05672 0.58185 0.58580
 C2303 C 0.03031 0.66393 0.59581
 C2304 C 0.03032 0.68229 0.61036
 C2305 C 0.02228 0.57314 0.53748
 C2306 C 0.01860 0.55322 0.52909
 H2307 H -0.00530 0.59579 0.50095
 H2308 H -0.02905 0.62855 0.48260
 H2309 H -0.02590 0.66760 0.50811
 H2310 H 0.00103 0.67415 0.55212
 H2311 H 0.06358 0.64316 0.62497
 H2312 H 0.08801 0.61061 0.64237
 H2313 H 0.08393 0.57126 0.61794
 H2314 H 0.05542 0.56429 0.57607
 C2315 C 0.52461 0.10107 0.04804
 C2316 C 0.53996 0.10340 0.07432
 C2317 C 0.54299 0.12567 0.08927
 C2318 C 0.53022 0.14536 0.07836
 C2319 C 0.51555 0.14320 0.05134
 C2320 C 0.51282 0.12100 0.03607
 C2321 C 0.49797 0.11924 0.00924
 C2322 C 0.48614 0.13886 -0.00221
 C2323 C 0.48877 0.16055 0.01274
 C2324 C 0.50327 0.16280 0.03923
 C2325 C 0.55866 0.12761 0.11521
 C2326 C 0.57095 0.10810 0.12613
 C2327 C 0.56773 0.08626 0.11182
 C2328 C 0.55229 0.08381 0.08640
 C2329 C 0.53128 0.16751 0.09578
 C2330 C 0.53163 0.18582 0.11044
 C2331 C 0.51994 0.07795 0.03470
 C2332 C 0.51573 0.05837 0.02525
 H2333 H 0.49541 0.10274 -0.00320
 H2334 H 0.47487 0.13722 -0.02280
 H2335 H 0.47954 0.17574 0.00375
 H2336 H 0.50481 0.18004 0.04999
 H2337 H 0.56167 0.14422 0.12717
 H2338 H 0.58296 0.10991 0.14590
 H2339 H 0.57722 0.07112 0.12047
 H2340 H 0.55023 0.06645 0.07625
 C2341 C -0.02892 0.10264 0.94984
 C2342 C -0.01571 0.12183 0.96159
 C2343 C -0.01781 0.14426 0.94711
 C2344 C -0.03322 0.14739 0.92110
 C2345 C -0.04740 0.12850 0.91055
 C2346 C -0.04506 0.10600 0.92473
 C2347 C -0.05882 0.08719 0.91300
 C2348 C -0.07495 0.09065 0.88864
 C2349 C -0.07747 0.11272 0.87508
 C2350 C -0.06380 0.13147 0.88569
 C2351 C -0.00413 0.16309 0.95894
 C2352 C 0.01114 0.15987 0.98439
 C2353 C 0.01316 0.13795 0.99856
 C2354 C -0.00006 0.11907 0.98737
 C2355 C -0.03361 0.16965 0.90426
 C2356 C -0.03348 0.18803 0.89004
 C2357 C -0.02467 0.07917 0.96186
 C2358 C -0.02057 0.05936 0.97010
 H2359 H -0.05733 0.06967 0.92258
 H2360 H -0.08552 0.07610 0.88024
 H2361 H -0.09001 0.11533 0.85613
 H2362 H -0.06633 0.14830 0.87435
 H2363 H -0.00516 0.18048 0.94876
 H2364 H 0.02144 0.17448 0.99317
 H2365 H 0.02503 0.13555 1.01833
 H2366 H 0.00207 0.10236 0.99919
 C2367 C 0.47341 0.60354 0.45129
 C2368 C 0.48575 0.62324 0.46320
 C2369 C 0.48345 0.64539 0.44803
 C2370 C 0.46868 0.64772 0.42119
 C2371 C 0.45536 0.62830 0.41037
 C2372 C 0.45795 0.60607 0.42522
 C2373 C 0.44510 0.58671 0.41322
 C2374 C 0.42959 0.58937 0.38796
 C2375 C 0.42680 0.61118 0.37374
 C2376 C 0.43961 0.63046 0.38459
 C2377 C 0.49628 0.66475 0.46004
 C2378 C 0.51091 0.66232 0.48634
 C2379 C 0.51312 0.64066 0.50119
 C2380 C 0.50074 0.62127 0.48984
 C2381 C 0.46804 0.66976 0.40386
 C2382 C 0.46798 0.68800 0.38934
 C2383 C 0.47781 0.58039 0.46428
 C2384 C 0.48195 0.56079 0.47333
 H2385 H 0.44684 0.56937 0.42329
 H2386 H 0.41971 0.57441 0.37936
 H2387 H 0.41474 0.61317 0.35409
 H2388 H 0.43693 0.64706 0.37270
 H2389 H 0.49508 0.68196 0.44935
 H2390 H 0.52056 0.67732 0.49525
 H2391 H 0.52449 0.63886 0.52162
 H2392 H 0.50298 0.60479 0.50221
 C2393 C 0.52542 0.90326 0.44713
 C2394 C 0.50987 0.88519 0.45681
 C2395 C 0.51199 0.86240 0.44305
 C2396 C 0.52977 0.85780 0.41988
 C2397 C 0.54613 0.87553 0.41154
 C2398 C 0.54377 0.89840 0.42491
 C2399 C 0.55977 0.91608 0.41526
 C2400 C 0.57803 0.91116 0.39380
 C2401 C 0.58057 0.88868 0.38111
 C2402 C 0.56476 0.87103 0.38964
 C2403 C 0.49598 0.84472 0.45267
 C2404 C 0.47842 0.84940 0.47531
 C2405 C 0.47637 0.87169 0.48880
 C2406 C 0.49186 0.88946 0.47972
 C2407 C 0.53045 0.83530 0.40341
 C2408 C 0.53072 0.81679 0.38928
 C2409 C 0.52147 0.92719 0.45801
 C2410 C 0.51774 0.94737 0.46518
 H2411 H 0.55833 0.93385 0.42422
 H2412 H 0.59025 0.92487 0.38697
 H2413 H 0.59478 0.88492 0.36443
 H2414 H 0.56739 0.85383 0.37905
 H2415 H 0.49692 0.82709 0.44291
 H2416 H 0.46634 0.83566 0.48244
 H2417 H 0.46271 0.87524 0.50639
 H2418 H 0.48962 0.90651 0.49091
 C2419 C 0.02870 0.40070 0.95196
 C2420 C 0.01591 0.38141 0.96433
 C2421 C 0.01773 0.35903 0.94925
 C2422 C 0.03246 0.35605 0.92201
 C2423 C 0.04626 0.37503 0.91076
 C2424 C 0.04418 0.39748 0.92556
 C2425 C 0.05755 0.41639 0.91316
 C2426 C 0.07305 0.41307 0.88753
 C2427 C 0.07532 0.39105 0.87334
 C2428 C 0.06202 0.37221 0.88460
 C2429 C 0.00446 0.34010 0.96175
 C2430 C -0.01011 0.34318 0.98845
 C2431 C -0.01185 0.36505 1.00321
 C2432 C 0.00095 0.38402 0.99137
 C2433 C 0.03250 0.33385 0.90466
 C2434 C 0.03211 0.31557 0.88995
 C2435 C 0.02474 0.42412 0.96482
 C2436 C 0.02098 0.44392 0.97380
 H2437 H 0.05624 0.43388 0.92320
 H2438 H 0.08332 0.42769 0.87862
 H2439 H 0.08736 0.38856 0.85339
 H2440 H 0.06432 0.35542 0.87273
 H2441 H 0.00530 0.32274 0.95115
 H2442 H -0.02010 0.32849 0.99773
 H2443 H -0.02319 0.36734 1.02395
 H2444 H -0.00093 0.40070 1.00368
 C2445 C 0.47785 0.40002 0.05043
 C2446 C 0.45521 0.39019 0.05483
 C2447 C 0.45268 0.36814 0.07034
 C2448 C 0.47286 0.35599 0.08108
 C2449 C 0.49555 0.36555 0.07578
 C2450 C 0.49805 0.38762 0.06045
 C2451 C 0.52093 0.39692 0.05572
 C2452 C 0.54075 0.38475 0.06582
 C2453 C 0.53831 0.36316 0.08079
 C2454 C 0.51604 0.35359 0.08577
 C2455 C 0.42984 0.35883 0.07490
 C2456 C 0.41007 0.37087 0.06424
 C2457 C 0.41257 0.39232 0.04883
 C2458 C 0.43485 0.40199 0.04420
 C2459 C 0.47052 0.33380 0.09785
 C2460 C 0.46957 0.31536 0.11190
 C2461 C 0.48052 0.42352 0.03771
 C2462 C 0.48404 0.44332 0.02891
 H2463 H 0.52378 0.41361 0.04408
 H2464 H 0.55810 0.39212 0.06200
 H2465 H 0.55376 0.35377 0.08861
 H2466 H 0.51509 0.33673 0.09751
 H2467 H 0.42704 0.34217 0.08668
 H2468 H 0.39271 0.36351 0.06794
 H2469 H 0.39717 0.40159 0.04060
 H2470 H 0.43594 0.41876 0.03221
 C2471 C -0.02958 0.89752 0.55462
 C2472 C -0.04564 0.89367 0.58014
 C2473 C -0.04721 0.87114 0.59447
 C2474 C -0.03235 0.85271 0.58363
 C2475 C -0.01692 0.85633 0.55732
 C2476 C -0.01559 0.87879 0.54271
 C2477 C 0.00008 0.88204 0.51660
 C2478 C 0.01405 0.86362 0.50523
 C2479 C 0.01278 0.84168 0.51954
 C2480 C -0.00248 0.83798 0.54531
 C2481 C -0.06355 0.86768 0.61976
 C2482 C -0.07790 0.88598 0.63063
 C2483 C -0.07615 0.90809 0.61689
 C2484 C -0.06011 0.91203 0.59210
 C2485 C -0.03232 0.83032 0.60020
 C2486 C -0.03208 0.81182 0.61412
 C2487 C -0.02612 0.92108 0.54238
 C2488 C -0.02245 0.94091 0.53379
 H2489 H 0.00162 0.89878 0.50464
 H2490 H 0.02592 0.86640 0.48520
 H2491 H 0.02367 0.82743 0.51062
 H2492 H -0.00289 0.82059 0.55560
 H2493 H -0.06548 0.85081 0.63128
 H2494 H -0.09037 0.88301 0.64991
 H2495 H -0.08723 0.92229 0.62550
 H2496 H -0.05923 0.92957 0.58241
 C2497 C 0.21837 0.33023 0.17618
 C2498 C 0.21358 0.32597 0.14357
 C2499 C 0.21764 0.34392 0.12073
 C2500 C 0.22641 0.36600 0.13073
 C2501 C 0.22886 0.37100 0.16366
 C2502 C 0.22502 0.35298 0.18646
 C2503 C 0.22868 0.35802 0.21913
 C2504 C 0.23537 0.38040 0.22915
 C2505 C 0.23880 0.39813 0.20688
 C2506 C 0.23575 0.39354 0.17442
 C2507 C 0.21337 0.33908 0.08810
 C2508 C 0.20521 0.31713 0.07836
 C2509 C 0.20125 0.29956 0.10074
 C2510 C 0.20542 0.30382 0.13302
 C2511 C 0.23564 0.38231 0.10721
 C2512 C 0.24450 0.39495 0.08746
 C2513 C 0.22001 0.31067 0.19812
 C2514 C 0.22382 0.29464 0.21601
 H2515 H 0.22632 0.34473 0.23713
 H2516 H 0.23796 0.38398 0.25429
 H2517 H 0.24397 0.41550 0.21476
 H2518 H 0.23865 0.40783 0.15789
 H2519 H 0.21612 0.35226 0.06989
 H2520 H 0.20194 0.31373 0.05332
 H2521 H 0.19493 0.28253 0.09305
 H2522 H 0.20202 0.28969 0.14964
 C2523 C 0.71447 0.82300 0.67320
 C2524 C 0.72364 0.81910 0.64210
 C2525 C 0.72709 0.83835 0.62121
 C2526 C 0.72145 0.86138 0.63172
 C2527 C 0.71004 0.86492 0.66158
 C2528 C 0.70639 0.84556 0.68235
 C2529 C 0.69504 0.84934 0.71215
 C2530 C 0.68722 0.87167 0.72104
 C2531 C 0.69103 0.89069 0.70089
 C2532 C 0.70245 0.88747 0.67151
 C2533 C 0.73677 0.83408 0.59038
 C2534 C 0.74285 0.81143 0.58056
 C2535 C 0.73952 0.79260 0.60109
 C2536 C 0.73006 0.79629 0.63156
 C2537 C 0.72934 0.88112 0.61266
 C2538 C 0.73759 0.89598 0.59549
 C2539 C 0.71717 0.80482 0.69690
 C2540 C 0.72217 0.78996 0.71597
 H2541 H 0.69187 0.83504 0.72861
 H2542 H 0.67838 0.87426 0.74384
 H2543 H 0.68518 0.90804 0.70812
 H2544 H 0.70501 0.90270 0.65651
 H2545 H 0.73959 0.84813 0.57347
 H2546 H 0.75017 0.80849 0.55688
 H2547 H 0.74426 0.77503 0.59336
 H2548 H 0.72761 0.78107 0.64663
 C2549 C 0.28133 0.66567 0.68855
 C2550 C 0.28898 0.66921 0.65667
 C2551 C 0.28633 0.65096 0.63367
 C2552 C 0.27622 0.62928 0.64282
 C2553 C 0.27096 0.62492 0.67535
 C2554 C 0.27315 0.64329 0.69821
 C2555 C 0.26632 0.63897 0.73021
 C2556 C 0.25848 0.61687 0.73971
 C2557 C 0.25683 0.59875 0.71745
 C2558 C 0.26277 0.60269 0.68551
 C2559 C 0.29337 0.65512 0.60168
 C2560 C 0.30289 0.67669 0.59270
 C2561 C 0.30551 0.69453 0.61522
 C2562 C 0.29860 0.69094 0.64689
 C2563 C 0.26806 0.61302 0.61852
 C2564 C 0.25974 0.60051 0.59824
 C2565 C 0.27878 0.68557 0.71015
 C2566 C 0.27431 0.70173 0.72791
 H2567 H 0.26702 0.65262 0.74814
 H2568 H 0.25361 0.61383 0.76443
 H2569 H 0.25074 0.58160 0.72491
 H2570 H 0.26111 0.58813 0.66894
 H2571 H 0.29176 0.64170 0.58341
 H2572 H 0.30827 0.67957 0.56813
 H2573 H 0.31291 0.71124 0.60813
 H2574 H 0.30099 0.70527 0.66365
 C2575 C 0.77966 0.16628 0.18737
 C2576 C 0.78712 0.16980 0.15542
 C2577 C 0.78401 0.15166 0.13238
 C2578 C 0.77364 0.13011 0.14159
 C2579 C 0.76861 0.12572 0.17416
 C2580 C 0.77125 0.14399 0.19705
 C2581 C 0.76459 0.13969 0.22911
 C2582 C 0.75651 0.11769 0.23863
 C2583 C 0.75445 0.09964 0.21634
 C2584 C 0.76021 0.10357 0.18434
 C2585 C 0.79083 0.15581 0.10030
 C2586 C 0.80060 0.17725 0.09128
 C2587 C 0.80366 0.19499 0.11385
 C2588 C 0.79697 0.19142 0.14560
 C2589 C 0.76493 0.11409 0.11739
 C2590 C 0.75619 0.10179 0.09723
 C2591 C 0.77747 0.18617 0.20904
 C2592 C 0.77325 0.20236 0.22685
 H2593 H 0.76562 0.15329 0.24704
 H2594 H 0.75175 0.11467 0.26339
 H2595 H 0.74818 0.08256 0.22382
 H2596 H 0.75821 0.08909 0.16773
 H2597 H 0.78886 0.14246 0.08200
 H2598 H 0.80582 0.18012 0.06666
 H2599 H 0.81125 0.21161 0.10672
 H2600 H 0.79971 0.20566 0.16239
 C2601 C 0.71808 0.17137 0.81959
 C2602 C 0.71079 0.17477 0.85169
 C2603 C 0.71296 0.15613 0.87392
 C2604 C 0.72222 0.13423 0.86375
 C2605 C 0.72713 0.13012 0.83103
 C2606 C 0.72546 0.14887 0.80895
 C2607 C 0.73200 0.14477 0.77674
 C2608 C 0.73904 0.12256 0.76628
 C2609 C 0.74014 0.10407 0.78776
 C2610 C 0.73447 0.10776 0.81989
 C2611 C 0.70634 0.16011 0.90616
 C2612 C 0.69768 0.18189 0.91614
 C2613 C 0.69553 0.20012 0.89437
 C2614 C 0.70204 0.19671 0.86246
 C2615 C 0.73010 0.11741 0.88724
 C2616 C 0.73829 0.10441 0.90683
 C2617 C 0.72089 0.19141 0.79865
 C2618 C 0.72536 0.20767 0.78135
 H2619 H 0.73170 0.15870 0.75940
 H2620 H 0.74372 0.11971 0.74141
 H2621 H 0.74559 0.08683 0.77956
 H2622 H 0.73570 0.09293 0.83586
 H2623 H 0.70762 0.14638 0.92385
 H2624 H 0.69262 0.18462 0.94089
 H2625 H 0.68881 0.21700 0.90223
 H2626 H 0.70004 0.21135 0.84632
 C2627 C 0.21554 0.67540 0.32693
 C2628 C 0.22018 0.68033 0.35940
 C2629 C 0.22401 0.66160 0.38097
 C2630 C 0.22330 0.63809 0.36979
 C2631 C 0.21625 0.63318 0.33812
 C2632 C 0.21218 0.65197 0.31665
 C2633 C 0.20520 0.64680 0.28507
 C2634 C 0.20203 0.62364 0.27510
 C2635 C 0.20643 0.60521 0.29590
 C2636 C 0.21356 0.60983 0.32710
 C2637 C 0.22915 0.66695 0.41323
 C2638 C 0.23044 0.69016 0.42382
 C2639 C 0.22676 0.70849 0.40264
 C2640 C 0.22172 0.70373 0.37074
 C2641 C 0.23206 0.61953 0.39007
 C2642 C 0.24069 0.60543 0.40786
 C2643 C 0.21837 0.69391 0.30362
 C2644 C 0.22336 0.70912 0.28492
 H2645 H 0.20170 0.66061 0.26808
 H2646 H 0.19606 0.61999 0.25115
 H2647 H 0.20414 0.58726 0.28787
 H2648 H 0.21658 0.59501 0.34262
 H2649 H 0.23206 0.65329 0.43062
 H2650 H 0.23432 0.69393 0.44860
 H2651 H 0.22779 0.72649 0.41097
 H2652 H 0.21882 0.71853 0.35514
 C2653 C 0.78452 0.83040 0.31864
 C2654 C 0.77715 0.85286 0.30832
 C2655 C 0.77454 0.87150 0.33077
 C2656 C 0.77857 0.86735 0.36354
 C2657 C 0.78784 0.84552 0.37344
 C2658 C 0.79092 0.82699 0.35085
 C2659 C 0.79967 0.80514 0.36136
 C2660 C 0.80533 0.80171 0.39333
 C2661 C 0.80229 0.81981 0.41545
 C2662 C 0.79359 0.84150 0.40575
 C2663 C 0.76716 0.89379 0.31994
 C2664 C 0.76237 0.89752 0.28776
 C2665 C 0.76440 0.87915 0.26590
 C2666 C 0.77152 0.85701 0.27603
 C2667 C 0.76995 0.88408 0.38721
 C2668 C 0.76118 0.89711 0.40678
 C2669 C 0.78233 0.81035 0.29728
 C2670 C 0.77811 0.79411 0.27967
 H2671 H 0.80235 0.79060 0.34495
 H2672 H 0.81208 0.78490 0.40099
 H2673 H 0.80670 0.81704 0.44025
 H2674 H 0.79160 0.85513 0.42373
 H2675 H 0.76523 0.90854 0.33618
 H2676 H 0.75686 0.91471 0.27979
 H2677 H 0.76038 0.88203 0.24100
 H2678 H 0.77261 0.84317 0.25838
 C2679 C 0.28110 0.33146 0.80670
 C2680 C 0.27166 0.35331 0.79710
 C2681 C 0.27072 0.37238 0.81903
 C2682 C 0.27826 0.36914 0.85077
 C2683 C 0.28968 0.34808 0.85946
 C2684 C 0.29125 0.32918 0.83722
 C2685 C 0.30227 0.30808 0.84654
 C2686 C 0.31156 0.30573 0.87707
 C2687 C 0.30995 0.32420 0.89889
 C2688 C 0.29909 0.34518 0.89033
 C2689 C 0.26141 0.39412 0.80895
 C2690 C 0.25311 0.39690 0.77796
 C2691 C 0.25342 0.37804 0.75673
 C2692 C 0.26231 0.35639 0.76624
 C2693 C 0.27051 0.38549 0.87537
 C2694 C 0.26225 0.39790 0.89600
 C2695 C 0.27773 0.31089 0.78671
 C2696 C 0.27283 0.29435 0.77004
 H2697 H 0.30392 0.29330 0.83029
 H2698 H 0.32000 0.28949 0.88383
 H2699 H 0.31717 0.32228 0.92257
 H2700 H 0.29834 0.35915 0.90795
 H2701 H 0.26069 0.40919 0.82482
 H2702 H 0.24620 0.41369 0.77050
 H2703 H 0.24669 0.38015 0.73280
 H2704 H 0.26186 0.34214 0.74919
 C2705 C 0.76481 0.34116 0.76873
 C2706 C 0.75649 0.35563 0.74383
 C2707 C 0.76505 0.37893 0.74074
 C2708 C 0.78162 0.38770 0.76281
 C2709 C 0.78906 0.37360 0.78857
 C2710 C 0.78065 0.35021 0.79151
 C2711 C 0.78869 0.33623 0.81701
 C2712 C 0.80458 0.34517 0.83910
 C2713 C 0.81283 0.36805 0.83624
 C2714 C 0.80523 0.38218 0.81129
 C2715 C 0.75727 0.39274 0.71486
 C2716 C 0.74144 0.38379 0.69271
 C2717 C 0.73291 0.36106 0.69587
 C2718 C 0.74024 0.34708 0.72112
 C2719 C 0.79251 0.41033 0.75723
 C2720 C 0.80221 0.42856 0.75102
 C2721 C 0.75914 0.31639 0.76820
 C2722 C 0.75475 0.29596 0.76400
 H2723 H 0.78265 0.31836 0.82021
 H2724 H 0.81049 0.33432 0.85859
 H2725 H 0.82517 0.37490 0.85346
 H2726 H 0.81209 0.39988 0.81006
 H2727 H 0.76340 0.41054 0.71138
 H2728 H 0.73583 0.39453 0.67294
 H2729 H 0.72069 0.35414 0.67854
 H2730 H 0.73313 0.32949 0.72249
 C2731 C 0.26152 0.84230 0.26181
 C2732 C 0.25320 0.85499 0.23517
 C2733 C 0.26119 0.87824 0.22971
 C2734 C 0.27729 0.88871 0.25106
 C2735 C 0.28496 0.87632 0.27828
 C2736 C 0.27709 0.85297 0.28362
 C2737 C 0.28547 0.84063 0.31044
 C2738 C 0.30116 0.85112 0.33152
 C2739 C 0.30881 0.87399 0.32638
 C2740 C 0.30087 0.88653 0.30008
 C2741 C 0.25337 0.89027 0.20225
 C2742 C 0.23815 0.87957 0.18074
 C2743 C 0.23026 0.85683 0.18612
 C2744 C 0.23756 0.84464 0.21303
 C2745 C 0.28763 0.91122 0.24317
 C2746 C 0.29680 0.92930 0.23501
 C2747 C 0.25628 0.81751 0.26405
 C2748 C 0.25243 0.79681 0.26199
 H2749 H 0.27993 0.82282 0.31541
 H2750 H 0.30738 0.84147 0.35198
 H2751 H 0.32098 0.88206 0.34285
 H2752 H 0.30729 0.90427 0.29705
 H2753 H 0.25904 0.90797 0.19698
 H2754 H 0.23253 0.88894 0.15972
 H2755 H 0.21852 0.84854 0.16928
 H2756 H 0.23093 0.82698 0.21611
 C2757 C 0.22689 0.83307 0.74185
 C2758 C 0.20755 0.83931 0.76178
 C2759 C 0.20201 0.86334 0.76708
 C2760 C 0.21515 0.88101 0.75127
 C2761 C 0.23396 0.87476 0.73047
 C2762 C 0.23993 0.85070 0.72589
 C2763 C 0.25914 0.84486 0.70562
 C2764 C 0.27204 0.86231 0.69015
 C2765 C 0.26616 0.88583 0.69453
 C2766 C 0.24735 0.89208 0.71446
 C2767 C 0.18356 0.86916 0.78875
 C2768 C 0.17089 0.85174 0.80458
 C2769 C 0.17597 0.82824 0.79887
 C2770 C 0.19390 0.82198 0.77752
 C2771 C 0.20904 0.90547 0.75668
 C2772 C 0.20257 0.92522 0.76249
 C2773 C 0.23513 0.80895 0.74191
 C2774 C 0.24142 0.78900 0.74603
 H2775 H 0.26425 0.82678 0.70142
 H2776 H 0.28667 0.85755 0.67465
 H2777 H 0.27625 0.89931 0.68246
 H2778 H 0.24346 0.91060 0.71726
 H2779 H 0.17884 0.88719 0.79396
 H2780 H 0.15703 0.85651 0.82132
 H2781 H 0.16614 0.81481 0.81137
 H2782 H 0.19711 0.80343 0.77379
 C2783 C 0.73595 0.33650 0.24386
 C2784 C 0.74512 0.34997 0.26944
 C2785 C 0.73798 0.37368 0.27373
 C2786 C 0.72190 0.38385 0.25222
 C2787 C 0.71341 0.37065 0.22599
 C2788 C 0.72043 0.34685 0.22184
 C2789 C 0.71131 0.33380 0.19594
 C2790 C 0.69569 0.34400 0.17463
 C2791 C 0.68883 0.36728 0.17865
 C2792 C 0.69753 0.38054 0.20401
 C2793 C 0.74661 0.38649 0.30023
 C2794 C 0.76183 0.37615 0.32192
 C2795 C 0.76894 0.35299 0.31764
 C2796 C 0.76082 0.34000 0.29169
 C2797 C 0.71254 0.40708 0.25888
 C2798 C 0.70414 0.42586 0.26589
 C2799 C 0.74049 0.31148 0.24287
 C2800 C 0.74415 0.29082 0.24601
 H2801 H 0.71624 0.31566 0.19184
 H2802 H 0.68890 0.33383 0.15486
 H2803 H 0.67670 0.37512 0.16203
 H2804 H 0.69172 0.39858 0.20616
 H2805 H 0.74159 0.40456 0.30460
 H2806 H 0.76807 0.38614 0.34221
 H2807 H 0.78069 0.34499 0.33461
 H2808 H 0.76687 0.32205 0.28946
 C2809 C 0.72876 0.66337 0.26596
 C2810 C 0.70934 0.65796 0.24629
 C2811 C 0.70301 0.63418 0.24075
 C2812 C 0.71543 0.61593 0.25609
 C2813 C 0.73429 0.62136 0.27667
 C2814 C 0.74107 0.64517 0.28146
 C2815 C 0.76033 0.65017 0.30146
 C2816 C 0.77251 0.63216 0.31650
 C2817 C 0.76583 0.60890 0.31193
 C2818 C 0.74695 0.60346 0.29224
 C2819 C 0.68450 0.62919 0.21935
 C2820 C 0.67251 0.64717 0.20402
 C2821 C 0.67836 0.67043 0.20998
 C2822 C 0.69638 0.67588 0.23105
 C2823 C 0.70859 0.59172 0.25027
 C2824 C 0.70157 0.57226 0.24401
 C2825 C 0.73781 0.68721 0.26609
 C2826 C 0.74471 0.70699 0.26207
 H2827 H 0.76604 0.66803 0.30579
 H2828 H 0.78719 0.63629 0.33181
 H2829 H 0.77534 0.59498 0.32368
 H2830 H 0.74243 0.58512 0.28928
 H2831 H 0.67920 0.61138 0.21396
 H2832 H 0.65858 0.64301 0.18749
 H2833 H 0.66903 0.68429 0.19791
 H2834 H 0.70020 0.69427 0.23496
 C2835 C 0.22421 0.16336 0.75739
 C2836 C 0.20444 0.15793 0.73838
 C2837 C 0.19855 0.13413 0.73214
 C2838 C 0.21200 0.11588 0.74577
 C2839 C 0.23117 0.12131 0.76582
 C2840 C 0.23735 0.14516 0.77153
 C2841 C 0.25693 0.15021 0.79094
 C2842 C 0.27000 0.13219 0.80452
 C2843 C 0.26391 0.10887 0.79906
 C2844 C 0.24473 0.10339 0.77992
 C2845 C 0.17944 0.12918 0.71171
 C2846 C 0.16644 0.14721 0.69807
 C2847 C 0.17197 0.17049 0.70460
 C2848 C 0.19071 0.17587 0.72450
 C2849 C 0.20604 0.09162 0.73873
 C2850 C 0.20003 0.07194 0.73196
 C2851 C 0.23285 0.18731 0.75779
 C2852 C 0.23950 0.20715 0.75378
 H2853 H 0.26221 0.16811 0.79592
 H2854 H 0.28491 0.13634 0.81940
 H2855 H 0.27411 0.09494 0.80967
 H2856 H 0.24069 0.08501 0.77624
 H2857 H 0.17439 0.11135 0.70593
 H2858 H 0.15197 0.14309 0.68239
 H2859 H 0.16183 0.18447 0.69400
 H2860 H 0.19442 0.19424 0.72863
 C2861 C 0.26339 0.16117 0.23084
 C2862 C 0.27985 0.15179 0.20867
 C2863 C 0.28807 0.12839 0.21232
 C2864 C 0.27983 0.11463 0.23820
 C2865 C 0.26280 0.12380 0.25981
 C2866 C 0.25444 0.14711 0.25601
 C2867 C 0.23774 0.15608 0.27831
 C2868 C 0.22978 0.14251 0.30383
 C2869 C 0.23808 0.11976 0.30765
 C2870 C 0.25434 0.11040 0.28591
 C2871 C 0.30486 0.11947 0.19018
 C2872 C 0.31326 0.13328 0.16515
 C2873 C 0.30521 0.15617 0.16161
 C2874 C 0.28871 0.16543 0.18310
 C2875 C 0.29025 0.09187 0.24425
 C2876 C 0.29948 0.07346 0.25057
 C2877 C 0.25768 0.18595 0.23050
 C2878 C 0.25320 0.20644 0.23410
 H2879 H 0.23077 0.17369 0.27643
 H2880 H 0.21723 0.14976 0.32084
 H2881 H 0.23197 0.10934 0.32763
 H2882 H 0.26028 0.09262 0.28993
 H2883 H 0.31161 0.10176 0.19195
 H2884 H 0.32608 0.12618 0.14839
 H2885 H 0.31177 0.16678 0.14208
 H2886 H 0.28287 0.18330 0.17938
 C2887 C 0.76385 0.65853 0.74240
 C2888 C 0.77977 0.64830 0.72021
 C2889 C 0.78838 0.62524 0.72543
 C2890 C 0.78106 0.61268 0.75289
 C2891 C 0.76455 0.62265 0.77458
 C2892 C 0.75584 0.64564 0.76925
 C2893 C 0.73979 0.65553 0.79171
 C2894 C 0.73279 0.64314 0.81881
 C2895 C 0.74138 0.62066 0.82406
 C2896 C 0.75702 0.61042 0.80222
 C2897 C 0.80467 0.61547 0.70326
 C2898 C 0.81223 0.62818 0.67669
 C2899 C 0.80382 0.65077 0.67163
 C2900 C 0.78777 0.66083 0.69309
 C2901 C 0.79207 0.59049 0.76047
 C2902 C 0.80181 0.57263 0.76799
 C2903 C 0.75788 0.68314 0.74021
 C2904 C 0.75339 0.70372 0.74207
 H2905 H 0.73261 0.67297 0.78874
 H2906 H 0.72072 0.65108 0.83590
 H2907 H 0.73599 0.61114 0.84522
 H2908 H 0.76325 0.59290 0.80738
 H2909 H 0.81168 0.59795 0.70620
 H2910 H 0.82469 0.62045 0.65995
 H2911 H 0.80973 0.66053 0.65094
 H2912 H 0.78164 0.67842 0.68817
 C2913 C 0.85355 0.77544 0.20001
 C2914 C 0.85681 0.79191 0.17509
 C2915 C 0.87939 0.79477 0.16071
 C2916 C 0.89847 0.78074 0.17077
 C2917 C 0.89541 0.76488 0.19644
 C2918 C 0.87290 0.76231 0.21119
 C2919 C 0.87024 0.74628 0.23669
 C2920 C 0.88927 0.73313 0.24733
 C2921 C 0.91125 0.73560 0.23287
 C2922 C 0.91439 0.75124 0.20769
 C2923 C 0.88225 0.81156 0.13615
 C2924 C 0.86333 0.82509 0.12602
 C2925 C 0.84117 0.82204 0.13974
 C2926 C 0.83783 0.80553 0.16380
 C2927 C 0.92089 0.78183 0.15376
 C2928 C 0.93934 0.78240 0.13921
 C2929 C 0.83005 0.77100 0.21257
 C2930 C 0.81017 0.76700 0.22123
 H2931 H 0.85347 0.74380 0.24870
 H2932 H 0.88693 0.72096 0.26689
 H2933 H 0.92598 0.72534 0.24123
 H2934 H 0.93183 0.75260 0.19725
 H2935 H 0.89914 0.81448 0.12466
 H2936 H 0.86585 0.83793 0.10731
 H2937 H 0.82648 0.83248 0.13169
 H2938 H 0.82024 0.80362 0.17350
 C2939 C 0.34875 0.27537 0.69367
 C2940 C 0.35266 0.29276 0.67013
 C2941 C 0.37548 0.29578 0.65661
 C2942 C 0.39415 0.28100 0.66614
 C2943 C 0.39043 0.26420 0.69051
 C2944 C 0.36768 0.26144 0.70440
 C2945 C 0.36434 0.24445 0.72858
 C2946 C 0.38298 0.23056 0.73876
 C2947 C 0.40522 0.23321 0.72514
 C2948 C 0.40901 0.24980 0.70126
 C2949 C 0.37901 0.31347 0.63343
 C2950 C 0.36048 0.32774 0.62381
 C2951 C 0.33807 0.32454 0.63667
 C2952 C 0.33409 0.30715 0.65937
 C2953 C 0.41682 0.28232 0.64988
 C2954 C 0.43555 0.28304 0.63610
 C2955 C 0.32503 0.27087 0.70525
 C2956 C 0.30502 0.26684 0.71322
 H2957 H 0.34736 0.24179 0.73991
 H2958 H 0.38013 0.21766 0.75730
 H2959 H 0.41964 0.22237 0.73313
 H2960 H 0.42663 0.25126 0.69145
 H2961 H 0.39612 0.31655 0.62266
 H2962 H 0.36350 0.34126 0.60615
 H2963 H 0.32368 0.33555 0.62900
 H2964 H 0.31634 0.30515 0.66841
 C2965 C 0.34910 0.72073 0.80652
 C2966 C 0.36787 0.73521 0.79613
 C2967 C 0.39036 0.73313 0.81043
 C2968 C 0.39398 0.71645 0.83489
 C2969 C 0.37553 0.70114 0.84410
 C2970 C 0.35296 0.70346 0.83013
 C2971 C 0.33458 0.68850 0.84053
 C2972 C 0.33853 0.67126 0.86335
 C2973 C 0.36068 0.66877 0.87668
 C2974 C 0.37900 0.68359 0.86740
 C2975 C 0.40874 0.74808 0.79999
 C2976 C 0.40505 0.76455 0.77604
 C2977 C 0.38308 0.76654 0.76203
 C2978 C 0.36463 0.75210 0.77188
 C2979 C 0.41633 0.71580 0.85148
 C2980 C 0.43482 0.71577 0.86540
 C2981 C 0.32552 0.72465 0.79462
 C2982 C 0.30564 0.72845 0.78636
 H2983 H 0.31702 0.68993 0.83111
 H2984 H 0.32430 0.65980 0.87074
 H2985 H 0.36366 0.65536 0.89443
 H2986 H 0.39590 0.68106 0.87852
 H2987 H 0.42615 0.74714 0.81011
 H2988 H 0.41932 0.77581 0.76829
 H2989 H 0.38031 0.77935 0.74342
 H2990 H 0.34786 0.75425 0.76024
 C2991 C 0.84793 0.21932 0.30700
 C2992 C 0.86690 0.23334 0.29610
 C2993 C 0.88941 0.23108 0.31027
 C2994 C 0.89288 0.21467 0.33511
 C2995 C 0.87419 0.19981 0.34487
 C2996 C 0.85159 0.20232 0.33102
 C2997 C 0.83301 0.18782 0.34194
 C2998 C 0.83676 0.17083 0.36517
 C2999 C 0.85893 0.16817 0.37841
 C3000 C 0.87746 0.18254 0.36859
 C3001 C 0.90800 0.24557 0.29930
 C3002 C 0.90447 0.26177 0.27496
 C3003 C 0.88248 0.26394 0.26107
 C3004 C 0.86384 0.24995 0.27145
 C3005 C 0.91534 0.21379 0.35143
 C3006 C 0.93395 0.21353 0.36509
 C3007 C 0.82438 0.22345 0.29508
 C3008 C 0.80460 0.22756 0.28662
 H3009 H 0.81542 0.18940 0.33261
 H3010 H 0.82238 0.15972 0.37297
 H3011 H 0.86176 0.15497 0.39648
 H3012 H 0.89437 0.17988 0.37966
 H3013 H 0.92544 0.24449 0.30930
 H3014 H 0.91890 0.27268 0.26682
 H3015 H 0.87985 0.27653 0.24215
 H3016 H 0.84706 0.25223 0.25987
 C3017 C 0.14759 0.27581 0.29693
 C3018 C 0.14387 0.29111 0.32329
 C3019 C 0.12137 0.29229 0.33839
 C3020 C 0.10284 0.27779 0.32747
 C3021 C 0.10633 0.26319 0.30032
 C3022 C 0.12875 0.26226 0.28494
 C3023 C 0.13186 0.24740 0.25801
 C3024 C 0.11335 0.23384 0.24655
 C3025 C 0.09144 0.23472 0.26160
 C3026 C 0.08787 0.24918 0.28820
 C3027 C 0.11805 0.30787 0.36453
 C3028 C 0.13644 0.32184 0.37548
 C3029 C 0.15852 0.32045 0.36099
 C3030 C 0.16233 0.30516 0.33536
 C3031 C 0.08057 0.27721 0.34491
 C3032 C 0.06225 0.27662 0.35974
 C3033 C 0.17118 0.27257 0.28398
 C3034 C 0.19109 0.26901 0.27501
 H3035 H 0.14858 0.24619 0.24548
 H3036 H 0.11602 0.22259 0.22589
 H3037 H 0.07711 0.22415 0.25260
 H3038 H 0.07051 0.24932 0.29905
 H3039 H 0.10120 0.30949 0.37664
 H3040 H 0.13356 0.33373 0.39542
 H3041 H 0.17279 0.33124 0.36968
 H3042 H 0.17985 0.30454 0.32508
 C3043 C 0.64903 0.77374 0.80160
 C3044 C 0.63668 0.75325 0.81090
 C3045 C 0.61444 0.75524 0.82645
 C3046 C 0.60468 0.77771 0.83270
 C3047 C 0.61679 0.79819 0.82268
 C3048 C 0.63901 0.79617 0.80694
 C3049 C 0.65079 0.81681 0.79704
 C3050 C 0.64092 0.83888 0.80260
 C3051 C 0.61930 0.84089 0.81826
 C3052 C 0.60728 0.82083 0.82822
 C3053 C 0.60249 0.73449 0.83568
 C3054 C 0.61228 0.71243 0.82977
 C3055 C 0.63405 0.71048 0.81461
 C3056 C 0.64619 0.73058 0.80522
 C3057 C 0.58234 0.77951 0.84972
 C3058 C 0.56378 0.78005 0.86395
 C3059 C 0.67267 0.77151 0.78862
 C3060 C 0.69256 0.76829 0.77950
 H3061 H 0.66769 0.81611 0.78487
 H3062 H 0.65017 0.85451 0.79489
 H3063 H 0.61178 0.85808 0.82267
 H3064 H 0.59048 0.82324 0.84022
 H3065 H 0.58549 0.73504 0.84754
 H3066 H 0.60289 0.69676 0.83700
 H3067 H 0.64159 0.69331 0.81006
 H3068 H 0.66304 0.72811 0.79340
 C3069 C 0.64973 0.22570 0.70334
 C3070 C 0.63082 0.23984 0.71439
 C3071 C 0.60857 0.23829 0.69936
 C3072 C 0.60534 0.22247 0.67356
 C3073 C 0.62386 0.20734 0.66379
 C3074 C 0.64623 0.20918 0.67844
 C3075 C 0.66477 0.19457 0.66735
 C3076 C 0.66113 0.17803 0.64326
 C3077 C 0.63914 0.17595 0.62931
 C3078 C 0.62070 0.19049 0.63921
 C3079 C 0.59003 0.25292 0.71041
 C3080 C 0.59337 0.26858 0.73568
 C3081 C 0.61513 0.27007 0.75040
 C3082 C 0.63372 0.25591 0.73996
 C3083 C 0.58345 0.22262 0.65598
 C3084 C 0.56553 0.22289 0.64083
 C3085 C 0.67319 0.22953 0.71558
 C3086 C 0.69301 0.23346 0.72391
 H3087 H 0.68222 0.19573 0.67720
 H3088 H 0.67546 0.16681 0.63536
 H3089 H 0.63638 0.16309 0.61058
 H3090 H 0.60393 0.18829 0.62755
 H3091 H 0.57278 0.25234 0.69976
 H3092 H 0.57899 0.27961 0.74387
 H3093 H 0.61764 0.28225 0.77002
 H3094 H 0.65032 0.25764 0.75219
 C3095 C 0.15348 0.72250 0.19407
 C3096 C 0.15258 0.72363 0.16029
 C3097 C 0.13058 0.72224 0.14461
 C3098 C 0.10958 0.71985 0.16281
 C3099 C 0.11059 0.71771 0.19649
 C3100 C 0.13264 0.71901 0.21216
 C3101 C 0.13325 0.71697 0.24582
 C3102 C 0.11263 0.71370 0.26355
 C3103 C 0.09106 0.71245 0.24826
 C3104 C 0.08995 0.71444 0.21512
 C3105 C 0.13012 0.72349 0.11084
 C3106 C 0.15082 0.72601 0.09306
 C3107 C 0.17235 0.72741 0.10838
 C3108 C 0.17332 0.72629 0.14159
 C3109 C 0.08699 0.72021 0.14688
 C3110 C 0.06834 0.72069 0.13341
 C3111 C 0.17571 0.72645 0.20989
 C3112 C 0.19470 0.73083 0.22091
 H3113 H 0.14964 0.71777 0.25871
 H3114 H 0.11339 0.71211 0.28929
 H3115 H 0.07510 0.70991 0.26215
 H3116 H 0.07279 0.71331 0.20428
 H3117 H 0.11381 0.72245 0.09781
 H3118 H 0.15015 0.72690 0.06725
 H3119 H 0.18838 0.72936 0.09446
 H3120 H 0.19052 0.72735 0.15235
   
