data_POSCAR
  _audit_creation_date              2014-09-24
  _audit_creation_method            'ToBaCCo'
  _symmetry_space_group_name_H-M    'P1'
  _symmetry_Int_Tables_number       1
  _symmetry_cell_setting            triclinic
  loop_
  _symmetry_equiv_pos_as_xyz
 x,y,z
_cell_length_a 62.3172
_cell_length_b 63.2667
_cell_length_c 63.3332
_cell_angle_alpha 90.329600
_cell_angle_beta 90.065500
_cell_angle_gamma 90.060500
loop_
  _atom_site_label
  _atom_site_type_symbol
  _atom_site_fract_x
  _atom_site_fract_y
  _atom_site_fract_z
C1 C 0.19208 0.21215 0.22161
 N2 N 0.19551 0.22548 0.20524
 C3 C 0.21219 0.22209 0.19189
 N4 N 0.22544 0.20536 0.19491
 C5 C 0.22201 0.19203 0.21128
 N6 N 0.20534 0.19543 0.22463
 C7 C 0.69513 0.71479 0.72040
 N8 N 0.70887 0.69849 0.72353
 C9 C 0.72554 0.69538 0.71010
 N10 N 0.72846 0.70857 0.69353
 C11 C 0.71472 0.72488 0.69040
 N12 N 0.69804 0.72799 0.70383
 C13 C 0.30838 0.78838 0.72033
 N14 N 0.30501 0.77515 0.70371
 C15 C 0.28839 0.77864 0.69031
 N16 N 0.27513 0.79535 0.69354
 C17 C 0.27850 0.80858 0.71017
 N18 N 0.29512 0.80509 0.72356
 C19 C 0.80421 0.28453 0.22506
 N20 N 0.80124 0.27143 0.20826
 C21 C 0.78448 0.27454 0.19495
 N22 N 0.77069 0.29079 0.19841
 C23 C 0.77365 0.30389 0.21521
 N24 N 0.79042 0.30077 0.22852
 C25 C 0.80335 0.71595 0.27460
 N26 N 0.80029 0.72911 0.29132
 C27 C 0.78350 0.72597 0.30456
 N28 N 0.76978 0.70964 0.30111
 C29 C 0.77283 0.69648 0.28438
 N30 N 0.78962 0.69962 0.27115
 C31 C 0.30861 0.21203 -0.22010
 N32 N 0.29531 0.19533 -0.22338
 C33 C 0.27864 0.19185 -0.21006
 N34 N 0.27528 0.20508 -0.19345
 C35 C 0.28858 0.22178 -0.19016
 N36 N 0.30524 0.22525 -0.20348
 C37 C 0.69577 0.28629 -0.22033
 N38 N 0.70931 0.30278 -0.22348
 C39 C 0.72609 0.30603 -0.21018
 N40 N 0.72932 0.29280 -0.19368
 C41 C 0.71577 0.27630 -0.19052
 N42 N 0.69900 0.27306 -0.20384
 C43 C 0.19269 0.78738 0.27766
 N44 N 0.20600 0.80408 0.27460
 C45 C 0.22269 0.80752 0.28797
 N46 N 0.22607 0.79426 0.30441
 C47 C 0.21277 0.77756 0.30747
 N48 N 0.19608 0.77413 0.29410
 C49 C 0.46401 0.44191 0.47570
 N50 N 0.47777 0.44499 0.45941
 C51 C 0.47475 0.46140 0.44604
 N52 N 0.45796 0.47474 0.44896
 C53 C 0.44419 0.47167 0.46525
 N54 N 0.44722 0.45525 0.47862
 C55 C -0.03675 -0.05914 0.97146
 N56 N -0.05336 -0.04573 0.97500
 C57 C -0.05668 -0.02914 0.96192
 N58 N -0.04338 -0.02596 0.94529
 C59 C -0.02676 -0.03936 0.94174
 N60 N -0.02345 -0.05595 0.95482
 C61 C 1.03401 0.55515 0.97526
 N62 N 1.02031 0.55152 0.95896
 C63 C 1.02342 0.53468 0.94595
 N64 N 1.04025 0.52150 0.94922
 C65 C 1.05395 0.52512 0.96552
 N66 N 1.05083 0.54195 0.97853
 C67 C 0.53734 0.05960 0.47261
 N68 N 0.55403 0.04625 0.47593
 C69 C 0.55739 0.02973 0.46258
 N70 N 0.54405 0.02656 0.44590
 C71 C 0.52737 0.03990 0.44257
 N72 N 0.52401 0.05642 0.45592
 C73 C -0.03722 0.05904 0.52797
 N74 N -0.05390 0.04566 0.52448
 C75 C -0.05721 0.02909 0.53759
 N76 N -0.04384 0.02590 0.55419
 C77 C -0.02715 0.03927 0.55768
 N78 N -0.02384 0.05585 0.54457
 C79 C 0.46435 0.55838 0.02605
 N80 N 0.44756 0.54504 0.02293
 C81 C 0.44430 0.52869 0.03632
 N82 N 0.45782 0.52567 0.05283
 C83 C 0.47462 0.53900 0.05595
 N84 N 0.47788 0.55536 0.04257
 C85 C 0.53788 -0.06014 0.02757
 N86 N 0.55450 -0.04671 0.02418
 C87 C 0.55781 -0.03010 0.03745
 N88 N 0.54451 -0.02693 0.05411
 C89 C 0.52789 -0.04036 0.05751
 N90 N 0.52458 -0.05697 0.04424
 C91 C 1.03470 0.44406 0.52448
 N92 N 1.05147 0.45736 0.52129
 C93 C 1.05453 0.47416 0.53437
 N94 N 1.04083 0.47765 0.55066
 C95 C 1.02406 0.46436 0.55385
 N96 N 1.02100 0.44755 0.54077
 C97 C 0.40752 0.00880 0.22114
 H98 H 0.40834 0.02334 0.23017
 C99 C 0.42145 0.00556 0.20418
 H100 H 0.43277 0.01784 0.20007
 C101 C 0.39157 -0.02478 0.21552
 H102 H 0.38018 -0.03674 0.22021
 C103 C 0.40518 -0.02868 0.19844
 H104 H 0.40408 -0.04366 0.19015
 N105 N 0.39278 -0.00616 0.22631
 C106 C 0.34189 0.02803 0.25911
 H107 H 0.34102 0.01904 0.27357
 C108 C 0.32798 0.04500 0.25594
 H109 H 0.31662 0.04917 0.26819
 C110 C 0.35795 0.03353 0.22570
 H111 H 0.36938 0.02879 0.21378
 C112 C 0.34436 0.05062 0.22187
 H113 H 0.34551 0.05887 0.20698
 Zn114 Zn 0.37472 -0.00060 0.24971
 N115 N 0.35668 0.02280 0.24421
 C116 C 0.39139 0.02368 0.28398
 N117 N 0.39269 0.00507 0.27321
 C118 C 0.40746 -0.00981 0.27846
 C119 C 0.42133 -0.00649 0.29549
 C120 C 0.40493 0.02766 0.30113
 C121 C 0.34201 -0.02940 0.24016
 C122 C 0.32812 -0.04643 0.24329
 C123 C 0.34441 -0.05193 0.27745
 C124 C 0.35798 -0.03479 0.27366
 N125 N 0.35674 -0.02409 0.25513
 H126 H 0.37998 0.03558 0.27923
 H127 H 0.40836 -0.02436 0.26944
 H128 H 0.43268 -0.01872 0.29967
 H129 H 0.40376 0.04264 0.30940
 H130 H 0.34116 -0.02043 0.22569
 H131 H 0.31680 -0.05065 0.23099
 H132 H 0.34553 -0.06014 0.29236
 H133 H 0.36936 -0.02998 0.28564
 C134 C 0.32917 0.05661 0.23714
 C135 C 0.42033 -0.01337 0.19252
 C136 C 0.32927 -0.05800 0.26212
 C137 C 0.42011 0.01243 0.30714
 C138 C 0.09345 -0.00944 0.72103
 H139 H 0.09253 -0.02386 0.73008
 C140 C 0.07954 -0.00631 0.70404
 H141 H 0.06782 -0.01838 0.70019
 C142 C 0.10945 0.02408 0.71557
 H143 H 0.12094 0.03600 0.72026
 C144 C 0.09583 0.02788 0.69849
 H145 H 0.09732 0.04257 0.68994
 N146 N 0.10821 0.00554 0.72629
 C147 C 0.15903 -0.02842 0.75914
 H148 H 0.15996 -0.01925 0.77359
 C149 C 0.17295 -0.04542 0.75595
 H150 H 0.18467 -0.04915 0.76799
 C151 C 0.14301 -0.03418 0.72565
 H152 H 0.13151 -0.02962 0.71377
 C153 C 0.15664 -0.05128 0.72179
 H154 H 0.15514 -0.05996 0.70708
 Zn155 Zn 0.12623 0.00014 0.74974
 N156 N 0.14426 -0.02331 0.74421
 C157 C 0.10948 -0.02385 0.78386
 N158 N 0.10821 -0.00532 0.77315
 C159 C 0.09344 0.00961 0.77838
 C160 C 0.07954 0.00644 0.79534
 C161 C 0.09587 -0.02769 0.80092
 C162 C 0.15900 0.02881 0.74042
 C163 C 0.17291 0.04584 0.74366
 C164 C 0.15660 0.05162 0.77779
 C165 C 0.14298 0.03450 0.77388
 N166 N 0.14423 0.02365 0.75532
 H167 H 0.12098 -0.03574 0.77920
 H168 H 0.09250 0.02403 0.76932
 H169 H 0.06781 0.01848 0.79917
 H170 H 0.09738 -0.04238 0.80948
 H171 H 0.15993 0.01966 0.72597
 H172 H 0.18464 0.04961 0.73166
 H173 H 0.15510 0.06028 0.79251
 H174 H 0.13148 0.02989 0.78574
 C175 C 0.17181 -0.05715 0.73708
 C176 C 0.08066 0.01254 0.69248
 C177 C 0.17177 0.05754 0.76254
 C178 C 0.08069 -0.01240 0.80691
 C179 C 0.58399 0.50416 0.22976
 H180 H 0.57685 0.50117 0.24497
 C181 C 0.57075 0.50789 0.21239
 H182 H 0.55351 0.50771 0.21448
 C183 C 0.61502 0.50899 0.20873
 H184 H 0.63233 0.50945 0.20751
 C185 C 0.60237 0.51283 0.19094
 H186 H 0.61010 0.51596 0.17598
 N187 N 0.60571 0.50445 0.22758
 C188 C 0.65360 0.46856 0.26262
 H189 H 0.65393 0.47751 0.27722
 C190 C 0.66660 0.45076 0.26026
 H191 H 0.67681 0.44599 0.27323
 C192 C 0.63945 0.46373 0.22818
 H193 H 0.62872 0.46870 0.21578
 C194 C 0.65217 0.44580 0.22516
 H195 H 0.65136 0.43742 0.21023
 Zn196 Zn 0.62389 0.49948 0.25103
 N197 N 0.64065 0.47490 0.24657
 C198 C 0.59459 0.47764 0.27624
 N199 N 0.60738 0.49506 0.27571
 C200 C 0.60861 0.50854 0.29247
 C201 C 0.59609 0.50513 0.31040
 C202 C 0.58180 0.47362 0.29385
 C203 C 0.66354 0.52159 0.25362
 C204 C 0.67660 0.53939 0.25599
 C205 C 0.64474 0.56090 0.25909
 C206 C 0.63229 0.54268 0.25663
 N207 N 0.64181 0.52348 0.25428
 H208 H 0.59413 0.46702 0.26280
 H209 H 0.61931 0.52196 0.29203
 H210 H 0.59732 0.51601 0.32360
 H211 H 0.57131 0.45997 0.29372
 H212 H 0.67085 0.50630 0.25125
 H213 H 0.69386 0.53747 0.25585
 H214 H 0.63686 0.57605 0.26090
 H215 H 0.61497 0.54379 0.25667
 C216 C 0.66612 0.43920 0.24126
 C217 C 0.57991 0.51218 0.19261
 C218 C 0.66723 0.55937 0.25888
 C219 C 0.58232 0.48755 0.31119
 C220 C 0.90414 0.51178 0.71845
 H221 H 0.90443 0.52643 0.72735
 C222 C 0.91716 0.50941 0.70067
 H223 H 0.92733 0.52240 0.69588
 C224 C 0.89010 0.47726 0.71371
 H225 H 0.87940 0.46483 0.71871
 C226 C 0.90282 0.47422 0.69582
 H227 H 0.90206 0.45925 0.68748
 N228 N 0.89123 0.49570 0.72482
 C229 C 0.85912 0.54172 0.75823
 H230 H 0.86981 0.54135 0.77165
 C231 C 0.84661 0.55966 0.75471
 H232 H 0.84782 0.57292 0.76552
 C233 C 0.84515 0.52533 0.72742
 H234 H 0.84471 0.51183 0.71686
 C235 C 0.83236 0.54294 0.72329
 H236 H 0.82190 0.54275 0.70963
 Zn237 Zn 0.87445 0.50021 0.74935
 N238 N 0.85791 0.52488 0.74483
 C239 C 0.88286 0.50600 0.79249
 N240 N 0.89237 0.50357 0.77332
 C241 C 0.91411 0.50292 0.77143
 C242 C 0.92716 0.50535 0.78920
 C243 C 0.89531 0.50854 0.81068
 C244 C 0.83460 0.47888 0.75408
 C245 C 0.82138 0.46149 0.75789
 C246 C 0.85303 0.44008 0.76290
 C247 C 0.86565 0.45789 0.75899
 N248 N 0.85631 0.47673 0.75439
 H249 H 0.86553 0.50604 0.79360
 H250 H 0.92141 0.50048 0.75616
 H251 H 0.94442 0.50521 0.78729
 H252 H 0.88743 0.51040 0.82581
 H253 H 0.82743 0.49409 0.75104
 H254 H 0.80414 0.46356 0.75771
 H255 H 0.86078 0.42513 0.76609
 H256 H 0.88296 0.45670 0.75945
 C257 C 0.83287 0.56036 0.73712
 C258 C 0.91672 0.49036 0.68918
 C259 C 0.83056 0.44173 0.76225
 C260 C 0.91779 0.50832 0.80915
 C261 C 0.22108 0.40691 0.01161
 H262 H 0.23071 0.40799 0.02580
 C263 C 0.20369 0.42050 0.00882
 H264 H 0.20011 0.43213 0.02092
 C265 C 0.21459 0.39084 -0.02168
 H266 H 0.21903 0.37945 -0.03365
 C267 C 0.19708 0.40414 -0.02513
 H268 H 0.18796 0.40252 -0.03961
 N269 N 0.22603 0.39228 -0.00342
 C270 C 0.26060 0.34275 0.03003
 H271 H 0.27511 0.34194 0.02070
 C272 C 0.25772 0.32899 0.04695
 H273 H 0.27008 0.31752 0.05049
 C274 C 0.22655 0.35822 0.03618
 H275 H 0.21430 0.36942 0.03178
 C276 C 0.22299 0.34475 0.05321
 H277 H 0.20817 0.34607 0.06201
 Zn278 Zn 0.25011 0.37476 0.00153
 N279 N 0.24522 0.35714 0.02512
 C280 C 0.28543 0.39179 0.02463
 N281 N 0.27392 0.39276 0.00640
 C282 C 0.27860 0.40724 -0.00869
 C283 C 0.29578 0.42117 -0.00600
 C284 C 0.30274 0.40544 0.02799
 C285 C 0.24005 0.34216 -0.02682
 C286 C 0.24303 0.32827 -0.04377
 C287 C 0.27748 0.34454 -0.05021
 C288 C 0.27383 0.35813 -0.03315
 N289 N 0.25523 0.35687 -0.02199
 H290 H 0.28120 0.38049 0.03665
 H291 H 0.26892 0.40794 -0.02287
 H292 H 0.29915 0.43268 -0.01815
 H293 H 0.31193 0.40419 0.04245
 H294 H 0.22560 0.34123 -0.01742
 H295 H 0.23082 0.31658 -0.04726
 H296 H 0.29223 0.34602 -0.05910
 H297 H 0.28592 0.36959 -0.02881
 C298 C 0.23871 0.32989 0.05882
 C299 C 0.19138 0.41918 -0.00973
 C300 C 0.26195 0.32939 -0.05576
 C301 C 0.30816 0.42035 0.01252
 C302 C 0.72232 0.09149 -0.01006
 H303 H 0.73185 0.09073 -0.02431
 C304 C 0.70512 0.07761 -0.00735
 H305 H 0.70131 0.06638 -0.01977
 C306 C 0.71576 0.10717 0.02338
 H307 H 0.72020 0.11840 0.03552
 C308 C 0.69842 0.09360 0.02673
 H309 H 0.68969 0.09459 0.04148
 N310 N 0.72715 0.10604 0.00511
 C311 C 0.76163 0.15618 -0.02756
 H312 H 0.77600 0.15705 -0.01800
 C313 C 0.75892 0.16999 -0.04447
 H314 H 0.77127 0.18156 -0.04774
 C315 C 0.72779 0.14043 -0.03438
 H316 H 0.71557 0.12908 -0.03025
 C317 C 0.72441 0.15395 -0.05141
 H318 H 0.70974 0.15253 -0.06049
 Zn319 Zn 0.75112 0.12383 0.00046
 N320 N 0.74628 0.14162 -0.02300
 C321 C 0.78651 0.10730 -0.02266
 N322 N 0.77508 0.10610 -0.00442
 C323 C 0.77989 0.09152 0.01054
 C324 C 0.79707 0.07766 0.00767
 C325 C 0.80384 0.09376 -0.02618
 C326 C 0.74058 0.15607 0.02892
 C327 C 0.74320 0.16978 0.04608
 C328 C 0.77765 0.15372 0.05294
 C329 C 0.77436 0.14032 0.03563
 N330 N 0.75593 0.14155 0.02419
 H331 H 0.78211 0.11857 -0.03464
 H332 H 0.77033 0.09071 0.02477
 H333 H 0.80084 0.06640 0.01993
 H334 H 0.81259 0.09479 -0.04090
 H335 H 0.72620 0.15690 0.01937
 H336 H 0.73059 0.18094 0.04983
 H337 H 0.79249 0.15262 0.06176
 H338 H 0.78664 0.12909 0.03130
 C339 C 0.74012 0.16895 -0.05669
 C340 C 0.69288 0.07859 0.01124
 C341 C 0.76191 0.16866 0.05841
 C342 C 0.80934 0.07870 -0.01089
 C343 C 0.22114 0.59332 0.48835
 H344 H 0.23072 0.59234 0.47414
 C345 C 0.20380 0.57964 0.49112
 H346 H 0.19994 0.56833 0.47879
 C347 C 0.21458 0.60942 0.52159
 H348 H 0.21906 0.62076 0.53362
 C349 C 0.19709 0.59605 0.52501
 H350 H 0.18829 0.59728 0.53969
 N351 N 0.22604 0.60799 0.50338
 C352 C 0.26071 0.65753 0.46998
 H353 H 0.27521 0.65836 0.47936
 C354 C 0.25789 0.67124 0.45301
 H355 H 0.27027 0.68270 0.44950
 C356 C 0.22665 0.64202 0.46373
 H357 H 0.21438 0.63082 0.46812
 C358 C 0.22315 0.65545 0.44666
 H359 H 0.20833 0.65409 0.43780
 Zn360 Zn 0.25013 0.62557 0.49850
 N361 N 0.24530 0.64314 0.47487
 C362 C 0.28550 0.60855 0.47560
 N363 N 0.27395 0.60760 0.49378
 C364 C 0.27856 0.59315 0.50892
 C365 C 0.29571 0.57920 0.50632
 C366 C 0.30280 0.59490 0.47235
 C367 C 0.24000 0.65816 0.52679
 C368 C 0.24293 0.67205 0.54376
 C369 C 0.27736 0.65585 0.55038
 C370 C 0.27376 0.64227 0.53327
 N371 N 0.25520 0.64349 0.52203
 H372 H 0.28124 0.61974 0.46349
 H373 H 0.26892 0.59255 0.52310
 H374 H 0.29935 0.56807 0.51874
 H375 H 0.31169 0.59576 0.45770
 H376 H 0.22551 0.65898 0.51740
 H377 H 0.23046 0.68336 0.54752
 H378 H 0.29232 0.65476 0.55901
 H379 H 0.28593 0.63093 0.52891
 C380 C 0.23890 0.67029 0.44107
 C381 C 0.19147 0.58093 0.50963
 C382 C 0.26180 0.67096 0.55586
 C383 C 0.30813 0.58000 0.48785
 C384 C 0.72104 0.90908 0.50930
 H385 H 0.73060 0.90985 0.52356
 C386 C 0.70390 0.92299 0.50655
 H387 H 0.70043 0.93455 0.51875
 C388 C 0.71452 0.89351 0.47578
 H389 H 0.71887 0.88222 0.46369
 C390 C 0.69727 0.90714 0.47236
 H391 H 0.68824 0.90585 0.45779
 N392 N 0.72586 0.89456 0.49412
 C393 C 0.75998 0.84426 0.52687
 H394 H 0.77440 0.84341 0.51742
 C395 C 0.75718 0.83047 0.54378
 H396 H 0.76970 0.81922 0.54742
 C397 C 0.72624 0.86015 0.53359
 H398 H 0.71404 0.87147 0.52936
 C399 C 0.72278 0.84668 0.55065
 H400 H 0.70789 0.84780 0.55936
 Zn401 Zn 0.74972 0.87670 0.49885
 N402 N 0.74473 0.85889 0.52227
 C403 C 0.78511 0.89311 0.52221
 N404 N 0.77376 0.89436 0.50390
 C405 C 0.77870 0.90895 0.48899
 C406 C 0.79595 0.92274 0.49198
 C407 C 0.80247 0.90662 0.52587
 C408 C 0.73911 0.84454 0.47027
 C409 C 0.74172 0.83088 0.45308
 C410 C 0.77629 0.84682 0.44647
 C411 C 0.77301 0.86020 0.46378
 N412 N 0.75452 0.85901 0.47512
 H413 H 0.78067 0.88175 0.53409
 H414 H 0.76914 0.90987 0.47475
 H415 H 0.79950 0.93436 0.48000
 H416 H 0.81149 0.90517 0.54041
 H417 H 0.72475 0.84366 0.47980
 H418 H 0.72931 0.81939 0.44956
 H419 H 0.79094 0.84826 0.43743
 H420 H 0.78528 0.87147 0.46814
 C421 C 0.73840 0.83162 0.55597
 C422 C 0.69174 0.92212 0.48788
 C423 C 0.76048 0.83196 0.44087
 C424 C 0.80812 0.92167 0.51063
 C425 C 0.00965 0.22195 0.40791
 H426 H 0.02411 0.23140 0.40865
 C427 C 0.00690 0.20508 0.42177
 H428 H 0.01930 0.20172 0.43326
 C429 C -0.02436 0.21537 0.39244
 H430 H -0.03664 0.21957 0.38119
 C431 C -0.02779 0.19839 0.40602
 H432 H -0.04255 0.18943 0.40473
 N433 N -0.00576 0.22660 0.39346
 C434 C 0.02758 0.25989 0.34304
 H435 H 0.01797 0.27409 0.34217
 C436 C 0.04470 0.25697 0.32913
 H437 H 0.04808 0.26897 0.31747
 C438 C 0.03429 0.22671 0.35888
 H439 H 0.03003 0.21482 0.37030
 C440 C 0.05153 0.22312 0.34526
 H441 H 0.06063 0.20863 0.34666
 Zn442 Zn -0.00093 0.25001 0.37558
 N443 N 0.02287 0.24497 0.35770
 C444 C 0.02263 0.28515 0.39174
 N445 N 0.00414 0.27381 0.39316
 C446 C -0.01106 0.27870 0.40777
 C447 C -0.00824 0.29594 0.42134
 C448 C 0.02613 0.30252 0.40502
 C449 C -0.03003 0.23948 0.34355
 C450 C -0.04741 0.24213 0.32989
 C451 C -0.05390 0.27632 0.34580
 C452 C -0.03641 0.27300 0.35917
 N453 N -0.02503 0.25470 0.35798
 H454 H 0.03474 0.28077 0.38036
 H455 H -0.02544 0.26916 0.40883
 H456 H -0.02048 0.29949 0.43294
 H457 H 0.04078 0.31157 0.40340
 H458 H -0.02045 0.22525 0.34266
 H459 H -0.05103 0.22988 0.31841
 H460 H -0.06296 0.29085 0.34722
 H461 H -0.03192 0.28513 0.37040
 C462 C 0.05696 0.23839 0.33015
 C463 C -0.01201 0.19301 0.42090
 C464 C -0.05964 0.26074 0.33094
 C465 C 0.01054 0.30816 0.42003
 C466 C -0.01111 0.72096 0.09144
 H467 H -0.02544 0.73054 0.09038
 C468 C -0.00841 0.70370 0.07788
 H469 H -0.02071 0.70016 0.06630
 C470 C 0.02260 0.71444 0.10745
 H471 H 0.03477 0.71881 0.11882
 C472 C 0.02598 0.69706 0.09419
 H473 H 0.04059 0.68796 0.09581
 N474 N 0.00416 0.72583 0.10603
 C475 C -0.02964 0.76034 0.15564
 H476 H -0.01995 0.77452 0.15651
 C477 C -0.04701 0.75781 0.16930
 H478 H -0.05051 0.77008 0.18077
 C479 C -0.03632 0.72684 0.14004
 H480 H -0.03196 0.71469 0.12882
 C481 C -0.05381 0.72364 0.15342
 H482 H -0.06299 0.70916 0.15201
 Zn483 Zn -0.00072 0.74965 0.12361
 N484 N -0.02479 0.74509 0.14122
 C485 C -0.02398 0.78440 0.10678
 N486 N -0.00545 0.77309 0.10574
 C487 C 0.00996 0.77772 0.09129
 C488 C 0.00727 0.79463 0.07747
 C489 C -0.02732 0.80144 0.09327
 C490 C 0.02780 0.73967 0.15616
 C491 C 0.04494 0.74253 0.17009
 C492 C 0.05201 0.77631 0.15391
 C493 C 0.03471 0.77281 0.14029
 N494 N 0.02316 0.75460 0.14149
 H495 H -0.03630 0.78013 0.11794
 H496 H 0.02441 0.76828 0.09060
 H497 H 0.01991 0.79830 0.06635
 H498 H -0.04225 0.81013 0.09422
 H499 H 0.01815 0.72546 0.15696
 H500 H 0.04859 0.73028 0.18140
 H501 H 0.06087 0.79100 0.15286
 H502 H 0.03043 0.78476 0.12895
 C503 C -0.05939 0.73927 0.16826
 C504 C 0.01031 0.69143 0.07920
 C505 C 0.05735 0.76104 0.16904
 C506 C -0.01155 0.80680 0.07840
 C507 C 0.49020 0.22214 0.59471
 H508 H 0.47574 0.23157 0.59401
 C509 C 0.49298 0.20524 0.58071
 H510 H 0.48061 0.20184 0.56916
 C511 C 0.52417 0.21568 0.61021
 H512 H 0.53642 0.21994 0.62153
 C513 C 0.52763 0.19866 0.59649
 H514 H 0.54239 0.18974 0.59773
 N515 N 0.50558 0.22687 0.60924
 C516 C 0.47205 0.26037 0.65972
 H517 H 0.48156 0.27467 0.66061
 C518 C 0.45492 0.25745 0.67359
 H519 H 0.45114 0.26975 0.68494
 C520 C 0.46547 0.22705 0.64371
 H521 H 0.46987 0.21505 0.63232
 C522 C 0.44819 0.22348 0.65725
 H523 H 0.43947 0.20871 0.65611
 Zn524 Zn 0.50070 0.25037 0.62724
 N525 N 0.47684 0.24537 0.64501
 C526 C 0.47711 0.28527 0.61111
 N527 N 0.49566 0.27403 0.60976
 C528 C 0.51089 0.27884 0.59519
 C529 C 0.50799 0.29584 0.58153
 C530 C 0.47356 0.30242 0.59776
 C531 C 0.52967 0.24007 0.65930
 C532 C 0.54698 0.24282 0.67306
 C533 C 0.55356 0.27694 0.65739
 C534 C 0.53613 0.27352 0.64391
 N535 N 0.52474 0.25521 0.64494
 H536 H 0.46493 0.28087 0.62237
 H537 H 0.52536 0.26945 0.59426
 H538 H 0.52048 0.29962 0.57030
 H539 H 0.45860 0.31104 0.59894
 H540 H 0.52007 0.22583 0.66006
 H541 H 0.55053 0.23065 0.68448
 H542 H 0.56263 0.29148 0.65611
 H543 H 0.53170 0.28558 0.63273
 C544 C 0.44269 0.23882 0.67243
 C545 C 0.51190 0.19322 0.58152
 C546 C 0.55922 0.26145 0.67219
 C547 C 0.48913 0.30792 0.58274
 C548 C 0.51166 0.72100 0.90605
 H549 H 0.52610 0.73046 0.90704
 C550 C 0.50879 0.70397 0.91968
 H551 H 0.52109 0.70048 0.93123
 C552 C 0.47778 0.71462 0.89023
 H553 H 0.46559 0.71897 0.87893
 C554 C 0.47423 0.69747 0.90357
 H555 H 0.45948 0.68853 0.90206
 N556 N 0.49636 0.72585 0.89155
 C557 C 0.53011 0.76002 0.84201
 H558 H 0.52049 0.77423 0.84133
 C559 C 0.54733 0.75736 0.82818
 H560 H 0.55080 0.76957 0.81677
 C561 C 0.53671 0.72656 0.85730
 H562 H 0.53237 0.71446 0.86847
 C563 C 0.55405 0.72322 0.84374
 H564 H 0.56315 0.70871 0.84495
 Zn565 Zn 0.50133 0.74956 0.87411
 N566 N 0.52529 0.74484 0.85635
 C567 C 0.52485 0.78429 0.89117
 N568 N 0.50627 0.77303 0.89215
 C569 C 0.49094 0.77771 0.90670
 C570 C 0.49375 0.79462 0.92070
 C571 C 0.52833 0.80131 0.90488
 C572 C 0.47258 0.73958 0.84163
 C573 C 0.45542 0.74251 0.82776
 C574 C 0.44875 0.77643 0.84418
 C575 C 0.46604 0.77285 0.85773
 N576 N 0.47741 0.75455 0.85638
 H577 H 0.53706 0.78007 0.87983
 H578 H 0.47649 0.76824 0.90741
 H579 H 0.48141 0.79799 0.93226
 H580 H 0.54308 0.81029 0.90362
 H581 H 0.48208 0.72530 0.84070
 H582 H 0.45163 0.73024 0.81636
 H583 H 0.44004 0.79119 0.84535
 H584 H 0.47047 0.78483 0.86914
 C585 C 0.55960 0.73877 0.82896
 C586 C 0.48988 0.69191 0.91852
 C587 C 0.44322 0.76113 0.82895
 C588 C 0.51264 0.80671 0.91987
 C589 C 0.09606 0.21157 0.29269
 C590 C 0.10979 0.22831 0.28764
 C591 C 0.10627 0.24834 0.29646
 C592 C 0.08910 0.25163 0.31028
 C593 C 0.17444 0.21571 0.23573
 C594 C 0.07889 0.21482 0.30651
 C595 C 0.12747 0.22492 0.27342
 C596 C 0.14228 0.22206 0.26152
 C597 C 0.15962 0.21866 0.24760
 C598 C 0.07521 0.23490 0.31547
 H599 H 0.09859 0.19601 0.28590
 H600 H 0.11684 0.26139 0.29271
 H601 H 0.08686 0.26720 0.31712
 H602 H 0.06832 0.20170 0.30997
 C603 C 0.60912 0.74936 0.79576
 C604 C 0.61268 0.72951 0.78658
 C605 C 0.59894 0.71267 0.79124
 C606 C 0.58169 0.71565 0.80504
 C607 C 0.67747 0.71804 0.73458
 C608 C 0.59187 0.75239 0.80955
 C609 C 0.63042 0.72642 0.77236
 C610 C 0.64527 0.72381 0.76044
 C611 C 0.66264 0.72071 0.74649
 C612 C 0.57795 0.73556 0.81435
 H613 H 0.61969 0.76250 0.79230
 H614 H 0.60152 0.69724 0.78417
 H615 H 0.57111 0.70245 0.80818
 H616 H 0.58958 0.76782 0.81666
 C617 C 0.38872 0.77746 0.80775
 C618 C 0.39040 0.77150 0.78650
 C619 C 0.40930 0.76212 0.77912
 C620 C 0.42647 0.75871 0.79291
 C621 C 0.32595 0.78470 0.73450
 C622 C 0.40587 0.77408 0.82157
 C623 C 0.37276 0.77507 0.77228
 C624 C 0.35799 0.77808 0.76036
 C625 C 0.34071 0.78164 0.74641
 C626 C 0.42496 0.76466 0.81430
 H627 H 0.37414 0.78469 0.81365
 H628 H 0.41080 0.75751 0.76268
 H629 H 0.44104 0.75169 0.78676
 H630 H 0.40411 0.77859 0.83799
 C631 C -0.09952 0.28679 0.29396
 C632 C -0.11337 0.26996 0.28935
 C633 C -0.10968 0.25012 0.29829
 C634 C -0.09221 0.24709 0.31181
 C635 C -0.17895 0.28148 0.23831
 C636 C -0.08205 0.28381 0.30748
 C637 C -0.13135 0.27306 0.27542
 C638 C -0.14638 0.27568 0.26374
 C639 C -0.16396 0.27879 0.25004
 C640 C -0.07819 0.26392 0.31657
 H641 H -0.10219 0.30220 0.28707
 H642 H -0.12034 0.23699 0.29486
 H643 H -0.08984 0.23168 0.31875
 H644 H -0.07139 0.29699 0.31060
 C645 C -0.10930 0.75022 0.20086
 C646 C -0.11314 0.73041 0.20982
 C647 C -0.09943 0.71349 0.20523
 C648 C -0.08195 0.71635 0.19173
 C649 C -0.17881 0.71918 0.26068
 C650 C -0.09182 0.75312 0.18736
 C651 C -0.13114 0.72742 0.22372
 C652 C -0.14619 0.72488 0.23536
 C653 C -0.16380 0.72184 0.24901
 C654 C -0.07795 0.73621 0.18263
 H655 H -0.11984 0.76341 0.20426
 H656 H -0.10222 0.69810 0.21214
 H657 H -0.07141 0.70310 0.18863
 H658 H -0.08932 0.76852 0.18040
 C659 C 0.38816 0.22253 0.69354
 C660 C 0.38984 0.22855 0.71477
 C661 C 0.40875 0.23797 0.72218
 C662 C 0.42594 0.24134 0.70843
 C663 C 0.32528 0.21549 0.76657
 C664 C 0.40533 0.22587 0.67976
 C665 C 0.37218 0.22503 0.72896
 C666 C 0.35739 0.22206 0.74083
 C667 C 0.34008 0.21853 0.75472
 C668 C 0.42442 0.23531 0.68705
 H669 H 0.37357 0.21528 0.68763
 H670 H 0.41025 0.24264 0.73861
 H671 H 0.44051 0.24838 0.71459
 H672 H 0.40356 0.22130 0.66335
 C673 C 0.60904 0.25109 0.70510
 C674 C 0.61267 0.27098 0.71420
 C675 C 0.59887 0.28777 0.70958
 C676 C 0.58149 0.28469 0.69592
 C677 C 0.67799 0.28291 0.76563
 C678 C 0.59166 0.24797 0.69145
 C679 C 0.63056 0.27418 0.72826
 C680 C 0.64553 0.27689 0.74004
 C681 C 0.66304 0.28011 0.75384
 C682 C 0.57768 0.26475 0.68669
 H683 H 0.61966 0.23800 0.70852
 H684 H 0.60150 0.30322 0.71658
 H685 H 0.57087 0.29784 0.69281
 H686 H 0.58932 0.23251 0.68439
 C687 C 0.11205 0.77692 0.19035
 C688 C 0.11031 0.77105 0.21155
 C689 C 0.09130 0.76188 0.21887
 C690 C 0.07407 0.75860 0.20507
 C691 C 0.17503 0.78378 0.26353
 C692 C 0.09484 0.77367 0.17652
 C693 C 0.12801 0.77447 0.22579
 C694 C 0.14284 0.77736 0.23770
 C695 C 0.16020 0.78080 0.25164
 C696 C 0.07565 0.76447 0.18372
 H697 H 0.12672 0.78398 0.18450
 H698 H 0.08975 0.75734 0.23527
 H699 H 0.05942 0.75175 0.21116
 H700 H 0.09666 0.77811 0.16013
 C701 C 0.30873 0.11051 0.22045
 C702 C 0.28721 0.10946 0.22665
 C703 C 0.27937 0.09113 0.23622
 C704 C 0.29298 0.07393 0.23962
 C705 C 0.23602 0.17434 0.21448
 C706 C 0.32237 0.09333 0.22381
 C707 C 0.27321 0.12720 0.22326
 C708 C 0.26148 0.14206 0.22045
 C709 C 0.24775 0.15948 0.21721
 C710 C 0.31465 0.07483 0.23346
 H711 H 0.31498 0.12465 0.21308
 H712 H 0.26272 0.09013 0.24104
 H713 H 0.28649 0.05983 0.24683
 H714 H 0.33903 0.09462 0.21914
 C715 C 0.80240 0.60407 0.70926
 C716 C 0.79208 0.61400 0.72624
 C717 C 0.79527 0.60658 0.74677
 C718 C 0.80864 0.58923 0.75033
 C719 C 0.74002 0.67808 0.71340
 C720 C 0.81577 0.58671 0.71278
 C721 C 0.77803 0.63165 0.72259
 C722 C 0.76614 0.64636 0.71962
 C723 C 0.75210 0.66350 0.71623
 C724 C 0.81900 0.57905 0.73336
 H725 H 0.80008 0.60972 0.69330
 H726 H 0.78730 0.61410 0.76001
 H727 H 0.81056 0.58354 0.76631
 H728 H 0.82372 0.57939 0.69943
 C729 C 0.78502 0.40209 0.75764
 C730 C 0.79036 0.38766 0.77345
 C731 C 0.80890 0.39080 0.78556
 C732 C 0.82204 0.40834 0.78191
 C733 C 0.73957 0.32260 0.78668
 C734 C 0.79811 0.41963 0.75397
 C735 C 0.77672 0.36970 0.77726
 C736 C 0.76514 0.35476 0.78033
 C737 C 0.75142 0.33737 0.78381
 C738 C 0.81676 0.42299 0.76609
 H739 H 0.77073 0.39977 0.74812
 H740 H 0.81315 0.37976 0.79788
 H741 H 0.83613 0.41062 0.79167
 H742 H 0.79377 0.43045 0.74148
 C743 C 0.30880 -0.11189 0.27888
 C744 C 0.28729 -0.11090 0.27258
 C745 C 0.27947 -0.09263 0.26291
 C746 C 0.29310 -0.07541 0.25951
 C747 C 0.23599 -0.17576 0.28489
 C748 C 0.32245 -0.09469 0.27551
 C749 C 0.27327 -0.12864 0.27600
 C750 C 0.26153 -0.14351 0.27884
 C751 C 0.24776 -0.16091 0.28212
 C752 C 0.31476 -0.07625 0.26577
 H753 H 0.31504 -0.12599 0.28632
 H754 H 0.26283 -0.09167 0.25803
 H755 H 0.28662 -0.06134 0.25223
 H756 H 0.33910 -0.09593 0.28025
 C757 C 0.20920 -0.09603 0.70988
 C758 C 0.21391 -0.10994 0.72635
 C759 C 0.20491 -0.10660 0.74632
 C760 C 0.19125 -0.08942 0.74983
 C761 C 0.26524 -0.17470 0.71342
 C762 C 0.19552 -0.07886 0.71335
 C763 C 0.22795 -0.12764 0.72276
 C764 C 0.23971 -0.14248 0.71978
 C765 C 0.25347 -0.15985 0.71633
 C766 C 0.18638 -0.07535 0.73338
 H767 H 0.21613 -0.09844 0.69437
 H768 H 0.20840 -0.11730 0.75917
 H769 H 0.18425 -0.08732 0.76534
 H770 H 0.19233 -0.06816 0.70044
 C771 C 0.68612 0.38497 0.22445
 C772 C 0.70731 0.38549 0.23178
 C773 C 0.71498 0.40345 0.24236
 C774 C 0.70155 0.42086 0.24555
 C775 C 0.75918 0.32117 0.21879
 C776 C 0.67266 0.40237 0.22762
 C777 C 0.72128 0.36772 0.22827
 C778 C 0.73312 0.35294 0.22530
 C779 C 0.74712 0.33576 0.22180
 C780 C 0.68024 0.42054 0.23817
 H781 H 0.68001 0.37113 0.21628
 H782 H 0.73138 0.40406 0.24803
 H783 H 0.70796 0.43471 0.25347
 H784 H 0.65627 0.40154 0.22198
 C785 C 0.68839 0.61179 0.27973
 C786 C 0.70721 0.61413 0.26793
 C787 C 0.71281 0.59875 0.25296
 C788 C 0.69973 0.58103 0.24988
 C789 C 0.75845 0.67908 0.28082
 C790 C 0.67527 0.59409 0.27667
 C791 C 0.72097 0.63210 0.27140
 C792 C 0.73265 0.64703 0.27435
 C793 C 0.74650 0.66438 0.27783
 C794 C 0.68085 0.57845 0.26177
 H795 H 0.68395 0.62357 0.29142
 H796 H 0.72732 0.60043 0.24371
 H797 H 0.70431 0.56943 0.23809
 H798 H 0.66100 0.59243 0.28624
 C799 C 0.20917 0.09645 0.78990
 C800 C 0.21390 0.11038 0.77346
 C801 C 0.20490 0.10706 0.75346
 C802 C 0.19122 0.08987 0.74989
 C803 C 0.26534 0.17514 0.78663
 C804 C 0.19549 0.07926 0.78637
 C805 C 0.22796 0.12809 0.77711
 C806 C 0.23974 0.14293 0.78014
 C807 C 0.25354 0.16030 0.78366
 C808 C 0.18635 0.07577 0.76631
 H809 H 0.21610 0.09884 0.80543
 H810 H 0.20840 0.11779 0.74064
 H811 H 0.18423 0.08778 0.73436
 H812 H 0.19228 0.06854 0.79925
 C813 C 0.24880 0.29677 0.10764
 C814 C 0.22858 0.28774 0.11091
 C815 C 0.21167 0.29245 0.09717
 C816 C 0.21495 0.30615 0.08024
 C817 C 0.21578 0.23617 0.17456
 C818 C 0.25212 0.31047 0.09071
 C819 C 0.22516 0.27364 0.12834
 C820 C 0.22225 0.26182 0.14293
 C821 C 0.21878 0.24799 0.16000
 C822 C 0.23522 0.31533 0.07681
 H823 H 0.26199 0.29328 0.11822
 H824 H 0.19597 0.28549 0.09951
 H825 H 0.20169 0.30934 0.06966
 H826 H 0.26783 0.31749 0.08865
 C827 C 0.72279 0.81106 0.61003
 C828 C 0.72898 0.78985 0.60849
 C829 C 0.73820 0.78226 0.58980
 C830 C 0.74125 0.79582 0.57270
 C831 C 0.71777 0.73881 0.67285
 C832 C 0.72581 0.82464 0.59295
 C833 C 0.72590 0.77589 0.62610
 C834 C 0.72333 0.76420 0.64085
 C835 C 0.72033 0.75051 0.65811
 C836 C 0.73510 0.81718 0.57409
 H837 H 0.71569 0.81711 0.62445
 H838 H 0.74299 0.76585 0.58842
 H839 H 0.74817 0.78952 0.55831
 H840 H 0.72117 0.84105 0.59461
 C841 C 0.78660 0.79507 0.40100
 C842 C 0.76936 0.79052 0.38754
 C843 C 0.74924 0.79949 0.39148
 C844 C 0.74633 0.81295 0.40882
 C845 C 0.78036 0.73982 0.32231
 C846 C 0.78374 0.80855 0.41835
 C847 C 0.77233 0.77666 0.36968
 C848 C 0.77483 0.76505 0.35473
 C849 C 0.77779 0.75144 0.33724
 C850 C 0.76356 0.81764 0.42246
 H851 H 0.80224 0.78817 0.39813
 H852 H 0.73580 0.79612 0.38112
 H853 H 0.73068 0.81992 0.41140
 H854 H 0.79724 0.81162 0.42870
 C855 C 0.25190 0.29589 -0.10473
 C856 C 0.27222 0.28716 -0.10823
 C857 C 0.28918 0.29218 -0.09459
 C858 C 0.28586 0.30590 -0.07752
 C859 C 0.28503 0.23577 -0.17259
 C860 C 0.24854 0.30960 -0.08766
 C861 C 0.27568 0.27308 -0.12583
 C862 C 0.27861 0.26130 -0.14058
 C863 C 0.28206 0.24753 -0.15784
 C864 C 0.26549 0.31478 -0.07386
 H865 H 0.23867 0.29215 -0.11523
 H866 H 0.30496 0.28546 -0.09712
 H867 H 0.29915 0.30934 -0.06703
 H868 H 0.23275 0.31638 -0.08543
 C869 C 0.71365 0.20618 -0.09563
 C870 C 0.73081 0.21100 -0.10901
 C871 C 0.75100 0.20210 -0.10531
 C872 C 0.75405 0.18843 -0.08830
 C873 C 0.71912 0.26234 -0.17305
 C874 C 0.71665 0.19251 -0.07862
 C875 C 0.72768 0.22506 -0.12653
 C876 C 0.72503 0.23683 -0.14120
 C877 C 0.72187 0.25059 -0.15838
 C878 C 0.73690 0.18347 -0.07476
 H879 H 0.69796 0.21303 -0.09831
 H880 H 0.76438 0.20568 -0.11561
 H881 H 0.76975 0.18152 -0.08592
 H882 H 0.70321 0.18923 -0.06833
 C883 C 0.21200 0.70759 0.40249
 C884 C 0.22894 0.71227 0.38880
 C885 C 0.24914 0.70325 0.39218
 C886 C 0.25241 0.68962 0.40918
 C887 C 0.21633 0.76356 0.32488
 C888 C 0.21521 0.69395 0.41948
 C889 C 0.22557 0.72630 0.37129
 C890 C 0.22270 0.73805 0.35664
 C891 C 0.21928 0.75181 0.33951
 C892 C 0.23547 0.68480 0.42302
 H893 H 0.19631 0.71454 0.40005
 H894 H 0.26236 0.70672 0.38164
 H895 H 0.26810 0.68262 0.41132
 H896 H 0.20194 0.69080 0.43002
 C897 C 0.26255 0.72061 0.58984
 C898 C 0.27199 0.71316 0.60841
 C899 C 0.27808 0.69193 0.60985
 C900 C 0.27477 0.67820 0.59277
 C901 C 0.28483 0.76464 0.67274
 C902 C 0.25921 0.70691 0.57275
 C903 C 0.27546 0.72728 0.62599
 C904 C 0.27839 0.73908 0.64073
 C905 C 0.28185 0.75288 0.65799
 C906 C 0.26529 0.68554 0.57401
 H907 H 0.25783 0.73703 0.58854
 H908 H 0.28535 0.68598 0.62417
 H909 H 0.27937 0.66179 0.59434
 H910 H 0.25214 0.71310 0.55844
 C911 C 0.77702 0.18893 0.11298
 C912 C 0.77072 0.21011 0.11177
 C913 C 0.76159 0.21778 0.09313
 C914 C 0.75874 0.20433 0.07576
 C915 C 0.78142 0.26074 0.17714
 C916 C 0.77421 0.17545 0.09562
 C917 C 0.77361 0.22397 0.12966
 C918 C 0.77604 0.23557 0.14463
 C919 C 0.77892 0.24915 0.16217
 C920 C 0.76501 0.18299 0.07681
 H921 H 0.78406 0.18282 0.12735
 H922 H 0.75671 0.23417 0.09201
 H923 H 0.75188 0.21068 0.06143
 H924 H 0.77894 0.15906 0.09702
 C925 C 0.47298 0.36192 0.56226
 C926 C 0.47913 0.36043 0.54106
 C927 C 0.48852 0.34181 0.53346
 C928 C 0.49178 0.32473 0.54699
 C929 C 0.46719 0.42452 0.48980
 C930 C 0.47621 0.34485 0.57583
 C931 C 0.47582 0.37801 0.52710
 C932 C 0.47307 0.39270 0.51538
 C933 C 0.46989 0.40988 0.50160
 C934 C 0.48566 0.32605 0.56835
 H935 H 0.46575 0.37628 0.56833
 H936 H 0.49328 0.34047 0.51706
 H937 H 0.49882 0.31039 0.54069
 H938 H 0.47158 0.34646 0.59223
 C939 C -0.02733 0.86076 0.05758
 C940 C -0.02100 0.85918 0.03643
 C941 C -0.01154 0.84053 0.02899
 C942 C -0.00843 0.82349 0.04262
 C943 C -0.03326 0.92332 -0.01469
 C944 C -0.02425 0.84374 0.07123
 C945 C -0.02427 0.87670 0.02239
 C946 C -0.02706 0.89138 0.01066
 C947 C -0.03038 0.90860 -0.00303
 C948 C -0.01477 0.82490 0.06391
 H949 H -0.03461 0.87515 0.06352
 H950 H -0.00664 0.83912 0.01263
 H951 H -0.00135 0.80912 0.03643
 H952 H -0.02903 0.84542 0.08758
 C953 C -0.00070 0.64183 0.04692
 C954 C 0.01952 0.63777 0.03823
 C955 C 0.03673 0.65124 0.04287
 C956 C 0.03376 0.66870 0.05618
 C957 C 0.03096 0.57206 -0.01179
 C958 C -0.00372 0.65928 0.06022
 C959 C 0.02261 0.61978 0.02455
 C960 C 0.02522 0.60472 0.01310
 C961 C 0.02830 0.58709 -0.00031
 C962 C 0.01349 0.67292 0.06502
 H963 H -0.01412 0.63146 0.04348
 H964 H 0.05244 0.64828 0.03617
 H965 H 0.04725 0.67905 0.05933
 H966 H -0.01944 0.66194 0.06699
 C967 C 0.50138 0.14448 0.54778
 C968 C 0.52157 0.14104 0.53877
 C969 C 0.53861 0.15463 0.54369
 C970 C 0.53548 0.17160 0.55759
 C971 C 0.53383 0.07707 0.48672
 C972 C 0.49821 0.16144 0.56167
 C973 C 0.52484 0.12355 0.52450
 C974 C 0.52762 0.10890 0.51256
 C975 C 0.53094 0.09174 0.49861
 C976 C 0.51524 0.17520 0.56675
 H977 H 0.48809 0.13401 0.54412
 H978 H 0.55430 0.15215 0.53676
 H979 H 0.54883 0.18206 0.56095
 H980 H 0.48251 0.16363 0.56866
 C981 C -0.03862 0.15433 0.45832
 C982 C -0.02158 0.14076 0.46302
 C983 C -0.00140 0.14427 0.45402
 C984 C 0.00174 0.16127 0.44035
 C985 C -0.03374 0.07658 0.51410
 C986 C -0.03553 0.17133 0.44464
 C987 C -0.02482 0.12322 0.47704
 C988 C -0.02758 0.10852 0.48875
 C989 C -0.03088 0.09129 0.50244
 C990 C -0.01531 0.17499 0.43549
 H991 H -0.05430 0.15180 0.46525
 H992 H 0.01190 0.13383 0.45751
 H993 H 0.01742 0.16350 0.43335
 H994 H -0.04889 0.18177 0.44145
 C995 C 0.50020 0.64300 0.95147
 C996 C 0.47996 0.63950 0.96035
 C997 C 0.46295 0.65307 0.95554
 C998 C 0.46614 0.67010 0.94192
 C999 C 0.46776 0.57572 1.01193
 C1000 C 0.50344 0.66003 0.93786
 C1001 C 0.47666 0.62202 0.97442
 C1002 C 0.47387 0.60739 0.98623
 C1003 C 0.47059 0.59030 1.00008
 C1004 C 0.48644 0.67378 0.93293
 H1005 H 0.51347 0.63256 0.95505
 H1006 H 0.44723 0.65054 0.96238
 H1007 H 0.45282 0.68055 0.93867
 H1008 H 0.51917 0.66228 0.93098
 C1009 C 0.53940 0.84548 0.95759
 C1010 C 0.52235 0.85902 0.96250
 C1011 C 0.50213 0.85547 0.95351
 C1012 C 0.49895 0.83846 0.93967
 C1013 C 0.53459 0.92324 1.01429
 C1014 C 0.53626 0.82846 0.94374
 C1015 C 0.52563 0.87657 0.97671
 C1016 C 0.52841 0.89127 0.98858
 C1017 C 0.53172 0.90851 1.00246
 C1018 C 0.51599 0.82476 0.93461
 H1019 H 0.55510 0.84804 0.96451
 H1020 H 0.48884 0.86590 0.95715
 H1021 H 0.48324 0.83620 0.93269
 H1022 H 0.54962 0.81805 0.94040
 C1023 C -0.00017 0.35772 0.45241
 C1024 C 0.02009 0.36171 0.46112
 C1025 C 0.03723 0.34821 0.45644
 C1026 C 0.03415 0.33080 0.44308
 C1027 C 0.03169 0.42719 0.51144
 C1028 C -0.00329 0.34031 0.43906
 C1029 C 0.02327 0.37963 0.47487
 C1030 C 0.02592 0.39464 0.48639
 C1031 C 0.02903 0.41221 0.49989
 C1032 C 0.01384 0.32664 0.43423
 H1033 H -0.01354 0.36810 0.45588
 H1034 H 0.05297 0.35112 0.46315
 H1035 H 0.04759 0.32043 0.43990
 H1036 H -0.01904 0.33770 0.43228
 C1037 C 0.34224 0.53029 0.48810
 C1038 C 0.36129 0.53757 0.47899
 C1039 C 0.36297 0.55868 0.47272
 C1040 C 0.34569 0.57248 0.47556
 C1041 C 0.42642 0.48576 0.46828
 C1042 C 0.32494 0.54406 0.49097
 C1043 C 0.37910 0.52339 0.47607
 C1044 C 0.39402 0.51151 0.47364
 C1045 C 0.41149 0.49762 0.47077
 C1046 C 0.32647 0.56533 0.48474
 H1047 H 0.34074 0.51396 0.49295
 H1048 H 0.37767 0.56450 0.46569
 H1049 H 0.34747 0.58881 0.47085
 H1050 H 0.31028 0.53800 0.49782
 C1051 C 0.84332 0.02892 -0.01186
 C1052 C 0.86223 0.03627 -0.02119
 C1053 C 0.86390 0.05749 -0.02709
 C1054 C 0.84673 0.07130 -0.02372
 C1055 C 0.92669 -0.01573 -0.03454
 C1056 C 0.82613 0.04270 -0.00846
 C1057 C 0.87987 0.02205 -0.02478
 C1058 C 0.89464 0.01013 -0.02782
 C1059 C 0.91193 -0.00382 -0.03143
 C1060 C 0.82763 0.06406 -0.01437
 H1061 H 0.84182 0.01250 -0.00729
 H1062 H 0.87849 0.06337 -0.03428
 H1063 H 0.84849 0.08771 -0.02820
 H1064 H 0.81155 0.03658 -0.00149
 C1065 C 0.63829 0.05734 0.02723
 C1066 C 0.63992 0.03614 0.02104
 C1067 C 0.65880 0.02880 0.01158
 C1068 C 0.67601 0.04260 0.00833
 C1069 C 0.57540 -0.01590 0.03387
 C1070 C 0.65548 0.07116 0.02401
 C1071 C 0.62226 0.02190 0.02449
 C1072 C 0.60747 0.00997 0.02742
 C1073 C 0.59017 -0.00398 0.03089
 C1074 C 0.67456 0.06394 0.01453
 H1075 H 0.62373 0.06320 0.03452
 H1076 H 0.66025 0.01239 0.00679
 H1077 H 0.69056 0.03649 0.00126
 H1078 H 0.65377 0.08756 0.02871
 C1079 C 0.13644 0.56053 0.52526
 C1080 C 0.13781 0.53928 0.51919
 C1081 C 0.15670 0.53161 0.51000
 C1082 C 0.17415 0.54514 0.50688
 C1083 C 0.07233 0.48816 0.53106
 C1084 C 0.15388 0.57409 0.52217
 C1085 C 0.11987 0.52533 0.52241
 C1086 C 0.10485 0.51363 0.52512
 C1087 C 0.08730 0.49990 0.52831
 C1088 C 0.17294 0.56654 0.51293
 H1089 H 0.12188 0.56665 0.53234
 H1090 H 0.15795 0.51517 0.50530
 H1091 H 0.18869 0.53878 0.49999
 H1092 H 0.15235 0.59053 0.52675
 C1093 C 0.14135 0.45182 0.00065
 C1094 C 0.13755 0.46054 -0.01926
 C1095 C 0.15131 0.45576 -0.03606
 C1096 C 0.16881 0.44231 -0.03299
 C1097 C 0.07181 0.51125 -0.03111
 C1098 C 0.15885 0.43838 0.00376
 C1099 C 0.11954 0.47439 -0.02245
 C1100 C 0.10447 0.48600 -0.02514
 C1101 C 0.08685 0.49961 -0.02834
 C1102 C 0.17279 0.43347 -0.01303
 H1103 H 0.13077 0.45537 0.01375
 H1104 H 0.14854 0.46248 -0.05153
 H1105 H 0.17939 0.43907 -0.04616
 H1106 H 0.16132 0.43161 0.01924
 C1107 C 0.64227 0.95564 0.49807
 C1108 C 0.63887 0.96462 0.47821
 C1109 C 0.65273 0.95975 0.46152
 C1110 C 0.66992 0.94594 0.46464
 C1111 C 0.57410 1.01639 0.46589
 C1112 C 0.65947 0.94183 0.50125
 C1113 C 0.62114 0.97880 0.47493
 C1114 C 0.60630 0.99066 0.47213
 C1115 C 0.58893 1.00454 0.46879
 C1116 C 0.67349 0.93681 0.48455
 H1117 H 0.63160 0.95925 0.51109
 H1118 H 0.65028 0.96666 0.44609
 H1119 H 0.68059 0.94263 0.45156
 H1120 H 0.66163 0.93486 0.51668
 C1121 C 0.85776 0.95510 0.50103
 C1122 C 0.86122 0.96394 0.52105
 C1123 C 0.84735 0.95899 0.53767
 C1124 C 0.83009 0.94524 0.53430
 C1125 C 0.92607 1.01571 0.53412
 C1126 C 0.84050 0.94136 0.49762
 C1127 C 0.87898 0.97810 0.52456
 C1128 C 0.89384 0.98996 0.52754
 C1129 C 0.91123 1.00385 0.53107
 C1130 C 0.82646 0.93626 0.51423
 H1131 H 0.86843 0.95879 0.48806
 H1132 H 0.84984 0.96579 0.55322
 H1133 H 0.81941 0.94186 0.54733
 H1134 H 0.83830 0.93450 0.48206
 C1135 C 0.35763 0.45370 0.00185
 C1136 C 0.36136 0.46279 0.02171
 C1137 C 0.34774 0.45802 0.03858
 C1138 C 0.33045 0.44422 0.03562
 C1139 C 0.42651 0.51461 0.03308
 C1140 C 0.34033 0.43990 -0.00115
 C1141 C 0.37917 0.47698 0.02478
 C1142 C 0.39410 0.48886 0.02736
 C1143 C 0.41157 0.50276 0.03042
 C1144 C 0.32654 0.43500 0.01571
 H1145 H 0.36811 0.45723 -0.01131
 H1146 H 0.35045 0.46502 0.05401
 H1147 H 0.31996 0.44099 0.04884
 H1148 H 0.33792 0.43285 -0.01659
 C1149 C 0.54467 0.49755 0.35724
 C1150 C 0.54142 0.47704 0.36477
 C1151 C 0.55171 0.45997 0.35495
 C1152 C 0.56512 0.46337 0.33761
 C1153 C 0.48924 0.46462 0.42876
 C1154 C 0.55808 0.50099 0.33992
 C1155 C 0.52733 0.47352 0.38239
 C1156 C 0.51541 0.47066 0.39708
 C1157 C 0.50134 0.46737 0.41420
 C1158 C 0.56841 0.48392 0.32985
 H1159 H 0.53672 0.51087 0.36468
 H1160 H 0.54934 0.44404 0.36068
 H1161 H 0.57305 0.44994 0.33038
 H1162 H 0.56005 0.51695 0.33416
 C1163 C 0.04761 -0.00308 0.85640
 C1164 C 0.03864 -0.02309 0.85958
 C1165 C 0.04336 -0.03961 0.84556
 C1166 C 0.05701 -0.03615 0.82842
 C1167 C -0.01271 -0.03597 0.92414
 C1168 C 0.06126 0.00042 0.83926
 C1169 C 0.02460 -0.02667 0.87724
 C1170 C 0.01285 -0.02964 0.89203
 C1171 C -0.00093 -0.03307 0.90935
 C1172 C 0.06613 -0.01609 0.82508
 H1173 H 0.04412 0.00981 0.86720
 H1174 H 0.03644 -0.05515 0.84784
 H1175 H 0.06021 -0.04910 0.81763
 H1176 H 0.06824 0.01596 0.83728
 C1177 C 0.04751 0.00313 0.64296
 C1178 C 0.03851 0.02312 0.63978
 C1179 C 0.04324 0.03965 0.65381
 C1180 C 0.05693 0.03623 0.67096
 C1181 C -0.01303 0.03589 0.57526
 C1182 C 0.06120 -0.00033 0.66010
 C1183 C 0.02443 0.02666 0.62212
 C1184 C 0.01263 0.02960 0.60734
 C1185 C -0.00120 0.03301 0.59003
 C1186 C 0.06607 0.01619 0.67430
 H1187 H 0.04401 -0.00976 0.63216
 H1188 H 0.03630 0.05517 0.65153
 H1189 H 0.06014 0.04919 0.68175
 H1190 H 0.06820 -0.01585 0.66208
 C1191 C 0.55816 0.53522 0.14164
 C1192 C 0.53964 0.52306 0.13857
 C1193 C 0.53433 0.50730 0.15308
 C1194 C 0.54743 0.50375 0.17062
 C1195 C 0.48886 0.53582 0.07348
 C1196 C 0.57132 0.53168 0.15918
 C1197 C 0.52600 0.52674 0.12062
 C1198 C 0.51442 0.52971 0.10567
 C1199 C 0.50070 0.53306 0.08826
 C1200 C 0.56607 0.51592 0.17389
 H1201 H 0.56240 0.54750 0.13053
 H1202 H 0.52005 0.49775 0.15083
 H1203 H 0.54312 0.49130 0.18149
 H1204 H 0.58541 0.54148 0.16139
 C1205 C 0.47020 -0.01439 0.15813
 C1206 C 0.46242 -0.02420 0.13979
 C1207 C 0.44092 -0.03050 0.13868
 C1208 C 0.42723 -0.02701 0.15582
 C1209 C 0.51382 -0.03699 0.07514
 C1210 C 0.45654 -0.01087 0.17528
 C1211 C 0.47648 -0.02775 0.12211
 C1212 C 0.48825 -0.03070 0.10730
 C1213 C 0.50204 -0.03411 0.08995
 C1214 C 0.43488 -0.01714 0.17433
 H1215 H 0.48684 -0.00949 0.15918
 H1216 H 0.43471 -0.03806 0.12454
 H1217 H 0.41059 -0.03177 0.15449
 H1218 H 0.46299 -0.00349 0.18940
 C1219 C 0.96556 0.49154 0.65344
 C1220 C 0.95791 0.48089 0.63552
 C1221 C 0.93675 0.47350 0.63503
 C1222 C 0.92329 0.47664 0.65242
 C1223 C 1.00966 0.46797 0.57117
 C1224 C 0.95214 0.49472 0.67084
 C1225 C 0.97188 0.47741 0.61776
 C1226 C 0.98369 0.47446 0.60298
 C1227 C 0.99765 0.47097 0.58578
 C1228 C 0.93085 0.48726 0.67055
 H1229 H 0.98195 0.49726 0.65403
 H1230 H 0.93065 0.46528 0.62121
 H1231 H 0.90692 0.47095 0.65161
 H1232 H 0.95853 0.50268 0.68466
 C1233 C 0.96340 0.50256 0.84850
 C1234 C 0.95781 0.51761 0.86379
 C1235 C 0.93898 0.52941 0.86143
 C1236 C 0.92585 0.52626 0.84376
 C1237 C 1.00907 0.53094 0.92858
 C1238 C 0.95031 0.49940 0.83082
 C1239 C 0.97158 0.52118 0.88172
 C1240 C 0.98328 0.52422 0.89661
 C1241 C 0.99713 0.52783 0.91391
 C1242 C 0.93142 0.51129 0.82820
 H1243 H 0.97791 0.49331 0.85020
 H1244 H 0.93454 0.54115 0.87314
 H1245 H 0.91157 0.53584 0.84207
 H1246 H 0.95488 0.48756 0.81927
 C1247 C 0.46988 0.01374 0.34178
 C1248 C 0.46202 0.02352 0.36007
 C1249 C 0.44049 0.02971 0.36107
 C1250 C 0.42686 0.02614 0.34386
 C1251 C 0.51329 0.03652 0.42492
 C1252 C 0.45628 0.01014 0.32455
 C1253 C 0.47602 0.02715 0.37781
 C1254 C 0.48775 0.03016 0.39268
 C1255 C 0.50151 0.03362 0.41008
 C1256 C 0.43460 0.01629 0.32540
 H1257 H 0.48654 0.00894 0.34081
 H1258 H 0.43422 0.03724 0.37517
 H1259 H 0.41020 0.03081 0.34511
 H1260 H 0.46280 0.00278 0.31048
   
