data_POSCAR
  _audit_creation_date              2014-09-24
  _audit_creation_method            'ToBaCCo'
  _symmetry_space_group_name_H-M    'P1'
  _symmetry_Int_Tables_number       1
  _symmetry_cell_setting            triclinic
  loop_
  _symmetry_equiv_pos_as_xyz
 x,y,z
_cell_length_a 41.6468
_cell_length_b 41.7205
_cell_length_c 41.8057
_cell_angle_alpha 91.364200
_cell_angle_beta 91.059500
_cell_angle_gamma 88.724100
loop_
  _atom_site_label
  _atom_site_type_symbol
  _atom_site_fract_x
  _atom_site_fract_y
  _atom_site_fract_z
C1 C 0.11641 -0.03442 0.24511
 C2 C 0.10623 -0.00694 0.26228
 C3 C 0.09951 -0.00914 0.29478
 C4 C 0.10509 -0.03772 0.31096
 C5 C 0.11782 -0.06465 0.29414
 C6 C 0.12261 -0.06354 0.26070
 C7 C 0.10501 0.02479 0.24719
 C8 C 0.09120 0.02883 0.21666
 C9 C 0.08938 0.05937 0.20299
 C10 C 0.10254 0.08554 0.22018
 C11 C 0.11772 0.08153 0.25005
 C12 C 0.11851 0.05112 0.26349
 H13 H 0.12189 -0.03219 0.22007
 H14 H 0.09078 0.01198 0.30781
 H15 H 0.08067 0.00834 0.20445
 H16 H 0.13074 0.04736 0.28617
 H17 H 0.12225 -0.08672 0.30678
 H18 H 0.10219 0.10903 0.20991
 C19 C 0.37307 -0.05250 0.75293
 C20 C 0.37857 -0.01960 0.75533
 C21 C 0.39276 -0.00430 0.73001
 C22 C 0.40205 -0.02183 0.70264
 C23 C 0.39755 -0.05513 0.70087
 C24 C 0.38241 -0.07035 0.72580
 C25 C 0.36995 -0.00146 0.78461
 C26 C 0.37786 -0.01420 0.81443
 C27 C 0.37107 0.00301 0.84277
 C28 C 0.35503 0.03290 0.84087
 C29 C 0.34535 0.04493 0.81105
 C30 C 0.35375 0.02821 0.78295
 H31 H 0.36135 -0.06424 0.77226
 H32 H 0.39700 0.02122 0.73185
 H33 H 0.39127 -0.03671 0.81517
 H34 H 0.34615 0.03734 0.75990
 H35 H 0.40390 -0.06878 0.67946
 H36 H 0.34867 0.04612 0.86255
 C37 C 0.86742 0.47328 0.21966
 C38 C 0.88378 0.50231 0.22200
 C39 C 0.89255 0.51760 0.19402
 C40 C 0.88334 0.50503 0.16402
 C41 C 0.86584 0.47670 0.16197
 C42 C 0.85794 0.46058 0.18979
 C43 C 0.88619 0.51907 0.25338
 C44 C 0.89519 0.50219 0.28087
 C45 C 0.89186 0.51640 0.31155
 C46 C 0.87910 0.54787 0.31405
 C47 C 0.86912 0.56443 0.28673
 C48 C 0.87383 0.55045 0.25647
 H49 H 0.85953 0.46211 0.24121
 H50 H 0.90500 0.54015 0.19565
 H51 H 0.90465 0.47798 0.27790
 H52 H 0.86460 0.56261 0.23548
 H53 H 0.85846 0.46729 0.13867
 H54 H 0.87457 0.55887 0.33729
 C55 C 0.61676 0.44227 0.74696
 C56 C 0.61180 0.47370 0.75911
 C57 C 0.60391 0.47802 0.79165
 C58 C 0.60213 0.45150 0.81159
 C59 C 0.60566 0.42039 0.79850
 C60 C 0.61258 0.41580 0.76608
 C61 C 0.61690 0.50143 0.73797
 C62 C 0.61172 0.49820 0.70470
 C63 C 0.62071 0.52214 0.68389
 C64 C 0.63359 0.55059 0.69662
 C65 C 0.63647 0.55528 0.72991
 C66 C 0.62864 0.53059 0.75036
 H67 H 0.62429 0.43798 0.72256
 H68 H 0.60033 0.50185 0.80193
 H69 H 0.60117 0.47664 0.69469
 H70 H 0.63282 0.53402 0.77583
 H71 H 0.60401 0.39983 0.81371
 H72 H 0.63975 0.56966 0.68085
 C73 C 0.25770 0.11733 1.06646
 C74 C 0.25182 0.11740 1.03358
 C75 C 0.22191 0.10799 1.02152
 C76 C 0.19690 0.10034 1.04177
 C77 C 0.20334 0.09919 1.07502
 C78 C 0.23356 0.10873 1.08741
 C79 C 0.27514 0.13057 1.01149
 C80 C 0.30768 0.12179 1.01267
 C81 C 0.32902 0.13305 0.98984
 C82 C 0.31640 0.15196 0.96446
 C83 C 0.28324 0.15952 0.96267
 C84 C 0.26380 0.15090 0.98768
 H85 H 0.28055 0.12563 1.07587
 H86 H 0.21820 0.10699 0.99581
 H87 H 0.31612 0.10650 1.03175
 H88 H 0.23880 0.15867 0.98774
 H89 H 0.18423 0.09423 1.09130
 H90 H 0.33157 0.15870 0.94510
 C91 C 0.76407 0.36650 1.02173
 C92 C 0.76080 0.38392 0.99349
 C93 C 0.78507 0.40465 0.98517
 C94 C 0.81319 0.40714 1.00383
 C95 C 0.81742 0.38769 1.03060
 C96 C 0.79274 0.36742 1.04009
 C97 C 0.73366 0.37805 0.97097
 C98 C 0.70206 0.37723 0.98181
 C99 C 0.67676 0.36821 0.96089
 C100 C 0.68374 0.35958 0.92898
 C101 C 0.71486 0.36277 0.91749
 C102 C 0.73968 0.37186 0.93849
 H103 H 0.74538 0.35014 1.02771
 H104 H 0.78219 0.41848 0.96366
 H105 H 0.69737 0.38304 1.00672
 H106 H 0.76397 0.37284 0.92972
 H107 H 0.83921 0.38980 1.04493
 H108 H 0.66471 0.35315 0.91219
 C109 C 0.23992 0.87166 0.54013
 C110 C 0.24013 0.88311 0.50878
 C111 C 0.26472 0.90356 0.50005
 C112 C 0.28983 0.91155 0.52153
 C113 C 0.28922 0.89963 0.55267
 C114 C 0.26396 0.88056 0.56231
 C115 C 0.21466 0.87434 0.48497
 C116 C 0.18228 0.87346 0.49373
 C117 C 0.15823 0.86636 0.47080
 C118 C 0.16662 0.85992 0.43890
 C119 C 0.19863 0.86213 0.42967
 C120 C 0.22249 0.86872 0.45274
 H121 H 0.22075 0.85650 0.54749
 H122 H 0.26440 0.91259 0.47605
 H123 H 0.17557 0.87942 0.51811
 H124 H 0.24727 0.86945 0.44541
 H125 H 0.30766 0.90616 0.57006
 H126 H 0.14805 0.85568 0.42088
 C127 C 0.74135 0.61087 0.54296
 C128 C 0.72849 0.60413 0.51225
 C129 C 0.69502 0.60070 0.50875
 C130 C 0.67455 0.60727 0.53449
 C131 C 0.68773 0.61561 0.56450
 C132 C 0.72110 0.61639 0.56898
 C133 C 0.74917 0.60549 0.48356
 C134 C 0.78217 0.59707 0.48500
 C135 C 0.80292 0.60551 0.46037
 C136 C 0.78963 0.62087 0.43331
 C137 C 0.75644 0.62665 0.43045
 C138 C 0.73657 0.61930 0.45557
 H139 H 0.76692 0.61397 0.54651
 H140 H 0.68459 0.59423 0.48563
 H141 H 0.79196 0.58581 0.50620
 H142 H 0.71144 0.62638 0.45378
 H143 H 0.67215 0.62030 0.58464
 H144 H 0.80461 0.62694 0.41355
 C145 C -0.00606 0.28323 0.15259
 C146 C 0.01437 0.29481 0.12982
 C147 C 0.00994 0.32594 0.11872
 C148 C -0.01522 0.34579 0.13071
 C149 C -0.03685 0.33282 0.15231
 C150 C -0.03332 0.30080 0.16159
 C151 C 0.03457 0.27093 0.11313
 C152 C 0.01892 0.24780 0.09432
 C153 C 0.03396 0.21834 0.08636
 C154 C 0.06688 0.21415 0.09443
 C155 C 0.08292 0.23768 0.11312
 C156 C 0.06645 0.26593 0.12253
 H157 H -0.00267 0.25871 0.16021
 H158 H 0.02590 0.33414 0.10065
 H159 H -0.00600 0.25247 0.08787
 H160 H 0.07788 0.28342 0.13829
 H161 H -0.05826 0.34628 0.15910
 H162 H 0.07930 0.19168 0.08891
 C163 C -0.04713 0.74272 0.38098
 C164 C -0.01375 0.73763 0.38158
 C165 C -0.00130 0.70636 0.38613
 C166 C -0.02219 0.68113 0.39144
 C167 C -0.05543 0.68716 0.39235
 C168 C -0.06786 0.71771 0.38619
 C169 C 0.00698 0.76463 0.37371
 C170 C -0.00175 0.79620 0.38337
 C171 C 0.01186 0.82248 0.36892
 C172 C 0.03574 0.81724 0.34627
 C173 C 0.04618 0.78609 0.33831
 C174 C 0.03199 0.75980 0.35200
 H175 H -0.05732 0.76600 0.37501
 H176 H 0.02438 0.70168 0.38586
 H177 H -0.02080 0.80035 0.40039
 H178 H 0.03857 0.73583 0.34357
 H179 H -0.07172 0.66762 0.39561
 H180 H 0.04625 0.83737 0.33467
 C181 C 0.45409 0.23498 0.88615
 C182 C 0.48496 0.23528 0.90016
 C183 C 0.49809 0.20716 0.91314
 C184 C 0.48212 0.17803 0.90993
 C185 C 0.45062 0.17835 0.89738
 C186 C 0.43719 0.20624 0.88392
 C187 C 0.50781 0.25947 0.89044
 C188 C 0.50492 0.29205 0.89896
 C189 C 0.52589 0.31435 0.88593
 C190 C 0.55021 0.30297 0.86491
 C191 C 0.55314 0.27022 0.85698
 C192 C 0.53195 0.24896 0.86979
 H193 H 0.44530 0.25572 0.87322
 H194 H 0.52232 0.20784 0.92293
 H195 H 0.48551 0.29992 0.91435
 H196 H 0.53373 0.22375 0.86290
 H197 H 0.43790 0.15611 0.89431
 H198 H 0.56676 0.31925 0.85451
 C199 C 0.44766 0.74106 0.62152
 C200 C 0.48052 0.74558 0.61619
 C201 C 0.48968 0.77394 0.60177
 C202 C 0.46707 0.79799 0.59396
 C203 C 0.43432 0.79251 0.59790
 C204 C 0.42450 0.76413 0.61194
 C205 C 0.50552 0.72156 0.62654
 C206 C 0.49951 0.68855 0.62484
 C207 C 0.52326 0.66591 0.63395
 C208 C 0.55351 0.67643 0.64482
 C209 C 0.56030 0.70923 0.64539
 C210 C 0.53616 0.73152 0.63694
 H211 H 0.43998 0.71984 0.63341
 H212 H 0.51474 0.77780 0.59699
 H213 H 0.47657 0.68027 0.61572
 H214 H 0.54159 0.75678 0.63849
 H215 H 0.41674 0.81116 0.59227
 H216 H 0.57240 0.65911 0.65054
 C217 C 0.84904 1.03439 0.75896
 C218 C 0.86107 1.00286 0.75787
 C219 C 0.88195 0.99228 0.78224
 C220 C 0.89154 1.01284 0.80764
 C221 C 0.87933 1.04483 0.80813
 C222 C 0.85867 1.05589 0.78332
 C223 C 0.85639 0.98247 0.72880
 C224 C 0.86135 0.99540 0.69878
 C225 C 0.86566 0.97564 0.67149
 C226 C 0.86402 0.94194 0.67473
 C227 C 0.85533 0.92898 0.70436
 C228 C 0.85182 0.94952 0.73112
 H229 H 0.83370 1.04268 0.73951
 H230 H 0.89104 0.96784 0.78077
 H231 H 0.86537 1.02089 0.69737
 H232 H 0.84715 0.93963 0.75428
 H233 H 0.88698 1.06155 0.82679
 H234 H 0.86756 0.92614 0.65410
 C235 C 0.34502 0.53752 0.27025
 C236 C 0.35735 0.50603 0.27333
 C237 C 0.36444 0.49441 0.30410
 C238 C 0.35868 0.51365 0.33134
 C239 C 0.34663 0.54493 0.32790
 C240 C 0.34054 0.55728 0.29745
 C241 C 0.36535 0.48606 0.24461
 C242 C 0.38119 0.49933 0.21898
 C243 C 0.39255 0.48009 0.19334
 C244 C 0.38704 0.44673 0.19333
 C245 C 0.37028 0.43320 0.21875
 C246 C 0.35947 0.45321 0.24393
 H247 H 0.34035 0.54713 0.24673
 H248 H 0.37498 0.47064 0.30692
 H249 H 0.38563 0.52480 0.21963
 H250 H 0.34725 0.44299 0.26381
 H251 H 0.34327 0.56016 0.34901
 H252 H 0.39616 0.43141 0.17413
 C253 C 0.65967 1.04439 0.25124
 C254 C 0.63937 1.01940 0.24271
 C255 C 0.62934 1.01471 0.21117
 C256 C 0.63981 1.03479 0.18743
 C257 C 0.66044 1.06021 0.19582
 C258 C 0.67046 1.06498 0.22802
 C259 C 0.63106 0.99625 0.26642
 C260 C 0.60683 1.00331 0.28798
 C261 C 0.60086 0.98262 0.31317
 C262 C 0.62060 0.95470 0.31648
 C263 C 0.64416 0.94723 0.29350
 C264 C 0.64903 0.96802 0.26859
 H265 H 0.66728 1.04747 0.27604
 H266 H 0.61435 0.99446 0.20506
 H267 H 0.59406 1.02604 0.28573
 H268 H 0.66805 0.96300 0.25166
 H269 H 0.66899 1.07570 0.17753
 H270 H 0.61741 0.93867 0.33611
 C271 C 0.13065 0.55609 0.75381
 C272 C 0.12644 0.52396 0.74388
 C273 C 0.11284 0.51708 0.71365
 C274 C 0.10419 0.54180 0.69311
 C275 C 0.10820 0.57376 0.70310
 C276 C 0.12138 0.58109 0.73346
 C277 C 0.13767 0.49727 0.76405
 C278 C 0.12721 0.49524 0.79554
 C279 C 0.13617 0.46886 0.81419
 C280 C 0.15602 0.44437 0.80078
 C281 C 0.16705 0.44637 0.76923
 C282 C 0.15778 0.47298 0.75116
 H283 H 0.14169 0.56157 0.77691
 H284 H 0.11046 0.49237 0.70545
 H285 H 0.11187 0.51420 0.80534
 H286 H 0.16568 0.47462 0.72672
 H287 H 0.10261 0.59285 0.68661
 H288 H 0.16290 0.42379 0.81483
 C289 C 0.74173 0.84700 -0.03492
 C290 C 0.73534 0.85721 -0.00325
 C291 C 0.70343 0.86325 0.00578
 C292 C 0.67821 0.85987 -0.01667
 C293 C 0.68511 0.85110 -0.04853
 C294 C 0.71695 0.84514 -0.05790
 C295 C 0.76219 0.86760 0.01804
 C296 C 0.78465 0.88812 0.00567
 C297 C 0.80993 0.90045 0.02447
 C298 C 0.81264 0.89119 0.05678
 C299 C 0.78950 0.87122 0.07016
 C300 C 0.76442 0.85945 0.05038
 H301 H 0.76636 0.84323 -0.04234
 H302 H 0.69831 0.87194 0.02984
 H303 H 0.78222 0.89409 -0.01927
 H304 H 0.74629 0.84446 0.06015
 H305 H 0.66583 0.85017 -0.06629
 H306 H 0.83194 0.90037 0.07180
 C307 C 0.24937 0.37179 0.45347
 C308 C 0.24237 0.37188 0.48621
 C309 C 0.21124 0.38054 0.49593
 C310 C 0.18736 0.38897 0.47357
 C311 C 0.19475 0.38960 0.44091
 C312 C 0.22572 0.38038 0.43062
 C313 C 0.26664 0.36054 0.51010
 C314 C 0.29895 0.36903 0.50832
 C315 C 0.32196 0.35739 0.53044
 C316 C 0.31209 0.33761 0.55526
 C317 C 0.27967 0.32909 0.55731
 C318 C 0.25742 0.34039 0.53449
 H319 H 0.27297 0.36392 0.44560
 H320 H 0.20525 0.38026 0.52105
 H321 H 0.30629 0.38435 0.48934
 H322 H 0.23263 0.33325 0.53568
 H323 H 0.17592 0.39502 0.42350
 H324 H 0.32952 0.32856 0.57254
 C325 C 0.27916 0.65087 -0.05047
 C326 C 0.28496 0.64136 -0.01890
 C327 C 0.31643 0.63384 -0.00871
 C328 C 0.34190 0.63551 -0.02988
 C329 C 0.33570 0.64388 -0.06183
 C330 C 0.30417 0.65119 -0.07227
 C331 C 0.25780 0.63532 0.00207
 C332 C 0.23214 0.61730 -0.00994
 C333 C 0.20709 0.60836 0.00978
 C334 C 0.20822 0.61818 0.04233
 C335 C 0.23444 0.63569 0.05479
 C336 C 0.25872 0.64470 0.03438
 H337 H 0.25479 0.65618 -0.05860
 H338 H 0.32106 0.62597 0.01550
 H339 H 0.23207 0.61026 -0.03499
 H340 H 0.27911 0.65777 0.04392
 H341 H 0.35519 0.64402 -0.07865
 H342 H 0.18976 0.61089 0.05838
 C343 C 0.75174 0.15906 0.45131
 C344 C 0.76190 0.13707 0.47430
 C345 C 0.79444 0.12850 0.47722
 C346 C 0.81761 0.14199 0.45785
 C347 C 0.80694 0.16442 0.43466
 C348 C 0.77397 0.17298 0.43130
 C349 C 0.73897 0.12373 0.49663
 C350 C 0.71340 0.10512 0.48531
 C351 C 0.69289 0.09084 0.50687
 C352 C 0.69820 0.09547 0.54001
 C353 C 0.72390 0.11409 0.55152
 C354 C 0.74398 0.12823 0.52963
 H355 H 0.72643 0.16542 0.44919
 H356 H 0.80145 0.11185 0.49566
 H357 H 0.70974 0.10149 0.45976
 H358 H 0.76406 0.14234 0.53823
 H359 H 0.82389 0.17518 0.41907
 H360 H 0.68254 0.08441 0.55673
 C361 C 1.05444 0.77329 0.85854
 C362 C 1.02285 0.76991 0.86832
 C363 C 1.00945 0.79256 0.88968
 C364 C 1.02730 0.81859 0.90181
 C365 C 1.05950 0.82139 0.89187
 C366 C 1.07333 0.79829 0.87069
 C367 C 1.00566 0.73999 0.86053
 C368 C 1.02143 0.71057 0.86591
 C369 C 1.00465 0.68170 0.86576
 C370 C 0.97118 0.68300 0.85925
 C371 C 0.95546 0.71231 0.85184
 C372 C 0.97291 0.74061 0.85240
 H373 H 1.06488 0.75504 0.84280
 H374 H 0.98497 0.78936 0.89692
 H375 H 1.04636 0.71105 0.87347
 H376 H 0.96062 0.76337 0.84837
 H377 H 1.07419 0.84054 0.90148
 H378 H 0.95729 0.66138 0.85945
 C379 C 0.54020 0.25548 0.33864
 C380 C 0.51597 0.26471 0.35972
 C381 C 0.51370 0.29630 0.37120
 C382 C 0.53549 0.31908 0.36173
 C383 C 0.55993 0.30981 0.34016
 C384 C 0.56222 0.27779 0.32849
 C385 C 0.49323 0.24121 0.37052
 C386 C 0.50449 0.21416 0.38643
 C387 C 0.48305 0.19294 0.39955
 C388 C 0.44969 0.19855 0.39556
 C389 C 0.43829 0.22562 0.37879
 C390 C 0.46031 0.24682 0.36659
 H391 H 0.54186 0.23072 0.33029
 H392 H 0.49460 0.30309 0.38745
 H393 H 0.53019 0.21017 0.38923
 H394 H 0.45189 0.26812 0.35436
 H395 H 0.57680 0.32728 0.33241
 H396 H 0.43288 0.18230 0.40563
 C397 C 1.03477 0.25119 0.63319
 C398 C 1.00953 0.23950 0.61416
 C399 C 1.01000 0.20723 0.60415
 C400 C 1.03414 0.18575 0.61510
 C401 C 1.05914 0.19801 0.63515
 C402 C 1.05949 0.23086 0.64413
 C403 C 0.98005 0.25962 0.61068
 C404 C 0.98194 0.29245 0.60469
 C405 C 0.95568 0.31347 0.61058
 C406 C 0.92679 0.30055 0.62152
 C407 C 0.92407 0.26726 0.62481
 C408 C 0.95066 0.24710 0.61936
 H409 H 1.03419 0.27613 0.64098
 H410 H 0.98984 0.19863 0.58995
 H411 H 1.00482 0.30179 0.59788
 H412 H 0.94888 0.22175 0.62399
 H413 H 1.07806 0.18229 0.64414
 H414 H 0.90590 0.31583 0.62579
 C415 C 0.55426 0.75693 0.12828
 C416 C 0.52481 0.74205 0.12260
 C417 C 0.52460 0.70885 0.11612
 C418 C 0.55342 0.69062 0.11672
 C419 C 0.58271 0.70601 0.12314
 C420 C 0.58322 0.73947 0.12813
 C421 C 0.49475 0.76135 0.12695
 C422 C 0.49366 0.79361 0.11822
 C423 C 0.46964 0.81477 0.12951
 C424 C 0.44437 0.80262 0.14724
 C425 C 0.44404 0.76978 0.15445
 C426 C 0.46949 0.74949 0.14456
 H427 H 0.55454 0.78216 0.13493
 H428 H 0.50200 0.69702 0.11171
 H429 H 0.51317 0.80285 0.10462
 H430 H 0.47031 0.72475 0.15187
 H431 H 0.60498 0.69210 0.12372
 H432 H 0.42568 0.81871 0.15624
 O433 O -0.01574 0.98598 0.91468
 O434 O 0.03769 1.00698 0.91644
 O435 O -0.01668 0.92279 0.99227
 O436 O -0.00185 0.93021 1.05095
 O437 O -0.09222 0.99107 0.98170
 O438 O -0.09729 1.04853 0.99262
 O439 O 0.05467 1.02359 1.07837
 O440 O 0.06167 0.96998 1.06238
 O441 O 0.06278 1.07887 0.99786
 O442 O 0.04047 1.07843 0.94586
 O443 O -0.01880 1.09278 1.05708
 O444 O -0.06835 1.06168 1.06479
 O445 O 0.00838 1.05129 1.08998
 O446 O -0.04689 1.02810 1.09243
 O447 O 0.01335 1.10685 1.01656
 O448 O -0.00517 1.10227 0.95844
 O449 O 0.08277 1.04046 1.03099
 O450 O 0.08789 0.98361 1.01262
 O451 O -0.06158 1.01315 0.92882
 O452 O -0.07604 1.06183 0.95115
 O453 O -0.07192 0.95253 1.01447
 O454 O -0.04586 0.94854 1.06232
 O455 O 0.01052 0.93877 0.94887
 O456 O 0.06060 0.96767 0.94980
 Zr457 Zr 0.01397 0.98842 0.95633
 O458 O 0.04075 1.02180 0.98366
 Zr459 Zr -0.02362 0.96496 1.02097
 O460 O 0.00118 0.99796 1.05077
 Zr461 Zr -0.05492 1.02411 0.97765
 O462 O -0.03094 1.05957 1.00483
 Zr463 Zr 0.04604 1.00665 1.03117
 O464 O 0.02250 0.97101 1.00289
 Zr465 Zr 0.01541 1.06553 0.98698
 O466 O -0.01034 1.03323 0.95707
 Zr467 Zr -0.02292 1.04276 1.05116
 O468 O -0.04998 1.00862 1.02494
 O469 O -0.03133 0.97977 0.97428
 O470 O 0.02242 1.05104 1.03369
 C471 C -0.04373 0.99835 0.90834
 C472 C -0.00192 0.91721 0.96578
 C473 C -0.09490 0.96572 0.99834
 C474 C 0.03729 1.04209 1.09639
 C475 C 0.08504 1.06663 1.01577
 C476 C -0.00211 1.11305 1.04226
 H477 H 0.06183 1.02435 0.97356
 H478 H -0.04388 1.07971 1.00478
 H479 H -0.04367 0.96422 0.96099
 H480 H 0.00383 0.98938 1.07253
 H481 H 0.06103 0.94958 1.04987
 H482 H 0.01678 0.92075 1.03947
 H483 H -0.02308 1.11262 0.97031
 H484 H -0.05803 1.07325 0.94176
 H485 H 0.10554 0.98654 1.02860
 H486 H 0.06060 0.95340 0.93049
 H487 H -0.07526 1.07750 1.04866
 H488 H -0.10223 1.04050 1.01404
 H489 H 0.03790 0.99056 0.89888
 H490 H 0.03151 1.06558 0.92775
 H491 H -0.05589 0.96774 1.07270
 H492 H -0.03270 1.01265 1.10380
 O493 O 0.44939 0.48748 0.42182
 O494 O 0.48846 0.52776 0.41631
 O495 O 0.50320 0.40682 0.45639
 O496 O 0.53036 0.39172 0.49903
 O497 O 0.41435 0.44284 0.50654
 O498 O 0.40419 0.48706 0.54055
 O499 O 0.58037 0.49549 0.54769
 O500 O 0.58940 0.45401 0.50834
 O501 O 0.53732 0.57162 0.51338
 O502 O 0.49634 0.58166 0.47392
 O503 O 0.50132 0.53079 0.58925
 O504 O 0.46358 0.48483 0.59750
 O505 O 0.54325 0.48950 0.58630
 O506 O 0.49935 0.45053 0.59538
 O507 O 0.49476 0.57018 0.55286
 O508 O 0.45571 0.57932 0.50716
 O509 O 0.57702 0.53385 0.50638
 O510 O 0.58294 0.49126 0.46439
 O511 O 0.41204 0.48780 0.46094
 O512 O 0.40280 0.52274 0.50676
 O513 O 0.45415 0.40468 0.50432
 O514 O 0.50316 0.39752 0.53871
 O515 O 0.49949 0.44635 0.41978
 O516 O 0.53343 0.49232 0.41696
 Zr517 Zr 0.49347 0.48842 0.44753
 O518 O 0.52262 0.51861 0.47625
 Zr519 Zr 0.49707 0.43060 0.50135
 O520 O 0.52730 0.45813 0.53184
 Zr521 Zr 0.43874 0.48621 0.50413
 O522 O 0.46579 0.51596 0.53547
 Zr523 Zr 0.55319 0.49028 0.50501
 O524 O 0.52621 0.45993 0.47433
 Zr525 Zr 0.49450 0.54561 0.50846
 O526 O 0.46469 0.51834 0.47711
 Zr527 Zr 0.49876 0.48775 0.56182
 O528 O 0.46863 0.45772 0.53361
 O529 O 0.46551 0.45707 0.47291
 O530 O 0.52614 0.51871 0.53625
 C531 C 0.42022 0.48858 0.43148
 C532 C 0.50481 0.41719 0.42763
 C533 C 0.42459 0.41364 0.50761
 C534 C 0.57186 0.49485 0.57708
 C535 C 0.56704 0.56272 0.51173
 C536 C 0.49960 0.56041 0.58145
 H537 H 0.53487 0.53280 0.46253
 H538 H 0.45124 0.52856 0.54959
 H539 H 0.45239 0.44279 0.45893
 H540 H 0.54211 0.44401 0.54414
 H541 H 0.58618 0.43932 0.48966
 H542 H 0.55185 0.40107 0.50183
 H543 H 0.44172 0.57520 0.52541
 H544 H 0.40899 0.53956 0.49190
 H545 H 0.60511 0.49578 0.47201
 H546 H 0.52705 0.48653 0.39462
 H547 H 0.44961 0.50427 0.59641
 H548 H 0.41409 0.47537 0.55868
 H549 H 0.48436 0.51965 0.39414
 H550 H 0.48414 0.57364 0.45496
 H551 H 0.48643 0.40288 0.55461
 H552 H 0.51844 0.43662 0.59121
 O553 O 0.41603 -0.05555 0.50221
 O554 O 0.43833 -0.06774 0.45380
 O555 O 0.49892 -0.06764 0.56712
 O556 O 0.54423 -0.04386 0.57958
 O557 O 0.43354 0.01765 0.57532
 O558 O 0.42755 0.06444 0.54739
 O559 O 0.58204 0.00593 0.47915
 O560 O 0.58130 -0.04418 0.50120
 O561 O 0.50699 0.01357 0.41405
 O562 O 0.45171 0.00462 0.41170
 O563 O 0.51927 0.08533 0.48282
 O564 O 0.50829 0.09376 0.53715
 O565 O 0.56816 0.05248 0.50547
 O566 O 0.54104 0.06546 0.55873
 O567 O 0.48756 0.06791 0.44141
 O568 O 0.43306 0.04130 0.43704
 O569 O 0.54976 -0.01607 0.43213
 O570 O 0.54732 -0.06748 0.46008
 O571 O 0.40047 -0.00673 0.52298
 O572 O 0.40488 0.04848 0.50680
 O573 O 0.47526 -0.01234 0.59518
 O574 O 0.53376 0.00265 0.59248
 O575 O 0.46697 -0.08757 0.52708
 O576 O 0.48493 -0.09154 0.47040
 Zr577 Zr 0.46517 -0.05005 0.49370
 O578 O 0.49402 -0.02661 0.46098
 Zr579 Zr 0.50579 -0.01983 0.55596
 O580 O 0.53778 0.00270 0.52584
 Zr581 Zr 0.44270 0.02012 0.52656
 O582 O 0.47197 0.04611 0.49668
 Zr583 Zr 0.54017 -0.02108 0.48106
 O584 O 0.51209 -0.04674 0.51313
 Zr585 Zr 0.47699 0.02042 0.45332
 O586 O 0.44546 -0.00452 0.48235
 Zr587 Zr 0.51901 0.04841 0.51575
 O588 O 0.48814 0.02693 0.54825
 O589 O 0.45964 -0.02573 0.53730
 O590 O 0.52369 0.02537 0.47127
 C591 C 0.39473 -0.03516 0.51221
 C592 C 0.48302 -0.09024 0.55350
 C593 C 0.44890 0.00392 0.59816
 C594 C 0.58842 0.03388 0.49088
 C595 C 0.53376 -0.00161 0.41002
 C596 C 0.50453 0.08925 0.45598
 H597 H 0.49485 -0.03946 0.44081
 H598 H 0.46200 0.06760 0.49382
 H599 H 0.44542 -0.03730 0.55162
 H600 H 0.55920 0.00342 0.53643
 H601 H 0.57352 -0.06279 0.51286
 H602 H 0.56097 -0.04773 0.56340
 H603 H 0.43024 0.06226 0.44833
 H604 H 0.39794 0.03767 0.48659
 H605 H 0.56826 -0.06795 0.44914
 H606 H 0.47151 -0.11019 0.47498
 H607 H 0.48558 0.09906 0.53187
 H608 H 0.44648 0.07315 0.55902
 H609 H 0.42738 -0.04896 0.44406
 H610 H 0.45581 -0.01873 0.40920
 H611 H 0.52210 0.02261 0.59903
 H612 H 0.56005 0.05152 0.56321
 O613 O -0.06226 0.45055 0.99404
 O614 O -0.02837 0.42697 0.95629
 O615 O -0.00318 0.47155 1.07571
 O616 O 0.04219 0.49775 1.08682
 O617 O -0.06858 0.54020 1.03892
 O618 O -0.06474 0.57935 0.99748
 O619 O 0.10252 0.51952 0.98857
 O620 O 0.09741 0.48028 1.02631
 O621 O 0.04888 0.49761 0.90898
 O622 O -0.00300 0.48093 0.89681
 O623 O 0.03748 0.58838 0.95026
 O624 O 0.01298 0.61196 0.99447
 O625 O 0.08115 0.57015 0.99335
 O626 O 0.04062 0.59670 1.03144
 O627 O 0.01885 0.55443 0.91111
 O628 O -0.03113 0.52045 0.90372
 O629 O 0.08499 0.48035 0.94660
 O630 O 0.07635 0.44107 0.98886
 O631 O -0.08375 0.50115 0.99099
 O632 O -0.07771 0.54874 0.95976
 O633 O -0.03060 0.52748 1.07660
 O634 O 0.02559 0.54771 1.08280
 O635 O -0.01645 0.43464 1.03689
 O636 O 0.01352 0.41438 0.98939
 Zr637 Zr -0.01236 0.45868 0.99325
 O638 O 0.02382 0.47317 0.96253
 Zr639 Zr 0.00950 0.51170 1.05015
 O640 O 0.04760 0.52699 1.02235
 Zr641 Zr -0.04486 0.53228 0.99524
 O642 O -0.00942 0.54986 0.96554
 Zr643 Zr 0.06244 0.49034 0.99031
 O644 O 0.02748 0.47333 1.02140
 Zr645 Zr 0.00818 0.51251 0.93556
 O646 O -0.02973 0.49546 0.96323
 Zr647 Zr 0.03081 0.56412 0.99308
 O648 O -0.00692 0.55099 1.02334
 O649 O -0.02949 0.49476 1.02370
 O650 O 0.04806 0.52858 0.96158
 C651 C -0.08617 0.47053 0.99173
 C652 C -0.01218 0.44366 1.06627
 C653 C -0.05918 0.53628 1.06805
 C654 C 0.10493 0.55010 0.99071
 C655 C 0.07616 0.48506 0.91751
 C656 C 0.02995 0.58138 0.92105
 H657 H 0.03063 0.45479 0.94869
 H658 H -0.01921 0.56776 0.95342
 H659 H -0.04658 0.48649 1.03717
 H660 H 0.06556 0.53379 1.03654
 H661 H 0.08719 0.46601 1.04154
 H662 H 0.06404 0.49966 1.07836
 H663 H -0.03802 0.54321 0.90630
 H664 H -0.07835 0.53194 0.94265
 H665 H 0.09955 0.43947 0.98395
 H666 H -0.00026 0.39702 0.99679
 H667 H -0.00936 0.61149 0.98608
 H668 H -0.05235 0.59123 1.01418
 H669 H -0.03887 0.44036 0.93971
 H670 H -0.00104 0.45887 0.90485
 H671 H 0.01251 0.56732 1.07863
 H672 H 0.05787 0.58707 1.04493
 O673 O -0.00260 0.41151 0.54241
 O674 O -0.02514 0.39952 0.49289
 O675 O 0.08302 0.46360 0.50643
 O676 O 0.09354 0.51094 0.48871
 O677 O 0.02678 0.50089 0.59199
 O678 O -0.02469 0.52885 0.59398
 O679 O 0.00108 0.54363 0.42289
 O680 O 0.04364 0.50717 0.41957
 O681 O -0.07992 0.48614 0.44499
 O682 O -0.08959 0.44845 0.48382
 O683 O -0.06130 0.57195 0.49307
 O684 O -0.02611 0.58593 0.54171
 O685 O -0.01199 0.57920 0.46301
 O686 O 0.01328 0.59261 0.51512
 O687 O -0.09364 0.52891 0.48758
 O688 O -0.10011 0.48088 0.52298
 O689 O -0.03701 0.49711 0.41436
 O690 O 0.01036 0.46127 0.41285
 O691 O -0.01550 0.44848 0.58129
 O692 O -0.05155 0.48907 0.59007
 O693 O 0.06982 0.50448 0.55972
 O694 O 0.07668 0.54552 0.51898
 O695 O 0.05179 0.41968 0.50777
 O696 O 0.01598 0.41252 0.45919
 Zr697 Zr 0.00505 0.43930 0.50172
 O698 O -0.02455 0.46411 0.46869
 Zr699 Zr 0.05077 0.50259 0.51331
 O700 O 0.02344 0.52983 0.48080
 Zr701 Zr -0.01213 0.49311 0.55945
 O702 O -0.04289 0.51964 0.52862
 Zr703 Zr 0.00204 0.49940 0.44645
 O704 O 0.03250 0.47234 0.47702
 Zr705 Zr -0.06151 0.48946 0.49220
 O706 O -0.03385 0.46233 0.52515
 Zr707 Zr -0.01546 0.55245 0.50429
 O708 O 0.01453 0.52847 0.53782
 O709 O 0.02579 0.46821 0.53752
 O710 O -0.03602 0.52376 0.46851
 C711 C -0.01268 0.41950 0.57047
 C712 C 0.07909 0.43315 0.50555
 C713 C 0.05669 0.50596 0.58713
 C714 C -0.00517 0.57212 0.43389
 C715 C -0.06657 0.49049 0.41803
 C716 C -0.08862 0.55915 0.48720
 H717 H -0.03340 0.44850 0.45284
 H718 H -0.06020 0.53046 0.54091
 H719 H 0.03914 0.45557 0.55274
 H720 H 0.03770 0.54522 0.47083
 H721 H 0.05954 0.49023 0.42551
 H722 H 0.08719 0.51458 0.46617
 H723 H -0.10391 0.50041 0.53638
 H724 H -0.06867 0.47865 0.57711
 H725 H 0.00866 0.47011 0.39105
 H726 H 0.02776 0.39242 0.46467
 H727 H -0.04743 0.58098 0.55013
 H728 H -0.01231 0.54804 0.58904
 H729 H -0.01267 0.37936 0.49668
 H730 H -0.07774 0.43044 0.49396
 H731 H 0.06626 0.55842 0.53623
 H732 H 0.03259 0.59065 0.50173
 O733 O 0.41958 0.99696 -0.02683
 O734 O 0.41083 0.96530 0.01648
 O735 O 0.46148 1.08210 0.01475
 O736 O 0.50326 1.08746 0.05664
 O737 O 0.50424 1.04275 -0.06439
 O738 O 0.53850 0.99698 -0.07553
 O739 O 0.55090 0.99524 0.09876
 O740 O 0.50944 1.02620 0.11343
 O741 O 0.50254 0.91265 0.05676
 O742 O 0.46848 0.90386 0.01155
 O743 O 0.58655 0.94848 0.01519
 O744 O 0.59517 0.99537 -0.01998
 O745 O 0.58833 0.99451 0.05981
 O746 O 0.59879 1.02650 0.01618
 O747 O 0.54707 0.91179 0.01252
 O748 O 0.49836 0.90610 -0.02377
 O749 O 0.50149 0.95009 0.09713
 O750 O 0.46877 1.00179 0.10672
 O751 O 0.45795 0.99609 -0.06517
 O752 O 0.50324 0.96347 -0.07781
 O753 O 0.50865 1.07961 -0.02355
 O754 O 0.54094 1.08749 0.02365
 O755 O 0.42180 1.04550 0.01430
 O756 O 0.41602 1.00386 0.05586
 Zr757 Zr 0.44659 1.00058 0.01582
 O758 O 0.47416 0.96850 0.04380
 Zr759 Zr 0.50392 1.05382 0.01798
 O760 O 0.53377 1.02444 0.04617
 Zr761 Zr 0.50242 0.99866 -0.04058
 O762 O 0.53214 0.96676 -0.01472
 Zr763 Zr 0.50622 0.99416 0.07365
 O764 O 0.47582 1.02680 0.04810
 Zr765 Zr 0.50411 0.93925 0.01496
 O766 O 0.47388 0.96875 -0.01351
 Zr767 Zr 0.56147 0.99295 0.01717
 O768 O 0.53431 1.02526 -0.01135
 O769 O 0.47354 1.02894 -0.01322
 O770 O 0.53565 0.96302 0.04649
 C771 C 0.42879 0.99444 -0.05588
 C772 C 0.43180 1.07443 0.01296
 C773 C 0.50770 1.07147 -0.05320
 C774 C 0.57998 0.99724 0.08903
 C775 C 0.49942 0.92107 0.08624
 C776 C 0.57670 0.91959 0.01225
 H777 H 0.45901 0.95589 0.05605
 H778 H 0.54467 0.95333 -0.02999
 H779 H 0.46030 1.04247 -0.02770
 H780 H 0.54709 1.03883 0.05974
 H781 H 0.51427 1.04740 0.10479
 H782 H 0.48496 1.08210 0.07017
 H783 H 0.51697 0.90792 -0.03794
 H784 H 0.48994 0.94569 -0.07074
 H785 H 0.45297 0.98472 0.10284
 H786 H 0.39437 1.01125 0.04852
 H787 H 0.59137 0.97730 -0.03523
 H788 H 0.55582 1.01104 -0.06741
 H789 H 0.41859 0.94707 0.00293
 H790 H 0.45143 0.90998 0.02683
 H791 H 0.55800 1.08076 0.00858
 H792 H 0.59286 1.04462 0.03074
 O793 O 0.43086 0.54993 0.01648
 O794 O 0.41216 0.50472 -0.00867
 O795 O 0.48552 0.50868 0.09766
 O796 O 0.52805 0.47654 0.10456
 O797 O 0.52320 0.58620 0.04399
 O798 O 0.55017 0.58791 -0.00457
 O799 O 0.54870 0.41173 0.00403
 O800 O 0.51582 0.41102 0.05000
 O801 O 0.49906 0.44849 -0.07112
 O802 O 0.45748 0.48911 -0.07525
 O803 O 0.58245 0.48238 -0.04968
 O804 O 0.60450 0.52455 -0.01182
 O805 O 0.58900 0.44680 -0.00317
 O806 O 0.60887 0.49566 0.02652
 O807 O 0.53772 0.48839 -0.08126
 O808 O 0.49083 0.52835 -0.08324
 O809 O 0.50395 0.41284 -0.03088
 O810 O 0.46742 0.41379 0.01688
 O811 O 0.47078 0.58421 0.00548
 O812 O 0.51031 0.58664 -0.03500
 O813 O 0.53264 0.55151 0.08437
 O814 O 0.56684 0.50196 0.08920
 O815 O 0.43900 0.50805 0.06812
 O816 O 0.42488 0.46496 0.02706
 Zr817 Zr 0.45483 0.50476 0.02003
 O818 O 0.47444 0.47075 -0.01304
 Zr819 Zr 0.52231 0.50573 0.06418
 O820 O 0.54369 0.47011 0.03438
 Zr821 Zr 0.51294 0.55593 0.00456
 O822 O 0.53543 0.52367 -0.02783
 Zr823 Zr 0.50855 0.44201 0.01104
 O824 O 0.48745 0.47451 0.04474
 Zr825 Zr 0.50049 0.49355 -0.04806
 O826 O 0.47751 0.52769 -0.01784
 Zr827 Zr 0.56698 0.49274 -0.00276
 O828 O 0.54811 0.52842 0.02889
 O829 O 0.48847 0.53518 0.04154
 O830 O 0.53331 0.46364 -0.02489
 C831 C 0.44114 0.57756 0.00874
 C832 C 0.45480 0.50828 0.09495
 C833 C 0.53178 0.57985 0.07279
 C834 C 0.57794 0.41834 -0.00169
 C835 C 0.50230 0.41992 -0.06068
 C836 C 0.56776 0.48191 -0.07701
 H837 H 0.45737 0.45757 -0.02312
 H838 H 0.54652 0.53565 -0.04431
 H839 H 0.47822 0.55126 0.05613
 H840 H 0.55857 0.45657 0.04725
 H841 H 0.49990 0.41768 0.06631
 H842 H 0.52813 0.45414 0.09635
 H843 H 0.51070 0.54047 -0.08603
 H844 H 0.49180 0.57977 -0.04846
 H845 H 0.47391 0.39110 0.01266
 H846 H 0.40653 0.47160 0.04065
 H847 H 0.59792 0.53751 -0.03043
 H848 H 0.57014 0.57807 0.00434
 H849 H 0.39345 0.50987 0.00508
 H850 H 0.44066 0.50071 -0.06285
 H851 H 0.58135 0.51743 0.07963
 H852 H 0.60737 0.47940 0.04324
 O853 O -0.09217 0.05504 0.49441
 O854 O -0.10676 0.01034 0.46414
 O855 O -0.05043 0.00483 0.57941
 O856 O -0.00715 -0.02118 0.59293
 O857 O -0.00153 0.08859 0.53531
 O858 O 0.02990 0.09170 0.49002
 O859 O 0.02509 -0.08469 0.49326
 O860 O -0.01339 -0.08607 0.53439
 O861 O -0.01884 -0.04517 0.41362
 O862 O -0.05418 -0.00130 0.40492
 O863 O 0.06666 -0.01497 0.44700
 O864 O 0.08330 0.02812 0.48769
 O865 O 0.06645 -0.04985 0.49346
 O866 O 0.08271 -0.00152 0.52562
 O867 O 0.02624 -0.00883 0.41019
 O868 O -0.01712 0.03473 0.40253
 O869 O -0.01706 -0.08177 0.45315
 O870 O -0.05770 -0.08177 0.49646
 O871 O -0.05090 0.08913 0.48849
 O872 O -0.00556 0.09266 0.45574
 O873 O -0.00002 0.05236 0.57514
 O874 O 0.03258 0.00210 0.58213
 O875 O -0.09166 0.01366 0.54400
 O876 O -0.10092 -0.02927 0.50242
 Zr877 Zr -0.06916 0.00974 0.49923
 O878 O -0.04588 -0.02397 0.46853
 Zr879 Zr -0.00854 0.00764 0.55205
 O880 O 0.01653 -0.02716 0.52433
 Zr881 Zr -0.00887 0.06024 0.49359
 O882 O 0.01733 0.02824 0.46342
 Zr883 Zr -0.01562 -0.05406 0.49584
 O884 O -0.04088 -0.02212 0.52688
 Zr885 Zr -0.01508 -0.00089 0.43786
 O886 O -0.04127 0.03316 0.46562
 Zr887 Zr 0.04486 -0.00394 0.49123
 O888 O 0.02213 0.03094 0.52122
 O889 O -0.03837 0.03894 0.52644
 O890 O 0.01398 -0.03215 0.46396
 C891 C -0.08098 0.08268 0.48824
 C892 C -0.08046 0.00796 0.57220
 C893 C 0.00337 0.08076 0.56456
 C894 C 0.05510 -0.07825 0.49262
 C895 C -0.01774 -0.07401 0.42359
 C896 C 0.05551 -0.01570 0.41811
 H897 H -0.06201 -0.03643 0.45612
 H898 H 0.03084 0.04025 0.44890
 H899 H -0.05011 0.05474 0.54019
 H900 H 0.02938 -0.04121 0.53864
 H901 H -0.03056 -0.07907 0.54925
 H902 H -0.00776 -0.04366 0.58489
 H903 H 0.00403 0.04504 0.40222
 H904 H -0.02017 0.08489 0.43845
 H905 H -0.05118 -0.10452 0.49263
 H906 H -0.12143 -0.02172 0.51196
 H907 H 0.08096 0.03913 0.46705
 H908 H 0.04877 0.08066 0.49984
 H909 H -0.12741 0.01589 0.47463
 H910 H -0.07176 0.01123 0.41522
 H911 H 0.04831 0.01800 0.57550
 H912 H 0.07887 -0.01787 0.54180
 O913 O 0.75637 0.31628 0.15272
 O914 O 0.70120 0.31653 0.17191
 O915 O 0.81388 0.34325 0.22998
 O916 O 0.81706 0.33019 0.28357
 O917 O 0.83852 0.25363 0.18242
 O918 O 0.81359 0.20311 0.17337
 O919 O 0.73629 0.25926 0.32187
 O920 O 0.74880 0.31282 0.31828
 O921 O 0.67228 0.24045 0.24446
 O922 O 0.67591 0.24846 0.18433
 O923 O 0.75164 0.17809 0.26072
 O924 O 0.81208 0.18344 0.24872
 O925 O 0.76829 0.21584 0.30979
 O926 O 0.81875 0.20699 0.29019
 O927 O 0.70796 0.18889 0.22905
 O928 O 0.69950 0.20589 0.17823
 O929 O 0.68562 0.27293 0.28691
 O930 O 0.70476 0.32719 0.28314
 O931 O 0.79041 0.27357 0.14352
 O932 O 0.77564 0.21766 0.14523
 O933 O 0.85029 0.29138 0.22087
 O934 O 0.84724 0.28470 0.27715
 O935 O 0.76907 0.35255 0.19923
 O936 O 0.71301 0.34971 0.21565
 Zr937 Zr 0.74305 0.31052 0.20095
 O938 O 0.71397 0.28476 0.23147
 Zr939 Zr 0.80764 0.29595 0.24661
 O940 O 0.78133 0.26833 0.27800
 Zr941 Zr 0.78897 0.24650 0.18539
 O942 O 0.76110 0.21774 0.21398
 Zr943 Zr 0.73338 0.28459 0.27836
 O944 O 0.76039 0.31445 0.24883
 Zr945 Zr 0.71396 0.23660 0.21651
 O946 O 0.74087 0.26279 0.18392
 Zr947 Zr 0.77868 0.22041 0.26129
 O948 O 0.80878 0.24696 0.23209
 O949 O 0.79055 0.29412 0.20000
 O950 O 0.73094 0.23637 0.26385
 C951 C 0.77668 0.30017 0.13542
 C952 C 0.79638 0.36064 0.21100
 C953 C 0.85791 0.27223 0.19768
 C954 C 0.75186 0.23329 0.32943
 C955 C 0.66556 0.25620 0.27041
 C956 C 0.72554 0.17002 0.24600
 H957 H 0.69218 0.29467 0.23106
 H958 H 0.76179 0.19565 0.20489
 H959 H 0.80492 0.30639 0.18656
 H960 H 0.79131 0.26982 0.29961
 H961 H 0.75674 0.33304 0.30971
 H962 H 0.80977 0.32126 0.30384
 H963 H 0.71938 0.19758 0.16812
 H964 H 0.75481 0.22638 0.13712
 H965 H 0.69403 0.32711 0.30414
 H966 H 0.71336 0.36632 0.19906
 H967 H 0.80153 0.16901 0.23282
 H968 H 0.82714 0.19749 0.19218
 H969 H 0.70050 0.29807 0.15661
 H970 H 0.66453 0.26772 0.19304
 H971 H 0.85415 0.26244 0.27160
 H972 H 0.82665 0.22675 0.30091
 O973 O 0.84619 0.74430 0.78208
 O974 O 0.84985 0.71321 0.73517
 O975 O 0.78846 0.82706 0.74855
 O976 O 0.73959 0.83740 0.73180
 O977 O 0.76336 0.77734 0.83920
 O978 O 0.73970 0.72878 0.84880
 O979 O 0.69681 0.73951 0.67761
 O980 O 0.73133 0.78090 0.66674
 O981 O 0.75852 0.65997 0.70035
 O982 O 0.80078 0.65138 0.73565
 O983 O 0.68027 0.68635 0.76154
 O984 O 0.67180 0.73016 0.80194
 O985 O 0.66719 0.72902 0.72125
 O986 O 0.66073 0.76421 0.77012
 O987 O 0.72135 0.65289 0.74636
 O988 O 0.77393 0.64648 0.77868
 O989 O 0.74102 0.69984 0.66773
 O990 O 0.77687 0.74563 0.65843
 O991 O 0.81551 0.73522 0.82531
 O992 O 0.77668 0.69814 0.83899
 O993 O 0.75106 0.81799 0.80558
 O994 O 0.70790 0.82492 0.76559
 O995 O 0.83118 0.79319 0.74004
 O996 O 0.83292 0.75164 0.69827
 Zr997 Zr 0.81205 0.74720 0.74403
 O998 O 0.78279 0.71598 0.71651
 Zr999 Zr 0.75024 0.79661 0.75936
 O1000 O 0.71868 0.76783 0.73162
 Zr1001 Zr 0.76773 0.73699 0.80826
 O1002 O 0.73655 0.70568 0.78323
 Zr1003 Zr 0.74397 0.74189 0.69627
 O1004 O 0.77477 0.77374 0.72142
 Zr1005 Zr 0.76144 0.68264 0.74562
 O1006 O 0.79347 0.71143 0.77282
 Zr1007 Zr 0.69980 0.73233 0.76033
 O1008 O 0.72873 0.76328 0.78879
 O1009 O 0.78853 0.77214 0.78114
 O1010 O 0.72336 0.70730 0.72383
 C1011 C 0.84271 0.73700 0.81156
 C1012 C 0.81763 0.82115 0.74002
 C1013 C 0.75429 0.80632 0.83367
 C1014 C 0.67025 0.73316 0.69110
 C1015 C 0.74880 0.67050 0.67319
 C1016 C 0.69203 0.65858 0.75399
 H1017 H 0.79592 0.70501 0.69988
 H1018 H 0.72789 0.69024 0.79824
 H1019 H 0.80283 0.78652 0.79377
 H1020 H 0.70168 0.78149 0.72177
 H1021 H 0.74876 0.79658 0.66934
 H1022 H 0.73298 0.82926 0.71033
 H1023 H 0.75586 0.64438 0.79346
 H1024 H 0.78950 0.68201 0.82671
 H1025 H 0.76500 0.74165 0.63798
 H1026 H 0.85469 0.76065 0.70060
 H1027 H 0.68037 0.71217 0.81478
 H1028 H 0.71873 0.73983 0.84508
 H1029 H 0.87074 0.72423 0.73573
 H1030 H 0.82021 0.66254 0.74346
 H1031 H 0.69565 0.81497 0.78268
 H1032 H 0.65886 0.77960 0.75251
 O1033 O 0.30286 0.16119 0.76434
 O1034 O 0.31039 0.17806 0.70973
 O1035 O 0.32272 0.24230 0.82235
 O1036 O 0.30649 0.29516 0.82341
 O1037 O 0.23532 0.19239 0.83448
 O1038 O 0.18423 0.19028 0.80495
 O1039 O 0.24778 0.33121 0.73048
 O1040 O 0.29912 0.32631 0.75018
 O1041 O 0.23636 0.25138 0.66635
 O1042 O 0.24524 0.19118 0.67323
 O1043 O 0.16514 0.27175 0.73436
 O1044 O 0.16375 0.26286 0.79532
 O1045 O 0.20087 0.32127 0.75523
 O1046 O 0.18564 0.30475 0.80316
 O1047 O 0.18148 0.23810 0.69401
 O1048 O 0.20098 0.18636 0.69001
 O1049 O 0.26679 0.29352 0.68267
 O1050 O 0.31876 0.28879 0.71080
 O1051 O 0.25520 0.15381 0.78888
 O1052 O 0.20102 0.15840 0.76947
 O1053 O 0.26978 0.23133 0.85093
 O1054 O 0.25777 0.28901 0.84534
 O1055 O 0.33722 0.20817 0.78152
 O1056 O 0.34089 0.22155 0.72474
 Zr1057 Zr 0.29863 0.20918 0.74879
 O1058 O 0.27606 0.23891 0.71476
 Zr1059 Zr 0.27567 0.25762 0.80898
 O1060 O 0.25121 0.28841 0.77713
 Zr1061 Zr 0.22969 0.19725 0.78479
 O1062 O 0.20419 0.22505 0.75150
 Zr1063 Zr 0.27302 0.28658 0.73222
 O1064 O 0.29962 0.25761 0.76502
 Zr1065 Zr 0.22843 0.22512 0.70785
 O1066 O 0.25164 0.19324 0.73991
 Zr1067 Zr 0.20415 0.27297 0.76758
 O1068 O 0.22709 0.24455 0.80308
 O1069 O 0.27676 0.21045 0.79294
 O1070 O 0.22554 0.27325 0.72280
 C1071 C 0.28344 0.14449 0.78054
 C1072 C 0.34219 0.22199 0.80883
 C1073 C 0.25252 0.20686 0.85592
 C1074 C 0.22031 0.34004 0.74193
 C1075 C 0.25240 0.27662 0.66095
 C1076 C 0.16030 0.25590 0.70796
 H1077 H 0.28843 0.23736 0.69479
 H1078 H 0.18235 0.21641 0.74915
 H1079 H 0.28806 0.19669 0.80862
 H1080 H 0.25119 0.31034 0.78659
 H1081 H 0.31759 0.31742 0.76260
 H1082 H 0.29834 0.31502 0.81334
 H1083 H 0.18805 0.17906 0.70794
 H1084 H 0.21034 0.14983 0.74932
 H1085 H 0.31963 0.30901 0.69884
 H1086 H 0.35772 0.20486 0.72885
 H1087 H 0.15166 0.24574 0.78399
 H1088 H 0.18013 0.20868 0.81981
 H1089 H 0.29194 0.16380 0.70596
 H1090 H 0.26539 0.19917 0.66449
 H1091 H 0.23635 0.28125 0.85096
 H1092 H 0.20420 0.31196 0.81633
 O1093 O 0.27252 0.66223 0.25045
 O1094 O 0.21678 0.66358 0.26677
 O1095 O 0.26436 0.71254 0.15997
 O1096 O 0.25698 0.76114 0.14241
 O1097 O 0.33606 0.73986 0.23797
 O1098 O 0.32888 0.77214 0.28622
 O1099 O 0.17143 0.80998 0.21514
 O1100 O 0.17767 0.77421 0.17055
 O1101 O 0.16641 0.75798 0.29599
 O1102 O 0.20173 0.70946 0.31742
 O1103 O 0.23535 0.83040 0.29523
 O1104 O 0.28593 0.83736 0.26739
 O1105 O 0.20831 0.83971 0.24283
 O1106 O 0.26607 0.84523 0.22323
 O1107 O 0.21074 0.79129 0.32208
 O1108 O 0.23012 0.74216 0.34106
 O1109 O 0.14944 0.76723 0.24492
 O1110 O 0.15799 0.72906 0.19955
 O1111 O 0.31030 0.69438 0.27351
 O1112 O 0.31158 0.73532 0.31275
 O1113 O 0.31820 0.74906 0.18721
 O1114 O 0.28373 0.79392 0.16682
 O1115 O 0.24998 0.67190 0.19182
 O1116 O 0.19754 0.67098 0.21308
 Zr1117 Zr 0.23708 0.69555 0.23426
 O1118 O 0.20026 0.72664 0.25114
 Zr1119 Zr 0.26786 0.75346 0.19122
 O1120 O 0.23269 0.78713 0.20724
 Zr1121 Zr 0.29424 0.74133 0.26538
 O1122 O 0.26007 0.77354 0.28498
 Zr1123 Zr 0.19096 0.76312 0.21822
 O1124 O 0.22486 0.73000 0.19944
 Zr1125 Zr 0.21666 0.75019 0.29283
 O1126 O 0.25268 0.71708 0.27756
 Zr1127 Zr 0.24769 0.80831 0.25112
 O1128 O 0.28478 0.77788 0.23274
 O1129 O 0.27986 0.71771 0.22335
 O1130 O 0.20508 0.78598 0.26080
 C1131 C 0.29865 0.66682 0.26670
 C1132 C 0.25656 0.68320 0.16457
 C1133 C 0.34067 0.74467 0.20822
 C1134 C 0.18109 0.83628 0.22835
 C1135 C 0.14461 0.76479 0.27483
 C1136 C 0.22061 0.82000 0.31952
 H1137 H 0.18073 0.71427 0.25485
 H1138 H 0.26927 0.78300 0.30492
 H1139 H 0.29609 0.70225 0.21473
 H1140 H 0.22802 0.80324 0.19073
 H1141 H 0.18505 0.75585 0.15693
 H1142 H 0.23439 0.76892 0.14138
 H1143 H 0.25158 0.75144 0.34459
 H1144 H 0.29501 0.72338 0.32390
 H1145 H 0.13758 0.74064 0.19434
 H1146 H 0.20337 0.64794 0.21005
 H1147 H 0.29407 0.82849 0.28780
 H1148 H 0.33192 0.78954 0.27095
 H1149 H 0.22183 0.64116 0.25987
 H1150 H 0.18116 0.70249 0.30761
 H1151 H 0.29704 0.80640 0.18229
 H1152 H 0.25116 0.84880 0.20490
 O1153 O 0.25523 0.72232 0.83090
 O1154 O 0.28955 0.76475 0.83588
 O1155 O 0.16885 0.76833 0.78887
 O1156 O 0.15385 0.79047 0.74362
 O1157 O 0.20656 0.67542 0.75312
 O1158 O 0.24698 0.66161 0.71673
 O1159 O 0.25182 0.83673 0.69582
 O1160 O 0.21472 0.84955 0.73540
 O1161 O 0.33386 0.79769 0.73503
 O1162 O 0.34445 0.76169 0.77673
 O1163 O 0.29125 0.75187 0.66034
 O1164 O 0.24666 0.71570 0.65247
 O1165 O 0.24912 0.79542 0.65932
 O1166 O 0.20968 0.74882 0.65434
 O1167 O 0.33148 0.75172 0.69788
 O1168 O 0.34133 0.71788 0.74727
 O1169 O 0.29563 0.83753 0.73535
 O1170 O 0.25503 0.84930 0.77727
 O1171 O 0.25940 0.68072 0.79486
 O1172 O 0.28545 0.66416 0.74687
 O1173 O 0.16781 0.71441 0.74902
 O1174 O 0.15955 0.75650 0.70750
 O1175 O 0.20807 0.76988 0.82749
 O1176 O 0.25373 0.80732 0.82724
 Zr1177 Zr 0.25111 0.76267 0.80174
 O1178 O 0.28097 0.78781 0.77129
 Zr1179 Zr 0.19302 0.75754 0.74623
 O1180 O 0.21947 0.78472 0.71440
 Zr1181 Zr 0.24950 0.70067 0.74977
 O1182 O 0.27786 0.72411 0.71656
 Zr1183 Zr 0.25173 0.81423 0.73981
 O1184 O 0.22171 0.79085 0.77155
 Zr1185 Zr 0.30762 0.75622 0.74172
 O1186 O 0.28120 0.73088 0.77504
 Zr1187 Zr 0.24882 0.75351 0.68703
 O1188 O 0.22010 0.72593 0.71702
 O1189 O 0.22051 0.73054 0.77824
 O1190 O 0.27998 0.78429 0.71094
 C1191 C 0.26148 0.69284 0.82338
 C1192 C 0.17862 0.77304 0.81788
 C1193 C 0.17707 0.68491 0.75098
 C1194 C 0.25127 0.82539 0.66705
 C1195 C 0.32480 0.82714 0.73312
 C1196 C 0.32107 0.75172 0.66878
 H1197 H 0.29537 0.80186 0.78413
 H1198 H 0.29047 0.70810 0.70397
 H1199 H 0.20764 0.71888 0.79371
 H1200 H 0.20465 0.79768 0.70092
 H1201 H 0.20069 0.84735 0.75405
 H1202 H 0.16301 0.81145 0.73889
 H1203 H 0.33934 0.70334 0.72832
 H1204 H 0.30443 0.67219 0.75888
 H1205 H 0.25959 0.87012 0.76755
 H1206 H 0.24564 0.80508 0.84922
 H1207 H 0.26090 0.69811 0.66011
 H1208 H 0.23305 0.66884 0.69874
 H1209 H 0.28081 0.76466 0.85782
 H1210 H 0.33532 0.75495 0.79712
 H1211 H 0.16419 0.73669 0.69475
 H1212 H 0.19677 0.76899 0.65534
 O1213 O 0.25599 0.16070 0.21989
 O1214 O 0.29782 0.15840 0.25824
 O1215 O 0.17607 0.20360 0.26176
 O1216 O 0.16068 0.24934 0.28590
 O1217 O 0.21314 0.23715 0.17217
 O1218 O 0.25408 0.27312 0.16010
 O1219 O 0.25805 0.30009 0.33640
 O1220 O 0.22392 0.26219 0.34803
 O1221 O 0.34076 0.25683 0.29938
 O1222 O 0.35498 0.22229 0.25984
 O1223 O 0.29528 0.33425 0.24891
 O1224 O 0.25169 0.34198 0.21775
 O1225 O 0.25092 0.33511 0.29580
 O1226 O 0.21336 0.33693 0.24569
 O1227 O 0.33653 0.29766 0.24843
 O1228 O 0.34674 0.24473 0.21818
 O1229 O 0.30324 0.25613 0.33821
 O1230 O 0.26027 0.21711 0.34503
 O1231 O 0.25828 0.19490 0.17835
 O1232 O 0.29319 0.24052 0.16555
 O1233 O 0.17427 0.24187 0.20962
 O1234 O 0.16539 0.28514 0.25277
 O1235 O 0.21707 0.16714 0.26830
 O1236 O 0.26593 0.16488 0.30163
 Zr1237 Zr 0.25911 0.19224 0.25974
 O1238 O 0.28855 0.22381 0.28594
 Zr1239 Zr 0.19949 0.24679 0.25407
 O1240 O 0.22586 0.27935 0.28274
 Zr1241 Zr 0.25566 0.24164 0.19901
 O1242 O 0.28296 0.27640 0.22377
 Zr1243 Zr 0.25931 0.25555 0.31259
 O1244 O 0.22933 0.22279 0.28778
 Zr1245 Zr 0.31434 0.25329 0.25601
 O1246 O 0.28859 0.21797 0.22931
 Zr1247 Zr 0.25409 0.30655 0.25306
 O1248 O 0.22587 0.27525 0.22362
 O1249 O 0.22741 0.21454 0.22796
 O1250 O 0.28705 0.28492 0.28453
 C1251 C 0.25629 0.16666 0.18990
 C1252 C 0.18724 0.17543 0.26782
 C1253 C 0.18374 0.23798 0.18056
 C1254 C 0.25270 0.32832 0.32575
 C1255 C 0.33238 0.25531 0.32877
 C1256 C 0.32502 0.32637 0.24557
 H1257 H 0.30298 0.21068 0.29966
 H1258 H 0.29436 0.28862 0.20766
 H1259 H 0.21351 0.19903 0.21641
 H1260 H 0.21064 0.29275 0.29543
 H1261 H 0.20817 0.24502 0.34432
 H1262 H 0.17000 0.25454 0.30725
 H1263 H 0.34248 0.26134 0.20204
 H1264 H 0.30860 0.22340 0.17213
 H1265 H 0.26571 0.22575 0.36672
 H1266 H 0.26001 0.14235 0.29670
 H1267 H 0.25821 0.33123 0.19748
 H1268 H 0.23817 0.29028 0.16557
 H1269 H 0.31234 0.16493 0.24119
 H1270 H 0.34701 0.20142 0.26668
 H1271 H 0.16831 0.29624 0.23239
 H1272 H 0.20051 0.33702 0.26536
 O1273 O 0.82171 0.68803 0.26342
 O1274 O 0.84135 0.71985 0.22222
 O1275 O 0.80012 0.74994 0.34083
 O1276 O 0.77072 0.79508 0.35015
 O1277 O 0.72926 0.68358 0.30577
 O1278 O 0.69331 0.68251 0.26045
 O1279 O 0.74260 0.85118 0.25807
 O1280 O 0.78737 0.84794 0.28624
 O1281 O 0.76531 0.79337 0.17145
 O1282 O 0.78496 0.74256 0.16224
 O1283 O 0.67665 0.78346 0.21249
 O1284 O 0.65491 0.76156 0.25577
 O1285 O 0.69315 0.82886 0.25844
 O1286 O 0.67000 0.78670 0.29411
 O1287 O 0.71050 0.76282 0.17477
 O1288 O 0.74707 0.71367 0.16993
 O1289 O 0.77794 0.83290 0.20757
 O1290 O 0.82253 0.82565 0.24873
 O1291 O 0.77231 0.66557 0.26576
 O1292 O 0.72763 0.66880 0.22581
 O1293 O 0.74610 0.72125 0.34219
 O1294 O 0.72253 0.77727 0.34671
 O1295 O 0.83622 0.73554 0.30250
 O1296 O 0.85338 0.76326 0.25399
 Zr1297 Zr 0.81048 0.73738 0.25869
 O1298 O 0.79282 0.77208 0.22669
 Zr1299 Zr 0.75814 0.76059 0.31450
 O1300 O 0.73971 0.79669 0.28520
 Zr1301 Zr 0.73891 0.70382 0.26143
 O1302 O 0.71824 0.73764 0.23039
 Zr1303 Zr 0.77408 0.81155 0.25272
 O1304 O 0.79435 0.77811 0.28521
 Zr1305 Zr 0.75362 0.75451 0.20013
 O1306 O 0.77390 0.71798 0.22915
 Zr1307 Zr 0.70231 0.77871 0.25610
 O1308 O 0.71872 0.74256 0.28789
 O1309 O 0.77631 0.72126 0.28965
 O1310 O 0.73562 0.79556 0.22414
 C1311 C 0.80317 0.66415 0.26716
 C1312 C 0.82809 0.74064 0.33174
 C1313 C 0.73528 0.69348 0.33451
 C1314 C 0.71203 0.85277 0.26180
 C1315 C 0.77457 0.82186 0.17870
 C1316 C 0.68316 0.77386 0.18386
 H1317 H 0.81018 0.77857 0.21254
 H1318 H 0.70053 0.72705 0.21850
 H1319 H 0.78545 0.70561 0.30487
 H1320 H 0.73258 0.81405 0.30007
 H1321 H 0.80184 0.83766 0.30222
 H1322 H 0.77104 0.81601 0.33964
 H1323 H 0.72542 0.70550 0.17392
 H1324 H 0.74660 0.66635 0.21196
 H1325 H 0.82258 0.84783 0.24069
 H1326 H 0.87174 0.74980 0.26173
 H1327 H 0.65616 0.73877 0.24875
 H1328 H 0.67948 0.69599 0.27459
 H1329 H 0.82842 0.70589 0.20775
 H1330 H 0.80701 0.74228 0.17140
 H1331 H 0.70375 0.76334 0.34342
 H1332 H 0.67895 0.80373 0.30829
 O1333 O 0.65417 0.28577 0.72168
 O1334 O 0.65493 0.24637 0.67818
 O1335 O 0.67485 0.24123 0.80537
 O1336 O 0.71166 0.20331 0.82289
 O1337 O 0.73294 0.32039 0.78149
 O1338 O 0.77335 0.32889 0.74232
 O1339 O 0.77719 0.15239 0.74246
 O1340 O 0.73050 0.14572 0.76699
 O1341 O 0.74875 0.19351 0.65166
 O1342 O 0.71745 0.24480 0.63843
 O1343 O 0.82594 0.23567 0.70782
 O1344 O 0.82499 0.27073 0.75875
 O1345 O 0.81563 0.18965 0.75189
 O1346 O 0.82318 0.23287 0.78593
 O1347 O 0.79525 0.23378 0.66231
 O1348 O 0.75852 0.27041 0.64323
 O1349 O 0.74304 0.15469 0.68829
 O1350 O 0.69537 0.15159 0.72182
 O1351 O 0.69315 0.32266 0.73063
 O1352 O 0.74281 0.33075 0.70257
 O1353 O 0.72104 0.28192 0.81686
 O1354 O 0.75345 0.23553 0.83109
 O1355 O 0.64599 0.23957 0.75858
 O1356 O 0.64731 0.20432 0.71180
 Zr1357 Zr 0.67980 0.24175 0.72260
 O1358 O 0.71192 0.21045 0.69872
 Zr1359 Zr 0.72314 0.23891 0.79000
 O1360 O 0.75740 0.20816 0.76838
 Zr1361 Zr 0.73611 0.29544 0.73714
 O1362 O 0.77057 0.26660 0.71309
 Zr1363 Zr 0.73590 0.18054 0.73156
 O1364 O 0.70060 0.20921 0.75539
 Zr1365 Zr 0.74812 0.23690 0.67854
 O1366 O 0.71409 0.26903 0.69964
 Zr1367 Zr 0.79232 0.23447 0.74522
 O1368 O 0.76014 0.26571 0.77036
 O1369 O 0.70069 0.26992 0.75868
 O1370 O 0.77216 0.20524 0.70924
 C1371 C 0.66364 0.31469 0.72624
 C1372 C 0.64825 0.24064 0.78914
 C1373 C 0.72660 0.31097 0.80969
 C1374 C 0.80573 0.16064 0.75116
 C1375 C 0.74567 0.16413 0.65946
 C1376 C 0.82234 0.23515 0.67718
 H1377 H 0.69946 0.19800 0.68255
 H1378 H 0.78632 0.28067 0.70340
 H1379 H 0.68538 0.28393 0.77058
 H1380 H 0.76702 0.19450 0.78517
 H1381 H 0.71052 0.15158 0.77843
 H1382 H 0.72642 0.18476 0.81912
 H1383 H 0.76328 0.29083 0.65462
 H1384 H 0.72904 0.32497 0.68384
 H1385 H 0.70301 0.12912 0.71821
 H1386 H 0.62504 0.21331 0.71217
 H1387 H 0.82718 0.28488 0.74029
 H1388 H 0.78746 0.32141 0.76006
 H1389 H 0.66417 0.26465 0.66710
 H1390 H 0.70161 0.22747 0.63752
 H1391 H 0.77076 0.25111 0.82859
 H1392 H 0.81122 0.22268 0.80306
 N1393 N 0.04918 1.08765 1.13255
 N1394 N 0.06406 1.09275 1.16221
 C1395 C 0.07460 1.06396 1.17287
 C1396 C 0.06728 1.04024 1.14992
 C1397 C 0.05155 1.05616 1.12537
 H1398 H 0.07224 1.01472 1.15084
 H1399 H 0.03797 1.10542 1.11883
 H1400 H 0.06415 1.11494 1.17423
 N1401 N 0.62213 0.52016 0.59777
 N1402 N 0.63427 0.52880 0.62609
 C1403 C 0.61573 0.51717 0.64903
 C1404 C 0.59080 0.50046 0.63466
 C1405 C 0.59561 0.50297 0.60222
 H1406 H 0.57075 0.48971 0.64618
 H1407 H 0.63099 0.52734 0.57591
 H1408 H 0.65463 0.54275 0.62946
 N1409 N 0.41579 0.03155 0.63915
 N1410 N 0.40359 0.02483 0.66700
 C1411 C 0.41406 -0.00471 0.67522
 C1412 C 0.43429 -0.01713 0.65193
 C1413 C 0.43452 0.00660 0.62953
 H1414 H 0.44558 -0.04073 0.65046
 H1415 H 0.41056 0.05244 0.62660
 H1416 H 0.38704 0.03960 0.67913
 N1417 N -0.11551 0.53898 1.08642
 N1418 N -0.13091 0.52931 1.11167
 C1419 C -0.10922 0.52211 1.13481
 C1420 C -0.07873 0.52760 1.12401
 C1421 C -0.08368 0.53777 1.09291
 H1422 H -0.05615 0.52092 1.13554
 H1423 H -0.12654 0.54353 1.06430
 H1424 H -0.15567 0.52595 1.11230
 N1425 N -0.08655 0.45952 0.37145
 N1426 N -0.09581 0.46706 0.34027
 C1427 C -0.10034 0.49919 0.33927
 C1428 C -0.09441 0.51243 0.36960
 C1429 C -0.08572 0.48705 0.38878
 H1430 H -0.09288 0.53759 0.37626
 H1431 H -0.07782 0.43708 0.37854
 H1432 H -0.09830 0.45011 0.32168
 N1433 N 0.40224 0.95700 -0.09277
 N1434 N 0.38734 0.95934 -0.12268
 C1435 C 0.38112 0.99070 -0.12778
 C1436 C 0.39121 1.00878 -0.10126
 C1437 C 0.40488 0.98687 -0.08042
 H1438 H 0.39287 1.03462 -0.09939
 H1439 H 0.41333 0.93620 -0.08402
 H1440 H 0.38316 0.93984 -0.13819
 N1441 N 0.61212 0.45122 -0.10313
 N1442 N 0.62024 0.44203 -0.13237
 C1443 C 0.59996 0.45616 -0.15346
 C1444 C 0.57776 0.47513 -0.13695
 C1445 C 0.58629 0.47116 -0.10500
 H1446 H 0.55760 0.48875 -0.14671
 H1447 H 0.62331 0.44284 -0.08228
 H1448 H 0.63932 0.42623 -0.13769
 N1449 N 0.10359 -0.04551 0.39649
 N1450 N 0.11582 -0.05273 0.36813
 C1451 C 0.09758 -0.03837 0.34543
 C1452 C 0.07248 -0.02160 0.36006
 C1453 C 0.07722 -0.02658 0.39239
 H1454 H 0.05345 -0.00759 0.34875
 H1455 H 0.11294 -0.05386 0.41819
 H1456 H 0.13669 -0.06660 0.36458
 N1457 N 0.12489 1.10239 0.99399
 N1458 N 0.15647 1.11067 1.00053
 C1459 C 0.16591 1.09695 1.02825
 C1460 C 0.14049 1.07973 1.03993
 C1461 C 0.11565 1.08331 1.01737
 H1462 H 0.14054 1.06518 1.06102
 H1463 H 0.11181 1.10864 0.97342
 H1464 H 0.16925 1.12626 0.98661
 N1465 N 0.58844 0.61247 0.53750
 N1466 N 0.61724 0.62359 0.54475
 C1467 C 0.63950 0.60487 0.52993
 C1468 C 0.62428 0.58098 0.51250
 C1469 C 0.59197 0.58637 0.51817
 H1470 H 0.63535 0.56073 0.49995
 H1471 H 0.56708 0.62128 0.54746
 H1472 H 0.62149 0.64299 0.56039
 N1473 N 0.59178 0.36784 -0.03037
 N1474 N 0.62006 0.35468 -0.04291
 C1475 C 0.64487 0.37031 -0.02899
 C1476 C 0.63307 0.39325 -0.00738
 C1477 C 0.59995 0.39171 -0.00977
 H1478 H 0.64651 0.41208 0.00462
 H1479 H 0.56880 0.36340 -0.03964
 H1480 H 0.62095 0.33704 -0.06104
 N1481 N 0.07243 -0.13302 0.47414
 N1482 N 0.10012 -0.14773 0.46768
 C1483 C 0.12419 -0.12939 0.47907
 C1484 C 0.11134 -0.10190 0.49323
 C1485 C 0.07851 -0.10485 0.48924
 H1486 H 0.12418 -0.08096 0.50167
 H1487 H 0.05006 -0.14094 0.46594
 H1488 H 0.10241 -0.16898 0.45411
 N1489 N 0.34201 -0.03359 0.48484
 N1490 N 0.31294 -0.04923 0.48662
 C1491 C 0.31476 -0.06861 0.51208
 C1492 C 0.34505 -0.06584 0.52670
 C1493 C 0.36111 -0.04397 0.50882
 H1494 H 0.35481 -0.07889 0.54686
 H1495 H 0.34794 -0.01767 0.46708
 H1496 H 0.29335 -0.04489 0.47129
 N1497 N -0.14423 0.47570 0.97883
 N1498 N -0.17056 0.45918 0.98192
 C1499 C -0.16278 0.43101 0.99552
 C1500 C -0.12975 0.42946 1.00113
 C1501 C -0.11900 0.45838 0.99008
 H1502 H -0.11571 0.41047 1.01221
 H1503 H -0.14373 0.49867 0.96944
 H1504 H -0.19353 0.46769 0.97564
 N1505 N -0.11120 0.60444 0.45636
 N1506 N -0.14151 0.61621 0.44732
 C1507 C -0.16362 0.59974 0.46306
 C1508 C -0.14778 0.57691 0.48196
 C1509 C -0.11519 0.58053 0.47683
 H1510 H -0.15847 0.55895 0.49641
 H1511 H -0.08961 0.61163 0.44682
 H1512 H -0.14538 0.63541 0.43205
 N1513 N 0.41482 1.12507 -0.01320
 N1514 N 0.38578 1.14023 -0.02173
 C1515 C 0.36194 1.12453 -0.00783
 C1516 C 0.37533 1.09892 0.00920
 C1517 C 0.40818 1.09998 0.00508
 H1518 H 0.36286 1.08046 0.02143
 H1519 H 0.43724 1.13096 -0.02186
 H1520 H 0.38379 1.16064 -0.03567
 N1521 N -0.02721 1.16222 1.06525
 N1522 N -0.01720 1.19208 1.07649
 C1523 C 0.01517 1.19299 1.07395
 C1524 C 0.02612 1.16398 1.06044
 C1525 C -0.00109 1.14573 1.05543
 H1526 H 0.05063 1.15660 1.05546
 H1527 H -0.05088 1.15443 1.06491
 H1528 H -0.03257 1.20878 1.08765
 N1529 N 0.52201 0.57978 0.63401
 N1530 N 0.52928 0.60776 0.64752
 C1531 C 0.51730 0.63135 0.62901
 C1532 C 0.50183 0.61778 0.60259
 C1533 C 0.50555 0.58505 0.60649
 H1534 H 0.49175 0.62999 0.58204
 H1535 H 0.52998 0.55759 0.64253
 H1536 H 0.54305 0.61050 0.66850
 N1537 N 0.01444 0.60246 0.38730
 N1538 N 0.01121 0.63222 0.37712
 C1539 C -0.01005 0.64822 0.39588
 C1540 C -0.02065 0.62811 0.41879
 C1541 C -0.00463 0.59943 0.41268
 H1542 H -0.03718 0.63388 0.43785
 H1543 H 0.03008 0.58504 0.37762
 H1544 H 0.02309 0.64119 0.35757
 N1545 N 0.53832 1.11333 -0.07715
 N1546 N 0.53103 1.14530 -0.08352
 C1547 C 0.49873 1.14883 -0.08487
 C1548 C 0.48512 1.11923 -0.08023
 C1549 C 0.51050 1.09789 -0.07483
 H1550 H 0.46000 1.11461 -0.07655
 H1551 H 0.56099 1.10481 -0.06982
 H1552 H 0.54833 1.16263 -0.08652
 N1553 N 0.52309 0.40008 -0.11248
 N1554 N 0.53195 0.37064 -0.12642
 C1555 C 0.52169 0.34740 -0.10742
 C1556 C 0.50653 0.36159 -0.08093
 C1557 C 0.50827 0.39445 -0.08488
 H1558 H 0.49736 0.34972 -0.06036
 H1559 H 0.52964 0.42232 -0.12093
 H1560 H 0.54348 0.36803 -0.14832
 N1561 N -0.01174 -0.09455 0.36786
 N1562 N -0.00291 -0.12175 0.35350
 C1563 C -0.00032 -0.14472 0.37556
 C1564 C -0.00816 -0.13174 0.40523
 C1565 C -0.01486 -0.09974 0.39932
 H1566 H -0.00648 -0.14327 0.42814
 H1567 H -0.01393 -0.07258 0.35646
 H1568 H 0.00198 -0.12418 0.32913
 N1569 N 0.50887 -0.12828 0.59063
 N1570 N 0.50518 -0.15760 0.60066
 C1571 C 0.47881 -0.16996 0.58639
 C1572 C 0.46500 -0.14730 0.56608
 C1573 C 0.48510 -0.12121 0.56953
 H1574 H 0.44356 -0.14942 0.55124
 H1575 H 0.52759 -0.11346 0.59814
 H1576 H 0.52020 -0.16854 0.61767
 N1577 N -0.03623 0.42802 1.11713
 N1578 N -0.03764 0.40027 1.13491
 C1579 C -0.02019 0.37709 1.11963
 C1580 C -0.00811 0.38934 1.09171
 C1581 C -0.01880 0.42088 1.09109
 H1582 H 0.00631 0.37710 1.07375
 H1583 H -0.04727 0.45003 1.12312
 H1584 H -0.04887 0.39906 1.15695
 N1585 N 0.82143 0.31674 0.10257
 N1586 N 0.82632 0.33732 0.07749
 C1587 C 0.79726 0.34745 0.06654
 C1588 C 0.77338 0.33412 0.08491
 C1589 C 0.78961 0.31527 0.10717
 H1590 H 0.74771 0.33853 0.08325
 H1591 H 0.83970 0.30636 0.11660
 H1592 H 0.84882 0.34211 0.06833
 N1593 N 0.26429 0.87912 0.64784
 N1594 N 0.26846 0.89334 0.62046
 C1595 C 0.26165 0.87252 0.59631
 C1596 C 0.25271 0.84357 0.60888
 C1597 C 0.25494 0.84883 0.64176
 H1598 H 0.24654 0.82167 0.59603
 H1599 H 0.26862 0.88988 0.67028
 H1600 H 0.27577 0.91699 0.61849
 N1601 N 0.76510 0.62073 0.64322
 N1602 N 0.75823 0.60676 0.61530
 C1603 C 0.73492 0.62417 0.60065
 C1604 C 0.72679 0.65051 0.61968
 C1605 C 0.74662 0.64749 0.64636
 H1606 H 0.70939 0.66945 0.61457
 H1607 H 0.78264 0.61244 0.65936
 H1608 H 0.76929 0.58569 0.60657
 N1609 N 0.23454 0.11341 0.17336
 N1610 N 0.22712 0.09848 0.14599
 C1611 C 0.23894 0.11522 0.12188
 C1612 C 0.25433 0.14187 0.13440
 C1613 C 0.25089 0.14003 0.16701
 H1614 H 0.26417 0.16142 0.12140
 H1615 H 0.22666 0.10657 0.19572
 H1616 H 0.21340 0.07786 0.14396
 N1617 N 0.22806 0.17589 0.89792
 N1618 N 0.23633 0.16309 0.92538
 C1619 C 0.26651 0.17175 0.93361
 C1620 C 0.27801 0.19116 0.90992
 C1621 C 0.25257 0.19316 0.88784
 H1622 H 0.30169 0.20108 0.90825
 H1623 H 0.20627 0.17191 0.88585
 H1624 H 0.22176 0.14742 0.93736
 N1625 N 0.71005 0.64750 0.36059
 N1626 N 0.71587 0.62979 0.38593
 C1627 C 0.74211 0.64096 0.40152
 C1628 C 0.75312 0.66726 0.38590
 C1629 C 0.73199 0.67068 0.36020
 H1630 H 0.77399 0.68134 0.39186
 H1631 H 0.69158 0.64353 0.34381
 H1632 H 0.70257 0.60994 0.39191
 N1633 N 0.23211 0.86925 0.35198
 N1634 N 0.22693 0.87993 0.38147
 C1635 C 0.20724 0.85968 0.39574
 C1636 C 0.19945 0.83506 0.37452
 C1637 C 0.21607 0.84183 0.34715
 H1638 H 0.18569 0.81401 0.37917
 H1639 H 0.24768 0.87973 0.33616
 H1640 H 0.23740 0.90029 0.39183
 N1641 N 0.74188 0.36243 0.83660
 N1642 N 0.73948 0.37571 0.86551
 C1643 C 0.72150 0.35687 0.88345
 C1644 C 0.71214 0.33047 0.86541
 C1645 C 0.72581 0.33477 0.83595
 H1646 H 0.69871 0.31021 0.87312
 H1647 H 0.75539 0.37153 0.81822
 H1648 H 0.75035 0.39705 0.87285
 N1649 N 0.79633 0.40419 0.17204
 N1650 N 0.81309 0.42956 0.16553
 C1651 C 0.83650 0.43288 0.18790
 C1652 C 0.83464 0.40821 0.20967
 C1653 C 0.80868 0.39063 0.19865
 H1654 H 0.84978 0.40382 0.23049
 H1655 H 0.77686 0.39622 0.15813
 H1656 H 0.80780 0.44473 0.14653
 N1657 N 0.37782 0.84453 0.71369
 N1658 N 0.39281 0.87191 0.71083
 C1659 C 0.37407 0.89570 0.72313
 C1660 C 0.34594 0.88315 0.73382
 C1661 C 0.34928 0.85076 0.72748
 H1662 H 0.32574 0.89585 0.74454
 H1663 H 0.38681 0.82218 0.70584
 H1664 H 0.41554 0.87407 0.70107
 N1665 N 0.14556 0.87662 0.20183
 N1666 N 0.13011 0.90534 0.21092
 C1667 C 0.13410 0.90953 0.24294
 C1668 C 0.15231 0.88388 0.25467
 C1669 C 0.15929 0.86431 0.22824
 H1670 H 0.16093 0.88054 0.27898
 H1671 H 0.14744 0.86769 0.17837
 H1672 H 0.11707 0.91993 0.19517
 N1673 N 0.60889 0.33337 0.74104
 N1674 N 0.59587 0.35982 0.75367
 C1675 C 0.61721 0.38343 0.75220
 C1676 C 0.64491 0.37173 0.73798
 C1677 C 0.63887 0.33968 0.73160
 H1678 H 0.66736 0.38398 0.73572
 H1679 H 0.59832 0.31091 0.74131
 H1680 H 0.57328 0.36127 0.76412
 N1681 N 0.64526 0.62943 0.77374
 N1682 N 0.63100 0.60193 0.76772
 C1683 C 0.64643 0.58632 0.74375
 C1684 C 0.67191 0.60439 0.73430
 C1685 C 0.67033 0.63147 0.75408
 H1686 H 0.68896 0.59876 0.71566
 H1687 H 0.63804 0.64629 0.79118
 H1688 H 0.61072 0.59432 0.77950
 N1689 N 0.16406 0.13403 0.30125
 N1690 N 0.14568 0.10889 0.29662
 C1691 C 0.13462 0.10857 0.26604
 C1692 C 0.14599 0.13520 0.25092
 C1693 C 0.16450 0.15045 0.27401
 H1694 H 0.14408 0.14097 0.22585
 H1695 H 0.17713 0.13900 0.32229
 H1696 H 0.14194 0.09189 0.31401
 N1697 N 0.28079 0.10168 0.81989
 N1698 N 0.29799 0.07661 0.82916
 C1699 C 0.32302 0.07254 0.80950
 C1700 C 0.32187 0.09619 0.78664
 C1701 C 0.29462 0.11418 0.79423
 H1702 H 0.33852 0.09988 0.76757
 H1703 H 0.26030 0.11042 0.83154
 H1704 H 0.29216 0.06222 0.84823
 N1705 N 0.80497 0.61940 0.30421
 N1706 N 0.82345 0.59434 0.31087
 C1707 C 0.84775 0.59276 0.29005
 C1708 C 0.84488 0.61832 0.26938
 C1709 C 0.81724 0.63438 0.27919
 H1710 H 0.85993 0.62369 0.24945
 H1711 H 0.78432 0.62614 0.31674
 H1712 H 0.81850 0.57784 0.32843
 N1713 N 0.90508 0.24470 0.17439
 N1714 N 0.93425 0.25197 0.16592
 C1715 C 0.93941 0.28308 0.17380
 C1716 C 0.91231 0.29601 0.18839
 C1717 C 0.89121 0.27087 0.18793
 H1718 H 0.90762 0.32061 0.19602
 H1719 H 0.89460 0.22248 0.16994
 H1720 H 0.94920 0.23628 0.15288
 N1721 N 0.33839 0.76337 0.61360
 N1722 N 0.36572 0.76748 0.59880
 C1723 C 0.39027 0.75974 0.61879
 C1724 C 0.37805 0.75044 0.64765
 C1725 C 0.34502 0.75331 0.64346
 H1726 H 0.39134 0.74467 0.66934
 H1727 H 0.31572 0.76900 0.60391
 H1728 H 0.36744 0.77620 0.57569
 N1729 N 0.38497 0.18198 0.81961
 N1730 N 0.40882 0.17711 0.84011
 C1731 C 0.41063 0.20262 0.86039
 C1732 C 0.38661 0.22491 0.85240
 C1733 C 0.37091 0.21065 0.82632
 H1734 H 0.38158 0.24807 0.86362
 H1735 H 0.37837 0.16562 0.80147
 H1736 H 0.42419 0.15699 0.83933
 N1737 N 0.84630 0.72179 0.38525
 N1738 N 0.87405 0.71463 0.39953
 C1739 C 0.89779 0.72282 0.38011
 C1740 C 0.88491 0.73517 0.35231
 C1741 C 0.85230 0.73403 0.35645
 H1742 H 0.89755 0.74264 0.33143
 H1743 H 0.82381 0.71709 0.39451
 H1744 H 0.87655 0.70404 0.42185
 N1745 N 0.08932 0.78551 0.26583
 N1746 N 0.06338 0.79156 0.28267
 C1747 C 0.06889 0.78124 0.31251
 C1748 C 0.09960 0.76822 0.31515
 C1749 C 0.11177 0.77162 0.28492
 H1750 H 0.11172 0.75907 0.33628
 H1751 H 0.09183 0.79187 0.24200
 H1752 H 0.04256 0.80303 0.27398
 N1753 N 0.59149 0.22697 0.79316
 N1754 N 0.56626 0.23597 0.80987
 C1755 C 0.57547 0.25720 0.83282
 C1756 C 0.60835 0.26172 0.83094
 C1757 C 0.61747 0.24178 0.80542
 H1758 H 0.62318 0.27756 0.84545
 H1759 H 0.59072 0.21136 0.77326
 H1760 H 0.54302 0.22792 0.80525
 N1761 N 0.63746 0.74541 0.64240
 N1762 N 0.60843 0.73952 0.63078
 C1763 C 0.59334 0.72047 0.65101
 C1764 C 0.61357 0.71416 0.67695
 C1765 C 0.64129 0.73068 0.67056
 H1766 H 0.60869 0.70002 0.69760
 H1767 H 0.65407 0.75978 0.63144
 H1768 H 0.59922 0.74831 0.60921
 N1769 N 0.16608 0.21742 0.12685
 N1770 N 0.13944 0.21670 0.10919
 C1771 C 0.11581 0.23180 0.12559
 C1772 C 0.12780 0.24211 0.15521
 C1773 C 0.15974 0.23262 0.15494
 H1774 H 0.11522 0.25503 0.17410
 H1775 H 0.18816 0.20756 0.11971
 H1776 H 0.13781 0.20670 0.08609
 N1777 N -0.04797 0.97171 0.85470
 N1778 N -0.06664 0.97537 0.82695
 C1779 C -0.08612 1.00155 0.83099
 C1780 C -0.08027 1.01476 0.86144
 C1781 C -0.05665 0.99521 0.87545
 H1782 H -0.09218 1.03538 0.87251
 H1783 H -0.03106 0.95327 0.85851
 H1784 H -0.06391 0.96082 0.80650
 N1785 N 0.36312 0.49718 0.41476
 N1786 N 0.34680 0.50391 0.38829
 C1787 C 0.36699 0.50221 0.36351
 C1788 C 0.39761 0.49421 0.37465
 C1789 C 0.39415 0.49155 0.40741
 H1790 H 0.41964 0.49334 0.36128
 H1791 H 0.35338 0.49816 0.43762
 H1792 H 0.32255 0.51084 0.38747
 N1793 N 0.53330 0.01629 0.35438
 N1794 N 0.55197 0.01197 0.32740
 C1795 C 0.57619 -0.00894 0.33450
 C1796 C 0.57317 -0.01863 0.36600
 C1797 C 0.54643 -0.00177 0.37757
 H1798 H 0.58909 -0.03449 0.37930
 H1799 H 0.51320 0.03162 0.35595
 H1800 H 0.54647 0.02253 0.30554
 N1801 N 0.12575 0.45680 0.89830
 N1802 N 0.14127 0.45206 0.87125
 C1803 C 0.12507 0.46726 0.84765
 C1804 C 0.09776 0.48218 0.86042
 C1805 C 0.09917 0.47494 0.89260
 H1806 H 0.07957 0.49648 0.84819
 H1807 H 0.13344 0.44778 0.92031
 H1808 H 0.16304 0.43930 0.86939
 N1809 N 0.10732 0.52780 0.60899
 N1810 N 0.11911 0.53878 0.63646
 C1811 C 0.09762 0.53406 0.65933
 C1812 C 0.07080 0.51925 0.64602
 C1813 C 0.07797 0.51594 0.61379
 H1814 H 0.04910 0.51267 0.65787
 H1815 H 0.11899 0.52931 0.58719
 H1816 H 0.14159 0.54917 0.63945
 N1817 N 0.63465 1.01630 0.10345
 N1818 N 0.64972 1.02854 0.12886
 C1819 C 0.63028 1.02703 0.15409
 C1820 C 0.60159 1.01320 0.14428
 C1821 C 0.60535 1.00669 0.11204
 H1822 H 0.58066 1.00912 0.15848
 H1823 H 0.64407 1.01540 0.08045
 H1824 H 0.67307 1.03717 0.12888
 N1825 N 0.44593 0.52914 0.14977
 N1826 N 0.43067 0.52117 0.17565
 C1827 C 0.41221 0.49561 0.16878
 C1828 C 0.41595 0.48710 0.13651
 C1829 C 0.43746 0.50933 0.12539
 H1830 H 0.40579 0.46690 0.12349
 H1831 H 0.46285 0.54723 0.14918
 H1832 H 0.43417 0.53240 0.19798
 N1833 N -0.12378 0.02916 0.60696
 N1834 N -0.13832 0.02025 0.63505
 C1835 C -0.12746 -0.00951 0.64246
 C1836 C -0.10562 -0.02003 0.61936
 C1837 C -0.10357 0.00521 0.59813
 H1838 H -0.09115 -0.04190 0.61940
 H1839 H -0.12654 0.05154 0.59644
 H1840 H -0.15473 0.03471 0.64771
 N1841 N -0.14956 0.95663 0.97645
 N1842 N -0.17590 0.93838 0.98365
 C1843 C -0.16879 0.92190 1.01049
 C1844 C -0.13773 0.92947 1.02081
 C1845 C -0.12656 0.95085 0.99859
 H1846 H -0.12458 0.92019 1.04128
 H1847 H -0.14833 0.97174 0.95696
 H1848 H -0.19765 0.93965 0.97091
 N1849 N 0.40820 0.35963 0.52539
 N1850 N 0.38134 0.34539 0.53287
 C1851 C 0.35622 0.36535 0.52662
 C1852 C 0.36775 0.39359 0.51469
 C1853 C 0.40082 0.38903 0.51434
 H1854 H 0.35406 0.41484 0.50801
 H1855 H 0.43120 0.34961 0.52867
 H1856 H 0.38036 0.32228 0.54182
 N1857 N 0.42635 0.63084 -0.01287
 N1858 N 0.40044 0.64548 -0.02457
 C1859 C 0.37479 0.62768 -0.01869
 C1860 C 0.38473 0.60047 -0.00240
 C1861 C 0.41779 0.60322 0.00048
 H1862 H 0.37031 0.58040 0.00397
 H1863 H 0.44969 0.63885 -0.01570
 H1864 H 0.40052 0.66691 -0.03698
 N1865 N -0.09612 0.13395 0.46147
 N1866 N -0.12447 0.14950 0.45131
 C1867 C -0.14949 0.13333 0.46251
 C1868 C -0.13731 0.10710 0.47963
 C1869 C -0.10409 0.10827 0.47833
 H1870 H -0.15063 0.08828 0.49032
 H1871 H -0.07304 0.14028 0.45501
 H1872 H -0.12523 0.17040 0.43808
 N1873 N 0.64188 0.03479 0.46509
 N1874 N 0.66918 0.05007 0.46907
 C1875 C 0.66669 0.07032 0.49458
 C1876 C 0.63627 0.06808 0.50717
 C1877 C 0.62131 0.04534 0.48767
 H1878 H 0.62647 0.08102 0.52765
 H1879 H 0.63747 0.01758 0.44708
 H1880 H 0.68931 0.04616 0.45485
 N1881 N 0.15756 0.55336 0.96541
 N1882 N 0.18583 0.57005 0.97028
 C1883 C 0.18258 0.58879 0.99695
 C1884 C 0.15201 0.58471 1.00920
 C1885 C 0.13729 0.56267 0.98857
 H1886 H 0.14163 0.59627 1.03015
 H1887 H 0.15325 0.53682 0.94675
 H1888 H 0.20624 0.56613 0.95650
 N1889 N 0.10932 0.38093 0.50676
 N1890 N 0.13758 0.36933 0.49768
 C1891 C 0.15410 0.39300 0.48464
 C1892 C 0.13587 0.42114 0.48600
 C1893 C 0.10761 0.41240 0.50033
 H1894 H 0.14221 0.44453 0.47776
 H1895 H 0.09165 0.36747 0.51724
 H1896 H 0.14537 0.34556 0.50037
 N1897 N 0.59310 0.86431 -0.00541
 N1898 N 0.61975 0.84881 -0.01390
 C1899 C 0.64488 0.86780 -0.00753
 C1900 C 0.63377 0.89679 0.00548
 C1901 C 0.60067 0.89369 0.00616
 H1902 H 0.64757 0.91789 0.01131
 H1903 H 0.57004 0.85543 -0.00911
 H1904 H 0.62053 0.82597 -0.02467
 N1905 N -0.02062 0.86122 0.96022
 N1906 N -0.01293 0.83402 0.94168
 C1907 C 0.01304 0.84043 0.92407
 C1908 C 0.02219 0.87180 0.93107
 C1909 C 0.00028 0.88398 0.95330
 H1910 H 0.04136 0.88473 0.92039
 H1911 H -0.04013 0.86347 0.97552
 H1912 H -0.02497 0.81245 0.94300
 N1913 N 0.52561 0.40420 0.37319
 N1914 N 0.53539 0.37867 0.35640
 C1915 C 0.53120 0.35246 0.37386
 C1916 C 0.51839 0.36185 0.40323
 C1917 C 0.51509 0.39482 0.40176
 H1918 H 0.51218 0.34681 0.42283
 H1919 H 0.52646 0.42769 0.36519
 H1920 H 0.54385 0.37927 0.33306
 N1921 N -0.04880 0.39933 0.61150
 N1922 N -0.05945 0.36961 0.62098
 C1923 C -0.04109 0.34671 0.60654
 C1924 C -0.01881 0.36141 0.58734
 C1925 C -0.02467 0.39417 0.59086
 H1926 H -0.00196 0.34985 0.57113
 H1927 H -0.05991 0.42133 0.61736
 H1928 H -0.07784 0.36657 0.63719
 N1929 N 0.47602 0.90069 0.13647
 N1930 N 0.46600 0.87291 0.14680
 C1931 C 0.47354 0.84965 0.12508
 C1932 C 0.48907 0.86338 0.09994
 C1933 C 0.49025 0.89569 0.10803
 H1934 H 0.49770 0.85160 0.07830
 H1935 H 0.47229 0.92274 0.14833
 H1936 H 0.45471 0.87000 0.16860
 N1937 N 0.56261 0.60471 0.11845
 N1938 N 0.56932 0.63394 0.12921
 C1939 C 0.55262 0.65544 0.11157
 C1940 C 0.53463 0.63917 0.08844
 C1941 C 0.54177 0.60703 0.09352
 H1942 H 0.51926 0.64931 0.06995
 H1943 H 0.57296 0.58367 0.12744
 H1944 H 0.58501 0.63897 0.14836
 N1945 N 0.03556 0.09958 0.61191
 N1946 N 0.04605 0.12888 0.62464
 C1947 C 0.03152 0.15255 0.60785
 C1948 C 0.01218 0.13860 0.58381
 C1949 C 0.01535 0.10568 0.58718
 H1950 H -0.00171 0.15060 0.56534
 H1951 H 0.04376 0.07708 0.61937
 H1952 H 0.06117 0.13118 0.64472
 N1953 N 0.52976 0.14181 0.45092
 N1954 N 0.52369 0.16921 0.43677
 C1955 C 0.49660 0.16653 0.41882
 C1956 C 0.48494 0.13582 0.42152
 C1957 C 0.50690 0.12096 0.44207
 H1958 H 0.46338 0.12597 0.41072
 H1959 H 0.54900 0.13778 0.46682
 H1960 H 0.53758 0.18959 0.44018
 N1961 N 0.06067 0.62080 0.89185
 N1962 N 0.05342 0.64958 0.87683
 C1963 C 0.02104 0.65306 0.87462
 C1964 C 0.00731 0.62589 0.88693
 C1965 C 0.03282 0.60681 0.89788
 H1966 H -0.01786 0.62227 0.89138
 H1967 H 0.08356 0.61347 0.89972
 H1968 H 0.07087 0.66529 0.86959
 N1969 N 0.29334 0.64590 0.84260
 N1970 N 0.30656 0.63625 0.86979
 C1971 C 0.29644 0.65599 0.89364
 C1972 C 0.27578 0.67923 0.88112
 C1973 C 0.27461 0.67206 0.84858
 H1974 H 0.26421 0.69913 0.89376
 H1975 H 0.29820 0.63544 0.82021
 H1976 H 0.32205 0.61634 0.87190
 N1977 N 0.73156 0.23348 0.38557
 N1978 N 0.73756 0.21768 0.41219
 C1979 C 0.76212 0.19653 0.40732
 C1980 C 0.77202 0.19895 0.37598
 C1981 C 0.75183 0.22252 0.36291
 H1982 H 0.79057 0.18487 0.36404
 H1983 H 0.71348 0.25103 0.38293
 H1984 H 0.72486 0.22136 0.43332
 N1985 N 0.22841 0.38069 0.34452
 N1986 N 0.22015 0.39396 0.37237
 C1987 C 0.23268 0.37602 0.39612
 C1988 C 0.24963 0.35027 0.38271
 C1989 C 0.24609 0.35384 0.34995
 H1990 H 0.26034 0.33006 0.39506
 H1991 H 0.22016 0.38874 0.32231
 H1992 H 0.20523 0.41428 0.37491
 N1993 N 0.72595 0.85385 0.85757
 N1994 N 0.71435 0.86285 0.88565
 C1995 C 0.72486 0.84201 0.90780
 C1996 C 0.74429 0.81868 0.89313
 C1997 C 0.74408 0.82693 0.86104
 H1998 H 0.75529 0.79771 0.90390
 H1999 H 0.72011 0.86515 0.83613
 H2000 H 0.69923 0.88284 0.88946
 N2001 N 0.79803 0.87110 0.15634
 N2002 N 0.80276 0.88355 0.12804
 C2003 C 0.79033 0.86405 0.10500
 C2004 C 0.77713 0.83780 0.11965
 C2005 C 0.78257 0.84323 0.15225
 H2006 H 0.76535 0.81756 0.10828
 H2007 H 0.80553 0.88155 0.17809
 H2008 H 0.81376 0.90546 0.12482
 N2009 N 0.23818 0.27183 0.60310
 N2010 N 0.24598 0.28492 0.57597
 C2011 C 0.26813 0.30746 0.58205
 C2012 C 0.27466 0.30885 0.61480
 C2013 C 0.25485 0.28592 0.62726
 H2014 H 0.29077 0.32474 0.62772
 H2015 H 0.22150 0.25366 0.60489
 H2016 H 0.23606 0.27850 0.55366
 N2017 N 0.73157 0.11014 0.63722
 N2018 N 0.72434 0.09735 0.60881
 C2019 C 0.73024 0.11887 0.58623
 C2020 C 0.74192 0.14647 0.60097
 C2021 C 0.74215 0.14009 0.63333
 H2022 H 0.74722 0.16889 0.58989
 H2023 H 0.72775 0.09904 0.65892
 H2024 H 0.71506 0.07448 0.60516
 N2025 N 0.23996 0.63136 0.14012
 N2026 N 0.23201 0.61963 0.11155
 C2027 C 0.23865 0.64141 0.08956
 C2028 C 0.25170 0.66825 0.10485
 C2029 C 0.25183 0.66095 0.13706
 H2030 H 0.25856 0.69042 0.09421
 H2031 H 0.23612 0.61958 0.16145
 H2032 H 0.22236 0.59700 0.10734
 N2033 N 0.12092 0.66656 0.74298
 N2034 N 0.10619 0.63909 0.73817
 C2035 C 0.12758 0.61481 0.74243
 C2036 C 0.15734 0.62738 0.75020
 C2037 C 0.15214 0.66036 0.74994
 H2038 H 0.18004 0.61444 0.75261
 H2039 H 0.11008 0.68909 0.73972
 H2040 H 0.08222 0.63711 0.73074
 N2041 N 0.72944 0.11467 0.26687
 N2042 N 0.71545 0.08693 0.26149
 C2043 C 0.69280 0.09044 0.23825
 C2044 C 0.69223 0.12193 0.22850
 C2045 C 0.71570 0.13652 0.24749
 H2046 H 0.67658 0.13281 0.21067
 H2047 H 0.74795 0.11846 0.28364
 H2048 H 0.72144 0.06597 0.27363
 N2049 N 0.85586 0.14196 0.77933
 N2050 N 0.86887 0.11474 0.78946
 C2051 C 0.84983 0.09039 0.78020
 C2052 C 0.82336 0.10295 0.76345
 C2053 C 0.82821 0.13569 0.76333
 H2054 H 0.80341 0.09013 0.75276
 H2055 H 0.86575 0.16448 0.78363
 H2056 H 0.89094 0.11296 0.80163
 N2057 N 0.33887 0.64281 0.30355
 N2058 N 0.34912 0.61422 0.31235
 C2059 C 0.33383 0.59188 0.29443
 C2060 C 0.31271 0.60695 0.27314
 C2061 C 0.31662 0.63938 0.27998
 H2062 H 0.29657 0.59596 0.25573
 H2063 H 0.34668 0.66430 0.31407
 H2064 H 0.36664 0.61023 0.33010
 N2065 N 0.37542 0.34692 0.22196
 N2066 N 0.38646 0.37483 0.21300
 C2067 C 0.36501 0.39821 0.22097
 C2068 C 0.33916 0.38436 0.23553
 C2069 C 0.34669 0.35188 0.23584
 H2070 H 0.31771 0.39627 0.24458
 H2071 H 0.38721 0.32484 0.21810
 H2072 H 0.40865 0.37776 0.20235
 N2073 N 0.86191 0.84294 0.70794
 N2074 N 0.87068 0.87083 0.69686
 C2075 C 0.85112 0.89409 0.70876
 C2076 C 0.82872 0.88017 0.72826
 C2077 C 0.83640 0.84762 0.72711
 H2078 H 0.80934 0.89204 0.74113
 H2079 H 0.87286 0.82094 0.70177
 H2080 H 0.89012 0.87381 0.68187
 N2081 N 0.71646 0.90235 0.29494
 N2082 N 0.69743 0.92507 0.30698
 C2083 C 0.66720 0.92039 0.29620
 C2084 C 0.66712 0.89330 0.27615
 C2085 C 0.69892 0.88277 0.27584
 H2086 H 0.64725 0.88399 0.26200
 H2087 H 0.74113 0.90046 0.29974
 H2088 H 0.70549 0.94481 0.32046
 N2089 N 0.22422 0.39717 0.72506
 N2090 N 0.21026 0.42511 0.73254
 C2091 C 0.18767 0.42059 0.75468
 C2092 C 0.18706 0.38824 0.76121
 C2093 C 0.21049 0.37421 0.74188
 H2094 H 0.17195 0.37652 0.77795
 H2095 H 0.24296 0.39407 0.70894
 H2096 H 0.21669 0.44694 0.72306
 N2097 N 0.15988 0.79675 0.87037
 N2098 N 0.13213 0.80517 0.88353
 C2099 C 0.10801 0.79770 0.86287
 C2100 C 0.12122 0.78414 0.83533
 C2101 C 0.15404 0.78372 0.84108
 H2102 H 0.10868 0.77519 0.81416
 H2103 H 0.18236 0.79993 0.88135
 H2104 H 0.12983 0.81472 0.90671
 N2105 N 0.60928 0.23752 0.26800
 N2106 N 0.58202 0.24386 0.28272
 C2107 C 0.58696 0.26672 0.30556
 C2108 C 0.61892 0.27527 0.30541
 C2109 C 0.63225 0.25594 0.28134
 H2110 H 0.63088 0.29257 0.32092
 H2111 H 0.61195 0.22082 0.24917
 H2112 H 0.56041 0.23265 0.27702
 N2113 N 0.64354 0.79771 0.14571
 N2114 N 0.61726 0.78823 0.13041
 C2115 C 0.61319 0.75672 0.13567
 C2116 C 0.63836 0.74562 0.15469
 C2117 C 0.65676 0.77239 0.16062
 H2118 H 0.64122 0.72230 0.16531
 H2119 H 0.65146 0.82130 0.14685
 H2120 H 0.60183 0.80352 0.11763
 N2121 N 0.10371 0.27591 0.70412
 N2122 N 0.07721 0.26870 0.68796
 C2123 C 0.08370 0.24448 0.66686
 C2124 C 0.11599 0.23596 0.66979
 C2125 C 0.12780 0.25669 0.69359
 H2126 H 0.12897 0.21724 0.65675
 H2127 H 0.10499 0.29336 0.72241
 H2128 H 0.05493 0.27987 0.69202
 N2129 N 0.85399 0.21965 0.62951
 N2130 N 0.88018 0.22878 0.61532
 C2131 C 0.89361 0.25245 0.63306
 C2132 C 0.87557 0.25823 0.66028
 C2133 C 0.85070 0.23667 0.65705
 H2134 H 0.87963 0.27583 0.67928
 H2135 H 0.83853 0.20219 0.62031
 H2136 H 0.88848 0.21915 0.59362
 N2137 N 0.39853 0.72946 0.21278
 N2138 N 0.42563 0.73619 0.19876
 C2139 C 0.41917 0.75675 0.17497
 C2140 C 0.38632 0.76308 0.17348
 C2141 C 0.37417 0.74511 0.19785
 H2142 H 0.37327 0.77884 0.15740
 H2143 H 0.39688 0.71451 0.23235
 H2144 H 0.44821 0.72734 0.20595
 N2145 N 0.35262 0.23722 0.38204
 N2146 N 0.38041 0.22737 0.39464
 C2147 C 0.40374 0.23273 0.37368
 C2148 C 0.39023 0.24666 0.34670
 C2149 C 0.35779 0.24899 0.35282
 H2150 H 0.40213 0.25250 0.32485
 H2151 H 0.33040 0.23445 0.39270
 H2152 H 0.38315 0.21701 0.41705
 N2153 N 0.86977 0.70890 0.85663
 N2154 N 0.89919 0.70076 0.86614
 C2155 C 0.92025 0.71422 0.84680
 C2156 C 0.90340 0.73174 0.82375
 C2157 C 0.87132 0.72759 0.83083
 H2158 H 0.91310 0.74499 0.80433
 H2159 H 0.84895 0.70091 0.86719
 H2160 H 0.90464 0.68654 0.88583
   
