data_POSCAR
  _audit_creation_date              2014-09-24
  _audit_creation_method            'ToBaCCo'
  _symmetry_space_group_name_H-M    'P1'
  _symmetry_Int_Tables_number       1
  _symmetry_cell_setting            triclinic
  loop_
  _symmetry_equiv_pos_as_xyz
 x,y,z
_cell_length_a 59.4653
_cell_length_b 59.4326
_cell_length_c 59.2245
_cell_angle_alpha 89.890100
_cell_angle_beta 89.923100
_cell_angle_gamma 90.178200
loop_
  _atom_site_label
  _atom_site_type_symbol
  _atom_site_fract_x
  _atom_site_fract_y
  _atom_site_fract_z
C1 C 0.34439 1.37282 0.34440
 C2 C 0.35689 1.38475 0.32806
 C3 C 0.38008 1.38048 0.32479
 C4 C 0.39051 1.36442 0.33887
 C5 C 0.37819 1.35214 0.35480
 C6 C 0.35500 1.35597 0.35733
 C7 C 0.32136 1.37709 0.34767
 C8 C 0.30843 1.36362 0.36250
 C9 C 0.31924 1.34629 0.37467
 C10 C 0.34241 1.34271 0.37257
 C11 C 0.35320 1.32602 0.38545
 C12 C 0.37648 1.32250 0.38328
 C13 C 0.38875 1.33555 0.36777
 H14 H 0.34851 1.39756 0.31815
 H15 H 0.40801 1.36005 0.33649
 H16 H 0.31329 1.39007 0.33772
 H17 H 0.30984 1.33615 0.38665
 H18 H 0.34358 1.31596 0.39733
 H19 H 0.40657 1.33247 0.36545
 C20 C 0.32956 0.86019 0.82936
 C21 C 0.33850 0.86574 0.80820
 C22 C 0.35324 0.85106 0.79714
 C23 C 0.35994 0.83106 0.80778
 C24 C 0.35087 0.82510 0.82892
 C25 C 0.33524 0.83955 0.83953
 C26 C 0.31439 0.87466 0.84004
 C27 C 0.30382 0.86858 0.86052
 C28 C 0.30904 0.84746 0.87016
 C29 C 0.32490 0.83316 0.86000
 C30 C 0.33039 0.81243 0.86987
 C31 C 0.34617 0.79810 0.85963
 C32 C 0.35647 0.80460 0.83925
 H33 H 0.33352 0.88124 0.79993
 H34 H 0.37132 0.81974 0.79914
 H35 H 0.30991 0.89017 0.83154
 H36 H 0.30149 0.84243 0.88606
 H37 H 0.32247 0.80742 0.88560
 H38 H 0.36831 0.79337 0.83113
 C39 C 0.82912 1.36016 0.82881
 C40 C 0.83894 1.36522 0.80778
 C41 C 0.85303 1.34953 0.79681
 C42 C 0.85808 1.32922 0.80807
 C43 C 0.84877 1.32418 0.82915
 C44 C 0.83394 1.33948 0.83944
 C45 C 0.81399 1.37510 0.83907
 C46 C 0.80348 1.36947 0.85963
 C47 C 0.80860 1.34893 0.87017
 C48 C 0.82373 1.33392 0.86024
 C49 C 0.82856 1.31326 0.87060
 C50 C 0.84364 1.29819 0.86050
 C51 C 0.85377 1.30379 0.83987
 H52 H 0.83443 1.38082 0.79947
 H53 H 0.86982 1.31736 0.80078
 H54 H 0.80987 1.39081 0.83074
 H55 H 0.80077 1.34463 0.88616
 H56 H 0.82069 1.30890 0.88655
 H57 H 0.86509 1.29194 0.83187
 C58 C 0.82521 0.85581 0.32619
 C59 C 0.83179 0.86060 0.30405
 C60 C 0.84801 0.84738 0.29294
 C61 C 0.85791 0.82928 0.30470
 C62 C 0.85037 0.82340 0.32648
 C63 C 0.83399 0.83681 0.33728
 C64 C 0.80975 0.86965 0.33730
 C65 C 0.80247 0.86449 0.35925
 C66 C 0.81030 0.84489 0.36988
 C67 C 0.82606 0.83103 0.35901
 C68 C 0.83370 0.81129 0.36932
 C69 C 0.84937 0.79741 0.35838
 C70 C 0.85819 0.80387 0.33730
 H71 H 0.82471 0.87520 0.29569
 H72 H 0.87026 0.81880 0.29634
 H73 H 0.80320 0.88443 0.32882
 H74 H 0.80442 0.84068 0.38670
 H75 H 0.82717 0.80643 0.38573
 H76 H 0.87023 0.79308 0.32887
 C77 C 0.68918 0.65894 0.31882
 C78 C 0.68270 0.64690 0.29959
 C79 C 0.66298 0.65252 0.28763
 C80 C 0.64969 0.67047 0.29563
 C81 C 0.65640 0.68309 0.31444
 C82 C 0.67614 0.67727 0.32618
 C83 C 0.70873 0.65312 0.33061
 C84 C 0.71562 0.66559 0.34951
 C85 C 0.70271 0.68404 0.35661
 C86 C 0.68305 0.68999 0.34505
 C87 C 0.67049 0.70877 0.35170
 C88 C 0.65123 0.71510 0.33958
 C89 C 0.64406 0.70195 0.32124
 H90 H 0.69278 0.63264 0.29446
 H91 H 0.63482 0.67564 0.28645
 H92 H 0.71888 0.63915 0.32480
 H93 H 0.70793 0.69369 0.37122
 H94 H 0.67616 0.71895 0.36576
 H95 H 0.62903 0.70663 0.31205
 C96 C 0.65934 0.12900 0.84666
 C97 C 0.65434 0.12272 0.82448
 C98 C 0.63901 0.13513 0.81153
 C99 C 0.62781 0.15351 0.82130
 C100 C 0.63280 0.16015 0.84355
 C101 C 0.64906 0.14811 0.85608
 C102 C 0.67465 0.11650 0.85946
 C103 C 0.68107 0.12350 0.88125
 C104 C 0.67157 0.14331 0.89013
 C105 C 0.65500 0.15511 0.87802
 C106 C 0.64391 0.17349 0.88770
 C107 C 0.62691 0.18492 0.87583
 C108 C 0.62182 0.17850 0.85355
 H109 H 0.66258 0.10822 0.81711
 H110 H 0.61576 0.16295 0.81139
 H111 H 0.68239 0.10181 0.85192
 H112 H 0.67601 0.14879 0.90700
 H113 H 0.64824 0.17872 0.90468
 H114 H 0.60886 0.18736 0.84429
 C115 C 1.18062 0.64763 0.82824
 C116 C 1.17387 0.63461 0.80973
 C117 C 1.15554 0.64121 0.79632
 C118 C 1.14333 0.66054 0.80216
 C119 C 1.14992 0.67376 0.82060
 C120 C 1.16877 0.66741 0.83356
 C121 C 1.19966 0.64167 0.84083
 C122 C 1.20769 0.65563 0.85835
 C123 C 1.19541 0.67525 0.86363
 C124 C 1.17611 0.68115 0.85146
 C125 C 1.16444 0.70098 0.85650
 C126 C 1.14576 0.70749 0.84358
 C127 C 1.13850 0.69370 0.82575
 H128 H 1.18319 0.61957 0.80541
 H129 H 1.12934 0.66584 0.79173
 H130 H 1.20900 0.62688 0.83579
 H131 H 1.20046 0.68586 0.87759
 H132 H 1.17037 0.71179 0.86998
 H133 H 1.12405 0.69860 0.81576
 C134 C 1.19064 0.16087 0.30886
 C135 C 1.18324 0.14991 0.28903
 C136 C 1.16736 0.16033 0.27468
 C137 C 1.15761 0.18078 0.28151
 C138 C 1.16385 0.19116 0.30161
 C139 C 1.18077 0.18158 0.31507
 C140 C 1.20842 0.15216 0.32198
 C141 C 1.21707 0.16452 0.34049
 C142 C 1.20600 0.18447 0.34697
 C143 C 1.18801 0.19297 0.33458
 C144 C 1.17755 0.21310 0.34111
 C145 C 1.16019 0.22230 0.32801
 C146 C 1.15356 0.21126 0.30819
 H147 H 1.19097 0.13420 0.28401
 H148 H 1.14453 0.18848 0.27137
 H149 H 1.21657 0.13678 0.31666
 H150 H 1.21126 0.19349 0.36197
 H151 H 1.18318 0.22183 0.35613
 H152 H 1.14012 0.21819 0.29797
 C153 C 0.66878 1.35459 0.67176
 C154 C 0.65953 1.36145 0.69243
 C155 C 0.63807 1.35409 0.69893
 C156 C 0.62553 1.34033 0.68440
 C157 C 0.63436 1.33381 0.66346
 C158 C 0.65614 1.34087 0.65709
 C159 C 0.69072 1.36075 0.66589
 C160 C 0.70047 1.35370 0.64534
 C161 C 0.68731 1.34068 0.63037
 C162 C 0.66542 1.33384 0.63632
 C163 C 0.65288 1.31952 0.62221
 C164 C 0.63118 1.31243 0.62856
 C165 C 0.62202 1.31980 0.64911
 H166 H 0.66930 1.37178 0.70389
 H167 H 0.60898 1.33456 0.68956
 H168 H 0.69995 1.37165 0.67725
 H169 H 0.69445 1.33467 0.61467
 H170 H 0.65999 1.31377 0.60638
 H171 H 0.60547 1.31402 0.65427
 C172 C 0.66590 0.85983 1.17238
 C173 C 0.65167 0.87372 1.18492
 C174 C 0.63107 0.86562 1.19364
 C175 C 0.62493 0.84304 1.18925
 C176 C 0.63864 0.82917 1.17582
 C177 C 0.65926 0.83762 1.16745
 C178 C 0.68700 0.86768 1.16521
 C179 C 0.70133 0.85371 1.15276
 C180 C 0.69434 0.83197 1.14695
 C181 C 0.67347 0.82375 1.15443
 C182 C 0.66685 0.80173 1.14954
 C183 C 0.64634 0.79311 1.15765
 C184 C 0.63223 0.80693 1.17071
 H185 H 0.65742 0.89056 1.18893
 H186 H 0.60907 0.83646 1.19549
 H187 H 0.69252 0.88452 1.16959
 H188 H 0.70555 0.82121 1.13739
 H189 H 0.67767 0.79125 1.13925
 H190 H 0.61648 0.80028 1.17713
 C191 C 1.17369 1.35423 1.17403
 C192 C 1.16695 1.36142 1.19555
 C193 C 1.15299 1.34779 1.20905
 C194 C 1.14596 1.32668 1.20097
 C195 C 1.15250 1.31928 1.17953
 C196 C 1.16620 1.33321 1.16589
 C197 C 1.18775 1.36772 1.16052
 C198 C 1.19352 1.36104 1.13840
 C199 C 1.18556 1.34014 1.13041
 C200 C 1.17251 1.32605 1.14414
 C201 C 1.16601 1.30468 1.13658
 C202 C 1.15289 1.29056 1.15031
 C203 C 1.14574 1.29808 1.17156
 H204 H 1.17261 1.37758 1.20186
 H205 H 1.13508 1.31617 1.21126
 H206 H 1.19333 1.38388 1.16690
 H207 H 1.19052 1.33415 1.11386
 H208 H 1.17126 1.29889 1.12004
 H209 H 1.13552 1.28713 1.18209
 C210 C 1.15819 0.86813 0.66470
 C211 C 1.14357 0.87996 0.67882
 C212 C 1.12270 0.87078 0.68504
 C213 C 1.11665 0.84920 0.67743
 C214 C 1.13105 0.83722 0.66293
 C215 C 1.15172 0.84698 0.65620
 C216 C 1.17941 0.87694 0.65940
 C217 C 1.19409 0.86545 0.64474
 C218 C 1.18683 0.84507 0.63502
 C219 C 1.16617 0.83541 0.64136
 C220 C 1.16024 0.81387 0.63394
 C221 C 1.14033 0.80346 0.64150
 C222 C 1.12549 0.81546 0.65552
 H223 H 1.14855 0.89630 0.68529
 H224 H 1.10071 0.84192 0.68259
 H225 H 1.18429 0.89309 0.66637
 H226 H 1.19800 0.83576 0.62401
 H227 H 1.17149 0.80487 0.62274
 H228 H 1.11009 0.80754 0.66134
 C229 C 0.34716 0.62432 0.65642
 C230 C 0.35830 0.61667 0.67584
 C231 C 0.37758 0.62784 0.68379
 C232 C 0.38534 0.64718 0.67244
 C233 C 0.37429 0.65515 0.65312
 C234 C 0.35514 0.64365 0.64503
 C235 C 0.32864 0.61251 0.64776
 C236 C 0.31794 0.61973 0.62788
 C237 C 0.32560 0.63929 0.61692
 C238 C 0.34429 0.65116 0.62523
 C239 C 0.35278 0.66994 0.61360
 C240 C 0.37208 0.68127 0.62136
 C241 C 0.38253 0.67397 0.64134
 H242 H 0.35245 0.60157 0.68433
 H243 H 0.40014 0.65593 0.67858
 H244 H 0.32268 0.59749 0.65633
 H245 H 0.31756 0.64475 0.60144
 H246 H 0.34450 0.67561 0.59833
 H247 H 0.39758 0.68245 0.64725
 C248 C 0.31658 0.15239 1.17718
 C249 C 0.32302 0.14654 1.19909
 C250 C 0.34400 0.15332 1.20800
 C251 C 0.35874 0.16584 1.19399
 C252 C 0.35227 0.17229 1.17207
 C253 C 0.33109 0.16551 1.16368
 C254 C 0.29565 0.14551 1.16867
 C255 C 0.28880 0.15223 1.14708
 C256 C 0.30310 0.16554 1.13374
 C257 C 0.32429 0.17204 1.14183
 C258 C 0.33861 0.18520 1.12849
 C259 C 0.35967 0.19216 1.13665
 C260 C 0.36641 0.18573 1.15850
 H261 H 0.31179 0.13595 1.20889
 H262 H 0.37478 0.17163 1.20043
 H263 H 0.28440 0.13541 1.17899
 H264 H 0.29770 0.17074 1.11705
 H265 H 0.33315 0.19049 1.11185
 H266 H 0.38264 0.19113 1.16484
 C267 C 0.83909 0.63111 1.16363
 C268 C 0.85123 0.62067 1.18108
 C269 C 0.87346 0.62733 1.18587
 C270 C 0.88340 0.64474 1.17315
 C271 C 0.87159 0.65526 1.15568
 C272 C 0.84936 0.64844 1.15086
 C273 C 0.81682 0.62467 1.15880
 C274 C 0.80469 0.63569 1.14170
 C275 C 0.81514 0.65269 1.12894
 C276 C 0.83740 0.65902 1.13327
 C277 C 0.84786 0.67584 1.12032
 C278 C 0.87002 0.68257 1.12498
 C279 C 0.88171 0.67244 1.14287
 H280 H 0.84350 0.60721 1.19075
 H281 H 0.90035 0.65028 1.17702
 H282 H 0.80871 0.61155 1.16864
 H283 H 0.80584 0.66098 1.11557
 H284 H 0.83872 0.68386 1.10669
 H285 H 0.89885 0.67760 1.14642
 C286 C 0.83790 0.13180 0.66135
 C287 C 0.84926 0.11933 0.67800
 C288 C 0.87236 0.12298 0.68233
 C289 C 0.88384 0.13940 0.66936
 C290 C 0.87258 0.15235 0.65319
 C291 C 0.84949 0.14878 0.64937
 C292 C 0.81511 0.12761 0.65652
 C293 C 0.80337 0.14109 0.64084
 C294 C 0.81507 0.15863 0.62976
 C295 C 0.83802 0.16222 0.63353
 C296 C 0.84973 0.17889 0.62142
 C297 C 0.87286 0.18227 0.62485
 C298 C 0.88411 0.16902 0.64094
 H299 H 0.84016 0.10632 0.68707
 H300 H 0.90135 0.14320 0.67263
 H301 H 0.80633 0.11443 0.66568
 H302 H 0.80670 0.16878 0.61710
 H303 H 0.84093 0.18890 0.60894
 H304 H 0.90185 0.17183 0.64408
 C305 C 1.36517 0.34111 0.66293
 C306 C 1.36918 0.35009 0.68450
 C307 C 1.35466 0.36637 0.69387
 C308 C 1.33674 0.37435 0.68048
 C309 C 1.33298 0.36596 0.65872
 C310 C 1.34678 0.34877 0.65014
 C311 C 1.37923 0.32444 0.65407
 C312 C 1.37478 0.31453 0.63287
 C313 C 1.35593 0.32200 0.62048
 C314 C 1.34234 0.33949 0.62865
 C315 C 1.32484 0.34839 0.61542
 C316 C 1.31210 0.36657 0.62342
 C317 C 1.31590 0.37490 0.64521
 H318 H 1.38294 0.34337 0.69437
 H319 H 1.32609 0.38782 0.68653
 H320 H 1.39308 0.31847 0.66431
 H321 H 1.35252 0.31515 0.60388
 H322 H 1.32178 0.34194 0.59858
 H323 H 1.30578 0.38874 0.65141
 C324 C 1.33846 0.81451 1.18829
 C325 C 1.34729 0.82665 1.20666
 C326 C 1.33644 0.84619 1.21442
 C327 C 1.31769 0.85449 1.20268
 C328 C 1.30872 0.84272 1.18436
 C329 C 1.31878 0.82237 1.17750
 C330 C 1.34815 0.79402 1.18132
 C331 C 1.33749 0.78059 1.16480
 C332 C 1.31794 0.78886 1.15425
 C333 C 1.30874 0.80958 1.16027
 C334 C 1.28917 0.81732 1.14969
 C335 C 1.27920 0.83766 1.15628
 C336 C 1.28918 0.85041 1.17352
 H337 H 1.36175 0.82023 1.21573
 H338 H 1.30957 0.86977 1.20840
 H339 H 1.36299 0.78785 1.18990
 H340 H 1.30999 0.77937 1.14082
 H341 H 1.28156 0.80742 1.13635
 H342 H 1.28129 0.86589 1.17901
 C343 C 0.85032 0.32518 1.17664
 C344 C 0.85652 0.33496 1.19730
 C345 C 0.84104 0.34785 1.20970
 C346 C 0.81932 0.35115 1.20100
 C347 C 0.81293 0.34148 1.18043
 C348 C 0.82841 0.32832 1.16822
 C349 C 0.86563 0.31202 1.16450
 C350 C 0.85931 0.30127 1.14420
 C351 C 0.83725 0.30459 1.13599
 C352 C 0.82194 0.31828 1.14764
 C353 C 0.80024 0.32214 1.13906
 C354 C 0.78486 0.33540 1.15115
 C355 C 0.79128 0.34484 1.17188
 H356 H 0.87325 0.33217 1.20397
 H357 H 0.80740 0.36145 1.21018
 H358 H 0.88211 0.30921 1.17173
 H359 H 0.83211 0.29721 1.12010
 H360 H 0.79521 0.31474 1.12312
 H361 H 0.77947 0.35521 1.18114
 C362 C 0.85321 0.82983 0.66943
 C363 C 0.85900 0.83943 0.69028
 C364 C 0.84991 0.86022 0.69672
 C365 C 0.83601 0.87201 0.68173
 C366 C 0.83042 0.86283 0.66074
 C367 C 0.83858 0.84144 0.65469
 C368 C 0.86103 0.80843 0.66348
 C369 C 0.85382 0.79823 0.64342
 C370 C 0.83919 0.80974 0.62882
 C371 C 0.83168 0.83144 0.63419
 C372 C 0.81704 0.84318 0.61973
 C373 C 0.80957 0.86486 0.62544
 C374 C 0.81625 0.87448 0.64600
 H375 H 0.86968 0.83031 0.70195
 H376 H 0.82923 0.88820 0.68667
 H377 H 0.87199 0.79927 0.67484
 H378 H 0.83357 0.80166 0.61342
 H379 H 0.81165 0.83563 0.60398
 H380 H 0.80998 0.89094 0.65070
 C381 C 0.63210 0.66293 0.66045
 C382 C 0.61841 0.65400 0.67756
 C383 C 0.62264 0.63252 0.68655
 C384 C 0.64081 0.61992 0.67823
 C385 C 0.65450 0.62851 0.66089
 C386 C 0.65021 0.65013 0.65202
 C387 C 0.62804 0.68449 0.65171
 C388 C 0.64189 0.69351 0.63469
 C389 C 0.65976 0.68056 0.62620
 C390 C 0.66399 0.65894 0.63471
 C391 C 0.68172 0.64598 0.62612
 C392 C 0.68593 0.62428 0.63461
 C393 C 0.67233 0.61577 0.65216
 H394 H 0.60458 0.66389 0.68412
 H395 H 0.64399 0.60327 0.68498
 H396 H 0.61436 0.69444 0.65847
 H397 H 0.67029 0.68726 0.61281
 H398 H 0.69197 0.65261 0.61248
 H399 H 0.67568 0.59923 0.65910
 C400 C 0.65141 1.18158 1.17961
 C401 C 0.63621 1.16824 1.19201
 C402 C 0.64246 1.14671 1.19952
 C403 C 0.66409 1.13858 1.19475
 C404 C 0.67960 1.15186 1.18286
 C405 C 0.67329 1.17350 1.17536
 C406 C 0.64501 1.20276 1.17126
 C407 C 0.66025 1.21634 1.15886
 C408 C 0.68231 1.20815 1.15544
 C409 C 0.68881 1.18695 1.16344
 C410 C 0.71052 1.17878 1.15920
 C411 C 0.71687 1.15720 1.16647
 C412 C 0.70129 1.14379 1.17826
 H413 H 0.61942 1.17438 1.19552
 H414 H 0.66894 1.12200 1.20064
 H415 H 0.62826 1.20878 1.17505
 H416 H 0.69428 1.21755 1.14536
 H417 H 0.72237 1.18902 1.14974
 H418 H 0.70613 1.12716 1.18398
 C419 C 0.15914 0.69251 1.18486
 C420 C 0.14681 0.68500 1.20357
 C421 C 0.15356 0.66586 1.21596
 C422 C 0.17260 0.65378 1.20858
 C423 C 0.18560 0.66162 1.19041
 C424 C 0.17893 0.68119 1.17864
 C425 C 0.15225 0.71157 1.17267
 C426 C 0.16529 0.72008 1.15460
 C427 C 0.18546 0.70886 1.14908
 C428 C 0.19227 0.68965 1.16090
 C429 C 0.21247 0.67896 1.15542
 C430 C 0.21933 0.65974 1.16724
 C431 C 0.20569 0.65080 1.18439
 H432 H 0.13163 0.69393 1.20820
 H433 H 0.17840 0.63925 1.21796
 H434 H 0.13723 0.72029 1.17810
 H435 H 0.19561 0.71434 1.13489
 H436 H 0.22306 0.68567 1.14206
 H437 H 0.21118 0.63599 1.19355
 C438 C 0.14277 1.17503 0.67531
 C439 C 0.12871 1.16177 0.68902
 C440 C 0.13467 1.13949 0.69474
 C441 C 0.15540 1.13093 0.68687
 C442 C 0.17016 1.14438 0.67419
 C443 C 0.16372 1.16642 0.66823
 C444 C 0.13623 1.19673 0.66845
 C445 C 0.15056 1.20996 0.65489
 C446 C 0.17162 1.20144 0.64854
 C447 C 0.17831 1.17991 0.65519
 C448 C 0.19947 1.17176 0.64903
 C449 C 0.20640 1.15019 0.65564
 C450 C 0.19146 1.13632 0.66777
 H451 H 0.11265 1.16851 0.69438
 H452 H 0.16075 1.11418 0.69166
 H453 H 0.12006 1.20334 0.67363
 H454 H 0.18269 1.21142 0.63792
 H455 H 0.21069 1.18231 0.63914
 H456 H 0.19671 1.11960 0.67281
 C457 C 1.37798 0.65127 0.35211
 C458 C 1.38972 0.63737 0.33715
 C459 C 1.37863 0.62042 0.32468
 C460 C 1.35525 0.61749 0.32799
 C461 C 1.34338 0.63096 0.34344
 C462 C 1.35476 0.64817 0.35525
 C463 C 1.38922 0.66852 0.36364
 C464 C 1.37767 0.68316 0.37841
 C465 C 1.35431 0.67979 0.38140
 C466 C 1.34293 0.66234 0.37013
 C467 C 1.31988 0.65874 0.37369
 C468 C 1.30850 0.64119 0.36257
 C469 C 1.32032 0.62746 0.34735
 H470 H 1.40741 0.64077 0.33439
 H471 H 1.34632 0.60423 0.31922
 H472 H 1.40689 0.67110 0.36002
 H473 H 1.34495 0.69012 0.39314
 H474 H 1.31087 0.66929 0.38553
 H475 H 1.31152 0.61414 0.33849
 C476 C 1.36877 1.15965 0.84425
 C477 C 1.38094 1.14898 0.82710
 C478 C 1.37159 1.13086 0.81503
 C479 C 1.34929 1.12416 0.81953
 C480 C 1.33676 1.13478 0.83657
 C481 C 1.34679 1.15223 0.84931
 C482 C 1.37842 1.17732 0.85671
 C483 C 1.36698 1.18664 0.87533
 C484 C 1.34514 1.17883 0.88038
 C485 C 1.33482 1.16228 0.86713
 C486 C 1.31256 1.15586 0.87132
 C487 C 1.30207 1.13932 0.85810
 C488 C 1.31439 1.12835 0.84112
 H489 H 1.39789 1.15463 0.82330
 H490 H 1.34191 1.11033 0.81018
 H491 H 1.39538 1.18281 0.85276
 H492 H 1.33566 1.18637 0.89404
 H493 H 1.30318 1.16395 0.88474
 H494 H 1.30636 1.11539 0.83109
 C495 C 0.86094 0.66331 0.83551
 C496 C 0.86864 0.65515 0.81475
 C497 C 0.85544 0.64024 0.80204
 C498 C 0.83465 0.63280 0.81052
 C499 C 0.82650 0.64111 0.83117
 C500 C 0.83964 0.65661 0.84361
 C501 C 0.87387 0.67870 0.84786
 C502 C 0.86569 0.68789 0.86809
 C503 C 0.84429 0.68149 0.87594
 C504 C 0.83124 0.66591 0.86383
 C505 C 0.80967 0.65996 0.87128
 C506 C 0.79640 0.64478 0.85889
 C507 C 0.80504 0.63506 0.83910
 H508 H 0.88471 0.66081 0.80813
 H509 H 0.82442 0.62144 0.80053
 H510 H 0.89011 0.68403 0.84139
 H511 H 0.83784 0.68861 0.89149
 H512 H 0.80302 0.66735 0.88662
 H513 H 0.79467 0.62357 0.82942
 C514 C 0.82892 1.19673 0.29849
 C515 C 0.83868 1.18493 0.28038
 C516 C 0.82741 1.16649 0.27034
 C517 C 0.80676 1.15931 0.27981
 C518 C 0.79728 1.17032 0.29836
 C519 C 0.80812 1.18936 0.30746
 C520 C 0.83922 1.21618 0.30739
 C521 C 0.82869 1.22842 0.32474
 C522 C 0.80832 1.22055 0.33386
 C523 C 0.79803 1.20113 0.32544
 C524 C 0.77766 1.19343 0.33464
 C525 C 0.76711 1.17406 0.32611
 C526 C 0.77698 1.16264 0.30787
 H527 H 0.85437 1.19103 0.27329
 H528 H 0.79828 1.14454 0.27325
 H529 H 0.85494 1.22225 0.30034
 H530 H 0.80039 1.22973 0.34752
 H531 H 0.77020 1.20231 0.34875
 H532 H 0.76871 1.14791 0.30096
 C533 C 0.65822 0.30928 0.31550
 C534 C 0.64326 0.32089 0.30151
 C535 C 0.64874 0.34232 0.29273
 C536 C 0.66997 0.35163 0.29796
 C537 C 0.68474 0.34049 0.31268
 C538 C 0.67880 0.31929 0.32163
 C539 C 0.65283 0.28778 0.32356
 C540 C 0.66743 0.27645 0.33821
 C541 C 0.68746 0.28681 0.34520
 C542 C 0.69335 0.30816 0.33683
 C543 C 0.71348 0.31862 0.34339
 C544 C 0.71944 0.33974 0.33451
 C545 C 0.70514 0.35046 0.31901
 H546 H 0.62759 0.31278 0.29688
 H547 H 0.67454 0.36819 0.29176
 H548 H 0.63713 0.27986 0.31865
 H549 H 0.69854 0.27807 0.35679
 H550 H 0.72462 0.31030 0.35521
 H551 H 0.70967 0.36688 0.31238
 C552 C 0.62501 0.84038 0.84451
 C553 C 0.61369 0.85106 0.82662
 C554 C 0.62422 0.86851 0.81450
 C555 C 0.64642 0.87465 0.81966
 C556 C 0.65805 0.86392 0.83712
 C557 C 0.64724 0.84701 0.84988
 C558 C 0.61437 0.82364 0.85753
 C559 C 0.62548 0.81397 0.87610
 C560 C 0.64758 0.82062 0.88123
 C561 C 0.65859 0.83694 0.86820
 C562 C 0.68073 0.84346 0.87328
 C563 C 0.69173 0.85987 0.86017
 C564 C 0.68021 0.87013 0.84223
 H565 H 0.59651 0.84642 0.82262
 H566 H 0.65452 0.88802 0.81014
 H567 H 0.59727 0.81859 0.85369
 H568 H 0.65620 0.81296 0.89541
 H569 H 0.68955 0.83554 0.88718
 H570 H 0.68845 0.88318 0.83240
 C571 C 0.13399 0.33193 0.83660
 C572 C 0.12605 0.33824 0.81526
 C573 C 0.13955 0.35099 0.80062
 C574 C 0.16078 0.35835 0.80777
 C575 C 0.16909 0.35181 0.82898
 C576 C 0.15584 0.33815 0.84331
 C577 C 0.12063 0.31882 0.85091
 C578 C 0.12906 0.31050 0.87153
 C579 C 0.15134 0.31604 0.87776
 C580 C 0.16455 0.33037 0.86408
 C581 C 0.18639 0.33688 0.87061
 C582 C 0.19957 0.35075 0.85647
 C583 C 0.19069 0.35815 0.83576
 H584 H 0.10954 0.33275 0.80971
 H585 H 0.17120 0.36821 0.79640
 H586 H 0.10402 0.31392 0.84517
 H587 H 0.15812 0.30997 0.89361
 H588 H 0.19327 0.33092 0.88646
 H589 H 0.20065 0.36897 0.82486
 C590 C 0.14203 0.82735 0.32680
 C591 C 0.12817 0.84015 0.31239
 C592 C 0.13396 0.86254 0.30663
 C593 C 0.15423 0.87159 0.31508
 C594 C 0.16867 0.85870 0.32839
 C595 C 0.16256 0.83658 0.33443
 C596 C 0.13584 0.80545 0.33362
 C597 C 0.15041 0.79227 0.34708
 C598 C 0.17112 0.80172 0.35393
 C599 C 0.17713 0.82367 0.34796
 C600 C 0.19767 0.83284 0.35524
 C601 C 0.20399 0.85462 0.34868
 C602 C 0.18941 0.86752 0.33538
 H603 H 0.11252 0.83296 0.30639
 H604 H 0.15958 0.88836 0.31021
 H605 H 0.12009 0.79844 0.32768
 H606 H 0.18229 0.79243 0.36495
 H607 H 0.20905 0.82288 0.36544
 H608 H 0.19434 0.88440 0.33041
 O609 O 0.96823 0.92234 0.88608
 O610 O 0.96640 0.89662 0.85935
 C611 C 0.95910 0.91455 0.86835
 C612 C 0.93935 0.92610 0.85860
 C613 C 0.92747 0.91652 0.84046
 H614 H 0.93315 0.90086 0.83311
 O615 O 1.01403 1.08545 0.88713
 O616 O 1.01314 1.11267 0.86179
 C617 C 1.02096 1.09402 0.86870
 C618 C 1.03835 1.08201 0.85548
 C619 C 1.04358 1.08814 0.83305
 H620 H 1.03470 1.10186 0.82499
 O621 O 0.88172 0.98102 0.92349
 O622 O 0.85403 0.98214 0.89876
 C623 C 0.86319 0.97338 0.91604
 C624 C 0.85274 0.95329 0.92665
 C625 C 0.83484 0.94244 0.91576
 H626 H 0.82782 0.94959 0.90047
 O627 O 1.10462 1.02490 0.91199
 O628 O 1.12939 1.02582 0.88424
 C629 C 1.12236 1.03302 0.90315
 C630 C 1.13427 1.05166 0.91463
 C631 C 1.15289 1.06226 0.90443
 H632 H 1.15937 1.05617 0.88847
 O633 O 0.91461 0.88793 0.97783
 O634 O 0.88871 0.86127 0.97836
 C635 C 0.90666 0.86960 0.97017
 C636 C 0.91852 0.85810 0.95150
 C637 C 0.91354 0.83566 0.94579
 H638 H 0.90088 0.82640 0.95518
 O639 O 1.07571 1.11184 0.97708
 O640 O 1.10178 1.13831 0.97707
 C641 C 1.08305 1.13073 0.97011
 C642 C 1.06986 1.14367 0.95334
 C643 C 1.07535 1.16614 0.94816
 H644 H 1.08893 1.17443 0.95707
 O645 O 0.91037 1.02608 0.89175
 O646 O 0.88285 1.02698 0.86684
 C647 C 0.90180 1.03399 0.87376
 C648 C 0.91422 1.05143 0.86091
 C649 C 0.90951 1.05578 0.83801
 H650 H 0.89646 1.04633 0.82945
 O651 O 1.07190 0.98195 0.88189
 O652 O 1.09678 0.98236 0.85424
 C653 C 1.07867 0.97485 0.86285
 C654 C 1.06539 0.95755 0.85077
 C655 C 1.07021 0.95215 0.82823
 H656 H 1.08354 0.96097 0.81937
 O657 O 1.01487 0.89210 0.91302
 O658 O 1.01380 0.86700 0.88565
 C659 C 1.02265 0.87459 0.90362
 C660 C 1.04285 0.86351 0.91295
 C661 C 1.05308 0.84603 0.90092
 H662 H 1.04530 0.83974 0.88564
 O663 O 0.97058 1.11359 0.92082
 O664 O 0.96877 1.14056 0.89527
 C665 C 0.96169 1.13156 0.91344
 C666 C 0.94230 1.14142 0.92566
 C667 C 0.92968 1.15890 0.91584
 H668 H 0.93456 1.16578 0.89960
 O669 O 0.88321 1.08082 0.98794
 O670 O 0.85661 1.10647 0.99049
 C671 C 0.86413 1.08838 0.98201
 C672 C 0.85122 1.07622 0.96446
 C673 C 0.82825 1.08058 0.96057
 H674 H 0.81938 1.09255 0.97105
 O675 O 1.10810 0.92136 0.97024
 O676 O 1.13498 0.89594 0.96838
 C677 C 1.12651 0.91442 0.96189
 C678 C 1.13770 0.92763 0.94388
 C679 C 1.15983 0.92280 0.93707
 H680 H 1.16929 0.90994 0.94586
 O681 O 0.97053 1.08378 0.88950
 O682 O 0.96950 1.11052 0.86360
 C683 C 0.96239 1.09187 0.87144
 C684 C 0.94428 1.07948 0.85976
 C685 C 0.93957 1.08352 0.83696
 H686 H 0.94943 1.09584 0.82771
 O687 O 1.01200 0.92324 0.88282
 O688 O 1.01021 0.89820 0.85543
 C689 C 1.01836 0.91621 0.86361
 C690 C 1.03585 0.92884 0.85107
 C691 C 1.04118 0.92337 0.82862
 H692 H 1.03199 0.91017 0.82001
 O693 O 1.10419 0.98117 0.91152
 O694 O 1.12934 0.98198 0.88412
 C695 C 1.12235 0.97409 0.90281
 C696 C 1.13539 0.95651 0.91464
 C697 C 1.15741 0.95139 0.90792
 H698 H 1.16479 0.96031 0.89375
 O699 O 0.88196 1.02498 0.92550
 O700 O 0.85419 1.02596 0.90088
 C701 C 0.86305 1.03259 0.91922
 C702 C 0.85114 1.04914 0.93347
 C703 C 0.82836 1.05366 0.92980
 H704 H 0.81964 1.04512 0.91623
 O705 O 0.91500 1.11041 0.98454
 O706 O 0.88849 1.13620 0.98639
 C707 C 0.90607 1.12831 0.97711
 C708 C 0.91537 1.13965 0.95687
 C709 C 0.90332 1.15727 0.94698
 H710 H 0.88819 1.16340 0.95509
 O711 O 1.07737 0.89024 0.96895
 O712 O 1.10418 0.86484 0.96622
 C713 C 1.08558 0.87291 0.95954
 C714 C 1.07377 0.86262 0.94009
 C715 C 1.08384 0.84515 0.92766
 H716 H 1.10004 0.83858 0.93274
 O717 O 1.07204 1.02572 0.88334
 O718 O 1.09670 1.02610 0.85547
 C719 C 1.07895 1.03368 0.86467
 C720 C 1.06642 1.05213 0.85367
 C721 C 1.07134 1.05835 0.83142
 H722 H 1.08435 1.04943 0.82229
 O723 O 0.91054 0.98227 0.89115
 O724 O 0.88273 0.98325 0.86654
 C725 C 0.90123 0.97500 0.87329
 C726 C 0.91132 0.95596 0.86090
 C727 C 0.89985 0.94631 0.84265
 H728 H 0.88449 0.95397 0.83659
 O729 O 1.01455 1.11421 0.92008
 O730 O 1.01314 1.14177 0.89515
 C731 C 1.02150 1.13312 0.91292
 C732 C 1.03973 1.14480 0.92532
 C733 C 1.04542 1.16720 0.92035
 H734 H 1.03622 1.17611 0.90735
 O735 O 0.97114 0.89063 0.91600
 O736 O 0.97017 0.86479 0.88932
 C737 C 0.96364 0.87213 0.90836
 C738 C 0.94684 0.85930 0.92160
 C739 C 0.94196 0.83683 0.91635
 H740 H 0.95090 0.82861 0.90272
 O741 O 1.10680 1.08125 0.97349
 O742 O 1.13282 1.10776 0.97320
 C743 C 1.12450 1.08989 0.96499
 C744 C 1.13504 1.07961 0.94484
 C745 C 1.15340 1.09015 0.93423
 H746 H 1.16053 1.10535 0.94137
 O747 O 0.88415 0.91889 0.98030
 O748 O 0.85813 0.89239 0.98059
 C749 C 0.86576 0.91089 0.97290
 C750 C 0.85381 0.92267 0.95436
 C751 C 0.83573 0.91215 0.94316
 H752 H 0.82968 0.89586 0.94878
 Cu753 Cu 0.99163 0.90966 0.90217
 Cu754 Cu 0.98995 0.87908 0.86972
 Cu755 Cu 0.99269 1.09662 0.90694
 Cu756 Cu 0.99110 1.12925 0.87650
 Cu757 Cu 0.89894 1.00376 0.91046
 Cu758 Cu 0.86561 1.00494 0.88083
 Cu759 Cu 1.08571 1.00327 0.89997
 Cu760 Cu 1.11557 1.00399 0.86672
 C761 C 0.93120 0.94590 0.86860
 H762 H 0.93994 0.95307 0.88294
 C763 C 0.90752 0.92638 0.83261
 C764 C 1.04978 1.06388 0.86550
 H765 H 1.04603 1.05916 0.88278
 C766 C 1.05983 1.07604 0.82078
 C767 C 0.86206 0.94335 0.94605
 H768 H 0.87633 0.95130 0.95416
 C769 C 0.82655 0.92177 0.92359
 C770 C 1.12571 1.06028 0.93500
 H771 H 1.11120 1.05239 0.94280
 C772 C 1.16229 1.08169 0.91401
 C773 C 0.93525 0.86969 0.93936
 H774 H 0.93895 0.88707 0.94345
 C775 C 0.92551 0.82483 0.92847
 C776 C 1.05191 1.13328 0.94199
 H777 H 1.04778 1.11591 0.94576
 C778 C 1.06302 1.17813 0.93188
 C779 C 0.93167 1.06330 0.87152
 H780 H 0.93529 1.06012 0.88917
 C781 C 0.92251 1.07148 0.82582
 C782 C 1.04797 0.94602 0.86193
 H783 H 1.04423 0.95005 0.87937
 C784 C 1.05813 0.93517 0.81705
 C785 C 1.05320 0.87159 0.93263
 H786 H 1.04558 0.88539 0.94176
 C787 C 1.07373 0.83708 0.90784
 C788 C 0.93497 1.13188 0.94621
 H789 H 0.94416 1.11800 0.95360
 C790 C 0.90989 1.16654 0.92624
 C791 C 0.86236 1.06030 0.95097
 H792 H 0.88005 1.05694 0.95373
 C793 C 0.81659 1.06891 0.94351
 C794 C 1.12577 0.94469 0.93275
 H795 H 1.10866 0.94837 0.93781
 C796 C 1.16995 0.93480 0.91922
 O797 O 1.02293 0.91369 1.10948
 O798 O 1.02372 0.88685 1.13522
 C799 C 1.03072 0.90568 1.12774
 C800 C 1.04837 0.91843 1.13995
 C801 C 1.05440 0.91290 1.16223
 H802 H 1.04568 0.89941 1.17096
 O803 O 0.97861 1.07901 1.11668
 O804 O 0.97921 1.10546 1.14274
 C805 C 0.97080 1.08752 1.13471
 C806 C 0.95095 1.07698 1.14558
 C807 C 0.93677 1.08974 1.15970
 H808 H 0.94101 1.10705 1.16355
 O809 O 0.89043 1.01915 1.08889
 O810 O 0.86536 1.01772 1.11637
 C811 C 0.87284 1.02675 1.09843
 C812 C 0.86201 1.04732 1.08957
 C813 C 0.84664 1.05927 1.10305
 H814 H 0.84144 1.05265 1.11931
 O815 O 1.11008 0.97478 1.07749
 O816 O 1.13721 0.97368 1.10280
 C817 C 1.12830 0.96634 1.08477
 C818 C 1.13853 0.94696 1.07291
 C819 C 1.15509 0.93402 1.08377
 H820 H 1.16116 0.93886 1.10031
 O821 O 1.07818 0.88780 1.01318
 O822 O 1.10455 0.86194 1.01040
 C823 C 1.08679 0.86937 1.01968
 C824 C 1.07746 0.85742 1.03958
 C825 C 1.09015 0.84034 1.04965
 H826 H 1.10503 0.83417 1.04113
 O827 O 0.91805 1.11186 1.02840
 O828 O 0.89236 1.13850 1.03016
 C829 C 0.91114 1.13045 1.03634
 C830 C 0.92486 1.14227 1.05348
 C831 C 0.91949 1.16422 1.06041
 H832 H 0.90580 1.17309 1.05233
 O833 O 0.92262 0.97342 1.11582
 O834 O 0.89725 0.97214 1.14298
 C835 C 0.91486 0.96441 1.13369
 C836 C 0.92513 0.94362 1.14284
 C837 C 0.91336 0.93110 1.15909
 H838 H 0.89803 0.93780 1.16631
 O839 O 1.08160 1.01859 1.11093
 O840 O 1.10925 1.01791 1.13572
 C841 C 1.09083 1.02612 1.12876
 C842 C 1.08085 1.04555 1.14072
 C843 C 1.09391 1.05786 1.15622
 H844 H 1.11079 1.05241 1.16034
 O845 O 0.97987 0.88288 1.07780
 O846 O 0.98150 0.85485 1.10218
 C847 C 0.97305 0.86378 1.08461
 C848 C 0.95463 0.85239 1.07218
 C849 C 0.94888 0.82981 1.07658
 H850 H 0.95843 0.82016 1.08876
 O851 O 1.02315 1.10843 1.08512
 O852 O 1.02485 1.13423 1.11181
 C853 C 1.03199 1.12610 1.09332
 C854 C 1.05145 1.13665 1.08178
 C855 C 1.06432 1.15318 1.09288
 H856 H 1.05951 1.15885 1.10957
 O857 O 0.88656 0.91714 1.02456
 O858 O 0.86043 0.89076 1.02530
 C859 C 0.86899 0.90866 1.03335
 C860 C 0.85913 0.91921 1.05376
 C861 C 0.84171 0.90836 1.06575
 H862 H 0.83475 0.89265 1.05960
 O863 O 1.10831 1.07821 1.01779
 O864 O 1.13455 1.10452 1.01736
 C865 C 1.12671 1.08615 1.02521
 C866 C 1.13827 1.07515 1.04444
 C867 C 1.15523 1.08698 1.05578
 H868 H 1.16114 1.10293 1.04909
 O869 O 1.02275 1.07718 1.11530
 O870 O 1.02379 1.10308 1.14189
 C871 C 1.03135 1.08505 1.13324
 C872 C 1.05154 1.07424 1.14305
 C873 C 1.06491 1.08627 1.15840
 H874 H 1.05941 1.10257 1.16441
 O875 O 0.97925 0.91199 1.11003
 O876 O 0.97971 0.88412 1.13467
 C877 C 0.97152 0.90260 1.12771
 C878 C 0.95227 0.91294 1.13967
 C879 C 0.93995 0.90051 1.15580
 H880 H 0.94494 0.88352 1.16011
 O881 O 1.11019 1.01896 1.07797
 O882 O 1.13768 1.01816 1.10292
 C883 C 1.12872 1.02663 1.08536
 C884 C 1.13919 1.04644 1.07418
 C885 C 1.15600 1.05889 1.08540
 H886 H 1.16207 1.05339 1.10174
 O887 O 0.89084 0.97502 1.08595
 O888 O 0.86568 0.97393 1.11332
 C889 C 0.87297 0.96683 1.09447
 C890 C 0.86117 0.94786 1.08333
 C891 C 0.84369 0.93687 1.09481
 H892 H 0.83785 0.94338 1.11086
 O893 O 1.07857 1.10942 1.02122
 O894 O 1.10503 1.13552 1.02079
 C895 C 1.08748 1.12701 1.02959
 C896 C 1.07835 1.13702 1.05054
 C897 C 1.09088 1.15350 1.06190
 H898 H 1.10633 1.15984 1.05450
 O899 O 0.91755 0.88674 1.02147
 O900 O 0.89154 0.86018 1.02184
 C901 C 0.91036 0.86785 1.02856
 C902 C 0.92393 0.85468 1.04481
 C903 C 0.91859 0.83212 1.04926
 H904 H 0.90452 0.82434 1.04063
 O905 O 1.08032 0.97461 1.10955
 O906 O 1.10734 0.97406 1.13501
 C907 C 1.08865 0.96669 1.12761
 C908 C 1.07662 0.94845 1.13982
 C909 C 1.08239 0.94275 1.16205
 H910 H 1.09569 0.95197 1.17048
 O911 O 0.92251 1.01799 1.11799
 O912 O 0.89712 1.01637 1.14515
 C913 C 0.91452 1.02532 1.13648
 C914 C 0.92392 1.04597 1.14680
 C915 C 0.91026 1.05877 1.16118
 H916 H 0.89415 1.05209 1.16660
 O917 O 0.97937 1.10965 1.08546
 O918 O 0.98115 1.13612 1.11146
 C919 C 0.97286 1.12844 1.09326
 C920 C 0.95508 1.14116 1.08136
 C921 C 0.94947 1.16305 1.08812
 H922 H 0.95855 1.17079 1.10193
 O923 O 1.02376 0.88446 1.07714
 O924 O 1.02576 0.85744 1.10262
 C925 C 1.03273 0.86650 1.08444
 C926 C 1.05194 0.85661 1.07199
 C927 C 1.06558 0.84017 1.08226
 H928 H 1.06180 0.83447 1.09923
 O929 O 1.10844 0.91883 1.01445
 O930 O 1.13470 0.89277 1.01242
 C931 C 1.12655 0.91019 1.02175
 C932 C 1.13754 0.91953 1.04215
 C933 C 1.15387 0.90678 1.05346
 H934 H 1.15927 0.89081 1.04655
 O935 O 0.88802 1.08044 1.03188
 O936 O 0.86239 1.10708 1.03443
 C937 C 0.87099 1.08889 1.04162
 C938 C 0.86165 1.07803 1.06208
 C939 C 0.84668 1.08987 1.07599
 H940 H 0.84126 1.10663 1.07131
 Cu941 Cu 1.00137 0.90095 1.09110
 Cu942 Cu 1.00284 0.86801 1.12117
 Cu943 Cu 1.00073 1.09088 1.09809
 Cu944 Cu 1.00227 1.12222 1.12977
 Cu945 Cu 0.90320 0.90542 1.00097
 Cu946 Cu 0.87188 0.87367 1.00165
 Cu947 Cu 1.09035 0.90716 0.99176
 Cu948 Cu 1.12222 0.87627 0.98903
 Cu949 Cu 0.90362 1.09320 1.00800
 Cu950 Cu 0.87232 1.12469 1.01055
 Cu951 Cu 1.08970 1.09253 0.99722
 Cu952 Cu 1.12124 1.12407 0.99694
 Cu953 Cu 0.90921 0.99650 1.09946
 Cu954 Cu 0.87893 0.99474 1.13224
 Cu955 Cu 1.09285 0.99677 1.09147
 Cu956 Cu 1.12570 0.99575 1.12151
 C957 C 1.05945 0.93634 1.12902
 H958 H 1.05505 0.94055 1.11178
 C959 C 1.07116 0.92525 1.17355
 C960 C 0.94435 1.05512 1.13925
 H961 H 0.95462 1.04560 1.12757
 C962 C 0.91603 1.08093 1.16696
 C963 C 0.86921 1.05673 1.06898
 H964 H 0.88134 1.04782 1.05870
 C965 C 0.83931 1.08068 1.09650
 C966 C 1.12996 0.93966 1.05199
 H967 H 1.11681 0.94922 1.04378
 C968 C 1.16236 0.91367 1.07441
 C969 C 1.05815 0.86525 1.05070
 H970 H 1.04845 0.87871 1.04317
 C971 C 1.08510 0.83242 1.07140
 C972 C 0.94286 1.13104 1.06385
 H973 H 0.94687 1.11400 1.05883
 C974 C 0.93184 1.17483 1.07764
 C975 C 0.94470 0.93450 1.13331
 H976 H 0.95359 0.94385 1.12035
 C977 C 0.92014 0.90933 1.16509
 C978 C 1.05958 1.05376 1.13442
 H979 H 1.04979 1.04478 1.12192
 C980 C 1.08629 1.07851 1.16456
 C981 C 0.94215 0.86458 1.05612
 H982 H 0.94624 0.88205 1.05282
 C983 C 0.93107 0.81948 1.06486
 C984 C 1.05857 1.12871 1.06056
 H985 H 1.04910 1.11559 1.05214
 C986 C 1.08430 1.16130 1.08321
 C987 C 0.86870 0.93903 1.06268
 H988 H 0.88257 0.94715 1.05398
 C989 C 0.83429 0.91689 1.08653
 C990 C 1.13043 1.05475 1.05367
 H991 H 1.11685 1.04584 1.04537
 C992 C 1.16358 1.07948 1.07656
 O993 O 0.97291 0.42504 0.38355
 O994 O 0.97209 0.40085 0.35536
 C995 C 0.96445 0.41827 0.36506
 C996 C 0.94443 0.42967 0.35565
 C997 C 0.93182 0.41918 0.33854
 H998 H 0.93763 0.40360 0.33109
 O999 O 1.02055 0.58580 0.39393
 O1000 O 1.01988 0.61333 0.36890
 C1001 C 1.02796 0.59482 0.37592
 C1002 C 1.04714 0.58473 0.36362
 C1003 C 1.05762 0.59726 0.34655
 H1004 H 1.05018 0.61297 0.34110
 O1005 O 0.88399 0.48380 0.42191
 O1006 O 0.85732 0.48665 0.39622
 C1007 C 0.86544 0.47717 0.41365
 C1008 C 0.85420 0.45693 0.42302
 C1009 C 0.83800 0.44580 0.40998
 H1010 H 0.83202 0.45352 0.39454
 O1011 O 1.11275 0.52397 0.41602
 O1012 O 1.13766 0.52558 0.38844
 C1013 C 1.13058 0.53227 0.40753
 C1014 C 1.14230 0.55082 0.41944
 C1015 C 1.16051 0.56216 0.40925
 H1016 H 1.16703 0.55651 0.39315
 O1017 O 0.91445 0.38940 0.47151
 O1018 O 0.88766 0.36365 0.47088
 C1019 C 0.90550 0.37214 0.46259
 C1020 C 0.91522 0.36262 0.44166
 C1021 C 0.90243 0.34782 0.42837
 H1022 H 0.88592 0.34246 0.43405
 O1023 O 1.08309 0.61088 0.48093
 O1024 O 1.10986 0.63662 0.48188
 C1025 C 1.09138 0.62934 0.47391
 C1026 C 1.08013 0.64171 0.45534
 C1027 C 1.09182 0.65863 0.44361
 H1028 H 1.10836 0.66375 0.44931
 O1029 O 0.91621 0.52762 0.39207
 O1030 O 0.89006 0.52967 0.36575
 C1031 C 0.90876 0.53609 0.37385
 C1032 C 0.92191 0.55380 0.36224
 C1033 C 0.91733 0.55966 0.33970
 H1034 H 0.90426 0.55089 0.33047
 O1035 O 1.07916 0.48268 0.38434
 O1036 O 1.10406 0.48403 0.35674
 C1037 C 1.08628 0.47574 0.36539
 C1038 C 1.07480 0.45665 0.35413
 C1039 C 1.08623 0.44456 0.33728
 H1040 H 1.10267 0.45007 0.33155
 O1041 O 1.01686 0.39143 0.41152
 O1042 O 1.01574 0.36732 0.38328
 C1043 C 1.02424 0.37389 0.40181
 C1044 C 1.04399 0.36191 0.41111
 C1045 C 1.05485 0.34566 0.39791
 H1046 H 1.04761 0.34060 0.38191
 O1047 O 0.97710 0.61570 0.42667
 O1048 O 0.97616 0.64271 0.40113
 C1049 C 0.96884 0.63400 0.41931
 C1050 C 0.94986 0.64467 0.43149
 C1051 C 0.93767 0.66231 0.42138
 H1052 H 0.94268 0.66873 0.40499
 O1053 O 0.88969 0.58291 0.48678
 O1054 O 0.86406 0.60957 0.48920
 C1055 C 0.87174 0.59205 0.47972
 C1056 C 0.86038 0.58332 0.45937
 C1057 C 0.84404 0.59654 0.44873
 H1058 H 0.83864 0.61213 0.45645
 O1059 O 1.11072 0.41738 0.46744
 O1060 O 1.13629 0.39067 0.46541
 C1061 C 1.12852 0.40940 0.45871
 C1062 C 1.13982 0.42140 0.43989
 C1063 C 1.15787 0.41129 0.42864
 H1064 H 1.16443 0.39545 0.43482
 O1065 O 0.97680 0.58613 0.39423
 O1066 O 0.97645 0.61317 0.36865
 C1067 C 0.96920 0.59441 0.37598
 C1068 C 0.95164 0.58218 0.36329
 C1069 C 0.94715 0.58757 0.34067
 H1070 H 0.95688 0.60056 0.33225
 O1071 O 1.01727 0.42453 0.38307
 O1072 O 1.01627 0.40021 0.35501
 C1073 C 1.02490 0.41742 0.36435
 C1074 C 1.04501 0.42807 0.35398
 C1075 C 1.05699 0.41618 0.33744
 H1076 H 1.05089 0.40001 0.33158
 O1077 O 1.11220 0.48011 0.41243
 O1078 O 1.13713 0.48144 0.38487
 C1079 C 1.12972 0.47243 0.40288
 C1080 C 1.14069 0.45212 0.41238
 C1081 C 1.15870 0.44152 0.40110
 H1082 H 1.16546 0.44873 0.38570
 O1083 O 0.88589 0.52793 0.42349
 O1084 O 0.85972 0.53094 0.39732
 C1085 C 0.86837 0.53740 0.41580
 C1086 C 0.85870 0.55686 0.42792
 C1087 C 0.84244 0.57050 0.41742
 H1088 H 0.83622 0.56622 0.40079
 O1089 O 0.92060 0.61324 0.48855
 O1090 O 0.89481 0.63972 0.49110
 C1091 C 0.91252 0.63190 0.48202
 C1092 C 0.92273 0.64383 0.46255
 C1093 C 0.91106 0.66159 0.45236
 H1094 H 0.89577 0.66783 0.46008
 O1095 O 1.07918 0.38721 0.46724
 O1096 O 1.10482 0.36057 0.46507
 C1097 C 1.08662 0.36939 0.45816
 C1098 C 1.07467 0.35970 0.43851
 C1099 C 1.08531 0.34353 0.42490
 H1100 H 1.10179 0.33731 0.42948
 O1101 O 1.08060 0.52672 0.38701
 O1102 O 1.10544 0.52844 0.35937
 C1103 C 1.08799 0.53602 0.36915
 C1104 C 1.07683 0.55654 0.36041
 C1105 C 1.08756 0.56996 0.34394
 H1106 H 1.10372 0.56494 0.33720
 O1107 O 0.91390 0.48388 0.39024
 O1108 O 0.88702 0.48608 0.36469
 C1109 C 0.90499 0.47712 0.37197
 C1110 C 0.91498 0.45801 0.35956
 C1111 C 0.90247 0.44700 0.34277
 H1112 H 0.88589 0.45305 0.33828
 O1113 O 1.02143 0.61591 0.42520
 O1114 O 1.02060 0.64329 0.40003
 C1115 C 1.02928 0.63427 0.41741
 C1116 C 1.04967 0.64431 0.42772
 C1117 C 1.06173 0.66122 0.41619
 H1118 H 1.05532 0.66791 0.40044
 O1119 O 0.97262 0.39179 0.41171
 O1120 O 0.97167 0.36782 0.38333
 C1121 C 0.96406 0.37464 0.40214
 C1122 C 0.94406 0.36350 0.41219
 C1123 C 0.93112 0.34837 0.39929
 H1124 H 0.93654 0.34366 0.38247
 O1125 O 1.11349 0.57998 0.47793
 O1126 O 1.14013 0.60584 0.47913
 C1127 C 1.13161 0.58839 0.47019
 C1128 C 1.14242 0.57845 0.45000
 C1129 C 1.16040 0.58964 0.43944
 H1130 H 1.16714 0.60494 0.44676
 O1131 O 0.88422 0.42010 0.47547
 O1132 O 0.85752 0.39425 0.47495
 C1133 C 0.86570 0.41271 0.46775
 C1134 C 0.85450 0.42499 0.44913
 C1135 C 0.83867 0.41387 0.43541
 H1136 H 0.83378 0.39672 0.43929
 Cu1137 Cu 0.99497 0.41063 0.40029
 Cu1138 Cu 0.99392 0.38169 0.36641
 Cu1139 Cu 0.99886 0.59827 0.41270
 Cu1140 Cu 0.99809 0.63097 0.38226
 Cu1141 Cu 0.90261 0.50565 0.40959
 Cu1142 Cu 0.87074 0.50867 0.37853
 Cu1143 Cu 1.09373 0.50322 0.40271
 Cu1144 Cu 1.12349 0.50504 0.36951
 C1145 C 0.93599 0.44925 0.36587
 H1146 H 0.94537 0.45718 0.37938
 C1147 C 0.91065 0.42747 0.33244
 C1148 C 1.05669 0.56420 0.37032
 H1149 H 1.04884 0.55457 0.38375
 C1150 C 1.07829 0.59067 0.33736
 C1151 C 0.86215 0.44655 0.44278
 H1152 H 0.87515 0.45477 0.45258
 C1153 C 0.83088 0.42394 0.41545
 C1154 C 1.13360 0.55896 0.43997
 H1155 H 1.11933 0.55060 0.44773
 C1156 C 1.16937 0.58178 0.41902
 C1157 C 0.93608 0.37028 0.43348
 H1158 H 0.94568 0.38230 0.44329
 C1159 C 0.91010 0.34091 0.40710
 C1160 C 1.05895 0.63480 0.44738
 H1161 H 1.05013 0.62128 0.45595
 C1162 C 1.08304 0.66806 0.42373
 C1163 C 0.93915 0.56507 0.37383
 H1164 H 0.94255 0.56085 0.39130
 C1165 C 0.93018 0.57625 0.32872
 C1166 C 1.05406 0.44834 0.36232
 H1167 H 1.04545 0.45713 0.37578
 C1168 C 1.07770 0.42407 0.32944
 C1169 C 1.05391 0.36869 0.43153
 H1170 H 1.04597 0.38172 0.44148
 C1171 C 1.07574 0.33687 0.40432
 C1172 C 0.94228 0.63562 0.45213
 H1173 H 0.95108 0.62154 0.45963
 C1174 C 0.91795 0.67047 0.43150
 C1175 C 0.86752 0.56339 0.44896
 H1176 H 0.88054 0.55340 0.45685
 C1177 C 0.83546 0.59063 0.42756
 C1178 C 1.13153 0.44193 0.43182
 H1179 H 1.11734 0.44961 0.44028
 C1180 C 1.16711 0.42085 0.40900
 O1181 O 1.02278 0.41088 0.60421
 O1182 O 1.02257 0.38307 0.62893
 C1183 C 1.03060 0.40163 0.62188
 C1184 C 1.04999 0.41187 0.63371
 C1185 C 1.05976 0.40075 0.65211
 H1186 H 1.05202 0.38555 0.65865
 O1187 O 0.98303 0.57374 0.61697
 O1188 O 0.98466 0.59817 0.64491
 C1189 C 0.97590 0.58084 0.63586
 C1190 C 0.95620 0.56990 0.64667
 C1191 C 0.94511 0.58084 0.66440
 H1192 H 0.95201 0.59630 0.67122
 O1193 O 0.89036 0.51706 0.58527
 O1194 O 0.86454 0.51530 0.61201
 C1195 C 0.87202 0.52388 0.59384
 C1196 C 0.85958 0.54228 0.58272
 C1197 C 0.83732 0.54709 0.58879
 H1198 H 0.82897 0.53694 0.60152
 O1199 O 1.11312 0.47021 0.57468
 O1200 O 1.14033 0.46825 0.59988
 C1201 C 1.13178 0.46214 0.58123
 C1202 C 1.14358 0.44537 0.56717
 C1203 C 1.16605 0.43980 0.57159
 H1204 H 1.17502 0.44817 0.58512
 O1205 O 1.08083 0.38505 0.51144
 O1206 O 1.10678 0.35868 0.50954
 C1207 C 1.08910 0.36666 0.51849
 C1208 C 1.07887 0.35506 0.53813
 C1209 C 1.09101 0.33834 0.54962
 H1210 H 1.10734 0.33314 0.54343
 O1211 O 0.92152 0.60995 0.53270
 O1212 O 0.89540 0.63608 0.53514
 C1213 C 0.91370 0.62752 0.54197
 C1214 C 0.92532 0.63762 0.56155
 C1215 C 0.91487 0.65485 0.57370
 H1216 H 0.89891 0.66153 0.56798
 O1217 O 0.92200 0.47185 0.61285
 O1218 O 0.89671 0.47054 0.64009
 C1219 C 0.91438 0.46294 0.63081
 C1220 C 0.92540 0.44266 0.64011
 C1221 C 0.91546 0.43078 0.65812
 H1222 H 0.90031 0.43714 0.66599
 O1223 O 1.08382 0.51238 0.60936
 O1224 O 1.11099 0.51006 0.63454
 C1225 C 1.09277 0.51884 0.62770
 C1226 C 1.08277 0.53763 0.64062
 C1227 C 1.09459 0.54674 0.65891
 H1228 H 1.10992 0.53875 0.66461
 O1229 O 0.97831 0.38220 0.57198
 O1230 O 0.97882 0.35403 0.59627
 C1231 C 0.97098 0.36320 0.57858
 C1232 C 0.95284 0.35184 0.56585
 C1233 C 0.94741 0.32930 0.57031
 H1234 H 0.95702 0.31988 0.58264
 O1235 O 1.02632 0.60611 0.58651
 O1236 O 1.02793 0.63066 0.61434
 C1237 C 1.03477 0.62371 0.59524
 C1238 C 1.05346 0.63551 0.58357
 C1239 C 1.06385 0.65433 0.59353
 H1240 H 1.05752 0.66106 0.60929
 O1241 O 0.88676 0.41707 0.51958
 O1242 O 0.86026 0.39105 0.51941
 C1243 C 0.86904 0.40856 0.52805
 C1244 C 0.85924 0.41852 0.54877
 C1245 C 0.84159 0.40749 0.56023
 H1246 H 0.83448 0.39212 0.55347
 O1247 O 1.11468 0.57693 0.52197
 O1248 O 1.14161 0.60250 0.52304
 C1249 C 1.13343 0.58383 0.52962
 C1250 C 1.14543 0.57005 0.54663
 C1251 C 1.16785 0.57482 0.55270
 H1252 H 1.17682 0.58849 0.54453
 O1253 O 1.02707 0.57379 0.61593
 O1254 O 1.02896 0.59825 0.64382
 C1255 C 1.03598 0.58050 0.63422
 C1256 C 1.05535 0.56806 0.64378
 C1257 C 1.06776 0.57715 0.66186
 H1258 H 1.06270 0.59295 0.66937
 O1259 O 0.97889 0.41108 0.60507
 O1260 O 0.97879 0.38288 0.62932
 C1261 C 0.97132 0.40182 0.62290
 C1262 C 0.95307 0.41266 0.63590
 C1263 C 0.94307 0.40121 0.65405
 H1264 H 0.94973 0.38511 0.65936
 O1265 O 1.11380 0.51387 0.57766
 O1266 O 1.14099 0.51160 0.60287
 C1267 C 1.13263 0.52054 0.58529
 C1268 C 1.14485 0.53899 0.57374
 C1269 C 1.16719 0.54387 0.57945
 H1270 H 1.17552 0.53392 0.59229
 O1271 O 0.89092 0.47329 0.58262
 O1272 O 0.86568 0.47169 0.60990
 C1273 C 0.87310 0.46484 0.59099
 C1274 C 0.86139 0.44610 0.57936
 C1275 C 0.84373 0.43489 0.59036
 H1276 H 0.83788 0.44088 0.60660
 O1277 O 1.08411 0.60787 0.52504
 O1278 O 1.11092 0.63355 0.52608
 C1279 C 1.09270 0.62539 0.53381
 C1280 C 1.08193 0.63599 0.55368
 C1281 C 1.09218 0.65454 0.56409
 H1282 H 1.10746 0.66167 0.55706
 O1283 O 0.91654 0.38564 0.51532
 O1284 O 0.89022 0.35942 0.51476
 C1285 C 0.90899 0.36672 0.52194
 C1286 C 0.92216 0.35349 0.53848
 C1287 C 0.91659 0.33099 0.54356
 H1288 H 0.90264 0.32284 0.53508
 O1289 O 1.08345 0.46837 0.60689
 O1290 O 1.11059 0.46599 0.63210
 C1291 C 1.09192 0.45914 0.62427
 C1292 C 1.08024 0.43976 0.63487
 C1293 C 1.08990 0.42825 0.65324
 H1294 H 1.10570 0.43400 0.66029
 O1295 O 0.92223 0.51599 0.61518
 O1296 O 0.89645 0.51485 0.64196
 C1297 C 0.91448 0.52310 0.63386
 C1298 C 0.92593 0.54192 0.64565
 C1299 C 0.91507 0.55324 0.66346
 H1300 H 0.89872 0.54761 0.66929
 O1301 O 0.98247 0.60745 0.58955
 O1302 O 0.98395 0.63185 0.61752
 C1303 C 0.97514 0.62505 0.59924
 C1304 C 0.95539 0.63682 0.58965
 C1305 C 0.94459 0.65422 0.60164
 H1306 H 0.95135 0.66009 0.61756
 O1307 O 1.02235 0.38204 0.57171
 O1308 O 1.02258 0.35438 0.59662
 C1309 C 1.03038 0.36356 0.57888
 C1310 C 1.04994 0.35332 0.56742
 C1311 C 1.06212 0.33628 0.57836
 H1312 H 1.05638 0.32972 0.59447
 O1313 O 1.11218 0.41516 0.51136
 O1314 O 1.13822 0.38888 0.50922
 C1315 C 1.13069 0.40684 0.51799
 C1316 C 1.14315 0.41807 0.53639
 C1317 C 1.16554 0.41231 0.54137
 H1318 H 1.17414 0.39967 0.53144
 O1319 O 0.88942 0.58012 0.53075
 O1320 O 0.86328 0.60629 0.53294
 C1321 C 0.87107 0.58737 0.53901
 C1322 C 0.85907 0.57365 0.55609
 C1323 C 0.83680 0.57848 0.56252
 H1324 H 0.82792 0.59230 0.55463
 Cu1325 Cu 1.00045 0.39935 0.58573
 Cu1326 Cu 1.00055 0.36580 0.61526
 Cu1327 Cu 1.00462 0.58786 0.59944
 Cu1328 Cu 1.00664 0.61711 0.63300
 Cu1329 Cu 0.90310 0.40566 0.49562
 Cu1330 Cu 0.87115 0.37456 0.49509
 Cu1331 Cu 1.09310 0.40381 0.48958
 Cu1332 Cu 1.12400 0.37191 0.48709
 Cu1333 Cu 0.90794 0.59389 0.50965
 Cu1334 Cu 0.87687 0.62564 0.51247
 Cu1335 Cu 1.09617 0.59133 0.50143
 Cu1336 Cu 1.12824 0.62227 0.50274
 Cu1337 Cu 0.90902 0.49482 0.59635
 Cu1338 Cu 0.87837 0.49301 0.62879
 Cu1339 Cu 1.09575 0.49134 0.58967
 Cu1340 Cu 1.12834 0.48873 0.62001
 C1341 C 1.06018 0.43152 0.62537
 H1342 H 1.05293 0.43994 0.61088
 C1343 C 1.07988 0.40853 0.66172
 C1344 C 0.94658 0.55032 0.63748
 H1345 H 0.95471 0.54214 0.62334
 C1346 C 0.92434 0.57301 0.67248
 C1347 C 0.87019 0.55546 0.56621
 H1348 H 0.88744 0.55185 0.56159
 C1349 C 0.82570 0.56498 0.57862
 C1350 C 1.13238 0.43465 0.54936
 H1351 H 1.11502 0.43890 0.54589
 C1352 C 1.17715 0.42345 0.55870
 C1353 C 1.05829 0.36244 0.54715
 H1354 H 1.04924 0.37592 0.53888
 C1355 C 1.08288 0.32916 0.56987
 C1356 C 0.94570 0.62884 0.56950
 H1357 H 0.95356 0.61516 0.56041
 C1358 C 0.92411 0.66296 0.59383
 C1359 C 0.94431 0.43353 0.62921
 H1360 H 0.95168 0.44224 0.61491
 C1361 C 0.92398 0.40985 0.66492
 C1362 C 1.06299 0.54824 0.63331
 H1363 H 1.05403 0.54153 0.61889
 C1364 C 1.08767 0.56680 0.66916
 C1365 C 0.94036 0.36368 0.54968
 H1366 H 0.94448 0.38112 0.54623
 C1367 C 0.92944 0.31876 0.55920
 C1368 C 1.06246 0.62666 0.56344
 H1369 H 1.05481 0.61195 0.55585
 C1370 C 1.08337 0.66364 0.58401
 C1371 C 0.86897 0.43790 0.55846
 H1372 H 0.88295 0.44617 0.55009
 C1373 C 0.83412 0.41536 0.58125
 C1374 C 1.13419 0.55201 0.55716
 H1375 H 1.11687 0.54836 0.55278
 C1376 C 1.17894 0.56151 0.56887
 O1377 O 0.47006 0.92468 0.38746
 O1378 O 0.46829 0.89877 0.36092
 C1379 C 0.46097 0.91678 0.36976
 C1380 C 0.44106 0.92809 0.35997
 C1381 C 0.42831 0.91741 0.34306
 H1382 H 0.43354 0.90124 0.33652
 O1383 O 0.51739 1.08576 0.38672
 O1384 O 0.51653 1.11257 0.36093
 C1385 C 0.52393 1.09378 0.36791
 C1386 C 0.54092 1.08131 0.35467
 C1387 C 0.54705 1.08803 0.33270
 H1388 H 0.53872 1.10217 0.32475
 O1389 O 0.38366 0.98476 0.42432
 O1390 O 0.35649 0.98603 0.39906
 C1391 C 0.36521 0.97727 0.41656
 C1392 C 0.35457 0.95703 0.42668
 C1393 C 0.33745 0.94600 0.41477
 H1394 H 0.33081 0.95349 0.39948
 O1395 O 0.60744 1.02718 0.41345
 O1396 O 0.63211 1.02776 0.38561
 C1397 C 0.62492 1.03548 0.40425
 C1398 C 0.63629 1.05499 0.41487
 C1399 C 0.65041 1.06910 0.40196
 H1400 H 0.65394 1.06508 0.38448
 O1401 O 0.41501 0.89037 0.47855
 O1402 O 0.38892 0.86388 0.47875
 C1403 C 0.40708 0.87206 0.47084
 C1404 C 0.41926 0.86041 0.45249
 C1405 C 0.41497 0.83768 0.44742
 H1406 H 0.40254 0.82833 0.45703
 O1407 O 0.58229 1.11163 0.47780
 O1408 O 0.60896 1.13756 0.47778
 C1409 C 0.59087 1.12954 0.46970
 C1410 C 0.58090 1.14010 0.44945
 C1411 C 0.59416 1.15458 0.43613
 H1412 H 0.61095 1.15917 0.44156
 O1413 O 0.41379 1.02931 0.39290
 O1414 O 0.38651 1.03014 0.36772
 C1415 C 0.40504 1.03772 0.37525
 C1416 C 0.41564 1.05740 0.36410
 C1417 C 0.40400 1.06899 0.34713
 H1418 H 0.38798 1.06261 0.34118
 O1419 O 0.57514 0.98294 0.38440
 O1420 O 0.60037 0.98268 0.35707
 C1421 C 0.58216 0.97534 0.36564
 C1422 C 0.56901 0.95783 0.35367
 C1423 C 0.57461 0.95175 0.33150
 H1424 H 0.58864 0.95995 0.32313
 O1425 O 0.51615 0.89403 0.41524
 O1426 O 0.51515 0.86892 0.38788
 C1427 C 0.52386 0.87641 0.40596
 C1428 C 0.54388 0.86508 0.41545
 C1429 C 0.55425 0.84790 0.40312
 H1430 H 0.54665 0.84200 0.38760
 O1431 O 0.47812 1.11710 0.42247
 O1432 O 0.47826 1.14487 0.39772
 C1433 C 0.47131 1.13632 0.41615
 C1434 C 0.45459 1.14842 0.43009
 C1435 C 0.44975 1.17116 0.42598
 H1436 H 0.45892 1.18034 0.41308
 O1437 O 0.38824 1.08667 0.48426
 O1438 O 0.36329 1.11397 0.48614
 C1439 C 0.37017 1.09573 0.47740
 C1440 C 0.35782 1.08573 0.45814
 C1441 C 0.34088 1.09806 0.44731
 H1442 H 0.33548 1.11390 0.45449
 O1443 O 0.60941 0.92194 0.47230
 O1444 O 0.63589 0.89611 0.47016
 C1445 C 0.62763 0.91474 0.46375
 C1446 C 0.63905 0.92798 0.44589
 C1447 C 0.66097 0.92253 0.43890
 H1448 H 0.66992 0.90897 0.44716
 O1449 O 0.47387 1.08755 0.39071
 O1450 O 0.47290 1.11516 0.36580
 C1451 C 0.46497 1.09684 0.37361
 C1452 C 0.44471 1.08658 0.36332
 C1453 C 0.43277 1.09793 0.34626
 H1454 H 0.43880 1.11396 0.33991
 O1455 O 0.51407 0.92492 0.38463
 O1456 O 0.51229 0.89984 0.35729
 C1457 C 0.52065 0.91771 0.36555
 C1458 C 0.53874 0.92988 0.35334
 C1459 C 0.54472 0.92390 0.33116
 H1460 H 0.53545 0.91084 0.32242
 O1461 O 0.60724 0.98317 0.41414
 O1462 O 0.63271 0.98355 0.38705
 C1463 C 0.62543 0.97585 0.40572
 C1464 C 0.63797 0.95793 0.41760
 C1465 C 0.65988 0.95231 0.41090
 H1466 H 0.66777 0.96142 0.39714
 O1467 O 0.38358 1.02913 0.42435
 O1468 O 0.35649 1.03021 0.39897
 C1469 C 0.36547 1.03769 0.41688
 C1470 C 0.35557 1.05746 0.42833
 C1471 C 0.33899 1.07039 0.41742
 H1472 H 0.33274 1.06521 0.40106
 O1473 O 0.42046 1.11621 0.48383
 O1474 O 0.39560 1.14361 0.48591
 C1475 C 0.41328 1.13525 0.47729
 C1476 C 0.42566 1.14769 0.45949
 C1477 C 0.42067 1.17030 0.45477
 H1478 H 0.40769 1.17893 0.46423
 O1479 O 0.57862 0.89105 0.47171
 O1480 O 0.60497 0.86516 0.46912
 C1481 C 0.58652 0.87355 0.46238
 C1482 C 0.57462 0.86356 0.44282
 C1483 C 0.58485 0.84649 0.42998
 H1484 H 0.60112 0.83996 0.43490
 O1485 O 0.57526 1.02658 0.38404
 O1486 O 0.59999 1.02621 0.35624
 C1487 C 0.58208 1.03384 0.36503
 C1488 C 0.56931 1.05172 0.35338
 C1489 C 0.57493 1.05831 0.33134
 H1490 H 0.58833 1.04974 0.32245
 O1491 O 0.41246 0.98512 0.39157
 O1492 O 0.38509 0.98617 0.36650
 C1493 C 0.40331 0.97769 0.37367
 C1494 C 0.41307 0.95806 0.36184
 C1495 C 0.40065 0.94716 0.34493
 H1496 H 0.38474 0.95413 0.33946
 O1497 O 0.52186 1.11414 0.41925
 O1498 O 0.52211 1.14094 0.39341
 C1499 C 0.53068 1.13170 0.41075
 C1500 C 0.55181 1.14072 0.42034
 C1501 C 0.56552 1.15485 0.40716
 H1502 H 0.56005 1.16001 0.39049
 O1503 O 0.47234 0.89283 0.41739
 O1504 O 0.47156 0.86685 0.39083
 C1505 C 0.46486 0.87430 0.40976
 C1506 C 0.44796 0.86151 0.42294
 C1507 C 0.44377 0.83875 0.41833
 H1508 H 0.45326 0.83031 0.40523
 O1509 O 0.61253 1.08122 0.47654
 O1510 O 0.63894 1.10738 0.47686
 C1511 C 0.63014 1.08997 0.46806
 C1512 C 0.63915 1.08129 0.44646
 C1513 C 0.65307 1.09516 0.43325
 H1514 H 0.65884 1.11116 0.43986
 O1515 O 0.38500 0.92171 0.48021
 O1516 O 0.35875 0.89543 0.47998
 C1517 C 0.36674 0.91383 0.47239
 C1518 C 0.35539 0.92567 0.45352
 C1519 C 0.33840 0.91476 0.44103
 H1520 H 0.33290 0.89801 0.44577
 Cu1521 Cu 0.49320 0.91174 0.40382
 Cu1522 Cu 0.49164 0.88106 0.37149
 Cu1523 Cu 0.49779 1.09842 0.40731
 Cu1524 Cu 0.49733 1.13123 0.37700
 Cu1525 Cu 0.40109 1.00702 0.41085
 Cu1526 Cu 0.36841 1.00821 0.38058
 Cu1527 Cu 0.58884 1.00493 0.40183
 Cu1528 Cu 0.61893 1.00491 0.36882
 C1529 C 0.43337 0.94850 0.36913
 H1530 H 0.44276 0.95651 0.38257
 C1531 C 0.40785 0.92662 0.33582
 C1532 C 0.55204 1.06305 0.36472
 H1533 H 0.54779 1.05811 0.38182
 C1534 C 0.56385 1.07635 0.32086
 C1535 C 0.36334 0.94684 0.44619
 H1536 H 0.37699 0.95499 0.45513
 C1537 C 0.32984 0.92463 0.42130
 C1538 C 0.63090 1.06117 0.43716
 H1539 H 0.61947 1.05078 0.44695
 C1540 C 0.65833 1.08949 0.41090
 C1541 C 0.43582 0.87210 0.44020
 H1542 H 0.43903 0.88968 0.44383
 C1543 C 0.42752 0.82666 0.43065
 C1544 C 0.55966 1.13333 0.44148
 H1545 H 0.54959 1.12172 0.45139
 C1546 C 0.58682 1.16147 0.41478
 C1547 C 0.43609 1.06622 0.37198
 H1548 H 0.44489 1.05763 0.38545
 C1549 C 0.41220 1.08939 0.33843
 C1550 C 0.55089 0.94698 0.36436
 H1551 H 0.54658 0.95149 0.38154
 C1552 C 0.56247 0.93498 0.32003
 C1553 C 0.55406 0.87271 0.43543
 H1554 H 0.54638 0.88631 0.44478
 C1555 C 0.57495 0.83897 0.40986
 C1556 C 0.44269 1.13693 0.44711
 H1557 H 0.44633 1.11937 0.45037
 C1558 C 0.43288 1.18214 0.43830
 C1559 C 0.36481 1.06526 0.44871
 H1560 H 0.37820 1.05586 0.45672
 C1561 C 0.33192 1.09100 0.42652
 C1562 C 0.62780 0.94585 0.43529
 H1563 H 0.61080 0.94995 0.44039
 C1564 C 0.67158 0.93477 0.42157
 O1565 O 0.52334 0.91545 0.60940
 O1566 O 0.52333 0.88901 0.63557
 C1567 C 0.53090 0.90750 0.62779
 C1568 C 0.54888 0.91987 0.63991
 C1569 C 0.55419 0.91473 0.66247
 H1570 H 0.54484 0.90179 0.67137
 O1571 O 0.48359 1.07846 0.61590
 O1572 O 0.48480 1.10391 0.64293
 C1573 C 0.47679 1.08579 0.63480
 C1574 C 0.45907 1.07326 0.64711
 C1575 C 0.45354 1.07884 0.66942
 H1576 H 0.46273 1.09206 0.67801
 O1577 O 0.39120 1.02358 0.58566
 O1578 O 0.36630 1.02333 0.61328
 C1579 C 0.37375 1.03169 0.59498
 C1580 C 0.36265 1.05168 0.58501
 C1581 C 0.34502 1.06246 0.59657
 H1582 H 0.33870 1.05560 0.61232
 O1583 O 0.61321 0.97621 0.57800
 O1584 O 0.64033 0.97466 0.60332
 C1585 C 0.63177 0.96815 0.58479
 C1586 C 0.64330 0.95085 0.57110
 C1587 C 0.66568 0.94495 0.57562
 H1588 H 0.67480 0.95341 0.58899
 O1589 O 0.58000 0.88890 0.51597
 O1590 O 0.60631 0.86295 0.51364
 C1591 C 0.58850 0.87051 0.52272
 C1592 C 0.57834 0.85843 0.54216
 C1593 C 0.58947 0.83997 0.55170
 H1594 H 0.60464 0.83363 0.54383
 O1595 O 0.42197 1.11519 0.52771
 O1596 O 0.39707 1.14256 0.52959
 C1597 C 0.41532 1.13367 0.53614
 C1598 C 0.42874 1.14457 0.55409
 C1599 C 0.42459 1.16696 0.56055
 H1600 H 0.41207 1.17667 0.55158
 O1601 O 0.42165 0.97668 0.61267
 O1602 O 0.39623 0.97610 0.63980
 C1603 C 0.41371 0.96794 0.63059
 C1604 C 0.42407 0.94740 0.64030
 C1605 C 0.41283 0.93563 0.65752
 H1606 H 0.39726 0.94216 0.66439
 O1607 O 0.58438 1.01907 0.61198
 O1608 O 0.61133 1.01739 0.63748
 C1609 C 0.59319 1.02600 0.63024
 C1610 C 0.58286 1.04504 0.64252
 C1611 C 0.59359 1.05440 0.66140
 H1612 H 0.60875 1.04671 0.66793
 O1613 O 0.47942 0.88502 0.57832
 O1614 O 0.48021 0.85751 0.60335
 C1615 C 0.47204 0.86626 0.58556
 C1616 C 0.45337 0.85505 0.57334
 C1617 C 0.44739 0.83253 0.57781
 H1618 H 0.45685 0.82280 0.59000
 O1619 O 0.52605 1.10987 0.58382
 O1620 O 0.52701 1.13599 0.61024
 C1621 C 0.53372 1.12833 0.59136
 C1622 C 0.55066 1.14084 0.57800
 C1623 C 0.55551 1.16346 0.58272
 H1624 H 0.54659 1.17200 0.59617
 O1625 O 0.38618 0.91999 0.52441
 O1626 O 0.35965 0.89400 0.52482
 C1627 C 0.36824 0.91191 0.53283
 C1628 C 0.35788 0.92325 0.55256
 C1629 C 0.33975 0.91334 0.56437
 H1630 H 0.33291 0.89740 0.55878
 O1631 O 0.61329 1.07969 0.52114
 O1632 O 0.63935 1.10615 0.52146
 C1633 C 0.63142 1.08776 0.52909
 C1634 C 0.64273 1.07655 0.54835
 C1635 C 0.66045 1.08750 0.55942
 H1636 H 0.66696 1.10316 0.55264
 O1637 O 0.52740 1.07934 0.61510
 O1638 O 0.52874 1.10525 0.64168
 C1639 C 0.53597 1.08707 0.63317
 C1640 C 0.55498 1.07511 0.64390
 C1641 C 0.56591 1.08421 0.66287
 H1642 H 0.55993 1.09975 0.67027
 O1643 O 0.47946 0.91529 0.60950
 O1644 O 0.47921 0.88798 0.63476
 C1645 C 0.47143 0.90649 0.62733
 C1646 C 0.45219 0.91738 0.63892
 C1647 C 0.44072 0.90604 0.65638
 H1648 H 0.44647 0.88972 0.66211
 O1649 O 0.61391 1.02007 0.58019
 O1650 O 0.64080 1.01869 0.60578
 C1651 C 0.63229 1.02753 0.58820
 C1652 C 0.64320 1.04734 0.57751
 C1653 C 0.66079 1.05883 0.58854
 H1654 H 0.66709 1.05266 0.60454
 O1655 O 0.38977 0.97956 0.58321
 O1656 O 0.36450 0.97950 0.61049
 C1657 C 0.37159 0.97207 0.59168
 C1658 C 0.35928 0.95342 0.58057
 C1659 C 0.34062 0.94389 0.59137
 H1660 H 0.33383 0.95205 0.60621
 O1661 O 0.58297 1.11124 0.52197
 O1662 O 0.60898 1.13778 0.52172
 C1663 C 0.59078 1.12967 0.52952
 C1664 C 0.57869 1.14151 0.54781
 C1665 C 0.58365 1.16406 0.55302
 H1666 H 0.59624 1.17314 0.54336
 O1667 O 0.41711 0.88945 0.52223
 O1668 O 0.39081 0.86318 0.52233
 C1669 C 0.40959 0.87070 0.52932
 C1670 C 0.42281 0.85750 0.54584
 C1671 C 0.41731 0.83498 0.55026
 H1672 H 0.40338 0.82718 0.54142
 O1673 O 0.58288 0.97519 0.60974
 O1674 O 0.60965 0.97356 0.63542
 C1675 C 0.59086 0.96678 0.62773
 C1676 C 0.57815 0.94892 0.63976
 C1677 C 0.58305 0.94371 0.66233
 H1678 H 0.59619 0.95289 0.67103
 O1679 O 0.42296 1.02077 0.61566
 O1680 O 0.39799 1.01997 0.64322
 C1681 C 0.41615 1.02756 0.63484
 C1682 C 0.42923 1.04488 0.64714
 C1683 C 0.42362 1.05097 0.66940
 H1684 H 0.40994 1.04253 0.67808
 O1685 O 0.48248 1.11056 0.58623
 O1686 O 0.48357 1.13621 0.61310
 C1687 C 0.47543 1.12886 0.59472
 C1688 C 0.45776 1.14187 0.58302
 C1689 C 0.45310 1.16403 0.58957
 H1690 H 0.46218 1.17122 0.60366
 O1691 O 0.52339 0.88565 0.57756
 O1692 O 0.52446 0.85898 0.60345
 C1693 C 0.53179 0.86753 0.58516
 C1694 C 0.55082 0.85693 0.57294
 C1695 C 0.56232 0.83841 0.58224
 H1696 H 0.55678 0.83117 0.59811
 O1697 O 0.61103 0.91944 0.51615
 O1698 O 0.63745 0.89356 0.51385
 C1699 C 0.62970 0.91139 0.52270
 C1700 C 0.64227 0.92284 0.54094
 C1701 C 0.66456 0.91683 0.54600
 H1702 H 0.67290 0.90382 0.53635
 O1703 O 0.39063 1.08494 0.52836
 O1704 O 0.36566 1.11220 0.53053
 C1705 C 0.37332 1.09346 0.53747
 C1706 C 0.36261 1.08199 0.55696
 C1707 C 0.34531 1.09262 0.56897
 H1708 H 0.33907 1.10884 0.56344
 Cu1709 Cu 0.50141 0.90299 0.59112
 Cu1710 Cu 0.50189 0.87066 0.62185
 Cu1711 Cu 0.50477 1.09192 0.59765
 Cu1712 Cu 0.50613 1.12287 0.62974
 Cu1713 Cu 0.40334 0.90808 0.50135
 Cu1714 Cu 0.37168 0.87665 0.50157
 Cu1715 Cu 0.59208 0.90787 0.49424
 Cu1716 Cu 0.62366 0.87668 0.49144
 Cu1717 Cu 0.40778 1.09799 0.50581
 Cu1718 Cu 0.37772 1.13069 0.50821
 Cu1719 Cu 0.59519 1.09324 0.49959
 Cu1720 Cu 0.62685 1.12471 0.49975
 Cu1721 Cu 0.40895 1.00034 0.59657
 Cu1722 Cu 0.37873 0.99971 0.62941
 Cu1723 Cu 0.59591 0.99767 0.59243
 Cu1724 Cu 0.62826 0.99565 0.62304
 C1725 C 0.56086 0.93709 0.62878
 H1726 H 0.55701 0.94104 0.61135
 C1727 C 0.57097 0.92689 0.67389
 C1728 C 0.44705 1.05605 0.63624
 H1729 H 0.45118 1.05176 0.61896
 C1730 C 0.43593 1.06773 0.68069
 C1731 C 0.37108 1.06142 0.56503
 H1732 H 0.38489 1.05343 0.55623
 C1733 C 0.33661 1.08305 0.58878
 C1734 C 0.63184 0.93991 0.55355
 H1735 H 0.61456 0.94439 0.54997
 C1736 C 0.67642 0.92808 0.56308
 C1737 C 0.55890 0.86666 0.55278
 H1738 H 0.55051 0.88123 0.54576
 C1739 C 0.58188 0.83013 0.57188
 C1740 C 0.44559 1.13231 0.56519
 H1741 H 0.44892 1.11508 0.56028
 C1742 C 0.43691 1.17697 0.57818
 C1743 C 0.44381 0.93817 0.63110
 H1744 H 0.45224 0.94681 0.61737
 C1745 C 0.42081 0.91489 0.66536
 C1746 C 0.56343 1.05538 0.63405
 H1747 H 0.55535 1.04852 0.61919
 C1748 C 0.58540 1.07411 0.67152
 C1749 C 0.44102 0.86730 0.55724
 H1750 H 0.44530 0.88473 0.55389
 C1751 C 0.42961 0.82230 0.56597
 C1752 C 0.56212 1.13012 0.56032
 H1753 H 0.55846 1.11265 0.55659
 C1754 C 0.57183 1.17521 0.57019
 C1755 C 0.36758 0.94324 0.56093
 H1756 H 0.38215 0.95046 0.55262
 C1757 C 0.33131 0.92340 0.58413
 C1758 C 0.63435 1.05633 0.55738
 H1759 H 0.62035 1.04802 0.54916
 C1760 C 0.66915 1.07921 0.57982
 O1761 O 0.47048 0.42001 0.88796
 O1762 O 0.46896 0.39423 0.86128
 C1763 C 0.46172 0.41237 0.86997
 C1764 C 0.44249 0.42446 0.85965
 C1765 C 0.43079 0.41532 0.84112
 H1766 H 0.43619 0.39951 0.83387
 O1767 O 0.51659 0.58627 0.89355
 O1768 O 0.51663 0.61389 0.86860
 C1769 C 0.52375 0.59486 0.87523
 C1770 C 0.54031 0.58243 0.86140
 C1771 C 0.54487 0.58903 0.83912
 H1772 H 0.53638 0.60354 0.83208
 O1773 O 0.38430 0.48178 0.92259
 O1774 O 0.35712 0.48391 0.89739
 C1775 C 0.36562 0.47483 0.91484
 C1776 C 0.35439 0.45511 0.92537
 C1777 C 0.33671 0.44419 0.91408
 H1778 H 0.33044 0.45092 0.89828
 O1779 O 0.60373 0.52463 0.91660
 O1780 O 0.62893 0.52648 0.88929
 C1781 C 0.62139 0.53335 0.90816
 C1782 C 0.63281 0.55212 0.92010
 C1783 C 0.65082 0.56371 0.90979
 H1784 H 0.65685 0.55860 0.89332
 O1785 O 0.41436 0.39000 0.97910
 O1786 O 0.38799 0.36380 0.97960
 C1787 C 0.40625 0.37167 0.97166
 C1788 C 0.41824 0.35931 0.95372
 C1789 C 0.41285 0.33684 0.94916
 H1790 H 0.39934 0.32889 0.95854
 O1791 O 0.57700 0.61102 0.98530
 O1792 O 0.60335 0.63722 0.98566
 C1793 C 0.58460 0.62989 0.97851
 C1794 C 0.57180 0.64319 0.96173
 C1795 C 0.57779 0.66556 0.95700
 H1796 H 0.59157 0.67332 0.96610
 O1797 O 0.41526 0.52583 0.89166
 O1798 O 0.38857 0.52745 0.86589
 C1799 C 0.40730 0.53422 0.87359
 C1800 C 0.41989 0.55238 0.86195
 C1801 C 0.41568 0.55801 0.83922
 H1802 H 0.40325 0.54867 0.82967
 O1803 O 0.57343 0.48032 0.88550
 O1804 O 0.59933 0.48096 0.85884
 C1805 C 0.58149 0.47256 0.86723
 C1806 C 0.57049 0.45290 0.85632
 C1807 C 0.58128 0.44123 0.83867
 H1808 H 0.59736 0.44707 0.83230
 O1809 O 0.51564 0.38866 0.91609
 O1810 O 0.51439 0.36261 0.88963
 C1811 C 0.52284 0.37037 0.90772
 C1812 C 0.54135 0.35828 0.91919
 C1813 C 0.54657 0.33584 0.91370
 H1814 H 0.53693 0.32699 0.90098
 O1815 O 0.47328 0.61571 0.92636
 O1816 O 0.47259 0.64298 0.90107
 C1817 C 0.46507 0.63405 0.91907
 C1818 C 0.44602 0.64448 0.93126
 C1819 C 0.43345 0.66189 0.92125
 H1820 H 0.43823 0.66838 0.90482
 O1821 O 0.38927 0.58106 0.98925
 O1822 O 0.36290 0.60698 0.99135
 C1823 C 0.37093 0.58942 0.98221
 C1824 C 0.35951 0.57992 0.96213
 C1825 C 0.34187 0.59202 0.95228
 H1826 H 0.33546 0.60688 0.96063
 O1827 O 0.60828 0.41949 0.97358
 O1828 O 0.63461 0.39358 0.97087
 C1829 C 0.62638 0.41235 0.96477
 C1830 C 0.63764 0.42599 0.94708
 C1831 C 0.65980 0.42132 0.94021
 H1832 H 0.66905 0.40781 0.94821
 O1833 O 0.47321 0.58586 0.89480
 O1834 O 0.47327 0.61297 0.86927
 C1835 C 0.46583 0.59422 0.87654
 C1836 C 0.44853 0.58185 0.86366
 C1837 C 0.44434 0.58714 0.84102
 H1838 H 0.45381 0.60053 0.83294
 O1839 O 0.51441 0.42089 0.88686
 O1840 O 0.51340 0.39501 0.86024
 C1841 C 0.52166 0.41306 0.86834
 C1842 C 0.54087 0.42416 0.85683
 C1843 C 0.55169 0.41309 0.83907
 H1844 H 0.54473 0.39750 0.83265
 O1845 O 0.60457 0.48091 0.91595
 O1846 O 0.63059 0.48268 0.88942
 C1847 C 0.62316 0.47435 0.90777
 C1848 C 0.63603 0.45658 0.91948
 C1849 C 0.65817 0.45184 0.91301
 H1850 H 0.66597 0.46153 0.89959
 O1851 O 0.38662 0.52583 0.92478
 O1852 O 0.35984 0.52821 0.89919
 C1853 C 0.36871 0.53488 0.91754
 C1854 C 0.35863 0.55392 0.93014
 C1855 C 0.34129 0.56674 0.92034
 H1856 H 0.33491 0.56236 0.90379
 O1857 O 0.41871 0.61322 0.98951
 O1858 O 0.39207 0.63888 0.99157
 C1859 C 0.40989 0.63142 0.98253
 C1860 C 0.41937 0.64327 0.96266
 C1861 C 0.40722 0.66078 0.95255
 H1862 H 0.39200 0.66684 0.96052
 O1863 O 0.57742 0.38815 0.97338
 O1864 O 0.60347 0.36193 0.97097
 C1865 C 0.58473 0.37003 0.96477
 C1866 C 0.57139 0.35825 0.94734
 C1867 C 0.57606 0.33580 0.94196
 H1868 H 0.58928 0.32692 0.95085
 O1869 O 0.57240 0.52452 0.88641
 O1870 O 0.59745 0.52537 0.85892
 C1871 C 0.57954 0.53276 0.86792
 C1872 C 0.56722 0.55170 0.85746
 C1873 C 0.57171 0.55861 0.83518
 H1874 H 0.58372 0.54940 0.82503
 O1875 O 0.41458 0.48184 0.89139
 O1876 O 0.38737 0.48352 0.86618
 C1877 C 0.40549 0.47474 0.87336
 C1878 C 0.41534 0.45529 0.86125
 C1879 C 0.40417 0.44609 0.84259
 H1880 H 0.38935 0.45439 0.83605
 O1881 O 0.51719 0.61518 0.92648
 O1882 O 0.51685 0.64305 0.90186
 C1883 C 0.52465 0.63403 0.91968
 C1884 C 0.54275 0.64523 0.93265
 C1885 C 0.54907 0.66758 0.92802
 H1886 H 0.54026 0.67704 0.91514
 O1887 O 0.47200 0.38873 0.91846
 O1888 O 0.47079 0.36263 0.89205
 C1889 C 0.46414 0.37033 0.91090
 C1890 C 0.44678 0.35826 0.92415
 C1891 C 0.44149 0.33551 0.92000
 H1892 H 0.45075 0.32630 0.90728
 O1893 O 0.60675 0.57944 0.98127
 O1894 O 0.63300 0.60571 0.98119
 C1895 C 0.62430 0.58813 0.97262
 C1896 C 0.63421 0.57856 0.95175
 C1897 C 0.65211 0.58978 0.94114
 H1898 H 0.65943 0.60455 0.94895
 O1899 O 0.38398 0.42106 0.98043
 O1900 O 0.35759 0.39491 0.98015
 C1901 C 0.36567 0.41325 0.97257
 C1902 C 0.35431 0.42500 0.95367
 C1903 C 0.33634 0.41459 0.94227
 H1904 H 0.32994 0.39847 0.94804
 Cu1905 Cu 0.49316 0.40715 0.90498
 Cu1906 Cu 0.49171 0.37618 0.87295
 Cu1907 Cu 0.49518 0.59813 0.91292
 Cu1908 Cu 0.49492 0.63113 0.88278
 Cu1909 Cu 0.40287 0.50376 0.91015
 Cu1910 Cu 0.37044 0.50603 0.87971
 Cu1911 Cu 0.58588 0.50247 0.90369
 Cu1912 Cu 0.61658 0.50398 0.87134
 C1913 C 0.43463 0.44451 0.86950
 H1914 H 0.44314 0.45137 0.88412
 C1915 C 0.41139 0.42589 0.83271
 C1916 C 0.55137 0.56361 0.87033
 H1917 H 0.54799 0.55854 0.88759
 C1918 C 0.56031 0.57710 0.82577
 C1919 C 0.36300 0.44543 0.94525
 H1920 H 0.37714 0.45332 0.95364
 C1921 C 0.32783 0.42386 0.92227
 C1922 C 0.62470 0.55964 0.94115
 H1923 H 0.61055 0.55116 0.94900
 C1924 C 0.66022 0.58279 0.92007
 C1925 C 0.43528 0.36984 0.94126
 H1926 H 0.43928 0.38732 0.94458
 C1927 C 0.42474 0.32450 0.93280
 C1928 C 0.55410 0.63327 0.94966
 H1929 H 0.54955 0.61594 0.95311
 C1930 C 0.56642 0.67796 0.94033
 C1931 C 0.43642 0.56433 0.87390
 H1932 H 0.43960 0.56023 0.89144
 C1933 C 0.42827 0.57509 0.82853
 C1934 C 0.55024 0.44421 0.86522
 H1935 H 0.54220 0.45259 0.87930
 C1936 C 0.57217 0.42102 0.83038
 C1937 C 0.55384 0.36928 0.93608
 H1938 H 0.55013 0.38662 0.94025
 C1939 C 0.56364 0.32447 0.92539
 C1940 C 0.43889 0.63539 0.95203
 H1941 H 0.44807 0.62155 0.95952
 C1942 C 0.41373 0.66980 0.93162
 C1943 C 0.36771 0.56072 0.95105
 H1944 H 0.38164 0.55153 0.95833
 C1945 C 0.33323 0.58612 0.93112
 C1946 C 0.62599 0.44378 0.93672
 H1947 H 0.60882 0.44729 0.94168
 C1948 C 0.67027 0.43442 0.92337
 O1949 O 0.52226 0.41279 1.11054
 O1950 O 0.52241 0.38551 1.13587
 C1951 C 0.52996 0.40420 1.12858
 C1952 C 0.54812 0.41586 1.14097
 C1953 C 0.55486 0.40819 1.16227
 H1954 H 0.54651 0.39371 1.16964
 O1955 O 0.48058 0.57409 1.12195
 O1956 O 0.48229 0.59822 1.15014
 C1957 C 0.47427 0.58039 1.14140
 C1958 C 0.45702 0.56710 1.15366
 C1959 C 0.45233 0.57135 1.17646
 H1960 H 0.46183 0.58411 1.18541
 O1961 O 0.38995 0.51870 1.09085
 O1962 O 0.36477 0.51777 1.11824
 C1963 C 0.37247 0.52656 1.10022
 C1964 C 0.36173 0.54682 1.09068
 C1965 C 0.34566 0.55861 1.10337
 H1966 H 0.34018 0.55226 1.11965
 O1967 O 0.61168 0.47105 1.08053
 O1968 O 0.63828 0.46938 1.10638
 C1969 C 0.62961 0.46230 1.08814
 C1970 C 0.63986 0.44296 1.07634
 C1971 C 0.65559 0.42940 1.08758
 H1972 H 0.66098 0.43367 1.10452
 O1973 O 0.57928 0.38647 1.01744
 O1974 O 0.60567 0.36055 1.01510
 C1975 C 0.58802 0.36827 1.02442
 C1976 C 0.57855 0.35683 1.04457
 C1977 C 0.59166 0.34112 1.05634
 H1978 H 0.60792 0.33623 1.04971
 O1979 O 0.42073 0.61084 1.03395
 O1980 O 0.39413 0.63656 1.03558
 C1981 C 0.41245 0.62839 1.04288
 C1982 C 0.42306 0.63844 1.06312
 C1983 C 0.41126 0.65450 1.07568
 H1984 H 0.39547 0.66099 1.06933
 O1985 O 0.42007 0.47189 1.11720
 O1986 O 0.39474 0.47035 1.14443
 C1987 C 0.41268 0.46314 1.13531
 C1988 C 0.42526 0.44453 1.14589
 C1989 C 0.42142 0.43868 1.16852
 H1990 H 0.40914 0.44789 1.17834
 O1991 O 0.58277 0.51511 1.11318
 O1992 O 0.60985 0.51359 1.13855
 C1993 C 0.59172 0.52222 1.13128
 C1994 C 0.58202 0.54169 1.14334
 C1995 C 0.59481 0.55239 1.16002
 H1996 H 0.61058 0.54501 1.16533
 O1997 O 0.47795 0.38347 1.07905
 O1998 O 0.47831 0.35581 1.10390
 C1999 C 0.47021 0.36488 1.08625
 C2000 C 0.45119 0.35413 1.07426
 C2001 C 0.44428 0.33216 1.07974
 H2002 H 0.45332 0.32262 1.09240
 O2003 O 0.52213 0.60736 1.09035
 O2004 O 0.52330 0.63224 1.11792
 C2005 C 0.53033 0.62512 1.09895
 C2006 C 0.54931 0.63660 1.08749
 C2007 C 0.56087 0.65420 1.09831
 H2008 H 0.55492 0.66057 1.11437
 O2009 O 0.38533 0.42015 1.02466
 O2010 O 0.35838 0.39457 1.02439
 C2011 C 0.36691 0.41249 1.03237
 C2012 C 0.35540 0.42441 1.05095
 C2013 C 0.33302 0.41932 1.05634
 H2014 H 0.32420 0.40658 1.04671
 O2015 O 0.60994 0.57711 1.02567
 O2016 O 0.63643 0.60315 1.02535
 C2017 C 0.62862 0.58468 1.03288
 C2018 C 0.64080 0.57270 1.05113
 C2019 C 0.65897 0.58323 1.06195
 H2020 H 0.66497 0.59941 1.05596
 O2021 O 0.52447 0.57547 1.11953
 O2022 O 0.52621 0.60033 1.14709
 C2023 C 0.53374 0.58286 1.13737
 C2024 C 0.55412 0.57165 1.14620
 C2025 C 0.56766 0.58249 1.16240
 H2026 H 0.56277 0.59878 1.16890
 O2027 O 0.47868 0.41226 1.11183
 O2028 O 0.47897 0.38482 1.13698
 C2029 C 0.47151 0.40364 1.13014
 C2030 C 0.45428 0.41565 1.14350
 C2031 C 0.45043 0.41017 1.16628
 H2032 H 0.46021 0.39702 1.17425
 O2033 O 0.61310 0.51516 1.08194
 O2034 O 0.64011 0.51369 1.10736
 C2035 C 0.63163 0.52244 1.08973
 C2036 C 0.64254 0.54220 1.07892
 C2037 C 0.66085 0.55301 1.08942
 H2038 H 0.66799 0.54612 1.10476
 O2039 O 0.38784 0.47520 1.08802
 O2040 O 0.36210 0.47397 1.11485
 C2041 C 0.36932 0.46771 1.09567
 C2042 C 0.35640 0.45131 1.08205
 C2043 C 0.33388 0.44608 1.08721
 H2044 H 0.32554 0.45454 1.10105
 O2045 O 0.57937 0.60801 1.02929
 O2046 O 0.60610 0.63382 1.02931
 C2047 C 0.58819 0.62563 1.03769
 C2048 C 0.57806 0.63626 1.05789
 C2049 C 0.58958 0.65351 1.06925
 H2050 H 0.60552 0.65965 1.06279
 O2051 O 0.41550 0.38856 1.02287
 O2052 O 0.38872 0.36279 1.02318
 C2053 C 0.40762 0.37000 1.03014
 C2054 C 0.42053 0.35674 1.04689
 C2055 C 0.41413 0.33460 1.05229
 H2056 H 0.39979 0.32699 1.04398
 O2057 O 0.58203 0.47126 1.11266
 O2058 O 0.60864 0.46983 1.13853
 C2059 C 0.58996 0.46294 1.13074
 C2060 C 0.57751 0.44461 1.14227
 C2061 C 0.58402 0.43676 1.16372
 H2062 H 0.59783 0.44481 1.17250
 O2063 O 0.42084 0.51547 1.12122
 O2064 O 0.39579 0.51391 1.14869
 C2065 C 0.41397 0.52176 1.14053
 C2066 C 0.42722 0.53865 1.15325
 C2067 C 0.42249 0.54338 1.17604
 H2068 H 0.40926 0.53427 1.18476
 O2069 O 0.47842 0.60739 1.09359
 O2070 O 0.47915 0.63169 1.12167
 C2071 C 0.47067 0.62480 1.10325
 C2072 C 0.45107 0.63645 1.09323
 C2073 C 0.43874 0.65236 1.10577
 H2074 H 0.44400 0.65686 1.12269
 O2075 O 0.52222 0.38320 1.07872
 O2076 O 0.52282 0.35592 1.10401
 C2077 C 0.53059 0.36499 1.08618
 C2078 C 0.55048 0.35511 1.07480
 C2079 C 0.56386 0.33925 1.08622
 H2080 H 0.55888 0.33326 1.10278
 O2081 O 0.61050 0.41630 1.01765
 O2082 O 0.63668 0.39020 1.01483
 C2083 C 0.62879 0.40755 1.02443
 C2084 C 0.63999 0.41653 1.04479
 C2085 C 0.65612 0.40344 1.05613
 H2086 H 0.66166 0.38761 1.04903
 O2087 O 0.38966 0.58025 1.03380
 O2088 O 0.36336 0.60629 1.03546
 C2089 C 0.37184 0.58809 1.04266
 C2090 C 0.36159 0.57690 1.06250
 C2091 C 0.34582 0.58857 1.07565
 H2092 H 0.34031 0.60522 1.07062
 Cu2093 Cu 0.50016 0.40055 1.09240
 Cu2094 Cu 0.50057 0.36758 1.12256
 Cu2095 Cu 0.50112 0.58863 1.10359
 Cu2096 Cu 0.50272 0.61812 1.13700
 Cu2097 Cu 0.40238 0.40762 1.00183
 Cu2098 Cu 0.37038 0.37652 1.00194
 Cu2099 Cu 0.59129 0.40527 0.99554
 Cu2100 Cu 0.62270 0.37392 0.99235
 Cu2101 Cu 0.40729 0.59375 1.01146
 Cu2102 Cu 0.37548 0.62472 1.01364
 Cu2103 Cu 0.59065 0.59123 1.00539
 Cu2104 Cu 0.62246 0.62246 1.00531
 Cu2105 Cu 0.40721 0.49538 1.10161
 Cu2106 Cu 0.37672 0.49374 1.13425
 Cu2107 Cu 0.59475 0.49320 1.09445
 Cu2108 Cu 0.62699 0.49144 1.12520
 C2109 C 0.55937 0.43421 1.13121
 H2110 H 0.55441 0.43997 1.11459
 C2111 C 0.57257 0.41866 1.17396
 C2112 C 0.44458 0.55052 1.14231
 H2113 H 0.44805 0.54725 1.12466
 C2114 C 0.43524 0.55947 1.18781
 C2115 C 0.36940 0.55595 1.07010
 H2116 H 0.38215 0.54720 1.06045
 C2117 C 0.33809 0.57965 1.09611
 C2118 C 0.63219 0.43643 1.05489
 H2119 H 0.61943 0.44634 1.04649
 C2120 C 0.66352 0.40955 1.07769
 C2121 C 0.55792 0.36369 1.05390
 H2122 H 0.54807 0.37639 1.04531
 C2123 C 0.58471 0.33265 1.07735
 C2124 C 0.44313 0.62974 1.07188
 H2125 H 0.45206 0.61694 1.06247
 C2126 C 0.41850 0.66100 1.09725
 C2127 C 0.44175 0.43299 1.13353
 H2128 H 0.44468 0.43737 1.11601
 C2129 C 0.43419 0.42179 1.17895
 C2130 C 0.56154 0.55129 1.13665
 H2131 H 0.55174 0.54328 1.12349
 C2132 C 0.58833 0.57319 1.16896
 C2133 C 0.43927 0.36623 1.05774
 H2134 H 0.44427 0.38331 1.05371
 C2135 C 0.42595 0.32223 1.06863
 C2136 C 0.55785 0.62801 1.06707
 H2137 H 0.54926 0.61420 1.05881
 C2138 C 0.58117 0.66239 1.08947
 C2139 C 0.36688 0.44059 1.06373
 H2140 H 0.38428 0.44438 1.05976
 C2141 C 0.32196 0.43029 1.07417
 C2142 C 0.63282 0.55207 1.05962
 H2143 H 0.61837 0.54420 1.05177
 C2144 C 0.66881 0.57374 1.08126
 C2145 C 1.14596 1.12063 1.23107
 C2146 C 1.14192 1.13562 1.21383
 C2147 C 1.14764 1.15819 1.21499
 C2148 C 1.15718 1.16593 1.23506
 C2149 C 1.16107 1.15115 1.25363
 C2150 C 1.15631 1.12784 1.25108
 O2151 O 1.13695 1.10045 1.22727
 C2152 C 1.12698 1.10292 1.20730
 C2153 C 1.12968 1.12415 1.19841
 C2154 C 1.11927 1.13120 1.17865
 C2155 C 1.10531 1.11578 1.16761
 C2156 C 1.10192 1.09383 1.17645
 C2157 C 1.11325 1.08714 1.19639
 H2158 H 1.14400 1.16967 1.20127
 H2159 H 1.16131 1.18366 1.23620
 H2160 H 1.15839 1.11615 1.26497
 H2161 H 1.12141 1.14814 1.17224
 H2162 H 1.09693 1.12098 1.15223
 H2163 H 1.11068 1.07057 1.20361
 C2164 C 1.12380 0.61296 0.74878
 C2165 C 1.14138 0.60726 0.73485
 C2166 C 1.16370 0.61175 0.74009
 C2167 C 1.16813 0.62268 0.76054
 C2168 C 1.15033 0.62890 0.77525
 C2169 C 1.12780 0.62395 0.76920
 O2170 O 1.10386 0.60695 0.74060
 C2171 C 1.10903 0.59730 0.72106
 C2172 C 1.13177 0.59714 0.71679
 C2173 C 1.14101 0.58799 0.69736
 C2174 C 1.12622 0.57835 0.68174
 C2175 C 1.10266 0.57783 0.68583
 C2176 C 1.09394 0.58773 0.70573
 H2177 H 1.17723 0.60710 0.72878
 H2178 H 1.18540 0.62669 0.76473
 H2179 H 1.11389 0.62841 0.78011
 H2180 H 1.15896 0.58826 0.69432
 H2181 H 1.13316 0.57139 0.66636
 H2182 H 1.07609 0.58759 0.70934
 C2183 C 0.61208 1.11660 0.75676
 C2184 C 0.63098 1.11365 0.74367
 C2185 C 0.65255 1.11840 0.75132
 C2186 C 0.65480 1.12616 0.77352
 C2187 C 0.63567 1.12906 0.78756
 C2188 C 0.61393 1.12458 0.77890
 O2189 O 0.59331 1.11004 0.74651
 C2190 C 0.60056 1.10276 0.72658
 C2191 C 0.62348 1.10463 0.72405
 C2192 C 0.63482 1.09720 0.70496
 C2193 C 0.62203 1.08733 0.68774
 C2194 C 0.59835 1.08503 0.68988
 C2195 C 0.58745 1.09311 0.70955
 H2196 H 0.66716 1.11575 0.74074
 H2197 H 0.67150 1.12960 0.77997
 H2198 H 0.59910 1.12628 0.78938
 H2199 H 0.65291 1.09874 0.70346
 H2200 H 0.63057 1.08154 0.67269
 H2201 H 0.56945 1.09137 0.71175
 C2202 C 0.62894 0.62565 1.24217
 C2203 C 0.64579 0.61776 1.22847
 C2204 C 0.66842 0.62056 1.23336
 C2205 C 0.67400 0.63198 1.25325
 C2206 C 0.65700 0.64077 1.26776
 C2207 C 0.63404 0.63756 1.26177
 O2208 O 0.60850 0.62011 1.23499
 C2209 C 0.61260 0.60859 1.21625
 C2210 C 0.63517 0.60688 1.21146
 C2211 C 0.64338 0.59548 1.19280
 C2212 C 0.62769 0.58507 1.17863
 C2213 C 0.60427 0.58576 1.18356
 C2214 C 0.59665 0.59809 1.20251
 H2215 H 0.68137 0.61405 1.22231
 H2216 H 0.69166 0.63467 1.25672
 H2217 H 0.62043 0.64314 1.27251
 H2218 H 0.66122 0.59458 1.18929
 H2219 H 0.63388 0.57640 1.16382
 H2220 H 0.57897 0.59891 1.20682
 C2221 C 0.88137 0.85974 1.24114
 C2222 C 0.86437 0.86615 1.22681
 C2223 C 0.84187 0.86588 1.23298
 C2224 C 0.83661 0.85915 1.25500
 C2225 C 0.85370 0.85228 1.27034
 C2226 C 0.87642 0.85187 1.26288
 O2227 O 0.90173 0.86416 1.23289
 C2228 C 0.89742 0.87350 1.21294
 C2229 C 0.87477 0.87478 1.20837
 C2230 C 0.86621 0.88531 1.18931
 C2231 C 0.88157 0.89550 1.17459
 C2232 C 0.90498 0.89545 1.17933
 C2233 C 0.91309 0.88366 1.19846
 H2234 H 0.82887 0.87154 1.22154
 H2235 H 0.81909 0.85916 1.26002
 H2236 H 0.89000 0.84758 1.27425
 H2237 H 0.84830 0.88624 1.18623
 H2238 H 0.87515 0.90412 1.15981
 H2239 H 0.93080 0.88368 1.20267
 C2240 C 0.87660 0.37877 0.74613
 C2241 C 0.88039 0.36063 0.73233
 C2242 C 0.87513 0.33874 0.73849
 C2243 C 0.86580 0.33529 0.75991
 C2244 C 0.86173 0.35364 0.77490
 C2245 C 0.86691 0.37583 0.76743
 O2246 O 0.88387 0.39806 0.73732
 C2247 C 0.89237 0.39186 0.71754
 C2248 C 0.89053 0.36913 0.71369
 C2249 C 0.89871 0.35882 0.69436
 C2250 C 0.90940 0.37249 0.67832
 C2251 C 0.91198 0.39599 0.68197
 C2252 C 0.90306 0.40582 0.70182
 H2253 H 0.87828 0.32475 0.72726
 H2254 H 0.86119 0.31823 0.76440
 H2255 H 0.86480 0.39033 0.77824
 H2256 H 0.89700 0.34088 0.69174
 H2257 H 0.91561 0.36475 0.66301
 H2258 H 0.90488 0.42363 0.70519
 C2259 C 0.38659 0.86876 0.74580
 C2260 C 0.36954 0.87014 0.73016
 C2261 C 0.34738 0.86443 0.73505
 C2262 C 0.34249 0.85732 0.75708
 C2263 C 0.35966 0.85601 0.77361
 C2264 C 0.38212 0.86143 0.76782
 O2265 O 0.40612 0.87653 0.73804
 C2266 C 0.40123 0.88301 0.71712
 C2267 C 0.37905 0.87943 0.71153
 C2268 C 0.36984 0.88629 0.69111
 C2269 C 0.38400 0.89752 0.67587
 C2270 C 0.40689 0.90163 0.68124
 C2271 C 0.41574 0.89393 0.70203
 H2272 H 0.33422 0.86602 0.72255
 H2273 H 0.32525 0.85336 0.76150
 H2274 H 0.39536 0.86106 0.78035
 H2275 H 0.35225 0.88357 0.68727
 H2276 H 0.37711 0.90329 0.65997
 H2277 H 0.43305 0.89723 0.70665
 C2278 C 0.39543 0.40316 1.26804
 C2279 C 0.41837 0.40472 1.27026
 C2280 C 0.42937 0.40053 1.29044
 C2281 C 0.41631 0.39367 1.30893
 C2282 C 0.39252 0.39078 1.30706
 C2283 C 0.38200 0.39658 1.28627
 O2284 O 0.38845 0.40685 1.24706
 C2285 C 0.40744 0.41072 1.23585
 C2286 C 0.42624 0.40955 1.24928
 C2287 C 0.44795 0.41185 1.24082
 C2288 C 0.45039 0.41566 1.21756
 C2289 C 0.43126 0.41714 1.20334
 C2290 C 0.40946 0.41470 1.21271
 H2291 H 0.44746 0.40205 1.29182
 H2292 H 0.42496 0.39069 1.32470
 H2293 H 0.36417 0.39420 1.28354
 H2294 H 0.46250 0.41058 1.25171
 H2295 H 0.46714 0.41771 1.21065
 H2296 H 0.39458 0.41545 1.20222
 C2297 C 0.88507 1.09526 0.73753
 C2298 C 0.90776 1.09176 0.73513
 C2299 C 0.91942 1.09700 0.71551
 C2300 C 0.90733 1.10671 0.69772
 C2301 C 0.88381 1.11109 0.69963
 C2302 C 0.87253 1.10450 0.71984
 O2303 O 0.87761 1.09070 0.75823
 C2304 C 0.89605 1.08422 0.76909
 C2305 C 0.91492 1.08451 0.75563
 C2306 C 0.93629 1.07978 0.76376
 C2307 C 0.93838 1.07482 0.78680
 C2308 C 0.91929 1.07477 0.80123
 C2309 C 0.89772 1.07913 0.79211
 H2310 H 0.93734 1.09417 0.71410
 H2311 H 0.91645 1.11052 0.68236
 H2312 H 0.85491 1.10807 0.72260
 H2313 H 0.95091 1.08039 0.75288
 H2314 H 0.95495 1.07136 0.79353
 H2315 H 0.88295 1.07962 0.80280
 C2316 C 0.88982 0.60308 0.24271
 C2317 C 0.91231 0.59909 0.23917
 C2318 C 0.92282 0.60295 0.21855
 C2319 C 0.90968 0.61158 0.20092
 C2320 C 0.88651 0.61638 0.20420
 C2321 C 0.87641 0.61170 0.22539
 O2322 O 0.88333 0.59894 0.26379
 C2323 C 0.90218 0.59228 0.27377
 C2324 C 0.92040 0.59216 0.25944
 C2325 C 0.94201 0.58683 0.26657
 C2326 C 0.94497 0.58147 0.28945
 C2327 C 0.92645 0.58138 0.30458
 C2328 C 0.90469 0.58668 0.29654
 H2329 H 0.94057 0.59970 0.21620
 H2330 H 0.91762 0.61471 0.18475
 H2331 H 0.85890 0.61548 0.22859
 H2332 H 0.95612 0.58709 0.25502
 H2333 H 0.96167 0.57736 0.29543
 H2334 H 0.89034 0.58706 0.30781
 C2335 C 0.37705 1.13551 0.25856
 C2336 C 0.36000 1.13316 0.27406
 C2337 C 0.33775 1.13801 0.26918
 C2338 C 0.33271 1.14523 0.24727
 C2339 C 0.34983 1.14755 0.23048
 C2340 C 0.37252 1.14313 0.23668
 O2341 O 0.39678 1.12839 0.26628
 C2342 C 0.39199 1.12141 0.28708
 C2343 C 0.36970 1.12407 0.29263
 C2344 C 0.36060 1.11675 0.31298
 C2345 C 0.37501 1.10592 0.32815
 C2346 C 0.39801 1.10253 0.32274
 C2347 C 0.40673 1.11079 0.30206
 H2348 H 0.32463 1.13593 0.28170
 H2349 H 0.31538 1.14938 0.24366
 H2350 H 0.38610 1.14391 0.22453
 H2351 H 0.34293 1.11886 0.31683
 H2352 H 0.36820 1.09987 0.34402
 H2353 H 0.42413 1.10811 0.29739
 C2354 C 0.39186 0.60318 0.74104
 C2355 C 0.41487 0.60169 0.73922
 C2356 C 0.42659 0.60837 0.72002
 C2357 C 0.41410 0.61695 0.70189
 C2358 C 0.39033 0.61868 0.70323
 C2359 C 0.37907 0.61152 0.72312
 O2360 O 0.38416 0.59672 0.76112
 C2361 C 0.40273 0.59103 0.77220
 C2362 C 0.42193 0.59372 0.75948
 C2363 C 0.44331 0.58953 0.76789
 C2364 C 0.44503 0.58265 0.79046
 C2365 C 0.42556 0.58017 0.80417
 C2366 C 0.40404 0.58404 0.79474
 H2367 H 0.44473 0.60717 0.71907
 H2368 H 0.42293 0.62209 0.68672
 H2369 H 0.36099 0.61288 0.72474
 H2370 H 0.45817 0.59186 0.75756
 H2371 H 0.46158 0.57956 0.79739
 H2372 H 0.38893 0.58260 0.80488
 C2373 C 1.08902 0.88902 0.73578
 C2374 C 1.08539 0.91126 0.73042
 C2375 C 1.09203 0.92071 0.70998
 C2376 C 1.10332 0.90680 0.69463
 C2377 C 1.10777 0.88395 0.69994
 C2378 C 1.10002 0.87480 0.72061
 O2379 O 1.08294 0.88387 0.75675
 C2380 C 1.07544 0.90329 0.76482
 C2381 C 1.07661 0.92058 0.74937
 C2382 C 1.07134 0.94271 0.75477
 C2383 C 1.06477 0.94725 0.77706
 C2384 C 1.06351 0.92974 0.79332
 C2385 C 1.06861 0.90738 0.78699
 H2386 H 1.08930 0.93833 0.70630
 H2387 H 1.10925 0.91397 0.67887
 H2388 H 1.10375 0.85760 0.72533
 H2389 H 1.07281 0.95609 0.74243
 H2390 H 1.06093 0.96441 0.78176
 H2391 H 1.06830 0.89382 0.79923
 C2392 C 1.12790 0.38396 0.25489
 C2393 C 1.12781 0.36905 0.27268
 C2394 C 1.13640 0.34738 0.27107
 C2395 C 1.14523 0.34071 0.25017
 C2396 C 1.14526 0.35566 0.23144
 C2397 C 1.13672 0.37772 0.23400
 O2398 O 1.11790 0.40333 0.25965
 C2399 C 1.11129 0.40056 0.28089
 C2400 C 1.11696 0.37986 0.28962
 C2401 C 1.11078 0.37294 0.31117
 C2402 C 1.09795 0.38782 0.32417
 C2403 C 1.09177 0.40919 0.31550
 C2404 C 1.09881 0.41581 0.29368
 H2405 H 1.13595 0.33589 0.28527
 H2406 H 1.15184 0.32383 0.24848
 H2407 H 1.13609 0.38934 0.21991
 H2408 H 1.11544 0.35658 0.31762
 H2409 H 1.09274 0.38277 0.34096
 H2410 H 1.09410 0.43196 0.28669
 C2411 C 0.59473 0.88660 0.24042
 C2412 C 0.59490 0.90925 0.23573
 C2413 C 0.60552 0.91829 0.21692
 C2414 C 0.61691 0.90348 0.20258
 C2415 C 0.61747 0.87989 0.20701
 C2416 C 0.60540 0.87138 0.22598
 O2417 O 0.58558 0.88180 0.26036
 C2418 C 0.57988 0.90188 0.26836
 C2419 C 0.58511 0.91919 0.25383
 C2420 C 0.58213 0.94170 0.25935
 C2421 C 0.57374 0.94662 0.28090
 C2422 C 0.56874 0.92915 0.29652
 C2423 C 0.57142 0.90640 0.28992
 H2424 H 0.60564 0.93623 0.21375
 H2425 H 0.62519 0.91054 0.18788
 H2426 H 0.60592 0.85376 0.23058
 H2427 H 0.58666 0.95502 0.24770
 H2428 H 0.57161 0.96408 0.28562
 H2429 H 0.56826 0.89274 0.30164
 C2430 C 0.61730 0.38600 0.74984
 C2431 C 0.61280 0.36838 0.76427
 C2432 C 0.61608 0.34599 0.75839
 C2433 C 0.62437 0.34154 0.73670
 C2434 C 0.62938 0.35938 0.72159
 C2435 C 0.62597 0.38195 0.72830
 O2436 O 0.61173 0.40589 0.75838
 C2437 C 0.60358 0.40069 0.77864
 C2438 C 0.60405 0.37795 0.78305
 C2439 C 0.59578 0.36858 0.80287
 C2440 C 0.58618 0.38318 0.81865
 C2441 C 0.58471 0.40665 0.81430
 C2442 C 0.59404 0.41560 0.79417
 H2443 H 0.61210 0.33243 0.76996
 H2444 H 0.62699 0.32424 0.73164
 H2445 H 0.62943 0.39580 0.71689
 H2446 H 0.59637 0.35063 0.80592
 H2447 H 0.57950 0.37612 0.83416
 H2448 H 0.59297 0.43338 0.79032
 C2449 C 1.23983 1.11816 1.12556
 C2450 C 1.22476 1.13506 1.12092
 C2451 C 1.22945 1.15768 1.12472
 C2452 C 1.25063 1.16313 1.13358
 C2453 C 1.26638 1.14601 1.13861
 C2454 C 1.26084 1.12319 1.13478
 O2455 O 1.23259 1.09795 1.11927
 C2456 C 1.21251 1.10220 1.11046
 C2457 C 1.20692 1.12464 1.11122
 C2458 C 1.18715 1.13306 1.10214
 C2459 C 1.17271 1.11780 1.09147
 C2460 C 1.17832 1.09463 1.08981
 C2461 C 1.19833 1.08665 1.09991
 H2462 H 1.21743 1.17069 1.12057
 H2463 H 1.25488 1.18063 1.13642
 H2464 H 1.27282 1.10991 1.13814
 H2465 H 1.18317 1.15080 1.10289
 H2466 H 1.15726 1.12408 1.08416
 H2467 H 1.20314 1.06914 1.09871
 C2468 C 1.26271 0.60253 0.60109
 C2469 C 1.26594 0.57972 0.59905
 C2470 C 1.28548 0.56905 0.60611
 C2471 C 1.30244 0.58243 0.61564
 C2472 C 1.29964 0.60603 0.61787
 C2473 C 1.27948 0.61622 0.61033
 O2474 O 1.24251 0.60912 0.59416
 C2475 C 1.23283 0.59004 0.58759
 C2476 C 1.24652 0.57160 0.59017
 C2477 C 1.23964 0.54987 0.58500
 C2478 C 1.21758 0.54692 0.57722
 C2479 C 1.20283 0.56555 0.57489
 C2480 C 1.21077 0.58750 0.57978
 H2481 H 1.28754 0.55103 0.60448
 H2482 H 1.31785 0.57445 0.62111
 H2483 H 1.27678 0.63415 0.61203
 H2484 H 1.25073 0.53563 0.58721
 H2485 H 1.21186 0.53006 0.57330
 H2486 H 1.19985 0.60199 0.57848
 C2487 C 0.74997 1.11142 0.62645
 C2488 C 0.73652 1.12952 0.62155
 C2489 C 0.74374 1.15163 0.62361
 C2490 C 0.76593 1.15533 0.63058
 C2491 C 0.78048 1.13702 0.63577
 C2492 C 0.77192 1.11468 0.63428
 O2493 O 0.74053 1.09181 0.62112
 C2494 C 0.72068 1.09774 0.61272
 C2495 C 0.71739 1.12064 0.61286
 C2496 C 0.69842 1.13076 0.60382
 C2497 C 0.68230 1.11677 0.59384
 C2498 C 0.68554 1.09311 0.59263
 C2499 C 0.70483 1.08342 0.60273
 H2500 H 0.73289 1.16558 0.61930
 H2501 H 0.77162 1.17257 0.63215
 H2502 H 0.78252 1.10020 0.63723
 H2503 H 0.69630 1.14884 0.60405
 H2504 H 0.66742 1.12444 0.58669
 H2505 H 0.70793 1.06551 0.60184
 C2506 C 0.75197 0.60449 1.12450
 C2507 C 0.73676 0.62190 1.12461
 C2508 C 0.74239 0.64364 1.13113
 C2509 C 0.76473 0.64774 1.13748
 C2510 C 0.78084 0.63020 1.13729
 C2511 C 0.77427 0.60815 1.13109
 O2512 O 0.74346 0.58550 1.11624
 C2513 C 0.72248 0.59108 1.11098
 C2514 C 0.71757 0.61317 1.11581
 C2515 C 0.69709 0.62302 1.11050
 C2516 C 0.68104 0.60964 1.09953
 C2517 C 0.68570 0.58688 1.09407
 C2518 C 0.70661 0.57735 1.10024
 H2519 H 0.73019 0.65711 1.13075
 H2520 H 0.76965 0.66467 1.14213
 H2521 H 0.78639 0.59461 1.13032
 H2522 H 0.69373 0.64050 1.11428
 H2523 H 0.66503 0.61706 1.09509
 H2524 H 0.71069 0.56013 1.09599
 C2525 C 1.25278 0.88968 0.89047
 C2526 C 1.25560 0.91247 0.88773
 C2527 C 1.27414 0.92179 0.87693
 C2528 C 1.29032 0.90703 0.86827
 C2529 C 1.28799 0.88323 0.87066
 C2530 C 1.26897 0.87464 0.88254
 O2531 O 1.23314 0.88428 0.89978
 C2532 C 1.22343 0.90412 0.90302
 C2533 C 1.23658 0.92190 0.89607
 C2534 C 1.22944 0.94411 0.89710
 C2535 C 1.20775 0.94817 0.90541
 C2536 C 1.19349 0.93013 0.91216
 C2537 C 1.20170 0.90776 0.91122
 H2538 H 1.27589 0.93980 0.87484
 H2539 H 1.30490 0.91435 0.86010
 H2540 H 1.26590 0.85675 0.88419
 H2541 H 1.24010 0.95781 0.89147
 H2542 H 1.20201 0.96541 0.90641
 H2543 H 1.19121 0.89356 0.91584
 C2544 C 1.25312 0.39198 0.37071
 C2545 C 1.23942 0.37350 0.37333
 C2546 C 1.24730 0.35158 0.37212
 C2547 C 1.27033 0.34849 0.36830
 C2548 C 1.28508 0.36718 0.36518
 C2549 C 1.27600 0.38931 0.36584
 O2550 O 1.24270 0.41126 0.37515
 C2551 C 1.22196 0.40475 0.38060
 C2552 C 1.21909 0.38181 0.37940
 C2553 C 1.19922 0.37108 0.38550
 C2554 C 1.18176 0.38445 0.39383
 C2555 C 1.18454 0.40806 0.39645
 C2556 C 1.20474 0.41845 0.38904
 H2557 H 1.23622 0.33733 0.37476
 H2558 H 1.27653 0.33141 0.36738
 H2559 H 1.28667 0.40404 0.36443
 H2560 H 1.19744 0.35298 0.38448
 H2561 H 1.16628 0.37627 0.39900
 H2562 H 1.20750 0.43634 0.39115
 C2563 C 0.75131 0.88681 0.38956
 C2564 C 0.75606 0.90949 0.38954
 C2565 C 0.77585 0.91836 0.38067
 C2566 C 0.79126 0.90326 0.37119
 C2567 C 0.78670 0.87981 0.37084
 C2568 C 0.76655 0.87146 0.38047
 O2569 O 0.73103 0.88203 0.39770
 C2570 C 0.72282 0.90212 0.40292
 C2571 C 0.73750 0.91946 0.39829
 C2572 C 0.73200 0.94194 0.40152
 C2573 C 0.71039 0.94676 0.40968
 C2574 C 0.69478 0.92922 0.41432
 C2575 C 0.70127 0.90653 0.41111
 H2576 H 0.77909 0.93629 0.38062
 H2577 H 0.80667 0.90981 0.36389
 H2578 H 0.76247 0.85369 0.38003
 H2579 H 0.74379 0.95529 0.39761
 H2580 H 0.70577 0.96418 0.41227
 H2581 H 0.68963 0.89280 0.41408
 C2582 C 0.75069 0.39030 0.88812
 C2583 C 0.75494 0.41303 0.88906
 C2584 C 0.77462 0.42264 0.88066
 C2585 C 0.79059 0.40819 0.87095
 C2586 C 0.78662 0.38466 0.86990
 C2587 C 0.76631 0.37568 0.87866
 O2588 O 0.73068 0.38462 0.89631
 C2589 C 0.72207 0.40420 0.90260
 C2590 C 0.73625 0.42211 0.89858
 C2591 C 0.73031 0.44421 0.90326
 C2592 C 0.70875 0.44801 0.91212
 C2593 C 0.69364 0.42984 0.91603
 C2594 C 0.70062 0.40758 0.91149
 H2595 H 0.77753 0.44061 0.88144
 H2596 H 0.80610 0.41528 0.86445
 H2597 H 0.76258 0.35786 0.87773
 H2598 H 0.74170 0.45805 0.89990
 H2599 H 0.70372 0.46514 0.91570
 H2600 H 0.68937 0.39341 0.91392
 C2601 C 0.75280 0.87324 1.12100
 C2602 C 0.76749 0.87631 1.13867
 C2603 C 0.76163 0.87225 1.16105
 C2604 C 0.73968 0.86474 1.16542
 C2605 C 0.72431 0.86127 1.14750
 C2606 C 0.73098 0.86539 1.12494
 O2607 O 0.76137 0.87940 1.10119
 C2608 C 0.78190 0.88649 1.10649
 C2609 C 0.78647 0.88480 1.12921
 C2610 C 0.80659 0.89198 1.13868
 C2611 C 0.82251 0.90174 1.12421
 C2612 C 0.81802 0.90437 1.10079
 C2613 C 0.79757 0.89615 1.09174
 H2614 H 0.77340 0.87513 1.17468
 H2615 H 0.73458 0.86162 1.18271
 H2616 H 0.71936 0.86313 1.11107
 H2617 H 0.80976 0.89049 1.15661
 H2618 H 0.83824 0.90762 1.13132
 H2619 H 0.79360 0.89816 1.07401
 C2620 C 0.75223 0.37091 0.61387
 C2621 C 0.76707 0.37296 0.63151
 C2622 C 0.76125 0.36834 0.65370
 C2623 C 0.73910 0.36161 0.65805
 C2624 C 0.72306 0.35941 0.64028
 C2625 C 0.73016 0.36367 0.61769
 O2626 O 0.76080 0.37786 0.59430
 C2627 C 0.78148 0.38439 0.59979
 C2628 C 0.78613 0.38156 0.62236
 C2629 C 0.80626 0.38824 0.63214
 C2630 C 0.82219 0.39865 0.61816
 C2631 C 0.81768 0.40240 0.59491
 C2632 C 0.79718 0.39471 0.58549
 H2633 H 0.77325 0.37025 0.66730
 H2634 H 0.73473 0.35764 0.67535
 H2635 H 0.71855 0.36297 0.60365
 H2636 H 0.80942 0.38594 0.64998
 H2637 H 0.83793 0.40413 0.62552
 H2638 H 0.79318 0.39761 0.56789
 C2639 C 0.24799 0.88095 0.61644
 C2640 C 0.25959 0.88948 0.63455
 C2641 C 0.25044 0.89102 0.65605
 C2642 C 0.22836 0.88339 0.65910
 C2643 C 0.21606 0.87363 0.64094
 C2644 C 0.22634 0.87217 0.61930
 O2645 O 0.25911 0.88311 0.59704
 C2646 C 0.27821 0.89306 0.60317
 C2647 C 0.27940 0.89688 0.62603
 C2648 C 0.29765 0.90717 0.63627
 C2649 C 0.31519 0.91449 0.62232
 C2650 C 0.31386 0.91232 0.59842
 C2651 C 0.29531 0.90076 0.58879
 H2652 H 0.25982 0.89826 0.66992
 H2653 H 0.22123 0.88432 0.67590
 H2654 H 0.21735 0.86556 0.60486
 H2655 H 0.29830 0.90965 0.65436
 H2656 H 0.32962 0.92231 0.63023
 H2657 H 0.29368 0.89880 0.57070
 C2658 C 0.24071 0.39773 1.11936
 C2659 C 0.23686 0.39803 1.09649
 C2660 C 0.21869 0.38720 1.08658
 C2661 C 0.20404 0.37523 1.10077
 C2662 C 0.20744 0.37459 1.12458
 C2663 C 0.22585 0.38669 1.13393
 O2664 O 0.26034 0.40682 1.12502
 C2665 C 0.26901 0.41303 1.10528
 C2666 C 0.25515 0.40826 1.08734
 C2667 C 0.26138 0.41200 1.06504
 C2668 C 0.28301 0.42051 1.06100
 C2669 C 0.29812 0.42463 1.07912
 C2670 C 0.29071 0.42138 1.10165
 H2671 H 0.21629 0.38730 1.06847
 H2672 H 0.18988 0.36669 1.09310
 H2673 H 0.22970 0.38597 1.15178
 H2674 H 0.25022 0.40795 1.05120
 H2675 H 0.28821 0.42329 1.04369
 H2676 H 0.30192 0.42387 1.11582
 C2677 C 0.73049 1.10772 0.91643
 C2678 C 0.72898 1.08467 0.91532
 C2679 C 0.71193 1.07358 0.90383
 C2680 C 0.69589 1.08674 0.89272
 C2681 C 0.69665 1.11067 0.89375
 C2682 C 0.71399 1.12122 0.90646
 O2683 O 0.74964 1.11481 0.92565
 C2684 C 0.76034 1.09579 0.93051
 C2685 C 0.74818 1.07691 0.92481
 C2686 C 0.75654 1.05525 0.92702
 C2687 C 0.77862 1.05289 0.93478
 C2688 C 0.79213 1.07205 0.93960
 C2689 C 0.78255 1.09383 0.93813
 H2690 H 0.71148 1.05540 0.90271
 H2691 H 0.68265 1.07818 0.88355
 H2692 H 0.71574 1.13935 0.90694
 H2693 H 0.74666 1.04069 0.92228
 H2694 H 0.78552 1.03611 0.93619
 H2695 H 0.79253 1.10877 0.94124
 C2696 C 0.76113 0.63155 0.37773
 C2697 C 0.77590 0.64832 0.38380
 C2698 C 0.77198 0.67095 0.37932
 C2699 C 0.75201 0.67651 0.36807
 C2700 C 0.73652 0.65951 0.36155
 C2701 C 0.74124 0.63669 0.36647
 O2702 O 0.76781 0.61118 0.38397
 C2703 C 0.78724 0.61518 0.39421
 C2704 C 0.79295 0.63763 0.39452
 C2705 C 0.81241 0.64566 0.40466
 C2706 C 0.82644 0.62992 0.41516
 C2707 C 0.82079 0.60666 0.41542
 C2708 C 0.80100 0.59919 0.40450
 H2709 H 0.78385 0.68384 0.38434
 H2710 H 0.74873 0.69401 0.36419
 H2711 H 0.72963 0.62337 0.36197
 H2712 H 0.81655 0.66340 0.40464
 H2713 H 0.84174 0.63584 0.42310
 H2714 H 0.79619 0.58160 0.40455
 C2715 C 0.26149 1.12996 0.36873
 C2716 C 0.27507 1.14690 0.37670
 C2717 C 0.27092 1.16947 0.37278
 C2718 C 0.25170 1.17498 0.36045
 C2719 C 0.23692 1.15802 0.35197
 C2720 C 0.24244 1.13501 0.35574
 O2721 O 0.26803 1.10966 0.37560
 C2722 C 0.28613 1.11404 0.38809
 C2723 C 0.29113 1.13659 0.38909
 C2724 C 0.30901 1.14520 0.40140
 C2725 C 0.32233 1.12995 0.41336
 C2726 C 0.31742 1.10652 0.41325
 C2727 C 0.29911 1.09846 0.40012
 H2728 H 0.28193 1.18245 0.37929
 H2729 H 0.24876 1.19263 0.35710
 H2730 H 0.23159 1.12152 0.35006
 H2731 H 0.31260 1.16307 0.40177
 H2732 H 0.33663 1.13649 0.42258
 H2733 H 0.29484 1.08075 0.39966
 C2734 C 0.25548 0.62367 0.88358
 C2735 C 0.26853 0.64111 0.89129
 C2736 C 0.26237 0.66349 0.88907
 C2737 C 0.24192 0.66816 0.87835
 C2738 C 0.22799 0.65054 0.86977
 C2739 C 0.23522 0.62787 0.87255
 O2740 O 0.26406 0.60356 0.88817
 C2741 C 0.28302 0.60849 0.89893
 C2742 C 0.28656 0.63126 0.90112
 C2743 C 0.30523 0.64026 0.91190
 C2744 C 0.32073 0.62517 0.92114
 C2745 C 0.31721 0.60152 0.91978
 C2746 C 0.29820 0.59310 0.90813
 H2747 H 0.27298 0.67693 0.89534
 H2748 H 0.23763 0.68568 0.87595
 H2749 H 0.22507 0.61373 0.86717
 H2750 H 0.30773 0.65826 0.91324
 H2751 H 0.33548 0.63194 0.92945
 H2752 H 0.29498 0.57521 0.90686
 C2753 C 1.12073 1.23939 1.13091
 C2754 C 1.13825 1.22529 1.12555
 C2755 C 1.16069 1.23128 1.12840
 C2756 C 1.16527 1.25278 1.13696
 C2757 C 1.14752 1.26761 1.14261
 C2758 C 1.12492 1.26072 1.13984
 O2759 O 1.10075 1.23101 1.12542
 C2760 C 1.10577 1.21122 1.11638
 C2761 C 1.12850 1.20690 1.11617
 C2762 C 1.13763 1.18771 1.10652
 C2763 C 1.12278 1.17249 1.09631
 C2764 C 1.09929 1.17676 1.09577
 C2765 C 1.09065 1.19623 1.10637
 H2766 H 1.17417 1.22002 1.12371
 H2767 H 1.18260 1.25803 1.13901
 H2768 H 1.11113 1.27196 1.14363
 H2769 H 1.15559 1.18478 1.10645
 H2770 H 1.12960 1.15750 1.08855
 H2771 H 1.07287 1.20007 1.10595
 C2772 C 1.11156 0.74972 0.62262
 C2773 C 1.12938 0.73504 0.62353
 C2774 C 1.15072 0.74140 0.63058
 C2775 C 1.15393 0.76389 0.63680
 C2776 C 1.13598 0.77958 0.63572
 C2777 C 1.11438 0.77225 0.62878
 O2778 O 1.09289 0.74032 0.61465
 C2779 C 1.09913 0.71929 0.61037
 C2780 C 1.12132 0.71527 0.61551
 C2781 C 1.13176 0.69479 0.61140
 C2782 C 1.11886 0.67780 0.60136
 C2783 C 1.09598 0.68150 0.59579
 C2784 C 1.08586 0.70245 0.60065
 H2785 H 1.16447 0.72951 0.63108
 H2786 H 1.17045 0.76911 0.64246
 H2787 H 1.10042 0.78384 0.62755
 H2788 H 1.14931 0.69215 0.61538
 H2789 H 1.12669 0.66178 0.59771
 H2790 H 1.06851 0.70575 0.59624
 C2791 C 0.61440 1.25966 0.59745
 C2792 C 0.59183 1.26361 0.59426
 C2793 C 0.58157 1.28370 0.60031
 C2794 C 0.59501 1.30022 0.61055
 C2795 C 0.61820 1.29636 0.61458
 C2796 C 0.62812 1.27596 0.60742
 O2797 O 0.62047 1.23888 0.59200
 C2798 C 0.60131 1.22948 0.58534
 C2799 C 0.58328 1.24390 0.58644
 C2800 C 0.56135 1.23709 0.58192
 C2801 C 0.55784 1.21447 0.57616
 C2802 C 0.57614 1.19925 0.57495
 C2803 C 0.59823 1.20698 0.57931
 H2804 H 0.56373 1.28630 0.59791
 H2805 H 0.58723 1.31576 0.61596
 H2806 H 0.64562 1.27231 0.61085
 H2807 H 0.54739 1.24864 0.58329
 H2808 H 0.54087 1.20870 0.57285
 H2809 H 0.61241 1.19559 0.57899
 C2810 C 0.61396 0.74267 1.13616
 C2811 C 0.63049 0.72654 1.13688
 C2812 C 0.65181 0.73063 1.14554
 C2813 C 0.65647 0.75240 1.15332
 C2814 C 0.63999 0.76961 1.15213
 C2815 C 0.61823 0.76448 1.14387
 O2816 O 0.59519 0.73552 1.12634
 C2817 C 0.60005 0.71448 1.12063
 C2818 C 0.62149 0.70822 1.12663
 C2819 C 0.63062 0.68744 1.12108
 C2820 C 0.61709 0.67248 1.10881
 C2821 C 0.59488 0.67846 1.10254
 C2822 C 0.58616 0.69968 1.10873
 H2823 H 0.66455 0.71768 1.14582
 H2824 H 0.67310 0.75600 1.15983
 H2825 H 0.60545 0.77733 1.14237
 H2826 H 0.64765 0.68304 1.12571
 H2827 H 0.62384 0.65621 1.10419
 H2828 H 0.56935 0.70470 1.10387
 C2829 C 0.87444 1.24770 0.88323
 C2830 C 0.85662 1.23420 0.88937
 C2831 C 0.83432 1.24076 0.88703
 C2832 C 0.83020 1.26210 0.87781
 C2833 C 0.84828 1.27618 0.87102
 C2834 C 0.87072 1.26884 0.87378
 O2835 O 0.89431 1.23856 0.88759
 C2836 C 0.88892 1.21882 0.89664
 C2837 C 0.86606 1.21533 0.89796
 C2838 C 0.85663 1.19596 0.90707
 C2839 C 0.87133 1.17969 0.91559
 C2840 C 0.89501 1.18314 0.91515
 C2841 C 0.90391 1.20286 0.90509
 H2842 H 0.82060 1.22988 0.89217
 H2843 H 0.81297 1.26753 0.87559
 H2844 H 0.88481 1.27938 0.86892
 H2845 H 0.83859 1.19355 0.90780
 H2846 H 0.86425 1.16446 0.92277
 H2847 H 0.92184 1.20605 0.90464
 C2848 C 0.88179 0.74827 0.38252
 C2849 C 0.86426 0.73432 0.38851
 C2850 C 0.84186 0.73978 0.38485
 C2851 C 0.83728 0.76058 0.37473
 C2852 C 0.85500 0.77534 0.36838
 C2853 C 0.87762 0.76898 0.37209
 O2854 O 0.90176 0.74019 0.38844
 C2855 C 0.89667 0.72074 0.39837
 C2856 C 0.87394 0.71640 0.39873
 C2857 C 0.86471 0.69737 0.40875
 C2858 C 0.87949 0.68223 0.41907
 C2859 C 0.90303 0.68642 0.41943
 C2860 C 0.91176 0.70585 0.40857
 H2861 H 0.82837 0.72857 0.38990
 H2862 H 0.81993 0.76525 0.37182
 H2863 H 0.89141 0.78007 0.36763
 H2864 H 0.84675 0.69437 0.40880
 H2865 H 0.87256 0.66723 0.42685
 H2866 H 0.92959 0.70956 0.40867
 C2867 C 0.39153 1.26648 0.40961
 C2868 C 0.41279 1.27117 0.41748
 C2869 C 0.42248 1.29242 0.41599
 C2870 C 0.40993 1.30945 0.40557
 C2871 C 0.38821 1.30495 0.39663
 C2872 C 0.37874 1.28318 0.39914
 O2873 O 0.38587 1.24496 0.41182
 C2874 C 0.40400 1.23587 0.42116
 C2875 C 0.42099 1.25119 0.42487
 C2876 C 0.44200 1.24507 0.43312
 C2877 C 0.44567 1.22220 0.43766
 C2878 C 0.42837 1.20614 0.43415
 C2879 C 0.40716 1.21309 0.42599
 H2880 H 0.43927 1.29568 0.42224
 H2881 H 0.41731 1.32606 0.40408
 H2882 H 0.36242 1.27907 0.39216
 H2883 H 0.45522 1.25738 0.43553
 H2884 H 0.46196 1.21691 0.44383
 H2885 H 0.39386 1.20103 0.42279
 C2886 C 0.37769 0.74839 0.88381
 C2887 C 0.36000 0.73481 0.89018
 C2888 C 0.33765 0.74076 0.88691
 C2889 C 0.33332 0.76163 0.87672
 C2890 C 0.35122 0.77596 0.86992
 C2891 C 0.37376 0.76911 0.87337
 O2892 O 0.39762 0.73992 0.88927
 C2893 C 0.39238 0.72057 0.89928
 C2894 C 0.36958 0.71665 0.90017
 C2895 C 0.36029 0.69768 0.91029
 C2896 C 0.37507 0.68221 0.92015
 C2897 C 0.39870 0.68600 0.91996
 C2898 C 0.40745 0.70536 0.90902
 H2899 H 0.32403 0.72985 0.89222
 H2900 H 0.31602 0.76662 0.87404
 H2901 H 0.38773 0.77984 0.86861
 H2902 H 0.34228 0.69495 0.91071
 H2903 H 0.36808 0.66727 0.92799
 H2904 H 0.42534 0.70880 0.90870
 C2905 C 1.11959 0.75691 0.87380
 C2906 C 1.11435 0.77049 0.85575
 C2907 C 1.11866 0.76448 0.83350
 C2908 C 1.12887 0.74360 0.82968
 C2909 C 1.13454 0.72925 0.84799
 C2910 C 1.12982 0.73611 0.87039
 O2911 O 1.11368 0.76565 0.89355
 C2912 C 1.10453 0.78520 0.88782
 C2913 C 1.10459 0.78894 0.86489
 C2914 C 1.09560 0.80814 0.85510
 C2915 C 1.08589 0.82405 0.86952
 C2916 C 1.08523 0.82048 0.89325
 C2917 C 1.09500 0.80086 0.90253
 H2918 H 1.11433 0.77547 0.81958
 H2919 H 1.13267 0.73875 0.81248
 H2920 H 1.13376 0.72546 0.88470
 H2921 H 1.09590 0.81072 0.83701
 H2922 H 1.07883 0.83917 0.86219
 H2923 H 1.09462 0.79760 0.92052
 C2924 C 1.13064 0.26627 0.36315
 C2925 C 1.12499 0.28158 0.34669
 C2926 C 1.13110 0.27907 0.32418
 C2927 C 1.14325 0.25978 0.31831
 C2928 C 1.14888 0.24340 0.33486
 C2929 C 1.14270 0.24694 0.35768
 O2930 O 1.12279 0.27166 0.38343
 C2931 C 1.11189 0.29076 0.37964
 C2932 C 1.11269 0.29747 0.35741
 C2933 C 1.10179 0.31651 0.34947
 C2934 C 1.08971 0.32934 0.36513
 C2935 C 1.08860 0.32287 0.38822
 C2936 C 1.10001 0.30332 0.39556
 H2937 H 1.12649 0.29142 0.31156
 H2938 H 1.14816 0.25753 0.30085
 H2939 H 1.14647 0.23465 0.37065
 H2940 H 1.10241 0.32118 0.33183
 H2941 H 1.08135 0.34442 0.35928
 H2942 H 1.09931 0.29786 0.41301
 C2943 C 0.62347 0.76200 0.37228
 C2944 C 0.61779 0.77625 0.35489
 C2945 C 0.62231 0.77150 0.33239
 C2946 C 0.63320 0.75121 0.32756
 C2947 C 0.63934 0.73619 0.34516
 C2948 C 0.63444 0.74176 0.36787
 O2949 O 0.61722 0.76957 0.39241
 C2950 C 0.60739 0.78903 0.38760
 C2951 C 0.60738 0.79386 0.36487
 C2952 C 0.59781 0.81319 0.35595
 C2953 C 0.58755 0.82807 0.37106
 C2954 C 0.58690 0.82334 0.39459
 C2955 C 0.59728 0.80364 0.40299
 H2956 H 0.61761 0.78301 0.31902
 H2957 H 0.63714 0.74732 0.31015
 H2958 H 0.63877 0.73056 0.38163
 H2959 H 0.59811 0.81664 0.33800
 H2960 H 0.58009 0.84330 0.36442
 H2961 H 0.59696 0.79954 0.42081
 C2962 C 0.59773 0.24020 0.88817
 C2963 C 0.59066 0.23635 0.90996
 C2964 C 0.59450 0.21623 0.92128
 C2965 C 0.60621 0.19937 0.90971
 C2966 C 0.61390 0.20287 0.88726
 C2967 C 0.60933 0.22356 0.87626
 O2968 O 0.59333 0.26093 0.88100
 C2969 C 0.58331 0.27036 0.89868
 C2970 C 0.58127 0.25597 0.91681
 C2971 C 0.57253 0.26261 0.93752
 C2972 C 0.56596 0.28512 0.93978
 C2973 C 0.56811 0.30038 0.92147
 C2974 C 0.57655 0.29281 0.90047
 H2975 H 0.58892 0.21370 0.93850
 H2976 H 0.60931 0.18356 0.91825
 H2977 H 0.61525 0.22684 0.85927
 H2978 H 0.57140 0.25105 0.95161
 H2979 H 0.55968 0.29088 0.95594
 H2980 H 0.57884 0.30431 0.88644
 C2981 C 0.90036 0.73550 1.10660
 C2982 C 0.89994 0.73288 1.08353
 C2983 C 0.89037 0.71425 1.07306
 C2984 C 0.88076 0.69765 1.08695
 C2985 C 0.88101 0.69990 1.11078
 C2986 C 0.89118 0.71902 1.12074
 O2987 O 0.90899 0.75512 1.11302
 C2988 C 0.91412 0.76508 1.09358
 C2989 C 0.90900 0.75211 1.07505
 C2990 C 0.91199 0.75961 1.05302
 C2991 C 0.92018 0.78154 1.04992
 C2992 C 0.92506 0.79554 1.06871
 C2993 C 0.92240 0.78696 1.09088
 H2994 H 0.88996 0.71273 1.05486
 H2995 H 0.87305 0.68306 1.07918
 H2996 H 0.89123 0.72132 1.13888
 H2997 H 0.90770 0.74913 1.03872
 H2998 H 0.92231 0.78780 1.03286
 H2999 H 0.92557 0.79738 1.10553
 C3000 C 0.88855 0.23676 0.59534
 C3001 C 0.90976 0.23162 0.58771
 C3002 C 0.91969 0.21077 0.59127
 C3003 C 0.90727 0.19456 0.60325
 C3004 C 0.88539 0.19944 0.61154
 C3005 C 0.87589 0.22089 0.60730
 O3006 O 0.88262 0.25786 0.59098
 C3007 C 0.90051 0.26623 0.58042
 C3008 C 0.91759 0.25084 0.57802
 C3009 C 0.93834 0.25633 0.56862
 C3010 C 0.94175 0.27868 0.56174
 C3011 C 0.92448 0.29491 0.56419
 C3012 C 0.90342 0.28850 0.57333
 H3013 H 0.93647 0.20718 0.58521
 H3014 H 0.91470 0.17818 0.60604
 H3015 H 0.85943 0.22532 0.61369
 H3016 H 0.95162 0.24401 0.56719
 H3017 H 0.95796 0.28352 0.55491
 H3018 H 0.89019 0.30072 0.57586
 C3019 C 0.39869 0.73709 0.60516
 C3020 C 0.40014 0.73460 0.58213
 C3021 C 0.39286 0.71535 0.57098
 C3022 C 0.38370 0.69792 0.58410
 C3023 C 0.38192 0.69999 0.60793
 C3024 C 0.38970 0.71989 0.61858
 O3025 O 0.40583 0.75708 0.61226
 C3026 C 0.41191 0.76741 0.59327
 C3027 C 0.40877 0.75433 0.57438
 C3028 C 0.41317 0.76202 0.55265
 C3029 C 0.42075 0.78425 0.55022
 C3030 C 0.42380 0.79828 0.56936
 C3031 C 0.41967 0.78957 0.59126
 H3032 H 0.39408 0.71386 0.55281
 H3033 H 0.37815 0.68272 0.57572
 H3034 H 0.38835 0.72210 0.63667
 H3035 H 0.41044 0.75144 0.53805
 H3036 H 0.42394 0.79070 0.53340
 H3037 H 0.42149 0.80001 0.60611
 C3038 C 0.39335 0.24211 1.11603
 C3039 C 0.39518 0.23701 1.09345
 C3040 C 0.38731 0.21694 1.08436
 C3041 C 0.37666 0.20172 1.09903
 C3042 C 0.37396 0.20683 1.12230
 C3043 C 0.38294 0.22712 1.13098
 O3044 O 0.40066 0.26265 1.12095
 C3045 C 0.40712 0.27072 1.10104
 C3046 C 0.40406 0.25571 1.08365
 C3047 C 0.40818 0.26123 1.06118
 C3048 C 0.41568 0.28316 1.05644
 C3049 C 0.41901 0.29893 1.07407
 C3050 C 0.41490 0.29250 1.09673
 H3051 H 0.38874 0.21341 1.06649
 H3052 H 0.36993 0.18622 1.09219
 H3053 H 0.38065 0.23172 1.14851
 H3054 H 0.40527 0.24926 1.04775
 H3055 H 0.41879 0.28792 1.03905
 H3056 H 0.41686 0.30437 1.11044
 C3057 C 1.09605 1.12135 0.74101
 C3058 C 1.09474 1.09868 0.73669
 C3059 C 1.10576 1.08861 0.71869
 C3060 C 1.11887 1.10240 0.70463
 C3061 C 1.12043 1.12603 0.70838
 C3062 C 1.10824 1.13559 0.72669
 O3063 O 1.08655 1.12707 0.76050
 C3064 C 1.07902 1.10758 0.76860
 C3065 C 1.08336 1.08976 0.75447
 C3066 C 1.07828 1.06764 0.76009
 C3067 C 1.06896 1.06359 0.78145
 C3068 C 1.06539 1.08147 0.79693
 C3069 C 1.06984 1.10390 0.79008
 H3070 H 1.10488 1.07063 0.71596
 H3071 H 1.12748 1.09460 0.69057
 H3072 H 1.10964 1.15327 0.73083
 H3073 H 1.08201 1.05390 0.74873
 H3074 H 1.06537 1.04636 0.78630
 H3075 H 1.06777 1.11783 0.80165
 C3076 C 1.12865 0.63145 0.26245
 C3077 C 1.12049 0.64826 0.27602
 C3078 C 1.12219 0.67090 0.27056
 C3079 C 1.13286 0.67654 0.25024
 C3080 C 1.14212 0.65964 0.23595
 C3081 C 1.14000 0.63667 0.24247
 O3082 O 1.12396 0.61095 0.27018
 C3083 C 1.11271 0.61500 0.28914
 C3084 C 1.11044 0.63759 0.29354
 C3085 C 1.09931 0.64579 0.31237
 C3086 C 1.08966 0.63007 0.32708
 C3087 C 1.09066 0.60659 0.32246
 C3088 C 1.10286 0.59897 0.30339
 H3089 H 1.11540 0.68378 0.28149
 H3090 H 1.13470 0.69423 0.24628
 H3091 H 1.14606 0.62314 0.23189
 H3092 H 1.09803 0.66366 0.31559
 H3093 H 1.08120 0.63628 0.34200
 H3094 H 1.10397 0.58126 0.29933
 C3095 C 0.60376 1.12606 0.24569
 C3096 C 0.60030 1.10420 0.23887
 C3097 C 0.60929 1.09558 0.21901
 C3098 C 0.62261 1.10999 0.20576
 C3099 C 0.62658 1.13254 0.21251
 C3100 C 0.61668 1.14078 0.23259
 O3101 O 0.59529 1.13034 0.26599
 C3102 C 0.58635 1.11076 0.27215
 C3103 C 0.58891 1.09423 0.25610
 C3104 C 0.58232 1.07205 0.25968
 C3105 C 0.57311 1.06656 0.28080
 C3106 C 0.57069 1.08317 0.29781
 C3107 C 0.57699 1.10571 0.29321
 H3108 H 0.60669 1.07820 0.21422
 H3109 H 0.63019 1.10353 0.19046
 H3110 H 0.61995 1.15774 0.23840
 H3111 H 0.58484 1.05927 0.24693
 H3112 H 0.56838 1.04926 0.28416
 H3113 H 0.57591 1.11857 0.30609
 C3114 C 0.60283 0.60584 0.74112
 C3115 C 0.57991 0.60775 0.73873
 C3116 C 0.56994 0.61713 0.71970
 C3117 C 0.58419 0.62499 0.70248
 C3118 C 0.60790 0.62330 0.70454
 C3119 C 0.61731 0.61336 0.72411
 O3120 O 0.60887 0.59727 0.76093
 C3121 C 0.58934 0.59369 0.77125
 C3122 C 0.57111 0.59978 0.75836
 C3123 C 0.54910 0.59816 0.76612
 C3124 C 0.54574 0.59016 0.78818
 C3125 C 0.56426 0.58407 0.80201
 C3126 C 0.58638 0.58561 0.79323
 H3127 H 0.55186 0.61860 0.71828
 H3128 H 0.57677 0.63241 0.68754
 H3129 H 0.63534 0.61217 0.72631
 H3130 H 0.53504 0.60313 0.75569
 H3131 H 0.52871 0.58883 0.79453
 H3132 H 0.60087 0.58143 0.80345
 C3133 C 0.87777 0.88195 0.74959
 C3134 C 0.85911 0.88697 0.76238
 C3135 C 0.83727 0.88341 0.75486
 C3136 C 0.83452 0.87441 0.73319
 C3137 C 0.85347 0.86904 0.71968
 C3138 C 0.87542 0.87263 0.72810
 O3139 O 0.89695 0.88761 0.75957
 C3140 C 0.89023 0.89635 0.77905
 C3141 C 0.86723 0.89624 0.78160
 C3142 C 0.85649 0.90499 0.80045
 C3143 C 0.86999 0.91448 0.81731
 C3144 C 0.89377 0.91529 0.81496
 C3145 C 0.90401 0.90579 0.79561
 H3146 H 0.82287 0.88770 0.76517
 H3147 H 0.81766 0.87162 0.72686
 H3148 H 0.89011 0.86891 0.71797
 H3149 H 0.83836 0.90465 0.80206
 H3150 H 0.86188 0.92120 0.83222
 H3151 H 0.92205 0.90631 0.79321
 C3152 C 0.87365 0.37773 0.25568
 C3153 C 0.85802 0.37757 0.27282
 C3154 C 0.83695 0.36764 0.27067
 C3155 C 0.83168 0.35760 0.24993
 C3156 C 0.84735 0.35776 0.23180
 C3157 C 0.86875 0.36786 0.23489
 O3158 O 0.89252 0.38843 0.26112
 C3159 C 0.88868 0.39522 0.28212
 C3160 C 0.86778 0.38903 0.29001
 C3161 C 0.85999 0.39483 0.31133
 C3162 C 0.87424 0.40771 0.32506
 C3163 C 0.89590 0.41428 0.31737
 C3164 C 0.90330 0.40775 0.29564
 H3165 H 0.82495 0.36773 0.28443
 H3166 H 0.81539 0.34965 0.24802
 H3167 H 0.88099 0.36854 0.22136
 H3168 H 0.84353 0.38964 0.31711
 H3169 H 0.86858 0.41235 0.34179
 H3170 H 0.91973 0.41260 0.28938
 C3171 C 0.37032 0.87416 0.26081
 C3172 C 0.35338 0.87886 0.27591
 C3173 C 0.33110 0.87289 0.27228
 C3174 C 0.32595 0.86182 0.25209
 C3175 C 0.34297 0.85695 0.23599
 C3176 C 0.36558 0.86293 0.24059
 O3177 O 0.39023 0.88199 0.26737
 C3178 C 0.38569 0.89185 0.28700
 C3179 C 0.36336 0.89036 0.29292
 C3180 C 0.35466 0.89996 0.31240
 C3181 C 0.36957 0.91174 0.32638
 C3182 C 0.39270 0.91377 0.32069
 C3183 C 0.40090 0.90343 0.30077
 H3184 H 0.31809 0.87685 0.28442
 H3185 H 0.30864 0.85707 0.24892
 H3186 H 0.37886 0.85958 0.22854
 H3187 H 0.33700 0.89856 0.31662
 H3188 H 0.36310 0.91918 0.34174
 H3189 H 0.41842 0.90480 0.29594
 C3190 C 0.38179 0.38468 0.74776
 C3191 C 0.36314 0.39087 0.75991
 C3192 C 0.34148 0.38937 0.75140
 C3193 C 0.33885 0.38123 0.72937
 C3194 C 0.35776 0.37444 0.71619
 C3195 C 0.37959 0.37604 0.72595
 O3196 O 0.40096 0.38864 0.75861
 C3197 C 0.39418 0.39743 0.77808
 C3198 C 0.37117 0.39897 0.77973
 C3199 C 0.36036 0.40800 0.79840
 C3200 C 0.37382 0.41612 0.81599
 C3201 C 0.39768 0.41548 0.81452
 C3202 C 0.40796 0.40557 0.79536
 H3203 H 0.32707 0.39446 0.76132
 H3204 H 0.32187 0.37956 0.72304
 H3205 H 0.39462 0.37190 0.71655
 H3206 H 0.34220 0.40891 0.79933
 H3207 H 0.36560 0.42307 0.83072
 H3208 H 0.42607 0.40496 0.79361
 C3209 C 1.09987 0.88054 1.25704
 C3210 C 1.09927 0.90337 1.26068
 C3211 C 1.10832 0.91340 1.27974
 C3212 C 1.11905 0.89947 1.29544
 C3213 C 1.12046 0.87575 1.29211
 C3214 C 1.10980 0.86616 1.27289
 O3215 O 1.09227 0.87478 1.23673
 C3216 C 1.08680 0.89441 1.22744
 C3217 C 1.09065 0.91238 1.24152
 C3218 C 1.08757 0.93458 1.23485
 C3219 C 1.08046 0.93850 1.21265
 C3220 C 1.07683 0.92037 1.19748
 C3221 C 1.07967 0.89794 1.20520
 H3222 H 1.10787 0.93145 1.28208
 H3223 H 1.12630 0.90730 1.31024
 H3224 H 1.11104 0.84837 1.26921
 H3225 H 1.09097 0.94843 1.24620
 H3226 H 1.07808 0.95572 1.20716
 H3227 H 1.07747 0.88377 1.19394
 C3228 C 1.12136 0.37909 0.74642
 C3229 C 1.11687 0.36043 0.73345
 C3230 C 1.11967 0.33856 0.74127
 C3231 C 1.12731 0.33578 0.76346
 C3232 C 1.13215 0.35470 0.77717
 C3233 C 1.12938 0.37670 0.76847
 O3234 O 1.11637 0.39830 0.73608
 C3235 C 1.10859 0.39157 0.71617
 C3236 C 1.10868 0.36856 0.71373
 C3237 C 1.10063 0.35777 0.69460
 C3238 C 1.09180 0.37122 0.67734
 C3239 C 1.09093 0.39500 0.67957
 C3240 C 1.09985 0.40533 0.69916
 H3241 H 1.11574 0.32417 0.73081
 H3242 H 1.12944 0.31890 0.77004
 H3243 H 1.13269 0.39137 0.77877
 H3244 H 1.10089 0.33962 0.69312
 H3245 H 1.08545 0.36307 0.66230
 H3246 H 1.09921 0.42339 0.70144
 C3247 C 0.59606 0.88502 0.75987
 C3248 C 0.59396 0.90784 0.76316
 C3249 C 0.60022 0.91843 0.78310
 C3250 C 0.60938 0.90502 0.80024
 C3251 C 0.61199 0.88151 0.79722
 C3252 C 0.60487 0.87128 0.77688
 O3253 O 0.59054 0.87865 0.73909
 C3254 C 0.58490 0.89786 0.72908
 C3255 C 0.58670 0.91619 0.74312
 C3256 C 0.58297 0.93810 0.73584
 C3257 C 0.57733 0.94131 0.71309
 C3258 C 0.57556 0.92276 0.69813
 C3259 C 0.57909 0.90066 0.70638
 H3260 H 0.59873 0.93645 0.78514
 H3261 H 0.61498 0.91295 0.81570
 H3262 H 0.60723 0.85346 0.77401
 H3263 H 0.58476 0.95226 0.74717
 H3264 H 0.57452 0.95828 0.70705
 H3265 H 0.57824 0.88624 0.69526
 C3266 C 0.62419 0.37907 1.24802
 C3267 C 0.60170 0.37670 1.25278
 C3268 C 0.59371 0.36340 1.27033
 C3269 C 0.60954 0.35197 1.28352
 C3270 C 0.63307 0.35423 1.27933
 C3271 C 0.64033 0.36843 1.26136
 O3272 O 0.62809 0.39095 1.22938
 C3273 C 0.60758 0.39627 1.22233
 C3274 C 0.59088 0.38815 1.23624
 C3275 C 0.56817 0.39098 1.23170
 C3276 C 0.56238 0.40219 1.21173
 C3277 C 0.57922 0.40989 1.19647
 C3278 C 0.60221 0.40732 1.20222
 H3279 H 0.57587 0.36157 1.27353
 H3280 H 0.60330 0.34190 1.29744
 H3281 H 0.65791 0.37009 1.25688
 H3282 H 0.55534 0.38442 1.24293
 H3283 H 0.54473 0.40439 1.20789
 H3284 H 0.61548 0.41260 1.19084
 C3285 C 0.86749 1.14023 1.22944
 C3286 C 0.85254 1.13166 1.21400
 C3287 C 0.82947 1.13445 1.21583
 C3288 C 0.82134 1.14628 1.23455
 C3289 C 0.83623 1.15546 1.25105
 C3290 C 0.85982 1.15273 1.24792
 O3291 O 0.88863 1.13413 1.22537
 C3292 C 0.88691 1.12146 1.20695
 C3293 C 0.86516 1.11963 1.19927
 C3294 C 0.85920 1.10655 1.18082
 C3295 C 0.87629 1.09452 1.17000
 C3296 C 0.89885 1.09542 1.17791
 C3297 C 0.90429 1.10954 1.19640
 H3298 H 0.81805 1.12739 1.20348
 H3299 H 0.80334 1.14868 1.23577
 H3300 H 0.87184 1.15874 1.26024
 H3301 H 0.84194 1.10536 1.17516
 H3302 H 0.87189 1.08426 1.15556
 H3303 H 0.92128 1.11047 1.20291
 C3304 C 0.87621 0.60758 0.75150
 C3305 C 0.87967 0.62497 0.73651
 C3306 C 0.87486 0.64725 0.74160
 C3307 C 0.86635 0.65189 0.76314
 C3308 C 0.86274 0.63434 0.77900
 C3309 C 0.86741 0.61179 0.77300
 O3310 O 0.88325 0.58785 0.74369
 C3311 C 0.89135 0.59296 0.72336
 C3312 C 0.88947 0.61546 0.71822
 C3313 C 0.89781 0.62482 0.69840
 C3314 C 0.90880 0.61045 0.68331
 C3315 C 0.91135 0.58722 0.68827
 C3316 C 0.90213 0.57826 0.70845
 H3317 H 0.87804 0.66065 0.72960
 H3318 H 0.86286 0.66918 0.76768
 H3319 H 0.86517 0.59820 0.78501
 H3320 H 0.89625 0.64262 0.69485
 H3321 H 0.91554 0.61746 0.66781
 H3322 H 0.90407 0.56066 0.71274
 C3323 C 0.39077 1.10184 0.76144
 C3324 C 0.41287 1.09761 0.76674
 C3325 C 0.42226 1.10320 0.78745
 C3326 C 0.40835 1.11376 0.80332
 C3327 C 0.38554 1.11868 0.79824
 C3328 C 0.37659 1.11233 0.77701
 O3329 O 0.38547 1.09591 0.74048
 C3330 C 0.40467 1.08783 0.73239
 C3331 C 0.42195 1.08853 0.74781
 C3332 C 0.44378 1.08200 0.74261
 C3333 C 0.44805 1.07467 0.72052
 C3334 C 0.43057 1.07388 0.70426
 C3335 C 0.40849 1.08027 0.71040
 H3336 H 0.43972 1.09976 0.79118
 H3337 H 0.41539 1.11816 0.81959
 H3338 H 0.35938 1.11610 0.77249
 H3339 H 0.45713 1.08295 0.75497
 H3340 H 0.46500 1.06983 0.71597
 H3341 H 0.39496 1.08023 0.69817
 C3342 C 0.39380 0.58884 1.27236
 C3343 C 0.41630 0.58531 1.27612
 C3344 C 0.42698 0.59173 1.29589
 C3345 C 0.41410 0.60272 1.31231
 C3346 C 0.39079 0.60725 1.30887
 C3347 C 0.38049 0.59941 1.28865
 O3348 O 0.38736 0.58299 1.25169
 C3349 C 0.40625 0.57564 1.24226
 C3350 C 0.42443 0.57667 1.25656
 C3351 C 0.44615 0.57136 1.24978
 C3352 C 0.44936 0.56499 1.22723
 C3353 C 0.43098 0.56409 1.21199
 C3354 C 0.40903 0.56911 1.21976
 H3355 H 0.44476 0.58883 1.29841
 H3356 H 0.42246 0.60742 1.32782
 H3357 H 0.36309 0.60297 1.28472
 H3358 H 0.46023 0.57264 1.26128
 H3359 H 0.46621 0.56114 1.22149
 H3360 H 0.39480 0.56905 1.20837
 C3361 C 1.10957 1.26117 0.90524
 C3362 C 1.08681 1.26517 0.90553
 C3363 C 1.07729 1.28441 0.89640
 C3364 C 1.09170 1.29990 0.88592
 C3365 C 1.11537 1.29621 0.88489
 C3366 C 1.12442 1.27684 0.89563
 O3367 O 1.11482 1.24073 0.91268
 C3368 C 1.09494 1.23171 0.91773
 C3369 C 1.07731 1.24609 0.91380
 C3370 C 1.05495 1.23972 0.91641
 C3371 C 1.05052 1.21752 0.92311
 C3372 C 1.06832 1.20205 0.92676
 C3373 C 1.09091 1.20947 0.92440
 H3374 H 1.05929 1.28700 0.89655
 H3375 H 1.08430 1.31481 0.87852
 H3376 H 1.14215 1.27290 0.89462
 H3377 H 1.04137 1.25130 0.91296
 H3378 H 1.03318 1.21228 0.92515
 H3379 H 1.10485 1.19800 0.92656
 C3380 C 1.11755 0.74353 0.36964
 C3381 C 1.13461 0.72836 0.37296
 C3382 C 1.15671 0.73266 0.36682
 C3383 C 1.16163 0.75373 0.35742
 C3384 C 1.14454 0.77023 0.35417
 C3385 C 1.12193 0.76450 0.35972
 O3386 O 1.09804 0.73667 0.37830
 C3387 C 1.10300 0.71676 0.38726
 C3388 C 1.12516 0.71091 0.38433
 C3389 C 1.13438 0.69141 0.39331
 C3390 C 1.12022 0.67737 0.40598
 C3391 C 1.09732 0.68307 0.40965
 C3392 C 1.08853 0.70295 0.39982
 H3393 H 1.16985 0.72043 0.36970
 H3394 H 1.17888 0.75702 0.35254
 H3395 H 1.10842 0.77657 0.35824
 H3396 H 1.15194 0.68729 0.39088
 H3397 H 1.12712 0.66202 0.41297
 H3398 H 1.07121 0.70785 0.40249
 C3399 C 0.64538 1.23002 0.37520
 C3400 C 0.64225 1.21332 0.35942
 C3401 C 0.64872 1.21565 0.33696
 C3402 C 0.65823 1.23626 0.33037
 C3403 C 0.66118 1.25384 0.34623
 C3404 C 0.65519 1.25050 0.36907
 O3405 O 0.63609 1.22529 0.39504
 C3406 C 0.62676 1.20527 0.39168
 C3407 C 0.63005 1.19720 0.37017
 C3408 C 0.62010 1.17748 0.36240
 C3409 C 0.60605 1.16570 0.37737
 C3410 C 0.60225 1.17379 0.39958
 C3411 C 0.61308 1.19366 0.40693
 H3412 H 0.64564 1.20247 0.32476
 H3413 H 0.66253 1.23891 0.31278
 H3414 H 0.65660 1.26399 0.38126
 H3415 H 0.62264 1.17166 0.34529
 H3416 H 0.59800 1.15036 0.37167
 H3417 H 0.61016 1.20035 0.42367
 C3418 C 0.59591 0.76119 0.89600
 C3419 C 0.59610 0.76461 0.91898
 C3420 C 0.60478 0.78398 0.92882
 C3421 C 0.61391 0.80040 0.91442
 C3422 C 0.61408 0.79724 0.89068
 C3423 C 0.60462 0.77747 0.88133
 O3424 O 0.58808 0.74105 0.89024
 C3425 C 0.58326 0.73156 0.91000
 C3426 C 0.58782 0.74531 0.92809
 C3427 C 0.58504 0.73841 0.95036
 C3428 C 0.57745 0.71636 0.95417
 C3429 C 0.57292 0.70167 0.93584
 C3430 C 0.57561 0.70957 0.91340
 H3431 H 0.60500 0.78615 0.94696
 H3432 H 0.62111 0.81547 0.92172
 H3433 H 0.60496 0.77447 0.86330
 H3434 H 0.58890 0.74950 0.96432
 H3435 H 0.57526 0.71066 0.97141
 H3436 H 0.57270 0.69866 0.89907
 C3437 C 0.88268 1.25314 1.11142
 C3438 C 0.90529 1.25769 1.11284
 C3439 C 0.91374 1.27658 1.12369
 C3440 C 0.89828 1.29125 1.13377
 C3441 C 0.87466 1.28706 1.13275
 C3442 C 0.86694 1.26775 1.12083
 O3443 O 0.87824 1.23345 1.10180
 C3444 C 0.89851 1.22546 1.09699
 C3445 C 0.91563 1.23973 1.10327
 C3446 C 0.93820 1.23431 1.10067
 C3447 C 0.94334 1.21321 1.09148
 C3448 C 0.92601 1.19786 1.08538
 C3449 C 0.90323 1.20434 1.08792
 H3450 H 0.93165 1.27972 1.12473
 H3451 H 0.90490 1.30612 1.14195
 H3452 H 0.84932 1.26320 1.12021
 H3453 H 0.95138 1.24579 1.10583
 H3454 H 0.96085 1.20873 1.08935
 H3455 H 0.88959 1.19294 1.08391
 C3456 C 0.88797 0.74671 0.62954
 C3457 C 0.87153 0.73041 0.63075
 C3458 C 0.84916 0.73522 0.63559
 C3459 C 0.84351 0.75777 0.63949
 C3460 C 0.86019 0.77481 0.63867
 C3461 C 0.88278 0.76922 0.63377
 O3462 O 0.90782 0.73872 0.62308
 C3463 C 0.90382 0.71691 0.62018
 C3464 C 0.88189 0.71099 0.62486
 C3465 C 0.87361 0.68933 0.62185
 C3466 C 0.88832 0.67325 0.61298
 C3467 C 0.91077 0.67907 0.60721
 C3468 C 0.91884 0.70107 0.61143
 H3469 H 0.83647 0.72214 0.63603
 H3470 H 0.82621 0.76202 0.64327
 H3471 H 0.89570 0.78206 0.63282
 H3472 H 0.85624 0.68515 0.62545
 H3473 H 0.88201 0.65646 0.60968
 H3474 H 0.93572 0.70603 0.60663
 C3475 C 0.39475 1.26213 0.60477
 C3476 C 0.41738 1.26349 0.60922
 C3477 C 0.42695 1.28120 0.62108
 C3478 C 0.41260 1.29817 0.62888
 C3479 C 0.38906 1.29754 0.62433
 C3480 C 0.38023 1.27925 0.61162
 O3481 O 0.38887 1.24297 0.59484
 C3482 C 0.40827 1.23209 0.59287
 C3483 C 0.42623 1.24408 0.60118
 C3484 C 0.44803 1.23580 0.60125
 C3485 C 0.45143 1.21409 0.59275
 C3486 C 0.43308 1.20080 0.58495
 C3487 C 0.41119 1.21025 0.58469
 H3488 H 0.44480 1.28173 0.62462
 H3489 H 0.42008 1.31211 0.63793
 H3490 H 0.36239 1.27754 0.60839
 H3491 H 0.46192 1.24564 0.60775
 H3492 H 0.46842 1.20760 0.59248
 H3493 H 0.39672 1.20064 0.57919
 C3494 C 0.37564 0.73348 1.14856
 C3495 C 0.35989 0.71732 1.14348
 C3496 C 0.33698 0.72055 1.14613
 C3497 C 0.32983 0.74154 1.15385
 C3498 C 0.34552 0.75896 1.15905
 C3499 C 0.36894 0.75441 1.15710
 O3500 O 0.39640 0.72755 1.14257
 C3501 C 0.39355 0.70724 1.13353
 C3502 C 0.37147 0.70027 1.13389
 C3503 C 0.36413 0.68049 1.12392
 C3504 C 0.38013 0.66731 1.11288
 C3505 C 0.40297 0.67423 1.11158
 C3506 C 0.40991 0.69428 1.12254
 H3507 H 0.32494 0.70758 1.14175
 H3508 H 0.31192 0.74407 1.15593
 H3509 H 0.38144 0.76730 1.16024
 H3510 H 0.34656 0.67576 1.12397
 H3511 H 0.37462 0.65197 1.10470
 H3512 H 0.42713 0.70016 1.12143
 C3513 C 0.88332 0.74120 0.89812
 C3514 C 0.90600 0.73744 0.90057
 C3515 C 0.91632 0.71766 0.89364
 C3516 C 0.90275 0.70116 0.88353
 C3517 C 0.87935 0.70471 0.88050
 C3518 C 0.86948 0.72495 0.88825
 O3519 O 0.87710 0.76162 0.90466
 C3520 C 0.89628 0.77098 0.91133
 C3521 C 0.91446 0.75686 0.90916
 C3522 C 0.93635 0.76363 0.91386
 C3523 C 0.93969 0.78594 0.92082
 C3524 C 0.92127 0.80092 0.92298
 C3525 C 0.89919 0.79318 0.91850
 H3526 H 0.93424 0.71519 0.89554
 H3527 H 0.91051 0.68572 0.87781
 H3528 H 0.85179 0.72835 0.88574
 H3529 H 0.95041 0.75231 0.91175
 H3530 H 0.95664 0.79167 0.92425
 H3531 H 0.88491 0.80438 0.91957
 C3532 C 0.86758 0.27152 0.35119
 C3533 C 0.85311 0.28945 0.35304
 C3534 C 0.83121 0.28892 0.34491
 C3535 C 0.82374 0.26895 0.33482
 C3536 C 0.83809 0.24998 0.33308
 C3537 C 0.86052 0.25147 0.34099
 O3538 O 0.88727 0.27518 0.36118
 C3539 C 0.88510 0.29580 0.36959
 C3540 C 0.86447 0.30521 0.36507
 C3541 C 0.85800 0.32609 0.37335
 C3542 C 0.87336 0.33771 0.38699
 C3543 C 0.89474 0.32842 0.39198
 C3544 C 0.90082 0.30728 0.38289
 H3545 H 0.82009 0.30319 0.34677
 H3546 H 0.80658 0.26805 0.32876
 H3547 H 0.87168 0.23712 0.34026
 H3548 H 0.84156 0.33300 0.36978
 H3549 H 0.86861 0.35393 0.39380
 H3550 H 0.91693 0.29973 0.38671
 C3551 C 0.39071 0.73903 0.40450
 C3552 C 0.41335 0.73670 0.40828
 C3553 C 0.42493 0.71705 0.40358
 C3554 C 0.41278 0.69911 0.39423
 C3555 C 0.38931 0.70094 0.38948
 C3556 C 0.37818 0.72134 0.39535
 O3557 O 0.38321 0.75958 0.40908
 C3558 C 0.40157 0.77041 0.41586
 C3559 C 0.42047 0.75712 0.41566
 C3560 C 0.44177 0.76527 0.42084
 C3561 C 0.44374 0.78815 0.42623
 C3562 C 0.42457 0.80231 0.42642
 C3563 C 0.40311 0.79321 0.42149
 H3564 H 0.44278 0.71562 0.40678
 H3565 H 0.42185 0.68366 0.39121
 H3566 H 0.36062 0.72416 0.39156
 H3567 H 0.45642 0.75453 0.42028
 H3568 H 0.46022 0.79494 0.43003
 H3569 H 0.38829 0.80375 0.42112
 C3570 C 0.39824 0.23808 0.89305
 C3571 C 0.39497 0.23707 0.91600
 C3572 C 0.38292 0.21994 0.92645
 C3573 C 0.37364 0.20319 0.91269
 C3574 C 0.37709 0.20335 0.88888
 C3575 C 0.39012 0.22095 0.87908
 O3576 O 0.40801 0.25713 0.88637
 C3577 C 0.41108 0.26827 0.90558
 C3578 C 0.40371 0.25650 0.92418
 C3579 C 0.40459 0.26509 0.94592
 C3580 C 0.41287 0.28699 0.94859
 C3581 C 0.41935 0.30022 0.92959
 C3582 C 0.41900 0.29036 0.90778
 H3583 H 0.38016 0.21983 0.94452
 H3584 H 0.36419 0.18979 0.92075
 H3585 H 0.39247 0.22221 0.86099
 H3586 H 0.39879 0.25541 0.96030
 H3587 H 0.41371 0.29379 0.96551
 H3588 H 0.42353 0.29993 0.89288
 C3589 C 1.12922 0.76324 1.12656
 C3590 C 1.14543 0.77634 1.11653
 C3591 C 1.16825 0.77228 1.11884
 C3592 C 1.17472 0.75369 1.13180
 C3593 C 1.15843 0.73938 1.14230
 C3594 C 1.13522 0.74473 1.13975
 O3595 O 1.10842 0.76977 1.12165
 C3596 C 1.11167 0.78744 1.10825
 C3597 C 1.13405 0.79209 1.10465
 C3598 C 1.14146 0.80943 1.09084
 C3599 C 1.12515 0.82275 1.08041
 C3600 C 1.10181 0.81823 1.08341
 C3601 C 1.09503 0.80035 1.09779
 H3602 H 1.18069 0.78304 1.11088
 H3603 H 1.19256 0.75104 1.13409
 H3604 H 1.12201 0.73422 1.14666
 H3605 H 1.15919 0.81248 1.08805
 H3606 H 1.13080 0.83664 1.07000
 H3607 H 1.07744 0.79633 1.10036
 C3608 C 1.11751 0.25581 0.62587
 C3609 C 1.13353 0.27253 0.62484
 C3610 C 1.15454 0.27058 0.63486
 C3611 C 1.15949 0.25030 0.64587
 C3612 C 1.14362 0.23238 0.64644
 C3613 C 1.12209 0.23546 0.63674
 O3614 O 1.09890 0.26083 0.61457
 C3615 C 1.10336 0.28108 0.60613
 C3616 C 1.12439 0.28891 0.61181
 C3617 C 1.13300 0.30921 0.60387
 C3618 C 1.11929 0.32208 0.58962
 C3619 C 1.09739 0.31456 0.58379
 C3620 C 1.08928 0.29378 0.59224
 H3621 H 1.16686 0.28398 0.63381
 H3622 H 1.17594 0.24831 0.65344
 H3623 H 1.10978 0.22200 0.63653
 H3624 H 1.14972 0.31487 0.60838
 H3625 H 1.12553 0.33808 0.58343
 H3626 H 1.07267 0.28766 0.58793
 C3627 C 0.61308 0.74603 0.61299
 C3628 C 0.63135 0.75985 0.60960
 C3629 C 0.65328 0.75318 0.61410
 C3630 C 0.65654 0.73132 0.62242
 C3631 C 0.63800 0.71663 0.62605
 C3632 C 0.61592 0.72423 0.62133
 O3633 O 0.59373 0.75548 0.60708
 C3634 C 0.59995 0.77572 0.59979
 C3635 C 0.62281 0.77920 0.60101
 C3636 C 0.63310 0.79893 0.59376
 C3637 C 0.61932 0.81571 0.58461
 C3638 C 0.59570 0.81251 0.58283
 C3639 C 0.58586 0.79229 0.59086
 H3640 H 0.66740 0.76437 0.61122
 H3641 H 0.67349 0.72591 0.62622
 H3642 H 0.60146 0.71335 0.62364
 H3643 H 0.65113 0.80124 0.59487
 H3644 H 0.62705 0.83120 0.57882
 H3645 H 0.56794 0.78931 0.58953
 C3646 C 0.62522 0.26114 1.13194
 C3647 C 0.64133 0.27721 1.12777
 C3648 C 0.66358 0.27475 1.13429
 C3649 C 0.66963 0.25469 1.14520
 C3650 C 0.65352 0.23729 1.14941
 C3651 C 0.63076 0.24111 1.14295
 O3652 O 0.60523 0.26638 1.12347
 C3653 C 0.60884 0.28621 1.11372
 C3654 C 0.63068 0.29358 1.11589
 C3655 C 0.63843 0.31347 1.10620
 C3656 C 0.62306 0.32622 1.09364
 C3657 C 0.60043 0.31895 1.09101
 C3658 C 0.59319 0.29875 1.10146
 H3659 H 0.67595 0.28772 1.13089
 H3660 H 0.68688 0.25316 1.15070
 H3661 H 0.61785 0.22840 1.14490
 H3662 H 0.65573 0.31887 1.10804
 H3663 H 0.62874 0.34181 1.08602
 H3664 H 0.57609 0.29272 1.09959
 C3665 C 1.24760 1.10988 0.87313
 C3666 C 1.23326 1.12801 0.87346
 C3667 C 1.24002 1.14968 0.86774
 C3668 C 1.26261 1.15291 0.86182
 C3669 C 1.27791 1.13464 0.86173
 C3670 C 1.27018 1.11270 0.86703
 O3671 O 1.23801 1.09102 0.88056
 C3672 C 1.21724 1.09745 0.88577
 C3673 C 1.21354 1.11994 0.88173
 C3674 C 1.19354 1.13065 0.88727
 C3675 C 1.17668 1.11769 0.89757
 C3676 C 1.18003 1.09449 0.90204
 C3677 C 1.20051 1.08413 0.89574
 H3678 H 1.22847 1.16370 0.86842
 H3679 H 1.26838 1.16976 0.85781
 H3680 H 1.28164 1.09858 0.86755
 H3681 H 1.19119 1.14844 0.88421
 H3682 H 1.16103 1.12573 0.90225
 H3683 H 1.20359 1.06654 0.89933
 C3684 C 1.25407 0.61209 0.37853
 C3685 C 1.23985 0.63025 0.37996
 C3686 C 1.24670 0.65211 0.37504
 C3687 C 1.26920 0.65545 0.36866
 C3688 C 1.28434 0.63707 0.36737
 C3689 C 1.27649 0.61502 0.37206
 O3690 O 1.24453 0.59292 0.38511
 C3691 C 1.22387 0.59912 0.39088
 C3692 C 1.22017 0.62180 0.38804
 C3693 C 1.20016 0.63216 0.39420
 C3694 C 1.18337 0.61864 0.40394
 C3695 C 1.18681 0.59524 0.40727
 C3696 C 1.20725 0.58529 0.40029
 H3697 H 1.23525 0.66615 0.37649
 H3698 H 1.27492 0.67238 0.36499
 H3699 H 1.28773 0.60073 0.37169
 H3700 H 1.19774 0.65008 0.39203
 H3701 H 1.16773 0.62641 0.40911
 H3702 H 1.21043 0.56756 0.40298
 C3703 C 0.72424 1.13552 0.35347
 C3704 C 0.70783 1.15073 0.35926
 C3705 C 0.70932 1.17350 0.35397
 C3706 C 0.72865 1.18094 0.34250
 C3707 C 0.74601 1.16565 0.33660
 C3708 C 0.74352 1.14253 0.34192
 O3709 O 0.72011 1.11487 0.36107
 C3710 C 0.70071 1.11709 0.37196
 C3711 C 0.69250 1.13872 0.37136
 C3712 C 0.67304 1.14510 0.38267
 C3713 C 0.66173 1.12857 0.39531
 C3714 C 0.66997 1.10618 0.39639
 C3715 C 0.68956 1.10030 0.38422
 H3716 H 0.69626 1.18519 0.35884
 H3717 H 0.73023 1.19864 0.33840
 H3718 H 0.75663 1.13053 0.33806
 H3719 H 0.66703 1.16226 0.38216
 H3720 H 0.64663 1.13323 0.40442
 H3721 H 0.69634 1.08343 0.38501
 C3722 C 0.74310 0.61487 0.87701
 C3723 C 0.72952 0.63306 0.88133
 C3724 C 0.73655 0.65518 0.87829
 C3725 C 0.75856 0.65874 0.87060
 C3726 C 0.77299 0.64032 0.86606
 C3727 C 0.76503 0.61803 0.86904
 O3728 O 0.73347 0.59532 0.88224
 C3729 C 0.71341 0.60134 0.89005
 C3730 C 0.71019 0.62426 0.88975
 C3731 C 0.69088 0.63442 0.89803
 C3732 C 0.67429 0.62043 0.90734
 C3733 C 0.67729 0.59675 0.90833
 C3734 C 0.69700 0.58703 0.89915
 H3735 H 0.72560 0.66920 0.88207
 H3736 H 0.76446 0.67585 0.86826
 H3737 H 0.77582 0.60371 0.86600
 H3738 H 0.68883 0.65251 0.89772
 H3739 H 0.65919 0.62805 0.91408
 H3740 H 0.69984 0.56906 0.89995
 C3741 C 1.23498 0.87313 1.12734
 C3742 C 1.21843 0.85726 1.12409
 C3743 C 1.22040 0.83511 1.13135
 C3744 C 1.24036 0.82898 1.14226
 C3745 C 1.25787 0.84492 1.14566
 C3746 C 1.25497 0.86743 1.13830
 O3747 O 1.22995 0.89304 1.11844
 C3748 C 1.20982 0.88960 1.10934
 C3749 C 1.20208 0.86797 1.11238
 C3750 C 1.18172 0.86042 1.10377
 C3751 C 1.16886 0.87570 1.09126
 C3752 C 1.17645 0.89809 1.08773
 C3753 C 1.19714 0.90523 1.09716
 H3754 H 1.20714 0.82292 1.12850
 H3755 H 1.24222 0.81179 1.14804
 H3756 H 1.26812 0.87988 1.14041
 H3757 H 1.17601 0.84337 1.10657
 H3758 H 1.15288 0.87019 1.08444
 H3759 H 1.20331 0.92221 1.09466
 C3760 C 1.25990 0.38121 0.59039
 C3761 C 1.26443 0.40340 0.58538
 C3762 C 1.28448 0.41395 0.59123
 C3763 C 1.30040 0.40122 0.60304
 C3764 C 1.29608 0.37842 0.60866
 C3765 C 1.27570 0.36812 0.60191
 O3766 O 1.23913 0.37504 0.58487
 C3767 C 1.23037 0.39374 0.57628
 C3768 C 1.24521 0.41156 0.57622
 C3769 C 1.23914 0.43317 0.56966
 C3770 C 1.21676 0.43666 0.56317
 C3771 C 1.20106 0.41867 0.56328
 C3772 C 1.20805 0.39679 0.56954
 H3773 H 1.28746 0.43153 0.58747
 H3774 H 1.31590 0.40922 0.60836
 H3775 H 1.27183 0.35091 0.60657
 H3776 H 1.25103 0.44698 0.57016
 H3777 H 1.21149 0.45347 0.55851
 H3778 H 1.19621 0.38293 0.57031
 C3779 C 0.75813 0.88235 0.59266
 C3780 C 0.76339 0.90449 0.58823
 C3781 C 0.78394 0.91407 0.59400
 C3782 C 0.79953 0.90042 0.60524
 C3783 C 0.79434 0.87768 0.61051
 C3784 C 0.77352 0.86838 0.60363
 O3785 O 0.73705 0.87710 0.58736
 C3786 C 0.72883 0.89635 0.57953
 C3787 C 0.74429 0.91364 0.57975
 C3788 C 0.73881 0.93566 0.57405
 C3789 C 0.71645 0.94010 0.56806
 C3790 C 0.70018 0.92261 0.56778
 C3791 C 0.70655 0.90035 0.57326
 H3792 H 0.78755 0.93162 0.59066
 H3793 H 0.81539 0.90771 0.61052
 H3794 H 0.76891 0.85128 0.60801
 H3795 H 0.75117 0.94905 0.57478
 H3796 H 0.71168 0.95719 0.56393
 H3797 H 0.69431 0.88683 0.57370
 C3798 C 0.73841 0.35754 1.11411
 C3799 C 0.72025 0.35492 1.12831
 C3800 C 0.72183 0.34464 1.14935
 C3801 C 0.74310 0.33722 1.15627
 C3802 C 0.76219 0.34016 1.14216
 C3803 C 0.75968 0.34999 1.12054
 O3804 O 0.73367 0.36936 1.09567
 C3805 C 0.71209 0.37442 1.09834
 C3806 C 0.70310 0.36597 1.11806
 C3807 C 0.68132 0.37069 1.12513
 C3808 C 0.66834 0.38488 1.11144
 C3809 C 0.67727 0.39388 1.09112
 C3810 C 0.69933 0.38829 1.08428
 H3811 H 0.70737 0.34311 1.16037
 H3812 H 0.74489 0.32980 1.17289
 H3813 H 0.77409 0.35301 1.10974
 H3814 H 0.67474 0.36416 1.14089
 H3815 H 0.65142 0.38907 1.11671
 H3816 H 0.70658 0.39528 1.06901
 C3817 C 0.76348 1.11991 1.14484
 C3818 C 0.78180 1.13380 1.14769
 C3819 C 0.78020 1.15505 1.15736
 C3820 C 0.75880 1.16239 1.16409
 C3821 C 0.73957 1.14850 1.16106
 C3822 C 0.74209 1.12679 1.15161
 O3823 O 0.76832 1.10106 1.13390
 C3824 C 0.79015 1.10312 1.12964
 C3825 C 0.79922 1.12286 1.13775
 C3826 C 0.82141 1.12920 1.13375
 C3827 C 0.83467 1.11478 1.12059
 C3828 C 0.82561 1.09448 1.11188
 C3829 C 0.80316 1.08836 1.11681
 H3830 H 0.79481 1.16580 1.15917
 H3831 H 0.75712 1.17900 1.17139
 H3832 H 0.72768 1.11603 1.14860
 H3833 H 0.82809 1.14495 1.14002
 H3834 H 0.85187 1.11953 1.11682
 H3835 H 0.79580 1.07317 1.10993
 C3836 C 0.74209 0.60630 0.61032
 C3837 C 0.73820 0.58374 0.60700
 C3838 C 0.71780 0.57345 0.61217
 C3839 C 0.70070 0.58697 0.62117
 C3840 C 0.70424 0.61032 0.62491
 C3841 C 0.72531 0.62007 0.61927
 O3842 O 0.76281 0.61263 0.60472
 C3843 C 0.77220 0.59362 0.59771
 C3844 C 0.75783 0.57546 0.59879
 C3845 C 0.76433 0.55381 0.59291
 C3846 C 0.78663 0.55069 0.58586
 C3847 C 0.80190 0.56908 0.58477
 C3848 C 0.79443 0.59094 0.59053
 H3849 H 0.71516 0.55564 0.60942
 H3850 H 0.68462 0.57926 0.62503
 H3851 H 0.72871 0.63773 0.62216
 H3852 H 0.75274 0.53977 0.59399
 H3853 H 0.79207 0.53391 0.58135
 H3854 H 0.80578 0.60522 0.59015
 C3855 C 0.25569 1.11644 0.63372
 C3856 C 0.27283 1.13171 0.63691
 C3857 C 0.26961 1.15251 0.64703
 C3858 C 0.24774 1.15800 0.65383
 C3859 C 0.22959 1.14284 0.65029
 C3860 C 0.23374 1.12153 0.64046
 O3861 O 0.26226 1.09809 0.62276
 C3862 C 0.28396 1.10196 0.61889
 C3863 C 0.29119 1.12235 0.62719
 C3864 C 0.31288 1.13051 0.62389
 C3865 C 0.32773 1.11716 0.61140
 C3866 C 0.32075 1.09608 0.60268
 C3867 C 0.29863 1.08821 0.60669
 H3868 H 0.28336 1.16428 0.64922
 H3869 H 0.24486 1.17424 0.66155
 H3870 H 0.22017 1.10979 0.63723
 H3871 H 0.31803 1.14676 0.63031
 H3872 H 0.34465 1.12325 0.60832
 H3873 H 0.29287 1.07232 0.59986
 C3874 C 0.26383 0.62056 1.14542
 C3875 C 0.28266 0.63382 1.14813
 C3876 C 0.28201 0.65506 1.15788
 C3877 C 0.26100 0.66312 1.16486
 C3878 C 0.24136 0.64985 1.16209
 C3879 C 0.24282 0.62811 1.15261
 O3880 O 0.26787 0.60174 1.13409
 C3881 C 0.28968 0.60320 1.12948
 C3882 C 0.29949 0.62249 1.13779
 C3883 C 0.32181 0.62819 1.13374
 C3884 C 0.33446 0.61362 1.12022
 C3885 C 0.32465 0.59381 1.11127
 C3886 C 0.30207 0.58828 1.11625
 H3887 H 0.29698 0.66535 1.15938
 H3888 H 0.25988 0.67987 1.17193
 H3889 H 0.22791 0.61799 1.14981
 H3890 H 0.32907 0.64348 1.14043
 H3891 H 0.35181 0.61780 1.11650
 H3892 H 0.29423 0.57337 1.10928
 C3893 C 0.74421 0.87866 0.89097
 C3894 C 0.75891 0.88084 0.87315
 C3895 C 0.75299 0.87591 0.85101
 C3896 C 0.73091 0.86859 0.84702
 C3897 C 0.71530 0.86638 0.86504
 C3898 C 0.72219 0.87124 0.88740
 O3899 O 0.75292 0.88534 0.91050
 C3900 C 0.77355 0.89192 0.90486
 C3901 C 0.77802 0.88946 0.88219
 C3902 C 0.79812 0.89632 0.87234
 C3903 C 0.81419 0.90640 0.88637
 C3904 C 0.80992 0.90944 0.90977
 C3905 C 0.78944 0.90171 0.91922
 H3906 H 0.76482 0.87796 0.83725
 H3907 H 0.72592 0.86477 0.82987
 H3908 H 0.71054 0.87010 0.90142
 H3909 H 0.80115 0.89440 0.85443
 H3910 H 0.82987 0.91215 0.87900
 H3911 H 0.78566 0.90414 0.93694
 C3912 C 0.76378 0.36665 0.37111
 C3913 C 0.77780 0.37548 0.35485
 C3914 C 0.77424 0.37249 0.33185
 C3915 C 0.75521 0.36015 0.32531
 C3916 C 0.74036 0.35105 0.34173
 C3917 C 0.74492 0.35407 0.36498
 O3918 O 0.76958 0.37248 0.39196
 C3919 C 0.78764 0.38530 0.38877
 C3920 C 0.79332 0.38761 0.36635
 C3921 C 0.81098 0.40104 0.35901
 C3922 C 0.82340 0.41256 0.37540
 C3923 C 0.81775 0.41084 0.39869
 C3924 C 0.79972 0.39672 0.40544
 H3925 H 0.78544 0.37979 0.31939
 H3926 H 0.75185 0.35789 0.30749
 H3927 H 0.73360 0.34767 0.37782
 H3928 H 0.81485 0.40286 0.34126
 H3929 H 0.83741 0.42288 0.36991
 H3930 H 0.79487 0.39520 0.42300
 C3931 C 0.25332 0.87602 0.38246
 C3932 C 0.26767 0.88218 0.36527
 C3933 C 0.26237 0.87952 0.34257
 C3934 C 0.24133 0.87022 0.33735
 C3935 C 0.22628 0.86363 0.35474
 C3936 C 0.23244 0.86634 0.37763
 O3937 O 0.26110 0.88129 0.40282
 C3938 C 0.28078 0.89098 0.39835
 C3939 C 0.28558 0.89179 0.37562
 C3940 C 0.30483 0.90192 0.36699
 C3941 C 0.31958 0.91199 0.38237
 C3942 C 0.31479 0.91201 0.40590
 C3943 C 0.29530 0.90091 0.41403
 H3944 H 0.27384 0.88480 0.32937
 H3945 H 0.23666 0.86819 0.31980
 H3946 H 0.22103 0.86176 0.39116
 H3947 H 0.30817 0.90239 0.34903
 H3948 H 0.33463 0.92007 0.37593
 H3949 H 0.29112 0.90085 0.43183
 C3950 C 0.24885 0.37495 0.88895
 C3951 C 0.26494 0.37528 0.87224
 C3952 C 0.26128 0.36657 0.85082
 C3953 C 0.23997 0.35758 0.84621
 C3954 C 0.22272 0.35767 0.86284
 C3955 C 0.22745 0.36606 0.88472
 O3956 O 0.25563 0.38481 0.90789
 C3957 C 0.27639 0.39161 0.90295
 C3958 C 0.28280 0.38627 0.88129
 C3959 C 0.30334 0.39279 0.87210
 C3960 C 0.31792 0.40531 0.88581
 C3961 C 0.31185 0.41087 0.90828
 C3962 C 0.29084 0.40376 0.91705
 H3963 H 0.27423 0.36706 0.83797
 H3964 H 0.23674 0.35095 0.82950
 H3965 H 0.21458 0.36667 0.89764
 H3966 H 0.30787 0.38861 0.85491
 H3967 H 0.33403 0.41056 0.87902
 H3968 H 0.28577 0.40799 0.93409
   
