data_POSCAR
  _audit_creation_date              2014-09-24
  _audit_creation_method            'ToBaCCo'
  _symmetry_space_group_name_H-M    'P1'
  _symmetry_Int_Tables_number       1
  _symmetry_cell_setting            triclinic
  loop_
  _symmetry_equiv_pos_as_xyz
 x,y,z
_cell_length_a 44.1767
_cell_length_b 44.1729
_cell_length_c 34.1047
_cell_angle_alpha 90.050700
_cell_angle_beta 90.024700
_cell_angle_gamma 89.987700
loop_
  _atom_site_label
  _atom_site_type_symbol
  _atom_site_fract_x
  _atom_site_fract_y
  _atom_site_fract_z
Zr1 Zr -0.05323 0.00257 -0.00288
 O2 O -0.08710 -0.02113 -0.03440
 O3 O -0.07918 0.02983 0.03466
 O4 O -0.07830 -0.02649 0.03390
 O5 O -0.04162 0.05684 -0.07460
 O6 O -0.04218 -0.05375 0.06633
 O7 O -0.07800 0.03138 -0.04023
 O8 O -0.04361 0.05433 0.07152
 O9 O -0.02823 0.00102 0.04926
 O10 O -0.02746 0.04225 -0.00138
 O11 O -0.02734 -0.03729 -0.00646
 O12 O -0.02748 0.00242 -0.05506
 Zr13 Zr 0.05238 0.00124 -0.00384
 Zr14 Zr -0.00071 -0.03742 0.04436
 Zr15 Zr -0.00022 0.04125 -0.05123
 Zr16 Zr -0.00143 0.03991 0.04922
 O17 O 0.00120 0.03881 -0.11317
 O18 O -0.00135 0.03078 0.11025
 O19 O 0.02676 0.04153 -0.00047
 O20 O 0.02627 0.00149 0.04775
 O21 O 0.02695 -0.03873 -0.00543
 O22 O 0.02697 0.00279 -0.05556
 C23 C -0.07109 0.04828 0.06182
 C24 C -0.06933 0.05063 -0.06619
 C25 C -0.06981 -0.04692 0.05843
 O26 O 0.00092 -0.03503 0.10629
 O27 O 0.04051 -0.05606 0.06387
 O28 O 0.07703 -0.02948 0.03127
 C29 C 0.06824 -0.04997 0.05555
 O30 O -0.03965 -0.05175 -0.08365
 Zr31 Zr 0.00054 -0.03608 -0.05600
 O32 O 0.07830 -0.02656 -0.04069
 O33 O -0.00257 -0.08497 0.03726
 O34 O -0.00080 -0.08373 -0.04863
 O35 O 0.00346 -0.02896 -0.11738
 O36 O 0.04267 -0.05359 -0.07435
 C37 C 0.07015 -0.04699 -0.06533
 O38 O 0.08624 0.02370 0.02916
 O39 O -0.00140 0.08886 -0.04448
 O40 O 0.07747 0.03196 -0.03841
 O41 O 0.04126 0.06022 -0.06930
 O42 O -0.00306 0.08772 0.04402
 O43 O 0.03876 0.05945 0.07237
 C44 C 0.06892 0.05340 -0.06148
 H45 H -0.03990 0.06090 -0.00120
 H46 H 0.03931 0.00126 0.07136
 H47 H 0.03967 0.00367 -0.07944
 H48 H -0.04048 -0.05541 -0.00793
 H49 H -0.00692 0.04978 0.12392
 H50 H -0.00001 -0.05613 0.11605
 H51 H -0.00188 -0.09390 0.06390
 H52 H 0.00473 -0.09305 -0.07409
 H53 H -0.00815 0.09603 0.07021
 H54 H -0.00203 0.09760 -0.07121
 H55 H 0.00192 0.05993 -0.12287
 H56 H 0.00854 -0.04867 -0.12963
 H57 H 0.03365 0.07217 0.09536
 H58 H 0.10613 0.01649 0.01937
 H59 H -0.10701 -0.01389 -0.02474
 H60 H -0.03460 -0.06827 -0.10216
 Zr61 Zr 0.55237 0.50126 0.49626
 O62 O 0.58616 0.52388 0.52919
 O63 O 0.57836 0.47330 0.45970
 O64 O 0.57695 0.47071 0.53172
 O65 O 0.54140 0.55989 0.43024
 O66 O 0.54038 0.44431 0.56445
 O67 O 0.57753 0.53178 0.46151
 O68 O 0.54280 0.44613 0.42612
 O69 O 0.52695 0.46127 0.49493
 O70 O 0.52705 0.50254 0.44445
 O71 O 0.52615 0.50177 0.54776
 O72 O 0.52675 0.54156 0.49920
 Zr73 Zr 0.44676 0.50258 0.49687
 Zr74 Zr 0.49918 0.46283 0.54462
 Zr75 Zr 0.49987 0.54103 0.44835
 Zr76 Zr 0.50063 0.46367 0.44425
 O77 O 0.49866 0.58867 0.45473
 O78 O 0.49933 0.41606 0.45204
 O79 O 0.47261 0.50217 0.44477
 O80 O 0.47265 0.46270 0.49371
 O81 O 0.47167 0.50130 0.54909
 O82 O 0.47252 0.54228 0.49810
 C83 C 0.57026 0.45278 0.43516
 C84 C 0.56904 0.55310 0.43822
 C85 C 0.56812 0.45035 0.55616
 O86 O 0.49735 0.41524 0.53793
 O87 O 0.45767 0.44661 0.56658
 O88 O 0.42162 0.47371 0.53380
 C89 C 0.43005 0.45340 0.55853
 O90 O 0.53861 0.55987 0.57188
 Zr91 Zr 0.49846 0.54019 0.54881
 O92 O 0.42073 0.53001 0.53411
 O93 O 0.50068 0.46555 0.60653
 O94 O 0.49847 0.53139 0.60992
 O95 O 0.49678 0.58798 0.54320
 O96 O 0.45623 0.55467 0.57090
 C97 C 0.42878 0.54856 0.56118
 O98 O 0.41296 0.47872 0.46543
 O99 O 0.50142 0.53829 0.38645
 O100 O 0.42207 0.53118 0.45916
 O101 O 0.45850 0.55647 0.42469
 O102 O 0.50362 0.47048 0.38282
 O103 O 0.46049 0.44784 0.41664
 C104 C 0.43077 0.55028 0.43305
 H105 H 0.53979 0.50331 0.42061
 H106 H 0.45952 0.44458 0.49235
 H107 H 0.46007 0.56092 0.49809
 H108 H 0.53915 0.50166 0.57142
 H109 H 0.50491 0.40662 0.42668
 H110 H 0.49799 0.40646 0.56465
 H111 H 0.49973 0.44450 0.61647
 H112 H 0.49287 0.55047 0.62340
 H113 H 0.50872 0.45071 0.37074
 H114 H 0.50215 0.55937 0.37657
 H115 H 0.49809 0.59728 0.42791
 H116 H 0.49165 0.59641 0.56931
 H117 H 0.46558 0.43120 0.39831
 H118 H 0.39302 0.48601 0.47497
 H119 H 0.60607 0.51663 0.51954
 H120 H 0.53346 0.57273 0.59472
 Zr121 Zr 0.55316 -0.00291 0.49840
 O122 O 0.58731 0.02055 0.46720
 O123 O 0.57882 -0.03040 0.53603
 O124 O 0.57824 0.02617 0.53534
 O125 O 0.54142 -0.05708 0.42638
 O126 O 0.54212 0.05363 0.56751
 O127 O 0.57786 -0.03184 0.46102
 O128 O 0.54299 -0.05478 0.57251
 O129 O 0.52798 -0.00121 0.55038
 O130 O 0.52714 -0.04244 0.49960
 O131 O 0.52744 0.03708 0.49470
 O132 O 0.52753 -0.00260 0.44606
 Zr133 Zr 0.44745 -0.00097 0.49672
 Zr134 Zr 0.50065 0.03738 0.54536
 Zr135 Zr 0.50003 -0.04128 0.44959
 Zr136 Zr 0.50096 -0.03995 0.55005
 O137 O 0.49879 -0.03880 0.38766
 O138 O 0.50085 -0.03077 0.61109
 O139 O 0.47289 -0.04138 0.50019
 O140 O 0.47345 -0.00139 0.54847
 O141 O 0.47314 0.03885 0.49540
 O142 O 0.47304 -0.00267 0.44517
 C143 C 0.57054 -0.04890 0.56301
 C144 C 0.56916 -0.05103 0.43492
 C145 C 0.56976 0.04672 0.55976
 O146 O 0.49889 0.03496 0.60727
 O147 O 0.45948 0.05625 0.56474
 O148 O 0.42289 0.02992 0.53183
 C149 C 0.43173 0.05036 0.55624
 O150 O 0.54005 0.05148 0.41761
 Zr151 Zr 0.49969 0.03604 0.44499
 O152 O 0.42182 0.02704 0.45976
 O153 O 0.50272 0.08492 0.53835
 O154 O 0.50132 0.08368 0.45246
 O155 O 0.49691 0.02888 0.38359
 O156 O 0.45773 0.05385 0.42642
 C157 C 0.43017 0.04744 0.43524
 O158 O 0.41334 -0.02320 0.52943
 O159 O 0.50095 -0.08889 0.45625
 O160 O 0.42233 -0.03163 0.46193
 O161 O 0.45851 -0.06008 0.43125
 O162 O 0.50221 -0.08777 0.54467
 O163 O 0.46061 -0.05921 0.57304
 C164 C 0.43085 -0.05315 0.43890
 H165 H 0.53946 -0.06115 0.49979
 H166 H 0.46035 -0.00108 0.57201
 H167 H 0.46039 -0.00349 0.42122
 H168 H 0.54067 0.05513 0.49333
 H169 H 0.50627 -0.04980 0.62476
 H170 H 0.49990 0.05606 0.61710
 H171 H 0.50199 0.09386 0.56500
 H172 H 0.49594 0.09303 0.42699
 H173 H 0.50718 -0.09616 0.57084
 H174 H 0.50164 -0.09764 0.42949
 H175 H 0.49798 -0.05992 0.37789
 H176 H 0.49196 0.04860 0.37132
 H177 H 0.46561 -0.07195 0.59603
 H178 H 0.39353 -0.01587 0.51951
 H179 H 0.60714 0.01317 0.47700
 H180 H 0.53513 0.06798 0.39904
 Zr181 Zr -0.05263 0.49910 -0.00690
 O182 O -0.08680 0.47689 0.02575
 O183 O -0.07824 0.52731 -0.04365
 O184 O -0.07709 0.52991 0.02845
 O185 O -0.04179 0.44003 -0.07247
 O186 O -0.04040 0.55611 0.06135
 O187 O -0.07784 0.46850 -0.04168
 O188 O -0.04233 0.55413 -0.07690
 O189 O -0.02686 0.53886 -0.00814
 O190 O -0.02713 0.49742 -0.05852
 O191 O -0.02658 0.49852 0.04479
 O192 O -0.02728 0.45863 -0.00361
 Zr193 Zr 0.05307 0.49691 -0.00543
 Zr194 Zr 0.00071 0.53723 0.04175
 Zr195 Zr -0.00020 0.45876 -0.05425
 Zr196 Zr -0.00038 0.53608 -0.05862
 O197 O 0.00064 0.41112 -0.04781
 O198 O 0.00147 0.58371 -0.05107
 O199 O 0.02738 0.49738 -0.05773
 O200 O 0.02744 0.53696 -0.00897
 O201 O 0.02795 0.49858 0.04659
 O202 O 0.02696 0.45744 -0.00429
 C203 C -0.06991 0.54783 -0.06805
 C204 C -0.06945 0.44695 -0.06473
 C205 C -0.06817 0.55025 0.05295
 O206 O 0.00284 0.58479 0.03485
 O207 O 0.04225 0.55335 0.06386
 O208 O 0.07827 0.52587 0.03153
 C209 C 0.06986 0.54639 0.05605
 O210 O -0.03954 0.44067 0.06916
 Zr211 Zr 0.00084 0.45990 0.04621
 O212 O 0.07871 0.46933 0.03212
 O213 O -0.00095 0.53472 0.10366
 O214 O 0.00077 0.46895 0.10728
 O215 O 0.00201 0.41209 0.04068
 O216 O 0.04285 0.44499 0.06859
 C217 C 0.07041 0.45083 0.05909
 O218 O 0.08723 0.52032 -0.03667
 O219 O -0.00152 0.46138 -0.11617
 O220 O 0.07765 0.46792 -0.04288
 O221 O 0.04115 0.44286 -0.07754
 O222 O -0.00337 0.52903 -0.12003
 O223 O 0.03997 0.55141 -0.08611
 C224 C 0.06893 0.44876 -0.06901
 H225 H -0.03983 0.49669 -0.08243
 H226 H 0.04071 0.55498 -0.01031
 H227 H 0.03923 0.43870 -0.00417
 H228 H -0.03964 0.49881 0.06836
 H229 H -0.00393 0.59311 -0.07650
 H230 H 0.00218 0.59369 0.06152
 H231 H 0.00012 0.55580 0.11354
 H232 H 0.00616 0.44988 0.12088
 H233 H -0.00831 0.54879 -0.13221
 H234 H -0.00240 0.44029 -0.12601
 H235 H 0.00126 0.40244 -0.07460
 H236 H 0.00699 0.40365 0.06682
 H237 H 0.03507 0.56791 -0.10470
 H238 H 0.10705 0.51288 -0.02693
 H239 H -0.10659 0.48429 0.01587
 H240 H -0.03455 0.42787 0.09209
 Zr241 Zr 0.05350 0.50259 0.50282
 O242 O 0.08745 0.47881 0.53406
 O243 O 0.07938 0.53004 0.46549
 O244 O 0.07859 0.47371 0.46577
 O245 O 0.04185 0.55648 0.57512
 O246 O 0.04248 0.44656 0.43313
 O247 O 0.07824 0.53124 0.54044
 O248 O 0.04374 0.55465 0.42890
 O249 O 0.02846 0.50123 0.45071
 O250 O 0.02767 0.54225 0.50174
 O251 O 0.02769 0.46268 0.50606
 O252 O 0.02780 0.50217 0.55503
 Zr253 Zr -0.05209 0.50110 0.50391
 Zr254 Zr 0.00102 0.46274 0.45527
 Zr255 Zr 0.00047 0.54098 0.55161
 Zr256 Zr 0.00160 0.54009 0.45115
 O257 O -0.00094 0.53829 0.61352
 O258 O 0.00147 0.53123 0.39003
 O259 O -0.02655 0.54144 0.50088
 O260 O -0.02603 0.50163 0.45229
 O261 O -0.02660 0.46115 0.50509
 O262 O -0.02664 0.50246 0.55561
 C263 C 0.07124 0.54858 0.43849
 C264 C 0.06956 0.55033 0.56661
 C265 C 0.07010 0.45337 0.44108
 O266 O -0.00066 0.46540 0.39338
 O267 O -0.04018 0.44413 0.43564
 O268 O -0.07671 0.47050 0.46857
 C269 C -0.06790 0.45013 0.44408
 O270 O 0.04009 0.44787 0.58308
 Zr271 Zr -0.00016 0.46363 0.55565
 O272 O -0.07794 0.47313 0.54055
 O273 O 0.00296 0.41515 0.46190
 O274 O 0.00124 0.41601 0.54782
 O275 O -0.00301 0.47050 0.61710
 O276 O -0.04224 0.44601 0.57394
 C277 C -0.06974 0.45263 0.56502
 O278 O -0.08601 0.52364 0.47115
 O279 O 0.00159 0.58862 0.54531
 O280 O -0.07720 0.53162 0.53875
 O281 O -0.04103 0.55982 0.56986
 O282 O 0.00317 0.58788 0.45681
 O283 O -0.03864 0.55968 0.42825
 C284 C -0.06868 0.55298 0.56199
 H285 H 0.04008 0.56090 0.50172
 H286 H -0.03908 0.50147 0.42869
 H287 H -0.03933 0.50323 0.57951
 H288 H 0.04086 0.44457 0.50734
 H289 H 0.00699 0.55030 0.37654
 H290 H 0.00031 0.44434 0.38341
 H291 H 0.00226 0.40635 0.43517
 H292 H -0.00426 0.40658 0.57319
 H293 H 0.00823 0.59631 0.43070
 H294 H 0.00221 0.59725 0.57214
 H295 H -0.00169 0.55937 0.62342
 H296 H -0.00805 0.45074 0.62918
 H297 H -0.03357 0.57252 0.40540
 H298 H -0.10589 0.51637 0.48088
 H299 H 0.10734 0.48612 0.52444
 H300 H 0.03507 0.43126 0.60144
 Zr301 Zr 0.44796 0.00096 0.00382
 O302 O 0.41410 0.02348 -0.02907
 O303 O 0.42205 -0.02710 0.04029
 O304 O 0.42349 -0.02964 -0.03167
 O305 O 0.45874 0.05965 0.06989
 O306 O 0.46014 -0.05592 -0.06450
 O307 O 0.42271 0.03143 0.03858
 O308 O 0.45770 -0.05420 0.07377
 O309 O 0.47351 -0.03895 0.00504
 O310 O 0.47326 0.00231 0.05564
 O311 O 0.47417 0.00157 -0.04769
 O312 O 0.47345 0.04134 0.00097
 Zr313 Zr 0.55355 0.00260 0.00320
 Zr314 Zr 0.50126 -0.03728 -0.04465
 Zr315 Zr 0.50032 0.04087 0.05182
 Zr316 Zr 0.49981 -0.03648 0.05574
 O317 O 0.50141 0.08852 0.04564
 O318 O 0.50131 -0.08409 0.04785
 O319 O 0.52771 0.00210 0.05530
 O320 O 0.52778 -0.03734 0.00627
 O321 O 0.52867 0.00126 -0.04904
 O322 O 0.52766 0.04223 0.00208
 C323 C 0.43022 -0.04763 0.06474
 C324 C 0.43113 0.05279 0.06187
 C325 C 0.43239 -0.04997 -0.05616
 O326 O 0.50322 -0.08487 -0.03809
 O327 O 0.54282 -0.05344 -0.06655
 O328 O 0.57879 -0.02623 -0.03374
 C329 C 0.57041 -0.04660 -0.05844
 O330 O 0.46154 0.05959 -0.07176
 Zr331 Zr 0.50174 0.04007 -0.04864
 O332 O 0.57949 0.03019 -0.03391
 O333 O 0.49979 -0.03456 -0.10654
 O334 O 0.50188 0.03125 -0.10977
 O335 O 0.50313 0.08787 -0.04289
 O336 O 0.54392 0.05483 -0.07057
 C337 C 0.57139 0.04882 -0.06083
 O338 O 0.58745 -0.02115 0.03455
 O339 O 0.49874 0.03810 0.11372
 O340 O 0.57814 0.03123 0.04099
 O341 O 0.54163 0.05640 0.07555
 O342 O 0.49676 -0.02968 0.11718
 O343 O 0.54000 -0.05219 0.08333
 C344 C 0.56937 0.05029 0.06715
 H345 H 0.46050 0.00304 0.07948
 H346 H 0.54098 -0.05543 0.00760
 H347 H 0.54003 0.06090 0.00217
 H348 H 0.46118 0.00142 -0.07135
 H349 H 0.49577 -0.09355 0.07318
 H350 H 0.50261 -0.09365 -0.06484
 H351 H 0.50080 -0.05560 -0.11654
 H352 H 0.50742 0.05035 -0.12320
 H353 H 0.49171 -0.04946 0.12920
 H354 H 0.49793 0.05917 0.12366
 H355 H 0.50195 0.09711 0.07248
 H356 H 0.50824 0.09635 -0.06895
 H357 H 0.53496 -0.06881 0.10165
 H358 H 0.60736 -0.01379 0.02504
 H359 H 0.39421 0.01617 -0.01944
 H360 H 0.46665 0.07242 -0.09461
 Zr361 Zr 0.44669 0.49739 0.00324
 O362 O 0.41294 0.52111 0.03491
 O363 O 0.42062 0.47026 -0.03431
 O364 O 0.42159 0.52653 -0.03342
 O365 O 0.45834 0.44296 0.07475
 O366 O 0.45769 0.55375 -0.06589
 O367 O 0.42195 0.46855 0.04053
 O368 O 0.45607 0.44573 -0.07132
 O369 O 0.47160 0.49898 -0.04895
 O370 O 0.47240 0.45767 0.00158
 O371 O 0.47263 0.53721 0.00683
 O372 O 0.47253 0.49743 0.05537
 Zr373 Zr 0.55228 0.49856 0.00396
 Zr374 Zr 0.49918 0.53737 -0.04405
 Zr375 Zr 0.49974 0.45856 0.05138
 Zr376 Zr 0.49834 0.46004 -0.04908
 O377 O 0.50124 0.46092 0.11332
 O378 O 0.49830 0.46927 -0.11008
 O379 O 0.52661 0.45832 0.00055
 O380 O 0.52609 0.49841 -0.04759
 O381 O 0.52692 0.53857 0.00570
 O382 O 0.52697 0.49698 0.05573
 C383 C 0.42862 0.45183 -0.06154
 C384 C 0.43062 0.44922 0.06640
 C385 C 0.43007 0.54695 -0.05794
 O386 O 0.50072 0.53506 -0.10598
 O387 O 0.54040 0.55600 -0.06357
 O388 O 0.57692 0.52929 -0.03110
 C389 C 0.56813 0.54986 -0.05529
 O390 O 0.46046 0.55155 0.08409
 Zr391 Zr 0.50060 0.53589 0.05632
 O392 O 0.57831 0.52630 0.04078
 O393 O 0.49736 0.58491 -0.03685
 O394 O 0.49925 0.58355 0.04909
 O395 O 0.50367 0.52870 0.11767
 O396 O 0.54278 0.55334 0.07456
 C397 C 0.57023 0.54672 0.06545
 O398 O 0.58603 0.47606 -0.02917
 O399 O 0.49854 0.41096 0.04452
 O400 O 0.57740 0.46781 0.03843
 O401 O 0.54124 0.43955 0.06935
 O402 O 0.49664 0.41222 -0.04401
 O403 O 0.53845 0.44045 -0.07235
 C404 C 0.56889 0.44637 0.06149
 H405 H 0.45995 0.43904 0.00137
 H406 H 0.53909 0.49866 -0.07122
 H407 H 0.53972 0.49606 0.07958
 H408 H 0.45952 0.55535 0.00837
 H409 H 0.49267 0.45029 -0.12378
 H410 H 0.49978 0.55618 -0.11568
 H411 H 0.49801 0.59387 -0.06347
 H412 H 0.50484 0.59282 0.07456
 H413 H 0.49149 0.40397 -0.07021
 H414 H 0.49795 0.40218 0.07124
 H415 H 0.50196 0.43978 0.12298
 H416 H 0.50879 0.54839 0.12995
 H417 H 0.53328 0.42780 -0.09538
 H418 H 0.60596 0.48322 -0.01943
 H419 H 0.39299 0.51393 0.02528
 H420 H 0.46556 0.56802 0.10267
 Zr421 Zr 0.05229 -0.00115 0.50404
 O422 O 0.08613 -0.02356 0.47097
 O423 O 0.07823 0.02676 0.54076
 O424 O 0.07678 0.02959 0.46880
 O425 O 0.04149 -0.06010 0.56960
 O426 O 0.04011 0.05605 0.43625
 O427 O 0.07754 -0.03176 0.53856
 O428 O 0.04260 0.05373 0.57448
 O429 O 0.02676 0.03876 0.50565
 O430 O 0.02701 -0.00272 0.55584
 O431 O 0.02606 -0.00154 0.45253
 O432 O 0.02677 -0.04150 0.50082
 Zr433 Zr -0.05332 -0.00276 0.50341
 Zr434 Zr -0.00101 0.03732 0.45594
 Zr435 Zr -0.00009 -0.04125 0.55167
 Zr436 Zr 0.00048 0.03608 0.55631
 O437 O -0.00115 -0.08887 0.54501
 O438 O -0.00104 0.08372 0.54889
 O439 O -0.02745 -0.00248 0.55553
 O440 O -0.02752 0.03717 0.50685
 O441 O -0.02844 -0.00119 0.45120
 O442 O -0.02745 -0.04238 0.50190
 C443 C 0.07007 0.04719 0.56538
 C444 C 0.06911 -0.05321 0.56167
 C445 C 0.06788 0.05004 0.44451
 O446 O -0.00297 0.08488 0.46297
 O447 O -0.04257 0.05353 0.43412
 O448 O -0.07855 0.02623 0.46670
 C449 C -0.07016 0.04666 0.44214
 O450 O 0.03865 -0.05949 0.42797
 Zr451 Zr -0.00154 -0.04001 0.45122
 O452 O -0.07928 -0.03011 0.46600
 O453 O 0.00046 0.03487 0.39402
 O454 O -0.00165 -0.03094 0.39017
 O455 O -0.00301 -0.08783 0.45649
 O456 O -0.04374 -0.05458 0.42907
 C457 C -0.07121 -0.04858 0.43885
 O458 O -0.08717 0.02089 0.53500
 O459 O 0.00149 -0.03874 0.61359
 O460 O -0.07792 -0.03159 0.54090
 O461 O -0.04139 -0.05693 0.57520
 O462 O 0.00359 0.02902 0.61768
 O463 O -0.03969 0.05167 0.58405
 C464 C -0.06915 -0.05079 0.56686
 H465 H 0.03978 -0.00354 0.57968
 H466 H -0.04071 0.05526 0.50833
 H467 H -0.03983 -0.06105 0.50179
 H468 H 0.03904 -0.00129 0.42887
 H469 H 0.00452 0.09307 0.57432
 H470 H -0.00238 0.09377 0.43631
 H471 H -0.00056 0.05596 0.38423
 H472 H -0.00720 -0.04997 0.37655
 H473 H 0.00864 0.04875 0.62989
 H474 H 0.00230 -0.05986 0.62333
 H475 H -0.00168 -0.09759 0.57176
 H476 H -0.00814 -0.09618 0.43034
 H477 H -0.03464 0.06820 0.60257
 H478 H -0.10709 0.01359 0.52541
 H479 H 0.10603 -0.01630 0.48067
 H480 H 0.03352 -0.07222 0.40500
 Zr481 Zr 0.75268 0.19671 0.25352
 O482 O 0.72897 0.16292 0.28508
 O483 O 0.78005 0.17065 0.21625
 O484 O 0.72375 0.17145 0.21675
 O485 O 0.80675 0.20866 0.32550
 O486 O 0.69650 0.20741 0.18403
 O487 O 0.78141 0.17213 0.29116
 O488 O 0.80455 0.20611 0.17932
 O489 O 0.75119 0.22151 0.20127
 O490 O 0.79234 0.22252 0.25210
 O491 O 0.71278 0.22254 0.25680
 O492 O 0.75239 0.22265 0.30559
 Zr493 Zr 0.75117 0.30231 0.25397
 Zr494 Zr 0.71271 0.24898 0.20585
 Zr495 Zr 0.79118 0.24995 0.30181
 Zr496 Zr 0.79004 0.24837 0.20136
 O497 O 0.78865 0.25166 0.36372
 O498 O 0.78103 0.24820 0.14029
 O499 O 0.79150 0.27674 0.25092
 O500 O 0.75158 0.27601 0.20251
 O501 O 0.71124 0.27683 0.25551
 O502 O 0.75268 0.27709 0.30582
 C503 C 0.79853 0.17866 0.18912
 C504 C 0.80057 0.18091 0.31719
 C505 C 0.70336 0.17983 0.19210
 O506 O 0.71521 0.25038 0.14393
 O507 O 0.69402 0.29009 0.18606
 O508 O 0.72046 0.32677 0.21864
 C509 C 0.70003 0.31785 0.19430
 O510 O 0.69817 0.21049 0.33394
 Zr511 Zr 0.71385 0.25061 0.30621
 O512 O 0.72330 0.32833 0.29061
 O513 O 0.66514 0.24706 0.21271
 O514 O 0.66622 0.24920 0.29862
 O515 O 0.72087 0.25374 0.36761
 O516 O 0.69629 0.29278 0.32434
 C517 C 0.70288 0.32024 0.31523
 O518 O 0.77361 0.33608 0.22089
 O519 O 0.83881 0.24878 0.29529
 O520 O 0.78178 0.32757 0.28851
 O521 O 0.81005 0.29154 0.31971
 O522 O 0.83784 0.24682 0.20679
 O523 O 0.80956 0.28850 0.17812
 C524 C 0.80319 0.31915 0.31170
 H525 H 0.81099 0.21011 0.25207
 H526 H 0.75136 0.28896 0.17883
 H527 H 0.75350 0.28989 0.32964
 H528 H 0.69468 0.20938 0.25824
 H529 H 0.80006 0.24261 0.12674
 H530 H 0.69413 0.24936 0.13407
 H531 H 0.65627 0.24763 0.18602
 H532 H 0.65686 0.25482 0.32401
 H533 H 0.84621 0.24164 0.18067
 H534 H 0.84750 0.24828 0.32208
 H535 H 0.80976 0.25244 0.37351
 H536 H 0.70114 0.25883 0.37976
 H537 H 0.82233 0.28332 0.15522
 H538 H 0.76636 0.35600 0.23054
 H539 H 0.73626 0.14298 0.27555
 H540 H 0.68161 0.21560 0.35235
 Zr541 Zr 0.74793 0.80293 0.75400
 O542 O 0.77168 0.83700 0.78509
 O543 O 0.72018 0.82868 0.71677
 O544 O 0.77666 0.82805 0.71683
 O545 O 0.69432 0.79122 0.82654
 O546 O 0.80385 0.79196 0.68421
 O547 O 0.71932 0.82763 0.79167
 O548 O 0.69549 0.79292 0.68044
 O549 O 0.74919 0.77783 0.70191
 O550 O 0.70836 0.77696 0.75315
 O551 O 0.78792 0.77720 0.75718
 O552 O 0.74862 0.77727 0.80626
 Zr553 Zr 0.74976 0.69729 0.75530
 Zr554 Zr 0.78778 0.75048 0.70642
 Zr555 Zr 0.70990 0.74982 0.80307
 Zr556 Zr 0.71043 0.75085 0.70259
 O557 O 0.71286 0.74849 0.86496
 O558 O 0.71912 0.75077 0.64144
 O559 O 0.70936 0.72275 0.75238
 O560 O 0.74897 0.72332 0.70364
 O561 O 0.78962 0.72291 0.75626
 O562 O 0.74849 0.72278 0.80698
 C563 C 0.70147 0.82046 0.68996
 C564 C 0.70032 0.81894 0.81792
 C565 C 0.79699 0.81959 0.69213
 O566 O 0.78492 0.74875 0.64453
 O567 O 0.80644 0.70931 0.68675
 O568 O 0.78030 0.67273 0.71983
 C569 C 0.80055 0.68157 0.69524
 O570 O 0.80289 0.78971 0.83419
 Zr571 Zr 0.78724 0.74939 0.80681
 O572 O 0.77804 0.67155 0.79181
 O573 O 0.83538 0.75252 0.71287
 O574 O 0.83482 0.75104 0.79882
 O575 O 0.78056 0.74648 0.86827
 O576 O 0.80521 0.70737 0.82494
 C577 C 0.79870 0.67983 0.81607
 O578 O 0.72725 0.66323 0.72270
 O579 O 0.66222 0.75084 0.79704
 O580 O 0.71934 0.67215 0.79023
 O581 O 0.69114 0.70831 0.82135
 O582 O 0.66266 0.75215 0.70849
 O583 O 0.69095 0.71053 0.67971
 C584 C 0.69797 0.68065 0.81345
 H585 H 0.68966 0.78930 0.75320
 H586 H 0.74909 0.71023 0.68006
 H587 H 0.74785 0.71009 0.83088
 H588 H 0.80599 0.79042 0.75838
 H589 H 0.69999 0.75623 0.62801
 H590 H 0.80593 0.74976 0.63448
 H591 H 0.84410 0.75180 0.68612
 H592 H 0.84436 0.74561 0.82417
 H593 H 0.65408 0.75715 0.68243
 H594 H 0.65371 0.75149 0.82391
 H595 H 0.69182 0.74768 0.87497
 H596 H 0.80037 0.74149 0.88028
 H597 H 0.67805 0.71555 0.65687
 H598 H 0.73463 0.64339 0.73245
 H599 H 0.76426 0.85686 0.77546
 H600 H 0.81951 0.78475 0.85259
 Zr601 Zr 0.25148 0.30420 0.74694
 O602 O 0.22779 0.33797 0.71528
 O603 O 0.27866 0.33028 0.78445
 O604 O 0.22219 0.32928 0.78356
 O605 O 0.30594 0.29249 0.67537
 O606 O 0.19497 0.29315 0.81595
 O607 O 0.28032 0.32892 0.70956
 O608 O 0.30324 0.29483 0.82137
 O609 O 0.24992 0.27930 0.79912
 O610 O 0.29122 0.27849 0.74855
 O611 O 0.21171 0.27818 0.74330
 O612 O 0.25150 0.27830 0.69481
 Zr613 Zr 0.25046 0.19852 0.74618
 Zr614 Zr 0.21156 0.25167 0.79419
 Zr615 Zr 0.29039 0.25111 0.69877
 Zr616 Zr 0.28887 0.25257 0.79921
 O617 O 0.28804 0.24958 0.63683
 O618 O 0.27962 0.25268 0.86021
 O619 O 0.29066 0.22425 0.74960
 O620 O 0.25054 0.22478 0.79771
 O621 O 0.21042 0.22387 0.74446
 O622 O 0.25202 0.22382 0.69441
 C623 C 0.29716 0.32228 0.81159
 C624 C 0.29966 0.32022 0.68369
 C625 C 0.20169 0.32080 0.80801
 O626 O 0.21387 0.25027 0.85612
 O627 O 0.19305 0.21044 0.81382
 O628 O 0.21977 0.17390 0.78135
 C629 C 0.19923 0.18270 0.80560
 O630 O 0.19738 0.29027 0.66604
 Zr631 Zr 0.21308 0.25018 0.69383
 O632 O 0.22276 0.17246 0.70937
 O633 O 0.16402 0.25331 0.78695
 O634 O 0.16542 0.25144 0.70108
 O635 O 0.22033 0.24712 0.63248
 O636 O 0.19571 0.20796 0.67556
 C637 C 0.20235 0.18051 0.68467
 O638 O 0.27297 0.16479 0.77929
 O639 O 0.33799 0.25237 0.70564
 O640 O 0.28129 0.17342 0.71168
 O641 O 0.30949 0.20961 0.68076
 O642 O 0.33669 0.25423 0.79411
 O643 O 0.30844 0.21248 0.82258
 C644 C 0.30273 0.18194 0.68860
 H645 H 0.30984 0.29094 0.74874
 H646 H 0.25031 0.21181 0.82136
 H647 H 0.25296 0.21107 0.67057
 H648 H 0.19356 0.29127 0.74175
 H649 H 0.29858 0.25834 0.87391
 H650 H 0.19275 0.25114 0.86584
 H651 H 0.15504 0.25267 0.81357
 H652 H 0.15617 0.24583 0.67562
 H653 H 0.34496 0.25938 0.82029
 H654 H 0.34678 0.25297 0.67893
 H655 H 0.30917 0.24888 0.62716
 H656 H 0.20066 0.24195 0.62020
 H657 H 0.32108 0.21769 0.84559
 H658 H 0.26583 0.14486 0.76954
 H659 H 0.23498 0.35791 0.72494
 H660 H 0.18090 0.28514 0.64750
 Zr661 Zr 0.24733 0.69632 0.24598
 O662 O 0.27088 0.66237 0.21443
 O663 O 0.21992 0.67046 0.28339
 O664 O 0.27627 0.67106 0.28275
 O665 O 0.19317 0.70831 0.17409
 O666 O 0.30366 0.70702 0.31537
 O667 O 0.21842 0.67174 0.20842
 O668 O 0.19558 0.70612 0.32029
 O669 O 0.24897 0.72126 0.29819
 O670 O 0.20777 0.72230 0.24744
 O671 O 0.28731 0.72204 0.24263
 O672 O 0.24767 0.72216 0.19388
 Zr673 Zr 0.24921 0.80197 0.24540
 Zr674 Zr 0.28754 0.74861 0.29354
 Zr675 Zr 0.20897 0.74961 0.19768
 Zr676 Zr 0.21022 0.74826 0.29813
 O677 O 0.21148 0.75114 0.13576
 O678 O 0.21929 0.74821 0.35919
 O679 O 0.20880 0.77653 0.24853
 O680 O 0.24876 0.77577 0.29689
 O681 O 0.28906 0.77634 0.24384
 O682 O 0.24756 0.77662 0.19359
 C683 C 0.20150 0.67862 0.31054
 C684 C 0.19923 0.68053 0.18240
 C685 C 0.29672 0.67943 0.30736
 O686 O 0.28510 0.75010 0.35546
 O687 O 0.30636 0.78971 0.31335
 O688 O 0.28001 0.82642 0.28075
 C689 C 0.30042 0.81750 0.30513
 O690 O 0.30182 0.70977 0.16547
 Zr691 Zr 0.28630 0.75000 0.19317
 O692 O 0.27716 0.82779 0.20869
 O693 O 0.33509 0.74654 0.28656
 O694 O 0.33393 0.74840 0.20068
 O695 O 0.27922 0.75304 0.13179
 O696 O 0.30401 0.79206 0.17497
 C697 C 0.29755 0.81957 0.18405
 O698 O 0.22689 0.83591 0.27841
 O699 O 0.16135 0.74867 0.20429
 O700 O 0.21863 0.82725 0.21083
 O701 O 0.19022 0.79123 0.17973
 O702 O 0.16240 0.74688 0.29277
 O703 O 0.19083 0.78852 0.32131
 C704 C 0.19716 0.81885 0.18769
 H705 H 0.18908 0.70995 0.24752
 H706 H 0.24903 0.78877 0.32055
 H707 H 0.24676 0.78937 0.16975
 H708 H 0.30537 0.70881 0.24117
 H709 H 0.20024 0.74273 0.37278
 H710 H 0.30618 0.74904 0.36529
 H711 H 0.34400 0.74712 0.31323
 H712 H 0.34329 0.75392 0.17527
 H713 H 0.15404 0.74179 0.31891
 H714 H 0.15262 0.74814 0.17752
 H715 H 0.19037 0.75200 0.12599
 H716 H 0.29895 0.75803 0.11959
 H717 H 0.17808 0.78345 0.34426
 H718 H 0.23421 0.85578 0.26871
 H719 H 0.26353 0.64248 0.22402
 H720 H 0.31835 0.71477 0.14698
 Zr721 Zr 0.25120 0.80240 0.75385
 O722 O 0.27365 0.83618 0.72080
 O723 O 0.22332 0.82842 0.79048
 O724 O 0.22052 0.82690 0.71853
 O725 O 0.31010 0.79157 0.81954
 O726 O 0.19405 0.79024 0.68593
 O727 O 0.28183 0.82763 0.78839
 O728 O 0.19628 0.79286 0.82416
 O729 O 0.21126 0.77693 0.75536
 O730 O 0.25269 0.77716 0.80568
 O731 O 0.25159 0.77612 0.70236
 O732 O 0.29152 0.77682 0.75077
 Zr733 Zr 0.25268 0.69680 0.75331
 Zr734 Zr 0.21271 0.74911 0.70568
 Zr735 Zr 0.29119 0.75001 0.80163
 Zr736 Zr 0.21386 0.75069 0.80605
 O737 O 0.33881 0.74882 0.79512
 O738 O 0.16623 0.74927 0.79847
 O739 O 0.25239 0.72271 0.80539
 O740 O 0.21278 0.72264 0.75660
 O741 O 0.25119 0.72163 0.70107
 O742 O 0.29233 0.72260 0.75189
 C743 C 0.20287 0.82032 0.81507
 C744 C 0.30326 0.81919 0.81155
 C745 C 0.20008 0.81800 0.69418
 O746 O 0.16515 0.74720 0.71255
 O747 O 0.19650 0.70755 0.68380
 O748 O 0.22374 0.67157 0.71650
 C749 C 0.20336 0.67996 0.69184
 O750 O 0.30958 0.78862 0.67801
 Zr751 Zr 0.29004 0.74848 0.70118
 O752 O 0.28002 0.67075 0.71598
 O753 O 0.21520 0.75055 0.64376
 O754 O 0.28103 0.74838 0.64011
 O755 O 0.33784 0.74689 0.70660
 O756 O 0.30451 0.70623 0.67907
 C757 C 0.29848 0.67878 0.68884
 O758 O 0.22896 0.66300 0.78484
 O759 O 0.28865 0.75169 0.86354
 O760 O 0.28142 0.67219 0.79090
 O761 O 0.30675 0.70871 0.82528
 O762 O 0.22088 0.75382 0.86744
 O763 O 0.19819 0.71057 0.83376
 C764 C 0.30058 0.68096 0.81694
 H765 H 0.25353 0.78995 0.82950
 H766 H 0.19468 0.70948 0.75803
 H767 H 0.31098 0.71018 0.75185
 H768 H 0.25137 0.78909 0.67869
 H769 H 0.15687 0.75487 0.82386
 H770 H 0.15627 0.74779 0.68587
 H771 H 0.19412 0.74955 0.63390
 H772 H 0.30006 0.74279 0.62655
 H773 H 0.20115 0.75892 0.87959
 H774 H 0.30976 0.75246 0.87334
 H775 H 0.34751 0.74831 0.82190
 H776 H 0.34620 0.74172 0.68047
 H777 H 0.18164 0.71566 0.85220
 H778 H 0.23624 0.64306 0.77529
 H779 H 0.26641 0.85610 0.73047
 H780 H 0.32236 0.78346 0.65510
 Zr781 Zr 0.24871 0.19734 0.25363
 O782 O 0.22631 0.16319 0.22104
 O783 O 0.27686 0.17171 0.29042
 O784 O 0.27939 0.17270 0.21842
 O785 O 0.18992 0.20846 0.31938
 O786 O 0.30559 0.20922 0.18530
 O787 O 0.21824 0.17226 0.28856
 O788 O 0.30387 0.20764 0.32358
 O789 O 0.28855 0.22298 0.25468
 O790 O 0.24727 0.22296 0.30519
 O791 O 0.24806 0.22324 0.20186
 O792 O 0.20829 0.22276 0.25039
 Zr793 Zr 0.24682 0.30297 0.25189
 Zr794 Zr 0.28685 0.25043 0.20471
 Zr795 Zr 0.20866 0.24995 0.30097
 Zr796 Zr 0.28600 0.24959 0.30510
 O797 O 0.16102 0.25095 0.29465
 O798 O 0.33360 0.25118 0.29732
 O799 O 0.24737 0.27744 0.30425
 O800 O 0.28681 0.27728 0.25536
 O801 O 0.24825 0.27775 0.19991
 O802 O 0.20726 0.27699 0.25095
 C803 C 0.29739 0.18007 0.31482
 C804 C 0.19682 0.18080 0.31167
 C805 C 0.29971 0.18150 0.19389
 O806 O 0.33442 0.25250 0.21138
 O807 O 0.30298 0.29187 0.18245
 O808 O 0.27567 0.32801 0.21480
 C809 C 0.29610 0.31951 0.19026
 O810 O 0.19009 0.21036 0.17772
 Zr811 Zr 0.20950 0.25074 0.20050
 O812 O 0.21919 0.32862 0.21440
 O813 O 0.28415 0.24857 0.14283
 O814 O 0.21836 0.25048 0.13940
 O815 O 0.16171 0.25208 0.20617
 O816 O 0.19465 0.29275 0.17806
 C817 C 0.20060 0.32032 0.18749
 O818 O 0.27045 0.33715 0.28294
 O819 O 0.21140 0.24874 0.36289
 O820 O 0.21814 0.32774 0.28940
 O821 O 0.19307 0.29138 0.32429
 O822 O 0.27914 0.24690 0.36655
 O823 O 0.30158 0.28999 0.33236
 C824 C 0.19912 0.31909 0.31565
 H825 H 0.24656 0.21034 0.32914
 H826 H 0.30487 0.29051 0.25661
 H827 H 0.18856 0.28933 0.25087
 H828 H 0.24826 0.21010 0.17833
 H829 H 0.34307 0.24583 0.32274
 H830 H 0.34323 0.25172 0.18467
 H831 H 0.30519 0.24956 0.13287
 H832 H 0.19926 0.25590 0.12585
 H833 H 0.29892 0.24196 0.37869
 H834 H 0.19033 0.24797 0.37278
 H835 H 0.15241 0.25166 0.32146
 H836 H 0.15321 0.25702 0.18004
 H837 H 0.31818 0.28510 0.35081
 H838 H 0.26305 0.35697 0.27318
 H839 H 0.23367 0.14339 0.23092
 H840 H 0.17722 0.21532 0.15484
 Zr841 Zr 0.75144 0.69737 0.24578
 O842 O 0.77404 0.66352 0.27857
 O843 O 0.72356 0.67145 0.20902
 O844 O 0.72082 0.67268 0.28099
 O845 O 0.81019 0.70861 0.17997
 O846 O 0.69427 0.70916 0.31380
 O847 O 0.78209 0.67234 0.21091
 O848 O 0.69639 0.70708 0.17561
 O849 O 0.71142 0.72277 0.24447
 O850 O 0.75280 0.72283 0.19413
 O851 O 0.75177 0.72347 0.29744
 O852 O 0.79168 0.72305 0.24903
 Zr853 Zr 0.75258 0.80304 0.24705
 Zr854 Zr 0.71281 0.75042 0.29433
 Zr855 Zr 0.79123 0.75006 0.19834
 Zr856 Zr 0.71389 0.74922 0.19396
 O857 O 0.83885 0.75125 0.20490
 O858 O 0.66627 0.75052 0.20156
 O859 O 0.75235 0.77730 0.19479
 O860 O 0.71276 0.77709 0.24357
 O861 O 0.75121 0.77798 0.29911
 O862 O 0.79231 0.77729 0.24826
 C863 C 0.70305 0.67960 0.18453
 C864 C 0.80343 0.68092 0.18770
 C865 C 0.70035 0.68145 0.30538
 O866 O 0.66524 0.75222 0.28745
 O867 O 0.69643 0.79185 0.31648
 O868 O 0.72352 0.82805 0.28403
 C869 C 0.70315 0.81951 0.30863
 O870 O 0.80979 0.71104 0.32177
 Zr871 Zr 0.79014 0.75122 0.29880
 O872 O 0.77990 0.82898 0.28453
 O873 O 0.71538 0.74876 0.35623
 O874 O 0.78116 0.75110 0.35987
 O875 O 0.83793 0.75290 0.29337
 O876 O 0.80457 0.79341 0.32114
 C877 C 0.79846 0.82089 0.31156
 O878 O 0.72878 0.83691 0.21573
 O879 O 0.78862 0.74873 0.13642
 O880 O 0.78127 0.82785 0.20960
 O881 O 0.80671 0.79150 0.17504
 O882 O 0.72086 0.74633 0.13254
 O883 O 0.69811 0.78941 0.16647
 C884 C 0.80049 0.81921 0.18354
 H885 H 0.75363 0.71015 0.17021
 H886 H 0.69462 0.79020 0.24223
 H887 H 0.81093 0.78974 0.24839
 H888 H 0.75161 0.71042 0.32102
 H889 H 0.65689 0.74500 0.17614
 H890 H 0.65638 0.75149 0.31413
 H891 H 0.69430 0.74965 0.36610
 H892 H 0.80019 0.75669 0.37346
 H893 H 0.70113 0.74123 0.12037
 H894 H 0.80971 0.74804 0.12660
 H895 H 0.84753 0.75193 0.17813
 H896 H 0.84631 0.75798 0.31952
 H897 H 0.68154 0.78436 0.14804
 H898 H 0.73602 0.85682 0.22543
 H899 H 0.76684 0.64363 0.26877
 H900 H 0.82257 0.71616 0.34470
 Zr901 Zr 0.74927 0.30317 0.74707
 O902 O 0.72708 0.33720 0.78007
 O903 O 0.77713 0.32887 0.71010
 O904 O 0.78024 0.32769 0.78208
 O905 O 0.69009 0.29230 0.68173
 O906 O 0.80667 0.29107 0.81471
 O907 O 0.71861 0.32838 0.71252
 O908 O 0.80388 0.29302 0.67645
 O909 O 0.78909 0.27750 0.74544
 O910 O 0.74745 0.27768 0.69539
 O911 O 0.74895 0.27711 0.79869
 O912 O 0.70885 0.27776 0.75053
 Zr913 Zr 0.74732 0.19754 0.74815
 Zr914 Zr 0.78771 0.24991 0.79528
 Zr915 Zr 0.70885 0.25071 0.69979
 Zr916 Zr 0.78617 0.25103 0.69491
 O917 O 0.66125 0.24983 0.70664
 O918 O 0.83382 0.24940 0.70219
 O919 O 0.74752 0.22322 0.69593
 O920 O 0.78731 0.22320 0.74449
 O921 O 0.74913 0.22260 0.80025
 O922 O 0.70778 0.22354 0.74968
 C923 C 0.79745 0.32056 0.68543
 C924 C 0.69708 0.31993 0.68951
 C925 C 0.80075 0.31883 0.80634
 O926 O 0.83524 0.24774 0.78810
 O927 O 0.80384 0.20836 0.81724
 O928 O 0.77632 0.17235 0.78491
 C929 C 0.79684 0.18076 0.80938
 O930 O 0.69113 0.28995 0.82341
 Zr931 Zr 0.71039 0.24963 0.80025
 O932 O 0.71998 0.17179 0.78575
 O933 O 0.78545 0.25164 0.85720
 O934 O 0.71967 0.24967 0.86126
 O935 O 0.66256 0.24832 0.79514
 O936 O 0.69573 0.20754 0.82261
 C937 C 0.70160 0.18001 0.81292
 O938 O 0.77078 0.16349 0.71665
 O939 O 0.71118 0.25206 0.63786
 O940 O 0.71831 0.17287 0.71083
 O941 O 0.69296 0.20935 0.67647
 O942 O 0.77893 0.25392 0.63354
 O943 O 0.80157 0.21070 0.66731
 C944 C 0.69905 0.18160 0.68488
 H945 H 0.74660 0.29036 0.67150
 H946 H 0.80535 0.20996 0.74301
 H947 H 0.68908 0.21122 0.74990
 H948 H 0.74932 0.29018 0.82229
 H949 H 0.84312 0.25484 0.67671
 H950 H 0.84422 0.24840 0.81473
 H951 H 0.80656 0.25056 0.86693
 H952 H 0.70066 0.24423 0.87497
 H953 H 0.79864 0.25885 0.62124
 H954 H 0.69004 0.25290 0.62818
 H955 H 0.65245 0.24923 0.67991
 H956 H 0.65427 0.24330 0.82134
 H957 H 0.81805 0.21563 0.64873
 H958 H 0.76344 0.14363 0.72635
 H959 H 0.73437 0.35704 0.77024
 H960 H 0.67847 0.28494 0.84646
 C961 C 0.08977 0.43334 0.91266
 C962 C 0.10872 0.41827 0.89620
 C963 C 0.13033 0.39962 0.87739
 C964 C 0.14812 0.38287 0.86154
 C965 C 0.16804 0.36225 0.84305
 C966 C 0.18406 0.34380 0.82718
 C967 C 0.40778 0.56694 0.41261
 C968 C 0.38885 0.58188 0.39604
 C969 C 0.36730 0.60042 0.37711
 C970 C 0.34959 0.61716 0.36117
 C971 C 0.32985 0.63781 0.34259
 C972 C 0.31405 0.65633 0.32662
 C973 C 0.90791 0.93236 0.58713
 C974 C 0.88902 0.91730 0.60356
 C975 C 0.86750 0.89862 0.62235
 C976 C 0.84982 0.88182 0.63819
 C977 C 0.83010 0.86114 0.65673
 C978 C 0.81430 0.84263 0.67272
 C979 C 0.59231 0.06701 0.08756
 C980 C 0.61122 0.08201 0.10406
 C981 C 0.63277 0.10063 0.12284
 C982 C 0.65047 0.11743 0.13863
 C983 C 0.67021 0.13816 0.15704
 C984 C 0.68602 0.15673 0.17290
 C985 C 0.90676 0.06404 0.42295
 C986 C 0.88824 0.07990 0.40709
 C987 C 0.86758 0.09970 0.38866
 C988 C 0.85084 0.11745 0.37285
 C989 C 0.83227 0.13903 0.35407
 C990 C 0.81730 0.15796 0.33758
 C991 C 0.40697 0.43613 0.57792
 C992 C 0.38836 0.42044 0.59391
 C993 C 0.36751 0.40090 0.61247
 C994 C 0.35055 0.38338 0.62834
 C995 C 0.33171 0.36202 0.64713
 C996 C 0.31654 0.34320 0.66353
 C997 C 0.59351 0.93601 0.92241
 C998 C 0.61210 0.92014 0.90669
 C999 C 0.63288 0.90032 0.88849
 C1000 C 0.64974 0.88255 0.87291
 C1001 C 0.66845 0.86092 0.85440
 C1002 C 0.68351 0.84195 0.83812
 C1003 C 0.09293 0.56378 0.07546
 C1004 C 0.11138 0.57966 0.09156
 C1005 C 0.13198 0.59946 0.11030
 C1006 C 0.14870 0.61718 0.12636
 C1007 C 0.16731 0.63871 0.14538
 C1008 C 0.18236 0.65759 0.16199
 C1009 C 0.40694 0.93505 0.08324
 C1010 C 0.38802 0.91955 0.09865
 C1011 C 0.36678 0.90032 0.11660
 C1012 C 0.34948 0.88299 0.13193
 C1013 C 0.33030 0.86172 0.14993
 C1014 C 0.31483 0.84281 0.16542
 C1015 C 0.59358 0.43559 0.41654
 C1016 C 0.61255 0.42019 0.40101
 C1017 C 0.63383 0.40107 0.38293
 C1018 C 0.65113 0.38378 0.36749
 C1019 C 0.67028 0.36252 0.34940
 C1020 C 0.68569 0.34357 0.33386
 C1021 C 0.90906 0.56386 0.91521
 C1022 C 0.89014 0.57953 0.89994
 C1023 C 0.86882 0.59893 0.88228
 C1024 C 0.85139 0.61636 0.86726
 C1025 C 0.83199 0.63770 0.84964
 C1026 C 0.81628 0.65662 0.83444
 C1027 C 0.09336 0.06449 0.58394
 C1028 C 0.11228 0.08002 0.59937
 C1029 C 0.13351 0.09930 0.61730
 C1030 C 0.15077 0.11672 0.63260
 C1031 C 0.16986 0.13810 0.65055
 C1032 C 0.18523 0.15714 0.66603
 C1033 C 0.09311 0.43603 0.42167
 C1034 C 0.11159 0.42021 0.40567
 C1035 C 0.13221 0.40044 0.38710
 C1036 C 0.14893 0.38270 0.37121
 C1037 C 0.16747 0.36110 0.35239
 C1038 C 0.18241 0.34212 0.33593
 C1039 C 0.40704 0.56438 0.92283
 C1040 C 0.38852 0.58022 0.90693
 C1041 C 0.36782 0.59995 0.88845
 C1042 C 0.35102 0.61763 0.87260
 C1043 C 0.33238 0.63913 0.85379
 C1044 C 0.31735 0.65802 0.83730
 C1045 C 0.59277 0.06423 0.57908
 C1046 C 0.61118 0.08022 0.59505
 C1047 C 0.63175 0.10016 0.61360
 C1048 C 0.64845 0.11799 0.62945
 C1049 C 0.66706 0.13964 0.64825
 C1050 C 0.68213 0.15860 0.66466
 C1051 C 0.90716 0.93570 0.07776
 C1052 C 0.88863 0.91991 0.09373
 C1053 C 0.86789 0.90024 0.11227
 C1054 C 0.85104 0.88262 0.12814
 C1055 C 0.83233 0.86114 0.14693
 C1056 C 0.81726 0.84225 0.16335
 C1057 C 0.90765 0.06747 0.91367
 C1058 C 0.88875 0.08258 0.89733
 C1059 C 0.86725 0.10135 0.87867
 C1060 C 0.84961 0.11825 0.86292
 C1061 C 0.82994 0.13906 0.84451
 C1062 C 0.81417 0.15766 0.82864
 C1063 C 0.09256 0.56705 0.58693
 C1064 C 0.11148 0.58206 0.60341
 C1065 C 0.13298 0.60071 0.62224
 C1066 C 0.15063 0.61754 0.63810
 C1067 C 0.17030 0.63829 0.65661
 C1068 C 0.18606 0.65687 0.67255
 C1069 C 0.59215 0.93208 0.41467
 C1070 C 0.61102 0.91699 0.39813
 C1071 C 0.63249 0.89832 0.37913
 C1072 C 0.65014 0.88155 0.36307
 C1073 C 0.66987 0.86093 0.34428
 C1074 C 0.68572 0.84248 0.32813
 C1075 C 0.40759 0.43236 0.08647
 C1076 C 0.38862 0.41727 0.10269
 C1077 C 0.36700 0.39857 0.12121
 C1078 C 0.34922 0.38174 0.13683
 C1079 C 0.32939 0.36103 0.15512
 C1080 C 0.31350 0.34252 0.17096
 C1081 C 0.59357 0.56393 0.08403
 C1082 C 0.61255 0.57939 0.09944
 C1083 C 0.63386 0.59861 0.11732
 C1084 C 0.65119 0.61598 0.13258
 C1085 C 0.67037 0.63731 0.15047
 C1086 C 0.68582 0.65629 0.16591
 C1087 C 0.09344 0.93582 0.91597
 C1088 C 0.11239 0.92040 0.90044
 C1089 C 0.13368 0.90123 0.88242
 C1090 C 0.15100 0.88392 0.86706
 C1091 C 0.17019 0.86263 0.84908
 C1092 C 0.18564 0.84366 0.83363
 C1093 C 0.40703 0.06483 0.41644
 C1094 C 0.38819 0.08038 0.40083
 C1095 C 0.36699 0.09962 0.38269
 C1096 C 0.34967 0.11692 0.36723
 C1097 C 0.33040 0.13811 0.34912
 C1098 C 0.31483 0.15694 0.33354
 C1099 C 0.90700 0.43540 0.58370
 C1100 C 0.88807 0.42000 0.59926
 C1101 C 0.86678 0.40091 0.61737
 C1102 C 0.84944 0.38369 0.63285
 C1103 C 0.83022 0.36255 0.65101
 C1104 C 0.81474 0.34372 0.66664
 C1105 C 0.90922 0.56792 0.07292
 C1106 C 0.89121 0.58341 0.09047
 C1107 C 0.87109 0.60232 0.11157
 C1108 C 0.85465 0.61912 0.12967
 C1109 C 0.83613 0.63966 0.15068
 C1110 C 0.82091 0.65799 0.16806
 C1111 C 0.59080 0.43287 0.57612
 C1112 C 0.60893 0.41750 0.59357
 C1113 C 0.62920 0.39869 0.61446
 C1114 C 0.64575 0.38191 0.63235
 C1115 C 0.66435 0.36135 0.65305
 C1116 C 0.67962 0.34295 0.67017
 C1117 C 0.09052 0.06767 0.42470
 C1118 C 0.10863 0.08315 0.40739
 C1119 C 0.12889 0.10205 0.38665
 C1120 C 0.14545 0.11888 0.36888
 C1121 C 0.16408 0.13946 0.34824
 C1122 C 0.17935 0.15784 0.33112
 C1123 C 0.40975 0.93247 0.92395
 C1124 C 0.39162 0.91703 0.90661
 C1125 C 0.37132 0.89815 0.88591
 C1126 C 0.35473 0.88131 0.86819
 C1127 C 0.33608 0.86067 0.84770
 C1128 C 0.32078 0.84222 0.83074
 C1129 C 0.09216 0.92933 0.58091
 C1130 C 0.11061 0.91408 0.59792
 C1131 C 0.13127 0.89550 0.61849
 C1132 C 0.14813 0.87897 0.63625
 C1133 C 0.16704 0.85874 0.65700
 C1134 C 0.18249 0.84064 0.67433
 C1135 C 0.59206 0.57050 0.41880
 C1136 C 0.61054 0.58566 0.40166
 C1137 C 0.63126 0.60411 0.38099
 C1138 C 0.64821 0.62052 0.36317
 C1139 C 0.66723 0.64066 0.34240
 C1140 C 0.68276 0.65873 0.32510
 C1141 C 0.40807 0.07020 0.08118
 C1142 C 0.38957 0.08541 0.09819
 C1143 C 0.36884 0.10394 0.11871
 C1144 C 0.35190 0.12045 0.13640
 C1145 C 0.33289 0.14068 0.15702
 C1146 C 0.31736 0.15880 0.17423
 C1147 C 0.90961 0.43097 0.91787
 C1148 C 0.89104 0.41560 0.90108
 C1149 C 0.87028 0.39681 0.88084
 C1150 C 0.85331 0.38011 0.86338
 C1151 C 0.83422 0.35971 0.84299
 C1152 C 0.81859 0.34153 0.82593
 C1153 C 0.59470 0.06526 0.91936
 C1154 C 0.61359 0.08032 0.90310
 C1155 C 0.63470 0.09929 0.88436
 C1156 C 0.65176 0.11654 0.86838
 C1157 C 0.67047 0.13781 0.84952
 C1158 C 0.68533 0.15676 0.83307
 C1159 C 0.40541 0.56473 0.58126
 C1160 C 0.38645 0.57954 0.59779
 C1161 C 0.36527 0.59823 0.61687
 C1162 C 0.34817 0.61530 0.63311
 C1163 C 0.32946 0.63647 0.65220
 C1164 C 0.31464 0.65541 0.66874
 C1165 C 0.09357 0.43438 0.07930
 C1166 C 0.11235 0.41937 0.09592
 C1167 C 0.13340 0.40052 0.11511
 C1168 C 0.15045 0.38341 0.13144
 C1169 C 0.16923 0.36231 0.15063
 C1170 C 0.18419 0.34349 0.16726
 C1171 C 0.90546 0.93517 0.41878
 C1172 C 0.88652 0.92029 0.40232
 C1173 C 0.86534 0.90151 0.38335
 C1174 C 0.84823 0.88438 0.36720
 C1175 C 0.82949 0.86317 0.34820
 C1176 C 0.81465 0.84422 0.33170
 C1177 C 0.90834 0.57040 0.58143
 C1178 C 0.88992 0.58561 0.59859
 C1179 C 0.86929 0.60412 0.61929
 C1180 C 0.85244 0.62061 0.63715
 C1181 C 0.83355 0.64081 0.65798
 C1182 C 0.81810 0.65891 0.67536
 C1183 C 0.59188 0.42886 0.08079
 C1184 C 0.61033 0.41363 0.09785
 C1185 C 0.63101 0.39511 0.11847
 C1186 C 0.64792 0.37865 0.13628
 C1187 C 0.66689 0.35850 0.15707
 C1188 C 0.68240 0.34046 0.17444
 C1189 C 0.40788 0.92929 0.41943
 C1190 C 0.38956 0.91392 0.40222
 C1191 C 0.36907 0.89519 0.38143
 C1192 C 0.35234 0.87856 0.36350
 C1193 C 0.33350 0.85825 0.34257
 C1194 C 0.31806 0.84014 0.32511
 C1195 C 0.09187 0.07095 0.91918
 C1196 C 0.11022 0.08628 0.90208
 C1197 C 0.13075 0.10494 0.88142
 C1198 C 0.14751 0.12153 0.86359
 C1199 C 0.16633 0.14183 0.84278
 C1200 C 0.18172 0.15998 0.82542
 C1201 C 0.09095 0.93242 0.07527
 C1202 C 0.10909 0.91693 0.09251
 C1203 C 0.12935 0.89798 0.11319
 C1204 C 0.14589 0.88109 0.13090
 C1205 C 0.16448 0.86040 0.15144
 C1206 C 0.17972 0.84192 0.16844
 C1207 C 0.90940 0.43258 0.42428
 C1208 C 0.89127 0.41713 0.40697
 C1209 C 0.87101 0.39822 0.38625
 C1210 C 0.85448 0.38135 0.36849
 C1211 C 0.83590 0.36068 0.34794
 C1212 C 0.82066 0.34221 0.33094
 C1213 C 0.40906 0.06814 0.57593
 C1214 C 0.39099 0.08376 0.59318
 C1215 C 0.37079 0.10285 0.61388
 C1216 C 0.35428 0.11981 0.63163
 C1217 C 0.33567 0.14051 0.65223
 C1218 C 0.32035 0.15895 0.66929
 C1219 C 0.59087 0.56748 0.92508
 C1220 C 0.60911 0.58295 0.90798
 C1221 C 0.62954 0.60185 0.88753
 C1222 C 0.64625 0.61868 0.86999
 C1223 C 0.66504 0.63927 0.84964
 C1224 C 0.68043 0.65767 0.83272
 C1225 C 0.40519 0.43578 0.91831
 C1226 C 0.38610 0.42110 0.90184
 C1227 C 0.36469 0.40256 0.88292
 C1228 C 0.34737 0.38560 0.86685
 C1229 C 0.32840 0.36454 0.84797
 C1230 C 0.31341 0.34565 0.83158
 C1231 C 0.90558 0.06445 0.08198
 C1232 C 0.88664 0.07927 0.09852
 C1233 C 0.86545 0.09800 0.11754
 C1234 C 0.84834 0.11511 0.13370
 C1235 C 0.82959 0.13631 0.15267
 C1236 C 0.81474 0.15528 0.16911
 C1237 C 0.59373 0.93466 0.58318
 C1238 C 0.61258 0.91965 0.59968
 C1239 C 0.63374 0.90079 0.61865
 C1240 C 0.65092 0.88367 0.63474
 C1241 C 0.66985 0.86254 0.65364
 C1242 C 0.68493 0.84369 0.67001
 C1243 C 0.09452 0.56480 0.41834
 C1244 C 0.11342 0.57963 0.40177
 C1245 C 0.13457 0.59832 0.38265
 C1246 C 0.15166 0.61537 0.36637
 C1247 C 0.17040 0.63647 0.34725
 C1248 C 0.18526 0.65535 0.33068
   
