data_POSCAR
  _audit_creation_date              2014-09-24
  _audit_creation_method            'ToBaCCo'
  _symmetry_space_group_name_H-M    'P1'
  _symmetry_Int_Tables_number       1
  _symmetry_cell_setting            triclinic
  loop_
  _symmetry_equiv_pos_as_xyz
 x,y,z
_cell_length_a 83.5803
_cell_length_b 83.2833
_cell_length_c 83.0155
_cell_angle_alpha 90.039400
_cell_angle_beta 90.037000
_cell_angle_gamma 90.017200
loop_
  _atom_site_label
  _atom_site_type_symbol
  _atom_site_fract_x
  _atom_site_fract_y
  _atom_site_fract_z
C1 C 0.34156 0.42849 0.90844
 C2 C 0.33460 0.43516 0.89460
 C3 C 0.32030 0.42888 0.88821
 C4 C 0.31339 0.41529 0.89551
 C5 C 0.32040 0.40828 0.90918
 C6 C 0.33446 0.41500 0.91575
 C7 C 0.35528 0.43540 0.91527
 C8 C 0.36205 0.42930 0.92964
 C9 C 0.35492 0.41553 0.93660
 C10 C 0.34126 0.40843 0.92979
 C11 C 0.33396 0.39516 0.93719
 C12 C 0.31994 0.38834 0.93075
 C13 C 0.31330 0.39495 0.91665
 H14 H 0.34022 0.44544 0.88894
 H15 H 0.30226 0.41045 0.89090
 H16 H 0.36077 0.44541 0.90907
 H17 H 0.35929 0.41074 0.94788
 H18 H 0.33898 0.39042 0.94825
 H19 H 0.30258 0.38973 0.91149
 C20 C 0.43074 0.84069 0.40915
 C21 C 0.43799 0.85399 0.41651
 C22 C 0.43154 0.86097 0.43062
 C23 C 0.41722 0.85438 0.43689
 C24 C 0.40988 0.84104 0.42966
 C25 C 0.41668 0.83413 0.41577
 C26 C 0.43758 0.83360 0.39546
 C27 C 0.43066 0.81992 0.38836
 C28 C 0.41658 0.81350 0.39500
 C29 C 0.40959 0.82046 0.40869
 C30 C 0.39590 0.81367 0.41568
 C31 C 0.38916 0.82032 0.42971
 C32 C 0.39612 0.83416 0.43647
 H33 H 0.44850 0.85907 0.41085
 H34 H 0.41216 0.85890 0.44800
 H35 H 0.44863 0.83844 0.39064
 H36 H 0.41108 0.80303 0.38955
 H37 H 0.39084 0.80285 0.41052
 H38 H 0.39090 0.83951 0.44716
 C39 C 0.94387 0.92407 0.82496
 C40 C 0.95088 0.91068 0.81747
 C41 C 0.94383 0.90342 0.80376
 C42 C 0.92986 0.91062 0.79736
 C43 C 0.92265 0.92385 0.80486
 C44 C 0.92957 0.93048 0.81882
 C45 C 0.95090 0.93095 0.83869
 C46 C 0.94362 0.94394 0.84694
 C47 C 0.92901 0.94992 0.84069
 C48 C 0.92212 0.94345 0.82670
 C49 C 0.90770 0.94964 0.82060
 C50 C 0.90081 0.94328 0.80650
 C51 C 0.90850 0.93045 0.79865
 H52 H 0.96131 0.90546 0.82312
 H53 H 0.92457 0.90622 0.78631
 H54 H 0.96239 0.92631 0.84242
 H55 H 0.92246 0.95925 0.84689
 H56 H 0.90178 0.95932 0.82696
 H57 H 0.90348 0.92556 0.78764
 C58 C 0.42695 -0.09329 0.34185
 C59 C 0.43392 -0.10688 0.33477
 C60 C 0.42733 -0.11375 0.32078
 C61 C 0.41329 -0.10711 0.31420
 C62 C 0.40612 -0.09358 0.32120
 C63 C 0.41302 -0.08658 0.33503
 C64 C 0.43401 -0.08598 0.35531
 C65 C 0.42738 -0.07200 0.36210
 C66 C 0.41334 -0.06553 0.35536
 C67 C 0.40622 -0.07264 0.34181
 C68 C 0.39270 -0.06571 0.33462
 C69 C 0.38580 -0.07252 0.32072
 C70 C 0.39249 -0.08662 0.31425
 H71 H 0.44461 -0.11202 0.34008
 H72 H 0.40827 -0.11209 0.30324
 H73 H 0.44502 -0.09089 0.36014
 H74 H 0.40801 -0.05487 0.36059
 H75 H 0.38792 -0.05465 0.33954
 H76 H 0.38717 -0.09212 0.30369
 C77 C 0.83946 0.31902 0.33909
 C78 C 0.83193 0.31203 0.35247
 C79 C 0.81782 0.31869 0.35889
 C80 C 0.81146 0.33268 0.35184
 C81 C 0.81897 0.33991 0.33861
 C82 C 0.83298 0.33304 0.33215
 C83 C 0.85317 0.31202 0.33231
 C84 C 0.86048 0.31881 0.31864
 C85 C 0.85409 0.33297 0.31201
 C86 C 0.84036 0.34006 0.31860
 C87 C 0.83365 0.35381 0.31157
 C88 C 0.81960 0.36067 0.31786
 C89 C 0.81245 0.35371 0.33152
 H90 H 0.83710 0.30140 0.35790
 H91 H 0.80042 0.33775 0.35639
 H92 H 0.85783 0.30098 0.33737
 H93 H 0.85976 0.33843 0.30163
 H94 H 0.83910 0.35886 0.30086
 H95 H 0.80175 0.35901 0.33661
 C96 C -0.19375 0.82868 0.82562
 C97 C -0.20025 0.84255 0.81871
 C98 C -0.19231 0.85079 0.80614
 C99 C -0.17784 0.84417 0.80026
 C100 C -0.17141 0.83005 0.80688
 C101 C -0.17931 0.82237 0.81971
 C102 C -0.20146 0.82120 0.83857
 C103 C -0.19465 0.80776 0.84618
 C104 C -0.18035 0.80128 0.83998
 C105 C -0.17272 0.80843 0.82673
 C106 C -0.15848 0.80201 0.82052
 C107 C -0.15053 0.80950 0.80759
 C108 C -0.15702 0.82365 0.80100
 H109 H -0.21178 0.84657 0.82303
 H110 H -0.17105 0.85025 0.79101
 H111 H -0.21270 0.82603 0.84290
 H112 H -0.17488 0.79099 0.84575
 H113 H -0.15374 0.79104 0.82564
 H114 H -0.15081 0.82981 0.79136
 C115 C 0.92371 0.32663 0.44511
 C116 C 0.93163 0.33960 0.45234
 C117 C 0.94381 0.34815 0.44416
 C118 C 0.94860 0.34239 0.42884
 C119 C 0.94102 0.32914 0.42165
 C120 C 0.92825 0.32152 0.42964
 C121 C 0.91113 0.31886 0.45311
 C122 C 0.90232 0.30658 0.44549
 C123 C 0.90692 0.30164 0.42994
 C124 C 0.91999 0.30878 0.42215
 C125 C 0.92490 0.30339 0.40695
 C126 C 0.93813 0.31037 0.39920
 C127 C 0.94594 0.32346 0.40652
 H128 H 0.92828 0.34277 0.46452
 H129 H 0.95763 0.34859 0.42190
 H130 H 0.90812 0.32257 0.46524
 H131 H 0.90020 0.29243 0.42368
 H132 H 0.91850 0.29361 0.40122
 H133 H 0.95616 0.32894 0.40066
 C134 C 0.41761 0.43884 0.83126
 C135 C 0.42426 0.44430 0.84578
 C136 C 0.43734 0.43630 0.85284
 C137 C 0.44372 0.42268 0.84514
 C138 C 0.43740 0.41728 0.83043
 C139 C 0.42433 0.42541 0.82346
 C140 C 0.40436 0.44663 0.82443
 C141 C 0.39757 0.44106 0.80994
 C142 C 0.40460 0.42787 0.80207
 C143 C 0.41795 0.42010 0.80868
 C144 C 0.42492 0.40700 0.80075
 C145 C 0.43788 0.39866 0.80764
 C146 C 0.44393 0.40385 0.82262
 H147 H 0.41936 0.45494 0.85144
 H148 H 0.45360 0.41624 0.85059
 H149 H 0.39931 0.45703 0.83042
 H150 H 0.39942 0.42333 0.79100
 H151 H 0.42028 0.40345 0.78910
 H152 H 0.45363 0.39737 0.82833
 C153 C 0.82621 0.92544 0.94551
 C154 C 0.81991 0.91133 0.95223
 C155 C 0.80684 0.90322 0.94505
 C156 C 0.80027 0.90980 0.93078
 C157 C 0.80636 0.92399 0.92403
 C158 C 0.81931 0.93187 0.93149
 C159 C 0.83952 0.93301 0.95253
 C160 C 0.84620 0.94711 0.94579
 C161 C 0.83859 0.95372 0.93208
 C162 C 0.82547 0.94611 0.92482
 C163 C 0.81860 0.95245 0.91078
 C164 C 0.80597 0.94446 0.90293
 C165 C 0.79987 0.93024 0.90973
 H166 H 0.82498 0.90716 0.96347
 H167 H 0.79081 0.90365 0.92436
 H168 H 0.84511 0.92717 0.96271
 H169 H 0.84259 0.96499 0.92702
 H170 H 0.82321 0.96359 0.90589
 H171 H 0.79029 0.92382 0.90373
 C172 C 0.34271 0.84190 0.32013
 C173 C 0.33551 0.85534 0.31293
 C174 C 0.32116 0.86193 0.31912
 C175 C 0.31459 0.85495 0.33317
 C176 C 0.32175 0.84162 0.34054
 C177 C 0.33581 0.83501 0.33397
 C178 C 0.35641 0.83488 0.31331
 C179 C 0.36322 0.82097 0.32007
 C180 C 0.35641 0.81440 0.33409
 C181 C 0.34276 0.82129 0.34106
 C182 C 0.33565 0.81434 0.35468
 C183 C 0.32153 0.82079 0.36124
 C184 C 0.31475 0.83454 0.35415
 H185 H 0.34065 0.85991 0.30189
 H186 H 0.30404 0.86006 0.33875
 H187 H 0.36168 0.84014 0.30262
 H188 H 0.36138 0.80353 0.33925
 H189 H 0.34103 0.80381 0.36011
 H190 H 0.30368 0.83940 0.35888
 C191 C 0.83299 0.41916 0.43799
 C192 C 0.82483 0.40684 0.44599
 C193 C 0.81223 0.39847 0.43846
 C194 C 0.80736 0.40329 0.42293
 C195 C 0.81500 0.41610 0.41506
 C196 C 0.82807 0.42385 0.42251
 C197 C 0.84598 0.42687 0.44536
 C198 C 0.85469 0.43905 0.43736
 C199 C 0.84940 0.44375 0.42185
 C200 C 0.83612 0.43641 0.41455
 C201 C 0.83065 0.44157 0.39946
 C202 C 0.81711 0.43452 0.39229
 C203 C 0.80960 0.42148 0.39999
 H204 H 0.82839 0.40379 0.45816
 H205 H 0.79778 0.39699 0.41682
 H206 H 0.84887 0.42350 0.45760
 H207 H 0.85583 0.45270 0.41500
 H208 H 0.83674 0.45136 0.39341
 H209 H 0.79913 0.41599 0.39459
 C210 C 0.94723 0.82365 -0.07491
 C211 C 0.95388 0.83731 -0.06767
 C212 C 0.94598 0.84521 -0.05496
 C213 C 0.93157 0.83871 -0.04905
 C214 C 0.92505 0.82470 -0.05584
 C215 C 0.93285 0.81725 -0.06893
 C216 C 0.95464 0.81656 -0.08828
 C217 C 0.94769 0.80329 -0.09633
 C218 C 0.93352 0.79667 -0.08974
 C219 C 0.92616 0.80351 -0.07617
 C220 C 0.91193 0.79703 -0.07001
 C221 C 0.90404 0.80431 -0.05692
 C222 C 0.91068 0.81824 -0.04999
 H223 H 0.96516 0.84193 -0.07213
 H224 H 0.92520 0.84474 -0.03943
 H225 H 0.96599 0.82143 -0.09220
 H226 H 0.92747 0.78679 -0.09560
 H227 H 0.90707 0.78621 -0.07537
 H228 H 0.90454 0.82423 -0.04019
 C229 C 0.33248 0.33482 0.81518
 C230 C 0.32482 0.34792 0.80795
 C231 C 0.31275 0.35638 0.81612
 C232 C 0.30788 0.35113 0.83145
 C233 C 0.31534 0.33790 0.83878
 C234 C 0.32797 0.32999 0.83077
 C235 C 0.34448 0.32643 0.80697
 C236 C 0.35292 0.31379 0.81443
 C237 C 0.34864 0.30944 0.83028
 C238 C 0.33594 0.31709 0.83824
 C239 C 0.33084 0.31177 0.85341
 C240 C 0.31757 0.31887 0.86102
 C241 C 0.31016 0.33224 0.85381
 H242 H 0.32828 0.35157 0.79591
 H243 H 0.29846 0.35747 0.83778
 H244 H 0.34700 0.32976 0.79464
 H245 H 0.35509 0.30008 0.83656
 H246 H 0.33691 0.30175 0.85907
 H247 H 0.29991 0.33780 0.85952
 C248 C 0.17815 0.55261 0.57163
 C249 C 0.16540 0.54471 0.56403
 C250 C 0.15713 0.55195 0.55115
 C251 C 0.16263 0.56680 0.54521
 C252 C 0.17572 0.57459 0.55237
 C253 C 0.18326 0.56767 0.56589
 C254 C 0.18549 0.54592 0.58524
 C255 C 0.19740 0.55438 0.59376
 C256 C 0.20258 0.56933 0.58778
 C257 C 0.19573 0.57591 0.57381
 C258 C 0.20091 0.59078 0.56784
 C259 C 0.19386 0.59751 0.55399
 C260 C 0.18115 0.58937 0.54644
 H261 H 0.16166 0.53307 0.56846
 H262 H 0.15637 0.57266 0.53541
 H263 H 0.18164 0.53421 0.58938
 H264 H 0.21160 0.57611 0.59423
 H265 H 0.21039 0.59717 0.57405
 H266 H 0.17563 0.59440 0.53576
 C267 C 0.57534 0.69614 0.07441
 C268 C 0.59017 0.70182 0.06891
 C269 C 0.59812 0.69421 0.05603
 C270 C 0.59109 0.68054 0.04890
 C271 C 0.57615 0.67487 0.05409
 C272 C 0.56814 0.68286 0.06671
 C273 C 0.56773 0.70329 0.08771
 C274 C 0.55290 0.69745 0.09325
 C275 C 0.54539 0.68494 0.08477
 C276 C 0.55302 0.67745 0.07179
 C277 C 0.54591 0.66424 0.06422
 C278 C 0.55408 0.65559 0.05220
 C279 C 0.56920 0.66114 0.04709
 H280 H 0.59537 0.71235 0.07451
 H281 H 0.59730 0.67423 0.03935
 H282 H 0.57366 0.71296 0.09410
 H283 H 0.53374 0.68067 0.08859
 H284 H 0.53406 0.66056 0.06796
 H285 H 0.57578 0.65461 0.03796
 C286 C 0.69343 0.17655 0.67650
 C287 C 0.70054 0.18401 0.66318
 C288 C 0.69264 0.19641 0.65491
 C289 C 0.67790 0.20204 0.66083
 C290 C 0.67083 0.19493 0.67442
 C291 C 0.67848 0.18191 0.68207
 C292 C 0.70097 0.16357 0.68402
 C293 C 0.69353 0.15507 0.69672
 C294 C 0.67854 0.16077 0.70229
 C295 C 0.67111 0.17414 0.69517
 C296 C 0.65621 0.17960 0.70071
 C297 C 0.64866 0.19289 0.69348
 C298 C 0.65610 0.20045 0.68029
 H299 H 0.71213 0.17988 0.65904
 H300 H 0.67162 0.21155 0.65456
 H301 H 0.71284 0.16039 0.67995
 H302 H 0.67207 0.15448 0.71163
 H303 H 0.65042 0.17339 0.71058
 H304 H 0.65053 0.21077 0.67466
 C305 C 1.07195 0.05017 0.17776
 C306 C 1.08488 0.04239 0.18516
 C307 C 1.09256 0.04917 0.19864
 C308 C 1.08625 0.06334 0.20539
 C309 C 1.07296 0.07097 0.19841
 C310 C 1.06602 0.06455 0.18432
 C311 C 1.06520 0.04393 0.16364
 C312 C 1.05286 0.05211 0.15534
 C313 C 1.04691 0.06647 0.16227
 C314 C 1.05333 0.07263 0.17666
 C315 C 1.04754 0.08704 0.18325
 C316 C 1.05407 0.09337 0.19756
 C317 C 1.06679 0.08515 0.20506
 H318 H 1.08922 0.03121 0.18011
 H319 H 1.09204 0.06885 0.21569
 H320 H 1.06956 0.03246 0.15937
 H321 H 1.03783 0.07346 0.15620
 H322 H 1.03809 0.09344 0.17704
 H323 H 1.07188 0.08972 0.21616
 C324 C 0.05434 0.17476 1.07525
 C325 C 0.04878 0.16007 1.06919
 C326 C 0.05645 0.15233 1.05611
 C327 C 0.07004 0.15992 1.04930
 C328 C 0.07562 0.17474 1.05515
 C329 C 0.06762 0.18225 1.06804
 C330 C 0.04700 0.18189 1.08870
 C331 C 0.05265 0.19656 1.09492
 C332 C 0.06536 0.20435 1.08703
 C333 C 0.07308 0.19714 1.07393
 C334 C 0.08653 0.20439 1.06702
 C335 C 0.09507 0.19670 1.05464
 C336 C 0.08939 0.18194 1.04861
 H337 H 0.03802 0.15514 1.07446
 H338 H 0.07683 0.15412 1.03986
 H339 H 0.03731 0.17565 1.09469
 H340 H 0.06958 0.21588 1.09136
 H341 H 0.09054 0.21592 1.07153
 H342 H 0.09592 0.17583 1.03914
 C343 C 0.17557 0.67682 0.69628
 C344 C 0.16190 0.68419 0.70262
 C345 C 0.15396 0.69643 0.69410
 C346 C 0.16046 0.70183 0.67942
 C347 C 0.17445 0.69486 0.67316
 C348 C 0.18190 0.68214 0.68150
 C349 C 0.18271 0.66388 0.70430
 C350 C 0.19579 0.65571 0.69750
 C351 C 0.20231 0.66136 0.68292
 C352 C 0.19553 0.67458 0.67495
 C353 C 0.20197 0.68017 0.66040
 C354 C 0.19483 0.69307 0.65212
 C355 C 0.18093 0.70019 0.65852
 H356 H 0.15728 0.68016 0.71412
 H357 H 0.15443 0.71114 0.67263
 H358 H 0.17782 0.65996 0.71573
 H359 H 0.21231 0.65514 0.67744
 H360 H 0.21269 0.67461 0.65563
 H361 H 0.17505 0.70982 0.65204
 C362 C 1.19831 0.17645 0.18041
 C363 C 1.20521 0.16320 0.18823
 C364 C 1.19859 0.15695 0.20263
 C365 C 1.18540 0.16514 0.20944
 C366 C 1.17826 0.17821 0.20160
 C367 C 1.18453 0.18372 0.18690
 C368 C 1.20473 0.18226 0.16592
 C369 C 1.19736 0.19501 0.15761
 C370 C 1.18331 0.20183 0.16398
 C371 C 1.17690 0.19635 0.17859
 C372 C 1.16279 0.20305 0.18484
 C373 C 1.15643 0.19768 0.19961
 C374 C 1.16463 0.18555 0.20809
 H375 H 1.21510 0.15725 0.18232
 H376 H 1.18057 0.16150 0.22097
 H377 H 1.21558 0.17692 0.16120
 H378 H 1.17723 0.21132 0.15748
 H379 H 1.15660 0.21218 0.17795
 H380 H 1.16028 0.18155 0.21970
 C381 C 0.67864 1.07369 0.55005
 C382 C 0.66551 1.06610 0.54276
 C383 C 0.65728 1.05356 0.55062
 C384 C 0.66302 1.04820 0.56565
 C385 C 0.67665 1.05513 0.57267
 C386 C 0.68437 1.06806 0.56494
 C387 C 0.68584 1.08708 0.54280
 C388 C 0.69853 1.09543 0.55038
 C389 C 0.70463 1.08904 0.56497
 C390 C 0.69768 1.07548 0.57220
 C391 C 0.70361 1.06950 0.58684
 C392 C 0.69612 1.05648 0.59461
 C393 C 0.68248 1.04954 0.58749
 H394 H 0.66163 1.07018 0.53102
 H395 H 0.65675 1.03886 0.57214
 H396 H 0.68146 1.09081 0.53112
 H397 H 0.71410 1.09507 0.57146
 H398 H 0.71417 1.07494 0.59209
 H399 H 0.67626 1.03985 0.59354
 C400 C 0.55382 0.57404 0.17720
 C401 C 0.54628 0.56746 0.16358
 C402 C 0.55268 0.55386 0.15577
 C403 C 0.56658 0.54669 0.16210
 C404 C 0.57404 0.55295 0.17586
 C405 C 0.56773 0.56674 0.18339
 C406 C 0.54786 0.58803 0.18449
 C407 C 0.55555 0.59481 0.19799
 C408 C 0.56927 0.58722 0.20423
 C409 C 0.57548 0.57334 0.19696
 C410 C 0.58949 0.56615 0.20286
 C411 C 0.59588 0.55238 0.19541
 C412 C 0.58795 0.54580 0.18199
 H413 H 0.53544 0.57298 0.15907
 H414 H 0.57193 0.53649 0.15606
 H415 H 0.53748 0.59388 0.17933
 H416 H 0.57517 0.59209 0.21479
 H417 H 0.59564 0.57154 0.21300
 H418 H 0.59257 0.53505 0.17629
 C419 C 0.67464 0.69509 0.17261
 C420 C 0.66101 0.70264 0.17889
 C421 C 0.65335 0.69659 0.19270
 C422 C 0.65973 0.68292 0.20035
 C423 C 0.67348 0.67536 0.19431
 C424 C 0.68093 0.68142 0.18034
 C425 C 0.68196 0.70092 0.15859
 C426 C 0.69562 0.69337 0.15220
 C427 C 0.70189 0.67979 0.16008
 C428 C 0.69458 0.67373 0.17403
 C429 C 0.70064 0.66000 0.18166
 C430 C 0.69333 0.65385 0.19564
 C431 C 0.67978 0.66171 0.20192
 H432 H 0.65642 0.71332 0.17303
 H433 H 0.65380 0.67792 0.21081
 H434 H 0.67679 0.71117 0.15247
 H435 H 0.71254 0.67399 0.15545
 H436 H 0.71087 0.65390 0.17648
 H437 H 0.67416 0.65726 0.21280
 C438 C 0.17557 0.05321 1.07366
 C439 C 0.16201 0.04610 1.06658
 C440 C 0.15484 0.05269 1.05261
 C441 C 0.16240 0.06608 1.04541
 C442 C 0.17574 0.07341 1.05250
 C443 C 0.18222 0.06710 1.06680
 C444 C 0.18226 0.04681 1.08777
 C445 C 0.19525 0.05439 1.09572
 C446 C 0.20152 0.06856 1.08869
 C447 C 0.19524 0.07481 1.07432
 C448 C 0.20152 0.08894 1.06758
 C449 C 0.19514 0.09530 1.05324
 C450 C 0.18242 0.08724 1.04565
 H451 H 0.15658 0.03606 1.07277
 H452 H 0.15811 0.07089 1.03410
 H453 H 0.17742 0.03559 1.09211
 H454 H 0.21089 0.07533 1.09458
 H455 H 0.21116 0.09516 1.07370
 H456 H 0.17755 0.09184 1.03447
 C457 C 0.57495 0.17628 0.55208
 C458 C 0.58884 0.18361 0.54610
 C459 C 0.59562 0.19695 0.55399
 C460 C 0.58811 0.20302 0.56789
 C461 C 0.57434 0.19567 0.57412
 C462 C 0.56774 0.18223 0.56621
 C463 C 0.56841 0.16286 0.54432
 C464 C 0.55499 0.15489 0.55072
 C465 C 0.54785 0.16095 0.56484
 C466 C 0.55406 0.17461 0.57254
 C467 C 0.54698 0.18057 0.58666
 C468 C 0.55353 0.19394 0.59471
 C469 C 0.56724 0.20139 0.58830
 H470 H 0.59463 0.17858 0.53558
 H471 H 0.59299 0.21347 0.57393
 H472 H 0.57386 0.15860 0.53327
 H473 H 0.53771 0.15481 0.57014
 H474 H 0.53631 0.17483 0.59131
 H475 H 0.57267 0.21144 0.59456
 C476 C 0.06932 0.54925 0.68101
 C477 C 0.08294 0.54255 0.68816
 C478 C 0.09136 0.55086 0.70025
 C479 C 0.08531 0.56564 0.70583
 C480 C 0.07133 0.57222 0.69916
 C481 C 0.06345 0.56411 0.68652
 C482 C 0.06195 0.54161 0.66793
 C483 C 0.04921 0.54897 0.65967
 C484 C 0.04297 0.56351 0.66568
 C485 C 0.04992 0.57103 0.67913
 C486 C 0.04390 0.58564 0.68493
 C487 C 0.05156 0.59382 0.69766
 C488 C 0.06540 0.58704 0.70457
 H489 H 0.08721 0.53099 0.68398
 H490 H 0.09174 0.57229 0.71501
 H491 H 0.06655 0.53015 0.66384
 H492 H 0.03321 0.56941 0.65947
 H493 H 0.03319 0.59058 0.67952
 H494 H 0.07177 0.59340 0.71398
 C495 C 0.67592 0.57436 0.05143
 C496 C 0.66213 0.56737 0.04493
 C497 C 0.65419 0.55485 0.05300
 C498 C 0.66076 0.54884 0.06743
 C499 C 0.67485 0.55546 0.07388
 C500 C 0.68235 0.56840 0.06593
 C501 C 0.68308 0.58757 0.04388
 C502 C 0.69633 0.59531 0.05087
 C503 C 0.70297 0.58901 0.06511
 C504 C 0.69612 0.57557 0.07261
 C505 C 0.70260 0.56947 0.08691
 C506 C 0.69532 0.55650 0.09492
 C507 C 0.68136 0.54963 0.08834
 H508 H 0.65745 0.57188 0.03363
 H509 H 0.65469 0.53931 0.07388
 H510 H 0.67808 0.59205 0.03270
 H511 H 0.71309 0.59492 0.07072
 H512 H 0.71342 0.57478 0.09174
 H513 H 0.67540 0.53990 0.09458
 C514 C 0.05273 0.67849 0.57091
 C515 C 0.04472 0.68629 0.58350
 C516 C 0.05195 0.69910 0.59186
 C517 C 0.06690 0.70482 0.58652
 C518 C 0.07477 0.69751 0.57349
 C519 C 0.06784 0.68403 0.56592
 C520 C 0.04605 0.66487 0.56365
 C521 C 0.05453 0.65619 0.55188
 C522 C 0.06950 0.66200 0.54670
 C523 C 0.07613 0.67595 0.55354
 C524 C 0.09106 0.68174 0.54845
 C525 C 0.09782 0.69556 0.55551
 C526 C 0.08963 0.70325 0.56815
 H527 H 0.03299 0.68205 0.58704
 H528 H 0.07276 0.71458 0.59283
 H529 H 0.03433 0.66080 0.56747
 H530 H 0.07624 0.65542 0.53772
 H531 H 0.09747 0.67541 0.53905
 H532 H 0.09466 0.71391 0.57368
 C533 C 0.55387 1.07512 0.67459
 C534 C 0.54796 1.06899 0.66003
 C535 C 0.55543 1.05588 0.65220
 C536 C 0.56913 1.04907 0.65958
 C537 C 0.57507 1.05500 0.67426
 C538 C 0.56732 1.06797 0.68185
 C539 C 0.54667 1.08852 0.68183
 C540 C 0.55266 1.09483 0.69637
 C541 C 0.56566 1.08716 0.70387
 C542 C 0.57316 1.07398 0.69659
 C543 C 0.58671 1.06704 0.70364
 C544 C 0.59498 1.05452 0.69589
 C545 C 0.58894 1.04845 0.68125
 H546 H 0.53711 1.07423 0.65526
 H547 H 0.57574 1.03956 0.65370
 H548 H 0.53676 1.09440 0.67581
 H549 H 0.57017 1.09164 0.71526
 H550 H 0.59096 1.07160 0.71510
 H551 H 0.59527 1.03893 0.67504
 C552 C 0.41029 0.33936 0.93285
 C553 C 0.41703 0.35336 0.93933
 C554 C 0.43097 0.36029 0.93264
 C555 C 0.43759 0.35303 0.91872
 C556 C 0.43096 0.33900 0.91213
 C557 C 0.41736 0.33206 0.91931
 C558 C 0.39667 0.33244 0.93988
 C559 C 0.39018 0.31812 0.93374
 C560 C 0.39741 0.31082 0.92031
 C561 C 0.41092 0.31770 0.91305
 C562 C 0.41821 0.31030 0.89979
 C563 C 0.43174 0.31717 0.89240
 C564 C 0.43797 0.33161 0.89865
 H565 H 0.41105 0.35898 0.94943
 H566 H 0.44852 0.35760 0.91346
 H567 H 0.39112 0.33820 0.95018
 H568 H 0.39269 0.29961 0.91567
 H569 H 0.41347 0.29900 0.89540
 H570 H 0.44824 0.33717 0.89298
 C571 C 0.91043 0.43143 0.33925
 C572 C 0.91775 0.43877 0.35258
 C573 C 0.93146 0.43200 0.35997
 C574 C 0.93737 0.41736 0.35367
 C575 C 0.93029 0.41005 0.34021
 C576 C 0.91681 0.41710 0.33293
 C577 C 0.89706 0.43847 0.33188
 C578 C 0.88993 0.43142 0.31825
 C579 C 0.89643 0.41713 0.31198
 C580 C 0.90984 0.40997 0.31919
 C581 C 0.91663 0.39598 0.31266
 C582 C 0.93022 0.38891 0.31976
 C583 C 0.93673 0.39589 0.33375
 H584 H 0.91310 0.45023 0.35652
 H585 H 0.94730 0.41127 0.35937
 H586 H 0.89238 0.44968 0.33657
 H587 H 0.89100 0.41156 0.30151
 H588 H 0.91160 0.39091 0.30175
 H589 H 0.94699 0.39040 0.33954
 C590 C 0.34347 0.92886 0.40807
 C591 C 0.33638 0.93591 0.39446
 C592 C 0.32222 0.92958 0.38785
 C593 C 0.31540 0.91577 0.39481
 C594 C 0.32237 0.90857 0.40835
 C595 C 0.33639 0.91520 0.41509
 C596 C 0.35721 0.93560 0.41505
 C597 C 0.36401 0.92911 0.42924
 C598 C 0.35681 0.91527 0.43596
 C599 C 0.34312 0.90838 0.42905
 C600 C 0.33584 0.89496 0.43616
 C601 C 0.32181 0.88829 0.42957
 C602 C 0.31526 0.89511 0.41554
 H603 H 0.34184 0.94642 0.38907
 H604 H 0.30434 0.91094 0.39002
 H605 H 0.36190 0.94654 0.40983
 H606 H 0.36201 0.90948 0.44639
 H607 H 0.34080 0.89005 0.44717
 H608 H 0.30455 0.88998 0.41026
 O609 O 0.24652 0.54408 0.73231
 O610 O 0.27456 0.53903 0.73341
 O611 O 0.22902 0.50255 0.70730
 O612 O 0.22942 0.47600 0.71037
 O613 O 0.20497 0.51928 0.74999
 O614 O 0.21058 0.51715 0.77808
 O615 O 0.27146 0.45995 0.75170
 O616 O 0.26819 0.46436 0.72315
 O617 O 0.28932 0.49903 0.77280
 O618 O 0.28305 0.52872 0.77180
 O619 O 0.25116 0.47655 0.79056
 O620 O 0.22076 0.47990 0.78555
 O621 O 0.25071 0.45762 0.76928
 O622 O 0.22341 0.46071 0.76625
 O623 O 0.26869 0.49732 0.79273
 O624 O 0.26514 0.52729 0.78871
 O625 O 0.29102 0.48135 0.75196
 O626 O 0.28603 0.48463 0.72262
 O627 O 0.22645 0.54235 0.75078
 O628 O 0.22806 0.53531 0.77917
 O629 O 0.20635 0.50171 0.72907
 O630 O 0.21383 0.47201 0.73056
 O631 O 0.24734 0.52274 0.70848
 O632 O 0.27560 0.52174 0.71502
 Zr633 Zr 0.25679 0.52102 0.73203
 O634 O 0.27242 0.50697 0.74608
 Zr635 Zr 0.22961 0.49195 0.73020
 O636 O 0.24421 0.47641 0.74381
 Zr637 Zr 0.22813 0.51877 0.75984
 O638 O 0.24238 0.50434 0.77500
 Zr639 Zr 0.26840 0.48259 0.74089
 O640 O 0.25396 0.49672 0.72546
 Zr641 Zr 0.26656 0.50945 0.77058
 O642 O 0.25230 0.52517 0.75667
 Zr643 Zr 0.23956 0.48014 0.76839
 O644 O 0.22354 0.49438 0.75469
 O645 O 0.23268 0.51611 0.73540
 O646 O 0.26362 0.48533 0.76521
 C647 C 0.23466 0.55003 0.74017
 C648 C 0.23650 0.51453 0.70112
 C649 C 0.19885 0.51202 0.73779
 C650 C 0.26361 0.45243 0.76268
 C651 C 0.29659 0.48809 0.76471
 C652 C 0.26249 0.48412 0.79777
 H653 H 0.28361 0.51016 0.74397
 H654 H 0.23952 0.50617 0.78640
 H655 H 0.22580 0.52308 0.72868
 H656 H 0.24223 0.46510 0.74072
 H657 H 0.26351 0.46916 0.71331
 H658 H 0.23701 0.46726 0.71289
 H659 H 0.25642 0.52428 0.79617
 H660 H 0.23839 0.54110 0.77873
 H661 H 0.29278 0.49408 0.72504
 H662 H 0.27518 0.51147 0.70902
 H663 H 0.22416 0.48623 0.79504
 H664 H 0.20626 0.50610 0.77756
 H665 H 0.27435 0.54310 0.74462
 H666 H 0.29107 0.52718 0.76318
 H667 H 0.20480 0.47470 0.73776
 H668 H 0.21351 0.46502 0.76139
 O669 O 0.20539 0.01741 0.24940
 O670 O 0.21051 0.01570 0.27739
 O671 O 0.24707 0.04327 0.23268
 O672 O 0.27331 0.03989 0.23173
 O673 O 0.22963 0.00125 0.20727
 O674 O 0.23241 -0.02687 0.21169
 O675 O 0.28944 -0.00176 0.27384
 O676 O 0.28477 0.02674 0.27105
 O677 O 0.25151 -0.02407 0.29084
 O678 O 0.22165 -0.02290 0.28526
 O679 O 0.27292 -0.04056 0.25132
 O680 O 0.27114 -0.03427 0.22164
 O681 O 0.29174 -0.01920 0.25288
 O682 O 0.28710 -0.01533 0.22284
 O683 O 0.25268 -0.04316 0.26942
 O684 O 0.22275 -0.03913 0.26653
 O685 O 0.26875 -0.00306 0.29314
 O686 O 0.26443 0.02665 0.28892
 O687 O 0.20709 -0.00065 0.22888
 O688 O 0.21454 -0.02896 0.22960
 O689 O 0.24753 0.02179 0.20853
 O690 O 0.27668 0.01981 0.21563
 O691 O 0.22664 0.04118 0.25066
 O692 O 0.22785 0.03386 0.27908
 Zr693 Zr 0.22847 0.01752 0.25958
 O694 O 0.24269 0.00323 0.27489
 Zr695 Zr 0.25728 0.02025 0.23202
 O696 O 0.27308 0.00661 0.24640
 Zr697 Zr 0.23069 -0.00942 0.23010
 O698 O 0.24544 -0.02473 0.24378
 Zr699 Zr 0.26686 0.00881 0.27083
 O700 O 0.25260 0.02433 0.25669
 Zr701 Zr 0.24048 -0.02105 0.26830
 O702 O 0.22450 -0.00697 0.25452
 Zr703 Zr 0.26950 -0.01780 0.24101
 O704 O 0.25487 -0.00402 0.22548
 O705 O 0.23323 0.01488 0.23519
 O706 O 0.26439 -0.01532 0.26530
 C707 C 0.19942 0.00974 0.23736
 C708 C 0.23508 0.04910 0.24041
 C709 C 0.23683 0.01342 0.20113
 C710 C 0.29678 -0.01288 0.26607
 C711 C 0.26259 -0.01627 0.29819
 C712 C 0.26559 -0.04810 0.26261
 H713 H 0.23960 0.00498 0.28624
 H714 H 0.24370 -0.03602 0.24057
 H715 H 0.22621 0.02177 0.22854
 H716 H 0.28429 0.00995 0.24464
 H717 H 0.27991 0.03648 0.26628
 H718 H 0.28197 0.03738 0.23944
 H719 H 0.22561 -0.04621 0.25740
 H720 H 0.20866 -0.02873 0.23994
 H721 H 0.25580 0.02332 0.29635
 H722 H 0.23795 0.04005 0.27864
 H723 H 0.26274 -0.04251 0.22313
 H724 H 0.24346 -0.02619 0.20747
 H725 H 0.20703 0.00434 0.27741
 H726 H 0.22348 -0.01477 0.29376
 H727 H 0.27506 0.01042 0.20849
 H728 H 0.29437 -0.00652 0.22604
 O729 O 0.50333 0.70632 0.23177
 O730 O 0.47533 0.70996 0.23392
 O731 O 0.51695 0.74871 0.20474
 O732 O 0.51615 0.77515 0.20781
 O733 O 0.54446 0.73377 0.24657
 O734 O 0.54031 0.73612 0.27482
 O735 O 0.47493 0.78943 0.25046
 O736 O 0.47723 0.78446 0.22184
 O737 O 0.46088 0.75106 0.27393
 O738 O 0.46791 0.72107 0.27238
 O739 O 0.49872 0.77474 0.28885
 O740 O 0.52837 0.77430 0.28212
 O741 O 0.49620 0.79324 0.26715
 O742 O 0.52601 0.79005 0.26307
 O743 O 0.48255 0.75308 0.29242
 O744 O 0.48662 0.72345 0.28851
 O745 O 0.45697 0.76757 0.25247
 O746 O 0.46058 0.76317 0.22271
 O747 O 0.52442 0.70952 0.24885
 O748 O 0.52377 0.71708 0.27726
 O749 O 0.54114 0.75066 0.22530
 O750 O 0.53286 0.77954 0.22744
 O751 O 0.50064 0.72703 0.20766
 O752 O 0.47243 0.72692 0.21546
 Zr753 Zr 0.49200 0.72887 0.23149
 O754 O 0.47636 0.74244 0.24604
 Zr755 Zr 0.51752 0.75930 0.22766
 O756 O 0.50279 0.77447 0.24159
 Zr757 Zr 0.52187 0.73316 0.25765
 O758 O 0.50778 0.74730 0.27322
 Zr759 Zr 0.47888 0.76681 0.24006
 O760 O 0.49326 0.75310 0.22426
 Zr761 Zr 0.48364 0.74090 0.27023
 O762 O 0.49793 0.72552 0.25595
 Zr763 Zr 0.50895 0.77148 0.26597
 O764 O 0.52483 0.75759 0.25184
 O765 O 0.51597 0.73510 0.23344
 O766 O 0.48511 0.76496 0.26414
 C767 C 0.51596 0.70116 0.23895
 C768 C 0.51014 0.73596 0.19936
 C769 C 0.54954 0.74090 0.23384
 C770 C 0.48266 0.79748 0.26115
 C771 C 0.45273 0.76153 0.26606
 C772 C 0.48834 0.76667 0.29688
 H773 H 0.46525 0.73866 0.24462
 H774 H 0.51134 0.74588 0.28448
 H775 H 0.52282 0.72835 0.22647
 H776 H 0.50383 0.78576 0.23808
 H777 H 0.48199 0.77971 0.21202
 H778 H 0.50848 0.78371 0.21072
 H779 H 0.49616 0.72645 0.29489
 H780 H 0.51386 0.71058 0.27727
 H781 H 0.45399 0.75394 0.22617
 H782 H 0.47221 0.73697 0.20909
 H783 H 0.52712 0.76634 0.29087
 H784 H 0.54364 0.74751 0.27419
 H785 H 0.47570 0.70667 0.24537
 H786 H 0.45869 0.72292 0.26514
 H787 H 0.54027 0.77838 0.23668
 H788 H 0.52262 0.79671 0.25382
 O789 O 0.00033 0.70806 0.72772
 O790 O -0.02773 0.71351 0.72993
 O791 O 0.01838 0.75003 0.70466
 O792 O 0.01918 0.77638 0.70922
 O793 O 0.04186 0.73003 0.74617
 O794 O 0.03709 0.73204 0.77457
 O795 O -0.02189 0.79231 0.75002
 O796 O -0.01947 0.78801 0.72183
 O797 O -0.04131 0.75281 0.77072
 O798 O -0.03630 0.72321 0.76869
 O799 O -0.00108 0.77211 0.78998
 O800 O 0.02785 0.77088 0.78384
 O801 O -0.00182 0.79302 0.76849
 O802 O 0.02767 0.78732 0.76585
 O803 O -0.01960 0.75216 0.79102
 O804 O -0.01832 0.72284 0.78506
 O805 O -0.04246 0.77127 0.75059
 O806 O -0.03774 0.76869 0.72110
 O807 O 0.01961 0.70792 0.74710
 O808 O 0.01897 0.71436 0.77559
 O809 O 0.04165 0.74929 0.72674
 O810 O 0.03543 0.77834 0.72976
 O811 O -0.00040 0.73025 0.70548
 O812 O -0.02862 0.73168 0.71220
 Zr813 Zr -0.00963 0.73121 0.72903
 O814 O -0.02474 0.74523 0.74363
 Zr815 Zr 0.01852 0.75945 0.72819
 O816 O 0.00440 0.77497 0.74240
 Zr817 Zr 0.01908 0.73137 0.75669
 O818 O 0.00549 0.74578 0.77239
 Zr819 Zr -0.01997 0.76959 0.73935
 O820 O -0.00600 0.75560 0.72339
 Zr821 Zr -0.01891 0.74170 0.76799
 O822 O -0.00528 0.72594 0.75346
 Zr823 Zr 0.00897 0.77019 0.76684
 O824 O 0.02434 0.75576 0.75258
 O825 O 0.01464 0.73521 0.73240
 O826 O -0.01535 0.76605 0.76372
 C827 C 0.01163 0.70120 0.73568
 C828 C 0.01042 0.73848 0.69818
 C829 C 0.04844 0.73783 0.73458
 C830 C -0.01396 0.79924 0.76131
 C831 C -0.04833 0.76416 0.76298
 C832 C -0.01212 0.76414 0.79721
 H833 H -0.03603 0.74249 0.74143
 H834 H 0.00844 0.74332 0.78365
 H835 H 0.02122 0.72833 0.72531
 H836 H 0.00660 0.78629 0.73957
 H837 H -0.01434 0.78339 0.71213
 H838 H 0.01237 0.78554 0.71245
 H839 H -0.00881 0.72445 0.79197
 H840 H 0.00858 0.70870 0.77498
 H841 H -0.04495 0.75956 0.72337
 H842 H -0.02794 0.74214 0.70659
 H843 H 0.02704 0.76114 0.79059
 H844 H 0.04206 0.74281 0.77391
 H845 H -0.02738 0.70892 0.74092
 H846 H -0.04387 0.72496 0.75970
 H847 H 0.04202 0.77630 0.73947
 H848 H 0.02543 0.79467 0.75677
 O849 O -0.04185 -0.00084 -0.02117
 O850 O -0.03601 0.02728 -0.01957
 O851 O -0.00025 -0.02022 -0.04332
 O852 O 0.02625 -0.02017 -0.03879
 O853 O -0.02009 -0.04289 -0.00169
 O854 O -0.01886 -0.03720 0.02654
 O855 O 0.04215 0.02085 0.00157
 O856 O 0.03802 0.01807 -0.02666
 O857 O 0.00247 0.04134 0.02128
 O858 O -0.02711 0.03614 0.01905
 O859 O 0.02132 0.00121 0.04161
 O860 O 0.01972 -0.02807 0.03606
 O861 O 0.04243 0.00100 0.02034
 O862 O 0.03639 -0.02840 0.01840
 O863 O 0.00163 0.02000 0.04209
 O864 O -0.02747 0.01871 0.03600
 O865 O 0.02135 0.04183 0.00160
 O866 O 0.01920 0.03677 -0.02768
 O867 O -0.04229 -0.02019 -0.00182
 O868 O -0.03637 -0.01893 0.02678
 O869 O -0.00105 -0.04254 -0.02128
 O870 O 0.02781 -0.03675 -0.01802
 O871 O -0.01958 -0.00100 -0.04338
 O872 O -0.01779 0.02746 -0.03723
 Zr873 Zr -0.01866 0.00883 -0.01996
 O874 O -0.00474 0.02414 -0.00542
 Zr875 Zr 0.00926 -0.01953 -0.01992
 O876 O 0.02466 -0.00532 -0.00572
 Zr877 Zr -0.01908 -0.01959 0.00822
 O878 O -0.00484 -0.00568 0.02386
 Zr879 Zr 0.01956 0.01910 -0.00928
 O880 O 0.00569 0.00497 -0.02523
 Zr881 Zr -0.00862 0.01877 0.01898
 O882 O -0.02421 0.00487 0.00449
 Zr883 Zr 0.01952 -0.00945 0.01871
 O884 O 0.00526 -0.02501 0.00449
 O885 O -0.01492 -0.01548 -0.01606
 O886 O 0.01567 0.01495 0.01512
 C887 C -0.04884 -0.01212 -0.01328
 C888 C -0.01163 -0.01238 -0.05017
 C889 C -0.01232 -0.04945 -0.01333
 C890 C 0.04889 0.01293 0.01298
 C891 C 0.01401 0.04812 0.01365
 C892 C 0.01348 0.01255 0.04852
 H893 H -0.00736 0.03544 -0.00785
 H894 H -0.00744 -0.00838 0.03515
 H895 H -0.02178 -0.02222 -0.02303
 H896 H 0.03594 -0.00772 -0.00837
 H897 H 0.03340 0.01289 -0.03635
 H898 H 0.03569 -0.01397 -0.03520
 H899 H -0.02612 0.00916 0.04294
 H900 H -0.04181 -0.00840 0.02593
 H901 H 0.00984 0.04381 -0.02593
 H902 H -0.00728 0.02657 -0.04266
 H903 H 0.01019 -0.02673 0.04299
 H904 H -0.00807 -0.04209 0.02635
 H905 H -0.04083 0.02709 -0.00869
 H906 H -0.02509 0.04372 0.01011
 H907 H 0.02571 -0.04308 -0.00816
 H908 H 0.04361 -0.02665 0.00914
 O909 O 0.04380 0.51983 0.50107
 O910 O 0.03739 0.51902 0.47295
 O911 O 0.00277 0.54230 0.52168
 O912 O -0.02391 0.53839 0.52143
 O913 O 0.02195 0.50022 0.54315
 O914 O 0.02025 0.47206 0.53687
 O915 O -0.04122 0.49929 0.48020
 O916 O -0.03633 0.52722 0.48330
 O917 O -0.00216 0.47892 0.45866
 O918 O 0.02772 0.48121 0.46328
 O919 O -0.02007 0.45824 0.49905
 O920 O -0.01827 0.46370 0.52851
 O921 O -0.04071 0.47927 0.49878
 O922 O -0.03527 0.48114 0.52862
 O923 O -0.00093 0.45800 0.47963
 O924 O 0.02826 0.46379 0.48048
 O925 O -0.02141 0.49817 0.45941
 O926 O -0.01737 0.52796 0.46424
 O927 O 0.04371 0.50053 0.52047
 O928 O 0.03778 0.47222 0.51857
 O929 O 0.00256 0.51937 0.54387
 O930 O -0.02593 0.51762 0.53781
 O931 O 0.02146 0.54257 0.50174
 O932 O 0.01958 0.53683 0.47331
 Zr933 Zr 0.02032 0.51933 0.49172
 O934 O 0.00588 0.50539 0.47624
 Zr935 Zr -0.00735 0.51921 0.52055
 O936 O -0.02312 0.50549 0.50628
 Zr937 Zr 0.02055 0.49076 0.51968
 O938 O 0.00606 0.47561 0.50557
 Zr939 Zr -0.01830 0.50947 0.48180
 O940 O -0.00393 0.52485 0.49604
 Zr941 Zr 0.00956 0.48092 0.48107
 O942 O 0.02552 0.49481 0.49515
 Zr943 Zr -0.01814 0.48099 0.50984
 O944 O -0.00361 0.49472 0.52553
 O945 O 0.01675 0.51512 0.51612
 O946 O -0.01454 0.48507 0.48547
 C947 C 0.05057 0.51176 0.51241
 C948 C 0.01385 0.54921 0.51346
 C949 C 0.01392 0.51124 0.55039
 C950 C -0.04747 0.48710 0.48730
 C951 C -0.01439 0.48619 0.45272
 C952 C -0.01260 0.45151 0.48733
 H953 H 0.00829 0.50798 0.46489
 H954 H 0.00859 0.46429 0.50806
 H955 H 0.02373 0.52183 0.52301
 H956 H -0.03435 0.50818 0.50885
 H957 H -0.03132 0.53682 0.48822
 H958 H -0.03342 0.53509 0.51516
 H959 H 0.02707 0.45679 0.49002
 H960 H 0.04301 0.47311 0.50791
 H961 H -0.00972 0.52479 0.45573
 H962 H 0.00890 0.54192 0.47394
 H963 H -0.00891 0.45661 0.52692
 H964 H 0.00970 0.47260 0.54227
 H965 H 0.04194 0.50805 0.47278
 H966 H 0.02523 0.48986 0.45553
 H967 H -0.02470 0.50715 0.54330
 H968 H -0.04280 0.49007 0.52658
 O969 O 0.50418 0.04370 0.51506
 O970 O 0.47631 0.03858 0.51447
 O971 O 0.52201 0.00245 0.54071
 O972 O 0.52177 -0.02420 0.53775
 O973 O 0.54556 0.01892 0.49769
 O974 O 0.54014 0.01612 0.46970
 O975 O 0.47940 -0.04091 0.49785
 O976 O 0.48253 -0.03547 0.52602
 O977 O 0.46160 -0.00246 0.47519
 O978 O 0.46740 0.02753 0.47631
 O979 O 0.49949 -0.02457 0.45778
 O980 O 0.52963 -0.02248 0.46267
 O981 O 0.49941 -0.04329 0.47944
 O982 O 0.52913 -0.03864 0.48155
 O983 O 0.48218 -0.00365 0.45535
 O984 O 0.48526 0.02616 0.45925
 O985 O 0.46023 -0.02027 0.49589
 O986 O 0.46493 -0.01490 0.52587
 O987 O 0.52418 0.04178 0.49655
 O988 O 0.52240 0.03417 0.46815
 O989 O 0.54492 0.00101 0.51837
 O990 O 0.53760 -0.02795 0.51725
 O991 O 0.50396 0.02284 0.53901
 O992 O 0.47542 0.02134 0.53291
 Zr993 Zr 0.49409 0.02060 0.51575
 O994 O 0.47833 0.00633 0.50204
 Zr995 Zr 0.52142 -0.00840 0.51783
 O996 O 0.50664 -0.02424 0.50467
 Zr997 Zr 0.52249 0.01805 0.48781
 O998 O 0.50827 0.00325 0.47299
 Zr999 Zr 0.48247 -0.01790 0.50765
 O1000 O 0.49710 -0.00355 0.52268
 Zr1001 Zr 0.48411 0.00845 0.47750
 O1002 O 0.49837 0.02447 0.49104
 Zr1003 Zr 0.51109 -0.02088 0.47997
 O1004 O 0.52706 -0.00622 0.49324
 O1005 O 0.51821 0.01569 0.51232
 O1006 O 0.48713 -0.01557 0.48326
 C1007 C 0.51601 0.04958 0.50711
 C1008 C 0.51464 0.01467 0.54661
 C1009 C 0.55204 0.01163 0.50967
 C1010 C 0.48673 -0.04844 0.48654
 C1011 C 0.45471 -0.01387 0.48293
 C1012 C 0.48826 -0.01695 0.45046
 H1013 H 0.46713 0.00948 0.50414
 H1014 H 0.51108 0.00490 0.46155
 H1015 H 0.52515 0.02275 0.51888
 H1016 H 0.50848 -0.03547 0.50805
 H1017 H 0.48758 -0.03043 0.53557
 H1018 H 0.51431 -0.03308 0.53526
 H1019 H 0.49432 0.02346 0.45209
 H1020 H 0.51224 0.04026 0.46880
 H1021 H 0.45684 -0.00713 0.52201
 H1022 H 0.47608 0.01122 0.53912
 H1023 H 0.52721 -0.01483 0.45390
 H1024 H 0.54401 0.00490 0.47004
 H1025 H 0.47601 0.04216 0.50311
 H1026 H 0.45903 0.02557 0.48450
 H1027 H 0.54407 -0.02678 0.50733
 H1028 H 0.52678 -0.04539 0.49106
 O1029 O 0.54126 0.52275 0.00058
 O1030 O 0.53538 0.52078 -0.02795
 O1031 O 0.49936 0.54346 0.02002
 O1032 O 0.47282 0.53814 0.01995
 O1033 O 0.52025 0.50231 0.04245
 O1034 O 0.51971 0.47400 0.03637
 O1035 O 0.45779 0.49755 -0.02124
 O1036 O 0.46105 0.52596 -0.01799
 O1037 O 0.49854 0.47988 -0.04252
 O1038 O 0.52781 0.48255 -0.03692
 O1039 O 0.47990 0.45830 -0.00200
 O1040 O 0.48213 0.46380 0.02775
 O1041 O 0.45910 0.47781 -0.00236
 O1042 O 0.46419 0.48083 0.02777
 O1043 O 0.49811 0.45953 -0.02230
 O1044 O 0.52817 0.46514 -0.01924
 O1045 O 0.47760 0.49728 -0.04149
 O1046 O 0.48014 0.52753 -0.03709
 O1047 O 0.54241 0.50295 0.01946
 O1048 O 0.53736 0.47461 0.01835
 O1049 O 0.50068 0.52133 0.04234
 O1050 O 0.47203 0.51746 0.03672
 O1051 O 0.51822 0.54418 0.00029
 O1052 O 0.51702 0.53814 -0.02789
 Zr1053 Zr 0.51813 0.52082 -0.00933
 O1054 O 0.50440 0.50621 -0.02476
 Zr1055 Zr 0.49037 0.51985 0.01929
 O1056 O 0.47525 0.50523 0.00515
 Zr1057 Zr 0.51947 0.49253 0.01898
 O1058 O 0.50575 0.47659 0.00485
 Zr1059 Zr 0.48002 0.50921 -0.01933
 O1060 O 0.49365 0.52538 -0.00525
 Zr1061 Zr 0.50921 0.48200 -0.01964
 O1062 O 0.52443 0.49664 -0.00556
 Zr1063 Zr 0.48135 0.48101 0.00901
 O1064 O 0.49513 0.49559 0.02462
 O1065 O 0.51463 0.51666 0.01506
 O1066 O 0.48501 0.48520 -0.01529
 C1067 C 0.54856 0.51476 0.01163
 C1068 C 0.51028 0.55068 0.01183
 C1069 C 0.51215 0.51362 0.04918
 C1070 C 0.45227 0.48493 -0.01425
 C1071 C 0.48565 0.48602 -0.04829
 C1072 C 0.48660 0.45264 -0.01473
 H1073 H 0.50678 0.50883 -0.03611
 H1074 H 0.50866 0.46536 0.00733
 H1075 H 0.52130 0.52378 0.02184
 H1076 H 0.46388 0.50739 0.00761
 H1077 H 0.46556 0.53588 -0.01321
 H1078 H 0.46345 0.53422 0.01383
 H1079 H 0.52539 0.45660 -0.01146
 H1080 H 0.54192 0.47484 0.00735
 H1081 H 0.48777 0.52448 -0.04566
 H1082 H 0.50599 0.54245 -0.02778
 H1083 H 0.49132 0.45660 0.02568
 H1084 H 0.50906 0.47412 0.04159
 H1085 H 0.54113 0.51042 -0.02717
 H1086 H 0.52594 0.49190 -0.04401
 H1087 H 0.47403 0.50727 0.04251
 H1088 H 0.45596 0.48897 0.02522
 O1089 O 0.75148 0.27517 0.46042
 O1090 O 0.72299 0.27305 0.46562
 O1091 O 0.77094 0.29455 0.50226
 O1092 O 0.76999 0.28943 0.52913
 O1093 O 0.79224 0.25312 0.48158
 O1094 O 0.78554 0.22506 0.48135
 O1095 O 0.72917 0.25020 0.54422
 O1096 O 0.73193 0.27800 0.54044
 O1097 O 0.70724 0.23250 0.50242
 O1098 O 0.71274 0.23439 0.47359
 O1099 O 0.74793 0.20945 0.52076
 O1100 O 0.77679 0.21498 0.52009
 O1101 O 0.74717 0.22978 0.54290
 O1102 O 0.77695 0.23174 0.53766
 O1103 O 0.72819 0.21069 0.50199
 O1104 O 0.73020 0.21770 0.47239
 O1105 O 0.70821 0.25004 0.52340
 O1106 O 0.71336 0.27965 0.52150
 O1107 O 0.77013 0.25526 0.45919
 O1108 O 0.76742 0.22645 0.46356
 O1109 O 0.79246 0.27178 0.50162
 O1110 O 0.78637 0.26838 0.53025
 O1111 O 0.75123 0.29584 0.48337
 O1112 O 0.72281 0.29015 0.48473
 Zr1113 Zr 0.74113 0.27271 0.48336
 O1114 O 0.72555 0.25820 0.49690
 Zr1115 Zr 0.76935 0.27105 0.51153
 O1116 O 0.75493 0.25665 0.52648
 Zr1117 Zr 0.76871 0.24399 0.48193
 O1118 O 0.75444 0.22826 0.49565
 Zr1119 Zr 0.73071 0.26105 0.52150
 O1120 O 0.74510 0.27708 0.50806
 Zr1121 Zr 0.73019 0.23389 0.49207
 O1122 O 0.74442 0.24849 0.47685
 Zr1123 Zr 0.75836 0.23240 0.52033
 O1124 O 0.77419 0.24672 0.50656
 O1125 O 0.76523 0.26807 0.48713
 O1126 O 0.73414 0.23675 0.51666
 C1127 C 0.76284 0.26756 0.45330
 C1128 C 0.76310 0.30191 0.49113
 C1129 C 0.79916 0.26408 0.49001
 C1130 C 0.73613 0.23778 0.55011
 C1131 C 0.70116 0.23925 0.51493
 C1132 C 0.73609 0.20332 0.51304
 H1133 H 0.71435 0.26103 0.49436
 H1134 H 0.75689 0.21705 0.49260
 H1135 H 0.77231 0.27507 0.48068
 H1136 H 0.75740 0.25882 0.53792
 H1137 H 0.73725 0.28767 0.53602
 H1138 H 0.76397 0.28554 0.53861
 H1139 H 0.73906 0.21000 0.47402
 H1140 H 0.75699 0.22796 0.45812
 H1141 H 0.70552 0.27751 0.51283
 H1142 H 0.72351 0.29495 0.49562
 H1143 H 0.77578 0.20878 0.50997
 H1144 H 0.79083 0.22497 0.49202
 H1145 H 0.72391 0.26284 0.45957
 H1146 H 0.70705 0.24477 0.47436
 H1147 H 0.79190 0.25804 0.52838
 H1148 H 0.77483 0.24023 0.54572
 O1149 O 0.79170 0.75105 -0.02411
 O1150 O 0.78517 0.72280 -0.02354
 O1151 O 0.75019 0.77307 -0.04240
 O1152 O 0.72377 0.77328 -0.03666
 O1153 O 0.77305 0.79178 -0.00098
 O1154 O 0.77248 0.78467 0.02720
 O1155 O 0.70795 0.73084 0.00141
 O1156 O 0.71116 0.73489 -0.02653
 O1157 O 0.74905 0.70681 0.01705
 O1158 O 0.77782 0.71170 0.01512
 O1159 O 0.73259 0.74754 0.04236
 O1160 O 0.73402 0.77647 0.03799
 O1161 O 0.71024 0.74805 0.02256
 O1162 O 0.71645 0.77802 0.02118
 O1163 O 0.74976 0.72656 0.03964
 O1164 O 0.77939 0.72832 0.03286
 O1165 O 0.72796 0.70913 -0.00009
 O1166 O 0.72921 0.71568 -0.02950
 O1167 O 0.79399 0.76843 -0.00305
 O1168 O 0.78933 0.76581 0.02556
 O1169 O 0.75244 0.79385 -0.01876
 O1170 O 0.72374 0.78867 -0.01481
 O1171 O 0.76809 0.75261 -0.04485
 O1172 O 0.76615 0.72412 -0.04023
 Zr1173 Zr 0.76837 0.74171 -0.02200
 O1174 O 0.75456 0.72603 -0.00786
 Zr1175 Zr 0.74158 0.77103 -0.01867
 O1176 O 0.72635 0.75649 -0.00461
 Zr1177 Zr 0.77127 0.76815 0.00789
 O1178 O 0.75733 0.75376 0.02332
 Zr1179 Zr 0.73028 0.73220 -0.01006
 O1180 O 0.74394 0.74681 -0.02573
 Zr1181 Zr 0.75989 0.72957 0.01661
 O1182 O 0.77530 0.74381 0.00231
 Zr1183 Zr 0.73293 0.75876 0.01973
 O1184 O 0.74703 0.77471 0.00582
 O1185 O 0.76573 0.76582 -0.01635
 O1186 O 0.73560 0.73454 0.01431
 C1187 C 0.79955 0.76131 -0.01562
 C1188 C 0.76056 0.76488 -0.05039
 C1189 C 0.76470 0.79960 -0.01138
 C1190 C 0.70260 0.73744 0.01431
 C1191 C 0.73639 0.70133 0.01021
 C1192 C 0.73940 0.73476 0.04760
 H1193 H 0.75664 0.71484 -0.01121
 H1194 H 0.76060 0.75563 0.03461
 H1195 H 0.77245 0.77275 -0.02326
 H1196 H 0.71505 0.75944 -0.00647
 H1197 H 0.71553 0.74052 -0.03606
 H1198 H 0.71425 0.76730 -0.03292
 H1199 H 0.77765 0.73639 0.04143
 H1200 H 0.79396 0.75496 0.02418
 H1201 H 0.73775 0.70760 -0.02805
 H1202 H 0.75522 0.72523 -0.04468
 H1203 H 0.74446 0.77534 0.04347
 H1204 H 0.76223 0.79062 0.02720
 H1205 H 0.79126 0.72288 -0.01331
 H1206 H 0.77655 0.70618 0.00464
 H1207 H 0.72618 0.79389 -0.00437
 H1208 H 0.70793 0.77614 0.01312
 O1209 O 1.00216 0.20532 0.23181
 O1210 O 0.97418 0.21017 0.23280
 O1211 O 1.02009 0.24747 0.20854
 O1212 O 1.01911 0.27409 0.21231
 O1213 O 1.04315 0.22945 0.25055
 O1214 O 1.03764 0.23102 0.27870
 O1215 O 0.97645 0.28873 0.25329
 O1216 O 0.98034 0.28508 0.22469
 O1217 O 0.95926 0.25003 0.27389
 O1218 O 0.96473 0.21992 0.27120
 O1219 O 0.99727 0.27086 0.29231
 O1220 O 1.02714 0.26942 0.28724
 O1221 O 0.99668 0.29057 0.27155
 O1222 O 1.02655 0.28624 0.26899
 O1223 O 0.97989 0.24989 0.29374
 O1224 O 0.98263 0.22032 0.28835
 O1225 O 0.95748 0.26782 0.25319
 O1226 O 0.96274 0.26454 0.22337
 O1227 O 1.02189 0.20651 0.25070
 O1228 O 1.01997 0.21283 0.27935
 O1229 O 1.04258 0.24833 0.23078
 O1230 O 1.03520 0.27711 0.23315
 O1231 O 1.00145 0.22751 0.20876
 O1232 O 0.97305 0.22815 0.21512
 Zr1233 Zr 0.99179 0.22837 0.23224
 O1234 O 0.97595 0.24200 0.24651
 Zr1235 Zr 1.01903 0.25757 0.23165
 O1236 O 1.00415 0.27280 0.24538
 Zr1237 Zr 1.02007 0.22981 0.26043
 O1238 O 1.00578 0.24391 0.27579
 Zr1239 Zr 0.98003 0.26647 0.24200
 O1240 O 0.99474 0.25283 0.22642
 Zr1241 Zr 0.98163 0.23889 0.27098
 O1242 O 0.99598 0.22350 0.25681
 Zr1243 Zr 1.00858 0.26834 0.26989
 O1244 O 1.02464 0.25431 0.25612
 O1245 O 1.01586 0.23324 0.23604
 O1246 O 0.98463 0.26312 0.26628
 C1247 C 1.01392 0.19914 0.23966
 C1248 C 1.01250 0.23579 0.20187
 C1249 C 1.04967 0.23730 0.23896
 C1250 C 0.98381 0.29581 0.26489
 C1251 C 0.95216 0.26133 0.26616
 C1252 C 0.98616 0.26284 0.29932
 H1253 H 0.96477 0.23890 0.24422
 H1254 H 1.00857 0.24175 0.28715
 H1255 H 1.02285 0.22650 0.22921
 H1256 H 1.00595 0.28419 0.24254
 H1257 H 0.98547 0.28059 0.21493
 H1258 H 1.01218 0.28318 0.21545
 H1259 H 0.99182 0.22253 0.29553
 H1260 H 1.00984 0.20675 0.27838
 H1261 H 0.95521 0.25582 0.22619
 H1262 H 0.97355 0.23855 0.20937
 H1263 H 1.02518 0.26090 0.29529
 H1264 H 1.04169 0.24218 0.27868
 H1265 H 0.97382 0.20625 0.24405
 H1266 H 0.95621 0.22251 0.26335
 H1267 H 1.04158 0.27557 0.24308
 H1268 H 1.02391 0.29363 0.26006
 O1269 O 0.72873 1.00386 0.70751
 O1270 O 0.72969 0.97547 0.71311
 O1271 O 0.70753 1.02326 0.74982
 O1272 O 0.71217 1.02230 0.77663
 O1273 O 0.74919 1.04482 0.73002
 O1274 O 0.77730 1.03838 0.73103
 O1275 O 0.75102 0.98081 0.79215
 O1276 O 0.72318 0.98400 0.78780
 O1277 O 0.76953 0.95957 0.75072
 O1278 O 0.76784 0.96555 0.72156
 O1279 O 0.79181 0.99977 0.77021
 O1280 O 0.78647 1.02906 0.76930
 O1281 O 0.77128 0.99903 0.79151
 O1282 O 0.76943 1.02893 0.78675
 O1283 O 0.79068 0.97991 0.75144
 O1284 O 0.78507 0.98284 0.72149
 O1285 O 0.75141 0.96020 0.77110
 O1286 O 0.72188 0.96545 0.76863
 O1287 O 0.74818 1.02302 0.70765
 O1288 O 0.77658 1.02047 0.71288
 O1289 O 0.73023 1.04509 0.74966
 O1290 O 0.73309 1.03868 0.77831
 O1291 O 0.70671 1.00378 0.73056
 O1292 O 0.71223 0.97548 0.73133
 Zr1293 Zr 0.72981 0.99372 0.73081
 O1294 O 0.74384 0.97789 0.74464
 Zr1295 Zr 0.73080 1.02176 0.75939
 O1296 O 0.74477 1.00708 0.77458
 Zr1297 Zr 0.75852 1.02138 0.73067
 O1298 O 0.77385 1.00684 0.74453
 Zr1299 Zr 0.74046 0.98282 0.76924
 O1300 O 0.72492 0.99744 0.75546
 Zr1301 Zr 0.76817 0.98260 0.74048
 O1302 O 0.75411 0.99711 0.72508
 Zr1303 Zr 0.76909 1.01056 0.76910
 O1304 O 0.75517 1.02666 0.75521
 O1305 O 0.73432 1.01787 0.73498
 O1306 O 0.76470 0.98636 0.76499
 C1307 C 0.73666 1.01534 0.70086
 C1308 C 0.70036 1.01533 0.73862
 C1309 C 0.73810 1.05179 0.73818
 C1310 C 0.76335 0.98769 0.79833
 C1311 C 0.76259 0.95333 0.76301
 C1312 C 0.79772 0.98754 0.76288
 H1313 H 0.74108 0.96668 0.74192
 H1314 H 0.78511 1.00925 0.74183
 H1315 H 0.72747 1.02490 0.72829
 H1316 H 0.74237 1.00941 0.78600
 H1317 H 0.71363 0.98932 0.78316
 H1318 H 0.71582 1.01610 0.78610
 H1319 H 0.79309 0.99125 0.72388
 H1320 H 0.77560 1.00987 0.70757
 H1321 H 0.72424 0.95764 0.75997
 H1322 H 0.70757 0.97566 0.74228
 H1323 H 0.79318 1.02778 0.75958
 H1324 H 0.77691 1.04364 0.74172
 H1325 H 0.74024 0.97593 0.70770
 H1326 H 0.75811 0.95891 0.72283
 H1327 H 0.74344 1.04423 0.77674
 H1328 H 0.76068 1.02679 0.79447
 O1329 O 0.70666 0.51698 0.24688
 O1330 O 0.71121 0.51476 0.27512
 O1331 O 0.74784 0.54455 0.23196
 O1332 O 0.77442 0.54195 0.23246
 O1333 O 0.73300 0.50264 0.20476
 O1334 O 0.73595 0.47449 0.20885
 O1335 O 0.79036 0.49921 0.27331
 O1336 O 0.78530 0.52782 0.27087
 O1337 O 0.75289 0.47570 0.28840
 O1338 O 0.72278 0.47694 0.28216
 O1339 O 0.77564 0.46108 0.24997
 O1340 O 0.77397 0.46771 0.21982
 O1341 O 0.79389 0.48289 0.25162
 O1342 O 0.78990 0.48662 0.22190
 O1343 O 0.75426 0.45721 0.26644
 O1344 O 0.72478 0.46079 0.26341
 O1345 O 0.76895 0.49747 0.29193
 O1346 O 0.76461 0.52695 0.28824
 O1347 O 0.70952 0.50002 0.22555
 O1348 O 0.71740 0.47181 0.22594
 O1349 O 0.74968 0.52406 0.20763
 O1350 O 0.77854 0.52257 0.21506
 O1351 O 0.72675 0.54120 0.24898
 O1352 O 0.72776 0.53368 0.27732
 Zr1353 Zr 0.72940 0.51758 0.25769
 O1354 O 0.74357 0.50335 0.27304
 Zr1355 Zr 0.75893 0.52190 0.23119
 O1356 O 0.77466 0.50814 0.24553
 Zr1357 Zr 0.73322 0.49157 0.22749
 O1358 O 0.74783 0.47625 0.24133
 Zr1359 Zr 0.76771 0.50959 0.26980
 O1360 O 0.75340 0.52517 0.25577
 Zr1361 Zr 0.74206 0.47923 0.26578
 O1362 O 0.72618 0.49318 0.25177
 Zr1363 Zr 0.77180 0.48376 0.23950
 O1364 O 0.75739 0.49773 0.22390
 O1365 O 0.73498 0.51572 0.23340
 O1366 O 0.76593 0.48555 0.26366
 C1367 C 0.70131 0.50980 0.23425
 C1368 C 0.73516 0.54961 0.23912
 C1369 C 0.73980 0.51543 0.19945
 C1370 C 0.79833 0.48873 0.26525
 C1371 C 0.76325 0.48386 0.29640
 C1372 C 0.76777 0.45294 0.26047
 H1373 H 0.74012 0.50474 0.28433
 H1374 H 0.74644 0.46500 0.23779
 H1375 H 0.72797 0.52253 0.22667
 H1376 H 0.78584 0.51176 0.24416
 H1377 H 0.78038 0.53758 0.26619
 H1378 H 0.78353 0.53891 0.23943
 H1379 H 0.72731 0.45467 0.25352
 H1380 H 0.71112 0.47174 0.23605
 H1381 H 0.75527 0.52378 0.29481
 H1382 H 0.73769 0.54017 0.27724
 H1383 H 0.76670 0.45854 0.22174
 H1384 H 0.74717 0.47538 0.20515
 H1385 H 0.70776 0.50341 0.27449
 H1386 H 0.72486 0.48411 0.29143
 H1387 H 0.77755 0.51310 0.20792
 H1388 H 0.79615 0.49629 0.22475
 O1389 O 0.49335 0.27108 0.78976
 O1390 O 0.52190 0.26937 0.78448
 O1391 O 0.47440 0.29089 0.74709
 O1392 O 0.47495 0.28542 0.72039
 O1393 O 0.45293 0.24949 0.76826
 O1394 O 0.45950 0.22120 0.76769
 O1395 O 0.51611 0.24671 0.70564
 O1396 O 0.51333 0.27462 0.70969
 O1397 O 0.53798 0.22893 0.74753
 O1398 O 0.53213 0.23128 0.77666
 O1399 O 0.49773 0.20581 0.72896
 O1400 O 0.46868 0.21112 0.72962
 O1401 O 0.49838 0.22602 0.70691
 O1402 O 0.46862 0.22780 0.71185
 O1403 O 0.51747 0.20742 0.74774
 O1404 O 0.51508 0.21398 0.77732
 O1405 O 0.53692 0.24625 0.72640
 O1406 O 0.53192 0.27606 0.72862
 O1407 O 0.47446 0.25135 0.79020
 O1408 O 0.47752 0.22256 0.78590
 O1409 O 0.45274 0.26823 0.74835
 O1410 O 0.45874 0.26437 0.71951
 O1411 O 0.49382 0.29220 0.76630
 O1412 O 0.52203 0.28661 0.76576
 Zr1413 Zr 0.50382 0.26903 0.76667
 O1414 O 0.51960 0.25472 0.75309
 Zr1415 Zr 0.47578 0.26726 0.73818
 O1416 O 0.49037 0.25294 0.72330
 Zr1417 Zr 0.47632 0.24016 0.76759
 O1418 O 0.49085 0.22453 0.75406
 Zr1419 Zr 0.51452 0.25749 0.72844
 O1420 O 0.49999 0.27336 0.74192
 Zr1421 Zr 0.51502 0.23041 0.75786
 O1422 O 0.50053 0.24478 0.77301
 Zr1423 Zr 0.48702 0.22865 0.72938
 O1424 O 0.47096 0.24290 0.74298
 O1425 O 0.47980 0.26431 0.76260
 O1426 O 0.51115 0.23322 0.73327
 C1427 C 0.48173 0.26344 0.79649
 C1428 C 0.48224 0.29834 0.75816
 C1429 C 0.44612 0.26073 0.76014
 C1430 C 0.50934 0.23416 0.69975
 C1431 C 0.54395 0.23543 0.73485
 C1432 C 0.50979 0.20001 0.73658
 H1433 H 0.53077 0.25760 0.75566
 H1434 H 0.48848 0.21331 0.75707
 H1435 H 0.47282 0.27142 0.76904
 H1436 H 0.48795 0.25509 0.71185
 H1437 H 0.50795 0.28422 0.71419
 H1438 H 0.48125 0.28161 0.71106
 H1439 H 0.50624 0.20627 0.77561
 H1440 H 0.48793 0.22407 0.79139
 H1441 H 0.54004 0.27356 0.73691
 H1442 H 0.52197 0.29090 0.75465
 H1443 H 0.46978 0.20487 0.73968
 H1444 H 0.45403 0.22150 0.75712
 H1445 H 0.52107 0.25908 0.79038
 H1446 H 0.53848 0.24120 0.77529
 H1447 H 0.45309 0.25413 0.72158
 H1448 H 0.47057 0.23652 0.70401
 O1449 O 0.29126 0.75087 0.47533
 O1450 O 0.28420 0.72250 0.47583
 O1451 O 0.25113 0.77474 0.45873
 O1452 O 0.22430 0.77480 0.46431
 O1453 O 0.27491 0.79098 0.49949
 O1454 O 0.27401 0.78376 0.52786
 O1455 O 0.20749 0.73244 0.50167
 O1456 O 0.21054 0.73646 0.47395
 O1457 O 0.24802 0.70695 0.51680
 O1458 O 0.27634 0.71042 0.51504
 O1459 O 0.23284 0.74769 0.54278
 O1460 O 0.23489 0.77619 0.53931
 O1461 O 0.21043 0.74917 0.52313
 O1462 O 0.21792 0.77929 0.52188
 O1463 O 0.24943 0.72630 0.53965
 O1464 O 0.27948 0.72773 0.53218
 O1465 O 0.22668 0.71016 0.50013
 O1466 O 0.22838 0.71716 0.47039
 O1467 O 0.29442 0.76790 0.49662
 O1468 O 0.29020 0.76381 0.52574
 O1469 O 0.25408 0.79428 0.48207
 O1470 O 0.22488 0.79005 0.48680
 O1471 O 0.26829 0.75369 0.45553
 O1472 O 0.26445 0.72467 0.45944
 Zr1473 Zr 0.26789 0.74177 0.47795
 O1474 O 0.25385 0.72628 0.49207
 Zr1475 Zr 0.24209 0.77195 0.48223
 O1476 O 0.22658 0.75756 0.49608
 Zr1477 Zr 0.27204 0.76750 0.50839
 O1478 O 0.25771 0.75343 0.52371
 Zr1479 Zr 0.22978 0.73323 0.49018
 O1480 O 0.24362 0.74780 0.47459
 Zr1481 Zr 0.25951 0.72932 0.51655
 O1482 O 0.27527 0.74317 0.50221
 Zr1483 Zr 0.23345 0.75926 0.52037
 O1484 O 0.24801 0.77503 0.50672
 O1485 O 0.26591 0.76567 0.48434
 O1486 O 0.23538 0.73507 0.51453
 C1487 C 0.29923 0.76138 0.48340
 C1488 C 0.26171 0.76682 0.45072
 C1489 C 0.26711 0.79904 0.48885
 C1490 C 0.20242 0.73897 0.51472
 C1491 C 0.23502 0.70199 0.51024
 C1492 C 0.23931 0.73463 0.54778
 H1493 H 0.25557 0.71508 0.48857
 H1494 H 0.26112 0.75501 0.53501
 H1495 H 0.27275 0.77251 0.47753
 H1496 H 0.21535 0.76088 0.49438
 H1497 H 0.21485 0.74247 0.46463
 H1498 H 0.21452 0.76938 0.46821
 H1499 H 0.27756 0.73495 0.54145
 H1500 H 0.29523 0.75336 0.52315
 H1501 H 0.23607 0.70831 0.47217
 H1502 H 0.25388 0.72700 0.45459
 H1503 H 0.24586 0.77561 0.54374
 H1504 H 0.26415 0.79035 0.52776
 H1505 H 0.29078 0.72257 0.48576
 H1506 H 0.27609 0.70636 0.50385
 H1507 H 0.22817 0.79554 0.49685
 H1508 H 0.20882 0.77741 0.51450
 O1509 O 0.23191 0.24814 1.04627
 O1510 O 0.23398 0.27630 1.04219
 O1511 O 0.20593 0.23337 1.00376
 O1512 O 0.20921 0.23405 0.97723
 O1513 O 0.24762 0.20667 1.01966
 O1514 O 0.27568 0.21123 1.01769
 O1515 O 0.25155 0.27552 0.96274
 O1516 O 0.22300 0.27288 0.96725
 O1517 O 0.27409 0.29052 1.00116
 O1518 O 0.27206 0.28411 1.03144
 O1519 O 0.28954 0.25236 0.97847
 O1520 O 0.28321 0.22248 0.97944
 O1521 O 0.26818 0.25413 0.95954
 O1522 O 0.26461 0.22435 0.96323
 O1523 O 0.29268 0.26897 1.00000
 O1524 O 0.28839 0.26551 1.02969
 O1525 O 0.25290 0.29394 0.98432
 O1526 O 0.22335 0.29004 0.98832
 O1527 O 0.24921 0.22718 1.04365
 O1528 O 0.27750 0.22811 1.03662
 O1529 O 0.22675 0.20942 1.00225
 O1530 O 0.22890 0.21733 0.97329
 O1531 O 0.20834 0.25027 1.02519
 O1532 O 0.21574 0.27867 1.02488
 Zr1533 Zr 0.23192 0.25921 1.02348
 O1534 O 0.24637 0.27485 1.00980
 Zr1535 Zr 0.22879 0.23305 0.99335
 O1536 O 0.24270 0.24770 0.97809
 Zr1537 Zr 0.25830 0.22950 1.02009
 O1538 O 0.27379 0.24358 1.00592
 Zr1539 Zr 0.24083 0.27181 0.98530
 O1540 O 0.22508 0.25746 0.99910
 Zr1541 Zr 0.27046 0.26788 1.01184
 O1542 O 0.25623 0.25363 1.02731
 Zr1543 Zr 0.26692 0.24184 0.98160
 O1544 O 0.25286 0.22601 0.99557
 O1545 O 0.23421 0.23508 1.01767
 O1546 O 0.26477 0.26587 0.98765
 C1547 C 0.23909 0.23560 1.05173
 C1548 C 0.20035 0.24039 1.01636
 C1549 C 0.23520 0.20126 1.01230
 C1550 C 0.26224 0.26760 0.95494
 C1551 C 0.26631 0.29842 0.99040
 C1552 C 0.29733 0.26297 0.98652
 H1553 H 0.24479 0.28605 1.01336
 H1554 H 0.28499 0.24017 1.00758
 H1555 H 0.22729 0.22820 1.02442
 H1556 H 0.23939 0.24639 0.96673
 H1557 H 0.21320 0.26815 0.97197
 H1558 H 0.21220 0.24149 0.96846
 H1559 H 0.29478 0.25587 1.02706
 H1560 H 0.27732 0.23819 1.04295
 H1561 H 0.22654 0.29681 0.99757
 H1562 H 0.20958 0.27866 1.01469
 H1563 H 0.29187 0.22411 0.98740
 H1564 H 0.27517 0.20760 1.00635
 H1565 H 0.24528 0.27600 1.04575
 H1566 H 0.26496 0.29333 1.02917
 H1567 H 0.23822 0.21012 0.97458
 H1568 H 0.25533 0.22735 0.95647
 C1569 C 0.29152 0.39717 0.79300
 C1570 C 0.28171 0.38639 0.80147
 C1571 C 0.28869 0.37317 0.80922
 C1572 C 0.30536 0.37071 0.80852
 C1573 C 0.31502 0.38185 0.80023
 C1574 C 0.30817 0.39506 0.79240
 C1575 C 0.28422 0.41090 0.78455
 C1576 C 0.29405 0.42164 0.77607
 C1577 C 0.28708 0.43477 0.76820
 C1578 C 0.27043 0.43734 0.76900
 C1579 C 0.26075 0.42639 0.77749
 C1580 C 0.26758 0.41310 0.78524
 C1581 C 0.31762 0.40614 0.78391
 C1582 C 0.31068 0.41922 0.77588
 C1583 C 0.26510 0.38899 0.80187
 C1584 C 0.25816 0.40213 0.79392
 H1585 H 0.33049 0.40467 0.78343
 H1586 H 0.31839 0.42752 0.76950
 H1587 H 0.25740 0.38078 0.80839
 H1588 H 0.24532 0.40374 0.79460
 H1589 H 0.28115 0.36461 0.81547
 H1590 H 0.32788 0.38023 0.79989
 H1591 H 0.29468 0.44333 0.76202
 H1592 H 0.24795 0.42837 0.77830
 C1593 C 0.29737 -0.10045 0.29431
 C1594 C 0.28846 -0.11125 0.30362
 C1595 C 0.29640 -0.12347 0.31203
 C1596 C 0.31327 -0.12518 0.31115
 C1597 C 0.32195 -0.11392 0.30180
 C1598 C 0.31409 -0.10160 0.29343
 C1599 C 0.28903 -0.08767 0.28532
 C1600 C 0.29798 -0.07676 0.27613
 C1601 C 0.29005 -0.06441 0.26793
 C1602 C 0.27330 -0.06271 0.26910
 C1603 C 0.26447 -0.07390 0.27820
 C1604 C 0.27229 -0.08647 0.28627
 C1605 C 0.32264 -0.09039 0.28416
 C1606 C 0.31472 -0.07821 0.27563
 C1607 C 0.27171 -0.10975 0.30419
 C1608 C 0.26376 -0.09757 0.29566
 H1609 H 0.33557 -0.09106 0.28343
 H1610 H 0.32174 -0.06986 0.26859
 H1611 H 0.26468 -0.11804 0.31133
 H1612 H 0.25086 -0.09676 0.29655
 H1613 H 0.28920 -0.13211 0.31853
 H1614 H 0.33489 -0.11433 0.30134
 H1615 H 0.29701 -0.05570 0.26123
 H1616 H 0.25162 -0.07260 0.27931
 C1617 C 0.78822 0.89402 0.78739
 C1618 C 0.78457 0.88934 0.80317
 C1619 C 0.79120 0.87519 0.80933
 C1620 C 0.80132 0.86535 0.79981
 C1621 C 0.80487 0.87048 0.78392
 C1622 C 0.79842 0.88476 0.77773
 C1623 C 0.78127 0.90894 0.78090
 C1624 C 0.78510 0.91378 0.76517
 C1625 C 0.77866 0.92813 0.75916
 C1626 C 0.76836 0.93754 0.76875
 C1627 C 0.76454 0.93237 0.78445
 C1628 C 0.77104 0.91816 0.79061
 C1629 C 0.80191 0.88994 0.76200
 C1630 C 0.79541 0.90423 0.75585
 C1631 C 0.77439 0.89896 0.81258
 C1632 C 0.76770 0.91311 0.80638
 H1633 H 0.80978 0.88292 0.75439
 H1634 H 0.79849 0.90783 0.74370
 H1635 H 0.77152 0.89550 0.82482
 H1636 H 0.75990 0.92017 0.81402
 H1637 H 0.78883 0.87234 0.82181
 H1638 H 0.81209 0.86316 0.77598
 H1639 H 0.78177 0.93203 0.74710
 H1640 H 0.75686 0.93961 0.79206
 C1641 C 0.45112 0.84852 0.29499
 C1642 C 0.46024 0.86048 0.30258
 C1643 C 0.45241 0.87260 0.31126
 C1644 C 0.43557 0.87275 0.31249
 C1645 C 0.42666 0.86037 0.30513
 C1646 C 0.43436 0.84831 0.29627
 C1647 C 0.45926 0.83604 0.28544
 C1648 C 0.45012 0.82421 0.27768
 C1649 C 0.45791 0.81222 0.26883
 C1650 C 0.47476 0.81176 0.26805
 C1651 C 0.48375 0.82381 0.27578
 C1652 C 0.47604 0.83608 0.28438
 C1653 C 0.42563 0.83618 0.28844
 C1654 C 0.43338 0.82440 0.27921
 C1655 C 0.47699 0.86021 0.30116
 C1656 C 0.48477 0.84817 0.29227
 H1657 H 0.41270 0.83586 0.28932
 H1658 H 0.42621 0.81539 0.27321
 H1659 H 0.48416 0.86936 0.30700
 H1660 H 0.49771 0.84833 0.29160
 H1661 H 0.45941 0.88215 0.31664
 H1662 H 0.41374 0.86020 0.30620
 H1663 H 0.45088 0.80281 0.26322
 H1664 H 0.49671 0.82344 0.27536
 C1665 C -0.03760 0.85994 0.78447
 C1666 C -0.02741 0.87024 0.79303
 C1667 C -0.03346 0.88477 0.79908
 C1668 C -0.04976 0.88906 0.79694
 C1669 C -0.05969 0.87833 0.78818
 C1670 C -0.05369 0.86391 0.78192
 C1671 C -0.03134 0.84459 0.77822
 C1672 C -0.04159 0.83429 0.76967
 C1673 C -0.03566 0.81968 0.76385
 C1674 C -0.01966 0.81517 0.76673
 C1675 C -0.00954 0.82561 0.77539
 C1676 C -0.01531 0.84041 0.78107
 C1677 C -0.06359 0.85326 0.77336
 C1678 C -0.05763 0.83872 0.76729
 C1679 C -0.01136 0.86576 0.79546
 C1680 C -0.00544 0.85108 0.78964
 H1681 H -0.07606 0.85617 0.77133
 H1682 H -0.06567 0.83084 0.76077
 H1683 H -0.00335 0.87361 0.80204
 H1684 H 0.00696 0.84803 0.79191
 H1685 H -0.02519 0.89281 0.80505
 H1686 H -0.07236 0.88059 0.78681
 H1687 H -0.04364 0.81164 0.75743
 H1688 H 0.00278 0.82224 0.77769
 C1689 C -0.03521 -0.11039 -0.03649
 C1690 C -0.03363 -0.11402 -0.05291
 C1691 C -0.03995 -0.12843 -0.05882
 C1692 C -0.04750 -0.13945 -0.04841
 C1693 C -0.04889 -0.13563 -0.03189
 C1694 C -0.04289 -0.12103 -0.02591
 C1695 C -0.02885 -0.09506 -0.03029
 C1696 C -0.03087 -0.09113 -0.01396
 C1697 C -0.02522 -0.07627 -0.00828
 C1698 C -0.01734 -0.06559 -0.01878
 C1699 C -0.01516 -0.06992 -0.03504
 C1700 C -0.02105 -0.08453 -0.04089
 C1701 C -0.04447 -0.11681 -0.00958
 C1702 C -0.03864 -0.10208 -0.00373
 C1703 C -0.02582 -0.10313 -0.06315
 C1704 C -0.01955 -0.08868 -0.05722
 H1705 H -0.05037 -0.12490 -0.00128
 H1706 H -0.04025 -0.09923 0.00890
 H1707 H -0.02451 -0.10581 -0.07586
 H1708 H -0.01359 -0.08063 -0.06550
 H1709 H -0.03915 -0.13092 -0.07161
 H1710 H -0.05449 -0.14402 -0.02369
 H1711 H -0.02696 -0.07300 0.00424
 H1712 H -0.00935 -0.06168 -0.04328
 C1713 C -0.03663 0.39106 0.46381
 C1714 C -0.05174 0.38579 0.46883
 C1715 C -0.05807 0.37161 0.46235
 C1716 C -0.04939 0.36234 0.45097
 C1717 C -0.03402 0.36792 0.44632
 C1718 C -0.02771 0.38226 0.45257
 C1719 C -0.03013 0.40622 0.47029
 C1720 C -0.01516 0.41173 0.46498
 C1721 C -0.00926 0.42639 0.47084
 C1722 C -0.01820 0.43547 0.48202
 C1723 C -0.03307 0.42956 0.48741
 C1724 C -0.03913 0.41502 0.48150
 C1725 C -0.01264 0.38802 0.44773
 C1726 C -0.00651 0.40254 0.45377
 C1727 C -0.06038 0.39492 0.48010
 C1728 C -0.05413 0.40924 0.48640
 H1729 H -0.00559 0.38134 0.43907
 H1730 H 0.00507 0.40662 0.44959
 H1731 H -0.07207 0.39097 0.48409
 H1732 H -0.06115 0.41587 0.49511
 H1733 H -0.07014 0.36841 0.46575
 H1734 H -0.02661 0.36101 0.43820
 H1735 H 0.00219 0.43079 0.46659
 H1736 H -0.04015 0.43645 0.49588
 C1737 C 0.45534 -0.10135 0.45543
 C1738 C 0.46422 -0.11191 0.44579
 C1739 C 0.45628 -0.12418 0.43741
 C1740 C 0.43945 -0.12611 0.43856
 C1741 C 0.43081 -0.11505 0.44819
 C1742 C 0.43866 -0.10276 0.45662
 C1743 C 0.46366 -0.08853 0.46439
 C1744 C 0.45473 -0.07789 0.47391
 C1745 C 0.46260 -0.06543 0.48201
 C1746 C 0.47926 -0.06331 0.48036
 C1747 C 0.48809 -0.07428 0.47099
 C1748 C 0.48034 -0.08698 0.46304
 C1749 C 0.43013 -0.09184 0.46626
 C1750 C 0.43804 -0.07966 0.47480
 C1751 C 0.48092 -0.11011 0.44488
 C1752 C 0.48885 -0.09785 0.45334
 H1753 H 0.41723 -0.09274 0.46725
 H1754 H 0.43105 -0.07154 0.48214
 H1755 H 0.48793 -0.11820 0.43750
 H1756 H 0.50171 -0.09678 0.45215
 H1757 H 0.46348 -0.13264 0.43069
 H1758 H 0.41789 -0.11556 0.44885
 H1759 H 0.45561 -0.05691 0.48893
 H1760 H 0.50088 -0.07267 0.46953
 C1761 C 0.45456 0.39952 -0.04495
 C1762 C 0.44502 0.38925 -0.03566
 C1763 C 0.43699 0.37651 -0.04318
 C1764 C 0.43843 0.37379 -0.05999
 C1765 C 0.44789 0.38461 -0.06908
 C1766 C 0.45595 0.39741 -0.06165
 C1767 C 0.46335 0.41269 -0.03701
 C1768 C 0.47290 0.42297 -0.04632
 C1769 C 0.48117 0.43549 -0.03874
 C1770 C 0.47973 0.43797 -0.02199
 C1771 C 0.47010 0.42754 -0.01282
 C1772 C 0.46195 0.41481 -0.02027
 C1773 C 0.46544 0.40810 -0.07060
 C1774 C 0.47377 0.42067 -0.06307
 C1775 C 0.44392 0.39174 -0.01894
 C1776 C 0.45223 0.40430 -0.01138
 H1777 H 0.46652 0.40670 -0.08353
 H1778 H 0.48097 0.42865 -0.07041
 H1779 H 0.43658 0.38388 -0.01163
 H1780 H 0.45100 0.40583 0.00152
 H1781 H 0.43038 0.36827 -0.03561
 H1782 H 0.44874 0.38347 -0.08204
 H1783 H 0.48822 0.44368 -0.04599
 H1784 H 0.46876 0.42949 0.00002
 C1785 C 0.79008 0.35868 0.46291
 C1786 C 0.80626 0.36216 0.46569
 C1787 C 0.81344 0.37490 0.45741
 C1788 C 0.80445 0.38463 0.44681
 C1789 C 0.78811 0.38102 0.44434
 C1790 C 0.78095 0.36791 0.45216
 C1791 C 0.78264 0.34494 0.47123
 C1792 C 0.76666 0.34096 0.46789
 C1793 C 0.75994 0.32732 0.47516
 C1794 C 0.76908 0.31778 0.48577
 C1795 C 0.78488 0.32240 0.48948
 C1796 C 0.79178 0.33583 0.48207
 C1797 C 0.76487 0.36377 0.44940
 C1798 C 0.75789 0.35045 0.45704
 C1799 C 0.81500 0.35282 0.47669
 C1800 C 0.80781 0.33998 0.48487
 H1801 H 0.75768 0.37077 0.44111
 H1802 H 0.74554 0.34752 0.45436
 H1803 H 0.82748 0.35547 0.47903
 H1804 H 0.81491 0.33316 0.49333
 H1805 H 0.82610 0.37706 0.45914
 H1806 H 0.78089 0.38844 0.43647
 H1807 H 0.74779 0.32387 0.47218
 H1808 H 0.79213 0.31508 0.49744
 C1809 C 0.78825 0.86021 -0.03470
 C1810 C 0.77837 0.86984 -0.04431
 C1811 C 0.78450 0.88409 -0.05086
 C1812 C 0.80058 0.88883 -0.04810
 C1813 C 0.81025 0.87875 -0.03834
 C1814 C 0.80415 0.86457 -0.03162
 C1815 C 0.78190 0.84512 -0.02792
 C1816 C 0.79187 0.83540 -0.01844
 C1817 C 0.78592 0.82085 -0.01241
 C1818 C 0.77020 0.81587 -0.01603
 C1819 C 0.76029 0.82593 -0.02537
 C1820 C 0.76608 0.84057 -0.03133
 C1821 C 0.81376 0.85455 -0.02202
 C1822 C 0.80771 0.84023 -0.01551
 C1823 C 0.76250 0.86502 -0.04723
 C1824 C 0.75649 0.85060 -0.04090
 H1825 H 0.82608 0.85777 -0.01955
 H1826 H 0.81555 0.83280 -0.00826
 H1827 H 0.75472 0.87236 -0.05461
 H1828 H 0.74425 0.84724 -0.04361
 H1829 H 0.77641 0.89166 -0.05763
 H1830 H 0.82278 0.88139 -0.03643
 H1831 H 0.79374 0.81315 -0.00541
 H1832 H 0.74819 0.82224 -0.02826
 C1833 C 0.79310 0.29647 0.39843
 C1834 C 0.80083 0.28678 0.38700
 C1835 C 0.80889 0.29408 0.37411
 C1836 C 0.80951 0.31096 0.37275
 C1837 C 0.80188 0.32045 0.38455
 C1838 C 0.79354 0.31328 0.39730
 C1839 C 0.78450 0.28887 0.41194
 C1840 C 0.77670 0.29859 0.42330
 C1841 C 0.76880 0.29135 0.43626
 C1842 C 0.76907 0.27454 0.43821
 C1843 C 0.77691 0.26494 0.42670
 C1844 C 0.78453 0.27206 0.41342
 C1845 C 0.78565 0.32260 0.40897
 C1846 C 0.77731 0.31538 0.42172
 C1847 C 0.80035 0.26999 0.38870
 C1848 C 0.79243 0.26276 0.40174
 H1849 H 0.78591 0.33559 0.40824
 H1850 H 0.77143 0.32300 0.43049
 H1851 H 0.80627 0.26238 0.37996
 H1852 H 0.79252 0.24979 0.40271
 H1853 H 0.81447 0.28659 0.36503
 H1854 H 0.80250 0.33343 0.38389
 H1855 H 0.76313 0.29886 0.44528
 H1856 H 0.77727 0.25201 0.42822
 C1857 C 0.78405 0.78883 -0.11074
 C1858 C 0.78369 0.80542 -0.11363
 C1859 C 0.79072 0.81146 -0.12768
 C1860 C 0.79785 0.80105 -0.13901
 C1861 C 0.79796 0.78439 -0.13596
 C1862 C 0.79120 0.77824 -0.12176
 C1863 C 0.77708 0.78248 -0.09573
 C1864 C 0.77799 0.76596 -0.09251
 C1865 C 0.77202 0.76009 -0.07786
 C1866 C 0.76503 0.77063 -0.06659
 C1867 C 0.76379 0.78709 -0.07025
 C1868 C 0.76999 0.79311 -0.08471
 C1869 C 0.79158 0.76173 -0.11828
 C1870 C 0.78516 0.75571 -0.10386
 C1871 C 0.77646 0.81568 -0.10234
 C1872 C 0.76966 0.80962 -0.08814
 H1873 H 0.79705 0.75342 -0.12667
 H1874 H 0.78590 0.74293 -0.10154
 H1875 H 0.77610 0.82851 -0.10446
 H1876 H 0.76429 0.81795 -0.07969
 H1877 H 0.79088 0.82433 -0.12961
 H1878 H 0.80323 0.77622 -0.14462
 H1879 H 0.77304 0.74741 -0.07511
 H1880 H 0.75869 0.79533 -0.06153
 C1881 C 0.29569 0.45258 0.84948
 C1882 C 0.30399 0.46176 0.86093
 C1883 C 0.31212 0.45393 0.87344
 C1884 C 0.31220 0.43701 0.87446
 C1885 C 0.30408 0.42800 0.86260
 C1886 C 0.29570 0.43573 0.85017
 C1887 C 0.28669 0.46078 0.83661
 C1888 C 0.27813 0.45160 0.82534
 C1889 C 0.26954 0.45945 0.81318
 C1890 C 0.26977 0.47634 0.81199
 C1891 C 0.27849 0.48537 0.82334
 C1892 C 0.28686 0.47764 0.83578
 C1893 C 0.28721 0.42695 0.83849
 C1894 C 0.27852 0.43476 0.82633
 C1895 C 0.30387 0.47859 0.85974
 C1896 C 0.29552 0.48639 0.84733
 H1897 H 0.28717 0.41394 0.83883
 H1898 H 0.27205 0.42755 0.81763
 H1899 H 0.31029 0.48580 0.86848
 H1900 H 0.29580 0.49939 0.84681
 H1901 H 0.31805 0.46106 0.88259
 H1902 H 0.30425 0.41500 0.86305
 H1903 H 0.26320 0.45236 0.80427
 H1904 H 0.27888 0.49834 0.82239
 C1905 C 0.29665 -0.04698 0.34971
 C1906 C 0.30435 -0.03766 0.36148
 C1907 C 0.31302 -0.04536 0.37372
 C1908 C 0.31407 -0.06226 0.37419
 C1909 C 0.30664 -0.07137 0.36198
 C1910 C 0.29782 -0.06381 0.34980
 C1911 C 0.28710 -0.03899 0.33711
 C1912 C 0.27929 -0.04835 0.32546
 C1913 C 0.27044 -0.04073 0.31337
 C1914 C 0.26971 -0.02384 0.31258
 C1915 C 0.27755 -0.01460 0.32440
 C1916 C 0.28613 -0.02214 0.33683
 C1917 C 0.28994 -0.07275 0.33783
 C1918 C 0.28077 -0.06514 0.32593
 C1919 C 0.30302 -0.02084 0.36089
 C1920 C 0.29413 -0.01321 0.34874
 H1921 H 0.29076 -0.08573 0.33773
 H1922 H 0.27477 -0.07246 0.31702
 H1923 H 0.30894 -0.01351 0.36989
 H1924 H 0.29354 -0.00022 0.34865
 H1925 H 0.31852 -0.03822 0.38313
 H1926 H 0.30760 -0.08435 0.36204
 H1927 H 0.26476 -0.04795 0.30413
 H1928 H 0.27719 -0.00160 0.32375
 C1929 C -0.03563 -0.03631 -0.11057
 C1930 C -0.04656 -0.02715 -0.11945
 C1931 C -0.05315 -0.03357 -0.13362
 C1932 C -0.04932 -0.04935 -0.13887
 C1933 C -0.03829 -0.05830 -0.12945
 C1934 C -0.03132 -0.05179 -0.11554
 C1935 C -0.02873 -0.02966 -0.09561
 C1936 C -0.01775 -0.03886 -0.08677
 C1937 C -0.01159 -0.03273 -0.07233
 C1938 C -0.01661 -0.01765 -0.06648
 C1939 C -0.02745 -0.00845 -0.07566
 C1940 C -0.03349 -0.01439 -0.09029
 C1941 C -0.02023 -0.06061 -0.10639
 C1942 C -0.01345 -0.05419 -0.09233
 C1943 C -0.05075 -0.01174 -0.11395
 C1944 C -0.04442 -0.00551 -0.09956
 H1945 H -0.01674 -0.07257 -0.11012
 H1946 H -0.00489 -0.06134 -0.08568
 H1947 H -0.05918 -0.00451 -0.12071
 H1948 H -0.04817 0.00631 -0.09564
 H1949 H -0.06087 -0.02587 -0.14065
 H1950 H -0.03546 -0.07063 -0.13233
 H1951 H -0.00338 -0.04002 -0.06536
 H1952 H -0.03140 0.00316 -0.07130
 C1953 C -0.04511 0.45591 0.39863
 C1954 C -0.06145 0.45862 0.39595
 C1955 C -0.06920 0.45055 0.38332
 C1956 C -0.06075 0.43984 0.37310
 C1957 C -0.04423 0.43737 0.37620
 C1958 C -0.03645 0.44526 0.38891
 C1959 C -0.03694 0.46432 0.41195
 C1960 C -0.02064 0.46136 0.41485
 C1961 C -0.01306 0.46899 0.42787
 C1962 C -0.02165 0.47963 0.43783
 C1963 C -0.03791 0.48271 0.43448
 C1964 C -0.04564 0.47497 0.42168
 C1965 C -0.02010 0.44276 0.39205
 C1966 C -0.01235 0.45061 0.40484
 C1967 C -0.06979 0.46931 0.40602
 C1968 C -0.06200 0.47738 0.41863
 H1969 H -0.01325 0.43456 0.38462
 H1970 H 0.00022 0.44820 0.40693
 H1971 H -0.08243 0.47148 0.40413
 H1972 H -0.06886 0.48552 0.42610
 H1973 H -0.08195 0.45231 0.38197
 H1974 H -0.03706 0.42986 0.36839
 H1975 H -0.00059 0.46645 0.43040
 H1976 H -0.04475 0.49064 0.44222
 C1977 C 0.45320 -0.04825 0.39994
 C1978 C 0.44529 -0.03903 0.38824
 C1979 C 0.43658 -0.04684 0.37611
 C1980 C 0.43562 -0.06375 0.37568
 C1981 C 0.44323 -0.07275 0.38785
 C1982 C 0.45216 -0.06508 0.39990
 C1983 C 0.46290 -0.04013 0.41235
 C1984 C 0.47105 -0.04938 0.42384
 C1985 C 0.48018 -0.04164 0.43567
 C1986 C 0.48086 -0.02474 0.43633
 C1987 C 0.47265 -0.01562 0.42468
 C1988 C 0.46377 -0.02328 0.41254
 C1989 C 0.46031 -0.07391 0.41176
 C1990 C 0.46966 -0.06618 0.42346
 C1991 C 0.44649 -0.02220 0.38877
 C1992 C 0.45551 -0.01446 0.40076
 H1993 H 0.45959 -0.08690 0.41190
 H1994 H 0.47588 -0.07342 0.43226
 H1995 H 0.44040 -0.01495 0.37984
 H1996 H 0.45604 -0.00146 0.40079
 H1997 H 0.43097 -0.03975 0.36673
 H1998 H 0.44235 -0.08574 0.38786
 H1999 H 0.48614 -0.04875 0.44481
 H2000 H 0.47297 -0.00262 0.42523
 C2001 C 0.45813 0.45600 -0.10418
 C2002 C 0.44143 0.45597 -0.10601
 C2003 C 0.43469 0.44903 -0.11982
 C2004 C 0.44452 0.44246 -0.13195
 C2005 C 0.46126 0.44235 -0.12973
 C2006 C 0.46812 0.44904 -0.11583
 C2007 C 0.46531 0.46374 -0.08993
 C2008 C 0.48202 0.46374 -0.08803
 C2009 C 0.48877 0.47121 -0.07446
 C2010 C 0.47892 0.47897 -0.06313
 C2011 C 0.46219 0.47887 -0.06528
 C2012 C 0.45532 0.47115 -0.07857
 C2013 C 0.48477 0.44917 -0.11348
 C2014 C 0.49160 0.45631 -0.09976
 C2015 C 0.43181 0.46313 -0.09414
 C2016 C 0.43865 0.47066 -0.08068
 H2017 H 0.49261 0.44377 -0.12235
 H2018 H 0.50450 0.45617 -0.09843
 H2019 H 0.41890 0.46312 -0.09538
 H2020 H 0.43084 0.47623 -0.07191
 H2021 H 0.42179 0.44888 -0.12118
 H2022 H 0.46899 0.43751 -0.13901
 H2023 H 0.50164 0.47109 -0.07277
 H2024 H 0.45448 0.48445 -0.05640
 C2025 C 0.45546 0.79699 0.34942
 C2026 C 0.44820 0.78754 0.36133
 C2027 C 0.43980 0.79508 0.37385
 C2028 C 0.43861 0.81196 0.37447
 C2029 C 0.44564 0.82122 0.36215
 C2030 C 0.45414 0.81380 0.34964
 C2031 C 0.46470 0.78915 0.33650
 C2032 C 0.47206 0.79862 0.32466
 C2033 C 0.48064 0.79112 0.31229
 C2034 C 0.48158 0.77423 0.31146
 C2035 C 0.47420 0.76490 0.32349
 C2036 C 0.46585 0.77231 0.33613
 C2037 C 0.46155 0.82287 0.33748
 C2038 C 0.47041 0.81540 0.32524
 C2039 C 0.44966 0.77074 0.36061
 C2040 C 0.45828 0.76325 0.34819
 H2041 H 0.46058 0.83585 0.33748
 H2042 H 0.47603 0.82282 0.31618
 H2043 H 0.44407 0.76331 0.36973
 H2044 H 0.45902 0.75027 0.34802
 H2045 H 0.43461 0.78784 0.38334
 H2046 H 0.44457 0.83419 0.36236
 H2047 H 0.48595 0.79841 0.30290
 H2048 H 0.47471 0.75191 0.32282
 C2049 C -0.03354 0.78588 0.85941
 C2050 C -0.03018 0.80163 0.86427
 C2051 C -0.03622 0.80724 0.87897
 C2052 C -0.04560 0.79723 0.88909
 C2053 C -0.04852 0.78125 0.88392
 C2054 C -0.04267 0.77562 0.86912
 C2055 C -0.02758 0.78010 0.84371
 C2056 C -0.03126 0.76444 0.83867
 C2057 C -0.02594 0.75915 0.82355
 C2058 C -0.01688 0.76938 0.81356
 C2059 C -0.01309 0.78498 0.81895
 C2060 C -0.01852 0.79044 0.83396
 C2061 C -0.04590 0.75993 0.86377
 C2062 C -0.04035 0.75446 0.84878
 C2063 C -0.02106 0.81163 0.85417
 C2064 C -0.01529 0.80611 0.83930
 H2065 H -0.05292 0.75185 0.87116
 H2066 H -0.04325 0.74233 0.84504
 H2067 H -0.01840 0.82385 0.85778
 H2068 H -0.00836 0.81422 0.83186
 H2069 H -0.03421 0.81972 0.88194
 H2070 H -0.05498 0.77289 0.89147
 H2071 H -0.02893 0.74713 0.81954
 H2072 H -0.00631 0.79303 0.81129
 C2073 C 0.40118 0.79509 0.29689
 C2074 C 0.40137 0.79689 0.31371
 C2075 C 0.38922 0.80578 0.32120
 C2076 C 0.37683 0.81272 0.31201
 C2077 C 0.37703 0.81102 0.29511
 C2078 C 0.38918 0.80224 0.28749
 C2079 C 0.41375 0.78548 0.28897
 C2080 C 0.41371 0.78391 0.27212
 C2081 C 0.42610 0.77535 0.26459
 C2082 C 0.43829 0.76820 0.27385
 C2083 C 0.43782 0.76948 0.29078
 C2084 C 0.42570 0.77829 0.29839
 C2085 C 0.38946 0.80029 0.27067
 C2086 C 0.40155 0.79133 0.26311
 C2087 C 0.41361 0.78958 0.32272
 C2088 C 0.42552 0.78038 0.31518
 H2089 H 0.38028 0.80577 0.26328
 H2090 H 0.40141 0.79025 0.25011
 H2091 H 0.41393 0.79089 0.33570
 H2092 H 0.43465 0.77487 0.32257
 H2093 H 0.38933 0.80720 0.33418
 H2094 H 0.36747 0.81612 0.28791
 H2095 H 0.42649 0.77458 0.25156
 H2096 H 0.44734 0.76434 0.29800
 C2097 C -0.10719 0.78943 0.78834
 C2098 C -0.11816 0.79683 0.77792
 C2099 C -0.13234 0.80322 0.78425
 C2100 C -0.13548 0.80256 0.80094
 C2101 C -0.12420 0.79521 0.81121
 C2102 C -0.11011 0.78852 0.80496
 C2103 C -0.09231 0.78257 0.78172
 C2104 C -0.08143 0.77500 0.79212
 C2105 C -0.06729 0.76853 0.78579
 C2106 C -0.06385 0.76989 0.76922
 C2107 C -0.07486 0.77760 0.75897
 C2108 C -0.08919 0.78384 0.76514
 C2109 C -0.09887 0.78095 0.81501
 C2110 C -0.08480 0.77425 0.80869
 C2111 C -0.11471 0.79771 0.76137
 C2112 C -0.10043 0.79140 0.75511
 H2113 H -0.10098 0.78017 0.82786
 H2114 H -0.07645 0.76852 0.81685
 H2115 H -0.12308 0.80341 0.75321
 H2116 H -0.09819 0.79244 0.74230
 H2117 H -0.14100 0.80856 0.77614
 H2118 H -0.12626 0.79486 0.82409
 H2119 H -0.05875 0.76287 0.79381
 H2120 H -0.07227 0.77872 0.74622
 C2121 C 0.85999 0.28680 0.46724
 C2122 C 0.86925 0.27713 0.45703
 C2123 C 0.88339 0.28340 0.45043
 C2124 C 0.88797 0.29946 0.45346
 C2125 C 0.87840 0.30893 0.46375
 C2126 C 0.86459 0.30260 0.47085
 C2127 C 0.84495 0.28042 0.47396
 C2128 C 0.83577 0.29012 0.48422
 C2129 C 0.82119 0.28430 0.49007
 C2130 C 0.81553 0.26905 0.48540
 C2131 C 0.82505 0.25932 0.47534
 C2132 C 0.83985 0.26493 0.46966
 C2133 C 0.85517 0.31186 0.48133
 C2134 C 0.84110 0.30564 0.48806
 C2135 C 0.86403 0.26149 0.45340
 C2136 C 0.84951 0.25554 0.45950
 H2137 H 0.85869 0.32402 0.48435
 H2138 H 0.83425 0.31311 0.49619
 H2139 H 0.87107 0.25389 0.44553
 H2140 H 0.84577 0.24354 0.45615
 H2141 H 0.89071 0.27577 0.44287
 H2142 H 0.88138 0.32139 0.46597
 H2143 H 0.81394 0.29197 0.49769
 H2144 H 0.82083 0.24754 0.47173
 C2145 C 0.86006 0.78450 -0.03893
 C2146 C 0.86321 0.78407 -0.05552
 C2147 C 0.87752 0.79067 -0.06133
 C2148 C 0.88880 0.79745 -0.05066
 C2149 C 0.88545 0.79763 -0.03400
 C2150 C 0.87104 0.79131 -0.02810
 C2151 C 0.84488 0.77784 -0.03279
 C2152 C 0.84150 0.77871 -0.01625
 C2153 C 0.82679 0.77289 -0.01056
 C2154 C 0.81563 0.76606 -0.02129
 C2155 C 0.81941 0.76495 -0.03779
 C2156 C 0.83393 0.77099 -0.04364
 C2157 C 0.86735 0.79172 -0.01158
 C2158 C 0.85280 0.78560 -0.00577
 C2159 C 0.85195 0.77713 -0.06600
 C2160 C 0.83758 0.77065 -0.06015
 H2161 H 0.87572 0.79694 -0.00310
 H2162 H 0.85035 0.78632 0.00702
 H2163 H 0.85425 0.77672 -0.07884
 H2164 H 0.82920 0.76545 -0.06865
 H2165 H 0.87974 0.79072 -0.07419
 H2166 H 0.89408 0.80257 -0.02561
 H2167 H 0.82397 0.77381 0.00215
 H2168 H 0.81079 0.75995 -0.04618
 C2169 C -0.11045 -0.03342 -0.03576
 C2170 C -0.11489 -0.03030 -0.05173
 C2171 C -0.12929 -0.03656 -0.05767
 C2172 C -0.13954 -0.04592 -0.04779
 C2173 C -0.13484 -0.04854 -0.03157
 C2174 C -0.12032 -0.04249 -0.02560
 C2175 C -0.09501 -0.02734 -0.02966
 C2176 C -0.09030 -0.03090 -0.01382
 C2177 C -0.07530 -0.02561 -0.00830
 C2178 C -0.06516 -0.01670 -0.01849
 C2179 C -0.07028 -0.01296 -0.03423
 C2180 C -0.08510 -0.01839 -0.03992
 C2181 C -0.11537 -0.04550 -0.00969
 C2182 C -0.10059 -0.03987 -0.00392
 C2183 C -0.10466 -0.02123 -0.06162
 C2184 C -0.09004 -0.01533 -0.05580
 H2185 H -0.12289 -0.05247 -0.00168
 H2186 H -0.09714 -0.04266 0.00835
 H2187 H -0.10795 -0.01874 -0.07399
 H2188 H -0.08247 -0.00847 -0.06385
 H2189 H -0.13188 -0.03476 -0.07030
 H2190 H -0.14253 -0.05494 -0.02330
 H2191 H -0.07147 -0.02854 0.00383
 H2192 H -0.06250 -0.00630 -0.04227
 C2193 C -0.10463 0.46033 0.45952
 C2194 C -0.10949 0.44491 0.46414
 C2195 C -0.12279 0.43791 0.45666
 C2196 C -0.13164 0.44625 0.44471
 C2197 C -0.12639 0.46186 0.44032
 C2198 C -0.11291 0.46884 0.44758
 C2199 C -0.09050 0.46764 0.46724
 C2200 C -0.08539 0.48295 0.46239
 C2201 C -0.07163 0.48960 0.46941
 C2202 C -0.06304 0.48106 0.48127
 C2203 C -0.06862 0.46587 0.48624
 C2204 C -0.08223 0.45907 0.47918
 C2205 C -0.10756 0.48424 0.44317
 C2206 C -0.09401 0.49115 0.45041
 C2207 C -0.10089 0.43669 0.47613
 C2208 C -0.08755 0.44369 0.48358
 H2209 H -0.11384 0.49096 0.43396
 H2210 H -0.09021 0.50297 0.44654
 H2211 H -0.10453 0.42476 0.47981
 H2212 H -0.08130 0.43699 0.49281
 H2213 H -0.12569 0.42567 0.45985
 H2214 H -0.13301 0.46900 0.43173
 H2215 H -0.06744 0.50126 0.46541
 H2216 H -0.06208 0.45907 0.49521
 C2217 C 0.40256 -0.04687 0.45221
 C2218 C 0.39209 -0.05624 0.46143
 C2219 C 0.37958 -0.06447 0.45375
 C2220 C 0.37731 -0.06337 0.43685
 C2221 C 0.38837 -0.05412 0.42784
 C2222 C 0.40090 -0.04586 0.43543
 C2223 C 0.41546 -0.03784 0.46029
 C2224 C 0.42587 -0.02840 0.45103
 C2225 C 0.43813 -0.01991 0.45873
 C2226 C 0.44026 -0.02102 0.47555
 C2227 C 0.42968 -0.03052 0.48468
 C2228 C 0.41715 -0.03886 0.47710
 C2229 C 0.41173 -0.03647 0.42655
 C2230 C 0.42396 -0.02784 0.43423
 C2231 C 0.39412 -0.05694 0.47823
 C2232 C 0.40643 -0.04840 0.48593
 H2233 H 0.41066 -0.03566 0.41356
 H2234 H 0.43196 -0.02063 0.42697
 H2235 H 0.38610 -0.06413 0.48551
 H2236 H 0.40762 -0.04933 0.49890
 H2237 H 0.37117 -0.07094 0.46122
 H2238 H 0.38759 -0.05356 0.41483
 H2239 H 0.44641 -0.01293 0.45151
 H2240 H 0.43134 -0.03160 0.49758
 C2241 C 0.40027 0.45305 -0.04644
 C2242 C 0.39826 0.43647 -0.04439
 C2243 C 0.38584 0.42859 -0.05258
 C2244 C 0.37523 0.43713 -0.06279
 C2245 C 0.37783 0.45384 -0.06485
 C2246 C 0.39025 0.46179 -0.05674
 C2247 C 0.41309 0.46146 -0.03758
 C2248 C 0.41516 0.47806 -0.03970
 C2249 C 0.42761 0.48592 -0.03152
 C2250 C 0.43783 0.47730 -0.02117
 C2251 C 0.43534 0.46069 -0.01896
 C2252 C 0.42309 0.45270 -0.02724
 C2253 C 0.39265 0.47841 -0.05852
 C2254 C 0.40491 0.48640 -0.05017
 C2255 C 0.40865 0.42807 -0.03408
 C2256 C 0.42083 0.43606 -0.02562
 H2257 H 0.38499 0.48531 -0.06645
 H2258 H 0.40640 0.49920 -0.05197
 H2259 H 0.40731 0.41523 -0.03244
 H2260 H 0.42851 0.42917 -0.01772
 H2261 H 0.38484 0.41570 -0.05123
 H2262 H 0.36975 0.46103 -0.07204
 H2263 H 0.42953 0.49865 -0.03344
 H2264 H 0.44332 0.45384 -0.01130
 C2265 C 0.35490 0.46223 0.79050
 C2266 C 0.36699 0.45703 0.78000
 C2267 C 0.38104 0.45043 0.78642
 C2268 C 0.38295 0.44873 0.80321
 C2269 C 0.37061 0.45397 0.81355
 C2270 C 0.35661 0.46081 0.80727
 C2271 C 0.34012 0.46922 0.78381
 C2272 C 0.32812 0.47459 0.79433
 C2273 C 0.31414 0.48129 0.78792
 C2274 C 0.31196 0.48226 0.77112
 C2275 C 0.32399 0.47663 0.76071
 C2276 C 0.33822 0.47026 0.76702
 C2277 C 0.34424 0.46614 0.81740
 C2278 C 0.33025 0.47298 0.81104
 C2279 C 0.36473 0.45842 0.76328
 C2280 C 0.35055 0.46484 0.75690
 H2281 H 0.34539 0.46505 0.83036
 H2282 H 0.32100 0.47696 0.81927
 H2283 H 0.37396 0.45441 0.75505
 H2284 H 0.34925 0.46559 0.74393
 H2285 H 0.39050 0.44668 0.77833
 H2286 H 0.37176 0.45246 0.82646
 H2287 H 0.30474 0.48528 0.79597
 H2288 H 0.32229 0.47727 0.74778
 C2289 C 0.34782 -0.04705 0.29710
 C2290 C 0.34820 -0.04770 0.31400
 C2291 C 0.36028 -0.05653 0.32165
 C2292 C 0.37217 -0.06439 0.31254
 C2293 C 0.37142 -0.06379 0.29557
 C2294 C 0.35922 -0.05522 0.28779
 C2295 C 0.33532 -0.03751 0.28900
 C2296 C 0.33474 -0.03708 0.27209
 C2297 C 0.32248 -0.02841 0.26447
 C2298 C 0.31112 -0.01996 0.27368
 C2299 C 0.31223 -0.02013 0.29063
 C2300 C 0.32416 -0.02907 0.29834
 C2301 C 0.35833 -0.05442 0.27090
 C2302 C 0.34626 -0.04557 0.26318
 C2303 C 0.33668 -0.03924 0.32293
 C2304 C 0.32495 -0.02997 0.31522
 H2305 H 0.36704 -0.06071 0.26358
 H2306 H 0.34593 -0.04537 0.25014
 H2307 H 0.33683 -0.03963 0.33598
 H2308 H 0.31645 -0.02344 0.32253
 H2309 H 0.36051 -0.05714 0.33469
 H2310 H 0.38058 -0.06956 0.28838
 H2311 H 0.32160 -0.02847 0.25144
 H2312 H 0.30334 -0.01397 0.29784
 C2313 C 0.13655 0.53287 0.71705
 C2314 C 0.13211 0.53063 0.70091
 C2315 C 0.11739 0.53660 0.69556
 C2316 C 0.10690 0.54448 0.70627
 C2317 C 0.11152 0.54648 0.72250
 C2318 C 0.12641 0.54083 0.72791
 C2319 C 0.15224 0.52696 0.72262
 C2320 C 0.15695 0.52964 0.73863
 C2321 C 0.17211 0.52445 0.74369
 C2322 C 0.18242 0.51647 0.73289
 C2323 C 0.17731 0.51358 0.71698
 C2324 C 0.16231 0.51895 0.71174
 C2325 C 0.13143 0.54305 0.74392
 C2326 C 0.14647 0.53763 0.74917
 C2327 C 0.14251 0.52255 0.69038
 C2328 C 0.15732 0.51672 0.69574
 H2329 H 0.12373 0.54918 0.75243
 H2330 H 0.14994 0.53975 0.76157
 H2331 H 0.13918 0.52071 0.67790
 H2332 H 0.16498 0.51052 0.68725
 H2333 H 0.11427 0.53533 0.68296
 H2334 H 0.10354 0.55236 0.73092
 H2335 H 0.17593 0.52671 0.75597
 H2336 H 0.18518 0.50761 0.70851
 C2337 C 0.13709 0.02992 0.21604
 C2338 C 0.12641 0.03694 0.22702
 C2339 C 0.11165 0.04278 0.22144
 C2340 C 0.10772 0.04203 0.20490
 C2341 C 0.11872 0.03496 0.19411
 C2342 C 0.13328 0.02875 0.19962
 C2343 C 0.15273 0.02400 0.22176
 C2344 C 0.16337 0.01698 0.21073
 C2345 C 0.17836 0.01171 0.21612
 C2346 C 0.18293 0.01380 0.23232
 C2347 C 0.17207 0.02078 0.24326
 C2348 C 0.15688 0.02579 0.23805
 C2349 C 0.14422 0.02160 0.18897
 C2350 C 0.15897 0.01571 0.19446
 C2351 C 0.13083 0.03818 0.24332
 C2352 C 0.14584 0.03279 0.24872
 H2353 H 0.14139 0.02058 0.17627
 H2354 H 0.16706 0.01030 0.18585
 H2355 H 0.12272 0.04357 0.25193
 H2356 H 0.14886 0.03420 0.26134
 H2357 H 0.10330 0.04796 0.22995
 H2358 H 0.11618 0.03464 0.18132
 H2359 H 0.18669 0.00655 0.20756
 H2360 H 0.17549 0.02241 0.25576
 C2361 C 0.61014 0.71815 0.21055
 C2362 C 0.62138 0.71201 0.22150
 C2363 C 0.63561 0.70527 0.21563
 C2364 C 0.63851 0.70433 0.19892
 C2365 C 0.62704 0.71058 0.18814
 C2366 C 0.61290 0.71759 0.19389
 C2367 C 0.59503 0.72501 0.21663
 C2368 C 0.58374 0.73106 0.20567
 C2369 C 0.56918 0.73708 0.21148
 C2370 C 0.56572 0.73668 0.22808
 C2371 C 0.57727 0.73076 0.23893
 C2372 C 0.59199 0.72499 0.23327
 C2373 C 0.60136 0.72385 0.18329
 C2374 C 0.58705 0.73053 0.18909
 C2375 C 0.61807 0.71255 0.23808
 C2376 C 0.60359 0.71885 0.24386
 H2377 H 0.60336 0.72351 0.17040
 H2378 H 0.57842 0.73511 0.18050
 H2379 H 0.62665 0.70785 0.24666
 H2380 H 0.60140 0.71881 0.25673
 H2381 H 0.64441 0.70077 0.22409
 H2382 H 0.62892 0.70970 0.17525
 H2383 H 0.56026 0.74138 0.20303
 H2384 H 0.57469 0.73041 0.25172
 C2385 C 0.10928 0.71477 0.71192
 C2386 C 0.11305 0.69848 0.71395
 C2387 C 0.12756 0.69262 0.70795
 C2388 C 0.13852 0.70295 0.70025
 C2389 C 0.13454 0.71932 0.69836
 C2390 C 0.11986 0.72526 0.70407
 C2391 C 0.09389 0.72092 0.71804
 C2392 C 0.08986 0.73712 0.71565
 C2393 C 0.07500 0.74279 0.72119
 C2394 C 0.06444 0.73239 0.72932
 C2395 C 0.06883 0.71624 0.73177
 C2396 C 0.08344 0.71041 0.72602
 C2397 C 0.11551 0.74145 0.70208
 C2398 C 0.10074 0.74725 0.70769
 C2399 C 0.10221 0.68832 0.72190
 C2400 C 0.08768 0.69421 0.72790
 H2401 H 0.12355 0.74968 0.69603
 H2402 H 0.09781 0.75978 0.70579
 H2403 H 0.10501 0.67573 0.72353
 H2404 H 0.07966 0.68598 0.73398
 H2405 H 0.13019 0.67994 0.70912
 H2406 H 0.14289 0.72745 0.69260
 H2407 H 0.07168 0.75521 0.71924
 H2408 H 0.06067 0.70807 0.73776
 C2409 C 0.64012 0.21639 0.53701
 C2410 C 0.62881 0.21083 0.52582
 C2411 C 0.61412 0.20488 0.53139
 C2412 C 0.61084 0.20410 0.54805
 C2413 C 0.62241 0.20974 0.55907
 C2414 C 0.63699 0.21601 0.55361
 C2415 C 0.65562 0.22257 0.53124
 C2416 C 0.66686 0.22827 0.54244
 C2417 C 0.68159 0.23408 0.53692
 C2418 C 0.68525 0.23389 0.52036
 C2419 C 0.67391 0.22801 0.50928
 C2420 C 0.65898 0.22249 0.51466
 C2421 C 0.64858 0.22174 0.56446
 C2422 C 0.66324 0.22784 0.55896
 C2423 C 0.63249 0.21117 0.50931
 C2424 C 0.64735 0.21682 0.50382
 H2425 H 0.64630 0.22151 0.57730
 H2426 H 0.67186 0.23214 0.56772
 H2427 H 0.62386 0.20689 0.50055
 H2428 H 0.64976 0.21673 0.49100
 H2429 H 0.60527 0.20085 0.52274
 H2430 H 0.62026 0.20894 0.57191
 H2431 H 0.69037 0.23836 0.54554
 H2432 H 0.67668 0.22785 0.49652
 C2433 C 0.64261 0.71316 0.03820
 C2434 C 0.63155 0.70648 0.02737
 C2435 C 0.61706 0.70035 0.03327
 C2436 C 0.61364 0.70061 0.04991
 C2437 C 0.62503 0.70721 0.06061
 C2438 C 0.63947 0.71360 0.05480
 C2439 C 0.65780 0.71979 0.03203
 C2440 C 0.66880 0.72662 0.04283
 C2441 C 0.68324 0.73287 0.03690
 C2442 C 0.68682 0.73203 0.02032
 C2443 C 0.67564 0.72508 0.00968
 C2444 C 0.66106 0.71906 0.01545
 C2445 C 0.65083 0.72043 0.06526
 C2446 C 0.66522 0.72688 0.05937
 C2447 C 0.63518 0.70611 0.01085
 C2448 C 0.64972 0.71221 0.00500
 H2449 H 0.64856 0.72084 0.07810
 H2450 H 0.67364 0.73204 0.06785
 H2451 H 0.62675 0.70097 0.00237
 H2452 H 0.65209 0.71159 -0.00781
 H2453 H 0.60835 0.69559 0.02485
 H2454 H 0.62275 0.70726 0.07345
 H2455 H 0.69188 0.73795 0.04522
 H2456 H 0.67830 0.72436 -0.00308
 C2457 C 0.11046 0.03510 0.03482
 C2458 C 0.12037 0.02484 0.04372
 C2459 C 0.13519 0.03053 0.04933
 C2460 C 0.14016 0.04655 0.04634
 C2461 C 0.12976 0.05657 0.03731
 C2462 C 0.11508 0.05092 0.03151
 C2463 C 0.09483 0.02923 0.02900
 C2464 C 0.08493 0.03957 0.02011
 C2465 C 0.07008 0.03401 0.01466
 C2466 C 0.06495 0.01828 0.01822
 C2467 C 0.07499 0.00807 0.02724
 C2468 C 0.09001 0.01348 0.03258
 C2469 C 0.10480 0.06093 0.02263
 C2470 C 0.09000 0.05533 0.01698
 C2471 C 0.11524 0.00907 0.04690
 C2472 C 0.10030 0.00351 0.04148
 H2473 H 0.10823 0.07320 0.02002
 H2474 H 0.08244 0.06344 0.01019
 H2475 H 0.12278 0.00099 0.05375
 H2476 H 0.09676 -0.00868 0.04431
 H2477 H 0.14290 0.02219 0.05561
 H2478 H 0.13253 0.06911 0.03536
 H2479 H 0.06237 0.04205 0.00794
 H2480 H 0.07116 -0.00403 0.03006
 C2481 C 0.11283 0.53244 0.53349
 C2482 C 0.12305 0.54044 0.52276
 C2483 C 0.13780 0.54629 0.52838
 C2484 C 0.14214 0.54459 0.54474
 C2485 C 0.13164 0.53648 0.55527
 C2486 C 0.11710 0.53026 0.54969
 C2487 C 0.09718 0.52654 0.52776
 C2488 C 0.08702 0.51853 0.53854
 C2489 C 0.07205 0.51324 0.53318
 C2490 C 0.06699 0.51624 0.51727
 C2491 C 0.07735 0.52426 0.50657
 C2492 C 0.09255 0.52932 0.51174
 C2493 C 0.10661 0.52214 0.56009
 C2494 C 0.09186 0.51628 0.55458
 C2495 C 0.11818 0.54266 0.50670
 C2496 C 0.10315 0.53728 0.50131
 H2497 H 0.10980 0.52035 0.57262
 H2498 H 0.08411 0.51010 0.56299
 H2499 H 0.12594 0.54882 0.49828
 H2500 H 0.09978 0.53946 0.48890
 H2501 H 0.14579 0.55227 0.52004
 H2502 H 0.13451 0.53539 0.56794
 H2503 H 0.06410 0.50726 0.54158
 H2504 H 0.07356 0.52660 0.49430
 C2505 C 0.61352 0.03429 0.53107
 C2506 C 0.61801 0.05012 0.52746
 C2507 C 0.63221 0.05630 0.53392
 C2508 C 0.64234 0.04664 0.54349
 C2509 C 0.63779 0.03057 0.54656
 C2510 C 0.62326 0.02446 0.54066
 C2511 C 0.59817 0.02803 0.52494
 C2512 C 0.59323 0.01248 0.52922
 C2513 C 0.57822 0.00690 0.52397
 C2514 C 0.56840 0.01669 0.51427
 C2515 C 0.57386 0.03204 0.50969
 C2516 C 0.58860 0.03784 0.51517
 C2517 C 0.61814 0.00879 0.54432
 C2518 C 0.60332 0.00296 0.53882
 C2519 C 0.60813 0.05954 0.51757
 C2520 C 0.59376 0.05342 0.51136
 H2521 H 0.62553 0.00106 0.55172
 H2522 H 0.59972 -0.00909 0.54215
 H2523 H 0.61153 0.07173 0.51458
 H2524 H 0.58656 0.06101 0.50366
 H2525 H 0.63510 0.06877 0.53172
 H2526 H 0.64548 0.02278 0.55357
 H2527 H 0.57415 -0.00494 0.52751
 H2528 H 0.56638 0.03975 0.50235
 C2529 C 0.60963 0.53718 0.03421
 C2530 C 0.61328 0.55358 0.03303
 C2531 C 0.62774 0.55923 0.03937
 C2532 C 0.63876 0.54860 0.04659
 C2533 C 0.63490 0.53215 0.04763
 C2534 C 0.62029 0.52639 0.04156
 C2535 C 0.59428 0.53123 0.02779
 C2536 C 0.59038 0.51491 0.02941
 C2537 C 0.57552 0.50943 0.02377
 C2538 C 0.56473 0.52014 0.01636
 C2539 C 0.56901 0.53639 0.01452
 C2540 C 0.58369 0.54204 0.02039
 C2541 C 0.61608 0.51010 0.04273
 C2542 C 0.60135 0.50447 0.03683
 C2543 C 0.60235 0.56403 0.02557
 C2544 C 0.58783 0.55834 0.01929
 H2545 H 0.62418 0.50164 0.04837
 H2546 H 0.59850 0.49184 0.03812
 H2547 H 0.60506 0.57672 0.02458
 H2548 H 0.57973 0.56680 0.01367
 H2549 H 0.63031 0.57197 0.03883
 H2550 H 0.64329 0.52380 0.05300
 H2551 H 0.57229 0.49691 0.02523
 H2552 H 0.56068 0.54476 0.00906
 C2553 C 0.03562 0.03472 0.11039
 C2554 C 0.02574 0.04454 0.11985
 C2555 C 0.03138 0.05017 0.13476
 C2556 C 0.04695 0.04624 0.14032
 C2557 C 0.05665 0.03640 0.13033
 C2558 C 0.05103 0.03059 0.11554
 C2559 C 0.02975 0.02875 0.09472
 C2560 C 0.03967 0.01893 0.08529
 C2561 C 0.03410 0.01336 0.07038
 C2562 C 0.01879 0.01770 0.06475
 C2563 C 0.00899 0.02760 0.07438
 C2564 C 0.01440 0.03310 0.08942
 C2565 C 0.06065 0.02080 0.10571
 C2566 C 0.05505 0.01503 0.09087
 C2567 C 0.01038 0.04851 0.11420
 C2568 C 0.00483 0.04294 0.09922
 H2569 H 0.07262 0.01755 0.10954
 H2570 H 0.06285 0.00752 0.08367
 H2571 H 0.00261 0.05608 0.12137
 H2572 H -0.00704 0.04639 0.09529
 H2573 H 0.02329 0.05713 0.14214
 H2574 H 0.06890 0.03372 0.13355
 H2575 H 0.04185 0.00594 0.06301
 H2576 H -0.00279 0.03106 0.07018
 C2577 C 0.03325 0.53068 0.61397
 C2578 C 0.04930 0.52884 0.61853
 C2579 C 0.05432 0.53471 0.63350
 C2580 C 0.04339 0.54212 0.64413
 C2581 C 0.02722 0.54356 0.63944
 C2582 C 0.02214 0.53804 0.62428
 C2583 C 0.02807 0.52509 0.59793
 C2584 C 0.01216 0.52751 0.59306
 C2585 C 0.00747 0.52273 0.57754
 C2586 C 0.01853 0.51536 0.56707
 C2587 C 0.03433 0.51269 0.57232
 C2588 C 0.03921 0.51772 0.58766
 C2589 C 0.00623 0.53993 0.61912
 C2590 C 0.00135 0.53484 0.60374
 C2591 C 0.06009 0.52138 0.60794
 C2592 C 0.05511 0.51582 0.59280
 H2593 H -0.00247 0.54559 0.62694
 H2594 H -0.01097 0.53672 0.60015
 H2595 H 0.07251 0.51986 0.61136
 H2596 H 0.06381 0.51014 0.58499
 H2597 H 0.06688 0.53388 0.63664
 H2598 H 0.01861 0.54903 0.64749
 H2599 H -0.00472 0.52478 0.57360
 H2600 H 0.04296 0.50720 0.56428
 C2601 C 0.53707 0.03790 0.60794
 C2602 C 0.53414 0.05388 0.61229
 C2603 C 0.54034 0.05979 0.62682
 C2604 C 0.54936 0.04984 0.63731
 C2605 C 0.55209 0.03371 0.63254
 C2606 C 0.54605 0.02775 0.61792
 C2607 C 0.53073 0.03170 0.59255
 C2608 C 0.53392 0.01578 0.58804
 C2609 C 0.52827 0.01010 0.57317
 C2610 C 0.51941 0.02021 0.56288
 C2611 C 0.51606 0.03607 0.56778
 C2612 C 0.52180 0.04191 0.58253
 C2613 C 0.54881 0.01180 0.61310
 C2614 C 0.54289 0.00594 0.59840
 C2615 C 0.52516 0.06374 0.60194
 C2616 C 0.51906 0.05785 0.58733
 H2617 H 0.55570 0.00381 0.62071
 H2618 H 0.54542 -0.00639 0.59508
 H2619 H 0.52283 0.07614 0.60514
 H2620 H 0.51224 0.06587 0.57968
 H2621 H 0.53857 0.07238 0.62946
 H2622 H 0.55836 0.02544 0.64036
 H2623 H 0.53092 -0.00212 0.56954
 H2624 H 0.50942 0.04404 0.55990
 C2625 C 0.53328 0.53600 0.11122
 C2626 C 0.53230 0.55246 0.11474
 C2627 C 0.53848 0.55818 0.12936
 C2628 C 0.54535 0.54755 0.14063
 C2629 C 0.54579 0.53097 0.13702
 C2630 C 0.54001 0.52518 0.12224
 C2631 C 0.52739 0.53004 0.09556
 C2632 C 0.52896 0.51368 0.09172
 C2633 C 0.52386 0.50821 0.07654
 C2634 C 0.51691 0.51895 0.06547
 C2635 C 0.51514 0.53524 0.06969
 C2636 C 0.52055 0.54089 0.08462
 C2637 C 0.54105 0.50883 0.11814
 C2638 C 0.53573 0.50320 0.10310
 C2639 C 0.52539 0.56294 0.10345
 C2640 C 0.51952 0.55722 0.08869
 H2641 H 0.54624 0.50034 0.12653
 H2642 H 0.53695 0.49054 0.10034
 H2643 H 0.52454 0.57566 0.10603
 H2644 H 0.51428 0.56568 0.08034
 H2645 H 0.53831 0.57097 0.13170
 H2646 H 0.55072 0.52255 0.14564
 H2647 H 0.52523 0.49566 0.07335
 H2648 H 0.51002 0.54363 0.06114
 C2649 C 0.21497 0.53640 0.63902
 C2650 C 0.22537 0.54503 0.62896
 C2651 C 0.21974 0.55063 0.61402
 C2652 C 0.20371 0.54796 0.60930
 C2653 C 0.19348 0.53941 0.61973
 C2654 C 0.19907 0.53345 0.63445
 C2655 C 0.22077 0.53049 0.65472
 C2656 C 0.21037 0.52171 0.66463
 C2657 C 0.21585 0.51619 0.67955
 C2658 C 0.23150 0.51967 0.68482
 C2659 C 0.24180 0.52856 0.67477
 C2660 C 0.23652 0.53387 0.65959
 C2661 C 0.18902 0.52468 0.64475
 C2662 C 0.19461 0.51881 0.65954
 C2663 C 0.24113 0.54797 0.63412
 C2664 C 0.24658 0.54257 0.64921
 H2665 H 0.17673 0.52229 0.64134
 H2666 H 0.18650 0.51203 0.66709
 H2667 H 0.24929 0.55463 0.62649
 H2668 H 0.25877 0.54524 0.65277
 H2669 H 0.22785 0.55700 0.60611
 H2670 H 0.18103 0.53760 0.61659
 H2671 H 0.20775 0.50955 0.68727
 H2672 H 0.25386 0.53128 0.67873
 C2673 C 0.21385 0.03596 0.13977
 C2674 C 0.19843 0.03162 0.13479
 C2675 C 0.19232 0.03785 0.12037
 C2676 C 0.20160 0.04812 0.11044
 C2677 C 0.21731 0.05204 0.11574
 C2678 C 0.22333 0.04620 0.13041
 C2679 C 0.22012 0.02978 0.15519
 C2680 C 0.23537 0.03451 0.16049
 C2681 C 0.24103 0.02899 0.17545
 C2682 C 0.23160 0.01859 0.18489
 C2683 C 0.21648 0.01371 0.17914
 C2684 C 0.21063 0.01939 0.16443
 C2685 C 0.23869 0.05044 0.13593
 C2686 C 0.24456 0.04479 0.15076
 C2687 C 0.18928 0.02121 0.14440
 C2688 C 0.19534 0.01509 0.15890
 H2689 H 0.24617 0.05834 0.12882
 H2690 H 0.25637 0.04851 0.15464
 H2691 H 0.17735 0.01772 0.14067
 H2692 H 0.18795 0.00700 0.16589
 H2693 H 0.18003 0.03505 0.11747
 H2694 H 0.22522 0.05922 0.10840
 H2695 H 0.25268 0.03280 0.17974
 H2696 H 0.20902 0.00585 0.18634
 C2697 C 0.71214 0.21452 0.61066
 C2698 C 0.71362 0.19816 0.61435
 C2699 C 0.70717 0.19237 0.62877
 C2700 C 0.69949 0.20284 0.63968
 C2701 C 0.69819 0.21927 0.63579
 C2702 C 0.70439 0.22515 0.62123
 C2703 C 0.71870 0.22061 0.59535
 C2704 C 0.71687 0.23690 0.59145
 C2705 C 0.72281 0.24255 0.57671
 C2706 C 0.73071 0.23205 0.56603
 C2707 C 0.73264 0.21579 0.57026
 C2708 C 0.72652 0.20997 0.58484
 C2709 C 0.70296 0.24142 0.61699
 C2710 C 0.70903 0.24718 0.60232
 C2711 C 0.72146 0.18787 0.60349
 C2712 C 0.72785 0.19369 0.58901
 H2713 H 0.69700 0.24974 0.62502
 H2714 H 0.70757 0.25978 0.59945
 H2715 H 0.72267 0.17520 0.60622
 H2716 H 0.73379 0.18536 0.58096
 H2717 H 0.70793 0.17965 0.63138
 H2718 H 0.69246 0.22749 0.64410
 H2719 H 0.72128 0.25508 0.57355
 H2720 H 0.73848 0.20757 0.56201
 C2721 C 0.71632 0.71118 0.10835
 C2722 C 0.71601 0.69457 0.11120
 C2723 C 0.70934 0.68881 0.12558
 C2724 C 0.70314 0.69954 0.13717
 C2725 C 0.70384 0.71619 0.13417
 C2726 C 0.71025 0.72206 0.11973
 C2727 C 0.72290 0.71729 0.09306
 C2728 C 0.72273 0.73387 0.09000
 C2729 C 0.72847 0.73957 0.07521
 C2730 C 0.73456 0.72884 0.06363
 C2731 C 0.73498 0.71227 0.06703
 C2732 C 0.72898 0.70641 0.08167
 C2733 C 0.71055 0.73859 0.11636
 C2734 C 0.71661 0.74439 0.10171
 C2735 C 0.72222 0.68405 0.09952
 C2736 C 0.72865 0.68988 0.08503
 H2737 H 0.70590 0.74710 0.12504
 H2738 H 0.71644 0.75721 0.09951
 H2739 H 0.72206 0.67121 0.10157
 H2740 H 0.73324 0.68135 0.07631
 H2741 H 0.70866 0.67597 0.12757
 H2742 H 0.69941 0.72461 0.14307
 H2743 H 0.72812 0.75233 0.07267
 H2744 H 0.73942 0.70391 0.05807
 C2745 C 0.53240 0.71459 0.13746
 C2746 C 0.53143 0.69823 0.13357
 C2747 C 0.53813 0.69280 0.11911
 C2748 C 0.54563 0.70360 0.10841
 C2749 C 0.54640 0.72002 0.11247
 C2750 C 0.53988 0.72556 0.12704
 C2751 C 0.52575 0.72028 0.15289
 C2752 C 0.52719 0.73655 0.15704
 C2753 C 0.52148 0.74175 0.17204
 C2754 C 0.51434 0.73081 0.18283
 C2755 C 0.51260 0.71462 0.17825
 C2756 C 0.51843 0.70926 0.16336
 C2757 C 0.54081 0.74182 0.13149
 C2758 C 0.53462 0.74721 0.14626
 C2759 C 0.52393 0.68758 0.14430
 C2760 C 0.51750 0.69301 0.15893
 H2761 H 0.54652 0.75042 0.12358
 H2762 H 0.53578 0.75980 0.14933
 H2763 H 0.52309 0.67492 0.14140
 H2764 H 0.51192 0.68438 0.16691
 H2765 H 0.53779 0.68008 0.11637
 H2766 H 0.55201 0.72846 0.10431
 H2767 H 0.52288 0.75425 0.17543
 H2768 H 0.50732 0.70606 0.18653
 C2769 C 0.03148 0.71722 0.63579
 C2770 C 0.04012 0.72769 0.62581
 C2771 C 0.04632 0.72194 0.61118
 C2772 C 0.04436 0.70568 0.60675
 C2773 C 0.03565 0.69540 0.61704
 C2774 C 0.02903 0.70114 0.63141
 C2775 C 0.02523 0.72307 0.65133
 C2776 C 0.01661 0.71254 0.66128
 C2777 C 0.01115 0.71795 0.67626
 C2778 C 0.01462 0.73365 0.68156
 C2779 C 0.02309 0.74415 0.67133
 C2780 C 0.02834 0.73893 0.65613
 C2781 C 0.02022 0.69101 0.64162
 C2782 C 0.01399 0.69666 0.65624
 C2783 C 0.04261 0.74363 0.63082
 C2784 C 0.03691 0.74913 0.64577
 H2785 H 0.01817 0.67859 0.63831
 H2786 H 0.00725 0.68847 0.66375
 H2787 H 0.04925 0.75186 0.62324
 H2788 H 0.03934 0.76142 0.64928
 H2789 H 0.05274 0.73010 0.60336
 H2790 H 0.03435 0.68278 0.61416
 H2791 H 0.00477 0.70972 0.68406
 H2792 H 0.02578 0.75627 0.67527
 C2793 C 0.53839 0.63932 0.21786
 C2794 C 0.52737 0.62797 0.21208
 C2795 C 0.53300 0.61331 0.20595
 C2796 C 0.54956 0.61007 0.20524
 C2797 C 0.56042 0.62167 0.21113
 C2798 C 0.55490 0.63625 0.21753
 C2799 C 0.53256 0.65485 0.22408
 C2800 C 0.54359 0.66623 0.22982
 C2801 C 0.53800 0.68113 0.23537
 C2802 C 0.52156 0.68482 0.23482
 C2803 C 0.51066 0.67321 0.22913
 C2804 C 0.51609 0.65816 0.22385
 C2805 C 0.56557 0.64791 0.22343
 C2806 C 0.56001 0.66261 0.22953
 C2807 C 0.51095 0.63158 0.21236
 C2808 C 0.50541 0.64645 0.21807
 H2809 H 0.57834 0.64567 0.22327
 H2810 H 0.56865 0.67130 0.23387
 H2811 H 0.50232 0.62293 0.20795
 H2812 H 0.49267 0.64884 0.21787
 H2813 H 0.52447 0.60445 0.20174
 H2814 H 0.57318 0.61955 0.21040
 H2815 H 0.54650 0.69007 0.23950
 H2816 H 0.49798 0.67595 0.22869
 C2817 C 0.03350 0.63924 0.71439
 C2818 C 0.03205 0.63516 0.69805
 C2819 C 0.03812 0.62043 0.69265
 C2820 C 0.04528 0.60955 0.70351
 C2821 C 0.04644 0.61383 0.71994
 C2822 C 0.04076 0.62873 0.72539
 C2823 C 0.02741 0.65488 0.72006
 C2824 C 0.02934 0.65922 0.73630
 C2825 C 0.02396 0.67433 0.74150
 C2826 C 0.01640 0.68487 0.73062
 C2827 C 0.01428 0.68015 0.71446
 C2828 C 0.01995 0.66526 0.70907
 C2829 C 0.04224 0.63337 0.74161
 C2830 C 0.03673 0.64840 0.74695
 C2831 C 0.02458 0.64592 0.68741
 C2832 C 0.01853 0.66067 0.69286
 H2833 H 0.04784 0.62538 0.75023
 H2834 H 0.03826 0.65157 0.75952
 H2835 H 0.02335 0.64290 0.67477
 H2836 H 0.01281 0.66858 0.68428
 H2837 H 0.03744 0.61758 0.67993
 H2838 H 0.05164 0.60555 0.72852
 H2839 H 0.02564 0.67789 0.75395
 H2840 H 0.00870 0.68827 0.70596
 C2841 C 0.03840 0.10813 0.03791
 C2842 C 0.04759 0.11802 0.02786
 C2843 C 0.05359 0.13258 0.03391
 C2844 C 0.05064 0.13738 0.05005
 C2845 C 0.04156 0.12689 0.05994
 C2846 C 0.03535 0.11245 0.05392
 C2847 C 0.03187 0.09294 0.03154
 C2848 C 0.02258 0.08311 0.04159
 C2849 C 0.01640 0.06868 0.03550
 C2850 C 0.01964 0.06393 0.01953
 C2851 C 0.02904 0.07392 0.00963
 C2852 C 0.03510 0.08850 0.01555
 C2853 C 0.02614 0.10220 0.06368
 C2854 C 0.01982 0.08781 0.05760
 C2855 C 0.05048 0.11322 0.01188
 C2856 C 0.04441 0.09868 0.00586
 H2857 H 0.02373 0.10538 0.07610
 H2858 H 0.01276 0.08028 0.06552
 H2859 H 0.05756 0.12075 0.00398
 H2860 H 0.04700 0.09541 -0.00650
 H2861 H 0.05995 0.14035 0.02567
 H2862 H 0.03966 0.12951 0.07256
 H2863 H 0.00941 0.06098 0.04333
 H2864 H 0.03165 0.07036 -0.00266
 C2865 C 0.03604 0.61114 0.53471
 C2866 C 0.04432 0.62119 0.52400
 C2867 C 0.05020 0.63601 0.52953
 C2868 C 0.04805 0.64067 0.54574
 C2869 C 0.03985 0.63027 0.55630
 C2870 C 0.03370 0.61561 0.55084
 C2871 C 0.02986 0.59554 0.52901
 C2872 C 0.02156 0.58556 0.53976
 C2873 C 0.01589 0.57067 0.53438
 C2874 C 0.01876 0.56555 0.51846
 C2875 C 0.02709 0.57573 0.50780
 C2876 C 0.03259 0.59081 0.51301
 C2877 C 0.02535 0.60528 0.56123
 C2878 C 0.01932 0.59053 0.55577
 C2879 C 0.04660 0.61615 0.50799
 C2880 C 0.04090 0.60120 0.50261
 H2881 H 0.02347 0.60862 0.57371
 H2882 H 0.01298 0.58290 0.56419
 H2883 H 0.05297 0.62378 0.49959
 H2884 H 0.04306 0.59772 0.49023
 H2885 H 0.05635 0.64392 0.52123
 H2886 H 0.03844 0.63344 0.56888
 H2887 H 0.00969 0.56285 0.54275
 H2888 H 0.02935 0.57190 0.49553
 C2889 C 0.53764 0.11120 0.52931
 C2890 C 0.55403 0.11476 0.52875
 C2891 C 0.55958 0.12902 0.53574
 C2892 C 0.54885 0.13993 0.54299
 C2893 C 0.53236 0.13627 0.54312
 C2894 C 0.52673 0.12182 0.53650
 C2895 C 0.53184 0.09587 0.52258
 C2896 C 0.51555 0.09194 0.52382
 C2897 C 0.51027 0.07696 0.51820
 C2898 C 0.52114 0.06606 0.51121
 C2899 C 0.53732 0.07046 0.50953
 C2900 C 0.54278 0.08526 0.51542
 C2901 C 0.51044 0.11766 0.53713
 C2902 C 0.50496 0.10293 0.53099
 C2903 C 0.56459 0.10389 0.52139
 C2904 C 0.55904 0.08944 0.51473
 H2905 H 0.50189 0.12575 0.54264
 H2906 H 0.49235 0.10007 0.53197
 H2907 H 0.57727 0.10654 0.52081
 H2908 H 0.56757 0.08138 0.50921
 H2909 H 0.57233 0.13140 0.53584
 H2910 H 0.52390 0.14461 0.54837
 H2911 H 0.49779 0.07367 0.51951
 H2912 H 0.54580 0.06208 0.50435
 C2913 C 0.53353 0.61187 0.03379
 C2914 C 0.53054 0.61652 0.04974
 C2915 C 0.53751 0.63061 0.05566
 C2916 C 0.54700 0.64046 0.04565
 C2917 C 0.54970 0.63567 0.02955
 C2918 C 0.54317 0.62126 0.02365
 C2919 C 0.52667 0.59672 0.02770
 C2920 C 0.53024 0.59165 0.01199
 C2921 C 0.52434 0.57682 0.00656
 C2922 C 0.51481 0.56717 0.01671
 C2923 C 0.51087 0.57278 0.03223
 C2924 C 0.51694 0.58743 0.03785
 C2925 C 0.54617 0.61599 0.00784
 C2926 C 0.53991 0.60138 0.00215
 C2927 C 0.52066 0.60696 0.05950
 C2928 C 0.51384 0.59274 0.05359
 H2929 H 0.55358 0.62310 -0.00013
 H2930 H 0.54272 0.59763 -0.01002
 H2931 H 0.51816 0.61050 0.07180
 H2932 H 0.50620 0.58578 0.06147
 H2933 H 0.53568 0.63371 0.06819
 H2934 H 0.55677 0.64312 0.02159
 H2935 H 0.52742 0.57265 -0.00541
 H2936 H 0.50367 0.56544 0.04020
 C2937 C 0.71539 0.14026 0.53266
 C2938 C 0.72548 0.13078 0.54221
 C2939 C 0.72008 0.11577 0.54766
 C2940 C 0.70448 0.11016 0.54392
 C2941 C 0.69467 0.12001 0.53406
 C2942 C 0.70005 0.13495 0.52843
 C2943 C 0.72089 0.15620 0.52719
 C2944 C 0.71071 0.16575 0.51774
 C2945 C 0.71589 0.18101 0.51280
 C2946 C 0.73106 0.18682 0.51743
 C2947 C 0.74114 0.17700 0.52686
 C2948 C 0.73613 0.16167 0.53172
 C2949 C 0.69021 0.14483 0.51892
 C2950 C 0.69547 0.15995 0.51364
 C2951 C 0.74077 0.13657 0.54628
 C2952 C 0.74598 0.15177 0.54117
 H2953 H 0.67831 0.14088 0.51558
 H2954 H 0.68747 0.16720 0.50639
 H2955 H 0.74872 0.12936 0.55363
 H2956 H 0.75778 0.15583 0.54473
 H2957 H 0.72833 0.10844 0.55449
 H2958 H 0.68245 0.11668 0.53137
 H2959 H 0.70796 0.18848 0.50569
 H2960 H 0.75284 0.18130 0.53048
 C2961 C 0.71389 0.63980 0.03175
 C2962 C 0.72478 0.62866 0.03813
 C2963 C 0.71908 0.61395 0.04402
 C2964 C 0.70256 0.61048 0.04383
 C2965 C 0.69184 0.62188 0.03739
 C2966 C 0.69743 0.63648 0.03125
 C2967 C 0.71978 0.65535 0.02572
 C2968 C 0.70885 0.66648 0.01935
 C2969 C 0.71447 0.68132 0.01381
 C2970 C 0.73084 0.68519 0.01492
 C2971 C 0.74164 0.67390 0.02135
 C2972 C 0.73618 0.65890 0.02667
 C2973 C 0.68687 0.64792 0.02481
 C2974 C 0.69249 0.66265 0.01889
 C2975 C 0.74114 0.63253 0.03864
 C2976 C 0.74673 0.64743 0.03308
 H2977 H 0.67414 0.64548 0.02436
 H2978 H 0.68395 0.67117 0.01407
 H2979 H 0.74968 0.62404 0.04354
 H2980 H 0.75942 0.65001 0.03385
 H2981 H 0.72748 0.60524 0.04876
 H2982 H 0.67908 0.61957 0.03750
 H2983 H 0.70605 0.69004 0.00911
 H2984 H 0.75426 0.67681 0.02224
 C2985 C 0.21314 0.61186 0.71843
 C2986 C 0.19678 0.61554 0.71926
 C2987 C 0.19127 0.62992 0.71252
 C2988 C 0.20199 0.64078 0.70517
 C2989 C 0.21843 0.63698 0.70473
 C2990 C 0.22404 0.62245 0.71119
 C2991 C 0.21889 0.59642 0.72493
 C2992 C 0.23514 0.59241 0.72349
 C2993 C 0.24039 0.57737 0.72896
 C2994 C 0.22952 0.56648 0.73597
 C2995 C 0.21336 0.57091 0.73774
 C2996 C 0.20794 0.58578 0.73205
 C2997 C 0.24028 0.61819 0.71034
 C2998 C 0.24573 0.60339 0.71631
 C2999 C 0.18620 0.60464 0.72657
 C3000 C 0.19170 0.59004 0.73292
 H3001 H 0.24883 0.62626 0.70480
 H3002 H 0.25831 0.60046 0.71519
 H3003 H 0.17355 0.60738 0.72730
 H3004 H 0.18313 0.58192 0.73835
 H3005 H 0.17855 0.63243 0.71264
 H3006 H 0.22685 0.64526 0.69932
 H3007 H 0.25285 0.57404 0.72757
 H3008 H 0.20487 0.56252 0.74291
 C3009 C 0.21523 0.11259 0.22158
 C3010 C 0.22570 0.12226 0.21264
 C3011 C 0.22035 0.13714 0.20683
 C3012 C 0.20447 0.14245 0.20961
 C3013 C 0.19430 0.13248 0.21897
 C3014 C 0.19960 0.11765 0.22491
 C3015 C 0.22061 0.09667 0.22721
 C3016 C 0.21000 0.08686 0.23588
 C3017 C 0.21498 0.07151 0.24071
 C3018 C 0.23037 0.06586 0.23669
 C3019 C 0.24093 0.07601 0.22821
 C3020 C 0.23611 0.09142 0.22346
 C3021 C 0.18938 0.10757 0.23379
 C3022 C 0.19450 0.09246 0.23920
 C3023 C 0.24127 0.11673 0.20945
 C3024 C 0.24637 0.10156 0.21473
 H3025 H 0.17726 0.11134 0.23645
 H3026 H 0.18619 0.08501 0.24587
 H3027 H 0.24951 0.12409 0.20261
 H3028 H 0.25839 0.09767 0.21180
 H3029 H 0.22881 0.14461 0.20041
 H3030 H 0.18190 0.13561 0.22092
 H3031 H 0.20671 0.06379 0.24711
 H3032 H 0.25283 0.07185 0.22510
 C3033 C 0.71449 1.11261 0.71573
 C3034 C 0.71875 1.11786 0.70030
 C3035 C 0.71179 1.13184 0.69412
 C3036 C 0.70073 1.14099 0.70330
 C3037 C 0.69688 1.13546 0.71900
 C3038 C 0.70357 1.12126 0.72514
 C3039 C 0.72136 1.09755 0.72201
 C3040 C 0.71667 1.09196 0.73724
 C3041 C 0.72266 1.07724 0.74281
 C3042 C 0.73332 1.06818 0.73327
 C3043 C 0.73828 1.07428 0.71825
 C3044 C 0.73220 1.08886 0.71250
 C3045 C 0.69944 1.11548 0.74050
 C3046 C 0.70581 1.10103 0.74641
 C3047 C 0.72972 1.10888 0.69117
 C3048 C 0.73642 1.09468 0.69721
 H3049 H 0.69104 1.12205 0.74792
 H3050 H 0.70212 1.09687 0.75819
 H3051 H 0.73314 1.11284 0.67923
 H3052 H 0.74483 1.08811 0.68979
 H3053 H 0.71455 1.13495 0.68180
 H3054 H 0.68904 1.14228 0.72678
 H3055 H 0.71876 1.07269 0.75439
 H3056 H 0.74636 1.06741 0.71072
 C3057 C 0.71152 0.61053 0.21696
 C3058 C 0.72225 0.62180 0.21054
 C3059 C 0.71628 0.63610 0.20397
 C3060 C 0.69966 0.63904 0.20344
 C3061 C 0.68909 0.62757 0.21002
 C3062 C 0.69496 0.61335 0.21686
 C3063 C 0.71772 0.59532 0.22359
 C3064 C 0.70697 0.58399 0.22991
 C3065 C 0.71288 0.56935 0.23574
 C3066 C 0.72935 0.56584 0.23491
 C3067 C 0.73998 0.57742 0.22871
 C3068 C 0.73423 0.59223 0.22311
 C3069 C 0.68459 0.60177 0.22339
 C3070 C 0.69050 0.58737 0.22985
 C3071 C 0.73873 0.61843 0.21062
 C3072 C 0.74461 0.60386 0.21672
 H3073 H 0.67179 0.60381 0.22341
 H3074 H 0.68208 0.57871 0.23465
 H3075 H 0.74713 0.62704 0.20571
 H3076 H 0.75737 0.60164 0.21632
 H3077 H 0.72458 0.64490 0.19923
 H3078 H 0.67629 0.62950 0.20947
 H3079 H 0.70458 0.56042 0.24027
 H3080 H 0.75267 0.57482 0.22802
 C3081 C 0.53380 0.13901 0.71508
 C3082 C 0.55024 0.13582 0.71637
 C3083 C 0.55626 0.12133 0.71034
 C3084 C 0.54596 0.10991 0.70324
 C3085 C 0.52944 0.11326 0.70225
 C3086 C 0.52333 0.12786 0.70802
 C3087 C 0.52749 0.15443 0.72104
 C3088 C 0.51113 0.15787 0.71930
 C3089 C 0.50527 0.17276 0.72459
 C3090 C 0.51564 0.18400 0.73180
 C3091 C 0.53197 0.18023 0.73366
 C3092 C 0.53799 0.16554 0.72814
 C3093 C 0.50699 0.13162 0.70671
 C3094 C 0.50100 0.14641 0.71218
 C3095 C 0.56037 0.14726 0.72351
 C3096 C 0.55434 0.16185 0.72936
 H3097 H 0.49878 0.12313 0.70127
 H3098 H 0.48835 0.14889 0.71080
 H3099 H 0.57308 0.14492 0.72457
 H3100 H 0.56256 0.17037 0.73475
 H3101 H 0.56902 0.11913 0.71085
 H3102 H 0.52135 0.10453 0.69701
 H3103 H 0.49270 0.17560 0.72310
 H3104 H 0.54008 0.18894 0.73894
 C3105 C 1.03633 0.13775 0.21724
 C3106 C 1.02569 0.12724 0.20949
 C3107 C 1.03147 0.11265 0.20332
 C3108 C 1.04786 0.10870 0.20449
 C3109 C 1.05834 0.11954 0.21222
 C3110 C 1.05262 0.13396 0.21876
 C3111 C 1.03035 0.15313 0.22369
 C3112 C 1.04099 0.16357 0.23154
 C3113 C 1.03534 0.17832 0.23736
 C3114 C 1.01926 0.18284 0.23502
 C3115 C 1.00871 0.17216 0.22722
 C3116 C 1.01417 0.15721 0.22164
 C3117 C 1.06289 0.14471 0.22672
 C3118 C 1.05715 0.15921 0.23309
 C3119 C 1.00951 0.13158 0.20796
 C3120 C 1.00387 0.14636 0.21384
 H3121 H 1.07548 0.14190 0.22803
 H3122 H 1.06545 0.16714 0.23916
 H3123 H 1.00117 0.12358 0.20201
 H3124 H 0.99135 0.14933 0.21223
 H3125 H 1.02317 0.10437 0.19769
 H3126 H 1.07102 0.11693 0.21295
 H3127 H 1.04360 0.18652 0.24318
 H3128 H 0.99631 0.17552 0.22539
 C3129 C 0.21143 0.64176 0.53426
 C3130 C 0.22226 0.63060 0.54072
 C3131 C 0.21644 0.61619 0.54713
 C3132 C 0.19988 0.61294 0.54732
 C3133 C 0.18918 0.62437 0.54090
 C3134 C 0.19490 0.63877 0.53428
 C3135 C 0.21752 0.65692 0.52744
 C3136 C 0.20670 0.66809 0.52094
 C3137 C 0.21256 0.68259 0.51469
 C3138 C 0.22906 0.68604 0.51520
 C3139 C 0.23972 0.67465 0.52168
 C3140 C 0.23402 0.66004 0.52775
 C3141 C 0.18444 0.65024 0.52770
 C3142 C 0.19025 0.66464 0.52111
 C3143 C 0.23871 0.63408 0.54063
 C3144 C 0.24449 0.64858 0.53431
 H3145 H 0.17166 0.64808 0.52764
 H3146 H 0.18177 0.67318 0.51621
 H3147 H 0.24718 0.62556 0.54558
 H3148 H 0.25725 0.65086 0.53460
 H3149 H 0.22481 0.60741 0.55178
 H3150 H 0.17641 0.62215 0.54118
 H3151 H 0.20424 0.69141 0.50996
 H3152 H 0.25243 0.67721 0.52212
 C3153 C 0.21274 0.13971 1.03386
 C3154 C 0.22355 0.12884 1.04083
 C3155 C 0.21780 0.11425 1.04699
 C3156 C 0.20133 0.11061 1.04643
 C3157 C 0.19068 0.12177 1.03946
 C3158 C 0.19632 0.13626 1.03306
 C3159 C 0.21867 0.15512 1.02750
 C3160 C 0.20784 0.16601 1.02058
 C3161 C 0.21347 0.18081 1.01491
 C3162 C 0.22975 0.18491 1.01648
 C3163 C 0.24049 0.17377 1.02331
 C3164 C 0.23501 0.15882 1.02877
 C3165 C 0.18585 0.14742 1.02601
 C3166 C 0.19152 0.16203 1.01982
 C3167 C 0.23986 0.13284 1.04162
 C3168 C 0.24549 0.14761 1.03576
 H3169 H 0.17316 0.14488 1.02532
 H3170 H 0.18303 0.17035 1.01456
 H3171 H 0.24833 0.12456 1.04696
 H3172 H 0.25813 0.15031 1.03678
 H3173 H 0.22615 0.10571 1.05212
 H3174 H 0.17795 0.11932 1.03925
 H3175 H 0.20508 0.18939 1.00990
 H3176 H 0.25304 0.17683 1.02456
 C3177 C 0.21517 0.71084 0.60809
 C3178 C 0.20864 0.72167 0.61924
 C3179 C 0.20213 0.71579 0.63363
 C3180 C 0.20190 0.69917 0.63684
 C3181 C 0.20847 0.68847 0.62544
 C3182 C 0.21518 0.69425 0.61108
 C3183 C 0.22201 0.71698 0.59291
 C3184 C 0.22857 0.70616 0.58173
 C3185 C 0.23483 0.71206 0.56721
 C3186 C 0.23426 0.72862 0.56374
 C3187 C 0.22772 0.73928 0.57515
 C3188 C 0.22165 0.73354 0.58978
 C3189 C 0.22184 0.68379 0.59960
 C3190 C 0.22845 0.68964 0.58519
 C3191 C 0.20869 0.73818 0.61577
 C3192 C 0.21503 0.74401 0.60126
 H3193 H 0.22192 0.67096 0.60175
 H3194 H 0.23340 0.68116 0.57664
 H3195 H 0.20368 0.74666 0.62429
 H3196 H 0.21470 0.75681 0.59898
 H3197 H 0.19738 0.72418 0.64239
 H3198 H 0.20816 0.67565 0.62763
 H3199 H 0.23961 0.70374 0.55839
 H3200 H 0.22724 0.75204 0.57259
 C3201 C 0.21694 0.21265 1.11313
 C3202 C 0.21006 0.22348 1.12408
 C3203 C 0.20387 0.21768 1.13866
 C3204 C 0.20425 0.20112 1.14223
 C3205 C 0.21118 0.19044 1.13102
 C3206 C 0.21762 0.19616 1.11652
 C3207 C 0.22337 0.21868 1.09773
 C3208 C 0.23024 0.20785 1.08677
 C3209 C 0.23602 0.21359 1.07200
 C3210 C 0.23464 0.22999 1.06802
 C3211 C 0.22782 0.24070 1.07923
 C3212 C 0.22224 0.23512 1.09414
 C3213 C 0.22462 0.18569 1.10526
 C3214 C 0.23087 0.19144 1.09066
 C3215 C 0.20941 0.23988 1.12018
 C3216 C 0.21533 0.24559 1.10544
 H3217 H 0.22523 0.17293 1.10773
 H3218 H 0.23610 0.18295 1.08229
 H3219 H 0.20413 0.24836 1.12853
 H3220 H 0.21442 0.25831 1.10282
 H3221 H 0.19884 0.22607 1.14725
 H3222 H 0.21133 0.17766 1.13344
 H3223 H 0.24104 0.20521 1.06337
 H3224 H 0.22670 0.25332 1.07627
 C3225 C 0.71574 0.53866 0.13892
 C3226 C 0.70892 0.52782 0.12792
 C3227 C 0.70229 0.53368 0.11355
 C3228 C 0.70225 0.55029 0.11023
 C3229 C 0.70901 0.56098 0.12155
 C3230 C 0.71587 0.55522 0.13583
 C3231 C 0.72273 0.53257 0.15404
 C3232 C 0.72956 0.54342 0.16503
 C3233 C 0.73587 0.53762 0.17956
 C3234 C 0.73505 0.52113 0.18328
 C3235 C 0.72830 0.51040 0.17203
 C3236 C 0.72219 0.51605 0.15735
 C3237 C 0.72282 0.56571 0.14711
 C3238 C 0.72959 0.55991 0.16144
 C3239 C 0.70884 0.51134 0.13154
 C3240 C 0.71529 0.50557 0.14604
 H3241 H 0.72300 0.57852 0.14485
 H3242 H 0.73476 0.56841 0.16985
 H3243 H 0.70361 0.50285 0.12316
 H3244 H 0.71482 0.49279 0.14845
 H3245 H 0.69735 0.52530 0.10488
 H3246 H 0.70879 0.57380 0.11934
 H3247 H 0.74080 0.54600 0.18824
 H3248 H 0.72760 0.49770 0.17480
 C3249 C 0.71422 1.03852 0.63964
 C3250 C 0.71512 1.05502 0.63631
 C3251 C 0.70907 1.06083 0.62168
 C3252 C 0.70242 1.05023 0.61021
 C3253 C 0.70179 1.03366 0.61375
 C3254 C 0.70750 1.02777 0.62851
 C3255 C 0.72034 1.03239 0.65513
 C3256 C 0.71901 1.01595 0.65870
 C3257 C 0.72448 1.01028 0.67366
 C3258 C 0.73156 1.02091 0.68478
 C3259 C 0.73302 1.03730 0.68086
 C3260 C 0.72725 1.04314 0.66615
 C3261 C 0.70659 1.01137 0.63239
 C3262 C 0.71215 1.00558 0.64727
 C3263 C 0.72202 1.06541 0.64771
 C3264 C 0.72805 1.05955 0.66234
 H3265 H 0.70141 1.00295 0.62390
 H3266 H 0.71109 0.99287 0.64983
 H3267 H 0.72279 1.07817 0.64529
 H3268 H 0.73330 1.06795 0.67079
 H3269 H 0.70936 1.07362 0.61935
 H3270 H 0.69698 1.02530 0.60499
 H3271 H 0.72331 0.99766 0.67663
 H3272 H 0.73820 1.04560 0.68947
 C3273 C 0.53343 0.21128 0.63907
 C3274 C 0.53977 0.22226 0.62795
 C3275 C 0.54601 0.21656 0.61336
 C3276 C 0.54628 0.19996 0.60995
 C3277 C 0.53990 0.18913 0.62132
 C3278 C 0.53336 0.19473 0.63583
 C3279 C 0.52688 0.21721 0.65445
 C3280 C 0.52041 0.20624 0.66551
 C3281 C 0.51425 0.21194 0.68014
 C3282 C 0.51486 0.22843 0.68386
 C3283 C 0.52147 0.23926 0.67267
 C3284 C 0.52737 0.23372 0.65787
 C3285 C 0.52686 0.18411 0.64724
 C3286 C 0.52043 0.18977 0.66180
 C3287 C 0.53984 0.23871 0.63170
 C3288 C 0.53383 0.24434 0.64645
 H3289 H 0.52673 0.17131 0.64489
 H3290 H 0.51554 0.18118 0.67026
 H3291 H 0.54472 0.24731 0.62323
 H3292 H 0.53424 0.25711 0.64893
 H3293 H 0.55060 0.22507 0.60464
 H3294 H 0.54027 0.17632 0.61905
 H3295 H 0.50941 0.20350 0.68881
 H3296 H 0.52197 0.25197 0.67547
 C3297 C 1.03461 0.21479 0.13979
 C3298 C 1.05082 0.21678 0.13591
 C3299 C 1.05653 0.21084 0.12124
 C3300 C 1.04614 0.20322 0.11023
 C3301 C 1.02982 0.20153 0.11426
 C3302 C 1.02403 0.20714 0.12911
 C3303 C 1.02867 0.22060 0.15546
 C3304 C 1.01258 0.21811 0.15967
 C3305 C 1.00716 0.22322 0.17485
 C3306 C 1.01768 0.23103 0.18556
 C3307 C 1.03369 0.23366 0.18098
 C3308 C 1.03929 0.22831 0.16605
 C3309 C 1.00794 0.20512 0.13361
 C3310 C 1.00234 0.21042 0.14866
 C3311 C 1.06108 0.22452 0.14684
 C3312 C 1.05539 0.23027 0.16164
 H3313 H 0.99964 0.19923 0.12550
 H3314 H 0.98989 0.20846 0.15172
 H3315 H 1.07362 0.22613 0.14395
 H3316 H 1.06369 0.23615 0.16976
 H3317 H 1.06919 0.21185 0.11860
 H3318 H 1.02163 0.19585 0.10588
 H3319 H 0.99483 0.22116 0.17833
 H3320 H 1.04193 0.23942 0.18925
 C3321 C 0.60385 0.21085 0.71134
 C3322 C 0.60685 0.21098 0.69470
 C3323 C 0.62137 0.20484 0.68893
 C3324 C 0.63303 0.19888 0.69967
 C3325 C 0.62975 0.19885 0.71635
 C3326 C 0.61514 0.20470 0.72222
 C3327 C 0.58860 0.21731 0.71747
 C3328 C 0.58544 0.21693 0.73409
 C3329 C 0.57083 0.22295 0.73983
 C3330 C 0.55962 0.22962 0.72908
 C3331 C 0.56305 0.23001 0.71247
 C3332 C 0.57745 0.22373 0.70658
 C3333 C 0.61161 0.20460 0.73878
 C3334 C 0.59697 0.21053 0.74460
 C3335 C 0.59530 0.21731 0.68417
 C3336 C 0.58087 0.22364 0.69002
 H3337 H 0.62021 0.19986 0.74731
 H3338 H 0.59471 0.21017 0.75744
 H3339 H 0.59747 0.21746 0.67130
 H3340 H 0.57231 0.22847 0.68149
 H3341 H 0.62353 0.20464 0.67606
 H3342 H 0.63866 0.19454 0.72479
 H3343 H 0.56822 0.22256 0.75261
 H3344 H 0.55435 0.23483 0.70407
 C3345 C 1.11150 0.21566 0.21750
 C3346 C 1.12129 0.22583 0.20833
 C3347 C 1.13612 0.22010 0.20277
 C3348 C 1.14093 0.20412 0.20588
 C3349 C 1.13066 0.19408 0.21487
 C3350 C 1.11616 0.19985 0.22095
 C3351 C 1.09596 0.22159 0.22346
 C3352 C 1.08637 0.21145 0.23288
 C3353 C 1.07156 0.21700 0.23836
 C3354 C 1.06603 0.23243 0.23418
 C3355 C 1.07582 0.24251 0.22474
 C3356 C 1.09091 0.23717 0.21948
 C3357 C 1.10620 0.19007 0.23039
 C3358 C 1.09164 0.19584 0.23641
 C3359 C 1.11600 0.24148 0.20484
 C3360 C 1.10101 0.24700 0.21021
 H3361 H 1.10973 0.17788 0.23322
 H3362 H 1.08439 0.18799 0.24379
 H3363 H 1.12342 0.24946 0.19776
 H3364 H 1.09732 0.25907 0.20708
 H3365 H 1.14387 0.22812 0.19611
 H3366 H 1.13376 0.18164 0.21699
 H3367 H 1.06410 0.20905 0.24546
 H3368 H 1.07169 0.25441 0.22147
 C3369 C 0.14224 0.71489 0.53811
 C3370 C 0.13125 0.70827 0.52717
 C3371 C 0.11680 0.70197 0.53293
 C3372 C 0.11333 0.70206 0.54955
 C3373 C 0.12461 0.70863 0.56038
 C3374 C 0.13904 0.71514 0.55471
 C3375 C 0.15742 0.72164 0.53208
 C3376 C 0.16839 0.72834 0.54300
 C3377 C 0.18289 0.73459 0.53720
 C3378 C 0.18652 0.73388 0.52063
 C3379 C 0.17532 0.72717 0.50987
 C3380 C 0.16072 0.72110 0.51551
 C3381 C 0.15034 0.72188 0.56528
 C3382 C 0.16475 0.72840 0.55953
 C3383 C 0.13493 0.70811 0.51065
 C3384 C 0.14945 0.71436 0.50493
 H3385 H 0.14802 0.72214 0.57812
 H3386 H 0.17314 0.73346 0.56810
 H3387 H 0.12655 0.70303 0.50209
 H3388 H 0.15186 0.71389 0.49212
 H3389 H 0.10815 0.69722 0.52444
 H3390 H 0.12224 0.70856 0.57321
 H3391 H 0.19154 0.73950 0.54560
 H3392 H 0.17801 0.72656 0.49710
 C3393 C 0.13911 0.21725 1.03771
 C3394 C 0.12883 0.20968 1.02667
 C3395 C 0.11437 0.20307 1.03218
 C3396 C 0.11027 0.20384 1.04864
 C3397 C 0.12087 0.21139 1.05952
 C3398 C 0.13522 0.21819 1.05411
 C3399 C 0.15438 0.22409 1.03203
 C3400 C 0.16470 0.23155 1.04311
 C3401 C 0.17942 0.23761 1.03774
 C3402 C 0.18398 0.23594 1.02149
 C3403 C 0.17336 0.22862 1.01051
 C3404 C 0.15852 0.22271 1.01571
 C3405 C 0.14581 0.22581 1.06482
 C3406 C 0.16028 0.23242 1.05941
 C3407 C 0.13327 0.20879 1.01037
 C3408 C 0.14789 0.21514 1.00500
 H3409 H 0.14291 0.22663 1.07752
 H3410 H 0.16816 0.23810 1.06808
 H3411 H 0.12545 0.20300 1.00172
 H3412 H 0.15094 0.21402 0.99236
 H3413 H 0.10629 0.19746 1.02366
 H3414 H 0.11809 0.21175 1.07226
 H3415 H 0.18758 0.24302 1.04634
 H3416 H 0.17675 0.22727 0.99798
 C3417 C 0.63995 0.53189 0.21234
 C3418 C 0.63670 0.53213 0.19576
 C3419 C 0.62230 0.53884 0.19032
 C3420 C 0.61105 0.54509 0.20133
 C3421 C 0.61448 0.54454 0.21796
 C3422 C 0.62897 0.53809 0.22352
 C3423 C 0.65529 0.52528 0.21809
 C3424 C 0.65880 0.52558 0.23463
 C3425 C 0.67371 0.51997 0.23996
 C3426 C 0.68498 0.51395 0.22888
 C3427 C 0.68107 0.51330 0.21238
 C3428 C 0.66631 0.51915 0.20690
 C3429 C 0.63277 0.53787 0.24001
 C3430 C 0.64747 0.53179 0.24546
 C3431 C 0.64798 0.52582 0.18493
 C3432 C 0.66252 0.51939 0.19041
 H3433 H 0.62439 0.54261 0.24875
 H3434 H 0.65002 0.53205 0.25826
 H3435 H 0.64559 0.52593 0.17210
 H3436 H 0.67094 0.51474 0.18165
 H3437 H 0.62001 0.53945 0.17749
 H3438 H 0.60587 0.54908 0.22659
 H3439 H 0.67664 0.52051 0.25267
 H3440 H 0.68977 0.50893 0.20375
 C3441 C 0.63918 1.03712 0.71579
 C3442 C 0.63534 1.05347 0.71706
 C3443 C 0.62096 1.05903 0.71045
 C3444 C 0.61023 1.04835 0.70284
 C3445 C 0.61425 1.03194 0.70178
 C3446 C 0.62878 1.02629 0.70812
 C3447 C 0.65450 1.03130 0.72240
 C3448 C 0.65862 1.01505 0.72063
 C3449 C 0.67351 1.00972 0.72636
 C3450 C 0.68409 1.02049 0.73399
 C3451 C 0.67956 1.03665 0.73602
 C3452 C 0.66486 1.04217 0.73006
 C3453 C 0.63320 1.01005 0.70686
 C3454 C 0.64790 1.00455 0.71293
 C3455 C 0.64601 1.06398 0.72482
 C3456 C 0.66050 1.05841 0.73127
 H3457 H 0.62529 1.00156 0.70098
 H3458 H 0.65092 0.99197 0.71153
 H3459 H 0.64316 1.07662 0.72589
 H3460 H 0.66843 1.06692 0.73710
 H3461 H 0.61826 1.07174 0.71103
 H3462 H 0.60608 1.02355 0.69613
 H3463 H 0.67693 0.99727 0.72475
 H3464 H 0.68773 1.04508 0.74164
 C3465 C 0.85080 0.45588 0.29546
 C3466 C 0.86261 0.44861 0.28590
 C3467 C 0.87520 0.44034 0.29340
 C3468 C 0.87603 0.43931 0.31033
 C3469 C 0.86384 0.44636 0.31970
 C3470 C 0.85123 0.45471 0.31233
 C3471 C 0.83781 0.46500 0.28766
 C3472 C 0.82608 0.47238 0.29723
 C3473 C 0.81372 0.48096 0.28976
 C3474 C 0.81281 0.48190 0.27283
 C3475 C 0.82468 0.47443 0.26340
 C3476 C 0.83729 0.46606 0.27078
 C3477 C 0.83914 0.46207 0.32149
 C3478 C 0.82680 0.47078 0.31407
 C3479 C 0.86169 0.44993 0.26905
 C3480 C 0.84922 0.45846 0.26162
 H3481 H 0.83928 0.46119 0.33452
 H3482 H 0.81775 0.47632 0.32158
 H3483 H 0.87070 0.44434 0.26154
 H3484 H 0.84892 0.45912 0.24859
 H3485 H 0.88458 0.43511 0.28607
 H3486 H 0.86420 0.44541 0.33271
 H3487 H 0.80443 0.48631 0.29712
 H3488 H 0.82395 0.47491 0.25038
 C3489 C 0.85694 0.96239 0.78750
 C3490 C 0.85984 0.94582 0.78659
 C3491 C 0.87408 0.93963 0.79300
 C3492 C 0.88556 0.94991 0.80002
 C3493 C 0.88241 0.96654 0.80077
 C3494 C 0.86807 0.97282 0.79465
 C3495 C 0.84194 0.96895 0.78085
 C3496 C 0.83886 0.98549 0.78207
 C3497 C 0.82444 0.99162 0.77598
 C3498 C 0.81331 0.98136 0.76846
 C3499 C 0.81669 0.96483 0.76718
 C3500 C 0.83091 0.95854 0.77350
 C3501 C 0.86464 0.98932 0.79551
 C3502 C 0.85025 0.99553 0.78941
 C3503 C 0.84843 0.93576 0.77930
 C3504 C 0.83423 0.94202 0.77281
 H3505 H 0.87312 0.99749 0.80103
 H3506 H 0.84803 1.00831 0.79041
 H3507 H 0.85052 0.92294 0.77855
 H3508 H 0.82576 0.93385 0.76727
 H3509 H 0.87615 0.92679 0.79262
 H3510 H 0.89119 0.97464 0.80592
 H3511 H 0.82187 1.00434 0.77706
 H3512 H 0.80804 0.95680 0.76169
 C3513 C 0.39068 0.28923 0.78896
 C3514 C 0.38275 0.28133 0.80155
 C3515 C 0.37019 0.28918 0.80955
 C3516 C 0.36607 0.30520 0.80565
 C3517 C 0.37459 0.31298 0.79318
 C3518 C 0.38651 0.30492 0.78454
 C3519 C 0.40384 0.28105 0.78046
 C3520 C 0.41154 0.28890 0.76769
 C3521 C 0.42460 0.28150 0.76020
 C3522 C 0.43034 0.26658 0.76574
 C3523 C 0.42207 0.25858 0.77819
 C3524 C 0.40875 0.26576 0.78555
 C3525 C 0.39437 0.31230 0.77155
 C3526 C 0.40647 0.30428 0.76308
 C3527 C 0.38763 0.26578 0.80595
 C3528 C 0.40052 0.25820 0.79821
 H3529 H 0.39110 0.32433 0.76786
 H3530 H 0.41206 0.31025 0.75297
 H3531 H 0.38163 0.25954 0.81568
 H3532 H 0.40415 0.24637 0.80223
 H3533 H 0.36367 0.28267 0.81871
 H3534 H 0.37220 0.32539 0.79020
 H3535 H 0.43085 0.28787 0.75072
 H3536 H 0.42633 0.24708 0.78255
 C3537 C 0.89963 0.29419 0.29609
 C3538 C 0.88796 0.30161 0.28649
 C3539 C 0.87533 0.30982 0.29393
 C3540 C 0.87435 0.31074 0.31087
 C3541 C 0.88639 0.30350 0.32030
 C3542 C 0.89902 0.29514 0.31297
 C3543 C 0.91268 0.28514 0.28831
 C3544 C 0.92424 0.27758 0.29793
 C3545 C 0.93662 0.26902 0.29049
 C3546 C 0.93771 0.26832 0.27356
 C3547 C 0.92607 0.27604 0.26408
 C3548 C 0.91341 0.28435 0.27142
 C3549 C 0.91097 0.28761 0.32218
 C3550 C 0.92336 0.27895 0.31478
 C3551 C 0.88906 0.30053 0.26963
 C3552 C 0.90161 0.29210 0.26222
 H3553 H 0.91069 0.28833 0.33521
 H3554 H 0.93232 0.27329 0.32232
 H3555 H 0.88015 0.30625 0.26209
 H3556 H 0.90206 0.29163 0.24918
 H3557 H 0.86605 0.31513 0.28654
 H3558 H 0.88592 0.30434 0.33332
 H3559 H 0.94578 0.26348 0.29788
 H3560 H 0.92699 0.27574 0.25106
 C3561 C 0.35079 0.79506 0.45285
 C3562 C 0.36269 0.80234 0.46228
 C3563 C 0.37500 0.81089 0.45467
 C3564 C 0.37542 0.81228 0.43774
 C3565 C 0.36307 0.80529 0.42851
 C3566 C 0.35079 0.79657 0.43600
 C3567 C 0.33816 0.78555 0.46076
 C3568 C 0.32639 0.77810 0.45130
 C3569 C 0.31435 0.76918 0.45887
 C3570 C 0.31375 0.76804 0.47581
 C3571 C 0.32565 0.77559 0.48513
 C3572 C 0.33800 0.78424 0.47764
 C3573 C 0.33864 0.78915 0.42696
 C3574 C 0.32667 0.78002 0.43448
 C3575 C 0.36218 0.80073 0.47912
 C3576 C 0.34999 0.79191 0.48668
 H3577 H 0.33843 0.79029 0.41396
 H3578 H 0.31756 0.77443 0.42707
 H3579 H 0.37127 0.80634 0.48654
 H3580 H 0.34998 0.79105 0.49970
 H3581 H 0.38451 0.81603 0.46190
 H3582 H 0.36309 0.80650 0.41551
 H3583 H 0.30496 0.76385 0.45159
 H3584 H 0.32510 0.77500 0.49816
 C3585 C 0.35051 0.29464 0.95645
 C3586 C 0.35111 0.29553 0.93956
 C3587 C 0.36393 0.30351 0.93220
 C3588 C 0.37616 0.31048 0.94160
 C3589 C 0.37518 0.30971 0.95853
 C3590 C 0.36237 0.30182 0.96602
 C3591 C 0.33727 0.28592 0.96425
 C3592 C 0.33658 0.28514 0.98115
 C3593 C 0.32376 0.27712 0.98851
 C3594 C 0.31188 0.26969 0.97906
 C3595 C 0.31294 0.27038 0.96212
 C3596 C 0.32550 0.27862 0.95466
 C3597 C 0.36129 0.30079 0.98288
 C3598 C 0.34857 0.29265 0.99032
 C3599 C 0.33897 0.28827 0.93038
 C3600 C 0.32639 0.27993 0.93781
 H3601 H 0.37034 0.30633 0.99040
 H3602 H 0.34815 0.29219 1.00335
 H3603 H 0.33924 0.28894 0.91735
 H3604 H 0.31731 0.27443 0.93030
 H3605 H 0.36443 0.30427 0.91918
 H3606 H 0.38459 0.31489 0.96587
 H3607 H 0.32290 0.27681 1.00154
 H3608 H 0.30363 0.26506 0.95474
 C3609 C 0.79475 0.45541 0.35083
 C3610 C 0.80126 0.46539 0.36278
 C3611 C 0.80889 0.45843 0.37606
 C3612 C 0.81008 0.44161 0.37748
 C3613 C 0.80378 0.43177 0.36518
 C3614 C 0.79607 0.43863 0.35182
 C3615 C 0.78617 0.46270 0.33714
 C3616 C 0.77947 0.45275 0.32527
 C3617 C 0.77126 0.45976 0.31233
 C3618 C 0.76998 0.47660 0.31112
 C3619 C 0.77683 0.48639 0.32311
 C3620 C 0.78485 0.47949 0.33620
 C3621 C 0.78945 0.42907 0.33954
 C3622 C 0.78129 0.43601 0.32648
 C3623 C 0.79977 0.48213 0.36139
 C3624 C 0.79174 0.48906 0.34829
 H3625 H 0.79048 0.41611 0.34008
 H3626 H 0.77632 0.42821 0.31730
 H3627 H 0.80479 0.48993 0.37053
 H3628 H 0.79086 0.50203 0.34765
 H3629 H 0.81345 0.46611 0.38556
 H3630 H 0.80479 0.41883 0.36608
 H3631 H 0.76638 0.45216 0.30293
 H3632 H 0.77605 0.49934 0.32214
 C3633 C 0.78747 0.96300 0.85834
 C3634 C 0.80390 0.96412 0.86162
 C3635 C 0.80985 0.95788 0.87610
 C3636 C 0.79948 0.95080 0.88747
 C3637 C 0.78299 0.94979 0.88393
 C3638 C 0.77695 0.95577 0.86933
 C3639 C 0.78117 0.96950 0.84308
 C3640 C 0.76477 0.96812 0.83962
 C3641 C 0.75889 0.97416 0.82498
 C3642 C 0.76926 0.98182 0.81403
 C3643 C 0.78565 0.98320 0.81779
 C3644 C 0.79169 0.97693 0.83221
 C3645 C 0.76059 0.95470 0.86551
 C3646 C 0.75462 0.96069 0.85087
 C3647 C 0.81408 0.97148 0.85035
 C3648 C 0.80806 0.97783 0.83592
 H3649 H 0.75234 0.94912 0.87387
 H3650 H 0.74195 0.95955 0.84836
 H3651 H 0.82679 0.97240 0.85274
 H3652 H 0.81631 0.98345 0.82758
 H3653 H 0.82260 0.95842 0.87843
 H3654 H 0.77483 0.94455 0.89260
 H3655 H 0.74627 0.97301 0.82214
 H3656 H 0.79377 0.98880 0.80930
 C3657 C 0.29577 0.79757 0.39936
 C3658 C 0.30335 0.78821 0.38755
 C3659 C 0.31208 0.79585 0.37534
 C3660 C 0.31332 0.81274 0.37492
 C3661 C 0.30601 0.82189 0.38717
 C3662 C 0.29715 0.81438 0.39937
 C3663 C 0.28611 0.78962 0.41188
 C3664 C 0.27840 0.79899 0.42359
 C3665 C 0.26938 0.79138 0.43556
 C3666 C 0.26837 0.77448 0.43616
 C3667 C 0.27613 0.76525 0.42429
 C3668 C 0.28491 0.77278 0.41203
 C3669 C 0.28946 0.82333 0.41145
 C3670 C 0.28021 0.81577 0.42334
 C3671 C 0.30184 0.77141 0.38804
 C3672 C 0.29285 0.76382 0.40012
 H3673 H 0.29051 0.83630 0.41166
 H3674 H 0.27445 0.82311 0.43241
 H3675 H 0.30768 0.76406 0.37902
 H3676 H 0.29208 0.75084 0.40012
 H3677 H 0.31749 0.78869 0.36590
 H3678 H 0.30711 0.83486 0.38713
 H3679 H 0.26388 0.79858 0.44494
 H3680 H 0.27564 0.75226 0.42484
 C3681 C 0.29480 0.29706 0.90177
 C3682 C 0.30170 0.28734 0.88985
 C3683 C 0.30953 0.29458 0.87684
 C3684 C 0.31059 0.31144 0.87570
 C3685 C 0.30401 0.32101 0.88806
 C3686 C 0.29600 0.31387 0.90108
 C3687 C 0.28588 0.28949 0.91506
 C3688 C 0.27868 0.29920 0.92682
 C3689 C 0.27017 0.29193 0.93939
 C3690 C 0.26912 0.27506 0.94040
 C3691 C 0.27643 0.26551 0.92852
 C3692 C 0.28472 0.27267 0.91574
 C3693 C 0.28889 0.32319 0.91325
 C3694 C 0.28033 0.31597 0.92587
 C3695 C 0.30034 0.27056 0.89096
 C3696 C 0.29205 0.26335 0.90374
 H3697 H 0.28979 0.33616 0.91293
 H3698 H 0.27489 0.32359 0.93491
 H3699 H 0.30567 0.26294 0.88185
 H3700 H 0.29130 0.25036 0.90417
 H3701 H 0.31427 0.28707 0.86731
 H3702 H 0.30493 0.33397 0.88743
 H3703 H 0.26491 0.29936 0.94871
 H3704 H 0.27582 0.25253 0.92935
 C3705 C 0.45358 0.29341 0.85201
 C3706 C 0.46328 0.30161 0.86310
 C3707 C 0.45612 0.30933 0.87630
 C3708 C 0.43935 0.30916 0.87828
 C3709 C 0.42983 0.30110 0.86679
 C3710 C 0.43688 0.29307 0.85376
 C3711 C 0.46103 0.28511 0.83822
 C3712 C 0.45130 0.27676 0.82727
 C3713 C 0.45840 0.26902 0.81413
 C3714 C 0.47505 0.26994 0.81160
 C3715 C 0.48466 0.27841 0.82265
 C3716 C 0.47771 0.28587 0.83613
 C3717 C 0.42754 0.28471 0.84244
 C3718 C 0.43464 0.27663 0.82946
 C3719 C 0.47994 0.30190 0.86076
 C3720 C 0.48702 0.29427 0.84745
 H3721 H 0.41463 0.28438 0.84365
 H3722 H 0.42701 0.27032 0.82100
 H3723 H 0.48757 0.30820 0.86922
 H3724 H 0.49988 0.29494 0.84601
 H3725 H 0.46365 0.31526 0.88511
 H3726 H 0.41691 0.30114 0.86790
 H3727 H 0.45085 0.26286 0.80547
 H3728 H 0.49745 0.27927 0.82068
 C3729 C 0.95736 0.29009 0.35585
 C3730 C 0.95122 0.27992 0.36781
 C3731 C 0.94473 0.28666 0.38181
 C3732 C 0.94422 0.30346 0.38388
 C3733 C 0.95009 0.31350 0.37155
 C3734 C 0.95677 0.30686 0.35754
 C3735 C 0.96482 0.28302 0.34141
 C3736 C 0.97134 0.29319 0.32965
 C3737 C 0.97877 0.28640 0.31616
 C3738 C 0.97946 0.26960 0.31426
 C3739 C 0.97259 0.25958 0.32600
 C3740 C 0.96541 0.26624 0.33972
 C3741 C 0.96306 0.31664 0.34530
 C3742 C 0.97026 0.30992 0.33159
 C3743 C 0.95193 0.26320 0.36566
 C3744 C 0.95883 0.25647 0.35181
 H3745 H 0.96259 0.32960 0.34640
 H3746 H 0.97509 0.31788 0.32248
 H3747 H 0.94716 0.25524 0.37479
 H3748 H 0.95917 0.24352 0.35063
 H3749 H 0.94048 0.27880 0.39129
 H3750 H 0.94955 0.32643 0.37289
 H3751 H 0.98366 0.29420 0.30693
 H3752 H 0.97293 0.24665 0.32448
 C3753 C 0.45792 0.35750 0.78372
 C3754 C 0.46789 0.36735 0.79307
 C3755 C 0.46140 0.38095 0.80060
 C3756 C 0.44492 0.38446 0.79927
 C3757 C 0.43512 0.37427 0.78992
 C3758 C 0.44159 0.36096 0.78194
 C3759 C 0.46462 0.34308 0.77594
 C3760 C 0.45462 0.33326 0.76657
 C3761 C 0.46080 0.31914 0.75984
 C3762 C 0.47677 0.31458 0.76280
 C3763 C 0.48677 0.32481 0.77185
 C3764 C 0.48076 0.33913 0.77840
 C3765 C 0.43201 0.35096 0.77230
 C3766 C 0.43847 0.33745 0.76460
 C3767 C 0.48412 0.36329 0.79485
 C3768 C 0.49042 0.34935 0.78774
 H3769 H 0.41941 0.35358 0.77070
 H3770 H 0.43073 0.33013 0.75721
 H3771 H 0.49196 0.37080 0.80203
 H3772 H 0.50292 0.34648 0.78968
 H3773 H 0.46921 0.38878 0.80744
 H3774 H 0.42238 0.37647 0.78902
 H3775 H 0.45294 0.31128 0.75307
 H3776 H 0.49908 0.32142 0.77417
 C3777 C 0.95316 0.34889 0.29662
 C3778 C 0.93638 0.34977 0.29676
 C3779 C 0.92890 0.36264 0.30466
 C3780 C 0.93808 0.37474 0.31217
 C3781 C 0.95493 0.37352 0.31198
 C3782 C 0.96251 0.36058 0.30434
 C3783 C 0.96111 0.33557 0.28808
 C3784 C 0.97790 0.33458 0.28813
 C3785 C 0.98540 0.32177 0.28015
 C3786 C 0.97622 0.31023 0.27188
 C3787 C 0.95940 0.31155 0.27179
 C3788 C 0.95178 0.32409 0.28003
 C3789 C 0.97927 0.35921 0.30412
 C3790 C 0.98683 0.34637 0.29624
 C3791 C 0.92743 0.33784 0.28883
 C3792 C 0.93501 0.32527 0.28054
 H3793 H 0.98661 0.36813 0.31010
 H3794 H 0.99977 0.34573 0.29641
 H3795 H 0.91448 0.33832 0.28889
 H3796 H 0.92768 0.31643 0.27445
 H3797 H 0.91595 0.36324 0.30493
 H3798 H 0.96219 0.38284 0.31742
 H3799 H 0.99833 0.32072 0.28042
 H3800 H 0.95221 0.30250 0.26580
 C3801 C 0.29824 0.85036 0.45522
 C3802 C 0.31499 0.85021 0.45387
 C3803 C 0.32261 0.86236 0.44506
 C3804 C 0.31363 0.87474 0.43782
 C3805 C 0.29680 0.87449 0.43908
 C3806 C 0.28905 0.86230 0.44771
 C3807 C 0.29017 0.83783 0.46478
 C3808 C 0.27339 0.83779 0.46589
 C3809 C 0.26576 0.82552 0.47456
 C3810 C 0.27484 0.81357 0.48230
 C3811 C 0.29168 0.81406 0.48139
 C3812 C 0.29939 0.82602 0.47246
 C3813 C 0.27230 0.86192 0.44915
 C3814 C 0.26460 0.84982 0.45801
 C3815 C 0.32379 0.83802 0.46153
 C3816 C 0.31612 0.82617 0.47071
 H3817 H 0.26507 0.87105 0.44335
 H3818 H 0.25166 0.84991 0.45871
 H3819 H 0.33671 0.83771 0.46051
 H3820 H 0.32334 0.81702 0.47647
 H3821 H 0.33553 0.86224 0.44394
 H3822 H 0.28975 0.88403 0.43375
 H3823 H 0.25280 0.82504 0.47497
 H3824 H 0.29877 0.80463 0.48687
 C3825 C 0.29691 0.35011 0.95657
 C3826 C 0.28755 0.36199 0.94916
 C3827 C 0.29512 0.37430 0.94051
 C3828 C 0.31194 0.37473 0.93914
 C3829 C 0.32109 0.36244 0.94634
 C3830 C 0.31365 0.35016 0.95513
 C3831 C 0.28902 0.33740 0.96607
 C3832 C 0.29840 0.32560 0.97358
 C3833 C 0.29084 0.31346 0.98244
 C3834 C 0.27401 0.31282 0.98348
 C3835 C 0.26479 0.32480 0.97592
 C3836 C 0.27226 0.33720 0.96729
 C3837 C 0.32261 0.33802 0.96268
 C3838 C 0.31511 0.32599 0.97179
 C3839 C 0.27082 0.36144 0.95072
 C3840 C 0.26330 0.34922 0.95957
 H3841 H 0.33553 0.33787 0.96162
 H3842 H 0.32246 0.31692 0.97748
 H3843 H 0.26346 0.37052 0.94503
 H3844 H 0.25036 0.34918 0.96037
 H3845 H 0.28795 0.38376 0.93522
 H3846 H 0.33400 0.36247 0.94514
 H3847 H 0.29803 0.30408 0.98788
 H3848 H 0.25185 0.32427 0.97649
 C3849 C 0.79748 0.40003 0.29305
 C3850 C 0.78789 0.38798 0.29986
 C3851 C 0.79519 0.37527 0.30811
 C3852 C 0.81197 0.37461 0.30973
 C3853 C 0.82139 0.38702 0.30311
 C3854 C 0.81420 0.39971 0.29467
 C3855 C 0.78986 0.41316 0.28396
 C3856 C 0.79945 0.42509 0.27696
 C3857 C 0.79213 0.43759 0.26839
 C3858 C 0.77533 0.43838 0.26713
 C3859 C 0.76590 0.42629 0.27420
 C3860 C 0.77311 0.41358 0.28254
 C3861 C 0.82339 0.41201 0.28769
 C3862 C 0.81614 0.42445 0.27893
 C3863 C 0.77118 0.38878 0.29814
 C3864 C 0.76391 0.40141 0.28970
 H3865 H 0.83630 0.41196 0.28891
 H3866 H 0.82366 0.43364 0.27366
 H3867 H 0.76366 0.37957 0.30339
 H3868 H 0.75099 0.40163 0.28872
 H3869 H 0.78782 0.36571 0.31291
 H3870 H 0.83428 0.38678 0.30449
 H3871 H 0.79946 0.44707 0.26333
 H3872 H 0.75296 0.42693 0.27344
   
