data_POSCAR
  _audit_creation_date              2014-09-24
  _audit_creation_method            'ToBaCCo'
  _symmetry_space_group_name_H-M    'P1'
  _symmetry_Int_Tables_number       1
  _symmetry_cell_setting            triclinic
  loop_
  _symmetry_equiv_pos_as_xyz
 x,y,z
_cell_length_a 36.1512
_cell_length_b 36.1666
_cell_length_c 36.1373
_cell_angle_alpha 90.052400
_cell_angle_beta 90.004400
_cell_angle_gamma 90.033400
loop_
  _atom_site_label
  _atom_site_type_symbol
  _atom_site_fract_x
  _atom_site_fract_y
  _atom_site_fract_z
C1 C 0.26439 1.09419 -0.00262
 C2 C 0.26854 1.07462 0.03071
 C3 C 0.26605 1.03598 0.02952
 C4 C 0.25509 1.01730 -0.00296
 C5 C 0.24943 1.03806 -0.03557
 C6 C 0.25547 1.07656 -0.03619
 C7 C 0.24875 0.97629 -0.00219
 C8 C 0.25171 0.95479 -0.03456
 C9 C 0.24505 0.91648 -0.03399
 C10 C 0.24092 0.89908 0.00068
 C11 C 0.23961 0.91964 0.03385
 C12 C 0.24047 0.95828 0.03138
 H13 H 0.26672 1.12409 -0.00222
 H14 H 0.27175 1.02035 0.05409
 H15 H 0.23957 1.02416 -0.05993
 H16 H 0.26024 0.96775 -0.05996
 H17 H 0.23914 0.86919 0.00193
 H18 H 0.23522 0.97449 0.05568
 C19 C 0.76232 0.59355 0.49645
 C20 C 0.76750 0.57354 0.52927
 C21 C 0.76523 0.53499 0.52787
 C22 C 0.75400 0.51651 0.49534
 C23 C 0.74802 0.53755 0.46296
 C24 C 0.75349 0.57608 0.46289
 C25 C 0.74782 0.47550 0.49589
 C26 C 0.75064 0.45412 0.46342
 C27 C 0.74447 0.41572 0.46402
 C28 C 0.74063 0.39826 0.49869
 C29 C 0.73927 0.41876 0.53186
 C30 C 0.73985 0.45739 0.52946
 H31 H 0.76427 0.62345 0.49717
 H32 H 0.77130 0.51944 0.55243
 H33 H 0.73845 0.52400 0.43826
 H34 H 0.75869 0.46727 0.43797
 H35 H 0.73912 0.36836 0.49992
 H36 H 0.73469 0.47352 0.55382
 C37 C 0.74039 0.99775 1.09304
 C38 C 0.73993 0.96344 1.07467
 C39 C 0.73882 0.96355 1.03573
 C40 C 0.74355 0.99664 1.01549
 C41 C 0.74627 1.03023 1.03530
 C42 C 0.74147 1.03148 1.07377
 C43 C 0.74636 0.99635 0.97395
 C44 C 0.74060 1.02906 0.95364
 C45 C 0.74746 1.03067 0.91556
 C46 C 0.75321 0.99721 0.89643
 C47 C 0.75577 0.96321 0.91532
 C48 C 0.75514 0.96378 0.95424
 H49 H 0.74037 0.99812 1.12306
 H50 H 0.73433 0.93809 1.02115
 H51 H 0.75325 1.05542 1.02108
 H52 H 0.73023 1.05333 0.96732
 H53 H 0.75547 0.99759 0.86653
 H54 H 0.76164 0.93903 0.96918
 C55 C 0.24594 0.49900 0.59372
 C56 C 0.24471 0.46458 0.57581
 C57 C 0.24310 0.46392 0.53693
 C58 C 0.24698 0.49676 0.51610
 C59 C 0.25040 0.53060 0.53539
 C60 C 0.24696 0.53227 0.57387
 C61 C 0.24781 0.49620 0.47451
 C62 C 0.24089 0.52886 0.45451
 C63 C 0.24663 0.53073 0.41631
 C64 C 0.25214 0.49746 0.39686
 C65 C 0.25531 0.46337 0.41546
 C66 C 0.25585 0.46367 0.45442
 H67 H 0.24610 0.49987 0.62371
 H68 H 0.23875 0.43806 0.52299
 H69 H 0.25661 0.55575 0.52079
 H70 H 0.23058 0.55293 0.46857
 H71 H 0.25371 0.49806 0.36692
 H72 H 0.26275 0.43882 0.46904
 C73 C 1.09210 0.25607 0.00214
 C74 C 1.07393 0.25662 0.03652
 C75 C 1.03493 0.25761 0.03654
 C76 C 1.01460 0.25350 0.00329
 C77 C 1.03430 0.25097 -0.03032
 C78 C 1.07266 0.25514 -0.03136
 C79 C 0.97308 0.25123 0.00326
 C80 C 0.95301 0.25784 -0.02950
 C81 C 0.91491 0.25075 -0.03177
 C82 C 0.89559 0.24493 0.00173
 C83 C 0.91433 0.24197 0.03587
 C84 C 0.95321 0.24202 0.03549
 H85 H 1.12210 0.25621 0.00144
 H86 H 1.02042 0.26166 0.06212
 H87 H 1.02014 0.24479 -0.05578
 H88 H 0.96698 0.26909 -0.05324
 H89 H 0.86567 0.24298 0.00136
 H90 H 0.96801 0.23481 0.06015
 C91 C 0.59424 0.75879 0.50115
 C92 C 0.57676 0.75268 0.53526
 C93 C 0.53814 0.74820 0.53572
 C94 C 0.51687 0.75364 0.50341
 C95 C 0.53540 0.76285 0.47025
 C96 C 0.57404 0.76339 0.46832
 C97 C 0.47557 0.74922 0.50379
 C98 C 0.45636 0.74235 0.47061
 C99 C 0.41772 0.74368 0.46904
 C100 C 0.39800 0.74458 0.50265
 C101 C 0.41640 0.74706 0.53698
 C102 C 0.45496 0.75229 0.53680
 H103 H 0.62419 0.75960 0.50012
 H104 H 0.52478 0.73966 0.56084
 H105 H 0.51982 0.76891 0.44571
 H106 H 0.47154 0.73587 0.44593
 H107 H 0.36805 0.74357 0.50206
 H108 H 0.46876 0.75952 0.56215
 C109 C -0.00196 0.73613 -0.09290
 C110 C 0.03097 0.73224 -0.07278
 C111 C 0.02941 0.73454 -0.03420
 C112 C -0.00349 0.74490 -0.01590
 C113 C -0.03580 0.75038 -0.03713
 C114 C -0.03584 0.74458 -0.07569
 C115 C -0.00356 0.75103 0.02514
 C116 C -0.03628 0.74768 0.04607
 C117 C -0.03662 0.75491 0.08440
 C118 C -0.00210 0.75909 0.10238
 C119 C 0.03137 0.76035 0.08236
 C120 C 0.02952 0.75973 0.04370
 H121 H -0.00096 0.73379 -0.12281
 H122 H 0.05405 0.72917 -0.01849
 H123 H -0.06038 0.75992 -0.02348
 H124 H -0.06118 0.73847 0.03257
 H125 H -0.00116 0.76096 0.13231
 H126 H 0.05392 0.76558 0.02786
 C127 C 0.49711 0.23705 0.40638
 C128 C 0.52993 0.23232 0.42648
 C129 C 0.52844 0.23452 0.46504
 C130 C 0.49583 0.24553 0.48345
 C131 C 0.46340 0.25110 0.46231
 C132 C 0.46346 0.24549 0.42376
 C133 C 0.49641 0.25195 0.52446
 C134 C 0.46402 0.24917 0.54591
 C135 C 0.46470 0.25557 0.58432
 C136 C 0.49943 0.25939 0.60174
 C137 C 0.53255 0.26057 0.58115
 C138 C 0.52999 0.26009 0.54251
 H139 H 0.49791 0.23512 0.37646
 H140 H 0.55302 0.22861 0.48066
 H141 H 0.43862 0.26053 0.47577
 H142 H 0.43855 0.24102 0.53282
 H143 H 0.50075 0.26103 0.63166
 H144 H 0.55424 0.26556 0.52632
 C145 C 1.10278 0.00345 0.24567
 C146 C 1.08400 0.03769 0.24455
 C147 C 1.04495 0.03693 0.24516
 C148 C 1.02537 0.00409 0.25342
 C149 C 1.04589 -0.02852 0.25868
 C150 C 1.08368 -0.03003 0.25095
 C151 C 0.98383 0.00320 0.25650
 C152 C 0.96452 -0.03086 0.25520
 C153 C 0.92623 -0.03268 0.26109
 C154 C 0.90644 0.00069 0.26216
 C155 C 0.92415 0.03508 0.26002
 C156 C 0.96296 0.03604 0.26000
 H157 H 1.13264 0.00291 0.24299
 H158 H 1.02987 0.06164 0.23884
 H159 H 1.03273 -0.05295 0.26932
 H160 H 0.97886 -0.05598 0.24834
 H161 H 0.87647 -0.00002 0.26348
 H162 H 0.97661 0.06226 0.26274
 C163 C 0.60235 0.50012 0.74038
 C164 C 0.58498 0.53473 0.74483
 C165 C 0.54664 0.53530 0.75149
 C166 C 0.52518 0.50287 0.74869
 C167 C 0.54319 0.46936 0.74032
 C168 C 0.58183 0.46700 0.73908
 C169 C 0.48420 0.50346 0.75524
 C170 C 0.46567 0.47093 0.76635
 C171 C 0.42711 0.46970 0.76903
 C172 C 0.40722 0.50268 0.76455
 C173 C 0.42471 0.53609 0.75534
 C174 C 0.46319 0.53590 0.74955
 H175 H 0.63224 0.49890 0.73840
 H176 H 0.53359 0.56068 0.75989
 H177 H 0.52700 0.44502 0.73532
 H178 H 0.48118 0.44626 0.77203
 H179 H 0.37734 0.50210 0.76699
 H180 H 0.47675 0.56057 0.74003
 C181 C 1.00269 1.10350 0.75478
 C182 C 0.96911 1.08423 0.74933
 C183 C 0.97120 1.04598 0.74288
 C184 C 1.00403 1.02594 0.74940
 C185 C 1.03635 1.04590 0.75812
 C186 C 1.03678 1.08474 0.75778
 C187 C 1.00413 0.98437 0.74748
 C188 C 1.03736 0.96399 0.74341
 C189 C 1.03737 0.92499 0.74461
 C190 C 1.00297 0.90683 0.74518
 C191 C 0.96949 0.92628 0.74618
 C192 C 0.97057 0.96464 0.75025
 H193 H 1.00241 1.13342 0.75643
 H194 H 0.94732 1.03188 0.73211
 H195 H 1.06106 1.03117 0.76528
 H196 H 1.06293 0.97846 0.73910
 H197 H 1.00226 0.87684 0.74503
 H198 H 0.94515 0.97880 0.75649
 C199 C 0.50099 0.60288 0.25562
 C200 C 0.46762 0.58273 0.25646
 C201 C 0.46969 0.54414 0.25768
 C202 C 0.50309 0.52535 0.25068
 C203 C 0.53582 0.54638 0.24775
 C204 C 0.53554 0.58493 0.25314
 C205 C 0.50313 0.48406 0.24595
 C206 C 0.53564 0.46294 0.25098
 C207 C 0.53522 0.42428 0.24654
 C208 C 0.50114 0.40672 0.24064
 C209 C 0.46827 0.42676 0.23629
 C210 C 0.47003 0.46536 0.23683
 H211 H 0.50004 0.63280 0.25670
 H212 H 0.44519 0.52868 0.26416
 H213 H 0.56131 0.53290 0.24048
 H214 H 0.56086 0.47640 0.25911
 H215 H 0.50018 0.37677 0.23982
 H216 H 0.44540 0.48077 0.23084
 O217 O 0.26318 0.15461 0.18785
 O218 O 0.30527 0.14855 0.24131
 O219 O 0.16425 0.19528 0.24084
 O220 O 0.15090 0.24319 0.28010
 O221 O 0.20598 0.25004 0.14422
 O222 O 0.25761 0.29167 0.13322
 O223 O 0.25940 0.30474 0.33337
 O224 O 0.21582 0.25349 0.34384
 O225 O 0.35451 0.25177 0.28933
 O226 O 0.36233 0.20751 0.23612
 O227 O 0.30861 0.34655 0.23605
 O228 O 0.25233 0.35396 0.19417
 O229 O 0.25964 0.34755 0.28737
 O230 O 0.21798 0.35870 0.23817
 O231 O 0.35263 0.30207 0.24208
 O232 O 0.36307 0.25430 0.19589
 O233 O 0.31047 0.25486 0.33425
 O234 O 0.26310 0.21493 0.34938
 O235 O 0.26005 0.19941 0.14377
 O236 O 0.29724 0.25049 0.13126
 O237 O 0.16156 0.24868 0.18879
 O238 O 0.15151 0.28945 0.23972
 O239 O 0.21029 0.15233 0.23810
 O240 O 0.25689 0.14437 0.28143
 Zr241 Zr 0.25863 0.18407 0.23836
 O242 O 0.29184 0.21710 0.27297
 Zr243 Zr 0.19195 0.24713 0.23852
 O244 O 0.22337 0.28372 0.27192
 Zr245 Zr 0.25646 0.24891 0.17312
 O246 O 0.29125 0.28360 0.20395
 Zr247 Zr 0.25984 0.25332 0.30527
 O248 O 0.22587 0.21636 0.27449
 Zr249 Zr 0.32414 0.25194 0.23982
 O250 O 0.29311 0.21684 0.20502
 Zr251 Zr 0.25844 0.31643 0.23866
 O252 O 0.22305 0.28376 0.20527
 O253 O 0.22329 0.21368 0.20395
 O254 O 0.29373 0.28740 0.27376
 C255 C 0.26344 0.16566 0.15400
 C256 C 0.17607 0.16155 0.24012
 C257 C 0.17204 0.25043 0.15485
 C258 C 0.25958 0.33837 0.32160
 C259 C 0.34433 0.25336 0.32337
 C260 C 0.34244 0.33580 0.23845
 H261 H 0.30717 0.20084 0.28869
 H262 H 0.30667 0.29832 0.18679
 H263 H 0.20798 0.19753 0.18796
 H264 H 0.20668 0.29902 0.28725
 H265 H 0.19966 0.23225 0.33758
 H266 H 0.15781 0.26047 0.30018
 H267 H 0.38779 0.26033 0.20624
 H268 H 0.31953 0.23869 0.14187
 H269 H 0.27197 0.19132 0.33890
 H270 H 0.23898 0.15345 0.30006
 H271 H 0.27428 0.35145 0.17801
 H272 H 0.23804 0.30951 0.14013
 H273 H 0.29766 0.12328 0.23370
 H274 H 0.36031 0.19235 0.25880
 H275 H 0.15998 0.30892 0.22245
 H276 H 0.19761 0.35083 0.25463
 O277 O 0.75002 0.85462 0.20523
 O278 O 0.71084 0.86687 0.25727
 O279 O 0.84682 0.80924 0.26103
 O280 O 0.85715 0.76096 0.29913
 O281 O 0.80464 0.75877 0.16265
 O282 O 0.75008 0.71660 0.15195
 O283 O 0.74804 0.70954 0.35307
 O284 O 0.79148 0.75862 0.36248
 O285 O 0.65358 0.76346 0.30799
 O286 O 0.64648 0.80574 0.25139
 O287 O 0.69497 0.66551 0.25851
 O288 O 0.74109 0.65479 0.21540
 O289 O 0.74323 0.66464 0.30926
 O290 O 0.79002 0.65485 0.26128
 O291 O 0.65259 0.71204 0.25757
 O292 O 0.64093 0.76171 0.21759
 O293 O 0.69823 0.75927 0.35211
 O294 O 0.74710 0.79981 0.36569
 O295 O 0.75054 0.81028 0.16056
 O296 O 0.71280 0.75914 0.14813
 O297 O 0.84721 0.75728 0.20898
 O298 O 0.85342 0.71456 0.25920
 O299 O 0.80254 0.85381 0.25707
 O300 O 0.75203 0.86699 0.29678
 Zr301 Zr 0.75221 0.82558 0.25544
 O302 O 0.71687 0.79549 0.29017
 Zr303 Zr 0.81597 0.75956 0.25748
 O304 O 0.78259 0.72575 0.29126
 Zr305 Zr 0.75284 0.76040 0.19072
 O306 O 0.71624 0.72784 0.22258
 Zr307 Zr 0.74804 0.75929 0.32325
 O308 O 0.78383 0.79344 0.29228
 Zr309 Zr 0.68362 0.76094 0.25763
 O310 O 0.71661 0.79388 0.22213
 Zr311 Zr 0.74622 0.69384 0.25881
 O312 O 0.78339 0.72395 0.22427
 O313 O 0.78695 0.79433 0.22199
 O314 O 0.71236 0.72561 0.29294
 C315 C 0.74897 0.84416 0.17127
 C316 C 0.83627 0.84324 0.26011
 C317 C 0.83824 0.75726 0.17469
 C318 C 0.74547 0.67555 0.34306
 C319 C 0.66443 0.76215 0.34190
 C320 C 0.66144 0.67770 0.25785
 H321 H 0.70192 0.81291 0.30501
 H322 H 0.70085 0.71274 0.20571
 H323 H 0.80310 0.81001 0.20639
 H324 H 0.79855 0.70983 0.30675
 H325 H 0.80933 0.77807 0.35509
 H326 H 0.84897 0.74469 0.31953
 H327 H 0.64935 0.74664 0.19637
 H328 H 0.69166 0.77407 0.15706
 H329 H 0.73357 0.82156 0.35626
 H330 H 0.76849 0.85816 0.31680
 H331 H 0.76306 0.65786 0.19939
 H332 H 0.77236 0.70115 0.15558
 H333 H 0.69147 0.85942 0.23939
 H334 H 0.64838 0.82142 0.27377
 H335 H 0.84450 0.69601 0.24113
 H336 H 0.77903 0.63000 0.26506
 O337 O 0.74964 0.15220 0.79526
 O338 O 0.71856 0.13807 0.74487
 O339 O 0.84901 0.20364 0.74925
 O340 O 0.86182 0.25437 0.71537
 O341 O 0.79696 0.25119 0.84702
 O342 O 0.74680 0.28270 0.86077
 O343 O 0.74919 0.29861 0.65228
 O344 O 0.78649 0.25018 0.63817
 O345 O 0.65337 0.25226 0.70092
 O346 O 0.64377 0.21004 0.74623
 O347 O 0.70250 0.34708 0.74677
 O348 O 0.74806 0.35686 0.78897
 O349 O 0.74685 0.34437 0.69541
 O350 O 0.79673 0.35188 0.74449
 O351 O 0.65675 0.30377 0.74528
 O352 O 0.64879 0.25425 0.79480
 O353 O 0.69660 0.25277 0.65512
 O354 O 0.75221 0.20487 0.64616
 O355 O 0.74929 0.19420 0.84215
 O356 O 0.70273 0.24754 0.84988
 O357 O 0.84403 0.25140 0.80524
 O358 O 0.85245 0.29760 0.75220
 O359 O 0.80697 0.15684 0.74799
 O360 O 0.75367 0.14912 0.70086
 Zr361 Zr 0.75443 0.18407 0.74786
 O362 O 0.71707 0.21552 0.71594
 Zr363 Zr 0.81692 0.25109 0.75262
 O364 O 0.78528 0.28288 0.71531
 Zr365 Zr 0.74969 0.24659 0.81492
 O366 O 0.71787 0.28363 0.78324
 Zr367 Zr 0.74892 0.25033 0.68295
 O368 O 0.78683 0.21824 0.71426
 Zr369 Zr 0.68477 0.25178 0.74854
 O370 O 0.71610 0.21412 0.78079
 Zr371 Zr 0.75040 0.31598 0.74709
 O372 O 0.78269 0.28481 0.78487
 O373 O 0.78642 0.21446 0.78465
 O374 O 0.71528 0.28537 0.71340
 C375 C 0.74876 0.16073 0.82956
 C376 C 0.84051 0.16936 0.74814
 C377 C 0.83129 0.25181 0.83871
 C378 C 0.74701 0.33259 0.66163
 C379 C 0.66276 0.25340 0.66690
 C380 C 0.66850 0.33759 0.74511
 H381 H 0.70120 0.19886 0.70109
 H382 H 0.70281 0.29940 0.79981
 H383 H 0.80212 0.19870 0.80061
 H384 H 0.80189 0.29800 0.69965
 H385 H 0.81030 0.25933 0.64806
 H386 H 0.85305 0.24326 0.69191
 H387 H 0.62402 0.26167 0.78567
 H388 H 0.68887 0.22435 0.84536
 H389 H 0.72711 0.19422 0.64364
 H390 H 0.77732 0.15295 0.68758
 H391 H 0.76767 0.35064 0.80705
 H392 H 0.74853 0.30798 0.85051
 H393 H 0.69322 0.14818 0.74676
 H394 H 0.65034 0.19169 0.76545
 H395 H 0.84715 0.31196 0.77493
 H396 H 0.78759 0.37676 0.73750
 O397 O 0.24136 0.83571 0.80656
 O398 O 0.28326 0.84765 0.75268
 O399 O 0.14590 0.79319 0.75007
 O400 O 0.13167 0.74613 0.71346
 O401 O 0.19064 0.73676 0.84710
 O402 O 0.24420 0.69681 0.85509
 O403 O 0.24053 0.69267 0.65343
 O404 O 0.19598 0.74290 0.64707
 O405 O 0.33622 0.74135 0.69691
 O406 O 0.34663 0.78393 0.74366
 O407 O 0.29135 0.64581 0.74911
 O408 O 0.23951 0.63513 0.79019
 O409 O 0.24607 0.64849 0.69781
 O410 O 0.19690 0.63865 0.74556
 O411 O 0.33624 0.68980 0.74503
 O412 O 0.34605 0.73812 0.79214
 O413 O 0.29010 0.74293 0.65400
 O414 O 0.24166 0.78384 0.64306
 O415 O 0.24276 0.78925 0.84891
 O416 O 0.28314 0.73920 0.85732
 O417 O 0.14647 0.74022 0.80236
 O418 O 0.13672 0.69905 0.75034
 O419 O 0.19004 0.83799 0.75277
 O420 O 0.24135 0.85084 0.71469
 Zr421 Zr 0.24011 0.80813 0.75456
 O422 O 0.27352 0.77701 0.71812
 Zr423 Zr 0.17530 0.74313 0.75240
 O424 O 0.20623 0.70918 0.71671
 Zr425 Zr 0.24079 0.74108 0.81704
 O426 O 0.27508 0.70807 0.78361
 Zr427 Zr 0.24101 0.74234 0.68446
 O428 O 0.20722 0.77700 0.71748
 Zr429 Zr 0.30741 0.74064 0.74799
 O430 O 0.27667 0.77464 0.78519
 Zr431 Zr 0.24201 0.67614 0.74832
 O432 O 0.20753 0.70655 0.78429
 O433 O 0.20592 0.77639 0.78800
 O434 O 0.27594 0.70705 0.71352
 C435 C 0.24273 0.82355 0.84011
 C436 C 0.15621 0.82723 0.75036
 C437 C 0.15674 0.73675 0.83614
 C438 C 0.24360 0.65883 0.66400
 C439 C 0.32434 0.74243 0.66324
 C440 C 0.32533 0.65593 0.74694
 H441 H 0.28886 0.79414 0.70332
 H442 H 0.29098 0.69281 0.79981
 H443 H 0.18998 0.79166 0.80423
 H444 H 0.18953 0.69391 0.70127
 H445 H 0.17934 0.76322 0.65489
 H446 H 0.13938 0.73199 0.69133
 H447 H 0.37089 0.73370 0.78135
 H448 H 0.30395 0.75393 0.84736
 H449 H 0.25606 0.80499 0.65267
 H450 H 0.22535 0.84261 0.69402
 H451 H 0.25945 0.64013 0.80826
 H452 H 0.22508 0.67860 0.84780
 H453 H 0.29916 0.84338 0.77455
 H454 H 0.34287 0.80015 0.76538
 H455 H 0.14493 0.68034 0.76854
 H456 H 0.20611 0.61434 0.73676
 O457 O 0.25129 0.35477 0.70884
 O458 O 0.21029 0.36590 0.75992
 O459 O 0.34681 0.31008 0.76654
 O460 O 0.35846 0.26078 0.80224
 O461 O 0.30594 0.25931 0.66600
 O462 O 0.25212 0.21733 0.65439
 O463 O 0.24946 0.20875 0.85584
 O464 O 0.29117 0.25830 0.86629
 O465 O 0.15392 0.26076 0.80976
 O466 O 0.14655 0.30398 0.75452
 O467 O 0.19687 0.16470 0.76153
 O468 O 0.24315 0.15440 0.71799
 O469 O 0.24532 0.16398 0.81180
 O470 O 0.29231 0.15501 0.76363
 O471 O 0.15411 0.21087 0.76030
 O472 O 0.14315 0.26106 0.71869
 O473 O 0.19821 0.25629 0.85423
 O474 O 0.24711 0.29944 0.86837
 O475 O 0.25212 0.31056 0.66402
 O476 O 0.21403 0.25931 0.65138
 O477 O 0.34846 0.25882 0.71238
 O478 O 0.35477 0.21528 0.76248
 O479 O 0.30217 0.35427 0.76234
 O480 O 0.25076 0.36636 0.80061
 Zr481 Zr 0.25239 0.32534 0.75893
 O482 O 0.21709 0.29459 0.79315
 Zr483 Zr 0.31695 0.25997 0.76092
 O484 O 0.28373 0.22565 0.79431
 Zr485 Zr 0.25420 0.26055 0.69385
 O486 O 0.21785 0.22718 0.72514
 Zr487 Zr 0.24850 0.25857 0.82622
 O488 O 0.28413 0.29319 0.79570
 Zr489 Zr 0.18467 0.25989 0.75998
 O490 O 0.21747 0.29353 0.72509
 Zr491 Zr 0.24799 0.19342 0.76146
 O492 O 0.28497 0.22420 0.72731
 O493 O 0.28781 0.29470 0.72556
 O494 O 0.21360 0.22475 0.79531
 C495 C 0.25067 0.34441 0.67482
 C496 C 0.33588 0.34399 0.76619
 C497 C 0.33952 0.25838 0.67806
 C498 C 0.24734 0.17478 0.84566
 C499 C 0.16444 0.25843 0.84366
 C500 C 0.16324 0.17665 0.76098
 H501 H 0.20167 0.31160 0.80797
 H502 H 0.20278 0.21191 0.70813
 H503 H 0.30409 0.31071 0.71043
 H504 H 0.29984 0.20988 0.80980
 H505 H 0.30941 0.27731 0.85874
 H506 H 0.34970 0.24546 0.82313
 H507 H 0.15070 0.24384 0.69882
 H508 H 0.19293 0.27428 0.66035
 H509 H 0.22930 0.31881 0.86104
 H510 H 0.26546 0.35669 0.82159
 H511 H 0.26498 0.15785 0.70186
 H512 H 0.27403 0.20149 0.65857
 H513 H 0.19145 0.35814 0.74162
 H514 H 0.14858 0.31973 0.77683
 H515 H 0.34649 0.19710 0.74373
 H516 H 0.28166 0.13003 0.76748
 O517 O 0.76629 0.65268 0.68952
 O518 O 0.80871 0.64691 0.74283
 O519 O 0.66748 0.69297 0.74224
 O520 O 0.65295 0.74113 0.78027
 O521 O 0.71006 0.74768 0.64513
 O522 O 0.76111 0.78966 0.63473
 O523 O 0.76124 0.80334 0.83491
 O524 O 0.71785 0.75201 0.84538
 O525 O 0.85691 0.74978 0.79146
 O526 O 0.86652 0.70779 0.73843
 O527 O 0.81029 0.84549 0.73970
 O528 O 0.75548 0.85237 0.69574
 O529 O 0.76044 0.84600 0.78877
 O530 O 0.71912 0.85603 0.73854
 O531 O 0.85447 0.80125 0.74627
 O532 O 0.86540 0.75418 0.69787
 O533 O 0.81264 0.75350 0.83613
 O534 O 0.76439 0.71314 0.85106
 O535 O 0.76363 0.69763 0.64554
 O536 O 0.80166 0.74902 0.63380
 O537 O 0.66518 0.74501 0.68919
 O538 O 0.65421 0.78709 0.73975
 O539 O 0.71376 0.65023 0.74066
 O540 O 0.76079 0.64280 0.78342
 Zr541 Zr 0.76194 0.68226 0.74012
 O542 O 0.79456 0.71564 0.77489
 Zr543 Zr 0.69480 0.74489 0.73949
 O544 O 0.72553 0.78169 0.77328
 Zr545 Zr 0.76002 0.74709 0.67480
 O546 O 0.79408 0.78229 0.70590
 Zr547 Zr 0.76202 0.75168 0.80699
 O548 O 0.72861 0.71446 0.77586
 Zr549 Zr 0.82678 0.75081 0.74199
 O550 O 0.79652 0.71520 0.70706
 Zr551 Zr 0.76051 0.81471 0.74027
 O552 O 0.72589 0.78169 0.70646
 O553 O 0.72677 0.71161 0.70540
 O554 O 0.79574 0.78595 0.77565
 C555 C 0.76666 0.66382 0.65566
 C556 C 0.67948 0.65932 0.74216
 C557 C 0.67603 0.74691 0.65534
 C558 C 0.76075 0.83695 0.82300
 C559 C 0.84656 0.75168 0.82540
 C560 C 0.84408 0.83499 0.74324
 H561 H 0.80995 0.69945 0.79061
 H562 H 0.80960 0.79729 0.68909
 H563 H 0.71166 0.69518 0.68951
 H564 H 0.70855 0.79683 0.78845
 H565 H 0.70130 0.73123 0.83861
 H566 H 0.65962 0.75829 0.80054
 H567 H 0.88980 0.76166 0.70803
 H568 H 0.82317 0.73555 0.64403
 H569 H 0.77662 0.69061 0.84160
 H570 H 0.74356 0.65230 0.80249
 H571 H 0.77799 0.85025 0.68030
 H572 H 0.74177 0.80770 0.64181
 H573 H 0.80113 0.62161 0.73533
 H574 H 0.86236 0.69050 0.75920
 H575 H 0.66224 0.80589 0.72154
 H576 H 0.69891 0.84819 0.75523
 O577 O 0.24645 0.65263 0.29676
 O578 O 0.21500 0.63920 0.24627
 O579 O 0.34656 0.70259 0.25174
 O580 O 0.35940 0.75260 0.21556
 O581 O 0.29657 0.74868 0.34850
 O582 O 0.24767 0.78321 0.36264
 O583 O 0.24749 0.79953 0.15444
 O584 O 0.28395 0.75099 0.13986
 O585 O 0.15153 0.75537 0.20370
 O586 O 0.14135 0.71282 0.24842
 O587 O 0.20295 0.84856 0.25123
 O588 O 0.24972 0.85758 0.29118
 O589 O 0.24607 0.84518 0.19772
 O590 O 0.29713 0.85154 0.24590
 O591 O 0.15631 0.80619 0.24979
 O592 O 0.14781 0.75575 0.29784
 O593 O 0.19441 0.75391 0.15760
 O594 O 0.24951 0.70585 0.14804
 O595 O 0.24730 0.69442 0.34385
 O596 O 0.20237 0.74885 0.35258
 O597 O 0.34305 0.75031 0.30606
 O598 O 0.35197 0.79614 0.25322
 O599 O 0.30376 0.65646 0.24979
 O600 O 0.25023 0.64991 0.20233
 Zr601 Zr 0.25164 0.68458 0.24951
 O602 O 0.21460 0.71688 0.21813
 Zr603 Zr 0.31534 0.75051 0.25391
 O604 O 0.28402 0.78302 0.21707
 Zr605 Zr 0.24875 0.74687 0.31690
 O606 O 0.21740 0.78459 0.28568
 Zr607 Zr 0.24683 0.75121 0.18501
 O608 O 0.28440 0.71824 0.21575
 Zr609 Zr 0.18328 0.75360 0.25117
 O610 O 0.21417 0.71518 0.28296
 Zr611 Zr 0.25013 0.81658 0.24934
 O612 O 0.28216 0.78467 0.28673
 O613 O 0.28441 0.71432 0.28602
 O614 O 0.21403 0.78684 0.21584
 C615 C 0.24616 0.66104 0.33110
 C616 C 0.33749 0.66848 0.25064
 C617 C 0.33078 0.74953 0.33966
 C618 C 0.24587 0.83350 0.16388
 C619 C 0.16071 0.75548 0.16958
 C620 C 0.16876 0.83974 0.25041
 H621 H 0.19830 0.70056 0.20338
 H622 H 0.20291 0.80046 0.30265
 H623 H 0.29978 0.69818 0.30190
 H624 H 0.30073 0.79788 0.20128
 H625 H 0.30816 0.75898 0.14977
 H626 H 0.35051 0.73983 0.19301
 H627 H 0.12305 0.76375 0.28917
 H628 H 0.18784 0.72605 0.34817
 H629 H 0.22442 0.69509 0.14604
 H630 H 0.27410 0.65310 0.18926
 H631 H 0.26948 0.85087 0.30891
 H632 H 0.25051 0.80834 0.35230
 H633 H 0.18985 0.64967 0.24868
 H634 H 0.14782 0.69386 0.26706
 H635 H 0.34696 0.81081 0.27582
 H636 H 0.28843 0.87655 0.23882
 O637 O 0.74069 0.33353 0.30544
 O638 O 0.78183 0.34512 0.25057
 O639 O 0.64453 0.29036 0.25020
 O640 O 0.63068 0.24334 0.21304
 O641 O 0.68971 0.23470 0.34681
 O642 O 0.74339 0.19505 0.35507
 O643 O 0.73763 0.18933 0.15348
 O644 O 0.69395 0.24096 0.14727
 O645 O 0.83457 0.23766 0.19608
 O646 O 0.84502 0.28172 0.24132
 O647 O 0.79067 0.14364 0.24963
 O648 O 0.73890 0.13264 0.29045
 O649 O 0.74477 0.14544 0.19791
 O650 O 0.69608 0.13569 0.24628
 O651 O 0.83536 0.18793 0.24642
 O652 O 0.84483 0.23762 0.29145
 O653 O 0.78827 0.23837 0.15334
 O654 O 0.74210 0.27941 0.14166
 O655 O 0.74169 0.28741 0.34816
 O656 O 0.78230 0.23735 0.35678
 O657 O 0.64548 0.23773 0.30210
 O658 O 0.63539 0.19650 0.25040
 O659 O 0.68854 0.33523 0.25357
 O660 O 0.73894 0.34824 0.21369
 Zr661 Zr 0.73873 0.30562 0.25370
 O662 O 0.77193 0.27430 0.21722
 Zr663 Zr 0.67414 0.24043 0.25216
 O664 O 0.70492 0.20613 0.21671
 Zr665 Zr 0.73979 0.23898 0.31664
 O666 O 0.77399 0.20591 0.28330
 Zr667 Zr 0.73942 0.23915 0.18410
 O668 O 0.70578 0.27421 0.21689
 Zr669 Zr 0.80606 0.23839 0.24734
 O670 O 0.77546 0.27251 0.28448
 Zr671 Zr 0.74100 0.17346 0.24837
 O672 O 0.70654 0.20411 0.28420
 O673 O 0.70482 0.27394 0.28746
 O674 O 0.77466 0.20423 0.21326
 C675 C 0.74194 0.32164 0.33906
 C676 C 0.65474 0.32440 0.25134
 C677 C 0.65581 0.23454 0.33587
 C678 C 0.74120 0.15558 0.16410
 C679 C 0.82253 0.23793 0.16243
 C680 C 0.82463 0.15408 0.24864
 H681 H 0.78707 0.29122 0.20197
 H682 H 0.78994 0.19097 0.29973
 H683 H 0.68901 0.28919 0.30383
 H684 H 0.68809 0.19073 0.20155
 H685 H 0.67850 0.26238 0.15461
 H686 H 0.63856 0.22929 0.19091
 H687 H 0.86975 0.23336 0.28078
 H688 H 0.80289 0.25242 0.34687
 H689 H 0.75004 0.30282 0.15326
 H690 H 0.72113 0.34083 0.19423
 H691 H 0.75853 0.13818 0.30871
 H692 H 0.72433 0.17670 0.34795
 H693 H 0.79773 0.34159 0.27257
 H694 H 0.84135 0.29860 0.26254
 H695 H 0.64389 0.17764 0.26831
 H696 H 0.70530 0.11142 0.23738
 C697 C 0.26941 0.09530 0.06496
 C698 C 0.29807 0.12679 0.06478
 C699 C 0.29638 0.14919 0.09488
 C700 C 0.26643 0.13823 0.12303
 C701 C 0.23034 0.13644 0.10111
 C702 C 0.23180 0.11429 0.07101
 C703 C 0.27696 0.07513 0.10223
 C704 C 0.27518 0.09778 0.13259
 H705 H 0.31891 0.13037 0.04344
 H706 H 0.31564 0.17187 0.09900
 H707 H 0.20494 0.14958 0.10997
 H708 H 0.20758 0.10927 0.05390
 H709 H 0.28535 0.04657 0.10520
 H710 H 0.28110 0.08806 0.16037
 C711 C 0.76968 0.59475 0.56559
 C712 C 0.73212 0.61291 0.57361
 C713 C 0.73164 0.63442 0.60422
 C714 C 0.76875 0.63661 0.62441
 C715 C 0.77864 0.59619 0.63288
 C716 C 0.77929 0.57409 0.60204
 C717 C 0.79766 0.62670 0.56445
 C718 C 0.79712 0.64851 0.59498
 H719 H 0.70721 0.60737 0.55772
 H720 H 0.70629 0.64624 0.61496
 H721 H 0.78580 0.58609 0.66023
 H722 H 0.78781 0.54546 0.60387
 H723 H 0.81727 0.63097 0.54211
 H724 H 0.81624 0.67142 0.59852
 C725 C 0.74178 0.93016 0.09690
 C726 C 0.77637 0.93046 0.12183
 C727 C 0.77840 0.90173 0.14575
 C728 C 0.74616 0.87445 0.14285
 C729 C 0.71121 0.89802 0.14768
 C730 C 0.70883 0.92689 0.12375
 C731 C 0.74349 0.89174 0.07775
 C732 C 0.74570 0.86274 0.10191
 H733 H 0.79795 0.95133 0.12036
 H734 H 0.80134 0.89839 0.16459
 H735 H 0.68971 0.89204 0.16778
 H736 H 0.68521 0.94543 0.12351
 H737 H 0.74401 0.88681 0.04822
 H738 H 0.74762 0.83428 0.09256
 C739 C 0.24583 0.42992 0.59980
 C740 C 0.28033 0.42974 0.62476
 C741 C 0.28169 0.40115 0.64897
 C742 C 0.24872 0.37467 0.64630
 C743 C 0.21440 0.39922 0.65088
 C744 C 0.21286 0.42792 0.62666
 C745 C 0.24650 0.39142 0.58103
 C746 C 0.24796 0.36261 0.60543
 H747 H 0.30230 0.45016 0.62306
 H748 H 0.30459 0.39733 0.66782
 H749 H 0.19280 0.39410 0.67110
 H750 H 0.18987 0.44722 0.62624
 H751 H 0.24663 0.38644 0.55150
 H752 H 0.24898 0.33403 0.59631
 C753 C 0.74782 0.06741 0.89467
 C754 C 0.71390 0.07191 0.86958
 C755 C 0.71405 0.10341 0.84912
 C756 C 0.74825 0.12797 0.85519
 C757 C 0.74919 0.13530 0.89695
 C758 C 0.74922 0.10373 0.91773
 C759 C 0.78132 0.07097 0.86869
 C760 C 0.78152 0.10240 0.84815
 H761 H 0.69136 0.05210 0.86836
 H762 H 0.69159 0.11047 0.83047
 H763 H 0.75169 0.16262 0.90915
 H764 H 0.75282 0.10515 0.94745
 H765 H 0.80363 0.05094 0.86729
 H766 H 0.80394 0.10898 0.82925
 C767 C 0.24642 0.56754 0.39570
 C768 C 0.21213 0.57195 0.37109
 C769 C 0.21184 0.60355 0.35078
 C770 C 0.24598 0.62823 0.35655
 C771 C 0.24743 0.63540 0.39832
 C772 C 0.24791 0.60375 0.41893
 C773 C 0.27956 0.57140 0.36932
 C774 C 0.27931 0.60290 0.34895
 H775 H 0.18968 0.55202 0.37009
 H776 H 0.18909 0.61058 0.33248
 H777 H 0.24992 0.66268 0.41061
 H778 H 0.25190 0.60509 0.44861
 H779 H 0.30198 0.55152 0.36755
 H780 H 0.30148 0.60972 0.32983
 C781 C 0.24416 0.89330 0.93054
 C782 C 0.21127 0.86625 0.92926
 C783 C 0.21087 0.84386 0.89899
 C784 C 0.24328 0.85031 0.87219
 C785 C 0.24112 0.89163 0.86278
 C786 C 0.24132 0.91415 0.89313
 C787 C 0.27860 0.86877 0.92648
 C788 C 0.27818 0.84646 0.89615
 H789 H 0.18957 0.86537 0.95000
 H790 H 0.18893 0.82392 0.89410
 H791 H 0.23773 0.90231 0.83492
 H792 H 0.23701 0.94363 0.89019
 H793 H 0.30161 0.86918 0.94578
 H794 H 0.30084 0.82788 0.88961
 C795 C 0.74363 0.39236 0.42869
 C796 C 0.71038 0.36574 0.42743
 C797 C 0.70992 0.34302 0.39743
 C798 C 0.74263 0.34872 0.37085
 C799 C 0.74113 0.38998 0.36096
 C800 C 0.74142 0.41284 0.39105
 C801 C 0.77777 0.36732 0.42518
 C802 C 0.77728 0.34466 0.39511
 H803 H 0.68851 0.36538 0.44802
 H804 H 0.68776 0.32330 0.39260
 H805 H 0.73822 0.40040 0.33295
 H806 H 0.73772 0.44236 0.38771
 H807 H 0.80066 0.36766 0.44463
 H808 H 0.79974 0.32572 0.38895
 C809 C 0.09652 0.25543 0.06961
 C810 C 0.12160 0.22095 0.06968
 C811 C 0.14593 0.21959 0.09818
 C812 C 0.14327 0.25240 0.12481
 C813 C 0.14761 0.28687 0.10049
 C814 C 0.12326 0.28856 0.07191
 C815 C 0.07789 0.25443 0.10828
 C816 C 0.10245 0.25292 0.13702
 H817 H 0.11977 0.19886 0.04936
 H818 H 0.16468 0.19663 0.10199
 H819 H 0.16767 0.30859 0.10580
 H820 H 0.12262 0.31184 0.05296
 H821 H 0.04843 0.25410 0.11353
 H822 H 0.09350 0.25167 0.16566
 C823 C 0.60095 0.75059 0.56976
 C824 C 0.58239 0.74560 0.60804
 C825 C 0.60685 0.74420 0.63680
 C826 C 0.64758 0.74807 0.62496
 C827 C 0.65329 0.71758 0.59600
 C828 C 0.62900 0.71876 0.56739
 C829 C 0.62463 0.78573 0.57445
 C830 C 0.64896 0.78433 0.60306
 H831 H 0.55291 0.74428 0.61304
 H832 H 0.59784 0.74128 0.66529
 H833 H 0.67496 0.69705 0.59757
 H834 H 0.62976 0.69883 0.54491
 H835 H 0.62201 0.81001 0.55699
 H836 H 0.66709 0.80729 0.60992
 C837 C 0.06728 0.73129 0.90589
 C838 C 0.06737 0.70238 0.87472
 C839 C 0.09769 0.70385 0.85264
 C840 C 0.12569 0.73398 0.86355
 C841 C 0.10364 0.77002 0.86477
 C842 C 0.07328 0.76864 0.88658
 C843 C 0.10426 0.72422 0.92661
 C844 C 0.13487 0.72576 0.90426
 H845 H 0.04596 0.68163 0.87109
 H846 H 0.10198 0.68440 0.83015
 H847 H 0.11270 0.79537 0.85171
 H848 H 0.05606 0.79279 0.89131
 H849 H 0.10673 0.71702 0.95557
 H850 H 0.16261 0.72053 0.91445
 C851 C 0.56621 0.23064 0.40528
 C852 C 0.56551 0.20225 0.37368
 C853 C 0.59591 0.20314 0.35175
 C854 C 0.62478 0.23225 0.36322
 C855 C 0.60388 0.26895 0.36499
 C856 C 0.57340 0.26812 0.38664
 C857 C 0.60289 0.22208 0.42600
 C858 C 0.63361 0.22308 0.40377
 H859 H 0.54353 0.18216 0.36970
 H860 H 0.59972 0.18384 0.32903
 H861 H 0.61397 0.29432 0.35268
 H862 H 0.55700 0.29273 0.39187
 H863 H 0.60503 0.21413 0.45479
 H864 H 0.66114 0.21672 0.41391
 C865 C 0.92936 0.75582 0.10581
 C866 C 0.89211 0.75887 0.08445
 C867 C 0.86147 0.75899 0.10661
 C868 C 0.87041 0.75668 0.14805
 C869 C 0.89423 0.72176 0.15209
 C870 C 0.92483 0.72132 0.13020
 C871 C 0.92767 0.78871 0.13294
 C872 C 0.89716 0.78904 0.15492
 H873 H 0.88945 0.76375 0.05500
 H874 H 0.83378 0.76270 0.09564
 H875 H 0.88735 0.69903 0.17046
 H876 H 0.94397 0.69819 0.13000
 H877 H 0.94821 0.81061 0.13405
 H878 H 0.89195 0.81105 0.17472
 C879 C 0.42937 0.25655 0.60767
 C880 C 0.39181 0.25901 0.58704
 C881 C 0.36167 0.25937 0.60979
 C882 C 0.37142 0.25771 0.65112
 C883 C 0.39549 0.22297 0.65518
 C884 C 0.42562 0.22239 0.63262
 C885 C 0.42822 0.28972 0.63440
 C886 C 0.39815 0.29027 0.65703
 H887 H 0.38859 0.26289 0.55751
 H888 H 0.33373 0.26249 0.59927
 H889 H 0.38917 0.20049 0.67405
 H890 H 0.44495 0.19944 0.63230
 H891 H 0.44892 0.31148 0.63492
 H892 H 0.39337 0.31239 0.67681
 C893 C 0.89539 0.25089 0.93310
 C894 C 0.87130 0.28550 0.92824
 C895 C 0.85125 0.28593 0.89642
 C896 C 0.85665 0.25166 0.87182
 C897 C 0.89841 0.24955 0.86503
 C898 C 0.91880 0.24879 0.89690
 C899 C 0.86853 0.21807 0.92898
 C900 C 0.84841 0.21854 0.89725
 H901 H 0.87041 0.30808 0.94804
 H902 H 0.83335 0.30891 0.88914
 H903 H 0.91081 0.24644 0.83786
 H904 H 0.94832 0.24377 0.89574
 H905 H 0.86635 0.19557 0.94875
 H906 H 0.82912 0.19657 0.89027
 C907 C 0.39686 0.74515 0.43227
 C908 C 0.41948 0.74880 0.39579
 C909 C 0.39834 0.75013 0.36447
 C910 C 0.35672 0.74814 0.37215
 C911 C 0.35156 0.71252 0.39483
 C912 C 0.37239 0.71102 0.42610
 C913 C 0.37019 0.77823 0.43077
 C914 C 0.34934 0.77977 0.39957
 H915 H 0.44916 0.75224 0.39397
 H916 H 0.41020 0.75373 0.33712
 H917 H 0.33336 0.69005 0.38662
 H918 H 0.37192 0.68735 0.44455
 H919 H 0.36845 0.79925 0.45217
 H920 H 0.32986 0.80204 0.39448
 C921 C 0.10546 0.07172 0.24319
 C922 C 0.08494 0.10944 0.24576
 C923 C 0.10775 0.13957 0.24449
 C924 C 0.14894 0.12978 0.24118
 C925 C 0.15631 0.10382 0.27393
 C926 C 0.13373 0.07382 0.27509
 C927 C 0.12879 0.07491 0.20770
 C928 C 0.15137 0.10501 0.20669
 H929 H 0.05559 0.11314 0.25028
 H930 H 0.09738 0.16760 0.24708
 H931 H 0.17703 0.10908 0.29505
 H932 H 0.13532 0.05372 0.29735
 H933 H 0.12727 0.05533 0.18495
 H934 H 0.16903 0.11100 0.18313
 C935 C 0.60845 0.56998 0.74403
 C936 C 0.58808 0.60770 0.74301
 C937 C 0.61108 0.63766 0.74265
 C938 C 0.65235 0.62758 0.74292
 C939 C 0.65721 0.60275 0.77703
 C940 C 0.63441 0.57281 0.77758
 C941 C 0.63422 0.57167 0.71013
 C942 C 0.65708 0.60155 0.70961
 H943 H 0.55849 0.61125 0.74018
 H944 H 0.60070 0.66573 0.74052
 H945 H 0.67676 0.60844 0.79912
 H946 H 0.63456 0.55301 0.80015
 H947 H 0.63394 0.55144 0.68791
 H948 H 0.67627 0.60665 0.68705
 C949 C 0.93413 0.10407 0.74910
 C950 C 0.89762 0.08113 0.75061
 C951 C 0.86606 0.10195 0.74988
 C952 C 0.87339 0.14366 0.74833
 C953 C 0.89870 0.15118 0.78174
 C954 C 0.93013 0.13062 0.78222
 C955 C 0.92980 0.12862 0.71471
 C956 C 0.89828 0.14912 0.71429
 H957 H 0.89598 0.05158 0.75517
 H958 H 0.83871 0.08986 0.75258
 H959 H 0.89186 0.17035 0.80387
 H960 H 0.94981 0.13233 0.80486
 H961 H 0.94973 0.12950 0.69224
 H962 H 0.89142 0.16738 0.69146
 C963 C 0.43056 0.60310 0.25501
 C964 C 0.42872 0.62967 0.22187
 C965 C 0.39732 0.65015 0.22031
 C966 C 0.37001 0.64257 0.25200
 C967 C 0.36272 0.60090 0.25007
 C968 C 0.39428 0.58009 0.25142
 C969 C 0.42420 0.62753 0.28913
 C970 C 0.39272 0.64798 0.28764
 H971 H 0.45005 0.63159 0.20080
 H972 H 0.39199 0.66948 0.19796
 H973 H 0.33547 0.58877 0.24659
 H974 H 0.39277 0.55038 0.24815
 H975 H 0.44266 0.62821 0.31282
 H976 H 0.38436 0.66607 0.31015
 C977 C 0.07051 0.90240 0.74574
 C978 C 0.07322 0.87625 0.71214
 C979 C 0.10192 0.85202 0.71365
 C980 C 0.12592 0.85584 0.74845
 C981 C 0.13790 0.89672 0.74883
 C982 C 0.10907 0.92116 0.74750
 C983 C 0.07040 0.87669 0.77977
 C984 C 0.09896 0.85245 0.78092
 H985 H 0.05441 0.87716 0.68872
 H986 H 0.10747 0.83234 0.69164
 H987 H 0.16646 0.90581 0.75072
 H988 H 0.11416 0.95062 0.74877
 H989 H 0.04982 0.87791 0.80164
 H990 H 0.10247 0.83311 0.80344
 C991 C 0.56964 0.39999 0.24839
 C992 C 0.57416 0.37666 0.21295
 C993 C 0.60259 0.35213 0.21408
 C994 C 0.62449 0.35299 0.25037
 C995 C 0.63657 0.39363 0.25473
 C996 C 0.60797 0.41828 0.25363
 C997 C 0.56714 0.37160 0.27994
 C998 C 0.59555 0.34711 0.28082
 H999 H 0.55671 0.37966 0.18868
 H1000 H 0.60930 0.33421 0.19091
 H1001 H 0.66510 0.40245 0.25792
 H1002 H 0.61307 0.44770 0.25557
 H1003 H 0.54473 0.37079 0.29994
 H1004 H 0.59702 0.32522 0.30113
 C1005 C 0.90596 0.93290 0.26195
 C1006 C 0.92720 0.89603 0.26827
 C1007 C 0.90502 0.86523 0.26773
 C1008 C 0.86393 0.87415 0.26137
 C1009 C 0.85431 0.90197 0.29199
 C1010 C 0.87624 0.93231 0.29252
 C1011 C 0.88496 0.92682 0.22554
 C1012 C 0.86341 0.89621 0.22523
 H1013 H 0.95636 0.89397 0.27494
 H1014 H 0.91553 0.83763 0.27297
 H1015 H 0.83307 0.89732 0.31273
 H1016 H 0.87367 0.95327 0.31392
 H1017 H 0.88859 0.94393 0.20111
 H1018 H 0.84968 0.88671 0.20039
 C1019 C 0.40563 0.43351 0.77063
 C1020 C 0.42619 0.39670 0.77880
 C1021 C 0.40385 0.36608 0.77766
 C1022 C 0.36327 0.37507 0.76875
 C1023 C 0.35207 0.40375 0.79815
 C1024 C 0.37415 0.43409 0.79919
 C1025 C 0.38671 0.42668 0.73317
 C1026 C 0.36490 0.39632 0.73222
 H1027 H 0.45500 0.39441 0.78665
 H1028 H 0.41392 0.33849 0.78378
 H1029 H 0.32938 0.39988 0.81745
 H1030 H 0.37033 0.45596 0.81943
 H1031 H 0.39164 0.44340 0.70871
 H1032 H 0.35200 0.38676 0.70692
 C1033 C 0.09429 0.25669 0.93266
 C1034 C 0.12403 0.28707 0.93354
 C1035 C 0.14614 0.28765 0.90340
 C1036 C 0.13668 0.25810 0.87438
 C1037 C 0.13693 0.22112 0.89506
 C1038 C 0.11519 0.22048 0.92561
 C1039 C 0.07330 0.26425 0.89593
 C1040 C 0.09569 0.26484 0.86532
 H1041 H 0.12651 0.30756 0.95539
 H1042 H 0.16746 0.30849 0.89975
 H1043 H 0.15010 0.19641 0.88439
 H1044 H 0.11101 0.19549 0.94171
 H1045 H 0.04406 0.27049 0.89392
 H1046 H 0.08533 0.27074 0.83776
 C1047 C 0.59511 0.76489 0.43185
 C1048 C 0.57427 0.77341 0.39520
 C1049 C 0.59642 0.77269 0.36441
 C1050 C 0.63705 0.76374 0.37307
 C1051 C 0.64836 0.79279 0.40207
 C1052 C 0.62653 0.79344 0.43254
 C1053 C 0.61397 0.72753 0.42445
 C1054 C 0.63552 0.72692 0.39382
 H1055 H 0.54535 0.78081 0.39307
 H1056 H 0.58612 0.77884 0.33689
 H1057 H 0.67092 0.81227 0.39830
 H1058 H 0.63048 0.81347 0.45459
 H1059 H 0.60877 0.70281 0.44068
 H1060 H 0.64765 0.70158 0.38338
 C1061 C 0.93155 0.74748 0.90121
 C1062 C 0.93661 0.77635 0.87028
 C1063 C 0.90838 0.77760 0.84560
 C1064 C 0.87678 0.75058 0.85399
 C1065 C 0.89528 0.71255 0.85617
 C1066 C 0.92362 0.71083 0.88079
 C1067 C 0.89378 0.75774 0.91885
 C1068 C 0.86534 0.75938 0.89405
 H1069 H 0.96089 0.79385 0.86750
 H1070 H 0.90936 0.79507 0.82136
 H1071 H 0.88640 0.68873 0.84015
 H1072 H 0.93876 0.68538 0.88575
 H1073 H 0.88875 0.76323 0.94783
 H1074 H 0.83733 0.76632 0.90235
 C1075 C 0.42921 0.24870 0.39931
 C1076 C 0.43415 0.27816 0.36899
 C1077 C 0.40590 0.27974 0.34430
 C1078 C 0.37459 0.25217 0.35201
 C1079 C 0.39354 0.21432 0.35347
 C1080 C 0.42183 0.21243 0.37814
 C1081 C 0.39147 0.25817 0.41709
 C1082 C 0.36300 0.26001 0.39230
 H1083 H 0.45822 0.29601 0.36685
 H1084 H 0.40640 0.29822 0.32078
 H1085 H 0.38503 0.19073 0.33691
 H1086 H 0.43734 0.18713 0.38263
 H1087 H 0.38673 0.26294 0.44627
 H1088 H 0.33492 0.26648 0.40072
 C1089 C 0.06830 0.75989 0.10310
 C1090 C 0.07104 0.72573 0.12822
 C1091 C 0.10217 0.72440 0.14911
 C1092 C 0.12838 0.75734 0.14342
 C1093 C 0.13628 0.75767 0.10179
 C1094 C 0.10502 0.75890 0.08054
 C1095 C 0.07307 0.79309 0.12919
 C1096 C 0.10432 0.79182 0.15012
 H1097 H 0.05044 0.70388 0.12894
 H1098 H 0.10800 0.70146 0.16758
 H1099 H 0.16385 0.75662 0.08994
 H1100 H 0.10726 0.75846 0.05071
 H1101 H 0.05380 0.81605 0.13057
 H1102 H 0.11166 0.81377 0.16931
 C1103 C 0.56983 0.25956 0.60126
 C1104 C 0.57491 0.29199 0.62822
 C1105 C 0.60639 0.29011 0.64872
 C1106 C 0.63038 0.25582 0.64081
 C1107 C 0.60422 0.22273 0.64580
 C1108 C 0.57286 0.22469 0.62533
 C1109 C 0.60631 0.25928 0.57826
 C1110 C 0.63785 0.25738 0.59913
 H1111 H 0.55575 0.31499 0.63039
 H1112 H 0.61402 0.31159 0.66831
 H1113 H 0.61027 0.19923 0.66348
 H1114 H 0.55226 0.20282 0.62564
 H1115 H 0.60819 0.26022 0.54841
 H1116 H 0.66530 0.25694 0.58699
 C1117 C 0.89195 0.24010 0.07185
 C1118 C 0.86581 0.27345 0.07550
 C1119 C 0.84366 0.27253 0.10583
 C1120 C 0.84927 0.23835 0.13040
 C1121 C 0.84430 0.20516 0.10422
 C1122 C 0.86649 0.20609 0.07378
 C1123 C 0.91306 0.23968 0.10932
 C1124 C 0.89066 0.23863 0.13973
 H1125 H 0.86525 0.29635 0.05609
 H1126 H 0.82428 0.29458 0.11216
 H1127 H 0.82522 0.18255 0.10947
 H1128 H 0.86631 0.18427 0.05313
 H1129 H 0.94274 0.24130 0.11269
 H1130 H 0.90156 0.23882 0.16772
 C1131 C 0.39385 0.74552 0.57280
 C1132 C 0.36909 0.77967 0.57754
 C1133 C 0.34698 0.77860 0.60794
 C1134 C 0.35121 0.74338 0.63132
 C1135 C 0.34487 0.71134 0.60407
 C1136 C 0.36707 0.71240 0.57371
 C1137 C 0.41499 0.74235 0.61006
 C1138 C 0.39262 0.74144 0.64054
 H1139 H 0.36928 0.80303 0.55869
 H1140 H 0.32834 0.80107 0.61497
 H1141 H 0.32514 0.68916 0.60871
 H1142 H 0.36624 0.69102 0.55262
 H1143 H 0.44458 0.73861 0.61281
 H1144 H 0.40345 0.73788 0.66832
 C1145 C 0.25224 0.09936 0.93100
 C1146 C 0.22336 0.13029 0.93612
 C1147 C 0.22186 0.15480 0.90778
 C1148 C 0.24861 0.14627 0.87599
 C1149 C 0.28681 0.14419 0.89421
 C1150 C 0.28881 0.11973 0.92264
 C1151 C 0.24168 0.08150 0.89341
 C1152 C 0.23976 0.10613 0.86482
 H1153 H 0.20602 0.13317 0.96050
 H1154 H 0.20430 0.17897 0.90876
 H1155 H 0.31057 0.16013 0.88505
 H1156 H 0.31444 0.11484 0.93755
 H1157 H 0.23626 0.05247 0.88864
 H1158 H 0.23262 0.09768 0.83689
 C1159 C 0.75006 0.60030 0.42849
 C1160 C 0.72122 0.63116 0.43363
 C1161 C 0.71962 0.65561 0.40519
 C1162 C 0.74655 0.64711 0.37349
 C1163 C 0.78469 0.64511 0.39190
 C1164 C 0.78658 0.62071 0.42039
 C1165 C 0.73964 0.58238 0.39100
 C1166 C 0.73779 0.60694 0.36235
 H1167 H 0.70381 0.63386 0.45797
 H1168 H 0.70163 0.67948 0.40582
 H1169 H 0.80844 0.66115 0.38290
 H1170 H 0.81205 0.61594 0.43558
 H1171 H 0.73403 0.55333 0.38658
 H1172 H 0.73059 0.59843 0.33445
 C1173 C 0.74065 0.06575 0.09440
 C1174 C 0.71092 0.06552 0.12495
 C1175 C 0.71123 0.09583 0.14688
 C1176 C 0.74078 0.12450 0.13651
 C1177 C 0.77757 0.10349 0.13599
 C1178 C 0.77746 0.07278 0.11443
 C1179 C 0.73273 0.10246 0.07342
 C1180 C 0.73303 0.13324 0.09563
 H1181 H 0.69005 0.04412 0.12798
 H1182 H 0.69078 0.09998 0.16849
 H1183 H 0.80266 0.11398 0.14858
 H1184 H 0.80226 0.05646 0.10987
 H1185 H 0.72520 0.10438 0.04445
 H1186 H 0.72680 0.16069 0.08527
 C1187 C 0.24560 0.56867 0.59499
 C1188 C 0.21509 0.56841 0.62458
 C1189 C 0.21445 0.59895 0.64617
 C1190 C 0.24415 0.62774 0.63648
 C1191 C 0.28107 0.60690 0.63727
 C1192 C 0.28172 0.57597 0.61602
 C1193 C 0.23826 0.60511 0.57341
 C1194 C 0.23766 0.63610 0.59532
 H1195 H 0.19452 0.54669 0.62731
 H1196 H 0.19339 0.60306 0.66720
 H1197 H 0.30572 0.61760 0.65059
 H1198 H 0.30665 0.55964 0.61235
 H1199 H 0.23222 0.60671 0.54409
 H1200 H 0.23195 0.66349 0.58449
 C1201 C 0.75787 0.92725 0.89289
 C1202 C 0.72454 0.92346 0.86668
 C1203 C 0.72567 0.89324 0.84437
 C1204 C 0.76000 0.86890 0.84990
 C1205 C 0.79304 0.89527 0.84508
 C1206 C 0.79192 0.92559 0.86743
 C1207 C 0.75859 0.88976 0.91385
 C1208 C 0.75981 0.85945 0.89130
 H1209 H 0.70151 0.94271 0.86618
 H1210 H 0.70367 0.88686 0.82492
 H1211 H 0.81571 0.89023 0.82601
 H1212 H 0.81365 0.94632 0.86739
 H1213 H 0.75740 0.88634 0.94355
 H1214 H 0.76003 0.83145 0.90208
 C1215 C 0.25717 0.42774 0.39258
 C1216 C 0.22372 0.42436 0.36645
 C1217 C 0.22474 0.39448 0.34369
 C1218 C 0.25905 0.37003 0.34880
 C1219 C 0.29212 0.39637 0.34421
 C1220 C 0.29113 0.42637 0.36698
 C1221 C 0.25786 0.39005 0.41307
 C1222 C 0.25895 0.36004 0.39011
 H1223 H 0.20069 0.44362 0.36633
 H1224 H 0.20267 0.38840 0.32423
 H1225 H 0.31470 0.39153 0.32499
 H1226 H 0.31290 0.44706 0.36715
 H1227 H 0.25655 0.38632 0.44274
 H1228 H 0.25905 0.33191 0.40054
 C1229 C 0.24024 0.89941 0.07110
 C1230 C 0.23959 0.92223 0.10770
 C1231 C 0.24131 0.90126 0.13917
 C1232 C 0.24357 0.85966 0.13153
 C1233 C 0.20976 0.85141 0.10693
 C1234 C 0.20808 0.87203 0.07553
 C1235 C 0.27538 0.87579 0.07458
 C1236 C 0.27713 0.85522 0.10587
 H1237 H 0.23779 0.95201 0.10971
 H1238 H 0.24095 0.91327 0.16671
 H1239 H 0.18844 0.83148 0.11408
 H1240 H 0.18540 0.86965 0.05598
 H1241 H 0.29756 0.87582 0.05431
 H1242 H 0.30075 0.83779 0.11218
 C1243 C 0.74026 0.39849 0.56903
 C1244 C 0.77576 0.37537 0.57236
 C1245 C 0.77788 0.35475 0.60359
 C1246 C 0.74433 0.35867 0.62932
 C1247 C 0.74148 0.40022 0.63707
 C1248 C 0.73936 0.42123 0.60567
 C1249 C 0.70850 0.37064 0.57347
 C1250 C 0.71057 0.34997 0.60481
 H1251 H 0.79787 0.37576 0.55202
 H1252 H 0.80176 0.33764 0.60980
 H1253 H 0.74092 0.41216 0.66463
 H1254 H 0.73697 0.45095 0.60776
 H1255 H 0.68578 0.36801 0.55399
 H1256 H 0.68954 0.32975 0.61199
 C1257 C 0.07276 0.10713 0.75937
 C1258 C 0.07476 0.13284 0.79321
 C1259 C 0.10518 0.15506 0.79392
 C1260 C 0.13126 0.14986 0.76070
 C1261 C 0.14061 0.10850 0.76073
 C1262 C 0.11022 0.08606 0.75990
 C1263 C 0.07631 0.13299 0.72578
 C1264 C 0.10662 0.15517 0.72649
 H1265 H 0.05419 0.13316 0.81509
 H1266 H 0.11047 0.17431 0.81640
 H1267 H 0.16860 0.09765 0.76058
 H1268 H 0.11359 0.05639 0.75850
 H1269 H 0.05686 0.13334 0.70289
 H1270 H 0.11289 0.17437 0.70427
 C1271 C 0.57112 0.60790 0.25476
 C1272 C 0.57176 0.63489 0.28777
 C1273 C 0.60200 0.65729 0.28885
 C1274 C 0.62940 0.65091 0.25695
 C1275 C 0.63878 0.60956 0.25916
 C1276 C 0.60845 0.58703 0.25825
 C1277 C 0.57586 0.63250 0.22048
 C1278 C 0.60613 0.65482 0.22158
 H1279 H 0.55057 0.63574 0.30904
 H1280 H 0.60645 0.67720 0.31093
 H1281 H 0.66656 0.59888 0.26303
 H1282 H 0.61135 0.55752 0.26234
 H1283 H 0.55707 0.63211 0.19704
 H1284 H 0.61311 0.67342 0.19907
 C1285 C 0.10434 0.93324 0.25028
 C1286 C 0.12795 0.92789 0.28507
 C1287 C 0.14807 0.89623 0.28511
 C1288 C 0.14320 0.87242 0.25019
 C1289 C 0.10150 0.86541 0.24742
 C1290 C 0.08103 0.89718 0.24717
 C1291 C 0.13155 0.93015 0.21772
 C1292 C 0.15177 0.89853 0.21769
 H1293 H 0.12842 0.94724 0.30806
 H1294 H 0.16567 0.88855 0.30821
 H1295 H 0.08924 0.83825 0.24377
 H1296 H 0.05148 0.89625 0.24223
 H1297 H 0.13385 0.95050 0.19578
 H1298 H 0.17130 0.89208 0.19577
 C1299 C 0.60218 0.42991 0.73956
 C1300 C 0.57953 0.39325 0.73867
 C1301 C 0.60068 0.36192 0.74037
 C1302 C 0.64226 0.36978 0.74282
 C1303 C 0.65048 0.39445 0.70910
 C1304 C 0.62967 0.42572 0.70745
 C1305 C 0.62573 0.42646 0.77480
 C1306 C 0.64647 0.39532 0.77650
 H1307 H 0.54978 0.39110 0.73646
 H1308 H 0.58883 0.33435 0.73967
 H1309 H 0.67044 0.38741 0.68777
 H1310 H 0.63195 0.44528 0.68480
 H1311 H 0.62551 0.44664 0.79706
 H1312 H 0.66387 0.38903 0.80017
 C1313 C 0.89997 0.06937 0.25679
 C1314 C 0.91842 0.10726 0.24936
 C1315 C 0.89388 0.13582 0.24661
 C1316 C 0.85320 0.12406 0.25135
 C1317 C 0.84736 0.09360 0.22248
 C1318 C 0.87184 0.06538 0.22499
 C1319 C 0.87639 0.07564 0.29164
 C1320 C 0.85202 0.10410 0.28878
 H1321 H 0.94771 0.11172 0.24501
 H1322 H 0.90266 0.16386 0.24052
 H1323 H 0.82528 0.09369 0.20232
 H1324 H 0.87103 0.04200 0.20612
 H1325 H 0.87902 0.05930 0.31668
 H1326 H 0.83383 0.11199 0.31135
 C1327 C 0.40052 0.57049 0.75174
 C1328 C 0.38126 0.57970 0.78863
 C1329 C 0.35689 0.60822 0.78669
 C1330 C 0.35374 0.62550 0.74811
 C1331 C 0.39365 0.63622 0.73778
 C1332 C 0.41819 0.60755 0.73967
 C1333 C 0.36875 0.56464 0.72398
 C1334 C 0.34429 0.59304 0.72241
 H1335 H 0.38674 0.56519 0.81434
 H1336 H 0.34157 0.61793 0.81064
 H1337 H 0.40193 0.66380 0.72932
 H1338 H 0.44700 0.61162 0.73269
 H1339 H 0.36528 0.53975 0.70751
 H1340 H 0.31953 0.59164 0.70565
 C1341 C 0.93343 0.90473 0.74477
 C1342 C 0.92619 0.88423 0.78118
 C1343 C 0.89551 0.86266 0.78067
 C1344 C 0.87491 0.86264 0.74360
 C1345 C 0.86610 0.90358 0.73642
 C1346 C 0.89683 0.92581 0.73688
 C1347 C 0.93420 0.87471 0.71465
 C1348 C 0.90394 0.85277 0.71420
 H1349 H 0.94229 0.88855 0.80619
 H1350 H 0.88473 0.84976 0.80549
 H1351 H 0.83863 0.91401 0.73033
 H1352 H 0.89500 0.95498 0.73032
 H1353 H 0.95600 0.87198 0.69416
 H1354 H 0.90014 0.83140 0.69341
 C1355 C 0.43194 0.40552 0.23513
 C1356 C 0.42504 0.38660 0.27258
 C1357 C 0.39455 0.36486 0.27346
 C1358 C 0.37347 0.36325 0.23679
 C1359 C 0.36450 0.40382 0.22794
 C1360 C 0.39513 0.42614 0.22697
 C1361 C 0.43250 0.37414 0.20651
 C1362 C 0.40219 0.35213 0.20744
 H1363 H 0.44150 0.39186 0.29717
 H1364 H 0.38448 0.35259 0.29888
 H1365 H 0.33687 0.41398 0.22209
 H1366 H 0.39276 0.45505 0.21963
 H1367 H 0.45432 0.37038 0.18621
 H1368 H 0.39829 0.32964 0.18789
   
