data_POSCAR
  _audit_creation_date              2014-09-24
  _audit_creation_method            'ToBaCCo'
  _symmetry_space_group_name_H-M    'P1'
  _symmetry_Int_Tables_number       1
  _symmetry_cell_setting            triclinic
  loop_
  _symmetry_equiv_pos_as_xyz
 x,y,z
_cell_length_a 44.2527
_cell_length_b 43.5274
_cell_length_c 43.2348
_cell_angle_alpha 90.088000
_cell_angle_beta 91.099900
_cell_angle_gamma 90.929100
loop_
  _atom_site_label
  _atom_site_type_symbol
  _atom_site_fract_x
  _atom_site_fract_y
  _atom_site_fract_z
C1 C 0.18308 0.21613 0.22470
 N2 N 0.20409 0.19438 0.23046
 C3 C 0.22566 0.18840 0.20945
 N4 N 0.22616 0.20439 0.18250
 C5 C 0.20520 0.22613 0.17645
 N6 N 0.18379 0.23191 0.19767
 C7 C 0.67495 0.70326 0.71850
 N8 N 0.67871 0.72259 0.69422
 C9 C 0.70092 0.71791 0.67358
 N10 N 0.71938 0.69352 0.67730
 C11 C 0.71593 0.67403 0.70154
 N12 N 0.69363 0.67899 0.72204
 C13 C 0.31060 0.77666 0.74345
 N14 N 0.29118 0.79989 0.74876
 C15 C 0.26717 0.80474 0.72934
 N16 N 0.26289 0.78606 0.70432
 C17 C 0.28221 0.76287 0.69866
 N18 N 0.30587 0.75818 0.71843
 C19 C 0.82158 0.29731 0.23142
 N20 N 0.79892 0.31532 0.24145
 C21 C 0.77252 0.31731 0.22504
 N22 N 0.76875 0.30095 0.19842
 C23 C 0.79132 0.28315 0.18794
 N24 N 0.81766 0.28156 0.20443
 C25 C 0.81506 0.71556 0.27168
 N26 N 0.80848 0.73715 0.29313
 C27 C 0.78133 0.73669 0.30730
 N28 N 0.76068 0.71427 0.29993
 C29 C 0.76712 0.69232 0.27876
 N30 N 0.79429 0.69319 0.26470
 C31 C 0.30722 0.21553 -0.23233
 N32 N 0.30026 0.23697 -0.21079
 C33 C 0.27686 0.23222 -0.19142
 N34 N 0.26043 0.20566 -0.19356
 C35 C 0.26722 0.18381 -0.21468
 N36 N 0.29059 0.18900 -0.23407
 C37 C 0.68787 0.28299 -0.22878
 N38 N 0.69100 0.26669 -0.20222
 C39 C 0.71480 0.27206 -0.18259
 N40 N 0.73574 0.29395 -0.18978
 C41 C 0.73295 0.31054 -0.21631
 N42 N 0.70890 0.30486 -0.23568
 C43 C 0.19045 0.78983 0.27247
 N44 N 0.20746 0.81589 0.26956
 C45 C 0.23328 0.82018 0.28670
 N46 N 0.24165 0.79822 0.30736
 C47 C 0.22469 0.77220 0.31075
 N48 N 0.19923 0.76809 0.29311
 C49 C 0.46228 0.43391 0.47743
 N50 N 0.43663 0.45053 0.47944
 C51 C 0.43312 0.47648 0.46239
 N52 N 0.45529 0.48539 0.44287
 C53 C 0.48095 0.46895 0.44060
 N54 N 0.48439 0.44332 0.45807
 C55 C -0.03888 -0.06603 0.97928
 N56 N -0.05842 -0.04359 0.98670
 C57 C -0.06078 -0.01782 0.96918
 N58 N -0.04312 -0.01464 0.94393
 C59 C -0.02369 -0.03709 0.93599
 N60 N -0.02175 -0.06275 0.95374
 C61 C 1.02194 0.56209 0.98507
 N62 N 1.00670 0.56094 0.95747
 C63 C 1.01384 0.54007 0.93552
 N64 N 1.03649 0.52008 0.94134
 C65 C 1.05203 0.52098 0.96873
 N66 N 1.04467 0.54201 0.99048
 C67 C 0.53893 0.07272 0.47110
 N68 N 0.56231 0.05345 0.47648
 C69 C 0.56816 0.03041 0.45627
 N70 N 0.55033 0.02692 0.43054
 C71 C 0.52692 0.04600 0.42492
 N72 N 0.52135 0.06894 0.44523
 C73 C -0.03120 0.05286 0.51523
 N74 N -0.01075 0.04589 0.53789
 C75 C -0.01770 0.02467 0.55983
 N76 N -0.04527 0.01037 0.55882
 C77 C -0.06571 0.01678 0.53598
 N78 N -0.05843 0.03808 0.51436
 C79 C 0.46765 0.55434 0.01602
 N80 N 0.48717 0.54705 0.03937
 C81 C 0.47939 0.52579 0.06094
 N82 N 0.45175 0.51168 0.05891
 C83 C 0.43216 0.51859 0.03544
 N84 N 0.44030 0.53988 0.01413
 C85 C 0.54634 -0.06521 0.02699
 N86 N 0.57251 -0.04837 0.02641
 C87 C 0.57560 -0.02193 0.04305
 N88 N 0.55238 -0.01259 0.06070
 C89 C 0.52618 -0.02918 0.06159
 N90 N 0.52329 -0.05534 0.04461
 C91 C 1.03544 0.43878 0.51790
 N92 N 1.01425 0.44627 0.53883
 C93 C 1.01778 0.47168 0.55687
 N94 N 1.04241 0.49026 0.55323
 C95 C 1.06363 0.48338 0.53211
 N96 N 1.06015 0.45744 0.51475
 C97 C 0.41704 0.02517 0.19601
 H98 H 0.41682 0.04615 0.20945
 C99 C 0.43588 0.02299 0.17065
 H100 H 0.44979 0.04265 0.16451
 C101 C 0.39899 -0.02581 0.18799
 H102 H 0.38503 -0.04497 0.19525
 C103 C 0.41771 -0.02909 0.16255
 H104 H 0.41793 -0.05095 0.15062
 N105 N 0.39884 0.00112 0.20397
 C106 C 0.32939 0.04600 0.25719
 H107 H 0.33029 0.03273 0.27831
 C108 C 0.31004 0.07089 0.25474
 H109 H 0.29656 0.07685 0.27442
 C110 C 0.34649 0.05440 0.20630
 H111 H 0.36038 0.04763 0.18728
 C112 C 0.32707 0.07913 0.20263
 H113 H 0.32627 0.09084 0.18059
 Zn114 Zn 0.37522 0.00637 0.23955
 N115 N 0.34792 0.03895 0.23358
 C116 C 0.39937 0.03994 0.29160
 N117 N 0.40249 0.01513 0.27284
 C118 C 0.42619 -0.00406 0.27651
 C119 C 0.44801 0.00139 0.29969
 C120 C 0.42024 0.04582 0.31558
 C121 C 0.33090 -0.03880 0.22691
 C122 C 0.31111 -0.06312 0.23353
 C123 C 0.33489 -0.06717 0.28409
 C124 C 0.35442 -0.04298 0.27637
 N125 N 0.35194 -0.02920 0.24826
 H126 H 0.38080 0.05534 0.28812
 H127 H 0.42837 -0.02341 0.26102
 H128 H 0.46706 -0.01381 0.30146
 H129 H 0.41652 0.06519 0.33062
 H130 H 0.32919 -0.02716 0.20487
 H131 H 0.29478 -0.07047 0.21600
 H132 H 0.33668 -0.07711 0.30697
 H133 H 0.37087 -0.03457 0.29327
 C134 C 0.30899 0.08823 0.22733
 C135 C 0.43648 -0.00443 0.15350
 C136 C 0.31255 -0.07734 0.26271
 C137 C 0.44527 0.02662 0.31978
 C138 C 0.07948 -0.02417 0.71004
 H139 H 0.07570 -0.04283 0.72596
 C140 C 0.06102 -0.02182 0.68365
 H141 H 0.04411 -0.03957 0.67905
 C142 C 0.10498 0.02222 0.69760
 H143 H 0.12145 0.03991 0.70342
 C144 C 0.08681 0.02564 0.67106
 H145 H 0.08981 0.04595 0.65699
 N146 N 0.10155 -0.00278 0.71617
 C147 C 0.18068 -0.04047 0.75671
 H148 H 0.19036 -0.01857 0.76372
 C149 C 0.19929 -0.06605 0.75530
 H150 H 0.22320 -0.06328 0.76055
 C151 C 0.13796 -0.07084 0.74191
 H152 H 0.11401 -0.07298 0.73740
 C153 C 0.15577 -0.09692 0.73995
 H154 H 0.14519 -0.11873 0.73371
 Zn155 Zn 0.12576 -0.00776 0.75281
 N156 N 0.15058 -0.04314 0.74982
 C157 C 0.10378 -0.03510 0.80759
 N158 N 0.09923 -0.01269 0.78623
 C159 C 0.07511 0.00616 0.78768
 C160 C 0.05391 0.00236 0.81094
 C161 C 0.08328 -0.03953 0.83142
 C162 C 0.17138 0.03527 0.73769
 C163 C 0.19123 0.06015 0.74240
 C164 C 0.16967 0.06776 0.79267
 C165 C 0.14986 0.04305 0.78675
 N166 N 0.15110 0.02731 0.75963
 H167 H 0.12331 -0.04960 0.80614
 H168 H 0.07205 0.02379 0.77035
 H169 H 0.03445 0.01709 0.81108
 H170 H 0.08763 -0.05729 0.84834
 H171 H 0.17226 0.02207 0.71651
 H172 H 0.20656 0.06629 0.72416
 H173 H 0.16875 0.07937 0.81477
 H174 H 0.13394 0.03606 0.80413
 C175 C 0.18688 -0.09475 0.74672
 C176 C 0.06464 0.00323 0.66353
 C177 C 0.19086 0.07665 0.77039
 C178 C 0.05762 -0.02097 0.83310
 C179 C 0.56833 0.49867 0.22035
 H180 H 0.55868 0.49456 0.24272
 C181 C 0.54914 0.50055 0.19439
 H182 H 0.52496 0.49862 0.19740
 C183 C 0.61124 0.50591 0.18922
 H184 H 0.63542 0.50711 0.18695
 C185 C 0.59291 0.50796 0.16270
 H186 H 0.60339 0.51106 0.14047
 N187 N 0.59884 0.50160 0.21749
 C188 C 0.67027 0.45909 0.27330
 H189 H 0.67226 0.47515 0.29239
 C190 C 0.68884 0.43348 0.27251
 H191 H 0.70483 0.42993 0.29136
 C192 C 0.64620 0.44403 0.22617
 H193 H 0.62939 0.44807 0.20827
 C194 C 0.66468 0.41842 0.22416
 H195 H 0.66217 0.40362 0.20413
 Zn196 Zn 0.62446 0.49862 0.25353
 N197 N 0.64929 0.46375 0.25049
 C198 C 0.60056 0.46895 0.30655
 N199 N 0.59986 0.49487 0.28904
 C200 C 0.58141 0.51844 0.29621
 C201 C 0.56360 0.51698 0.32245
 C202 C 0.58287 0.46638 0.33286
 C203 C 0.67072 0.53991 0.23509
 C204 C 0.68896 0.56638 0.23627
 C205 C 0.66648 0.57964 0.28476
 C206 C 0.64852 0.55302 0.28253
 N207 N 0.65019 0.53418 0.25747
 H208 H 0.61464 0.45006 0.30006
 H209 H 0.58083 0.53861 0.28163
 H210 H 0.54970 0.53638 0.32804
 H211 H 0.58351 0.44531 0.34608
 H212 H 0.67323 0.52385 0.21635
 H213 H 0.70446 0.57079 0.21767
 H214 H 0.66473 0.59407 0.30503
 H215 H 0.63348 0.54749 0.30109
 C216 C 0.68627 0.41262 0.24766
 C217 C 0.56138 0.50529 0.16503
 C218 C 0.68667 0.58699 0.26112
 C219 C 0.56427 0.49076 0.34136
 C220 C 0.91476 0.51993 0.69934
 H221 H 0.91276 0.54147 0.71158
 C222 C 0.93335 0.51817 0.67370
 H223 H 0.94536 0.53862 0.66621
 C224 C 0.90101 0.46734 0.69414
 H225 H 0.88888 0.44741 0.70254
 C226 C 0.91945 0.46450 0.66847
 H227 H 0.92121 0.44226 0.65748
 N228 N 0.89845 0.49495 0.70854
 C229 C 0.82622 0.54057 0.75703
 H230 H 0.82844 0.53031 0.77972
 C231 C 0.80437 0.56281 0.75149
 H232 H 0.79039 0.56993 0.77037
 C233 C 0.84213 0.54365 0.70513
 H234 H 0.85630 0.53555 0.68687
 C235 C 0.82041 0.56568 0.69848
 H236 H 0.81835 0.57434 0.67509
 Zn237 Zn 0.87274 0.50024 0.74262
 N238 N 0.84480 0.53174 0.73409
 C239 C 0.89753 0.53857 0.79059
 N240 N 0.89793 0.51033 0.77712
 C241 C 0.91781 0.48870 0.78677
 C242 C 0.93797 0.49485 0.81130
 C243 C 0.91747 0.54578 0.81508
 C244 C 0.83282 0.45232 0.72624
 C245 C 0.81523 0.42578 0.73019
 C246 C 0.83115 0.42487 0.78390
 C247 C 0.84894 0.45112 0.77874
 N248 N 0.84976 0.46403 0.75014
 H249 H 0.88225 0.55580 0.78197
 H250 H 0.91792 0.46658 0.77535
 H251 H 0.95306 0.47696 0.81893
 H252 H 0.91711 0.56856 0.82514
 H253 H 0.83331 0.46346 0.70390
 H254 H 0.80281 0.41643 0.71044
 H255 H 0.83044 0.41556 0.80705
 H256 H 0.86164 0.46146 0.79776
 C257 C 0.80107 0.57559 0.72178
 C258 C 0.93556 0.49027 0.65758
 C259 C 0.81417 0.41153 0.75934
 C260 C 0.93816 0.52381 0.82573
 C261 C 0.19854 0.42309 0.01372
 H262 H 0.21157 0.42203 0.03511
 C263 C 0.17295 0.44134 0.01184
 H264 H 0.16634 0.45403 0.03210
 C265 C 0.19109 0.40694 -0.03824
 H266 H 0.19843 0.39376 -0.05782
 C267 C 0.16551 0.42515 -0.04126
 H268 H 0.15367 0.42584 -0.06337
 N269 N 0.20657 0.40566 -0.01081
 C270 C 0.25358 0.32986 0.03392
 H271 H 0.27502 0.33044 0.02232
 C272 C 0.24812 0.30778 0.05665
 H273 H 0.26596 0.29214 0.06293
 C274 C 0.20450 0.34972 0.03958
 H275 H 0.18718 0.36546 0.03233
 C276 C 0.19794 0.32782 0.06206
 H277 H 0.17563 0.32731 0.07190
 Zn278 Zn 0.24008 0.37955 -0.00541
 N279 N 0.23212 0.35070 0.02633
 C280 C 0.29267 0.39958 0.02924
 N281 N 0.27427 0.40476 0.00430
 C282 C 0.27897 0.42932 -0.01445
 C283 C 0.30289 0.44987 -0.00846
 C284 C 0.31735 0.41915 0.03567
 C285 C 0.22368 0.33683 -0.05055
 C286 C 0.22677 0.31811 -0.07643
 C287 C 0.27667 0.34003 -0.08355
 C288 C 0.27250 0.35857 -0.05757
 N289 N 0.24626 0.35668 -0.04178
 H290 H 0.28835 0.38032 0.04428
 H291 H 0.26375 0.43317 -0.03389
 H292 H 0.30551 0.46963 -0.02335
 H293 H 0.33205 0.41381 0.05511
 H294 H 0.20321 0.33556 -0.03730
 H295 H 0.20826 0.30282 -0.08317
 H296 H 0.29798 0.34140 -0.09535
 H297 H 0.29041 0.37406 -0.04976
 C298 C 0.21993 0.30654 0.07112
 C299 C 0.15570 0.44220 -0.01580
 C300 C 0.25359 0.31939 -0.09331
 C301 C 0.32272 0.44494 0.01683
 C302 C 0.71837 0.07845 -0.00676
 H303 H 0.73023 0.07748 -0.02838
 C304 C 0.69517 0.05725 -0.00082
 H305 H 0.68901 0.04037 -0.01833
 C306 C 0.71200 0.10206 0.04204
 H307 H 0.71896 0.11923 0.05890
 C308 C 0.68872 0.08130 0.04896
 H309 H 0.67797 0.08282 0.07118
 N310 N 0.72620 0.10036 0.01450
 C311 C 0.77127 0.17153 -0.03945
 H312 H 0.79323 0.17211 -0.02799
 C313 C 0.76512 0.19185 -0.06361
 H314 H 0.78290 0.20733 -0.07105
 C315 C 0.72168 0.15040 -0.04330
 H316 H 0.70458 0.13476 -0.03476
 C317 C 0.71441 0.17061 -0.06726
 H318 H 0.69167 0.17009 -0.07695
 Zn319 Zn 0.75881 0.12733 0.00542
 N320 N 0.74972 0.15128 -0.02989
 C321 C 0.80728 0.10253 -0.02872
 N322 N 0.79326 0.10297 -0.00100
 C323 C 0.80286 0.08510 0.02286
 C324 C 0.82834 0.06697 0.01989
 C325 C 0.83263 0.08435 -0.03287
 C326 C 0.74386 0.17658 0.04289
 C327 C 0.74774 0.19931 0.06547
 C328 C 0.79638 0.17813 0.07869
 C329 C 0.79176 0.15608 0.05551
 N330 N 0.76570 0.15554 0.03832
 H331 H 0.79866 0.11598 -0.04781
 H332 H 0.79088 0.08531 0.04444
 H333 H 0.83601 0.05371 0.03960
 H334 H 0.84302 0.08404 -0.05531
 H335 H 0.72354 0.17594 0.02856
 H336 H 0.73028 0.21619 0.06813
 H337 H 0.81703 0.17753 0.09244
 H338 H 0.80919 0.13966 0.05120
 C339 C 0.73617 0.19196 -0.07761
 C340 C 0.68004 0.05840 0.02744
 C341 C 0.77434 0.20043 0.08377
 C342 C 0.84377 0.06644 -0.00824
 C343 C 0.20925 0.58293 0.48235
 H344 H 0.22116 0.58325 0.46072
 C345 C 0.18336 0.56454 0.48538
 H346 H 0.17529 0.55119 0.46567
 C347 C 0.20532 0.60044 0.53397
 H348 H 0.21428 0.61397 0.55309
 C349 C 0.17955 0.58208 0.53815
 H350 H 0.16916 0.58180 0.56059
 N351 N 0.21926 0.60100 0.50620
 C352 C 0.27246 0.67111 0.45840
 H353 H 0.29310 0.67058 0.47221
 C354 C 0.27077 0.68987 0.43228
 H355 H 0.29036 0.70358 0.42609
 C356 C 0.22224 0.65315 0.44949
 H357 H 0.20320 0.63919 0.45650
 C358 C 0.21950 0.67171 0.42329
 H359 H 0.19819 0.67179 0.41059
 Zn360 Zn 0.25420 0.62583 0.50019
 N361 N 0.24872 0.65256 0.46596
 C362 C 0.29960 0.59874 0.46447
 N363 N 0.28654 0.59892 0.49269
 C364 C 0.29479 0.57855 0.51500
 C365 C 0.31750 0.55734 0.50955
 C366 C 0.32226 0.57794 0.45802
 C367 C 0.23957 0.67057 0.54274
 C368 C 0.24213 0.68869 0.56930
 C369 C 0.29113 0.66691 0.57975
 C370 C 0.28751 0.64899 0.55301
 N371 N 0.26172 0.65068 0.53552
 H372 H 0.29200 0.61419 0.44655
 H373 H 0.28360 0.57871 0.53703
 H374 H 0.32406 0.54172 0.52785
 H375 H 0.33196 0.57798 0.43522
 H376 H 0.21945 0.67170 0.52819
 H377 H 0.22364 0.70349 0.57508
 H378 H 0.31186 0.66524 0.59328
 H379 H 0.30524 0.63368 0.54638
 C380 C 0.24420 0.68996 0.41397
 C381 C 0.16791 0.56408 0.51352
 C382 C 0.26799 0.68674 0.58854
 C383 C 0.33154 0.55680 0.48066
 C384 C 0.70853 0.92974 0.50978
 H385 H 0.72596 0.93458 0.52706
 C386 C 0.68576 0.95099 0.50436
 H387 H 0.68634 0.97225 0.51735
 C388 C 0.68780 0.89668 0.47108
 H389 H 0.68880 0.87558 0.45799
 C390 C 0.66420 0.91694 0.46540
 H391 H 0.64703 0.91058 0.44834
 N392 N 0.70962 0.90360 0.49262
 C393 C 0.75569 0.82681 0.53614
 H394 H 0.77602 0.82546 0.52273
 C395 C 0.74978 0.80477 0.55876
 H396 H 0.76628 0.78716 0.56309
 C397 C 0.70973 0.85165 0.54644
 H398 H 0.69400 0.86976 0.54129
 C399 C 0.70268 0.82984 0.56889
 H400 H 0.68136 0.83143 0.58059
 Zn401 Zn 0.74335 0.87775 0.49816
 N402 N 0.73583 0.84974 0.53055
 C403 C 0.79865 0.89544 0.52926
 N404 N 0.77783 0.90300 0.50714
 C405 C 0.78048 0.92961 0.49095
 C406 C 0.80435 0.95011 0.49715
 C407 C 0.82346 0.91488 0.53558
 C408 C 0.73156 0.82982 0.45591
 C409 C 0.73548 0.81207 0.42940
 C410 C 0.77641 0.84621 0.41504
 C411 C 0.77181 0.86321 0.44190
 N412 N 0.74952 0.85493 0.46158
 H413 H 0.79623 0.87429 0.54201
 H414 H 0.76362 0.93519 0.47348
 H415 H 0.80511 0.97156 0.48459
 H416 H 0.84005 0.90768 0.55263
 H417 H 0.71425 0.82349 0.47216
 H418 H 0.72124 0.79191 0.42572
 H419 H 0.79399 0.85352 0.39947
 H420 H 0.78598 0.88310 0.44690
 C421 C 0.72273 0.80582 0.57530
 C422 C 0.66336 0.94505 0.48151
 C423 C 0.75808 0.82025 0.40839
 C424 C 0.82651 0.94293 0.51966
 C425 C 0.01741 0.20386 0.42283
 H426 H 0.03602 0.21965 0.42777
 C427 C 0.01399 0.17721 0.44048
 H428 H 0.02987 0.17318 0.45930
 C429 C -0.02637 0.19102 0.39292
 H430 H -0.04221 0.19652 0.37456
 C431 C -0.03034 0.16388 0.40959
 H432 H -0.04903 0.14865 0.40327
 N433 N -0.00252 0.21015 0.39946
 C434 C 0.04285 0.26331 0.32852
 H435 H 0.02857 0.28323 0.32733
 C436 C 0.06725 0.26094 0.30878
 H437 H 0.07179 0.27946 0.29276
 C438 C 0.05427 0.21532 0.35133
 H439 H 0.04896 0.19747 0.36777
 C440 C 0.07878 0.21188 0.33181
 H441 H 0.09183 0.19111 0.33336
 Zn442 Zn 0.00428 0.24641 0.37624
 N443 N 0.03724 0.24101 0.34972
 C444 C 0.03593 0.29911 0.39930
 N445 N 0.01254 0.27919 0.40415
 C446 C -0.00620 0.28291 0.42837
 C447 C -0.00244 0.30810 0.44823
 C448 C 0.04014 0.32488 0.41814
 C449 C -0.03780 0.23711 0.32725
 C450 C -0.06129 0.24484 0.30682
 C451 C -0.06722 0.29215 0.33513
 C452 C -0.04389 0.28334 0.35522
 N453 N -0.02969 0.25622 0.35100
 H454 H 0.05093 0.29563 0.38030
 H455 H -0.02443 0.26651 0.43194
 H456 H -0.01760 0.31029 0.46738
 H457 H 0.05811 0.34104 0.41276
 H458 H -0.02571 0.21599 0.32395
 H459 H -0.06760 0.22892 0.28849
 H460 H -0.07760 0.31421 0.33856
 H461 H -0.03667 0.29863 0.37371
 C462 C 0.08584 0.23509 0.31043
 C463 C -0.01000 0.15652 0.43378
 C464 C -0.07617 0.27292 0.31035
 C465 C 0.02055 0.33006 0.44280
 C466 C -0.00031 0.71602 0.07361
 H467 H -0.00385 0.73797 0.06271
 C468 C 0.00009 0.68963 0.05531
 H469 H -0.00238 0.69179 0.03045
 C470 C 0.00661 0.68642 0.11906
 H471 H 0.00841 0.68534 0.14403
 C472 C 0.00742 0.65942 0.10159
 H473 H 0.01013 0.63760 0.11323
 N474 N 0.00319 0.71406 0.10488
 C475 C -0.02733 0.74874 0.18814
 H476 H -0.00586 0.75748 0.19691
 C477 C -0.05063 0.74283 0.20870
 H478 H -0.04684 0.74719 0.23315
 C479 C -0.05819 0.73169 0.14591
 H480 H -0.06085 0.72735 0.12135
 C481 C -0.08200 0.72512 0.16572
 H482 H -0.10313 0.71609 0.15617
 Zn483 Zn 0.00038 0.74997 0.12948
 N484 N -0.03153 0.74330 0.15735
 C485 C -0.03502 0.79814 0.10466
 N486 N -0.00784 0.78408 0.10376
 C487 C 0.01393 0.79363 0.08402
 C488 C 0.00826 0.81735 0.06309
 C489 C -0.04161 0.82202 0.08423
 C490 C 0.05848 0.73673 0.15553
 C491 C 0.08343 0.74228 0.17514
 C492 C 0.06436 0.79288 0.18552
 C493 C 0.03959 0.78622 0.16603
 N494 N 0.03674 0.75827 0.15207
 H495 H -0.05186 0.79052 0.12082
 H496 H 0.03551 0.78229 0.08411
 H497 H 0.02583 0.82444 0.04743
 H498 H -0.06367 0.83238 0.08475
 H499 H 0.05623 0.71491 0.14377
 H500 H 0.10019 0.72464 0.17818
 H501 H 0.06575 0.81489 0.19722
 H502 H 0.02206 0.80300 0.16276
 C503 C -0.07833 0.73067 0.19758
 C504 C 0.00396 0.66085 0.06927
 C505 C 0.08626 0.77044 0.19089
 C506 C -0.02001 0.83157 0.06270
 C507 C 0.48320 0.21055 0.57868
 H508 H 0.46443 0.22587 0.57527
 C509 C 0.48867 0.18777 0.55680
 H510 H 0.47396 0.18608 0.53657
 C511 C 0.52615 0.19591 0.60824
 H512 H 0.54118 0.19948 0.62788
 C513 C 0.53202 0.17235 0.58736
 H514 H 0.55103 0.15769 0.59212
 N515 N 0.50214 0.21456 0.60352
 C516 C 0.45298 0.26512 0.67334
 H517 H 0.46567 0.28657 0.67397
 C518 C 0.42723 0.26160 0.69118
 H519 H 0.42013 0.28096 0.70477
 C520 C 0.44672 0.21463 0.65363
 H521 H 0.45453 0.19636 0.63899
 C522 C 0.42142 0.20972 0.67194
 H523 H 0.41058 0.18731 0.67128
 Zn524 Zn 0.49550 0.24918 0.62908
 N525 N 0.46160 0.24218 0.65426
 C526 C 0.46368 0.30025 0.60366
 N527 N 0.48898 0.28300 0.60218
 C528 C 0.50978 0.28815 0.57997
 C529 C 0.50557 0.31135 0.55811
 C530 C 0.45883 0.32404 0.58263
 C531 C 0.53608 0.23538 0.67721
 C532 C 0.56196 0.23862 0.69593
 C533 C 0.57280 0.28701 0.67090
 C534 C 0.54685 0.28264 0.65238
 N535 N 0.52952 0.25676 0.65533
 H536 H 0.44693 0.29549 0.62086
 H537 H 0.52944 0.27375 0.57890
 H538 H 0.52211 0.31440 0.54022
 H539 H 0.43884 0.33776 0.58493
 H540 H 0.52157 0.21529 0.67949
 H541 H 0.56730 0.22059 0.71226
 H542 H 0.58614 0.30783 0.66813
 H543 H 0.54077 0.29983 0.63548
 C544 C 0.41074 0.23365 0.69062
 C545 C 0.51365 0.16844 0.56066
 C546 C 0.58107 0.26449 0.69263
 C547 C 0.47972 0.32970 0.55913
 C548 C 0.51616 0.70831 0.93008
 H549 H 0.53176 0.72602 0.93829
 C550 C 0.51237 0.68133 0.94714
 H551 H 0.52468 0.67894 0.96884
 C552 C 0.48102 0.69033 0.89189
 H553 H 0.46916 0.69387 0.87012
 C554 C 0.47673 0.66294 0.90804
 H555 H 0.46154 0.64554 0.89838
 N556 N 0.50043 0.71234 0.90311
 C557 C 0.54648 0.76287 0.83073
 H558 H 0.53463 0.78441 0.83006
 C559 C 0.56860 0.75699 0.80898
 H560 H 0.57415 0.77466 0.79237
 C561 C 0.55316 0.71378 0.85312
 H562 H 0.54684 0.69678 0.87010
 C563 C 0.57512 0.70680 0.83161
 H564 H 0.58520 0.68432 0.83230
 Zn565 Zn 0.50671 0.74822 0.87938
 N566 N 0.53907 0.74130 0.85214
 C567 C 0.53844 0.80213 0.90103
 N568 N 0.51553 0.78176 0.90652
 C569 C 0.49861 0.78413 0.93231
 C570 C 0.50436 0.80763 0.95370
 C571 C 0.54467 0.82632 0.92159
 C572 C 0.47022 0.74847 0.82511
 C573 C 0.44362 0.75138 0.80758
 C574 C 0.41875 0.76938 0.85323
 C575 C 0.44582 0.76598 0.86996
 N576 N 0.47089 0.75562 0.85577
 H577 H 0.55199 0.79979 0.88073
 H578 H 0.48100 0.76728 0.93668
 H579 H 0.49097 0.80847 0.97435
 H580 H 0.56252 0.84259 0.91616
 H581 H 0.49010 0.73962 0.81430
 H582 H 0.44367 0.74549 0.78324
 H583 H 0.39890 0.77710 0.86507
 H584 H 0.44660 0.77110 0.89439
 C585 C 0.58290 0.72835 0.80882
 C586 C 0.49252 0.65807 0.93610
 C587 C 0.41730 0.76161 0.82169
 C588 C 0.52763 0.82929 0.94853
 C589 C 0.13620 0.24271 0.24074
 C590 C 0.16025 0.22337 0.24796
 C591 C 0.16209 0.21169 0.27835
 C592 C 0.13855 0.21644 0.29924
 C593 C 0.11247 0.23272 0.29014
 C594 C 0.11295 0.24720 0.26122
 C595 C 0.08960 0.24741 0.23584
 C596 C 0.11509 0.24249 0.21338
 H597 H 0.18109 0.19794 0.28567
 H598 H 0.14047 0.20650 0.32210
 H599 H 0.07894 0.27024 0.23325
 H600 H 0.07352 0.22758 0.23707
 H601 H 0.11904 0.26248 0.19794
 H602 H 0.11381 0.21979 0.20155
 C603 C 0.64873 0.69187 0.76808
 C604 C 0.64991 0.70778 0.74005
 C605 C 0.62587 0.72757 0.73281
 C606 C 0.60349 0.73360 0.75464
 C607 C 0.60481 0.72033 0.78446
 C608 C 0.62687 0.69806 0.78970
 C609 C 0.64873 0.69451 0.81615
 C610 C 0.67265 0.68770 0.79243
 H611 H 0.62479 0.73915 0.71068
 H612 H 0.58568 0.74924 0.74825
 H613 H 0.64305 0.67435 0.83081
 H614 H 0.65299 0.71637 0.82897
 H615 H 0.68064 0.66363 0.79342
 H616 H 0.69084 0.70558 0.79148
 C617 C 0.34162 0.78951 0.79118
 C618 C 0.33588 0.77063 0.76540
 C619 C 0.35484 0.74518 0.76155
 C620 C 0.38069 0.74146 0.78060
 C621 C 0.38827 0.76310 0.80396
 C622 C 0.36707 0.78578 0.81000
 C623 C 0.37142 0.81960 0.81429
 C624 C 0.34356 0.82370 0.79366
 H625 H 0.35055 0.72885 0.74301
 H626 H 0.39525 0.72224 0.77625
 H627 H 0.39261 0.82844 0.80382
 H628 H 0.36796 0.82678 0.83863
 H629 H 0.34855 0.83494 0.77120
 H630 H 0.32409 0.83326 0.80615
 C631 C -0.14781 0.30872 0.27792
 C632 C -0.15137 0.29494 0.24871
 C633 C -0.12664 0.27813 0.23776
 C634 C -0.10144 0.27221 0.25713
 C635 C -0.10038 0.28255 0.28814
 C636 C -0.12309 0.30263 0.29705
 C637 C -0.14170 0.30285 0.32548
 C638 C -0.16880 0.30951 0.30457
 H639 H -0.12718 0.26830 0.21472
 H640 H -0.08345 0.25852 0.24803
 H641 H -0.13547 0.32232 0.34113
 H642 H -0.14303 0.27996 0.33681
 H643 H -0.17810 0.33278 0.30822
 H644 H -0.18589 0.29049 0.30381
 C645 C -0.13408 0.73976 0.26209
 C646 C -0.15556 0.71646 0.25590
 C647 C -0.14829 0.69424 0.23350
 C648 C -0.12240 0.69795 0.21531
 C649 C -0.10311 0.72385 0.21925
 C650 C -0.10846 0.74324 0.24434
 C651 C -0.10965 0.77745 0.24552
 C652 C -0.13776 0.77371 0.26489
 H653 H -0.16340 0.67493 0.22874
 H654 H -0.11827 0.68130 0.19732
 H655 H -0.11419 0.78784 0.22245
 H656 H -0.09008 0.78764 0.25862
 H657 H -0.15864 0.78193 0.25306
 H658 H -0.13430 0.78192 0.28904
 C659 C 0.35055 0.24635 0.75110
 C660 C 0.33080 0.22113 0.74706
 C661 C 0.33536 0.20215 0.72109
 C662 C 0.36047 0.20684 0.70198
 C663 C 0.38243 0.23002 0.70879
 C664 C 0.37571 0.25047 0.73276
 C665 C 0.39480 0.26152 0.75955
 C666 C 0.36725 0.25710 0.77955
 H667 H 0.31991 0.18326 0.71569
 H668 H 0.36272 0.19164 0.68242
 H669 H 0.40172 0.28606 0.75726
 H670 H 0.41345 0.24560 0.76542
 H671 H 0.35831 0.27906 0.78848
 H672 H 0.36991 0.23866 0.79712
 C673 C 0.63841 0.25689 0.75857
 C674 C 0.66224 0.27626 0.74975
 C675 C 0.66108 0.28833 0.71950
 C676 C 0.63520 0.28377 0.70040
 C677 C 0.60968 0.26733 0.71123
 C678 C 0.61286 0.25262 0.73989
 C679 C 0.59240 0.25218 0.76696
 C680 C 0.62042 0.25683 0.78742
 H681 H 0.67968 0.30213 0.71090
 H682 H 0.63505 0.29385 0.67755
 H683 H 0.58130 0.22935 0.77017
 H684 H 0.57692 0.27205 0.76715
 H685 H 0.62542 0.23666 0.80230
 H686 H 0.62122 0.27940 0.79953
 C687 C 0.15006 0.80950 0.23637
 C688 C 0.16216 0.78556 0.25407
 C689 C 0.14588 0.75739 0.25418
 C690 C 0.12071 0.75261 0.23419
 C691 C 0.11105 0.77597 0.21385
 C692 C 0.12504 0.80489 0.21700
 C693 C 0.13729 0.82587 0.19286
 C694 C 0.16476 0.83091 0.21405
 H695 H 0.15337 0.73852 0.26853
 H696 H 0.10943 0.73035 0.23402
 H697 H 0.12343 0.84678 0.18994
 H698 H 0.14248 0.81364 0.17105
 H699 H 0.16671 0.85474 0.22325
 H700 H 0.18591 0.82160 0.20452
 C701 C 0.24428 0.14306 0.23918
 C702 C 0.24877 0.16522 0.21628
 C703 C 0.27621 0.16467 0.20029
 C704 C 0.29653 0.14044 0.20476
 C705 C 0.28962 0.11583 0.22490
 C706 C 0.26407 0.11895 0.24326
 C707 C 0.23894 0.09664 0.24955
 C708 C 0.21729 0.12310 0.24513
 H709 H 0.28153 0.18234 0.18356
 H710 H 0.31709 0.14066 0.19163
 H711 H 0.23977 0.08796 0.27371
 H712 H 0.23644 0.07860 0.23140
 H713 H 0.20580 0.12967 0.26674
 H714 H 0.20216 0.12042 0.22442
 C715 C 0.76077 0.64364 0.68613
 C716 C 0.73557 0.64704 0.70480
 C717 C 0.72942 0.62344 0.72623
 C718 C 0.74999 0.59942 0.73102
 C719 C 0.77737 0.59860 0.71473
 C720 C 0.78109 0.62015 0.69100
 C721 C 0.80755 0.64044 0.68377
 C722 C 0.78526 0.66618 0.67842
 H723 H 0.70934 0.62406 0.74012
 H724 H 0.74474 0.58216 0.74816
 H725 H 0.81892 0.63323 0.66230
 H726 H 0.82286 0.64436 0.70414
 H727 H 0.78377 0.67371 0.65389
 H728 H 0.78762 0.68509 0.69567
 C729 C 0.75102 0.35174 0.75007
 C730 C 0.75482 0.33287 0.77604
 C731 C 0.78171 0.33721 0.79384
 C732 C 0.80184 0.36180 0.78764
 C733 C 0.79542 0.38313 0.76385
 C734 C 0.77063 0.37616 0.74426
 C735 C 0.74559 0.39607 0.73292
 C736 C 0.72411 0.36933 0.73925
 H737 H 0.78685 0.32234 0.81323
 H738 H 0.82182 0.36449 0.80224
 H739 H 0.74733 0.40141 0.70789
 H740 H 0.74211 0.41625 0.74817
 H741 H 0.71362 0.35931 0.71787
 H742 H 0.70811 0.37401 0.75815
 C743 C 0.27864 -0.14901 0.29924
 C744 C 0.25087 -0.15291 0.28341
 C745 C 0.24146 -0.12853 0.26410
 C746 C 0.26088 -0.10330 0.25831
 C747 C 0.29043 -0.10188 0.27129
 C748 C 0.29782 -0.12426 0.29330
 C749 C 0.32540 -0.14336 0.29645
 C750 C 0.30446 -0.17050 0.30291
 H751 H 0.21958 -0.12932 0.25246
 H752 H 0.25296 -0.08552 0.24285
 H753 H 0.33969 -0.13652 0.31681
 H754 H 0.33766 -0.14551 0.27435
 H755 H 0.30681 -0.17924 0.32695
 H756 H 0.30458 -0.18844 0.28457
 C757 C 0.21993 -0.16879 0.71763
 C758 C 0.24629 -0.17219 0.73577
 C759 C 0.25020 -0.15202 0.76132
 C760 C 0.23040 -0.12735 0.76568
 C761 C 0.20600 -0.12238 0.74486
 C762 C 0.20031 -0.14480 0.72221
 C763 C 0.19378 -0.14139 0.68843
 C764 C 0.21531 -0.16770 0.68334
 H765 H 0.26927 -0.15427 0.77719
 H766 H 0.23480 -0.11166 0.78475
 H767 H 0.20211 -0.11907 0.67913
 H768 H 0.16990 -0.14741 0.68230
 H769 H 0.23614 -0.16064 0.67103
 H770 H 0.20373 -0.18881 0.67430
 C771 C 0.75522 0.36216 0.25598
 C772 C 0.74860 0.33796 0.23551
 C773 C 0.71864 0.33521 0.22400
 C774 C 0.69757 0.35843 0.22957
 C775 C 0.70614 0.38528 0.24628
 C776 C 0.73463 0.38525 0.26110
 C777 C 0.75892 0.40948 0.26248
 C778 C 0.78145 0.38416 0.25693
 H779 H 0.71192 0.31600 0.20932
 H780 H 0.67513 0.35588 0.21945
 H781 H 0.76141 0.41997 0.28586
 H782 H 0.75720 0.42612 0.24306
 H783 H 0.79676 0.38007 0.27713
 H784 H 0.79285 0.38613 0.23430
 C785 C 0.75277 0.64275 0.25243
 C786 C 0.74484 0.66770 0.27088
 C787 C 0.71498 0.66816 0.28172
 C788 C 0.69541 0.64256 0.27738
 C789 C 0.70532 0.61577 0.26232
 C790 C 0.73357 0.61752 0.24828
 C791 C 0.75914 0.59556 0.24921
 C792 C 0.78018 0.62321 0.25374
 H793 H 0.70714 0.68763 0.29477
 H794 H 0.67299 0.64342 0.28687
 H795 H 0.76206 0.58383 0.22664
 H796 H 0.75846 0.58009 0.26965
 H797 H 0.79513 0.62738 0.23376
 H798 H 0.79176 0.62380 0.27680
 C799 C 0.22443 0.15180 0.80140
 C800 C 0.25052 0.15611 0.78391
 C801 C 0.25939 0.13122 0.76530
 C802 C 0.24088 0.10472 0.76201
 C803 C 0.21262 0.10257 0.77664
 C804 C 0.20599 0.12589 0.79772
 C805 C 0.17781 0.14388 0.80108
 C806 C 0.19792 0.17225 0.80506
 H807 H 0.28018 0.13241 0.75251
 H808 H 0.24845 0.08648 0.74718
 H809 H 0.16549 0.13770 0.82241
 H810 H 0.16371 0.14412 0.77951
 H811 H 0.19705 0.18233 0.82864
 H812 H 0.19549 0.18902 0.78582
 C813 C 0.18846 0.27009 0.14355
 C814 C 0.20581 0.24374 0.14730
 C815 C 0.22411 0.23514 0.12247
 C816 C 0.22764 0.25466 0.09675
 C817 C 0.21321 0.28340 0.09546
 C818 C 0.19213 0.28939 0.11840
 C819 C 0.18802 0.31753 0.13758
 C820 C 0.18399 0.29636 0.16515
 H821 H 0.23681 0.21410 0.12352
 H822 H 0.24262 0.24770 0.07863
 H823 H 0.16707 0.32989 0.13105
 H824 H 0.20884 0.33215 0.13924
 H825 H 0.16074 0.29655 0.17440
 H826 H 0.20246 0.29869 0.18285
 C827 C 0.68971 0.76691 0.64590
 C828 C 0.70417 0.73860 0.64679
 C829 C 0.72132 0.73047 0.62097
 C830 C 0.72645 0.75172 0.59699
 C831 C 0.71495 0.78182 0.59851
 C832 C 0.69506 0.78796 0.62252
 C833 C 0.69433 0.81454 0.64437
 C834 C 0.68842 0.79144 0.66997
 H835 H 0.73163 0.70812 0.61972
 H836 H 0.74016 0.74470 0.57786
 H837 H 0.67480 0.82968 0.63961
 H838 H 0.71659 0.82662 0.64681
 H839 H 0.66549 0.79325 0.67981
 H840 H 0.70723 0.79012 0.68733
 C841 C 0.79708 0.77984 0.34277
 C842 C 0.77429 0.76066 0.33022
 C843 C 0.74455 0.76520 0.34027
 C844 C 0.73883 0.78568 0.36470
 C845 C 0.76278 0.80189 0.37986
 C846 C 0.79148 0.79984 0.36694
 C847 C 0.82131 0.79386 0.38226
 C848 C 0.82745 0.77192 0.35584
 H849 H 0.72584 0.75205 0.33019
 H850 H 0.71583 0.78784 0.37237
 H851 H 0.81906 0.78221 0.40500
 H852 H 0.83639 0.81453 0.38239
 H853 H 0.82877 0.74750 0.36321
 H854 H 0.84610 0.78000 0.34093
 C855 C 0.24786 0.24946 -0.14565
 C856 C 0.26881 0.25594 -0.16865
 C857 C 0.28140 0.28593 -0.16942
 C858 C 0.27562 0.30722 -0.14571
 C859 C 0.25728 0.29892 -0.12054
 C860 C 0.24232 0.27033 -0.12226
 C861 C 0.23985 0.24562 -0.09848
 C862 C 0.24597 0.22275 -0.12409
 H863 H 0.29661 0.29262 -0.18764
 H864 H 0.28632 0.32971 -0.14667
 H865 H 0.21661 0.24343 -0.08933
 H866 H 0.25821 0.24706 -0.08059
 H867 H 0.22627 0.20742 -0.12953
 H868 H 0.26791 0.21089 -0.12110
 C869 C 0.70027 0.22747 -0.14927
 C870 C 0.71774 0.25411 -0.15375
 C871 C 0.73808 0.26298 -0.12975
 C872 C 0.74317 0.24357 -0.10417
 C873 C 0.72836 0.21459 -0.10221
 C874 C 0.70550 0.20822 -0.12428
 C875 C 0.69947 0.18002 -0.14326
 C876 C 0.69371 0.20112 -0.17064
 H877 H 0.75097 0.28426 -0.13128
 H878 H 0.75948 0.25093 -0.08662
 H879 H 0.67884 0.16734 -0.13590
 H880 H 0.71989 0.16572 -0.14574
 H881 H 0.66978 0.20060 -0.17895
 H882 H 0.71077 0.19907 -0.18906
 C883 C 0.25476 0.75574 0.35743
 C884 C 0.23338 0.74896 0.33403
 C885 C 0.21957 0.71952 0.33434
 C886 C 0.22419 0.69955 0.35955
 C887 C 0.24249 0.70866 0.38521
 C888 C 0.25917 0.73613 0.38235
 C889 C 0.26333 0.76220 0.40457
 C890 C 0.25848 0.78368 0.37731
 H891 H 0.20397 0.71250 0.31597
 H892 H 0.21235 0.67760 0.35944
 H893 H 0.28669 0.76351 0.41445
 H894 H 0.24504 0.76312 0.42183
 H895 H 0.27906 0.79733 0.37160
 H896 H 0.23738 0.79711 0.37873
 C897 C 0.25778 0.75056 0.64730
 C898 C 0.27679 0.74213 0.67196
 C899 C 0.28999 0.71287 0.67067
 C900 C 0.28654 0.69434 0.64402
 C901 C 0.27014 0.70479 0.61783
 C902 C 0.25468 0.73244 0.62094
 C903 C 0.25412 0.75970 0.60007
 C904 C 0.25751 0.77955 0.62887
 H905 H 0.30365 0.70460 0.68986
 H906 H 0.29736 0.67223 0.64381
 H907 H 0.23187 0.76220 0.58805
 H908 H 0.27406 0.76100 0.58482
 H909 H 0.23717 0.79340 0.63319
 H910 H 0.27937 0.79248 0.63038
 C911 C 0.75865 0.25930 0.14621
 C912 C 0.78741 0.26591 0.15868
 C913 C 0.81246 0.25511 0.14246
 C914 C 0.80837 0.23512 0.11702
 C915 C 0.77911 0.22497 0.10753
 C916 C 0.75461 0.23926 0.12142
 C917 C 0.72646 0.22564 0.13457
 C918 C 0.73089 0.24764 0.16168
 H919 H 0.83525 0.26101 0.15019
 H920 H 0.82825 0.22680 0.10572
 H921 H 0.72900 0.20110 0.14107
 H922 H 0.70609 0.23072 0.12014
 H923 H 0.73597 0.23589 0.18395
 H924 H 0.71315 0.26539 0.16274
 C925 C 0.49435 0.39249 0.50002
 C926 C 0.46586 0.40534 0.49538
 C927 C 0.44086 0.38963 0.50794
 C928 C 0.44506 0.36411 0.52749
 C929 C 0.47444 0.35403 0.53546
 C930 C 0.49854 0.36767 0.51963
 C931 C 0.52812 0.38025 0.53160
 C932 C 0.52352 0.40740 0.51005
 H933 H 0.41813 0.39762 0.50353
 H934 H 0.42525 0.35308 0.53701
 H935 H 0.54739 0.36571 0.52499
 H936 H 0.52752 0.38652 0.55652
 H937 H 0.54006 0.40839 0.49103
 H938 H 0.52030 0.42948 0.52244
 C939 C -0.05103 0.90440 0.02723
 C940 C -0.03672 0.90611 -0.00133
 C941 C -0.02033 0.88029 -0.01076
 C942 C -0.01572 0.85540 0.00952
 C943 C -0.02731 0.85582 0.03974
 C944 C -0.04648 0.87989 0.04717
 C945 C -0.04612 0.90010 0.07508
 C946 C -0.05098 0.92698 0.05330
 H947 H -0.01001 0.87980 -0.03326
 H948 H -0.00226 0.83641 0.00186
 H949 H -0.02375 0.90081 0.08725
 H950 H -0.06575 0.89540 0.09013
 H951 H -0.03142 0.94332 0.05276
 H952 H -0.07332 0.93779 0.05604
 C953 C 0.02914 0.58506 0.03659
 C954 C 0.01406 0.58355 0.00774
 C955 C -0.00942 0.60473 0.00255
 C956 C -0.01406 0.62898 0.02347
 C957 C 0.00445 0.63254 0.05021
 C958 C 0.02431 0.60878 0.05730
 C959 C 0.05668 0.61016 0.06751
 C960 C 0.06206 0.58422 0.04481
 H961 H -0.02310 0.60388 -0.01849
 H962 H -0.03108 0.64577 0.01786
 H963 H 0.05976 0.60319 0.09207
 H964 H 0.06809 0.63213 0.06113
 H965 H 0.06827 0.56236 0.05638
 H966 H 0.07662 0.59118 0.02526
 C967 C 0.50527 0.11241 0.49318
 C968 C 0.53351 0.09857 0.49229
 C969 C 0.55678 0.11101 0.51139
 C970 C 0.55076 0.13440 0.53286
 C971 C 0.52109 0.14547 0.53635
 C972 C 0.49917 0.13502 0.51475
 C973 C 0.46793 0.12266 0.51960
 C974 C 0.47463 0.09798 0.49591
 H975 H 0.57950 0.10225 0.51025
 H976 H 0.56938 0.14315 0.54703
 H977 H 0.45029 0.13882 0.51148
 H978 H 0.46481 0.11350 0.54335
 H979 H 0.46099 0.10009 0.47418
 H980 H 0.47536 0.07445 0.50587
 C981 C -0.04755 0.08839 0.47309
 C982 C -0.02438 0.07640 0.49168
 C983 C 0.00517 0.08786 0.48709
 C984 C 0.01032 0.11298 0.46714
 C985 C -0.01405 0.12753 0.45170
 C986 C -0.04256 0.11327 0.45378
 C987 C -0.07256 0.12669 0.46066
 C988 C -0.07802 0.09940 0.48179
 H989 H 0.02413 0.07830 0.49978
 H990 H 0.03325 0.12151 0.46482
 H991 H -0.08795 0.12672 0.44005
 H992 H -0.07050 0.14896 0.47323
 H993 H -0.09648 0.08379 0.47326
 H994 H -0.07918 0.10581 0.50665
 C995 C 0.45480 0.58754 0.97057
 C996 C 0.47594 0.57771 0.99276
 C997 C 0.50509 0.59131 0.99218
 C998 C 0.51117 0.61654 0.97269
 C999 C 0.48817 0.62889 0.95349
 C1000 C 0.46074 0.61239 0.95150
 C1001 C 0.42902 0.62337 0.95304
 C1002 C 0.42249 0.59612 0.97395
 H1003 H 0.52278 0.58353 1.00779
 H1004 H 0.53351 0.62701 0.97367
 H1005 H 0.41698 0.62176 0.93028
 H1006 H 0.42742 0.64593 0.96496
 H1007 H 0.40674 0.57888 0.96319
 H1008 H 0.41707 0.60286 0.99801
 C1009 C 0.51586 0.89050 1.00962
 C1010 C 0.54324 0.90719 1.01023
 C1011 C 0.56743 0.89465 0.99373
 C1012 C 0.56292 0.86854 0.97471
 C1013 C 0.53402 0.85446 0.97130
 C1014 C 0.51140 0.86502 0.99070
 C1015 C 0.47941 0.87315 0.98342
 C1016 C 0.48424 0.90107 1.00416
 H1017 H 0.58963 0.90550 0.99454
 H1018 H 0.58194 0.86015 0.96203
 H1019 H 0.46305 0.85614 0.99291
 H1020 H 0.47568 0.87907 0.95864
 H1021 H 0.47071 0.90003 1.02554
 H1022 H 0.48327 0.92323 0.99144
 C1023 C 0.05446 0.40218 0.48038
 C1024 C 0.03112 0.41298 0.49872
 C1025 C 0.00281 0.39756 0.49616
 C1026 C -0.00101 0.37120 0.47749
 C1027 C 0.02358 0.35878 0.46158
 C1028 C 0.05081 0.37569 0.46260
 C1029 C 0.08187 0.36496 0.47046
 C1030 C 0.08592 0.39378 0.48991
 H1031 H -0.01650 0.40569 0.50863
 H1032 H -0.02322 0.36052 0.47606
 H1033 H 0.09667 0.36475 0.44998
 H1034 H 0.08176 0.34346 0.48432
 H1035 H 0.10314 0.40982 0.48053
 H1036 H 0.08826 0.38910 0.51512
 C1037 C 0.40253 0.52245 0.44841
 C1038 C 0.40534 0.49475 0.46453
 C1039 C 0.38071 0.48520 0.48265
 C1040 C 0.35603 0.50474 0.48716
 C1041 C 0.35545 0.53431 0.47371
 C1042 C 0.37829 0.54161 0.45285
 C1043 C 0.39761 0.56992 0.45058
 C1044 C 0.42422 0.54893 0.44577
 H1045 H 0.38105 0.46328 0.49445
 H1046 H 0.33800 0.49702 0.50197
 H1047 H 0.39910 0.58303 0.47267
 H1048 H 0.39182 0.58377 0.42978
 H1049 H 0.44119 0.54984 0.46507
 H1050 H 0.43372 0.55081 0.42224
 C1051 C 0.89793 0.00019 0.00087
 C1052 C 0.91855 0.00495 -0.02297
 C1053 C 0.91722 0.03336 -0.03874
 C1054 C 0.89388 0.05421 -0.03300
 C1055 C 0.87096 0.04705 -0.01171
 C1056 C 0.87483 0.02059 0.00623
 C1057 C 0.85276 -0.00462 0.01325
 C1058 C 0.87795 -0.02700 0.00732
 H1059 H 0.93343 0.03910 -0.05635
 H1060 H 0.89330 0.07532 -0.04614
 H1061 H 0.83389 -0.00626 -0.00407
 H1062 H 0.84576 -0.00428 0.03780
 H1063 H 0.87371 -0.04167 -0.01344
 H1064 H 0.88522 -0.03953 0.02846
 C1065 C 0.60642 0.02504 0.05712
 C1066 C 0.60402 -0.00356 0.04234
 C1067 C 0.62970 -0.01393 0.02676
 C1068 C 0.65514 0.00558 0.02301
 C1069 C 0.65546 0.03595 0.03465
 C1070 C 0.63143 0.04421 0.05341
 C1071 C 0.61265 0.07239 0.05277
 C1072 C 0.58523 0.05141 0.05679
 H1073 H 0.62966 -0.03650 0.01621
 H1074 H 0.67396 -0.00280 0.00999
 H1075 H 0.61296 0.08421 0.02999
 H1076 H 0.61737 0.08746 0.07313
 H1077 H 0.56960 0.05104 0.03634
 H1078 H 0.57419 0.05452 0.07942
 C1079 C 0.10978 0.49959 0.50310
 C1080 C 0.08893 0.50517 0.52630
 C1081 C 0.09185 0.53338 0.54234
 C1082 C 0.11689 0.55317 0.53760
 C1083 C 0.13981 0.54516 0.51684
 C1084 C 0.13451 0.51891 0.49866
 C1085 C 0.15472 0.49280 0.49164
 C1086 C 0.12753 0.47163 0.49621
 H1087 H 0.07538 0.53981 0.55928
 H1088 H 0.11852 0.57428 0.55081
 H1089 H 0.17287 0.48989 0.50949
 H1090 H 0.16248 0.49325 0.46735
 H1091 H 0.12995 0.45611 0.51649
 H1092 H 0.11963 0.46043 0.47436
 C1093 C 0.09870 0.50492 -0.00230
 C1094 C 0.07639 0.49895 -0.02498
 C1095 C 0.07801 0.47110 -0.04151
 C1096 C 0.10310 0.45187 -0.03772
 C1097 C 0.12746 0.46029 -0.01765
 C1098 C 0.12363 0.48617 0.00111
 C1099 C 0.14456 0.51283 0.00711
 C1100 C 0.11731 0.53336 0.00343
 H1101 H 0.06044 0.46465 -0.05817
 H1102 H 0.10374 0.43099 -0.05128
 H1103 H 0.16140 0.51601 -0.01143
 H1104 H 0.15413 0.51273 0.03106
 H1105 H 0.11832 0.54860 -0.01716
 H1106 H 0.11141 0.54494 0.02534
 C1107 C 0.61024 1.01258 0.48870
 C1108 C 0.59298 1.01123 0.46120
 C1109 C 0.60218 0.99027 0.43835
 C1110 C 0.62568 0.96959 0.44441
 C1111 C 0.64023 0.96858 0.47378
 C1112 C 0.63303 0.99176 0.49485
 C1113 C 0.62522 0.98961 0.52823
 C1114 C 0.60031 1.01241 0.52152
 H1115 H 0.59089 0.98925 0.41591
 H1116 H 0.63175 0.95401 0.42613
 H1117 H 0.64345 0.99916 0.54364
 H1118 H 0.61659 0.96640 0.53470
 H1119 H 0.60429 1.03503 0.53298
 H1120 H 0.57719 1.00247 0.52415
 C1121 C 0.88676 1.00505 0.50862
 C1122 C 0.90608 1.00158 0.53440
 C1123 C 0.89597 0.98197 0.55822
 C1124 C 0.86929 0.96408 0.55435
 C1125 C 0.85235 0.96467 0.52624
 C1126 C 0.86087 0.98700 0.50459
 C1127 C 0.86531 0.98426 0.47053
 C1128 C 0.89362 1.00404 0.47493
 H1129 H 0.90908 0.97956 0.57946
 H1130 H 0.86277 0.94910 0.57307
 H1131 H 0.84734 0.99591 0.45685
 H1132 H 0.87001 0.96033 0.46320
 H1133 H 0.89181 1.02698 0.46387
 H1134 H 0.91478 0.99161 0.47008
 C1135 C 0.38615 0.50331 0.00448
 C1136 C 0.40234 0.50302 0.03257
 C1137 C 0.38911 0.48733 0.05751
 C1138 C 0.36236 0.46964 0.05304
 C1139 C 0.34855 0.46670 0.02332
 C1140 C 0.36016 0.48554 -0.00006
 C1141 C 0.36828 0.47796 -0.03256
 C1142 C 0.39669 0.49752 -0.02755
 H1143 H 0.39996 0.48776 0.08018
 H1144 H 0.35332 0.45755 0.07272
 H1145 H 0.35232 0.48798 -0.04980
 H1146 H 0.37289 0.45314 -0.03583
 H1147 H 0.39694 0.51877 -0.04176
 H1148 H 0.41784 0.48408 -0.02795
 C1149 C 0.49818 0.49954 0.39506
 C1150 C 0.50445 0.47843 0.41860
 C1151 C 0.53359 0.46575 0.41964
 C1152 C 0.55392 0.47107 0.39545
 C1153 C 0.54543 0.48889 0.36948
 C1154 C 0.51810 0.50457 0.37114
 C1155 C 0.49303 0.50726 0.34773
 C1156 C 0.47121 0.50173 0.37392
 H1157 H 0.54013 0.45046 0.43825
 H1158 H 0.57565 0.46004 0.39653
 H1159 H 0.49288 0.48838 0.33036
 H1160 H 0.49167 0.53080 0.33792
 H1161 H 0.45835 0.47965 0.37176
 H1162 H 0.45734 0.52209 0.37909
 C1163 C -0.00312 -0.00610 0.89206
 C1164 C -0.00556 -0.03410 0.90774
 C1165 C 0.00952 -0.05942 0.89519
 C1166 C 0.02915 -0.05557 0.87015
 C1167 C 0.03449 -0.02620 0.85722
 C1168 C 0.01640 -0.00225 0.86757
 C1169 C 0.02499 0.02964 0.87746
 C1170 C 0.00358 0.02542 0.90427
 H1171 H 0.00707 -0.08202 0.90536
 H1172 H 0.04076 -0.07549 0.86168
 H1173 H 0.01724 0.04714 0.86051
 H1174 H 0.04913 0.03183 0.88486
 H1175 H -0.01647 0.04043 0.90268
 H1176 H 0.01528 0.02518 0.92726
 C1177 C -0.00358 -0.00216 0.60907
 C1178 C 0.00463 0.01658 0.58425
 C1179 C 0.03501 0.02688 0.58334
 C1180 C 0.05507 0.02151 0.60844
 C1181 C 0.04516 0.00594 0.63519
 C1182 C 0.01607 -0.00728 0.63382
 C1183 C -0.00880 -0.00627 0.65664
 C1184 C -0.03034 -0.00070 0.62950
 H1185 H 0.04301 0.04010 0.56386
 H1186 H 0.07795 0.03047 0.60719
 H1187 H -0.00652 0.01364 0.67271
 H1188 H -0.01268 -0.02887 0.66796
 H1189 H -0.04061 0.02245 0.62980
 H1190 H -0.04651 -0.02011 0.62520
 C1191 C 0.53020 0.53100 0.08721
 C1192 C 0.50125 0.51756 0.08581
 C1193 C 0.49415 0.49559 0.10866
 C1194 C 0.51411 0.49053 0.13393
 C1195 C 0.54165 0.50727 0.13689
 C1196 C 0.54985 0.52591 0.11196
 C1197 C 0.56161 0.55824 0.11164
 C1198 C 0.54005 0.56385 0.08452
 H1199 H 0.47266 0.48334 0.10788
 H1200 H 0.50743 0.47432 0.15158
 H1201 H 0.58579 0.55962 0.10520
 H1202 H 0.55584 0.57121 0.13285
 H1203 H 0.55185 0.56847 0.06250
 H1204 H 0.52175 0.58010 0.08997
 C1205 C 0.50605 0.00341 0.10408
 C1206 C 0.50130 -0.01923 0.08142
 C1207 C 0.47220 -0.03291 0.07912
 C1208 C 0.45029 -0.02691 0.10152
 C1209 C 0.45708 -0.00727 0.12686
 C1210 C 0.48456 0.00919 0.12619
 C1211 C 0.50803 0.01410 0.15106
 C1212 C 0.53157 0.00775 0.12685
 H1213 H 0.46683 -0.04946 0.06105
 H1214 H 0.42865 -0.03876 0.09966
 H1215 H 0.50697 -0.00371 0.16944
 H1216 H 0.50878 0.03822 0.15954
 H1217 H 0.54422 -0.01374 0.13117
 H1218 H 0.54583 0.02823 0.12148
 C1219 C 0.99975 0.50258 0.60172
 C1220 C 0.99465 0.47936 0.57972
 C1221 C 0.96670 0.46332 0.58051
 C1222 C 0.94670 0.46781 0.60501
 C1223 C 0.95427 0.48828 0.62945
 C1224 C 0.98010 0.50691 0.62592
 C1225 C 1.00536 0.51414 0.64826
 C1226 C 1.02689 0.50940 0.62175
 H1227 H 0.96086 0.44624 0.56307
 H1228 H 0.92595 0.45432 0.60533
 H1229 H 1.00755 0.49663 0.66684
 H1230 H 1.00494 0.53835 0.65645
 H1231 H 1.04161 0.48913 0.62493
 H1232 H 1.03881 0.53087 0.61469
 C1233 C 0.97076 0.55613 0.90102
 C1234 C 0.99712 0.53924 0.90558
 C1235 C 1.00689 0.52132 0.88057
 C1236 C 0.98855 0.51749 0.85378
 C1237 C 0.95988 0.53126 0.85147
 C1238 C 0.95264 0.55221 0.87472
 C1239 C 0.92427 0.55539 0.89249
 C1240 C 0.94412 0.55969 0.92131
 H1241 H 1.02796 0.50908 0.88221
 H1242 H 0.99639 0.50273 0.83554
 H1243 H 0.91042 0.53384 0.89269
 H1244 H 0.91175 0.57641 0.88596
 H1245 H 0.94178 0.54065 0.93827
 H1246 H 0.94303 0.58318 0.93130
 C1247 C 0.50700 0.01430 0.38067
 C1248 C 0.50857 0.04242 0.39630
 C1249 C 0.49270 0.06717 0.38325
 C1250 C 0.47323 0.06259 0.35742
 C1251 C 0.46858 0.03294 0.34448
 C1252 C 0.48738 0.00962 0.35565
 C1253 C 0.47977 -0.02238 0.36567
 C1254 C 0.50136 -0.01722 0.39301
 H1255 H 0.49461 0.08985 0.39349
 H1256 H 0.46126 0.08220 0.34842
 H1257 H 0.48783 -0.03992 0.34918
 H1258 H 0.45576 -0.02516 0.37244
 H1259 H 0.52184 -0.03162 0.39210
 H1260 H 0.48991 -0.01705 0.41569
   
