data_POSCAR
  _audit_creation_date              2014-09-24
  _audit_creation_method            'ToBaCCo'
  _symmetry_space_group_name_H-M    'P1'
  _symmetry_Int_Tables_number       1
  _symmetry_cell_setting            triclinic
  loop_
  _symmetry_equiv_pos_as_xyz
 x,y,z
_cell_length_a 55.7472
_cell_length_b 38.0561
_cell_length_c 39.3148
_cell_angle_alpha 89.927900
_cell_angle_beta 89.950700
_cell_angle_gamma 90.051400
loop_
  _atom_site_label
  _atom_site_type_symbol
  _atom_site_fract_x
  _atom_site_fract_y
  _atom_site_fract_z
C1 C 0.00100 -0.00011 0.10981
 C2 C 0.00082 0.00017 -0.11276
 C3 C -0.05474 -0.05767 0.05056
 C4 C -0.05474 0.05749 0.05077
 C5 C -0.05476 -0.05766 -0.05298
 C6 C 0.05580 -0.05462 -0.05635
 C7 C 0.05585 0.05466 -0.05633
 C8 C 0.05573 -0.05441 0.05331
 C9 C -0.05466 0.05792 -0.05283
 C10 C 0.05579 0.05433 0.05333
 O11 O -0.03282 -0.06527 -0.06064
 O12 O -0.06143 -0.03370 -0.03180
 O13 O -0.03272 0.06551 -0.06053
 O14 O -0.06137 0.03388 -0.03170
 O15 O 0.03388 0.06199 0.06103
 O16 O 0.06239 0.03222 0.03032
 O17 O 0.00061 0.03011 -0.09762
 O18 O 0.00060 -0.02982 -0.09764
 O19 O 0.00077 0.02991 0.09474
 O20 O 0.00072 -0.03010 0.09473
 O21 O 0.03384 -0.06223 -0.06387
 O22 O 0.06239 -0.03232 -0.03348
 O23 O -0.03280 -0.06516 0.05826
 O24 O -0.06142 -0.03382 0.02923
 O25 O 0.03382 -0.06211 0.06101
 O26 O 0.06236 -0.03226 0.03030
 O27 O 0.03391 0.06234 -0.06384
 O28 O 0.06242 0.03232 -0.03346
 O29 O 0.00173 0.09852 0.04956
 O30 O 0.00146 0.09848 -0.05344
 O31 O 0.00131 -0.09834 -0.05345
 O32 O 0.00165 -0.09858 0.04973
 O33 O -0.02025 -0.04620 -0.00141
 O34 O -0.02020 0.04625 -0.00140
 O35 O 0.02090 -0.04595 -0.00150
 O36 O -0.02139 -0.00005 0.04392
 O37 O -0.06142 0.03373 0.02935
 O38 O -0.03277 0.06496 0.05844
 O39 O 0.02251 -0.00003 0.04402
 O40 O 0.02252 0.00006 -0.04716
 O41 O 0.02095 0.04595 -0.00148
 O42 O -0.02143 0.00007 -0.04671
 Zr43 Zr 0.00051 0.04356 0.04279
 Zr44 Zr 0.00046 -0.04351 -0.04570
 Zr45 Zr -0.04072 0.00002 -0.00131
 Zr46 Zr 0.00048 -0.04363 0.04277
 Zr47 Zr 0.00052 0.04364 -0.04567
 Zr48 Zr 0.04164 -0.00001 -0.00159
 H49 H 0.03055 -0.06776 -0.00148
 H50 H -0.03209 -0.00009 0.06401
 H51 H 0.03064 0.06775 -0.00146
 H52 H -0.03218 0.00012 -0.06673
 H53 H -0.00368 0.10869 0.02772
 H54 H 0.00206 0.10893 -0.03045
 H55 H -0.00348 -0.10878 0.02778
 H56 H 0.00152 -0.10884 -0.03044
 C57 C 0.25052 0.25001 0.13938
 C58 C 0.25008 0.24985 0.36139
 C59 C 0.19451 0.30741 0.19814
 C60 C 0.19461 0.19230 0.19832
 C61 C 0.19442 0.30755 0.30179
 C62 C 0.30487 0.30486 0.30484
 C63 C 0.30493 0.19514 0.30493
 C64 C 0.30497 0.30484 0.19593
 C65 C 0.19449 0.19207 0.30178
 C66 C 0.30506 0.19535 0.19590
 O67 O 0.21635 0.31518 0.30944
 O68 O 0.18774 0.28358 0.28063
 O69 O 0.21641 0.18448 0.30943
 O70 O 0.18779 0.21606 0.28064
 O71 O 0.28315 0.18769 0.18819
 O72 O 0.31164 0.21773 0.21867
 O73 O 0.24983 0.21988 0.34637
 O74 O 0.24980 0.27985 0.34635
 O75 O 0.25021 0.22000 0.15440
 O76 O 0.25019 0.28001 0.15435
 O77 O 0.28294 0.31246 0.31243
 O78 O 0.31154 0.28240 0.28220
 O79 O 0.21648 0.31496 0.19050
 O80 O 0.18780 0.28360 0.21954
 O81 O 0.28308 0.31243 0.18818
 O82 O 0.31159 0.28244 0.21869
 O83 O 0.28300 0.18744 0.31253
 O84 O 0.31158 0.21765 0.28225
 O85 O 0.25090 0.15144 0.19919
 O86 O 0.25047 0.15150 0.30241
 O87 O 0.25041 0.34831 0.30230
 O88 O 0.25079 0.34853 0.19909
 O89 O 0.22893 0.29618 0.25027
 O90 O 0.22898 0.20368 0.25032
 O91 O 0.27010 0.29591 0.25036
 O92 O 0.22789 0.24993 0.20500
 O93 O 0.18786 0.21610 0.21963
 O94 O 0.21657 0.18485 0.19069
 O95 O 0.27178 0.25003 0.20486
 O96 O 0.27167 0.24995 0.29601
 O97 O 0.27016 0.20401 0.25041
 O98 O 0.22772 0.24986 0.29557
 Zr99 Zr 0.24979 0.20637 0.20622
 Zr100 Zr 0.24961 0.29349 0.29449
 Zr101 Zr 0.20849 0.24989 0.25019
 Zr102 Zr 0.24973 0.29359 0.20616
 Zr103 Zr 0.24966 0.20633 0.29453
 Zr104 Zr 0.29085 0.25000 0.25044
 H105 H 0.27971 0.31779 0.25034
 H106 H 0.21723 0.24992 0.18490
 H107 H 0.27979 0.18218 0.25040
 H108 H 0.21697 0.24983 0.31561
 H109 H 0.24592 0.14117 0.22121
 H110 H 0.25074 0.14099 0.27943
 H111 H 0.24573 0.35874 0.22107
 H112 H 0.25063 0.35885 0.27930
 C113 C 0.49900 0.00090 0.11028
 C114 C 0.49889 0.00042 -0.11229
 C115 C 0.55491 0.05801 0.05107
 C116 C 0.55484 -0.05648 0.05136
 C117 C 0.55491 0.05811 -0.05353
 C118 C 0.44418 0.05548 -0.05547
 C119 C 0.44422 -0.05433 -0.05505
 C120 C 0.44442 0.05554 0.05365
 C121 C 0.55473 -0.05689 -0.05291
 C122 C 0.44418 -0.05424 0.05411
 O123 O 0.53291 0.06568 -0.06100
 O124 O 0.56153 0.03438 -0.03199
 O125 O 0.53277 -0.06457 -0.06036
 O126 O 0.56145 -0.03303 -0.03166
 O127 O 0.46616 -0.06172 0.06171
 O128 O 0.43763 -0.03183 0.03125
 O129 O 0.49917 -0.02950 -0.09703
 O130 O 0.49918 0.03043 -0.09727
 O131 O 0.49923 -0.02913 0.09531
 O132 O 0.49931 0.03087 0.09510
 O133 O 0.46613 0.06304 -0.06320
 O134 O 0.43763 0.03302 -0.03263
 O135 O 0.53297 0.06555 0.05878
 O136 O 0.56156 0.03443 0.02946
 O137 O 0.46635 0.06316 0.06123
 O138 O 0.43774 0.03310 0.03098
 O139 O 0.46613 -0.06194 -0.06276
 O140 O 0.43761 -0.03184 -0.03240
 O141 O 0.49853 -0.09783 0.05039
 O142 O 0.49878 -0.09784 -0.05254
 O143 O 0.49887 0.09904 -0.05315
 O144 O 0.49864 0.09933 0.04973
 O145 O 0.52037 0.04698 -0.00119
 O146 O 0.52029 -0.04553 -0.00085
 O147 O 0.47919 0.04655 -0.00106
 O148 O 0.52147 0.00074 0.04421
 O149 O 0.56151 -0.03292 0.02965
 O150 O 0.53289 -0.06400 0.05915
 O151 O 0.47756 0.00075 0.04472
 O152 O 0.47748 0.00059 -0.04650
 O153 O 0.47912 -0.04528 -0.00073
 O154 O 0.52144 0.00061 -0.04635
 Zr155 Zr 0.49955 -0.04287 0.04343
 Zr156 Zr 0.49958 0.04419 -0.04537
 Zr157 Zr 0.54082 0.00073 -0.00110
 Zr158 Zr 0.49965 0.04434 0.04310
 Zr159 Zr 0.49952 -0.04297 -0.04503
 Zr160 Zr 0.45838 0.00062 -0.00080
 H161 H 0.46958 0.06839 -0.00105
 H162 H 0.53213 0.00079 0.06431
 H163 H 0.46948 -0.06713 -0.00059
 H164 H 0.53210 0.00056 -0.06648
 H165 H 0.50402 -0.10798 0.02859
 H166 H 0.49816 -0.10823 -0.02950
 H167 H 0.50423 0.10941 0.02791
 H168 H 0.49829 0.10949 -0.03015
 C169 C 0.75068 0.24994 0.13925
 C170 C 0.75052 0.24943 0.36122
 C171 C 0.69476 0.30703 0.19796
 C172 C 0.69472 0.19256 0.19774
 C173 C 0.69475 0.30700 0.30226
 C174 C 0.80526 0.30410 0.30482
 C175 C 0.80522 0.19517 0.30478
 C176 C 0.80522 0.30426 0.19516
 C177 C 0.69477 0.19207 0.30208
 C178 C 0.80526 0.19525 0.19507
 O179 O 0.71671 0.31467 0.30977
 O180 O 0.68806 0.28324 0.28087
 O181 O 0.71671 0.18438 0.30958
 O182 O 0.68807 0.21591 0.28076
 O183 O 0.78331 0.18758 0.18751
 O184 O 0.81187 0.21745 0.21802
 O185 O 0.75023 0.21947 0.34615
 O186 O 0.75026 0.27945 0.34621
 O187 O 0.75039 0.21988 0.15419
 O188 O 0.75036 0.27991 0.15427
 O189 O 0.78334 0.31179 0.31245
 O190 O 0.81188 0.28191 0.28191
 O191 O 0.71671 0.31459 0.19026
 O192 O 0.68807 0.28338 0.21954
 O193 O 0.78329 0.31199 0.18764
 O194 O 0.81185 0.28201 0.21806
 O195 O 0.78330 0.18739 0.31237
 O196 O 0.81186 0.21744 0.28188
 O197 O 0.75104 0.15112 0.19932
 O198 O 0.75072 0.15111 0.30182
 O199 O 0.75075 0.34803 0.30199
 O200 O 0.75113 0.34841 0.19947
 O201 O 0.72919 0.29596 0.25022
 O202 O 0.72918 0.20339 0.25012
 O203 O 0.77046 0.29565 0.25017
 O204 O 0.72814 0.24975 0.20497
 O205 O 0.68805 0.21607 0.21941
 O206 O 0.71667 0.18503 0.19005
 O207 O 0.77195 0.24978 0.20461
 O208 O 0.77197 0.24960 0.29563
 O209 O 0.77044 0.20370 0.25007
 O210 O 0.72808 0.24957 0.29541
 Zr211 Zr 0.74997 0.20611 0.20597
 Zr212 Zr 0.74997 0.29319 0.29435
 Zr213 Zr 0.70874 0.24966 0.25016
 Zr214 Zr 0.74998 0.29341 0.20608
 Zr215 Zr 0.74996 0.20599 0.29425
 Zr216 Zr 0.79114 0.24968 0.25004
 H217 H 0.78013 0.31746 0.25011
 H218 H 0.71749 0.24981 0.18486
 H219 H 0.78011 0.18190 0.25000
 H220 H 0.71740 0.24951 0.31552
 H221 H 0.74505 0.14103 0.22091
 H222 H 0.75190 0.14076 0.27883
 H223 H 0.74520 0.35844 0.22110
 H224 H 0.75192 0.35848 0.27901
 C225 C 0.00028 0.49989 0.10986
 C226 C 0.00035 0.49980 -0.11271
 C227 C -0.05538 0.44199 0.05038
 C228 C -0.05541 0.55730 0.05059
 C229 C -0.05558 0.44233 -0.05361
 C230 C 0.05503 0.44548 -0.05618
 C231 C 0.05530 0.55454 -0.05617
 C232 C 0.05512 0.44531 0.05342
 C233 C -0.05523 0.55773 -0.05290
 C234 C 0.05515 0.55447 0.05354
 O235 O -0.03358 0.43492 -0.06129
 O236 O -0.06216 0.46608 -0.03209
 O237 O -0.03328 0.56531 -0.06054
 O238 O -0.06199 0.53369 -0.03180
 O239 O 0.03321 0.56207 0.06115
 O240 O 0.06177 0.53225 0.03060
 O241 O 0.00012 0.52976 -0.09757
 O242 O 0.00006 0.46981 -0.09757
 O243 O 0.00005 0.52989 0.09478
 O244 O 0.00000 0.46990 0.09479
 O245 O 0.03312 0.43781 -0.06385
 O246 O 0.06167 0.46765 -0.03326
 O247 O -0.03343 0.43444 0.05799
 O248 O -0.06208 0.46592 0.02915
 O249 O 0.03319 0.43758 0.06100
 O250 O 0.06176 0.46761 0.03053
 O251 O 0.03336 0.56216 -0.06376
 O252 O 0.06184 0.53225 -0.03324
 O253 O 0.00097 0.59841 0.04954
 O254 O 0.00084 0.59827 -0.05350
 O255 O 0.00091 0.40130 -0.05224
 O256 O 0.00070 0.40141 0.05059
 O257 O -0.02094 0.45356 -0.00135
 O258 O -0.02084 0.54600 -0.00141
 O259 O 0.02024 0.45398 -0.00139
 O260 O -0.02207 0.49980 0.04390
 O261 O -0.06209 0.53350 0.02921
 O262 O -0.03346 0.56480 0.05831
 O263 O 0.02186 0.49986 0.04423
 O264 O 0.02188 0.49985 -0.04694
 O265 O 0.02032 0.54585 -0.00139
 O266 O -0.02206 0.49990 -0.04670
 Zr267 Zr -0.00015 0.54344 0.04283
 Zr268 Zr -0.00024 0.45628 -0.04560
 Zr269 Zr -0.04140 0.49977 -0.00139
 Zr270 Zr -0.00018 0.45625 0.04286
 Zr271 Zr -0.00006 0.54344 -0.04563
 Zr272 Zr 0.04102 0.49993 -0.00134
 H273 H 0.02990 0.43217 -0.00139
 H274 H -0.03279 0.49972 0.06398
 H275 H 0.03000 0.56766 -0.00137
 H276 H -0.03276 0.49999 -0.06676
 H277 H -0.00433 0.60854 0.02762
 H278 H 0.00152 0.60875 -0.03052
 H279 H 0.00135 0.39098 0.02759
 H280 H -0.00478 0.39119 -0.03049
 C281 C 0.25085 0.75110 0.13882
 C282 C 0.25054 0.75079 0.36083
 C283 C 0.19504 0.80860 0.19786
 C284 C 0.19484 0.69348 0.19757
 C285 C 0.19487 0.80854 0.30142
 C286 C 0.30535 0.80572 0.30420
 C287 C 0.30538 0.69612 0.30414
 C288 C 0.30560 0.80609 0.19503
 C289 C 0.19487 0.69305 0.30143
 C290 C 0.30534 0.69624 0.19519
 O291 O 0.21682 0.81617 0.30899
 O292 O 0.18818 0.78458 0.28024
 O293 O 0.21682 0.68549 0.30901
 O294 O 0.18817 0.71703 0.28023
 O295 O 0.28341 0.68863 0.18754
 O296 O 0.31199 0.71867 0.21787
 O297 O 0.25030 0.72083 0.34578
 O298 O 0.25029 0.78080 0.34580
 O299 O 0.25051 0.72108 0.15381
 O300 O 0.25059 0.78109 0.15379
 O301 O 0.28343 0.81332 0.31186
 O302 O 0.31202 0.78337 0.28147
 O303 O 0.21699 0.81613 0.19017
 O304 O 0.18828 0.78475 0.21917
 O305 O 0.28364 0.81365 0.18743
 O306 O 0.31216 0.78358 0.21780
 O307 O 0.28345 0.68847 0.31181
 O308 O 0.31203 0.71862 0.28144
 O309 O 0.25115 0.65248 0.19865
 O310 O 0.25091 0.65248 0.30165
 O311 O 0.25090 0.84929 0.30172
 O312 O 0.25132 0.84962 0.19848
 O313 O 0.22940 0.79716 0.24972
 O314 O 0.22933 0.70466 0.24974
 O315 O 0.27060 0.79698 0.24975
 O316 O 0.22830 0.75106 0.20449
 O317 O 0.18816 0.71721 0.21902
 O318 O 0.21681 0.68604 0.18990
 O319 O 0.27219 0.75104 0.20415
 O320 O 0.27214 0.75093 0.29529
 O321 O 0.27054 0.70510 0.24973
 O322 O 0.22817 0.75087 0.29502
 Zr323 Zr 0.25010 0.70742 0.20560
 Zr324 Zr 0.25009 0.79447 0.29391
 Zr325 Zr 0.20888 0.75089 0.24970
 Zr326 Zr 0.25024 0.79468 0.20559
 Zr327 Zr 0.25008 0.70732 0.29391
 Zr328 Zr 0.29132 0.75106 0.24967
 H329 H 0.28023 0.81884 0.24971
 H330 H 0.21762 0.75108 0.18440
 H331 H 0.28015 0.68325 0.24969
 H332 H 0.21744 0.75082 0.31508
 H333 H 0.24583 0.64226 0.22054
 H334 H 0.25138 0.64203 0.27865
 H335 H 0.24642 0.85985 0.22052
 H336 H 0.25100 0.85983 0.27873
 C337 C 0.49906 0.50015 0.11117
 C338 C 0.49922 0.49992 -0.11083
 C339 C 0.55503 0.55746 0.05223
 C340 C 0.55507 0.44290 0.05251
 C341 C 0.55502 0.55753 -0.05188
 C342 C 0.44455 0.55480 -0.05436
 C343 C 0.44459 0.44500 -0.05413
 C344 C 0.44458 0.55481 0.05456
 C345 C 0.55506 0.44265 -0.05166
 C346 C 0.44462 0.44526 0.05481
 O347 O 0.53308 0.56518 -0.05943
 O348 O 0.56172 0.53375 -0.03049
 O349 O 0.53312 0.43491 -0.05918
 O350 O 0.56174 0.46648 -0.03036
 O351 O 0.46652 0.43767 0.06252
 O352 O 0.43798 0.46762 0.03202
 O353 O 0.49952 0.46995 -0.09575
 O354 O 0.49950 0.52993 -0.09589
 O355 O 0.49939 0.47013 0.09622
 O356 O 0.49936 0.53014 0.09610
 O357 O 0.46647 0.56249 -0.06202
 O358 O 0.43793 0.53230 -0.03165
 O359 O 0.53308 0.56500 0.05990
 O360 O 0.56172 0.53382 0.03074
 O361 O 0.46649 0.56247 0.06224
 O362 O 0.43796 0.53237 0.03188
 O363 O 0.46652 0.43737 -0.06174
 O364 O 0.43795 0.46752 -0.03152
 O365 O 0.49882 0.40152 0.05145
 O366 O 0.49916 0.40154 -0.05149
 O367 O 0.49911 0.59844 -0.05194
 O368 O 0.49879 0.59866 0.05105
 O369 O 0.52059 0.54635 0.00006
 O370 O 0.52062 0.45378 0.00027
 O371 O 0.47939 0.54597 0.00008
 O372 O 0.52167 0.50013 0.04542
 O373 O 0.56174 0.46652 0.03090
 O374 O 0.53312 0.43532 0.06022
 O375 O 0.47781 0.50005 0.04569
 O376 O 0.47782 0.49996 -0.04544
 O377 O 0.47942 0.45406 0.00028
 O378 O 0.52172 0.50004 -0.04509
 Zr379 Zr 0.49985 0.45648 0.04441
 Zr380 Zr 0.49983 0.54360 -0.04408
 Zr381 Zr 0.54104 0.50010 0.00019
 Zr382 Zr 0.49982 0.54370 0.04422
 Zr383 Zr 0.49986 0.45640 -0.04389
 Zr384 Zr 0.45869 0.49998 0.00015
 H385 H 0.46977 0.56781 0.00006
 H386 H 0.53232 0.50016 0.06553
 H387 H 0.46980 0.43219 0.00036
 H388 H 0.53241 0.50004 -0.06520
 H389 H 0.50426 0.39134 0.02964
 H390 H 0.49861 0.39110 -0.02846
 H391 H 0.50415 0.60883 0.02916
 H392 H 0.49861 0.60893 -0.02896
 C393 C 0.75062 0.75035 0.13861
 C394 C 0.75052 0.75049 0.36058
 C395 C 0.69474 0.80772 0.19714
 C396 C 0.69466 0.69319 0.19751
 C397 C 0.69479 0.80797 0.30160
 C398 C 0.80527 0.80487 0.30414
 C399 C 0.80518 0.69581 0.30435
 C400 C 0.80525 0.80478 0.19449
 C401 C 0.69467 0.69306 0.30170
 C402 C 0.80515 0.69579 0.19466
 O403 O 0.71675 0.81562 0.30906
 O404 O 0.68806 0.78420 0.28025
 O405 O 0.71661 0.68534 0.30921
 O406 O 0.68799 0.71686 0.28032
 O407 O 0.78321 0.68814 0.18712
 O408 O 0.81181 0.71800 0.21756
 O409 O 0.75021 0.72049 0.34561
 O410 O 0.75027 0.78048 0.34550
 O411 O 0.75028 0.72035 0.15366
 O412 O 0.75035 0.78037 0.15354
 O413 O 0.78336 0.81265 0.31171
 O414 O 0.81188 0.78259 0.28131
 O415 O 0.71671 0.81520 0.18941
 O416 O 0.68804 0.78417 0.21883
 O417 O 0.78334 0.81250 0.18690
 O418 O 0.81186 0.78258 0.21746
 O419 O 0.78324 0.68813 0.31195
 O420 O 0.81183 0.71806 0.28143
 O421 O 0.75094 0.65177 0.19891
 O422 O 0.75057 0.65197 0.30150
 O423 O 0.75081 0.84893 0.30108
 O424 O 0.75117 0.84902 0.19862
 O425 O 0.72919 0.79676 0.24950
 O426 O 0.72911 0.70420 0.24967
 O427 O 0.77047 0.79634 0.24944
 O428 O 0.72810 0.75042 0.20439
 O429 O 0.68800 0.71682 0.21903
 O430 O 0.71660 0.68561 0.18980
 O431 O 0.77193 0.75037 0.20405
 O432 O 0.77195 0.75042 0.29506
 O433 O 0.77037 0.70439 0.24962
 O434 O 0.72806 0.75047 0.29483
 Zr435 Zr 0.74990 0.70676 0.20552
 Zr436 Zr 0.74998 0.79405 0.29362
 Zr437 Zr 0.70870 0.75051 0.24960
 Zr438 Zr 0.74998 0.79403 0.20534
 Zr439 Zr 0.74990 0.70683 0.29379
 Zr440 Zr 0.79112 0.75034 0.24949
 H441 H 0.78016 0.81813 0.24935
 H442 H 0.71744 0.75041 0.18428
 H443 H 0.78002 0.68257 0.24960
 H444 H 0.71738 0.75049 0.31494
 H445 H 0.74510 0.64170 0.22060
 H446 H 0.75169 0.64156 0.27853
 H447 H 0.74517 0.85911 0.22019
 H448 H 0.75200 0.85929 0.27807
 C449 C 0.00029 0.00001 0.38893
 C450 C 0.00011 0.00008 0.61146
 C451 C -0.05534 0.05789 0.44854
 C452 C -0.05548 -0.05742 0.44831
 C453 C -0.05550 0.05756 0.55211
 C454 C 0.05497 0.05430 0.55508
 C455 C 0.05489 -0.05453 0.55495
 C456 C 0.05506 0.05445 0.44550
 C457 C -0.05550 -0.05776 0.55167
 C458 C 0.05499 -0.05438 0.44534
 O459 O -0.03356 0.06505 0.55986
 O460 O -0.06217 0.03380 0.53072
 O461 O -0.03359 -0.06539 0.55933
 O462 O -0.06218 -0.03373 0.53056
 O463 O 0.03307 -0.06205 0.43768
 O464 O 0.06159 -0.03224 0.46832
 O465 O -0.00019 -0.02991 0.59638
 O466 O -0.00011 0.03008 0.59637
 O467 O 0.00000 -0.03000 0.40402
 O468 O 0.00003 0.02999 0.40401
 O469 O 0.03306 0.06203 0.56271
 O470 O 0.06157 0.03216 0.53212
 O471 O -0.03339 0.06548 0.44092
 O472 O -0.06209 0.03391 0.46970
 O473 O 0.03318 0.06222 0.43786
 O474 O 0.06165 0.03221 0.46840
 O475 O 0.03297 -0.06224 0.56256
 O476 O 0.06155 -0.03229 0.53205
 O477 O 0.00085 -0.09849 0.44914
 O478 O 0.00050 -0.09838 0.55230
 O479 O 0.00095 0.09857 0.55120
 O480 O 0.00078 0.09846 0.44813
 O481 O -0.02095 0.04631 0.50016
 O482 O -0.02102 -0.04615 0.50020
 O483 O 0.02019 0.04596 0.50019
 O484 O -0.02213 0.00008 0.45486
 O485 O -0.06216 -0.03361 0.46964
 O486 O -0.03355 -0.06495 0.44058
 O487 O 0.02177 0.00003 0.45461
 O488 O 0.02169 0.00001 0.54579
 O489 O 0.02011 -0.04597 0.50021
 O490 O -0.02221 0.00002 0.54550
 Zr491 Zr -0.00028 -0.04354 0.45598
 Zr492 Zr -0.00029 0.04361 0.54440
 Zr493 Zr -0.04145 0.00009 0.50017
 Zr494 Zr -0.00020 0.04362 0.45595
 Zr495 Zr -0.00034 -0.04355 0.54443
 Zr496 Zr 0.04084 -0.00002 0.50021
 H497 H 0.02988 0.06776 0.50023
 H498 H -0.03283 0.00016 0.43479
 H499 H 0.02976 -0.06778 0.50019
 H500 H -0.03295 -0.00006 0.56556
 H501 H -0.00434 -0.10868 0.47111
 H502 H 0.00089 -0.10888 0.52932
 H503 H 0.00117 0.10893 0.47112
 H504 H -0.00433 0.10875 0.52929
 C505 C 0.25042 0.24868 0.86160
 C506 C 0.25055 0.24881 0.63958
 C507 C 0.19461 0.19114 0.80262
 C508 C 0.19472 0.30653 0.80202
 C509 C 0.19476 0.19091 0.69904
 C510 C 0.30519 0.19400 0.69633
 C511 C 0.30520 0.30353 0.69604
 C512 C 0.30517 0.19388 0.80536
 C513 C 0.19469 0.30622 0.69852
 C514 C 0.30516 0.30367 0.80501
 O515 O 0.21671 0.18332 0.69148
 O516 O 0.18803 0.21488 0.72016
 O517 O 0.21665 0.31373 0.69082
 O518 O 0.18800 0.28240 0.71993
 O519 O 0.28323 0.31131 0.81260
 O520 O 0.31181 0.28117 0.78241
 O521 O 0.25028 0.27881 0.65455
 O522 O 0.25025 0.21882 0.65466
 O523 O 0.25012 0.27866 0.84652
 O524 O 0.25016 0.21867 0.84668
 O525 O 0.28329 0.18632 0.68867
 O526 O 0.31182 0.21643 0.71901
 O527 O 0.21655 0.18366 0.81037
 O528 O 0.18796 0.21495 0.78122
 O529 O 0.28322 0.18626 0.81302
 O530 O 0.31179 0.21633 0.78259
 O531 O 0.28329 0.31111 0.68831
 O532 O 0.31181 0.28116 0.71884
 O533 O 0.25071 0.34713 0.80252
 O534 O 0.25103 0.34728 0.69937
 O535 O 0.25075 0.15032 0.69875
 O536 O 0.25090 0.15015 0.80196
 O537 O 0.22915 0.20246 0.75070
 O538 O 0.22916 0.29495 0.75053
 O539 O 0.27033 0.20278 0.75073
 O540 O 0.22798 0.24871 0.79588
 O541 O 0.18800 0.28250 0.78096
 O542 O 0.21666 0.31412 0.80963
 O543 O 0.27191 0.24873 0.79625
 O544 O 0.27197 0.24875 0.70510
 O545 O 0.27035 0.29467 0.75055
 O546 O 0.22804 0.24869 0.70532
 Zr547 Zr 0.24989 0.29231 0.79469
 Zr548 Zr 0.24993 0.20515 0.70654
 Zr549 Zr 0.20868 0.24869 0.75059
 Zr550 Zr 0.24987 0.20509 0.79488
 Zr551 Zr 0.24993 0.29232 0.70639
 Zr552 Zr 0.29107 0.24874 0.75071
 H553 H 0.27995 0.18094 0.75080
 H554 H 0.21725 0.24878 0.81594
 H555 H 0.27997 0.31654 0.75050
 H556 H 0.21734 0.24862 0.68525
 H557 H 0.25116 0.35767 0.77953
 H558 H 0.24591 0.35747 0.72134
 H559 H 0.24589 0.13993 0.77997
 H560 H 0.25101 0.13980 0.72175
 C561 C 0.49941 0.00022 0.38931
 C562 C 0.49931 -0.00042 0.61184
 C563 C 0.55529 -0.05713 0.44820
 C564 C 0.55526 0.05733 0.44850
 C565 C 0.55511 -0.05770 0.55239
 C566 C 0.44464 -0.05513 0.55486
 C567 C 0.44476 0.05449 0.55502
 C568 C 0.44483 -0.05473 0.44589
 C569 C 0.55522 0.05716 0.55269
 C570 C 0.44479 0.05482 0.44607
 O571 O 0.53317 -0.06541 0.55995
 O572 O 0.56183 -0.03384 0.53107
 O573 O 0.53328 0.06482 0.56024
 O574 O 0.56190 0.03345 0.53126
 O575 O 0.46672 0.06247 0.43838
 O576 O 0.43817 0.03234 0.46880
 O577 O 0.49963 0.02960 0.59679
 O578 O 0.49958 -0.03037 0.59671
 O579 O 0.49969 0.03017 0.40443
 O580 O 0.49969 -0.02983 0.40433
 O581 O 0.46654 -0.06279 0.56255
 O582 O 0.43807 -0.03261 0.53218
 O583 O 0.53335 -0.06470 0.44049
 O584 O 0.56193 -0.03359 0.46984
 O585 O 0.46674 -0.06232 0.43817
 O586 O 0.43819 -0.03241 0.46868
 O587 O 0.46666 0.06214 0.56273
 O588 O 0.43814 0.03212 0.53229
 O589 O 0.49903 0.09859 0.44947
 O590 O 0.49928 0.09816 0.55261
 O591 O 0.49915 -0.09869 0.55234
 O592 O 0.49903 -0.09851 0.44927
 O593 O 0.52073 -0.04636 0.50050
 O594 O 0.52077 0.04617 0.50062
 O595 O 0.47960 -0.04606 0.50046
 O596 O 0.52190 0.00005 0.45528
 O597 O 0.56191 0.03367 0.47002
 O598 O 0.53334 0.06492 0.44080
 O599 O 0.47802 0.00001 0.45494
 O600 O 0.47794 -0.00025 0.54618
 O601 O 0.47964 0.04582 0.50062
 O602 O 0.52186 -0.00025 0.54588
 Zr603 Zr 0.50004 0.04362 0.45640
 Zr604 Zr 0.49994 -0.04382 0.54472
 Zr605 Zr 0.54120 -0.00009 0.50056
 Zr606 Zr 0.50005 -0.04357 0.45626
 Zr607 Zr 0.50002 0.04333 0.54485
 Zr608 Zr 0.45890 -0.00013 0.50052
 H609 H 0.46997 -0.06791 0.50039
 H610 H 0.53257 0.00012 0.43515
 H611 H 0.47002 0.06766 0.50061
 H612 H 0.53252 -0.00031 0.56599
 H613 H 0.50422 0.10874 0.47141
 H614 H 0.49926 0.10867 0.52961
 H615 H 0.50435 -0.10873 0.47114
 H616 H 0.49883 -0.10908 0.52931
 C617 C 0.75051 0.25037 0.86168
 C618 C 0.75032 0.24982 0.63971
 C619 C 0.69435 0.19303 0.80358
 C620 C 0.69466 0.30756 0.80288
 C621 C 0.69451 0.19252 0.69904
 C622 C 0.80502 0.19550 0.69616
 C623 C 0.80502 0.30448 0.69575
 C624 C 0.80491 0.19576 0.80574
 C625 C 0.69453 0.30740 0.69865
 C626 C 0.80522 0.30494 0.80545
 O627 O 0.71646 0.18484 0.69151
 O628 O 0.68782 0.21633 0.72037
 O629 O 0.71649 0.31508 0.69107
 O630 O 0.68784 0.28366 0.72012
 O631 O 0.78327 0.31261 0.81303
 O632 O 0.81177 0.28259 0.78258
 O633 O 0.75004 0.27985 0.65464
 O634 O 0.75002 0.21987 0.65486
 O635 O 0.75026 0.28035 0.84660
 O636 O 0.75013 0.22032 0.84682
 O637 O 0.78309 0.18775 0.68865
 O638 O 0.81165 0.21782 0.71895
 O639 O 0.71632 0.18553 0.81124
 O640 O 0.68774 0.21655 0.78182
 O641 O 0.78299 0.18807 0.81341
 O642 O 0.81157 0.21795 0.78278
 O643 O 0.78311 0.31219 0.68818
 O644 O 0.81166 0.28231 0.71870
 O645 O 0.75100 0.34889 0.80132
 O646 O 0.75051 0.34845 0.69867
 O647 O 0.75047 0.15151 0.69944
 O648 O 0.75072 0.15159 0.80182
 O649 O 0.72890 0.20380 0.75097
 O650 O 0.72902 0.29636 0.75067
 O651 O 0.77018 0.20420 0.75093
 O652 O 0.72793 0.25027 0.79602
 O653 O 0.68792 0.28390 0.78143
 O654 O 0.71661 0.31512 0.81050
 O655 O 0.77176 0.25021 0.79626
 O656 O 0.77175 0.25002 0.70524
 O657 O 0.77028 0.29614 0.75057
 O658 O 0.72786 0.24999 0.70558
 Zr659 Zr 0.74987 0.29389 0.79476
 Zr660 Zr 0.74972 0.20641 0.70679
 Zr661 Zr 0.70851 0.25008 0.75089
 Zr662 Zr 0.74967 0.20658 0.79507
 Zr663 Zr 0.74975 0.29361 0.70647
 Zr664 Zr 0.79094 0.25018 0.75077
 H665 H 0.77983 0.18239 0.75103
 H666 H 0.71728 0.25033 0.81616
 H667 H 0.77997 0.31795 0.75053
 H668 H 0.71718 0.24994 0.68550
 H669 H 0.74525 0.35895 0.77961
 H670 H 0.75155 0.35891 0.72163
 H671 H 0.74459 0.14151 0.78034
 H672 H 0.75171 0.14121 0.72247
 C673 C 0.00042 0.49989 0.38889
 C674 C 0.00021 0.49985 0.61142
 C675 C -0.05528 0.55748 0.44811
 C676 C -0.05533 0.44228 0.44833
 C677 C -0.05535 0.55760 0.55170
 C678 C 0.05508 0.55425 0.55485
 C679 C 0.05514 0.44523 0.55494
 C680 C 0.05523 0.55435 0.44525
 C681 C -0.05537 0.44209 0.55177
 C682 C 0.05511 0.44546 0.44535
 O683 O -0.03340 0.56520 0.55931
 O684 O -0.06204 0.53363 0.53055
 O685 O -0.03344 0.43447 0.55940
 O686 O -0.06205 0.46608 0.53060
 O687 O 0.03320 0.43778 0.43771
 O688 O 0.06173 0.46762 0.46828
 O689 O -0.00002 0.46986 0.59637
 O690 O -0.00004 0.52983 0.59629
 O691 O 0.00013 0.46989 0.40400
 O692 O 0.00019 0.52989 0.40393
 O693 O 0.03318 0.56200 0.56242
 O694 O 0.06173 0.53204 0.53199
 O695 O -0.03332 0.56496 0.44037
 O696 O -0.06199 0.53366 0.46951
 O697 O 0.03332 0.56202 0.43758
 O698 O 0.06180 0.53214 0.46823
 O699 O 0.03320 0.43755 0.56256
 O700 O 0.06176 0.46752 0.53203
 O701 O 0.00102 0.40136 0.44899
 O702 O 0.00070 0.40142 0.55221
 O703 O 0.00079 0.59824 0.55197
 O704 O 0.00117 0.59843 0.44885
 O705 O -0.02083 0.54611 0.50006
 O706 O -0.02086 0.45365 0.50018
 O707 O 0.02032 0.54580 0.50009
 O708 O -0.02198 0.49989 0.45482
 O709 O -0.06202 0.46612 0.46962
 O710 O -0.03339 0.43479 0.44061
 O711 O 0.02191 0.49988 0.45458
 O712 O 0.02186 0.49985 0.54576
 O713 O 0.02028 0.45389 0.50019
 O714 O -0.02208 0.49983 0.54546
 Zr715 Zr -0.00013 0.45630 0.45596
 Zr716 Zr -0.00016 0.54341 0.54431
 Zr717 Zr -0.04133 0.49988 0.50010
 Zr718 Zr -0.00007 0.54348 0.45585
 Zr719 Zr -0.00017 0.45626 0.54442
 Zr720 Zr 0.04101 0.49984 0.50015
 H721 H 0.03000 0.56761 0.50005
 H722 H -0.03268 0.49989 0.43475
 H723 H 0.02993 0.43207 0.50017
 H724 H -0.03283 0.49983 0.56550
 H725 H -0.00401 0.39111 0.47100
 H726 H 0.00074 0.39095 0.52921
 H727 H -0.00403 0.60865 0.47076
 H728 H 0.00094 0.60871 0.52894
 C729 C 0.24986 0.74981 0.86130
 C730 C 0.24963 0.74965 0.63929
 C731 C 0.19384 0.69210 0.80262
 C732 C 0.19386 0.80731 0.80244
 C733 C 0.19395 0.69190 0.69905
 C734 C 0.30442 0.69485 0.69593
 C735 C 0.30442 0.80455 0.69578
 C736 C 0.30437 0.69495 0.80496
 C737 C 0.19394 0.80736 0.69880
 C738 C 0.30437 0.80461 0.80474
 O739 O 0.21588 0.68430 0.69141
 O740 O 0.18722 0.71587 0.72015
 O741 O 0.21588 0.81497 0.69114
 O742 O 0.18722 0.78341 0.72001
 O743 O 0.28245 0.81222 0.81242
 O744 O 0.31099 0.78216 0.78205
 O745 O 0.24936 0.77964 0.65429
 O746 O 0.24936 0.71967 0.65438
 O747 O 0.24954 0.77979 0.84626
 O748 O 0.24953 0.71978 0.84640
 O749 O 0.28249 0.68720 0.68834
 O750 O 0.31104 0.71734 0.71859
 O751 O 0.21581 0.68464 0.81029
 O752 O 0.18716 0.71590 0.78122
 O753 O 0.28244 0.68731 0.81268
 O754 O 0.31099 0.71736 0.78217
 O755 O 0.28249 0.81217 0.68815
 O756 O 0.31104 0.78210 0.71849
 O757 O 0.25018 0.84831 0.80135
 O758 O 0.24995 0.84807 0.69822
 O759 O 0.24993 0.65127 0.69856
 O760 O 0.25012 0.65117 0.80177
 O761 O 0.22836 0.70346 0.75051
 O762 O 0.22836 0.79595 0.75034
 O763 O 0.26954 0.70376 0.75045
 O764 O 0.22724 0.74972 0.79574
 O765 O 0.18717 0.78347 0.78111
 O766 O 0.21583 0.81479 0.81007
 O767 O 0.27112 0.74975 0.79588
 O768 O 0.27117 0.74969 0.70474
 O769 O 0.26956 0.79565 0.75027
 O770 O 0.22720 0.74965 0.70518
 Zr771 Zr 0.24911 0.79336 0.79445
 Zr772 Zr 0.24912 0.70610 0.70629
 Zr773 Zr 0.20788 0.74968 0.75056
 Zr774 Zr 0.24910 0.70611 0.79463
 Zr775 Zr 0.24912 0.79325 0.70614
 Zr776 Zr 0.29028 0.74972 0.75033
 H777 H 0.27916 0.68191 0.75049
 H778 H 0.21655 0.74973 0.81585
 H779 H 0.27918 0.81752 0.75024
 H780 H 0.21648 0.74963 0.68513
 H781 H 0.24508 0.85851 0.77937
 H782 H 0.25029 0.85860 0.72119
 H783 H 0.24512 0.64093 0.77978
 H784 H 0.25017 0.64077 0.72157
 C785 C 0.49913 0.50013 0.38919
 C786 C 0.49913 0.49994 0.61117
 C787 C 0.55509 0.44285 0.44789
 C788 C 0.55509 0.55737 0.44788
 C789 C 0.55505 0.44264 0.55226
 C790 C 0.44455 0.44504 0.55465
 C791 C 0.44452 0.55483 0.55467
 C792 C 0.44461 0.44526 0.44570
 C793 C 0.55502 0.55748 0.55210
 C794 C 0.44461 0.55487 0.44562
 O795 O 0.53309 0.43492 0.55978
 O796 O 0.56175 0.46642 0.53083
 O797 O 0.53307 0.56515 0.55963
 O798 O 0.56173 0.53371 0.53075
 O799 O 0.46654 0.56249 0.43793
 O800 O 0.43797 0.53243 0.46839
 O801 O 0.49943 0.52994 0.59615
 O802 O 0.49943 0.46996 0.59617
 O803 O 0.49944 0.53012 0.40418
 O804 O 0.49943 0.47011 0.40421
 O805 O 0.46647 0.43741 0.56227
 O806 O 0.43793 0.46756 0.53200
 O807 O 0.53314 0.43531 0.44023
 O808 O 0.56177 0.46644 0.46948
 O809 O 0.46652 0.43766 0.43800
 O810 O 0.43797 0.46764 0.46843
 O811 O 0.46645 0.56250 0.56227
 O812 O 0.43790 0.53235 0.53200
 O813 O 0.49886 0.59866 0.44912
 O814 O 0.49913 0.59845 0.55199
 O815 O 0.49913 0.40153 0.55204
 O816 O 0.49881 0.40150 0.44920
 O817 O 0.52062 0.45375 0.50018
 O818 O 0.52062 0.54631 0.50015
 O819 O 0.47940 0.45409 0.50021
 O820 O 0.52170 0.50009 0.45494
 O821 O 0.56176 0.53375 0.46946
 O822 O 0.53315 0.56491 0.44021
 O823 O 0.47784 0.50006 0.45467
 O824 O 0.47779 0.49997 0.54579
 O825 O 0.47940 0.54599 0.50017
 O826 O 0.52169 0.50003 0.54543
 Zr827 Zr 0.49986 0.54369 0.45602
 Zr828 Zr 0.49983 0.45639 0.54435
 Zr829 Zr 0.54107 0.50005 0.50015
 Zr830 Zr 0.49986 0.45646 0.45605
 Zr831 Zr 0.49982 0.54361 0.54432
 Zr832 Zr 0.45867 0.50002 0.50022
 H833 H 0.46978 0.43222 0.50018
 H834 H 0.53236 0.50012 0.43481
 H835 H 0.46978 0.56783 0.50013
 H836 H 0.53236 0.50002 0.56553
 H837 H 0.50436 0.60879 0.47093
 H838 H 0.49843 0.60892 0.52898
 H839 H 0.50435 0.39133 0.47098
 H840 H 0.49847 0.39111 0.52904
 C841 C 0.75046 0.74990 0.86075
 C842 C 0.75029 0.75011 0.63877
 C843 C 0.69457 0.69264 0.80210
 C844 C 0.69455 0.80716 0.80213
 C845 C 0.69452 0.69256 0.69795
 C846 C 0.80499 0.69557 0.69497
 C847 C 0.80495 0.80452 0.69497
 C848 C 0.80498 0.69557 0.80453
 C849 C 0.69456 0.80743 0.69799
 C850 C 0.80503 0.80446 0.80451
 O851 O 0.71645 0.68487 0.69038
 O852 O 0.68784 0.71633 0.71932
 O853 O 0.71649 0.81517 0.69040
 O854 O 0.68786 0.78360 0.71934
 O855 O 0.78312 0.81215 0.81218
 O856 O 0.81163 0.78227 0.78157
 O857 O 0.75000 0.78008 0.65379
 O858 O 0.75001 0.72010 0.65379
 O859 O 0.75016 0.77992 0.84575
 O860 O 0.75014 0.71990 0.84576
 O861 O 0.78307 0.68781 0.68744
 O862 O 0.81161 0.71783 0.71782
 O863 O 0.71650 0.68508 0.80975
 O864 O 0.68788 0.71627 0.78056
 O865 O 0.78307 0.68782 0.81220
 O866 O 0.81160 0.71779 0.78158
 O867 O 0.78305 0.81229 0.68744
 O868 O 0.81160 0.78226 0.71782
 O869 O 0.75090 0.84857 0.80064
 O870 O 0.75052 0.84849 0.69797
 O871 O 0.75048 0.65156 0.69802
 O872 O 0.75087 0.65136 0.80076
 O873 O 0.72897 0.70368 0.74984
 O874 O 0.72898 0.79627 0.74983
 O875 O 0.77020 0.70401 0.74976
 O876 O 0.72793 0.74994 0.79505
 O877 O 0.68787 0.78356 0.78058
 O878 O 0.71650 0.81473 0.80978
 O879 O 0.77174 0.74998 0.79525
 O880 O 0.77172 0.75004 0.70420
 O881 O 0.77021 0.79599 0.74974
 O882 O 0.72785 0.75000 0.70458
 Zr883 Zr 0.74977 0.79359 0.79392
 Zr884 Zr 0.74972 0.70641 0.70564
 Zr885 Zr 0.70855 0.74995 0.74989
 Zr886 Zr 0.74976 0.70633 0.79393
 Zr887 Zr 0.74972 0.79363 0.70565
 Zr888 Zr 0.79087 0.75002 0.74972
 H889 H 0.77986 0.68221 0.74979
 H890 H 0.71727 0.74991 0.81519
 H891 H 0.77989 0.81781 0.74976
 H892 H 0.71716 0.75002 0.68451
 H893 H 0.74513 0.85870 0.77896
 H894 H 0.75145 0.85889 0.72096
 H895 H 0.74520 0.64122 0.77905
 H896 H 0.75131 0.64113 0.72103
 C897 C 0.00120 -0.00015 0.14633
 C898 C 0.00125 -0.00013 0.17702
 C899 C 0.00118 -0.00007 0.21368
 C900 C 0.02209 -0.00846 0.23170
 C901 C 0.02198 -0.00841 0.26730
 C902 C 0.00096 0.00004 0.28506
 C903 C -0.01995 0.00845 0.26704
 C904 C -0.01984 0.00839 0.23145
 C905 C 0.00080 0.00004 0.32172
 C906 C 0.00060 0.00004 0.35241
 H907 H 0.03845 -0.01505 0.21824
 H908 H 0.03825 -0.01496 0.28095
 H909 H -0.03631 0.01501 0.28049
 H910 H -0.03612 0.01493 0.21780
 C911 C 0.25086 0.25000 0.10306
 C912 C 0.25103 0.24994 0.07249
 C913 C 0.25107 0.24980 0.03602
 C914 C 0.27164 0.23933 0.01827
 C915 C 0.27160 0.23905 -0.01726
 C916 C 0.25099 0.24924 -0.03505
 C917 C 0.23043 0.25973 -0.01729
 C918 C 0.23047 0.26001 0.01823
 C919 C 0.25090 0.24894 -0.07151
 C920 C 0.25072 0.24877 -0.10208
 H921 H 0.28764 0.23138 0.03186
 H922 H 0.28757 0.23090 -0.03083
 H923 H 0.21442 0.26765 -0.03087
 H924 H 0.21448 0.26812 0.03179
 C925 C 0.07428 0.07190 0.07209
 C926 C 0.08965 0.08666 0.08823
 C927 C 0.10784 0.10433 0.10773
 C928 C 0.10760 0.10235 0.14333
 C929 C 0.12515 0.11982 0.16231
 C930 C 0.14300 0.13934 0.14575
 C931 C 0.14327 0.14125 0.11015
 C932 C 0.12573 0.12379 0.09118
 C933 C 0.16100 0.15761 0.16512
 C934 C 0.17623 0.17325 0.18072
 H935 H 0.09383 0.08739 0.15638
 H936 H 0.12477 0.11819 0.18982
 H937 H 0.15699 0.15629 0.09709
 H938 H 0.12607 0.12552 0.06368
 C939 C 0.32346 0.32305 0.17776
 C940 C 0.33886 0.33846 0.16228
 C941 C 0.35711 0.35694 0.14363
 C942 C 0.37332 0.37877 0.16078
 C943 C 0.39099 0.39688 0.14259
 C944 C 0.39250 0.39321 0.10720
 C945 C 0.37630 0.37138 0.09005
 C946 C 0.35862 0.35327 0.10824
 C947 C 0.41075 0.41169 0.08854
 C948 C 0.42615 0.42708 0.07303
 H949 H 0.37227 0.38179 0.18814
 H950 H 0.40346 0.41369 0.15607
 H951 H 0.37734 0.36836 0.06269
 H952 H 0.34616 0.33646 0.09476
 C953 C 0.32356 0.17728 0.17763
 C954 C 0.33895 0.16198 0.16203
 C955 C 0.35717 0.14362 0.14320
 C956 C 0.35799 0.14634 0.10767
 C957 C 0.37560 0.12833 0.08930
 C958 C 0.39244 0.10751 0.10640
 C959 C 0.39163 0.10479 0.14193
 C960 C 0.37402 0.12281 0.16030
 C961 C 0.41063 0.08909 0.08756
 C962 C 0.42598 0.07372 0.07194
 H963 H 0.34503 0.16234 0.09419
 H964 H 0.37608 0.13063 0.06184
 H965 H 0.40458 0.08878 0.15541
 H966 H 0.37353 0.12050 0.18776
 C967 C 0.17608 0.32639 0.18047
 C968 C 0.16077 0.34195 0.16487
 C969 C 0.14266 0.36016 0.14557
 C970 C 0.12452 0.37895 0.16223
 C971 C 0.10687 0.39636 0.14333
 C972 C 0.10728 0.39506 0.10770
 C973 C 0.12544 0.37633 0.09106
 C974 C 0.14308 0.35893 0.10994
 C975 C 0.08901 0.41277 0.08826
 C976 C 0.07362 0.42759 0.07217
 H977 H 0.12400 0.38007 0.18975
 H978 H 0.09291 0.41075 0.15648
 H979 H 0.12594 0.37513 0.06354
 H980 H 0.15701 0.34447 0.09678
 C981 C 0.32341 0.17692 0.32316
 C982 C 0.33882 0.16152 0.33867
 C983 C 0.35710 0.14305 0.35733
 C984 C 0.35807 0.14566 0.39285
 C985 C 0.37578 0.12762 0.41102
 C986 C 0.39258 0.10689 0.39374
 C987 C 0.39161 0.10428 0.35822
 C988 C 0.37390 0.12232 0.34005
 C989 C 0.41088 0.08844 0.41240
 C990 C 0.42629 0.07304 0.42788
 H991 H 0.34516 0.16160 0.40648
 H992 H 0.37638 0.12984 0.43848
 H993 H 0.40452 0.08834 0.34460
 H994 H 0.37331 0.12010 0.31259
 C995 C 0.17599 0.32663 0.31916
 C996 C 0.16069 0.34229 0.33456
 C997 C 0.14261 0.36057 0.35369
 C998 C 0.12418 0.37855 0.33688
 C999 C 0.10652 0.39597 0.35567
 C1000 C 0.10724 0.39546 0.39129
 C1001 C 0.12571 0.37755 0.40808
 C1002 C 0.14336 0.36013 0.38931
 C1003 C 0.08898 0.41311 0.41061
 C1004 C 0.07358 0.42786 0.42665
 H1005 H 0.12343 0.37901 0.30935
 H1006 H 0.09229 0.40975 0.34246
 H1007 H 0.12642 0.37698 0.43561
 H1008 H 0.15754 0.34627 0.40253
 C1009 C 0.17609 0.17291 0.31913
 C1010 C 0.16079 0.15723 0.33455
 C1011 C 0.14271 0.13899 0.35372
 C1012 C 0.14335 0.13973 0.38933
 C1013 C 0.12566 0.12239 0.40815
 C1014 C 0.10728 0.10427 0.39141
 C1015 C 0.10666 0.10344 0.35579
 C1016 C 0.12436 0.12079 0.33695
 C1017 C 0.08898 0.08671 0.41075
 C1018 C 0.07356 0.07202 0.42681
 H1019 H 0.15747 0.15378 0.40251
 H1020 H 0.12628 0.12319 0.43568
 H1021 H 0.09250 0.08949 0.34263
 H1022 H 0.12371 0.12011 0.30942
 C1023 C 0.32332 0.32312 0.32302
 C1024 C 0.33871 0.33854 0.33848
 C1025 C 0.35698 0.35703 0.35710
 C1026 C 0.35849 0.35334 0.39249
 C1027 C 0.37619 0.37141 0.41063
 C1028 C 0.39242 0.39324 0.39344
 C1029 C 0.39091 0.39693 0.35804
 C1030 C 0.37321 0.37886 0.33990
 C1031 C 0.41071 0.41169 0.41205
 C1032 C 0.42612 0.42707 0.42751
 H1033 H 0.34601 0.33654 0.40603
 H1034 H 0.37722 0.36836 0.43800
 H1035 H 0.40339 0.41373 0.34450
 H1036 H 0.37218 0.38191 0.31254
 C1037 C 0.49876 0.00097 0.14679
 C1038 C 0.49867 0.00094 0.17747
 C1039 C 0.49869 0.00083 0.21411
 C1040 C 0.51973 -0.00744 0.23189
 C1041 C 0.51979 -0.00758 0.26747
 C1042 C 0.49881 0.00056 0.28548
 C1043 C 0.47777 0.00883 0.26771
 C1044 C 0.47771 0.00896 0.23211
 C1045 C 0.49892 0.00044 0.32212
 C1046 C 0.49909 0.00034 0.35280
 H1047 H 0.53606 -0.01378 0.21825
 H1048 H 0.53616 -0.01401 0.28093
 H1049 H 0.46145 0.01516 0.28136
 H1050 H 0.46134 0.01539 0.21865
 C1051 C 0.75102 0.25005 0.10296
 C1052 C 0.75119 0.25018 0.07241
 C1053 C 0.75124 0.25037 0.03598
 C1054 C 0.77218 0.24179 0.01816
 C1055 C 0.77216 0.24188 -0.01736
 C1056 C 0.75119 0.25055 -0.03505
 C1057 C 0.73026 0.25916 -0.01722
 C1058 C 0.73028 0.25907 0.01828
 C1059 C 0.75109 0.25051 -0.07148
 C1060 C 0.75088 0.25046 -0.10203
 H1061 H 0.78846 0.23502 0.03170
 H1062 H 0.78842 0.23517 -0.03100
 H1063 H 0.71397 0.26588 -0.03075
 H1064 H 0.71401 0.26573 0.03191
 C1065 C 0.57341 0.07647 0.06910
 C1066 C 0.58880 0.09139 0.08511
 C1067 C 0.60703 0.10870 0.10492
 C1068 C 0.60682 0.10586 0.14048
 C1069 C 0.62456 0.12246 0.15984
 C1070 C 0.64262 0.14198 0.14373
 C1071 C 0.64284 0.14482 0.10818
 C1072 C 0.62509 0.12822 0.08882
 C1073 C 0.66086 0.15927 0.16356
 C1074 C 0.67624 0.17416 0.17961
 H1075 H 0.59295 0.09081 0.15322
 H1076 H 0.62419 0.12010 0.18730
 H1077 H 0.65670 0.15987 0.09544
 H1078 H 0.62546 0.13058 0.06135
 C1079 C 0.82370 0.32188 0.17633
 C1080 C 0.83910 0.33662 0.16017
 C1081 C 0.85739 0.35423 0.14069
 C1082 C 0.87564 0.37281 0.15731
 C1083 C 0.89330 0.39016 0.13838
 C1084 C 0.89280 0.38902 0.10276
 C1085 C 0.87458 0.37038 0.08613
 C1086 C 0.85691 0.35301 0.10507
 C1087 C 0.91089 0.40724 0.08346
 C1088 C 0.92620 0.42287 0.06791
 H1089 H 0.87617 0.37393 0.18483
 H1090 H 0.90729 0.40452 0.15150
 H1091 H 0.87401 0.36935 0.05861
 H1092 H 0.84287 0.33873 0.09197
 C1093 C 0.92678 0.07647 0.06843
 C1094 C 0.91141 0.09202 0.08396
 C1095 C 0.89319 0.11023 0.10317
 C1096 C 0.87503 0.12889 0.08641
 C1097 C 0.85730 0.14628 0.10520
 C1098 C 0.85761 0.14509 0.14085
 C1099 C 0.87579 0.12647 0.15759
 C1100 C 0.89352 0.10910 0.13882
 C1101 C 0.83925 0.16279 0.16020
 C1102 C 0.82380 0.17758 0.17627
 H1103 H 0.87456 0.12995 0.05888
 H1104 H 0.84333 0.16057 0.09195
 H1105 H 0.87624 0.12533 0.18512
 H1106 H 0.90745 0.09474 0.15208
 C1107 C 0.67631 0.32560 0.17999
 C1108 C 0.66094 0.34066 0.16410
 C1109 C 0.64272 0.35818 0.14447
 C1110 C 0.62440 0.37685 0.16082
 C1111 C 0.60665 0.39365 0.14164
 C1112 C 0.60714 0.39185 0.10604
 C1113 C 0.62547 0.37319 0.08969
 C1114 C 0.64321 0.35639 0.10887
 C1115 C 0.58891 0.40935 0.08641
 C1116 C 0.57353 0.42438 0.07050
 H1117 H 0.62382 0.37838 0.18833
 H1118 H 0.59258 0.40804 0.15455
 H1119 H 0.62604 0.37166 0.06218
 H1120 H 0.65729 0.34199 0.09596
 C1121 C 0.82368 0.17759 0.32349
 C1122 C 0.83910 0.16291 0.33955
 C1123 C 0.85741 0.14540 0.35888
 C1124 C 0.85662 0.14585 0.39451
 C1125 C 0.87434 0.12857 0.41332
 C1126 C 0.89288 0.11082 0.39654
 C1127 C 0.89369 0.11046 0.36092
 C1128 C 0.87599 0.12772 0.34212
 C1129 C 0.91098 0.09264 0.41569
 C1130 C 0.92628 0.07702 0.43112
 H1131 H 0.84231 0.15945 0.40770
 H1132 H 0.87354 0.12897 0.44085
 H1133 H 0.90795 0.09676 0.34771
 H1134 H 0.87674 0.12721 0.31459
 C1135 C 0.67630 0.32559 0.32022
 C1136 C 0.66093 0.34066 0.33613
 C1137 C 0.64272 0.35818 0.35579
 C1138 C 0.62444 0.37697 0.33948
 C1139 C 0.60671 0.39377 0.35869
 C1140 C 0.60716 0.39183 0.39429
 C1141 C 0.62544 0.37304 0.41060
 C1142 C 0.64317 0.35625 0.39139
 C1143 C 0.58893 0.40932 0.41396
 C1144 C 0.57356 0.42434 0.42989
 H1145 H 0.62389 0.37861 0.31197
 H1146 H 0.59266 0.40826 0.34581
 H1147 H 0.62598 0.37139 0.43811
 H1148 H 0.65721 0.34175 0.40427
 C1149 C 0.67635 0.17349 0.32004
 C1150 C 0.66101 0.15850 0.33603
 C1151 C 0.64283 0.14118 0.35585
 C1152 C 0.64337 0.14338 0.39142
 C1153 C 0.62563 0.12681 0.41082
 C1154 C 0.60728 0.10801 0.39469
 C1155 C 0.60675 0.10580 0.35912
 C1156 C 0.62449 0.12237 0.33972
 C1157 C 0.58908 0.09073 0.41451
 C1158 C 0.57371 0.07581 0.43052
 H1159 H 0.65747 0.15792 0.40411
 H1160 H 0.62621 0.12864 0.43830
 H1161 H 0.59264 0.09127 0.34642
 H1162 H 0.62390 0.12055 0.31223
 C1163 C 0.82375 0.32177 0.32349
 C1164 C 0.83915 0.33658 0.33949
 C1165 C 0.85743 0.35429 0.35877
 C1166 C 0.85725 0.35264 0.39439
 C1167 C 0.87492 0.37011 0.41314
 C1168 C 0.89283 0.38929 0.39633
 C1169 C 0.89303 0.39087 0.36072
 C1170 C 0.87537 0.37341 0.34198
 C1171 C 0.91093 0.40756 0.41546
 C1172 C 0.92624 0.42321 0.43088
 H1173 H 0.84344 0.33794 0.40762
 H1174 H 0.87459 0.36874 0.44066
 H1175 H 0.90679 0.40565 0.34747
 H1176 H 0.87567 0.37487 0.31446
 C1177 C 0.00052 0.49986 0.14637
 C1178 C 0.00066 0.49986 0.17705
 C1179 C 0.00072 0.49989 0.21369
 C1180 C 0.02169 0.49137 0.23153
 C1181 C 0.02172 0.49138 0.26713
 C1182 C 0.00078 0.49991 0.28505
 C1183 C -0.02018 0.50843 0.26721
 C1184 C -0.02021 0.50842 0.23163
 C1185 C 0.00077 0.49989 0.32170
 C1186 C 0.00066 0.49989 0.35238
 H1187 H 0.03798 0.48472 0.21793
 H1188 H 0.03803 0.48474 0.28065
 H1189 H -0.03647 0.51507 0.28080
 H1190 H -0.03652 0.51505 0.21811
 C1191 C 0.25113 0.75111 0.10254
 C1192 C 0.25121 0.75106 0.07199
 C1193 C 0.25114 0.75094 0.03556
 C1194 C 0.27168 0.74059 0.01769
 C1195 C 0.27151 0.74031 -0.01783
 C1196 C 0.25081 0.75037 -0.03545
 C1197 C 0.23028 0.76075 -0.01757
 C1198 C 0.23045 0.76102 0.01793
 C1199 C 0.25059 0.75006 -0.07187
 C1200 C 0.25030 0.74989 -0.10242
 H1201 H 0.28775 0.73273 0.03118
 H1202 H 0.28746 0.73225 -0.03151
 H1203 H 0.21420 0.76857 -0.03104
 H1204 H 0.21448 0.76904 0.03161
 C1205 C 0.07369 0.57227 0.07225
 C1206 C 0.08911 0.58722 0.08827
 C1207 C 0.10741 0.60514 0.10758
 C1208 C 0.10767 0.60280 0.14318
 C1209 C 0.12533 0.62040 0.16193
 C1210 C 0.14285 0.64045 0.14519
 C1211 C 0.14261 0.64273 0.10959
 C1212 C 0.12495 0.62515 0.09085
 C1213 C 0.16102 0.65880 0.16438
 C1214 C 0.17636 0.67444 0.17991
 H1215 H 0.09421 0.58745 0.15642
 H1216 H 0.12530 0.61842 0.18942
 H1217 H 0.15603 0.65815 0.09634
 H1218 H 0.12496 0.62720 0.06336
 C1219 C 0.42732 0.92916 0.07083
 C1220 C 0.41185 0.91369 0.08648
 C1221 C 0.39350 0.89508 0.10535
 C1222 C 0.39197 0.89867 0.14079
 C1223 C 0.37428 0.88050 0.15912
 C1224 C 0.35798 0.85858 0.14216
 C1225 C 0.35951 0.85500 0.10672
 C1226 C 0.37720 0.87317 0.08840
 C1227 C 0.33964 0.83995 0.16104
 C1228 C 0.32419 0.82444 0.17667
 H1229 H 0.40444 0.91548 0.15425
 H1230 H 0.37331 0.88356 0.18648
 H1231 H 0.34704 0.83819 0.09326
 H1232 H 0.37816 0.87010 0.06104
 C1233 C 0.32378 0.67798 0.17703
 C1234 C 0.33913 0.66247 0.16158
 C1235 C 0.35731 0.64382 0.14299
 C1236 C 0.35817 0.64614 0.10744
 C1237 C 0.37576 0.62785 0.08932
 C1238 C 0.39254 0.60717 0.10670
 C1239 C 0.39168 0.60485 0.14225
 C1240 C 0.37409 0.62314 0.16037
 C1241 C 0.41074 0.58854 0.08812
 C1242 C 0.42610 0.57305 0.07268
 H1243 H 0.34525 0.66204 0.09377
 H1244 H 0.37629 0.62984 0.06184
 H1245 H 0.40460 0.58895 0.15592
 H1246 H 0.37356 0.62115 0.18785
 C1247 C 0.07421 0.92804 0.07207
 C1248 C 0.08961 0.91338 0.08818
 C1249 C 0.10789 0.89588 0.10762
 C1250 C 0.10722 0.89679 0.14324
 C1251 C 0.12490 0.87952 0.16215
 C1252 C 0.14329 0.86131 0.14549
 C1253 C 0.14398 0.86048 0.10987
 C1254 C 0.12631 0.87774 0.09097
 C1255 C 0.16137 0.84318 0.16476
 C1256 C 0.17665 0.82762 0.18030
 H1257 H 0.09304 0.91074 0.15636
 H1258 H 0.12419 0.88029 0.18968
 H1259 H 0.15812 0.84644 0.09674
 H1260 H 0.12698 0.87686 0.06344
 C1261 C 0.32385 0.67784 0.32234
 C1262 C 0.33920 0.66234 0.33786
 C1263 C 0.35738 0.64373 0.35658
 C1264 C 0.35831 0.64634 0.39211
 C1265 C 0.37588 0.62811 0.41034
 C1266 C 0.39260 0.60717 0.39313
 C1267 C 0.39168 0.60456 0.35760
 C1268 C 0.37410 0.62279 0.33937
 C1269 C 0.41079 0.58857 0.41185
 C1270 C 0.42615 0.57310 0.42739
 H1271 H 0.34545 0.66243 0.40568
 H1272 H 0.37645 0.63035 0.43780
 H1273 H 0.40453 0.58847 0.34403
 H1274 H 0.37353 0.62055 0.31191
 C1275 C 0.17642 0.82758 0.31890
 C1276 C 0.16107 0.84314 0.33437
 C1277 C 0.14290 0.86128 0.35354
 C1278 C 0.12458 0.87955 0.33676
 C1279 C 0.10683 0.89681 0.35556
 C1280 C 0.10732 0.89585 0.39120
 C1281 C 0.12567 0.87764 0.40795
 C1282 C 0.14342 0.86040 0.38917
 C1283 C 0.08896 0.91338 0.41053
 C1284 C 0.07351 0.92806 0.42659
 H1285 H 0.12399 0.88037 0.30923
 H1286 H 0.09271 0.91081 0.34234
 H1287 H 0.12623 0.87672 0.43549
 H1288 H 0.15749 0.84632 0.40241
 C1289 C 0.17642 0.67387 0.31891
 C1290 C 0.16110 0.65814 0.33437
 C1291 C 0.14297 0.63978 0.35354
 C1292 C 0.14320 0.64113 0.38916
 C1293 C 0.12552 0.62361 0.40793
 C1294 C 0.10753 0.60465 0.39118
 C1295 C 0.10732 0.60323 0.35555
 C1296 C 0.12501 0.62076 0.33677
 C1297 C 0.08921 0.58687 0.41050
 C1298 C 0.07377 0.57204 0.42654
 H1299 H 0.15700 0.65578 0.40240
 H1300 H 0.12586 0.62491 0.43546
 H1301 H 0.09348 0.58866 0.34232
 H1302 H 0.12464 0.61955 0.30924
 C1303 C 0.32379 0.82387 0.32244
 C1304 C 0.33916 0.83920 0.33799
 C1305 C 0.35739 0.85757 0.35674
 C1306 C 0.35890 0.85355 0.39209
 C1307 C 0.37656 0.87152 0.41037
 C1308 C 0.39274 0.89356 0.39335
 C1309 C 0.39122 0.89758 0.35799
 C1310 C 0.37356 0.87961 0.33971
 C1311 C 0.41098 0.91189 0.41209
 C1312 C 0.42637 0.92719 0.42765
 H1313 H 0.34645 0.83657 0.40549
 H1314 H 0.37760 0.86822 0.43771
 H1315 H 0.40367 0.91456 0.34459
 H1316 H 0.37252 0.88291 0.31237
 C1317 C 0.49871 0.50018 0.14752
 C1318 C 0.49854 0.50017 0.17812
 C1319 C 0.49850 0.50012 0.21461
 C1320 C 0.51940 0.49128 0.23238
 C1321 C 0.51942 0.49127 0.26791
 C1322 C 0.49852 0.50011 0.28574
 C1323 C 0.47761 0.50894 0.26798
 C1324 C 0.47759 0.50894 0.23244
 C1325 C 0.49859 0.50015 0.32224
 C1326 C 0.49878 0.50015 0.35283
 H1327 H 0.53565 0.48442 0.21879
 H1328 H 0.53567 0.48441 0.28146
 H1329 H 0.46137 0.51581 0.28159
 H1330 H 0.46134 0.51582 0.21888
 C1331 C 0.75094 0.75031 0.10228
 C1332 C 0.75109 0.75027 0.07169
 C1333 C 0.75112 0.75023 0.03522
 C1334 C 0.77219 0.74227 0.01742
 C1335 C 0.77217 0.74218 -0.01812
 C1336 C 0.75107 0.75003 -0.03587
 C1337 C 0.73001 0.75799 -0.01806
 C1338 C 0.73003 0.75809 0.01746
 C1339 C 0.75099 0.74992 -0.07234
 C1340 C 0.75081 0.74988 -0.10292
 H1341 H 0.78858 0.73616 0.03098
 H1342 H 0.78854 0.73599 -0.03172
 H1343 H 0.71361 0.76409 -0.03161
 H1344 H 0.71366 0.76426 0.03106
 C1345 C 0.57347 0.57605 0.07015
 C1346 C 0.58883 0.59110 0.08603
 C1347 C 0.60704 0.60859 0.10565
 C1348 C 0.60683 0.60604 0.14122
 C1349 C 0.62457 0.62281 0.16040
 C1350 C 0.64260 0.64219 0.14408
 C1351 C 0.64280 0.64474 0.10851
 C1352 C 0.62506 0.62797 0.08933
 C1353 C 0.66082 0.65965 0.16370
 C1354 C 0.67620 0.67467 0.17958
 H1355 H 0.59298 0.59108 0.15409
 H1356 H 0.62424 0.62070 0.18788
 H1357 H 0.65666 0.65970 0.09564
 H1358 H 0.62540 0.63008 0.06185
 C1359 C 0.92680 0.92326 0.06810
 C1360 C 0.91144 0.90766 0.08357
 C1361 C 0.89324 0.88947 0.10272
 C1362 C 0.89347 0.89082 0.13834
 C1363 C 0.87571 0.87349 0.15710
 C1364 C 0.85762 0.85473 0.14033
 C1365 C 0.85741 0.85330 0.10470
 C1366 C 0.87518 0.87064 0.08593
 C1367 C 0.83924 0.83712 0.15964
 C1368 C 0.82377 0.82238 0.17570
 H1369 H 0.90734 0.90533 0.15159
 H1370 H 0.87604 0.87478 0.18463
 H1371 H 0.84350 0.83888 0.09147
 H1372 H 0.87482 0.86945 0.05841
 C1373 C 0.92613 0.57632 0.06815
 C1374 C 0.91080 0.59194 0.08364
 C1375 C 0.89268 0.61025 0.10284
 C1376 C 0.87453 0.62892 0.08607
 C1377 C 0.85688 0.64644 0.10486
 C1378 C 0.85729 0.64537 0.14051
 C1379 C 0.87546 0.62675 0.15725
 C1380 C 0.89310 0.60924 0.13847
 C1381 C 0.83902 0.66318 0.15985
 C1382 C 0.82363 0.67805 0.17591
 H1383 H 0.87400 0.62987 0.05854
 H1384 H 0.84291 0.66074 0.09163
 H1385 H 0.87597 0.62572 0.18479
 H1386 H 0.90704 0.59488 0.15172
 C1387 C 0.57334 0.92500 0.06938
 C1388 C 0.58874 0.90998 0.08531
 C1389 C 0.60701 0.89248 0.10497
 C1390 C 0.60668 0.89458 0.14057
 C1391 C 0.62444 0.87778 0.15976
 C1392 C 0.64264 0.85880 0.14345
 C1393 C 0.64296 0.85670 0.10785
 C1394 C 0.62521 0.87350 0.08866
 C1395 C 0.66089 0.84129 0.16312
 C1396 C 0.67627 0.82625 0.17907
 H1397 H 0.59271 0.90920 0.15347
 H1398 H 0.62397 0.87957 0.18725
 H1399 H 0.65693 0.84208 0.09495
 H1400 H 0.62567 0.87171 0.06116
 C1401 C 0.82366 0.67807 0.32306
 C1402 C 0.83907 0.66322 0.33908
 C1403 C 0.85737 0.64546 0.35837
 C1404 C 0.85705 0.64667 0.39401
 C1405 C 0.87474 0.62920 0.41276
 C1406 C 0.89282 0.61045 0.39595
 C1407 C 0.89315 0.60930 0.36032
 C1408 C 0.87547 0.62676 0.34158
 C1409 C 0.91096 0.59217 0.41509
 C1410 C 0.92629 0.57654 0.43057
 H1411 H 0.84313 0.66104 0.40726
 H1412 H 0.87429 0.63025 0.44029
 H1413 H 0.90704 0.59486 0.34705
 H1414 H 0.87590 0.62562 0.31405
 C1415 C 0.67637 0.82654 0.31962
 C1416 C 0.66103 0.84154 0.33563
 C1417 C 0.64286 0.85894 0.35545
 C1418 C 0.62453 0.87776 0.33931
 C1419 C 0.60681 0.89441 0.35868
 C1420 C 0.60735 0.89228 0.39427
 C1421 C 0.62569 0.87346 0.41041
 C1422 C 0.64340 0.85682 0.39104
 C1423 C 0.58914 0.90959 0.41409
 C1424 C 0.57377 0.92448 0.43013
 H1425 H 0.62391 0.87954 0.31182
 H1426 H 0.59272 0.90892 0.34594
 H1427 H 0.62630 0.87167 0.43791
 H1428 H 0.65749 0.84230 0.40379
 C1429 C 0.67621 0.67447 0.31969
 C1430 C 0.66085 0.65942 0.33565
 C1431 C 0.64265 0.64194 0.35540
 C1432 C 0.64285 0.64458 0.39096
 C1433 C 0.62513 0.62782 0.41027
 C1434 C 0.60712 0.60836 0.39410
 C1435 C 0.60692 0.60572 0.35854
 C1436 C 0.62464 0.62248 0.33923
 C1437 C 0.58892 0.59091 0.41385
 C1438 C 0.57355 0.57590 0.42984
 H1439 H 0.65669 0.65960 0.40372
 H1440 H 0.62547 0.63001 0.43774
 H1441 H 0.59308 0.59070 0.34578
 H1442 H 0.62430 0.62030 0.31176
 C1443 C 0.82375 0.82251 0.32283
 C1444 C 0.83914 0.83728 0.33889
 C1445 C 0.85738 0.85494 0.35828
 C1446 C 0.85723 0.85298 0.39388
 C1447 C 0.87486 0.87040 0.41275
 C1448 C 0.89270 0.88982 0.39606
 C1449 C 0.89287 0.89171 0.36046
 C1450 C 0.87525 0.87431 0.34161
 C1451 C 0.91078 0.90801 0.41530
 C1452 C 0.92608 0.92359 0.43080
 H1453 H 0.84347 0.83809 0.40702
 H1454 H 0.87456 0.86878 0.44026
 H1455 H 0.90659 0.90669 0.34732
 H1456 H 0.87552 0.87601 0.31410
 C1457 C 0.00095 0.00022 0.85408
 C1458 C 0.00098 0.00024 0.82338
 C1459 C 0.00092 0.00025 0.78672
 C1460 C 0.02186 -0.00805 0.76869
 C1461 C 0.02175 -0.00810 0.73309
 C1462 C 0.00070 0.00014 0.71533
 C1463 C -0.02024 0.00845 0.73336
 C1464 C -0.02013 0.00850 0.76895
 C1465 C 0.00055 0.00008 0.67867
 C1466 C 0.00037 0.00005 0.64798
 H1467 H 0.03823 -0.01448 0.78215
 H1468 H 0.03804 -0.01456 0.71943
 H1469 H -0.03662 0.01487 0.71992
 H1470 H -0.03643 0.01495 0.78261
 C1471 C 0.25036 0.24979 0.39777
 C1472 C 0.25055 0.24971 0.42838
 C1473 C 0.25068 0.24957 0.46490
 C1474 C 0.27147 0.23987 0.48254
 C1475 C 0.27156 0.23966 0.51810
 C1476 C 0.25085 0.24914 0.53607
 C1477 C 0.23006 0.25884 0.51842
 C1478 C 0.22998 0.25905 0.48288
 C1479 C 0.25089 0.24893 0.57259
 C1480 C 0.25080 0.24882 0.60320
 H1481 H 0.28756 0.23249 0.46884
 H1482 H 0.28771 0.23212 0.53154
 H1483 H 0.21396 0.26621 0.53211
 H1484 H 0.21382 0.26658 0.46944
 C1485 C 0.07347 0.07178 0.57384
 C1486 C 0.08893 0.08637 0.58992
 C1487 C 0.10729 0.10378 0.60927
 C1488 C 0.10662 0.10300 0.64490
 C1489 C 0.12438 0.12017 0.66372
 C1490 C 0.14288 0.13815 0.64696
 C1491 C 0.14358 0.13884 0.61134
 C1492 C 0.12583 0.12169 0.59253
 C1493 C 0.16102 0.15625 0.66614
 C1494 C 0.17635 0.17182 0.68159
 H1495 H 0.09235 0.08923 0.65809
 H1496 H 0.12366 0.11952 0.69126
 H1497 H 0.15779 0.15272 0.59813
 H1498 H 0.12651 0.12245 0.56499
 C1499 C 0.32369 0.32178 0.67782
 C1500 C 0.33907 0.33727 0.66229
 C1501 C 0.35728 0.35589 0.64359
 C1502 C 0.37348 0.37777 0.66070
 C1503 C 0.39107 0.39605 0.64247
 C1504 C 0.39252 0.39253 0.60705
 C1505 C 0.37632 0.37065 0.58994
 C1506 C 0.35873 0.35237 0.60817
 C1507 C 0.41072 0.41119 0.58835
 C1508 C 0.42608 0.42672 0.57284
 H1509 H 0.37250 0.38071 0.68808
 H1510 H 0.40353 0.41288 0.65595
 H1511 H 0.37731 0.36772 0.56256
 H1512 H 0.34627 0.33554 0.59469
 C1513 C 0.32365 0.17587 0.67815
 C1514 C 0.33904 0.16055 0.66264
 C1515 C 0.35727 0.14221 0.64394
 C1516 C 0.35820 0.14498 0.60843
 C1517 C 0.37587 0.12701 0.59019
 C1518 C 0.39266 0.10623 0.60742
 C1519 C 0.39174 0.10346 0.64294
 C1520 C 0.37406 0.12142 0.66117
 C1521 C 0.41090 0.08789 0.58873
 C1522 C 0.42629 0.07259 0.57321
 H1523 H 0.34527 0.16098 0.59488
 H1524 H 0.37646 0.12933 0.56273
 H1525 H 0.40466 0.08746 0.65648
 H1526 H 0.37348 0.11911 0.68863
 C1527 C 0.17624 0.32529 0.68095
 C1528 C 0.16091 0.34096 0.66548
 C1529 C 0.14277 0.35933 0.64636
 C1530 C 0.12471 0.37810 0.66320
 C1531 C 0.10704 0.39570 0.64449
 C1532 C 0.10735 0.39460 0.60885
 C1533 C 0.12543 0.37588 0.59202
 C1534 C 0.14309 0.35830 0.61072
 C1535 C 0.08905 0.41249 0.58959
 C1536 C 0.07364 0.42743 0.57360
 H1537 H 0.12426 0.37908 0.69074
 H1538 H 0.09314 0.41007 0.65779
 H1539 H 0.12586 0.37482 0.56449
 H1540 H 0.15695 0.34386 0.59741
 C1541 C 0.42732 0.07202 0.92802
 C1542 C 0.41180 0.08739 0.91257
 C1543 C 0.39337 0.10580 0.89399
 C1544 C 0.37642 0.12621 0.91135
 C1545 C 0.35859 0.14417 0.89328
 C1546 C 0.35761 0.14183 0.85772
 C1547 C 0.37457 0.12141 0.84035
 C1548 C 0.39239 0.10346 0.85843
 C1549 C 0.33919 0.16026 0.83912
 C1550 C 0.32371 0.17564 0.82363
 H1551 H 0.37698 0.12825 0.93883
 H1552 H 0.34558 0.15985 0.90701
 H1553 H 0.37400 0.11937 0.81288
 H1554 H 0.40540 0.08778 0.84470
 C1555 C 0.07351 0.42780 0.92522
 C1556 C 0.08895 0.41297 0.90935
 C1557 C 0.10730 0.39521 0.89031
 C1558 C 0.10644 0.39480 0.85469
 C1559 C 0.12419 0.37724 0.83619
 C1560 C 0.14285 0.36005 0.85327
 C1561 C 0.14374 0.36055 0.88888
 C1562 C 0.12600 0.37810 0.90737
 C1563 C 0.16099 0.34160 0.83444
 C1564 C 0.17631 0.32579 0.81924
 H1565 H 0.09204 0.40794 0.84127
 H1566 H 0.12333 0.37696 0.80866
 H1567 H 0.15809 0.34731 0.90232
 H1568 H 0.12682 0.37825 0.93490
 C1569 C 0.07268 0.07079 0.92674
 C1570 C 0.08819 0.08565 0.91084
 C1571 C 0.10664 0.10338 0.89172
 C1572 C 0.12459 0.12223 0.90868
 C1573 C 0.14243 0.13963 0.89011
 C1574 C 0.14241 0.13825 0.85449
 C1575 C 0.12448 0.11934 0.83752
 C1576 C 0.10663 0.10194 0.85610
 C1577 C 0.16070 0.15648 0.83551
 C1578 C 0.17612 0.17209 0.82013
 H1579 H 0.12477 0.12354 0.93621
 H1580 H 0.15620 0.15419 0.90351
 H1581 H 0.12427 0.11812 0.80999
 H1582 H 0.09283 0.08744 0.84272
 C1583 C 0.42612 0.42669 0.92774
 C1584 C 0.41074 0.41119 0.91229
 C1585 C 0.39252 0.39259 0.89366
 C1586 C 0.39113 0.39602 0.85822
 C1587 C 0.37351 0.37780 0.84007
 C1588 C 0.35721 0.35607 0.85727
 C1589 C 0.35860 0.35264 0.89271
 C1590 C 0.37623 0.37086 0.91086
 C1591 C 0.33899 0.33747 0.83864
 C1592 C 0.32362 0.32197 0.82317
 H1593 H 0.40365 0.41273 0.84466
 H1594 H 0.37258 0.38067 0.81268
 H1595 H 0.34608 0.33593 0.90627
 H1596 H 0.37716 0.36800 0.93825
 C1597 C 0.49866 0.00030 0.85455
 C1598 C 0.49855 0.00015 0.82384
 C1599 C 0.49856 -0.00008 0.78717
 C1600 C 0.51954 -0.00863 0.76935
 C1601 C 0.51960 -0.00880 0.73375
 C1602 C 0.49868 -0.00043 0.71575
 C1603 C 0.47768 0.00810 0.73356
 C1604 C 0.47762 0.00827 0.76917
 C1605 C 0.49879 -0.00049 0.67908
 C1606 C 0.49898 -0.00049 0.64838
 H1607 H 0.53584 -0.01513 0.78297
 H1608 H 0.53594 -0.01543 0.72028
 H1609 H 0.46140 0.01463 0.71994
 H1610 H 0.46129 0.01493 0.78265
 C1611 C 0.75077 0.24936 0.39765
 C1612 C 0.75089 0.24936 0.42828
 C1613 C 0.75090 0.24942 0.46485
 C1614 C 0.77202 0.24193 0.48271
 C1615 C 0.77199 0.24201 0.51828
 C1616 C 0.75084 0.24958 0.53608
 C1617 C 0.72972 0.25708 0.51821
 C1618 C 0.72975 0.25699 0.48265
 C1619 C 0.75077 0.24965 0.57265
 C1620 C 0.75061 0.24973 0.60328
 H1621 H 0.78847 0.23604 0.46917
 H1622 H 0.78841 0.23618 0.53188
 H1623 H 0.71327 0.26296 0.53174
 H1624 H 0.71333 0.26282 0.46907
 C1625 C 0.57366 0.07567 0.57069
 C1626 C 0.58900 0.09065 0.58670
 C1627 C 0.60716 0.10804 0.60651
 C1628 C 0.60675 0.10553 0.64208
 C1629 C 0.62443 0.12223 0.66145
 C1630 C 0.64259 0.14150 0.64532
 C1631 C 0.64300 0.14401 0.60975
 C1632 C 0.62532 0.12730 0.59038
 C1633 C 0.66074 0.15892 0.66512
 C1634 C 0.67607 0.17394 0.68110
 H1635 H 0.59279 0.09066 0.65481
 H1636 H 0.62392 0.12015 0.68893
 H1637 H 0.65696 0.15888 0.59702
 H1638 H 0.62583 0.12939 0.56290
 C1639 C 0.82350 0.32207 0.67695
 C1640 C 0.83892 0.33679 0.66085
 C1641 C 0.85724 0.35437 0.64149
 C1642 C 0.87563 0.37250 0.65823
 C1643 C 0.89334 0.38983 0.63941
 C1644 C 0.89273 0.38910 0.60380
 C1645 C 0.87437 0.37091 0.58703
 C1646 C 0.85665 0.35356 0.60586
 C1647 C 0.91086 0.40732 0.58462
 C1648 C 0.92619 0.42297 0.56918
 H1649 H 0.87624 0.37330 0.68576
 H1650 H 0.90746 0.40386 0.65261
 H1651 H 0.87373 0.37022 0.55950
 H1652 H 0.84249 0.33962 0.59268
 C1653 C 0.92605 0.07656 0.56964
 C1654 C 0.91072 0.09214 0.58514
 C1655 C 0.89259 0.11035 0.60435
 C1656 C 0.87443 0.12901 0.58760
 C1657 C 0.85676 0.14643 0.60642
 C1658 C 0.85718 0.14526 0.64205
 C1659 C 0.87536 0.12666 0.65878
 C1660 C 0.89302 0.10925 0.63998
 C1661 C 0.83890 0.16297 0.66141
 C1662 C 0.82350 0.17779 0.67746
 H1663 H 0.87392 0.13001 0.56007
 H1664 H 0.84278 0.16072 0.59322
 H1665 H 0.87586 0.12557 0.68631
 H1666 H 0.90697 0.09489 0.65319
 C1667 C 0.67609 0.32592 0.68062
 C1668 C 0.66073 0.34091 0.66463
 C1669 C 0.64254 0.35830 0.64484
 C1670 C 0.62403 0.37671 0.66102
 C1671 C 0.60631 0.39338 0.64167
 C1672 C 0.60702 0.39170 0.60607
 C1673 C 0.62554 0.37330 0.58989
 C1674 C 0.64326 0.35663 0.60923
 C1675 C 0.58884 0.40911 0.58628
 C1676 C 0.57349 0.42410 0.57028
 H1677 H 0.62328 0.37814 0.68852
 H1678 H 0.59209 0.40758 0.65445
 H1679 H 0.62629 0.37186 0.56238
 H1680 H 0.65748 0.34243 0.59645
 C1681 C 0.92691 0.07715 0.92996
 C1682 C 0.91151 0.09286 0.91481
 C1683 C 0.89324 0.11114 0.89606
 C1684 C 0.87452 0.12810 0.91323
 C1685 C 0.85662 0.14543 0.89482
 C1686 C 0.85738 0.14582 0.85919
 C1687 C 0.87613 0.12894 0.84204
 C1688 C 0.89402 0.11162 0.86044
 C1689 C 0.83890 0.16340 0.84023
 C1690 C 0.82340 0.17813 0.82438
 H1691 H 0.87374 0.12783 0.94077
 H1692 H 0.84218 0.15841 0.90831
 H1693 H 0.87688 0.12909 0.81450
 H1694 H 0.90841 0.09854 0.84692
 C1695 C 0.57350 0.42409 0.93047
 C1696 C 0.58887 0.40910 0.91459
 C1697 C 0.60708 0.39173 0.89494
 C1698 C 0.60614 0.39274 0.85933
 C1699 C 0.62391 0.37612 0.84009
 C1700 C 0.64269 0.35846 0.85641
 C1701 C 0.64364 0.35745 0.89201
 C1702 C 0.62587 0.37407 0.91125
 C1703 C 0.66090 0.34109 0.83674
 C1704 C 0.67626 0.32611 0.82083
 H1705 H 0.59169 0.40637 0.84648
 H1706 H 0.62300 0.37701 0.81257
 H1707 H 0.65809 0.34381 0.90487
 H1708 H 0.62678 0.37318 0.93877
 C1709 C 0.57175 0.07506 0.93010
 C1710 C 0.58726 0.09026 0.91434
 C1711 C 0.60571 0.10793 0.89493
 C1712 C 0.62364 0.12728 0.91149
 C1713 C 0.64159 0.14418 0.89257
 C1714 C 0.64176 0.14183 0.85697
 C1715 C 0.62383 0.12248 0.84042
 C1716 C 0.60589 0.10559 0.85933
 C1717 C 0.66024 0.15943 0.83754
 C1718 C 0.67577 0.17448 0.82169
 H1719 H 0.62375 0.12929 0.93897
 H1720 H 0.65532 0.15906 0.90570
 H1721 H 0.62373 0.12046 0.81293
 H1722 H 0.59216 0.09070 0.84620
 C1723 C 0.92757 0.42507 0.93040
 C1724 C 0.91209 0.40942 0.91504
 C1725 C 0.89372 0.39105 0.89610
 C1726 C 0.89346 0.39272 0.86045
 C1727 C 0.87562 0.37517 0.84198
 C1728 C 0.85787 0.35579 0.85899
 C1729 C 0.85814 0.35407 0.89464
 C1730 C 0.87599 0.37164 0.91312
 C1731 C 0.83937 0.33783 0.83992
 C1732 C 0.82384 0.32284 0.82406
 H1733 H 0.90702 0.40764 0.84694
 H1734 H 0.87564 0.37676 0.81447
 H1735 H 0.84454 0.33922 0.90814
 H1736 H 0.87594 0.37012 0.94064
 C1737 C 0.00055 0.49984 0.85412
 C1738 C 0.00066 0.49988 0.82342
 C1739 C 0.00068 0.49994 0.78674
 C1740 C 0.02118 0.48937 0.76880
 C1741 C 0.02115 0.48937 0.73319
 C1742 C 0.00063 0.49993 0.71533
 C1743 C -0.01986 0.51052 0.73328
 C1744 C -0.01983 0.51052 0.76888
 C1745 C 0.00056 0.49988 0.67866
 C1746 C 0.00043 0.49986 0.64796
 H1747 H 0.03714 0.48113 0.78232
 H1748 H 0.03709 0.48113 0.71961
 H1749 H -0.03583 0.51874 0.71977
 H1750 H -0.03578 0.51874 0.78246
 C1751 C 0.25072 0.75072 0.39726
 C1752 C 0.25075 0.75061 0.42789
 C1753 C 0.25065 0.75045 0.46445
 C1754 C 0.27133 0.74079 0.48239
 C1755 C 0.27118 0.74056 0.51795
 C1756 C 0.25035 0.74999 0.53568
 C1757 C 0.22968 0.75966 0.51774
 C1758 C 0.22983 0.75989 0.48219
 C1759 C 0.25017 0.74978 0.57224
 C1760 C 0.24995 0.74967 0.60287
 H1761 H 0.28752 0.73344 0.46890
 H1762 H 0.28726 0.73305 0.53160
 H1763 H 0.21349 0.76700 0.53122
 H1764 H 0.21375 0.76739 0.46854
 C1765 C 0.07352 0.57182 0.57358
 C1766 C 0.08888 0.58653 0.58969
 C1767 C 0.10709 0.60410 0.60912
 C1768 C 0.10630 0.60329 0.64473
 C1769 C 0.12390 0.62066 0.66365
 C1770 C 0.14232 0.63887 0.64697
 C1771 C 0.14314 0.63959 0.61136
 C1772 C 0.12555 0.62223 0.59246
 C1773 C 0.16032 0.65711 0.66622
 C1774 C 0.17557 0.67277 0.68168
 H1775 H 0.09207 0.58934 0.65783
 H1776 H 0.12312 0.61999 0.69118
 H1777 H 0.15731 0.65363 0.59825
 H1778 H 0.12629 0.62301 0.56493
 C1779 C 0.42610 0.92662 0.57300
 C1780 C 0.41064 0.91122 0.58845
 C1781 C 0.39229 0.89278 0.60707
 C1782 C 0.39068 0.89648 0.64245
 C1783 C 0.37291 0.87845 0.66059
 C1784 C 0.35669 0.85664 0.64342
 C1785 C 0.35831 0.85295 0.60804
 C1786 C 0.37607 0.87097 0.58989
 C1787 C 0.33836 0.83819 0.66205
 C1788 C 0.32292 0.82279 0.67755
 H1789 H 0.40314 0.91326 0.65598
 H1790 H 0.37182 0.88152 0.68795
 H1791 H 0.34585 0.83616 0.59451
 H1792 H 0.37717 0.86791 0.56254
 C1793 C 0.32293 0.67664 0.67771
 C1794 C 0.33836 0.66127 0.66220
 C1795 C 0.35668 0.64285 0.64353
 C1796 C 0.35760 0.64535 0.60798
 C1797 C 0.37534 0.62737 0.58980
 C1798 C 0.39224 0.60679 0.60708
 C1799 C 0.39133 0.60430 0.64263
 C1800 C 0.37359 0.62228 0.66081
 C1801 C 0.41057 0.58839 0.58841
 C1802 C 0.42600 0.57302 0.57290
 H1803 H 0.34462 0.66116 0.59434
 H1804 H 0.37588 0.62951 0.56233
 H1805 H 0.40431 0.58849 0.65627
 H1806 H 0.37305 0.62014 0.68828
 C1807 C 0.07333 0.92781 0.57365
 C1808 C 0.08870 0.91302 0.58971
 C1809 C 0.10693 0.89535 0.60906
 C1810 C 0.10622 0.89600 0.64469
 C1811 C 0.12385 0.87856 0.66352
 C1812 C 0.14224 0.86042 0.64676
 C1813 C 0.14297 0.85985 0.61114
 C1814 C 0.12535 0.87728 0.59232
 C1815 C 0.16028 0.84214 0.66593
 C1816 C 0.17555 0.82647 0.68138
 H1817 H 0.09204 0.90990 0.65786
 H1818 H 0.12313 0.87913 0.69105
 H1819 H 0.15711 0.84587 0.59795
 H1820 H 0.12604 0.87660 0.56479
 C1821 C 0.42604 0.57302 0.92746
 C1822 C 0.41060 0.58840 0.91201
 C1823 C 0.39226 0.60684 0.89344
 C1824 C 0.37532 0.62725 0.91083
 C1825 C 0.35756 0.64526 0.89275
 C1826 C 0.35666 0.64295 0.85720
 C1827 C 0.37359 0.62254 0.83981
 C1828 C 0.39136 0.60453 0.85789
 C1829 C 0.33832 0.66138 0.83862
 C1830 C 0.32287 0.67675 0.82316
 H1831 H 0.37586 0.62924 0.93831
 H1832 H 0.34455 0.66095 0.90645
 H1833 H 0.37306 0.62055 0.81233
 H1834 H 0.40437 0.58884 0.84419
 C1835 C 0.07262 0.92917 0.92674
 C1836 C 0.08806 0.91416 0.91084
 C1837 C 0.10640 0.89617 0.89169
 C1838 C 0.10617 0.89713 0.85603
 C1839 C 0.12386 0.87943 0.83744
 C1840 C 0.14188 0.86068 0.85440
 C1841 C 0.14213 0.85978 0.89005
 C1842 C 0.12445 0.87746 0.90863
 C1843 C 0.16005 0.84219 0.83538
 C1844 C 0.17540 0.82644 0.81997
 H1845 H 0.09230 0.91147 0.84263
 H1846 H 0.12345 0.88032 0.80990
 H1847 H 0.15595 0.84536 0.90346
 H1848 H 0.12482 0.87649 0.93617
 C1849 C 0.07215 0.57074 0.92692
 C1850 C 0.08765 0.58570 0.91103
 C1851 C 0.10606 0.60360 0.89189
 C1852 C 0.12384 0.62286 0.90883
 C1853 C 0.14161 0.64044 0.89025
 C1854 C 0.14172 0.63888 0.85463
 C1855 C 0.12397 0.61957 0.83768
 C1856 C 0.10619 0.60198 0.85627
 C1857 C 0.15997 0.65727 0.83561
 C1858 C 0.17536 0.67297 0.82020
 H1859 H 0.12394 0.62433 0.93635
 H1860 H 0.15523 0.65529 0.90365
 H1861 H 0.12384 0.61818 0.81016
 H1862 H 0.09253 0.58719 0.84288
 C1863 C 0.42571 0.92736 0.92689
 C1864 C 0.41030 0.91188 0.91151
 C1865 C 0.39201 0.89331 0.89299
 C1866 C 0.39049 0.89681 0.85757
 C1867 C 0.37280 0.87864 0.83952
 C1868 C 0.35656 0.85689 0.85681
 C1869 C 0.35808 0.85338 0.89223
 C1870 C 0.37578 0.87155 0.91028
 C1871 C 0.33828 0.83833 0.83828
 C1872 C 0.32286 0.82287 0.82286
 H1873 H 0.40297 0.91355 0.84395
 H1874 H 0.37176 0.88156 0.81214
 H1875 H 0.34560 0.83665 0.90585
 H1876 H 0.37681 0.86864 0.93766
 C1877 C 0.49890 0.49988 0.85282
 C1878 C 0.49873 0.49983 0.82223
 C1879 C 0.49865 0.49976 0.78574
 C1880 C 0.51940 0.49020 0.76790
 C1881 C 0.51938 0.49021 0.73237
 C1882 C 0.49861 0.49977 0.71461
 C1883 C 0.47786 0.50931 0.73244
 C1884 C 0.47788 0.50930 0.76798
 C1885 C 0.49866 0.49985 0.67812
 C1886 C 0.49881 0.49990 0.64753
 H1887 H 0.53554 0.48280 0.78144
 H1888 H 0.53551 0.48281 0.71877
 H1889 H 0.46172 0.51674 0.71889
 H1890 H 0.46176 0.51673 0.78159
 C1891 C 0.75080 0.75052 0.39696
 C1892 C 0.75092 0.75053 0.42757
 C1893 C 0.75093 0.75053 0.46409
 C1894 C 0.77199 0.74258 0.48191
 C1895 C 0.77195 0.74251 0.51747
 C1896 C 0.75085 0.75038 0.53526
 C1897 C 0.72980 0.75835 0.51743
 C1898 C 0.72984 0.75842 0.48189
 C1899 C 0.75076 0.75026 0.57178
 C1900 C 0.75059 0.75018 0.60238
 H1901 H 0.78838 0.73644 0.46835
 H1902 H 0.78831 0.73632 0.53105
 H1903 H 0.71340 0.76446 0.53098
 H1904 H 0.71347 0.76459 0.46830
 C1905 C 0.57344 0.57604 0.57004
 C1906 C 0.58879 0.59103 0.58598
 C1907 C 0.60697 0.60839 0.60571
 C1908 C 0.60646 0.60620 0.64130
 C1909 C 0.62420 0.62283 0.66060
 C1910 C 0.64252 0.64169 0.64438
 C1911 C 0.64302 0.64389 0.60880
 C1912 C 0.62529 0.62726 0.58949
 C1913 C 0.66071 0.65904 0.66411
 C1914 C 0.67607 0.67402 0.68004
 H1915 H 0.59238 0.59163 0.65408
 H1916 H 0.62363 0.62100 0.68809
 H1917 H 0.65710 0.65846 0.59601
 H1918 H 0.62586 0.62909 0.56200
 C1919 C 0.92608 0.92307 0.56897
 C1920 C 0.91075 0.90739 0.58432
 C1921 C 0.89264 0.88915 0.60340
 C1922 C 0.89334 0.88961 0.63902
 C1923 C 0.87562 0.87227 0.65776
 C1924 C 0.85714 0.85443 0.64094
 C1925 C 0.85646 0.85388 0.60532
 C1926 C 0.87420 0.87124 0.58656
 C1927 C 0.83882 0.83686 0.66022
 C1928 C 0.82341 0.82214 0.67626
 H1929 H 0.90753 0.90344 0.65225
 H1930 H 0.87628 0.87284 0.68530
 H1931 H 0.84222 0.84015 0.59210
 H1932 H 0.87351 0.87078 0.55902
 C1933 C 0.92622 0.57673 0.56908
 C1934 C 0.91089 0.59240 0.58446
 C1935 C 0.89275 0.61067 0.60353
 C1936 C 0.87430 0.62856 0.58666
 C1937 C 0.85657 0.64596 0.60538
 C1938 C 0.85724 0.64552 0.64101
 C1939 C 0.87572 0.62769 0.65786
 C1940 C 0.89343 0.61030 0.63916
 C1941 C 0.83891 0.66317 0.66027
 C1942 C 0.82348 0.67793 0.67628
 H1943 H 0.87359 0.62898 0.55913
 H1944 H 0.84235 0.65967 0.59210
 H1945 H 0.87639 0.62716 0.68540
 H1946 H 0.90761 0.59651 0.65245
 C1947 C 0.57351 0.92371 0.57026
 C1948 C 0.58885 0.90872 0.58616
 C1949 C 0.60703 0.89139 0.60586
 C1950 C 0.60614 0.89269 0.64146
 C1951 C 0.62389 0.87612 0.66076
 C1952 C 0.64259 0.85824 0.64449
 C1953 C 0.64348 0.85693 0.60890
 C1954 C 0.62573 0.87350 0.58960
 C1955 C 0.66078 0.84093 0.66420
 C1956 C 0.67614 0.82597 0.68011
 H1957 H 0.59175 0.90651 0.65426
 H1958 H 0.62303 0.87724 0.68827
 H1959 H 0.65787 0.84311 0.59610
 H1960 H 0.62659 0.87239 0.56209
 C1961 C 0.92638 0.57696 0.92980
 C1962 C 0.91106 0.59268 0.91451
 C1963 C 0.89291 0.61098 0.89556
 C1964 C 0.87417 0.62809 0.91252
 C1965 C 0.85639 0.64544 0.89391
 C1966 C 0.85731 0.64571 0.85829
 C1967 C 0.87609 0.62868 0.84134
 C1968 C 0.89386 0.61134 0.85995
 C1969 C 0.83893 0.66328 0.83913
 C1970 C 0.82347 0.67799 0.82319
 H1971 H 0.87327 0.62792 0.94005
 H1972 H 0.84193 0.65854 0.90724
 H1973 H 0.87695 0.62873 0.81381
 H1974 H 0.90827 0.59813 0.84659
 C1975 C 0.57316 0.92442 0.92922
 C1976 C 0.58853 0.90930 0.91340
 C1977 C 0.60676 0.89175 0.89384
 C1978 C 0.60618 0.89323 0.85823
 C1979 C 0.62397 0.87646 0.83911
 C1980 C 0.64242 0.85816 0.85553
 C1981 C 0.64300 0.85667 0.89115
 C1982 C 0.62522 0.87344 0.91027
 C1983 C 0.66069 0.84069 0.83597
 C1984 C 0.67609 0.82568 0.82010
 H1985 H 0.59200 0.90736 0.84527
 H1986 H 0.62333 0.87774 0.81159
 H1987 H 0.65719 0.84255 0.90411
 H1988 H 0.62586 0.87217 0.93779
 C1989 C 0.57344 0.57612 0.93019
 C1990 C 0.58880 0.59113 0.91424
 C1991 C 0.60700 0.60852 0.89451
 C1992 C 0.62537 0.62718 0.91073
 C1993 C 0.64312 0.64382 0.89141
 C1994 C 0.64257 0.64182 0.85583
 C1995 C 0.62420 0.62316 0.83961
 C1996 C 0.60644 0.60652 0.85893
 C1997 C 0.66078 0.65917 0.83608
 C1998 C 0.67614 0.67413 0.82011
 H1999 H 0.62596 0.62884 0.93822
 H2000 H 0.65725 0.65824 0.90418
 H2001 H 0.62361 0.62149 0.81211
 H2002 H 0.59232 0.59210 0.84616
 C2003 C 0.92677 0.92322 0.92966
 C2004 C 0.91138 0.90757 0.91435
 C2005 C 0.89315 0.88933 0.89540
 C2006 C 0.89352 0.89017 0.85976
 C2007 C 0.87572 0.87281 0.84120
 C2008 C 0.85746 0.85453 0.85818
 C2009 C 0.85712 0.85361 0.89382
 C2010 C 0.87493 0.87098 0.91240
 C2011 C 0.83905 0.83688 0.83906
 C2012 C 0.82356 0.82211 0.82314
 H2013 H 0.90752 0.90431 0.84636
 H2014 H 0.87615 0.87371 0.81366
 H2015 H 0.84307 0.83955 0.90721
 H2016 H 0.87446 0.87018 0.93994
   
