data_POSCAR
  _audit_creation_date              2014-09-24
  _audit_creation_method            'ToBaCCo'
  _symmetry_space_group_name_H-M    'P1'
  _symmetry_Int_Tables_number       1
  _symmetry_cell_setting            triclinic
  loop_
  _symmetry_equiv_pos_as_xyz
 x,y,z
_cell_length_a 36.5293
_cell_length_b 36.5745
_cell_length_c 36.4341
_cell_angle_alpha 89.714300
_cell_angle_beta 89.898700
_cell_angle_gamma 89.537900
loop_
  _atom_site_label
  _atom_site_type_symbol
  _atom_site_fract_x
  _atom_site_fract_y
  _atom_site_fract_z
C1 C 0.12678 0.00071 0.24748
 C2 C 0.37431 0.00094 0.75213
 C3 C 0.87421 0.50089 0.25300
 C4 C 0.62529 0.50120 0.74831
 C5 C 0.24824 0.12259 1.00100
 C6 C 0.75072 0.37404 0.99613
 C7 C 0.24997 0.87570 0.49859
 C8 C 0.75037 0.62462 0.50382
 C9 C 0.00325 0.24451 0.12373
 C10 C -0.00265 0.75330 0.37561
 C11 C 0.49680 0.25025 0.87496
 C12 C 0.50284 0.74919 0.62583
 C13 C 0.87352 0.99917 0.74770
 C14 C 0.37420 0.49872 0.24858
 C15 C 0.62588 1.00292 0.25151
 C16 C 0.12688 0.50291 0.75236
 C17 C 0.75045 0.87424 0.00290
 C18 C 0.25220 0.37595 0.49966
 C19 C 0.24847 0.62270 0.00006
 C20 C 0.74815 0.12411 0.49734
 C21 C 1.00264 0.74579 0.87575
 C22 C 0.50260 0.25051 0.37481
 C23 C 0.99741 0.25223 0.62369
 C24 C 0.49775 0.74898 0.12533
 O25 O -0.01976 0.97650 0.89317
 O26 O 0.04232 0.99446 0.89197
 O27 O -0.01219 0.89122 0.97954
 O28 O -0.00639 0.88708 1.03822
 O29 O -0.10316 0.97678 0.98110
 O30 O -0.10431 1.03863 0.99485
 O31 O 0.07396 0.99029 1.07641
 O32 O 0.08007 0.93206 1.04711
 O33 O 0.07950 1.06761 0.99214
 O34 O 0.04764 1.07778 0.93432
 O35 O -0.00462 1.07396 1.07003
 O36 O -0.06217 1.04176 1.08014
 O37 O 0.02188 1.01381 1.10151
 O38 O -0.04240 0.99675 1.10235
 O39 O 0.02022 1.09871 1.01857
 O40 O 0.00192 1.09984 0.95378
 O41 O 0.10497 1.01587 1.01610
 O42 O 0.10807 0.95489 0.99952
 O43 O -0.07080 1.00226 0.91797
 O44 O -0.07872 1.05972 0.94957
 O45 O -0.07793 0.92413 1.00325
 O46 O -0.04552 0.91932 1.06351
 O47 O 0.00822 0.91621 0.92612
 O48 O 0.06448 0.94817 0.91664
 Zr49 Zr 0.01601 0.97162 0.93834
 O50 O 0.05068 1.00464 0.96980
 Zr51 Zr -0.02263 0.93678 1.01298
 O52 O 0.01092 0.96778 1.04762
 Zr53 Zr -0.05795 1.01102 0.97350
 O54 O -0.02661 1.04539 1.00694
 Zr55 Zr 0.06040 0.98025 1.02124
 O56 O 0.02891 0.94500 0.98819
 Zr57 Zr 0.02450 1.05438 0.98222
 O58 O -0.00855 1.02318 0.94659
 Zr59 Zr -0.01409 1.01894 1.05675
 O60 O -0.04957 0.98630 1.02510
 O61 O -0.03447 0.96025 0.96219
 O62 O 0.03670 1.03101 1.03331
 C63 C -0.05235 0.98976 0.89058
 C64 C -0.00091 0.88883 0.94626
 C65 C -0.10542 0.94383 0.99302
 C66 C 0.05498 1.00202 1.10376
 C67 C 0.10688 1.04881 1.00405
 C68 C 0.00766 1.10118 1.05140
 H69 H 0.07358 1.00842 0.95588
 H70 H -0.04044 1.06840 1.01074
 H71 H -0.04989 0.94443 0.94666
 H72 H 0.01519 0.95386 1.07058
 H73 H 0.07115 0.91120 1.03248
 H74 H 0.01658 0.89200 1.05157
 H75 H -0.02165 1.10619 0.96564
 H76 H -0.06051 1.06776 0.93112
 H77 H 0.11040 0.96250 0.97356
 H78 H 0.07332 0.93005 0.93493
 H79 H -0.07053 1.06203 1.06407
 H80 H -0.10594 1.03164 1.02107
 H81 H 0.03281 1.01977 0.88942
 H82 H 0.06680 1.06085 0.92520
 H83 H -0.06672 0.93553 1.06871
 H84 H -0.03073 0.97302 1.10858
 O85 O 0.49657 0.57997 0.57009
 O86 O 0.43900 0.54980 0.57866
 O87 O 0.57303 0.49149 0.57723
 O88 O 0.58417 0.43916 0.54845
 O89 O 0.58146 0.57175 0.49105
 O90 O 0.54958 0.58119 0.43429
 O91 O 0.48138 0.39772 0.47741
 O92 O 0.50005 0.39570 0.53807
 O93 O 0.39719 0.48279 0.47947
 O94 O 0.39602 0.54556 0.49470
 O95 O 0.48060 0.48353 0.39362
 O96 O 0.54317 0.49739 0.39115
 O97 O 0.50633 0.42220 0.42584
 O98 O 0.56547 0.45538 0.41678
 O99 O 0.42898 0.50785 0.41885
 O100 O 0.42162 0.56731 0.45216
 O101 O 0.42196 0.42984 0.50138
 O102 O 0.45131 0.42094 0.56061
 O103 O 0.52183 0.60467 0.51874
 O104 O 0.50318 0.60635 0.45632
 O105 O 0.60563 0.51958 0.51549
 O106 O 0.60447 0.45683 0.49571
 O107 O 0.52155 0.51653 0.60221
 O108 O 0.45898 0.50302 0.60301
 Zr109 Zr 0.48675 0.52486 0.55702
 O110 O 0.45143 0.49283 0.52532
 Zr111 Zr 0.56040 0.48480 0.52137
 O112 O 0.52815 0.45071 0.48846
 Zr113 Zr 0.52591 0.55993 0.48284
 O114 O 0.49253 0.52909 0.44787
 Zr115 Zr 0.47672 0.44260 0.51286
 O116 O 0.51066 0.47302 0.54825
 Zr117 Zr 0.44257 0.51764 0.47402
 O118 O 0.47439 0.55223 0.50761
 Zr119 Zr 0.51631 0.47743 0.43859
 O120 O 0.55207 0.51015 0.47001
 O121 O 0.53739 0.53555 0.53329
 O122 O 0.46518 0.46636 0.46178
 C123 C 0.50924 0.60717 0.55157
 C124 C 0.55401 0.50307 0.60462
 C125 C 0.60840 0.55225 0.50287
 C126 C 0.49424 0.39500 0.44472
 C127 C 0.39477 0.44944 0.49034
 C128 C 0.44771 0.49599 0.39144
 H129 H 0.42827 0.48978 0.53898
 H130 H 0.48907 0.54297 0.42478
 H131 H 0.55332 0.55048 0.54918
 H132 H 0.54145 0.42736 0.48493
 H133 H 0.51529 0.40437 0.55869
 H134 H 0.57176 0.41707 0.53932
 H135 H 0.43641 0.57379 0.43034
 H136 H 0.47815 0.60955 0.46631
 H137 H 0.43095 0.43735 0.56787
 H138 H 0.46628 0.47694 0.60464
 H139 H 0.53577 0.52329 0.38799
 H140 H 0.56739 0.56263 0.42552
 H141 H 0.43076 0.56820 0.56036
 H142 H 0.39254 0.53752 0.52041
 H143 H 0.60880 0.46905 0.47181
 H144 H 0.57204 0.43341 0.43137
 O145 O 0.42774 0.00855 0.58055
 O146 O 0.41872 0.06417 0.54787
 O147 O 0.41932 -0.07049 0.49327
 O148 O 0.44782 -0.08209 0.44055
 O149 O 0.50527 -0.08005 0.57280
 O150 O 0.56187 -0.04895 0.58207
 O151 O 0.52005 0.01823 0.39669
 O152 O 0.45901 0.00048 0.39549
 O153 O 0.51999 0.10299 0.47970
 O154 O 0.50341 0.10502 0.54319
 O155 O 0.60363 0.01810 0.48250
 O156 O 0.60382 -0.04565 0.49835
 O157 O 0.57184 -0.00579 0.42198
 O158 O 0.57991 -0.06518 0.45418
 O159 O 0.57897 0.07043 0.50549
 O160 O 0.54588 0.07929 0.56507
 O161 O 0.49511 0.07903 0.42819
 O162 O 0.43767 0.05019 0.41882
 O163 O 0.47846 -0.01809 0.60522
 O164 O 0.54091 -0.00273 0.60635
 O165 O 0.47885 -0.10389 0.52202
 O166 O 0.50044 -0.10379 0.45941
 O167 O 0.39506 -0.01900 0.51869
 O168 O 0.39477 0.04341 0.50158
 Zr169 Zr 0.44032 0.01571 0.52463
 O170 O 0.47247 0.05004 0.49158
 Zr171 Zr 0.47497 -0.05890 0.48601
 O172 O 0.50830 -0.02762 0.45090
 Zr173 Zr 0.51391 -0.02456 0.56020
 O174 O 0.54929 0.00791 0.52846
 Zr175 Zr 0.48451 0.02407 0.44167
 O176 O 0.44873 -0.00887 0.47315
 Zr177 Zr 0.52380 0.05811 0.51592
 O178 O 0.48988 0.02727 0.55141
 Zr179 Zr 0.55820 -0.01652 0.47713
 O180 O 0.52633 -0.05139 0.51080
 O181 O 0.46338 -0.03517 0.53655
 O182 O 0.53562 0.03483 0.46491
 C183 C 0.44637 -0.00376 0.60793
 C184 C 0.39235 -0.05134 0.50548
 C185 C 0.49244 -0.10697 0.55436
 C186 C 0.55303 0.00609 0.39457
 C187 C 0.50754 0.10597 0.44686
 C188 C 0.60612 0.05110 0.49398
 H189 H 0.45914 0.07340 0.48805
 H190 H 0.57231 0.01104 0.54226
 H191 H 0.44742 -0.05041 0.55232
 H192 H 0.51178 -0.04106 0.42768
 H193 H 0.43831 -0.01427 0.40480
 H194 H 0.45817 -0.07094 0.41807
 H195 H 0.56752 0.06427 0.57177
 H196 H 0.53254 0.02297 0.60849
 H197 H 0.42837 0.06836 0.43661
 H198 H 0.39203 0.03405 0.47629
 H199 H 0.60871 -0.03612 0.52320
 H200 H 0.57072 -0.06682 0.56369
 H201 H 0.43763 0.07356 0.56473
 H202 H 0.47865 0.11026 0.53346
 H203 H 0.52425 -0.10803 0.47171
 H204 H 0.56428 -0.07208 0.43322
 O205 O 0.00875 0.41611 1.07298
 O206 O 0.06379 0.44924 1.08358
 O207 O -0.07108 0.50409 1.08215
 O208 O -0.08339 0.55652 1.05346
 O209 O -0.07841 0.42518 0.99480
 O210 O -0.04622 0.41737 0.93804
 O211 O 0.01758 0.60085 0.98267
 O212 O -0.00139 0.59992 1.04537
 O213 O 0.10426 0.51723 0.98452
 O214 O 0.10664 0.45435 0.99903
 O215 O 0.02106 0.51586 0.89822
 O216 O -0.04308 0.50024 0.89749
 O217 O -0.00400 0.57600 0.92999
 O218 O -0.06272 0.54472 0.92064
 O219 O 0.07326 0.49283 0.92346
 O220 O 0.08155 0.43274 0.95667
 O221 O 0.07865 0.56927 1.00721
 O222 O 0.05166 0.57889 1.06297
 O223 O -0.01686 0.39251 1.02164
 O224 O -0.00023 0.39227 0.95945
 O225 O -0.10346 0.47660 1.01950
 O226 O -0.10334 0.53958 1.00138
 O227 O -0.02114 0.47575 1.10650
 O228 O 0.04077 0.49435 1.10835
 Zr229 Zr 0.01514 0.47209 1.06160
 O230 O 0.04987 0.50546 1.03017
 Zr231 Zr -0.05874 0.51167 1.02624
 O232 O -0.02719 0.54685 0.99332
 Zr233 Zr -0.02298 0.43798 0.98680
 O234 O 0.01014 0.46981 0.95213
 Zr235 Zr 0.02388 0.55551 1.01790
 O236 O -0.00938 0.52378 1.05334
 Zr237 Zr 0.05962 0.48177 0.97862
 O238 O 0.02823 0.44609 1.01181
 Zr239 Zr -0.01464 0.52111 0.94330
 O240 O -0.04995 0.48754 0.97462
 O241 O -0.03514 0.46090 1.03758
 O242 O 0.03613 0.53281 0.96668
 C243 C -0.00292 0.38921 1.05379
 C244 C -0.05310 0.49038 1.10935
 C245 C -0.10577 0.44429 1.00624
 C246 C 0.00660 0.60323 0.94929
 C247 C 0.10618 0.55026 0.99601
 C248 C 0.05425 0.50433 0.89600
 H249 H 0.07285 0.50889 1.04395
 H250 H 0.01398 0.45626 0.92903
 H251 H -0.05074 0.44505 1.05310
 H252 H -0.04090 0.57001 0.98990
 H253 H -0.01349 0.58993 1.06758
 H254 H -0.07020 0.57873 1.04559
 H255 H 0.06768 0.42684 0.93419
 H256 H 0.02541 0.38997 0.96797
 H257 H 0.06286 0.55872 1.07725
 H258 H 0.02975 0.51887 1.11217
 H259 H -0.03253 0.47590 0.89190
 H260 H -0.06439 0.43576 0.92952
 H261 H 0.07345 0.43195 1.06504
 H262 H 0.11041 0.46261 1.02454
 H263 H -0.10641 0.52899 0.97663
 H264 H -0.07030 0.56538 0.93643
 O265 O 0.02022 0.39997 0.52257
 O266 O 0.00531 0.39907 0.45986
 O267 O 0.10669 0.48396 0.51891
 O268 O 0.10662 0.54654 0.50251
 O269 O 0.02294 0.48755 0.60659
 O270 O -0.03978 0.50225 0.60760
 O271 O 0.00677 0.58280 0.42967
 O272 O 0.06602 0.54863 0.42078
 O273 O -0.07026 0.49878 0.42334
 O274 O -0.07713 0.43857 0.45712
 O275 O -0.07809 0.57490 0.50758
 O276 O -0.04390 0.58380 0.56665
 O277 O -0.01948 0.60696 0.48066
 O278 O -0.00265 0.60979 0.54318
 O279 O -0.10227 0.52284 0.48442
 O280 O -0.10312 0.46042 0.49901
 O281 O -0.01959 0.52409 0.39802
 O282 O 0.04286 0.50705 0.39507
 O283 O -0.00413 0.42447 0.57438
 O284 O -0.05994 0.45642 0.58425
 O285 O 0.07445 0.51132 0.58109
 O286 O 0.08222 0.56750 0.54860
 O287 O 0.08211 0.43181 0.49626
 O288 O 0.05125 0.42388 0.43907
 Zr289 Zr 0.02676 0.44497 0.48724
 O290 O -0.00689 0.47623 0.45213
 Zr291 Zr 0.06120 0.51911 0.52544
 O292 O 0.02879 0.55373 0.49235
 Zr293 Zr -0.01227 0.48006 0.56161
 O294 O -0.04781 0.51256 0.52982
 Zr295 Zr 0.01670 0.52759 0.44266
 O296 O 0.05276 0.49444 0.47411
 Zr297 Zr -0.05666 0.48809 0.47855
 O298 O -0.02462 0.45319 0.51224
 Zr299 Zr -0.02257 0.56241 0.51705
 O300 O 0.01165 0.53146 0.55246
 O301 O 0.03830 0.46857 0.53778
 O302 O -0.03437 0.53916 0.46615
 C303 C 0.00686 0.39717 0.55507
 C304 C 0.10930 0.45101 0.50711
 C305 C 0.05543 0.50049 0.60874
 C306 C -0.00640 0.60975 0.44808
 C307 C -0.05226 0.51162 0.39583
 C308 C -0.10510 0.55560 0.49648
 H309 H -0.01053 0.46262 0.42908
 H310 H -0.07078 0.51590 0.54382
 H311 H 0.05402 0.45299 0.55366
 H312 H 0.04215 0.57682 0.48850
 H313 H 0.07249 0.57065 0.43497
 H314 H 0.10942 0.53739 0.47713
 H315 H -0.10673 0.46825 0.52472
 H316 H -0.06928 0.43905 0.56581
 H317 H 0.03489 0.48150 0.39189
 H318 H 0.06861 0.44261 0.43018
 H319 H -0.06585 0.56954 0.57333
 H320 H -0.03157 0.52787 0.60982
 H321 H -0.02040 0.39671 0.46809
 H322 H -0.06373 0.43309 0.43415
 H323 H 0.06347 0.57662 0.56602
 H324 H 0.02261 0.61378 0.53430
 O325 O 0.52145 0.89696 0.02288
 O326 O 0.50419 0.89630 -0.03957
 O327 O 0.60488 0.98291 0.01922
 O328 O 0.60347 1.04545 0.00207
 O329 O 0.52140 0.98510 0.10681
 O330 O 0.45869 0.99730 0.10864
 O331 O 0.50194 1.08031 -0.06956
 O332 O 0.56258 1.04735 -0.07857
 O333 O 0.42750 0.99353 -0.07598
 O334 O 0.42085 0.93470 -0.04191
 O335 O 0.41880 1.07115 0.00806
 O336 O 0.45247 1.07998 0.06752
 O337 O 0.47617 1.10437 -0.01831
 O338 O 0.49400 1.10641 0.04462
 O339 O 0.39529 1.01879 -0.01518
 O340 O 0.39564 0.95593 0.00090
 O341 O 0.47753 1.02037 -0.10100
 O342 O 0.53985 1.00597 -0.10478
 O343 O 0.49635 0.92099 0.07456
 O344 O 0.43894 0.95187 0.08425
 O345 O 0.57238 1.00976 0.08104
 O346 O 0.57916 1.06592 0.04879
 O347 O 0.58119 0.93053 -0.00387
 O348 O 0.54993 0.92204 -0.06102
 Zr349 Zr 0.52556 0.94242 -0.01248
 O350 O 0.49121 0.97337 -0.04715
 Zr351 Zr 0.55878 1.01730 0.02555
 O352 O 0.52565 1.05162 -0.00716
 Zr353 Zr 0.48625 0.97658 0.06202
 O354 O 0.45002 1.00888 0.03064
 Zr355 Zr 0.51374 1.02526 -0.05667
 O356 O 0.55054 0.99247 -0.02570
 Zr357 Zr 0.44127 0.98425 -0.02055
 O358 O 0.47411 0.94959 0.01272
 Zr359 Zr 0.47431 1.05928 0.01783
 O360 O 0.50912 1.02854 0.05287
 O361 O 0.53689 0.96629 0.03794
 O362 O 0.46261 1.03578 -0.03298
 C363 C 0.50855 0.89387 0.05555
 C364 C 0.60799 0.95002 0.00737
 C365 C 0.55367 0.99860 0.10874
 C366 C 0.48848 1.10723 -0.05121
 C367 C 0.44544 1.00662 -0.10340
 C368 C 0.39212 1.05166 -0.00342
 H369 H 0.48786 0.95968 -0.07020
 H370 H 0.42704 1.01192 0.04467
 H371 H 0.55304 0.95110 0.05375
 H372 H 0.53853 1.07497 -0.01110
 H373 H 0.56810 1.07001 -0.06501
 H374 H 0.60637 1.03607 -0.02321
 H375 H 0.39161 0.96462 0.02626
 H376 H 0.43053 0.93382 0.06601
 H377 H 0.53359 0.97985 -0.10732
 H378 H 0.56729 0.94087 -0.06968
 H379 H 0.43053 1.06557 0.07388
 H380 H 0.46497 1.02352 0.11014
 H381 H 0.47908 0.89285 -0.02997
 H382 H 0.43587 0.92803 -0.06353
 H383 H 0.56018 1.07489 0.06605
 H384 H 0.51859 1.11165 0.03459
 O385 O 0.49606 0.42142 -0.07376
 O386 O 0.43880 0.45238 -0.08313
 O387 O 0.57162 0.51119 -0.08098
 O388 O 0.58230 0.56276 -0.05156
 O389 O 0.58122 0.42952 0.00385
 O390 O 0.55019 0.42061 0.06139
 O391 O 0.47687 0.60375 0.01945
 O392 O 0.49713 0.60620 -0.04090
 O393 O 0.39536 0.51810 0.01632
 O394 O 0.39582 0.45518 0.00109
 O395 O 0.47879 0.51693 0.10266
 O396 O 0.54122 0.50432 0.10515
 O397 O 0.50221 0.57890 0.07074
 O398 O 0.56288 0.54632 0.07918
 O399 O 0.42752 0.49309 0.07727
 O400 O 0.42116 0.43395 0.04393
 O401 O 0.41901 0.57108 -0.00595
 O402 O 0.44925 0.58072 -0.06449
 O403 O 0.52139 0.39666 -0.02239
 O404 O 0.50418 0.39520 0.04013
 O405 O 0.60463 0.48193 -0.02004
 O406 O 0.60217 0.54463 0.00126
 O407 O 0.52115 0.48523 -0.10605
 O408 O 0.45843 0.49881 -0.10709
 Zr409 Zr 0.48611 0.47683 -0.06099
 O410 O 0.45009 0.50864 -0.02919
 Zr411 Zr 0.55885 0.51695 -0.02505
 O412 O 0.52574 0.55093 0.00792
 Zr413 Zr 0.52566 0.44160 0.01306
 O414 O 0.49155 0.47220 0.04810
 Zr415 Zr 0.47429 0.55898 -0.01649
 O416 O 0.50899 0.52873 -0.05192
 Zr417 Zr 0.44145 0.48357 0.02201
 O418 O 0.47409 0.44926 -0.01167
 Zr419 Zr 0.51420 0.52395 0.05760
 O420 O 0.55079 0.49139 0.02617
 O421 O 0.53682 0.46615 -0.03733
 O422 O 0.46294 0.53491 0.03446
 C423 C 0.50843 0.39406 -0.05498
 C424 C 0.55312 0.49937 -0.10839
 C425 C 0.60787 0.44902 -0.00803
 C426 C 0.48918 0.60619 0.05233
 C427 C 0.39222 0.55127 0.00501
 C428 C 0.44613 0.50443 0.10481
 H429 H 0.42698 0.51162 -0.04296
 H430 H 0.48835 0.45818 0.07112
 H431 H 0.55283 0.45120 -0.05343
 H432 H 0.53839 0.57441 0.01165
 H433 H 0.51280 0.59777 -0.06145
 H434 H 0.56943 0.58478 -0.04239
 H435 H 0.43607 0.42739 0.06567
 H436 H 0.47893 0.39217 0.03088
 H437 H 0.42962 0.56402 -0.07227
 H438 H 0.46557 0.52481 -0.10882
 H439 H 0.53562 0.47800 0.10741
 H440 H 0.56814 0.43899 0.06959
 H441 H 0.43033 0.43419 -0.06485
 H442 H 0.39179 0.46383 -0.02435
 H443 H 0.60687 0.53177 0.02477
 H444 H 0.56847 0.56882 0.06514
 O445 O 0.07258 0.01128 0.41811
 O446 O 0.08003 0.06774 0.45005
 O447 O 0.08022 -0.06833 0.50301
 O448 O 0.04954 -0.07661 0.56051
 O449 O -0.00609 -0.07504 0.42556
 O450 O -0.06213 -0.04285 0.41599
 O451 O -0.02111 0.02330 0.60171
 O452 O 0.04150 0.00585 0.60421
 O453 O -0.02075 0.10681 0.51913
 O454 O -0.00461 0.11017 0.45645
 O455 O -0.10406 0.02260 0.51579
 O456 O -0.10508 -0.03945 0.50156
 O457 O -0.07182 -0.00193 0.57681
 O458 O -0.07870 -0.06193 0.54303
 O459 O -0.07994 0.07495 0.49262
 O460 O -0.04598 0.08446 0.43336
 O461 O 0.00568 0.08215 0.56992
 O462 O 0.06452 0.04775 0.57852
 O463 O 0.02097 -0.01226 0.39300
 O464 O -0.04171 0.00320 0.39228
 O465 O 0.01870 -0.09991 0.47715
 O466 O 0.00339 -0.10131 0.53993
 O467 O 0.10473 -0.01599 0.48007
 O468 O 0.10479 0.04655 0.49616
 Zr469 Zr 0.05928 0.01922 0.47372
 O470 O 0.02706 0.05355 0.50705
 Zr471 Zr 0.02493 -0.05521 0.51241
 O472 O -0.00858 -0.02423 0.54768
 Zr473 Zr -0.01429 -0.01951 0.43820
 O474 O -0.04967 0.01278 0.47019
 Zr475 Zr 0.01513 0.02701 0.55688
 O476 O 0.05106 -0.00586 0.52519
 Zr477 Zr -0.02440 0.06254 0.48277
 O478 O 0.00964 0.03185 0.44707
 Zr479 Zr -0.05840 -0.01212 0.52153
 O480 O -0.02652 -0.04680 0.48769
 O481 O 0.03628 -0.03119 0.46177
 O482 O -0.03604 0.03884 0.53377
 C483 C 0.05362 0.00030 0.39065
 C484 C 0.10733 -0.04906 0.49184
 C485 C 0.00535 -0.10244 0.44472
 C486 C -0.05374 0.01074 0.60417
 C487 C -0.00736 0.10931 0.55156
 C488 C -0.10694 0.05548 0.50379
 H489 H 0.04051 0.07658 0.51073
 H490 H -0.07268 0.01625 0.45633
 H491 H 0.05196 -0.04670 0.44589
 H492 H -0.01217 -0.03803 0.57077
 H493 H 0.03307 -0.01955 0.60777
 H494 H 0.06698 -0.05797 0.56919
 H495 H -0.06774 0.07003 0.42667
 H496 H -0.03327 0.02876 0.38994
 H497 H 0.07126 0.06961 0.56398
 H498 H 0.10779 0.03717 0.52152
 H499 H -0.10845 -0.03183 0.47569
 H500 H -0.07120 -0.06066 0.43436
 H501 H 0.06138 0.07662 0.43238
 H502 H 0.02091 0.11369 0.46466
 H503 H -0.02222 -0.10376 0.53154
 H504 H -0.06537 -0.06753 0.56603
 O505 O 0.73293 0.14631 0.26376
 O506 O 0.79593 0.14584 0.24951
 O507 O 0.73792 0.23101 0.35225
 O508 O 0.74461 0.28986 0.35632
 O509 O 0.64814 0.23338 0.26716
 O510 O 0.64778 0.24938 0.20445
 O511 O 0.82382 0.32963 0.25383
 O512 O 0.82968 0.29875 0.31229
 O513 O 0.83217 0.24588 0.17597
 O514 O 0.79892 0.18665 0.16721
 O515 O 0.74604 0.32260 0.16833
 O516 O 0.68771 0.33182 0.20276
 O517 O 0.77307 0.35421 0.22727
 O518 O 0.71037 0.35661 0.24509
 O519 O 0.77251 0.27187 0.14400
 O520 O 0.75690 0.20949 0.14134
 O521 O 0.85660 0.26943 0.22800
 O522 O 0.85968 0.25331 0.28778
 O523 O 0.68070 0.17168 0.24081
 O524 O 0.67290 0.20347 0.18359
 O525 O 0.67291 0.25487 0.31994
 O526 O 0.70393 0.31491 0.32459
 O527 O 0.75784 0.17784 0.32674
 O528 O 0.81539 0.16947 0.29613
 Zr529 Zr 0.76758 0.19138 0.27149
 O530 O 0.80253 0.22319 0.23876
 Zr531 Zr 0.72804 0.26521 0.30674
 O532 O 0.76140 0.30022 0.27546
 Zr533 Zr 0.69359 0.22694 0.23219
 O534 O 0.72535 0.26017 0.19760
 Zr535 Zr 0.81129 0.27427 0.26323
 O536 O 0.77982 0.24065 0.29846
 Zr537 Zr 0.77689 0.23581 0.18876
 O538 O 0.74334 0.20024 0.21982
 Zr539 Zr 0.73713 0.30968 0.22392
 O540 O 0.70152 0.27804 0.25705
 O541 O 0.71683 0.21491 0.28297
 O542 O 0.78834 0.28660 0.21207
 C543 C 0.70002 0.14419 0.25166
 C544 C 0.74849 0.19751 0.35439
 C545 C 0.64565 0.24441 0.30046
 C546 C 0.80543 0.35683 0.24065
 C547 C 0.85923 0.25738 0.19510
 C548 C 0.75884 0.30417 0.14118
 H549 H 0.82563 0.20940 0.23520
 H550 H 0.71169 0.26393 0.17448
 H551 H 0.70134 0.19904 0.29859
 H552 H 0.76526 0.32308 0.28925
 H553 H 0.82134 0.28305 0.33286
 H554 H 0.76654 0.30455 0.35067
 H555 H 0.73135 0.21784 0.13765
 H556 H 0.69148 0.18554 0.17511
 H557 H 0.86023 0.22665 0.28352
 H558 H 0.82328 0.18724 0.31490
 H559 H 0.68061 0.31711 0.18123
 H560 H 0.64476 0.27472 0.21345
 H561 H 0.78782 0.14358 0.22372
 H562 H 0.82112 0.18022 0.18144
 H563 H 0.68354 0.32066 0.30758
 H564 H 0.71971 0.36059 0.27020
 O565 O 0.75910 0.67645 0.67454
 O566 O 0.81554 0.66758 0.70623
 O567 O 0.68082 0.66917 0.76194
 O568 O 0.66895 0.69789 0.81428
 O569 O 0.67259 0.75419 0.68121
 O570 O 0.70327 0.81152 0.67268
 O571 O 0.77159 0.76950 0.85717
 O572 O 0.75230 0.70909 0.85952
 O573 O 0.85589 0.76641 0.77308
 O574 O 0.85876 0.75384 0.71167
 O575 O 0.77143 0.85239 0.77333
 O576 O 0.70881 0.85422 0.75584
 O577 O 0.74504 0.82019 0.83237
 O578 O 0.68643 0.82883 0.79849
 O579 O 0.82287 0.82791 0.74818
 O580 O 0.83067 0.79338 0.68750
 O581 O 0.83127 0.74335 0.82555
 O582 O 0.80123 0.68600 0.83515
 O583 O 0.73601 0.72864 0.64910
 O584 O 0.74909 0.79125 0.64782
 O585 O 0.64813 0.72857 0.73248
 O586 O 0.64818 0.75074 0.79525
 O587 O 0.73232 0.64449 0.73671
 O588 O 0.79496 0.64393 0.75321
 Zr589 Zr 0.76733 0.68948 0.73001
 O590 O 0.80192 0.72134 0.76249
 Zr591 Zr 0.69288 0.72471 0.76868
 O592 O 0.72449 0.75758 0.80353
 Zr593 Zr 0.72793 0.76348 0.69415
 O594 O 0.76058 0.79855 0.72563
 Zr595 Zr 0.77612 0.73354 0.81257
 O596 O 0.74272 0.69809 0.78157
 Zr597 Zr 0.81056 0.77264 0.73796
 O598 O 0.77956 0.73891 0.70287
 Zr599 Zr 0.73601 0.80739 0.77703
 O600 O 0.70093 0.77597 0.74355
 O601 O 0.71672 0.71306 0.71812
 O602 O 0.78732 0.78455 0.78905
 C603 C 0.74843 0.69580 0.64697
 C604 C 0.69979 0.64206 0.74985
 C605 C 0.64544 0.74144 0.69973
 C606 C 0.75797 0.80187 0.85964
 C607 C 0.85849 0.75426 0.80609
 C608 C 0.80412 0.85510 0.76068
 H609 H 0.82513 0.70766 0.76573
 H610 H 0.76405 0.82160 0.71185
 H611 H 0.70147 0.69714 0.70253
 H612 H 0.71103 0.76106 0.82682
 H613 H 0.73695 0.68873 0.85073
 H614 H 0.68036 0.70781 0.83668
 H615 H 0.81820 0.81699 0.68250
 H616 H 0.77508 0.78372 0.64564
 H617 H 0.82013 0.67721 0.81778
 H618 H 0.78544 0.64110 0.77852
 H619 H 0.71774 0.85814 0.73050
 H620 H 0.68525 0.81998 0.69118
 H621 H 0.82428 0.68585 0.68816
 H622 H 0.86078 0.72731 0.71674
 H623 H 0.64325 0.77387 0.78187
 H624 H 0.67936 0.81366 0.81987
 O625 O 0.31689 0.16921 0.74556
 O626 O 0.32587 0.20060 0.68833
 O627 O 0.32562 0.25496 0.82321
 O628 O 0.29766 0.30722 0.83654
 O629 O 0.23692 0.17733 0.83026
 O630 O 0.18070 0.17081 0.79766
 O631 O 0.22884 0.35504 0.73383
 O632 O 0.29002 0.35340 0.75294
 O633 O 0.22854 0.27293 0.64742
 O634 O 0.24205 0.21046 0.64432
 O635 O 0.14273 0.27213 0.73104
 O636 O 0.14055 0.25659 0.79395
 O637 O 0.17603 0.33131 0.75645
 O638 O 0.16656 0.29803 0.81584
 O639 O 0.16746 0.24885 0.67881
 O640 O 0.20005 0.18823 0.67032
 O641 O 0.25436 0.32321 0.67246
 O642 O 0.31033 0.33091 0.70220
 O643 O 0.26433 0.14536 0.76871
 O644 O 0.20188 0.14666 0.75111
 O645 O 0.26234 0.22780 0.85563
 O646 O 0.24493 0.29155 0.85539
 O647 O 0.34978 0.22821 0.77243
 O648 O 0.35135 0.24649 0.71000
 Zr649 Zr 0.30486 0.22473 0.73669
 O650 O 0.27424 0.25904 0.70182
 Zr651 Zr 0.26991 0.26370 0.81096
 O652 O 0.23822 0.30013 0.77913
 Zr653 Zr 0.22968 0.19125 0.77465
 O654 O 0.19575 0.22458 0.74176
 Zr655 Zr 0.26311 0.30901 0.72789
 O656 O 0.29744 0.27611 0.76154
 Zr657 Zr 0.22237 0.23676 0.69211
 O658 O 0.25490 0.19981 0.72335
 Zr659 Zr 0.18785 0.27577 0.76660
 O660 O 0.21812 0.24066 0.80184
 O661 O 0.28050 0.21324 0.78708
 O662 O 0.21151 0.28779 0.71564
 C663 C 0.29739 0.14241 0.75702
 C664 C 0.35269 0.24174 0.80472
 C665 C 0.24861 0.19567 0.85781
 C666 C 0.19583 0.35816 0.74557
 C667 C 0.24223 0.30509 0.64491
 C668 C 0.14028 0.26077 0.69789
 H669 H 0.28812 0.26224 0.67875
 H670 H 0.17243 0.21164 0.73796
 H671 H 0.29571 0.19715 0.80295
 H672 H 0.23526 0.32318 0.79290
 H673 H 0.31086 0.34309 0.76709
 H674 H 0.29052 0.32994 0.82349
 H675 H 0.17747 0.18257 0.68418
 H676 H 0.21150 0.14400 0.72585
 H677 H 0.32095 0.31196 0.68605
 H678 H 0.35519 0.27113 0.72039
 H679 H 0.13613 0.23140 0.78535
 H680 H 0.17209 0.18915 0.81568
 H681 H 0.30723 0.18311 0.67973
 H682 H 0.26831 0.21640 0.64194
 H683 H 0.22056 0.28049 0.85918
 H684 H 0.18159 0.31938 0.82248
 O685 O 0.16755 0.74575 0.32122
 O686 O 0.19795 0.68806 0.33105
 O687 O 0.25587 0.82112 0.32725
 O688 O 0.31226 0.82790 0.29477
 O689 O 0.17685 0.82923 0.24079
 O690 O 0.16853 0.79678 0.18417
 O691 O 0.35100 0.72531 0.22915
 O692 O 0.35226 0.74413 0.29252
 O693 O 0.26639 0.64357 0.23309
 O694 O 0.20346 0.64346 0.24861
 O695 O 0.26522 0.72578 0.14545
 O696 O 0.25224 0.78835 0.14195
 O697 O 0.32667 0.74943 0.17708
 O698 O 0.29435 0.80985 0.16710
 O699 O 0.24106 0.67484 0.17162
 O700 O 0.18177 0.66833 0.20560
 O701 O 0.31848 0.66792 0.25619
 O702 O 0.32735 0.70137 0.31461
 O703 O 0.14333 0.76856 0.26834
 O704 O 0.14249 0.75228 0.20638
 O705 O 0.22934 0.85322 0.26355
 O706 O 0.29173 0.85217 0.24854
 O707 O 0.22965 0.77104 0.35295
 O708 O 0.24442 0.70838 0.35550
 Zr709 Zr 0.22289 0.73516 0.30864
 O710 O 0.25559 0.69881 0.27800
 Zr711 Zr 0.26355 0.80733 0.27168
 O712 O 0.29795 0.77418 0.23932
 Zr713 Zr 0.18886 0.77342 0.23338
 O714 O 0.21995 0.73878 0.19944
 Zr715 Zr 0.30590 0.72327 0.26512
 O716 O 0.27487 0.75809 0.29969
 Zr717 Zr 0.23130 0.68921 0.22676
 O718 O 0.19624 0.72229 0.25928
 Zr719 Zr 0.27168 0.76162 0.18980
 O720 O 0.23889 0.79851 0.22031
 O721 O 0.21248 0.78549 0.28378
 O722 O 0.28269 0.71087 0.21424
 C723 C 0.14053 0.75717 0.30157
 C724 C 0.24374 0.80302 0.35503
 C725 C 0.19658 0.85622 0.25113
 C726 C 0.35377 0.73694 0.19599
 C727 C 0.29939 0.64089 0.24495
 C728 C 0.25255 0.69324 0.14379
 H729 H 0.25877 0.67601 0.29235
 H730 H 0.20610 0.73517 0.17649
 H731 H 0.19715 0.80189 0.29910
 H732 H 0.32126 0.78714 0.23528
 H733 H 0.35824 0.76797 0.28115
 H734 H 0.32101 0.80935 0.31266
 H735 H 0.17537 0.68260 0.18335
 H736 H 0.13988 0.72672 0.21496
 H737 H 0.31184 0.68059 0.32215
 H738 H 0.27025 0.71607 0.35753
 H739 H 0.22626 0.78158 0.13895
 H740 H 0.18692 0.81470 0.17570
 H741 H 0.17984 0.67970 0.31279
 H742 H 0.21162 0.64024 0.27430
 H743 H 0.28395 0.85384 0.22258
 H744 H 0.31690 0.81555 0.18086
 O745 O 0.14846 0.73375 0.77023
 O746 O 0.14779 0.74850 0.70724
 O747 O 0.23399 0.64653 0.76643
 O748 O 0.29696 0.64669 0.75138
 O749 O 0.23631 0.72970 0.85489
 O750 O 0.24993 0.79254 0.85583
 O751 O 0.33196 0.74751 0.67864
 O752 O 0.29905 0.68765 0.66976
 O753 O 0.24504 0.82325 0.67108
 O754 O 0.18549 0.83030 0.70651
 O755 O 0.32305 0.83066 0.75528
 O756 O 0.33137 0.79679 0.81550
 O757 O 0.35605 0.77259 0.72993
 O758 O 0.35839 0.75522 0.79237
 O759 O 0.27082 0.85505 0.73137
 O760 O 0.20938 0.85735 0.74678
 O761 O 0.27185 0.77280 0.64652
 O762 O 0.25730 0.71054 0.64361
 O763 O 0.17310 0.75563 0.82295
 O764 O 0.20344 0.81268 0.83173
 O765 O 0.25978 0.67793 0.82939
 O766 O 0.31684 0.67059 0.79801
 O767 O 0.18132 0.67166 0.74420
 O768 O 0.17305 0.70283 0.68702
 Zr769 Zr 0.19384 0.72691 0.73526
 O770 O 0.22496 0.76037 0.70034
 Zr771 Zr 0.26847 0.69185 0.77394
 O772 O 0.30298 0.72428 0.74111
 Zr773 Zr 0.22835 0.76515 0.80982
 O774 O 0.26059 0.80075 0.77811
 Zr775 Zr 0.27681 0.73671 0.69131
 O776 O 0.24378 0.70075 0.72248
 Zr777 Zr 0.23605 0.80993 0.72670
 O778 O 0.20135 0.77802 0.76033
 Zr779 Zr 0.31091 0.77545 0.76571
 O780 O 0.28018 0.74116 0.80098
 O781 O 0.21756 0.71488 0.78584
 O782 O 0.28753 0.78756 0.71466
 C783 C 0.14588 0.74519 0.80338
 C784 C 0.20094 0.64426 0.75471
 C785 C 0.24876 0.69682 0.85702
 C786 C 0.35892 0.76029 0.69713
 C787 C 0.25796 0.80503 0.64380
 C788 C 0.30370 0.85763 0.74325
 H789 H 0.21118 0.76397 0.67726
 H790 H 0.26373 0.82373 0.79188
 H791 H 0.20214 0.69898 0.80151
 H792 H 0.32633 0.71096 0.73739
 H793 H 0.32167 0.68172 0.68352
 H794 H 0.28842 0.64435 0.72574
 H795 H 0.21570 0.85946 0.77306
 H796 H 0.18542 0.82138 0.81333
 H797 H 0.23131 0.71773 0.64062
 H798 H 0.19192 0.68529 0.67833
 H799 H 0.31745 0.81937 0.82123
 H800 H 0.27576 0.78448 0.85811
 H801 H 0.14438 0.77387 0.71599
 H802 H 0.17991 0.81730 0.68346
 H803 H 0.32538 0.68913 0.81568
 H804 H 0.36242 0.72985 0.78393
 O805 O 0.25979 0.17528 0.17210
 O806 O 0.31699 0.16791 0.20359
 O807 O 0.18187 0.16909 0.25881
 O808 O 0.17417 0.20117 0.31567
 O809 O 0.17281 0.25130 0.17823
 O810 O 0.20203 0.30952 0.16896
 O811 O 0.27251 0.27152 0.35337
 O812 O 0.25735 0.20807 0.35661
 O813 O 0.35635 0.26891 0.26863
 O814 O 0.35807 0.25267 0.20636
 O815 O 0.27113 0.35309 0.26605
 O816 O 0.20930 0.35490 0.25189
 O817 O 0.24605 0.32195 0.32798
 O818 O 0.18626 0.32872 0.29346
 O819 O 0.32334 0.32817 0.24271
 O820 O 0.33108 0.29377 0.18316
 O821 O 0.33229 0.24663 0.32168
 O822 O 0.30106 0.18706 0.33217
 O823 O 0.23626 0.22703 0.14616
 O824 O 0.24820 0.28976 0.14396
 O825 O 0.14867 0.22979 0.23164
 O826 O 0.14817 0.24655 0.29403
 O827 O 0.23409 0.14404 0.23548
 O828 O 0.29681 0.14418 0.25069
 Zr829 Zr 0.26857 0.18930 0.22740
 O830 O 0.30315 0.22202 0.25931
 Zr831 Zr 0.19424 0.22452 0.26646
 O832 O 0.22551 0.25859 0.30026
 Zr833 Zr 0.22786 0.26227 0.19082
 O834 O 0.26049 0.29812 0.22127
 Zr835 Zr 0.27739 0.23502 0.30922
 O836 O 0.24435 0.19859 0.27903
 Zr837 Zr 0.31089 0.27288 0.23353
 O838 O 0.27984 0.23840 0.19929
 Zr839 Zr 0.23643 0.30792 0.27276
 O840 O 0.20134 0.27549 0.24039
 O841 O 0.21757 0.21215 0.21581
 O842 O 0.28800 0.28563 0.28463
 C843 C 0.24881 0.19422 0.14432
 C844 C 0.20123 0.14176 0.24782
 C845 C 0.14587 0.24039 0.19814
 C846 C 0.25894 0.30392 0.35556
 C847 C 0.35915 0.25810 0.30205
 C848 C 0.30401 0.35545 0.25386
 H849 H 0.32652 0.20870 0.26297
 H850 H 0.26351 0.32090 0.20691
 H851 H 0.20227 0.19596 0.20056
 H852 H 0.21189 0.26246 0.32339
 H853 H 0.23222 0.21727 0.36114
 H854 H 0.19297 0.18344 0.32423
 H855 H 0.31720 0.31635 0.17717
 H856 H 0.27434 0.28277 0.14179
 H857 H 0.32262 0.18027 0.31715
 H858 H 0.28868 0.14250 0.27657
 H859 H 0.21509 0.35644 0.22540
 H860 H 0.18343 0.31741 0.18714
 H861 H 0.32515 0.18598 0.18504
 H862 H 0.36204 0.22721 0.21482
 H863 H 0.14477 0.27176 0.28458
 H864 H 0.18058 0.31543 0.31647
 O865 O 0.73746 0.67849 0.33379
 O866 O 0.68135 0.67067 0.30153
 O867 O 0.81684 0.66994 0.24864
 O868 O 0.82507 0.70103 0.19079
 O869 O 0.82502 0.75501 0.32627
 O870 O 0.79364 0.81242 0.33479
 O871 O 0.72690 0.77202 0.15046
 O872 O 0.74303 0.70830 0.14876
 O873 O 0.64208 0.77272 0.23275
 O874 O 0.63901 0.75581 0.29528
 O875 O 0.72706 0.85479 0.23579
 O876 O 0.78919 0.85547 0.25095
 O877 O 0.75250 0.82259 0.17511
 O878 O 0.81176 0.82944 0.20942
 O879 O 0.67475 0.83100 0.25943
 O880 O 0.66566 0.79636 0.31900
 O881 O 0.66694 0.74687 0.18194
 O882 O 0.69911 0.68803 0.17262
 O883 O 0.76177 0.72976 0.35868
 O884 O 0.74803 0.79212 0.35973
 O885 O 0.84973 0.73217 0.27375
 O886 O 0.85086 0.74567 0.21126
 O887 O 0.76541 0.64574 0.27365
 O888 O 0.70303 0.64625 0.25472
 Zr889 Zr 0.73000 0.69142 0.27813
 O890 O 0.69551 0.72398 0.24496
 Zr891 Zr 0.80442 0.72540 0.23919
 O892 O 0.77343 0.75933 0.20427
 Zr893 Zr 0.76951 0.76467 0.31343
 O894 O 0.73691 0.80028 0.28175
 Zr895 Zr 0.72193 0.73597 0.19519
 O896 O 0.75480 0.69963 0.22662
 Zr897 Zr 0.68683 0.77538 0.26915
 O898 O 0.71781 0.74111 0.30468
 Zr899 Zr 0.76179 0.80909 0.23049
 O900 O 0.79662 0.77680 0.26393
 O901 O 0.78069 0.71411 0.28989
 O902 O 0.71056 0.78710 0.21821
 C903 C 0.74879 0.69736 0.36107
 C904 C 0.79818 0.64284 0.26099
 C905 C 0.85232 0.74426 0.30661
 C906 C 0.74021 0.80429 0.14782
 C907 C 0.63967 0.76006 0.20002
 C908 C 0.69423 0.85784 0.24793
 H909 H 0.67229 0.71086 0.24120
 H910 H 0.73357 0.82321 0.29564
 H911 H 0.79617 0.69836 0.30583
 H912 H 0.78734 0.76280 0.18124
 H913 H 0.76800 0.71756 0.14418
 H914 H 0.80660 0.68315 0.18267
 H915 H 0.67957 0.81859 0.32519
 H916 H 0.72200 0.78503 0.36166
 H917 H 0.67858 0.68039 0.18857
 H918 H 0.71323 0.64325 0.22971
 H919 H 0.78135 0.85877 0.27672
 H920 H 0.81215 0.82049 0.31665
 H921 H 0.67213 0.68955 0.31869
 H922 H 0.63515 0.73048 0.28685
 H923 H 0.85321 0.77160 0.21843
 H924 H 0.81778 0.81577 0.18680
 O925 O 0.66633 0.24456 0.81841
 O926 O 0.69719 0.18779 0.82815
 O927 O 0.75609 0.32022 0.82509
 O928 O 0.80688 0.33238 0.79530
 O929 O 0.67481 0.32984 0.73845
 O930 O 0.66537 0.29748 0.68250
 O931 O 0.84984 0.22865 0.72685
 O932 O 0.85092 0.24605 0.78744
 O933 O 0.76539 0.14469 0.72664
 O934 O 0.70253 0.14393 0.74439
 O935 O 0.76376 0.22784 0.64226
 O936 O 0.75063 0.29025 0.63928
 O937 O 0.82522 0.25149 0.67417
 O938 O 0.79241 0.31195 0.66517
 O939 O 0.73884 0.17689 0.66767
 O940 O 0.67995 0.16981 0.70194
 O941 O 0.81715 0.16874 0.75055
 O942 O 0.82580 0.19805 0.80955
 O943 O 0.64177 0.27056 0.76728
 O944 O 0.64063 0.25163 0.70488
 O945 O 0.72675 0.35335 0.76286
 O946 O 0.78996 0.35098 0.74272
 O947 O 0.72841 0.27061 0.85017
 O948 O 0.74418 0.20781 0.85178
 Zr949 Zr 0.72173 0.23501 0.80560
 O950 O 0.75412 0.19907 0.77422
 Zr951 Zr 0.76172 0.30783 0.76914
 O952 O 0.79628 0.27500 0.73677
 Zr953 Zr 0.68679 0.27405 0.73119
 O954 O 0.71819 0.24025 0.69651
 Zr955 Zr 0.80435 0.22370 0.76170
 O956 O 0.77354 0.25826 0.79661
 Zr957 Zr 0.72973 0.19027 0.72296
 O958 O 0.69474 0.22262 0.75633
 Zr959 Zr 0.76996 0.26325 0.68702
 O960 O 0.73664 0.29948 0.71796
 O961 O 0.71088 0.28563 0.78147
 O962 O 0.78109 0.21220 0.71066
 C963 C 0.63911 0.25750 0.79997
 C964 C 0.74339 0.30215 0.85261
 C965 C 0.69428 0.35657 0.74983
 C966 C 0.85245 0.24018 0.69366
 C967 C 0.79846 0.14177 0.73833
 C968 C 0.75083 0.19542 0.64022
 H969 H 0.75728 0.17588 0.78790
 H970 H 0.70435 0.23698 0.67349
 H971 H 0.69575 0.30181 0.79721
 H972 H 0.81962 0.28804 0.73321
 H973 H 0.84190 0.26189 0.80755
 H974 H 0.82897 0.31834 0.78812
 H975 H 0.67305 0.18487 0.68037
 H976 H 0.63716 0.22693 0.71551
 H977 H 0.80907 0.17833 0.81724
 H978 H 0.76989 0.21595 0.85371
 H979 H 0.72454 0.28383 0.63646
 H980 H 0.68394 0.31483 0.67326
 H981 H 0.68011 0.17852 0.80935
 H982 H 0.71168 0.13971 0.76960
 H983 H 0.77751 0.35561 0.71901
 H984 H 0.81488 0.31754 0.67911
 C985 C 0.12574 1.00909 1.17826
 C986 C 0.10581 1.00035 1.21050
 C987 C 0.06941 0.98862 1.20613
 C988 C 0.05245 0.99031 1.17160
 C989 C 0.07222 1.00125 1.14032
 C990 C 0.10922 1.00969 1.14388
 H991 H 0.15450 1.01587 1.17972
 H992 H 0.05409 0.97738 1.22883
 H993 H 0.02420 0.98191 1.16909
 H994 H 0.12533 1.01722 1.12005
 C995 C 0.62431 0.50976 0.67925
 C996 C 0.60429 0.50101 0.71141
 C997 C 0.56795 0.48906 0.70694
 C998 C 0.55112 0.49060 0.67235
 C999 C 0.57104 0.50151 0.64117
 C1000 C 0.60797 0.51014 0.64485
 H1001 H 0.65303 0.51668 0.68078
 H1002 H 0.55260 0.47779 0.72960
 H1003 H 0.52288 0.48222 0.66971
 H1004 H 0.62413 0.51781 0.62110
 C1005 C 0.37783 0.01494 0.68344
 C1006 C 0.39660 0.00420 0.71575
 C1007 C 0.43258 -0.00979 0.71126
 C1008 C 0.44891 -0.01203 0.67653
 C1009 C 0.42969 -0.00101 0.64495
 C1010 C 0.39412 0.01285 0.64897
 H1011 H 0.34963 0.02379 0.68417
 H1012 H 0.44749 -0.02180 0.73392
 H1013 H 0.47630 -0.02338 0.67438
 H1014 H 0.37825 0.02132 0.62528
 C1015 C -0.12157 0.51198 1.18410
 C1016 C -0.10391 0.49994 1.21654
 C1017 C -0.06992 0.48172 1.21264
 C1018 C -0.05316 0.47846 1.17799
 C1019 C -0.07056 0.49217 1.14622
 C1020 C -0.10510 0.50866 1.14988
 H1021 H -0.14883 0.52377 1.18498
 H1022 H -0.05653 0.46941 1.23614
 H1023 H -0.02677 0.46491 1.17607
 H1024 H -0.11980 0.51898 1.12616
 C1025 C -0.06850 0.51750 0.29234
 C1026 C -0.10399 0.50287 0.28936
 C1027 C -0.12273 0.49441 0.32224
 C1028 C -0.10610 0.49779 0.35633
 C1029 C -0.07019 0.51063 0.35922
 C1030 C -0.05164 0.52086 0.32684
 H1031 H -0.05393 0.52698 0.26832
 H1032 H -0.15077 0.48506 0.32157
 H1033 H -0.12160 0.49018 0.38051
 H1034 H -0.02409 0.53146 0.32811
 C1035 C 0.43153 1.01352 -0.20659
 C1036 C 0.39623 0.99856 -0.21126
 C1037 C 0.37754 0.98750 -0.17904
 C1038 C 0.39345 0.99000 -0.14444
 C1039 C 0.42852 1.00451 -0.14029
 C1040 C 0.44748 1.01609 -0.17180
 H1041 H 0.44610 1.02593 -0.22917
 H1042 H 0.34971 0.97792 -0.18005
 H1043 H 0.37782 0.98105 -0.12081
 H1044 H 0.47443 1.02799 -0.16958
 C1045 C 0.62411 0.49379 -0.18263
 C1046 C 0.60417 0.50261 -0.21482
 C1047 C 0.56757 0.51442 -0.21053
 C1048 C 0.55047 0.51257 -0.17603
 C1049 C 0.57033 0.50143 -0.14485
 C1050 C 0.60749 0.49310 -0.14835
 H1051 H 0.65290 0.48667 -0.18413
 H1052 H 0.55219 0.52565 -0.23326
 H1053 H 0.52202 0.52075 -0.17346
 H1054 H 0.62359 0.48526 -0.12458
 C1055 C 0.12502 -0.00675 0.31665
 C1056 C 0.10542 0.00223 0.28428
 C1057 C 0.06890 0.01442 0.28836
 C1058 C 0.05154 0.01285 0.32278
 C1059 C 0.07104 0.00158 0.35416
 C1060 C 0.10814 -0.00721 0.35085
 H1061 H 0.15376 -0.01410 0.31537
 H1062 H 0.05377 0.02577 0.26552
 H1063 H 0.02319 0.02145 0.32513
 H1064 H 0.12403 -0.01511 0.37473
 C1065 C 0.17962 1.12038 1.01059
 C1066 C 0.21195 1.10102 1.00101
 C1067 C 0.20824 1.06456 0.98924
 C1068 C 0.17429 1.04704 0.99155
 C1069 C 0.14297 1.06630 1.00322
 C1070 C 0.14581 1.10329 1.01184
 H1071 H 0.18062 1.14911 1.01753
 H1072 H 0.23097 1.04964 0.97748
 H1073 H 0.17220 1.01882 0.98297
 H1074 H 0.12185 1.11898 1.01991
 C1075 C 0.71026 0.56703 0.49025
 C1076 C 0.71414 0.60298 0.50349
 C1077 C 0.68183 0.62228 0.51327
 C1078 C 0.64784 0.60565 0.51308
 C1079 C 0.64472 0.56915 0.50280
 C1080 C 0.67603 0.54987 0.49115
 H1081 H 0.73301 0.55234 0.47825
 H1082 H 0.68288 0.65073 0.52124
 H1083 H 0.62393 0.62130 0.52136
 H1084 H 0.67374 0.52201 0.48152
 C1085 C 0.70970 0.43332 0.00469
 C1086 C 0.71419 0.39652 -0.00659
 C1087 C 0.68175 0.37760 -0.01577
 C1088 C 0.64779 0.39491 -0.01700
 C1089 C 0.64442 0.43186 -0.00842
 C1090 C 0.67558 0.45106 0.00249
 H1091 H 0.73143 0.44806 0.01784
 H1092 H 0.68186 0.34869 -0.02104
 H1093 H 0.62392 0.37914 -0.02435
 H1094 H 0.67313 0.47922 0.01131
 C1095 C 0.20866 -0.06536 0.50711
 C1096 C 0.21329 -0.10212 0.49577
 C1097 C 0.18101 -0.12100 0.48601
 C1098 C 0.14713 -0.10354 0.48401
 C1099 C 0.14374 -0.06652 0.49239
 C1100 C 0.17469 -0.04748 0.50413
 H1101 H 0.23027 -0.05068 0.52056
 H1102 H 0.18122 -0.14990 0.48067
 H1103 H 0.12336 -0.11921 0.47614
 H1104 H 0.17217 -0.01931 0.51286
 C1105 C 0.31896 -0.12229 0.51031
 C1106 C 0.28662 -0.10271 0.50094
 C1107 C 0.29114 -0.06587 0.48974
 C1108 C 0.32506 -0.04851 0.49290
 C1109 C 0.35601 -0.06821 0.50455
 C1110 C 0.35277 -0.10536 0.51246
 H1111 H 0.31880 -0.15130 0.51527
 H1112 H 0.26948 -0.05071 0.47637
 H1113 H 0.32754 -0.02021 0.48442
 H1114 H 0.37658 -0.12150 0.52013
 C1115 C -0.18019 0.37423 1.00709
 C1116 C -0.21218 0.39479 0.99857
 C1117 C -0.20697 0.43182 0.98861
 C1118 C -0.17276 0.44842 0.99270
 C1119 C -0.14223 0.42779 1.00397
 C1120 C -0.14609 0.39043 1.01017
 H1121 H -0.18091 0.34504 1.01080
 H1122 H -0.22822 0.44777 0.97553
 H1123 H -0.16976 0.47697 0.98532
 H1124 H -0.12260 0.37357 1.01734
 C1125 C -0.20680 0.56757 0.51395
 C1126 C -0.21230 0.60438 0.50369
 C1127 C -0.18101 0.62521 0.49458
 C1128 C -0.14651 0.60927 0.49199
 C1129 C -0.14189 0.57198 0.49882
 C1130 C -0.17210 0.55124 0.51035
 H1131 H -0.22870 0.55143 0.52534
 H1132 H -0.18345 0.65417 0.48867
 H1133 H -0.12345 0.62607 0.48415
 H1134 H -0.16858 0.52269 0.51768
 C1135 C 0.29052 1.06552 0.01317
 C1136 C 0.28530 1.10177 0.00073
 C1137 C 0.31678 1.12164 -0.00977
 C1138 C 0.35110 1.10516 -0.01148
 C1139 C 0.35539 1.06831 -0.00232
 C1140 C 0.32502 1.04859 0.01042
 H1141 H 0.26852 1.05034 0.02568
 H1142 H 0.31474 1.15030 -0.01713
 H1143 H 0.37435 1.12123 -0.02027
 H1144 H 0.32829 1.02050 0.01949
 C1145 C -0.01021 1.17628 1.12031
 C1146 C 0.00091 1.20830 1.10157
 C1147 C 0.01568 1.20371 1.06592
 C1148 C 0.01782 1.16917 1.04960
 C1149 C 0.00606 1.13785 1.06857
 C1150 C -0.00810 1.14194 1.10407
 H1151 H -0.01961 1.17730 1.14839
 H1152 H 0.02817 1.22611 1.05127
 H1153 H 0.02953 1.16695 1.02237
 H1154 H -0.01713 1.11845 1.11976
 C1155 C 0.49571 0.68045 0.62300
 C1156 C 0.50434 0.71304 0.60397
 C1157 C 0.51790 0.70985 0.56785
 C1158 C 0.51979 0.67554 0.55067
 C1159 C 0.50912 0.64356 0.56950
 C1160 C 0.49756 0.64657 0.60603
 H1161 H 0.48720 0.68123 0.65147
 H1162 H 0.52759 0.73353 0.55300
 H1163 H 0.52964 0.67407 0.52266
 H1164 H 0.48984 0.62265 0.62179
 C1165 C -0.01330 0.71255 0.43410
 C1166 C 0.00007 0.71698 0.39787
 C1167 C 0.00970 0.68477 0.37865
 C1168 C 0.00763 0.65041 0.39491
 C1169 C -0.00508 0.64647 0.43094
 C1170 C -0.01546 0.67792 0.45044
 H1171 H -0.02473 0.73517 0.44931
 H1172 H 0.01776 0.68566 0.35016
 H1173 H 0.01547 0.62679 0.37880
 H1174 H -0.02599 0.67577 0.47817
 C1175 C 0.50468 1.18136 -0.12172
 C1176 C 0.49550 1.21393 -0.10297
 C1177 C 0.48041 1.21048 -0.06745
 C1178 C 0.47759 1.17591 -0.05049
 C1179 C 0.48868 1.14392 -0.06907
 C1180 C 0.50176 1.14728 -0.10507
 H1181 H 0.51420 1.18219 -0.14987
 H1182 H 0.47022 1.23419 -0.05295
 H1183 H 0.46671 1.17425 -0.02287
 H1184 H 0.50997 1.12344 -0.12067
 C1185 C 0.48856 0.31918 -0.12291
 C1186 C 0.49871 0.28683 -0.10391
 C1187 C 0.51533 0.29071 -0.06926
 C1188 C 0.51884 0.32544 -0.05325
 C1189 C 0.50691 0.35721 -0.07197
 C1190 C 0.49212 0.35347 -0.10715
 H1191 H 0.47784 0.31801 -0.15056
 H1192 H 0.52625 0.26719 -0.05477
 H1193 H 0.53106 0.32740 -0.02628
 H1194 H 0.48316 0.37715 -0.12280
 C1195 C -0.01490 -0.17811 0.37779
 C1196 C -0.00456 -0.21016 0.39722
 C1197 C 0.01014 -0.20546 0.43277
 C1198 C 0.01318 -0.17069 0.44826
 C1199 C 0.00239 -0.13934 0.42853
 C1200 C -0.01193 -0.14356 0.39323
 H1201 H -0.02421 -0.17933 0.34973
 H1202 H 0.02207 -0.22798 0.44793
 H1203 H 0.02493 -0.16837 0.47541
 H1204 H -0.02027 -0.12004 0.37701
 C1205 C 0.51354 -0.18233 0.62229
 C1206 C 0.50174 -0.21428 0.60423
 C1207 C 0.48367 -0.20979 0.57029
 C1208 C 0.48044 -0.17505 0.55388
 C1209 C 0.49402 -0.14380 0.57160
 C1210 C 0.51024 -0.14801 0.60615
 H1211 H 0.52517 -0.18371 0.64956
 H1212 H 0.47139 -0.23285 0.55670
 H1213 H 0.46704 -0.17264 0.52748
 H1214 H 0.52043 -0.12468 0.62107
 C1215 C -0.00742 0.28607 1.06578
 C1216 C 0.00641 0.28097 1.10174
 C1217 C 0.01657 0.31281 1.12104
 C1218 C 0.01403 0.34742 1.10533
 C1219 C 0.00028 0.35206 1.06981
 C1220 C -0.01010 0.32098 1.05001
 H1221 H -0.01905 0.26381 1.05050
 H1222 H 0.02519 0.31161 1.14929
 H1223 H 0.02204 0.37071 1.12162
 H1224 H -0.02134 0.32365 1.02264
 C1225 C 0.76256 0.31648 0.03771
 C1226 C 0.74842 0.35234 0.03290
 C1227 C 0.73892 0.37178 0.06509
 C1228 C 0.74228 0.35620 0.09981
 C1229 C 0.75611 0.32068 0.10413
 C1230 C 0.76601 0.30086 0.07268
 H1231 H 0.77376 0.30110 0.01508
 H1232 H 0.73012 0.39996 0.06397
 H1233 H 0.73459 0.37247 0.12341
 H1234 H 0.77723 0.27346 0.07505
 C1235 C 0.23775 0.87293 0.56767
 C1236 C 0.24787 0.85387 0.53542
 C1237 C 0.26251 0.81820 0.54023
 C1238 C 0.26581 0.80237 0.57517
 C1239 C 0.25526 0.82178 0.60670
 C1240 C 0.24095 0.85714 0.60239
 H1241 H 0.22845 0.90096 0.56661
 H1242 H 0.27416 0.80315 0.51757
 H1243 H 0.27744 0.77513 0.57749
 H1244 H 0.23273 0.87312 0.62600
 C1245 C 0.74399 0.62509 0.57293
 C1246 C 0.75155 0.64539 0.54066
 C1247 C 0.76225 0.68210 0.54479
 C1248 C 0.76032 0.69894 0.57925
 C1249 C 0.75019 0.67878 0.61054
 C1250 C 0.74309 0.64152 0.60718
 H1251 H 0.73805 0.59617 0.57151
 H1252 H 0.77270 0.69778 0.52196
 H1253 H 0.76771 0.72745 0.58167
 H1254 H 0.73618 0.62514 0.63103
 C1255 C 0.24164 0.12348 0.07031
 C1256 C 0.24981 0.14342 0.03790
 C1257 C 0.26202 0.17964 0.04203
 C1258 C 0.26091 0.19658 0.07653
 C1259 C 0.25021 0.17687 0.10794
 C1260 C 0.24165 0.13994 0.10462
 H1261 H 0.23462 0.09481 0.06903
 H1262 H 0.27307 0.19486 0.01916
 H1263 H 0.26936 0.22479 0.07886
 H1264 H 0.23424 0.12388 0.12854
 C1265 C 0.23487 0.18065 0.96014
 C1266 C 0.24594 0.14382 0.96414
 C1267 C 0.25355 0.12392 0.93171
 C1268 C 0.25410 0.14078 0.89747
 C1269 C 0.24675 0.17814 0.89424
 C1270 C 0.23655 0.19795 0.92567
 H1271 H 0.22440 0.19610 0.98308
 H1272 H 0.26002 0.09500 0.93300
 H1273 H 0.26111 0.12469 0.87355
 H1274 H 0.22898 0.22657 0.92336
 C1275 C 0.75684 0.62628 0.43479
 C1276 C 0.74812 0.64587 0.46711
 C1277 C 0.73529 0.68213 0.46309
 C1278 C 0.73633 0.69946 0.42867
 C1279 C 0.74761 0.68003 0.39741
 C1280 C 0.75678 0.64310 0.40063
 H1281 H 0.76448 0.59764 0.43605
 H1282 H 0.72388 0.69705 0.48595
 H1283 H 0.72740 0.72768 0.42625
 H1284 H 0.76466 0.62733 0.37674
 C1285 C 0.26290 0.87177 0.42971
 C1286 C 0.25231 0.85337 0.46228
 C1287 C 0.23789 0.81780 0.45822
 C1288 C 0.23537 0.80136 0.42367
 C1289 C 0.24646 0.82007 0.39181
 C1290 C 0.26049 0.85537 0.39539
 H1291 H 0.27203 0.89973 0.43023
 H1292 H 0.22589 0.80334 0.48111
 H1293 H 0.22381 0.77426 0.42190
 H1294 H 0.26899 0.87087 0.37149
 C1295 C 0.73803 0.31634 0.95575
 C1296 C 0.75274 0.35177 0.95987
 C1297 C 0.76346 0.37024 0.92742
 C1298 C 0.76087 0.35401 0.89309
 C1299 C 0.74650 0.31885 0.88943
 C1300 C 0.73531 0.30007 0.92117
 H1301 H 0.72590 0.30190 0.97858
 H1302 H 0.77283 0.39814 0.92812
 H1303 H 0.76943 0.36956 0.86925
 H1304 H 0.72349 0.27309 0.91928
 C1305 C 0.87144 0.43219 0.26409
 C1306 C 0.85326 0.46428 0.25181
 C1307 C 0.82003 0.45991 0.23271
 C1308 C 0.80440 0.42514 0.22874
 C1309 C 0.82224 0.39367 0.24257
 C1310 C 0.85611 0.39779 0.25997
 H1311 H 0.89825 0.43350 0.27659
 H1312 H 0.80639 0.48315 0.22018
 H1313 H 0.77848 0.42290 0.21458
 H1314 H 0.87105 0.37433 0.27055
 C1315 C 0.37369 0.93215 0.73917
 C1316 C 0.35350 0.96395 0.74894
 C1317 C 0.31670 0.95862 0.75980
 C1318 C 0.29996 0.92452 0.75610
 C1319 C 0.32021 0.89410 0.74417
 C1320 C 0.35734 0.89808 0.73649
 H1321 H 0.40273 0.93289 0.73436
 H1322 H 0.30109 0.97977 0.77333
 H1323 H 0.27167 0.92146 0.76447
 H1324 H 0.37391 0.87465 0.72869
 C1325 C 0.18367 0.95817 0.23511
 C1326 C 0.14722 0.96345 0.24690
 C1327 C 0.12681 0.93195 0.25613
 C1328 C 0.14294 0.89746 0.25741
 C1329 C 0.18000 0.89300 0.24911
 C1330 C 0.20026 0.92347 0.23747
 H1331 H 0.19933 0.98032 0.22351
 H1332 H 0.09804 0.93412 0.26303
 H1333 H 0.12647 0.87425 0.26551
 H1334 H 0.22858 0.92019 0.22919
 C1335 C 0.68181 0.45859 0.73516
 C1336 C 0.64556 0.46392 0.74747
 C1337 C 0.62505 0.43245 0.75664
 C1338 C 0.64094 0.39785 0.75724
 C1339 C 0.67784 0.39333 0.74838
 C1340 C 0.69818 0.42378 0.73688
 H1341 H 0.69746 0.48077 0.72360
 H1342 H 0.59638 0.43471 0.76391
 H1343 H 0.62446 0.37463 0.76527
 H1344 H 0.72638 0.42041 0.72822
 C1345 C 0.68381 0.54025 0.76152
 C1346 C 0.64729 0.53718 0.74940
 C1347 C 0.62808 0.56990 0.74093
 C1348 C 0.64527 0.60360 0.74117
 C1349 C 0.68228 0.60600 0.75020
 C1350 C 0.70149 0.57420 0.76066
 H1351 H 0.69865 0.51702 0.77245
 H1352 H 0.59933 0.56933 0.73375
 H1353 H 0.62966 0.62785 0.73379
 H1354 H 0.72978 0.57585 0.76931
 C1355 C 0.18515 0.04002 0.26077
 C1356 C 0.14871 0.03676 0.24845
 C1357 C 0.12955 0.06939 0.23951
 C1358 C 0.14676 0.10309 0.23935
 C1359 C 0.18374 0.10564 0.24850
 C1360 C 0.20285 0.07397 0.25956
 H1361 H 0.19991 0.01693 0.27212
 H1362 H 0.10084 0.06875 0.23220
 H1363 H 0.13117 0.12722 0.23154
 H1364 H 0.23109 0.07573 0.26837
 C1365 C 0.36964 0.06950 0.76519
 C1366 C 0.35133 0.03707 0.75504
 C1367 C 0.31459 0.04122 0.74311
 C1368 C 0.29629 0.07498 0.74552
 C1369 C 0.31489 0.10610 0.75735
 C1370 C 0.35177 0.10310 0.76668
 H1371 H 0.39847 0.06969 0.77108
 H1372 H 0.30036 0.01947 0.72946
 H1373 H 0.26822 0.07722 0.73616
 H1374 H 0.36707 0.12701 0.77477
 C1375 C 0.86998 0.56966 0.24600
 C1376 C 0.85158 0.53685 0.25440
 C1377 C 0.81547 0.53967 0.26802
 C1378 C 0.79782 0.57396 0.27045
 C1379 C 0.81620 0.60622 0.26025
 C1380 C 0.85262 0.60344 0.24842
 H1381 H 0.89836 0.56918 0.23737
 H1382 H 0.80102 0.51569 0.27742
 H1383 H 0.76990 0.57522 0.28040
 H1384 H 0.86809 0.62750 0.24096
 C1385 C 0.93429 0.25786 0.12442
 C1386 C 0.96603 0.24808 0.14474
 C1387 C 0.96042 0.23809 0.18188
 C1388 C 0.92621 0.24301 0.19878
 C1389 C 0.89592 0.25530 0.17839
 C1390 C 0.90013 0.26180 0.14092
 H1391 H 0.93521 0.26185 0.09516
 H1392 H 0.98139 0.22438 0.19768
 H1393 H 0.92294 0.23534 0.22735
 H1394 H 0.87684 0.26966 0.12420
 C1395 C 0.46198 0.76860 0.68133
 C1396 C 0.46627 0.75071 0.64735
 C1397 C 0.43412 0.73957 0.62910
 C1398 C 0.39978 0.74327 0.64508
 C1399 C 0.39573 0.75913 0.67974
 C1400 C 0.42720 0.77214 0.69765
 H1401 H 0.48522 0.78045 0.69506
 H1402 H 0.43535 0.72810 0.60179
 H1403 H 0.37631 0.73347 0.63002
 H1404 H 0.42495 0.78523 0.72416
 C1405 C 0.45591 0.23312 0.81906
 C1406 C 0.46011 0.24920 0.85388
 C1407 C 0.42798 0.25968 0.87294
 C1408 C 0.39358 0.25699 0.85706
 C1409 C 0.38957 0.24272 0.82174
 C1410 C 0.42111 0.23044 0.80296
 H1411 H 0.47922 0.22198 0.80448
 H1412 H 0.42942 0.26997 0.90071
 H1413 H 0.37003 0.26611 0.87275
 H1414 H 0.41890 0.21857 0.77590
 C1415 C 0.92825 0.74266 0.37609
 C1416 C 0.95996 0.75065 0.35503
 C1417 C 0.95412 0.76017 0.31781
 C1418 C 0.91950 0.75658 0.30167
 C1419 C 0.88916 0.74613 0.32284
 C1420 C 0.89375 0.74006 0.36031
 H1421 H 0.92951 0.73913 0.40539
 H1422 H 0.97513 0.77276 0.30141
 H1423 H 0.91606 0.76374 0.27299
 H1424 H 0.87055 0.73339 0.37759
 C1425 C 0.06640 0.76394 0.37284
 C1426 C 0.03394 0.75563 0.35333
 C1427 C 0.03849 0.74498 0.31627
 C1428 C 0.07274 0.74713 0.29887
 C1429 C 0.10393 0.75735 0.31863
 C1430 C 0.10046 0.76514 0.35586
 H1431 H 0.06617 0.76855 0.40197
 H1432 H 0.01680 0.73229 0.30107
 H1433 H 0.07524 0.73885 0.27046
 H1434 H 0.12429 0.77188 0.37208
 C1435 C 0.53617 0.26683 0.81732
 C1436 C 0.53287 0.25098 0.85256
 C1437 C 0.56548 0.24041 0.87068
 C1438 C 0.59939 0.24279 0.85362
 C1439 C 0.60252 0.25680 0.81791
 C1440 C 0.57054 0.26916 0.79998
 H1441 H 0.51250 0.27805 0.80335
 H1442 H 0.56483 0.23031 0.89865
 H1443 H 0.62327 0.23362 0.86875
 H1444 H 0.57208 0.28085 0.77266
 C1445 C 0.57177 0.75538 0.62844
 C1446 C 0.53914 0.74720 0.64762
 C1447 C 0.54240 0.73372 0.68380
 C1448 C 0.57686 0.73150 0.70089
 C1449 C 0.60888 0.74177 0.68190
 C1450 C 0.60577 0.75321 0.64531
 H1451 H 0.57092 0.76383 0.59993
 H1452 H 0.51866 0.72436 0.69877
 H1453 H 0.57841 0.72175 0.72896
 H1454 H 0.62970 0.76061 0.62943
 C1455 C 0.04394 0.25260 0.18301
 C1456 C 0.03960 0.24108 0.14621
 C1457 C 0.07212 0.23137 0.12711
 C1458 C 0.10612 0.23044 0.14418
 C1459 C 0.10940 0.23970 0.18107
 C1460 C 0.07808 0.25069 0.20049
 H1461 H 0.02212 0.26592 0.19787
 H1462 H 0.07207 0.22562 0.09820
 H1463 H 0.13007 0.22283 0.12827
 H1464 H 0.08038 0.25985 0.22862
 C1465 C -0.12224 1.00920 0.81656
 C1466 C -0.10439 0.99809 0.78397
 C1467 C -0.06971 0.98113 0.78750
 C1468 C -0.05254 0.97830 0.82196
 C1469 C -0.07013 0.99118 0.85389
 C1470 C -0.10534 1.00631 0.85059
 H1471 H -0.14987 1.02009 0.81586
 H1472 H -0.05605 0.96951 0.76388
 H1473 H -0.02564 0.96574 0.82361
 H1474 H -0.12021 1.01595 0.87444
 C1475 C 0.37601 0.49075 0.31777
 C1476 C 0.39552 0.49983 0.28538
 C1477 C 0.43201 0.51149 0.28946
 C1478 C 0.44951 0.50900 0.32371
 C1479 C 0.43019 0.49738 0.35502
 C1480 C 0.39305 0.48935 0.35185
 H1481 H 0.34723 0.48399 0.31658
 H1482 H 0.44699 0.52322 0.26680
 H1483 H 0.47781 0.51730 0.32601
 H1484 H 0.37723 0.48146 0.37576
 C1485 C 0.62439 0.01170 0.32048
 C1486 C 0.60467 0.00272 0.28836
 C1487 C 0.56819 -0.00886 0.29279
 C1488 C 0.55089 -0.00647 0.32712
 C1489 C 0.57043 0.00496 0.35815
 C1490 C 0.60753 0.01302 0.35468
 H1491 H 0.65323 0.01821 0.31904
 H1492 H 0.55306 -0.02050 0.27035
 H1493 H 0.52260 -0.01476 0.32971
 H1494 H 0.62348 0.02077 0.37842
 C1495 C 0.12560 0.51006 0.82161
 C1496 C 0.10570 0.50198 0.78933
 C1497 C 0.06905 0.49088 0.79369
 C1498 C 0.05187 0.49287 0.82816
 C1499 C 0.07162 0.50345 0.85942
 C1500 C 0.10885 0.51101 0.85591
 H1501 H 0.15451 0.51625 0.82020
 H1502 H 0.05370 0.47985 0.77109
 H1503 H 0.02347 0.48495 0.83065
 H1504 H 0.12499 0.51812 0.87972
 C1505 C 0.12638 0.49695 0.68317
 C1506 C 0.10607 0.50506 0.71532
 C1507 C 0.06923 0.51600 0.71085
 C1508 C 0.05229 0.51359 0.67635
 C1509 C 0.07248 0.50275 0.64528
 C1510 C 0.10988 0.49563 0.64889
 H1511 H 0.15533 0.49058 0.68475
 H1512 H 0.05350 0.52696 0.73340
 H1513 H 0.02368 0.52113 0.67371
 H1514 H 0.12631 0.48823 0.62524
 C1515 C 0.62499 0.99559 0.18255
 C1516 C 0.60492 1.00444 0.21463
 C1517 C 0.56816 1.01564 0.21025
 C1518 C 0.55097 1.01275 0.17597
 C1519 C 0.57089 1.00118 0.14504
 C1520 C 0.60825 0.99379 0.14847
 H1521 H 0.65392 0.98905 0.18408
 H1522 H 0.55266 1.02710 0.23273
 H1523 H 0.52240 1.02049 0.17336
 H1524 H 0.62444 0.98587 0.12481
 C1525 C 0.43200 0.48754 0.20681
 C1526 C 0.39507 0.49809 0.21144
 C1527 C 0.37481 0.50672 0.17937
 C1528 C 0.39144 0.50891 0.14508
 C1529 C 0.42891 0.50211 0.14138
 C1530 C 0.44904 0.49080 0.17236
 H1531 H 0.44774 0.47616 0.22921
 H1532 H 0.34576 0.51263 0.18101
 H1533 H 0.37503 0.51651 0.12145
 H1534 H 0.47768 0.48339 0.16964
 C1535 C -0.06988 0.01686 0.70762
 C1536 C -0.10482 0.00103 0.71116
 C1537 C -0.12335 -0.00832 0.67855
 C1538 C -0.10694 -0.00466 0.64429
 C1539 C -0.07151 0.00937 0.64091
 C1540 C -0.05323 0.02046 0.67297
 H1541 H -0.05560 0.02712 0.73135
 H1542 H -0.15110 -0.01848 0.67953
 H1543 H -0.12225 -0.01299 0.62035
 H1544 H -0.02608 0.03202 0.67131
 C1545 C -0.20694 0.93175 1.01002
 C1546 C -0.21228 0.89476 1.00037
 C1547 C -0.18030 0.87407 0.99220
 C1548 C -0.14605 0.89008 0.98924
 C1549 C -0.14200 0.92741 0.99523
 C1550 C -0.17258 0.94815 1.00610
 H1551 H -0.22823 0.94782 1.02279
 H1552 H -0.18113 0.84490 0.98868
 H1553 H -0.12261 0.87311 0.98232
 H1554 H -0.16954 0.97667 1.01329
 C1555 C 0.32123 0.37817 0.48671
 C1556 C 0.28896 0.39754 0.49677
 C1557 C 0.29363 0.43432 0.50766
 C1558 C 0.32746 0.45185 0.50363
 C1559 C 0.35832 0.43243 0.49127
 C1560 C 0.35498 0.39529 0.48361
 H1561 H 0.32108 0.34919 0.48184
 H1562 H 0.27216 0.44935 0.52141
 H1563 H 0.32997 0.48007 0.51209
 H1564 H 0.37870 0.37923 0.47554
 C1565 C 0.29057 0.56532 -0.01179
 C1566 C 0.28548 0.60173 -0.00016
 C1567 C 0.31706 0.62157 0.00980
 C1568 C 0.35128 0.60494 0.01196
 C1569 C 0.35545 0.56795 0.00370
 C1570 C 0.32501 0.54825 -0.00867
 H1571 H 0.26855 0.55011 -0.02400
 H1572 H 0.31513 0.65031 0.01662
 H1573 H 0.37454 0.62105 0.02041
 H1574 H 0.32819 0.52006 -0.01717
 C1575 C -0.20856 0.06763 0.48602
 C1576 C -0.21442 0.10395 0.49744
 C1577 C -0.18326 0.12456 0.50731
 C1578 C -0.14868 0.10873 0.50955
 C1579 C -0.14378 0.07178 0.50163
 C1580 C -0.17379 0.05135 0.48933
 H1581 H -0.23021 0.05188 0.47385
 H1582 H -0.18582 0.15328 0.51400
 H1583 H -0.12576 0.12533 0.51798
 H1584 H -0.17002 0.02314 0.48113
 C1585 C 0.67954 0.12219 0.48817
 C1586 C 0.71182 0.10247 0.49729
 C1587 C 0.70793 0.06569 0.50835
 C1588 C 0.67382 0.04839 0.50587
 C1589 C 0.64254 0.06811 0.49468
 C1590 C 0.64566 0.10531 0.48667
 H1591 H 0.68063 0.15110 0.48174
 H1592 H 0.73055 0.05036 0.51985
 H1593 H 0.67156 0.01997 0.51402
 H1594 H 0.62181 0.12139 0.47898
 C1595 C 0.20771 0.56486 1.01138
 C1596 C 0.21189 0.60151 1.00002
 C1597 C 0.17975 0.62139 0.99072
 C1598 C 0.14575 0.60466 0.98915
 C1599 C 0.14247 0.56749 0.99722
 C1600 C 0.17358 0.54772 1.00877
 H1601 H 0.23019 0.54948 1.02310
 H1602 H 0.18105 0.65026 0.98417
 H1603 H 0.12200 0.62077 0.98124
 H1604 H 0.17118 0.51934 1.01701
 C1605 C 0.21081 0.43509 0.49127
 C1606 C 0.21543 0.39809 0.50212
 C1607 C 0.18306 0.37892 0.51133
 C1608 C 0.14917 0.39631 0.51369
 C1609 C 0.14578 0.43358 0.50609
 C1610 C 0.17679 0.45290 0.49458
 H1611 H 0.23243 0.45009 0.47800
 H1612 H 0.18325 0.34986 0.51602
 H1613 H 0.12540 0.38039 0.52124
 H1614 H 0.17429 0.48130 0.48631
 C1615 C 0.70978 0.93384 -0.00639
 C1616 C 0.71397 0.89687 0.00479
 C1617 C 0.68135 0.87798 0.01365
 C1618 C 0.64758 0.89554 0.01527
 C1619 C 0.64449 0.93271 0.00719
 C1620 C 0.67577 0.95183 -0.00388
 H1621 H 0.73165 0.94856 -0.01953
 H1622 H 0.68124 0.84896 0.01855
 H1623 H 0.62362 0.87978 0.02259
 H1624 H 0.67351 0.98016 -0.01247
 C1625 C 0.01572 0.78721 0.93292
 C1626 C 0.00381 0.78261 0.89644
 C1627 C -0.00532 0.81449 0.87612
 C1628 C -0.00676 0.84863 0.89243
 C1629 C 0.00144 0.85239 0.92958
 C1630 C 0.01328 0.82161 0.94971
 H1631 H 0.02751 0.76484 0.94842
 H1632 H -0.01223 0.81287 0.84729
 H1633 H -0.01497 0.87209 0.87603
 H1634 H 0.02160 0.82442 0.97807
 C1635 C 0.49048 0.29172 0.43251
 C1636 C 0.50465 0.28702 0.39663
 C1637 C 0.51409 0.31921 0.37714
 C1638 C 0.51070 0.35377 0.39267
 C1639 C 0.49689 0.35802 0.42825
 C1640 C 0.48700 0.32655 0.44811
 H1641 H 0.47927 0.26911 0.44787
 H1642 H 0.52292 0.31821 0.34891
 H1643 H 0.51841 0.37730 0.37633
 H1644 H 0.47576 0.32883 0.47554
 C1645 C 0.01019 0.29397 0.56652
 C1646 C -0.00491 0.28888 0.60198
 C1647 C -0.01550 0.32071 0.62133
 C1648 C -0.01190 0.35547 0.60610
 C1649 C 0.00319 0.36008 0.57106
 C1650 C 0.01383 0.32891 0.55126
 H1651 H 0.02213 0.27158 0.55136
 H1652 H -0.02531 0.31913 0.64926
 H1653 H -0.02033 0.37883 0.62229
 H1654 H 0.02599 0.33149 0.52425
 C1655 C 0.51592 0.79028 0.06961
 C1656 C 0.49875 0.78576 0.10403
 C1657 C 0.48758 0.81776 0.12277
 C1658 C 0.49112 0.85231 0.10715
 C1659 C 0.50681 0.85670 0.07233
 C1660 C 0.51939 0.82526 0.05373
 H1661 H 0.52741 0.76705 0.05526
 H1662 H 0.47629 0.81615 0.15022
 H1663 H 0.48149 0.87569 0.12265
 H1664 H 0.53218 0.82768 0.02701
 C1665 C 0.50732 0.68025 0.12185
 C1666 C 0.49734 0.71285 0.10324
 C1667 C 0.48170 0.70943 0.06804
 C1668 C 0.47859 0.67491 0.05141
 C1669 C 0.49004 0.64286 0.06994
 C1670 C 0.50414 0.64617 0.10548
 H1671 H 0.51738 0.68102 0.14976
 H1672 H 0.47112 0.73315 0.05363
 H1673 H 0.46707 0.67333 0.02411
 H1674 H 0.51284 0.62230 0.12097
 C1675 C 0.01070 0.18392 0.62034
 C1676 C 0.00054 0.21623 0.60132
 C1677 C -0.01331 0.21207 0.56531
 C1678 C -0.01589 0.17757 0.54913
 C1679 C -0.00538 0.14595 0.56853
 C1680 C 0.00820 0.14964 0.60421
 H1681 H 0.01941 0.18469 0.64862
 H1682 H -0.02493 0.23483 0.55025
 H1683 H -0.02693 0.17566 0.52165
 H1684 H 0.01635 0.12590 0.62019
 C1685 C 0.51468 0.20905 0.43279
 C1686 C 0.50056 0.21392 0.39691
 C1687 C 0.49051 0.18188 0.37787
 C1688 C 0.49279 0.14735 0.39401
 C1689 C 0.50614 0.14294 0.42976
 C1690 C 0.51702 0.17423 0.44903
 H1691 H 0.52642 0.23148 0.44774
 H1692 H 0.48179 0.18303 0.34961
 H1693 H 0.48449 0.12395 0.37803
 H1694 H 0.52810 0.17181 0.47650
 C1695 C 0.01038 0.67699 0.87728
 C1696 C 0.00197 0.70913 0.89720
 C1697 C -0.00853 0.70500 0.93424
 C1698 C -0.00573 0.67078 0.95169
 C1699 C 0.00520 0.63965 0.93187
 C1700 C 0.01224 0.64298 0.89434
 H1701 H 0.01626 0.67835 0.84816
 H1702 H -0.01964 0.72759 0.94973
 H1703 H -0.01327 0.66838 0.98036
 H1704 H 0.01960 0.61924 0.87816
 C1705 C 0.24186 0.62495 0.93080
 C1706 C 0.25002 0.64432 0.96332
 C1707 C 0.26191 0.68075 0.95936
 C1708 C 0.26055 0.69832 0.92498
 C1709 C 0.24991 0.67910 0.89347
 C1710 C 0.24160 0.64204 0.89663
 H1711 H 0.23504 0.59621 0.93191
 H1712 H 0.27301 0.69564 0.98221
 H1713 H 0.26888 0.72660 0.92278
 H1714 H 0.23426 0.62631 0.87265
 C1715 C 0.76167 0.18190 0.45658
 C1716 C 0.74956 0.14557 0.46063
 C1717 C 0.74135 0.12606 0.42824
 C1718 C 0.74106 0.14302 0.39408
 C1719 C 0.74958 0.18003 0.39083
 C1720 C 0.76040 0.19933 0.42220
 H1721 H 0.77283 0.19682 0.47939
 H1722 H 0.73454 0.09731 0.42942
 H1723 H 0.73360 0.12723 0.37019
 H1724 H 0.76890 0.22756 0.41989
 C1725 C 0.26446 0.31810 0.45891
 C1726 C 0.25003 0.35388 0.46319
 C1727 C 0.23989 0.37275 0.43067
 C1728 C 0.24271 0.35662 0.39619
 C1729 C 0.25668 0.32109 0.39239
 C1730 C 0.26738 0.30193 0.42420
 H1731 H 0.27615 0.30322 0.48177
 H1732 H 0.23080 0.40088 0.43140
 H1733 H 0.23444 0.37245 0.37236
 H1734 H 0.27881 0.27459 0.42230
 C1735 C 0.73908 0.87095 0.93404
 C1736 C 0.74842 0.85197 0.96668
 C1737 C 0.76237 0.81595 0.96278
 C1738 C 0.76554 0.79963 0.92823
 C1739 C 0.75559 0.81893 0.89634
 C1740 C 0.74217 0.85470 0.89977
 H1741 H 0.73050 0.89923 0.93451
 H1742 H 0.77351 0.80092 0.98581
 H1743 H 0.77654 0.77210 0.92651
 H1744 H 0.73455 0.87065 0.87580
 C1745 C 0.76138 0.87160 0.07190
 C1746 C 0.75166 0.85253 0.03970
 C1747 C 0.73668 0.81724 0.04442
 C1748 C 0.73285 0.80163 0.07933
 C1749 C 0.74312 0.82095 0.11083
 C1750 C 0.75759 0.85604 0.10661
 H1751 H 0.77085 0.89945 0.07068
 H1752 H 0.72518 0.80239 0.02173
 H1753 H 0.72107 0.77463 0.08163
 H1754 H 0.76559 0.87194 0.13023
 C1755 C 0.23933 0.31849 0.54113
 C1756 C 0.25416 0.35388 0.53644
 C1757 C 0.26412 0.37262 0.56880
 C1758 C 0.26034 0.35687 0.60354
 C1759 C 0.24564 0.32184 0.60776
 C1760 C 0.23546 0.30270 0.57607
 H1761 H 0.22790 0.30369 0.51835
 H1762 H 0.27369 0.40043 0.56776
 H1763 H 0.26840 0.37262 0.62724
 H1764 H 0.22363 0.27572 0.57823
 C1765 C 0.73523 0.18158 0.53845
 C1766 C 0.74585 0.14471 0.53426
 C1767 C 0.75377 0.12434 0.56648
 C1768 C 0.75545 0.14090 0.60061
 C1769 C 0.74879 0.17834 0.60389
 C1770 C 0.73795 0.19854 0.57278
 H1771 H 0.72440 0.19734 0.51577
 H1772 H 0.75984 0.09535 0.56502
 H1773 H 0.76268 0.12450 0.62441
 H1774 H 0.73062 0.22718 0.57526
 C1775 C 0.23628 0.67993 0.04185
 C1776 C 0.24668 0.64305 0.03726
 C1777 C 0.25463 0.62243 0.06936
 C1778 C 0.25648 0.63870 0.10370
 C1779 C 0.25005 0.67614 0.10735
 C1780 C 0.23921 0.69659 0.07635
 H1781 H 0.22541 0.69593 0.01936
 H1782 H 0.26053 0.59342 0.06767
 H1783 H 0.26372 0.62208 0.12734
 H1784 H 0.23206 0.72525 0.07905
 C1785 C 0.18549 0.54270 0.74039
 C1786 C 0.14878 0.53904 0.75193
 C1787 C 0.12935 0.57142 0.76095
 C1788 C 0.14650 0.60513 0.76209
 C1789 C 0.18367 0.60801 0.75374
 C1790 C 0.20308 0.57665 0.74251
 H1791 H 0.20054 0.52000 0.72885
 H1792 H 0.10047 0.57056 0.76764
 H1793 H 0.13064 0.62903 0.76990
 H1794 H 0.23147 0.57870 0.73415
 C1795 C 0.68456 0.04240 0.23897
 C1796 C 0.64778 0.03902 0.25030
 C1797 C 0.62827 0.07161 0.25841
 C1798 C 0.64537 0.10535 0.25887
 C1799 C 0.68262 0.10802 0.25081
 C1800 C 0.70213 0.07641 0.24045
 H1801 H 0.69971 0.01942 0.22812
 H1802 H 0.59935 0.07087 0.26496
 H1803 H 0.62947 0.12941 0.26607
 H1804 H 0.73061 0.07826 0.23238
 C1805 C 0.86947 0.06796 0.75486
 C1806 C 0.85108 0.03530 0.74616
 C1807 C 0.81541 0.03852 0.73156
 C1808 C 0.79808 0.07297 0.72858
 C1809 C 0.81640 0.10506 0.73906
 C1810 C 0.85247 0.10191 0.75179
 H1811 H 0.89762 0.06729 0.76413
 H1812 H 0.80109 0.01471 0.72184
 H1813 H 0.77043 0.07448 0.71800
 H1814 H 0.86789 0.12581 0.75957
 C1815 C 0.31568 0.53932 0.26092
 C1816 C 0.35237 0.53526 0.24935
 C1817 C 0.37159 0.56745 0.23995
 C1818 C 0.35417 0.60129 0.23816
 C1819 C 0.31692 0.60449 0.24625
 C1820 C 0.29779 0.57339 0.25814
 H1821 H 0.30083 0.51679 0.27283
 H1822 H 0.40047 0.56629 0.23325
 H1823 H 0.36985 0.62504 0.23005
 H1824 H 0.26940 0.57574 0.26650
 C1825 C 0.37422 0.42990 0.25715
 C1826 C 0.35375 0.46175 0.24813
 C1827 C 0.31711 0.45703 0.23711
 C1828 C 0.30044 0.42269 0.24020
 C1829 C 0.32073 0.39193 0.25182
 C1830 C 0.35797 0.39571 0.25919
 H1831 H 0.40313 0.43161 0.26339
 H1832 H 0.30134 0.47929 0.22545
 H1833 H 0.27201 0.41988 0.23238
 H1834 H 0.37451 0.37223 0.26706
 C1835 C 0.87109 0.93035 0.73841
 C1836 C 0.85250 0.96255 0.74944
 C1837 C 0.81853 0.95836 0.76743
 C1838 C 0.80272 0.92360 0.77147
 C1839 C 0.82103 0.89199 0.75881
 C1840 C 0.85557 0.89598 0.74259
 H1841 H 0.89831 0.93162 0.72671
 H1842 H 0.80443 0.98172 0.77903
 H1843 H 0.77626 0.92147 0.78472
 H1844 H 0.87089 0.87244 0.73292
 C1845 C 0.68234 0.95970 0.26378
 C1846 C 0.64588 0.96543 0.25243
 C1847 C 0.62507 0.93416 0.24351
 C1848 C 0.64084 0.89953 0.24195
 C1849 C 0.67793 0.89471 0.24966
 C1850 C 0.69855 0.92487 0.26116
 H1851 H 0.69827 0.98153 0.27532
 H1852 H 0.59626 0.93667 0.23694
 H1853 H 0.62408 0.87654 0.23414
 H1854 H 0.72689 0.92123 0.26920
 C1855 C 0.18365 0.45969 0.76347
 C1856 C 0.14706 0.46549 0.75254
 C1857 C 0.12638 0.43435 0.74298
 C1858 C 0.14237 0.39989 0.74037
 C1859 C 0.17956 0.39505 0.74772
 C1860 C 0.20007 0.42504 0.75986
 H1861 H 0.19953 0.48132 0.77546
 H1862 H 0.09750 0.43686 0.73670
 H1863 H 0.12566 0.37700 0.73215
 H1864 H 0.22844 0.42135 0.76772
 C1865 C 0.04370 0.75882 0.81784
 C1866 C 0.03932 0.74634 0.85427
 C1867 C 0.07148 0.73712 0.87408
 C1868 C 0.10572 0.73675 0.85747
 C1869 C 0.10933 0.74599 0.82047
 C1870 C 0.07818 0.75739 0.80075
 H1871 H 0.02116 0.77063 0.80266
 H1872 H 0.07007 0.72981 0.90288
 H1873 H 0.12943 0.72876 0.87355
 H1874 H 0.08077 0.76638 0.77250
 C1875 C 0.54393 0.25906 0.31579
 C1876 C 0.53933 0.24782 0.35277
 C1877 C 0.57171 0.23831 0.37215
 C1878 C 0.60574 0.23658 0.35502
 C1879 C 0.60918 0.24493 0.31780
 C1880 C 0.57806 0.25634 0.29825
 H1881 H 0.52221 0.27236 0.30068
 H1882 H 0.57138 0.23297 0.40123
 H1883 H 0.62955 0.22889 0.37108
 H1884 H 0.58052 0.26502 0.26989
 C1885 C 0.53653 0.76673 0.18270
 C1886 C 0.53371 0.75057 0.14772
 C1887 C 0.56664 0.74103 0.12962
 C1888 C 0.60046 0.74474 0.14645
 C1889 C 0.60318 0.75898 0.18196
 C1890 C 0.57082 0.77031 0.19987
 H1891 H 0.51250 0.77721 0.19661
 H1892 H 0.56633 0.73076 0.10180
 H1893 H 0.62461 0.73626 0.13134
 H1894 H 0.57199 0.78204 0.22707
 C1895 C 0.03879 0.24496 0.68306
 C1896 C 0.03407 0.25501 0.64579
 C1897 C 0.06643 0.26393 0.62614
 C1898 C 0.10028 0.26684 0.64323
 C1899 C 0.10373 0.26010 0.68073
 C1900 C 0.07278 0.24882 0.70057
 H1901 H 0.01750 0.23161 0.69845
 H1902 H 0.06628 0.26784 0.59686
 H1903 H 0.12401 0.27397 0.62688
 H1904 H 0.07537 0.24095 0.72915
 C1905 C 0.95403 0.25773 0.68174
 C1906 C 0.95999 0.24881 0.64447
 C1907 C 0.92834 0.24039 0.62366
 C1908 C 0.89397 0.23667 0.63971
 C1909 C 0.88935 0.24208 0.67725
 C1910 C 0.91957 0.25305 0.69816
 H1911 H 0.97473 0.27075 0.69801
 H1912 H 0.92948 0.23739 0.59433
 H1913 H 0.87082 0.22984 0.62256
 H1914 H 0.91607 0.25996 0.72684
 C1915 C 0.42870 0.75614 0.12733
 C1916 C 0.46106 0.74672 0.14650
 C1917 C 0.45722 0.73038 0.18144
 C1918 C 0.42243 0.72655 0.19757
 C1919 C 0.39061 0.73782 0.17866
 C1920 C 0.39435 0.75215 0.14314
 H1921 H 0.42993 0.76664 0.09953
 H1922 H 0.48084 0.72000 0.19612
 H1923 H 0.42048 0.71477 0.22482
 H1924 H 0.37064 0.76065 0.12737
 C1925 C 0.43346 0.26258 0.37306
 C1926 C 0.46569 0.25341 0.35324
 C1927 C 0.46085 0.24297 0.31621
 C1928 C 0.42667 0.24640 0.29900
 C1929 C 0.39574 0.25771 0.31894
 C1930 C 0.39938 0.26507 0.35624
 H1931 H 0.43393 0.26705 0.40222
 H1932 H 0.48240 0.22981 0.30080
 H1933 H 0.42398 0.23824 0.27059
 H1934 H 0.37567 0.27240 0.37263
 C1935 C 0.96035 0.73613 0.81825
 C1936 C 0.96541 0.74543 0.85537
 C1937 C 0.93376 0.75396 0.87628
 C1938 C 0.89943 0.75713 0.86018
 C1939 C 0.89524 0.75145 0.82260
 C1940 C 0.92580 0.74029 0.80176
 H1941 H 0.98246 0.72504 0.80196
 H1942 H 0.93582 0.75921 0.90543
 H1943 H 0.87615 0.76459 0.87713
 H1944 H 0.92268 0.73369 0.77300
   
