data_POSCAR
  _audit_creation_date              2014-09-24
  _audit_creation_method            'ToBaCCo'
  _symmetry_space_group_name_H-M    'P1'
  _symmetry_Int_Tables_number       1
  _symmetry_cell_setting            triclinic
  loop_
  _symmetry_equiv_pos_as_xyz
 x,y,z
_cell_length_a 40.7814
_cell_length_b 41.0208
_cell_length_c 41.9726
_cell_angle_alpha 89.526400
_cell_angle_beta 89.530800
_cell_angle_gamma 90.343500
loop_
  _atom_site_label
  _atom_site_type_symbol
  _atom_site_fract_x
  _atom_site_fract_y
  _atom_site_fract_z
C1 C 0.37225 0.35223 0.32847
 C2 C 0.35118 0.37927 0.33037
 C3 C 0.32762 0.38146 0.35499
 C4 C 0.32588 0.35666 0.37802
 C5 C 0.34636 0.32949 0.37637
 C6 C 0.36961 0.32742 0.35168
 H7 H 0.35227 0.39808 0.31217
 H8 H 0.30811 0.35801 0.39719
 H9 H 0.38515 0.30618 0.35009
 C10 C 0.37445 0.85177 -0.16900
 C11 C 0.34871 0.87313 -0.17588
 C12 C 0.31982 0.87336 -0.15748
 C13 C 0.31746 0.85260 -0.13058
 C14 C 0.34327 0.83148 -0.12266
 C15 C 0.37143 0.83101 -0.14229
 H16 H 0.35044 0.88894 -0.19652
 H17 H 0.29559 0.85247 -0.11584
 H18 H 0.39102 0.81420 -0.13707
 C19 C 0.85893 0.32791 -0.19018
 C20 C 0.83338 0.35075 -0.19272
 C21 C 0.80634 0.34985 -0.17149
 C22 C 0.80552 0.32547 -0.14757
 C23 C 0.83085 0.30254 -0.14471
 C24 C 0.85742 0.30412 -0.16601
 H25 H 0.83454 0.36930 -0.21116
 H26 H 0.78518 0.32399 -0.13096
 H27 H 0.87706 0.28666 -0.16399
 C28 C 0.85903 0.83870 0.32321
 C29 C 0.83999 0.86698 0.32120
 C30 C 0.81667 0.87448 0.34480
 C31 C 0.81255 0.85292 0.37085
 C32 C 0.83112 0.82430 0.37320
 C33 C 0.85463 0.81758 0.34939
 H34 H 0.84369 0.88361 0.30133
 H35 H 0.79443 0.85775 0.38912
 H36 H 0.86888 0.79545 0.35050
 C37 C 0.62460 0.64399 0.33635
 C38 C 0.64992 0.62233 0.32901
 C39 C 0.67828 0.62068 0.34759
 C40 C 0.68096 0.64089 0.37442
 C41 C 0.65558 0.66243 0.38250
 C42 C 0.62774 0.66435 0.36276
 H43 H 0.64765 0.60691 0.30831
 H44 H 0.70234 0.63956 0.38944
 H45 H 0.60817 0.68122 0.36800
 C46 C 0.62436 0.17630 -0.16672
 C47 C 0.63040 0.15105 -0.18845
 C48 C 0.65470 0.12742 -0.18240
 C49 C 0.67200 0.12906 -0.15364
 C50 C 0.66530 0.15340 -0.13125
 C51 C 0.64195 0.17717 -0.13812
 H52 H 0.61692 0.15083 -0.21052
 H53 H 0.69074 0.11120 -0.14848
 H54 H 0.63706 0.19581 -0.12065
 C55 C 0.13520 0.67295 -0.15352
 C56 C 0.14120 0.64924 -0.17660
 C57 C 0.16934 0.62947 -0.17565
 C58 C 0.19178 0.63420 -0.15065
 C59 C 0.18588 0.65774 -0.12688
 C60 C 0.15765 0.67705 -0.12875
 H61 H 0.12374 0.64685 -0.19564
 H62 H 0.21368 0.61946 -0.14965
 H63 H 0.15329 0.69536 -0.11083
 C64 C 0.13304 0.17620 0.32751
 C65 C 0.14304 0.15531 0.30295
 C66 C 0.17139 0.13601 0.30631
 C67 C 0.18963 0.13804 0.33444
 C68 C 0.18032 0.15910 0.35894
 C69 C 0.15230 0.17828 0.35517
 H70 H 0.12837 0.15388 0.28167
 H71 H 0.21155 0.12354 0.33701
 H72 H 0.14565 0.19487 0.37401
 C73 C 0.63412 0.31382 0.64616
 C74 C 0.65837 0.30944 0.62242
 C75 C 0.68248 0.33359 0.61650
 C76 C 0.68246 0.36196 0.63502
 C77 C 0.65815 0.36693 0.65803
 C78 C 0.63408 0.34293 0.66344
 H79 H 0.65861 0.28744 0.60842
 H80 H 0.70100 0.38062 0.63149
 H81 H 0.61571 0.34661 0.68182
 C82 C 0.64815 0.80497 1.16760
 C83 C 0.64716 0.83217 1.18797
 C84 C 0.66960 0.85839 1.18397
 C85 C 0.69231 0.85730 1.15847
 C86 C 0.69265 0.83105 1.13719
 C87 C 0.67093 0.80511 1.14223
 H88 H 0.62965 0.83219 1.20746
 H89 H 0.70962 0.87712 1.15507
 H90 H 0.67153 0.78541 1.12539
 C91 C 0.14445 0.33497 1.16251
 C92 C 0.15951 0.35293 1.18709
 C93 C 0.19154 0.36528 1.18285
 C94 C 0.20835 0.35997 1.15426
 C95 C 0.19397 0.34231 1.12978
 C96 C 0.16221 0.33007 1.13390
 H97 H 0.14682 0.35684 1.20951
 H98 H 0.23321 0.36907 1.15157
 H99 H 0.15215 0.31595 1.11470
 C100 C 0.11535 0.84365 0.67997
 C101 C 0.13471 0.87224 0.68100
 C102 C 0.15683 0.88012 0.65628
 C103 C 0.15950 0.85891 0.63023
 C104 C 0.14185 0.82959 0.62931
 C105 C 0.11956 0.82225 0.65413
 H106 H 0.13290 0.88851 0.70105
 H107 H 0.17694 0.86393 0.61128
 H108 H 0.10560 0.79978 0.65354
 C109 C 0.36099 0.68742 0.68144
 C110 C 0.35685 0.71105 0.65741
 C111 C 0.33505 0.70544 0.63203
 C112 C 0.31820 0.67548 0.63066
 C113 C 0.32248 0.65157 0.65431
 C114 C 0.34395 0.65778 0.67945
 H115 H 0.36990 0.73398 0.65918
 H116 H 0.30120 0.67117 0.61148
 H117 H 0.34753 0.63925 0.69757
 C118 C 0.38029 0.18166 1.13426
 C119 C 0.37932 0.15379 1.15378
 C120 C 0.35570 0.12906 1.14946
 C121 C 0.33306 0.13266 1.12469
 C122 C 0.33479 0.15971 1.10370
 C123 C 0.35824 0.18426 1.10891
 H124 H 0.39628 0.15241 1.17339
 H125 H 0.31440 0.11412 1.12164
 H126 H 0.35886 0.20556 1.09352
 C127 C 0.87697 0.64882 1.18861
 C128 C 0.85431 0.62294 1.19020
 C129 C 0.83134 0.61838 1.16580
 C130 C 0.83153 0.64024 1.13952
 C131 C 0.85431 0.66606 1.13752
 C132 C 0.87693 0.66985 1.16210
 H133 H 0.85412 0.60664 1.21059
 H134 H 0.81390 0.63760 1.12063
 H135 H 0.89391 0.69018 1.16130
 C136 C 0.88295 0.15371 0.68211
 C137 C 0.85997 0.12800 0.68501
 C138 C 0.83717 0.12166 0.66070
 C139 C 0.83758 0.14168 0.63331
 C140 C 0.86015 0.16739 0.63008
 C141 C 0.88287 0.17299 0.65429
 H142 H 0.85964 0.11282 0.70618
 H143 H 0.82009 0.13791 0.61447
 H144 H 0.89982 0.19329 0.65193
 C145 C 0.34622 0.37735 0.65695
 C146 C 0.32231 0.37266 0.63350
 C147 C 0.32237 0.34448 0.61462
 C148 C 0.34642 0.32077 0.61980
 C149 C 0.37024 0.32469 0.64344
 C150 C 0.37012 0.35324 0.66171
 H151 H 0.30377 0.39107 0.63014
 H152 H 0.34622 0.29907 0.60539
 H153 H 0.38817 0.35623 0.68024
 C154 C 0.35518 0.86661 0.17870
 C155 C 0.38232 0.84555 0.17836
 C156 C 0.38561 0.82177 0.15475
 C157 C 0.36103 0.81859 0.13165
 C158 C 0.33369 0.83917 0.13149
 C159 C 0.33106 0.86325 0.15506
 H160 H 0.40128 0.84779 0.19608
 H161 H 0.36293 0.79979 0.11381
 H162 H 0.30998 0.87911 0.15543
 C163 C 0.81091 0.36372 0.15376
 C164 C 0.83923 0.36284 0.17255
 C165 C 0.86607 0.34333 0.16417
 C166 C 0.86448 0.32451 0.13660
 C167 C 0.83670 0.32571 0.11688
 C168 C 0.80988 0.34503 0.12586
 H169 H 0.84025 0.37715 0.19409
 H170 H 0.88516 0.30934 0.13049
 H171 H 0.78856 0.34581 0.11072
 C172 C 0.84390 0.86439 0.68362
 C173 C 0.86787 0.84034 0.68798
 C174 C 0.87100 0.81440 0.66648
 C175 C 0.84965 0.81255 0.64039
 C176 C 0.82580 0.83647 0.63545
 C177 C 0.82285 0.86206 0.65745
 H178 H 0.88414 0.84166 0.70817
 H179 H 0.85163 0.79275 0.62364
 H180 H 0.80415 0.88037 0.65428
 C181 C 0.67204 0.63211 0.67051
 C182 C 0.64502 0.63433 0.69117
 C183 C 0.62168 0.65885 0.68733
 C184 C 0.62518 0.68113 0.66200
 C185 C 0.65192 0.67959 0.64073
 C186 C 0.67536 0.65486 0.64517
 H187 H 0.64271 0.61725 0.71080
 H188 H 0.60711 0.70008 0.65945
 H189 H 0.69613 0.65361 0.62906
 C190 C 0.66745 0.12527 0.15631
 C191 C 0.64157 0.13151 0.17767
 C192 C 0.62250 0.15990 0.17450
 C193 C 0.63023 0.18230 0.15008
 C194 C 0.65624 0.17647 0.12872
 C195 C 0.67454 0.14789 0.13200
 H196 H 0.63647 0.11414 0.19662
 H197 H 0.61582 0.20421 0.14783
 H198 H 0.69486 0.14362 0.11586
 C199 C 0.17735 0.62793 0.16669
 C200 C 0.15361 0.63553 0.18971
 C201 C 0.13332 0.66278 0.18619
 C202 C 0.13603 0.68185 0.15833
 C203 C 0.15955 0.67448 0.13470
 C204 C 0.18025 0.64762 0.13921
 H205 H 0.15131 0.62025 0.21072
 H206 H 0.12064 0.70309 0.15569
 H207 H 0.19847 0.64220 0.12119
 C208 C 0.18615 0.13328 0.65712
 C209 C 0.18425 0.15165 0.62890
 C210 C 0.16031 0.17575 0.62513
 C211 C 0.13790 0.18145 0.64996
 C212 C 0.13943 0.16354 0.67857
 C213 C 0.16350 0.13926 0.68181
 H214 H 0.20135 0.14724 0.60962
 H215 H 0.11989 0.20054 0.64746
 H216 H 0.16504 0.12517 0.70361
 C217 C 0.30966 0.65139 0.34534
 C218 C 0.30862 0.67523 0.36904
 C219 C 0.33125 0.70134 0.36890
 C220 C 0.35520 0.70334 0.34442
 C221 C 0.35616 0.67963 0.32045
 C222 C 0.33394 0.65346 0.32181
 H223 H 0.28991 0.67376 0.38742
 H224 H 0.37244 0.72347 0.34342
 H225 H 0.33513 0.63464 0.30394
 C226 C 0.33266 0.13174 0.81771
 C227 C 0.35704 0.15549 0.81224
 C228 C 0.35531 0.18606 0.82694
 C229 C 0.32873 0.19231 0.84778
 C230 C 0.30401 0.16867 0.85316
 C231 C 0.30618 0.13864 0.83777
 H232 H 0.37712 0.15040 0.79604
 H233 H 0.32691 0.21551 0.85967
 H234 H 0.28781 0.11996 0.84216
 C235 C 0.82916 0.60301 0.85158
 C236 C 0.85431 0.60856 0.82910
 C237 C 0.87741 0.63359 0.83354
 C238 C 0.87522 0.65295 0.86082
 C239 C 0.85035 0.64767 0.88366
 C240 C 0.82716 0.62301 0.87869
 H241 H 0.85550 0.59365 0.80797
 H242 H 0.89286 0.67244 0.86410
 H243 H 0.80774 0.61962 0.89611
 C244 C 0.84532 0.13202 0.31511
 C245 C 0.83029 0.12956 0.34526
 C246 C 0.83713 0.15245 0.36892
 C247 C 0.85898 0.17802 0.36222
 C248 C 0.87369 0.18169 0.33215
 C249 C 0.86724 0.15819 0.30868
 H250 H 0.81306 0.10995 0.35012
 H251 H 0.86449 0.19525 0.38081
 H252 H 0.87849 0.16087 0.28536
 C253 C 0.66550 0.35639 0.34197
 C254 C 0.63379 0.34529 0.33413
 C255 C 0.62313 0.31422 0.34360
 C256 C 0.64446 0.29385 0.36002
 C257 C 0.67635 0.30389 0.36740
 C258 C 0.68691 0.33549 0.35857
 H259 H 0.61710 0.36120 0.32151
 H260 H 0.63585 0.26990 0.36745
 H261 H 0.71119 0.34390 0.36498
 C262 C 0.68876 0.86987 0.85161
 C263 C 0.66443 0.86299 0.82933
 C264 C 0.64628 0.83391 0.83089
 C265 C 0.65215 0.81177 0.85583
 C266 C 0.67670 0.81821 0.87853
 C267 C 0.69486 0.84735 0.87616
 H268 H 0.65954 0.88062 0.81066
 H269 H 0.63842 0.78914 0.85668
 H270 H 0.71406 0.85215 0.89317
 C271 C 0.18483 0.38426 0.83201
 C272 C 0.18376 0.36668 0.86081
 C273 C 0.15832 0.34459 0.86722
 C274 C 0.13397 0.33941 0.84435
 C275 C 0.13496 0.35604 0.81501
 C276 C 0.16039 0.37871 0.80917
 H277 H 0.20240 0.37023 0.87863
 H278 H 0.11472 0.32166 0.84902
 H279 H 0.16156 0.39188 0.78678
 C280 C 0.17580 0.88381 0.33241
 C281 C 0.17919 0.86179 0.35813
 C282 C 0.15783 0.83507 0.36190
 C283 C 0.13247 0.83098 0.33986
 C284 C 0.12890 0.85244 0.31388
 C285 C 0.15088 0.87873 0.31017
 H286 H 0.19897 0.86497 0.37489
 H287 H 0.11545 0.81085 0.34263
 H288 H 0.14837 0.89570 0.29049
 O289 O 0.31558 0.97845 0.25850
 O290 O 0.25808 1.04703 0.27239
 O291 O 0.26715 0.98840 0.29660
 O292 O 0.31710 1.03955 0.24558
 O293 O 0.28777 1.02776 0.20318
 O294 O 0.23708 0.97240 0.25605
 O295 O 0.22953 1.03125 0.23078
 O296 O 0.28649 0.96500 0.21639
 Cu297 Cu 0.29170 1.01535 0.27206
 Cu298 Cu 0.25735 0.99782 0.22266
 C299 C 0.31050 0.96007 0.23462
 C300 C 0.23372 1.05043 0.25380
 C301 C 0.24412 0.97121 0.28570
 C302 C 0.31191 1.04249 0.21608
 O303 O 0.25439 0.52975 0.68924
 O304 O 0.23226 0.46924 0.75092
 O305 O 0.21448 0.52827 0.73777
 O306 O 0.27398 0.47091 0.70384
 O307 O 0.31218 0.49139 0.73501
 O308 O 0.25183 0.54773 0.77049
 O309 O 0.27077 0.48867 0.78243
 O310 O 0.29150 0.55026 0.72163
 Cu311 Cu 0.24001 0.49753 0.71719
 Cu312 Cu 0.28559 0.52151 0.75543
 C313 C 0.27639 0.55072 0.69531
 C314 C 0.24761 0.46871 0.77708
 C315 C 0.22275 0.54751 0.75994
 C316 C 0.30325 0.47127 0.71386
 O317 O 0.74332 -0.01414 0.29935
 O318 O 0.71254 0.03738 0.23481
 O319 O 0.70099 -0.02280 0.25444
 O320 O 0.76098 0.04228 0.27518
 O321 O 0.79633 0.02087 0.24129
 O322 O 0.73736 -0.04333 0.22099
 O323 O 0.74818 0.01598 0.20115
 O324 O 0.77940 -0.03587 0.26634
 Cu325 Cu 0.72588 0.01291 0.26911
 Cu326 Cu 0.76899 -0.01256 0.22922
 C327 C 0.76609 -0.03420 0.29382
 C328 C 0.72493 0.03560 0.20713
 C329 C 0.70939 -0.04439 0.23431
 C330 C 0.78893 0.04257 0.26139
 O331 O 0.72645 0.45995 0.71825
 O332 O 0.77418 0.51281 0.77362
 O333 O 0.76577 0.45006 0.76632
 O334 O 0.74931 0.52053 0.71589
 O335 O 0.70447 0.53171 0.74338
 O336 O 0.71997 0.45811 0.79351
 O337 O 0.72819 0.52049 0.80060
 O338 O 0.68180 0.47258 0.74544
 Cu339 Cu 0.75813 0.48516 0.74077
 Cu340 Cu 0.70453 0.49664 0.77328
 C341 C 0.69551 0.45754 0.72296
 C342 C 0.75869 0.52472 0.79738
 C343 C 0.74607 0.44178 0.78835
 C344 C 0.72447 0.53818 0.72058
 O345 O 0.23554 0.47993 0.31284
 O346 O 0.21005 0.53332 0.24605
 O347 O 0.20949 0.46998 0.25748
 O348 O 0.22593 0.54238 0.30579
 O349 O 0.27663 0.54476 0.28691
 O350 O 0.26173 0.46895 0.24310
 O351 O 0.26076 0.53177 0.22731
 O352 O 0.28686 0.48371 0.29553
 Cu353 Cu 0.21508 0.50650 0.28220
 Cu354 Cu 0.27629 0.50795 0.26082
 C355 C 0.26574 0.47238 0.31492
 C356 C 0.23144 0.54129 0.22508
 C357 C 0.23334 0.45593 0.24397
 C358 C 0.25402 0.55569 0.30491
 O359 O 0.75339 1.01518 0.70627
 O360 O 0.72560 0.96109 0.77197
 O361 O 0.70567 1.01668 0.74756
 O362 O 0.76779 0.95653 0.72561
 O363 O 0.80313 0.97931 0.75839
 O364 O 0.74011 1.04024 0.78070
 O365 O 0.76055 0.98491 0.80446
 O366 O 0.78833 1.03820 0.73932
 Cu367 Cu 0.73453 0.98508 0.73472
 Cu368 Cu 0.77648 1.01304 0.77390
 C369 C 0.77580 1.03600 0.71191
 C370 C 0.73875 0.96358 0.79926
 C371 C 0.71217 1.03886 0.76741
 C372 C 0.79591 0.95745 0.73816
 O373 O 0.73411 0.52340 0.21075
 O374 O 0.69566 0.46751 0.26819
 O375 O 0.71143 0.52851 0.26881
 O376 O 0.72345 0.46106 0.21210
 O377 O 0.77253 0.45281 0.23241
 O378 O 0.75893 0.51717 0.29116
 O379 O 0.74378 0.45514 0.28870
 O380 O 0.78238 0.51621 0.23311
 Cu381 Cu 0.71141 0.49602 0.23784
 Cu382 Cu 0.76926 0.48419 0.26335
 C383 C 0.76447 0.52989 0.21221
 C384 C 0.71268 0.45195 0.28826
 C385 C 0.73298 0.53397 0.28989
 C386 C 0.75054 0.44586 0.21239
 O387 O 0.23861 -0.02814 0.78372
 O388 O 0.22488 0.03697 0.72646
 O389 O 0.21209 -0.02413 0.72658
 O390 O 0.26562 0.03111 0.77364
 O391 O 0.30839 0.01430 0.74583
 O392 O 0.25629 -0.03694 0.69875
 O393 O 0.26945 0.02374 0.69916
 O394 O 0.28261 -0.04363 0.75698
 Cu395 Cu 0.23176 0.00512 0.75575
 Cu396 Cu 0.28341 -0.01304 0.72302
 C397 C 0.26291 -0.04681 0.78061
 C398 C 0.24434 0.04176 0.70327
 C399 C 0.22568 -0.03856 0.70318
 C400 C 0.29619 0.03250 0.76679
 O401 O 0.22037 0.20993 0.96091
 O402 O 0.21077 0.26425 1.03081
 O403 O 0.18369 0.25978 0.97537
 O404 O 0.23371 0.20507 1.02149
 O405 O 0.27884 0.23254 1.00908
 O406 O 0.22763 0.28604 0.95744
 O407 O 0.25449 0.29151 1.01392
 O408 O 0.26606 0.23652 0.94849
 Cu409 Cu 0.20806 0.23210 0.99866
 Cu410 Cu 0.26086 0.26438 0.98102
 C411 C 0.24545 0.21432 0.94290
 C412 C 0.23118 0.28776 1.03355
 C413 C 0.19659 0.28151 0.95782
 C414 C 0.26437 0.20880 1.02331
 O415 O 0.26684 0.73545 0.46968
 O416 O 0.20279 0.75105 0.52926
 O417 O 0.20644 0.75388 0.46743
 O418 O 0.26502 0.73726 0.53210
 O419 O 0.27967 0.78918 0.53173
 O420 O 0.22111 0.80581 0.46742
 O421 O 0.21721 0.80302 0.53016
 O422 O 0.28175 0.78733 0.46948
 Cu423 Cu 0.23393 0.73923 0.49968
 Cu424 Cu 0.25130 0.80156 0.49986
 C425 C 0.28467 0.75850 0.45891
 C426 C 0.19908 0.77957 0.54000
 C427 C 0.20425 0.78262 0.45610
 C428 C 0.28229 0.76052 0.54293
 O429 O 0.30193 0.74888 -0.01329
 O430 O 0.23910 0.71698 0.04318
 O431 O 0.25983 0.70101 -0.01425
 O432 O 0.28475 0.76174 0.04511
 O433 O 0.24879 0.79652 0.02566
 O434 O 0.22393 0.73543 -0.03436
 O435 O 0.20339 0.75151 0.02293
 O436 O 0.26584 0.78337 -0.03303
 Cu437 Cu 0.27487 0.72861 0.01714
 Cu438 Cu 0.23182 0.77007 -0.00657
 C439 C 0.29446 0.77149 -0.03281
 C440 C 0.21054 0.72925 0.04281
 C441 C 0.23820 0.70794 -0.03475
 C442 C 0.27115 0.78945 0.04552
 O443 O 0.29760 0.24142 0.47691
 O444 O 0.23222 0.21560 0.53186
 O445 O 0.25079 0.19864 0.47461
 O446 O 0.27590 0.26203 0.53155
 O447 O 0.24071 0.29624 0.50982
 O448 O 0.21659 0.23358 0.45252
 O449 O 0.19732 0.24993 0.50986
 O450 O 0.26350 0.27679 0.45527
 Cu451 Cu 0.26741 0.22585 0.50606
 Cu452 Cu 0.22605 0.26752 0.47951
 C453 C 0.29164 0.26367 0.45674
 C454 C 0.20403 0.22835 0.53064
 C455 C 0.22970 0.20566 0.45353
 C456 C 0.26242 0.28991 0.53038
 O457 O 0.76039 0.77992 0.96837
 O458 O 0.81930 0.75518 1.03140
 O459 O 0.81665 0.74688 0.97152
 O460 O 0.77558 0.80027 1.02669
 O461 O 0.74248 0.76048 1.04242
 O462 O 0.78378 0.70561 0.98380
 O463 O 0.78626 0.71411 1.04435
 O464 O 0.72860 0.73891 0.98372
 Cu465 Cu 0.79550 0.77475 0.99753
 Cu466 Cu 0.75673 0.72661 1.01472
 C467 C 0.73413 0.76310 0.96560
 C468 C 0.81259 0.72988 1.04832
 C469 C 0.80867 0.71726 0.96883
 C470 C 0.75301 0.78976 1.04483
 O471 O 0.76771 0.27211 0.45623
 O472 O 0.82408 0.24654 0.51870
 O473 O 0.80479 0.22289 0.46498
 O474 O 0.77378 0.28766 0.51710
 O475 O 0.73539 0.25360 0.53452
 O476 O 0.76824 0.18832 0.48541
 O477 O 0.78664 0.21324 0.53928
 O478 O 0.73145 0.23590 0.47408
 Cu479 Cu 0.79600 0.26106 0.48811
 Cu480 Cu 0.75203 0.22015 0.51098
 C481 C 0.74089 0.25686 0.45330
 C482 C 0.81543 0.22537 0.53924
 C483 C 0.79131 0.19473 0.46597
 C484 C 0.74885 0.28146 0.53461
 O485 O 0.73874 0.20638 0.03520
 O486 O 0.79562 0.21980 -0.03336
 O487 O 0.79860 0.23196 0.02645
 O488 O 0.74670 0.18122 -0.02188
 O489 O 0.71825 0.22386 -0.03794
 O490 O 0.76895 0.27548 0.01562
 O491 O 0.76687 0.26355 -0.04592
 O492 O 0.70973 0.24852 0.01881
 Cu493 Cu 0.77222 0.20571 0.00356
 Cu494 Cu 0.73848 0.25692 -0.01320
 C495 C 0.71414 0.22527 0.03816
 C496 C 0.79052 0.24456 -0.05127
 C497 C 0.79327 0.26206 0.02934
 C498 C 0.72444 0.19339 -0.03891
 O499 O 0.78197 0.74613 0.48195
 O500 O 0.72393 0.72296 0.54491
 O501 O 0.72490 0.71466 0.48315
 O502 O 0.77159 0.76563 0.54139
 O503 O 0.74065 0.80728 0.52746
 O504 O 0.69370 0.75746 0.47372
 O505 O 0.69360 0.76590 0.53358
 O506 O 0.75152 0.78807 0.46803
 Cu507 Cu 0.75381 0.73339 0.51373
 Cu508 Cu 0.71771 0.78379 0.49890
 C509 C 0.77697 0.77061 0.46417
 C510 C 0.69899 0.74031 0.55022
 C511 C 0.70027 0.72775 0.46952
 C512 C 0.76324 0.79546 0.54435
 O513 O 1.04218 0.30643 0.23861
 O514 O 0.97401 0.27830 0.29129
 O515 O 1.03704 0.27083 0.29080
 O516 O 0.98023 0.31993 0.24488
 O517 O 0.96714 0.27773 0.21516
 O518 O 1.03009 0.22885 0.25891
 O519 O 0.96660 0.23497 0.26119
 O520 O 1.02974 0.26572 0.20674
 Cu521 Cu 1.00948 0.29792 0.26948
 Cu522 Cu 0.99784 0.24777 0.23215
 C523 C 1.04658 0.29090 0.21285
 C524 C 0.95894 0.25176 0.28521
 C525 C 1.04309 0.24164 0.28341
 C526 C 0.96312 0.30742 0.22308
 O527 O 0.46359 0.26710 0.77429
 O528 O 0.53144 0.28236 0.71696
 O529 O 0.46742 0.28611 0.71527
 O530 O 0.52753 0.26430 0.77648
 O531 O 0.52580 0.21291 0.76120
 O532 O 0.46549 0.23474 0.69991
 O533 O 0.52900 0.23098 0.70179
 O534 O 0.46120 0.21571 0.75919
 Cu535 Cu 0.49777 0.28009 0.74729
 Cu536 Cu 0.49511 0.21838 0.72915
 C537 C 0.45055 0.23892 0.77619
 C538 C 0.54180 0.25924 0.69966
 C539 C 0.45613 0.26411 0.69727
 C540 C 0.53721 0.23505 0.77900
 O541 O -0.02759 0.29142 0.73172
 O542 O 0.04023 0.23499 0.71489
 O543 O -0.02363 0.23067 0.71575
 O544 O 0.03626 0.29560 0.73266
 O545 O 0.03678 0.28010 0.78318
 O546 O -0.02266 0.21464 0.76614
 O547 O 0.04066 0.21944 0.76541
 O548 O -0.02784 0.27521 0.78205
 Cu549 Cu 0.00637 0.26475 0.71871
 Cu550 Cu 0.00689 0.24606 0.77937
 C551 C -0.03976 0.29231 0.75962
 C552 C 0.05188 0.21756 0.73717
 C553 C -0.03340 0.21172 0.73801
 C554 C 0.04692 0.29870 0.76081
 O555 O 0.47543 0.30922 0.23897
 O556 O 0.53437 0.24539 0.21405
 O557 O 0.47906 0.26804 0.19127
 O558 O 0.53276 0.29004 0.25793
 O559 O 0.50621 0.25486 0.28902
 O560 O 0.45397 0.23152 0.22196
 O561 O 0.50861 0.21019 0.24567
 O562 O 0.44961 0.27271 0.26913
 Cu563 Cu 0.50785 0.28173 0.22228
 Cu564 Cu 0.47694 0.23871 0.25937
 C565 C 0.45288 0.30170 0.25893
 C566 C 0.53161 0.21694 0.22617
 C567 C 0.45765 0.24578 0.19517
 C568 C 0.52838 0.27642 0.28487
 O569 O 0.98059 0.73362 0.71107
 O570 O 1.04089 0.71077 0.77202
 O571 O 0.98426 0.68762 0.75369
 O572 O 1.03781 0.75539 0.72766
 O573 O 1.01431 0.78766 0.76291
 O574 O 0.95994 0.72014 0.78818
 O575 O 1.01645 0.74292 0.80675
 O576 O 0.95692 0.76664 0.74553
 Cu577 Cu 1.01335 0.71852 0.73770
 Cu578 Cu 0.98438 0.75755 0.77933
 C579 C 0.95859 0.75425 0.71797
 C580 C 1.03906 0.72310 0.79964
 C581 C 0.96280 0.69244 0.77517
 C582 C 1.03528 0.78295 0.74090
 O583 O 0.54498 0.75494 0.22804
 O584 O 0.46892 0.72395 0.26731
 O585 O 0.53246 0.71262 0.27417
 O586 O 0.48154 0.76348 0.22010
 O587 O 0.48321 0.72410 0.18451
 O588 O 0.52663 0.67175 0.24074
 O589 O 0.46576 0.68623 0.23017
 O590 O 0.54384 0.71249 0.19604
 Cu591 Cu 0.50740 0.74282 0.25105
 Cu592 Cu 0.50485 0.69449 0.20964
 C593 C 0.55737 0.73856 0.20543
 C594 C 0.45369 0.70063 0.25413
 C595 C 0.53769 0.68314 0.26653
 C596 C 0.47388 0.75218 0.19297
 O597 O 0.02840 0.77936 0.28750
 O598 O -0.02965 0.71177 0.27435
 O599 O 0.03350 0.71871 0.27166
 O600 O -0.03580 0.77272 0.28979
 O601 O -0.03773 0.78710 0.23900
 O602 O 0.03169 0.73328 0.22089
 O603 O -0.03165 0.72637 0.22359
 O604 O 0.02574 0.79391 0.23678
 Cu605 Cu -0.00062 0.74440 0.28604
 Cu606 Cu -0.00333 0.76162 0.22496
 C607 C 0.03731 0.79770 0.26445
 C608 C -0.04047 0.70771 0.24640
 C609 C 0.04439 0.71682 0.24329
 C610 C -0.04877 0.78886 0.26731
 O611 O 0.53726 0.77176 0.79575
 O612 O 0.46252 0.72610 0.77334
 O613 O 0.52489 0.71369 0.77393
 O614 O 0.47378 0.78217 0.79882
 O615 O 0.47682 0.80323 0.75022
 O616 O 0.52816 0.73477 0.72535
 O617 O 0.46556 0.74706 0.72471
 O618 O 0.53937 0.79235 0.74697
 Cu619 Cu 0.49935 0.74639 0.79044
 Cu620 Cu 0.50281 0.77147 0.73194
 C621 C 0.55113 0.78971 0.77473
 C622 C 0.45133 0.72900 0.74525
 C623 C 0.53538 0.71272 0.74546
 C624 C 0.46608 0.80393 0.77869
 C625 C 0.39620 0.34859 0.30189
 C626 C 0.40663 0.37294 0.28110
 C627 C 0.42922 0.35863 0.26151
 C628 C 0.43072 0.32664 0.27164
 O629 O 0.41087 0.32057 0.29605
 H630 H 0.39936 0.39825 0.28060
 H631 H 0.44321 0.37019 0.24249
 C632 C 0.40189 0.84947 0.81058
 C633 C 0.40867 0.86931 0.78432
 C634 C 0.43510 0.85576 0.76966
 C635 C 0.44273 0.82899 0.78800
 O636 O 0.42302 0.82527 0.81287
 H637 H 0.39578 0.89060 0.77592
 H638 H 0.44658 0.86366 0.74755
 C639 C -0.11279 0.32761 0.78729
 C640 C -0.11019 0.34510 0.75905
 C641 C -0.08169 0.33494 0.74509
 C642 C -0.06890 0.31225 0.76588
 O643 O -0.08762 0.30779 0.79136
 H644 H -0.12739 0.36226 0.74908
 H645 H -0.07189 0.34248 0.72213
 C646 C -0.11686 0.83091 0.29778
 C647 C -0.11718 0.84373 0.26718
 C648 C -0.09142 0.82981 0.25177
 C649 C -0.07720 0.80956 0.27396
 O650 O -0.09257 0.81002 0.30184
 H651 H -0.13444 0.86066 0.25691
 H652 H -0.08405 0.83370 0.22719
 C653 C 0.59489 0.64460 0.31637
 C654 C 0.58158 0.61711 0.30269
 C655 C 0.55733 0.62808 0.28350
 C656 C 0.55740 0.66149 0.28683
 O657 O 0.58007 0.67172 0.30697
 H658 H 0.58933 0.59209 0.30567
 H659 H 0.54213 0.61357 0.26797
 C660 C 0.60004 0.20190 0.82569
 C661 C 0.59806 0.23189 0.84044
 C662 C 0.57372 0.24816 0.82517
 C663 C 0.56251 0.22697 0.80236
 O664 O 0.57841 0.19897 0.80250
 H665 H 0.61311 0.24140 0.85939
 H666 H 0.56552 0.27275 0.82971
 C667 C 1.10549 0.69339 0.84362
 C668 C 1.09258 0.71329 0.86696
 C669 C 1.06543 0.72704 0.85373
 C670 C 1.06383 0.71454 0.82340
 O671 O 1.08794 0.69419 0.81726
 H672 H 1.10152 0.71725 0.89081
 H673 H 1.04890 0.74421 0.86478
 C674 C 1.10255 0.19574 0.32462
 C675 C 1.08618 0.20897 0.35038
 C676 C 1.06145 0.22673 0.33786
 C677 C 1.06387 0.22287 0.30538
 O678 O 1.08873 0.20392 0.29705
 H679 H 1.09165 0.20642 0.37544
 H680 H 1.04391 0.24135 0.35083
 C681 C 0.60893 0.28849 0.65395
 C682 C 0.60688 0.25779 0.64072
 C683 C 0.58112 0.24271 0.65587
 C684 C 0.56922 0.26521 0.67719
 O685 O 0.58598 0.29291 0.67607
 H686 H 0.62241 0.24723 0.62259
 H687 H 0.57226 0.21814 0.65206
 C688 C 0.62668 0.77819 0.17224
 C689 C 0.62830 0.74910 0.15560
 C690 C 0.60298 0.73065 0.16657
 C691 C 0.58756 0.74931 0.18916
 O692 O 0.60186 0.77810 0.19297
 H693 H 0.64570 0.74145 0.13767
 H694 H 0.59632 0.70642 0.15877
 C695 C 1.11306 0.32082 0.16676
 C696 C 1.09564 0.30505 0.14306
 C697 C 1.06850 0.29267 0.15750
 C698 C 1.07068 0.30180 0.18884
 O699 O 1.09744 0.31921 0.19469
 H700 H 1.10147 0.30234 0.11809
 H701 H 1.04938 0.27832 0.14651
 C702 C 1.09243 0.83593 0.70425
 C703 C 1.08352 0.85587 0.72940
 C704 C 1.06049 0.83874 0.74638
 C705 C 1.05713 0.80962 0.73068
 O706 O 1.07627 0.80782 0.70522
 H707 H 1.09208 0.88016 0.73485
 H708 H 1.04782 0.84647 0.76775
 C709 C 0.38269 0.69357 0.70893
 C710 C 0.37908 0.67898 0.73861
 C711 C 0.40434 0.69053 0.75633
 C712 C 0.42150 0.71128 0.73627
 O713 O 0.40839 0.71338 0.70757
 H714 H 0.36018 0.66211 0.74657
 H715 H 0.40968 0.68449 0.78089
 C716 C 0.40371 0.20810 0.14199
 C717 C 0.41387 0.23308 0.12185
 C718 C 0.43572 0.25099 0.13911
 C719 C 0.43701 0.23573 0.16846
 O720 O 0.41776 0.20982 0.17021
 H721 H 0.40677 0.23750 0.09744
 H722 H 0.44914 0.27247 0.13125
 C723 C -0.09996 0.65606 0.21467
 C724 C -0.09920 0.64165 0.24458
 C725 C -0.07587 0.65863 0.26099
 C726 C -0.06427 0.68189 0.23978
 O727 O -0.07868 0.68027 0.21195
 H728 H -0.11438 0.62197 0.25380
 H729 H -0.06877 0.65503 0.28555
 C730 C -0.09476 0.16133 0.70647
 C731 C -0.09246 0.14606 0.73598
 C732 C -0.06865 0.16270 0.75188
 C733 C -0.05803 0.18665 0.73099
 O734 O -0.07365 0.18585 0.70363
 H735 H -0.10657 0.12572 0.74539
 H736 H -0.06031 0.15818 0.77591
 C737 C 0.30344 0.40834 0.35505
 C738 C 0.27627 0.41083 0.37500
 C739 C 0.25875 0.43658 0.36358
 C740 C 0.27664 0.44802 0.33790
 O741 O 0.30357 0.43112 0.33273
 H742 H 0.26889 0.39506 0.39455
 H743 H 0.23522 0.44509 0.37209
 C744 C 0.29420 -0.10605 0.83283
 C745 C 0.26435 -0.10176 0.84817
 C746 C 0.24809 -0.07922 0.83020
 C747 C 0.26899 -0.07165 0.80519
 O748 O 0.29674 -0.08775 0.80675
 H749 H 0.25540 -0.11304 0.86995
 H750 H 0.22409 -0.06918 0.83498
 C751 C 0.78094 0.37305 0.82548
 C752 C 0.75291 0.37503 0.84440
 C753 C 0.73574 0.40104 0.83293
 C754 C 0.75427 0.41310 0.80794
 O755 O 0.78152 0.39631 0.80337
 H756 H 0.74544 0.35973 0.86427
 H757 H 0.71261 0.41020 0.84181
 C758 C 0.79750 -0.09736 0.34118
 C759 C 0.77541 -0.08514 0.36326
 C760 C 0.76160 -0.05874 0.34884
 C761 C 0.77610 -0.05678 0.31912
 O762 O 0.79789 -0.07990 0.31448
 H763 H 0.76957 -0.09417 0.38691
 H764 H 0.74253 -0.04336 0.35847
 C765 C 0.30382 0.62051 0.65457
 C766 C 0.28325 0.60919 0.63100
 C767 C 0.27040 0.58060 0.64269
 C768 C 0.28416 0.57672 0.67235
 O769 O 0.30431 0.60070 0.67950
 H770 H 0.27781 0.62037 0.60825
 H771 H 0.25275 0.56485 0.63126
 C772 C 0.35412 1.10189 0.17026
 C773 C 0.37916 1.09270 0.19047
 C774 C 0.36685 1.06777 0.20825
 C775 C 0.33521 1.06312 0.19791
 O776 O 0.32738 1.08347 0.17448
 H777 H 0.40356 1.10288 0.19252
 H778 H 0.37905 1.05526 0.22758
 C779 C 0.80650 0.59172 0.16896
 C780 C 0.78167 0.58570 0.14750
 C781 C 0.76335 0.56123 0.16071
 C782 C 0.77827 0.55366 0.18913
 O783 O 0.80449 0.57202 0.19426
 H784 H 0.77669 0.59797 0.12519
 H785 H 0.74131 0.55048 0.15102
 C786 C 0.81414 1.09615 0.66464
 C787 C 0.79143 1.08578 0.64237
 C788 C 0.77416 1.06116 0.65690
 C789 C 0.78739 1.05835 0.68683
 O790 O 0.81153 1.07930 0.69155
 H791 H 0.78756 1.09471 0.61841
 H792 H 0.75407 1.04726 0.64704
 C793 C 0.70410 0.59715 0.33844
 C794 C 0.73387 0.59275 0.35338
 C795 C 0.74906 0.56843 0.33696
 C796 C 0.72752 0.55985 0.31327
 O797 O 0.70039 0.57716 0.31411
 H798 H 0.74350 0.60546 0.37376
 H799 H 0.77288 0.55807 0.34178
 C800 C 0.66231 1.10263 0.79569
 C801 C 0.64444 1.09493 0.76882
 C802 C 0.66044 1.06946 0.75518
 C803 C 0.68712 1.06361 0.77428
 O804 O 0.68830 1.08352 0.79887
 H805 H 0.62213 1.10588 0.76019
 H806 H 0.65373 1.05693 0.73357
 C807 C 0.17489 0.60565 0.80071
 C808 C 0.15238 0.59649 0.77773
 C809 C 0.16742 0.57340 0.75999
 C810 C 0.19806 0.56992 0.77295
 O811 O 0.20276 0.58923 0.79774
 H812 H 0.12760 0.60481 0.77412
 H813 H 0.15728 0.56065 0.73982
 C814 C 0.18239 1.11305 0.28134
 C815 C 0.16712 1.10778 0.25254
 C816 C 0.18480 1.08390 0.23812
 C817 C 0.20962 1.07640 0.25900
 O818 O 0.20827 1.09401 0.28515
 H819 H 0.14550 1.11940 0.24313
 H820 H 0.17994 1.07294 0.21526
 C821 C 0.65811 0.39721 0.67662
 C822 C 0.63004 0.41210 0.68758
 C823 C 0.64071 0.43772 0.70498
 C824 C 0.67452 0.43666 0.70338
 O825 O 0.68526 0.41217 0.68598
 H826 H 0.60484 0.40483 0.68375
 H827 H 0.62564 0.45461 0.71821
 C828 C 0.67038 -0.11472 0.20485
 C829 C 0.64812 -0.10814 0.22909
 C830 C 0.65907 -0.08007 0.24296
 C831 C 0.68724 -0.07164 0.22648
 O832 O 0.69403 -0.09241 0.20345
 H833 H 0.62644 -0.12180 0.23607
 H834 H 0.64826 -0.06769 0.26311
 C835 C 0.20925 0.38280 0.20788
 C836 C 0.24008 0.37343 0.21760
 C837 C 0.25288 0.39970 0.23264
 C838 C 0.22895 0.42317 0.23106
 O839 O 0.20231 0.41309 0.21614
 H840 H 0.25255 0.35088 0.21228
 H841 H 0.27706 0.40185 0.24290
 C842 C 0.17752 -0.09248 0.65879
 C843 C 0.19704 -0.08003 0.63434
 C844 C 0.21600 -0.05687 0.64791
 C845 C 0.20673 -0.05642 0.67949
 O846 O 0.18311 -0.07762 0.68626
 H847 H 0.19819 -0.08709 0.60960
 H848 H 0.23532 -0.04276 0.63642
 C849 C 0.34118 0.30294 0.39979
 C850 C 0.36317 0.27873 0.40764
 C851 C 0.34763 0.26037 0.43060
 C852 C 0.31740 0.27472 0.43469
 O853 O 0.31351 0.30037 0.41616
 H854 H 0.38764 0.27511 0.39822
 H855 H 0.35711 0.23911 0.44279
 C856 C 0.34013 0.80944 -0.09442
 C857 C 0.36501 0.79057 -0.08184
 C858 C 0.35123 0.77394 -0.05684
 C859 C 0.31906 0.78385 -0.05577
 O860 O 0.31224 0.80537 -0.07841
 H861 H 0.39027 0.78893 -0.08963
 H862 H 0.36317 0.75658 -0.04129
 C863 C 0.82899 0.27730 -0.11919
 C864 C 0.84995 0.25114 -0.11505
 C865 C 0.83850 0.23477 -0.08866
 C866 C 0.81155 0.25212 -0.07878
 O867 O 0.80578 0.27768 -0.09714
 H868 H 0.87093 0.24443 -0.12943
 H869 H 0.84850 0.21290 -0.07802
 C870 C 0.82470 0.80126 0.40004
 C871 C 0.84456 0.77544 0.40843
 C872 C 0.82922 0.76067 0.43365
 C873 C 0.80114 0.77844 0.43894
 O874 O 0.79833 0.80312 0.41869
 H875 H 0.86757 0.76815 0.39777
 H876 H 0.83752 0.73942 0.44667
 C877 C 0.70752 0.32902 0.59108
 C878 C 0.72946 0.35262 0.58023
 C879 C 0.74780 0.33795 0.55728
 C880 C 0.73574 0.30662 0.55566
 O881 O 0.71135 0.30109 0.57598
 H882 H 0.73201 0.37763 0.58777
 H883 H 0.76766 0.34873 0.54346
 C884 C 0.71517 0.82997 1.10925
 C885 C 0.73403 0.85573 1.09800
 C886 C 0.75019 0.84405 1.07204
 C887 C 0.74004 0.81206 1.06916
 O888 O 0.71880 0.80343 1.09164
 H889 H 0.73580 0.88020 1.10722
 H890 H 0.76754 0.85724 1.05705
 C891 C 0.21256 0.33516 1.10041
 C892 C 0.23916 0.35306 1.08936
 C893 C 0.24944 0.33751 1.06272
 C894 C 0.22839 0.31133 1.05942
 O895 O 0.20586 0.30985 1.08212
 H896 H 0.24979 0.37490 1.09931
 H897 H 0.26989 0.34439 1.04747
 C898 C 0.14905 0.80639 0.60319
 C899 C 0.13409 0.77643 0.59879
 C900 C 0.15040 0.76263 0.57384
 C901 C 0.17397 0.78513 0.56471
 O902 O 0.17318 0.81161 0.58234
 H903 H 0.11425 0.76540 0.61238
 H904 H 0.14606 0.73875 0.56391
 C905 C 0.32810 0.73077 0.60753
 C906 C 0.34204 0.76158 0.60582
 C907 C 0.32703 0.77682 0.58092
 C908 C 0.30516 0.75427 0.56917
 O909 O 0.30577 0.72642 0.58516
 H910 H 0.36050 0.77211 0.62101
 H911 H 0.33122 0.80154 0.57258
 C912 C 0.31160 0.16309 1.07692
 C913 C 0.29227 0.13808 1.06541
 C914 C 0.27315 0.15205 1.04283
 C915 C 0.28242 0.18440 1.04176
 O916 O 0.30584 0.19130 1.06228
 H917 H 0.29158 0.11273 1.07278
 H918 H 0.25405 0.14025 1.02923
 C919 C 0.85330 0.69015 1.11082
 C920 C 0.87771 0.71263 1.10321
 C921 C 0.86579 0.73084 1.07860
 C922 C 0.83513 0.71815 1.07288
 O923 O 0.82753 0.69348 1.09218
 H924 H 0.90147 0.71562 1.11408
 H925 H 0.87796 0.75086 1.06629
 C926 C 0.85841 0.18938 0.60211
 C927 C 0.88333 0.20969 0.59120
 C928 C 0.87054 0.22605 0.56583
 C929 C 0.83887 0.21455 0.56325
 O930 O 0.83149 0.19228 0.58504
 H931 H 0.90791 0.21224 0.60036
 H932 H 0.88278 0.24418 0.55102
 C933 C 0.65798 0.68247 0.41170
 C934 C 0.63144 0.69686 0.42651
 C935 C 0.64416 0.71427 0.45084
 C936 C 0.67747 0.70904 0.44966
 O937 O 0.68612 0.68964 0.42597
 H938 H 0.60581 0.69531 0.42025
 H939 H 0.63083 0.72972 0.46717
 C940 C 0.68270 0.15407 -0.10062
 C941 C 0.69404 0.12668 -0.08507
 C942 C 0.70985 0.13801 -0.05904
 C943 C 0.70696 0.17148 -0.06051
 O944 O 0.69028 0.18139 -0.08563
 H945 H 0.69143 0.10147 -0.09206
 H946 H 0.72279 0.12363 -0.04150
 C947 C 0.20856 0.66269 -0.09976
 C948 C 0.23229 0.64102 -0.08989
 C949 C 0.24629 0.65490 -0.06384
 C950 C 0.23020 0.68406 -0.05966
 O951 O 0.20732 0.68882 -0.08134
 H952 H 0.23845 0.61766 -0.10002
 H953 H 0.26598 0.64504 -0.04965
 C954 C 0.20003 0.16176 0.38830
 C955 C 0.22092 0.13813 0.39993
 C956 C 0.23442 0.15111 0.42664
 C957 C 0.22081 0.18164 0.42932
 O958 O 0.19990 0.18811 0.40625
 H959 H 0.22578 0.11427 0.39024
 H960 H 0.25239 0.13992 0.44202
 C961 C 0.34522 0.40692 0.67706
 C962 C 0.37125 0.41922 0.69421
 C963 C 0.35919 0.44560 0.70992
 C964 C 0.32674 0.44750 0.70123
 O965 O 0.31823 0.42422 0.68123
 H966 H 0.39609 0.41018 0.69523
 H967 H 0.37235 0.46133 0.72606
 C968 C 0.35158 0.89237 0.20322
 C969 C 0.37195 0.89741 0.22900
 C970 C 0.35933 0.92366 0.24464
 C971 C 0.33228 0.93268 0.22735
 O972 O 0.32754 0.91384 0.20239
 H973 H 0.39339 0.88376 0.23588
 H974 H 0.36871 0.93486 0.26600
 C975 C 0.78328 0.38491 0.16355
 C976 C 0.75280 0.38661 0.14937
 C977 C 0.73590 0.40964 0.16604
 C978 C 0.75723 0.42019 0.18911
 O979 O 0.78579 0.40529 0.18767
 H980 H 0.74376 0.37292 0.12934
 H981 H 0.71115 0.41789 0.16177
 C982 C 0.84045 0.89213 0.70597
 C983 C 0.86388 0.90251 0.72735
 C984 C 0.85051 0.92881 0.74231
 C985 C 0.81995 0.93252 0.72906
 O986 O 0.81384 0.91045 0.70704
 H987 H 0.88800 0.89257 0.73136
 H988 H 0.86165 0.94344 0.76067
 C989 C 0.69643 0.60614 0.67681
 C990 C 0.72501 0.60098 0.65973
 C991 C 0.73950 0.57491 0.67413
 C992 C 0.71884 0.56603 0.69894
 O993 O 0.69277 0.58487 0.70062
 H994 H 0.73439 0.61439 0.63929
 H995 H 0.76235 0.56357 0.66727
 C996 C 0.68784 0.09577 0.16015
 C997 C 0.70686 0.08196 0.13643
 C998 C 0.72298 0.05689 0.15076
 C999 C 0.71257 0.05718 0.18204
 O1000 O 0.69118 0.08055 0.18780
 H1001 H 0.70898 0.08930 0.11169
 H1002 H 0.74055 0.04066 0.13986
 C1003 C 0.19972 0.60033 0.17306
 C1004 C 0.22683 0.59202 0.15492
 C1005 C 0.24184 0.56774 0.17159
 C1006 C 0.22272 0.56283 0.19845
 O1007 O 0.19724 0.58243 0.19940
 H1008 H 0.23555 0.60298 0.13290
 H1009 H 0.26455 0.55573 0.16541
 C1010 C 0.21160 0.10789 0.66124
 C1011 C 0.23838 0.10273 0.64140
 C1012 C 0.25479 0.07703 0.65450
 C1013 C 0.23689 0.06851 0.68125
 O1014 O 0.21089 0.08710 0.68541
 H1015 H 0.24549 0.11603 0.62008
 H1016 H 0.27700 0.06586 0.64564
 C1017 C 0.28497 0.62490 0.34316
 C1018 C 0.25571 0.62274 0.35996
 C1019 C 0.23989 0.59614 0.34794
 C1020 C 0.26068 0.58411 0.32486
 O1021 O 0.28788 0.60137 0.32198
 H1022 H 0.24644 0.63894 0.37807
 H1023 H 0.21598 0.58685 0.35492
 C1024 C 0.33388 0.09973 0.80221
 C1025 C 0.36195 0.08507 0.79084
 C1026 C 0.35150 0.05684 0.77742
 C1027 C 0.31790 0.05635 0.78171
 O1028 O 0.30714 0.08223 0.79684
 H1029 H 0.38695 0.09395 0.79186
 H1030 H 0.36644 0.03918 0.76504
 C1031 C 0.80470 0.57690 0.84606
 C1032 C 0.78272 0.56537 0.86878
 C1033 C 0.76353 0.54359 0.85338
 C1034 C 0.77528 0.54299 0.82252
 O1035 O 0.80040 0.56303 0.81790
 H1036 H 0.78045 0.57211 0.89354
 H1037 H 0.74289 0.53013 0.86330
 C1038 C 0.83726 0.10717 0.29083
 C1039 C 0.85640 0.09990 0.26458
 C1040 C 0.84078 0.07461 0.25009
 C1041 C 0.81313 0.06839 0.26834
 O1042 O 0.81093 0.08804 0.29308
 H1043 H 0.87939 0.11104 0.25725
 H1044 H 0.84865 0.06210 0.22877
 C1045 C 0.67442 0.39065 0.33472
 C1046 C 0.65397 0.41620 0.34207
 C1047 C 0.66725 0.44269 0.32717
 C1048 C 0.69500 0.43162 0.31189
 O1049 O 0.69954 0.39986 0.31629
 H1050 H 0.63112 0.41517 0.35534
 H1051 H 0.65703 0.46697 0.32613
 C1052 C 0.70836 0.90002 0.84745
 C1053 C 0.72852 0.91399 0.86991
 C1054 C 0.74220 0.94056 0.85507
 C1055 C 0.72933 0.94074 0.82478
 O1056 O 0.70885 0.91634 0.82015
 H1057 H 0.73293 0.90588 0.89407
 H1058 H 0.75984 0.95743 0.86492
 C1059 C 0.21107 0.40855 0.82539
 C1060 C 0.23599 0.41723 0.84594
 C1061 C 0.25348 0.44092 0.83035
 C1062 C 0.23804 0.44488 0.80155
 O1063 O 0.21245 0.42540 0.79844
 H1064 H 0.24091 0.40799 0.86960
 H1065 H 0.27470 0.45397 0.83902
 C1066 C 0.19812 0.91222 0.32888
 C1067 C 0.21385 0.92671 0.35409
 C1068 C 0.23224 0.95102 0.34095
 C1069 C 0.22650 0.94985 0.30861
 O1070 O 0.20556 0.92639 0.30110
 H1071 H 0.21211 0.92045 0.37914
 H1072 H 0.24838 0.96750 0.35348
 C1073 C 0.39446 0.29868 0.65023
 C1074 C 0.39659 0.26903 0.63479
 C1075 C 0.42053 0.25220 0.65011
 C1076 C 0.43140 0.27272 0.67358
 O1077 O 0.41579 0.30086 0.67373
 H1078 H 0.38223 0.26008 0.61516
 H1079 H 0.42877 0.22774 0.64507
 C1080 C 0.41439 0.79983 0.15469
 C1081 C 0.42541 0.78288 0.12842
 C1082 C 0.45025 0.76390 0.13920
 C1083 C 0.45290 0.77077 0.17116
 O1084 O 0.43130 0.79268 0.18068
 H1085 H 0.41618 0.78370 0.10435
 H1086 H 0.46419 0.74639 0.12560
 C1087 C 0.89606 0.34349 0.18381
 C1088 C 0.90703 0.37051 0.19999
 C1089 C 0.93417 0.36055 0.21572
 C1090 C 0.93797 0.32811 0.20812
 O1091 O 0.91494 0.31761 0.18851
 H1092 H 0.89643 0.39462 0.20037
 H1093 H 0.94908 0.37505 0.23150
 C1094 C 0.89693 0.78978 0.67160
 C1095 C 0.90758 0.76729 0.64947
 C1096 C 0.93226 0.75067 0.66397
 C1097 C 0.93479 0.76414 0.69381
 O1098 O 0.91353 0.78781 0.69849
 H1099 H 0.89904 0.76368 0.62543
 H1100 H 0.94681 0.73124 0.65395
 C1101 C 0.58973 0.30237 0.33700
 C1102 C 0.57086 0.28512 0.35886
 C1103 C 0.54460 0.27404 0.34233
 C1104 C 0.54944 0.28526 0.31160
 O1105 O 0.57673 0.30264 0.30825
 H1106 H 0.57635 0.28017 0.38361
 H1107 H 0.52486 0.25868 0.35131
 C1108 C 0.62213 0.82658 0.80570
 C1109 C 0.62380 0.83947 0.77519
 C1110 C 0.59736 0.82728 0.75985
 C1111 C 0.58137 0.80775 0.78192
 O1112 O 0.59640 0.80700 0.80980
 H1113 H 0.64232 0.85553 0.76501
 H1114 H 0.59057 0.83194 0.73536
 C1115 C 0.11002 0.34830 0.79056
 C1116 C 0.10728 0.36318 0.76100
 C1117 C 0.08261 0.34696 0.74601
 C1118 C 0.07199 0.32353 0.76746
 O1119 O 0.08844 0.32429 0.79443
 H1120 H 0.12168 0.38306 0.75107
 H1121 H 0.07380 0.35132 0.72211
 C1122 C 0.10229 0.84622 0.29090
 C1123 C 0.09819 0.86161 0.26176
 C1124 C 0.07228 0.84608 0.24799
 C1125 C 0.06244 0.82263 0.26981
 O1126 O 0.08048 0.82269 0.29569
 H1127 H 0.11284 0.88096 0.25116
 H1128 H 0.06236 0.85065 0.22455
 C1129 C 0.59475 0.66321 0.71069
 C1130 C 0.58790 0.64339 0.73682
 C1131 C 0.56362 0.65886 0.75321
 C1132 C 0.55737 0.68666 0.73575
 O1133 O 0.57599 0.68930 0.71007
 H1134 H 0.59958 0.62091 0.74387
 H1135 H 0.55245 0.65128 0.77556
 C1136 C 0.59439 0.16665 0.19617
 C1137 C 0.58049 0.14454 0.21742
 C1138 C 0.55509 0.16056 0.23143
 C1139 C 0.55523 0.19127 0.21785
 O1140 O 0.57896 0.19507 0.19645
 H1141 H 0.58745 0.11956 0.22197
 H1142 H 0.53836 0.15096 0.24937
 C1143 C 0.11017 0.67196 0.21204
 C1144 C 0.11139 0.66039 0.24310
 C1145 C 0.08666 0.67562 0.25887
 C1146 C 0.07216 0.69537 0.23646
 O1147 O 0.08634 0.69336 0.20807
 H1148 H 0.12856 0.64348 0.25351
 H1149 H 0.08017 0.67290 0.28381
 C1150 C 0.11635 0.17146 0.70493
 C1151 C 0.11645 0.15794 0.73526
 C1152 C 0.09205 0.17337 0.75154
 C1153 C 0.07882 0.19507 0.73006
 O1154 O 0.09342 0.19398 0.70189
 H1155 H 0.13246 0.13943 0.74477
 H1156 H 0.08488 0.16940 0.77616
 C1157 C 0.37906 0.68204 0.29295
 C1158 C 0.37267 0.66818 0.26370
 C1159 C 0.39995 0.67339 0.24584
 C1160 C 0.42100 0.69043 0.26512
 O1161 O 0.40841 0.69614 0.29375
 H1162 H 0.35070 0.65567 0.25608
 H1163 H 0.40399 0.66587 0.22147
 C1164 C 0.38117 0.21093 0.81962
 C1165 C 0.38306 0.24183 0.83245
 C1166 C 0.40970 0.25630 0.81825
 C1167 C 0.42230 0.23331 0.79784
 O1168 O 0.40510 0.20583 0.79861
 H1169 H 0.36695 0.25289 0.84980
 H1170 H 0.41862 0.28085 0.82200
 C1171 C 0.90362 0.64050 0.80981
 C1172 C 0.91490 0.61914 0.78695
 C1173 C 0.93909 0.63568 0.77087
 C1174 C 0.94068 0.66583 0.78505
 O1175 O 0.91933 0.66879 0.80863
 H1176 H 0.90686 0.59440 0.78267
 H1177 H 0.95370 0.62691 0.75112
 C1178 C 0.89533 0.21036 0.32577
 C1179 C 0.89529 0.23870 0.34353
 C1180 C 0.91931 0.25796 0.33073
 C1181 C 0.93215 0.24026 0.30598
 O1182 O 0.91763 0.21148 0.30269
 H1183 H 0.87952 0.24499 0.36335
 H1184 H 0.92646 0.28209 0.33837
 C1185 C 0.29761 0.33879 0.58953
 C1186 C 0.27384 0.36053 0.57976
 C1187 C 0.25731 0.34507 0.55606
 C1188 C 0.27208 0.31511 0.55317
 O1189 O 0.29640 0.31123 0.57336
 H1190 H 0.26904 0.38477 0.58848
 H1191 H 0.23690 0.35449 0.54256
 C1192 C 0.30819 0.83474 0.10668
 C1193 C 0.28410 0.85695 0.09887
 C1194 C 0.26689 0.84306 0.07464
 C1195 C 0.28158 0.81339 0.06947
 O1196 O 0.30658 0.80831 0.08876
 H1197 H 0.27973 0.88065 0.10912
 H1198 H 0.24613 0.85330 0.06226
 C1199 C 0.83528 0.30675 0.08705
 C1200 C 0.86208 0.29285 0.07218
 C1201 C 0.84961 0.27573 0.04747
 C1202 C 0.81629 0.28080 0.04862
 O1203 O 0.80738 0.29961 0.07255
 H1204 H 0.88762 0.29429 0.07876
 H1205 H 0.86305 0.26041 0.03110
 C1206 C 0.80452 0.83503 0.60698
 C1207 C 0.78840 0.86163 0.59439
 C1208 C 0.77167 0.85009 0.56904
 C1209 C 0.77873 0.81729 0.56766
 O1210 O 0.79885 0.80797 0.59060
 H1211 H 0.78882 0.88660 0.60244
 H1212 H 0.75582 0.86395 0.55349
 C1213 C 0.32785 0.72668 0.39375
 C1214 C 0.34397 0.75645 0.39458
 C1215 C 0.33065 0.77256 0.41998
 C1216 C 0.30766 0.75137 0.43281
 O1217 O 0.30599 0.72374 0.41704
 H1218 H 0.36232 0.76591 0.37816
 H1219 H 0.33636 0.79704 0.42767
 C1220 C 0.27691 0.17472 0.87605
 C1221 C 0.24780 0.15720 0.87840
 C1222 C 0.23143 0.16975 0.90398
 C1223 C 0.25169 0.19394 0.91516
 O1224 O 0.27905 0.19709 0.89830
 H1225 H 0.23937 0.13757 0.86345
 H1226 H 0.20779 0.16215 0.91339
 C1227 C 0.84874 0.66806 0.91255
 C1228 C 0.87591 0.68235 0.92611
 C1229 C 0.86404 0.70117 0.94989
 C1230 C 0.83051 0.69686 0.94952
 O1231 O 0.82095 0.67660 0.92695
 H1232 H 0.90136 0.67997 0.91907
 H1233 H 0.87805 0.71707 0.96518
 C1234 C 0.82034 0.15202 0.40018
 C1235 C 0.80135 0.12703 0.41292
 C1236 C 0.78882 0.13910 0.44070
 C1237 C 0.80125 0.17034 0.44271
 O1238 O 0.82029 0.17810 0.41837
 H1239 H 0.79649 0.10327 0.40298
 H1240 H 0.77175 0.12706 0.45686
 C1241 C 0.69691 0.28095 0.38564
 C1242 C 0.69503 0.24753 0.38185
 C1243 C 0.71108 0.23449 0.40701
 C1244 C 0.72201 0.26077 0.42411
 O1245 O 0.71385 0.28915 0.41120
 H1246 H 0.68215 0.23421 0.36360
 H1247 H 0.71441 0.20888 0.41240
 C1248 C 0.68446 0.79447 0.90420
 C1249 C 0.66486 0.76830 0.91309
 C1250 C 0.68107 0.75325 0.93721
 C1251 C 0.70940 0.77117 0.94141
 O1252 O 0.71155 0.79628 0.92151
 H1253 H 0.64137 0.76110 0.90359
 H1254 H 0.67311 0.73174 0.95032
 C1255 C 0.15808 0.32624 0.89749
 C1256 C 0.13016 0.31474 0.91268
 C1257 C 0.14112 0.29777 0.93836
 C1258 C 0.17488 0.30017 0.93694
 O1259 O 0.18529 0.31759 0.91226
 H1260 H 0.10490 0.31793 0.90565
 H1261 H 0.12631 0.28428 0.95552
 C1262 C 0.16271 0.81122 0.38834
 C1263 C 0.14724 0.78117 0.39115
 C1264 C 0.16028 0.76673 0.41744
 C1265 C 0.18262 0.78890 0.42893
 O1266 O 0.18424 0.81584 0.41138
 H1267 H 0.12931 0.77033 0.37558
 H1268 H 0.15467 0.74264 0.42678
 C1269 C 0.65582 0.70424 0.61457
 C1270 C 0.63405 0.72920 0.60791
 C1271 C 0.64739 0.74612 0.58290
 C1272 C 0.67623 0.73044 0.57592
 O1273 O 0.68146 0.70507 0.59495
 H1274 H 0.61111 0.73485 0.61961
 H1275 H 0.63729 0.76732 0.57111
 C1276 C 0.66494 0.19975 0.10284
 C1277 C 0.64754 0.22740 0.09477
 C1278 C 0.66399 0.24077 0.06950
 C1279 C 0.69018 0.22042 0.06401
 O1280 O 0.69086 0.19557 0.08410
 H1281 H 0.62536 0.23674 0.10550
 H1282 H 0.65751 0.26262 0.05642
 C1283 C 0.16365 0.69530 0.10585
 C1284 C 0.13999 0.71579 0.09368
 C1285 C 0.15425 0.73068 0.06790
 C1286 C 0.18556 0.71828 0.06615
 O1287 O 0.19132 0.69673 0.08904
 H1288 H 0.11528 0.71949 0.10242
 H1289 H 0.14330 0.74879 0.05247
 C1290 C 0.16083 0.19590 0.59578
 C1291 C 0.13632 0.21641 0.58521
 C1292 C 0.14870 0.23102 0.55825
 C1293 C 0.17968 0.21829 0.55457
 O1294 O 0.18696 0.19709 0.57710
 H1295 H 0.11250 0.22058 0.59589
 H1296 H 0.13695 0.24927 0.54358
   
