data_POSCAR
  _audit_creation_date              2014-09-24
  _audit_creation_method            'ToBaCCo'
  _symmetry_space_group_name_H-M    'P1'
  _symmetry_Int_Tables_number       1
  _symmetry_cell_setting            triclinic
  loop_
  _symmetry_equiv_pos_as_xyz
 x,y,z
_cell_length_a 53.8445
_cell_length_b 54.2270
_cell_length_c 53.6166
_cell_angle_alpha 89.795800
_cell_angle_beta 89.852400
_cell_angle_gamma 90.692200
loop_
  _atom_site_label
  _atom_site_type_symbol
  _atom_site_fract_x
  _atom_site_fract_y
  _atom_site_fract_z
O1 O 0.88063 0.15475 0.80424
 O2 O 0.91260 0.12589 0.79983
 O3 O 0.81840 0.10913 0.82567
 O4 O 0.80794 0.08363 0.85633
 O5 O 0.83374 0.17727 0.86537
 O6 O 0.86328 0.18895 0.89569
 O7 O 0.88334 0.05451 0.90013
 O8 O 0.86071 0.04456 0.86465
 O9 O 0.94497 0.09587 0.87700
 O10 O 0.95103 0.13271 0.85081
 O11 O 0.90222 0.12046 0.93644
 O12 O 0.86366 0.14101 0.94141
 O13 O 0.87376 0.08182 0.93067
 O14 O 0.83944 0.11353 0.93446
 O15 O 0.93527 0.12733 0.91078
 O16 O 0.94263 0.15789 0.87666
 O17 O 0.92024 0.06193 0.87273
 O18 O 0.89136 0.05083 0.83816
 O19 O 0.87159 0.18334 0.83381
 O20 O 0.89441 0.19294 0.87220
 O21 O 0.80880 0.14347 0.86070
 O22 O 0.80498 0.10688 0.88852
 O23 O 0.85128 0.11534 0.79954
 O24 O 0.89052 0.09397 0.79714
 Zr25 Zr 0.88155 0.12125 0.82366
 O26 O 0.90540 0.10182 0.84743
 Zr27 Zr 0.83321 0.11329 0.86161
 O28 O 0.85469 0.09235 0.88653
 Zr29 Zr 0.86971 0.16272 0.86741
 O30 O 0.89218 0.14436 0.89359
 Zr31 Zr 0.88435 0.07583 0.86766
 O32 O 0.86068 0.09363 0.84208
 Zr33 Zr 0.92030 0.12555 0.87458
 O34 O 0.89922 0.14584 0.84847
 Zr35 Zr 0.87183 0.11632 0.91212
 O36 O 0.84841 0.13722 0.88850
 O37 O 0.85289 0.13976 0.84139
 O38 O 0.90093 0.09834 0.89450
 C39 C 0.87631 0.17688 0.81119
 C40 C 0.82821 0.11069 0.80383
 C41 C 0.81233 0.16685 0.86291
 C42 C 0.87857 0.05995 0.92283
 C43 C 0.94150 0.07243 0.87602
 C44 C 0.92540 0.12477 0.93250
 H45 H 0.91859 0.09407 0.83744
 H46 H 0.89906 0.15654 0.90546
 H47 H 0.84215 0.14877 0.82959
 H48 H 0.84397 0.07982 0.89479
 H49 H 0.84838 0.04838 0.85156
 H50 H 0.81517 0.06900 0.86446
 H51 H 0.93579 0.16842 0.88997
 H52 H 0.90872 0.19011 0.86098
 H53 H 0.90678 0.05607 0.82947
 H54 H 0.87976 0.07948 0.80083
 H55 H 0.87245 0.15672 0.93774
 H56 H 0.85230 0.18075 0.90810
 H57 H 0.92383 0.13789 0.80810
 H58 H 0.95096 0.12002 0.83761
 H59 H 0.80567 0.12081 0.90040
 H60 H 0.83120 0.09757 0.93071
 O61 O 0.83332 0.67884 0.36843
 O62 O 0.86282 0.69094 0.39855
 O63 O 0.88161 0.65603 0.30778
 O64 O 0.90936 0.62814 0.30022
 O65 O 0.81756 0.61138 0.32963
 O66 O 0.80969 0.58332 0.36273
 O67 O 0.94488 0.59797 0.38063
 O68 O 0.95042 0.63152 0.35315
 O69 O 0.90222 0.62285 0.43993
 O70 O 0.86368 0.64283 0.44510
 O71 O 0.88271 0.55640 0.40355
 O72 O 0.86231 0.54540 0.36602
 O73 O 0.92004 0.56409 0.37624
 O74 O 0.88969 0.55299 0.34131
 O75 O 0.87467 0.58376 0.43448
 O76 O 0.83938 0.61521 0.43806
 O77 O 0.93531 0.62906 0.41414
 O78 O 0.94215 0.65997 0.38109
 O79 O 0.80828 0.64496 0.36476
 O80 O 0.80353 0.60866 0.39105
 O81 O 0.85039 0.61709 0.30338
 O82 O 0.89020 0.59354 0.30259
 O83 O 0.87133 0.68473 0.33680
 O84 O 0.89405 0.69461 0.37529
 Zr85 Zr 0.86937 0.66437 0.37063
 O86 O 0.89187 0.64620 0.39694
 Zr87 Zr 0.88106 0.62260 0.32714
 O88 O 0.90524 0.60359 0.35094
 Zr89 Zr 0.83286 0.61495 0.36542
 O90 O 0.85447 0.59424 0.39035
 Zr91 Zr 0.92009 0.62743 0.37803
 O92 O 0.89891 0.64739 0.35173
 Zr93 Zr 0.87179 0.61820 0.41576
 O94 O 0.84824 0.63897 0.39212
 Zr95 Zr 0.88404 0.57774 0.37120
 O96 O 0.86010 0.59529 0.34574
 O97 O 0.85247 0.64124 0.34482
 O98 O 0.90076 0.60021 0.39796
 C99 C 0.81186 0.66839 0.36643
 C100 C 0.87685 0.67813 0.31440
 C101 C 0.82731 0.61265 0.30777
 C102 C 0.94127 0.57458 0.37964
 C103 C 0.92545 0.62684 0.43590
 C104 C 0.87895 0.56185 0.42641
 H105 H 0.89863 0.65845 0.40879
 H106 H 0.84372 0.58188 0.39880
 H107 H 0.84181 0.65036 0.33304
 H108 H 0.91857 0.59586 0.34108
 H109 H 0.94494 0.64265 0.33961
 H110 H 0.92523 0.62385 0.30830
 H111 H 0.83170 0.59884 0.43496
 H112 H 0.80545 0.62113 0.40437
 H113 H 0.93491 0.67048 0.39419
 H114 H 0.90840 0.69169 0.36414
 H115 H 0.84648 0.54768 0.37506
 H116 H 0.81879 0.57129 0.35242
 H117 H 0.85189 0.68285 0.41108
 H118 H 0.87158 0.65886 0.44085
 H119 H 0.87700 0.58077 0.30424
 H120 H 0.90595 0.55697 0.33357
 O121 O 0.37770 0.15568 0.30769
 O122 O 0.40965 0.12641 0.30331
 O123 O 0.31523 0.11056 0.32944
 O124 O 0.30525 0.08472 0.36014
 O125 O 0.33136 0.17851 0.36836
 O126 O 0.36075 0.18998 0.39919
 O127 O 0.38022 0.05594 0.40441
 O128 O 0.35709 0.04591 0.36885
 O129 O 0.44204 0.09643 0.38027
 O130 O 0.44839 0.13303 0.35406
 O131 O 0.39951 0.12258 0.43995
 O132 O 0.36006 0.14335 0.44393
 O133 O 0.37290 0.08393 0.43493
 O134 O 0.33738 0.11402 0.43869
 O135 O 0.43266 0.12805 0.41410
 O136 O 0.44022 0.15852 0.37964
 O137 O 0.41706 0.06259 0.37627
 O138 O 0.38798 0.05128 0.34249
 O139 O 0.37002 0.18448 0.33743
 O140 O 0.39182 0.19411 0.37584
 O141 O 0.30615 0.14481 0.36434
 O142 O 0.30218 0.10866 0.39238
 O143 O 0.34814 0.11630 0.30325
 O144 O 0.38715 0.09480 0.30059
 Zr145 Zr 0.37859 0.12213 0.32719
 O146 O 0.40233 0.10258 0.35100
 Zr147 Zr 0.33038 0.11454 0.36532
 O148 O 0.35181 0.09371 0.39044
 Zr149 Zr 0.36725 0.16382 0.37085
 O150 O 0.38980 0.14553 0.39697
 Zr151 Zr 0.38123 0.07683 0.37155
 O152 O 0.35768 0.09466 0.34583
 Zr153 Zr 0.41763 0.12635 0.37791
 O154 O 0.39655 0.14668 0.35183
 Zr155 Zr 0.36925 0.11782 0.41571
 O156 O 0.34580 0.13855 0.39202
 O157 O 0.35017 0.14088 0.34496
 O158 O 0.39811 0.09947 0.39807
 C159 C 0.37433 0.17796 0.31477
 C160 C 0.32502 0.11192 0.30757
 C161 C 0.30988 0.16819 0.36611
 C162 C 0.37713 0.06187 0.42732
 C163 C 0.43838 0.07303 0.37933
 C164 C 0.42275 0.12622 0.43587
 H165 H 0.41540 0.09466 0.34097
 H166 H 0.39682 0.15778 0.40868
 H167 H 0.33955 0.14997 0.33312
 H168 H 0.34119 0.08127 0.39894
 H169 H 0.34490 0.04974 0.35563
 H170 H 0.31194 0.07044 0.36933
 H171 H 0.43391 0.16893 0.39332
 H172 H 0.40655 0.19094 0.36529
 H173 H 0.40276 0.05691 0.33297
 H174 H 0.37657 0.08026 0.30460
 H175 H 0.37032 0.15836 0.44116
 H176 H 0.34932 0.18195 0.41131
 H177 H 0.42080 0.13866 0.31132
 H178 H 0.44787 0.12055 0.34066
 H179 H 0.30360 0.12224 0.40460
 H180 H 0.32940 0.09792 0.43498
 O181 O 0.12480 0.34976 0.30731
 O182 O 0.09480 0.38181 0.30527
 O183 O 0.18707 0.38630 0.34119
 O184 O 0.19360 0.40790 0.37649
 O185 O 0.16308 0.31403 0.36777
 O186 O 0.13009 0.30046 0.39359
 O187 O 0.11724 0.43234 0.41899
 O188 O 0.14486 0.44644 0.38766
 O189 O 0.05648 0.40082 0.38180
 O190 O 0.05206 0.36913 0.34848
 O191 O 0.08939 0.36434 0.44032
 O192 O 0.12736 0.33748 0.44354
 O193 O 0.12085 0.39909 0.44461
 O194 O 0.15145 0.36590 0.44741
 O195 O 0.05982 0.36352 0.41014
 O196 O 0.05427 0.34017 0.37153
 O197 O 0.08333 0.43322 0.38608
 O198 O 0.11629 0.44834 0.35860
 O199 O 0.12836 0.31626 0.33269
 O200 O 0.10188 0.30184 0.36639
 O201 O 0.19106 0.34740 0.37114
 O202 O 0.19376 0.37727 0.40441
 O203 O 0.15642 0.38747 0.31206
 O204 O 0.11964 0.41132 0.30898
 Zr205 Zr 0.12363 0.37979 0.33187
 O206 O 0.09873 0.39702 0.35622
 Zr207 Zr 0.16785 0.37815 0.37476
 O208 O 0.14478 0.39547 0.40121
 Zr209 Zr 0.12820 0.33096 0.36905
 O210 O 0.10351 0.34609 0.39527
 Zr211 Zr 0.11865 0.41748 0.38288
 O212 O 0.14369 0.40261 0.35654
 Zr213 Zr 0.07930 0.37009 0.37688
 O214 O 0.10206 0.35268 0.35025
 Zr215 Zr 0.12314 0.36880 0.42029
 O216 O 0.14840 0.35119 0.39577
 O217 O 0.14907 0.35660 0.34888
 O218 O 0.09761 0.39187 0.40321
 C219 C 0.12654 0.32647 0.31107
 C220 C 0.17922 0.38930 0.31872
 C221 C 0.18678 0.32280 0.36900
 C222 C 0.11852 0.42232 0.44070
 C223 C 0.06136 0.42380 0.38499
 C224 C 0.06669 0.36262 0.43298
 H225 H 0.08736 0.40740 0.34643
 H226 H 0.09442 0.33268 0.40401
 H227 H 0.16049 0.34874 0.33688
 H228 H 0.15509 0.40543 0.41272
 H229 H 0.15790 0.44418 0.37483
 H230 H 0.18773 0.41940 0.38945
 H231 H 0.05947 0.32653 0.38255
 H232 H 0.08857 0.30766 0.35519
 H233 H 0.10348 0.44477 0.34589
 H234 H 0.12977 0.42461 0.31666
 H235 H 0.11364 0.32576 0.43987
 H236 H 0.13979 0.30608 0.40820
 H237 H 0.08274 0.36852 0.30952
 H238 H 0.05344 0.38467 0.33883
 H239 H 0.18962 0.36258 0.41469
 H240 H 0.16281 0.38022 0.44524
 O241 O 0.62710 0.84908 0.30729
 O242 O 0.59695 0.88089 0.30421
 O243 O 0.68798 0.88592 0.34317
 O244 O 0.69377 0.90725 0.37848
 O245 O 0.66350 0.81351 0.36873
 O246 O 0.62991 0.80009 0.39396
 O247 O 0.61587 0.93211 0.41833
 O248 O 0.64408 0.94628 0.38773
 O249 O 0.55622 0.90018 0.37949
 O250 O 0.55312 0.86824 0.34599
 O251 O 0.58774 0.86450 0.43892
 O252 O 0.62524 0.83751 0.44377
 O253 O 0.61895 0.89895 0.44415
 O254 O 0.64960 0.86569 0.44782
 O255 O 0.55895 0.86275 0.40801
 O256 O 0.55442 0.83958 0.36948
 O257 O 0.58274 0.93274 0.38446
 O258 O 0.61670 0.94770 0.35762
 O259 O 0.62968 0.81563 0.33288
 O260 O 0.60239 0.80125 0.36598
 O261 O 0.69122 0.84693 0.37315
 O262 O 0.69266 0.87710 0.40660
 O263 O 0.65827 0.88726 0.31308
 O264 O 0.62139 0.91051 0.30850
 Zr265 Zr 0.62494 0.87917 0.33172
 O266 O 0.59923 0.89644 0.35519
 Zr267 Zr 0.66785 0.87771 0.37601
 O268 O 0.64399 0.89527 0.40151
 Zr269 Zr 0.62857 0.83044 0.36917
 O270 O 0.60311 0.84568 0.39456
 Zr271 Zr 0.61827 0.91710 0.38233
 O272 O 0.64418 0.90208 0.35694
 Zr273 Zr 0.57933 0.86949 0.37535
 O274 O 0.60292 0.85202 0.34952
 Zr275 Zr 0.62197 0.86858 0.42000
 O276 O 0.64792 0.85076 0.39645
 O277 O 0.64994 0.85609 0.34957
 O278 O 0.59680 0.89146 0.40210
 C279 C 0.62859 0.82578 0.31118
 C280 C 0.68082 0.88908 0.32052
 C281 C 0.68714 0.82234 0.37070
 C282 C 0.61664 0.92216 0.44010
 C283 C 0.56085 0.92320 0.38275
 C284 C 0.56529 0.86245 0.43100
 H285 H 0.58813 0.90673 0.34499
 H286 H 0.59381 0.83228 0.40311
 H287 H 0.66174 0.84827 0.33792
 H288 H 0.65394 0.90530 0.41326
 H289 H 0.65769 0.94385 0.37556
 H290 H 0.68723 0.91916 0.39071
 H291 H 0.55962 0.82582 0.38036
 H292 H 0.58946 0.80692 0.35426
 H293 H 0.60374 0.94434 0.34501
 H294 H 0.63095 0.92400 0.31655
 H295 H 0.61180 0.82566 0.43955
 H296 H 0.63914 0.80585 0.40882
 H297 H 0.58483 0.86756 0.30815
 H298 H 0.55450 0.88389 0.33653
 H299 H 0.68859 0.86214 0.41651
 H300 H 0.66079 0.88022 0.44617
 O301 O 0.62134 0.65340 0.19113
 O302 O 0.58998 0.62231 0.19192
 O303 O 0.68491 0.61348 0.16549
 O304 O 0.69577 0.59163 0.13242
 O305 O 0.66794 0.68475 0.13333
 O306 O 0.63818 0.69811 0.10379
 O307 O 0.62129 0.56490 0.08413
 O308 O 0.64483 0.55182 0.11857
 O309 O 0.55892 0.59950 0.11260
 O310 O 0.55215 0.63337 0.14256
 O311 O 0.60133 0.63371 0.05611
 O312 O 0.64025 0.65708 0.05486
 O313 O 0.62938 0.59647 0.05725
 O314 O 0.66357 0.62849 0.05698
 O315 O 0.56787 0.63446 0.08202
 O316 O 0.55909 0.66101 0.11859
 O317 O 0.58437 0.56635 0.11314
 O318 O 0.61376 0.55270 0.14527
 O319 O 0.62950 0.68542 0.16466
 O320 O 0.60721 0.69838 0.12770
 O321 O 0.69370 0.65183 0.13437
 O322 O 0.69865 0.61897 0.10293
 O323 O 0.65164 0.61486 0.19171
 O324 O 0.61326 0.59177 0.19188
 Zr325 Zr 0.62140 0.62209 0.16821
 O326 O 0.59829 0.60413 0.14228
 Zr327 Zr 0.67008 0.62075 0.13007
 O328 O 0.64923 0.60192 0.10268
 Zr329 Zr 0.63236 0.66878 0.12930
 O330 O 0.61025 0.65252 0.10130
 Zr331 Zr 0.61997 0.58171 0.11924
 O332 O 0.64294 0.59768 0.14697
 Zr333 Zr 0.58273 0.63009 0.11795
 O334 O 0.60323 0.64846 0.14610
 Zr335 Zr 0.63156 0.62804 0.08001
 O336 O 0.65449 0.64693 0.10589
 O337 O 0.64964 0.64384 0.15284
 O338 O 0.60292 0.60653 0.09519
 C339 C 0.62487 0.67640 0.18643
 C340 C 0.67485 0.61195 0.18722
 C341 C 0.68961 0.67515 0.13474
 C342 C 0.62510 0.57359 0.06212
 C343 C 0.56288 0.57624 0.11125
 C344 C 0.57796 0.63535 0.06030
 H345 H 0.58535 0.59462 0.15134
 H346 H 0.60301 0.66563 0.09085
 H347 H 0.66005 0.65202 0.16564
 H348 H 0.66018 0.59099 0.09300
 H349 H 0.65681 0.55458 0.13229
 H350 H 0.68945 0.57814 0.12173
 H351 H 0.56580 0.67339 0.10670
 H352 H 0.59241 0.69323 0.13749
 H353 H 0.59918 0.55683 0.15562
 H354 H 0.62394 0.57809 0.18633
 H355 H 0.62911 0.67095 0.05865
 H356 H 0.64983 0.69198 0.09098
 H357 H 0.57878 0.63510 0.18529
 H358 H 0.55220 0.61898 0.15394
 H359 H 0.69716 0.63379 0.09222
 H360 H 0.67237 0.61278 0.05955
 O361 O 0.36352 0.83328 0.68414
 O362 O 0.39059 0.86464 0.70094
 O363 O 0.30626 0.88074 0.65130
 O364 O 0.30432 0.90902 0.62124
 O365 O 0.33535 0.81761 0.61226
 O366 O 0.37243 0.81247 0.58736
 O367 O 0.38391 0.94576 0.60348
 O368 O 0.35241 0.94885 0.63539
 O369 O 0.44106 0.90518 0.63950
 O370 O 0.44077 0.86639 0.66420
 O371 O 0.41915 0.88480 0.56922
 O372 O 0.38404 0.86239 0.55130
 O373 O 0.38771 0.92099 0.56959
 O374 O 0.35897 0.88927 0.55232
 O375 O 0.44338 0.87653 0.60283
 O376 O 0.44226 0.84342 0.63486
 O377 O 0.41462 0.93745 0.63748
 O378 O 0.38278 0.94378 0.66500
 O379 O 0.36560 0.80904 0.64964
 O380 O 0.39599 0.80515 0.61765
 O381 O 0.30864 0.84978 0.61253
 O382 O 0.31076 0.88870 0.58825
 O383 O 0.33012 0.87080 0.68473
 O384 O 0.36549 0.89229 0.70238
 Zr385 Zr 0.36664 0.86980 0.67023
 O386 O 0.39472 0.89378 0.65647
 Zr387 Zr 0.33098 0.88073 0.62105
 O388 O 0.35745 0.90500 0.60521
 Zr389 Zr 0.37007 0.83403 0.62005
 O390 O 0.39841 0.85615 0.60431
 Zr391 Zr 0.37940 0.92087 0.63332
 O392 O 0.35077 0.89894 0.64973
 Zr393 Zr 0.41835 0.87407 0.63278
 O394 O 0.39192 0.84949 0.64871
 Zr395 Zr 0.38261 0.88486 0.58346
 O396 O 0.35414 0.86086 0.59689
 O397 O 0.34543 0.85264 0.64296
 O398 O 0.40415 0.90219 0.61050
 C399 C 0.36396 0.81212 0.67327
 C400 C 0.30924 0.87625 0.67459
 C401 C 0.31355 0.82679 0.61021
 C402 C 0.38695 0.94230 0.58001
 C403 C 0.43643 0.92834 0.63954
 C404 C 0.44028 0.88088 0.57955
 H405 H 0.40381 0.90151 0.67047
 H406 H 0.40922 0.84567 0.59400
 H407 H 0.33259 0.84171 0.65050
 H408 H 0.34861 0.91765 0.59545
 H409 H 0.33992 0.94345 0.64793
 H410 H 0.31356 0.92480 0.61963
 H411 H 0.44068 0.83415 0.61907
 H412 H 0.40793 0.80768 0.63144
 H413 H 0.37327 0.93556 0.67847
 H414 H 0.35360 0.90567 0.69899
 H415 H 0.39361 0.84753 0.55560
 H416 H 0.36279 0.82112 0.57436
 H417 H 0.40405 0.85380 0.69508
 H418 H 0.43708 0.87873 0.67720
 H419 H 0.31587 0.87659 0.57551
 H420 H 0.34742 0.90279 0.55614
 O421 O 0.85975 0.35105 0.69529
 O422 O 0.88774 0.38251 0.70601
 O423 O 0.80576 0.38997 0.65100
 O424 O 0.80492 0.41147 0.61599
 O425 O 0.83386 0.31962 0.62751
 O426 O 0.87069 0.30760 0.60663
 O427 O 0.89005 0.44233 0.59484
 O428 O 0.85705 0.45374 0.62024
 O429 O 0.94199 0.40762 0.63891
 O430 O 0.94034 0.37380 0.66981
 O431 O 0.92011 0.37539 0.57272
 O432 O 0.88687 0.35182 0.55826
 O433 O 0.88960 0.41202 0.56559
 O434 O 0.85892 0.37654 0.55559
 O435 O 0.94377 0.37302 0.60768
 O436 O 0.94081 0.34582 0.64534
 O437 O 0.91649 0.44000 0.63187
 O438 O 0.87794 0.45173 0.65562
 O439 O 0.86325 0.31930 0.66789
 O440 O 0.89443 0.30763 0.63727
 O441 O 0.80826 0.35179 0.61971
 O442 O 0.81276 0.38505 0.58738
 O443 O 0.82924 0.38834 0.68619
 O444 O 0.86548 0.41287 0.69824
 Zr445 Zr 0.86573 0.38264 0.67343
 O446 O 0.89541 0.40155 0.65609
 Zr447 Zr 0.83124 0.38348 0.62217
 O448 O 0.85888 0.40380 0.60285
 Zr449 Zr 0.86884 0.33657 0.63282
 O450 O 0.89781 0.35421 0.61276
 Zr451 Zr 0.88098 0.42404 0.62793
 O452 O 0.85091 0.40686 0.64681
 Zr453 Zr 0.91833 0.37660 0.63727
 O454 O 0.89069 0.35725 0.65781
 Zr455 Zr 0.88354 0.37900 0.58621
 O456 O 0.85445 0.35843 0.60373
 O457 O 0.84441 0.36045 0.65011
 O458 O 0.90536 0.40048 0.60981
 C459 C 0.86026 0.32804 0.69001
 C460 C 0.80846 0.39097 0.67474
 C461 C 0.81249 0.32866 0.62238
 C462 C 0.89192 0.43471 0.57238
 C463 C 0.93794 0.43068 0.63580
 C464 C 0.94108 0.37321 0.58390
 H465 H 0.90477 0.41113 0.66865
 H466 H 0.90826 0.34161 0.60477
 H467 H 0.83101 0.35173 0.65939
 H468 H 0.85092 0.41475 0.59052
 H469 H 0.84132 0.45023 0.62925
 H470 H 0.81410 0.42596 0.60932
 H471 H 0.93936 0.33413 0.63127
 H472 H 0.90547 0.31239 0.65123
 H473 H 0.89089 0.44905 0.66836
 H474 H 0.85579 0.42601 0.69007
 H475 H 0.89042 0.33610 0.56685
 H476 H 0.86254 0.31363 0.59128
 H477 H 0.90168 0.37125 0.70264
 H478 H 0.93641 0.38793 0.68068
 H479 H 0.81654 0.36962 0.57840
 H480 H 0.85000 0.39235 0.55442
 O481 O 0.82048 0.88773 0.17658
 O482 O 0.80972 0.91524 0.14383
 O483 O 0.83324 0.82046 0.13563
 O484 O 0.85966 0.80647 0.10785
 O485 O 0.88478 0.84578 0.19402
 O486 O 0.91652 0.87575 0.19512
 O487 O 0.89609 0.87763 0.05934
 O488 O 0.85961 0.85393 0.05908
 O489 O 0.87907 0.94350 0.09584
 O490 O 0.86108 0.95467 0.13489
 O491 O 0.94286 0.90454 0.11516
 O492 O 0.95130 0.86869 0.14091
 O493 O 0.93082 0.87260 0.08268
 O494 O 0.94052 0.84228 0.11691
 O495 O 0.91832 0.93788 0.12084
 O496 O 0.89026 0.94878 0.15739
 O497 O 0.86864 0.91525 0.06630
 O498 O 0.83403 0.88428 0.06565
 O499 O 0.85532 0.88396 0.20016
 O500 O 0.89433 0.90704 0.19871
 O501 O 0.87288 0.81640 0.16614
 O502 O 0.89521 0.80769 0.12551
 O503 O 0.80846 0.85347 0.14229
 O504 O 0.80128 0.88930 0.11664
 Zr505 Zr 0.83274 0.88424 0.13951
 O506 O 0.85213 0.90510 0.11243
 Zr507 Zr 0.86909 0.83586 0.13197
 O508 O 0.88930 0.85426 0.10348
 Zr509 Zr 0.88374 0.87870 0.17376
 O510 O 0.90561 0.89826 0.14771
 Zr511 Zr 0.86762 0.88129 0.08597
 O512 O 0.84617 0.86028 0.11187
 Zr513 Zr 0.88286 0.92305 0.12865
 O514 O 0.86130 0.90513 0.15643
 Zr515 Zr 0.91858 0.87428 0.11995
 O516 O 0.89969 0.85404 0.14824
 O517 O 0.85403 0.85886 0.15874
 O518 O 0.89771 0.90051 0.10108
 C519 C 0.83190 0.88729 0.19762
 C520 C 0.81197 0.83020 0.13966
 C521 C 0.87955 0.82348 0.18809
 C522 C 0.91958 0.87440 0.06162
 C523 C 0.87345 0.93743 0.07350
 C524 C 0.93930 0.92786 0.11610
 H525 H 0.84065 0.91700 0.10477
 H526 H 0.91938 0.90673 0.15647
 H527 H 0.84409 0.84968 0.17133
 H528 H 0.89529 0.84215 0.09118
 H529 H 0.84823 0.84185 0.06719
 H530 H 0.86404 0.81190 0.09076
 H531 H 0.90670 0.94499 0.16456
 H532 H 0.88271 0.92080 0.19604
 H533 H 0.82570 0.89962 0.07076
 H534 H 0.80263 0.87729 0.10286
 H535 H 0.95167 0.88108 0.15440
 H536 H 0.92720 0.86383 0.18635
 H537 H 0.81956 0.92767 0.15315
 H538 H 0.84475 0.95175 0.12697
 H539 H 0.90876 0.81001 0.13776
 H540 H 0.93352 0.83195 0.10341
 O541 O 0.38261 0.35418 0.19666
 O542 O 0.41441 0.38538 0.19278
 O543 O 0.31796 0.39143 0.17159
 O544 O 0.30683 0.41300 0.13773
 O545 O 0.33338 0.31928 0.14314
 O546 O 0.36234 0.30332 0.11407
 O547 O 0.37905 0.43367 0.08152
 O548 O 0.35544 0.44980 0.11589
 O549 O 0.44162 0.40216 0.11119
 O550 O 0.45011 0.37068 0.14217
 O551 O 0.39627 0.36391 0.05921
 O552 O 0.35688 0.33942 0.06354
 O553 O 0.36778 0.40020 0.05857
 O554 O 0.33460 0.36890 0.06246
 O555 O 0.43099 0.36533 0.08320
 O556 O 0.44118 0.34085 0.12201
 O557 O 0.41615 0.43529 0.11054
 O558 O 0.38814 0.45182 0.14078
 O559 O 0.37326 0.32053 0.17309
 O560 O 0.39376 0.30462 0.13669
 O561 O 0.30768 0.35229 0.14293
 O562 O 0.30101 0.38294 0.11055
 O563 O 0.35252 0.39215 0.19593
 O564 O 0.39051 0.41581 0.19192
 Zr565 Zr 0.38163 0.38382 0.17118
 O566 O 0.40332 0.39968 0.14247
 Zr567 Zr 0.33127 0.38280 0.13572
 O568 O 0.35069 0.39902 0.10545
 Zr569 Zr 0.36894 0.33454 0.13672
 O570 O 0.38979 0.34837 0.10636
 Zr571 Zr 0.38073 0.42036 0.11849
 O572 O 0.35930 0.40685 0.14904
 Zr573 Zr 0.41796 0.37201 0.11961
 O574 O 0.39882 0.35591 0.15031
 Zr575 Zr 0.36725 0.37103 0.08432
 O576 O 0.34558 0.35471 0.11300
 O577 O 0.35276 0.36114 0.15902
 O578 O 0.39662 0.39362 0.09594
 C579 C 0.37875 0.33092 0.19392
 C580 C 0.32901 0.39414 0.19269
 C581 C 0.31177 0.32904 0.14446
 C582 C 0.37354 0.42308 0.06078
 C583 C 0.43762 0.42534 0.10872
 C584 C 0.41985 0.36286 0.06215
 H585 H 0.41660 0.40984 0.15011
 H586 H 0.39657 0.33450 0.09670
 H587 H 0.34291 0.35373 0.17281
 H588 H 0.33934 0.40916 0.09535
 H589 H 0.34463 0.44875 0.13083
 H590 H 0.31149 0.42461 0.12419
 H591 H 0.43487 0.32828 0.11022
 H592 H 0.40925 0.31063 0.14464
 H593 H 0.40110 0.44744 0.15299
 H594 H 0.37909 0.42884 0.18622
 H595 H 0.36996 0.32694 0.06570
 H596 H 0.35023 0.30842 0.10125
 H597 H 0.42477 0.37142 0.18735
 H598 H 0.44952 0.38481 0.15375
 H599 H 0.30247 0.36802 0.10009
 H600 H 0.32513 0.38418 0.06519
 O601 O 0.37997 0.66041 0.81050
 O602 O 0.41359 0.63100 0.80644
 O603 O 0.31876 0.61344 0.83137
 O604 O 0.31009 0.58609 0.86153
 O605 O 0.33394 0.68057 0.87152
 O606 O 0.36366 0.69154 0.90344
 O607 O 0.38428 0.55919 0.90778
 O608 O 0.35979 0.54954 0.87094
 O609 O 0.44561 0.59936 0.88184
 O610 O 0.45153 0.63615 0.85578
 O611 O 0.40318 0.62548 0.94201
 O612 O 0.36267 0.64763 0.94482
 O613 O 0.37567 0.58777 0.93741
 O614 O 0.34199 0.61669 0.94236
 O615 O 0.43621 0.63082 0.91598
 O616 O 0.44379 0.66140 0.88167
 O617 O 0.42073 0.56541 0.87822
 O618 O 0.39272 0.55308 0.84638
 O619 O 0.37304 0.68795 0.84164
 O620 O 0.39333 0.69779 0.87922
 O621 O 0.30915 0.64665 0.86664
 O622 O 0.30508 0.61077 0.89378
 O623 O 0.35164 0.62000 0.80533
 O624 O 0.39054 0.59983 0.80167
 Zr625 Zr 0.38193 0.62601 0.82940
 O626 O 0.40546 0.60576 0.85310
 Zr627 Zr 0.33386 0.61689 0.86738
 O628 O 0.35537 0.59657 0.89286
 Zr629 Zr 0.37010 0.66653 0.87401
 O630 O 0.39339 0.64850 0.89939
 Zr631 Zr 0.38485 0.57971 0.87409
 O632 O 0.36167 0.59774 0.84789
 Zr633 Zr 0.42104 0.62933 0.87994
 O634 O 0.39963 0.65017 0.85455
 Zr635 Zr 0.37271 0.62100 0.91795
 O636 O 0.34868 0.64092 0.89446
 O637 O 0.35331 0.64392 0.84759
 O638 O 0.40167 0.60257 0.90040
 C639 C 0.37675 0.68248 0.81872
 C640 C 0.32857 0.61526 0.80953
 C641 C 0.31260 0.67000 0.86891
 C642 C 0.38044 0.56577 0.93052
 C643 C 0.44207 0.57590 0.88098
 C644 C 0.42641 0.62901 0.93778
 H645 H 0.41846 0.59784 0.84298
 H646 H 0.40051 0.66076 0.91103
 H647 H 0.34260 0.65309 0.83589
 H648 H 0.34481 0.58417 0.90149
 H649 H 0.34899 0.55302 0.85645
 H650 H 0.31588 0.57258 0.87241
 H651 H 0.43769 0.67171 0.89553
 H652 H 0.40911 0.69428 0.87050
 H653 H 0.40391 0.56083 0.83393
 H654 H 0.38106 0.58464 0.80598
 H655 H 0.37519 0.66113 0.94423
 H656 H 0.35086 0.68385 0.91434
 H657 H 0.42348 0.64459 0.81389
 H658 H 0.45068 0.62392 0.84216
 H659 H 0.30687 0.62367 0.90670
 H660 H 0.33192 0.60251 0.93644
 O661 O 0.12314 0.65555 0.69050
 O662 O 0.09181 0.62441 0.69196
 O663 O 0.18646 0.61606 0.66415
 O664 O 0.19535 0.59235 0.63140
 O665 O 0.16913 0.68616 0.63051
 O666 O 0.13831 0.70035 0.60321
 O667 O 0.12050 0.56702 0.58337
 O668 O 0.14498 0.55386 0.61731
 O669 O 0.05906 0.60211 0.61356
 O670 O 0.05287 0.63596 0.64285
 O671 O 0.10050 0.63547 0.55581
 O672 O 0.14010 0.65946 0.55451
 O673 O 0.12876 0.59857 0.55646
 O674 O 0.16250 0.63026 0.55513
 O675 O 0.06743 0.63627 0.58220
 O676 O 0.06019 0.66387 0.61907
 O677 O 0.08437 0.56884 0.61409
 O678 O 0.11425 0.55460 0.64445
 O679 O 0.13144 0.68753 0.66403
 O680 O 0.10816 0.70048 0.62767
 O681 O 0.19470 0.65308 0.63172
 O682 O 0.19906 0.62016 0.60147
 O683 O 0.15350 0.61725 0.69075
 O684 O 0.11504 0.59390 0.69148
 Zr685 Zr 0.12279 0.62421 0.66767
 O686 O 0.09916 0.60649 0.64206
 Zr687 Zr 0.17069 0.62233 0.62879
 O688 O 0.14928 0.60386 0.60157
 Zr689 Zr 0.13319 0.67075 0.62852
 O690 O 0.11049 0.65472 0.60080
 Zr691 Zr 0.12023 0.58383 0.61863
 O692 O 0.14371 0.59951 0.64615
 Zr693 Zr 0.08319 0.63248 0.61795
 O694 O 0.10429 0.65060 0.64586
 Zr695 Zr 0.13127 0.63006 0.57920
 O696 O 0.15473 0.64858 0.60484
 O697 O 0.15085 0.64580 0.65177
 O698 O 0.10282 0.60871 0.59490
 C699 C 0.12687 0.67853 0.68586
 C700 C 0.17672 0.61467 0.68606
 C701 C 0.19074 0.67637 0.63115
 C702 C 0.12424 0.57576 0.56135
 C703 C 0.06290 0.57883 0.61282
 C704 C 0.07714 0.63693 0.56028
 H705 H 0.08637 0.59709 0.65146
 H706 H 0.10314 0.66783 0.59043
 H707 H 0.16160 0.65411 0.66419
 H708 H 0.15996 0.59288 0.59166
 H709 H 0.15704 0.55633 0.63101
 H710 H 0.18959 0.57963 0.61951
 H711 H 0.06601 0.67556 0.60604
 H712 H 0.09350 0.69529 0.63764
 H713 H 0.10104 0.55953 0.65619
 H714 H 0.12600 0.58037 0.68612
 H715 H 0.12767 0.67252 0.55698
 H716 H 0.14856 0.69395 0.58938
 H717 H 0.08060 0.63735 0.68569
 H718 H 0.05360 0.62212 0.65489
 H719 H 0.19683 0.63425 0.58994
 H720 H 0.17177 0.61489 0.55812
 O721 O 0.11939 0.15607 0.18874
 O722 O 0.08814 0.12487 0.18928
 O723 O 0.18326 0.11638 0.16329
 O724 O 0.19364 0.09407 0.13011
 O725 O 0.16649 0.18752 0.13181
 O726 O 0.13713 0.20120 0.10174
 O727 O 0.11980 0.06852 0.08109
 O728 O 0.14337 0.05513 0.11549
 O729 O 0.05730 0.10282 0.11007
 O730 O 0.05050 0.13673 0.13969
 O731 O 0.09980 0.13698 0.05343
 O732 O 0.13894 0.16104 0.05284
 O733 O 0.12831 0.10017 0.05443
 O734 O 0.16206 0.13227 0.05430
 O735 O 0.06620 0.13723 0.07917
 O736 O 0.05779 0.16450 0.11580
 O737 O 0.08300 0.06987 0.10997
 O738 O 0.11201 0.05564 0.14189
 O739 O 0.12766 0.18827 0.16252
 O740 O 0.10591 0.20160 0.12550
 O741 O 0.19213 0.15448 0.13253
 O742 O 0.19737 0.12226 0.10095
 O743 O 0.14985 0.11767 0.18932
 O744 O 0.11140 0.09435 0.18901
 Zr745 Zr 0.11964 0.12489 0.16566
 O746 O 0.09667 0.10724 0.13944
 Zr747 Zr 0.16847 0.12365 0.12777
 O748 O 0.14776 0.10528 0.09999
 Zr749 Zr 0.13085 0.17183 0.12709
 O750 O 0.10875 0.15590 0.09883
 Zr751 Zr 0.11849 0.08500 0.11633
 O752 O 0.14125 0.10057 0.14441
 Zr753 Zr 0.08116 0.13337 0.11521
 O754 O 0.10160 0.15144 0.14362
 Zr755 Zr 0.13013 0.13157 0.07744
 O756 O 0.15303 0.15005 0.10367
 O757 O 0.14793 0.14667 0.15055
 O758 O 0.10149 0.10997 0.09241
 C759 C 0.12290 0.17910 0.18421
 C760 C 0.17311 0.11484 0.18499
 C761 C 0.18808 0.17776 0.13334
 C762 C 0.12384 0.07729 0.05915
 C763 C 0.06144 0.07963 0.10844
 C764 C 0.07633 0.13814 0.05745
 H765 H 0.08370 0.09767 0.14840
 H766 H 0.10153 0.16905 0.08842
 H767 H 0.15822 0.15476 0.16351
 H768 H 0.15874 0.09443 0.09025
 H769 H 0.15519 0.05768 0.12939
 H770 H 0.18784 0.08119 0.11842
 H771 H 0.06394 0.17639 0.10312
 H772 H 0.09078 0.19623 0.13464
 H773 H 0.09771 0.05994 0.15256
 H774 H 0.12230 0.08081 0.18355
 H775 H 0.12722 0.17453 0.05620
 H776 H 0.14889 0.19503 0.08905
 H777 H 0.07703 0.13783 0.18285
 H778 H 0.05073 0.12252 0.15131
 H779 H 0.19569 0.13696 0.09010
 H780 H 0.17126 0.11686 0.05728
 O781 O 0.68949 0.38531 0.84641
 O782 O 0.69478 0.40596 0.88447
 O783 O 0.66447 0.31235 0.87063
 O784 O 0.63337 0.29710 0.89276
 O785 O 0.62790 0.34952 0.80967
 O786 O 0.59864 0.38159 0.80730
 O787 O 0.59216 0.36093 0.94303
 O788 O 0.62626 0.33532 0.94609
 O789 O 0.61886 0.43049 0.92234
 O790 O 0.64593 0.44635 0.88881
 O791 O 0.55843 0.40017 0.88405
 O792 O 0.55303 0.36886 0.85236
 O793 O 0.56180 0.36348 0.91375
 O794 O 0.55703 0.33870 0.87388
 O795 O 0.58543 0.43243 0.88814
 O796 O 0.62058 0.44706 0.86179
 O797 O 0.62174 0.39705 0.94782
 O798 O 0.65409 0.36490 0.94976
 O799 O 0.66035 0.38622 0.81575
 O800 O 0.62328 0.41142 0.81291
 O801 O 0.63014 0.31560 0.83460
 O802 O 0.60135 0.30244 0.86846
 O803 O 0.69271 0.34540 0.87494
 O804 O 0.69567 0.37525 0.90828
 Zr805 Zr 0.66966 0.37626 0.87882
 O806 O 0.64660 0.39394 0.90465
 Zr807 Zr 0.62973 0.32967 0.87131
 O808 O 0.60535 0.34482 0.89791
 Zr809 Zr 0.62658 0.37910 0.83478
 O810 O 0.60111 0.39597 0.85908
 Zr811 Zr 0.62506 0.36711 0.92318
 O812 O 0.64991 0.34901 0.89889
 Zr813 Zr 0.62078 0.41618 0.88605
 O814 O 0.64630 0.40123 0.86026
 Zr815 Zr 0.58121 0.36920 0.87980
 O816 O 0.60417 0.35223 0.85270
 O817 O 0.65130 0.35536 0.85202
 O818 O 0.59961 0.39059 0.90629
 C819 C 0.68282 0.38825 0.82369
 C820 C 0.68826 0.32089 0.87226
 C821 C 0.62901 0.32613 0.81308
 C822 C 0.56936 0.36064 0.93633
 C823 C 0.61965 0.42032 0.94399
 C824 C 0.56336 0.42321 0.88689
 H825 H 0.65697 0.40367 0.91626
 H826 H 0.58996 0.40653 0.84920
 H827 H 0.66289 0.34753 0.84016
 H828 H 0.59627 0.33145 0.90675
 H829 H 0.63867 0.32422 0.93859
 H830 H 0.62412 0.29957 0.90850
 H831 H 0.60753 0.44418 0.84914
 H832 H 0.63472 0.42387 0.82019
 H833 H 0.66403 0.38034 0.94899
 H834 H 0.69139 0.36062 0.91859
 H835 H 0.55660 0.38261 0.84067
 H836 H 0.58590 0.36897 0.81166
 H837 H 0.68723 0.42058 0.87655
 H838 H 0.65856 0.44214 0.90145
 H839 H 0.58966 0.30809 0.85547
 H840 H 0.56009 0.32641 0.88716
 O841 O 0.12707 0.84873 0.81040
 O842 O 0.09854 0.88134 0.80694
 O843 O 0.18894 0.88694 0.84638
 O844 O 0.19626 0.90607 0.88173
 O845 O 0.16445 0.81355 0.87151
 O846 O 0.13106 0.79993 0.89686
 O847 O 0.11766 0.93240 0.92084
 O848 O 0.14599 0.94625 0.88975
 O849 O 0.05776 0.90058 0.88282
 O850 O 0.05283 0.86837 0.85180
 O851 O 0.09119 0.86285 0.94284
 O852 O 0.12812 0.83890 0.94813
 O853 O 0.12087 0.89949 0.94696
 O854 O 0.15346 0.86622 0.94944
 O855 O 0.06095 0.86516 0.91345
 O856 O 0.05675 0.83891 0.87436
 O857 O 0.08450 0.93308 0.88691
 O858 O 0.11768 0.94779 0.86041
 O859 O 0.13016 0.81537 0.83602
 O860 O 0.10292 0.80164 0.86964
 O861 O 0.19236 0.84697 0.87529
 O862 O 0.19362 0.87727 0.90972
 O863 O 0.16019 0.88471 0.81540
 O864 O 0.12358 0.91085 0.81199
 Zr865 Zr 0.12628 0.87899 0.83464
 O866 O 0.10058 0.89615 0.85840
 Zr867 Zr 0.16917 0.87766 0.87883
 O868 O 0.14580 0.89567 0.90424
 Zr869 Zr 0.12957 0.83046 0.87230
 O870 O 0.10484 0.84592 0.89828
 Zr871 Zr 0.11989 0.91718 0.88501
 O872 O 0.14567 0.90204 0.85961
 Zr873 Zr 0.08070 0.86973 0.87954
 O874 O 0.10392 0.85234 0.85303
 Zr875 Zr 0.12435 0.86890 0.92313
 O876 O 0.14954 0.85061 0.89932
 O877 O 0.15107 0.85588 0.85257
 O878 O 0.09885 0.89182 0.90566
 C879 C 0.12862 0.82545 0.81430
 C880 C 0.18254 0.88782 0.82338
 C881 C 0.18813 0.82239 0.87301
 C882 C 0.11851 0.92266 0.94267
 C883 C 0.06256 0.92364 0.88548
 C884 C 0.06837 0.86272 0.93611
 H885 H 0.08934 0.90630 0.84821
 H886 H 0.09573 0.83260 0.90715
 H887 H 0.16264 0.84783 0.84085
 H888 H 0.15590 0.90586 0.91573
 H889 H 0.15917 0.94389 0.87709
 H890 H 0.18895 0.91937 0.89184
 H891 H 0.05955 0.82714 0.88818
 H892 H 0.08974 0.80759 0.85837
 H893 H 0.10662 0.94320 0.84645
 H894 H 0.13527 0.92325 0.81894
 H895 H 0.11789 0.82507 0.94168
 H896 H 0.14138 0.80519 0.91118
 H897 H 0.08558 0.86902 0.81151
 H898 H 0.05594 0.88226 0.84017
 H899 H 0.19080 0.86146 0.91864
 H900 H 0.16274 0.88208 0.94940
 O901 O 0.68394 0.11620 0.66242
 O902 O 0.69110 0.09142 0.62673
 O903 O 0.66639 0.18633 0.62880
 O904 O 0.63737 0.20198 0.60464
 O905 O 0.62163 0.15561 0.68991
 O906 O 0.58966 0.12500 0.69153
 O907 O 0.59701 0.13546 0.55520
 O908 O 0.63311 0.16016 0.55376
 O909 O 0.61731 0.06697 0.58275
 O910 O 0.64011 0.05225 0.61833
 O911 O 0.55593 0.10191 0.61420
 O912 O 0.55024 0.13612 0.64290
 O913 O 0.56422 0.13585 0.58200
 O914 O 0.55720 0.16372 0.61866
 O915 O 0.58131 0.06873 0.61479
 O916 O 0.61421 0.05514 0.64484
 O917 O 0.62477 0.09847 0.55555
 O918 O 0.65900 0.12917 0.55403
 O919 O 0.65135 0.11695 0.68950
 O920 O 0.61261 0.09423 0.69101
 O921 O 0.62905 0.18753 0.66315
 O922 O 0.60371 0.19921 0.62631
 O923 O 0.69190 0.15319 0.63007
 O924 O 0.69686 0.11995 0.60094
 Zr925 Zr 0.66777 0.12248 0.62733
 O926 O 0.64609 0.10393 0.60054
 Zr927 Zr 0.63036 0.17083 0.62757
 O928 O 0.60741 0.15459 0.60011
 Zr929 Zr 0.62041 0.12435 0.66696
 O930 O 0.59649 0.10643 0.64173
 Zr931 Zr 0.62781 0.12991 0.57828
 O932 O 0.65158 0.14866 0.60343
 Zr933 Zr 0.61736 0.08381 0.61807
 O934 O 0.64112 0.09974 0.64517
 Zr935 Zr 0.58024 0.13236 0.61768
 O936 O 0.60169 0.15065 0.64531
 O937 O 0.64826 0.14591 0.65065
 O938 O 0.59955 0.10852 0.59445
 C939 C 0.67448 0.11440 0.68440
 C940 C 0.68801 0.17651 0.62967
 C941 C 0.62512 0.17859 0.68512
 C942 C 0.57371 0.13674 0.55998
 C943 C 0.62058 0.07564 0.56062
 C944 C 0.55976 0.07860 0.61391
 H945 H 0.65682 0.09308 0.59055
 H946 H 0.58394 0.09698 0.65141
 H947 H 0.65924 0.15419 0.66289
 H948 H 0.60002 0.16755 0.58956
 H949 H 0.64579 0.17107 0.56148
 H950 H 0.63005 0.19840 0.58813
 H951 H 0.59958 0.05857 0.65542
 H952 H 0.62345 0.08060 0.68568
 H953 H 0.66809 0.11370 0.55701
 H954 H 0.69398 0.13300 0.58835
 H955 H 0.55146 0.12271 0.65537
 H956 H 0.57875 0.13835 0.68559
 H957 H 0.68205 0.07807 0.63570
 H958 H 0.65527 0.05623 0.60861
 H959 H 0.59052 0.19476 0.63846
 H960 H 0.56290 0.17529 0.60548
 C961 C 0.36279 0.78941 0.68838
 C962 C 0.36359 0.78932 0.71435
 C963 C 0.36533 0.76634 0.72934
 C964 C 0.35773 0.76673 0.75434
 C965 C 0.35993 0.74578 0.76938
 C966 C 0.37031 0.72400 0.75986
 C967 C 0.37751 0.72344 0.73473
 C968 C 0.37524 0.74442 0.71963
 C969 C 0.37359 0.70175 0.77572
 C970 C 0.37658 0.70357 0.80145
 H971 H 0.36270 0.80673 0.72415
 H972 H 0.34993 0.78329 0.76226
 H973 H 0.35321 0.74673 0.78837
 H974 H 0.38545 0.70690 0.72691
 H975 H 0.38191 0.74349 0.70062
 H976 H 0.37401 0.68378 0.76698
 H977 H 0.36211 0.77211 0.67841
 H978 H 0.37762 0.72165 0.80990
 C979 C 0.37487 0.19669 0.29492
 C980 C 0.37215 0.22188 0.29905
 C981 C 0.37185 0.23974 0.27810
 C982 C 0.38080 0.26387 0.28165
 C983 C 0.38150 0.28071 0.26177
 C984 C 0.37287 0.27374 0.23798
 C985 C 0.36332 0.24978 0.23474
 C986 C 0.36269 0.23302 0.25452
 C987 C 0.37345 0.29040 0.21597
 C988 C 0.37997 0.31541 0.21649
 H989 H 0.37140 0.22875 0.31799
 H990 H 0.38776 0.26953 0.29971
 H991 H 0.38908 0.29889 0.26523
 H992 H 0.35627 0.24395 0.21676
 H993 H 0.35479 0.21488 0.25129
 H994 H 0.36779 0.28253 0.19828
 H995 H 0.37780 0.19014 0.27609
 H996 H 0.38511 0.32428 0.23376
 C997 C 0.62932 0.81002 0.28896
 C998 C 0.63273 0.78459 0.29046
 C999 C 0.63285 0.76794 0.26856
 C1000 C 0.63208 0.74241 0.27281
 C1001 C 0.63177 0.72588 0.25290
 C1002 C 0.63205 0.73458 0.22813
 C1003 C 0.63349 0.76008 0.22385
 C1004 C 0.63391 0.77663 0.24378
 C1005 C 0.63152 0.71778 0.20639
 C1006 C 0.62405 0.69310 0.20791
 H1007 H 0.63472 0.77627 0.30875
 H1008 H 0.63168 0.73516 0.29167
 H1009 H 0.63166 0.70640 0.25718
 H1010 H 0.63419 0.76727 0.20498
 H1011 H 0.63528 0.79605 0.23945
 H1012 H 0.63685 0.72529 0.18836
 H1013 H 0.62672 0.81897 0.27116
 H1014 H 0.61771 0.68534 0.22543
 C1015 C 0.12677 0.31083 0.28876
 C1016 C 0.13106 0.28553 0.28992
 C1017 C 0.13114 0.26922 0.26778
 C1018 C 0.13006 0.24364 0.27160
 C1019 C 0.12976 0.22747 0.25139
 C1020 C 0.13040 0.23659 0.22677
 C1021 C 0.13223 0.26214 0.22295
 C1022 C 0.13263 0.27832 0.24317
 C1023 C 0.12989 0.22015 0.20475
 C1024 C 0.12192 0.19561 0.20582
 H1025 H 0.13376 0.27708 0.30804
 H1026 H 0.12937 0.23609 0.29033
 H1027 H 0.12940 0.20792 0.25534
 H1028 H 0.13325 0.26964 0.20421
 H1029 H 0.13440 0.29781 0.23924
 H1030 H 0.13566 0.22781 0.18693
 H1031 H 0.12324 0.31976 0.27111
 H1032 H 0.11516 0.18775 0.22313
 C1033 C 0.12622 0.69504 0.70757
 C1034 C 0.13345 0.71982 0.70662
 C1035 C 0.13369 0.73610 0.72888
 C1036 C 0.13444 0.76174 0.72537
 C1037 C 0.13445 0.77773 0.74580
 C1038 C 0.13366 0.76837 0.77036
 C1039 C 0.13363 0.74272 0.77384
 C1040 C 0.13372 0.72675 0.75343
 C1041 C 0.13324 0.78446 0.79277
 C1042 C 0.12892 0.80978 0.79193
 H1043 H 0.13862 0.72780 0.68876
 H1044 H 0.13490 0.76947 0.70671
 H1045 H 0.13533 0.79728 0.74202
 H1046 H 0.13349 0.73494 0.79249
 H1047 H 0.13419 0.70717 0.75716
 H1048 H 0.13592 0.77586 0.81082
 H1049 H 0.11994 0.68696 0.72497
 H1050 H 0.12554 0.81888 0.77433
 C1051 C 0.87613 0.19536 0.79112
 C1052 C 0.86728 0.21922 0.79395
 C1053 C 0.86503 0.23622 0.77240
 C1054 C 0.86704 0.26170 0.77622
 C1055 C 0.86578 0.27809 0.75606
 C1056 C 0.86199 0.26926 0.73164
 C1057 C 0.85950 0.24378 0.72795
 C1058 C 0.86080 0.22743 0.74808
 C1059 C 0.86164 0.28583 0.70958
 C1060 C 0.85729 0.31104 0.71124
 H1061 H 0.86250 0.22580 0.81238
 H1062 H 0.87022 0.26892 0.79477
 H1063 H 0.86849 0.29751 0.75976
 H1064 H 0.85649 0.23648 0.70940
 H1065 H 0.85824 0.20795 0.74448
 H1066 H 0.86511 0.27788 0.69140
 H1067 H 0.88239 0.18937 0.77295
 H1068 H 0.85252 0.31910 0.72901
 C1069 C 0.78588 0.39455 0.68967
 C1070 C 0.78645 0.39411 0.71565
 C1071 C 0.76401 0.39408 0.73157
 C1072 C 0.76615 0.38516 0.75601
 C1073 C 0.74559 0.38429 0.77179
 C1074 C 0.72240 0.39280 0.76363
 C1075 C 0.72011 0.40157 0.73913
 C1076 C 0.74078 0.40240 0.72323
 C1077 C 0.70044 0.39199 0.78025
 C1078 C 0.70300 0.39348 0.80603
 H1079 H 0.80418 0.39174 0.72484
 H1080 H 0.78376 0.37843 0.76282
 H1081 H 0.74791 0.37646 0.79021
 H1082 H 0.70240 0.40809 0.73240
 H1083 H 0.73846 0.40984 0.70466
 H1084 H 0.68213 0.39002 0.77212
 H1085 H 0.76841 0.39585 0.67988
 H1086 H 0.72113 0.39723 0.81396
 C1087 C 0.31239 0.61246 0.78756
 C1088 C 0.28664 0.60967 0.78966
 C1089 C 0.26957 0.60914 0.76799
 C1090 C 0.24452 0.61488 0.77185
 C1091 C 0.22783 0.61528 0.75194
 C1092 C 0.23576 0.60953 0.72762
 C1093 C 0.26077 0.60351 0.72380
 C1094 C 0.27750 0.60317 0.74374
 C1095 C 0.21892 0.61067 0.70577
 C1096 C 0.19303 0.61072 0.70768
 H1097 H 0.27839 0.60953 0.80811
 H1098 H 0.23792 0.61959 0.79032
 H1099 H 0.20896 0.62071 0.75575
 H1100 H 0.26741 0.59901 0.70529
 H1101 H 0.29647 0.59800 0.74002
 H1102 H 0.22730 0.61162 0.68739
 H1103 H 0.32101 0.61407 0.76938
 H1104 H 0.18415 0.60852 0.72567
 C1105 C 0.30872 0.10902 0.28576
 C1106 C 0.28297 0.10653 0.28814
 C1107 C 0.26572 0.10623 0.26667
 C1108 C 0.24087 0.11260 0.27073
 C1109 C 0.22407 0.11341 0.25094
 C1110 C 0.23172 0.10745 0.22659
 C1111 C 0.25650 0.10070 0.22261
 C1112 C 0.27332 0.09994 0.24242
 C1113 C 0.21490 0.10918 0.20481
 C1114 C 0.18906 0.11036 0.20674
 H1115 H 0.27488 0.10660 0.30668
 H1116 H 0.23453 0.11754 0.28922
 H1117 H 0.20539 0.11934 0.25485
 H1118 H 0.26290 0.09600 0.20407
 H1119 H 0.29213 0.09427 0.23860
 H1120 H 0.22330 0.10971 0.18643
 H1121 H 0.31720 0.11039 0.26749
 H1122 H 0.18003 0.10854 0.22469
 C1123 C 0.81190 0.10773 0.78207
 C1124 C 0.78624 0.10481 0.78476
 C1125 C 0.76872 0.10495 0.76360
 C1126 C 0.74402 0.11146 0.76822
 C1127 C 0.72693 0.11270 0.74876
 C1128 C 0.73411 0.10700 0.72422
 C1129 C 0.75876 0.10017 0.71965
 C1130 C 0.77592 0.09903 0.73914
 C1131 C 0.71683 0.10901 0.70289
 C1132 C 0.69107 0.10987 0.70557
 H1133 H 0.77837 0.10439 0.80338
 H1134 H 0.73805 0.11617 0.78690
 H1135 H 0.70838 0.11877 0.75312
 H1136 H 0.76478 0.09570 0.70092
 H1137 H 0.79463 0.09332 0.73493
 H1138 H 0.72477 0.10992 0.68431
 H1139 H 0.82018 0.10952 0.76374
 H1140 H 0.68254 0.10760 0.72372
 C1141 C 0.69924 0.89436 0.30104
 C1142 C 0.72462 0.89070 0.30405
 C1143 C 0.74182 0.89132 0.28250
 C1144 C 0.76700 0.89717 0.28612
 C1145 C 0.78350 0.89769 0.26588
 C1146 C 0.77502 0.89204 0.24172
 C1147 C 0.74992 0.88600 0.23825
 C1148 C 0.73355 0.88538 0.25837
 C1149 C 0.79138 0.89223 0.21958
 C1150 C 0.81713 0.88995 0.22053
 H1151 H 0.73198 0.88692 0.32244
 H1152 H 0.77383 0.90163 0.30457
 H1153 H 0.80265 0.90286 0.26925
 H1154 H 0.74297 0.88134 0.21988
 H1155 H 0.71454 0.87973 0.25491
 H1156 H 0.78244 0.89242 0.20149
 H1157 H 0.69213 0.89975 0.28299
 H1158 H 0.82660 0.88868 0.23824
 C1159 C 0.78965 0.68410 0.36567
 C1160 C 0.79121 0.70987 0.36693
 C1161 C 0.76956 0.72673 0.36670
 C1162 C 0.77407 0.75221 0.36905
 C1163 C 0.75448 0.76892 0.36918
 C1164 C 0.72977 0.76053 0.36692
 C1165 C 0.72520 0.73513 0.36442
 C1166 C 0.74480 0.71838 0.36429
 C1167 C 0.70852 0.77769 0.36726
 C1168 C 0.71164 0.80305 0.36991
 H1169 H 0.80949 0.71830 0.36842
 H1170 H 0.79289 0.75925 0.37090
 H1171 H 0.75873 0.78838 0.37111
 H1172 H 0.70634 0.72817 0.36260
 H1173 H 0.74022 0.69907 0.36229
 H1174 H 0.68986 0.77015 0.36557
 H1175 H 0.77186 0.67483 0.36422
 H1176 H 0.69939 0.81224 0.37026
 C1177 C 0.79095 0.31176 0.62037
 C1178 C 0.79261 0.28646 0.62501
 C1179 C 0.77086 0.26938 0.62533
 C1180 C 0.77481 0.24400 0.62266
 C1181 C 0.75489 0.22719 0.62338
 C1182 C 0.73047 0.23543 0.62720
 C1183 C 0.72655 0.26083 0.62992
 C1184 C 0.74646 0.27763 0.62913
 C1185 C 0.70860 0.21844 0.62789
 C1186 C 0.71011 0.19282 0.63029
 H1187 H 0.81076 0.27867 0.62834
 H1188 H 0.79341 0.23713 0.61977
 H1189 H 0.75887 0.20792 0.62060
 H1190 H 0.70798 0.26773 0.63291
 H1191 H 0.74260 0.29693 0.63200
 H1192 H 0.69036 0.22659 0.62671
 H1193 H 0.77327 0.31974 0.61562
 H1194 H 0.72792 0.18411 0.63245
 C1195 C 0.71143 0.69174 0.13715
 C1196 C 0.70942 0.71748 0.13721
 C1197 C 0.73083 0.73511 0.13837
 C1198 C 0.72598 0.76037 0.14112
 C1199 C 0.74535 0.77784 0.14154
 C1200 C 0.77022 0.77044 0.13918
 C1201 C 0.77506 0.74517 0.13655
 C1202 C 0.75570 0.72772 0.13609
 C1203 C 0.79164 0.78811 0.13877
 C1204 C 0.78995 0.81373 0.14149
 H1205 H 0.69100 0.72527 0.13632
 H1206 H 0.70704 0.76668 0.14280
 H1207 H 0.74052 0.79700 0.14349
 H1208 H 0.79398 0.73886 0.13459
 H1209 H 0.76052 0.70862 0.13354
 H1210 H 0.80989 0.78041 0.13585
 H1211 H 0.72936 0.68318 0.13877
 H1212 H 0.77223 0.82226 0.14477
 C1213 C 0.28997 0.31263 0.14764
 C1214 C 0.29192 0.28698 0.14662
 C1215 C 0.27027 0.26986 0.14574
 C1216 C 0.27373 0.24612 0.13613
 C1217 C 0.25378 0.22955 0.13403
 C1218 C 0.22985 0.23627 0.14190
 C1219 C 0.22642 0.25993 0.15179
 C1220 C 0.24640 0.27654 0.15385
 C1221 C 0.20803 0.21952 0.13932
 C1222 C 0.20991 0.19400 0.13658
 H1223 H 0.31017 0.27910 0.14425
 H1224 H 0.29189 0.24051 0.12969
 H1225 H 0.25721 0.21181 0.12567
 H1226 H 0.20820 0.26557 0.15802
 H1227 H 0.24302 0.29441 0.16195
 H1228 H 0.18973 0.22757 0.14025
 H1229 H 0.27194 0.32114 0.14873
 H1230 H 0.22787 0.18532 0.13735
 C1231 C 0.29044 0.68551 0.86798
 C1232 C 0.29196 0.71107 0.87074
 C1233 C 0.27028 0.72760 0.87028
 C1234 C 0.27467 0.75312 0.86864
 C1235 C 0.25495 0.76957 0.86863
 C1236 C 0.23032 0.76081 0.87033
 C1237 C 0.22586 0.73534 0.87192
 C1238 C 0.24560 0.71885 0.87202
 C1239 C 0.20908 0.77776 0.87080
 C1240 C 0.21248 0.80311 0.87178
 H1241 H 0.31013 0.71957 0.87298
 H1242 H 0.29347 0.76037 0.86737
 H1243 H 0.25907 0.78913 0.86734
 H1244 H 0.20704 0.72817 0.87338
 H1245 H 0.24126 0.69945 0.87391
 H1246 H 0.19036 0.77014 0.87100
 H1247 H 0.27280 0.67638 0.86479
 H1248 H 0.20033 0.81230 0.87236
 C1249 C 0.28784 0.18403 0.36505
 C1250 C 0.28963 0.20972 0.36682
 C1251 C 0.26815 0.22668 0.36628
 C1252 C 0.27294 0.25220 0.36563
 C1253 C 0.25347 0.26903 0.36558
 C1254 C 0.22865 0.26067 0.36620
 C1255 C 0.22379 0.23521 0.36675
 C1256 C 0.24326 0.21835 0.36687
 C1257 C 0.20759 0.27797 0.36660
 C1258 C 0.21110 0.30337 0.36770
 H1259 H 0.30795 0.21803 0.36856
 H1260 H 0.29187 0.25920 0.36523
 H1261 H 0.25792 0.28855 0.36513
 H1262 H 0.20483 0.22830 0.36732
 H1263 H 0.23850 0.19898 0.36773
 H1264 H 0.18881 0.27053 0.36657
 H1265 H 0.27004 0.17497 0.36267
 H1266 H 0.19899 0.31268 0.36832
 C1267 C 0.56184 0.63796 1.03844
 C1268 C 0.53601 0.63760 1.04046
 C1269 C 0.51919 0.63748 1.01870
 C1270 C 0.49423 0.64372 1.02229
 C1271 C 0.47750 0.64298 1.00244
 C1272 C 0.48542 0.63566 0.97860
 C1273 C 0.51041 0.62967 0.97495
 C1274 C 0.52712 0.63035 0.99479
 C1275 C 0.46836 0.63426 0.95712
 C1276 C 0.44272 0.63111 0.95958
 H1277 H 0.52763 0.63737 1.05886
 H1278 H 0.48767 0.64926 1.04053
 H1279 H 0.45855 0.64842 1.00586
 H1280 H 0.51694 0.62396 0.95675
 H1281 H 0.54598 0.62470 0.99130
 H1282 H 0.47649 0.63440 0.93861
 H1283 H 0.57073 0.63959 1.02039
 H1284 H 0.43430 0.62939 0.97785
 C1285 C 0.43884 0.12843 0.45792
 C1286 C 0.46452 0.13174 0.45599
 C1287 C 0.48126 0.13340 0.47782
 C1288 C 0.50651 0.12830 0.47447
 C1289 C 0.52298 0.12944 0.49453
 C1290 C 0.51458 0.13613 0.51843
 C1291 C 0.48933 0.14134 0.52176
 C1292 C 0.47283 0.14016 0.50168
 C1293 C 0.53132 0.13692 0.54035
 C1294 C 0.55712 0.13883 0.53835
 H1295 H 0.47295 0.13198 0.43761
 H1296 H 0.51348 0.12300 0.45631
 H1297 H 0.54209 0.12450 0.49121
 H1298 H 0.48236 0.14651 0.53996
 H1299 H 0.45365 0.14488 0.50495
 H1300 H 0.52297 0.13597 0.55874
 H1301 H 0.43013 0.12665 0.47605
 H1302 H 0.56578 0.14114 0.52026
 C1303 C 0.54493 0.86036 0.44909
 C1304 C 0.54663 0.87034 0.47295
 C1305 C 0.52480 0.87360 0.48946
 C1306 C 0.52870 0.87833 0.51485
 C1307 C 0.50861 0.88201 0.53093
 C1308 C 0.48408 0.88097 0.52186
 C1309 C 0.48025 0.87700 0.49635
 C1310 C 0.50030 0.87341 0.48028
 C1311 C 0.46208 0.88391 0.53819
 C1312 C 0.46276 0.88077 0.56399
 H1313 H 0.56456 0.87686 0.47950
 H1314 H 0.54737 0.87918 0.52230
 H1315 H 0.51254 0.88595 0.55026
 H1316 H 0.46160 0.87654 0.48879
 H1317 H 0.49636 0.87097 0.46070
 H1318 H 0.44429 0.88696 0.52935
 H1319 H 0.52743 0.85309 0.44232
 H1320 H 0.48004 0.87660 0.57322
 C1321 C 1.04646 0.35996 0.45136
 C1322 C 1.04902 0.36473 0.47679
 C1323 C 1.02716 0.36620 0.49371
 C1324 C 1.02995 0.36147 0.51929
 C1325 C 1.00958 0.36287 0.53556
 C1326 C 0.98597 0.36944 0.52655
 C1327 C 0.98336 0.37448 0.50102
 C1328 C 1.00364 0.37304 0.48482
 C1329 C 0.96354 0.37111 0.54271
 C1330 C 0.96388 0.37084 0.56878
 H1331 H 1.06741 0.36761 0.48448
 H1332 H 1.04789 0.35636 0.52666
 H1333 H 1.01252 0.35851 0.55499
 H1334 H 0.96552 0.37978 0.49353
 H1335 H 1.00082 0.37780 0.46544
 H1336 H 0.94581 0.37335 0.53351
 H1337 H 1.02824 0.35560 0.44400
 H1338 H 0.98125 0.36943 0.57868
 C1339 C -0.06641 0.87290 1.03967
 C1340 C -0.04058 0.87008 1.03992
 C1341 C -0.02459 0.86921 1.01734
 C1342 C 0.00104 0.87294 1.02036
 C1343 C 0.01715 0.87193 0.99997
 C1344 C 0.00807 0.86672 0.97594
 C1345 C -0.01762 0.86332 0.97277
 C1346 C -0.03383 0.86439 0.99326
 C1347 C 0.02494 0.86555 0.95400
 C1348 C 0.05008 0.86001 0.95640
 H1349 H -0.03121 0.86942 1.05778
 H1350 H 0.00868 0.87688 1.03861
 H1351 H 0.03664 0.87569 1.00317
 H1352 H -0.02513 0.85949 0.95445
 H1353 H -0.05340 0.86102 0.99013
 H1354 H 0.01744 0.86928 0.93566
 H1355 H -0.07603 0.87461 1.02207
 H1356 H 0.05729 0.85485 0.97447
 C1357 C -0.05849 0.12692 -0.04539
 C1358 C -0.03288 0.13119 -0.04728
 C1359 C -0.01602 0.13325 -0.02549
 C1360 C 0.00956 0.13011 -0.02921
 C1361 C 0.02618 0.13176 -0.00926
 C1362 C 0.01757 0.13696 0.01496
 C1363 C -0.00800 0.14030 0.01864
 C1364 C -0.02462 0.13861 -0.00132
 C1365 C 0.03433 0.13802 0.03693
 C1366 C 0.06020 0.14001 0.03536
 H1367 H -0.02455 0.13214 -0.06568
 H1368 H 0.01671 0.12598 -0.04762
 H1369 H 0.04557 0.12843 -0.01297
 H1370 H -0.01516 0.14432 0.03706
 H1371 H -0.04406 0.14184 0.00232
 H1372 H 0.02581 0.13700 0.05525
 H1373 H -0.06712 0.12453 -0.02731
 H1374 H 0.06922 0.14211 0.01743
 C1375 C 0.12327 1.06111 1.03899
 C1376 C 0.11819 1.03588 1.04196
 C1377 C 0.11726 1.01800 1.02117
 C1378 C 0.11889 0.99279 1.02679
 C1379 C 0.11816 0.97514 1.00788
 C1380 C 0.11558 0.98238 0.98279
 C1381 C 0.11351 1.00761 0.97724
 C1382 C 0.11426 1.02525 0.99616
 C1383 C 0.11536 0.96461 0.96181
 C1384 C 0.11702 0.93902 0.96444
 H1385 H 0.11546 1.02854 1.06061
 H1386 H 0.12098 0.98669 1.04593
 H1387 H 0.11981 0.95604 1.01326
 H1388 H 0.11132 1.01374 0.95813
 H1389 H 0.11216 1.04439 0.99103
 H1390 H 0.11430 0.97222 0.94313
 H1391 H 0.12709 1.06860 1.02064
 H1392 H 0.11778 0.93047 0.98263
 C1393 C 0.11750 0.43834 0.46282
 C1394 C 0.11546 0.46396 0.46087
 C1395 C 0.11558 0.48125 0.48234
 C1396 C 0.11290 0.50655 0.47746
 C1397 C 0.11348 0.52375 0.49681
 C1398 C 0.11694 0.51604 0.52162
 C1399 C 0.11913 0.49075 0.52661
 C1400 C 0.11858 0.47352 0.50725
 C1401 C 0.11791 0.53362 0.54275
 C1402 C 0.12328 0.55876 0.54000
 H1403 H 0.11397 0.47197 0.44239
 H1404 H 0.11033 0.51308 0.45853
 H1405 H 0.11088 0.54296 0.49216
 H1406 H 0.12158 0.48428 0.54557
 H1407 H 0.12069 0.45434 0.51213
 H1408 H 0.11520 0.52623 0.56138
 H1409 H 0.11869 0.42945 0.48081
 H1410 H 0.12731 0.56640 0.52176
 C1411 C 0.37392 0.43768 1.03761
 C1412 C 0.38589 0.46057 1.03587
 C1413 C 0.38739 0.47552 1.01265
 C1414 C 0.39565 0.50006 1.01447
 C1415 C 0.39647 0.51530 0.99346
 C1416 C 0.38887 0.50637 0.97004
 C1417 C 0.38188 0.48151 0.96786
 C1418 C 0.38107 0.46618 0.98894
 C1419 C 0.38760 0.52290 0.94802
 C1420 C 0.38157 0.54763 0.95085
 H1421 H 0.39426 0.46818 1.05257
 H1422 H 0.40119 0.50762 1.03232
 H1423 H 0.40302 0.53411 0.99565
 H1424 H 0.37642 0.47409 0.94993
 H1425 H 0.37547 0.44718 0.98637
 H1426 H 0.38990 0.51532 0.92950
 H1427 H 0.36524 0.42948 1.02145
 H1428 H 0.37730 0.55443 0.96933
 C1429 C 0.87969 0.54080 0.44369
 C1430 C 0.87615 0.54224 0.46935
 C1431 C 0.87737 0.51991 0.48533
 C1432 C 0.88520 0.52215 0.51011
 C1433 C 0.88746 0.50123 0.52525
 C1434 C 0.88188 0.47753 0.51585
 C1435 C 0.87319 0.47546 0.49133
 C1436 C 0.87090 0.49635 0.47623
 C1437 C 0.88340 0.45490 0.53143
 C1438 C 0.89660 0.45396 0.55368
 H1439 H 0.87399 0.56012 0.47799
 H1440 H 0.88984 0.54010 0.51771
 H1441 H 0.89313 0.50395 0.54437
 H1442 H 0.86812 0.45758 0.48381
 H1443 H 0.86374 0.49395 0.45756
 H1444 H 0.87271 0.43879 0.52583
 H1445 H 0.88386 0.52312 0.43546
 H1446 H 0.90767 0.46963 0.55956
 C1447 C 0.87861 1.03913 -0.05956
 C1448 C 0.86777 1.03994 -0.03596
 C1449 C 0.86622 1.01807 -0.01927
 C1450 C 0.86259 1.02168 0.00634
 C1451 C 0.86170 1.00161 0.02275
 C1452 C 0.86452 0.97738 0.01387
 C1453 C 0.86695 0.97366 -0.01186
 C1454 C 0.86777 0.99373 -0.02830
 C1455 C 0.86499 0.95579 0.03094
 C1456 C 0.87271 0.95798 0.05561
 H1457 H 0.86059 1.05729 -0.02928
 H1458 H 0.86071 1.04014 0.01373
 H1459 H 0.85860 1.00524 0.04233
 H1460 H 0.86859 0.95517 -0.01924
 H1461 H 0.86939 0.98996 -0.04801
 H1462 H 0.86046 0.93769 0.02362
 H1463 H 0.88676 1.02222 -0.06613
 H1464 H 0.87881 0.97579 0.06248
 C1465 C 0.61509 -0.06177 0.46216
 C1466 C 0.61370 -0.03611 0.46015
 C1467 C 0.61356 -0.01895 0.48171
 C1468 C 0.60823 0.00598 0.47731
 C1469 C 0.60863 0.02308 0.49677
 C1470 C 0.61462 0.01564 0.52117
 C1471 C 0.61957 -0.00933 0.52568
 C1472 C 0.61925 -0.02643 0.50620
 C1473 C 0.61553 0.03318 0.54232
 C1474 C 0.61937 0.05856 0.53935
 H1475 H 0.61264 -0.02803 0.44168
 H1476 H 0.60368 0.01228 0.45870
 H1477 H 0.60394 0.04197 0.49260
 H1478 H 0.62414 -0.01556 0.54431
 H1479 H 0.62389 -0.04527 0.51055
 H1480 H 0.61429 0.02565 0.56104
 H1481 H 0.61522 -0.07063 0.48023
 H1482 H 0.62220 0.06629 0.52092
 C1483 C 0.46028 1.05727 0.38196
 C1484 C 0.45843 1.03160 0.38093
 C1485 C 0.47998 1.01497 0.38261
 C1486 C 0.47736 0.99089 0.37346
 C1487 C 0.49713 0.97450 0.37447
 C1488 C 0.51994 0.98175 0.38507
 C1489 C 0.52256 1.00583 0.39429
 C1490 C 0.50277 1.02227 0.39324
 C1491 C 0.54152 0.96506 0.38596
 C1492 C 0.53926 0.93946 0.38422
 H1493 H 0.44039 1.02320 0.37754
 H1494 H 0.46004 0.98482 0.36513
 H1495 H 0.49449 0.95643 0.36640
 H1496 H 0.53995 1.01189 0.40251
 H1497 H 0.50537 1.04046 0.40106
 H1498 H 0.55982 0.97326 0.38827
 H1499 H 0.47819 1.06626 0.38406
 H1500 H 0.52108 0.93079 0.38352
 C1501 C -0.03902 -0.05603 0.11159
 C1502 C -0.04090 -0.03041 0.11064
 C1503 C -0.01925 -0.01361 0.10764
 C1504 C -0.02319 0.01063 0.09947
 C1505 C -0.00339 0.02742 0.09753
 C1506 C 0.02078 0.02032 0.10410
 C1507 C 0.02478 -0.00404 0.11182
 C1508 C 0.00500 -0.02082 0.11376
 C1509 C 0.04215 0.03769 0.10367
 C1510 C 0.03978 0.06325 0.10514
 H1511 H -0.05913 -0.02223 0.11176
 H1512 H -0.04168 0.01661 0.09459
 H1513 H -0.00716 0.04581 0.09081
 H1514 H 0.04321 -0.00996 0.11701
 H1515 H 0.00879 -0.03910 0.12076
 H1516 H 0.06058 0.02991 0.10434
 H1517 H -0.02130 -0.06475 0.10865
 H1518 H 0.02164 0.07155 0.10550
 C1519 C 0.54093 0.56015 0.10761
 C1520 C 0.54241 0.53447 0.10609
 C1521 C 0.52035 0.51780 0.10446
 C1522 C 0.52359 0.49338 0.09657
 C1523 C 0.50348 0.47678 0.09582
 C1524 C 0.47963 0.48422 0.10326
 C1525 C 0.47634 0.50873 0.11078
 C1526 C 0.49642 0.52530 0.11156
 C1527 C 0.45781 0.46717 0.10388
 C1528 C 0.45946 0.44145 0.10421
 H1529 H 0.56060 0.52613 0.10595
 H1530 H 0.54179 0.48710 0.09097
 H1531 H 0.50680 0.45827 0.08930
 H1532 H 0.45822 0.51499 0.11666
 H1533 H 0.49308 0.54369 0.11838
 H1534 H 0.43967 0.47531 0.10616
 H1535 H 0.52312 0.56903 0.10618
 H1536 H 0.47736 0.43272 0.10304
 C1537 C -0.04033 0.44726 0.63595
 C1538 C -0.04211 0.47204 0.62923
 C1539 C -0.02029 0.48844 0.62575
 C1540 C -0.02355 0.51399 0.62722
 C1541 C -0.00348 0.53016 0.62365
 C1542 C 0.02025 0.52103 0.61808
 C1543 C 0.02344 0.49546 0.61641
 C1544 C 0.00338 0.47929 0.62006
 C1545 C 0.04227 0.53736 0.61517
 C1546 C 0.04089 0.56273 0.61121
 H1547 H -0.06032 0.47986 0.62636
 H1548 H -0.04163 0.52147 0.63149
 H1549 H -0.00671 0.54966 0.62584
 H1550 H 0.04152 0.48796 0.61217
 H1551 H 0.00648 0.45975 0.61796
 H1552 H 0.06040 0.52904 0.61681
 H1553 H -0.02247 0.43940 0.64027
 H1554 H 0.02317 0.57143 0.60831
 C1555 C 0.46415 0.56012 0.88331
 C1556 C 0.46230 0.53434 0.88360
 C1557 C 0.48367 0.51724 0.88531
 C1558 C 0.47909 0.49192 0.88197
 C1559 C 0.49840 0.47493 0.88306
 C1560 C 0.52295 0.48282 0.88779
 C1561 C 0.52753 0.50815 0.89128
 C1562 C 0.50818 0.52518 0.89014
 C1563 C 0.54430 0.46556 0.88844
 C1564 C 0.54190 0.43983 0.88840
 H1565 H 0.44397 0.52603 0.88194
 H1566 H 0.46044 0.48521 0.87821
 H1567 H 0.49380 0.45579 0.87975
 H1568 H 0.54622 0.51483 0.89491
 H1569 H 0.51268 0.54440 0.89317
 H1570 H 0.56283 0.47357 0.88873
 H1571 H 0.48204 0.56925 0.88459
 H1572 H 0.52374 0.43116 0.88888
 C1573 C 0.62449 0.55733 1.04202
 C1574 C 0.62004 0.53200 1.04505
 C1575 C 0.61908 0.51434 1.02409
 C1576 C 0.62319 0.48930 1.02900
 C1577 C 0.62255 0.47198 1.00977
 C1578 C 0.61739 0.47936 0.98514
 C1579 C 0.61291 0.50439 0.98033
 C1580 C 0.61364 0.52171 0.99956
 C1581 C 0.61719 0.46199 0.96384
 C1582 C 0.61831 0.43633 0.96605
 H1583 H 0.61811 0.52448 1.06372
 H1584 H 0.62730 0.48314 1.04777
 H1585 H 0.62648 0.45304 1.01442
 H1586 H 0.60878 0.51060 0.96159
 H1587 H 0.60958 0.54069 0.99510
 H1588 H 0.61619 0.46995 0.94530
 H1589 H 0.62786 0.56483 1.02357
 H1590 H 0.61849 0.42751 0.98414
 C1591 C 0.37872 1.04265 0.44456
 C1592 C 0.37716 1.04570 0.47039
 C1593 C 0.37942 1.02457 0.48786
 C1594 C 0.38864 1.02854 0.51199
 C1595 C 0.39150 1.00877 0.52860
 C1596 C 0.38483 0.98463 0.52141
 C1597 C 0.37538 0.98078 0.49737
 C1598 C 0.37249 1.00048 0.48085
 C1599 C 0.38725 0.96297 0.53815
 C1600 C 0.38875 0.96445 0.56409
 H1601 H 0.37576 1.06409 0.47808
 H1602 H 0.39406 1.04693 0.51785
 H1603 H 0.39928 1.01251 0.54678
 H1604 H 0.36990 0.96244 0.49141
 H1605 H 0.36448 0.99673 0.46276
 H1606 H 0.38571 0.94488 0.52972
 H1607 H 0.38223 1.02445 0.43721
 H1608 H 0.38892 0.98220 0.57322
 C1609 C -0.05840 0.62891 0.45799
 C1610 C -0.03268 0.63235 0.45610
 C1611 C -0.01577 0.63392 0.47790
 C1612 C 0.00965 0.62982 0.47421
 C1613 C 0.02632 0.63096 0.49415
 C1614 C 0.01795 0.63661 0.51834
 C1615 C -0.00748 0.64086 0.52202
 C1616 C -0.02416 0.63968 0.50205
 C1617 C 0.03482 0.63730 0.54025
 C1618 C 0.06069 0.63896 0.53844
 H1619 H -0.02433 0.63288 0.43770
 H1620 H 0.01664 0.62533 0.45582
 H1621 H 0.04556 0.62686 0.49045
 H1622 H -0.01447 0.64523 0.54042
 H1623 H -0.04346 0.64362 0.50568
 H1624 H 0.02644 0.63639 0.55864
 H1625 H -0.06710 0.62693 0.47610
 H1626 H 0.06952 0.64101 0.52041
 C1627 C 0.43489 0.35916 1.03955
 C1628 C 0.46078 0.36036 1.04004
 C1629 C 0.47674 0.35997 1.01748
 C1630 C 0.50134 0.36837 1.01970
 C1631 C 0.51722 0.36862 0.99913
 C1632 C 0.50897 0.36007 0.97580
 C1633 C 0.48428 0.35190 0.97340
 C1634 C 0.46831 0.35164 0.99407
 C1635 C 0.52573 0.36001 0.95386
 C1636 C 0.55127 0.35728 0.95660
 H1637 H 0.46986 0.36342 1.05780
 H1638 H 0.50827 0.37510 1.03741
 H1639 H 0.53584 0.37593 1.00154
 H1640 H 0.47747 0.34535 0.95559
 H1641 H 0.44963 0.34460 0.99159
 H1642 H 0.51787 0.36194 0.93538
 H1643 H 0.42515 0.35722 1.02205
 H1644 H 0.55876 0.35349 0.97493
 C1645 C 0.45791 -0.05468 0.64084
 C1646 C 0.45594 -0.02967 0.63490
 C1647 C 0.47760 -0.01291 0.63112
 C1648 C 0.47384 0.01265 0.63141
 C1649 C 0.49357 0.02913 0.62708
 C1650 C 0.51756 0.02034 0.62203
 C1651 C 0.52128 -0.00523 0.62166
 C1652 C 0.50156 -0.02170 0.62601
 C1653 C 0.53931 0.03699 0.61820
 C1654 C 0.53770 0.06229 0.61353
 H1655 H 0.43762 -0.02205 0.63224
 H1656 H 0.45556 0.01991 0.63517
 H1657 H 0.48988 0.04863 0.62819
 H1658 H 0.53954 -0.01252 0.61784
 H1659 H 0.50520 -0.04121 0.62482
 H1660 H 0.55757 0.02893 0.61967
 H1661 H 0.47585 -0.06257 0.64464
 H1662 H 0.51983 0.07082 0.61100
 C1663 C -0.03696 0.55880 0.38265
 C1664 C -0.03920 0.53316 0.38228
 C1665 C -0.01796 0.51632 0.38433
 C1666 C -0.02091 0.49219 0.37548
 C1667 C -0.00140 0.47557 0.37678
 C1668 C 0.02143 0.48267 0.38743
 C1669 C 0.02437 0.50680 0.39640
 C1670 C 0.00483 0.52348 0.39502
 C1671 C 0.04272 0.46577 0.38845
 C1672 C 0.04002 0.44020 0.38706
 H1673 H -0.05734 0.52490 0.37910
 H1674 H -0.03826 0.48626 0.36710
 H1675 H -0.00423 0.45746 0.36887
 H1676 H 0.04180 0.51270 0.40462
 H1677 H 0.00762 0.54173 0.40263
 H1678 H 0.06116 0.47376 0.39035
 H1679 H -0.01897 0.56765 0.38463
 H1680 H 0.02173 0.43175 0.38686
 C1681 C -0.03770 1.05761 0.87882
 C1682 C -0.03930 1.03187 0.87806
 C1683 C -0.01771 1.01544 0.88061
 C1684 C -0.01999 0.99119 0.87186
 C1685 C -0.00027 0.97488 0.87386
 C1686 C 0.02215 0.98239 0.88509
 C1687 C 0.02449 1.00665 0.89384
 C1688 C 0.00471 1.02302 0.89180
 C1689 C 0.04360 0.96570 0.88707
 C1690 C 0.04112 0.94007 0.88643
 H1691 H -0.05714 1.02315 0.87438
 H1692 H -0.03703 0.98491 0.86309
 H1693 H -0.00259 0.95664 0.86609
 H1694 H 0.04159 1.01289 0.90250
 H1695 H 0.00703 1.04136 0.89935
 H1696 H 0.06193 0.97389 0.88921
 H1697 H -0.01985 1.06664 0.88129
 H1698 H 0.02287 0.93154 0.88600
 C1699 C 0.81096 0.60949 0.28611
 C1700 C 0.78544 0.60566 0.28891
 C1701 C 0.76801 0.60476 0.26773
 C1702 C 0.74312 0.61072 0.27204
 C1703 C 0.72613 0.61104 0.25245
 C1704 C 0.73367 0.60494 0.22811
 C1705 C 0.75850 0.59852 0.22390
 C1706 C 0.77552 0.59830 0.24352
 C1707 C 0.71667 0.60631 0.20654
 C1708 C 0.69089 0.60737 0.20878
 H1709 H 0.77758 0.60514 0.30754
 H1710 H 0.73691 0.61577 0.29055
 H1711 H 0.70741 0.61676 0.25651
 H1712 H 0.76477 0.59374 0.20534
 H1713 H 0.79440 0.59291 0.23960
 H1714 H 0.72490 0.60684 0.18808
 H1715 H 0.81913 0.61141 0.26775
 H1716 H 0.68200 0.60549 0.22680
 C1717 C 0.28681 0.87743 0.69023
 C1718 C 0.28719 0.87367 0.71597
 C1719 C 0.26497 0.87612 0.73215
 C1720 C 0.26845 0.87909 0.75787
 C1721 C 0.24815 0.88158 0.77389
 C1722 C 0.22373 0.88125 0.76449
 C1723 C 0.22021 0.87775 0.73883
 C1724 C 0.24055 0.87519 0.72279
 C1725 C 0.20164 0.88295 0.78099
 C1726 C 0.20283 0.89166 0.80540
 H1727 H 0.30481 0.86995 0.72487
 H1728 H 0.28701 0.87946 0.76564
 H1729 H 0.25185 0.88317 0.79361
 H1730 H 0.20163 0.87687 0.73116
 H1731 H 0.23688 0.87205 0.70325
 H1732 H 0.18399 0.87617 0.77396
 H1733 H 0.26974 0.88243 0.68105
 H1734 H 0.22002 0.89923 0.81259
 C1735 C 0.19697 0.39443 0.29841
 C1736 C 0.22270 0.39300 0.30076
 C1737 C 0.23938 0.39457 0.27870
 C1738 C 0.26401 0.40283 0.28149
 C1739 C 0.28006 0.40418 0.26087
 C1740 C 0.27178 0.39692 0.23705
 C1741 C 0.24718 0.38859 0.23438
 C1742 C 0.23123 0.38723 0.25490
 C1743 C 0.28792 0.39722 0.21456
 C1744 C 0.31383 0.39857 0.21513
 H1745 H 0.23081 0.39071 0.31909
 H1746 H 0.27078 0.40846 0.29963
 H1747 H 0.29873 0.41109 0.26377
 H1748 H 0.24033 0.38266 0.21636
 H1749 H 0.21271 0.37986 0.25204
 H1750 H 0.27898 0.39419 0.19673
 H1751 H 0.18906 0.39850 0.28034
 H1752 H 0.32349 0.40066 0.23265
 C1753 C 0.87743 0.69632 0.29410
 C1754 C 0.86731 0.71975 0.29559
 C1755 C 0.86616 0.73593 0.27333
 C1756 C 0.86775 0.76155 0.27624
 C1757 C 0.86812 0.77706 0.25535
 C1758 C 0.86679 0.76718 0.23110
 C1759 C 0.86377 0.74166 0.22828
 C1760 C 0.86348 0.72616 0.24915
 C1761 C 0.86809 0.78305 0.20858
 C1762 C 0.88070 0.80560 0.20862
 H1763 H 0.86088 0.72660 0.31340
 H1764 H 0.86921 0.76954 0.29468
 H1765 H 0.86926 0.79676 0.25834
 H1766 H 0.86205 0.73366 0.20987
 H1767 H 0.86106 0.70654 0.24626
 H1768 H 0.85929 0.77670 0.19158
 H1769 H 0.88522 0.69026 0.27654
 H1770 H 0.89049 0.81143 0.22524
 C1771 C 0.62936 0.31080 0.79044
 C1772 C 0.63004 0.28506 0.79119
 C1773 C 0.63015 0.26913 0.76866
 C1774 C 0.63597 0.24412 0.77152
 C1775 C 0.63594 0.22825 0.75102
 C1776 C 0.62980 0.23700 0.72710
 C1777 C 0.62429 0.26205 0.72412
 C1778 C 0.62424 0.27793 0.74465
 C1779 C 0.62930 0.22064 0.70496
 C1780 C 0.62517 0.19523 0.70677
 H1781 H 0.63103 0.27607 0.80924
 H1782 H 0.64071 0.23681 0.78971
 H1783 H 0.64110 0.20925 0.75401
 H1784 H 0.61959 0.26928 0.70589
 H1785 H 0.61914 0.29688 0.74148
 H1786 H 0.63121 0.22898 0.68665
 H1787 H 0.62938 0.32041 0.77276
 H1788 H 0.62156 0.18694 0.72482
 C1789 C 0.79014 0.18257 0.86229
 C1790 C 0.79169 0.20823 0.86484
 C1791 C 0.77008 0.22509 0.86517
 C1792 C 0.77471 0.25058 0.86708
 C1793 C 0.75515 0.26730 0.86790
 C1794 C 0.73037 0.25890 0.86684
 C1795 C 0.72566 0.23348 0.86481
 C1796 C 0.74523 0.21672 0.86402
 C1797 C 0.70919 0.27610 0.86794
 C1798 C 0.71254 0.30140 0.87072
 H1799 H 0.80996 0.21658 0.86687
 H1800 H 0.79360 0.25763 0.86802
 H1801 H 0.75951 0.28678 0.86944
 H1802 H 0.70674 0.22652 0.86397
 H1803 H 0.74056 0.19737 0.86268
 H1804 H 0.69045 0.26864 0.86675
 H1805 H 0.77239 0.17341 0.85992
 H1806 H 0.70034 0.31063 0.87143
 C1807 C 0.29230 0.80995 0.60668
 C1808 C 0.29420 0.78463 0.61088
 C1809 C 0.27245 0.76789 0.61376
 C1810 C 0.27599 0.74237 0.61200
 C1811 C 0.25622 0.72587 0.61590
 C1812 C 0.23247 0.73461 0.62201
 C1813 C 0.22891 0.76012 0.62364
 C1814 C 0.24866 0.77662 0.61975
 C1815 C 0.21081 0.71794 0.62585
 C1816 C 0.21269 0.69274 0.63080
 H1817 H 0.31247 0.77678 0.61324
 H1818 H 0.29414 0.73517 0.60751
 H1819 H 0.25966 0.70640 0.61372
 H1820 H 0.21080 0.76734 0.62827
 H1821 H 0.24521 0.79606 0.62209
 H1822 H 0.19251 0.72593 0.62456
 H1823 H 0.27443 0.81808 0.60305
 H1824 H 0.23066 0.68440 0.63325
   
