data_POSCAR
  _audit_creation_date              2014-09-24
  _audit_creation_method            'ToBaCCo'
  _symmetry_space_group_name_H-M    'P1'
  _symmetry_Int_Tables_number       1
  _symmetry_cell_setting            triclinic
  loop_
  _symmetry_equiv_pos_as_xyz
 x,y,z
_cell_length_a 50.2743
_cell_length_b 50.2754
_cell_length_c 50.2743
_cell_angle_alpha 88.916900
_cell_angle_beta 88.916800
_cell_angle_gamma 88.914300
loop_
  _atom_site_label
  _atom_site_type_symbol
  _atom_site_fract_x
  _atom_site_fract_y
  _atom_site_fract_z
C1 C 0.75539 0.61806 0.99913
 C2 C 0.74942 0.37842 0.50305
 C3 C 0.24946 -0.12155 0.00307
 C4 C 0.25534 0.11803 0.49916
 C5 C 0.11807 0.49914 0.25536
 C6 C -0.12153 0.00307 0.24941
 C7 C 0.37846 0.50305 0.74944
 C8 C 0.61806 0.99912 0.75533
 C9 C 0.00307 0.24943 -0.12156
 C10 C 0.49915 0.25533 0.11807
 C11 C 0.99916 0.75534 0.61803
 C12 C 0.50309 0.74941 0.37843
 C13 C 0.41930 -0.02555 0.27707
 H14 H 0.42037 -0.00638 0.28638
 C15 C 0.43342 -0.04743 0.28758
 H16 H 0.44555 -0.04511 0.30494
 C17 C 0.40099 -0.05250 0.24406
 H18 H 0.38772 -0.05468 0.22766
 C19 C 0.41478 -0.07482 0.25391
 H20 H 0.41225 -0.09397 0.24485
 N21 N 0.40336 -0.02847 0.25577
 C22 C 0.38695 0.05001 0.22070
 H23 H 0.36555 0.04858 0.21974
 C24 C 0.39947 0.07273 0.21087
 H25 H 0.38771 0.08886 0.20223
 C26 C 0.42842 0.03068 0.23313
 H27 H 0.43956 0.01416 0.24171
 C28 C 0.44180 0.05317 0.22347
 H29 H 0.46325 0.05399 0.22467
 Zn30 Zn 0.38138 0.00060 0.24480
 N31 N 0.40142 0.02971 0.23184
 C32 C 0.36293 0.03644 0.28384
 N33 N 0.36071 0.01125 0.27480
 C34 C 0.34546 -0.00696 0.28808
 C35 C 0.33155 0.00004 0.31137
 C36 C 0.34937 0.04423 0.30692
 C37 C 0.37272 -0.01498 0.19321
 C38 C 0.35869 -0.02319 0.17127
 C39 C 0.31799 -0.01988 0.19747
 C40 C 0.33283 -0.01166 0.21901
 N41 N 0.35975 -0.00979 0.21659
 H42 H 0.37568 0.05044 0.27357
 H43 H 0.34448 -0.02702 0.28079
 H44 H 0.31966 -0.01459 0.32200
 H45 H 0.35151 0.06426 0.31407
 H46 H 0.39410 -0.01303 0.19179
 H47 H 0.36928 -0.02771 0.15289
 H48 H 0.29662 -0.02177 0.19958
 H49 H 0.32286 -0.00699 0.23761
 C50 C 0.42710 0.07441 0.21238
 C51 C 0.43090 -0.07234 0.27603
 C52 C 0.33112 -0.02585 0.17346
 C53 C 0.33366 0.02587 0.32088
 C54 C 0.08495 1.02380 0.78229
 H55 H 0.08314 1.00459 0.79215
 C56 C 0.07128 1.04598 0.79247
 H57 H 0.05879 1.04385 0.81015
 C58 C 0.10457 1.05050 0.74811
 H59 H 0.11817 1.05244 0.73135
 C60 C 0.09127 1.07311 0.75760
 H61 H 0.09449 1.09226 0.74793
 N62 N 0.10130 1.02646 0.76055
 C63 C 0.11550 0.94758 0.72789
 H64 H 0.13700 0.94795 0.72695
 C65 C 0.10221 0.92580 0.71826
 H66 H 0.11349 0.90930 0.70986
 C67 C 0.07452 0.96888 0.73957
 H68 H 0.06387 0.98588 0.74760
 C69 C 0.06038 0.94739 0.73008
 H70 H 0.03883 0.94780 0.73089
 Zn71 Zn 0.12248 0.99683 0.74985
 N72 N 0.10161 0.96845 0.73846
 C73 C 0.14014 0.96052 0.78963
 N74 N 0.14288 0.98562 0.77945
 C75 C 0.15868 1.00349 0.79125
 C76 C 0.17271 0.99622 0.81412
 C77 C 0.15379 0.95247 0.81237
 C78 C 0.13159 1.01247 0.69749
 C79 C 0.14584 1.02036 0.67474
 C80 C 0.18651 1.01549 0.69943
 C81 C 0.17144 1.00762 0.72181
 N82 N 0.14445 1.00670 0.72051
 H83 H 0.12695 0.94682 0.78052
 H84 H 0.16008 1.02348 0.78307
 H85 H 0.18509 1.01057 0.82354
 H86 H 0.15129 0.93252 0.82044
 H87 H 0.11014 1.01126 0.69698
 H88 H 0.13536 1.02538 0.65663
 H89 H 0.20794 1.01665 0.70063
 H90 H 0.18130 1.00246 0.74015
 C91 C 0.07443 0.92567 0.71934
 C92 C 0.07471 1.07090 0.78014
 C93 C 0.17351 1.02207 0.67576
 C94 C 0.17013 0.97047 0.82478
 C95 C 0.58500 0.52380 0.28225
 H96 H 0.58320 0.50458 0.29211
 C97 C 0.57134 0.54597 0.29245
 H98 H 0.55885 0.54384 0.31012
 C99 C 0.60462 0.55051 0.24807
 H100 H 0.61822 0.55245 0.23131
 C101 C 0.59132 0.57312 0.25758
 H102 H 0.59453 0.59226 0.24791
 N103 N 0.60136 0.52646 0.26051
 C104 C 0.61554 0.44759 0.22783
 H105 H 0.63705 0.44796 0.22689
 C106 C 0.60225 0.42581 0.21820
 H107 H 0.61353 0.40931 0.20980
 C108 C 0.57456 0.46889 0.23952
 H109 H 0.56392 0.48590 0.24755
 C110 C 0.56042 0.44741 0.23002
 H111 H 0.53888 0.44782 0.23084
 Zn112 Zn 0.62253 0.49684 0.24981
 N113 N 0.60165 0.46846 0.23840
 C114 C 0.64019 0.46052 0.28957
 N115 N 0.64293 0.48562 0.27940
 C116 C 0.65873 0.50348 0.29120
 C117 C 0.67275 0.49621 0.31407
 C118 C 0.65385 0.45246 0.31231
 C119 C 0.63164 0.51250 0.19745
 C120 C 0.64589 0.52039 0.17470
 C121 C 0.68655 0.51550 0.19938
 C122 C 0.67149 0.50762 0.22176
 N123 N 0.64449 0.50671 0.22047
 H124 H 0.62701 0.44682 0.28044
 H125 H 0.66012 0.52348 0.28303
 H126 H 0.68513 0.51056 0.32350
 H127 H 0.65135 0.43250 0.32037
 H128 H 0.61019 0.51129 0.19694
 H129 H 0.63541 0.52541 0.15660
 H130 H 0.70799 0.51665 0.20058
 H131 H 0.68135 0.50246 0.24010
 C132 C 0.57447 0.42568 0.21929
 C133 C 0.57476 0.57089 0.28011
 C134 C 0.67355 0.52209 0.17571
 C135 C 0.67018 0.47046 0.32472
 C136 C 0.91930 0.47446 0.77702
 H137 H 0.92037 0.49362 0.78632
 C138 C 0.93343 0.45257 0.78754
 H139 H 0.94555 0.45490 0.80490
 C140 C 0.90100 0.44750 0.74402
 H141 H 0.88772 0.44531 0.72762
 C142 C 0.91479 0.42518 0.75386
 H143 H 0.91226 0.40602 0.74481
 N144 N 0.90336 0.47152 0.75572
 C145 C 0.88696 0.55000 0.72064
 H146 H 0.86555 0.54857 0.71968
 C147 C 0.89948 0.57273 0.71080
 H148 H 0.88772 0.58886 0.70217
 C149 C 0.92843 0.53067 0.73306
 H150 H 0.93956 0.51414 0.74164
 C151 C 0.94180 0.55315 0.72340
 H152 H 0.96326 0.55397 0.72460
 Zn153 Zn 0.88138 0.50060 0.74475
 N154 N 0.90143 0.52970 0.73178
 C155 C 0.86293 0.53646 0.78377
 N156 N 0.86071 0.51126 0.77475
 C157 C 0.84548 0.49305 0.78804
 C158 C 0.83157 0.50005 0.81133
 C159 C 0.84938 0.54425 0.80686
 C160 C 0.87272 0.48500 0.69317
 C161 C 0.85868 0.47678 0.67123
 C162 C 0.81798 0.48012 0.69743
 C163 C 0.83282 0.48834 0.71897
 N164 N 0.85975 0.49020 0.71654
 H165 H 0.87569 0.55046 0.77349
 H166 H 0.84450 0.47299 0.78076
 H167 H 0.81969 0.48543 0.82197
 H168 H 0.85152 0.56429 0.81400
 H169 H 0.89409 0.48694 0.69174
 H170 H 0.86927 0.47225 0.65285
 H171 H 0.79661 0.47824 0.69954
 H172 H 0.82286 0.49302 0.73757
 C173 C 0.92711 0.57440 0.71231
 C174 C 0.93090 0.42766 0.77599
 C175 C 0.83111 0.47414 0.67342
 C176 C 0.83368 0.52590 0.82083
 C177 C 0.27706 0.41927 -0.02553
 H178 H 0.28637 0.42035 -0.00636
 C179 C 0.28758 0.43340 -0.04742
 H180 H 0.30493 0.44553 -0.04509
 C181 C 0.24406 0.40097 -0.05249
 H182 H 0.22766 0.38769 -0.05468
 C183 C 0.25391 0.41475 -0.07481
 H184 H 0.24486 0.41222 -0.09397
 N185 N 0.25577 0.40333 -0.02846
 C186 C 0.22068 0.38693 0.05002
 H187 H 0.21972 0.36553 0.04858
 C188 C 0.21085 0.39946 0.07274
 H189 H 0.20221 0.38770 0.08887
 C190 C 0.23312 0.42840 0.03069
 H191 H 0.24170 0.43954 0.01417
 C192 C 0.22346 0.44178 0.05318
 H193 H 0.22466 0.46323 0.05400
 Zn194 Zn 0.24480 0.38136 0.00061
 N195 N 0.23183 0.40141 0.02972
 C196 C 0.28382 0.36291 0.03646
 N197 N 0.27479 0.36068 0.01126
 C198 C 0.28807 0.34544 -0.00694
 C199 C 0.31136 0.33153 0.00006
 C200 C 0.30691 0.34935 0.04426
 C201 C 0.19320 0.37270 -0.01498
 C202 C 0.17127 0.35867 -0.02319
 C203 C 0.19747 0.31796 -0.01987
 C204 C 0.21901 0.33280 -0.01165
 N205 N 0.21658 0.35973 -0.00979
 H206 H 0.27355 0.37567 0.05046
 H207 H 0.28079 0.34446 -0.02701
 H208 H 0.32200 0.31964 -0.01456
 H209 H 0.31405 0.35149 0.06429
 H210 H 0.19178 0.39408 -0.01303
 H211 H 0.15288 0.36925 -0.02771
 H212 H 0.19958 0.29660 -0.02177
 H213 H 0.23761 0.32284 -0.00698
 C214 C 0.21236 0.42709 0.07442
 C215 C 0.27603 0.43087 -0.07233
 C216 C 0.17346 0.33110 -0.02585
 C217 C 0.32087 0.33364 0.02590
 C218 C 0.78229 0.08496 1.02379
 H219 H 0.79215 0.08316 1.00457
 C220 C 0.79248 0.07130 1.04596
 H221 H 0.81016 0.05881 1.04383
 C222 C 0.74811 0.10457 1.05049
 H223 H 0.73134 0.11817 1.05244
 C224 C 0.75761 0.09127 1.07310
 H225 H 0.74794 0.09448 1.09225
 N226 N 0.76055 0.10131 1.02645
 C227 C 0.72787 0.11550 0.94757
 H228 H 0.72693 0.13701 0.94795
 C229 C 0.71824 0.10221 0.92579
 H230 H 0.70984 0.11349 0.90930
 C231 C 0.73957 0.07452 0.96887
 H232 H 0.74760 0.06388 0.98587
 C233 C 0.73007 0.06039 0.94738
 H234 H 0.73089 0.03884 0.94779
 Zn235 Zn 0.74984 0.12249 0.99683
 N236 N 0.73844 0.10161 0.96844
 C237 C 0.78961 0.14015 0.96051
 N238 N 0.77943 0.14289 0.98561
 C239 C 0.79123 0.15869 1.00348
 C240 C 0.81410 0.17271 0.99621
 C241 C 0.81235 0.15380 0.95245
 C242 C 0.69748 0.13159 1.01249
 C243 C 0.67473 0.14584 1.02038
 C244 C 0.69941 0.18651 1.01549
 C245 C 0.72179 0.17145 1.00761
 N246 N 0.72050 0.14445 1.00670
 H247 H 0.78049 0.12697 0.94681
 H248 H 0.78306 0.16008 1.02347
 H249 H 0.82352 0.18510 1.01056
 H250 H 0.82041 0.15131 0.93250
 H251 H 0.69698 0.11014 1.01128
 H252 H 0.65663 0.13536 1.02540
 H253 H 0.70060 0.20794 1.01665
 H254 H 0.74013 0.18130 1.00245
 C255 C 0.71933 0.07443 0.92566
 C256 C 0.78015 0.07472 1.07088
 C257 C 0.67574 0.17350 1.02209
 C258 C 0.82475 0.17015 0.97046
 C259 C 0.28231 0.58496 0.52382
 H260 H 0.29217 0.58315 0.50460
 C261 C 0.29250 0.57129 0.54599
 H262 H 0.31017 0.55879 0.54386
 C263 C 0.24813 0.60458 0.55052
 H264 H 0.23138 0.61818 0.55246
 C265 C 0.25763 0.59128 0.57313
 H266 H 0.24796 0.59449 0.59227
 N267 N 0.26058 0.60132 0.52648
 C268 C 0.22790 0.61551 0.44760
 H269 H 0.22696 0.63702 0.44798
 C270 C 0.21827 0.60222 0.42582
 H271 H 0.20986 0.61350 0.40933
 C272 C 0.23959 0.57453 0.46890
 H273 H 0.24763 0.56389 0.48590
 C274 C 0.23010 0.56039 0.44741
 H275 H 0.23092 0.53884 0.44781
 Zn276 Zn 0.24987 0.62250 0.49685
 N277 N 0.23847 0.60162 0.46847
 C278 C 0.28965 0.64014 0.46053
 N279 N 0.27947 0.64289 0.48563
 C280 C 0.29127 0.65869 0.50350
 C281 C 0.31414 0.67271 0.49623
 C282 C 0.31239 0.65379 0.45248
 C283 C 0.19751 0.63160 0.51251
 C284 C 0.17477 0.64586 0.52040
 C285 C 0.19945 0.68652 0.51551
 C286 C 0.22183 0.67146 0.50764
 N287 N 0.22053 0.64446 0.50672
 H288 H 0.28052 0.62696 0.44684
 H289 H 0.28310 0.66009 0.52350
 H290 H 0.32356 0.68509 0.51058
 H291 H 0.32045 0.65130 0.43252
 H292 H 0.19701 0.61016 0.51130
 H293 H 0.15666 0.63538 0.52542
 H294 H 0.20064 0.70796 0.51666
 H295 H 0.24017 0.68131 0.50247
 C296 C 0.21936 0.57444 0.42569
 C297 C 0.28016 0.57471 0.57091
 C298 C 0.17578 0.67352 0.52210
 C299 C 0.32479 0.67014 0.47048
 C300 C 0.77707 0.91930 0.47444
 H301 H 0.78637 0.92037 0.49361
 C302 C 0.78758 0.93343 0.45255
 H303 H 0.80494 0.94555 0.45488
 C304 C 0.74407 0.90099 0.44748
 H305 H 0.72767 0.88772 0.44529
 C306 C 0.75391 0.91478 0.42516
 H307 H 0.74486 0.91225 0.40600
 N308 N 0.75577 0.90336 0.47151
 C309 C 0.72069 0.88694 0.54999
 H310 H 0.71974 0.86554 0.54855
 C311 C 0.71086 0.89947 0.57271
 H312 H 0.70223 0.88770 0.58884
 C313 C 0.73310 0.92842 0.53065
 H314 H 0.74168 0.93955 0.51413
 C315 C 0.72344 0.94179 0.55314
 H316 H 0.72463 0.96325 0.55396
 Zn317 Zn 0.74480 0.88138 0.50058
 N318 N 0.73183 0.90142 0.52969
 C319 C 0.78383 0.86293 0.53643
 N320 N 0.77480 0.86071 0.51123
 C321 C 0.78809 0.84547 0.49302
 C322 C 0.81138 0.83156 0.50003
 C323 C 0.80692 0.84938 0.54423
 C324 C 0.69322 0.87271 0.48498
 C325 C 0.67129 0.85867 0.47677
 C326 C 0.69749 0.81797 0.48010
 C327 C 0.71903 0.83281 0.48832
 N328 N 0.71659 0.85974 0.49018
 H329 H 0.77355 0.87568 0.55043
 H330 H 0.78081 0.84450 0.47296
 H331 H 0.82202 0.81968 0.48540
 H332 H 0.81406 0.85151 0.56426
 H333 H 0.69180 0.89409 0.48692
 H334 H 0.65290 0.86926 0.47224
 H335 H 0.69960 0.79660 0.47821
 H336 H 0.73763 0.82285 0.49300
 C337 C 0.71236 0.92709 0.57439
 C338 C 0.77603 0.93090 0.42764
 C339 C 0.67348 0.83110 0.47412
 C340 C 0.82088 0.83367 0.52587
 C341 C -0.02553 0.27705 0.41928
 H342 H -0.00636 0.28635 0.42035
 C343 C -0.04741 0.28756 0.43341
 H344 H -0.04509 0.30491 0.44554
 C345 C -0.05248 0.24404 0.40098
 H346 H -0.05467 0.22764 0.38770
 C347 C -0.07480 0.25388 0.41477
 H348 H -0.09395 0.24483 0.41224
 N349 N -0.02845 0.25575 0.40334
 C350 C 0.05003 0.22068 0.38693
 H351 H 0.04860 0.21973 0.36553
 C352 C 0.07276 0.21085 0.39945
 H353 H 0.08890 0.20223 0.38769
 C354 C 0.03069 0.23309 0.42840
 H355 H 0.01417 0.24167 0.43954
 C356 C 0.05318 0.22344 0.44178
 H357 H 0.05400 0.22463 0.46324
 Zn358 Zn 0.00062 0.24478 0.38136
 N359 N 0.02973 0.23182 0.40140
 C360 C 0.03647 0.28382 0.36292
 N361 N 0.01127 0.27478 0.36069
 C362 C -0.00694 0.28806 0.34545
 C363 C 0.00006 0.31136 0.33155
 C364 C 0.04426 0.30690 0.34937
 C365 C -0.01497 0.19320 0.37269
 C366 C -0.02319 0.17126 0.35866
 C367 C -0.01986 0.19747 0.31796
 C368 C -0.01164 0.21900 0.33280
 N369 N -0.00978 0.21657 0.35973
 H370 H 0.05047 0.27354 0.37567
 H371 H -0.02700 0.28078 0.34447
 H372 H -0.01456 0.32199 0.31966
 H373 H 0.06429 0.31405 0.35150
 H374 H -0.01303 0.19178 0.39407
 H375 H -0.02771 0.15288 0.36924
 H376 H -0.02174 0.19958 0.29659
 H377 H -0.00696 0.23760 0.32284
 C378 C 0.07444 0.21235 0.42708
 C379 C -0.07232 0.27600 0.43088
 C380 C -0.02583 0.17346 0.33109
 C381 C 0.02590 0.32086 0.33365
 C382 C 1.02384 0.78228 0.08496
 H383 H 1.00463 0.79214 0.08316
 C384 C 1.04602 0.79247 0.07129
 H385 H 1.04388 0.81015 0.05880
 C386 C 1.05055 0.74810 0.10457
 H387 H 1.05250 0.73135 0.11818
 C388 C 1.07316 0.75760 0.09128
 H389 H 1.09231 0.74794 0.09449
 N390 N 1.02651 0.76055 0.10131
 C391 C 0.94764 0.72787 0.11550
 H392 H 0.94801 0.72692 0.13701
 C393 C 0.92586 0.71823 0.10221
 H394 H 0.90937 0.70982 0.11349
 C395 C 0.96893 0.73956 0.07452
 H396 H 0.98593 0.74760 0.06388
 C397 C 0.94744 0.73006 0.06039
 H398 H 0.94785 0.73089 0.03884
 Zn399 Zn 0.99688 0.74984 0.12249
 N400 N 0.96851 0.73844 0.10162
 C401 C 0.96056 0.78961 0.14014
 N402 N 0.98566 0.77943 0.14289
 C403 C 1.00353 0.79123 0.15869
 C404 C 0.99626 0.81410 0.17272
 C405 C 0.95251 0.81235 0.15379
 C406 C 1.01254 0.69748 0.13160
 C407 C 1.02044 0.67473 0.14584
 C408 C 1.01555 0.69941 0.18651
 C409 C 1.00768 0.72180 0.17145
 N410 N 1.00676 0.72050 0.14445
 H411 H 0.94687 0.78049 0.12696
 H412 H 1.02352 0.78306 0.16009
 H413 H 1.01060 0.82352 0.18510
 H414 H 0.93255 0.82042 0.15129
 H415 H 1.01133 0.69698 0.11015
 H416 H 1.02545 0.65663 0.13536
 H417 H 1.01671 0.70061 0.20795
 H418 H 1.00251 0.74014 0.18131
 C419 C 0.92573 0.71932 0.07443
 C420 C 1.07094 0.78014 0.07472
 C421 C 1.02214 0.67575 0.17351
 C422 C 0.97051 0.82476 0.17014
 C423 C 0.52381 0.28226 0.58496
 H424 H 0.50460 0.29212 0.58317
 C425 C 0.54599 0.29245 0.57130
 H426 H 0.54386 0.31013 0.55881
 C427 C 0.55052 0.24807 0.60457
 H428 H 0.55246 0.23131 0.61817
 C429 C 0.57313 0.25757 0.59127
 H430 H 0.59227 0.24790 0.59448
 N431 N 0.52647 0.26052 0.60132
 C432 C 0.44760 0.22786 0.61551
 H433 H 0.44797 0.22692 0.63702
 C434 C 0.42581 0.21823 0.60222
 H435 H 0.40932 0.20983 0.61350
 C436 C 0.46890 0.23955 0.57453
 H437 H 0.48590 0.24757 0.56389
 C438 C 0.44740 0.23005 0.56039
 H439 H 0.44781 0.23087 0.53884
 Zn440 Zn 0.49685 0.24982 0.62250
 N441 N 0.46847 0.23842 0.60162
 C442 C 0.46053 0.28959 0.64016
 N443 N 0.48563 0.27941 0.64290
 C444 C 0.50350 0.29121 0.65869
 C445 C 0.49624 0.31408 0.67272
 C446 C 0.45248 0.31233 0.65381
 C447 C 0.51250 0.19746 0.63160
 C448 C 0.52040 0.17471 0.64585
 C449 C 0.51550 0.19939 0.68652
 C450 C 0.50763 0.22177 0.67145
 N451 N 0.50672 0.22048 0.64445
 H452 H 0.44683 0.28047 0.62698
 H453 H 0.52350 0.28304 0.66008
 H454 H 0.51059 0.32351 0.68510
 H455 H 0.43252 0.32039 0.65132
 H456 H 0.51130 0.19695 0.61015
 H457 H 0.52542 0.15661 0.63536
 H458 H 0.51665 0.20058 0.70795
 H459 H 0.50247 0.24011 0.68131
 C460 C 0.42568 0.21932 0.57444
 C461 C 0.57091 0.28011 0.57472
 C462 C 0.52210 0.17572 0.67351
 C463 C 0.47049 0.32474 0.67015
 C464 C 0.47449 0.77705 0.91929
 H465 H 0.49366 0.78635 0.92036
 C466 C 0.45260 0.78757 0.93341
 H467 H 0.45493 0.80492 0.94554
 C468 C 0.44753 0.74405 0.90099
 H469 H 0.44534 0.72765 0.88771
 C470 C 0.42521 0.75389 0.91478
 H471 H 0.40605 0.74484 0.91225
 N472 N 0.47155 0.75575 0.90335
 C473 C 0.55003 0.72065 0.88694
 H474 H 0.54859 0.71969 0.86554
 C475 C 0.57276 0.71082 0.89946
 H476 H 0.58888 0.70218 0.88770
 C477 C 0.53071 0.73310 0.92841
 H478 H 0.51419 0.74168 0.93955
 C479 C 0.55320 0.72344 0.94178
 H480 H 0.55402 0.72464 0.96324
 Zn481 Zn 0.50062 0.74477 0.88137
 N482 N 0.52974 0.73180 0.90141
 C483 C 0.53648 0.78380 0.86292
 N484 N 0.51128 0.77476 0.86070
 C485 C 0.49307 0.78804 0.84545
 C486 C 0.50008 0.81134 0.83154
 C487 C 0.54427 0.80688 0.84937
 C488 C 0.48503 0.69319 0.87271
 C489 C 0.47682 0.67125 0.85868
 C490 C 0.48013 0.69745 0.81797
 C491 C 0.48836 0.71898 0.83281
 N492 N 0.49022 0.71656 0.85974
 H493 H 0.55048 0.77352 0.87568
 H494 H 0.47301 0.78076 0.84447
 H495 H 0.48546 0.82197 0.81965
 H496 H 0.56431 0.81402 0.85150
 H497 H 0.48698 0.69177 0.89409
 H498 H 0.47230 0.65286 0.86927
 H499 H 0.47824 0.69956 0.79661
 H500 H 0.49303 0.73758 0.82285
 C501 C 0.57444 0.71234 0.92709
 C502 C 0.42769 0.77602 0.93089
 C503 C 0.47416 0.67344 0.83111
 C504 C 0.52592 0.82084 0.83365
 C505 C 0.46314 -0.14446 0.34117
 C506 C 0.45095 -0.17222 0.33794
 C507 C 0.47912 -0.18425 0.33471
 C508 C 0.49146 -0.15681 0.33813
 C509 C 0.46238 -0.14018 0.31085
 C510 C 0.49057 -0.15216 0.30758
 C511 C 0.45005 -0.16762 0.30744
 C512 C 0.47838 -0.18002 0.30439
 C513 C 0.48798 -0.20846 0.34888
 C514 C 0.49493 -0.22787 0.36159
 C515 C 0.45229 -0.11567 0.29806
 C516 C 0.44308 -0.09572 0.28789
 H517 H 0.45680 -0.12959 0.35617
 H518 H 0.43474 -0.18074 0.35055
 H519 H 0.50860 -0.15265 0.35091
 H520 H 0.50676 -0.14361 0.29498
 H521 H 0.43289 -0.17179 0.29467
 H522 H 0.48473 -0.19493 0.28944
 C523 C 0.96311 0.35555 0.84115
 C524 C 0.95093 0.32778 0.83791
 C525 C 0.97911 0.31576 0.83471
 C526 C 0.99144 0.34320 0.83814
 C527 C 0.96238 0.35983 0.81084
 C528 C 0.99057 0.34785 0.80759
 C529 C 0.95006 0.33238 0.80741
 C530 C 0.97840 0.31999 0.80439
 C531 C 0.98796 0.29155 0.84889
 C532 C 0.99491 0.27215 0.86160
 C533 C 0.95229 0.38434 0.79803
 C534 C 0.94308 0.40428 0.78786
 H535 H 0.95675 0.37041 0.85614
 H536 H 0.93472 0.31926 0.85050
 H537 H 1.00857 0.34737 0.85094
 H538 H 1.00677 0.35641 0.79500
 H539 H 0.93292 0.32820 0.79463
 H540 H 0.98477 0.30508 0.78944
 C541 C 0.05964 1.16522 0.81299
 C542 C 0.03358 1.18075 0.80640
 C543 C 0.02768 1.18331 0.83634
 C544 C 0.05358 1.16816 0.84311
 C545 C 0.04413 1.13915 0.81351
 C546 C 0.03821 1.14177 0.84344
 C547 C 0.01822 1.15427 0.80670
 C548 C 0.01216 1.15725 0.83687
 C549 C 0.01883 1.20752 0.84994
 C550 C 0.01170 1.22686 0.86217
 C551 C 0.05398 1.11455 0.80127
 C552 C 0.06291 1.09448 0.79153
 H553 H 0.07928 1.16822 0.80304
 H554 H 0.03159 1.19705 0.79134
 H555 H 0.06804 1.17415 0.85819
 H556 H 0.04019 1.12550 0.85855
 H557 H 0.00377 1.14825 0.79162
 H558 H -0.00748 1.15427 0.84683
 C559 C 0.54270 0.64315 0.34370
 C560 C 0.55555 0.67068 0.33958
 C561 C 0.52771 0.68330 0.33632
 C562 C 0.51471 0.65609 0.34063
 C563 C 0.54417 0.63914 0.31349
 C564 C 0.51631 0.65173 0.31020
 C565 C 0.55717 0.66635 0.30918
 C566 C 0.52916 0.67935 0.30610
 C567 C 0.51886 0.70751 0.34991
 C568 C 0.51173 0.72685 0.36215
 C569 C 0.55402 0.61454 0.30125
 C570 C 0.56296 0.59447 0.29151
 H571 H 0.54833 0.62801 0.35904
 H572 H 0.57161 0.67874 0.35178
 H573 H 0.49713 0.65216 0.35372
 H574 H 0.50028 0.64363 0.29800
 H575 H 0.57476 0.67029 0.29611
 H576 H 0.52352 0.69453 0.29080
 C577 C 0.51163 0.35026 0.18991
 C578 C 0.51028 0.34716 0.15933
 C579 C 0.52244 0.31900 0.16226
 C580 C 0.52363 0.32167 0.19260
 C581 C 0.53988 0.36107 0.18637
 C582 C 0.55203 0.33291 0.18929
 C583 C 0.53866 0.35833 0.15604
 C584 C 0.55066 0.32988 0.15878
 C585 C 0.51349 0.29585 0.14786
 C586 C 0.50675 0.27724 0.13499
 C587 C 0.55070 0.38446 0.19901
 C588 C 0.56083 0.40346 0.20864
 H589 H 0.49571 0.35892 0.20285
 H590 H 0.49300 0.35274 0.14684
 H591 H 0.51736 0.30631 0.20746
 H592 H 0.56932 0.32730 0.20175
 H593 H 0.54493 0.37364 0.14113
 H594 H 0.56663 0.32126 0.14585
 C595 C 0.05244 0.83304 0.68875
 C596 C 0.02427 0.82138 0.69259
 C597 C 0.02242 0.81901 0.66226
 C598 C 0.05041 0.83031 0.65825
 C599 C 0.03985 0.86107 0.68641
 C600 C 0.03797 0.85862 0.65609
 C601 C 0.01183 0.84982 0.69047
 C602 C 0.00982 0.84702 0.65991
 C603 C 0.01348 0.79586 0.64786
 C604 C 0.00675 0.77725 0.63497
 C605 C 0.05066 0.88445 0.69905
 C606 C 0.06079 0.90345 0.70869
 H607 H 0.07008 0.82754 0.70075
 H608 H 0.01854 0.80578 0.70742
 H609 H 0.06619 0.82204 0.64488
 H610 H 0.04369 0.87417 0.64120
 H611 H -0.00391 0.85814 0.70386
 H612 H -0.00782 0.85249 0.64788
 C613 C 0.96181 0.64835 0.65161
 C614 C 0.94831 0.67595 0.65546
 C615 C 0.97578 0.68788 0.65967
 C616 C 0.98943 0.66060 0.65564
 C617 C 0.95945 0.64308 0.68175
 C618 C 0.98694 0.65495 0.68601
 C619 C 0.94581 0.67037 0.68577
 C620 C 0.97345 0.68268 0.68982
 C621 C 0.98436 0.71250 0.64636
 C622 C 0.99112 0.73223 0.63424
 C623 C 0.94938 0.61819 0.69333
 C624 C 0.93992 0.59799 0.70225
 H625 H 0.95695 0.63398 0.63600
 H626 H 0.93250 0.68485 0.64279
 H627 H 1.00748 0.65688 0.64309
 H628 H 1.00273 0.64602 0.69868
 H629 H 0.92776 0.67410 0.69830
 H630 H 0.97831 0.69710 0.70538
 C631 C 0.46176 0.14837 0.15167
 C632 C 0.44829 0.17597 0.15555
 C633 C 0.47577 0.18788 0.15973
 C634 C 0.48939 0.16059 0.15566
 C635 C 0.45944 0.14308 0.18181
 C636 C 0.48695 0.15494 0.18603
 C637 C 0.44583 0.17038 0.18587
 C638 C 0.47349 0.18267 0.18988
 C639 C 0.48436 0.21249 0.14640
 C640 C 0.49111 0.23223 0.13428
 C641 C 0.44937 0.11820 0.19340
 C642 C 0.43991 0.09800 0.20232
 H643 H 0.45686 0.13400 0.13606
 H644 H 0.43246 0.18489 0.14291
 H645 H 0.50742 0.15687 0.14308
 H646 H 0.50275 0.14598 0.19868
 H647 H 0.42780 0.17413 0.19842
 H648 H 0.47838 0.19708 0.20543
 C649 C 0.34118 0.46315 -0.14442
 C650 C 0.33799 0.45093 -0.17218
 C651 C 0.33473 0.47909 -0.18422
 C652 C 0.33812 0.49145 -0.15679
 C653 C 0.31086 0.46236 -0.14016
 C654 C 0.30757 0.49053 -0.15217
 C655 C 0.30749 0.44999 -0.16760
 C656 C 0.30441 0.47832 -0.18002
 C657 C 0.34891 0.48794 -0.20844
 C658 C 0.36162 0.49489 -0.22784
 C659 C 0.29807 0.45226 -0.11565
 C660 C 0.28789 0.44305 -0.09571
 H661 H 0.35617 0.45684 -0.12954
 H662 H 0.35062 0.43473 -0.18067
 H663 H 0.35087 0.50862 -0.15264
 H664 H 0.29493 0.50671 -0.14364
 H665 H 0.29475 0.43282 -0.17177
 H666 H 0.28946 0.48464 -0.19495
 C667 C 0.84119 0.96320 0.35556
 C668 C 0.83803 0.95096 0.32781
 C669 C 0.83474 0.97911 0.31574
 C670 C 0.83810 0.99150 0.34317
 C671 C 0.81087 0.96238 0.35981
 C672 C 0.80755 0.99054 0.34779
 C673 C 0.80752 0.95000 0.33238
 C674 C 0.80442 0.97831 0.31994
 C675 C 0.84891 0.98796 0.29153
 C676 C 0.86163 0.99491 0.27213
 C677 C 0.79808 0.95229 0.38432
 C678 C 0.78790 0.94308 0.40426
 H679 H 0.85618 0.95692 0.37045
 H680 H 0.85068 0.93477 0.31933
 H681 H 0.85084 1.00868 0.34732
 H682 H 0.79490 1.00672 0.35630
 H683 H 0.79480 0.93281 0.32822
 H684 H 0.78947 0.98460 0.30500
 C685 C 0.80933 0.05723 1.16632
 C686 C 0.80615 0.02927 1.17939
 C687 C 0.83637 0.02769 1.18329
 C688 C 0.83973 0.05548 1.17060
 C689 C 0.81353 0.04414 1.13913
 C690 C 0.84375 0.04254 1.14309
 C691 C 0.81013 0.01633 1.15179
 C692 C 0.84057 0.01460 1.15611
 C693 C 0.84996 0.01884 1.20750
 C694 C 0.86220 0.01170 1.22684
 C695 C 0.80129 0.05399 1.11453
 C696 C 0.79155 0.06292 1.09446
 H697 H 0.79634 0.07488 1.17023
 H698 H 0.79084 0.02373 1.19461
 H699 H 0.85202 0.07150 1.17860
 H700 H 0.85909 0.04807 1.12791
 H701 H 0.79785 0.00033 1.14376
 H702 H 0.85357 -0.00304 1.15220
 C703 C 0.30926 0.55716 0.66636
 C704 C 0.30614 0.52917 0.67939
 C705 C 0.33636 0.52767 0.68332
 C706 C 0.33967 0.55549 0.67067
 C707 C 0.31353 0.54413 0.63916
 C708 C 0.34374 0.54260 0.64315
 C709 C 0.31020 0.51629 0.65178
 C710 C 0.34063 0.51463 0.65613
 C711 C 0.34995 0.51882 0.70753
 C712 C 0.36219 0.51168 0.72687
 C713 C 0.30130 0.55398 0.61456
 C714 C 0.29156 0.56292 0.59449
 H715 H 0.29623 0.57477 0.67030
 H716 H 0.29084 0.52357 0.69458
 H717 H 0.35190 0.57153 0.67872
 H718 H 0.35909 0.54819 0.62800
 H719 H 0.29796 0.50026 0.64371
 H720 H 0.35368 0.49703 0.65220
 C721 C 0.19257 0.54902 0.33232
 C722 C 0.19234 0.51960 0.32360
 C723 C 0.16228 0.52242 0.31903
 C724 C 0.16233 0.55165 0.32739
 C725 C 0.18642 0.53986 0.36109
 C726 C 0.15637 0.54264 0.35644
 C727 C 0.18642 0.51061 0.35279
 C728 C 0.15613 0.51326 0.34779
 C729 C 0.14788 0.51347 0.29588
 C730 C 0.13499 0.50674 0.27727
 C731 C 0.19906 0.55067 0.38446
 C732 C 0.20870 0.56080 0.40347
 H733 H 0.20770 0.56384 0.32622
 H734 H 0.20695 0.51004 0.30980
 H735 H 0.15229 0.56843 0.31670
 H736 H 0.14170 0.55219 0.37018
 H737 H 0.19646 0.49385 0.36352
 H738 H 0.14098 0.49845 0.35388
 C739 C 0.69011 0.01167 0.85011
 C740 C 0.65953 0.01011 0.84711
 C741 C 0.66227 0.02240 0.81899
 C742 C 0.69261 0.02380 0.82156
 C743 C 0.68641 0.03985 0.86106
 C744 C 0.68914 0.05213 0.83293
 C745 C 0.65608 0.03842 0.85841
 C746 C 0.65863 0.05056 0.83001
 C747 C 0.64787 0.01346 0.79585
 C748 C 0.63499 0.00672 0.77724
 C749 C 0.69905 0.05066 0.88443
 C750 C 0.70868 0.06079 0.90344
 H751 H 0.70319 -0.00421 0.85866
 H752 H 0.64719 -0.00729 0.85266
 H753 H 0.70746 0.01770 0.80613
 H754 H 0.70146 0.06953 0.82735
 H755 H 0.64117 0.04451 0.87380
 H756 H 0.64556 0.06647 0.82150
 C757 C 0.68588 0.98699 0.65484
 C758 C 0.65551 0.98927 0.66056
 C759 C 0.65971 0.97575 0.68787
 C760 C 0.68986 0.97362 0.68260
 C761 C 0.68179 0.95942 0.64307
 C762 C 0.68598 0.94590 0.67039
 C763 C 0.65164 0.96158 0.64841
 C764 C 0.65566 0.94820 0.67604
 C765 C 0.64639 0.98433 0.71249
 C766 C 0.63427 0.99108 0.73223
 C767 C 0.69337 0.94936 0.61818
 C768 C 0.70230 0.93990 0.59797
 H769 H 0.69841 1.00284 0.64582
 H770 H 0.64282 1.00722 0.65682
 H771 H 0.70541 0.97864 0.69696
 H772 H 0.69864 0.92795 0.67415
 H773 H 0.63604 0.95656 0.63410
 H774 H 0.64313 0.93233 0.68502
 C775 C 0.18618 0.44605 0.17046
 C776 C 0.18987 0.47386 0.18254
 C777 C 0.15972 0.47576 0.18790
 C778 C 0.15587 0.44813 0.17620
 C779 C 0.18180 0.45943 0.14310
 C780 C 0.15166 0.46136 0.14853
 C781 C 0.18570 0.48708 0.15475
 C782 C 0.15533 0.48914 0.16055
 C783 C 0.14640 0.48434 0.21252
 C784 C 0.13428 0.49110 0.23225
 C785 C 0.19338 0.44936 0.11822
 C786 C 0.20231 0.43990 0.09801
 H787 H 0.19900 0.42822 0.17425
 H788 H 0.20542 0.47908 0.19683
 H789 H 0.14349 0.43218 0.18528
 H790 H 0.13606 0.45615 0.13429
 H791 H 0.19808 0.50300 0.14562
 H792 H 0.14249 0.50697 0.15678
 C793 C -0.16760 0.30740 0.45004
 C794 C -0.18000 0.30438 0.47838
 C795 C -0.18423 0.33470 0.47909
 C796 C -0.17221 0.33791 0.45092
 C797 C -0.14016 0.31083 0.46236
 C798 C -0.14445 0.34115 0.46310
 C799 C -0.15214 0.30758 0.49056
 C800 C -0.15679 0.33813 0.49142
 C801 C -0.20845 0.34887 0.48794
 C802 C -0.22786 0.36158 0.49489
 C803 C -0.11565 0.29804 0.45227
 C804 C -0.09570 0.28787 0.44306
 H805 H -0.17178 0.29463 0.43289
 H806 H -0.19491 0.28943 0.48474
 H807 H -0.18074 0.35050 0.43470
 H808 H -0.12958 0.35614 0.45674
 H809 H -0.14358 0.29499 0.50675
 H810 H -0.15263 0.35093 0.50856
 C811 C 0.34787 0.80759 0.99055
 C812 C 0.34323 0.83814 0.99145
 C813 C 0.31580 0.83473 0.97910
 C814 C 0.32001 0.80441 0.97835
 C815 C 0.35986 0.81086 0.96237
 C816 C 0.33242 0.80747 0.95002
 C817 C 0.35559 0.84118 0.96314
 C818 C 0.32783 0.83797 0.95094
 C819 C 0.29158 0.84891 0.98795
 C820 C 0.27218 0.86162 0.99491
 C821 C 0.38437 0.79806 0.95228
 C822 C 0.40431 0.78789 0.94307
 H823 H 0.35640 0.79497 1.00674
 H824 H 0.34739 0.85091 1.00860
 H825 H 0.30509 0.78946 0.98469
 H826 H 0.32825 0.79471 0.93286
 H827 H 0.37047 0.85617 0.95681
 H828 H 0.31932 0.85059 0.93473
 C829 C 1.16639 0.80926 0.05719
 C830 C 1.17943 0.80612 0.02920
 C831 C 1.18335 0.83634 0.02768
 C832 C 1.17069 0.83966 0.05550
 C833 C 1.13919 0.81351 0.04414
 C834 C 1.14317 0.84373 0.04260
 C835 C 1.15181 0.81016 0.01630
 C836 C 1.15616 0.84060 0.01464
 C837 C 1.20755 0.84994 0.01883
 C838 C 1.22689 0.86218 0.01170
 C839 C 1.11459 0.80128 0.05399
 C840 C 1.09452 0.79154 0.06292
 H841 H 1.17032 0.79623 0.07481
 H842 H 1.19463 0.79082 0.02362
 H843 H 1.17872 0.85190 0.07154
 H844 H 1.12801 0.85907 0.04818
 H845 H 1.14375 0.79792 0.00029
 H846 H 1.15224 0.85364 -0.00298
 C847 C 0.64079 0.34234 0.53374
 C848 C 0.66564 0.34611 0.55089
 C849 C 0.68331 0.33631 0.52767
 C850 C 0.65881 0.33273 0.51036
 C851 C 0.63916 0.31348 0.54413
 C852 C 0.65680 0.30363 0.52091
 C853 C 0.66368 0.31708 0.56142
 C854 C 0.68172 0.30745 0.53806
 C855 C 0.70751 0.34991 0.51882
 C856 C 0.72686 0.36215 0.51168
 C857 C 0.61456 0.30124 0.55398
 C858 C 0.59449 0.29150 0.56292
 H859 H 0.62372 0.35656 0.53205
 H860 H 0.66954 0.36370 0.56315
 H861 H 0.65710 0.33931 0.48925
 H862 H 0.65286 0.28604 0.50867
 H863 H 0.66541 0.31053 0.58254
 H864 H 0.69883 0.29327 0.53974
 C865 C 0.35177 0.15895 0.54978
 C866 C 0.32289 0.17002 0.55149
 C867 C 0.31901 0.16225 0.52244
 C868 C 0.34761 0.15099 0.52060
 C869 C 0.36107 0.18640 0.53986
 C870 C 0.35725 0.17865 0.51079
 C871 C 0.33248 0.19768 0.54172
 C872 C 0.32824 0.18970 0.51246
 C873 C 0.29587 0.14784 0.51350
 C874 C 0.27725 0.13495 0.50676
 C875 C 0.38445 0.19904 0.55067
 C876 C 0.40346 0.20867 0.56080
 H877 H 0.36169 0.14641 0.56521
 H878 H 0.30852 0.16633 0.56813
 H879 H 0.35357 0.13163 0.51183
 H880 H 0.37165 0.18233 0.49418
 H881 H 0.32653 0.21704 0.55051
 H882 H 0.31826 0.20217 0.49702
 C883 C 0.85839 0.65606 0.03862
 C884 C 0.82994 0.65879 0.05063
 C885 C 0.81906 0.66226 0.02240
 C886 C 0.84722 0.65935 0.01024
 C887 C 0.86113 0.68639 0.03985
 C888 C 0.85030 0.68993 0.01160
 C889 C 0.83296 0.68930 0.05199
 C890 C 0.82172 0.69261 0.02360
 C891 C 0.79591 0.64787 0.01346
 C892 C 0.77730 0.63498 0.00672
 C893 C 0.88450 0.69903 0.05066
 C894 C 0.90351 0.70867 0.06079
 H895 H 0.87371 0.64115 0.04489
 H896 H 0.82133 0.64585 0.06659
 H897 H 0.85280 0.64686 -0.00704
 H898 H 0.85896 0.70287 -0.00433
 H899 H 0.82735 0.70176 0.06928
 H900 H 0.80636 0.70746 0.01733
 C901 C 0.64834 0.65164 0.96192
 C902 C 0.67592 0.65537 0.94834
 C903 C 0.68793 0.65970 0.97575
 C904 C 0.66067 0.65579 0.98948
 C905 C 0.64313 0.68178 0.95942
 C906 C 0.65508 0.68616 0.98686
 C907 C 0.67039 0.68569 0.94570
 C908 C 0.68278 0.68985 0.97328
 C909 C 0.71255 0.64639 0.98433
 C910 C 0.73228 0.63427 0.99109
 C911 C 0.61824 0.69336 0.94935
 C912 C 0.59803 0.70228 0.93990
 H913 H 0.63393 0.63604 0.95718
 H914 H 0.68475 0.64261 0.93257
 H915 H 0.65698 0.64334 1.00760
 H916 H 0.64620 0.69892 1.00260
 H917 H 0.67411 0.69812 0.92757
 H918 H 0.69724 0.70541 0.97803
 C919 C 0.17034 0.18549 0.44557
 C920 C 0.18285 0.18985 0.47307
 C921 C 0.18790 0.15970 0.47577
 C922 C 0.17577 0.15518 0.44844
 C923 C 0.14311 0.18179 0.45943
 C924 C 0.14824 0.15165 0.46215
 C925 C 0.15518 0.18635 0.48678
 C926 C 0.16068 0.15598 0.48963
 C927 C 0.21251 0.14637 0.48436
 C928 C 0.23224 0.13425 0.49112
 C929 C 0.11823 0.19337 0.44935
 C930 C 0.09802 0.20230 0.43989
 H931 H 0.17404 0.19777 0.42733
 H932 H 0.19738 0.20539 0.47763
 H933 H 0.18451 0.14226 0.43275
 H934 H 0.13375 0.13605 0.45759
 H935 H 0.14640 0.19927 0.50243
 H936 H 0.15700 0.14369 0.50786
 C937 C 0.58237 0.10430 0.71292
 C938 C 0.57831 0.09331 0.74165
 C939 C 0.57496 0.06537 0.73045
 C940 C 0.57919 0.07607 0.70189
 C941 C 0.55216 0.10886 0.71101
 C942 C 0.54881 0.08091 0.69983
 C943 C 0.54786 0.09823 0.73959
 C944 C 0.54474 0.06984 0.72858
 C945 C 0.58877 0.04138 0.74030
 C946 C 0.60134 0.02201 0.74753
 C947 C 0.54041 0.13301 0.69907
 C948 C 0.53162 0.15267 0.68806
 H949 H 0.59773 0.11872 0.70638
 H950 H 0.59060 0.09811 0.75897
 H951 H 0.59220 0.06670 0.68648
 H952 H 0.53655 0.07608 0.68249
 H953 H 0.53484 0.10765 0.75495
 H954 H 0.52944 0.05536 0.73513
 C955 C 1.04869 0.58090 0.19995
 C956 C 1.07907 0.57598 0.20184
 C957 C 1.07498 0.56539 0.23046
 C958 C 1.04476 0.56994 0.22876
 C959 C 1.05219 0.60888 0.21101
 C960 C 1.04804 0.59837 0.23965
 C961 C 1.08240 0.60424 0.21275
 C962 C 1.07850 0.59336 0.24153
 C963 C 1.08879 0.54141 0.24032
 C964 C 1.10136 0.52203 0.24755
 C965 C 1.04045 0.63303 0.19907
 C966 C 1.03167 0.65270 0.18805
 H967 H 1.03630 0.57605 0.18272
 H968 H 1.09195 0.56652 0.18639
 H969 H 1.02945 0.55554 0.23547
 H970 H 1.03515 0.60788 0.25506
 H971 H 1.09777 0.61859 0.20605
 H972 H 1.09091 0.59819 0.25876
 C973 C 0.94730 0.90342 0.23338
 C974 C 0.95149 0.93194 0.22186
 C975 C 0.92133 0.93718 0.22401
 C976 C 0.91693 0.90911 0.23569
 C977 C 0.94347 0.89351 0.20501
 C978 C 0.91332 0.89884 0.20720
 C979 C 0.94787 0.92157 0.19331
 C980 C 0.91755 0.92719 0.19566
 C981 C 0.90772 0.96114 0.23384
 C982 C 0.89520 0.98039 0.24123
 C983 C 0.95456 0.86901 0.19361
 C984 C 0.96246 0.84881 0.18337
 H985 H 0.95967 0.89334 0.24875
 H986 H 0.96702 0.94585 0.22801
 H987 H 0.90406 0.90427 0.25324
 H988 H 0.89773 0.88500 0.20107
 H989 H 0.96073 0.92641 0.17575
 H990 H 0.90518 0.93722 0.18025
 C991 C 0.44801 0.42157 0.69344
 C992 C 0.41770 0.42728 0.69561
 C993 C 0.42132 0.43716 0.72402
 C994 C 0.45148 0.43184 0.72206
 C995 C 0.44346 0.39348 0.70502
 C996 C 0.44713 0.40329 0.73346
 C997 C 0.41331 0.39891 0.70703
 C998 C 0.41677 0.40907 0.73559
 C999 C 0.40771 0.46112 0.73386
 C1000 C 0.39519 0.48037 0.74126
 C1001 C 0.45455 0.36899 0.69362
 C1002 C 0.46245 0.34879 0.68338
 H1003 H 0.46099 0.42643 0.67599
 H1004 H 0.40546 0.43739 0.68015
 H1005 H 0.46700 0.44568 0.72836
 H1006 H 0.45937 0.39313 0.74888
 H1007 H 0.39772 0.38513 0.70075
 H1008 H 0.40377 0.40421 0.75304
 C1009 C 0.44630 0.58067 0.80588
 C1010 C 0.41597 0.57739 0.80296
 C1011 C 0.42095 0.56703 0.77471
 C1012 C 0.45113 0.56996 0.77745
 C1013 C 0.44366 0.60900 0.79410
 C1014 C 0.44870 0.59872 0.76584
 C1015 C 0.41349 0.60600 0.79133
 C1016 C 0.41829 0.59536 0.76291
 C1017 C 0.40726 0.54388 0.76480
 C1018 C 0.39488 0.52517 0.75746
 C1019 C 0.45545 0.63230 0.80595
 C1020 C 0.46437 0.65125 0.81681
 H1021 H 0.45795 0.57489 0.82369
 H1022 H 0.40239 0.56837 0.81813
 H1023 H 0.46643 0.55485 0.77163
 H1024 H 0.46229 0.60778 0.75071
 H1025 H 0.39813 0.62106 0.79715
 H1026 H 0.40662 0.60111 0.74512
 C1027 C -0.08650 0.10603 0.29130
 C1028 C -0.08171 0.09538 0.26289
 C1029 C -0.07905 0.06706 0.27468
 C1030 C -0.08402 0.07741 0.30293
 C1031 C -0.05634 0.10903 0.29407
 C1032 C -0.05369 0.08069 0.30585
 C1033 C -0.05130 0.09874 0.26580
 C1034 C -0.04887 0.06998 0.27742
 C1035 C -0.09274 0.04390 0.26478
 C1036 C -0.10512 0.02519 0.25743
 C1037 C -0.04454 0.13232 0.30592
 C1038 C -0.03562 0.15127 0.31678
 H1039 H -0.10186 0.12108 0.29712
 H1040 H -0.09338 0.10114 0.24509
 H1041 H -0.09761 0.06839 0.31810
 H1042 H -0.04204 0.07491 0.32366
 H1043 H -0.03771 0.10780 0.25067
 H1044 H -0.03357 0.05488 0.27160
 C1045 C 0.04413 0.41867 0.30746
 C1046 C 0.07371 0.42570 0.31093
 C1047 C 0.07539 0.43397 0.28139
 C1048 C 0.04600 0.42733 0.27770
 C1049 C 0.05288 0.39035 0.29974
 C1050 C 0.05453 0.39856 0.27018
 C1051 C 0.08226 0.39709 0.30337
 C1052 C 0.08411 0.40564 0.27370
 C1053 C 0.08912 0.45777 0.27170
 C1054 C 0.10160 0.47680 0.26415
 C1055 C 0.04163 0.36575 0.31075
 C1056 C 0.03373 0.34532 0.32070
 H1057 H 0.02754 0.42374 0.32146
 H1058 H 0.08174 0.43711 0.32759
 H1059 H 0.03125 0.44008 0.26703
 H1060 H 0.04651 0.38712 0.25355
 H1061 H 0.09707 0.38440 0.31402
 H1062 H 0.10071 0.40054 0.25972
 C1063 C 0.54954 0.90162 0.77136
 C1064 C 0.54520 0.92980 0.78299
 C1065 C 0.57540 0.93394 0.78137
 C1066 C 0.57993 0.90621 0.76957
 C1067 C 0.55289 0.89033 0.79973
 C1068 C 0.58307 0.89456 0.79806
 C1069 C 0.54835 0.91805 0.81154
 C1070 C 0.57870 0.92258 0.80971
 C1071 C 0.58912 0.95775 0.77168
 C1072 C 0.60159 0.97678 0.76413
 C1073 C 0.54165 0.86572 0.81075
 C1074 C 0.53375 0.84529 0.82069
 H1075 H 0.53741 0.89272 0.75573
 H1076 H 0.52980 0.94460 0.77669
 H1077 H 0.59308 0.90162 0.75221
 H1078 H 0.59854 0.87983 0.80435
 H1079 H 0.53521 0.92264 0.82892
 H1080 H 0.59084 0.93144 0.82538
 C1081 C 0.71331 0.58235 0.10446
 C1082 C 0.74193 0.57801 0.09326
 C1083 C 0.73050 0.57495 0.06537
 C1084 C 0.70206 0.57948 0.07627
 C1085 C 0.71106 0.55216 0.10885
 C1086 C 0.69965 0.54911 0.08096
 C1087 C 0.73953 0.54757 0.09803
 C1088 C 0.72828 0.54474 0.06969
 C1089 C 0.74036 0.58877 0.04139
 C1090 C 0.74758 0.60134 0.02202
 C1091 C 0.69912 0.54041 0.13301
 C1092 C 0.68810 0.53162 0.15267
 H1093 H 0.70705 0.59770 0.11900
 H1094 H 0.75944 0.59005 0.09802
 H1095 H 0.68675 0.59273 0.06707
 H1096 H 0.68213 0.53710 0.07617
 H1097 H 0.75479 0.53431 0.10729
 H1098 H 0.73455 0.52945 0.05509
 C1099 C 0.19520 1.05749 0.58342
 C1100 C 0.20664 1.08582 0.58172
 C1101 C 0.23044 1.07493 0.56540
 C1102 C 0.21916 1.04675 0.56675
 C1103 C 0.21101 1.05214 0.60890
 C1104 C 0.23482 1.04116 0.59264
 C1105 C 0.22230 1.08032 0.60749
 C1106 C 0.24630 1.06960 0.59085
 C1107 C 0.24030 1.08875 0.54142
 C1108 C 0.24753 1.10132 0.52205
 C1109 C 0.19907 1.04039 0.63305
 C1110 C 0.18805 1.03160 0.65271
 H1111 H 0.17406 1.05241 0.58063
 H1112 H 0.19513 1.10431 0.57697
 H1113 H 0.21799 1.03311 0.54972
 H1114 H 0.24628 1.02265 0.59745
 H1115 H 0.22347 1.09399 0.62449
 H1116 H 0.26744 1.07473 0.59359
 C1117 C 0.19345 0.94801 0.92161
 C1118 C 0.19562 0.91769 0.92732
 C1119 C 0.22403 0.92131 0.93719
 C1120 C 0.22207 0.95147 0.93186
 C1121 C 0.20502 0.94344 0.89352
 C1122 C 0.23346 0.94711 0.90331
 C1123 C 0.20702 0.91330 0.89894
 C1124 C 0.23559 0.91675 0.90910
 C1125 C 0.23388 0.90770 0.96114
 C1126 C 0.24128 0.89519 0.98040
 C1127 C 0.19361 0.95453 0.86903
 C1128 C 0.18336 0.96243 0.84882
 H1129 H 0.17600 0.96099 0.92648
 H1130 H 0.18015 0.90546 0.93744
 H1131 H 0.22838 0.96699 0.94570
 H1132 H 0.24888 0.95934 0.89315
 H1133 H 0.20073 0.89771 0.88517
 H1134 H 0.25303 0.90374 0.90423
 C1135 C 0.69311 0.44752 0.42149
 C1136 C 0.69581 0.41720 0.42696
 C1137 C 0.72403 0.42127 0.43715
 C1138 C 0.72153 0.45144 0.43207
 C1139 C 0.70504 0.44341 0.39347
 C1140 C 0.73329 0.44754 0.40359
 C1141 C 0.70758 0.41327 0.39865
 C1142 C 0.73595 0.41717 0.40913
 C1143 C 0.73386 0.40766 0.46111
 C1144 C 0.74125 0.39515 0.48037
 C1145 C 0.69364 0.45451 0.36898
 C1146 C 0.68341 0.46241 0.34877
 H1147 H 0.67537 0.46013 0.42630
 H1148 H 0.68049 0.40459 0.43682
 H1149 H 0.72739 0.46696 0.44611
 H1150 H 0.74856 0.46016 0.39368
 H1151 H 0.70174 0.39767 0.38467
 H1152 H 0.75368 0.40454 0.40432
 C1153 C 0.76585 0.44874 0.59865
 C1154 C 0.77753 0.45109 0.56991
 C1155 C 0.77470 0.42092 0.56703
 C1156 C 0.76285 0.41834 0.59534
 C1157 C 0.79409 0.44363 0.60899
 C1158 C 0.79123 0.41347 0.60604
 C1159 C 0.80593 0.44619 0.58068
 C1160 C 0.80291 0.41587 0.57744
 C1161 C 0.76479 0.40722 0.54387
 C1162 C 0.75745 0.39483 0.52517
 C1163 C 0.80594 0.45543 0.63229
 C1164 C 0.81680 0.46435 0.65123
 H1165 H 0.75075 0.46240 0.60767
 H1166 H 0.77178 0.46638 0.55477
 H1167 H 0.74500 0.40673 0.60108
 H1168 H 0.79697 0.39812 0.62113
 H1169 H 0.82378 0.45778 0.57490
 H1170 H 0.81806 0.40222 0.56847
 C1171 C 0.26583 -0.05135 0.09877
 C1172 C 0.27741 -0.04888 0.07001
 C1173 C 0.27473 -0.07906 0.06706
 C1174 C 0.26296 -0.08177 0.09539
 C1175 C 0.29411 -0.05635 0.10903
 C1176 C 0.29140 -0.08652 0.10601
 C1177 C 0.30586 -0.05366 0.08069
 C1178 C 0.30299 -0.08400 0.07738
 C1179 C 0.26482 -0.09275 0.04390
 C1180 C 0.25748 -0.10514 0.02519
 C1181 C 0.30596 -0.04455 0.13233
 C1182 C 0.31682 -0.03564 0.15127
 H1183 H 0.25068 -0.03780 0.10786
 H1184 H 0.27155 -0.03358 0.05492
 H1185 H 0.24519 -0.09348 0.10115
 H1186 H 0.29725 -0.10188 0.12104
 H1187 H 0.32364 -0.04197 0.07490
 H1188 H 0.31818 -0.09754 0.06834
 C1189 C 0.27128 0.04972 0.40152
 C1190 C 0.28274 0.04517 0.42974
 C1191 C 0.28137 0.07535 0.43399
 C1192 C 0.26975 0.08010 0.40622
 C1193 C 0.29974 0.05285 0.39037
 C1194 C 0.29832 0.08301 0.39472
 C1195 C 0.31138 0.04809 0.41814
 C1196 C 0.30980 0.07843 0.42278
 C1197 C 0.27169 0.08908 0.45779
 C1198 C 0.26414 0.10156 0.47683
 C1199 C 0.31075 0.04161 0.36577
 C1200 C 0.32070 0.03370 0.34534
 H1201 H 0.25558 0.03778 0.39249
 H1202 H 0.27622 0.02978 0.44446
 H1203 H 0.25253 0.09343 0.40158
 H1204 H 0.30483 0.09848 0.38007
 H1205 H 0.32861 0.03477 0.42276
 H1206 H 0.32554 0.09038 0.43176
 C1207 C 0.79925 0.58300 0.89504
 C1208 C 0.77041 0.58087 0.90603
 C1209 C 0.78142 0.57539 0.93394
 C1210 C 0.81012 0.57769 0.92325
 C1211 C 0.79978 0.55288 0.89032
 C1212 C 0.81081 0.54739 0.91823
 C1213 C 0.77105 0.55054 0.90096
 C1214 C 0.78190 0.54526 0.92932
 C1215 C 0.77173 0.58912 0.95775
 C1216 C 0.76418 0.60159 0.97678
 C1217 C 0.81079 0.54164 0.86572
 C1218 C 0.82073 0.53373 0.84529
 H1219 H 0.80648 0.59842 0.88070
 H1220 H 0.75369 0.59479 0.90128
 H1221 H 0.82608 0.58899 0.93266
 H1222 H 0.82753 0.53348 0.92297
 H1223 H 0.75512 0.53924 0.89150
 H1224 H 0.77465 0.52991 0.94373
 C1225 C 0.10441 0.71306 0.58236
 C1226 C 0.09334 0.74175 0.57819
 C1227 C 0.06542 0.73046 0.57494
 C1228 C 0.07620 0.70195 0.57929
 C1229 C 0.10891 0.71102 0.55216
 C1230 C 0.08098 0.69975 0.54892
 C1231 C 0.09821 0.73956 0.54774
 C1232 C 0.06983 0.72846 0.54473
 C1233 C 0.04143 0.74031 0.58876
 C1234 C 0.02206 0.74754 0.60133
 C1235 C 0.13307 0.69908 0.54041
 C1236 C 0.15273 0.68807 0.53163
 H1237 H 0.11887 0.70663 0.59772
 H1238 H 0.09812 0.75914 0.59039
 H1239 H 0.06689 0.68658 0.59239
 H1240 H 0.07617 0.68235 0.53675
 H1241 H 0.10757 0.75488 0.53464
 H1242 H 0.05532 0.73490 0.52943
 C1243 C 0.58104 0.19935 1.04943
 C1244 C 0.57651 0.20212 1.07978
 C1245 C 0.56539 0.23043 1.07496
 C1246 C 0.56956 0.22786 1.04477
 C1247 C 0.60888 0.21100 1.05216
 C1248 C 0.59784 0.23934 1.04728
 C1249 C 0.60463 0.21360 1.08234
 C1250 C 0.59322 0.24209 1.07771
 C1251 C 0.54141 0.24029 1.08878
 C1252 C 0.52204 0.24752 1.10135
 C1253 C 0.63303 0.19906 1.04041
 C1254 C 0.65269 0.18804 1.03162
 H1255 H 0.57631 0.18164 1.03767
 H1256 H 0.56748 0.18691 1.09327
 H1257 H 0.55484 0.23384 1.02949
 H1258 H 0.60692 0.25450 1.03378
 H1259 H 0.61930 0.20764 1.09768
 H1260 H 0.59793 0.25979 1.08949
 C1261 C 0.90360 0.23327 0.94756
 C1262 C 0.93209 0.22153 0.95146
 C1263 C 0.93717 0.22402 0.92129
 C1264 C 0.90915 0.23593 0.91719
 C1265 C 0.89350 0.20502 0.94343
 C1266 C 0.89868 0.20756 0.91328
 C1267 C 0.92152 0.19310 0.94754
 C1268 C 0.92700 0.19580 0.91722
 C1269 C 0.96113 0.23386 0.90769
 C1270 C 0.98039 0.24126 0.89517
 C1271 C 0.86901 0.19362 0.95452
 C1272 C 0.84880 0.18337 0.96242
 H1273 H 0.89369 0.24854 0.96017
 H1274 H 0.94613 0.22739 0.96699
 H1275 H 0.90434 0.25366 0.90456
 H1276 H 0.88471 0.20171 0.89768
 H1277 H 0.92634 0.17536 0.96015
 H1278 H 0.93686 0.18049 0.90461
 C1279 C 0.42163 0.69346 0.44803
 C1280 C 0.42736 0.69557 0.41772
 C1281 C 0.43721 0.72400 0.42129
 C1282 C 0.43187 0.72209 0.45145
 C1283 C 0.39354 0.70500 0.44344
 C1284 C 0.40332 0.73345 0.44706
 C1285 C 0.39898 0.70696 0.41330
 C1286 C 0.40911 0.73553 0.41670
 C1287 C 0.46117 0.73384 0.40768
 C1288 C 0.48042 0.74123 0.39516
 C1289 C 0.36905 0.69360 0.45453
 C1290 C 0.34884 0.68336 0.46244
 H1291 H 0.42650 0.67603 0.46105
 H1292 H 0.43749 0.68010 0.40551
 H1293 H 0.44570 0.72843 0.46697
 H1294 H 0.39314 0.74889 0.45926
 H1295 H 0.38521 0.70063 0.39771
 H1296 H 0.40424 0.75295 0.40366
 C1297 C 0.58071 0.80585 0.44627
 C1298 C 0.57743 0.80294 0.41594
 C1299 C 0.56708 0.77469 0.42091
 C1300 C 0.57001 0.77742 0.45109
 C1301 C 0.60905 0.79408 0.44362
 C1302 C 0.59878 0.76581 0.44865
 C1303 C 0.60604 0.79132 0.41345
 C1304 C 0.59541 0.76290 0.41824
 C1305 C 0.54393 0.76478 0.40722
 C1306 C 0.52522 0.75744 0.39484
 C1307 C 0.63235 0.80593 0.45541
 C1308 C 0.65129 0.81680 0.46433
 H1309 H 0.57493 0.82365 0.45793
 H1310 H 0.56840 0.81811 0.40236
 H1311 H 0.55491 0.77158 0.46639
 H1312 H 0.60785 0.75068 0.46223
 H1313 H 0.62110 0.79715 0.39809
 H1314 H 0.60117 0.74511 0.40656
 C1315 C 0.09851 0.26595 -0.05101
 C1316 C 0.06982 0.27780 -0.04891
 C1317 C 0.06705 0.27470 -0.07906
 C1318 C 0.09531 0.26267 -0.08140
 C1319 C 0.10902 0.29408 -0.05635
 C1320 C 0.10619 0.29095 -0.08649
 C1321 C 0.08076 0.30610 -0.05403
 C1322 C 0.07764 0.30281 -0.08434
 C1323 C 0.04390 0.26479 -0.09275
 C1324 C 0.02519 0.25745 -0.10514
 C1325 C 0.13232 0.30593 -0.04455
 C1326 C 0.15127 0.31680 -0.03564
 H1327 H 0.10738 0.25093 -0.03718
 H1328 H 0.05458 0.27228 -0.03362
 H1329 H 0.10101 0.24468 -0.09281
 H1330 H 0.12138 0.29646 -0.10183
 H1331 H 0.07503 0.32409 -0.04264
 H1332 H 0.06881 0.31787 -0.09816
 C1333 C 0.41818 0.31110 0.04782
 C1334 C 0.42298 0.30991 0.07815
 C1335 C 0.43397 0.28136 0.07540
 C1336 C 0.42957 0.28235 0.04523
 C1337 C 0.39036 0.29972 0.05289
 C1338 C 0.40128 0.27115 0.05009
 C1339 C 0.39486 0.29868 0.08304
 C1340 C 0.40614 0.26999 0.08046
 C1341 C 0.45778 0.27167 0.08913
 C1342 C 0.47681 0.26412 0.10160
 C1343 C 0.36575 0.31074 0.04164
 C1344 C 0.34532 0.32068 0.03374
 H1345 H 0.42286 0.32812 0.03425
 H1346 H 0.43215 0.32574 0.08982
 H1347 H 0.44416 0.27551 0.02986
 H1348 H 0.39207 0.25534 0.03842
 H1349 H 0.38034 0.30550 0.09849
 H1350 H 0.40145 0.25299 0.09404
 C1351 C 0.89378 0.79593 0.58300
 C1352 C 0.90669 0.76824 0.57807
 C1353 C 0.93398 0.78138 0.57536
 C1354 C 0.92136 0.80892 0.58046
 C1355 C 0.89037 0.79975 0.55286
 C1356 C 0.91766 0.81290 0.55015
 C1357 C 0.90293 0.77219 0.54770
 C1358 C 0.93068 0.78516 0.54520
 C1359 C 0.95779 0.77169 0.58909
 C1360 C 0.97682 0.76414 0.60156
 C1361 C 0.86577 0.81077 0.54161
 C1362 C 0.84534 0.82071 0.53370
 H1363 H 0.87836 0.80045 0.59845
 H1364 H 0.90246 0.74978 0.58971
 H1365 H 0.92918 0.82392 0.59407
 H1366 H 0.92190 0.83138 0.53852
 H1367 H 0.89506 0.75722 0.53409
 H1368 H 0.94615 0.78062 0.52983
   
