data_POSCAR
  _audit_creation_date              2014-09-24
  _audit_creation_method            'ToBaCCo'
  _symmetry_space_group_name_H-M    'P1'
  _symmetry_Int_Tables_number       1
  _symmetry_cell_setting            triclinic
  loop_
  _symmetry_equiv_pos_as_xyz
 x,y,z
_cell_length_a 84.3802
_cell_length_b 84.3921
_cell_length_c 84.3896
_cell_angle_alpha 90.039400
_cell_angle_beta 90.002700
_cell_angle_gamma 89.985200
loop_
  _atom_site_label
  _atom_site_type_symbol
  _atom_site_fract_x
  _atom_site_fract_y
  _atom_site_fract_z
C1 C 0.20720 0.19892 0.22221
 C2 C 0.19431 0.20147 0.23240
 C3 C 0.18388 0.21423 0.22990
 C4 C 0.18648 0.22448 0.21703
 C5 C 0.19930 0.22207 0.20673
 C6 C 0.20971 0.20925 0.20932
 C7 C 0.21756 0.18616 0.22467
 C8 C 0.23045 0.18356 0.21442
 C9 C 0.23289 0.19393 0.20161
 C10 C 0.22263 0.20674 0.19900
 C11 C 0.22507 0.21708 0.18622
 C12 C 0.21476 0.22990 0.18357
 C13 C 0.20190 0.23230 0.19390
 H14 H 0.19227 0.19339 0.24216
 H15 H 0.17862 0.23446 0.21513
 H16 H 0.21547 0.17811 0.23445
 H17 H 0.24291 0.19214 0.19378
 H18 H 0.23489 0.21501 0.17820
 H19 H 0.19400 0.24227 0.19206
 C20 C 0.70576 0.69815 0.72125
 C21 C 0.69291 0.70074 0.73147
 C22 C 0.68250 0.71353 0.72899
 C23 C 0.68510 0.72376 0.71610
 C24 C 0.69789 0.72131 0.70577
 C25 C 0.70827 0.70846 0.70834
 C26 C 0.71611 0.68537 0.72370
 C27 C 0.72898 0.68275 0.71343
 C28 C 0.73141 0.69310 0.70061
 C29 C 0.72116 0.70593 0.69800
 C30 C 0.72361 0.71626 0.68522
 C31 C 0.71333 0.72911 0.68259
 C32 C 0.70048 0.73154 0.69294
 H33 H 0.69088 0.69267 0.74125
 H34 H 0.67726 0.73376 0.71423
 H35 H 0.71402 0.67734 0.73350
 H36 H 0.74142 0.69129 0.69276
 H37 H 0.73341 0.71417 0.67719
 H38 H 0.69262 0.74153 0.69111
 C39 C 0.29315 0.80107 0.72180
 C40 C 0.30598 0.79837 0.73203
 C41 C 0.31629 0.78551 0.72955
 C42 C 0.31362 0.77529 0.71666
 C43 C 0.30081 0.77781 0.70637
 C44 C 0.29053 0.79074 0.70895
 C45 C 0.28290 0.81392 0.72429
 C46 C 0.26986 0.81676 0.71413
 C47 C 0.26745 0.80621 0.70131
 C48 C 0.27764 0.79334 0.69868
 C49 C 0.27515 0.78305 0.68584
 C50 C 0.28534 0.77014 0.68317
 C51 C 0.29815 0.76760 0.69352
 H52 H 0.30809 0.80643 0.74181
 H53 H 0.32139 0.76524 0.71477
 H54 H 0.28486 0.82125 0.73463
 H55 H 0.25805 0.80826 0.69283
 H56 H 0.26513 0.78497 0.67804
 H57 H 0.30619 0.75779 0.69144
 C58 C 0.79397 0.30131 0.22175
 C59 C 0.80681 0.29869 0.23199
 C60 C 0.81729 0.28579 0.22970
 C61 C 0.81442 0.27554 0.21673
 C62 C 0.80162 0.27803 0.20643
 C63 C 0.79135 0.29095 0.20893
 C64 C 0.78364 0.31410 0.22424
 C65 C 0.77074 0.31674 0.21402
 C66 C 0.76825 0.30638 0.20121
 C67 C 0.77846 0.29353 0.19859
 C68 C 0.77599 0.28322 0.18579
 C69 C 0.78622 0.27032 0.18316
 C70 C 0.79901 0.26783 0.19355
 H71 H 0.80811 0.30647 0.24211
 H72 H 0.82247 0.26591 0.21410
 H73 H 0.78552 0.32193 0.23426
 H74 H 0.75847 0.30844 0.19314
 H75 H 0.76597 0.28511 0.17797
 H76 H 0.80706 0.25803 0.19149
 C77 C 0.79402 0.69844 0.27821
 C78 C 0.80685 0.70102 0.26797
 C79 C 0.81741 0.71385 0.27030
 C80 C 0.81463 0.72404 0.28333
 C81 C 0.80185 0.72157 0.29367
 C82 C 0.79150 0.70873 0.29111
 C83 C 0.78373 0.68560 0.27580
 C84 C 0.77088 0.68294 0.28608
 C85 C 0.76842 0.69331 0.29889
 C86 C 0.77862 0.70618 0.30146
 C87 C 0.77614 0.71653 0.31423
 C88 C 0.78638 0.72942 0.31684
 C89 C 0.79920 0.73184 0.30648
 H90 H 0.80885 0.69253 0.25857
 H91 H 0.82197 0.73438 0.28523
 H92 H 0.78582 0.67754 0.26602
 H93 H 0.75842 0.69149 0.30675
 H94 H 0.76635 0.71443 0.32228
 H95 H 0.80704 0.74186 0.30830
 C96 C 0.29401 0.19862 -0.22124
 C97 C 0.30684 0.20122 -0.23148
 C98 C 0.31732 0.21411 -0.22920
 C99 C 0.31448 0.22435 -0.21623
 C100 C 0.30169 0.22187 -0.20590
 C101 C 0.29143 0.20895 -0.20839
 C102 C 0.28367 0.18583 -0.22371
 C103 C 0.27081 0.18317 -0.21345
 C104 C 0.26836 0.19351 -0.20061
 C105 C 0.27858 0.20636 -0.19801
 C106 C 0.27611 0.21668 -0.18521
 C107 C 0.28633 0.22958 -0.18261
 C108 C 0.29910 0.23207 -0.19302
 H109 H 0.30812 0.19345 -0.24161
 H110 H 0.32253 0.23398 -0.21360
 H111 H 0.28577 0.17778 -0.23351
 H112 H 0.25837 0.19167 -0.19275
 H113 H 0.26610 0.21479 -0.17738
 H114 H 0.30715 0.24187 -0.19097
 C115 C 0.70594 0.30199 -0.22133
 C116 C 0.69307 0.29940 -0.23154
 C117 C 0.68258 0.28651 -0.22924
 C118 C 0.68547 0.27627 -0.21629
 C119 C 0.69829 0.27874 -0.20600
 C120 C 0.70856 0.29165 -0.20851
 C121 C 0.71628 0.31477 -0.22383
 C122 C 0.72918 0.31741 -0.21361
 C123 C 0.73167 0.30707 -0.20079
 C124 C 0.72145 0.29423 -0.19817
 C125 C 0.72396 0.28390 -0.18541
 C126 C 0.71374 0.27101 -0.18278
 C127 C 0.70093 0.26853 -0.19315
 H128 H 0.69176 0.30717 -0.24165
 H129 H 0.67742 0.26664 -0.21365
 H130 H 0.71415 0.32282 -0.23360
 H131 H 0.74169 0.30889 -0.19297
 H132 H 0.73400 0.28578 -0.17761
 H133 H 0.69287 0.25874 -0.19109
 C134 C 0.20656 0.80156 0.27783
 C135 C 0.19370 0.79896 0.26760
 C136 C 0.18334 0.78614 0.27003
 C137 C 0.18597 0.77588 0.28289
 C138 C 0.19875 0.77834 0.29322
 C139 C 0.20907 0.79126 0.29071
 C140 C 0.21688 0.81436 0.27537
 C141 C 0.22983 0.81721 0.28564
 C142 C 0.23211 0.80671 0.29851
 C143 C 0.22187 0.79387 0.30109
 C144 C 0.22435 0.78352 0.31386
 C145 C 0.21413 0.77062 0.31646
 C146 C 0.20134 0.76813 0.30607
 H147 H 0.19188 0.80679 0.25759
 H148 H 0.17794 0.76608 0.28498
 H149 H 0.21425 0.82242 0.26575
 H150 H 0.24221 0.80800 0.30630
 H151 H 0.23435 0.78540 0.32170
 H152 H 0.19327 0.75834 0.30810
 C153 C 0.44832 0.45614 0.47167
 C154 C 0.45092 0.44331 0.48191
 C155 C 0.46373 0.43294 0.47947
 C156 C 0.47399 0.43553 0.46659
 C157 C 0.47153 0.44829 0.45623
 C158 C 0.45865 0.45865 0.45877
 C159 C 0.43551 0.46646 0.47409
 C160 C 0.43287 0.47929 0.46379
 C161 C 0.44324 0.48172 0.45098
 C162 C 0.45611 0.47151 0.44841
 C163 C 0.46646 0.47395 0.43564
 C164 C 0.47934 0.46370 0.43304
 C165 C 0.48178 0.45088 0.44341
 H166 H 0.44283 0.44128 0.49168
 H167 H 0.48402 0.42771 0.46474
 H168 H 0.42746 0.46437 0.48387
 H169 H 0.44142 0.49171 0.44312
 H170 H 0.46436 0.48373 0.42759
 H171 H 0.49179 0.44304 0.44161
 C172 C -0.05159 -0.04384 0.97158
 C173 C -0.04897 -0.05668 0.98181
 C174 C -0.03616 -0.06707 0.97934
 C175 C -0.02592 -0.06445 0.96647
 C176 C -0.02837 -0.05165 0.95617
 C177 C -0.04123 -0.04128 0.95875
 C178 C -0.06439 -0.03352 0.97406
 C179 C -0.06715 -0.02047 0.96390
 C180 C -0.05656 -0.01811 0.95111
 C181 C -0.04372 -0.02835 0.94851
 C182 C -0.03340 -0.02591 0.93570
 C183 C -0.02055 -0.03619 0.93303
 C184 C -0.01812 -0.04904 0.94335
 H185 H -0.05705 -0.05875 0.99157
 H186 H -0.01590 -0.07228 0.96459
 H187 H -0.07175 -0.03544 0.98438
 H188 H -0.05854 -0.00869 0.94264
 H189 H -0.03547 -0.01610 0.92768
 H190 H -0.00813 -0.05690 0.94151
 C191 C 1.05155 0.54374 0.97150
 C192 C 1.04895 0.55661 0.98172
 C193 C 1.03609 0.56713 0.97942
 C194 C 1.02587 0.56429 0.96643
 C195 C 1.02838 0.55149 0.95611
 C196 C 1.04129 0.54121 0.95863
 C197 C 1.06434 0.53340 0.97401
 C198 C 1.06721 0.52042 0.96378
 C199 C 1.05675 0.51814 0.95087
 C200 C 1.04392 0.52839 0.94826
 C201 C 1.03360 0.52591 0.93545
 C202 C 1.02071 0.53612 0.93282
 C203 C 1.01820 0.54891 0.94322
 H204 H 1.05668 0.55789 0.99187
 H205 H 1.01626 0.57235 0.96378
 H206 H 1.07239 0.53602 0.98365
 H207 H 1.05806 0.50803 0.94309
 H208 H 1.03550 0.51590 0.92762
 H209 H 1.00841 0.55697 0.94115
 C210 C 0.55141 0.04357 0.47236
 C211 C 0.54878 0.05643 0.48259
 C212 C 0.53593 0.06676 0.48016
 C213 C 0.52564 0.06407 0.46733
 C214 C 0.52810 0.05127 0.45702
 C215 C 0.54102 0.04095 0.45957
 C216 C 0.56423 0.03328 0.47482
 C217 C 0.56700 0.02021 0.46467
 C218 C 0.55640 0.01781 0.45189
 C219 C 0.54353 0.02802 0.44932
 C220 C 0.53320 0.02554 0.43652
 C221 C 0.52033 0.03579 0.43386
 C222 C 0.51787 0.04863 0.44420
 H223 H 0.55665 0.05830 0.49257
 H224 H 0.51583 0.07210 0.46523
 H225 H 0.57161 0.03523 0.48513
 H226 H 0.55839 0.00839 0.44342
 H227 H 0.53529 0.01573 0.42848
 H228 H 0.50785 0.05646 0.44237
 C229 C -0.05147 0.04365 0.52852
 C230 C -0.04887 0.05646 0.51827
 C231 C -0.03603 0.06681 0.52069
 C232 C -0.02575 0.06419 0.53354
 C233 C -0.02821 0.05143 0.54390
 C234 C -0.04110 0.04110 0.54137
 C235 C -0.06426 0.03332 0.52608
 C236 C -0.06687 0.02045 0.53633
 C237 C -0.05647 0.01799 0.54913
 C238 C -0.04362 0.02821 0.55171
 C239 C -0.03328 0.02578 0.56449
 C240 C -0.02042 0.03605 0.56711
 C241 C -0.01797 0.04885 0.55674
 H242 H -0.05673 0.05827 0.50827
 H243 H -0.01595 0.07224 0.53562
 H244 H -0.07209 0.03518 0.51607
 H245 H -0.05851 0.00823 0.55722
 H246 H -0.03538 0.01600 0.57255
 H247 H -0.00796 0.05670 0.55854
 C248 C 0.44831 0.54455 0.02888
 C249 C 0.45091 0.55740 0.01867
 C250 C 0.46382 0.56786 0.02094
 C251 C 0.47409 0.56498 0.03389
 C252 C 0.47159 0.55218 0.04420
 C253 C 0.45867 0.54192 0.04169
 C254 C 0.43550 0.53424 0.02640
 C255 C 0.43285 0.52135 0.03662
 C256 C 0.44322 0.51885 0.04942
 C257 C 0.45610 0.52903 0.05201
 C258 C 0.46646 0.52651 0.06476
 C259 C 0.47935 0.53672 0.06739
 C260 C 0.48182 0.54954 0.05704
 H261 H 0.44312 0.55872 0.00857
 H262 H 0.48373 0.57300 0.03651
 H263 H 0.42744 0.53637 0.01663
 H264 H 0.44140 0.50884 0.05725
 H265 H 0.46434 0.51671 0.07279
 H266 H 0.49186 0.55735 0.05886
 C267 C 0.55084 -0.04296 0.02741
 C268 C 0.54821 -0.05579 0.01717
 C269 C 0.53540 -0.06616 0.01964
 C270 C 0.52517 -0.06353 0.03254
 C271 C 0.52765 -0.05075 0.04288
 C272 C 0.54055 -0.04043 0.04033
 C273 C 0.56363 -0.03263 0.02494
 C274 C 0.56632 -0.01980 0.03524
 C275 C 0.55600 -0.01737 0.04811
 C276 C 0.54316 -0.02760 0.05073
 C277 C 0.53288 -0.02517 0.06356
 C278 C 0.52001 -0.03541 0.06620
 C279 C 0.51748 -0.04818 0.05578
 H280 H 0.55604 -0.05760 0.00714
 H281 H 0.51538 -0.07158 0.03465
 H282 H 0.57165 -0.03472 0.01512
 H283 H 0.55786 -0.00740 0.05599
 H284 H 0.53480 -0.01517 0.07141
 H285 H 0.50772 -0.05626 0.05784
 C286 C 1.05138 0.45598 0.52780
 C287 C 1.04881 0.44311 0.51759
 C288 C 1.03604 0.43250 0.51999
 C289 C 1.02590 0.43527 0.53306
 C290 C 1.02836 0.44809 0.54336
 C291 C 1.04114 0.45849 0.54073
 C292 C 1.06416 0.46633 0.52532
 C293 C 1.06681 0.47921 0.53556
 C294 C 1.05648 0.48166 0.54841
 C295 C 1.04367 0.47141 0.55105
 C296 C 1.03337 0.47387 0.56386
 C297 C 1.02055 0.46358 0.56654
 C298 C 1.01813 0.45072 0.55621
 H299 H 1.05727 0.44113 0.50816
 H300 H 1.01560 0.42789 0.53502
 H301 H 1.07219 0.46424 0.51550
 H302 H 1.05830 0.49168 0.55624
 H303 H 1.03546 0.48369 0.57188
 H304 H 1.00816 0.44284 0.55808
 C305 C 0.39958 0.00724 0.22891
 H306 H 0.40027 0.01795 0.23594
 C307 C 0.40988 0.00506 0.21615
 H308 H 0.41855 0.01412 0.21348
 C309 C 0.38774 -0.01778 0.22424
 H310 H 0.37923 -0.02675 0.22754
 C311 C 0.39782 -0.02047 0.21140
 H312 H 0.39672 -0.03138 0.20474
 N313 N 0.38866 -0.00402 0.23258
 C314 C 0.35115 0.02123 0.25766
 H315 H 0.35045 0.01423 0.26837
 C316 C 0.34087 0.03401 0.25546
 H317 H 0.33220 0.03672 0.26453
 C318 C 0.36300 0.02582 0.23263
 H319 H 0.37150 0.02248 0.22366
 C320 C 0.35294 0.03868 0.22993
 H321 H 0.35405 0.04530 0.21901
 Zn322 Zn 0.37533 -0.00018 0.25023
 N323 N 0.36206 0.01751 0.24640
 C324 C 0.38775 0.01741 0.27620
 N325 N 0.38862 0.00361 0.26791
 C326 C 0.39947 -0.00770 0.27165
 C327 C 0.40977 -0.00552 0.28442
 C328 C 0.39783 0.02009 0.28904
 C329 C 0.35107 -0.02146 0.24271
 C330 C 0.34071 -0.03417 0.24487
 C331 C 0.35271 -0.03894 0.27042
 C332 C 0.36284 -0.02613 0.26777
 N333 N 0.36197 -0.01781 0.25400
 H334 H 0.37930 0.02641 0.27285
 H335 H 0.40012 -0.01843 0.26466
 H336 H 0.41840 -0.01462 0.28713
 H337 H 0.39678 0.03105 0.29565
 H338 H 0.35050 -0.01450 0.23196
 H339 H 0.33232 -0.03706 0.23561
 H340 H 0.35348 -0.04533 0.28152
 H341 H 0.37126 -0.02279 0.27680
 C342 C 0.34172 0.04296 0.24146
 C343 C 0.40905 -0.00893 0.20717
 C344 C 0.34148 -0.04313 0.25887
 C345 C 0.40900 0.00852 0.29333
 C346 C 0.10104 -0.00731 0.72881
 H347 H 0.10037 -0.01803 0.73579
 C348 C 0.09071 -0.00509 0.71608
 H349 H 0.08204 -0.01415 0.71339
 C350 C 0.11286 0.01774 0.72424
 H351 H 0.12136 0.02670 0.72756
 C352 C 0.10275 0.02046 0.71142
 H353 H 0.10383 0.03140 0.70482
 N354 N 0.11196 0.00395 0.73252
 C355 C 0.14947 -0.02129 0.75757
 H356 H 0.15014 -0.01431 0.76830
 C357 C 0.15978 -0.03405 0.75534
 H358 H 0.16844 -0.03675 0.76441
 C359 C 0.13766 -0.02585 0.73250
 H360 H 0.12917 -0.02251 0.72353
 C361 C 0.14776 -0.03868 0.72978
 H362 H 0.14667 -0.04529 0.71883
 Zn363 Zn 0.12526 0.00009 0.75017
 N364 N 0.13857 -0.01757 0.74630
 C365 C 0.11282 -0.01757 0.77606
 N366 N 0.11194 -0.00377 0.76780
 C367 C 0.10102 0.00749 0.77152
 C368 C 0.09067 0.00526 0.78423
 C369 C 0.10269 -0.02031 0.78886
 C370 C 0.14949 0.02144 0.74280
 C371 C 0.15982 0.03417 0.74504
 C372 C 0.14778 0.03881 0.77060
 C373 C 0.13767 0.02600 0.76786
 N374 N 0.13857 0.01773 0.75405
 H375 H 0.12132 -0.02654 0.77274
 H376 H 0.10037 0.01823 0.76455
 H377 H 0.08200 0.01433 0.78692
 H378 H 0.10375 -0.03126 0.79544
 H379 H 0.15016 0.01447 0.73206
 H380 H 0.16849 0.03686 0.73598
 H381 H 0.14671 0.04541 0.78156
 H382 H 0.12917 0.02267 0.77682
 C383 C 0.15897 -0.04296 0.74131
 C384 C 0.09151 0.00894 0.70716
 C385 C 0.15902 0.04307 0.75909
 C386 C 0.09145 -0.00878 0.79311
 C387 C 0.60094 0.49256 0.22879
 H388 H 0.60028 0.48181 0.23574
 C389 C 0.59060 0.49482 0.21608
 H390 H 0.58192 0.48577 0.21336
 C391 C 0.61275 0.51762 0.22430
 H392 H 0.62125 0.52658 0.22765
 C393 C 0.60263 0.52039 0.21151
 H394 H 0.60370 0.53135 0.20494
 N395 N 0.61186 0.50380 0.23254
 C396 C 0.64938 0.47854 0.25755
 H397 H 0.64999 0.48547 0.26832
 C398 C 0.65971 0.46581 0.25531
 H399 H 0.66812 0.46288 0.26454
 C400 C 0.63755 0.47396 0.23250
 H401 H 0.62910 0.47734 0.22350
 C402 C 0.64764 0.46113 0.22977
 H403 H 0.64684 0.45477 0.21865
 Zn404 Zn 0.62517 0.49991 0.25017
 N405 N 0.63846 0.48225 0.24630
 C406 C 0.61273 0.48224 0.27606
 N407 N 0.61185 0.49606 0.26782
 C408 C 0.60096 0.50733 0.27156
 C409 C 0.59063 0.50510 0.28428
 C410 C 0.60260 0.47951 0.28886
 C411 C 0.64941 0.52122 0.24278
 C412 C 0.65976 0.53393 0.24500
 C413 C 0.64776 0.53862 0.27057
 C414 C 0.63762 0.52582 0.26785
 N415 N 0.63850 0.51753 0.25405
 H416 H 0.62121 0.47326 0.27271
 H417 H 0.60032 0.51808 0.26461
 H418 H 0.58196 0.51418 0.28699
 H419 H 0.60366 0.46854 0.29543
 H420 H 0.65006 0.51423 0.23205
 H421 H 0.66843 0.53660 0.23594
 H422 H 0.64670 0.54523 0.28152
 H423 H 0.62912 0.52251 0.27682
 C424 C 0.65890 0.45688 0.24128
 C425 C 0.59139 0.50888 0.20722
 C426 C 0.65899 0.54285 0.25904
 C427 C 0.59139 0.49105 0.29315
 C428 C 0.89929 0.50742 0.72829
 H429 H 0.89996 0.51817 0.73525
 C430 C 0.90960 0.50515 0.71555
 H431 H 0.91828 0.51420 0.71284
 C432 C 0.88747 0.48235 0.72379
 H433 H 0.87897 0.47340 0.72714
 C434 C 0.89757 0.47958 0.71097
 H435 H 0.89649 0.46862 0.70440
 N436 N 0.88838 0.49617 0.73204
 C437 C 0.85091 0.52149 0.75711
 H438 H 0.85028 0.51454 0.76787
 C439 C 0.84058 0.53421 0.75488
 H440 H 0.83192 0.53693 0.76396
 C441 C 0.86266 0.52597 0.73201
 H442 H 0.87113 0.52261 0.72303
 C443 C 0.85253 0.53877 0.72927
 H444 H 0.85357 0.54533 0.71830
 Zn445 Zn 0.87509 0.50008 0.74969
 N446 N 0.86179 0.51774 0.74583
 C447 C 0.88756 0.51776 0.77559
 N448 N 0.88843 0.50394 0.76732
 C449 C 0.89933 0.49267 0.77103
 C450 C 0.90968 0.49490 0.78374
 C451 C 0.89768 0.52047 0.78840
 C452 C 0.85083 0.47876 0.74234
 C453 C 0.84047 0.46606 0.74460
 C454 C 0.85254 0.46141 0.77013
 C455 C 0.86266 0.47420 0.76739
 N456 N 0.86176 0.48246 0.75358
 H457 H 0.87913 0.52677 0.77221
 H458 H 0.89991 0.48189 0.76411
 H459 H 0.91807 0.48565 0.78667
 H460 H 0.89691 0.53160 0.79475
 H461 H 0.85022 0.48567 0.73156
 H462 H 0.83204 0.46313 0.73537
 H463 H 0.85334 0.45507 0.78126
 H464 H 0.87112 0.47759 0.77638
 C465 C 0.84133 0.54307 0.74081
 C466 C 0.90880 0.49109 0.70668
 C467 C 0.84127 0.45716 0.75863
 C468 C 0.90891 0.50894 0.79265
 C469 C 0.22859 0.39956 0.00774
 H470 H 0.23556 0.40026 0.01848
 C471 C 0.21583 0.40985 0.00549
 H472 H 0.21310 0.41853 0.01454
 C473 C 0.22411 0.38770 -0.01732
 H474 H 0.22748 0.37921 -0.02627
 C475 C 0.21127 0.39777 -0.02007
 H476 H 0.20469 0.39667 -0.03104
 N477 N 0.23236 0.38865 -0.00351
 C478 C 0.25759 0.35127 0.02174
 H479 H 0.26832 0.35064 0.01475
 C480 C 0.25543 0.34096 0.03449
 H481 H 0.26454 0.33233 0.03718
 C482 C 0.23248 0.36298 0.02633
 H483 H 0.22347 0.37143 0.02301
 C484 C 0.22982 0.35288 0.03916
 H485 H 0.21888 0.35392 0.04578
 Zn486 Zn 0.25007 0.37541 0.00037
 N487 N 0.24628 0.36212 0.01804
 C488 C 0.27592 0.38797 0.01802
 N489 N 0.26766 0.38879 0.00421
 C490 C 0.27135 0.39968 -0.00707
 C491 C 0.28404 0.41006 -0.00485
 C492 C 0.28869 0.39814 0.02074
 C493 C 0.24275 0.35111 -0.02093
 C494 C 0.24501 0.34074 -0.03363
 C495 C 0.27050 0.35288 -0.03836
 C496 C 0.26775 0.36301 -0.02556
 N497 N 0.25397 0.36207 -0.01725
 H498 H 0.27261 0.37949 0.02701
 H499 H 0.26438 0.40029 -0.01782
 H500 H 0.28671 0.41872 -0.01393
 H501 H 0.29528 0.39713 0.03171
 H502 H 0.23199 0.35048 -0.01398
 H503 H 0.23580 0.33229 -0.03653
 H504 H 0.28161 0.35370 -0.04473
 H505 H 0.27673 0.37149 -0.02220
 C506 C 0.24141 0.34171 0.04342
 C507 C 0.20695 0.40901 -0.00857
 C508 C 0.25902 0.34157 -0.04257
 C509 C 0.29293 0.40935 0.00920
 C510 C 0.72875 0.10081 -0.00772
 H511 H 0.73575 0.10015 -0.01844
 C512 C 0.71597 0.09053 -0.00556
 H513 H 0.71327 0.08189 -0.01466
 C514 C 0.72416 0.11257 0.01736
 H515 H 0.72750 0.12103 0.02636
 C516 C 0.71131 0.10250 0.02002
 H517 H 0.70468 0.10358 0.03096
 N518 N 0.73247 0.11168 0.00358
 C519 C 0.75762 0.14920 -0.02151
 H520 H 0.76839 0.14977 -0.01457
 C521 C 0.75541 0.15957 -0.03420
 H522 H 0.76467 0.16797 -0.03710
 C523 C 0.73254 0.13745 -0.02612
 H524 H 0.72352 0.12903 -0.02276
 C525 C 0.72985 0.14759 -0.03891
 H526 H 0.71873 0.14683 -0.04527
 Zn527 Zn 0.75015 0.12495 -0.00021
 N528 N 0.74634 0.13830 -0.01783
 C529 C 0.77609 0.11252 -0.01785
 N530 N 0.76778 0.11161 -0.00407
 C531 C 0.77146 0.10068 0.00717
 C532 C 0.78418 0.09034 0.00495
 C533 C 0.78890 0.10239 -0.02057
 C534 C 0.74276 0.14915 0.02119
 C535 C 0.74498 0.15946 0.03394
 C536 C 0.77051 0.14738 0.03861
 C537 C 0.76779 0.13729 0.02578
 N538 N 0.75400 0.13823 0.01747
 H539 H 0.77280 0.12103 -0.02681
 H540 H 0.76445 0.10001 0.01789
 H541 H 0.78684 0.08165 0.01400
 H542 H 0.79553 0.10347 -0.03150
 H543 H 0.73204 0.14985 0.01419
 H544 H 0.73592 0.16815 0.03663
 H545 H 0.78144 0.14627 0.04523
 H546 H 0.77675 0.12878 0.02245
 C547 C 0.74138 0.15882 -0.04312
 C548 C 0.70703 0.09132 0.00845
 C549 C 0.75900 0.15862 0.04288
 C550 C 0.79313 0.09114 -0.00906
 C551 C 0.22836 0.60080 0.49203
 H552 H 0.23535 0.60015 0.48131
 C553 C 0.21562 0.59047 0.49422
 H554 H 0.21295 0.58181 0.48514
 C555 C 0.22375 0.61258 0.51711
 H556 H 0.22707 0.62106 0.52610
 C557 C 0.21094 0.60246 0.51980
 H558 H 0.20432 0.60352 0.53074
 N559 N 0.23205 0.61169 0.50332
 C560 C 0.25720 0.64923 0.47824
 H561 H 0.26795 0.64982 0.48521
 C562 C 0.25502 0.65957 0.46552
 H563 H 0.26427 0.66797 0.46263
 C564 C 0.23216 0.63743 0.47356
 H565 H 0.22314 0.62899 0.47690
 C566 C 0.22949 0.64754 0.46074
 H567 H 0.21839 0.64674 0.45434
 Zn568 Zn 0.24972 0.62499 0.49954
 N569 N 0.24593 0.63832 0.48189
 C570 C 0.27569 0.61256 0.48194
 N571 N 0.26737 0.61167 0.49572
 C572 C 0.27105 0.60075 0.50698
 C573 C 0.28378 0.59041 0.50478
 C574 C 0.28850 0.60244 0.47924
 C575 C 0.24225 0.64920 0.52090
 C576 C 0.24442 0.65950 0.53366
 C577 C 0.26997 0.64747 0.53838
 C578 C 0.26730 0.63738 0.52554
 N579 N 0.25353 0.63829 0.51721
 H580 H 0.27239 0.62106 0.47297
 H581 H 0.26404 0.60010 0.51769
 H582 H 0.28643 0.58174 0.51384
 H583 H 0.29513 0.60350 0.46831
 H584 H 0.23154 0.64987 0.51388
 H585 H 0.23535 0.66817 0.53634
 H586 H 0.28090 0.64639 0.54502
 H587 H 0.27628 0.62889 0.52223
 C588 C 0.24102 0.65877 0.45655
 C589 C 0.20670 0.59124 0.50825
 C590 C 0.25843 0.65870 0.54263
 C591 C 0.29272 0.59120 0.49077
 C592 C 0.72865 0.89926 0.50745
 H593 H 0.73563 0.89988 0.51818
 C594 C 0.71592 0.90961 0.50527
 H595 H 0.71324 0.91825 0.51437
 C596 C 0.72405 0.88754 0.48235
 H597 H 0.72736 0.87906 0.47335
 C598 C 0.71124 0.89767 0.47967
 H599 H 0.70463 0.89664 0.46872
 N600 N 0.73234 0.88838 0.49615
 C601 C 0.75729 0.85072 0.52126
 H602 H 0.76804 0.85006 0.51430
 C603 C 0.75502 0.84036 0.53394
 H604 H 0.76406 0.83166 0.53662
 C605 C 0.73223 0.86256 0.52581
 H606 H 0.72329 0.87108 0.52249
 C607 C 0.72946 0.85241 0.53857
 H608 H 0.71850 0.85348 0.54515
 Zn609 Zn 0.74996 0.87502 0.49997
 N610 N 0.74605 0.86167 0.51756
 C611 C 0.77590 0.88733 0.51769
 N612 N 0.76763 0.88828 0.50389
 C613 C 0.77136 0.89922 0.49267
 C614 C 0.78411 0.90951 0.49494
 C615 C 0.78874 0.89741 0.52045
 C616 C 0.74254 0.85088 0.47850
 C617 C 0.74477 0.84058 0.46574
 C618 C 0.77038 0.85255 0.46120
 C619 C 0.76764 0.86264 0.47403
 N620 N 0.75382 0.86176 0.48228
 H621 H 0.77256 0.87881 0.52662
 H622 H 0.76438 0.89993 0.48194
 H623 H 0.78682 0.91821 0.48590
 H624 H 0.79534 0.89629 0.53140
 H625 H 0.73179 0.85023 0.48545
 H626 H 0.73570 0.83193 0.46301
 H627 H 0.78135 0.85361 0.45463
 H628 H 0.77662 0.87111 0.47741
 C629 C 0.74096 0.84115 0.54282
 C630 C 0.70700 0.90887 0.49124
 C631 C 0.75884 0.84136 0.45688
 C632 C 0.79302 0.90866 0.50897
 C633 C 0.00749 0.22824 0.39906
 H634 H 0.01823 0.23522 0.39973
 C635 C 0.00527 0.21552 0.40939
 H636 H 0.01433 0.21284 0.41807
 C637 C -0.01757 0.22367 0.38725
 H638 H -0.02653 0.22699 0.37875
 C639 C -0.02029 0.21087 0.39737
 H640 H -0.03124 0.20427 0.39629
 N641 N -0.00377 0.23195 0.38815
 C642 C 0.02146 0.25700 0.35065
 H643 H 0.01447 0.26773 0.34998
 C644 C 0.03423 0.25480 0.34036
 H645 H 0.03692 0.26387 0.33170
 C646 C 0.02605 0.23195 0.36245
 H647 H 0.02272 0.22298 0.37093
 C648 C 0.03890 0.22925 0.35237
 H649 H 0.04552 0.21831 0.35345
 Zn650 Zn 0.00009 0.24959 0.37485
 N651 N 0.01775 0.24574 0.36155
 C652 C 0.01774 0.27552 0.38727
 N653 N 0.00394 0.26724 0.38817
 C654 C -0.00732 0.27095 0.39908
 C655 C -0.00510 0.28368 0.40942
 C656 C 0.02045 0.28834 0.39738
 C657 C -0.02128 0.24218 0.35062
 C658 C -0.03401 0.24440 0.34030
 C659 C -0.03864 0.26998 0.35232
 C660 C -0.02582 0.26725 0.36243
 N661 N -0.01756 0.25344 0.36153
 H662 H 0.02674 0.27213 0.37884
 H663 H -0.01809 0.26402 0.39968
 H664 H -0.01435 0.28662 0.41782
 H665 H 0.03156 0.29470 0.39658
 H666 H -0.01431 0.23144 0.34996
 H667 H -0.03672 0.23534 0.33163
 H668 H -0.04523 0.28094 0.35339
 H669 H -0.02249 0.27622 0.37092
 C670 C 0.04317 0.24079 0.34117
 C671 C -0.00877 0.20662 0.40860
 C672 C -0.04291 0.25845 0.34109
 C673 C 0.00892 0.29260 0.40861
 C674 C -0.00747 0.72846 0.10060
 H675 H -0.01822 0.73542 0.09996
 C676 C -0.00525 0.71573 0.09026
 H677 H -0.01433 0.71302 0.08160
 C678 C 0.01762 0.72392 0.11236
 H679 H 0.02660 0.72726 0.12084
 C680 C 0.02034 0.71111 0.10223
 H681 H 0.03131 0.70453 0.10328
 N682 N 0.00380 0.73218 0.11149
 C683 C -0.02139 0.75724 0.14906
 H684 H -0.01441 0.76798 0.14971
 C685 C -0.03410 0.75501 0.15940
 H686 H -0.03679 0.76408 0.16808
 C687 C -0.02595 0.73217 0.13726
 H688 H -0.02262 0.72320 0.12876
 C689 C -0.03874 0.72944 0.14739
 H690 H -0.04534 0.71849 0.14632
 Zn691 Zn -0.00005 0.74983 0.12481
 N692 N -0.01768 0.74597 0.13814
 C693 C -0.01775 0.77574 0.11242
 N694 N -0.00394 0.76747 0.11151
 C695 C 0.00731 0.77118 0.10059
 C696 C 0.00508 0.78391 0.09028
 C697 C -0.02048 0.78856 0.10232
 C698 C 0.02135 0.74246 0.14900
 C699 C 0.03410 0.74470 0.15931
 C700 C 0.03873 0.77023 0.14725
 C701 C 0.02589 0.76751 0.13718
 N702 N 0.01761 0.75371 0.13810
 H703 H -0.02670 0.77241 0.12092
 H704 H 0.01805 0.76421 0.09992
 H705 H 0.01413 0.78661 0.08160
 H706 H -0.03144 0.79515 0.10340
 H707 H 0.01443 0.73169 0.14963
 H708 H 0.03705 0.73547 0.16771
 H709 H 0.04508 0.78135 0.14644
 H710 H 0.02248 0.77650 0.12875
 C711 C -0.04300 0.74097 0.15862
 C712 C 0.00880 0.70684 0.09102
 C713 C 0.04301 0.75873 0.15849
 C714 C -0.00897 0.79282 0.09109
 C715 C 0.49252 0.22885 0.60122
 H716 H 0.48179 0.23583 0.60055
 C717 C 0.49474 0.21609 0.59091
 H718 H 0.48567 0.21339 0.58225
 C719 C 0.51759 0.22429 0.61303
 H720 H 0.52656 0.22763 0.62153
 C721 C 0.52031 0.21145 0.60294
 H722 H 0.53125 0.20485 0.60402
 N723 N 0.50379 0.23257 0.61213
 C724 C 0.47854 0.25768 0.64962
 H725 H 0.48550 0.26843 0.65026
 C726 C 0.46581 0.25546 0.65995
 H727 H 0.46311 0.26454 0.66861
 C728 C 0.47402 0.23259 0.63785
 H729 H 0.47736 0.22360 0.62938
 C730 C 0.46121 0.22987 0.64797
 H731 H 0.45463 0.21890 0.64692
 Zn732 Zn 0.49993 0.25024 0.62542
 N733 N 0.48227 0.24640 0.63873
 C734 C 0.48227 0.27615 0.61298
 N735 N 0.49607 0.26787 0.61210
 C736 C 0.50734 0.27157 0.60119
 C737 C 0.50511 0.28427 0.59084
 C738 C 0.47955 0.28895 0.60286
 C739 C 0.52126 0.24287 0.64967
 C740 C 0.53397 0.24511 0.66002
 C741 C 0.53866 0.27064 0.64796
 C742 C 0.52585 0.26791 0.63784
 N743 N 0.51756 0.25411 0.63874
 H744 H 0.47326 0.27277 0.62141
 H745 H 0.51812 0.26464 0.60060
 H746 H 0.51435 0.28719 0.58244
 H747 H 0.46842 0.29530 0.60364
 H748 H 0.51433 0.23210 0.65027
 H749 H 0.53690 0.23588 0.66843
 H750 H 0.54501 0.28175 0.64716
 H751 H 0.52247 0.27690 0.62940
 C752 C 0.45693 0.24141 0.65918
 C753 C 0.50878 0.20718 0.59172
 C754 C 0.54290 0.25914 0.65921
 C755 C 0.49107 0.29318 0.59162
 C756 C 0.50720 0.72868 0.89922
 H757 H 0.51793 0.73568 0.89981
 C758 C 0.50502 0.71601 0.90962
 H759 H 0.51411 0.71339 0.91828
 C760 C 0.48210 0.72402 0.88751
 H761 H 0.47311 0.72729 0.87902
 C762 C 0.47942 0.71127 0.89770
 H763 H 0.46848 0.70466 0.89670
 N764 N 0.49590 0.73232 0.88832
 C765 C 0.52097 0.75724 0.85063
 H766 H 0.51401 0.76799 0.84999
 C767 C 0.53367 0.75499 0.84027
 H768 H 0.53656 0.76419 0.83181
 C769 C 0.52564 0.73225 0.86254
 H770 H 0.52230 0.72329 0.87102
 C771 C 0.53845 0.72952 0.85242
 H772 H 0.54483 0.71842 0.85325
 Zn773 Zn 0.49968 0.74990 0.87492
 N774 N 0.51732 0.74603 0.86160
 C775 C 0.51725 0.77597 0.88717
 N776 N 0.50349 0.76763 0.88813
 C777 C 0.49223 0.77136 0.89904
 C778 C 0.49441 0.78416 0.90930
 C779 C 0.51992 0.78887 0.89719
 C780 C 0.47829 0.74230 0.85077
 C781 C 0.46554 0.74444 0.84045
 C782 C 0.46082 0.77004 0.85238
 C783 C 0.47368 0.76742 0.86247
 N784 N 0.48200 0.75363 0.86162
 H785 H 0.52626 0.77258 0.87874
 H786 H 0.48149 0.76439 0.89970
 H787 H 0.48517 0.78711 0.91770
 H788 H 0.53100 0.79527 0.89634
 H789 H 0.48525 0.73155 0.85020
 H790 H 0.46261 0.73515 0.83210
 H791 H 0.45444 0.78115 0.85314
 H792 H 0.47705 0.77647 0.87085
 C793 C 0.54263 0.74098 0.84111
 C794 C 0.49099 0.70709 0.90892
 C795 C 0.45658 0.75845 0.84121
 C796 C 0.50839 0.79314 0.90842
 C797 C 0.14246 0.22352 0.24484
 C798 C 0.14437 0.22171 0.26121
 C799 C 0.15918 0.21747 0.26737
 C800 C 0.17203 0.21503 0.25720
 C801 C 0.17024 0.21682 0.24072
 C802 C 0.15530 0.22110 0.23465
 C803 C 0.13114 0.22419 0.27168
 C804 C 0.12005 0.22627 0.28045
 C805 C 0.10706 0.22871 0.29070
 C806 C 0.09597 0.23080 0.29945
 C807 C 0.08272 0.23330 0.30990
 C808 C 0.07244 0.22079 0.31343
 C809 C 0.05957 0.22320 0.32359
 C810 C 0.05682 0.23820 0.33036
 C811 C 0.06723 0.25071 0.32672
 C812 C 0.08009 0.24826 0.31657
 H813 H 0.13104 0.22675 0.23994
 H814 H 0.16079 0.21608 0.28003
 H815 H 0.18342 0.21195 0.26224
 H816 H 0.15350 0.22237 0.22201
 H817 H 0.07434 0.20917 0.30830
 H818 H 0.05166 0.21339 0.32598
 H819 H 0.06555 0.26233 0.33190
 H820 H 0.08801 0.25802 0.31395
 C821 C 0.64121 0.72303 0.74413
 C822 C 0.64319 0.72123 0.76049
 C823 C 0.65800 0.71692 0.76658
 C824 C 0.67079 0.71441 0.75635
 C825 C 0.66893 0.71619 0.73987
 C826 C 0.65398 0.72053 0.73388
 C827 C 0.63002 0.72379 0.77103
 C828 C 0.61900 0.72594 0.77987
 C829 C 0.60610 0.72847 0.79021
 C830 C 0.59509 0.73064 0.79904
 C831 C 0.58193 0.73324 0.80959
 C832 C 0.58302 0.72871 0.82550
 C833 C 0.57025 0.73121 0.83575
 C834 C 0.55621 0.73832 0.83022
 C835 C 0.55524 0.74284 0.81420
 C836 C 0.56803 0.74031 0.80397
 H837 H 0.62978 0.72632 0.73929
 H838 H 0.65967 0.71553 0.77923
 H839 H 0.68219 0.71127 0.76133
 H840 H 0.65212 0.72180 0.72124
 H841 H 0.59375 0.72326 0.82999
 H842 H 0.57143 0.72779 0.84806
 H843 H 0.54453 0.74814 0.80953
 H844 H 0.56704 0.74383 0.79166
 C845 C 0.35758 0.77584 0.74458
 C846 C 0.35566 0.77768 0.76095
 C847 C 0.34088 0.78207 0.76707
 C848 C 0.32807 0.78461 0.75688
 C849 C 0.32988 0.78279 0.74040
 C850 C 0.34479 0.77836 0.73436
 C851 C 0.36885 0.77511 0.77145
 C852 C 0.37990 0.77297 0.78025
 C853 C 0.39284 0.77048 0.79054
 C854 C 0.40390 0.76837 0.79933
 C855 C 0.41710 0.76586 0.80983
 C856 C 0.41611 0.77056 0.82571
 C857 C 0.42893 0.76815 0.83592
 C858 C 0.44294 0.76100 0.83037
 C859 C 0.44382 0.75630 0.81439
 C860 C 0.43098 0.75873 0.80420
 H861 H 0.36899 0.77249 0.73971
 H862 H 0.33925 0.78349 0.77973
 H863 H 0.31670 0.78781 0.76189
 H864 H 0.34661 0.77706 0.72173
 H865 H 0.40540 0.77605 0.83021
 H866 H 0.42782 0.77171 0.84820
 H867 H 0.45451 0.75096 0.80970
 H868 H 0.43189 0.75509 0.79192
 C869 C -0.15040 0.26540 0.25253
 C870 C -0.14374 0.27809 0.26081
 C871 C -0.14992 0.29331 0.25885
 C872 C -0.16273 0.29588 0.24866
 C873 C -0.16968 0.28321 0.24012
 C874 C -0.16319 0.26789 0.24230
 C875 C -0.13055 0.27549 0.27131
 C876 C -0.11950 0.27332 0.28010
 C877 C -0.10656 0.27079 0.29039
 C878 C -0.09551 0.26864 0.29918
 C879 C -0.08231 0.26608 0.30967
 C880 C -0.07198 0.27855 0.31324
 C881 C -0.05917 0.27609 0.32346
 C882 C -0.05651 0.26108 0.33023
 C883 C -0.06696 0.24862 0.32655
 C884 C -0.07977 0.25111 0.31635
 H885 H -0.14578 0.25352 0.25407
 H886 H -0.14475 0.30326 0.26511
 H887 H -0.16662 0.30798 0.24710
 H888 H -0.16829 0.25756 0.23669
 H889 H -0.07381 0.29017 0.30811
 H890 H -0.05122 0.28586 0.32588
 H891 H -0.06536 0.23699 0.33173
 H892 H -0.08772 0.24139 0.31370
 C893 C -0.14298 0.72686 0.25474
 C894 C -0.14367 0.72147 0.23911
 C895 C -0.15719 0.71358 0.23375
 C896 C -0.16999 0.71105 0.24396
 C897 C -0.16958 0.71641 0.25986
 C898 C -0.15574 0.72439 0.26501
 C899 C -0.13051 0.72403 0.22858
 C900 C -0.11948 0.72617 0.21976
 C901 C -0.10655 0.72867 0.20944
 C902 C -0.09552 0.73081 0.20064
 C903 C -0.08234 0.73336 0.19011
 C904 C -0.07203 0.72088 0.18651
 C905 C -0.05923 0.72334 0.17628
 C906 C -0.05658 0.73834 0.16951
 C907 C -0.06702 0.75081 0.17322
 C908 C -0.07981 0.74832 0.18344
 H909 H -0.13248 0.73287 0.25907
 H910 H -0.15791 0.70948 0.22160
 H911 H -0.18040 0.70545 0.23901
 H912 H -0.15431 0.72824 0.27715
 H913 H -0.07385 0.70926 0.19164
 H914 H -0.05130 0.71355 0.17383
 H915 H -0.06542 0.76244 0.16804
 H916 H -0.08775 0.75806 0.18612
 C917 C 0.35006 0.20659 0.74158
 C918 C 0.35624 0.22180 0.73962
 C919 C 0.34960 0.23449 0.74792
 C920 C 0.33683 0.23201 0.75817
 C921 C 0.33034 0.21669 0.76036
 C922 C 0.33727 0.20402 0.75179
 C923 C 0.36941 0.22440 0.72910
 C924 C 0.38044 0.22657 0.72029
 C925 C 0.39336 0.22909 0.70998
 C926 C 0.40440 0.23124 0.70117
 C927 C 0.41758 0.23379 0.69065
 C928 C 0.42009 0.24875 0.68396
 C929 C 0.43289 0.25124 0.67374
 C930 C 0.44334 0.23878 0.67006
 C931 C 0.44071 0.22378 0.67685
 C932 C 0.42791 0.22132 0.68708
 H933 H 0.35521 0.19664 0.73531
 H934 H 0.35421 0.24637 0.74638
 H935 H 0.33174 0.24233 0.76380
 H936 H 0.33338 0.19192 0.75335
 H937 H 0.41214 0.25848 0.68661
 H938 H 0.43447 0.26286 0.66855
 H939 H 0.44866 0.21401 0.67443
 H940 H 0.42610 0.20971 0.69223
 C941 C 0.64978 0.29404 0.74163
 C942 C 0.64359 0.27883 0.73967
 C943 C 0.65025 0.26614 0.74794
 C944 C 0.66304 0.26862 0.75816
 C945 C 0.66954 0.28394 0.76035
 C946 C 0.66259 0.29661 0.75182
 C947 C 0.63041 0.27623 0.72915
 C948 C 0.61937 0.27406 0.72035
 C949 C 0.60645 0.27153 0.71003
 C950 C 0.59541 0.26938 0.70122
 C951 C 0.58224 0.26681 0.69069
 C952 C 0.56836 0.25970 0.69631
 C953 C 0.55556 0.25719 0.68609
 C954 C 0.55648 0.26179 0.67009
 C955 C 0.57049 0.26894 0.66456
 C956 C 0.58328 0.27143 0.67480
 H957 H 0.64461 0.30399 0.73538
 H958 H 0.64562 0.25426 0.74639
 H959 H 0.66813 0.25830 0.76377
 H960 H 0.66649 0.30871 0.75339
 H961 H 0.56742 0.25613 0.70861
 H962 H 0.54487 0.25186 0.69076
 H963 H 0.57164 0.27243 0.65227
 H964 H 0.59399 0.27691 0.67031
 C965 C 0.14779 0.79378 0.24354
 C966 C 0.14398 0.77841 0.23860
 C967 C 0.15303 0.76557 0.24390
 C968 C 0.16583 0.76807 0.25412
 C969 C 0.16976 0.78347 0.25916
 C970 C 0.16059 0.79631 0.25375
 C971 C 0.13078 0.77583 0.22811
 C972 C 0.11972 0.77366 0.21933
 C973 C 0.10677 0.77112 0.20905
 C974 C 0.09570 0.76896 0.20028
 C975 C 0.08249 0.76640 0.18980
 C976 C 0.06863 0.75928 0.19548
 C977 C 0.05579 0.75678 0.18531
 C978 C 0.05664 0.76137 0.16931
 C979 C 0.07063 0.76853 0.16372
 C980 C 0.08346 0.77101 0.17391
 H981 H 0.14083 0.80381 0.23954
 H982 H 0.15021 0.75363 0.24012
 H983 H 0.17278 0.75797 0.25792
 H984 H 0.16320 0.80828 0.25758
 H985 H 0.06773 0.75571 0.20778
 H986 H 0.04512 0.75144 0.19002
 H987 H 0.07174 0.77201 0.15142
 H988 H 0.09415 0.77649 0.16938
 C989 C 0.25696 0.14802 0.20674
 C990 C 0.26187 0.14418 0.22211
 C991 C 0.25655 0.15322 0.23496
 C992 C 0.24635 0.16603 0.23248
 C993 C 0.24133 0.16998 0.21708
 C994 C 0.24676 0.16083 0.20423
 C995 C 0.27233 0.13096 0.22468
 C996 C 0.28109 0.11988 0.22683
 C997 C 0.29132 0.10689 0.22932
 C998 C 0.30006 0.09579 0.23144
 C999 C 0.31050 0.08254 0.23396
 C1000 C 0.31713 0.07990 0.24893
 C1001 C 0.32726 0.06703 0.25138
 C1002 C 0.33092 0.05662 0.23887
 C1003 C 0.32419 0.05938 0.22386
 C1004 C 0.31405 0.07225 0.22144
 H1005 H 0.26096 0.14107 0.19671
 H1006 H 0.26032 0.15038 0.24691
 H1007 H 0.24253 0.17297 0.24258
 H1008 H 0.24295 0.16345 0.19226
 H1009 H 0.31449 0.08782 0.25869
 H1010 H 0.33241 0.06535 0.26301
 H1011 H 0.32660 0.05146 0.21405
 H1012 H 0.30894 0.07416 0.20981
 C1013 C 0.75560 0.64728 0.70580
 C1014 C 0.76056 0.64351 0.72117
 C1015 C 0.75521 0.65254 0.73401
 C1016 C 0.74493 0.66530 0.73151
 C1017 C 0.73988 0.66919 0.71611
 C1018 C 0.74533 0.66003 0.70327
 C1019 C 0.77114 0.63038 0.72375
 C1020 C 0.78000 0.61938 0.72591
 C1021 C 0.79036 0.60650 0.72844
 C1022 C 0.79921 0.59550 0.73059
 C1023 C 0.80977 0.58236 0.73316
 C1024 C 0.81649 0.57988 0.74811
 C1025 C 0.82675 0.56711 0.75062
 C1026 C 0.83043 0.55664 0.73817
 C1027 C 0.82362 0.55924 0.72317
 C1028 C 0.81336 0.57201 0.72070
 H1029 H 0.75964 0.64034 0.69578
 H1030 H 0.75901 0.64975 0.74595
 H1031 H 0.74110 0.67224 0.74160
 H1032 H 0.74150 0.66261 0.69130
 H1033 H 0.81383 0.58785 0.75783
 H1034 H 0.83195 0.56555 0.76224
 H1035 H 0.82605 0.55127 0.71340
 H1036 H 0.80818 0.57379 0.70908
 C1037 C 0.75578 0.35291 0.79391
 C1038 C 0.76067 0.35668 0.77853
 C1039 C 0.75528 0.34764 0.76571
 C1040 C 0.74504 0.33488 0.76825
 C1041 C 0.74006 0.33098 0.78367
 C1042 C 0.74555 0.34014 0.79648
 C1043 C 0.77121 0.36983 0.77590
 C1044 C 0.78004 0.38084 0.77370
 C1045 C 0.79038 0.39372 0.77114
 C1046 C 0.79921 0.40473 0.76897
 C1047 C 0.80976 0.41788 0.76638
 C1048 C 0.80414 0.43176 0.75924
 C1049 C 0.81438 0.44453 0.75672
 C1050 C 0.83038 0.44360 0.76131
 C1051 C 0.83591 0.42960 0.76848
 C1052 C 0.82565 0.41683 0.77098
 H1053 H 0.75984 0.35986 0.80392
 H1054 H 0.75903 0.35044 0.75375
 H1055 H 0.74118 0.32793 0.75817
 H1056 H 0.74176 0.33756 0.80847
 H1057 H 0.79185 0.43271 0.75567
 H1058 H 0.80971 0.45522 0.75137
 H1059 H 0.84820 0.42843 0.77196
 H1060 H 0.83013 0.40613 0.77647
 C1061 C 0.25270 -0.15046 0.26535
 C1062 C 0.26096 -0.14383 0.27806
 C1063 C 0.25897 -0.15003 0.29326
 C1064 C 0.24878 -0.16283 0.29579
 C1065 C 0.24025 -0.16976 0.28310
 C1066 C 0.24246 -0.16325 0.26779
 C1067 C 0.27148 -0.13065 0.27550
 C1068 C 0.28030 -0.11961 0.27338
 C1069 C 0.29062 -0.10670 0.27091
 C1070 C 0.29944 -0.09566 0.26880
 C1071 C 0.30998 -0.08249 0.26631
 C1072 C 0.32586 -0.08355 0.27095
 C1073 C 0.33611 -0.07076 0.26855
 C1074 C 0.33059 -0.05672 0.26144
 C1075 C 0.31460 -0.05578 0.25680
 C1076 C 0.30437 -0.06859 0.25923
 H1077 H 0.25426 -0.14583 0.25348
 H1078 H 0.26522 -0.14488 0.30323
 H1079 H 0.24720 -0.16674 0.30788
 H1080 H 0.23686 -0.16832 0.25745
 H1081 H 0.33034 -0.09428 0.27640
 H1082 H 0.34840 -0.07193 0.27206
 H1083 H 0.30994 -0.04507 0.25149
 H1084 H 0.29208 -0.06762 0.25563
 C1085 C 0.25456 -0.14352 0.72717
 C1086 C 0.23891 -0.14412 0.72181
 C1087 C 0.23346 -0.15761 0.71394
 C1088 C 0.24359 -0.17047 0.71139
 C1089 C 0.25950 -0.17015 0.71671
 C1090 C 0.26474 -0.15634 0.72468
 C1091 C 0.22846 -0.13088 0.72438
 C1092 C 0.21971 -0.11979 0.72653
 C1093 C 0.20948 -0.10681 0.72904
 C1094 C 0.20073 -0.09572 0.73118
 C1095 C 0.19028 -0.08247 0.73372
 C1096 C 0.18673 -0.07217 0.72123
 C1097 C 0.17656 -0.05932 0.72368
 C1098 C 0.16980 -0.05660 0.73869
 C1099 C 0.17346 -0.06702 0.75117
 C1100 C 0.18363 -0.07987 0.74869
 H1101 H 0.25895 -0.13305 0.73317
 H1102 H 0.22130 -0.15826 0.70986
 H1103 H 0.23857 -0.18085 0.70580
 H1104 H 0.27690 -0.15499 0.72850
 H1105 H 0.19185 -0.07405 0.70961
 H1106 H 0.17414 -0.05139 0.71389
 H1107 H 0.16830 -0.06537 0.76280
 H1108 H 0.18626 -0.08780 0.75843
 C1109 C 0.75567 0.35805 0.22358
 C1110 C 0.73930 0.35611 0.22175
 C1111 C 0.73319 0.34131 0.21743
 C1112 C 0.74340 0.32850 0.21491
 C1113 C 0.75988 0.33033 0.21671
 C1114 C 0.76590 0.34526 0.22108
 C1115 C 0.72878 0.36929 0.22431
 C1116 C 0.71997 0.38033 0.22644
 C1117 C 0.70965 0.39326 0.22893
 C1118 C 0.70084 0.40430 0.23107
 C1119 C 0.69032 0.41749 0.23362
 C1120 C 0.67443 0.41647 0.22900
 C1121 C 0.66421 0.42927 0.23147
 C1122 C 0.66976 0.44328 0.23863
 C1123 C 0.68576 0.44418 0.24324
 C1124 C 0.69597 0.43137 0.24074
 H1125 H 0.76053 0.36947 0.22688
 H1126 H 0.72053 0.33966 0.21602
 H1127 H 0.73839 0.31711 0.21176
 H1128 H 0.77854 0.34709 0.22236
 H1129 H 0.66993 0.40577 0.22352
 H1130 H 0.65191 0.42814 0.22799
 H1131 H 0.69044 0.45487 0.24858
 H1132 H 0.70826 0.43230 0.24432
 C1133 C 0.74478 0.65256 0.26558
 C1134 C 0.73950 0.64353 0.27844
 C1135 C 0.74446 0.64737 0.29380
 C1136 C 0.75466 0.66018 0.29629
 C1137 C 0.76005 0.66933 0.28344
 C1138 C 0.75500 0.66537 0.26805
 C1139 C 0.72898 0.63035 0.27589
 C1140 C 0.72017 0.61931 0.27375
 C1141 C 0.70985 0.60639 0.27126
 C1142 C 0.70103 0.59535 0.26914
 C1143 C 0.69050 0.58219 0.26661
 C1144 C 0.68690 0.57190 0.27910
 C1145 C 0.67666 0.55911 0.27666
 C1146 C 0.66987 0.55643 0.26166
 C1147 C 0.67357 0.56685 0.24918
 C1148 C 0.68381 0.57963 0.25165
 H1149 H 0.74098 0.64972 0.25365
 H1150 H 0.74047 0.64043 0.30383
 H1151 H 0.75850 0.66281 0.30825
 H1152 H 0.75878 0.67230 0.25794
 H1153 H 0.69205 0.57374 0.29072
 H1154 H 0.67422 0.55119 0.28645
 H1155 H 0.66838 0.56523 0.23755
 H1156 H 0.68648 0.58755 0.24191
 C1157 C 0.24432 0.14761 0.79414
 C1158 C 0.23938 0.14382 0.77877
 C1159 C 0.24468 0.15288 0.76594
 C1160 C 0.25491 0.16567 0.76845
 C1161 C 0.25995 0.16958 0.78386
 C1162 C 0.25454 0.16041 0.79669
 C1163 C 0.22886 0.13065 0.77617
 C1164 C 0.22006 0.11961 0.77400
 C1165 C 0.20976 0.10668 0.77146
 C1166 C 0.20096 0.09564 0.76931
 C1167 C 0.19045 0.08245 0.76674
 C1168 C 0.18379 0.07991 0.75177
 C1169 C 0.17358 0.06710 0.74927
 C1170 C 0.16988 0.05667 0.76173
 C1171 C 0.17665 0.05934 0.77674
 C1172 C 0.18686 0.07214 0.77922
 H1173 H 0.24032 0.14066 0.80416
 H1174 H 0.24089 0.15007 0.75400
 H1175 H 0.25871 0.17263 0.75837
 H1176 H 0.25837 0.16300 0.80866
 H1177 H 0.18645 0.08784 0.74204
 H1178 H 0.16841 0.06549 0.73763
 H1179 H 0.17421 0.05140 0.78652
 H1180 H 0.19199 0.07398 0.79084
 C1181 C 0.23523 0.25609 0.15328
 C1182 C 0.22237 0.26134 0.14422
 C1183 C 0.20702 0.25633 0.14801
 C1184 C 0.20454 0.24611 0.16080
 C1185 C 0.21739 0.24076 0.16998
 C1186 C 0.23278 0.24587 0.16607
 C1187 C 0.22491 0.27186 0.13105
 C1188 C 0.22702 0.28067 0.12001
 C1189 C 0.22947 0.29098 0.10708
 C1190 C 0.23155 0.29978 0.09603
 C1191 C 0.23402 0.31029 0.08284
 C1192 C 0.22150 0.31381 0.07255
 C1193 C 0.22388 0.32402 0.05974
 C1194 C 0.23885 0.33086 0.05703
 C1195 C 0.25137 0.32724 0.06745
 C1196 C 0.24895 0.31703 0.08026
 H1197 H 0.24716 0.25993 0.15047
 H1198 H 0.19699 0.26028 0.14105
 H1199 H 0.19258 0.24223 0.16339
 H1200 H 0.24288 0.24211 0.17303
 H1201 H 0.20991 0.30862 0.07441
 H1202 H 0.21407 0.32640 0.05182
 H1203 H 0.26297 0.33247 0.06581
 H1204 H 0.25872 0.31443 0.08818
 C1205 C 0.73390 0.75528 0.65235
 C1206 C 0.72106 0.76059 0.64330
 C1207 C 0.70569 0.75562 0.64707
 C1208 C 0.70316 0.74540 0.65985
 C1209 C 0.71599 0.73999 0.66902
 C1210 C 0.73140 0.74505 0.66513
 C1211 C 0.72365 0.77111 0.63014
 C1212 C 0.72582 0.77993 0.61912
 C1213 C 0.72838 0.79025 0.60622
 C1214 C 0.73057 0.79907 0.59520
 C1215 C 0.73318 0.80960 0.58206
 C1216 C 0.72073 0.81324 0.57172
 C1217 C 0.72325 0.82349 0.55896
 C1218 C 0.73827 0.83024 0.55636
 C1219 C 0.75072 0.82649 0.56681
 C1220 C 0.74817 0.81625 0.57958
 H1221 H 0.74584 0.75909 0.64956
 H1222 H 0.69567 0.75962 0.64011
 H1223 H 0.69120 0.74155 0.66243
 H1224 H 0.74149 0.74125 0.67209
 H1225 H 0.70909 0.80813 0.57351
 H1226 H 0.71349 0.82597 0.55101
 H1227 H 0.76236 0.83165 0.56525
 H1228 H 0.75788 0.81354 0.58753
 C1229 C 0.76575 0.75560 0.34708
 C1230 C 0.77858 0.76096 0.35612
 C1231 C 0.79396 0.75603 0.35233
 C1232 C 0.79651 0.74578 0.33955
 C1233 C 0.78369 0.74032 0.33040
 C1234 C 0.76827 0.74535 0.33430
 C1235 C 0.77597 0.77149 0.36928
 C1236 C 0.77379 0.78030 0.38032
 C1237 C 0.77124 0.79062 0.39324
 C1238 C 0.76908 0.79942 0.40428
 C1239 C 0.76651 0.80994 0.41747
 C1240 C 0.77897 0.81348 0.42783
 C1241 C 0.77649 0.82370 0.44064
 C1242 C 0.76149 0.83050 0.44327
 C1243 C 0.74904 0.82685 0.43279
 C1244 C 0.75155 0.81664 0.41998
 H1245 H 0.75380 0.75938 0.34988
 H1246 H 0.80397 0.76007 0.35928
 H1247 H 0.80849 0.74197 0.33697
 H1248 H 0.75818 0.74151 0.32736
 H1249 H 0.79059 0.80832 0.42602
 H1250 H 0.78626 0.82610 0.44861
 H1251 H 0.73742 0.83205 0.43437
 H1252 H 0.74183 0.81401 0.41201
 C1253 C 0.27685 0.24468 -0.14129
 C1254 C 0.27863 0.26104 -0.14325
 C1255 C 0.28292 0.26714 -0.15806
 C1256 C 0.28543 0.25693 -0.17086
 C1257 C 0.28367 0.24045 -0.16902
 C1258 C 0.27934 0.23444 -0.15408
 C1259 C 0.27605 0.27157 -0.13007
 C1260 C 0.27390 0.28039 -0.11904
 C1261 C 0.27139 0.29071 -0.10611
 C1262 C 0.26926 0.29953 -0.09507
 C1263 C 0.26671 0.31007 -0.08190
 C1264 C 0.27129 0.32597 -0.08296
 C1265 C 0.26881 0.33622 -0.07017
 C1266 C 0.26169 0.33069 -0.05614
 C1267 C 0.25713 0.31467 -0.05520
 C1268 C 0.25964 0.30444 -0.06800
 H1269 H 0.27357 0.23982 -0.12987
 H1270 H 0.28429 0.27980 -0.15971
 H1271 H 0.28855 0.26192 -0.18225
 H1272 H 0.27809 0.22180 -0.15224
 H1273 H 0.27673 0.33045 -0.09368
 H1274 H 0.27226 0.34852 -0.07134
 H1275 H 0.25183 0.31000 -0.04450
 H1276 H 0.25609 0.29214 -0.06704
 C1277 C 0.72339 0.25588 -0.14154
 C1278 C 0.72160 0.23951 -0.14353
 C1279 C 0.71724 0.23342 -0.15833
 C1280 C 0.71468 0.24365 -0.17110
 C1281 C 0.71646 0.26013 -0.16923
 C1282 C 0.72085 0.26613 -0.15430
 C1283 C 0.72421 0.22897 -0.13038
 C1284 C 0.72641 0.22014 -0.11938
 C1285 C 0.72897 0.20979 -0.10650
 C1286 C 0.73115 0.20094 -0.09551
 C1287 C 0.73373 0.19038 -0.08238
 C1288 C 0.72909 0.17450 -0.08345
 C1289 C 0.73157 0.16423 -0.07070
 C1290 C 0.73876 0.16972 -0.05668
 C1291 C 0.74340 0.18571 -0.05573
 C1292 C 0.74089 0.19596 -0.06849
 H1293 H 0.72672 0.26072 -0.13012
 H1294 H 0.71586 0.22077 -0.16001
 H1295 H 0.71151 0.23867 -0.18249
 H1296 H 0.72211 0.27876 -0.15243
 H1297 H 0.72358 0.17005 -0.09416
 H1298 H 0.72805 0.15195 -0.07188
 H1299 H 0.74876 0.19035 -0.04503
 H1300 H 0.74449 0.20824 -0.06752
 C1301 C 0.22361 0.75555 0.35777
 C1302 C 0.22180 0.73918 0.35580
 C1303 C 0.21751 0.73307 0.34099
 C1304 C 0.21501 0.74328 0.32819
 C1305 C 0.21680 0.75976 0.33004
 C1306 C 0.22113 0.76578 0.34498
 C1307 C 0.22434 0.72866 0.36898
 C1308 C 0.22645 0.71985 0.38001
 C1309 C 0.22892 0.70954 0.39294
 C1310 C 0.23102 0.70074 0.40398
 C1311 C 0.23353 0.69022 0.41716
 C1312 C 0.22891 0.67433 0.41611
 C1313 C 0.23133 0.66410 0.42891
 C1314 C 0.23844 0.66964 0.44295
 C1315 C 0.24305 0.68564 0.44388
 C1316 C 0.24060 0.69585 0.43107
 H1317 H 0.22689 0.76040 0.36919
 H1318 H 0.21611 0.72042 0.33933
 H1319 H 0.21188 0.73828 0.31679
 H1320 H 0.22240 0.77841 0.34683
 H1321 H 0.22347 0.66983 0.40538
 H1322 H 0.22784 0.65181 0.42775
 H1323 H 0.24835 0.69031 0.45459
 H1324 H 0.24419 0.70814 0.43203
 C1325 C 0.28187 0.73266 0.65850
 C1326 C 0.27757 0.73882 0.64371
 C1327 C 0.27579 0.75519 0.64182
 C1328 C 0.27829 0.76538 0.65464
 C1329 C 0.28263 0.75932 0.66955
 C1330 C 0.28439 0.74283 0.67134
 C1331 C 0.27503 0.72834 0.63049
 C1332 C 0.27291 0.71956 0.61942
 C1333 C 0.27045 0.70929 0.60645
 C1334 C 0.26835 0.70052 0.59537
 C1335 C 0.26586 0.69004 0.58214
 C1336 C 0.25091 0.68337 0.57951
 C1337 C 0.24848 0.67319 0.56666
 C1338 C 0.26100 0.66953 0.55626
 C1339 C 0.27599 0.67630 0.55901
 C1340 C 0.27839 0.68649 0.57186
 H1341 H 0.28325 0.72000 0.66011
 H1342 H 0.27251 0.76009 0.63041
 H1343 H 0.27704 0.77803 0.65284
 H1344 H 0.28752 0.73779 0.68271
 H1345 H 0.24114 0.68600 0.58741
 H1346 H 0.23686 0.66801 0.56499
 H1347 H 0.28581 0.67389 0.55111
 H1348 H 0.29000 0.69163 0.57376
 C1349 C 0.77670 0.25527 0.14183
 C1350 C 0.77850 0.23890 0.14377
 C1351 C 0.78281 0.23279 0.15857
 C1352 C 0.78533 0.24299 0.17138
 C1353 C 0.78355 0.25947 0.16956
 C1354 C 0.77920 0.26550 0.15463
 C1355 C 0.77593 0.22839 0.13058
 C1356 C 0.77378 0.21959 0.11953
 C1357 C 0.77127 0.20929 0.10659
 C1358 C 0.76913 0.20050 0.09554
 C1359 C 0.76659 0.19000 0.08233
 C1360 C 0.77909 0.18640 0.07204
 C1361 C 0.77664 0.17620 0.05921
 C1362 C 0.76162 0.16946 0.05650
 C1363 C 0.74913 0.17318 0.06691
 C1364 C 0.75161 0.18337 0.07974
 H1365 H 0.77341 0.26014 0.13042
 H1366 H 0.78420 0.22013 0.16021
 H1367 H 0.78846 0.23798 0.18277
 H1368 H 0.77793 0.27813 0.15281
 H1369 H 0.79072 0.19150 0.07391
 H1370 H 0.78644 0.17374 0.05130
 H1371 H 0.73749 0.16803 0.06526
 H1372 H 0.74186 0.18605 0.08765
 C1373 C 0.46710 0.40851 0.51708
 C1374 C 0.47143 0.39369 0.51102
 C1375 C 0.47327 0.39168 0.49466
 C1376 C 0.47078 0.40444 0.48439
 C1377 C 0.46640 0.41938 0.49036
 C1378 C 0.46459 0.42128 0.50683
 C1379 C 0.47399 0.38055 0.52158
 C1380 C 0.47613 0.36954 0.53041
 C1381 C 0.47865 0.35664 0.54075
 C1382 C 0.48081 0.34563 0.54958
 C1383 C 0.48339 0.33248 0.56012
 C1384 C 0.49054 0.31860 0.55451
 C1385 C 0.49305 0.30582 0.56474
 C1386 C 0.48842 0.30675 0.58074
 C1387 C 0.48124 0.32076 0.58626
 C1388 C 0.47875 0.33353 0.57601
 H1389 H 0.46568 0.41020 0.52973
 H1390 H 0.47658 0.38025 0.48983
 H1391 H 0.47207 0.40256 0.47176
 H1392 H 0.46143 0.43268 0.51180
 H1393 H 0.49413 0.31765 0.54223
 H1394 H 0.49841 0.29513 0.56008
 H1395 H 0.47774 0.32193 0.59855
 H1396 H 0.47325 0.34424 0.58049
 C1397 C -0.03283 0.90839 0.01689
 C1398 C -0.02849 0.89359 0.01078
 C1399 C -0.02666 0.89163 -0.00558
 C1400 C -0.02914 0.90442 -0.01581
 C1401 C -0.03351 0.91935 -0.00980
 C1402 C -0.03533 0.92119 0.00668
 C1403 C -0.02594 0.88042 0.02131
 C1404 C -0.02380 0.86938 0.03011
 C1405 C -0.02130 0.85646 0.04041
 C1406 C -0.01916 0.84541 0.04920
 C1407 C -0.01660 0.83222 0.05970
 C1408 C -0.00163 0.82966 0.06635
 C1409 C 0.00087 0.81685 0.07655
 C1410 C -0.01160 0.80642 0.08024
 C1411 C -0.02662 0.80910 0.07348
 C1412 C -0.02908 0.82191 0.06328
 H1413 H -0.03424 0.91005 0.02954
 H1414 H -0.02335 0.88021 -0.01044
 H1415 H -0.02785 0.90257 -0.02845
 H1416 H -0.03848 0.93258 0.01168
 H1417 H 0.00811 0.83760 0.06369
 H1418 H 0.01250 0.81523 0.08172
 H1419 H -0.03640 0.80116 0.07591
 H1420 H -0.04071 0.82375 0.05815
 C1421 C 0.04361 0.59987 0.00863
 C1422 C 0.02840 0.60609 0.01056
 C1423 C 0.01572 0.59948 0.00224
 C1424 C 0.01820 0.58669 -0.00800
 C1425 C 0.03351 0.58016 -0.01016
 C1426 C 0.04618 0.58707 -0.00157
 C1427 C 0.02581 0.61927 0.02108
 C1428 C 0.02364 0.63031 0.02989
 C1429 C 0.02112 0.64324 0.04020
 C1430 C 0.01897 0.65428 0.04901
 C1431 C 0.01642 0.66747 0.05954
 C1432 C 0.00146 0.67000 0.06623
 C1433 C -0.00103 0.68280 0.07646
 C1434 C 0.01144 0.69324 0.08014
 C1435 C 0.02644 0.69059 0.07334
 C1436 C 0.02890 0.67779 0.06311
 H1437 H 0.05356 0.60501 0.01492
 H1438 H 0.00384 0.60412 0.00376
 H1439 H 0.00788 0.58163 -0.01364
 H1440 H 0.05827 0.58314 -0.00311
 H1441 H -0.00827 0.66205 0.06358
 H1442 H -0.01266 0.68440 0.08165
 H1443 H 0.03622 0.69854 0.07577
 H1444 H 0.04052 0.67597 0.05796
 C1445 C 0.54359 0.10238 0.50657
 C1446 C 0.52823 0.10618 0.51154
 C1447 C 0.51538 0.09711 0.50628
 C1448 C 0.51787 0.08428 0.49608
 C1449 C 0.53327 0.08036 0.49101
 C1450 C 0.54611 0.08956 0.49637
 C1451 C 0.52565 0.11939 0.52203
 C1452 C 0.52351 0.13046 0.53081
 C1453 C 0.52100 0.14341 0.54109
 C1454 C 0.51887 0.15448 0.54987
 C1455 C 0.51634 0.16770 0.56036
 C1456 C 0.50138 0.17028 0.56703
 C1457 C 0.49890 0.18312 0.57722
 C1458 C 0.51139 0.19355 0.58088
 C1459 C 0.52639 0.19084 0.57411
 C1460 C 0.52884 0.17801 0.56391
 H1461 H 0.55361 0.10936 0.51053
 H1462 H 0.50345 0.09992 0.51010
 H1463 H 0.50778 0.07731 0.49232
 H1464 H 0.55807 0.08697 0.49252
 H1465 H 0.49163 0.16235 0.56439
 H1466 H 0.48728 0.18476 0.58240
 H1467 H 0.53619 0.19878 0.57652
 H1468 H 0.54046 0.17615 0.55878
 C1469 C -0.04368 0.10229 0.49412
 C1470 C -0.02832 0.10606 0.48915
 C1471 C -0.01547 0.09703 0.49447
 C1472 C -0.01796 0.08426 0.50473
 C1473 C -0.03337 0.08037 0.50979
 C1474 C -0.04620 0.08952 0.50437
 C1475 C -0.02574 0.11921 0.47860
 C1476 C -0.02359 0.13022 0.46977
 C1477 C -0.02108 0.14311 0.45944
 C1478 C -0.01894 0.15413 0.45061
 C1479 C -0.01639 0.16729 0.44008
 C1480 C -0.00141 0.16983 0.43342
 C1481 C 0.00108 0.18261 0.42319
 C1482 C -0.01140 0.19304 0.41948
 C1483 C -0.02641 0.19038 0.42624
 C1484 C -0.02887 0.17759 0.43647
 H1485 H -0.05371 0.10923 0.49011
 H1486 H -0.00353 0.09982 0.49067
 H1487 H -0.00787 0.07732 0.50854
 H1488 H -0.05817 0.08695 0.50822
 H1489 H 0.00833 0.16190 0.43610
 H1490 H 0.01271 0.18422 0.41802
 H1491 H -0.03620 0.19831 0.42379
 H1492 H -0.04050 0.17577 0.44160
 C1493 C 0.45632 0.60062 0.99179
 C1494 C 0.47154 0.60677 0.98979
 C1495 C 0.48423 0.60011 0.99806
 C1496 C 0.48174 0.58734 1.00831
 C1497 C 0.46641 0.58088 1.01053
 C1498 C 0.45374 0.58785 1.00200
 C1499 C 0.47415 0.61991 0.97925
 C1500 C 0.47631 0.63091 0.97041
 C1501 C 0.47883 0.64379 0.96005
 C1502 C 0.48096 0.65479 0.95120
 C1503 C 0.48348 0.66792 0.94062
 C1504 C 0.49844 0.67043 0.93390
 C1505 C 0.50089 0.68317 0.92360
 C1506 C 0.48840 0.69357 0.91988
 C1507 C 0.47341 0.69094 0.92671
 C1508 C 0.47099 0.67820 0.93701
 H1509 H 0.44636 0.60580 0.98554
 H1510 H 0.49612 0.60470 0.99649
 H1511 H 0.49207 0.58224 1.01392
 H1512 H 0.44163 0.58398 1.00358
 H1513 H 0.50818 0.66251 0.93658
 H1514 H 0.51251 0.68475 0.91839
 H1515 H 0.46361 0.69886 0.92425
 H1516 H 0.45937 0.67640 0.94218
 C1517 C 0.54306 0.89828 0.99315
 C1518 C 0.52769 0.89443 0.98825
 C1519 C 0.51484 0.90346 0.99358
 C1520 C 0.51733 0.91629 1.00378
 C1521 C 0.53273 0.92025 1.00878
 C1522 C 0.54558 0.91110 1.00335
 C1523 C 0.52512 0.88121 0.97778
 C1524 C 0.52298 0.87013 0.96902
 C1525 C 0.52049 0.85714 0.95878
 C1526 C 0.51838 0.84604 0.95003
 C1527 C 0.51587 0.83278 0.93960
 C1528 C 0.50883 0.81891 0.94533
 C1529 C 0.50639 0.80602 0.93521
 C1530 C 0.51098 0.80683 0.91919
 C1531 C 0.51806 0.82083 0.91355
 C1532 C 0.52047 0.83371 0.92370
 H1533 H 0.55309 0.89134 0.98914
 H1534 H 0.50289 0.90062 0.98982
 H1535 H 0.50723 0.92322 1.00760
 H1536 H 0.55755 0.91373 1.00715
 H1537 H 0.50526 0.81804 0.95763
 H1538 H 0.50110 0.79534 0.93996
 H1539 H 0.52153 0.82190 0.90125
 H1540 H 0.52590 0.84441 0.91912
 C1541 C 0.02313 0.39279 0.50457
 C1542 C 0.02843 0.39348 0.48891
 C1543 C 0.03624 0.40701 0.48349
 C1544 C 0.03877 0.41984 0.49367
 C1545 C 0.03349 0.41945 0.50959
 C1546 C 0.02559 0.40559 0.51480
 C1547 C 0.02586 0.38028 0.47841
 C1548 C 0.02371 0.36923 0.46962
 C1549 C 0.02120 0.35628 0.45932
 C1550 C 0.01907 0.34522 0.45053
 C1551 C 0.01653 0.33202 0.44002
 C1552 C 0.02117 0.33303 0.42413
 C1553 C 0.01871 0.32021 0.41392
 C1554 C 0.01155 0.30621 0.41947
 C1555 C 0.00693 0.30533 0.43547
 C1556 C 0.00942 0.31815 0.44567
 H1557 H 0.01718 0.38229 0.50894
 H1558 H 0.04028 0.40772 0.47133
 H1559 H 0.04430 0.43025 0.48868
 H1560 H 0.02182 0.40418 0.52696
 H1561 H 0.02664 0.34372 0.41963
 H1562 H 0.02220 0.32134 0.40162
 H1563 H 0.00160 0.29465 0.44015
 H1564 H 0.00583 0.31724 0.45796
 C1565 C 0.40253 0.50546 0.48428
 C1566 C 0.39349 0.51074 0.47142
 C1567 C 0.39731 0.50576 0.45607
 C1568 C 0.41012 0.49554 0.45357
 C1569 C 0.41927 0.49016 0.46643
 C1570 C 0.41533 0.49523 0.48182
 C1571 C 0.38031 0.52126 0.47397
 C1572 C 0.36927 0.53007 0.47610
 C1573 C 0.35633 0.54038 0.47859
 C1574 C 0.34528 0.54919 0.48071
 C1575 C 0.33210 0.55972 0.48323
 C1576 C 0.32182 0.56332 0.47072
 C1577 C 0.30902 0.57355 0.47316
 C1578 C 0.30632 0.58032 0.48816
 C1579 C 0.31672 0.57661 0.50066
 C1580 C 0.32952 0.56639 0.49820
 H1581 H 0.39970 0.50928 0.49621
 H1582 H 0.39037 0.50974 0.44603
 H1583 H 0.41274 0.49169 0.44162
 H1584 H 0.42227 0.49146 0.49193
 H1585 H 0.32368 0.55818 0.45910
 H1586 H 0.30111 0.57600 0.46335
 H1587 H 0.31508 0.58179 0.51229
 H1588 H 0.33743 0.56371 0.50795
 C1589 C 0.89320 -0.00494 -0.02312
 C1590 C 0.89390 0.01070 -0.02846
 C1591 C 0.90744 0.01608 -0.03631
 C1592 C 0.92024 0.00588 -0.03884
 C1593 C 0.91983 -0.01003 -0.03353
 C1594 C 0.90598 -0.01520 -0.02559
 C1595 C 0.88072 0.02123 -0.02591
 C1596 C 0.86968 0.03004 -0.02378
 C1597 C 0.85675 0.04035 -0.02129
 C1598 C 0.84570 0.04916 -0.01917
 C1599 C 0.83251 0.05968 -0.01663
 C1600 C 0.82224 0.06329 -0.02914
 C1601 C 0.80943 0.07352 -0.02669
 C1602 C 0.80672 0.08027 -0.01168
 C1603 C 0.81712 0.07654 0.00082
 C1604 C 0.82993 0.06632 -0.00166
 H1605 H 0.88270 -0.00927 -0.01714
 H1606 H 0.90816 0.02823 -0.04038
 H1607 H 0.93066 0.01083 -0.04440
 H1608 H 0.90454 -0.02734 -0.02178
 H1609 H 0.82410 0.05818 -0.04077
 H1610 H 0.80152 0.07598 -0.03649
 H1611 H 0.81548 0.08170 0.01246
 H1612 H 0.83783 0.06364 0.00809
 C1613 C 0.60197 0.00653 0.04292
 C1614 C 0.60577 0.01151 0.02756
 C1615 C 0.59668 0.00628 0.01472
 C1616 C 0.58384 -0.00390 0.01719
 C1617 C 0.57993 -0.00897 0.03259
 C1618 C 0.58914 -0.00363 0.04543
 C1619 C 0.61900 0.02195 0.02500
 C1620 C 0.63009 0.03069 0.02287
 C1621 C 0.64309 0.04092 0.02041
 C1622 C 0.65419 0.04966 0.01831
 C1623 C 0.66745 0.06009 0.01583
 C1624 C 0.67008 0.06678 0.00090
 C1625 C 0.68296 0.07692 -0.00152
 C1626 C 0.69337 0.08052 0.01100
 C1627 C 0.69061 0.07373 0.02598
 C1628 C 0.67774 0.06358 0.02836
 H1629 H 0.60896 0.01047 0.05294
 H1630 H 0.59949 0.01009 0.00278
 H1631 H 0.57686 -0.00764 0.00710
 H1632 H 0.58655 -0.00749 0.05738
 H1633 H 0.66216 0.06419 -0.00887
 H1634 H 0.68464 0.08212 -0.01313
 H1635 H 0.69853 0.07610 0.03579
 H1636 H 0.67584 0.05844 0.03996
 C1637 C 0.10232 0.50577 0.54311
 C1638 C 0.10609 0.51070 0.52774
 C1639 C 0.09702 0.50536 0.51491
 C1640 C 0.08425 0.49511 0.51744
 C1641 C 0.08037 0.49009 0.53286
 C1642 C 0.08955 0.49554 0.54567
 C1643 C 0.11924 0.52124 0.52512
 C1644 C 0.13026 0.53006 0.52296
 C1645 C 0.14316 0.54039 0.52044
 C1646 C 0.15419 0.54921 0.51830
 C1647 C 0.16736 0.55975 0.51578
 C1648 C 0.16990 0.56643 0.50082
 C1649 C 0.18269 0.57667 0.49836
 C1650 C 0.19311 0.58036 0.51085
 C1651 C 0.19045 0.57357 0.52584
 C1652 C 0.17765 0.56333 0.52827
 H1653 H 0.10929 0.50980 0.55312
 H1654 H 0.09981 0.50914 0.50296
 H1655 H 0.07729 0.49129 0.50736
 H1656 H 0.08699 0.49172 0.55764
 H1657 H 0.16198 0.56377 0.49107
 H1658 H 0.18431 0.58186 0.48674
 H1659 H 0.19837 0.57601 0.53564
 H1660 H 0.17582 0.55818 0.53989
 C1661 C 0.09945 0.49755 -0.01577
 C1662 C 0.10613 0.48926 -0.02844
 C1663 C 0.09998 0.49122 -0.04367
 C1664 C 0.08719 0.50143 -0.04626
 C1665 C 0.08022 0.50998 -0.03361
 C1666 C 0.08668 0.50779 -0.01828
 C1667 C 0.11931 0.47875 -0.02581
 C1668 C 0.13035 0.46995 -0.02362
 C1669 C 0.14328 0.45966 -0.02106
 C1670 C 0.15433 0.45086 -0.01889
 C1671 C 0.16752 0.44037 -0.01630
 C1672 C 0.17786 0.43677 -0.02876
 C1673 C 0.19068 0.42658 -0.02626
 C1674 C 0.19334 0.41984 -0.01124
 C1675 C 0.18287 0.42354 0.00121
 C1676 C 0.17005 0.43374 -0.00132
 H1677 H 0.10405 0.49601 -0.00387
 H1678 H 0.10516 0.48495 -0.05361
 H1679 H 0.08332 0.50298 -0.05837
 H1680 H 0.08157 0.51342 -0.00796
 H1681 H 0.17604 0.44188 -0.04039
 H1682 H 0.19864 0.42414 -0.03603
 H1683 H 0.18447 0.41839 0.01285
 H1684 H 0.16209 0.43641 0.00840
 C1685 C 0.59252 0.98374 0.46440
 C1686 C 0.60606 0.98917 0.47220
 C1687 C 0.60673 1.00482 0.47754
 C1688 C 0.59392 1.01503 0.47511
 C1689 C 0.58006 1.00982 0.46721
 C1690 C 0.57967 0.99390 0.46191
 C1691 C 0.61928 0.97869 0.47471
 C1692 C 0.63035 0.96990 0.47681
 C1693 C 0.64331 0.95962 0.47925
 C1694 C 0.65437 0.95082 0.48133
 C1695 C 0.66758 0.94032 0.48382
 C1696 C 0.67016 0.93361 0.49876
 C1697 C 0.68298 0.92339 0.50118
 C1698 C 0.69339 0.91974 0.48868
 C1699 C 0.69069 0.92656 0.47370
 C1700 C 0.67787 0.93678 0.47130
 H1701 H 0.59182 0.97158 0.46033
 H1702 H 0.61724 1.00919 0.48349
 H1703 H 0.59533 1.02719 0.47891
 H1704 H 0.56925 0.98891 0.45637
 H1705 H 0.66224 0.93623 0.50852
 H1706 H 0.68462 0.91818 0.51279
 H1707 H 0.69861 0.92415 0.46389
 H1708 H 0.67601 0.94194 0.45970
 C1709 C 0.90861 0.98288 0.53298
 C1710 C 0.89381 0.98897 0.52865
 C1711 C 0.89184 1.00533 0.52683
 C1712 C 0.90461 1.01557 0.52932
 C1713 C 0.91955 1.00957 0.53368
 C1714 C 0.92141 0.99310 0.53549
 C1715 C 0.88064 0.97843 0.52608
 C1716 C 0.86961 0.96962 0.52393
 C1717 C 0.85669 0.95931 0.52140
 C1718 C 0.84565 0.95051 0.51925
 C1719 C 0.83245 0.94001 0.51667
 C1720 C 0.82989 0.93338 0.50169
 C1721 C 0.81707 0.92320 0.49917
 C1722 C 0.80664 0.91949 0.51164
 C1723 C 0.80933 0.92621 0.52667
 C1724 C 0.82215 0.93640 0.52915
 H1725 H 0.91028 0.97022 0.53438
 H1726 H 0.88041 1.01017 0.52353
 H1727 H 0.90276 1.02821 0.52804
 H1728 H 0.93280 0.98811 0.53864
 H1729 H 0.83782 0.93606 0.49195
 H1730 H 0.81544 0.91806 0.48752
 H1731 H 0.80139 0.92376 0.53644
 H1732 H 0.82399 0.94150 0.54079
 C1733 C 0.40250 0.49531 0.01600
 C1734 C 0.39347 0.48997 0.02884
 C1735 C 0.39730 0.49487 0.04422
 C1736 C 0.41010 0.50507 0.04676
 C1737 C 0.41925 0.51052 0.03393
 C1738 C 0.41530 0.50553 0.01852
 C1739 C 0.38030 0.47945 0.02624
 C1740 C 0.36927 0.47063 0.02407
 C1741 C 0.35636 0.46031 0.02153
 C1742 C 0.34534 0.45149 0.01938
 C1743 C 0.33218 0.44094 0.01682
 C1744 C 0.32186 0.43736 0.02929
 C1745 C 0.30909 0.42709 0.02683
 C1746 C 0.30647 0.42027 0.01183
 C1747 C 0.31692 0.42397 -0.00063
 C1748 C 0.32968 0.43423 0.00186
 H1749 H 0.39967 0.49156 0.00405
 H1750 H 0.39036 0.49083 0.05424
 H1751 H 0.41272 0.50886 0.05874
 H1752 H 0.42224 0.50935 0.00843
 H1753 H 0.32366 0.44253 0.04091
 H1754 H 0.30115 0.42466 0.03660
 H1755 H 0.31534 0.41876 -0.01226
 H1756 H 0.33763 0.43689 -0.00787
 C1757 C 0.50594 0.45603 0.39756
 C1758 C 0.51087 0.47140 0.39376
 C1759 C 0.50552 0.48425 0.40279
 C1760 C 0.49527 0.48176 0.41556
 C1761 C 0.49024 0.46636 0.41948
 C1762 C 0.49569 0.45351 0.41034
 C1763 C 0.52141 0.47398 0.38061
 C1764 C 0.53023 0.47614 0.36959
 C1765 C 0.54056 0.47867 0.35668
 C1766 C 0.54937 0.48083 0.34565
 C1767 C 0.55990 0.48340 0.33248
 C1768 C 0.56659 0.49836 0.32998
 C1769 C 0.57682 0.50086 0.31719
 C1770 C 0.58051 0.48840 0.30673
 C1771 C 0.57371 0.47340 0.30934
 C1772 C 0.56348 0.47093 0.32213
 H1773 H 0.50997 0.44601 0.39063
 H1774 H 0.50930 0.49619 0.39997
 H1775 H 0.49143 0.49186 0.42249
 H1776 H 0.49187 0.44155 0.41294
 H1777 H 0.56394 0.50808 0.33794
 H1778 H 0.58202 0.51248 0.31562
 H1779 H 0.57614 0.46363 0.30138
 H1780 H 0.55832 0.45931 0.32393
 C1781 C 0.00562 -0.01560 0.90279
 C1782 C 0.01091 -0.02844 0.89371
 C1783 C 0.00594 -0.04380 0.89746
 C1784 C -0.00428 -0.04634 0.91025
 C1785 C -0.00968 -0.03351 0.91945
 C1786 C -0.00461 -0.01811 0.91558
 C1787 C 0.02144 -0.02584 0.88055
 C1788 C 0.03025 -0.02367 0.86952
 C1789 C 0.04057 -0.02114 0.85661
 C1790 C 0.04940 -0.01899 0.84558
 C1791 C 0.05993 -0.01642 0.83242
 C1792 C 0.06354 -0.02890 0.82210
 C1793 C 0.07378 -0.02643 0.80931
 C1794 C 0.08056 -0.01142 0.80668
 C1795 C 0.07684 0.00104 0.81713
 C1796 C 0.06660 -0.00146 0.82991
 H1797 H 0.00943 -0.00366 0.90002
 H1798 H 0.00993 -0.05382 0.89049
 H1799 H -0.00813 -0.05830 0.91282
 H1800 H -0.00840 -0.00802 0.92256
 H1801 H 0.05840 -0.04052 0.82390
 H1802 H 0.07623 -0.03621 0.80137
 H1803 H 0.08202 0.01267 0.81554
 H1804 H 0.06393 0.00827 0.83786
 C1805 C 0.00613 0.04374 0.60262
 C1806 C 0.01107 0.02838 0.60643
 C1807 C 0.00575 0.01552 0.59741
 C1808 C -0.00449 0.01800 0.58462
 C1809 C -0.00953 0.03340 0.58069
 C1810 C -0.00410 0.04625 0.58983
 C1811 C 0.02160 0.02581 0.61960
 C1812 C 0.03042 0.02367 0.63064
 C1813 C 0.04073 0.02117 0.64356
 C1814 C 0.04955 0.01904 0.65460
 C1815 C 0.06007 0.01651 0.66778
 C1816 C 0.06674 0.00154 0.67033
 C1817 C 0.07696 -0.00093 0.68314
 C1818 C 0.08065 0.01156 0.69356
 C1819 C 0.07388 0.02656 0.69088
 C1820 C 0.06366 0.02901 0.67808
 H1821 H 0.01014 0.05377 0.60955
 H1822 H 0.00954 0.00358 0.60023
 H1823 H -0.00830 0.00790 0.57769
 H1824 H -0.00793 0.05821 0.58722
 H1825 H 0.06407 -0.00820 0.66241
 H1826 H 0.08213 -0.01256 0.68476
 H1827 H 0.07632 0.03636 0.69881
 H1828 H 0.05852 0.04063 0.67624
 C1829 C 0.50598 0.54423 0.10288
 C1830 C 0.51087 0.52885 0.10665
 C1831 C 0.50549 0.51603 0.09760
 C1832 C 0.49524 0.51858 0.08483
 C1833 C 0.49025 0.53400 0.08094
 C1834 C 0.49574 0.54681 0.09011
 C1835 C 0.52141 0.52621 0.11980
 C1836 C 0.53023 0.52400 0.13082
 C1837 C 0.54055 0.52143 0.14372
 C1838 C 0.54937 0.51924 0.15475
 C1839 C 0.55989 0.51664 0.16791
 C1840 C 0.56656 0.50166 0.17039
 C1841 C 0.57679 0.49912 0.18317
 C1842 C 0.58050 0.51156 0.19365
 C1843 C 0.57374 0.52658 0.19105
 C1844 C 0.56350 0.52909 0.17826
 H1845 H 0.51004 0.55424 0.10983
 H1846 H 0.50924 0.50407 0.10039
 H1847 H 0.49138 0.50850 0.07788
 H1848 H 0.49195 0.55879 0.08754
 H1849 H 0.56388 0.49195 0.16242
 H1850 H 0.58196 0.48749 0.18473
 H1851 H 0.57619 0.53634 0.19901
 H1852 H 0.55837 0.54072 0.17648
 C1853 C 0.48260 -0.03216 0.09099
 C1854 C 0.48879 -0.02790 0.10578
 C1855 C 0.50517 -0.02607 0.10764
 C1856 C 0.51533 -0.02850 0.09477
 C1857 C 0.50922 -0.03280 0.07986
 C1858 C 0.49274 -0.03461 0.07811
 C1859 C 0.47835 -0.02542 0.11904
 C1860 C 0.46962 -0.02334 0.13015
 C1861 C 0.45940 -0.02092 0.14316
 C1862 C 0.45068 -0.01884 0.15429
 C1863 C 0.44026 -0.01635 0.16756
 C1864 C 0.43362 -0.00139 0.17024
 C1865 C 0.42349 0.00103 0.18312
 C1866 C 0.41985 -0.01150 0.19350
 C1867 C 0.42660 -0.02649 0.19070
 C1868 C 0.43674 -0.02889 0.17782
 H1869 H 0.46994 -0.03357 0.08941
 H1870 H 0.51010 -0.02282 0.11904
 H1871 H 0.52797 -0.02722 0.09654
 H1872 H 0.48767 -0.03771 0.06674
 H1873 H 0.43623 0.00838 0.16235
 H1874 H 0.41832 0.01266 0.18484
 H1875 H 0.42420 -0.03632 0.19859
 H1876 H 0.44185 -0.04050 0.17588
 C1877 C 0.99411 0.45595 0.60213
 C1878 C 0.98912 0.47131 0.60590
 C1879 C 0.99438 0.48415 0.59683
 C1880 C 1.00460 0.48165 0.58403
 C1881 C 1.00969 0.46625 0.58013
 C1882 C 1.00433 0.45342 0.58933
 C1883 C 0.97861 0.47390 0.61908
 C1884 C 0.96981 0.47606 0.63012
 C1885 C 0.95951 0.47859 0.64306
 C1886 C 0.95072 0.48076 0.65411
 C1887 C 0.94021 0.48335 0.66729
 C1888 C 0.93355 0.49833 0.66981
 C1889 C 0.92334 0.50086 0.68262
 C1890 C 0.91966 0.48842 0.69308
 C1891 C 0.92642 0.47340 0.69044
 C1892 C 0.93663 0.47090 0.67763
 H1893 H 0.99015 0.44594 0.60910
 H1894 H 0.99056 0.49609 0.59962
 H1895 H 1.00837 0.49174 0.57705
 H1896 H 1.00819 0.44146 0.58675
 H1897 H 0.93621 0.50804 0.66185
 H1898 H 0.91817 0.51249 0.68421
 H1899 H 0.92399 0.46364 0.69840
 H1900 H 0.94177 0.45927 0.67582
 C1901 C 1.00569 0.52662 0.89148
 C1902 C 0.98932 0.52842 0.89342
 C1903 C 0.98319 0.53272 0.90822
 C1904 C 0.99338 0.53523 0.92103
 C1905 C 1.00987 0.53345 0.91921
 C1906 C 1.01591 0.52911 0.90429
 C1907 C 0.97881 0.52585 0.88023
 C1908 C 0.97001 0.52371 0.86918
 C1909 C 0.95971 0.52121 0.85624
 C1910 C 0.95090 0.51908 0.84520
 C1911 C 0.94037 0.51655 0.83202
 C1912 C 0.92449 0.52122 0.83304
 C1913 C 0.91426 0.51876 0.82024
 C1914 C 0.91978 0.51158 0.80624
 C1915 C 0.93578 0.50692 0.80534
 C1916 C 0.94599 0.50940 0.81814
 H1917 H 1.01057 0.52333 0.88006
 H1918 H 0.97053 0.53410 0.90986
 H1919 H 0.98836 0.53836 0.93242
 H1920 H 1.02855 0.52785 0.90246
 H1921 H 0.92001 0.52673 0.84374
 H1922 H 0.90197 0.52229 0.82139
 H1923 H 0.94044 0.50156 0.79465
 H1924 H 0.95828 0.50578 0.81721
 C1925 C 0.49387 0.04336 0.39827
 C1926 C 0.48896 0.02799 0.39446
 C1927 C 0.49426 0.01516 0.40352
 C1928 C 0.50446 0.01768 0.41634
 C1929 C 0.50947 0.03309 0.42027
 C1930 C 0.50405 0.04591 0.41109
 C1931 C 0.47849 0.02538 0.38124
 C1932 C 0.46974 0.02321 0.37017
 C1933 C 0.45949 0.02068 0.35719
 C1934 C 0.45075 0.01855 0.34610
 C1935 C 0.44030 0.01602 0.33285
 C1936 C 0.43358 0.00108 0.33028
 C1937 C 0.42342 -0.00137 0.31742
 C1938 C 0.41983 0.01111 0.30697
 C1939 C 0.42665 0.02609 0.30966
 C1940 C 0.43682 0.02851 0.32252
 H1941 H 0.48987 0.05337 0.39130
 H1942 H 0.49050 0.00321 0.40071
 H1943 H 0.50826 0.00760 0.42330
 H1944 H 0.50786 0.05789 0.41369
 H1945 H 0.43615 -0.00865 0.33823
 H1946 H 0.41819 -0.01298 0.31579
 H1947 H 0.42430 0.03587 0.30171
 H1948 H 0.44200 0.04011 0.32437
   
