data_POSCAR
  _audit_creation_date              2014-09-24
  _audit_creation_method            'ToBaCCo'
  _symmetry_space_group_name_H-M    'P1'
  _symmetry_Int_Tables_number       1
  _symmetry_cell_setting            triclinic
  loop_
  _symmetry_equiv_pos_as_xyz
 x,y,z
_cell_length_a 80.5893
_cell_length_b 80.6736
_cell_length_c 80.8460
_cell_angle_alpha 89.978300
_cell_angle_beta 89.977200
_cell_angle_gamma 89.934800
loop_
  _atom_site_label
  _atom_site_type_symbol
  _atom_site_fract_x
  _atom_site_fract_y
  _atom_site_fract_z
N1 N 0.36242 0.31640 0.32828
 N2 N 0.36223 0.32799 0.31683
 C3 C 0.37517 0.32563 0.30652
 C4 C 0.38381 0.31189 0.31189
 C5 C 0.37547 0.30630 0.32568
 H6 H 0.37816 0.33332 0.29597
 H7 H 0.37871 0.29574 0.33327
 Cu8 Cu 0.34510 0.34500 0.31667
 Cu9 Cu 0.34588 0.31535 0.34583
 Cu10 Cu 0.31540 0.34576 0.34579
 N11 N 0.32807 0.36210 0.31680
 N12 N 0.31645 0.36228 0.32824
 C13 C 0.30632 0.37531 0.32561
 C14 C 0.31195 0.38365 0.31183
 C15 C 0.32572 0.37503 0.30649
 H16 H 0.29573 0.37853 0.33318
 H17 H 0.33344 0.37803 0.29596
 N18 N 0.31646 0.32798 0.36250
 N19 N 0.32808 0.31641 0.36252
 C20 C 0.32558 0.30625 0.37552
 C21 C 0.31179 0.31174 0.38396
 C22 C 0.30627 0.32548 0.37548
 H23 H 0.33325 0.29571 0.37870
 H24 H 0.29569 0.33311 0.37863
 H25 H 0.32708 0.32696 0.33287
 H26 H 0.34046 0.34036 0.34610
 N27 N 0.36278 0.81646 -0.17210
 N28 N 0.36261 0.82806 -0.18356
 C29 C 0.37553 0.82567 -0.19388
 C30 C 0.38413 0.81190 -0.18851
 C31 C 0.37581 0.80631 -0.17471
 H32 H 0.37857 0.83340 -0.20439
 H33 H 0.37906 0.79579 -0.16707
 Cu34 Cu 0.34571 0.84534 -0.18355
 Cu35 Cu 0.34629 0.81548 -0.15451
 Cu36 Cu 0.31582 0.84586 -0.15455
 N37 N 0.32838 0.86220 -0.18360
 N38 N 0.31675 0.86235 -0.17216
 C39 C 0.30656 0.87534 -0.17481
 C40 C 0.31215 0.88367 -0.18861
 C41 C 0.32597 0.87510 -0.19395
 H42 H 0.29600 0.87856 -0.16719
 H43 H 0.33372 0.87812 -0.20444
 N44 N 0.31692 0.82813 -0.13778
 N45 N 0.32854 0.81656 -0.13777
 C46 C 0.32606 0.80640 -0.12477
 C47 C 0.31228 0.81188 -0.11630
 C48 C 0.30675 0.82562 -0.12478
 H49 H 0.33373 0.79585 -0.12161
 H50 H 0.29616 0.83324 -0.12164
 H51 H 0.32767 0.82718 -0.16756
 H52 H 0.34096 0.84051 -0.15413
 N53 N 0.86197 0.31687 -0.17205
 N54 N 0.86191 0.32860 -0.18337
 C55 C 0.87487 0.32627 -0.19366
 C56 C 0.88340 0.31241 -0.18841
 C57 C 0.87495 0.30671 -0.17472
 H58 H 0.87799 0.33408 -0.20408
 H59 H 0.87811 0.29608 -0.16721
 Cu60 Cu 0.84489 0.34572 -0.18334
 Cu61 Cu 0.84543 0.31583 -0.15448
 Cu62 Cu 0.81516 0.34649 -0.15428
 N63 N 0.82789 0.36286 -0.18326
 N64 N 0.81626 0.36305 -0.17182
 C65 C 0.80615 0.37609 -0.17444
 C66 C 0.81180 0.38440 -0.18822
 C67 C 0.82555 0.37577 -0.19360
 H68 H 0.79558 0.37933 -0.16685
 H69 H 0.83328 0.37876 -0.20413
 N70 N 0.81618 0.32865 -0.13763
 N71 N 0.82766 0.31695 -0.13774
 C72 C 0.82513 0.30673 -0.12480
 C73 C 0.81146 0.31233 -0.11623
 C74 C 0.80604 0.32619 -0.12459
 H75 H 0.83269 0.29609 -0.12172
 H76 H 0.79557 0.33392 -0.12133
 H77 H 0.82670 0.32771 -0.16731
 H78 H 0.84017 0.34089 -0.15395
 N79 N 0.86242 0.81713 0.32836
 N80 N 0.86237 0.82888 0.31707
 C81 C 0.87526 0.82650 0.30670
 C82 C 0.88373 0.81258 0.31187
 C83 C 0.87534 0.80690 0.32560
 H84 H 0.87830 0.83427 0.29623
 H85 H 0.87844 0.79618 0.33302
 Cu86 Cu 0.84532 0.84595 0.31721
 Cu87 Cu 0.84581 0.81597 0.34587
 Cu88 Cu 0.81511 0.84625 0.34567
 N89 N 0.82813 0.86288 0.31694
 N90 N 0.81624 0.86282 0.32811
 C91 C 0.80595 0.87569 0.32529
 C92 C 0.81177 0.88414 0.31167
 C93 C 0.82581 0.87579 0.30660
 H94 H 0.79515 0.87871 0.33265
 H95 H 0.83372 0.87893 0.29626
 N96 N 0.81618 0.82844 0.36238
 N97 N 0.82790 0.81696 0.36249
 C98 C 0.82543 0.80682 0.37551
 C99 C 0.81156 0.81222 0.38388
 C100 C 0.80595 0.82589 0.37532
 H101 H 0.83318 0.79638 0.37877
 H102 H 0.79531 0.83345 0.37841
 H103 H 0.82709 0.82761 0.33280
 H104 H 0.84012 0.84089 0.34646
 N105 N 0.63751 0.68348 0.32841
 N106 N 0.63748 0.67163 0.31723
 C107 C 0.62456 0.67396 0.30690
 C108 C 0.61616 0.68795 0.31198
 C109 C 0.62462 0.69373 0.32560
 H110 H 0.62143 0.66609 0.29653
 H111 H 0.62158 0.70451 0.33295
 Cu112 Cu 0.65447 0.65452 0.31745
 Cu113 Cu 0.65413 0.68466 0.34590
 Cu114 Cu 0.68465 0.65420 0.34589
 N115 N 0.67161 0.63756 0.31721
 N116 N 0.68348 0.63760 0.32839
 C117 C 0.69375 0.62473 0.32556
 C118 C 0.68796 0.61628 0.31193
 C119 C 0.67395 0.62466 0.30687
 H120 H 0.70455 0.62169 0.33291
 H121 H 0.66607 0.62154 0.29651
 N122 N 0.68363 0.67206 0.36252
 N123 N 0.67201 0.68365 0.36253
 C124 C 0.67452 0.69383 0.37550
 C125 C 0.68829 0.68833 0.38396
 C126 C 0.69381 0.67458 0.37550
 H127 H 0.66684 0.70435 0.37869
 H128 H 0.70436 0.66692 0.37868
 H129 H 0.67278 0.67284 0.33291
 H130 H 0.65967 0.65972 0.34667
 N131 N 0.63774 0.18328 -0.17182
 N132 N 0.63794 0.17169 -0.18326
 C133 C 0.62497 0.17401 -0.19353
 C134 C 0.61632 0.18774 -0.18817
 C135 C 0.62467 0.19336 -0.17441
 H136 H 0.62193 0.16626 -0.20402
 H137 H 0.62141 0.20390 -0.16680
 Cu138 Cu 0.65497 0.15456 -0.18327
 Cu139 Cu 0.65425 0.18432 -0.15425
 Cu140 Cu 0.68473 0.15390 -0.15426
 N141 N 0.67214 0.13757 -0.18330
 N142 N 0.68375 0.13738 -0.17185
 C143 C 0.69388 0.12434 -0.17446
 C144 C 0.68826 0.11603 -0.18825
 C145 C 0.67449 0.12465 -0.19361
 H146 H 0.70443 0.12110 -0.16685
 H147 H 0.66674 0.12164 -0.20411
 N148 N 0.68364 0.17167 -0.13754
 N149 N 0.67204 0.18326 -0.13755
 C150 C 0.67454 0.19345 -0.12459
 C151 C 0.68830 0.18797 -0.11611
 C152 C 0.69382 0.17420 -0.12455
 H153 H 0.66689 0.20402 -0.12145
 H154 H 0.70439 0.16657 -0.12139
 H155 H 0.67298 0.17265 -0.16717
 H156 H 0.65963 0.15929 -0.15385
 N157 N 0.13767 0.68358 -0.17172
 N158 N 0.13785 0.67198 -0.18315
 C159 C 0.12490 0.67432 -0.19344
 C160 C 0.11628 0.68808 -0.18809
 C161 C 0.12463 0.69370 -0.17433
 H162 H 0.12186 0.66658 -0.20393
 H163 H 0.12139 0.70425 -0.16674
 Cu164 Cu 0.15480 0.65481 -0.18314
 Cu165 Cu 0.15417 0.68458 -0.15415
 Cu166 Cu 0.18457 0.65409 -0.15413
 N167 N 0.17194 0.63783 -0.18315
 N168 N 0.18354 0.63760 -0.17170
 C169 C 0.19362 0.62455 -0.17431
 C170 C 0.18800 0.61624 -0.18809
 C171 C 0.17427 0.62490 -0.19345
 H172 H 0.20417 0.62127 -0.16670
 H173 H 0.16653 0.62189 -0.20395
 N174 N 0.18352 0.67186 -0.13742
 N175 N 0.17194 0.68348 -0.13744
 C176 C 0.17448 0.69367 -0.12449
 C177 C 0.18823 0.68814 -0.11602
 C178 C 0.19371 0.67436 -0.12445
 H179 H 0.16687 0.70426 -0.12136
 H180 H 0.20426 0.66670 -0.12129
 H181 H 0.17289 0.67284 -0.16708
 H182 H 0.15950 0.65952 -0.15374
 N183 N 0.13778 0.18368 0.32809
 N184 N 0.13785 0.17196 0.31677
 C185 C 0.12488 0.17427 0.30650
 C186 C 0.11635 0.18811 0.31176
 C187 C 0.12478 0.19383 0.32543
 H188 H 0.12178 0.16645 0.29609
 H189 H 0.12161 0.20447 0.33293
 Cu190 Cu 0.15488 0.15486 0.31682
 Cu191 Cu 0.15429 0.18472 0.34567
 Cu192 Cu 0.18460 0.15409 0.34583
 N193 N 0.17191 0.13777 0.31684
 N194 N 0.18353 0.13757 0.32827
 C195 C 0.19366 0.12456 0.32562
 C196 C 0.18804 0.11626 0.31183
 C197 C 0.17427 0.12488 0.30650
 H198 H 0.20425 0.12133 0.33317
 H199 H 0.16656 0.12190 0.29597
 N200 N 0.18355 0.17191 0.36250
 N201 N 0.17206 0.18360 0.36240
 C202 C 0.17458 0.19380 0.37535
 C203 C 0.18824 0.18819 0.38392
 C204 C 0.19368 0.17435 0.37554
 H205 H 0.16700 0.20443 0.37844
 H206 H 0.20414 0.16662 0.37879
 H207 H 0.17304 0.17289 0.33282
 H208 H 0.15958 0.15969 0.34619
 N209 N 0.63761 0.31647 0.67185
 N210 N 0.63779 0.32805 0.68330
 C211 C 0.62486 0.32571 0.69361
 C212 C 0.61622 0.31199 0.68825
 C213 C 0.62456 0.30639 0.67446
 H214 H 0.62184 0.33343 0.70413
 H215 H 0.62130 0.29587 0.66683
 Cu216 Cu 0.65479 0.34518 0.68329
 Cu217 Cu 0.65412 0.31544 0.65426
 Cu218 Cu 0.68457 0.34583 0.65426
 N219 N 0.67195 0.36215 0.68330
 N220 N 0.68355 0.36233 0.67185
 C221 C 0.69366 0.37535 0.67446
 C222 C 0.68805 0.38369 0.68825
 C223 C 0.67430 0.37506 0.69361
 H224 H 0.70420 0.37860 0.66684
 H225 H 0.66656 0.37807 0.70413
 N226 N 0.68350 0.32807 0.63753
 N227 N 0.67190 0.31650 0.63754
 C228 C 0.67441 0.30632 0.62456
 C229 C 0.68818 0.31180 0.61609
 C230 C 0.69368 0.32555 0.62455
 H231 H 0.66677 0.29578 0.62141
 H232 H 0.70425 0.33316 0.62139
 H233 H 0.67285 0.32711 0.66719
 H234 H 0.65948 0.34048 0.65387
 N235 N 0.63766 0.81671 1.17203
 N236 N 0.63755 0.82862 1.18316
 C237 C 0.62459 0.82634 1.19345
 C238 C 0.61625 0.81232 1.18842
 C239 C 0.62479 0.80647 1.17485
 H240 H 0.62140 0.83426 1.20376
 H241 H 0.62179 0.79565 1.16754
 Cu242 Cu 0.65450 0.84573 1.18290
 Cu243 Cu 0.65430 0.81550 1.15454
 Cu244 Cu 0.68467 0.84605 1.15441
 N245 N 0.67160 0.86269 1.18309
 N246 N 0.68345 0.86266 1.17189
 C247 C 0.69370 0.87552 1.17468
 C248 C 0.68792 0.88395 1.18833
 C249 C 0.67393 0.87558 1.19343
 H250 H 0.70449 0.87855 1.16732
 H251 H 0.66608 0.87869 1.20383
 N252 N 0.68370 0.82816 1.13782
 N253 N 0.67218 0.81650 1.13790
 C254 C 0.67473 0.80630 1.12494
 C255 C 0.68843 0.81186 1.11642
 C256 C 0.69386 0.82567 1.12480
 H257 H 0.66712 0.79573 1.12181
 H258 H 0.70433 0.83338 1.12155
 H259 H 0.67293 0.82744 1.16747
 H260 H 0.65973 0.84047 1.15369
 N261 N 0.13766 0.31672 1.17190
 N262 N 0.13781 0.32835 1.18331
 C263 C 0.12488 0.32599 1.19363
 C264 C 0.11631 0.31222 1.18832
 C265 C 0.12467 0.30659 1.17455
 H266 H 0.12183 0.33374 1.20412
 H267 H 0.12146 0.29602 1.16698
 Cu268 Cu 0.15469 0.34556 1.18327
 Cu269 Cu 0.15416 0.31571 1.15431
 Cu270 Cu 0.18458 0.34609 1.15428
 N271 N 0.17193 0.36241 1.18328
 N272 N 0.18356 0.36256 1.17185
 C273 C 0.19370 0.37554 1.17448
 C274 C 0.18807 0.38388 1.18824
 C275 C 0.17429 0.37532 1.19359
 H276 H 0.20427 0.37875 1.16689
 H277 H 0.16654 0.37837 1.20407
 N278 N 0.18350 0.32836 1.13756
 N279 N 0.17192 0.31678 1.13758
 C280 C 0.17444 0.30659 1.12461
 C281 C 0.18820 0.31208 1.11613
 C282 C 0.19369 0.32584 1.12458
 H283 H 0.16682 0.29603 1.12147
 H284 H 0.20426 0.33346 1.12142
 H285 H 0.17286 0.32746 1.16732
 H286 H 0.15952 0.34077 1.15389
 N287 N 0.13767 0.81672 0.67172
 N288 N 0.13788 0.82829 0.68319
 C289 C 0.12493 0.82597 0.69349
 C290 C 0.11629 0.81226 0.68813
 C291 C 0.12461 0.80665 0.67434
 H292 H 0.12192 0.83370 0.70401
 H293 H 0.12134 0.79613 0.66672
 Cu294 Cu 0.15488 0.84537 0.68317
 Cu295 Cu 0.15418 0.81569 0.65413
 Cu296 Cu 0.18463 0.84607 0.65412
 N297 N 0.17200 0.86233 0.68318
 N298 N 0.18360 0.86253 0.67171
 C299 C 0.19368 0.87556 0.67431
 C300 C 0.18805 0.88388 0.68809
 C301 C 0.17432 0.87526 0.69347
 H302 H 0.20421 0.87883 0.66668
 H303 H 0.16658 0.87828 0.70398
 N304 N 0.18355 0.82833 0.63741
 N305 N 0.17196 0.81676 0.63741
 C306 C 0.17447 0.80659 0.62443
 C307 C 0.18824 0.81208 0.61597
 C308 C 0.19374 0.82582 0.62443
 H309 H 0.16684 0.79604 0.62127
 H310 H 0.20431 0.83344 0.62127
 H311 H 0.17295 0.82736 0.66704
 H312 H 0.15956 0.84076 0.65375
 N313 N 0.36237 0.68355 0.67178
 N314 N 0.36220 0.67195 0.68323
 C315 C 0.37513 0.67431 0.69353
 C316 C 0.38374 0.68806 0.68818
 C317 C 0.37538 0.69367 0.67440
 H318 H 0.37815 0.66660 0.70406
 H319 H 0.37859 0.70423 0.66681
 Cu320 Cu 0.34521 0.65481 0.68335
 Cu321 Cu 0.34585 0.68456 0.65423
 Cu322 Cu 0.31548 0.65417 0.65420
 N323 N 0.32808 0.63781 0.68320
 N324 N 0.31649 0.63764 0.67174
 C325 C 0.30638 0.62462 0.67433
 C326 C 0.31198 0.61626 0.68811
 C327 C 0.32572 0.62487 0.69349
 H328 H 0.29582 0.62141 0.66673
 H329 H 0.33342 0.62186 0.70402
 N330 N 0.31652 0.67194 0.63749
 N331 N 0.32810 0.68352 0.63750
 C332 C 0.32558 0.69371 0.62452
 C333 C 0.31183 0.68822 0.61605
 C334 C 0.30634 0.67445 0.62450
 H335 H 0.33321 0.70427 0.62138
 H336 H 0.29580 0.66682 0.62133
 H337 H 0.32712 0.67289 0.66724
 H338 H 0.34054 0.65952 0.65394
 N339 N 0.36251 0.18320 1.17181
 N340 N 0.36236 0.17156 1.18322
 C341 C 0.37530 0.17388 1.19352
 C342 C 0.38389 0.18765 1.18820
 C343 C 0.37553 0.19331 1.17445
 H344 H 0.37831 0.16615 1.20403
 H345 H 0.37873 0.20390 1.16690
 Cu346 Cu 0.34526 0.15457 1.18333
 Cu347 Cu 0.34596 0.18427 1.15427
 Cu348 Cu 0.31552 0.15389 1.15427
 N349 N 0.32824 0.13752 1.18322
 N350 N 0.31660 0.13738 1.17181
 C351 C 0.30648 0.12437 1.17445
 C352 C 0.31213 0.11601 1.18819
 C353 C 0.32591 0.12458 1.19352
 H354 H 0.29588 0.12118 1.16689
 H355 H 0.33365 0.12155 1.20402
 N356 N 0.31656 0.17167 1.13759
 N357 N 0.32815 0.18325 1.13759
 C358 C 0.32563 0.19343 1.12460
 C359 C 0.31186 0.18793 1.11615
 C360 C 0.30637 0.17418 1.12462
 H361 H 0.33327 0.20397 1.12143
 H362 H 0.29582 0.16655 1.12147
 H363 H 0.32714 0.17262 1.16723
 H364 H 0.34053 0.15924 1.15394
 N365 N 0.86255 0.68309 1.17178
 N366 N 0.86253 0.67131 1.18304
 C367 C 0.87542 0.67366 1.19340
 C368 C 0.88386 0.68759 1.18825
 C369 C 0.87545 0.69331 1.17455
 H370 H 0.87850 0.66585 1.20383
 H371 H 0.87852 0.70404 1.16714
 Cu372 Cu 0.84554 0.65423 1.18289
 Cu373 Cu 0.84597 0.68423 1.15425
 Cu374 Cu 0.81552 0.65378 1.15423
 N375 N 0.82846 0.63724 1.18303
 N376 N 0.81668 0.63722 1.17176
 C377 C 0.80646 0.62433 1.17453
 C378 C 0.81219 0.61592 1.18822
 C379 C 0.82611 0.62435 1.19338
 H380 H 0.79573 0.62124 1.16710
 H381 H 0.83392 0.62127 1.20381
 N382 N 0.81654 0.67162 1.13758
 N383 N 0.82812 0.68320 1.13758
 C384 C 0.82558 0.69340 1.12462
 C385 C 0.81181 0.68792 1.11617
 C386 C 0.80634 0.67415 1.12462
 H387 H 0.83322 0.70395 1.12145
 H388 H 0.79579 0.66651 1.12145
 H389 H 0.82724 0.67244 1.16721
 H390 H 0.84048 0.65925 1.15361
 N391 N 0.86226 0.18330 0.67181
 N392 N 0.86210 0.17169 0.68325
 C393 C 0.87500 0.17408 0.69358
 C394 C 0.88357 0.18785 0.68826
 C395 C 0.87524 0.19344 0.67446
 H396 H 0.87802 0.16635 0.70409
 H397 H 0.87846 0.20401 0.66687
 Cu398 Cu 0.84525 0.15445 0.68321
 Cu399 Cu 0.84578 0.18427 0.65421
 Cu400 Cu 0.81538 0.15389 0.65422
 N401 N 0.82802 0.13760 0.68323
 N402 N 0.81639 0.13745 0.67181
 C403 C 0.80626 0.12445 0.67444
 C404 C 0.81189 0.11611 0.68821
 C405 C 0.82566 0.12468 0.69354
 H406 H 0.79570 0.12123 0.66686
 H407 H 0.83342 0.12163 0.70403
 N408 N 0.81646 0.17161 0.63748
 N409 N 0.82806 0.18318 0.63746
 C410 C 0.82555 0.19333 0.62446
 C411 C 0.81179 0.18783 0.61601
 C412 C 0.80628 0.17410 0.62450
 H413 H 0.83318 0.20388 0.62129
 H414 H 0.79571 0.16648 0.62136
 H415 H 0.82707 0.17253 0.66724
 H416 H 0.84042 0.15920 0.65383
 N417 N 0.31632 0.36231 0.67184
 N418 N 0.32805 0.36223 0.68316
 C419 C 0.32576 0.37520 0.69342
 C420 C 0.31191 0.38374 0.68817
 C421 C 0.30617 0.37531 0.67451
 H422 H 0.33357 0.37828 0.70385
 H423 H 0.29550 0.37846 0.66702
 Cu424 Cu 0.34510 0.34516 0.68320
 Cu425 Cu 0.31521 0.34574 0.65434
 Cu426 Cu 0.34569 0.31529 0.65435
 N427 N 0.36218 0.32811 0.68318
 N428 N 0.36226 0.31639 0.67186
 C429 C 0.37526 0.30624 0.67454
 C430 C 0.38368 0.31195 0.68822
 C431 C 0.37514 0.32579 0.69346
 H432 H 0.37842 0.29558 0.66705
 H433 H 0.37821 0.33359 0.70390
 N434 N 0.32785 0.31633 0.63769
 N435 N 0.31624 0.32791 0.63769
 C436 C 0.30606 0.32541 0.62470
 C437 C 0.31159 0.31167 0.61624
 C438 C 0.32536 0.30617 0.62470
 H439 H 0.29551 0.33306 0.62153
 H440 H 0.33304 0.29564 0.62152
 H441 H 0.32694 0.32702 0.66731
 H442 H 0.34024 0.34029 0.65384
 N443 N 0.31666 0.86261 0.17147
 N444 N 0.32825 0.86243 0.18292
 C445 C 0.32590 0.87537 0.19320
 C446 C 0.31216 0.88400 0.18781
 C447 C 0.30655 0.87566 0.17405
 H448 H 0.33361 0.87839 0.20371
 H449 H 0.29600 0.87891 0.16644
 Cu450 Cu 0.34537 0.84543 0.18309
 Cu451 Cu 0.31564 0.84609 0.15395
 Cu452 Cu 0.34603 0.81565 0.15403
 N453 N 0.36236 0.82829 0.18299
 N454 N 0.36253 0.81667 0.17157
 C455 C 0.37556 0.80656 0.17419
 C456 C 0.38391 0.81218 0.18795
 C457 C 0.37530 0.82594 0.19328
 H458 H 0.37880 0.79599 0.16662
 H459 H 0.37833 0.83368 0.20378
 N460 N 0.32827 0.81670 0.13732
 N461 N 0.31669 0.82831 0.13728
 C462 C 0.30652 0.82580 0.12430
 C463 C 0.31201 0.81202 0.11588
 C464 C 0.32576 0.80650 0.12436
 H465 H 0.29597 0.83346 0.12111
 H466 H 0.33340 0.79593 0.12124
 H467 H 0.32731 0.82739 0.16700
 H468 H 0.34072 0.84072 0.15368
 N469 N 0.81658 0.36265 0.17157
 N470 N 0.82817 0.36243 0.18303
 C471 C 0.82584 0.37537 0.19331
 C472 C 0.81212 0.38404 0.18793
 C473 C 0.80650 0.37572 0.17416
 H474 H 0.83358 0.37838 0.20382
 H475 H 0.79596 0.37900 0.16654
 Cu476 Cu 0.84531 0.34546 0.18303
 Cu477 Cu 0.81555 0.34616 0.15401
 Cu478 Cu 0.84598 0.31570 0.15404
 N479 N 0.86227 0.32829 0.18307
 N480 N 0.86247 0.31671 0.17162
 C481 C 0.87552 0.30661 0.17423
 C482 C 0.88384 0.31222 0.18801
 C483 C 0.87520 0.32595 0.19337
 H484 H 0.87880 0.29607 0.16663
 H485 H 0.87821 0.33368 0.20387
 N486 N 0.82821 0.31678 0.13732
 N487 N 0.81662 0.32839 0.13731
 C488 C 0.80643 0.32587 0.12434
 C489 C 0.81192 0.31210 0.11590
 C490 C 0.82569 0.30659 0.12436
 H491 H 0.79586 0.33351 0.12118
 H492 H 0.83332 0.29601 0.12123
 H493 H 0.82724 0.32743 0.16696
 H494 H 0.84063 0.34076 0.15363
 N495 N 0.81671 0.86291 0.67157
 N496 N 0.82858 0.86295 0.68274
 C497 C 0.82628 0.87589 0.69304
 C498 C 0.81228 0.88430 0.68796
 C499 C 0.80646 0.87581 0.67436
 H500 H 0.83417 0.87901 0.70339
 H501 H 0.79566 0.87884 0.66702
 Cu502 Cu 0.84570 0.84595 0.68253
 Cu503 Cu 0.81551 0.84625 0.65410
 Cu504 Cu 0.84601 0.81575 0.65410
 N505 N 0.86267 0.82880 0.68277
 N506 N 0.86263 0.81694 0.67159
 C507 C 0.87552 0.80668 0.67440
 C508 C 0.88398 0.81247 0.68802
 C509 C 0.87559 0.82647 0.69309
 H510 H 0.87855 0.79590 0.66705
 H511 H 0.87872 0.83433 0.70346
 N512 N 0.82812 0.81676 0.63749
 N513 N 0.81650 0.82835 0.63749
 C514 C 0.80631 0.82582 0.62453
 C515 C 0.81182 0.81205 0.61608
 C516 C 0.82560 0.80657 0.62452
 H517 H 0.79575 0.83347 0.62135
 H518 H 0.83328 0.79604 0.62134
 H519 H 0.82738 0.82759 0.66710
 H520 H 0.84050 0.84068 0.65332
 N521 N 0.68341 0.63741 0.67183
 N522 N 0.67155 0.63738 0.68303
 C523 C 0.67388 0.62446 0.69335
 C524 C 0.68788 0.61606 0.68826
 C525 C 0.69366 0.62452 0.67462
 H526 H 0.66601 0.62134 0.70373
 H527 H 0.70445 0.62148 0.66726
 Cu528 Cu 0.65441 0.65437 0.68282
 Cu529 Cu 0.68459 0.65404 0.65433
 Cu530 Cu 0.65410 0.68454 0.65436
 N531 N 0.63742 0.67150 0.68305
 N532 N 0.63746 0.68336 0.67186
 C533 C 0.62457 0.69361 0.67467
 C534 C 0.61609 0.68783 0.68830
 C535 C 0.62449 0.67383 0.69338
 H536 H 0.62154 0.70440 0.66732
 H537 H 0.62136 0.66596 0.70375
 N538 N 0.67199 0.68353 0.63772
 N539 N 0.68359 0.67193 0.63770
 C540 C 0.69377 0.67444 0.62472
 C541 C 0.68827 0.68822 0.61627
 C542 C 0.67451 0.69372 0.62474
 H543 H 0.70431 0.66678 0.62152
 H544 H 0.66685 0.70427 0.62158
 H545 H 0.67275 0.67268 0.66733
 H546 H 0.65962 0.65959 0.65359
 N547 N 0.68365 0.13718 0.17162
 N548 N 0.67202 0.13736 0.18306
 C549 C 0.67434 0.12442 0.19335
 C550 C 0.68810 0.11579 0.18799
 C551 C 0.69375 0.12414 0.17423
 H552 H 0.66661 0.12140 0.20386
 H553 H 0.70432 0.12090 0.16665
 Cu554 Cu 0.65495 0.15441 0.18308
 Cu555 Cu 0.68471 0.15372 0.15407
 Cu556 Cu 0.65423 0.18417 0.15410
 N557 N 0.63790 0.17149 0.18311
 N558 N 0.63771 0.18311 0.17168
 C559 C 0.62467 0.19321 0.17433
 C560 C 0.61634 0.18758 0.18810
 C561 C 0.62497 0.17383 0.19344
 H562 H 0.62142 0.20378 0.16675
 H563 H 0.62197 0.16610 0.20395
 N564 N 0.67203 0.18311 0.13739
 N565 N 0.68364 0.17153 0.13738
 C566 C 0.69384 0.17407 0.12441
 C567 C 0.68833 0.18784 0.11597
 C568 C 0.67454 0.19331 0.12443
 H569 H 0.70442 0.16645 0.12125
 H570 H 0.66689 0.20387 0.12128
 H571 H 0.67303 0.17248 0.16700
 H572 H 0.65967 0.15915 0.15368
 N573 N 0.18339 0.63754 0.17158
 N574 N 0.17175 0.63771 0.18300
 C575 C 0.17409 0.62477 0.19330
 C576 C 0.18786 0.61615 0.18795
 C577 C 0.19350 0.62450 0.17420
 H578 H 0.16633 0.62173 0.20378
 H579 H 0.20408 0.62127 0.16661
 Cu580 Cu 0.15454 0.65463 0.18300
 Cu581 Cu 0.18442 0.65404 0.15401
 Cu582 Cu 0.15400 0.68449 0.15403
 N583 N 0.13766 0.67188 0.18304
 N584 N 0.13749 0.68349 0.17161
 C585 C 0.12448 0.69364 0.17426
 C586 C 0.11614 0.68803 0.18804
 C587 C 0.12474 0.67425 0.19337
 H588 H 0.12126 0.70421 0.16667
 H589 H 0.12170 0.66652 0.20386
 N590 N 0.17176 0.68340 0.13730
 N591 N 0.18336 0.67181 0.13730
 C592 C 0.19356 0.67433 0.12433
 C593 C 0.18807 0.68809 0.11587
 C594 C 0.17428 0.69359 0.12432
 H595 H 0.20415 0.66670 0.12119
 H596 H 0.16665 0.70416 0.12117
 H597 H 0.17268 0.67273 0.16702
 H598 H 0.15934 0.65944 0.15361
 N599 N 0.18317 0.13703 0.67161
 N600 N 0.17163 0.13727 0.68313
 C601 C 0.17401 0.12434 0.69344
 C602 C 0.18771 0.11565 0.68802
 C603 C 0.19326 0.12396 0.67419
 H604 H 0.16634 0.12140 0.70402
 H605 H 0.20380 0.12070 0.66656
 Cu606 Cu 0.15454 0.15436 0.68333
 Cu607 Cu 0.18418 0.15358 0.65408
 Cu608 Cu 0.15394 0.18421 0.65430
 N609 N 0.13759 0.17156 0.68327
 N610 N 0.13746 0.18322 0.67188
 C611 C 0.12444 0.19337 0.67453
 C612 C 0.11605 0.18771 0.68826
 C613 C 0.12463 0.17391 0.69356
 H614 H 0.12124 0.20396 0.66697
 H615 H 0.12156 0.16613 0.70402
 N616 N 0.17167 0.18311 0.63753
 N617 N 0.18316 0.17140 0.63741
 C618 C 0.19331 0.17389 0.62439
 C619 C 0.18789 0.18776 0.61604
 C620 C 0.17422 0.19334 0.62460
 H621 H 0.20379 0.16618 0.62114
 H622 H 0.16667 0.20400 0.62155
 H623 H 0.17265 0.17238 0.66717
 H624 H 0.15912 0.15916 0.65389
 N625 N 0.31625 0.63770 0.32787
 N626 N 0.32772 0.63802 0.31628
 C627 C 0.32544 0.62507 0.30601
 C628 C 0.31184 0.61630 0.31151
 C629 C 0.30627 0.62456 0.32535
 H630 H 0.33312 0.62212 0.29544
 H631 H 0.29584 0.62119 0.33308
 Cu632 Cu 0.34471 0.65512 0.31627
 Cu633 Cu 0.31523 0.65413 0.34552
 Cu634 Cu 0.34570 0.68453 0.34551
 N635 N 0.36184 0.67209 0.31627
 N636 N 0.36217 0.68354 0.32786
 C637 C 0.37531 0.69351 0.32534
 C638 C 0.38358 0.68796 0.31149
 C639 C 0.37480 0.67439 0.30599
 H640 H 0.37869 0.70391 0.33307
 H641 H 0.37775 0.66673 0.29541
 N642 N 0.32795 0.68342 0.36228
 N643 N 0.31635 0.67185 0.36227
 C644 C 0.30617 0.67436 0.37527
 C645 C 0.31168 0.68810 0.38373
 C646 C 0.32545 0.69358 0.37527
 H647 H 0.29559 0.66675 0.37842
 H648 H 0.33308 0.70413 0.37842
 H649 H 0.32680 0.67299 0.33275
 H650 H 0.34031 0.65948 0.34577
 N651 N 0.31645 0.13723 0.82836
 N652 N 0.32802 0.13746 0.81687
 C653 C 0.32569 0.12454 0.80657
 C654 C 0.31199 0.11588 0.81197
 C655 C 0.30638 0.12418 0.82577
 H656 H 0.33340 0.12155 0.79603
 H657 H 0.29583 0.12092 0.83338
 Cu658 Cu 0.34512 0.15445 0.81683
 Cu659 Cu 0.31537 0.15373 0.84592
 Cu660 Cu 0.34560 0.18432 0.84573
 N661 N 0.36203 0.17164 0.81677
 N662 N 0.36213 0.18331 0.82815
 C663 C 0.37515 0.19342 0.82552
 C664 C 0.38359 0.18773 0.81182
 C665 C 0.37502 0.17395 0.80652
 H666 H 0.37832 0.20402 0.83307
 H667 H 0.37814 0.16614 0.79609
 N668 N 0.32785 0.18322 0.86247
 N669 N 0.31637 0.17153 0.86258
 C670 C 0.30621 0.17402 0.87559
 C671 C 0.31160 0.18786 0.88396
 C672 C 0.32528 0.19344 0.87541
 H673 H 0.29573 0.16630 0.87883
 H674 H 0.33282 0.20408 0.87847
 H675 H 0.32691 0.17245 0.83288
 H676 H 0.34040 0.15923 0.84624
 N677 N 0.81663 0.63755 0.82840
 N678 N 0.82825 0.63771 0.81696
 C679 C 0.82589 0.62479 0.80665
 C680 C 0.81212 0.61620 0.81200
 C681 C 0.80650 0.62455 0.82577
 H682 H 0.83364 0.62176 0.79615
 H683 H 0.79593 0.62134 0.83337
 Cu684 Cu 0.84548 0.65461 0.81696
 Cu685 Cu 0.81562 0.65404 0.84598
 Cu686 Cu 0.84598 0.68448 0.84593
 N687 N 0.86234 0.67186 0.81692
 N688 N 0.86247 0.68349 0.82833
 C689 C 0.87545 0.69365 0.82567
 C690 C 0.88382 0.68804 0.81191
 C691 C 0.87526 0.67425 0.80659
 H692 H 0.87864 0.70423 0.83324
 H693 H 0.87833 0.66651 0.79611
 N694 N 0.82824 0.68339 0.86268
 N695 N 0.81668 0.67179 0.86270
 C696 C 0.80650 0.67429 0.87570
 C697 C 0.81198 0.68805 0.88414
 C698 C 0.82572 0.69356 0.87565
 H699 H 0.79595 0.66665 0.87888
 H700 H 0.83333 0.70414 0.87878
 H701 H 0.82733 0.67274 0.83294
 H702 H 0.84069 0.65944 0.84635
 N703 N 0.81665 0.13727 0.32823
 N704 N 0.82826 0.13747 0.31678
 C705 C 0.82596 0.12453 0.30650
 C706 C 0.81223 0.11589 0.31187
 C707 C 0.80658 0.12423 0.32563
 H708 H 0.83371 0.12152 0.29599
 H709 H 0.79601 0.12099 0.33322
 Cu710 Cu 0.84534 0.15448 0.31667
 Cu711 Cu 0.81559 0.15377 0.34577
 Cu712 Cu 0.84597 0.18418 0.34574
 N713 N 0.86232 0.17160 0.31674
 N714 N 0.86250 0.18319 0.32819
 C715 C 0.87552 0.19329 0.32556
 C716 C 0.88387 0.18768 0.31178
 C717 C 0.87525 0.17395 0.30642
 H718 H 0.87873 0.20386 0.33314
 H719 H 0.87827 0.16623 0.29590
 N720 N 0.82819 0.18311 0.36246
 N721 N 0.81661 0.17153 0.36246
 C722 C 0.80641 0.17404 0.37543
 C723 C 0.81189 0.18779 0.38389
 C724 C 0.82566 0.19329 0.37544
 H725 H 0.79585 0.16641 0.37858
 H726 H 0.83328 0.20384 0.37859
 H727 H 0.82722 0.17249 0.33277
 H728 H 0.84064 0.15912 0.34606
 N729 N 0.68353 0.36241 0.32815
 N730 N 0.67194 0.36223 0.31669
 C731 C 0.67428 0.37517 0.30640
 C732 C 0.68802 0.38377 0.31177
 C733 C 0.69364 0.37543 0.32554
 H734 H 0.66655 0.37820 0.29589
 H735 H 0.70420 0.37865 0.33313
 Cu736 Cu 0.65478 0.34529 0.31670
 Cu737 Cu 0.68457 0.34593 0.34573
 Cu738 Cu 0.65417 0.31553 0.34570
 N739 N 0.63784 0.32814 0.31667
 N740 N 0.63766 0.31654 0.32812
 C741 C 0.62465 0.30643 0.32550
 C742 C 0.61630 0.31205 0.31172
 C743 C 0.62490 0.32580 0.30637
 H744 H 0.62143 0.29586 0.33308
 H745 H 0.62188 0.33352 0.29586
 N746 N 0.67192 0.31659 0.36244
 N747 N 0.68350 0.32818 0.36244
 C748 C 0.69370 0.32565 0.37541
 C749 C 0.68822 0.31189 0.38386
 C750 C 0.67446 0.30640 0.37540
 H751 H 0.70427 0.33327 0.37856
 H752 H 0.66684 0.29582 0.37854
 H753 H 0.67292 0.32725 0.33275
 H754 H 0.65953 0.34059 0.34609
 N755 N 0.68354 0.86259 0.82838
 N756 N 0.67191 0.86244 0.81696
 C757 C 0.67426 0.87535 0.80664
 C758 C 0.68804 0.88392 0.81196
 C759 C 0.69367 0.87559 0.82573
 H760 H 0.66651 0.87838 0.79614
 H761 H 0.70426 0.87879 0.83329
 Cu762 Cu 0.65478 0.84546 0.81689
 Cu763 Cu 0.68457 0.84611 0.84594
 Cu764 Cu 0.65412 0.81574 0.84597
 N765 N 0.63775 0.82838 0.81700
 N766 N 0.63758 0.81677 0.82843
 C767 C 0.62456 0.80666 0.82581
 C768 C 0.61619 0.81230 0.81204
 C769 C 0.62480 0.82605 0.80671
 H770 H 0.62135 0.79609 0.83338
 H771 H 0.62178 0.83379 0.79620
 N772 N 0.67191 0.81679 0.86267
 N773 N 0.68350 0.82836 0.86266
 C774 C 0.69369 0.82585 0.87564
 C775 C 0.68819 0.81211 0.88412
 C776 C 0.67443 0.80662 0.87566
 H777 H 0.70425 0.83348 0.87879
 H778 H 0.66679 0.79607 0.87884
 H779 H 0.67290 0.82741 0.83297
 H780 H 0.65952 0.84079 0.84628
 N781 N 0.18325 0.36244 0.82841
 N782 N 0.17166 0.36226 0.81695
 C783 C 0.17398 0.37521 0.80668
 C784 C 0.18771 0.38385 0.81205
 C785 C 0.19333 0.37549 0.82582
 H786 H 0.16628 0.37821 0.79614
 H787 H 0.20390 0.37870 0.83341
 Cu788 Cu 0.15467 0.34512 0.81670
 Cu789 Cu 0.18431 0.34588 0.84592
 Cu790 Cu 0.15391 0.31549 0.84592
 N791 N 0.13752 0.32815 0.81697
 N792 N 0.13735 0.31655 0.82842
 C793 C 0.12429 0.30648 0.82583
 C794 C 0.11592 0.31211 0.81208
 C795 C 0.12455 0.32584 0.80671
 H796 H 0.12108 0.29590 0.83341
 H797 H 0.12155 0.33355 0.79618
 N798 N 0.17172 0.31650 0.86259
 N799 N 0.18329 0.32809 0.86260
 C800 C 0.19348 0.32557 0.87557
 C801 C 0.18801 0.31180 0.88402
 C802 C 0.17425 0.30630 0.87556
 H803 H 0.20403 0.33321 0.87874
 H804 H 0.16662 0.29574 0.87872
 H805 H 0.17270 0.32710 0.83296
 H806 H 0.15923 0.34053 0.84614
 N807 N 0.18348 0.86250 0.32792
 N808 N 0.17210 0.86208 0.31626
 C809 C 0.17443 0.87499 0.30593
 C810 C 0.18795 0.88382 0.31149
 C811 C 0.19344 0.87565 0.32542
 H812 H 0.16682 0.87787 0.29529
 H813 H 0.20378 0.87909 0.33320
 Cu814 Cu 0.15516 0.84495 0.31626
 Cu815 Cu 0.18444 0.84613 0.34564
 Cu816 Cu 0.15397 0.81572 0.34566
 N817 N 0.13798 0.82804 0.31629
 N818 N 0.13756 0.81667 0.32796
 C819 C 0.12439 0.80673 0.32547
 C820 C 0.11620 0.81222 0.31154
 C821 C 0.12505 0.82572 0.30597
 H822 H 0.12094 0.79639 0.33326
 H823 H 0.12218 0.83332 0.29532
 N824 N 0.17168 0.81688 0.36247
 N825 N 0.18327 0.82846 0.36246
 C826 C 0.19346 0.82595 0.37544
 C827 C 0.18796 0.81221 0.38391
 C828 C 0.17420 0.80671 0.37546
 H829 H 0.20404 0.83355 0.37856
 H830 H 0.16659 0.79613 0.37860
 H831 H 0.17298 0.82720 0.33295
 H832 H 0.15939 0.84078 0.34580
 O833 O 0.24829 1.01627 0.27090
 O834 O 0.27108 0.98371 0.24843
 O835 O 0.27111 1.01619 0.24843
 O836 O 0.24826 0.98375 0.27094
 O837 O 0.22897 0.98380 0.25148
 O838 O 0.25181 1.01623 0.22898
 O839 O 0.25179 0.98375 0.22898
 O840 O 0.22900 1.01631 0.25145
 Cu841 Cu 0.26163 0.99997 0.26164
 Cu842 Cu 0.23844 1.00002 0.23827
 C843 C 0.23496 1.02199 0.26481
 C844 C 0.26515 0.97806 0.23505
 C845 C 0.26517 1.02188 0.23505
 C846 C 0.23490 0.97810 0.26486
 O847 O 0.25166 0.51630 0.72907
 O848 O 0.22888 0.48370 0.75154
 O849 O 0.22883 0.51623 0.75157
 O850 O 0.25169 0.48377 0.72902
 O851 O 0.27100 0.48374 0.74845
 O852 O 0.24814 0.51621 0.77100
 O853 O 0.24819 0.48368 0.77097
 O854 O 0.27096 0.51627 0.74850
 Cu855 Cu 0.23832 0.50000 0.73834
 Cu856 Cu 0.26152 0.49997 0.76169
 C857 C 0.26500 0.52198 0.73514
 C858 C 0.23485 0.47799 0.76490
 C859 C 0.23478 0.52190 0.76494
 C860 C 0.26505 0.47807 0.73508
 O861 O 0.75196 -0.01652 0.27116
 O862 O 0.72920 0.01606 0.24864
 O863 O 0.72918 -0.01642 0.24866
 O864 O 0.75201 0.01601 0.27116
 O865 O 0.77132 0.01597 0.25172
 O866 O 0.74850 -0.01647 0.22922
 O867 O 0.74852 0.01601 0.22921
 O868 O 0.77127 -0.01656 0.25172
 Cu869 Cu 0.73864 -0.00021 0.26187
 Cu870 Cu 0.76186 -0.00026 0.23851
 C871 C 0.76529 -0.02226 0.26507
 C872 C 0.73516 0.02171 0.23526
 C873 C 0.73514 -0.02212 0.23529
 C874 C 0.76537 0.02167 0.26509
 O875 O 0.74841 0.48360 0.72923
 O876 O 0.77120 0.51615 0.75172
 O877 O 0.77123 0.48361 0.75173
 O878 O 0.74840 0.51615 0.72921
 O879 O 0.72909 0.51615 0.74866
 O880 O 0.75191 0.48363 0.77117
 O881 O 0.75189 0.51616 0.77116
 O882 O 0.72910 0.48361 0.74867
 Cu883 Cu 0.76175 0.49988 0.73852
 Cu884 Cu 0.73855 0.49989 0.76187
 C885 C 0.73506 0.47791 0.73530
 C886 C 0.76523 0.52186 0.76508
 C887 C 0.76527 0.47792 0.76510
 C888 C 0.73504 0.52185 0.73529
 O889 O 0.24820 0.48379 0.22901
 O890 O 0.27102 0.51623 0.25155
 O891 O 0.27100 0.48371 0.25150
 O892 O 0.24821 0.51628 0.22903
 O893 O 0.22890 0.51629 0.24848
 O894 O 0.25169 0.48371 0.27095
 O895 O 0.25170 0.51624 0.27099
 O896 O 0.22889 0.48380 0.24846
 Cu897 Cu 0.26156 0.50001 0.23832
 Cu898 Cu 0.23835 0.50001 0.26168
 C899 C 0.23484 0.47813 0.23508
 C900 C 0.26506 0.52191 0.26492
 C901 C 0.26503 0.47800 0.26486
 C902 C 0.23484 0.52197 0.23510
 O903 O 0.74808 1.01661 0.77115
 O904 O 0.77082 0.98394 0.74871
 O905 O 0.77088 1.01641 0.74863
 O906 O 0.74803 0.98404 0.77124
 O907 O 0.72871 0.98405 0.75182
 O908 O 0.75156 1.01643 0.72921
 O909 O 0.75150 0.98394 0.72929
 O910 O 0.72876 1.01662 0.75174
 Cu911 Cu 0.76138 1.00025 0.76190
 Cu912 Cu 0.73817 1.00026 0.73857
 C913 C 0.73475 1.02235 0.76507
 C914 C 0.76486 0.97824 0.73535
 C915 C 0.76494 1.02206 0.73524
 C916 C 0.73468 0.97835 0.76517
 O917 O 0.74821 0.51626 0.27104
 O918 O 0.77101 0.48373 0.24853
 O919 O 0.77098 0.51621 0.24854
 O920 O 0.74820 0.48373 0.27104
 O921 O 0.72889 0.48376 0.25161
 O922 O 0.75167 0.51624 0.22911
 O923 O 0.75170 0.48376 0.22910
 O924 O 0.72890 0.51628 0.25161
 Cu925 Cu 0.76154 0.49997 0.26176
 Cu926 Cu 0.73833 0.50001 0.23840
 C927 C 0.73487 0.52198 0.26496
 C928 C 0.76506 0.47808 0.23514
 C929 C 0.76502 0.52191 0.23517
 C930 C 0.73485 0.47806 0.26498
 O931 O 0.22929 0.01590 0.74873
 O932 O 0.25213 -0.01681 0.77109
 O933 O 0.25212 0.01576 0.77120
 O934 O 0.22926 -0.01660 0.74862
 O935 O 0.24854 -0.01656 0.72915
 O936 O 0.27140 0.01581 0.75173
 O937 O 0.27141 -0.01677 0.75162
 O938 O 0.24857 0.01594 0.72925
 Cu939 Cu 0.23877 -0.00045 0.76188
 Cu940 Cu 0.26193 -0.00040 0.73849
 C941 C 0.23522 0.02162 0.73535
 C942 C 0.26546 -0.02253 0.76497
 C943 C 0.26544 0.02148 0.76511
 C944 C 0.23518 -0.02222 0.73521
 O945 O 0.24835 0.27090 0.98386
 O946 O 0.27099 0.24816 1.01632
 O947 O 0.27100 0.24816 0.98387
 O948 O 0.24840 0.27094 1.01632
 O949 O 0.22893 0.25163 1.01636
 O950 O 0.25153 0.22885 0.98391
 O951 O 0.25152 0.22886 1.01635
 O952 O 0.22888 0.25160 0.98391
 Cu953 Cu 0.26164 0.26149 1.00009
 Cu954 Cu 0.23825 0.23829 1.00014
 C955 C 0.23494 0.26493 0.97821
 C956 C 0.26492 0.23482 1.02202
 C957 C 0.26493 0.23481 0.97822
 C958 C 0.23501 0.26497 1.02202
 O959 O 0.24843 0.77117 0.48360
 O960 O 0.27108 0.74847 0.51608
 O961 O 0.27107 0.74844 0.48362
 O962 O 0.24845 0.77122 0.51605
 O963 O 0.22900 0.75190 0.51609
 O964 O 0.25163 0.72912 0.48367
 O965 O 0.25164 0.72915 0.51612
 O966 O 0.22898 0.75185 0.48365
 Cu967 Cu 0.26172 0.76177 0.49983
 Cu968 Cu 0.23835 0.73856 0.49989
 C969 C 0.23503 0.76519 0.47795
 C970 C 0.26503 0.73514 0.52179
 C971 C 0.26501 0.73509 0.47797
 C972 C 0.23506 0.76525 0.52174
 O973 O 0.27133 0.75158 -0.01636
 O974 O 0.24859 0.72902 0.01615
 O975 O 0.24859 0.72898 -0.01629
 O976 O 0.27129 0.75165 0.01611
 O977 O 0.25190 0.77108 0.01606
 O978 O 0.22920 0.74841 -0.01633
 O979 O 0.22920 0.74845 0.01611
 O980 O 0.25194 0.77101 -0.01640
 Cu981 Cu 0.26190 0.73835 -0.00009
 Cu982 Cu 0.23861 0.76170 -0.00015
 C983 C 0.26532 0.76495 -0.02208
 C984 C 0.23521 0.73508 0.02182
 C985 C 0.23521 0.73502 -0.02198
 C986 C 0.26526 0.76503 0.02177
 O987 O 0.27097 0.25152 0.48386
 O988 O 0.24830 0.22887 0.51634
 O989 O 0.24828 0.22888 0.48389
 O990 O 0.27097 0.25154 0.51630
 O991 O 0.25156 0.27094 0.51630
 O992 O 0.22887 0.24827 0.48389
 O993 O 0.22888 0.24827 0.51634
 O994 O 0.25155 0.27091 0.48386
 Cu995 Cu 0.26159 0.23825 0.50010
 Cu996 Cu 0.23826 0.26155 0.50010
 C997 C 0.26493 0.26489 0.47817
 C998 C 0.23492 0.23490 0.52203
 C999 C 0.23490 0.23490 0.47821
 C1000 C 0.26494 0.26492 0.52197
 O1001 O 0.74845 0.77110 0.98394
 O1002 O 0.77103 0.74833 1.01641
 O1003 O 0.77110 0.74836 0.98396
 O1004 O 0.74843 0.77110 1.01638
 O1005 O 0.72897 0.75179 1.01637
 O1006 O 0.75164 0.72905 0.98394
 O1007 O 0.75157 0.72902 1.01639
 O1008 O 0.72899 0.75179 0.98393
 Cu1009 Cu 0.76172 0.76167 1.00018
 Cu1010 Cu 0.73833 0.73846 1.00015
 C1011 C 0.73506 0.76514 0.97826
 C1012 C 0.76495 0.73499 1.02208
 C1013 C 0.76504 0.73502 0.97827
 C1014 C 0.73503 0.76513 1.02205
 O1015 O 0.74838 0.27082 0.48372
 O1016 O 0.77097 0.24804 0.51617
 O1017 O 0.77102 0.24807 0.48373
 O1018 O 0.74835 0.27079 0.51618
 O1019 O 0.72889 0.25148 0.51615
 O1020 O 0.75156 0.22876 0.48370
 O1021 O 0.75152 0.22873 0.51615
 O1022 O 0.72892 0.25151 0.48370
 Cu1023 Cu 0.76164 0.26138 0.49995
 Cu1024 Cu 0.73826 0.23817 0.49992
 C1025 C 0.73499 0.26485 0.47803
 C1026 C 0.76491 0.23470 0.52184
 C1027 C 0.76497 0.23473 0.47804
 C1028 C 0.73495 0.26482 0.52185
 O1029 O 0.77101 0.25185 -0.01632
 O1030 O 0.74844 0.22908 0.01614
 O1031 O 0.74840 0.22913 -0.01632
 O1032 O 0.77105 0.25180 0.01613
 O1033 O 0.75158 0.27114 0.01618
 O1034 O 0.72892 0.24846 -0.01627
 O1035 O 0.72897 0.24842 0.01620
 O1036 O 0.75154 0.27119 -0.01627
 Cu1037 Cu 0.76169 0.23852 -0.00010
 Cu1038 Cu 0.73829 0.26175 -0.00003
 C1039 C 0.76493 0.26522 -0.02198
 C1040 C 0.73505 0.23506 0.02186
 C1041 C 0.73499 0.23512 -0.02198
 C1042 C 0.76499 0.26514 0.02184
 O1043 O 0.72890 0.74850 0.48388
 O1044 O 0.75159 0.77118 0.51628
 O1045 O 0.75153 0.77119 0.48383
 O1046 O 0.72894 0.74850 0.51634
 O1047 O 0.74838 0.72914 0.51631
 O1048 O 0.77098 0.75183 0.48380
 O1049 O 0.77104 0.75182 0.51625
 O1050 O 0.74834 0.72913 0.48386
 Cu1051 Cu 0.73828 0.76180 0.50009
 Cu1052 Cu 0.76165 0.73853 0.50005
 C1053 C 0.73494 0.73514 0.47820
 C1054 C 0.76499 0.76518 0.52194
 C1055 C 0.76491 0.76519 0.47812
 C1056 C 0.73500 0.73514 0.52201
 O1057 O 1.01625 0.27117 0.24859
 O1058 O 0.98367 0.24832 0.27096
 O1059 O 1.01622 0.24832 0.27103
 O1060 O 0.98372 0.27117 0.24851
 O1061 O 0.98379 0.25194 0.22902
 O1062 O 1.01629 0.22909 0.25154
 O1063 O 0.98375 0.22909 0.25147
 O1064 O 1.01633 0.25194 0.22910
 Cu1065 Cu 0.99996 0.26168 0.26174
 Cu1066 Cu 1.00004 0.23858 0.23832
 C1067 C 1.02199 0.26527 0.23521
 C1068 C 0.97801 0.23499 0.26484
 C1069 C 1.02194 0.23500 0.26493
 C1070 C 0.97807 0.26527 0.23511
 O1071 O 0.48362 0.24809 0.77105
 O1072 O 0.51621 0.27088 0.74858
 O1073 O 0.48367 0.27090 0.74855
 O1074 O 0.51618 0.24808 0.77109
 O1075 O 0.51622 0.22880 0.75164
 O1076 O 0.48370 0.25162 0.72910
 O1077 O 0.51625 0.25160 0.72913
 O1078 O 0.48366 0.22882 0.75160
 Cu1079 Cu 0.49992 0.26143 0.76178
 Cu1080 Cu 0.49996 0.23827 0.73841
 C1081 C 0.47794 0.23476 0.76496
 C1082 C 0.52193 0.26494 0.73521
 C1083 C 0.47800 0.26496 0.73517
 C1084 C 0.52190 0.23474 0.76502
 O1085 O -0.01650 0.27104 0.75155
 O1086 O 0.01603 0.24812 0.72911
 O1087 O -0.01652 0.24816 0.72915
 O1088 O 0.01607 0.27096 0.75156
 O1089 O 0.01604 0.25174 0.77107
 O1090 O -0.01653 0.22893 0.74866
 O1091 O 0.01602 0.22890 0.74862
 O1092 O -0.01652 0.25182 0.77106
 Cu1093 Cu -0.00023 0.26151 0.73838
 Cu1094 Cu -0.00025 0.23841 0.76182
 C1095 C -0.02221 0.26515 0.76494
 C1096 C 0.02172 0.23479 0.73523
 C1097 C -0.02222 0.23484 0.73527
 C1098 C 0.02176 0.26505 0.76495
 O1099 O 0.48381 0.27079 0.25151
 O1100 O 0.51634 0.24794 0.22902
 O1101 O 0.48380 0.24794 0.22909
 O1102 O 0.51636 0.27079 0.25146
 O1103 O 0.51642 0.25155 0.27096
 O1104 O 0.48385 0.22870 0.24859
 O1105 O 0.51639 0.22870 0.24852
 O1106 O 0.48386 0.25156 0.27101
 Cu1107 Cu 0.50008 0.26130 0.23831
 Cu1108 Cu 0.50013 0.23819 0.26174
 C1109 C 0.47814 0.26487 0.26491
 C1110 C 0.52205 0.23461 0.23512
 C1111 C 0.47812 0.23461 0.23521
 C1112 C 0.52209 0.26488 0.26484
 O1113 O 1.01633 0.77123 0.74855
 O1114 O 0.98375 0.74843 0.77100
 O1115 O 1.01630 0.74840 0.77102
 O1116 O 0.98379 0.77122 0.74850
 O1117 O 0.98383 0.75196 0.72904
 O1118 O 1.01634 0.72914 0.75156
 O1119 O 0.98380 0.72917 0.75154
 O1120 O 1.01637 0.75197 0.72910
 Cu1121 Cu 1.00004 0.76177 0.76173
 Cu1122 Cu 1.00009 0.73862 0.73835
 C1123 C 1.02205 0.76530 0.73518
 C1124 C 0.97808 0.73510 0.76491
 C1125 C 1.02201 0.73507 0.76494
 C1126 C 0.97812 0.76529 0.73512
 O1127 O 0.51624 0.77117 0.24862
 O1128 O 0.48367 0.74835 0.27104
 O1129 O 0.51621 0.74836 0.27108
 O1130 O 0.48371 0.77117 0.24855
 O1131 O 0.48378 0.75192 0.22908
 O1132 O 0.51628 0.72911 0.25161
 O1133 O 0.48374 0.72910 0.25157
 O1134 O 0.51631 0.75191 0.22916
 Cu1135 Cu 0.49995 0.76171 0.26179
 Cu1136 Cu 0.50003 0.73857 0.23839
 C1137 C 0.52198 0.76524 0.23526
 C1138 C 0.47801 0.73501 0.26494
 C1139 C 0.52194 0.73504 0.26500
 C1140 C 0.47807 0.76525 0.23515
 O1141 O -0.01643 0.77111 0.25151
 O1142 O 0.01611 0.74827 0.22903
 O1143 O -0.01643 0.74826 0.22911
 O1144 O 0.01612 0.77111 0.25149
 O1145 O 0.01617 0.75188 0.27100
 O1146 O -0.01638 0.72902 0.24861
 O1147 O 0.01617 0.72904 0.24853
 O1148 O -0.01639 0.75187 0.27102
 Cu1149 Cu -0.00016 0.76162 0.23832
 Cu1150 Cu -0.00010 0.73851 0.26175
 C1151 C -0.02212 0.76519 0.26490
 C1152 C 0.02183 0.73495 0.23513
 C1153 C -0.02211 0.73494 0.23523
 C1154 C 0.02183 0.76520 0.26488
 O1155 O 0.48359 0.77128 0.75175
 O1156 O 0.51616 0.74846 0.72924
 O1157 O 0.48360 0.74847 0.72925
 O1158 O 0.51616 0.77126 0.75172
 O1159 O 0.51618 0.75199 0.77118
 O1160 O 0.48361 0.72920 0.74871
 O1161 O 0.51617 0.72919 0.74870
 O1162 O 0.48361 0.75201 0.77121
 Cu1163 Cu 0.49987 0.76181 0.73853
 Cu1164 Cu 0.49989 0.73866 0.76191
 C1165 C 0.47790 0.76534 0.76513
 C1166 C 0.52187 0.73512 0.73533
 C1167 C 0.47791 0.73513 0.73533
 C1168 C 0.52188 0.76531 0.76509
 C1169 C 0.39866 0.30503 0.30483
 C1170 C 0.41115 0.29926 0.29898
 C1171 C 0.42577 0.29244 0.29216
 C1172 C 0.43817 0.28652 0.28627
 C1173 C 0.45250 0.27937 0.27920
 C1174 C 0.46445 0.27297 0.27288
 C1175 C 0.39825 0.80545 0.80488
 C1176 C 0.41080 0.79970 0.79910
 C1177 C 0.42547 0.79291 0.79234
 C1178 C 0.43790 0.78699 0.78650
 C1179 C 0.45225 0.77984 0.77944
 C1180 C 0.46421 0.77344 0.77312
 C1181 C -0.10172 0.30557 0.80457
 C1182 C -0.08921 0.29977 0.79877
 C1183 C -0.07458 0.29292 0.79201
 C1184 C -0.06217 0.28695 0.78618
 C1185 C -0.04784 0.27973 0.77917
 C1186 C -0.03589 0.27328 0.77289
 C1187 C -0.10151 0.80564 0.30471
 C1188 C -0.08908 0.79979 0.29881
 C1189 C -0.07450 0.79289 0.29199
 C1190 C -0.06212 0.78691 0.28613
 C1191 C -0.04778 0.77970 0.27911
 C1192 C -0.03583 0.77328 0.27284
 C1193 C 0.60137 0.69484 0.30485
 C1194 C 0.58891 0.70063 0.29897
 C1195 C 0.57431 0.70746 0.29215
 C1196 C 0.56191 0.71339 0.28629
 C1197 C 0.54758 0.72056 0.27925
 C1198 C 0.53563 0.72696 0.27296
 C1199 C 0.60142 0.19456 0.80482
 C1200 C 0.58890 0.20032 0.79902
 C1201 C 0.57427 0.20715 0.79224
 C1202 C 0.56186 0.21308 0.78638
 C1203 C 0.54753 0.22025 0.77932
 C1204 C 0.53558 0.22665 0.77300
 C1205 C 1.10141 0.69490 0.80489
 C1206 C 1.08891 0.70065 0.79905
 C1207 C 1.07429 0.70745 0.79224
 C1208 C 1.06190 0.71337 0.78635
 C1209 C 1.04759 0.72054 0.77926
 C1210 C 1.03567 0.72696 0.77294
 C1211 C 1.10146 0.19492 0.30474
 C1212 C 1.08895 0.20066 0.29892
 C1213 C 1.07431 0.20744 0.29214
 C1214 C 1.06189 0.21335 0.28628
 C1215 C 1.04756 0.22050 0.27922
 C1216 C 1.03561 0.22690 0.27291
 C1217 C 0.60133 0.30517 0.69527
 C1218 C 0.58883 0.29942 0.70110
 C1219 C 0.57422 0.29259 0.70791
 C1220 C 0.56183 0.28665 0.71380
 C1221 C 0.54752 0.27946 0.72088
 C1222 C 0.53560 0.27304 0.72721
 C1223 C 0.60143 0.80546 0.19552
 C1224 C 0.58896 0.79969 0.20138
 C1225 C 0.57435 0.79287 0.20818
 C1226 C 0.56195 0.78693 0.21403
 C1227 C 0.54762 0.77975 0.22105
 C1228 C 0.53567 0.77334 0.22732
 C1229 C 1.10144 0.30540 0.19536
 C1230 C 1.08893 0.29967 0.20120
 C1231 C 1.07431 0.29289 0.20801
 C1232 C 1.06191 0.28697 0.21389
 C1233 C 1.04759 0.27981 0.22096
 C1234 C 1.03566 0.27339 0.22726
 C1235 C 1.10142 0.80547 0.69518
 C1236 C 1.08892 0.79973 0.70105
 C1237 C 1.07432 0.79293 0.70789
 C1238 C 1.06194 0.78700 0.71380
 C1239 C 1.04764 0.77983 0.72089
 C1240 C 1.03572 0.77341 0.72721
 C1241 C 0.39858 0.69492 0.69524
 C1242 C 0.41106 0.70070 0.70110
 C1243 C 0.42566 0.70751 0.70796
 C1244 C 0.43803 0.71345 0.71387
 C1245 C 0.45233 0.72062 0.72099
 C1246 C 0.46425 0.72703 0.72733
 C1247 C 0.39873 0.19449 0.19529
 C1248 C 0.41120 0.20024 0.20116
 C1249 C 0.42580 0.20703 0.20801
 C1250 C 0.43819 0.21294 0.21390
 C1251 C 0.45251 0.22010 0.22097
 C1252 C 0.46444 0.22651 0.22727
 C1253 C -0.10139 0.69451 0.19541
 C1254 C -0.08897 0.70034 0.20131
 C1255 C -0.07441 0.70722 0.20815
 C1256 C -0.06205 0.71320 0.21402
 C1257 C -0.04774 0.72041 0.22105
 C1258 C -0.03580 0.72684 0.22731
 C1259 C -0.10158 0.19469 0.69532
 C1260 C -0.08910 0.20043 0.70117
 C1261 C -0.07450 0.20723 0.70801
 C1262 C -0.06212 0.21315 0.71391
 C1263 C -0.04782 0.22032 0.72100
 C1264 C -0.03589 0.22674 0.72731
 C1265 C 0.30509 0.39849 0.30476
 C1266 C 0.29932 0.41097 0.29890
 C1267 C 0.29252 0.42558 0.29207
 C1268 C 0.28661 0.43799 0.28619
 C1269 C 0.27948 0.45233 0.27912
 C1270 C 0.27310 0.46429 0.27282
 C1271 C 0.30564 -0.10226 0.80471
 C1272 C 0.29986 -0.08975 0.79887
 C1273 C 0.29302 -0.07510 0.79206
 C1274 C 0.28709 -0.06268 0.78619
 C1275 C 0.27993 -0.04830 0.77915
 C1276 C 0.27354 -0.03631 0.77288
 C1277 C 0.80533 0.39846 0.80509
 C1278 C 0.79957 0.41095 0.79922
 C1279 C 0.79278 0.42556 0.79238
 C1280 C 0.78688 0.43796 0.78649
 C1281 C 0.77974 0.45229 0.77940
 C1282 C 0.77335 0.46424 0.77308
 C1283 C 0.80526 -0.10185 0.30492
 C1284 C 0.79950 -0.08938 0.29903
 C1285 C 0.79270 -0.07476 0.29220
 C1286 C 0.78680 -0.06235 0.28633
 C1287 C 0.77968 -0.04798 0.27929
 C1288 C 0.77333 -0.03600 0.27302
 C1289 C 0.30512 0.60140 0.69516
 C1290 C 0.29936 0.58892 0.70100
 C1291 C 0.29255 0.57431 0.70784
 C1292 C 0.28663 0.56192 0.71373
 C1293 C 0.27948 0.54761 0.72083
 C1294 C 0.27309 0.53567 0.72715
 C1295 C 0.30531 1.10118 0.19523
 C1296 C 0.29956 1.08870 0.20105
 C1297 C 0.29276 1.07410 0.20784
 C1298 C 0.28684 1.06171 0.21370
 C1299 C 0.27969 1.04742 0.22075
 C1300 C 0.27328 1.03551 0.22707
 C1301 C 0.80529 0.60116 0.19534
 C1302 C 0.79949 0.58872 0.20121
 C1303 C 0.79265 0.57415 0.20802
 C1304 C 0.78670 0.56178 0.21388
 C1305 C 0.77952 0.54748 0.22091
 C1306 C 0.77311 0.53556 0.22720
 C1307 C 0.80510 1.10124 0.69521
 C1308 C 0.79939 1.08874 0.70102
 C1309 C 0.79262 1.07413 0.70781
 C1310 C 0.78670 1.06176 0.71371
 C1311 C 0.77952 1.04750 0.72082
 C1312 C 0.77308 1.03563 0.72718
 C1313 C 0.69486 0.60151 0.30478
 C1314 C 0.70065 0.58906 0.29889
 C1315 C 0.70745 0.57446 0.29205
 C1316 C 0.71336 0.56205 0.28619
 C1317 C 0.72047 0.54769 0.27917
 C1318 C 0.72683 0.53571 0.27290
 C1319 C 0.69475 1.10197 0.80505
 C1320 C 0.70052 1.08948 0.79917
 C1321 C 0.70733 1.07487 0.79231
 C1322 C 0.71324 1.06247 0.78640
 C1323 C 0.72036 1.04811 0.77931
 C1324 C 0.72671 1.03612 0.77301
 C1325 C 0.19479 0.60136 0.80488
 C1326 C 0.20051 0.58885 0.79904
 C1327 C 0.20727 0.57423 0.79222
 C1328 C 0.21316 0.56182 0.78634
 C1329 C 0.22029 0.54750 0.77926
 C1330 C 0.22669 0.53557 0.77294
 C1331 C 0.19491 1.10145 0.30473
 C1332 C 0.20069 1.08899 0.29885
 C1333 C 0.20749 1.07439 0.29200
 C1334 C 0.21340 1.06200 0.28611
 C1335 C 0.22053 1.04766 0.27905
 C1336 C 0.22690 1.03570 0.27276
 C1337 C 0.69488 0.39855 0.69530
 C1338 C 0.70064 0.41103 0.70115
 C1339 C 0.70745 0.42563 0.70799
 C1340 C 0.71339 0.43800 0.71389
 C1341 C 0.72057 0.45231 0.72098
 C1342 C 0.72697 0.46423 0.72731
 C1343 C 0.69482 -0.10130 0.19546
 C1344 C 0.70062 -0.08887 0.20134
 C1345 C 0.70747 -0.07432 0.20815
 C1346 C 0.71343 -0.06196 0.21401
 C1347 C 0.72061 -0.04767 0.22104
 C1348 C 0.72703 -0.03576 0.22733
 C1349 C 0.19487 0.39875 0.19524
 C1350 C 0.20059 0.41126 0.20105
 C1351 C 0.20734 0.42588 0.20783
 C1352 C 0.21322 0.43828 0.21370
 C1353 C 0.22035 0.45258 0.22076
 C1354 C 0.22675 0.46449 0.22708
 C1355 C 0.19485 -0.10126 0.69511
 C1356 C 0.20059 -0.08878 0.70094
 C1357 C 0.20740 -0.07421 0.70776
 C1358 C 0.21335 -0.06187 0.71367
 C1359 C 0.22057 -0.04763 0.72079
 C1360 C 0.22703 -0.03579 0.72716
 C1361 C 0.30487 0.30481 0.39881
 C1362 C 0.29908 0.29903 0.41129
 C1363 C 0.29230 0.29223 0.42589
 C1364 C 0.28641 0.28635 0.43827
 C1365 C 0.27931 0.27925 0.45258
 C1366 C 0.27296 0.27291 0.46451
 C1367 C 0.30534 0.80492 -0.10146
 C1368 C 0.29955 0.79910 -0.08899
 C1369 C 0.29275 0.79226 -0.07440
 C1370 C 0.28685 0.78636 -0.06202
 C1371 C 0.27974 0.77926 -0.04770
 C1372 C 0.27337 0.77294 -0.03577
 C1373 C 0.80458 0.30542 -0.10136
 C1374 C 0.79884 0.29962 -0.08886
 C1375 C 0.79212 0.29279 -0.07424
 C1376 C 0.78628 0.28685 -0.06185
 C1377 C 0.77924 0.27970 -0.04755
 C1378 C 0.77293 0.27330 -0.03563
 C1379 C 0.80465 0.80530 0.39874
 C1380 C 0.79889 0.79950 0.41122
 C1381 C 0.79215 0.79268 0.42583
 C1382 C 0.78629 0.78676 0.43822
 C1383 C 0.77923 0.77962 0.45253
 C1384 C 0.77291 0.77324 0.46445
 C1385 C 0.69511 0.30485 0.60125
 C1386 C 0.70089 0.29905 0.58877
 C1387 C 0.70766 0.29223 0.57417
 C1388 C 0.71353 0.28633 0.56178
 C1389 C 0.72060 0.27921 0.54746
 C1390 C 0.72693 0.27285 0.53552
 C1391 C 0.69530 0.80499 1.10152
 C1392 C 0.70103 0.79925 1.08900
 C1393 C 0.70776 0.79251 1.07436
 C1394 C 0.71361 0.78664 1.06195
 C1395 C 0.72067 0.77954 1.04763
 C1396 C 0.72701 0.77318 1.03570
 C1397 C 0.19515 0.30513 1.10131
 C1398 C 0.20094 0.29932 1.08885
 C1399 C 0.20773 0.29249 1.07427
 C1400 C 0.21361 0.28657 1.06190
 C1401 C 0.22069 0.27943 1.04760
 C1402 C 0.22701 0.27305 1.03568
 C1403 C 0.19518 0.80517 0.60112
 C1404 C 0.20096 0.79940 0.58864
 C1405 C 0.20775 0.79264 0.57403
 C1406 C 0.21363 0.78676 0.56163
 C1407 C 0.22071 0.77967 0.54732
 C1408 C 0.22705 0.77331 0.53539
 C1409 C 0.30490 0.69516 0.60120
 C1410 C 0.29912 0.70095 0.58872
 C1411 C 0.29234 0.70775 0.57411
 C1412 C 0.28647 0.71364 0.56172
 C1413 C 0.27939 0.72075 0.54740
 C1414 C 0.27305 0.72710 0.53546
 C1415 C 0.30492 0.19485 1.10132
 C1416 C 0.29912 0.20062 1.08884
 C1417 C 0.29231 0.20740 1.07425
 C1418 C 0.28640 0.21329 1.06188
 C1419 C 0.27929 0.22040 1.04758
 C1420 C 0.27294 0.22677 1.03567
 C1421 C 0.80486 0.69486 1.10136
 C1422 C 0.79906 0.70066 1.08890
 C1423 C 0.79225 0.70748 1.07432
 C1424 C 0.78636 0.71340 1.06195
 C1425 C 0.77927 0.72054 1.04766
 C1426 C 0.77295 0.72692 1.03574
 C1427 C 0.80484 0.19475 0.60117
 C1428 C 0.79904 0.20051 0.58869
 C1429 C 0.79223 0.20728 0.57409
 C1430 C 0.78634 0.21316 0.56171
 C1431 C 0.77925 0.22026 0.54741
 C1432 C 0.77291 0.22663 0.53549
 C1433 C 0.69517 0.69522 0.39883
 C1434 C 0.70090 0.70098 0.41133
 C1435 C 0.70764 0.70776 0.42595
 C1436 C 0.71350 0.71364 0.43834
 C1437 C 0.72057 0.72074 0.45264
 C1438 C 0.72691 0.72710 0.46456
 C1439 C 0.69522 0.19493 -0.10128
 C1440 C 0.70097 0.20077 -0.08881
 C1441 C 0.70772 0.20762 -0.07422
 C1442 C 0.71357 0.21356 -0.06185
 C1443 C 0.72064 0.22071 -0.04755
 C1444 C 0.72697 0.22708 -0.03564
 C1445 C 0.19518 0.69507 -0.10120
 C1446 C 0.20097 0.70085 -0.08874
 C1447 C 0.20777 0.70764 -0.07415
 C1448 C 0.21367 0.71353 -0.06179
 C1449 C 0.22079 0.72062 -0.04750
 C1450 C 0.22716 0.72698 -0.03560
 C1451 C 0.19512 0.19507 0.39879
 C1452 C 0.20085 0.20082 0.41130
 C1453 C 0.20760 0.20759 0.42592
 C1454 C 0.21345 0.21346 0.43832
 C1455 C 0.22053 0.22054 0.45264
 C1456 C 0.22687 0.22688 0.46456
 C1457 C 0.30509 0.39860 0.69521
 C1458 C 0.29936 0.41110 0.70105
 C1459 C 0.29258 0.42573 0.70785
 C1460 C 0.28668 0.43814 0.71372
 C1461 C 0.27954 0.45247 0.72078
 C1462 C 0.27314 0.46441 0.72709
 C1463 C 0.30533 0.89886 0.19484
 C1464 C 0.29959 0.91134 0.20070
 C1465 C 0.29280 0.92593 0.20756
 C1466 C 0.28688 0.93829 0.21350
 C1467 C 0.27970 0.95255 0.22065
 C1468 C 0.27327 0.96444 0.22702
 C1469 C 0.80533 0.39891 0.19496
 C1470 C 0.79959 0.41140 0.20081
 C1471 C 0.79279 0.42599 0.20766
 C1472 C 0.78685 0.43834 0.21359
 C1473 C 0.77965 0.45260 0.22073
 C1474 C 0.77320 0.46447 0.22711
 C1475 C 0.80537 0.89909 0.69511
 C1476 C 0.79956 0.91152 0.70103
 C1477 C 0.79268 0.92608 0.70792
 C1478 C 0.78669 0.93842 0.71386
 C1479 C 0.77945 0.95268 0.72099
 C1480 C 0.77299 0.96458 0.72734
 C1481 C 0.69478 0.60127 0.69540
 C1482 C 0.70059 0.58882 0.70129
 C1483 C 0.70743 0.57423 0.70812
 C1484 C 0.71338 0.56184 0.71400
 C1485 C 0.72055 0.54751 0.72104
 C1486 C 0.72696 0.53555 0.72733
 C1487 C 0.69492 0.10092 0.19504
 C1488 C 0.70067 0.08843 0.20089
 C1489 C 0.70747 0.07384 0.20775
 C1490 C 0.71341 0.06148 0.21369
 C1491 C 0.72060 0.04722 0.22083
 C1492 C 0.72703 0.03534 0.22722
 C1493 C 0.19466 0.60127 0.19498
 C1494 C 0.20039 0.58876 0.20082
 C1495 C 0.20717 0.57415 0.20766
 C1496 C 0.21309 0.56177 0.21358
 C1497 C 0.22028 0.54749 0.22071
 C1498 C 0.22671 0.53560 0.22708
 C1499 C 0.19461 0.10083 0.69513
 C1500 C 0.20044 0.08838 0.70103
 C1501 C 0.20734 0.07382 0.70794
 C1502 C 0.21335 0.06148 0.71389
 C1503 C 0.22060 0.04721 0.72103
 C1504 C 0.22707 0.03531 0.72737
 C1505 C 0.30512 0.60137 0.30456
 C1506 C 0.29943 0.58883 0.29880
 C1507 C 0.29267 0.57418 0.29207
 C1508 C 0.28676 0.56177 0.28624
 C1509 C 0.27959 0.54746 0.27921
 C1510 C 0.27317 0.53555 0.27291
 C1511 C 0.30518 0.10103 0.80492
 C1512 C 0.29947 0.08854 0.79908
 C1513 C 0.29274 0.07391 0.79227
 C1514 C 0.28689 0.06149 0.78640
 C1515 C 0.27982 0.04714 0.77935
 C1516 C 0.27348 0.03518 0.77306
 C1517 C 0.80529 0.60133 0.80497
 C1518 C 0.79954 0.58884 0.79914
 C1519 C 0.79275 0.57421 0.79233
 C1520 C 0.78684 0.56182 0.78644
 C1521 C 0.77970 0.54749 0.77937
 C1522 C 0.77331 0.53555 0.77306
 C1523 C 0.80544 0.10104 0.30484
 C1524 C 0.79971 0.08855 0.29902
 C1525 C 0.79293 0.07394 0.29224
 C1526 C 0.78702 0.06155 0.28639
 C1527 C 0.77986 0.04724 0.27936
 C1528 C 0.77346 0.03532 0.27306
 C1529 C 0.69482 0.39864 0.30476
 C1530 C 0.70056 0.41114 0.29895
 C1531 C 0.70734 0.42575 0.29217
 C1532 C 0.71324 0.43815 0.28631
 C1533 C 0.72038 0.45247 0.27926
 C1534 C 0.72677 0.46440 0.27295
 C1535 C 0.69487 0.89876 0.80489
 C1536 C 0.70060 0.91125 0.79905
 C1537 C 0.70736 0.92587 0.79226
 C1538 C 0.71322 0.93830 0.78641
 C1539 C 0.72031 0.95267 0.77940
 C1540 C 0.72665 0.96464 0.77313
 C1541 C 0.19459 0.39867 0.80497
 C1542 C 0.20038 0.41113 0.79910
 C1543 C 0.20723 0.42571 0.79224
 C1544 C 0.21319 0.43807 0.78633
 C1545 C 0.22037 0.45237 0.77922
 C1546 C 0.22677 0.46429 0.77288
 C1547 C 0.19469 0.89873 0.30451
 C1548 C 0.20040 0.91126 0.29874
 C1549 C 0.20719 0.92588 0.29200
 C1550 C 0.21314 0.93827 0.28617
 C1551 C 0.22034 0.95257 0.27914
 C1552 C 0.22678 0.96447 0.27284
 C1553 C 0.39854 0.30512 0.69527
 C1554 C 0.41104 0.29936 0.70111
 C1555 C 0.42566 0.29256 0.70791
 C1556 C 0.43807 0.28664 0.71379
 C1557 C 0.45240 0.27948 0.72085
 C1558 C 0.46433 0.27307 0.72717
 C1559 C 0.39877 0.80536 0.19500
 C1560 C 0.41126 0.79962 0.20086
 C1561 C 0.42587 0.79284 0.20771
 C1562 C 0.43825 0.78693 0.21363
 C1563 C 0.45254 0.77978 0.22076
 C1564 C 0.46444 0.77337 0.22713
 C1565 C 0.89872 0.30541 0.19506
 C1566 C 0.91122 0.29968 0.20091
 C1567 C 0.92583 0.29289 0.20774
 C1568 C 0.93822 0.28697 0.21366
 C1569 C 0.95251 0.27980 0.22076
 C1570 C 0.96443 0.27338 0.22711
 C1571 C 0.89877 0.80557 0.69516
 C1572 C 0.91122 0.79976 0.70104
 C1573 C 0.92581 0.79292 0.70788
 C1574 C 0.93820 0.78698 0.71376
 C1575 C 0.95251 0.77980 0.72082
 C1576 C 0.96445 0.77339 0.72713
 C1577 C 0.60144 0.30520 0.30467
 C1578 C 0.58896 0.29943 0.29883
 C1579 C 0.57436 0.29260 0.29202
 C1580 C 0.56199 0.28664 0.28614
 C1581 C 0.54768 0.27944 0.27908
 C1582 C 0.53576 0.27300 0.27279
 C1583 C 0.60134 0.80546 0.80497
 C1584 C 0.58886 0.79970 0.79911
 C1585 C 0.57425 0.79289 0.79229
 C1586 C 0.56186 0.78696 0.78641
 C1587 C 0.54753 0.77979 0.77935
 C1588 C 0.53558 0.77339 0.77305
 C1589 C 0.10108 0.30525 0.80501
 C1590 C 0.08862 0.29947 0.79914
 C1591 C 0.07403 0.29264 0.79228
 C1592 C 0.06167 0.28670 0.78636
 C1593 C 0.04737 0.27953 0.77925
 C1594 C 0.03544 0.27313 0.77292
 C1595 C 0.10127 0.80548 0.30455
 C1596 C 0.08874 0.79977 0.29876
 C1597 C 0.07411 0.79296 0.29200
 C1598 C 0.06171 0.78701 0.28616
 C1599 C 0.04741 0.77979 0.27912
 C1600 C 0.03549 0.77334 0.27283
 C1601 C 0.60130 0.69474 0.69544
 C1602 C 0.58884 0.70056 0.70133
 C1603 C 0.57425 0.70743 0.70816
 C1604 C 0.56186 0.71341 0.71403
 C1605 C 0.54753 0.72061 0.72108
 C1606 C 0.53558 0.72703 0.72737
 C1607 C 0.60147 0.19440 0.19516
 C1608 C 0.58897 0.20016 0.20101
 C1609 C 0.57435 0.20696 0.20783
 C1610 C 0.56195 0.21289 0.21372
 C1611 C 0.54764 0.22007 0.22080
 C1612 C 0.53571 0.22649 0.22713
 C1613 C 0.10127 0.69486 0.19508
 C1614 C 0.08877 0.70060 0.20094
 C1615 C 0.07414 0.70738 0.20777
 C1616 C 0.06174 0.71328 0.21368
 C1617 C 0.04742 0.72043 0.22079
 C1618 C 0.03550 0.72684 0.22713
 C1619 C 0.10118 0.19455 0.69530
 C1620 C 0.08867 0.20031 0.70114
 C1621 C 0.07405 0.20712 0.70797
 C1622 C 0.06165 0.21305 0.71386
 C1623 C 0.04733 0.22023 0.72094
 C1624 C 0.03539 0.22666 0.72726
 C1625 C 0.39852 0.69470 0.30453
 C1626 C 0.41107 0.70042 0.29876
 C1627 C 0.42572 0.70723 0.29203
 C1628 C 0.43812 0.71319 0.28621
 C1629 C 0.45244 0.72042 0.27920
 C1630 C 0.46435 0.72688 0.27291
 C1631 C 0.39848 0.19454 0.80481
 C1632 C 0.41099 0.20029 0.79900
 C1633 C 0.42562 0.20710 0.79220
 C1634 C 0.43801 0.21305 0.78632
 C1635 C 0.45232 0.22024 0.77925
 C1636 C 0.46425 0.22666 0.77294
 C1637 C 0.89867 0.69490 0.80486
 C1638 C 0.91116 0.70067 0.79901
 C1639 C 0.92577 0.70749 0.79219
 C1640 C 0.93815 0.71342 0.78630
 C1641 C 0.95247 0.72060 0.77921
 C1642 C 0.96440 0.72701 0.77289
 C1643 C 0.89869 0.19454 0.30470
 C1644 C 0.91116 0.20034 0.29883
 C1645 C 0.92574 0.20720 0.29201
 C1646 C 0.93811 0.21318 0.28613
 C1647 C 0.95241 0.22041 0.27909
 C1648 C 0.96433 0.22686 0.27279
 C1649 C 0.30473 0.30480 0.60135
 C1650 C 0.29900 0.29906 0.58884
 C1651 C 0.29227 0.29230 0.57421
 C1652 C 0.28641 0.28642 0.56181
 C1653 C 0.27934 0.27932 0.54751
 C1654 C 0.27299 0.27296 0.53560
 C1655 C 0.30509 0.80507 0.10105
 C1656 C 0.29932 0.79926 0.08859
 C1657 C 0.29255 0.79244 0.07401
 C1658 C 0.28669 0.78653 0.06164
 C1659 C 0.27961 0.77941 0.04734
 C1660 C 0.27328 0.77306 0.03542
 C1661 C 0.80497 0.30515 0.10109
 C1662 C 0.79917 0.29934 0.08864
 C1663 C 0.79236 0.29254 0.07406
 C1664 C 0.78647 0.28664 0.06169
 C1665 C 0.77936 0.27953 0.04740
 C1666 C 0.77301 0.27318 0.03549
 C1667 C 0.80492 0.80514 0.60123
 C1668 C 0.79916 0.79936 0.58874
 C1669 C 0.79239 0.79257 0.57414
 C1670 C 0.78650 0.78668 0.56177
 C1671 C 0.77940 0.77957 0.54748
 C1672 C 0.77304 0.77322 0.53557
 C1673 C 0.30476 0.69502 0.39858
 C1674 C 0.29900 0.70081 0.41107
 C1675 C 0.29225 0.70761 0.42568
 C1676 C 0.28639 0.71352 0.43807
 C1677 C 0.27934 0.72064 0.45239
 C1678 C 0.27302 0.72702 0.46431
 C1679 C 0.30469 0.19477 0.89882
 C1680 C 0.29894 0.20054 0.91132
 C1681 C 0.29219 0.20733 0.92594
 C1682 C 0.28634 0.21322 0.93834
 C1683 C 0.27927 0.22035 0.95266
 C1684 C 0.27294 0.22673 0.96457
 C1685 C 0.80504 0.69499 0.89898
 C1686 C 0.79925 0.70078 0.91145
 C1687 C 0.79245 0.70759 0.92605
 C1688 C 0.78656 0.71349 0.93842
 C1689 C 0.77944 0.72060 0.95272
 C1690 C 0.77308 0.72697 0.96463
 C1691 C 0.80494 0.19472 0.39872
 C1692 C 0.79915 0.20050 0.41120
 C1693 C 0.79235 0.20730 0.42580
 C1694 C 0.78646 0.21320 0.43818
 C1695 C 0.77936 0.22031 0.45248
 C1696 C 0.77301 0.22668 0.46439
 C1697 C 0.69516 0.30494 0.39869
 C1698 C 0.70095 0.29915 0.41116
 C1699 C 0.70772 0.29234 0.42576
 C1700 C 0.71359 0.28644 0.43815
 C1701 C 0.72066 0.27931 0.45245
 C1702 C 0.72699 0.27292 0.46437
 C1703 C 0.69512 0.80519 0.89896
 C1704 C 0.70091 0.79942 0.91144
 C1705 C 0.70771 0.79262 0.92604
 C1706 C 0.71360 0.78672 0.93841
 C1707 C 0.72070 0.77959 0.95271
 C1708 C 0.72705 0.77321 0.96461
 C1709 C 0.19494 0.30488 0.89887
 C1710 C 0.20073 0.29911 0.91136
 C1711 C 0.20753 0.29233 0.92596
 C1712 C 0.21343 0.28645 0.93834
 C1713 C 0.22055 0.27935 0.95264
 C1714 C 0.22691 0.27299 0.96456
 C1715 C 0.19494 0.80525 0.39871
 C1716 C 0.20077 0.79944 0.41116
 C1717 C 0.20760 0.79263 0.42573
 C1718 C 0.21352 0.78672 0.43810
 C1719 C 0.22064 0.77961 0.45239
 C1720 C 0.22700 0.77324 0.46430
 C1721 C 0.69517 0.69513 0.60141
 C1722 C 0.70093 0.70091 0.58891
 C1723 C 0.70770 0.70771 0.57430
 C1724 C 0.71357 0.71361 0.56191
 C1725 C 0.72065 0.72073 0.54760
 C1726 C 0.72699 0.72709 0.53568
 C1727 C 0.69527 0.19482 0.10116
 C1728 C 0.70106 0.20065 0.08870
 C1729 C 0.70783 0.20751 0.07412
 C1730 C 0.71370 0.21345 0.06175
 C1731 C 0.72075 0.22061 0.04745
 C1732 C 0.72707 0.22699 0.03552
 C1733 C 0.19504 0.69505 0.10106
 C1734 C 0.20086 0.70087 0.08860
 C1735 C 0.20769 0.70769 0.07403
 C1736 C 0.21362 0.71361 0.06168
 C1737 C 0.22076 0.72072 0.04739
 C1738 C 0.22714 0.72707 0.03548
 C1739 C 0.19484 0.19474 0.60123
 C1740 C 0.20065 0.20057 0.58877
 C1741 C 0.20747 0.20742 0.57421
 C1742 C 0.21338 0.21335 0.56186
 C1743 C 0.22051 0.22049 0.54758
 C1744 C 0.22688 0.22686 0.53568
   
