data_POSCAR
  _audit_creation_date              2014-09-24
  _audit_creation_method            'ToBaCCo'
  _symmetry_space_group_name_H-M    'P1'
  _symmetry_Int_Tables_number       1
  _symmetry_cell_setting            triclinic
  loop_
  _symmetry_equiv_pos_as_xyz
 x,y,z
_cell_length_a 42.4670
_cell_length_b 42.3096
_cell_length_c 42.4325
_cell_angle_alpha 90.091500
_cell_angle_beta 90.139600
_cell_angle_gamma 89.870700
loop_
  _atom_site_label
  _atom_site_type_symbol
  _atom_site_fract_x
  _atom_site_fract_y
  _atom_site_fract_z
C1 C 0.24617 1.00197 -0.01663
 C2 C 0.24602 1.00148 0.01544
 C3 C 0.24292 0.97163 0.03348
 C4 C 0.24934 1.03051 0.03511
 C5 C 0.24583 1.03187 -0.03490
 C6 C 0.24631 0.97260 -0.03597
 C7 C 0.21791 0.96868 0.05476
 C8 C 0.21668 0.94326 0.07557
 C9 C 0.24044 0.92017 0.07561
 C10 C 0.26521 0.92268 0.05367
 C11 C 0.26641 0.94827 0.03277
 C12 C 0.22882 1.05642 0.03221
 C13 C 0.23105 1.08211 0.05302
 C14 C 0.25345 1.08205 0.07783
 C15 C 0.27373 1.05582 0.08047
 C16 C 0.27188 1.03067 0.05931
 C17 C 0.27065 1.05368 -0.03327
 C18 C 0.27080 1.08023 -0.05303
 C19 C 0.24612 1.08520 -0.07479
 C20 C 0.22133 1.06338 -0.07600
 C21 C 0.22117 1.03706 -0.05631
 C22 C 0.27029 0.96837 -0.05828
 C23 C 0.26943 0.94304 -0.07936
 C24 C 0.24430 0.92146 -0.07882
 C25 C 0.22091 0.92497 -0.05568
 C26 C 0.22169 0.95053 -0.03461
 H27 H 0.19977 0.98669 0.05589
 H28 H 0.19745 0.94204 0.09225
 H29 H 0.28441 0.90586 0.05344
 H30 H 0.28631 0.95058 0.01703
 H31 H 0.21050 1.05640 0.01443
 H32 H 0.21414 1.10100 0.05015
 H33 H 0.28783 1.01087 0.06223
 H34 H 0.29024 1.04969 -0.01738
 H35 H 0.29074 1.09604 -0.05193
 H36 H 0.20215 1.06646 -0.09261
 H37 H 0.20195 1.02036 -0.05810
 H38 H 0.28953 0.98507 -0.05968
 H39 H 0.28845 0.94049 -0.09611
 H40 H 0.20144 0.90851 -0.05461
 H41 H 0.20267 0.95360 -0.01793
 H42 H 0.29125 1.05458 0.09907
 C43 C 0.76135 0.49430 0.48239
 C44 C 0.76185 0.49537 0.51434
 C45 C 0.76037 0.46667 0.53435
 C46 C 0.76402 0.52566 0.53172
 C47 C 0.75951 0.52332 0.46285
 C48 C 0.76191 0.46424 0.46454
 C49 C 0.73676 0.46476 0.55733
 C50 C 0.73703 0.44054 0.57956
 C51 C 0.76120 0.41778 0.57951
 C52 C 0.78403 0.41880 0.55559
 C53 C 0.78383 0.44325 0.53332
 C54 C 0.73983 0.54826 0.53033
 C55 C 0.74114 0.57526 0.54937
 C56 C 0.76671 0.57993 0.57010
 C57 C 0.79095 0.55738 0.57099
 C58 C 0.78962 0.53053 0.55201
 C59 C 0.78364 0.54595 0.46296
 C60 C 0.78234 0.57169 0.44227
 C61 C 0.75724 0.57486 0.42084
 C62 C 0.73266 0.55264 0.42158
 C63 C 0.73394 0.52707 0.44222
 C64 C 0.78606 0.45931 0.44261
 C65 C 0.78497 0.43368 0.42200
 C66 C 0.75970 0.41242 0.42279
 C67 C 0.73580 0.41689 0.44540
 C68 C 0.73695 0.44266 0.46614
 H69 H 0.71840 0.48254 0.55845
 H70 H 0.71836 0.43983 0.59687
 H71 H 0.80269 0.40132 0.55485
 H72 H 0.80253 0.44453 0.51607
 H73 H 0.71955 0.54447 0.51528
 H74 H 0.72155 0.59161 0.54863
 H75 H 0.80834 0.51316 0.55356
 H76 H 0.80373 0.54327 0.47849
 H77 H 0.80141 0.58865 0.44235
 H78 H 0.71237 0.55492 0.40627
 H79 H 0.71502 0.50994 0.44194
 H80 H 0.80533 0.47594 0.44084
 H81 H 0.80360 0.43091 0.40480
 H82 H 0.71552 0.40153 0.44630
 H83 H 0.71773 0.44655 0.48243
 H84 H 0.81075 0.56026 0.58689
 C85 C 0.75176 1.01147 0.99816
 C86 C 0.75376 0.97943 0.99860
 C87 C 0.75518 0.96029 0.96930
 C88 C 0.75473 0.96116 1.02848
 C89 C 0.74808 1.03039 1.02731
 C90 C 0.75313 1.03018 0.96867
 C91 C 0.73293 0.93625 0.96487
 C92 C 0.73552 0.91537 0.93958
 C93 C 0.76070 0.91791 0.91829
 C94 C 0.78227 0.94278 0.92195
 C95 C 0.77975 0.96367 0.94748
 C96 C 0.73012 0.96257 1.05050
 C97 C 0.73046 0.94288 1.07703
 C98 C 0.75535 0.92129 1.08175
 C99 C 0.77990 0.92018 1.05974
 C100 C 0.77965 0.93992 1.03347
 C101 C 0.77169 1.03118 1.05047
 C102 C 0.76934 1.05224 1.07583
 C103 C 0.74328 1.07281 1.07829
 C104 C 0.71958 1.07146 1.05528
 C105 C 0.72194 1.05047 1.03007
 C106 C 0.77599 1.05384 0.96604
 C107 C 0.77539 1.07494 0.94089
 C108 C 0.75186 1.07307 0.91759
 C109 C 0.72933 1.04856 0.91983
 C110 C 0.72997 1.02743 0.94523
 H111 H 0.71374 0.93335 0.98139
 H112 H 0.71782 0.89720 0.93683
 H113 H 0.80168 0.94537 0.90565
 H114 H 0.79743 0.98179 0.95074
 H115 H 0.71023 0.97816 1.04665
 H116 H 0.71067 0.94378 1.09302
 H117 H 0.79872 0.93826 1.01664
 H118 H 0.79240 1.01637 1.04826
 H119 H 0.78854 1.05316 1.09259
 H120 H 0.69940 1.08713 1.05650
 H121 H 0.70366 1.05038 1.01222
 H122 H 0.79393 1.05648 0.98405
 H123 H 0.79318 1.09325 0.94007
 H124 H 0.71048 1.04594 0.90292
 H125 H 0.71172 1.00971 0.94723
 H126 H 0.79920 0.90364 1.06267
 C127 C 0.24491 0.51537 0.49723
 C128 C 0.24401 0.48333 0.49708
 C129 C 0.24266 0.46479 0.52665
 C130 C 0.24481 0.46439 0.46758
 C131 C 0.24819 0.53421 0.46808
 C132 C 0.24209 0.53409 0.52667
 C133 C 0.26624 0.44232 0.53249
 C134 C 0.26431 0.42245 0.55852
 C135 C 0.23851 0.42445 0.57912
 C136 C 0.21550 0.44777 0.57402
 C137 C 0.21734 0.46762 0.54772
 C138 C 0.27062 0.46544 0.44700
 C139 C 0.27279 0.44401 0.42185
 C140 C 0.24914 0.42114 0.41703
 C141 C 0.22315 0.42073 0.43735
 C142 C 0.22099 0.44210 0.46229
 C143 C 0.22470 0.53415 0.44481
 C144 C 0.22582 0.55591 0.42003
 C145 C 0.25058 0.57800 0.41822
 C146 C 0.27438 0.57728 0.44117
 C147 C 0.27320 0.55564 0.46584
 C148 C 0.21752 0.55609 0.52934
 C149 C 0.21587 0.57627 0.55526
 C150 C 0.23875 0.57494 0.57912
 C151 C 0.26328 0.55255 0.57665
 C152 C 0.26491 0.53229 0.55057
 H153 H 0.28602 0.43993 0.51658
 H154 H 0.28299 0.40543 0.56241
 H155 H 0.19556 0.44986 0.58976
 H156 H 0.19871 0.48458 0.54337
 H157 H 0.28966 0.48192 0.45117
 H158 H 0.29358 0.44462 0.40720
 H159 H 0.20105 0.44068 0.47809
 H160 H 0.20481 0.51828 0.44665
 H161 H 0.20658 0.55617 0.40330
 H162 H 0.29361 0.59405 0.44044
 H163 H 0.29134 0.55623 0.48382
 H164 H 0.19985 0.55799 0.51097
 H165 H 0.19688 0.59337 0.55642
 H166 H 0.28188 0.55134 0.59405
 H167 H 0.28445 0.51593 0.54853
 H168 H 0.20468 0.40336 0.43430
 C169 C 1.00125 0.24646 0.01888
 C170 C 0.99997 0.24820 -0.01304
 C171 C 1.02860 0.24813 -0.03297
 C172 C 0.96980 0.24935 -0.03041
 C173 C 0.97232 0.24648 0.03854
 C174 C 1.03172 0.24458 0.03607
 C175 C 1.05114 0.27221 -0.03074
 C176 C 1.07683 0.27272 -0.05137
 C177 C 1.08012 0.24956 -0.07506
 C178 C 1.05796 0.22472 -0.07611
 C179 C 1.03253 0.22423 -0.05547
 C180 C 0.95939 0.27805 -0.04312
 C181 C 0.93407 0.27872 -0.06415
 C182 C 0.91975 0.25049 -0.07420
 C183 C 0.92944 0.22179 -0.06013
 C184 C 0.95407 0.22136 -0.03822
 C185 C 0.96745 0.22187 0.06008
 C186 C 0.94196 0.22274 0.08081
 C187 C 0.92094 0.24851 0.08061
 C188 C 0.92538 0.27272 0.05847
 C189 C 0.95106 0.27194 0.03787
 C190 C 1.05404 0.22098 0.02942
 C191 C 1.08234 0.21956 0.04633
 C192 C 1.08853 0.24103 0.07095
 C193 C 1.06600 0.26488 0.07720
 C194 C 1.03801 0.26645 0.06004
 H195 H 1.04848 0.29092 -0.01350
 H196 H 1.09354 0.29195 -0.04947
 H197 H 1.05992 0.20522 -0.09242
 H198 H 1.01580 0.20502 -0.05712
 H199 H 0.97154 0.29983 -0.03746
 H200 H 0.92700 0.30125 -0.07406
 H201 H 0.96189 0.19902 -0.02850
 H202 H 0.98363 0.20206 0.06102
 H203 H 0.93875 0.20319 0.09688
 H204 H 0.90949 0.29278 0.05779
 H205 H 0.95483 0.29163 0.02210
 H206 H 1.04944 0.20348 0.01136
 H207 H 1.09902 0.20098 0.04069
 H208 H 1.06972 0.28299 0.09475
 H209 H 1.02121 0.28501 0.06535
 H210 H 0.91823 0.19957 -0.06582
 C211 C 0.49740 0.74800 0.48850
 C212 C 0.49801 0.74741 0.52047
 C213 C 0.52787 0.74631 0.53867
 C214 C 0.46877 0.74812 0.53933
 C215 C 0.46751 0.74662 0.47035
 C216 C 0.52660 0.74930 0.46939
 C217 C 0.53329 0.72113 0.55945
 C218 C 0.56034 0.72035 0.57810
 C219 C 0.58270 0.74462 0.57636
 C220 C 0.57743 0.76987 0.55535
 C221 C 0.55016 0.77069 0.53670
 C222 C 0.45340 0.72005 0.54763
 C223 C 0.42856 0.72070 0.56925
 C224 C 0.41848 0.74955 0.58239
 C225 C 0.43292 0.77769 0.57278
 C226 C 0.45826 0.77693 0.55186
 C227 C 0.44568 0.77157 0.47104
 C228 C 0.41958 0.77144 0.45076
 C229 C 0.41505 0.74635 0.42932
 C230 C 0.43680 0.72133 0.42909
 C231 C 0.46271 0.72145 0.44938
 C232 C 0.53053 0.77425 0.44808
 C233 C 0.55641 0.77491 0.42792
 C234 C 0.57871 0.75027 0.42829
 C235 C 0.57537 0.72585 0.45043
 C236 C 0.54935 0.72519 0.47066
 H237 H 0.51649 0.70204 0.56137
 H238 H 0.56369 0.70075 0.59418
 H239 H 0.59367 0.78946 0.55394
 H240 H 0.54612 0.79063 0.52122
 H241 H 0.46133 0.69762 0.53817
 H242 H 0.41735 0.69872 0.57582
 H243 H 0.47010 0.79875 0.54586
 H244 H 0.44953 0.79173 0.48629
 H245 H 0.40389 0.79160 0.45104
 H246 H 0.43406 0.70186 0.41271
 H247 H 0.47953 0.70220 0.44819
 H248 H 0.51332 0.79316 0.44690
 H249 H 0.55878 0.79471 0.41200
 H250 H 0.59235 0.70672 0.45134
 H251 H 0.54656 0.70554 0.48673
 H252 H 0.42538 0.80017 0.58246
 C253 C -0.01631 0.74601 0.00208
 C254 C 0.01565 0.74474 0.00053
 C255 C 0.03276 0.74220 -0.02978
 C256 C 0.03606 0.74618 0.02891
 C257 C -0.03345 0.74687 0.03259
 C258 C -0.03636 0.74671 -0.02672
 C259 C 0.05394 0.71715 -0.03408
 C260 C 0.07293 0.71580 -0.06076
 C261 C 0.07129 0.73949 -0.08391
 C262 C 0.04937 0.76440 -0.07980
 C263 C 0.03046 0.76574 -0.05287
 C264 C 0.03493 0.72287 0.05237
 C265 C 0.05673 0.72325 0.07719
 C266 C 0.08026 0.74653 0.07854
 C267 C 0.08059 0.77039 0.05553
 C268 C 0.05883 0.77006 0.03090
 C269 C -0.02762 0.77017 0.05544
 C270 C -0.04552 0.77127 0.08309
 C271 C -0.07035 0.74982 0.08802
 C272 C -0.07558 0.72610 0.06513
 C273 C -0.05739 0.72479 0.03786
 C274 C -0.05816 0.77132 -0.03038
 C275 C -0.07883 0.77179 -0.05596
 C276 C -0.07847 0.74728 -0.07863
 C277 C -0.05577 0.72313 -0.07533
 C278 C -0.03522 0.72261 -0.04945
 H279 H 0.05620 0.69887 -0.01636
 H280 H 0.08939 0.69631 -0.06296
 H281 H 0.04725 0.78359 -0.09640
 H282 H 0.01471 0.78564 -0.04958
 H283 H 0.01776 0.70403 0.05102
 H284 H 0.05582 0.70481 0.09485
 H285 H 0.05995 0.78831 0.01307
 H286 H -0.00965 0.78786 0.05164
 H287 H -0.04062 0.78971 0.10016
 H288 H -0.09320 0.70800 0.06801
 H289 H -0.06212 0.70647 0.02063
 H290 H -0.05923 0.79028 -0.01322
 H291 H -0.09457 0.79179 -0.05767
 H292 H -0.05452 0.70399 -0.09228
 H293 H -0.01886 0.70311 -0.04687
 H294 H 0.09760 0.78936 0.05644
 C295 C 0.51932 0.24815 0.50062
 C296 C 0.48745 0.25061 0.50248
 C297 C 0.47069 0.25307 0.53312
 C298 C 0.46757 0.25124 0.47359
 C299 C 0.53575 0.24480 0.47003
 C300 C 0.54015 0.24838 0.52868
 C301 C 0.44630 0.23181 0.53968
 C302 C 0.42941 0.23405 0.56776
 C303 C 0.43632 0.25793 0.58983
 C304 C 0.46113 0.27887 0.58355
 C305 C 0.47796 0.27672 0.55526
 C306 C 0.46828 0.22643 0.45154
 C307 C 0.45007 0.22804 0.42405
 C308 C 0.43059 0.25440 0.41835
 C309 C 0.42945 0.27874 0.44085
 C310 C 0.44778 0.27721 0.46815
 C311 C 0.53457 0.26876 0.44725
 C312 C 0.55226 0.26607 0.41961
 C313 C 0.57144 0.23933 0.41447
 C314 C 0.57220 0.21537 0.43726
 C315 C 0.55455 0.21807 0.46477
 C316 C 0.56471 0.27045 0.53009
 C317 C 0.58694 0.26918 0.55425
 C318 C 0.58524 0.24550 0.57738
 C319 C 0.55998 0.22410 0.57663
 C320 C 0.53773 0.22531 0.55226
 H321 H 0.44042 0.21330 0.52302
 H322 H 0.41116 0.21684 0.57222
 H323 H 0.46699 0.29737 0.60022
 H324 H 0.49636 0.29371 0.55049
 H325 H 0.48285 0.20581 0.45569
 H326 H 0.45073 0.20830 0.40783
 H327 H 0.44675 0.29648 0.48496
 H328 H 0.52066 0.28986 0.45129
 H329 H 0.55174 0.28549 0.40308
 H330 H 0.58697 0.19470 0.43404
 H331 H 0.55589 0.19947 0.48224
 H332 H 0.56688 0.28848 0.51213
 H333 H 0.60537 0.28679 0.55474
 H334 H 0.55800 0.20587 0.59441
 H335 H 0.51920 0.20779 0.55132
 H336 H 0.41430 0.29906 0.43728
 C337 C 0.99941 0.02032 0.25369
 C338 C 0.99864 -0.01171 0.25589
 C339 C 0.96845 -0.02950 0.25658
 C340 C 1.02799 -0.03094 0.25735
 C341 C 1.02932 0.03815 0.25340
 C342 C 0.97054 0.03993 0.25154
 C343 C 0.94475 -0.02258 0.27856
 C344 C 0.91693 -0.04027 0.27909
 C345 C 0.91255 -0.06593 0.25836
 C346 C 0.93645 -0.07244 0.23610
 C347 C 0.96395 -0.05450 0.23539
 C348 C 1.03187 -0.05304 0.28161
 C349 C 1.05802 -0.07310 0.28213
 C350 C 1.08114 -0.07153 0.25848
 C351 C 1.07718 -0.04911 0.23411
 C352 C 1.05075 -0.02931 0.23349
 C353 C 1.03940 0.05214 0.22527
 C354 C 1.06525 0.07243 0.22523
 C355 C 1.08060 0.08003 0.25351
 C356 C 1.07090 0.06551 0.28166
 C357 C 1.04553 0.04446 0.28153
 C358 C 0.94902 0.03628 0.22662
 C359 C 0.92321 0.05674 0.22387
 C360 C 0.91896 0.08146 0.24558
 C361 C 0.94004 0.08437 0.27102
 C362 C 0.96563 0.06393 0.27382
 H363 H 0.94790 -0.00373 0.29555
 H364 H 0.89916 -0.03438 0.29644
 H365 H 0.93421 -0.09083 0.21859
 H366 H 0.98182 -0.06009 0.21806
 H367 H 1.01438 -0.05502 0.30004
 H368 H 1.06002 -0.09007 0.30115
 H369 H 1.04761 -0.01335 0.21382
 H370 H 1.02684 0.04772 0.20345
 H371 H 1.07248 0.08324 0.20328
 H372 H 1.08278 0.07062 0.30369
 H373 H 1.03774 0.03407 0.30347
 H374 H 0.95258 0.01806 0.20903
 H375 H 0.90707 0.05388 0.20427
 H376 H 0.93680 0.10242 0.28884
 H377 H 0.98177 0.06694 0.29339
 H378 H 1.09351 -0.04729 0.21474
 C379 C 0.50230 0.51944 0.74263
 C380 C 0.50190 0.48733 0.74248
 C381 C 0.53102 0.46790 0.74358
 C382 C 0.47206 0.46918 0.74124
 C383 C 0.47284 0.53843 0.74297
 C384 C 0.53196 0.53799 0.74298
 C385 C 0.55400 0.46971 0.71992
 C386 C 0.57903 0.44807 0.71939
 C387 C 0.58105 0.42400 0.74210
 C388 C 0.55873 0.42318 0.76649
 C389 C 0.53393 0.44480 0.76709
 C390 C 0.46748 0.44739 0.71675
 C391 C 0.44126 0.42765 0.71660
 C392 C 0.41900 0.42921 0.74094
 C393 C 0.42335 0.45141 0.76538
 C394 C 0.44973 0.47121 0.76550
 C395 C 0.46825 0.56045 0.76727
 C396 C 0.44226 0.58061 0.76691
 C397 C 0.42042 0.57942 0.74196
 C398 C 0.42438 0.55660 0.71821
 C399 C 0.45059 0.53644 0.71851
 C400 C 0.55415 0.53493 0.76739
 C401 C 0.57983 0.55562 0.76919
 C402 C 0.58329 0.58002 0.74706
 C403 C 0.56168 0.58218 0.72199
 C404 C 0.53625 0.56148 0.72010
 H405 H 0.55196 0.48710 0.70132
 H406 H 0.59616 0.44937 0.70057
 H407 H 0.56022 0.40571 0.78504
 H408 H 0.51652 0.44310 0.78563
 H409 H 0.48462 0.44529 0.69799
 H410 H 0.43863 0.41067 0.69764
 H411 H 0.45328 0.48736 0.78501
 H412 H 0.48507 0.56221 0.78642
 H413 H 0.43936 0.59714 0.78618
 H414 H 0.40773 0.55508 0.69889
 H415 H 0.45391 0.51986 0.69933
 H416 H 0.55102 0.51730 0.78558
 H417 H 0.59635 0.55331 0.78854
 H418 H 0.56426 0.59996 0.70388
 H419 H 0.51945 0.56417 0.70103
 H420 H 0.40724 0.45278 0.78502
 C421 C 1.01944 1.00401 0.75067
 C422 C 0.98751 1.00438 0.74863
 C423 C 0.96863 0.97498 0.74732
 C424 C 0.96884 1.03403 0.74816
 C425 C 1.03823 1.03326 0.75492
 C426 C 1.03781 0.97421 0.74848
 C427 C 0.97083 0.95381 0.72191
 C428 C 0.95021 0.92809 0.71983
 C429 C 0.92682 0.92363 0.74275
 C430 C 0.92558 0.94423 0.76874
 C431 C 0.94616 0.96973 0.77086
 C432 C 0.94770 1.03903 0.72327
 C433 C 0.92673 1.06437 0.72394
 C434 C 0.92629 1.08551 0.74953
 C435 C 0.94824 1.08085 0.77427
 C436 C 0.96916 1.05523 0.77358
 C437 C 1.05933 1.03509 0.78033
 C438 C 1.07942 1.06092 0.78355
 C439 C 1.07884 1.08557 0.76150
 C440 C 1.05744 1.08392 0.73609
 C441 C 1.03734 1.05791 0.73282
 C442 C 1.03361 0.94944 0.76998
 C443 C 1.05230 0.92220 0.76813
 C444 C 1.07594 0.91944 0.74485
 C445 C 1.07993 0.94455 0.72356
 C446 C 1.06113 0.97153 0.72535
 H447 H 0.98784 0.95771 0.70335
 H448 H 0.95180 0.91230 0.69978
 H449 H 0.90862 0.94081 0.78742
 H450 H 0.94426 0.98575 0.79071
 H451 H 0.94692 1.02274 0.70356
 H452 H 0.91038 1.06707 0.70446
 H453 H 0.98482 1.05131 0.79338
 H454 H 1.06057 1.01618 0.79747
 H455 H 1.09580 1.06144 0.80316
 H456 H 1.05693 1.10195 0.71807
 H457 H 1.02181 1.05654 0.71259
 H458 H 1.01624 0.95143 0.78852
 H459 H 1.04846 0.90413 0.78562
 H460 H 1.09786 0.94349 0.70544
 H461 H 1.06490 0.99051 0.70868
 H462 H 0.94888 1.09593 0.79480
 C463 C 0.48091 0.50340 0.24955
 C464 C 0.51280 0.50397 0.25127
 C465 C 0.53186 0.47480 0.24763
 C466 C 0.53073 0.53370 0.25578
 C467 C 0.46154 0.53254 0.24857
 C468 C 0.46325 0.47334 0.24956
 C469 C 0.53207 0.45111 0.27072
 C470 C 0.55190 0.42480 0.26757
 C471 C 0.57199 0.42195 0.24132
 C472 C 0.57170 0.44585 0.21843
 C473 C 0.55182 0.47196 0.22152
 C474 C 0.55113 0.53618 0.28166
 C475 C 0.56998 0.56285 0.28558
 C476 C 0.56890 0.58768 0.26372
 C477 C 0.54819 0.58533 0.23779
 C478 C 0.52930 0.55849 0.23386
 C479 C 0.44224 0.53811 0.22230
 C480 C 0.42200 0.56406 0.22164
 C481 C 0.42073 0.58515 0.24712
 C482 C 0.44038 0.57982 0.27341
 C483 C 0.46061 0.55363 0.27411
 C484 C 0.45459 0.45852 0.22128
 C485 C 0.43418 0.43260 0.22169
 C486 C 0.42269 0.42092 0.25047
 C487 C 0.43272 0.43486 0.27875
 C488 C 0.45239 0.46123 0.27827
 H489 H 0.51762 0.45341 0.29157
 H490 H 0.55221 0.40744 0.28626
 H491 H 0.58716 0.44445 0.19819
 H492 H 0.55226 0.49025 0.20368
 H493 H 0.55273 0.51720 0.29870
 H494 H 0.58587 0.56386 0.30557
 H495 H 0.51423 0.55667 0.21332
 H496 H 0.44261 0.52221 0.20231
 H497 H 0.40704 0.56752 0.20121
 H498 H 0.43945 0.59510 0.29385
 H499 H 0.47496 0.54937 0.29482
 H500 H 0.46289 0.46757 0.19894
 H501 H 0.42725 0.42180 0.19959
 H502 H 0.42426 0.42612 0.30116
 H503 H 0.45871 0.47263 0.30026
 H504 H 0.54731 0.60347 0.21990
 O505 O 0.25442 0.16393 0.20637
 O506 O 0.29497 0.15702 0.24812
 O507 O 0.17646 0.20072 0.25998
 O508 O 0.16760 0.24173 0.29260
 O509 O 0.20624 0.24760 0.17412
 O510 O 0.25081 0.28186 0.16258
 O511 O 0.26348 0.28856 0.33320
 O512 O 0.22671 0.24514 0.34311
 O513 O 0.34128 0.24357 0.29023
 O514 O 0.34323 0.20565 0.24088
 O515 O 0.30176 0.32545 0.24872
 O516 O 0.25289 0.33546 0.21714
 O517 O 0.26328 0.32647 0.29531
 O518 O 0.22441 0.33751 0.25457
 O519 O 0.33913 0.28688 0.24790
 O520 O 0.34826 0.24585 0.21377
 O521 O 0.30591 0.24586 0.33030
 O522 O 0.26663 0.21167 0.34445
 O523 O 0.24865 0.20238 0.16944
 O524 O 0.28375 0.24472 0.15809
 O525 O 0.17219 0.24717 0.21547
 O526 O 0.16791 0.28144 0.25984
 O527 O 0.21380 0.16252 0.25311
 O528 O 0.25692 0.15321 0.28555
 Zr529 Zr 0.25582 0.18825 0.24995
 O530 O 0.28699 0.21482 0.27816
 Zr531 Zr 0.20085 0.24403 0.25560
 O532 O 0.23016 0.27361 0.28275
 Zr533 Zr 0.25108 0.24448 0.19561
 O534 O 0.28337 0.27281 0.22063
 Zr535 Zr 0.26204 0.24560 0.30804
 O536 O 0.23079 0.21568 0.28320
 Zr537 Zr 0.31312 0.24479 0.24894
 O538 O 0.28382 0.21613 0.22014
 Zr539 Zr 0.25869 0.30113 0.25294
 O540 O 0.22600 0.27479 0.22582
 O541 O 0.22412 0.21507 0.22373
 O542 O 0.28999 0.27484 0.28032
 C543 C 0.25110 0.17327 0.17769
 C544 C 0.18537 0.17161 0.25803
 C545 C 0.17840 0.24892 0.18598
 C546 C 0.26420 0.31755 0.32420
 C547 C 0.33406 0.24457 0.31967
 C548 C 0.33051 0.31594 0.24739
 H549 H 0.30077 0.20028 0.29014
 H550 H 0.29556 0.28555 0.20545
 H551 H 0.20930 0.20200 0.21127
 H552 H 0.21715 0.28672 0.29700
 H553 H 0.21235 0.22739 0.33807
 H554 H 0.17567 0.25478 0.31020
 H555 H 0.33821 0.25429 0.19450
 H556 H 0.30049 0.22940 0.16374
 H557 H 0.27457 0.19195 0.33481
 H558 H 0.24367 0.16102 0.30309
 H559 H 0.26929 0.33170 0.20103
 H560 H 0.23566 0.29781 0.17048
 H561 H 0.28755 0.13582 0.24141
 H562 H 0.34545 0.19403 0.26098
 H563 H 0.17461 0.29815 0.24501
 H564 H 0.20960 0.33250 0.27180
 O565 O 0.74858 0.83205 0.20849
 O566 O 0.71826 0.84347 0.25538
 O567 O 0.83110 0.78746 0.24604
 O568 O 0.84242 0.74637 0.27716
 O569 O 0.78257 0.74442 0.16782
 O570 O 0.73542 0.71587 0.16213
 O571 O 0.75002 0.70782 0.33500
 O572 O 0.78924 0.74686 0.34012
 O573 O 0.66930 0.75480 0.30228
 O574 O 0.65892 0.79151 0.26327
 O575 O 0.69803 0.67237 0.25826
 O576 O 0.73894 0.65834 0.21997
 O577 O 0.74374 0.66975 0.29768
 O578 O 0.77526 0.65706 0.24988
 O579 O 0.66270 0.71282 0.25920
 O580 O 0.65501 0.75983 0.22393
 O581 O 0.70963 0.75214 0.33749
 O582 O 0.75587 0.78643 0.34317
 O583 O 0.74306 0.79385 0.17106
 O584 O 0.70342 0.75291 0.16619
 O585 O 0.82393 0.74340 0.20199
 O586 O 0.83202 0.70627 0.24596
 O587 O 0.79690 0.82900 0.24846
 O588 O 0.75895 0.83914 0.28906
 Zr589 Zr 0.75239 0.80695 0.25127
 O590 O 0.72312 0.78216 0.28276
 Zr591 Zr 0.80280 0.74689 0.24684
 O592 O 0.77641 0.72020 0.27931
 Zr593 Zr 0.74295 0.75122 0.19657
 O594 O 0.71426 0.72381 0.22609
 Zr595 Zr 0.75032 0.75009 0.30909
 O596 O 0.78024 0.77689 0.27947
 Zr597 Zr 0.69105 0.75369 0.25801
 O598 O 0.71741 0.78175 0.22630
 Zr599 Zr 0.74219 0.69429 0.25458
 O600 O 0.77072 0.71858 0.22174
 O601 O 0.77661 0.77817 0.21972
 O602 O 0.71690 0.72243 0.28593
 C603 C 0.74488 0.82288 0.17980
 C604 C 0.82483 0.81715 0.24680
 C605 C 0.81204 0.74204 0.17412
 C606 C 0.74709 0.67889 0.32641
 C607 C 0.68021 0.75395 0.33053
 C608 C 0.66983 0.68327 0.25917
 H609 H 0.71170 0.79742 0.29623
 H610 H 0.69938 0.71165 0.21289
 H611 H 0.78985 0.79034 0.20492
 H612 H 0.79070 0.70644 0.29160
 H613 H 0.80578 0.76093 0.33164
 H614 H 0.83616 0.73522 0.29662
 H615 H 0.65578 0.74160 0.20932
 H616 H 0.68981 0.77033 0.17380
 H617 H 0.73962 0.80276 0.33935
 H618 H 0.77547 0.83021 0.30296
 H619 H 0.72166 0.66410 0.20538
 H620 H 0.74735 0.69705 0.16923
 H621 H 0.72801 0.86386 0.24924
 H622 H 0.66926 0.81027 0.25406
 H623 H 0.82329 0.69187 0.22975
 H624 H 0.79180 0.66011 0.26606
 O625 O 0.74522 0.16796 0.79883
 O626 O 0.71462 0.15818 0.75366
 O627 O 0.83120 0.20446 0.75885
 O628 O 0.84544 0.24446 0.72839
 O629 O 0.78902 0.25105 0.83902
 O630 O 0.74572 0.28493 0.84577
 O631 O 0.75390 0.29031 0.67175
 O632 O 0.78922 0.24863 0.66550
 O633 O 0.67082 0.25150 0.70773
 O634 O 0.65724 0.21844 0.75160
 O635 O 0.70951 0.33244 0.74965
 O636 O 0.75161 0.34301 0.78551
 O637 O 0.75327 0.32936 0.70861
 O638 O 0.78887 0.33796 0.75656
 O639 O 0.67066 0.29560 0.74889
 O640 O 0.65903 0.25049 0.78637
 O641 O 0.71005 0.24972 0.67138
 O642 O 0.75383 0.21106 0.66524
 O643 O 0.74459 0.20628 0.83656
 O644 O 0.70935 0.25197 0.84220
 O645 O 0.82893 0.24735 0.80349
 O646 O 0.83871 0.28532 0.75930
 O647 O 0.79298 0.16684 0.75746
 O648 O 0.75019 0.15858 0.71996
 Zr649 Zr 0.75038 0.19275 0.75637
 O650 O 0.72243 0.21991 0.72563
 Zr651 Zr 0.80639 0.24727 0.75912
 O652 O 0.78168 0.27609 0.72691
 Zr653 Zr 0.74812 0.24906 0.81114
 O654 O 0.72146 0.27935 0.78208
 Zr655 Zr 0.75183 0.24868 0.69832
 O656 O 0.78025 0.21932 0.72717
 Zr657 Zr 0.69430 0.25180 0.75121
 O658 O 0.71884 0.22129 0.78224
 Zr659 Zr 0.75109 0.30563 0.75233
 O660 O 0.77798 0.27875 0.78491
 O661 O 0.77824 0.21877 0.78712
 O662 O 0.72211 0.27987 0.72212
 C663 C 0.74328 0.17722 0.82761
 C664 C 0.82198 0.17559 0.75836
 C665 C 0.81828 0.24938 0.83178
 C666 C 0.75411 0.31949 0.67990
 C667 C 0.68082 0.25070 0.67928
 C668 C 0.68045 0.32435 0.74859
 H669 H 0.70947 0.20562 0.71254
 H670 H 0.70828 0.29320 0.79544
 H671 H 0.79057 0.20503 0.80144
 H672 H 0.79675 0.28821 0.71399
 H673 H 0.80556 0.23420 0.67397
 H674 H 0.83943 0.25530 0.70864
 H675 H 0.66157 0.26938 0.79990
 H676 H 0.69397 0.23588 0.83516
 H677 H 0.73534 0.19729 0.66847
 H678 H 0.76676 0.16486 0.70485
 H679 H 0.73678 0.33742 0.80253
 H680 H 0.75929 0.30233 0.83824
 H681 H 0.69647 0.16669 0.76558
 H682 H 0.66342 0.20074 0.73767
 H683 H 0.83293 0.29930 0.77711
 H684 H 0.80289 0.33493 0.73821
 O685 O 0.24569 0.82813 0.79533
 O686 O 0.28345 0.83415 0.75114
 O687 O 0.16334 0.79243 0.75015
 O688 O 0.15132 0.75230 0.71717
 O689 O 0.20061 0.74566 0.83170
 O690 O 0.24465 0.71009 0.83967
 O691 O 0.24418 0.70427 0.66783
 O692 O 0.20655 0.74652 0.66069
 O693 O 0.32449 0.74440 0.70514
 O694 O 0.33215 0.78362 0.75273
 O695 O 0.28681 0.66504 0.74750
 O696 O 0.24169 0.65570 0.78366
 O697 O 0.24471 0.66595 0.70534
 O698 O 0.20849 0.65604 0.74963
 O699 O 0.32488 0.70271 0.74805
 O700 O 0.33763 0.74494 0.78115
 O701 O 0.28625 0.74674 0.66760
 O702 O 0.24384 0.78248 0.65830
 O703 O 0.24531 0.78956 0.83265
 O704 O 0.27951 0.74529 0.84068
 O705 O 0.16266 0.74823 0.79382
 O706 O 0.15451 0.71168 0.75042
 O707 O 0.20173 0.83002 0.75137
 O708 O 0.24281 0.83858 0.71615
 Zr709 Zr 0.24379 0.80369 0.75190
 O710 O 0.27227 0.77658 0.72145
 Zr711 Zr 0.18768 0.74900 0.75123
 O712 O 0.21397 0.71936 0.72111
 Zr713 Zr 0.24330 0.74728 0.80646
 O714 O 0.27233 0.71805 0.77872
 Zr715 Zr 0.24418 0.74688 0.69344
 O716 O 0.21536 0.77687 0.72105
 Zr717 Zr 0.30002 0.74564 0.74840
 O718 O 0.27393 0.77510 0.77924
 Zr719 Zr 0.24427 0.69079 0.74824
 O720 O 0.21494 0.71762 0.77856
 O721 O 0.21447 0.77738 0.78081
 O722 O 0.27363 0.71668 0.71873
 C723 C 0.24635 0.81867 0.82416
 C724 C 0.17273 0.82135 0.75053
 C725 C 0.17169 0.74661 0.82268
 C726 C 0.24475 0.67521 0.67653
 C727 C 0.31515 0.74513 0.67628
 C728 C 0.31575 0.67379 0.74756
 H729 H 0.28542 0.79082 0.70860
 H730 H 0.28546 0.70478 0.79272
 H731 H 0.20131 0.79094 0.79452
 H732 H 0.19966 0.70669 0.70776
 H733 H 0.19136 0.76291 0.66764
 H734 H 0.15688 0.73813 0.69946
 H735 H 0.33019 0.73336 0.79993
 H736 H 0.29615 0.75997 0.83355
 H737 H 0.25847 0.79938 0.66495
 H738 H 0.22871 0.83061 0.69932
 H739 H 0.25913 0.65942 0.79869
 H740 H 0.22931 0.69407 0.83236
 H741 H 0.27677 0.85553 0.75813
 H742 H 0.33290 0.79474 0.73225
 H743 H 0.16151 0.69598 0.76624
 H744 H 0.19291 0.66116 0.73304
 O745 O 0.24613 0.33908 0.71210
 O746 O 0.21513 0.34745 0.75823
 O747 O 0.33152 0.30046 0.75063
 O748 O 0.34603 0.25892 0.77935
 O749 O 0.28694 0.25581 0.66972
 O750 O 0.24258 0.22292 0.66321
 O751 O 0.25600 0.21239 0.83579
 O752 O 0.29221 0.25374 0.84218
 O753 O 0.17262 0.25318 0.80345
 O754 O 0.15866 0.29033 0.76116
 O755 O 0.20736 0.17473 0.75748
 O756 O 0.25012 0.16522 0.71920
 O757 O 0.25255 0.17479 0.79758
 O758 O 0.28551 0.16536 0.75034
 O759 O 0.16932 0.21256 0.75926
 O760 O 0.15751 0.25914 0.72575
 O761 O 0.21271 0.25374 0.83904
 O762 O 0.25667 0.29136 0.84535
 O763 O 0.24360 0.30130 0.67397
 O764 O 0.20780 0.25742 0.66723
 O765 O 0.32813 0.25696 0.70409
 O766 O 0.33870 0.21942 0.74723
 O767 O 0.29362 0.33847 0.75360
 O768 O 0.25214 0.34677 0.79096
 Zr769 Zr 0.25108 0.31307 0.75413
 O770 O 0.22387 0.28560 0.78512
 Zr771 Zr 0.30647 0.25766 0.74897
 O772 O 0.28192 0.22812 0.78052
 Zr773 Zr 0.24681 0.25820 0.69829
 O774 O 0.21999 0.22806 0.72688
 Zr775 Zr 0.25347 0.25518 0.81079
 O776 O 0.28126 0.28507 0.78209
 Zr777 Zr 0.19436 0.25536 0.75923
 O778 O 0.21857 0.28586 0.72822
 Zr779 Zr 0.24988 0.20013 0.75499
 O780 O 0.27685 0.22737 0.72308
 O781 O 0.27808 0.28734 0.72226
 O782 O 0.22236 0.22559 0.78670
 C783 C 0.24355 0.33025 0.68323
 C784 C 0.32252 0.32941 0.75259
 C785 C 0.31647 0.25550 0.67608
 C786 C 0.25502 0.18348 0.82650
 C787 C 0.18336 0.25260 0.83176
 C788 C 0.17844 0.18361 0.75847
 H789 H 0.21159 0.29965 0.79908
 H790 H 0.20617 0.21513 0.71325
 H791 H 0.29054 0.30103 0.70810
 H792 H 0.29709 0.21521 0.79266
 H793 H 0.30796 0.26890 0.83408
 H794 H 0.34040 0.24712 0.79862
 H795 H 0.16057 0.24227 0.70987
 H796 H 0.19248 0.27311 0.67530
 H797 H 0.23859 0.30588 0.84268
 H798 H 0.26776 0.33906 0.80652
 H799 H 0.23225 0.16965 0.70486
 H800 H 0.25644 0.20528 0.66980
 H801 H 0.19704 0.33952 0.74579
 H802 H 0.16456 0.30586 0.77757
 H803 H 0.33102 0.20470 0.73078
 H804 H 0.30194 0.16981 0.76629
 O805 O 0.75746 0.66782 0.69826
 O806 O 0.79621 0.66123 0.74142
 O807 O 0.67721 0.70511 0.74528
 O808 O 0.66610 0.74616 0.77731
 O809 O 0.71278 0.75150 0.66177
 O810 O 0.75743 0.78533 0.65268
 O811 O 0.76051 0.79280 0.82431
 O812 O 0.72380 0.75090 0.83314
 O813 O 0.84041 0.74873 0.78538
 O814 O 0.84529 0.71043 0.73680
 O815 O 0.80256 0.82985 0.74377
 O816 O 0.75657 0.84001 0.70801
 O817 O 0.76055 0.83079 0.78650
 O818 O 0.72462 0.84123 0.74276
 O819 O 0.84025 0.79162 0.74266
 O820 O 0.85122 0.74976 0.70937
 O821 O 0.80308 0.75122 0.82360
 O822 O 0.76077 0.71463 0.83457
 O823 O 0.75598 0.70601 0.66055
 O824 O 0.79124 0.74902 0.65123
 O825 O 0.67587 0.75006 0.70052
 O826 O 0.66910 0.78609 0.74447
 O827 O 0.71498 0.66680 0.74330
 O828 O 0.75668 0.65832 0.77771
 Zr829 Zr 0.75714 0.69261 0.74140
 O830 O 0.78696 0.71936 0.77085
 Zr831 Zr 0.70185 0.74831 0.74273
 O832 O 0.72946 0.77768 0.77189
 Zr833 Zr 0.75594 0.74851 0.68627
 O834 O 0.78626 0.77731 0.71304
 Zr835 Zr 0.76014 0.74997 0.79914
 O836 O 0.73001 0.72033 0.77258
 Zr837 Zr 0.81444 0.74934 0.74286
 O838 O 0.78690 0.72025 0.71298
 Zr839 Zr 0.75946 0.80539 0.74388
 O840 O 0.72882 0.77894 0.71456
 O841 O 0.72730 0.71917 0.71282
 O842 O 0.78936 0.77924 0.77287
 C843 C 0.75697 0.67699 0.66941
 C844 C 0.68617 0.67596 0.74505
 C845 C 0.68411 0.75184 0.67148
 C846 C 0.76071 0.82182 0.81537
 C847 C 0.83185 0.75033 0.81437
 C848 C 0.83143 0.82063 0.74330
 H849 H 0.80023 0.70495 0.78351
 H850 H 0.79922 0.79019 0.69865
 H851 H 0.71338 0.70589 0.69959
 H852 H 0.71559 0.79071 0.78537
 H853 H 0.70815 0.73480 0.82667
 H854 H 0.67298 0.75924 0.79539
 H855 H 0.84289 0.76020 0.69026
 H856 H 0.80756 0.73368 0.65797
 H857 H 0.77656 0.69848 0.82872
 H858 H 0.74401 0.66726 0.79514
 H859 H 0.77421 0.83642 0.69324
 H860 H 0.74290 0.80199 0.66026
 H861 H 0.78886 0.63989 0.73510
 H862 H 0.84611 0.69868 0.75693
 H863 H 0.67584 0.80177 0.72857
 H864 H 0.70867 0.83604 0.75887
 O865 O 0.24649 0.67413 0.29749
 O866 O 0.21049 0.66736 0.25322
 O867 O 0.32953 0.71117 0.25490
 O868 O 0.34191 0.75143 0.22287
 O869 O 0.29060 0.75712 0.33635
 O870 O 0.24693 0.79151 0.34419
 O871 O 0.24889 0.79757 0.17097
 O872 O 0.28483 0.75603 0.16348
 O873 O 0.16738 0.75554 0.20900
 O874 O 0.16007 0.71874 0.25707
 O875 O 0.20492 0.83719 0.24999
 O876 O 0.24863 0.84813 0.28595
 O877 O 0.24810 0.83617 0.20827
 O878 O 0.28379 0.84600 0.25447
 O879 O 0.16700 0.79935 0.25106
 O880 O 0.15492 0.75726 0.28482
 O881 O 0.20547 0.75604 0.17144
 O882 O 0.24912 0.71895 0.16272
 O883 O 0.24620 0.71219 0.33544
 O884 O 0.21145 0.75699 0.34325
 O885 O 0.32898 0.75606 0.29905
 O886 O 0.33703 0.79225 0.25464
 O887 O 0.29158 0.67313 0.25508
 O888 O 0.25113 0.66515 0.21804
 Zr889 Zr 0.24922 0.69900 0.25486
 O890 O 0.22017 0.72578 0.22481
 Zr891 Zr 0.30462 0.75428 0.25574
 O892 O 0.27816 0.78322 0.22498
 Zr893 Zr 0.24850 0.75506 0.31010
 O894 O 0.21976 0.78444 0.28214
 Zr895 Zr 0.24805 0.75552 0.19700
 O896 O 0.27757 0.72631 0.22478
 Zr897 Zr 0.19223 0.75653 0.25186
 O898 O 0.21856 0.72699 0.28228
 Zr899 Zr 0.24759 0.81178 0.25162
 O900 O 0.27664 0.78527 0.28267
 O901 O 0.27795 0.72540 0.28467
 O902 O 0.21829 0.78561 0.22206
 C903 C 0.24512 0.68319 0.32634
 C904 C 0.32048 0.68213 0.25486
 C905 C 0.31963 0.75742 0.32781
 C906 C 0.24877 0.82669 0.17949
 C907 C 0.17650 0.75567 0.18021
 C908 C 0.17600 0.82828 0.25009
 H909 H 0.20717 0.71132 0.21195
 H910 H 0.20657 0.79777 0.29599
 H911 H 0.29109 0.71200 0.29858
 H912 H 0.29257 0.79582 0.21178
 H913 H 0.30105 0.74097 0.17103
 H914 H 0.33550 0.76366 0.20407
 H915 H 0.16195 0.77001 0.30307
 H916 H 0.19544 0.74155 0.33615
 H917 H 0.23215 0.70375 0.16750
 H918 H 0.26597 0.67329 0.20206
 H919 H 0.23269 0.84305 0.30211
 H920 H 0.26069 0.80860 0.33630
 H921 H 0.21791 0.64584 0.25892
 H922 H 0.16146 0.70536 0.23799
 H923 H 0.33039 0.80749 0.27107
 H924 H 0.29868 0.84197 0.23702
 O925 O 0.74293 0.32962 0.29040
 O926 O 0.78095 0.33607 0.24657
 O927 O 0.66130 0.29339 0.24390
 O928 O 0.65028 0.25310 0.21065
 O929 O 0.69767 0.24693 0.32610
 O930 O 0.74173 0.21183 0.33505
 O931 O 0.74464 0.20518 0.16345
 O932 O 0.70707 0.24718 0.15509
 O933 O 0.82395 0.24734 0.20250
 O934 O 0.83023 0.28575 0.25043
 O935 O 0.78580 0.16689 0.24433
 O936 O 0.73960 0.15766 0.27967
 O937 O 0.74487 0.16721 0.20130
 O938 O 0.70784 0.15699 0.24429
 O939 O 0.82357 0.20488 0.24488
 O940 O 0.83532 0.24710 0.27859
 O941 O 0.78668 0.24757 0.16395
 O942 O 0.74409 0.28350 0.15351
 O943 O 0.74164 0.29105 0.32771
 O944 O 0.77615 0.24741 0.33661
 O945 O 0.66018 0.24885 0.28772
 O946 O 0.65307 0.21253 0.24386
 O947 O 0.69945 0.33121 0.24574
 O948 O 0.74083 0.33981 0.21100
 Zr949 Zr 0.74166 0.30514 0.24696
 O950 O 0.77102 0.27815 0.21727
 Zr951 Zr 0.68595 0.25007 0.24545
 O952 O 0.71317 0.22052 0.21600
 Zr953 Zr 0.74062 0.24886 0.30166
 O954 O 0.77042 0.21979 0.27476
 Zr955 Zr 0.74386 0.24801 0.18877
 O956 O 0.71413 0.27789 0.21565
 Zr957 Zr 0.79844 0.24762 0.24501
 O958 O 0.77148 0.27698 0.27507
 Zr959 Zr 0.74309 0.19229 0.24389
 O960 O 0.71290 0.21897 0.27341
 O961 O 0.71200 0.27870 0.27542
 O962 O 0.77296 0.21825 0.21494
 C963 C 0.74285 0.32014 0.31920
 C964 C 0.67052 0.32239 0.24442
 C965 C 0.66891 0.24733 0.31671
 C966 C 0.74546 0.17621 0.17245
 C967 C 0.81542 0.24713 0.17340
 C968 C 0.81466 0.17588 0.24464
 H969 H 0.78431 0.29246 0.20464
 H970 H 0.78333 0.20667 0.28909
 H971 H 0.69847 0.29216 0.28887
 H972 H 0.69925 0.20767 0.20240
 H973 H 0.69156 0.26343 0.16161
 H974 H 0.65645 0.23913 0.19299
 H975 H 0.82769 0.23518 0.29707
 H976 H 0.79284 0.26215 0.32970
 H977 H 0.75882 0.30029 0.16018
 H978 H 0.72740 0.33141 0.19383
 H979 H 0.75716 0.16104 0.29466
 H980 H 0.72654 0.19571 0.32767
 H981 H 0.77393 0.35740 0.25338
 H982 H 0.83059 0.29766 0.23039
 H983 H 0.65992 0.19680 0.25972
 H984 H 0.69228 0.16225 0.22772
 C985 C 0.25579 0.10528 0.09973
 C986 C 0.24011 0.13450 0.09863
 C987 C 0.24104 0.15683 0.12305
 C988 C 0.24967 0.15003 0.15430
 H989 H 0.22839 0.14190 0.07724
 H990 H 0.23262 0.18037 0.11744
 H991 H 0.27205 0.10154 0.11910
 H992 H 0.25378 0.12580 0.16138
 C993 C 0.76800 0.60636 0.59294
 C994 C 0.75130 0.63313 0.59028
 C995 C 0.75208 0.65820 0.61452
 C996 C 0.75696 0.65214 0.64517
 H997 H 0.73757 0.63776 0.56929
 H998 H 0.74673 0.68206 0.60694
 H999 H 0.78403 0.60368 0.61265
 H1000 H 0.75996 0.62803 0.65316
 C1001 C 0.75565 0.89803 0.10781
 C1002 C 0.74026 0.90187 0.13511
 C1003 C 0.74114 0.87793 0.16048
 C1004 C 0.74352 0.84683 0.15469
 H1005 H 0.72816 0.92384 0.14006
 H1006 H 0.73839 0.88625 0.18447
 H1007 H 0.77030 0.87726 0.10466
 H1008 H 0.74389 0.83835 0.13059
 C1009 C 0.23519 0.40211 0.60565
 C1010 C 0.24445 0.37192 0.60297
 C1011 C 0.24258 0.34822 0.62828
 C1012 C 0.24165 0.35518 0.65909
 H1013 H 0.25310 0.36335 0.58053
 H1014 H 0.24452 0.32379 0.62085
 H1015 H 0.22349 0.41025 0.62681
 H1016 H 0.24136 0.37953 0.66695
 C1017 C 0.75159 0.09646 0.89394
 C1018 C 0.73184 0.09742 0.86918
 C1019 C 0.73328 0.12273 0.84530
 C1020 C 0.74044 0.15286 0.85221
 H1021 H 0.71560 0.07842 0.86441
 H1022 H 0.72714 0.11629 0.82135
 H1023 H 0.76914 0.11497 0.89569
 H1024 H 0.74413 0.15996 0.87648
 C1025 C 0.25158 0.60346 0.39433
 C1026 C 0.23570 0.60268 0.36704
 C1027 C 0.23747 0.62822 0.34348
 C1028 C 0.24288 0.65864 0.35078
 H1029 H 0.22257 0.58185 0.36038
 H1030 H 0.23295 0.62156 0.31923
 H1031 H 0.26704 0.62323 0.39912
 H1032 H 0.24518 0.66593 0.37514
 C1033 C 0.24198 0.89538 0.89781
 C1034 C 0.25299 0.89822 0.86828
 C1035 C 0.25053 0.87353 0.84366
 C1036 C 0.24770 0.84255 0.84958
 H1037 H 0.26285 0.92051 0.86074
 H1038 H 0.25280 0.88147 0.81952
 H1039 H 0.22917 0.87437 0.90456
 H1040 H 0.24706 0.83416 0.87366
 C1041 C 0.75828 0.38763 0.39812
 C1042 C 0.74031 0.36172 0.39983
 C1043 C 0.73928 0.33773 0.37451
 C1044 C 0.74384 0.34453 0.34396
 H1045 H 0.72723 0.35660 0.42104
 H1046 H 0.73318 0.31388 0.38140
 H1047 H 0.77353 0.39065 0.37793
 H1048 H 0.74766 0.36872 0.33663
 C1049 C 0.11665 0.23764 0.08845
 C1050 C 0.12212 0.25214 0.11604
 C1051 C 0.15107 0.24659 0.13439
 C1052 C 0.15110 0.25322 0.16516
 H1053 H 0.10440 0.26690 0.12687
 H1054 H 0.17172 0.23655 0.12319
 H1055 H 0.13421 0.22098 0.08006
 H1056 H 0.12954 0.26156 0.17609
 C1057 C 0.60985 0.74349 0.59835
 C1058 C 0.63684 0.75938 0.59428
 C1059 C 0.66306 0.75795 0.61731
 C1060 C 0.65838 0.75359 0.64824
 H1061 H 0.64081 0.77259 0.57287
 H1062 H 0.68664 0.76198 0.60854
 H1063 H 0.60768 0.72786 0.61841
 H1064 H 0.63463 0.75180 0.65730
 C1065 C 0.09266 0.73776 0.89081
 C1066 C 0.09322 0.75744 0.86602
 C1067 C 0.11758 0.75543 0.84137
 C1068 C 0.14742 0.74673 0.84734
 H1069 H 0.07494 0.77480 0.86230
 H1070 H 0.11108 0.76358 0.81805
 H1071 H 0.10999 0.71890 0.89143
 H1072 H 0.15473 0.74119 0.87117
 C1073 C 0.59308 0.23664 0.38735
 C1074 C 0.59027 0.25335 0.36069
 C1075 C 0.61411 0.25209 0.33544
 C1076 C 0.64470 0.24677 0.34134
 H1077 H 0.56969 0.26787 0.35653
 H1078 H 0.60645 0.25789 0.31177
 H1079 H 0.61223 0.21982 0.38957
 H1080 H 0.65278 0.24343 0.36533
 C1081 C 0.91092 0.75306 0.11530
 C1082 C 0.88301 0.73881 0.11930
 C1083 C 0.86380 0.74407 0.14769
 C1084 C 0.83306 0.73735 0.14706
 H1085 H 0.87275 0.72444 0.10089
 H1086 H 0.87449 0.75409 0.16866
 H1087 H 0.91867 0.76942 0.13343
 H1088 H 0.82248 0.72902 0.12530
 C1089 C 0.41798 0.26134 0.61938
 C1090 C 0.38740 0.25393 0.62084
 C1091 C 0.36877 0.25734 0.64995
 C1092 C 0.33758 0.25329 0.64870
 H1093 H 0.37538 0.24582 0.59978
 H1094 H 0.38033 0.26314 0.67200
 H1095 H 0.42945 0.27152 0.63986
 H1096 H 0.32660 0.24834 0.62612
 C1097 C 0.89707 0.25204 0.90160
 C1098 C 0.88858 0.22731 0.88363
 C1099 C 0.86668 0.23052 0.85683
 C1100 C 0.84089 0.24868 0.85798
 H1101 H 0.90013 0.20465 0.88605
 H1102 H 0.87074 0.21556 0.83647
 H1103 H 0.88787 0.27514 0.89533
 H1104 H 0.83484 0.26101 0.87955
 C1105 C 0.38958 0.74630 0.40530
 C1106 C 0.36285 0.76310 0.40761
 C1107 C 0.33808 0.76261 0.38299
 C1108 C 0.34433 0.75841 0.35228
 H1109 H 0.35778 0.77625 0.42888
 H1110 H 0.31414 0.76722 0.39047
 H1111 H 0.39275 0.73080 0.38520
 H1112 H 0.36848 0.75599 0.34449
 C1113 C 0.10632 0.10341 0.25293
 C1114 C 0.10931 0.12590 0.27502
 C1115 C 0.13311 0.15121 0.27300
 C1116 C 0.16163 0.14649 0.26049
 H1117 H 0.09220 0.12747 0.29385
 H1118 H 0.12730 0.17390 0.28335
 H1119 H 0.12113 0.10401 0.23219
 H1120 H 0.16835 0.12306 0.25259
 C1121 C 0.60933 0.60306 0.75053
 C1122 C 0.60619 0.63335 0.74160
 C1123 C 0.63114 0.65753 0.74405
 C1124 C 0.66199 0.65099 0.74582
 H1125 H 0.58366 0.64163 0.73290
 H1126 H 0.62351 0.68190 0.74209
 H1127 H 0.63063 0.59522 0.76221
 H1128 H 0.67006 0.62672 0.74613
 C1129 C 0.90319 0.10948 0.74949
 C1130 C 0.90073 0.13269 0.77095
 C1131 C 0.87567 0.15685 0.76945
 C1132 C 0.84629 0.15076 0.75944
 H1133 H 0.91833 0.13599 0.78904
 H1134 H 0.88142 0.18009 0.77852
 H1135 H 0.88631 0.10940 0.73026
 H1136 H 0.83956 0.12692 0.75301
 C1137 C 0.39717 0.61098 0.24596
 C1138 C 0.39921 0.63770 0.26284
 C1139 C 0.37504 0.66287 0.26137
 C1140 C 0.34457 0.65708 0.25526
 H1141 H 0.41989 0.64233 0.27703
 H1142 H 0.38249 0.68663 0.26725
 H1143 H 0.37788 0.60818 0.22946
 H1144 H 0.33656 0.63304 0.25182
 C1145 C 0.09660 0.89342 0.74243
 C1146 C 0.09479 0.86674 0.75947
 C1147 C 0.11846 0.84119 0.75706
 C1148 C 0.14892 0.84665 0.75085
 H1149 H 0.07511 0.86224 0.77485
 H1150 H 0.11081 0.81750 0.76287
 H1151 H 0.11527 0.89506 0.72514
 H1152 H 0.15718 0.87063 0.74766
 C1153 C 0.59507 0.39582 0.23795
 C1154 C 0.59203 0.36754 0.25185
 C1155 C 0.61590 0.34212 0.24927
 C1156 C 0.64661 0.34769 0.24447
 H1157 H 0.57081 0.36199 0.26474
 H1158 H 0.60800 0.31821 0.25370
 H1159 H 0.61492 0.39996 0.22255
 H1160 H 0.65504 0.37171 0.24237
 C1161 C 0.88476 0.91593 0.26081
 C1162 C 0.88063 0.88774 0.24690
 C1163 C 0.85169 0.86904 0.25114
 C1164 C 0.85213 0.83825 0.24410
 H1165 H 0.89928 0.87685 0.23343
 H1166 H 0.83056 0.88008 0.26033
 H1167 H 0.86619 0.92450 0.27615
 H1168 H 0.87403 0.82754 0.23636
 C1169 C 0.39312 0.40577 0.74087
 C1170 C 0.36646 0.40875 0.75750
 C1171 C 0.34150 0.38442 0.75732
 C1172 C 0.34743 0.35355 0.75297
 H1173 H 0.36166 0.43024 0.77045
 H1174 H 0.31773 0.39225 0.76230
 H1175 H 0.39599 0.38543 0.72559
 H1176 H 0.37143 0.34537 0.75013
 C1177 C 0.10490 0.25239 0.90301
 C1178 C 0.10653 0.23576 0.87602
 C1179 C 0.13082 0.24041 0.85178
 C1180 C 0.16036 0.24993 0.85758
 H1181 H 0.08785 0.21996 0.86908
 H1182 H 0.12412 0.23377 0.82802
 H1183 H 0.12244 0.27049 0.90719
 H1184 H 0.16820 0.25428 0.88149
 C1185 C 0.60510 0.74923 0.40545
 C1186 C 0.60224 0.76115 0.37629
 C1187 C 0.62658 0.75927 0.35157
 C1188 C 0.65746 0.75494 0.35680
 H1189 H 0.57995 0.77115 0.36889
 H1190 H 0.61825 0.76299 0.32771
 H1191 H 0.62617 0.73638 0.41203
 H1192 H 0.66643 0.75272 0.38059
 C1193 C 0.90000 0.74575 0.89596
 C1194 C 0.87392 0.76374 0.89362
 C1195 C 0.85031 0.76065 0.86825
 C1196 C 0.85676 0.75151 0.83867
 H1197 H 0.86727 0.77973 0.91230
 H1198 H 0.82664 0.76819 0.87413
 H1199 H 0.90377 0.72767 0.87823
 H1200 H 0.88073 0.74621 0.83178
 C1201 C 0.40932 0.25644 0.39071
 C1202 C 0.41327 0.24024 0.36374
 C1203 C 0.38969 0.24101 0.33794
 C1204 C 0.35891 0.24441 0.34385
 H1205 H 0.43447 0.22657 0.35987
 H1206 H 0.39768 0.23678 0.31408
 H1207 H 0.38958 0.27258 0.39271
 H1208 H 0.35097 0.24628 0.36802
 C1209 C 0.10403 0.74558 0.10413
 C1210 C 0.13340 0.75666 0.10035
 C1211 C 0.15790 0.75612 0.12511
 C1212 C 0.15159 0.75526 0.15601
 H1213 H 0.14074 0.76528 0.07753
 H1214 H 0.18208 0.75812 0.11729
 H1215 H 0.09756 0.73391 0.12584
 H1216 H 0.12746 0.75492 0.16412
 C1217 C 0.60915 0.24297 0.60268
 C1218 C 0.63914 0.25221 0.59878
 C1219 C 0.66338 0.25067 0.62375
 C1220 C 0.65654 0.25102 0.65452
 H1221 H 0.64700 0.26021 0.57591
 H1222 H 0.68774 0.25099 0.61626
 H1223 H 0.60205 0.23182 0.62446
 H1224 H 0.63229 0.25239 0.66219
 C1225 C 0.89438 0.25079 0.10314
 C1226 C 0.89579 0.23844 0.13223
 C1227 C 0.87045 0.24117 0.15593
 C1228 C 0.84002 0.24611 0.14891
 H1229 H 0.91730 0.22720 0.14017
 H1230 H 0.87729 0.23723 0.18022
 H1231 H 0.87417 0.26480 0.09620
 H1232 H 0.83254 0.24817 0.12460
 C1233 C 0.39326 0.75098 0.60630
 C1234 C 0.39121 0.72988 0.62975
 C1235 C 0.36776 0.73228 0.65533
 C1236 C 0.33880 0.74413 0.65098
 H1237 H 0.40878 0.71138 0.63173
 H1238 H 0.37405 0.72214 0.67792
 H1239 H 0.37794 0.77149 0.60624
 H1240 H 0.33148 0.75166 0.62769
 C1241 C 0.24599 0.11136 0.90197
 C1242 C 0.26282 0.13801 0.90482
 C1243 C 0.26188 0.16351 0.88094
 C1244 C 0.25648 0.15810 0.85022
 H1245 H 0.27633 0.14246 0.92598
 H1246 H 0.26702 0.18726 0.88897
 H1247 H 0.23023 0.10883 0.88202
 H1248 H 0.25349 0.13413 0.84178
 C1249 C 0.75725 0.60130 0.39794
 C1250 C 0.74366 0.59886 0.36943
 C1251 C 0.74378 0.62396 0.34527
 C1252 C 0.74781 0.65476 0.35146
 H1253 H 0.73328 0.57665 0.36225
 H1254 H 0.73892 0.61645 0.32133
 H1255 H 0.77044 0.62230 0.40406
 H1256 H 0.75117 0.66280 0.37545
 C1257 C 0.74079 0.09743 0.10299
 C1258 C 0.75625 0.09637 0.13051
 C1259 C 0.75357 0.12140 0.15462
 C1260 C 0.74734 0.15177 0.14782
 H1261 H 0.77005 0.07578 0.13672
 H1262 H 0.75851 0.11457 0.17873
 H1263 H 0.72463 0.11676 0.09853
 H1264 H 0.74469 0.15928 0.12358
 C1265 C 0.23710 0.59871 0.60476
 C1266 C 0.25192 0.59590 0.63254
 C1267 C 0.25026 0.62034 0.65743
 C1268 C 0.24560 0.65115 0.65145
 H1269 H 0.26451 0.57442 0.63828
 H1270 H 0.25463 0.61263 0.68138
 H1271 H 0.22211 0.61904 0.60069
 H1272 H 0.24343 0.65938 0.62740
 C1273 C 0.76479 0.89484 0.89233
 C1274 C 0.75636 0.86443 0.89540
 C1275 C 0.75921 0.84028 0.87042
 C1276 C 0.76070 0.84684 0.83957
 H1277 H 0.74777 0.85606 0.91789
 H1278 H 0.75790 0.81589 0.87801
 H1279 H 0.77640 0.90279 0.87110
 H1280 H 0.76056 0.87111 0.83154
 C1281 C 0.25133 0.39605 0.39265
 C1282 C 0.26932 0.39786 0.36679
 C1283 C 0.26989 0.37273 0.34250
 C1284 C 0.26547 0.34200 0.34898
 H1285 H 0.28222 0.41925 0.36172
 H1286 H 0.27491 0.37998 0.31857
 H1287 H 0.23622 0.37568 0.39562
 H1288 H 0.26268 0.33436 0.37315
 C1289 C 0.23947 0.89551 0.10040
 C1290 C 0.25531 0.86811 0.09898
 C1291 C 0.25416 0.84410 0.12425
 C1292 C 0.24939 0.85112 0.15476
 H1293 H 0.26827 0.86186 0.07796
 H1294 H 0.25896 0.81990 0.11739
 H1295 H 0.22420 0.89993 0.12034
 H1296 H 0.24674 0.87549 0.16214
 C1297 C 0.76299 0.39296 0.60410
 C1298 C 0.75272 0.39783 0.63366
 C1299 C 0.75374 0.37400 0.65912
 C1300 C 0.75519 0.34277 0.65409
 H1301 H 0.74411 0.42098 0.64036
 H1302 H 0.75130 0.38281 0.68298
 H1303 H 0.77458 0.37099 0.59802
 H1304 H 0.75603 0.33361 0.63028
 C1305 C 0.10240 0.11117 0.76477
 C1306 C 0.09933 0.13981 0.75165
 C1307 C 0.12362 0.16470 0.75422
 C1308 C 0.15440 0.15856 0.75820
 H1309 H 0.07779 0.14611 0.73953
 H1310 H 0.11585 0.18883 0.75061
 H1311 H 0.12272 0.10628 0.77945
 H1312 H 0.16267 0.13438 0.75961
 C1313 C 0.59165 0.61396 0.26760
 C1314 C 0.58924 0.64212 0.25326
 C1315 C 0.61399 0.66666 0.25551
 C1316 C 0.64451 0.65958 0.25977
 H1317 H 0.56835 0.64802 0.23987
 H1318 H 0.60706 0.69090 0.25104
 H1319 H 0.61127 0.60977 0.28340
 H1320 H 0.65179 0.63513 0.26183
 C1321 C 0.10639 0.90676 0.25971
 C1322 C 0.13176 0.90715 0.24080
 C1323 C 0.15686 0.88293 0.24253
 C1324 C 0.15108 0.85255 0.24928
 H1325 H 0.13580 0.92638 0.22462
 H1326 H 0.18043 0.89013 0.23604
 H1327 H 0.10546 0.88865 0.27775
 H1328 H 0.12712 0.84483 0.25329
 C1329 C 0.60632 0.39989 0.73991
 C1330 C 0.60191 0.36996 0.74942
 C1331 C 0.62605 0.34479 0.74817
 C1332 C 0.65711 0.35017 0.74729
 H1333 H 0.57890 0.36274 0.75761
 H1334 H 0.61756 0.32075 0.75010
 H1335 H 0.62815 0.40661 0.72868
 H1336 H 0.66597 0.37412 0.74692
 C1337 C 0.89256 0.10396 0.24140
 C1338 C 0.89504 0.13436 0.25007
 C1339 C 0.86971 0.15804 0.24700
 C1340 C 0.83900 0.15103 0.24513
 H1341 H 0.91730 0.14314 0.25891
 H1342 H 0.87698 0.18254 0.24838
 H1343 H 0.87157 0.09564 0.22953
 H1344 H 0.83127 0.12668 0.24519
 C1345 C 0.39368 0.60191 0.74019
 C1346 C 0.39605 0.63160 0.75110
 C1347 C 0.37073 0.65548 0.74954
 C1348 C 0.33997 0.64874 0.74726
 H1349 H 0.41835 0.63982 0.76037
 H1350 H 0.37809 0.67984 0.75218
 H1351 H 0.37259 0.59442 0.72794
 H1352 H 0.33213 0.62444 0.74618
 C1353 C 0.90382 0.89765 0.73913
 C1354 C 0.87405 0.90045 0.74935
 C1355 C 0.84992 0.87558 0.74661
 C1356 C 0.85641 0.84472 0.74372
 H1357 H 0.86613 0.92269 0.75921
 H1358 H 0.82569 0.88324 0.74908
 H1359 H 0.91112 0.87677 0.72628
 H1360 H 0.88057 0.83658 0.74287
 C1361 C 0.39979 0.39476 0.25173
 C1362 C 0.37541 0.39293 0.23171
 C1363 C 0.35036 0.36899 0.23460
 C1364 C 0.35568 0.33967 0.24520
 H1365 H 0.37210 0.41120 0.21416
 H1366 H 0.32712 0.37542 0.22614
 H1367 H 0.40122 0.37866 0.27152
 H1368 H 0.37942 0.33227 0.25105
   
