data_POSCAR
  _audit_creation_date              2014-09-24
  _audit_creation_method            'ToBaCCo'
  _symmetry_space_group_name_H-M    'P1'
  _symmetry_Int_Tables_number       1
  _symmetry_cell_setting            triclinic
  loop_
  _symmetry_equiv_pos_as_xyz
 x,y,z
_cell_length_a 51.0404
_cell_length_b 50.5490
_cell_length_c 50.4120
_cell_angle_alpha 89.374500
_cell_angle_beta 89.925800
_cell_angle_gamma 90.046000
loop_
  _atom_site_label
  _atom_site_type_symbol
  _atom_site_fract_x
  _atom_site_fract_y
  _atom_site_fract_z
C1 C 0.18176 0.22460 0.21526
 C2 C 0.19660 0.23153 0.19283
 C3 C 0.21801 0.21635 0.18572
 C4 C 0.22480 0.19401 0.20093
 C5 C 0.21024 0.18727 0.22318
 C6 C 0.18854 0.20262 0.23036
 C7 C 0.15940 0.23508 0.22620
 N8 N 0.15229 0.21973 0.24727
 C9 C 0.17014 0.20005 0.25021
 C10 C 0.22099 0.16456 0.23378
 N11 N 0.24134 0.15707 0.21818
 C12 C 0.24403 0.17516 0.19825
 C13 C 0.22829 0.22731 0.16285
 N14 N 0.21343 0.24851 0.15588
 C15 C 0.19413 0.25141 0.17414
 H16 H 0.14881 0.25233 0.21917
 H17 H 0.16941 0.18470 0.26535
 H18 H 0.21450 0.15420 0.25152
 H19 H 0.25879 0.17446 0.18282
 H20 H 0.24508 0.22026 0.15186
 H21 H 0.17934 0.26675 0.17367
 C22 C 0.68568 0.72796 0.71610
 C23 C 0.69917 0.73385 0.69251
 C24 C 0.72109 0.71930 0.68566
 C25 C 0.72972 0.69865 0.70220
 C26 C 0.71635 0.69275 0.72544
 C27 C 0.69417 0.70748 0.73242
 C28 C 0.66404 0.73898 0.72797
 N29 N 0.65942 0.72578 0.75109
 C30 C 0.67752 0.70633 0.75390
 C31 C 0.72917 0.67193 0.73753
 N32 N 0.75002 0.66530 0.72225
 C33 C 0.75039 0.68131 0.70049
 C34 C 0.73049 0.72959 0.66213
 N35 N 0.71465 0.74977 0.65448
 C36 C 0.69554 0.75272 0.67295
 H37 H 0.65251 0.75539 0.72047
 H38 H 0.67856 0.69257 0.77047
 H39 H 0.72376 0.66222 0.75599
 H40 H 0.76472 0.68037 0.68467
 H41 H 0.74762 0.72301 0.65138
 H42 H 0.68035 0.76765 0.67226
 C43 C 0.30838 0.77784 0.71739
 C44 C 0.29352 0.77000 0.69547
 C45 C 0.26953 0.78177 0.69043
 C46 C 0.26001 0.80137 0.70739
 C47 C 0.27468 0.80913 0.72895
 C48 C 0.29905 0.79733 0.73399
 C49 C 0.33254 0.77021 0.72682
 N50 N 0.33818 0.78487 0.74848
 C51 C 0.31772 0.80129 0.75322
 C52 C 0.26112 0.82906 0.74122
 N53 N 0.23825 0.83344 0.72796
 C54 C 0.23776 0.81671 0.70693
 C55 C 0.25968 0.77061 0.66774
 N56 N 0.27726 0.75262 0.65884
 C57 C 0.29789 0.75189 0.67578
 H58 H 0.34514 0.75515 0.71858
 H59 H 0.31665 0.81518 0.76939
 H60 H 0.26747 0.83946 0.75875
 H61 H 0.22314 0.81669 0.69139
 H62 H 0.24111 0.77514 0.65838
 H63 H 0.31483 0.73920 0.67376
 C64 C 0.81340 0.28427 0.21160
 C65 C 0.79851 0.27631 0.18971
 C66 C 0.77449 0.28804 0.18465
 C67 C 0.76503 0.30779 0.20144
 C68 C 0.77967 0.31550 0.22311
 C69 C 0.80398 0.30363 0.22822
 C70 C 0.83751 0.27664 0.22118
 N71 N 0.84321 0.29117 0.24306
 C72 C 0.82241 0.30736 0.24768
 C73 C 0.76615 0.33552 0.23534
 N74 N 0.74362 0.33994 0.22173
 C75 C 0.74287 0.32326 0.20081
 C76 C 0.76453 0.27672 0.16211
 N77 N 0.78204 0.25866 0.15328
 C78 C 0.80278 0.25805 0.17011
 H79 H 0.84951 0.26089 0.21332
 H80 H 0.82101 0.32140 0.26369
 H81 H 0.77242 0.34645 0.25256
 H82 H 0.72763 0.32295 0.18590
 H83 H 0.74598 0.28126 0.15273
 H84 H 0.81963 0.24522 0.16820
 C85 C 0.81967 0.71449 0.28441
 C86 C 0.80459 0.72358 0.30574
 C87 C 0.78119 0.71113 0.31217
 C88 C 0.77267 0.68940 0.29743
 C89 C 0.78751 0.68061 0.27630
 C90 C 0.81113 0.69324 0.26980
 C91 C 0.84341 0.72228 0.27395
 N92 N 0.84981 0.70599 0.25354
 C93 C 0.82970 0.68850 0.25069
 C94 C 0.77526 0.65859 0.26638
 N95 N 0.75363 0.65359 0.28129
 C96 C 0.75162 0.67252 0.30008
 C97 C 0.77101 0.72370 0.33395
 N98 N 0.78775 0.74326 0.34093
 C99 C 0.80826 0.74351 0.32377
 H100 H 0.85545 0.73825 0.28127
 H101 H 0.82794 0.67403 0.23512
 H102 H 0.78189 0.64664 0.25000
 H103 H 0.73638 0.67341 0.31500
 H104 H 0.75294 0.71887 0.34418
 H105 H 0.82465 0.75709 0.32453
 C106 C 0.31525 0.21777 -0.21613
 C107 C 0.30219 0.22336 -0.19239
 C108 C 0.28206 0.20712 -0.18362
 C109 C 0.27491 0.18492 -0.19843
 C110 C 0.28789 0.17936 -0.22178
 C111 C 0.30800 0.19610 -0.23088
 C112 C 0.33557 0.23004 -0.22928
 N113 N 0.34050 0.21680 -0.25211
 C114 C 0.32390 0.19570 -0.25294
 C115 C 0.27693 0.15672 -0.23183
 N116 N 0.25785 0.14800 -0.21493
 C117 C 0.25621 0.16563 -0.19473
 C118 C 0.27265 0.21765 -0.16040
 N119 N 0.28683 0.23964 -0.15484
 C120 C 0.30476 0.24343 -0.17439
 H121 H 0.34568 0.24771 -0.22290
 H122 H 0.32405 0.18049 -0.26791
 H123 H 0.28182 0.14797 -0.25070
 H124 H 0.24282 0.16421 -0.17809
 H125 H 0.25648 0.21015 -0.14859
 H126 H 0.31847 0.25977 -0.17550
 C127 C 0.69078 0.27308 -0.22198
 C128 C 0.70591 0.26485 -0.20019
 C129 C 0.72516 0.28132 -0.19036
 C130 C 0.72933 0.30630 -0.20193
 C131 C 0.71407 0.31464 -0.22302
 C132 C 0.69471 0.29785 -0.23319
 C133 C 0.67126 0.26097 -0.23621
 N134 N 0.66341 0.27764 -0.25607
 C135 C 0.67730 0.30052 -0.25385
 C136 C 0.72272 0.33947 -0.23035
 N137 N 0.74277 0.34656 -0.21407
 C138 C 0.74710 0.32604 -0.19691
 C139 C 0.73655 0.26849 -0.16913
 N140 N 0.72474 0.24460 -0.16589
 C141 C 0.70581 0.24227 -0.18464
 H142 H 0.66291 0.24169 -0.23191
 H143 H 0.67548 0.31760 -0.26686
 H144 H 0.71580 0.35087 -0.24725
 H145 H 0.76200 0.32555 -0.18163
 H146 H 0.75195 0.27613 -0.15660
 H147 H 0.69253 0.22567 -0.18638
 C148 C 0.18753 0.77902 0.28368
 C149 C 0.20286 0.76987 0.30493
 C150 C 0.22436 0.78435 0.31312
 C151 C 0.23074 0.80824 0.30021
 C152 C 0.21564 0.81720 0.27926
 C153 C 0.19400 0.80245 0.27082
 C154 C 0.16533 0.76932 0.27172
 N155 N 0.15809 0.78645 0.25214
 C156 C 0.17571 0.80658 0.25119
 C157 C 0.22597 0.84100 0.27094
 N158 N 0.24677 0.84714 0.28664
 C159 C 0.25009 0.82674 0.30423
 C160 C 0.23523 0.77104 0.33437
 N161 N 0.22101 0.74877 0.33903
 C162 C 0.20098 0.74803 0.32136
 H163 H 0.15508 0.75124 0.27691
 H164 H 0.17520 0.82300 0.23721
 H165 H 0.21926 0.85250 0.25403
 H166 H 0.26499 0.82577 0.31948
 H167 H 0.25212 0.77714 0.34576
 H168 H 0.18598 0.73289 0.32080
 C169 C 0.46872 0.43478 0.46537
 C170 C 0.47725 0.45161 0.44485
 C171 C 0.46398 0.47493 0.43953
 C172 C 0.44209 0.48179 0.45480
 C173 C 0.43375 0.46526 0.47520
 C174 C 0.44711 0.44153 0.48046
 C175 C 0.47813 0.41116 0.47521
 N176 N 0.46255 0.40327 0.49565
 C177 C 0.44371 0.42184 0.49924
 C178 C 0.41242 0.47711 0.48685
 N179 N 0.40787 0.50048 0.47417
 C180 C 0.42568 0.50335 0.45432
 C181 C 0.47674 0.48741 0.41883
 N182 N 0.49754 0.47233 0.41177
 C183 C 0.49786 0.45026 0.42733
 H184 H 0.49528 0.40064 0.46834
 H185 H 0.42881 0.42112 0.51454
 H186 H 0.40109 0.46942 0.50339
 H187 H 0.42655 0.51993 0.44055
 H188 H 0.47151 0.50616 0.40970
 H189 H 0.51211 0.43447 0.42596
 C190 C -0.02933 -0.06540 0.96988
 C191 C -0.01984 -0.04821 0.95005
 C192 C -0.03168 -0.02389 0.94591
 C193 C -0.05304 -0.01640 0.96164
 C194 C -0.06239 -0.03337 0.98110
 C195 C -0.05047 -0.05805 0.98523
 C196 C -0.02135 -0.08991 0.97879
 N197 N -0.03737 -0.09795 0.99900
 C198 C -0.05500 -0.07818 1.00320
 C199 C -0.08337 -0.02115 0.99293
 N200 N -0.08670 0.00319 0.98157
 C201 C -0.06836 0.00596 0.96207
 C202 C -0.01850 -0.01143 0.92549
 N203 N 0.00125 -0.02745 0.91745
 C204 C 0.00043 -0.05010 0.93213
 H205 H -0.00514 -0.10114 0.97086
 H206 H -0.06914 -0.07760 1.01921
 H207 H -0.09505 -0.02928 1.00901
 H208 H -0.06694 0.02249 0.94830
 H209 H -0.02297 0.00779 0.91696
 H210 H 0.01361 -0.06670 0.92985
 C211 C 1.03035 0.56241 0.96283
 C212 C 1.02028 0.54599 0.94306
 C213 C 1.03401 0.52368 0.93552
 C214 C 1.05804 0.51762 0.94759
 C215 C 1.06778 0.53368 0.96727
 C216 C 1.05383 0.55623 0.97496
 C217 C 1.02144 0.58548 0.97385
 N218 N 1.03914 0.59387 0.99215
 C219 C 1.05879 0.57564 0.99322
 C220 C 1.09141 0.52322 0.97515
 N221 N 1.09671 0.50151 0.96029
 C222 C 1.07599 0.49774 0.94373
 C223 C 1.02010 0.51204 0.91536
 N224 N 0.99831 0.52672 0.91071
 C225 C 0.99833 0.54763 0.92734
 H226 H 1.00280 0.59477 0.96956
 H227 H 1.07589 0.57671 1.00585
 H228 H 1.10424 0.53142 0.99006
 H229 H 1.07363 0.48125 0.93041
 H230 H 1.02563 0.49457 0.90447
 H231 H 0.98363 0.56306 0.92762
 C232 C 0.53263 0.06369 0.46442
 C233 C 0.52547 0.05044 0.44124
 C234 C 0.54108 0.03029 0.43172
 C235 C 0.56427 0.02344 0.44496
 C236 C 0.57168 0.03692 0.46744
 C237 C 0.55561 0.05700 0.47744
 C238 C 0.52100 0.08369 0.47848
 N239 N 0.53624 0.08903 0.49979
 C240 C 0.55762 0.07312 0.49919
 C241 C 0.59531 0.02660 0.47558
 N242 N 0.60266 0.00734 0.45840
 C243 C 0.58336 0.00497 0.43995
 C244 C 0.52952 0.02114 0.40896
 N245 N 0.50767 0.03572 0.40408
 C246 C 0.50479 0.05339 0.42397
 H247 H 0.50277 0.09358 0.47371
 H248 H 0.57327 0.07315 0.51366
 H249 H 0.60593 0.03215 0.49326
 H250 H 0.58354 -0.00868 0.42354
 H251 H 0.53657 0.00519 0.39670
 H252 H 0.48898 0.06756 0.42549
 C253 C -0.02672 0.06467 0.53263
 C254 C -0.01834 0.04961 0.55453
 C255 C -0.03166 0.02677 0.56173
 C256 C -0.05358 0.01871 0.54713
 C257 C -0.06184 0.03357 0.52549
 C258 C -0.04837 0.05672 0.51821
 C259 C -0.01690 0.08708 0.52046
 N260 N -0.03203 0.09274 0.49903
 C261 C -0.05144 0.07449 0.49757
 C262 C -0.08293 0.02068 0.51461
 N263 N -0.08748 -0.00171 0.52898
 C264 C -0.06987 -0.00295 0.54912
 C265 C -0.01872 0.01581 0.58312
 N266 N 0.00221 0.03131 0.58882
 C267 C 0.00242 0.05222 0.57168
 H268 H 0.00021 0.09821 0.52639
 H269 H -0.06627 0.07391 0.48224
 H270 H -0.09400 0.02691 0.49734
 H271 H -0.06894 -0.01855 0.56397
 H272 H -0.02390 -0.00226 0.59361
 H273 H 0.01672 0.06805 0.57168
 C274 C 0.47105 0.56646 0.03100
 C275 C 0.47888 0.55131 0.05307
 C276 C 0.46521 0.52859 0.05997
 C277 C 0.44360 0.52070 0.04486
 C278 C 0.43591 0.53564 0.02305
 C279 C 0.44968 0.55875 0.01617
 C280 C 0.47991 0.59001 0.02042
 N281 N 0.46405 0.59727 -0.00012
 C282 C 0.44582 0.57782 -0.00310
 C283 C 0.41369 0.52405 0.01298
 N284 N 0.40759 0.50273 0.02841
 C285 C 0.42591 0.50032 0.04775
 C286 C 0.47626 0.51864 0.08286
 N287 N 0.49606 0.53496 0.09010
 C288 C 0.49805 0.55482 0.07189
 H289 H 0.49611 0.60157 0.02792
 H290 H 0.43114 0.57715 -0.01857
 H291 H 0.40247 0.53084 -0.00398
 H292 H 0.42593 0.48520 0.06313
 H293 H 0.47013 0.50111 0.09374
 H294 H 0.51203 0.57091 0.07270
 C295 C 0.52574 -0.05942 0.03457
 C296 C 0.51860 -0.04597 0.05762
 C297 C 0.53326 -0.02464 0.06607
 C298 C 0.55498 -0.01609 0.05117
 C299 C 0.56196 -0.02932 0.02829
 C300 C 0.54736 -0.05124 0.02005
 C301 C 0.51588 -0.08159 0.02256
 N302 N 0.53124 -0.08725 0.00138
 C303 C 0.55030 -0.06861 -0.00061
 C304 C 0.58370 -0.01683 0.01795
 N305 N 0.58979 0.00383 0.03375
 C306 C 0.57260 0.00428 0.05431
 C307 C 0.52223 -0.01609 0.08940
 N308 N 0.50138 -0.03183 0.09535
 C309 C 0.49874 -0.04981 0.07569
 H310 H 0.49915 -0.09317 0.02904
 H311 H 0.56555 -0.06820 -0.01555
 H312 H 0.59420 -0.02213 0.00010
 H313 H 0.57288 0.01847 0.07024
 H314 H 0.52892 0.00029 0.10128
 H315 H 0.48338 -0.06453 0.07455
 C316 C 1.02268 0.44028 0.53461
 C317 C 1.01470 0.45514 0.55651
 C318 C 1.03046 0.47538 0.56572
 C319 C 1.05454 0.48076 0.55334
 C320 C 1.06257 0.46585 0.53202
 C321 C 1.04644 0.44565 0.52241
 C322 C 1.01109 0.41995 0.52098
 N323 N 1.02710 0.41317 0.50065
 C324 C 1.04893 0.42849 0.50155
 C325 C 1.08663 0.47536 0.52411
 N326 N 1.09366 0.49556 0.54030
 C327 C 1.07374 0.49928 0.55789
 C328 C 1.01784 0.48640 0.58706
 N329 N 0.99488 0.47335 0.59088
 C330 C 0.99282 0.45410 0.57247
 H331 H 0.99227 0.41095 0.52523
 H332 H 1.06526 0.42730 0.48789
 H333 H 1.09767 0.46872 0.50708
 H334 H 1.07344 0.51404 0.57329
 H335 H 1.02487 0.50250 0.59914
 H336 H 0.97662 0.44037 0.57093
 C337 C 0.39008 0.00735 0.19808
 H338 H 0.37335 0.02000 0.19487
 C339 C 0.40656 0.00153 0.17676
 H340 H 0.40214 0.00951 0.15725
 C341 C 0.41651 -0.01829 0.22716
 H342 H 0.42026 -0.02594 0.24691
 C343 C 0.43387 -0.02394 0.20660
 H344 H 0.45119 -0.03564 0.21072
 N345 N 0.39506 -0.00297 0.22261
 C346 C 0.35020 0.05362 0.26223
 H347 H 0.36417 0.05510 0.27820
 C348 C 0.33181 0.07375 0.25844
 H349 H 0.33199 0.09078 0.27130
 C350 C 0.33192 0.02927 0.22685
 H351 H 0.33168 0.01152 0.21506
 C352 C 0.31344 0.04909 0.22214
 H353 H 0.29940 0.04687 0.20623
 Zn354 Zn 0.37345 0.00343 0.25247
 N355 N 0.35008 0.03200 0.24636
 C356 C 0.41216 0.03177 0.27941
 N357 N 0.39601 0.01042 0.28132
 C358 C 0.39752 -0.00677 0.30223
 C359 C 0.41604 -0.00290 0.32218
 C360 C 0.43063 0.03663 0.29915
 C361 C 0.35396 -0.04863 0.24480
 C362 C 0.33666 -0.06966 0.24934
 C363 C 0.31720 -0.04498 0.28514
 C364 C 0.33478 -0.02444 0.27991
 N365 N 0.35257 -0.02655 0.25993
 H366 H 0.41084 0.04486 0.26235
 H367 H 0.38492 -0.02394 0.30308
 H368 H 0.41742 -0.01698 0.33847
 H369 H 0.44323 0.05383 0.29752
 H370 H 0.36808 -0.04973 0.22885
 H371 H 0.33756 -0.08701 0.23696
 H372 H 0.30293 -0.04302 0.30092
 H373 H 0.33402 -0.00655 0.29146
 C374 C 0.31300 0.07146 0.23835
 C375 C 0.42860 -0.01459 0.18085
 C376 C 0.31774 -0.06765 0.26939
 C377 C 0.43315 0.01877 0.32049
 C378 C 0.10214 -0.01183 0.70181
 H379 H 0.11428 -0.02929 0.70303
 C380 C 0.08682 -0.00747 0.67928
 H381 H 0.08727 -0.02157 0.66326
 C382 C 0.08577 0.02726 0.72138
 H383 H 0.08513 0.04046 0.73811
 C384 C 0.07023 0.03245 0.69914
 H385 H 0.05782 0.04981 0.69865
 N386 N 0.10159 0.00559 0.72221
 C387 C 0.13582 -0.05461 0.76305
 H388 H 0.11991 -0.05424 0.77721
 C389 C 0.15042 -0.07773 0.75992
 H390 H 0.14588 -0.09507 0.77187
 C391 C 0.16155 -0.03249 0.73044
 H392 H 0.16579 -0.01466 0.71918
 C393 C 0.17658 -0.05519 0.72665
 H394 H 0.19247 -0.05488 0.71238
 Zn395 Zn 0.12245 -0.00100 0.75284
 N396 N 0.14158 -0.03263 0.74835
 C397 C 0.07391 -0.00535 0.78003
 N398 N 0.10039 -0.00437 0.78318
 C399 C 0.11140 -0.00642 0.80770
 C400 C 0.09566 -0.00910 0.83024
 C401 C 0.05745 -0.00794 0.80206
 C402 C 0.14559 0.05005 0.74411
 C403 C 0.16429 0.06985 0.74795
 C404 C 0.18640 0.04111 0.77925
 C405 C 0.16727 0.02191 0.77490
 N406 N 0.14715 0.02673 0.75781
 H407 H 0.06545 -0.00449 0.76043
 H408 H 0.13242 -0.00625 0.80984
 H409 H 0.10466 -0.01091 0.84962
 H410 H 0.03642 -0.00869 0.79931
 H411 H 0.13002 0.05342 0.73006
 H412 H 0.16280 0.08838 0.73707
 H413 H 0.20223 0.03709 0.79300
 H414 H 0.16877 0.00292 0.78482
 C415 C 0.17090 -0.07817 0.74136
 C416 C 0.07095 0.01511 0.67765
 C417 C 0.18501 0.06534 0.76559
 C418 C 0.06835 -0.00954 0.82751
 C419 C 0.57989 0.49005 0.21481
 H420 H 0.57813 0.47235 0.22694
 C421 C 0.56247 0.49447 0.19391
 H422 H 0.54735 0.48006 0.18977
 C423 C 0.60151 0.53067 0.20557
 H424 H 0.61647 0.54493 0.21044
 C425 C 0.58449 0.53588 0.18448
 H426 H 0.58655 0.55403 0.17305
 N427 N 0.59899 0.50799 0.22015
 C428 C 0.66004 0.46508 0.26293
 H429 H 0.66198 0.47759 0.28010
 C430 C 0.67622 0.44305 0.26017
 H431 H 0.69065 0.43849 0.27528
 C432 C 0.63910 0.45593 0.22207
 H433 H 0.62489 0.46124 0.20708
 C434 C 0.65487 0.43367 0.21854
 H435 H 0.65269 0.42184 0.20090
 Zn436 Zn 0.62077 0.50120 0.24975
 N437 N 0.64170 0.47089 0.24420
 C438 C 0.60015 0.47330 0.29433
 N439 N 0.59873 0.49594 0.27954
 C440 C 0.58109 0.51522 0.28532
 C441 C 0.56465 0.51257 0.30735
 C442 C 0.58408 0.46986 0.31651
 C443 C 0.66263 0.53479 0.23700
 C444 C 0.68100 0.55486 0.24083
 C445 C 0.66033 0.56458 0.28277
 C446 C 0.64241 0.54426 0.27820
 N447 N 0.64379 0.52993 0.25554
 H448 H 0.61373 0.45788 0.28901
 H449 H 0.58003 0.53278 0.27292
 H450 H 0.55092 0.52817 0.31202
 H451 H 0.58546 0.45185 0.32827
 H452 H 0.66350 0.52284 0.21934
 H453 H 0.69604 0.55852 0.22605
 H454 H 0.65922 0.57577 0.30094
 H455 H 0.62771 0.53975 0.29299
 C456 C 0.67345 0.42693 0.23792
 C457 C 0.56457 0.51776 0.17872
 C458 C 0.68000 0.56979 0.26406
 C459 C 0.56643 0.48986 0.32341
 C460 C 0.91195 0.51384 0.71722
 H461 H 0.91454 0.53045 0.73031
 C462 C 0.92842 0.51090 0.69533
 H463 H 0.94384 0.52521 0.69164
 C464 C 0.88916 0.47452 0.70646
 H465 H 0.87417 0.46013 0.71107
 C466 C 0.90505 0.47096 0.68420
 H467 H 0.90197 0.45399 0.67165
 N468 N 0.89250 0.49602 0.72213
 C469 C 0.83141 0.53813 0.76484
 H470 H 0.82904 0.52520 0.78192
 C471 C 0.81537 0.56032 0.76184
 H472 H 0.80055 0.56447 0.77661
 C473 C 0.85315 0.54816 0.72436
 H474 H 0.86762 0.54317 0.70960
 C475 C 0.83761 0.57061 0.72065
 H476 H 0.84035 0.58293 0.70315
 Zn477 Zn 0.87085 0.50216 0.75202
 N478 N 0.85007 0.53268 0.74640
 C479 C 0.89124 0.52872 0.79700
 N480 N 0.89301 0.50679 0.78169
 C481 C 0.91108 0.48765 0.78685
 C482 C 0.92795 0.48989 0.80849
 C483 C 0.90757 0.53164 0.81897
 C484 C 0.82975 0.46730 0.73948
 C485 C 0.81157 0.44708 0.74404
 C486 C 0.82978 0.44079 0.78786
 C487 C 0.84789 0.46079 0.78233
 N488 N 0.84764 0.47354 0.75841
 H489 H 0.87717 0.54399 0.79227
 H490 H 0.91233 0.47062 0.77409
 H491 H 0.94237 0.47463 0.81232
 H492 H 0.90584 0.54906 0.83116
 H493 H 0.82961 0.47811 0.72084
 H494 H 0.79773 0.44197 0.72865
 H495 H 0.83005 0.43096 0.80707
 H496 H 0.86180 0.46643 0.79737
 C497 C 0.81872 0.57703 0.73973
 C498 C 0.92464 0.48955 0.67822
 C499 C 0.81120 0.43390 0.76867
 C500 C 0.92595 0.51190 0.82507
 C501 C 0.22491 0.42263 -0.00451
 H502 H 0.24241 0.42994 0.00495
 C503 C 0.20441 0.44009 -0.00990
 H504 H 0.20643 0.46080 -0.00498
 C505 C 0.20052 0.38686 -0.02184
 H506 H 0.19899 0.36612 -0.02634
 C507 C 0.17944 0.40365 -0.02743
 H508 H 0.16178 0.39574 -0.03621
 N509 N 0.22288 0.39662 -0.01094
 C510 C 0.26149 0.33228 0.03135
 H511 H 0.27837 0.32915 0.01877
 C512 C 0.25627 0.31485 0.05236
 H513 H 0.26922 0.29825 0.05604
 C514 C 0.22362 0.35742 0.04151
 H515 H 0.21091 0.37398 0.03705
 C516 C 0.21775 0.34054 0.06282
 H517 H 0.20058 0.34420 0.07487
 Zn518 Zn 0.25201 0.37413 -0.00398
 N519 N 0.24510 0.35291 0.02623
 C520 C 0.29545 0.39390 0.02505
 N521 N 0.28199 0.39555 0.00179
 C522 C 0.28861 0.41363 -0.01729
 C523 C 0.30923 0.43124 -0.01319
 C524 C 0.31631 0.41109 0.02990
 C525 C 0.24084 0.33047 -0.03585
 C526 C 0.24506 0.31166 -0.05547
 C527 C 0.28451 0.33499 -0.06825
 C528 C 0.27957 0.35334 -0.04836
 N529 N 0.25791 0.35090 -0.03273
 H530 H 0.28972 0.37963 0.04008
 H531 H 0.27738 0.41477 -0.03545
 H532 H 0.31408 0.44583 -0.02831
 H533 H 0.32668 0.40994 0.04861
 H534 H 0.22431 0.32830 -0.02257
 H535 H 0.23143 0.29541 -0.05770
 H536 H 0.30187 0.33701 -0.08048
 H537 H 0.29334 0.36918 -0.04523
 C538 C 0.23394 0.31869 0.06805
 C539 C 0.18154 0.43069 -0.02188
 C540 C 0.26728 0.31374 -0.07169
 C541 C 0.32302 0.43024 0.01078
 C542 C 0.71651 0.08392 -0.00911
 H543 H 0.72882 0.08116 -0.02635
 C544 C 0.69461 0.06781 -0.00512
 H545 H 0.68995 0.05264 -0.01938
 C546 C 0.70758 0.10703 0.03057
 H547 H 0.71286 0.12211 0.04460
 C548 C 0.68552 0.09130 0.03535
 H549 H 0.67381 0.09443 0.05298
 N550 N 0.72226 0.10342 0.00835
 C551 C 0.76514 0.16315 -0.03716
 H552 H 0.78214 0.16545 -0.02460
 C553 C 0.76239 0.17887 -0.05992
 H554 H 0.77733 0.19331 -0.06497
 C555 C 0.72464 0.14187 -0.04571
 H556 H 0.70973 0.12780 -0.03989
 C557 C 0.72119 0.15708 -0.06874
 H558 H 0.70374 0.15456 -0.08065
 Zn559 Zn 0.75182 0.12493 0.00089
 N560 N 0.74653 0.14492 -0.03064
 C561 C 0.79547 0.10250 -0.02570
 N562 N 0.78118 0.10242 -0.00288
 C563 C 0.78742 0.08612 0.01781
 C564 C 0.80960 0.07003 0.01657
 C565 C 0.81769 0.08658 -0.02785
 C566 C 0.73918 0.16816 0.03290
 C567 C 0.74295 0.18720 0.05242
 C568 C 0.78491 0.16741 0.06245
 C569 C 0.78039 0.14882 0.04271
 N570 N 0.75770 0.14935 0.02856
 H571 H 0.78978 0.11499 -0.04222
 H572 H 0.77541 0.08607 0.03551
 H573 H 0.81474 0.05760 0.03340
 H574 H 0.82906 0.08693 -0.04600
 H575 H 0.72150 0.16840 0.02108
 H576 H 0.72808 0.20207 0.05574
 H577 H 0.80294 0.16667 0.07374
 H578 H 0.79520 0.13419 0.03861
 C579 C 0.74033 0.17568 -0.07605
 C580 C 0.67862 0.07178 0.01710
 C581 C 0.76616 0.18702 0.06725
 C582 C 0.82527 0.07062 -0.00628
 C583 C 0.21142 0.58365 0.49087
 H584 H 0.22136 0.58348 0.47191
 C585 C 0.19126 0.56562 0.49607
 H586 H 0.18537 0.55184 0.48089
 C587 C 0.20713 0.60160 0.53391
 H588 H 0.21369 0.61529 0.54879
 C589 C 0.18717 0.58364 0.54007
 H590 H 0.17829 0.58383 0.55959
 N591 N 0.21878 0.60132 0.50962
 C592 C 0.26001 0.66387 0.46590
 H593 H 0.27727 0.66541 0.47822
 C594 C 0.25714 0.68047 0.44381
 H595 H 0.27227 0.69479 0.43901
 C596 C 0.21907 0.64351 0.45725
 H597 H 0.20407 0.62943 0.46280
 C598 C 0.21545 0.65971 0.43492
 H599 H 0.19777 0.65788 0.42321
 Zn600 Zn 0.24757 0.62389 0.50219
 N601 N 0.24134 0.64553 0.47193
 C602 C 0.29158 0.60381 0.47401
 N603 N 0.27711 0.60201 0.49666
 C604 C 0.28300 0.58400 0.51600
 C605 C 0.30465 0.56737 0.51331
 C606 C 0.31349 0.58767 0.47059
 C607 C 0.23457 0.66454 0.53697
 C608 C 0.23829 0.68262 0.55736
 C609 C 0.28136 0.66415 0.56479
 C610 C 0.27682 0.64638 0.54429
 N611 N 0.25366 0.64681 0.53095
 H612 H 0.28624 0.61773 0.45856
 H613 H 0.27093 0.58273 0.53362
 H614 H 0.30935 0.55326 0.52891
 H615 H 0.32507 0.58938 0.45263
 H616 H 0.21647 0.66462 0.52583
 H617 H 0.22292 0.69655 0.56213
 H618 H 0.29988 0.66373 0.57526
 H619 H 0.29194 0.63251 0.53888
 C620 C 0.23483 0.67816 0.42787
 C621 C 0.17927 0.56518 0.52113
 C622 C 0.26203 0.68266 0.57129
 C623 C 0.32028 0.56943 0.49054
 C624 C 0.71852 0.91623 0.50536
 H625 H 0.72816 0.91569 0.52446
 C626 C 0.69893 0.93486 0.50035
 H627 H 0.69315 0.94838 0.51582
 C628 C 0.71430 0.89925 0.46192
 H629 H 0.72060 0.88555 0.44691
 C630 C 0.69496 0.91790 0.45591
 H631 H 0.68629 0.91832 0.43631
 N632 N 0.72561 0.89873 0.48635
 C633 C 0.76223 0.83328 0.52954
 H634 H 0.78017 0.83149 0.51825
 C635 C 0.75697 0.81554 0.55028
 H636 H 0.77094 0.80010 0.55504
 C637 C 0.72189 0.85529 0.53681
 H638 H 0.70803 0.87045 0.53124
 C639 C 0.71596 0.83809 0.55784
 H640 H 0.69779 0.84048 0.56869
 Zn641 Zn 0.75334 0.87509 0.49411
 N642 N 0.74487 0.85278 0.52333
 C643 C 0.79678 0.89297 0.52467
 N644 N 0.78319 0.89590 0.50161
 C645 C 0.79000 0.91461 0.48326
 C646 C 0.81163 0.93092 0.48746
 C647 C 0.81863 0.90883 0.52962
 C648 C 0.74125 0.83491 0.45852
 C649 C 0.74573 0.81660 0.43847
 C650 C 0.78864 0.83576 0.43164
 C651 C 0.78343 0.85359 0.45195
 N652 N 0.76003 0.85284 0.46492
 H653 H 0.79070 0.87844 0.53929
 H654 H 0.77858 0.91678 0.46530
 H655 H 0.81699 0.94566 0.47267
 H656 H 0.82943 0.90635 0.54797
 H657 H 0.72294 0.83459 0.46935
 H658 H 0.73077 0.80220 0.43377
 H659 H 0.80731 0.83650 0.42143
 H660 H 0.79827 0.86768 0.45757
 C661 C 0.73349 0.81776 0.56454
 C662 C 0.68729 0.93616 0.47518
 C663 C 0.76983 0.81668 0.42511
 C664 C 0.82631 0.92786 0.51074
 C665 C 0.00715 0.22026 0.41525
 H666 H 0.02424 0.23279 0.41707
 C667 C 0.00414 0.19828 0.43196
 H668 H 0.01890 0.19392 0.44679
 C669 C -0.03311 0.21085 0.39391
 H670 H -0.04774 0.21597 0.37929
 C671 C -0.03682 0.18856 0.41013
 H672 H -0.05417 0.17648 0.40773
 N673 N -0.01108 0.22581 0.39634
 C674 C 0.03117 0.26714 0.33329
 H675 H 0.01985 0.28519 0.33185
 C676 C 0.05178 0.26275 0.31565
 H677 H 0.05650 0.27751 0.30065
 C678 C 0.03854 0.22556 0.35421
 H679 H 0.03302 0.21087 0.36889
 C680 C 0.05934 0.22041 0.33701
 H681 H 0.06990 0.20188 0.33868
 Zn682 Zn -0.00441 0.25534 0.37391
 N683 N 0.02501 0.24868 0.35213
 C684 C 0.02475 0.29850 0.39447
 N685 N 0.00181 0.28480 0.39588
 C686 C -0.01714 0.29128 0.41366
 C687 C -0.01373 0.31280 0.43043
 C688 C 0.02897 0.32015 0.41091
 C689 C -0.03957 0.24330 0.33305
 C690 C -0.05950 0.24797 0.31462
 C691 C -0.06516 0.29161 0.33284
 C692 C -0.04530 0.28603 0.35108
 N693 N -0.03301 0.26216 0.35092
 H694 H 0.03985 0.29264 0.38072
 H695 H -0.03499 0.27975 0.41464
 H696 H -0.02904 0.31795 0.44434
 H697 H 0.04725 0.33098 0.40965
 H698 H -0.02914 0.22468 0.33300
 H699 H -0.06469 0.23276 0.30060
 H700 H -0.07463 0.31078 0.33298
 H701 H -0.03939 0.30103 0.36494
 C702 C 0.06588 0.23903 0.31733
 C703 C -0.01776 0.18184 0.42903
 C704 C -0.07221 0.27255 0.31416
 C705 C 0.00941 0.32766 0.42886
 C706 C 0.00121 0.69179 0.10553
 H707 H -0.01203 0.68810 0.12186
 C708 C 0.00608 0.67170 0.08736
 H709 H -0.00327 0.65259 0.08993
 C710 C 0.02869 0.72125 0.08137
 H711 H 0.03671 0.74089 0.07862
 C712 C 0.03413 0.70173 0.06281
 H713 H 0.04684 0.70619 0.04613
 N714 N 0.01249 0.71603 0.10225
 C715 C -0.02170 0.71690 0.16611
 H716 H -0.00265 0.70784 0.16862
 C717 C -0.04204 0.71042 0.18352
 H718 H -0.03856 0.69645 0.19957
 C719 C -0.04903 0.74724 0.14302
 H720 H -0.05155 0.76193 0.12752
 C721 C -0.07003 0.74102 0.15975
 H722 H -0.08869 0.75085 0.15691
 Zn723 Zn 0.00354 0.74453 0.12468
 N724 N -0.02546 0.73512 0.14641
 C725 C 0.00439 0.79806 0.10764
 N726 N -0.00541 0.77358 0.10271
 C727 C -0.02129 0.76911 0.08158
 C728 C -0.02798 0.78982 0.06437
 C729 C -0.00197 0.81939 0.09102
 C730 C 0.05712 0.75386 0.13722
 C731 C 0.07807 0.76072 0.15360
 C732 C 0.04737 0.76774 0.18932
 C733 C 0.02701 0.76094 0.17226
 N734 N 0.03216 0.75390 0.14679
 H735 H 0.01711 0.80106 0.12448
 H736 H -0.02856 0.74936 0.07801
 H737 H -0.04033 0.78599 0.04739
 H738 H 0.00588 0.83884 0.09508
 H739 H 0.06089 0.74844 0.11695
 H740 H 0.09786 0.76049 0.14582
 H741 H 0.04301 0.77284 0.20967
 H742 H 0.00705 0.76141 0.17939
 C743 C -0.06665 0.72233 0.18022
 C744 C 0.02234 0.67680 0.06549
 C745 C 0.07322 0.76789 0.17993
 C746 C -0.01851 0.81536 0.06924
 C747 C 0.48950 0.20993 0.58604
 H748 H 0.47205 0.22188 0.58375
 C749 C 0.49350 0.18817 0.56973
 H750 H 0.47912 0.18337 0.55474
 C751 C 0.52995 0.20208 0.60784
 H752 H 0.54425 0.20778 0.62249
 C753 C 0.53466 0.18008 0.59202
 H754 H 0.55252 0.16880 0.59466
 N755 N 0.50753 0.21633 0.60475
 C756 C 0.46469 0.26007 0.66486
 H757 H 0.47565 0.27840 0.66513
 C758 C 0.44252 0.25706 0.68086
 H759 H 0.43635 0.27317 0.69340
 C760 C 0.45922 0.21684 0.64798
 H761 H 0.46588 0.20114 0.63527
 C762 C 0.43722 0.21281 0.66402
 H763 H 0.42705 0.19400 0.66360
 Zn764 Zn 0.50102 0.24659 0.62542
 N765 N 0.47208 0.24042 0.64823
 C766 C 0.47058 0.28840 0.60328
 N767 N 0.49362 0.27497 0.60160
 C768 C 0.51126 0.28056 0.58205
 C769 C 0.50636 0.30086 0.56370
 C770 C 0.46492 0.30883 0.58537
 C771 C 0.53492 0.23784 0.66800
 C772 C 0.55701 0.24132 0.68389
 C773 C 0.56981 0.27821 0.65587
 C774 C 0.54722 0.27433 0.64079
 N775 N 0.53063 0.25401 0.64671
 H776 H 0.45634 0.28320 0.61827
 H777 H 0.52914 0.26917 0.58072
 H778 H 0.52063 0.30536 0.54837
 H779 H 0.44657 0.31945 0.58696
 H780 H 0.52126 0.22203 0.67245
 H781 H 0.56022 0.22831 0.70078
 H782 H 0.58321 0.29403 0.65057
 H783 H 0.54328 0.28732 0.62415
 C784 C 0.42819 0.23340 0.68006
 C785 C 0.51617 0.17282 0.57289
 C786 C 0.57516 0.26123 0.67738
 C787 C 0.48289 0.31513 0.56528
 C788 C 0.50091 0.72734 0.92106
 H789 H 0.51154 0.74444 0.92795
 C790 C 0.49596 0.70636 0.93856
 H791 H 0.50251 0.70752 0.95895
 C792 C 0.47968 0.70472 0.88619
 H793 H 0.47336 0.70411 0.86581
 C794 C 0.47442 0.68321 0.90304
 H795 H 0.46412 0.66613 0.89551
 N796 N 0.49235 0.72642 0.89552
 C797 C 0.53224 0.76724 0.83078
 H798 H 0.51864 0.78320 0.82680
 C799 C 0.55416 0.76393 0.81458
 H800 H 0.55740 0.77728 0.79795
 C801 C 0.54445 0.73010 0.85714
 H802 H 0.54053 0.71704 0.87380
 C803 C 0.56671 0.72617 0.84153
 H804 H 0.57992 0.71002 0.84618
 Zn805 Zn 0.49826 0.75638 0.87319
 N806 N 0.52792 0.75053 0.85166
 C807 C 0.52656 0.80067 0.89234
 N808 N 0.50415 0.78623 0.89493
 C809 C 0.48615 0.79185 0.91400
 C810 C 0.49046 0.81254 0.93158
 C811 C 0.53160 0.82160 0.90947
 C812 C 0.46546 0.74568 0.82995
 C813 C 0.44463 0.74951 0.81239
 C814 C 0.43169 0.78783 0.83743
 C815 C 0.45279 0.78332 0.85448
 N816 N 0.46902 0.76234 0.85067
 H817 H 0.54077 0.79574 0.87730
 H818 H 0.46867 0.77986 0.91587
 H819 H 0.47618 0.81666 0.94689
 H820 H 0.54962 0.83277 0.90750
 H821 H 0.47904 0.72961 0.82682
 H822 H 0.44191 0.73609 0.79602
 H823 H 0.41885 0.80454 0.84067
 H824 H 0.45617 0.79673 0.87061
 C825 C 0.57188 0.74345 0.82020
 C826 C 0.48216 0.68421 0.92967
 C827 C 0.42760 0.77088 0.81604
 C828 C 0.51358 0.82738 0.92955
 C829 C 0.11294 0.23189 0.30825
 C830 C 0.13393 0.22711 0.29129
 C831 C 0.12993 0.22383 0.26406
 C832 C 0.10410 0.22450 0.25382
 C833 C 0.08271 0.22953 0.27104
 C834 C 0.08733 0.23355 0.29842
 C835 C 0.05728 0.22960 0.26031
 N836 N 0.05369 0.22492 0.23414
 N837 N 0.07375 0.21994 0.21804
 C838 C 0.09879 0.21943 0.22700
 H839 H 0.11671 0.23465 0.32918
 H840 H 0.15358 0.22636 0.29935
 H841 H 0.04019 0.23299 0.27249
 H842 H 0.11415 0.21459 0.21313
 C843 C 0.59817 0.71559 0.79014
 C844 C 0.61937 0.71124 0.77332
 C845 C 0.63833 0.73085 0.76918
 C846 C 0.63644 0.75499 0.78297
 C847 C 0.61498 0.75942 0.80027
 C848 C 0.59542 0.73966 0.80343
 C849 C 0.61429 0.78327 0.81440
 N850 N 0.63362 0.80143 0.81101
 N851 N 0.65368 0.79727 0.79467
 C852 C 0.65582 0.77465 0.78063
 H853 H 0.58353 0.70021 0.79248
 H854 H 0.62083 0.69261 0.76302
 H855 H 0.59885 0.78752 0.82840
 H856 H 0.67282 0.77211 0.76812
 C857 C 0.37991 0.77306 0.80803
 C858 C 0.35817 0.77652 0.79170
 C859 C 0.36120 0.78242 0.76468
 C860 C 0.38672 0.78578 0.75407
 C861 C 0.40889 0.78214 0.77065
 C862 C 0.40534 0.77538 0.79779
 C863 C 0.43393 0.78615 0.75960
 N864 N 0.43640 0.79328 0.73371
 N865 N 0.41557 0.79689 0.71821
 C866 C 0.39084 0.79353 0.72752
 H867 H 0.37688 0.76814 0.82878
 H868 H 0.33874 0.77414 0.80007
 H869 H 0.45153 0.78405 0.77132
 H870 H 0.37471 0.79742 0.71419
 C871 C -0.11792 0.28501 0.30403
 C872 C -0.13851 0.29017 0.28672
 C873 C -0.13523 0.28850 0.25907
 C874 C -0.10957 0.28368 0.24892
 C875 C -0.08859 0.27822 0.26672
 C876 C -0.09308 0.27833 0.29449
 C877 C -0.06340 0.27412 0.25612
 N878 N -0.05942 0.27594 0.22960
 N879 N -0.07878 0.28205 0.21299
 C880 C -0.10352 0.28634 0.22173
 H881 H -0.12157 0.28564 0.32520
 H882 H -0.15760 0.29405 0.29520
 H883 H -0.04666 0.27016 0.26863
 H884 H -0.11781 0.29287 0.20734
 C885 C -0.09893 0.73783 0.21311
 C886 C -0.11864 0.73387 0.23180
 C887 C -0.12861 0.70844 0.23739
 C888 C -0.11660 0.68637 0.22476
 C889 C -0.09740 0.69064 0.20470
 C890 C -0.08829 0.71662 0.19915
 C891 C -0.08782 0.66859 0.19092
 N892 N -0.09496 0.64384 0.19856
 N893 N -0.11096 0.63968 0.21904
 C894 C -0.12171 0.66001 0.23258
 H895 H -0.09197 0.75779 0.20940
 H896 H -0.12699 0.75119 0.24097
 H897 H -0.07466 0.67074 0.17422
 H898 H -0.13343 0.65523 0.24981
 C899 C 0.40616 0.23427 0.72374
 C900 C 0.38462 0.23082 0.74033
 C901 C 0.36031 0.22245 0.73036
 C902 C 0.35739 0.21989 0.70237
 C903 C 0.37945 0.22359 0.68544
 C904 C 0.40419 0.23009 0.69644
 C905 C 0.37569 0.22193 0.65783
 N906 N 0.35150 0.21720 0.64792
 N907 N 0.33072 0.21449 0.66367
 C908 C 0.33275 0.21604 0.69041
 H909 H 0.42479 0.23968 0.73245
 H910 H 0.38749 0.23324 0.76144
 H911 H 0.39152 0.22508 0.64391
 H912 H 0.31485 0.21531 0.70179
 C913 C 0.60434 0.28948 0.70417
 C914 C 0.62622 0.29375 0.71998
 C915 C 0.64376 0.27314 0.72605
 C916 C 0.64019 0.24823 0.71352
 C917 C 0.61789 0.24400 0.69720
 C918 C 0.59942 0.26464 0.69324
 C919 C 0.61550 0.21955 0.68426
 N920 N 0.63425 0.20082 0.68729
 N921 N 0.65547 0.20501 0.70195
 C922 C 0.65926 0.22810 0.71482
 H923 H 0.59072 0.30563 0.70097
 H924 H 0.62856 0.31302 0.72885
 H925 H 0.59936 0.21533 0.67114
 H926 H 0.67766 0.23071 0.72495
 C927 C 0.11438 0.75498 0.20241
 C928 C 0.13465 0.75919 0.22033
 C929 C 0.13639 0.78285 0.23439
 C930 C 0.11709 0.80265 0.23042
 C931 C 0.09677 0.79864 0.21170
 C932 C 0.09519 0.77434 0.19796
 C933 C 0.07881 0.81931 0.20721
 N934 N 0.08039 0.84178 0.22156
 N935 N 0.09873 0.84501 0.24001
 C936 C 0.11705 0.82620 0.24500
 H937 H 0.11344 0.73627 0.19217
 H938 H 0.14926 0.74391 0.22320
 H939 H 0.06364 0.81793 0.19236
 H940 H 0.13114 0.82978 0.26052
 C941 C 0.30270 0.11844 0.22885
 C942 C 0.28544 0.13911 0.22350
 C943 C 0.25834 0.13480 0.22282
 C944 C 0.24850 0.10889 0.22732
 C945 C 0.26602 0.08797 0.23367
 C946 C 0.29344 0.09276 0.23389
 C947 C 0.25537 0.06297 0.23991
 N948 N 0.22917 0.05895 0.23819
 N949 N 0.21290 0.07822 0.23078
 C950 C 0.22166 0.10299 0.22518
 H951 H 0.32355 0.12249 0.22887
 H952 H 0.29323 0.15878 0.22006
 H953 H 0.26753 0.04662 0.24632
 H954 H 0.20756 0.11763 0.21879
 C955 C 0.78607 0.60200 0.71334
 C956 C 0.76936 0.62337 0.70904
 C957 C 0.76789 0.64394 0.72732
 C958 C 0.78419 0.64341 0.75000
 C959 C 0.80134 0.62172 0.75437
 C960 C 0.80191 0.60065 0.73600
 C961 C 0.81792 0.62232 0.77663
 N962 N 0.81703 0.64311 0.79339
 N963 N 0.80088 0.66342 0.78928
 C964 C 0.78454 0.66435 0.76810
 H965 H 0.78640 0.58617 0.69902
 H966 H 0.75712 0.62375 0.69151
 H967 H 0.83186 0.60672 0.78070
 H968 H 0.77231 0.68161 0.76546
 C969 C 0.80190 0.38772 0.78216
 C970 C 0.78523 0.36647 0.78703
 C971 C 0.75798 0.36881 0.78360
 C972 C 0.74741 0.39423 0.77733
 C973 C 0.76455 0.41599 0.77248
 C974 C 0.79207 0.41239 0.77423
 C975 C 0.75347 0.44102 0.76731
 N976 N 0.72710 0.44406 0.76730
 N977 N 0.71106 0.42392 0.77259
 C978 C 0.72027 0.39930 0.77794
 H979 H 0.82283 0.38468 0.78401
 H980 H 0.79397 0.34755 0.79199
 H981 H 0.76542 0.45838 0.76399
 H982 H 0.70622 0.38433 0.78364
 C983 C 0.30729 -0.11358 0.28292
 C984 C 0.28987 -0.13419 0.28814
 C985 C 0.26275 -0.13115 0.28406
 C986 C 0.25315 -0.10570 0.27629
 C987 C 0.27109 -0.08499 0.27018
 C988 C 0.29832 -0.08903 0.27373
 C989 C 0.26108 -0.06067 0.26086
 N990 N 0.23485 -0.05669 0.25990
 N991 N 0.21802 -0.07532 0.26773
 C992 C 0.22624 -0.09947 0.27619
 H993 H 0.32806 -0.11685 0.28599
 H994 H 0.29793 -0.15312 0.29417
 H995 H 0.27381 -0.04472 0.25448
 H996 H 0.21161 -0.11312 0.28354
 C997 C 0.21369 -0.10056 0.74478
 C998 C 0.23008 -0.12237 0.74244
 C999 C 0.22066 -0.14672 0.73305
 C1000 C 0.19326 -0.14920 0.72794
 C1001 C 0.17675 -0.12663 0.72960
 C1002 C 0.18717 -0.10218 0.73815
 C1003 C 0.15019 -0.12934 0.72268
 N1004 N 0.14042 -0.15346 0.71667
 N1005 N 0.15538 -0.17501 0.71720
 C1006 C 0.18130 -0.17377 0.72291
 H1007 H 0.22188 -0.08207 0.75165
 H1008 H 0.25067 -0.11958 0.74665
 H1009 H 0.13706 -0.11258 0.72214
 H1010 H 0.19197 -0.19215 0.72428
 C1011 C 0.71760 0.40791 0.23200
 C1012 C 0.73468 0.38684 0.22819
 C1013 C 0.72531 0.36085 0.22685
 C1014 C 0.69819 0.35592 0.23031
 C1015 C 0.68073 0.37739 0.23409
 C1016 C 0.69060 0.40362 0.23457
 C1017 C 0.65400 0.37175 0.23802
 N1018 N 0.64551 0.34633 0.23807
 N1019 N 0.66194 0.32619 0.23469
 C1020 C 0.68798 0.33010 0.23095
 H1021 H 0.72546 0.42781 0.23253
 H1022 H 0.75540 0.39082 0.22573
 H1023 H 0.63983 0.38723 0.24142
 H1024 H 0.70043 0.31295 0.22899
 C1025 C 0.69149 0.61699 0.26898
 C1026 C 0.70932 0.63737 0.27331
 C1027 C 0.73582 0.63189 0.27788
 C1028 C 0.74439 0.60525 0.27901
 C1029 C 0.72631 0.58449 0.27438
 C1030 C 0.69972 0.59056 0.26905
 C1031 C 0.73537 0.55824 0.27599
 N1032 N 0.76081 0.55330 0.28194
 N1033 N 0.77770 0.57278 0.28660
 C1034 C 0.77035 0.59854 0.28549
 H1035 H 0.67116 0.62187 0.26522
 H1036 H 0.70254 0.65766 0.27269
 H1037 H 0.72245 0.54160 0.27290
 H1038 H 0.78479 0.61341 0.29015
 C1039 C 0.19704 0.10917 0.78283
 C1040 C 0.21498 0.12903 0.78853
 C1041 C 0.24156 0.12675 0.78141
 C1042 C 0.25020 0.10264 0.76977
 C1043 C 0.23166 0.08271 0.76338
 C1044 C 0.20494 0.08608 0.77013
 C1045 C 0.24055 0.05979 0.75060
 N1046 N 0.26652 0.05621 0.74636
 N1047 N 0.28413 0.07391 0.75416
 C1048 C 0.27693 0.09676 0.76598
 H1049 H 0.17670 0.11187 0.78837
 H1050 H 0.20764 0.14693 0.79748
 H1051 H 0.22716 0.04461 0.74410
 H1052 H 0.29229 0.10953 0.77304
 C1053 C 0.24606 0.29695 0.11048
 C1054 C 0.24120 0.27986 0.13179
 C1055 C 0.21786 0.26540 0.13326
 C1056 C 0.19938 0.26753 0.11247
 C1057 C 0.20433 0.28480 0.09066
 C1058 C 0.22775 0.29995 0.08997
 C1059 C 0.18596 0.28564 0.06988
 N1060 N 0.16405 0.27048 0.07121
 N1061 N 0.15940 0.25436 0.09175
 C1062 C 0.17635 0.25227 0.11235
 H1063 H 0.26416 0.30817 0.11013
 H1064 H 0.25555 0.27814 0.14752
 H1065 H 0.18891 0.29787 0.05241
 H1066 H 0.17183 0.23842 0.12819
 C1067 C 0.74567 0.79822 0.60798
 C1068 C 0.74115 0.78181 0.62987
 C1069 C 0.71854 0.76623 0.63145
 C1070 C 0.70046 0.76656 0.61023
 C1071 C 0.70513 0.78305 0.58775
 C1072 C 0.72778 0.79936 0.58691
 C1073 C 0.68729 0.78195 0.56653
 N1074 N 0.66608 0.76582 0.56812
 N1075 N 0.66164 0.75054 0.58934
 C1076 C 0.67815 0.75027 0.61039
 H1077 H 0.76315 0.81039 0.60761
 H1078 H 0.75520 0.78145 0.64595
 H1079 H 0.69014 0.79341 0.54854
 H1080 H 0.67385 0.73707 0.62684
 C1081 C 0.75854 0.79641 0.38212
 C1082 C 0.76283 0.77864 0.36164
 C1083 C 0.78396 0.76106 0.36257
 C1084 C 0.80068 0.76079 0.38491
 C1085 C 0.79623 0.77869 0.40593
 C1086 C 0.77518 0.79697 0.40422
 C1087 C 0.81261 0.77704 0.42833
 N1088 N 0.83227 0.75902 0.42921
 N1089 N 0.83651 0.74238 0.40937
 C1090 C 0.82133 0.74257 0.38731
 H1091 H 0.74224 0.81006 0.38059
 H1092 H 0.74979 0.77875 0.34471
 H1093 H 0.80978 0.78957 0.44532
 H1094 H 0.82535 0.72824 0.37208
 C1095 C 0.27228 0.30192 -0.11883
 C1096 C 0.27704 0.28399 -0.13903
 C1097 C 0.28229 0.25737 -0.13323
 C1098 C 0.28341 0.24877 -0.10643
 C1099 C 0.27847 0.26700 -0.08581
 C1100 C 0.27261 0.29374 -0.09221
 C1101 C 0.28040 0.25796 -0.05939
 N1102 N 0.28675 0.23238 -0.05417
 N1103 N 0.29154 0.21534 -0.07354
 C1104 C 0.29023 0.22268 -0.09946
 H1105 H 0.26805 0.32233 -0.12401
 H1106 H 0.27637 0.29082 -0.15946
 H1107 H 0.27728 0.27099 -0.04283
 H1108 H 0.29496 0.20814 -0.11425
 C1109 C 0.73251 0.21952 -0.09653
 C1110 C 0.72878 0.23627 -0.11829
 C1111 C 0.72944 0.22651 -0.14419
 C1112 C 0.73467 0.19931 -0.14821
 C1113 C 0.73817 0.18216 -0.12601
 C1114 C 0.73688 0.19244 -0.10000
 C1115 C 0.74359 0.15533 -0.13066
 N1116 N 0.74551 0.14647 -0.15588
 N1117 N 0.74259 0.16264 -0.17670
 C1118 C 0.73739 0.18875 -0.17374
 H1119 H 0.73165 0.22768 -0.07676
 H1120 H 0.72495 0.25703 -0.11493
 H1121 H 0.74662 0.14140 -0.11454
 H1122 H 0.73592 0.20098 -0.19137
 C1123 C 0.22925 0.72269 0.40797
 C1124 C 0.22606 0.73988 0.38644
 C1125 C 0.22523 0.73032 0.36050
 C1126 C 0.22848 0.70288 0.35612
 C1127 C 0.23158 0.68531 0.37804
 C1128 C 0.23166 0.69540 0.40418
 C1129 C 0.23527 0.65826 0.37296
 N1130 N 0.23580 0.64956 0.34762
 N1131 N 0.23312 0.66609 0.32705
 C1132 C 0.22963 0.69243 0.33041
 H1133 H 0.22953 0.73072 0.42781
 H1134 H 0.22379 0.76084 0.39001
 H1135 H 0.23808 0.64398 0.38882
 H1136 H 0.22827 0.70492 0.31295
 C1137 C 0.27051 0.69162 0.61862
 C1138 C 0.27423 0.70853 0.63990
 C1139 C 0.27405 0.73600 0.63615
 C1140 C 0.27091 0.74666 0.61027
 C1141 C 0.26712 0.72946 0.58854
 C1142 C 0.26654 0.70169 0.59294
 C1143 C 0.26483 0.74070 0.56299
 N1144 N 0.26607 0.76732 0.55965
 N1145 N 0.26969 0.78343 0.58005
 C1146 C 0.27229 0.77402 0.60520
 H1147 H 0.27034 0.67045 0.62227
 H1148 H 0.27686 0.70020 0.65960
 H1149 H 0.26244 0.72862 0.54560
 H1150 H 0.27582 0.78800 0.62085
 C1151 C 0.75289 0.20760 0.10947
 C1152 C 0.75673 0.22489 0.13043
 C1153 C 0.77837 0.24190 0.13077
 C1154 C 0.79596 0.24224 0.10904
 C1155 C 0.79204 0.22471 0.08762
 C1156 C 0.77055 0.20688 0.08818
 C1157 C 0.80945 0.22617 0.06599
 N1158 N 0.82947 0.24382 0.06611
 N1159 N 0.83313 0.26024 0.08624
 C1160 C 0.81700 0.26015 0.10764
 H1161 H 0.73627 0.19425 0.11013
 H1162 H 0.74304 0.22469 0.14685
 H1163 H 0.80714 0.21378 0.04881
 H1164 H 0.82057 0.27435 0.12309
 C1165 C 0.47499 0.36259 0.55639
 C1166 C 0.46984 0.38399 0.53960
 C1167 C 0.46672 0.38041 0.51229
 C1168 C 0.46802 0.35456 0.50180
 C1169 C 0.47338 0.33273 0.51888
 C1170 C 0.47720 0.33695 0.54636
 C1171 C 0.47398 0.30727 0.50791
 N1172 N 0.46954 0.30407 0.48163
 N1173 N 0.46432 0.32455 0.46565
 C1174 C 0.46327 0.34963 0.47485
 H1175 H 0.47761 0.36609 0.57739
 H1176 H 0.46872 0.40365 0.54785
 H1177 H 0.47758 0.28985 0.51998
 H1178 H 0.45828 0.36535 0.46107
 C1179 C -0.00413 0.84989 0.03745
 C1180 C -0.00868 0.87042 0.01947
 C1181 C -0.03421 0.87964 0.01428
 C1182 C -0.05569 0.86603 0.02645
 C1183 C -0.05088 0.84572 0.04555
 C1184 C -0.02484 0.83755 0.05089
 C1185 C -0.07244 0.83412 0.05867
 N1186 N -0.09715 0.84075 0.05141
 N1187 N -0.10171 0.85810 0.03192
 C1188 C -0.08190 0.87068 0.01901
 H1189 H 0.01588 0.84366 0.04106
 H1190 H 0.00820 0.88005 0.01064
 H1191 H -0.06995 0.81978 0.07451
 H1192 H -0.08694 0.88351 0.00255
 C1193 C 0.04003 0.63321 0.05300
 C1194 C 0.04502 0.61325 0.03488
 C1195 C 0.03662 0.61537 0.00835
 C1196 C 0.02462 0.63949 -0.00021
 C1197 C 0.01881 0.65943 0.01855
 C1198 C 0.02674 0.65619 0.04531
 C1199 C 0.00529 0.68216 0.00981
 N1200 N 0.00000 0.68565 -0.01632
 N1201 N 0.00739 0.66802 -0.03425
 C1202 C 0.01976 0.64530 -0.02717
 H1203 H 0.04644 0.63059 0.07335
 H1204 H 0.05432 0.59537 0.04217
 H1205 H -0.00099 0.69727 0.02342
 H1206 H 0.02637 0.63254 -0.04283
 C1207 C 0.54353 0.15032 0.53945
 C1208 C 0.54848 0.13002 0.52167
 C1209 C 0.53104 0.10883 0.51929
 C1210 C 0.50873 0.10745 0.53592
 C1211 C 0.50372 0.12800 0.55417
 C1212 C 0.52106 0.14990 0.55548
 C1213 C 0.48181 0.12551 0.57100
 N1214 N 0.46597 0.10405 0.56927
 N1215 N 0.47066 0.08483 0.55205
 C1216 C 0.49154 0.08573 0.53541
 H1217 H 0.55708 0.16680 0.54032
 H1218 H 0.56572 0.13109 0.50916
 H1219 H 0.47732 0.14016 0.58577
 H1220 H 0.49470 0.06928 0.52227
 C1221 C -0.04305 0.15615 0.46243
 C1222 C -0.04656 0.13456 0.47950
 C1223 C -0.02801 0.11425 0.48070
 C1224 C -0.00594 0.11516 0.46373
 C1225 C -0.00241 0.13698 0.44617
 C1226 C -0.02094 0.15791 0.44597
 C1227 C 0.01925 0.13668 0.42886
 N1228 N 0.03628 0.11610 0.42958
 N1229 N 0.03301 0.09572 0.44622
 C1230 C 0.01244 0.09449 0.46323
 H1231 H -0.05750 0.17184 0.46237
 H1232 H -0.06364 0.13383 0.49225
 H1233 H 0.02263 0.15234 0.41450
 H1234 H 0.01049 0.07722 0.47591
 C1235 C 0.49702 0.64880 0.96023
 C1236 C 0.49267 0.62796 0.97792
 C1237 C 0.46714 0.61941 0.98423
 C1238 C 0.44552 0.63407 0.97375
 C1239 C 0.45008 0.65513 0.95535
 C1240 C 0.47608 0.66215 0.94829
 C1241 C 0.42840 0.66944 0.94562
 N1242 N 0.40395 0.66356 0.95433
 N1243 N 0.39974 0.64470 0.97244
 C1244 C 0.41962 0.63009 0.98271
 H1245 H 0.51701 0.65427 0.95541
 H1246 H 0.50957 0.61755 0.98569
 H1247 H 0.43063 0.68566 0.93167
 H1248 H 0.41492 0.61639 0.99856
 C1249 C 0.51974 0.87479 0.93949
 C1250 C 0.52410 0.89556 0.95690
 C1251 C 0.52798 0.89067 0.98400
 C1252 C 0.52850 0.86424 0.99360
 C1253 C 0.52393 0.84310 0.97594
 C1254 C 0.51913 0.84857 0.94874
 C1255 C 0.52499 0.81706 0.98606
 N1256 N 0.53031 0.81270 1.01208
 N1257 N 0.53484 0.83256 1.02860
 C1258 C 0.53426 0.85815 1.02024
 H1259 H 0.51638 0.87922 0.91870
 H1260 H 0.52396 0.91569 0.94934
 H1261 H 0.52200 0.80012 0.97351
 H1262 H 0.53876 0.87335 1.03442
 C1263 C 0.01392 0.34605 0.47388
 C1264 C 0.01818 0.36676 0.49136
 C1265 C 0.02205 0.39260 0.48191
 C1266 C 0.02070 0.39785 0.45429
 C1267 C 0.01638 0.37678 0.43645
 C1268 C 0.01336 0.35061 0.44642
 C1269 C 0.01448 0.38281 0.40920
 N1270 N 0.01689 0.40821 0.40060
 N1271 N 0.02083 0.42797 0.41738
 C1272 C 0.02268 0.42369 0.44391
 H1273 H 0.01142 0.32620 0.48183
 H1274 H 0.01892 0.36260 0.51247
 H1275 H 0.01072 0.36770 0.39469
 H1276 H 0.02524 0.44059 0.45659
 C1277 C 0.33979 0.52528 0.48379
 C1278 C 0.36104 0.50848 0.47994
 C1279 C 0.38670 0.51832 0.47977
 C1280 C 0.39107 0.54553 0.48464
 C1281 C 0.36942 0.56269 0.48828
 C1282 C 0.34360 0.55242 0.48750
 C1283 C 0.37441 0.58956 0.49324
 N1284 N 0.39945 0.59843 0.49463
 N1285 N 0.41977 0.58223 0.49158
 C1286 C 0.41645 0.55610 0.48679
 H1287 H 0.32015 0.51714 0.48339
 H1288 H 0.35748 0.48769 0.47645
 H1289 H 0.35871 0.60353 0.49636
 H1290 H 0.43369 0.54384 0.48521
 C1291 C 0.84675 0.02684 -0.00460
 C1292 C 0.86836 0.01028 -0.00696
 C1293 C 0.89337 0.02047 -0.01297
 C1294 C 0.89671 0.04849 -0.01393
 C1295 C 0.87453 0.06533 -0.01170
 C1296 C 0.84929 0.05423 -0.00775
 C1297 C 0.87854 0.09290 -0.01227
 N1298 N 0.90312 0.10284 -0.01430
 N1299 N 0.92398 0.08714 -0.01536
 C1300 C 0.92167 0.06042 -0.01487
 H1301 H 0.82766 0.01808 -0.00107
 H1302 H 0.86506 -0.01085 -0.00574
 H1303 H 0.86249 0.10668 -0.01041
 H1304 H 0.93948 0.04895 -0.01413
 C1305 C 0.65827 0.02792 0.02474
 C1306 C 0.63676 0.01139 0.02878
 C1307 C 0.61133 0.02169 0.02957
 C1308 C 0.60743 0.04916 0.02553
 C1309 C 0.62931 0.06605 0.02139
 C1310 C 0.65497 0.05526 0.02130
 C1311 C 0.62463 0.09312 0.01660
 N1312 N 0.59974 0.10246 0.01622
 N1313 N 0.57923 0.08658 0.02005
 C1314 C 0.58220 0.06026 0.02454
 H1315 H 0.67772 0.01935 0.02448
 H1316 H 0.63990 -0.00964 0.03156
 H1317 H 0.64043 0.10689 0.01278
 H1318 H 0.56479 0.04828 0.02686
 C1319 C 0.13405 0.55553 0.53605
 C1320 C 0.11322 0.53853 0.54139
 C1321 C 0.11557 0.51108 0.53783
 C1322 C 0.14064 0.50059 0.53117
 C1323 C 0.16193 0.51804 0.52580
 C1324 C 0.15825 0.54579 0.52749
 C1325 C 0.18662 0.50703 0.52015
 N1326 N 0.18980 0.48043 0.52023
 N1327 N 0.17013 0.46409 0.52605
 C1328 C 0.14585 0.47321 0.53186
 H1329 H 0.13102 0.57664 0.53793
 H1330 H 0.09458 0.54718 0.54675
 H1331 H 0.20364 0.51921 0.51638
 H1332 H 0.13129 0.45891 0.53799
 C1333 C 0.14849 0.46288 -0.00696
 C1334 C 0.12822 0.48075 -0.01130
 C1335 C 0.11820 0.48547 -0.03690
 C1336 C 0.13071 0.47305 -0.05884
 C1337 C 0.15123 0.45451 -0.05425
 C1338 C 0.15981 0.44918 -0.02800
 C1339 C 0.16347 0.44289 -0.07629
 N1340 N 0.15616 0.44992 -0.10120
 N1341 N 0.13780 0.46810 -0.10558
 C1342 C 0.12516 0.48015 -0.08537
 H1343 H 0.15515 0.45937 0.01318
 H1344 H 0.11942 0.48996 0.00582
 H1345 H 0.17920 0.42877 -0.07405
 H1346 H 0.11178 0.49590 -0.09043
 C1347 C 0.64251 0.94700 0.45984
 C1348 C 0.62189 0.96441 0.45522
 C1349 C 0.62439 0.99157 0.46040
 C1350 C 0.64942 1.00149 0.46795
 C1351 C 0.67053 0.98364 0.47247
 C1352 C 0.66666 0.95606 0.46922
 C1353 C 0.69526 0.99417 0.47887
 N1354 N 0.69861 1.02069 0.48039
 N1355 N 0.67909 1.03744 0.47547
 C1356 C 0.65480 1.02882 0.46897
 H1357 H 0.63930 0.92606 0.45681
 H1358 H 0.60327 0.95623 0.44911
 H1359 H 0.71218 0.98170 0.48194
 H1360 H 0.64039 1.04353 0.46364
 C1361 C 0.84505 0.97210 0.51884
 C1362 C 0.86594 0.98923 0.52318
 C1363 C 0.89170 0.97979 0.52419
 C1364 C 0.89656 0.95255 0.52007
 C1365 C 0.87526 0.93503 0.51586
 C1366 C 0.84931 0.94498 0.51544
 C1367 C 0.88077 0.90818 0.51138
 N1368 N 0.90595 0.89964 0.51109
 N1369 N 0.92594 0.91614 0.51474
 C1370 C 0.92213 0.94229 0.51906
 H1371 H 0.82533 0.98002 0.51832
 H1372 H 0.86203 1.01006 0.52606
 H1373 H 0.86539 0.89396 0.50778
 H1374 H 0.93916 0.95478 0.52117
 C1375 C 0.36990 0.44063 0.01734
 C1376 C 0.39045 0.45822 0.02161
 C1377 C 0.38568 0.48528 0.02480
 C1378 C 0.35954 0.49467 0.02462
 C1379 C 0.33861 0.47681 0.02005
 C1380 C 0.34400 0.44964 0.01609
 C1381 C 0.31286 0.48671 0.02031
 N1382 N 0.30853 0.51272 0.02496
 N1383 N 0.32816 0.52940 0.02957
 C1384 C 0.35347 0.52126 0.02971
 H1385 H 0.37425 0.41986 0.01459
 H1386 H 0.41035 0.45080 0.02203
 H1387 H 0.29611 0.47402 0.01721
 H1388 H 0.36846 0.53559 0.03426
 C1389 C 0.52233 0.48561 0.34339
 C1390 C 0.50555 0.48139 0.36482
 C1391 C 0.51545 0.47816 0.39052
 C1392 C 0.54275 0.48036 0.39490
 C1393 C 0.55988 0.48464 0.37311
 C1394 C 0.54951 0.48676 0.34709
 C1395 C 0.58684 0.48731 0.37824
 N1396 N 0.59584 0.48566 0.40351
 N1397 N 0.57971 0.48174 0.42396
 C1398 C 0.55349 0.47916 0.42055
 H1399 H 0.51410 0.48742 0.32365
 H1400 H 0.48466 0.47997 0.36133
 H1401 H 0.60081 0.49108 0.36252
 H1402 H 0.54132 0.47667 0.43795
 C1403 C 0.03547 -0.03552 0.85272
 C1404 C 0.01954 -0.04017 0.87472
 C1405 C 0.01880 -0.02228 0.89570
 C1406 C 0.03482 0.00061 0.89466
 C1407 C 0.05078 0.00558 0.87208
 C1408 C 0.05125 -0.01286 0.85108
 C1409 C 0.06552 0.02911 0.87122
 N1410 N 0.06508 0.04579 0.89209
 N1411 N 0.05087 0.04059 0.91370
 C1412 C 0.03580 0.01856 0.91574
 H1413 H 0.03564 -0.04984 0.83688
 H1414 H 0.00738 -0.05774 0.87531
 H1415 H 0.07727 0.03449 0.85414
 H1416 H 0.02499 0.01521 0.93391
 C1417 C 0.02709 0.02095 0.65762
 C1418 C 0.01035 0.02435 0.63607
 C1419 C 0.02027 0.02694 0.61027
 C1420 C 0.04770 0.02569 0.60608
 C1421 C 0.06482 0.02275 0.62807
 C1422 C 0.05431 0.01998 0.65403
 C1423 C 0.09198 0.02298 0.62328
 N1424 N 0.10116 0.02472 0.59807
 N1425 N 0.08504 0.02630 0.57737
 C1426 C 0.05866 0.02675 0.58049
 H1427 H 0.01872 0.01878 0.67729
 H1428 H -0.01058 0.02523 0.63950
 H1429 H 0.10603 0.02197 0.63928
 H1430 H 0.04659 0.02764 0.56292
 C1431 C 0.55609 0.52462 0.13086
 C1432 C 0.53951 0.52884 0.10931
 C1433 C 0.51248 0.53164 0.11299
 C1434 C 0.50203 0.53117 0.13903
 C1435 C 0.51888 0.52683 0.16100
 C1436 C 0.54609 0.52312 0.15673
 C1437 C 0.50793 0.52710 0.18663
 N1438 N 0.48189 0.53133 0.18983
 N1439 N 0.46613 0.53553 0.16919
 C1440 C 0.47531 0.53573 0.14393
 H1441 H 0.57687 0.52207 0.12730
 H1442 H 0.54770 0.52945 0.08948
 H1443 H 0.51982 0.52437 0.20417
 H1444 H 0.46169 0.53990 0.12805
 C1445 C 0.45659 0.00082 0.14354
 C1446 C 0.47464 -0.00321 0.12325
 C1447 C 0.48392 -0.02860 0.11759
 C1448 C 0.47495 -0.05039 0.13312
 C1449 C 0.45547 -0.04649 0.15284
 C1450 C 0.44677 -0.02048 0.15858
 C1451 C 0.44516 -0.06896 0.16590
 N1452 N 0.45528 -0.09323 0.16110
 N1453 N 0.47489 -0.09658 0.14405
 C1454 C 0.48516 -0.07601 0.13002
 H1455 H 0.45035 0.02085 0.14763
 H1456 H 0.48127 0.01366 0.11164
 H1457 H 0.42902 -0.06757 0.17970
 H1458 H 0.50145 -0.07992 0.11696
 C1459 C 0.95611 0.46258 0.65269
 C1460 C 0.97319 0.45856 0.63154
 C1461 C 0.97655 0.47801 0.61190
 C1462 C 0.96180 0.50162 0.61304
 C1463 C 0.94413 0.50566 0.63437
 C1464 C 0.94172 0.48610 0.65467
 C1465 C 0.92893 0.52888 0.63415
 N1466 N 0.93179 0.54690 0.61422
 N1467 N 0.94860 0.54318 0.59438
 C1468 C 0.96362 0.52112 0.59306
 H1469 H 0.95441 0.44735 0.66789
 H1470 H 0.98428 0.44034 0.63066
 H1471 H 0.91453 0.53274 0.64934
 H1472 H 0.97657 0.51889 0.57623
 C1473 C 0.95971 0.53745 0.84892
 C1474 C 0.97729 0.54113 0.86965
 C1475 C 0.97956 0.52232 0.89005
 C1476 C 0.96325 0.49969 0.89003
 C1477 C 0.94510 0.49600 0.86909
 C1478 C 0.94371 0.51491 0.84810
 C1479 C 0.92842 0.47385 0.87039
 N1480 N 0.93028 0.45648 0.89100
 N1481 N 0.94748 0.45989 0.91051
 C1482 C 0.96394 0.48094 0.91079
 H1483 H 0.95882 0.55217 0.83316
 H1484 H 0.98958 0.55861 0.86964
 H1485 H 0.91365 0.47034 0.85550
 H1486 H 0.97713 0.48299 0.92740
 C1487 C 0.44515 0.02472 0.36762
 C1488 C 0.46309 0.02926 0.38785
 C1489 C 0.48982 0.03228 0.38231
 C1490 C 0.49856 0.03115 0.35563
 C1491 C 0.48044 0.02553 0.33511
 C1492 C 0.45339 0.02285 0.34117
 C1493 C 0.49020 0.02243 0.30919
 N1494 N 0.51597 0.02653 0.30406
 N1495 N 0.53266 0.03339 0.32306
 C1496 C 0.52483 0.03596 0.34861
 H1497 H 0.42459 0.02276 0.37264
 H1498 H 0.45613 0.03014 0.40812
 H1499 H 0.47772 0.01660 0.29299
 H1500 H 0.53918 0.04208 0.36302
   
