data_POSCAR
  _audit_creation_date              2014-09-24
  _audit_creation_method            'ToBaCCo'
  _symmetry_space_group_name_H-M    'P1'
  _symmetry_Int_Tables_number       1
  _symmetry_cell_setting            triclinic
  loop_
  _symmetry_equiv_pos_as_xyz
 x,y,z
_cell_length_a 40.0016
_cell_length_b 39.9727
_cell_length_c 39.9529
_cell_angle_alpha 89.989100
_cell_angle_beta 89.956500
_cell_angle_gamma 89.962000
loop_
  _atom_site_label
  _atom_site_type_symbol
  _atom_site_fract_x
  _atom_site_fract_y
  _atom_site_fract_z
N1 N 0.34645 0.34744 0.34305
 N2 N 0.34461 0.84667 -0.15611
 N3 N 0.84618 0.34349 -0.15444
 N4 N 0.84451 0.84399 0.34657
 N5 N 0.65590 0.65562 0.34711
 N6 N 0.65462 0.15544 -0.15479
 N7 N 0.15477 0.65454 -0.15412
 N8 N 0.15541 0.15506 0.34345
 N9 N 0.65370 0.34269 0.65539
 N10 N 0.65528 0.84590 1.15333
 N11 N 0.15499 0.34688 1.15678
 N12 N 0.15467 0.84431 0.65492
 N13 N 0.34561 0.65410 0.65640
 N14 N 0.34414 0.15278 1.15628
 N15 N 0.84238 0.65601 1.15397
 N16 N 0.84705 0.15713 0.65371
 N17 N 0.34435 0.34489 0.65469
 N18 N 0.34577 0.84417 0.15536
 N19 N 0.84415 0.34573 0.15573
 N20 N 0.84662 0.84654 0.65583
 N21 N 0.65485 0.65353 0.65666
 N22 N 0.65505 0.15339 0.15488
 N23 N 0.15451 0.65638 0.15373
 N24 N 0.15577 0.15661 0.65205
 N25 N 0.34750 0.65559 0.34556
 N26 N 0.34274 0.15482 0.84591
 N27 N 0.84411 0.65361 0.84390
 N28 N 0.84541 0.15474 0.34447
 N29 N 0.65425 0.34439 0.34414
 N30 N 0.65550 0.84723 0.84261
 N31 N 0.15505 0.34470 0.84722
 N32 N 0.15394 0.84183 0.34560
 O33 O 0.24599 1.03040 0.29370
 O34 O 0.29142 0.96500 0.24752
 O35 O 0.29170 1.03024 0.24882
 O36 O 0.24460 0.96487 0.29364
 O37 O 0.20638 0.96490 0.25377
 O38 O 0.25348 1.03022 0.20893
 O39 O 0.25213 0.96495 0.20868
 O40 O 0.20671 1.03040 0.25486
 Cu41 Cu 0.27228 0.99733 0.27494
 Cu42 Cu 0.22575 0.99784 0.22764
 C43 C 0.21891 1.04194 0.28184
 C44 C 0.27939 0.95367 0.22037
 C45 C 0.28040 1.04161 0.22139
 C46 C 0.21771 0.95345 0.28115
 O47 O 0.24467 0.53237 0.79255
 O48 O 0.29077 0.46582 0.74870
 O49 O 0.29171 0.53141 0.74703
 O50 O 0.24406 0.46763 0.79361
 O51 O 0.20739 0.46565 0.75236
 O52 O 0.25224 0.53283 0.70841
 O53 O 0.25433 0.46774 0.70724
 O54 O 0.20605 0.53148 0.75305
 Cu55 Cu 0.27175 0.49940 0.77441
 Cu56 Cu 0.22610 0.49927 0.72631
 C57 C 0.21750 0.54326 0.78026
 C58 C 0.28043 0.45544 0.72051
 C59 C 0.27964 0.54357 0.72022
 C60 C 0.21793 0.45529 0.78051
 O61 O 0.79250 0.03136 0.25477
 O62 O 0.74528 -0.03240 0.20792
 O63 O 0.74568 0.03223 0.20910
 O64 O 0.79186 -0.03428 0.25290
 O65 O 0.75526 -0.03259 0.29428
 O66 O 0.70693 0.03116 0.24852
 O67 O 0.70845 -0.03458 0.24909
 O68 O 0.75288 0.03255 0.29331
 Cu69 Cu 0.77282 -0.00065 0.22727
 Cu70 Cu 0.72698 -0.00105 0.27527
 C71 C 0.78025 0.04343 0.28155
 C72 C 0.71910 -0.04478 0.22091
 C73 C 0.71840 0.04297 0.22132
 C74 C 0.78143 -0.04480 0.28102
 O75 O 0.70856 0.53078 0.74814
 O76 O 0.75533 0.46456 0.79155
 O77 O 0.75607 0.52933 0.79203
 O78 O 0.70822 0.46516 0.74607
 O79 O 0.74730 0.46397 0.70700
 O80 O 0.79240 0.53128 0.75041
 O81 O 0.79358 0.46541 0.75164
 O82 O 0.74466 0.52919 0.70631
 Cu83 Cu 0.72815 0.49732 0.77341
 Cu84 Cu 0.77333 0.49759 0.72484
 C85 C 0.71865 0.54140 0.71994
 C86 C 0.78245 0.45374 0.77906
 C87 C 0.78205 0.54174 0.77860
 C88 C 0.72007 0.45309 0.71910
 O89 O 0.29310 0.53634 0.25002
 O90 O 0.24797 0.46910 0.20669
 O91 O 0.24531 0.53419 0.20574
 O92 O 0.29451 0.47061 0.25074
 O93 O 0.25639 0.46957 0.29079
 O94 O 0.20935 0.53587 0.24768
 O95 O 0.20897 0.47030 0.24587
 O96 O 0.25692 0.53420 0.29176
 Cu97 Cu 0.27407 0.50279 0.22426
 Cu98 Cu 0.22900 0.50241 0.27301
 C99 C 0.28294 0.54652 0.27837
 C100 C 0.22082 0.45819 0.21893
 C101 C 0.21925 0.54628 0.21933
 C102 C 0.28345 0.45880 0.27811
 O103 O 0.75780 1.03425 0.70669
 O104 O 0.70976 0.97019 0.75249
 O105 O 0.71025 1.03572 0.75085
 O106 O 0.75721 0.96949 0.70752
 O107 O 0.79533 0.97045 0.74750
 O108 O 0.74621 1.03391 0.79274
 O109 O 0.74876 0.96888 0.79160
 O110 O 0.79397 1.03626 0.74837
 Cu111 Cu 0.72988 1.00235 0.72539
 Cu112 Cu 0.77493 1.00258 0.77406
 C113 C 0.78378 1.04659 0.72009
 C114 C 0.72157 0.95803 0.77941
 C115 C 0.72015 1.04603 0.77922
 C116 C 0.78423 0.95864 0.72017
 O117 O 0.70665 0.46883 0.25629
 O118 O 0.75273 0.53305 0.20869
 O119 O 0.75110 0.46745 0.20920
 O120 O 0.70769 0.53361 0.25623
 O121 O 0.74750 0.53238 0.29450
 O122 O 0.79282 0.46906 0.24535
 O123 O 0.79166 0.53418 0.24785
 O124 O 0.74815 0.46656 0.29265
 Cu125 Cu 0.72557 0.50088 0.22869
 Cu126 Cu 0.77402 0.50037 0.27397
 C127 C 0.71997 0.45623 0.28223
 C128 C 0.77961 0.54513 0.22059
 C129 C 0.77932 0.45695 0.21927
 C130 C 0.72023 0.54427 0.28338
 O131 O 0.29059 0.03349 0.75315
 O132 O 0.24592 -0.03189 0.70605
 O133 O 0.24515 0.03358 0.70580
 O134 O 0.29128 -0.03175 0.75131
 O135 O 0.25242 -0.03180 0.79063
 O136 O 0.20624 0.03372 0.74507
 O137 O 0.20602 -0.03178 0.74429
 O138 O 0.25064 0.03345 0.79136
 Cu139 Cu 0.27216 0.00113 0.72514
 Cu140 Cu 0.22482 0.00065 0.77169
 C141 C 0.27805 0.04480 0.78013
 C142 C 0.21856 -0.04329 0.71744
 C143 C 0.21809 0.04509 0.71786
 C144 C 0.27956 -0.04315 0.77852
 O145 O 0.24697 0.29224 0.96990
 O146 O 0.29155 0.24455 1.03479
 O147 O 0.29158 0.24629 0.96942
 O148 O 0.24588 0.29178 1.03520
 O149 O 0.20679 0.25277 1.03528
 O150 O 0.25253 0.20723 0.96941
 O151 O 0.25144 0.20658 1.03482
 O152 O 0.20688 0.25426 0.96993
 Cu153 Cu 0.27301 0.27258 1.00263
 Cu154 Cu 0.22543 0.22633 1.00214
 C155 C 0.21951 0.28112 0.95858
 C156 C 0.27895 0.21764 1.04608
 C157 C 0.27960 0.21926 0.95788
 C158 C 0.21870 0.27992 1.04663
 O159 O 0.24810 0.78967 0.46645
 O160 O 0.29192 0.74703 0.53503
 O161 O 0.29400 0.74400 0.46970
 O162 O 0.24506 0.79185 0.53176
 O163 O 0.20902 0.75013 0.53485
 O164 O 0.25320 0.70692 0.46684
 O165 O 0.25589 0.70530 0.53221
 O166 O 0.20727 0.75262 0.46950
 Cu167 Cu 0.27366 0.77212 0.50074
 Cu168 Cu 0.22746 0.72474 0.50088
 C169 C 0.22007 0.77865 0.45647
 C170 C 0.28165 0.71872 0.54509
 C171 C 0.28126 0.71787 0.45686
 C172 C 0.21924 0.77853 0.54466
 O173 O 0.29427 0.75587 -0.03261
 O174 O 0.24860 0.70757 0.03144
 O175 O 0.24996 0.70820 -0.03439
 O176 O 0.29403 0.75286 0.03256
 O177 O 0.25544 0.79240 0.03166
 O178 O 0.20878 0.74499 -0.03234
 O179 O 0.20917 0.74630 0.03234
 O180 O 0.25288 0.79245 -0.03400
 Cu181 Cu 0.27567 0.72723 -0.00094
 Cu182 Cu 0.22766 0.77301 -0.00050
 C183 C 0.28091 0.78208 -0.04470
 C184 C 0.22138 0.71908 0.04319
 C185 C 0.22183 0.71875 -0.04465
 C186 C 0.28225 0.78015 0.04363
 O187 O 0.29261 0.25706 0.46450
 O188 O 0.24883 0.21037 0.53056
 O189 O 0.24700 0.21003 0.46501
 O190 O 0.29315 0.25744 0.52939
 O191 O 0.25179 0.29401 0.53139
 O192 O 0.20825 0.24941 0.46377
 O193 O 0.20727 0.24674 0.52888
 O194 O 0.25299 0.29557 0.46546
 Cu195 Cu 0.27436 0.22982 0.49720
 Cu196 Cu 0.22613 0.27535 0.49751
 C197 C 0.28028 0.28428 0.45374
 C198 C 0.22065 0.22059 0.54104
 C199 C 0.22013 0.22203 0.45295
 C200 C 0.27983 0.28342 0.54193
 O201 O 0.74574 0.79250 0.96527
 O202 O 0.79119 0.74451 1.02964
 O203 O 0.79059 0.74475 0.96487
 O204 O 0.74734 0.79211 1.03089
 O205 O 0.70538 0.75627 1.02926
 O206 O 0.75052 0.70675 0.96586
 O207 O 0.74940 0.70847 1.03171
 O208 O 0.70653 0.75363 0.96409
 Cu209 Cu 0.77271 0.77235 0.99752
 Cu210 Cu 0.72393 0.72745 0.99787
 C211 C 0.71879 0.78078 0.95317
 C212 C 0.77760 0.71867 1.04215
 C213 C 0.77798 0.71766 0.95416
 C214 C 0.71906 0.78225 1.04141
 O215 O 0.74308 0.29227 0.46748
 O216 O 0.79147 0.24647 0.53115
 O217 O 0.79062 0.24821 0.46558
 O218 O 0.74389 0.29133 0.53230
 O219 O 0.70589 0.25127 0.53146
 O220 O 0.75478 0.20626 0.46749
 O221 O 0.75260 0.20725 0.53260
 O222 O 0.70702 0.25049 0.46556
 Cu223 Cu 0.77113 0.27358 0.49920
 Cu224 Cu 0.72621 0.22481 0.49911
 C225 C 0.71714 0.27877 0.45518
 C226 C 0.77981 0.21949 0.54329
 C227 C 0.78072 0.21987 0.45519
 C228 C 0.71695 0.27861 0.54329
 O229 O 0.79410 0.25411 -0.03100
 O230 O 0.74841 0.20550 0.03255
 O231 O 0.74903 0.20727 -0.03331
 O232 O 0.79290 0.25184 0.03418
 O233 O 0.75425 0.29130 0.03293
 O234 O 0.70778 0.24397 -0.03115
 O235 O 0.70887 0.24410 0.03360
 O236 O 0.75264 0.29059 -0.03274
 Cu237 Cu 0.77507 0.22578 0.00045
 Cu238 Cu 0.72696 0.27144 0.00081
 C239 C 0.78079 0.28025 -0.04322
 C240 C 0.72117 0.21684 0.04433
 C241 C 0.72092 0.21789 -0.04366
 C242 C 0.78105 0.27923 0.04503
 O243 O 0.70717 0.74790 0.46937
 O244 O 0.75115 0.79275 0.53632
 O245 O 0.75211 0.79355 0.47044
 O246 O 0.70669 0.74511 0.53447
 O247 O 0.74818 0.70866 0.53600
 O248 O 0.79166 0.75495 0.46946
 O249 O 0.79242 0.75607 0.53422
 O250 O 0.74586 0.70844 0.47044
 Cu251 Cu 0.72532 0.77374 0.50289
 Cu252 Cu 0.77347 0.72810 0.50247
 C253 C 0.71904 0.72058 0.45842
 C254 C 0.77934 0.78228 0.54654
 C255 C 0.77928 0.78208 0.45856
 C256 C 0.72003 0.71889 0.54654
 O257 O 0.96765 0.24495 0.29292
 O258 O 1.03250 0.29343 0.24926
 O259 O 0.96649 0.29287 0.24906
 O260 O 1.03218 0.24511 0.29267
 O261 O 1.03307 0.20890 0.25092
 O262 O 0.96752 0.25667 0.20731
 O263 O 1.03205 0.25723 0.20750
 O264 O 0.96708 0.20876 0.25116
 Cu265 Cu 0.99968 0.27296 0.27499
 Cu266 Cu 0.99996 0.22903 0.22521
 C267 C 0.95610 0.21872 0.27932
 C268 C 1.04356 0.28347 0.22115
 C269 C 0.95563 0.28278 0.22091
 C270 C 1.04401 0.21897 0.27903
 O271 O 0.46574 0.25156 0.70814
 O272 O 0.53093 0.20675 0.75540
 O273 O 0.46551 0.20659 0.75397
 O274 O 0.53099 0.25265 0.70855
 O275 O 0.53104 0.29149 0.74789
 O276 O 0.46546 0.24545 0.79328
 O277 O 0.53084 0.24662 0.79367
 O278 O 0.46575 0.29146 0.74638
 Cu279 Cu 0.49853 0.22539 0.72765
 Cu280 Cu 0.49798 0.27271 0.77422
 C281 C 0.45444 0.27903 0.71939
 C282 C 0.54232 0.21927 0.78231
 C283 C 0.45405 0.21839 0.78114
 C284 C 0.54244 0.27969 0.72069
 O285 O 0.03454 0.25100 0.79201
 O286 O -0.03035 0.20786 0.74328
 O287 O 0.03406 0.20798 0.74325
 O288 O -0.03137 0.25091 0.79182
 O289 O -0.03065 0.29301 0.75600
 O290 O 0.03478 0.25010 0.70745
 O291 O -0.03111 0.24997 0.70746
 O292 O 0.03378 0.29311 0.75620
 Cu293 Cu 0.00175 0.22537 0.77142
 Cu294 Cu 0.00173 0.27562 0.72795
 C295 C 0.04533 0.27929 0.78233
 C296 C -0.04198 0.22173 0.71720
 C297 C 0.04567 0.22184 0.71713
 C298 C -0.04235 0.27911 0.78205
 O299 O 0.46804 0.20652 0.24396
 O300 O 0.53198 0.25381 0.29055
 O301 O 0.46653 0.25208 0.29002
 O302 O 0.53282 0.20751 0.24425
 O303 O 0.53181 0.24646 0.20503
 O304 O 0.46833 0.29300 0.25290
 O305 O 0.53327 0.29187 0.25046
 O306 O 0.46592 0.24724 0.20665
 Cu307 Cu 0.49997 0.22608 0.27117
 Cu308 Cu 0.49965 0.27351 0.22474
 C309 C 0.45553 0.21932 0.21772
 C310 C 0.54403 0.28048 0.27807
 C311 C 0.45617 0.28015 0.27931
 C312 C 0.54364 0.21944 0.21686
 O313 O 1.03288 0.70783 0.75600
 O314 O 0.96690 0.75190 0.70946
 O315 O 1.03237 0.75346 0.70902
 O316 O 0.96814 0.70696 0.75615
 O317 O 0.96592 0.74814 0.79295
 O318 O 1.03355 0.79201 0.74861
 O319 O 0.96860 0.79328 0.74606
 O320 O 1.03176 0.74727 0.79472
 Cu321 Cu 1.00021 0.72609 0.72873
 Cu322 Cu 0.99977 0.77410 0.77453
 C323 C 1.04358 0.72008 0.78327
 C324 C 0.95653 0.78010 0.71979
 C325 C 1.04443 0.78025 0.72118
 C326 C 0.95556 0.72007 0.78223
 O327 O 0.46893 0.75384 0.20787
 O328 O 0.53483 0.70814 0.25322
 O329 O 0.46959 0.70804 0.25480
 O330 O 0.53420 0.75291 0.20713
 O331 O 0.53414 0.79294 0.24524
 O332 O 0.46951 0.74808 0.29292
 O333 O 0.53471 0.74715 0.29237
 O334 O 0.46887 0.79283 0.24705
 Cu335 Cu 0.50167 0.72675 0.22686
 Cu336 Cu 0.50210 0.77426 0.27327
 C337 C 0.45739 0.78089 0.21997
 C338 C 0.54616 0.72001 0.28041
 C339 C 0.45828 0.72058 0.28175
 C340 C 0.54540 0.78043 0.21826
 O341 O -0.03403 0.70652 0.24318
 O342 O 0.03148 0.74964 0.29143
 O343 O -0.03452 0.74988 0.29165
 O344 O 0.03062 0.70648 0.24291
 O345 O 0.03131 0.74847 0.20698
 O346 O -0.03377 0.79184 0.25569
 O347 O 0.03075 0.79164 0.25550
 O348 O -0.03481 0.74849 0.20722
 Cu349 Cu -0.00163 0.72408 0.27109
 Cu350 Cu -0.00166 0.77412 0.22749
 C351 C -0.04580 0.72033 0.21711
 C352 C 0.04248 0.77780 0.28157
 C353 C -0.04538 0.77814 0.28189
 C354 C 0.04234 0.72031 0.21682
 O355 O 0.46721 0.79308 0.75321
 O356 O 0.53296 0.74708 0.70784
 O357 O 0.46765 0.74576 0.70772
 O358 O 0.53253 0.79372 0.75188
 O359 O 0.53265 0.75605 0.79234
 O360 O 0.46760 0.70813 0.74822
 O361 O 0.53288 0.70834 0.74729
 O362 O 0.46732 0.75437 0.79269
 Cu363 Cu 0.49983 0.77375 0.72613
 Cu364 Cu 0.50037 0.72790 0.77418
 C365 C 0.45580 0.78133 0.78048
 C366 C 0.54434 0.72005 0.72004
 C367 C 0.45631 0.71901 0.72060
 C368 C 0.54394 0.78283 0.77943
 C369 C 0.40129 0.34896 0.31403
 C370 C 0.37504 0.33053 0.32850
 C371 C 0.37650 0.29537 0.32757
 C372 C 0.40350 0.27907 0.31254
 C373 C 0.42908 0.29755 0.29723
 C374 C 0.42780 0.33262 0.29807
 H375 H 0.40098 0.37603 0.31466
 H376 H 0.35643 0.28048 0.33796
 H377 H 0.40381 0.25198 0.31187
 H378 H 0.44737 0.34736 0.28651
 C379 C 0.39901 0.84932 0.81395
 C380 C 0.37343 0.83039 0.82902
 C381 C 0.37581 0.79528 0.82847
 C382 C 0.40313 0.77952 0.81348
 C383 C 0.42813 0.79845 0.79775
 C384 C 0.42584 0.83347 0.79796
 H385 H 0.39797 0.87638 0.81423
 H386 H 0.35626 0.77996 0.83924
 H387 H 0.40420 0.75244 0.81326
 H388 H 0.44495 0.84853 0.78606
 C389 C -0.09861 0.34632 0.81749
 C390 C -0.12463 0.32726 0.83149
 C391 C -0.12234 0.29213 0.83050
 C392 C -0.09486 0.27649 0.81560
 C393 C -0.06962 0.29563 0.80055
 C394 C -0.07163 0.33066 0.80171
 H395 H -0.09954 0.37338 0.81824
 H396 H -0.14220 0.27677 0.84064
 H397 H -0.09399 0.24942 0.81468
 H398 H -0.05232 0.34592 0.79037
 C399 C -0.10067 0.84608 0.31761
 C400 C -0.12667 0.82736 0.33213
 C401 C -0.12471 0.79220 0.33129
 C402 C -0.09758 0.77620 0.31610
 C403 C -0.07234 0.79500 0.30058
 C404 C -0.07404 0.83006 0.30155
 H405 H -0.10132 0.87315 0.31821
 H406 H -0.14456 0.77708 0.34180
 H407 H -0.09696 0.74912 0.31535
 H408 H -0.05475 0.84508 0.28987
 C409 C 0.60166 0.68582 0.34901
 C410 C 0.62742 0.67062 0.33040
 C411 C 0.62556 0.67125 0.29524
 C412 C 0.59862 0.68652 0.27912
 C413 C 0.57349 0.70243 0.29775
 C414 C 0.57523 0.70206 0.33282
 H415 H 0.60228 0.68548 0.37609
 H416 H 0.64526 0.66035 0.28018
 H417 H 0.59794 0.68681 0.25201
 H418 H 0.55599 0.71407 0.34767
 C419 C 0.59987 0.15212 0.81612
 C420 C 0.62528 0.17137 0.83105
 C421 C 0.62229 0.20644 0.83072
 C422 C 0.59470 0.22183 0.81583
 C423 C 0.57000 0.20258 0.80004
 C424 C 0.57278 0.16760 0.80028
 H425 H 0.60133 0.12508 0.81626
 H426 H 0.64166 0.22202 0.84141
 H427 H 0.59327 0.24890 0.81561
 H428 H 0.55392 0.15226 0.78835
 C429 C 1.09957 0.65215 0.81768
 C430 C 1.12570 0.67098 0.83180
 C431 C 1.12362 0.70612 0.83098
 C432 C 1.09620 0.72200 0.81633
 C433 C 1.07082 0.70311 0.80125
 C434 C 1.07267 0.66807 0.80202
 H435 H 1.10033 0.62508 0.81827
 H436 H 1.14356 0.72134 0.84112
 H437 H 1.09544 0.74908 0.81563
 H438 H 1.05325 0.65305 0.79059
 C439 C 1.12370 0.16997 0.29216
 C440 C 1.12634 0.16952 0.32728
 C441 C 1.10077 0.18435 0.34638
 C442 C 1.07382 0.20022 0.33072
 C443 C 1.07139 0.20069 0.29567
 C444 C 1.09627 0.18496 0.27655
 H445 H 1.14322 0.15925 0.27673
 H446 H 1.10198 0.18409 0.37345
 H447 H 1.05484 0.21209 0.34599
 H448 H 1.09512 0.18534 0.24946
 C449 C 0.62285 0.32682 0.70686
 C450 C 0.62482 0.32809 0.67173
 C451 C 0.59875 0.31396 0.65279
 C452 C 0.57188 0.29809 0.66862
 C453 C 0.57004 0.29710 0.70366
 C454 C 0.59549 0.31198 0.72264
 H455 H 0.64277 0.33689 0.72216
 H456 H 0.59946 0.31482 0.62572
 H457 H 0.55241 0.28684 0.65354
 H458 H 0.59474 0.31112 0.74974
 C459 C 0.60085 0.84838 0.18301
 C460 C 0.62646 0.82951 0.16792
 C461 C 0.62433 0.79440 0.16861
 C462 C 0.59734 0.77857 0.18407
 C463 C 0.57247 0.79747 0.20006
 C464 C 0.57438 0.83250 0.19942
 H465 H 0.60173 0.87545 0.18260
 H466 H 0.64392 0.77917 0.15775
 H467 H 0.59652 0.75148 0.18457
 H468 H 0.55532 0.84754 0.21148
 C469 C 1.09985 0.31872 0.15386
 C470 C 1.12579 0.33280 0.17296
 C471 C 1.12342 0.33187 0.20810
 C472 C 1.09594 0.31702 0.22372
 C473 C 1.07077 0.30191 0.20456
 C474 C 1.07287 0.30295 0.16951
 H475 H 1.10087 0.31939 0.12678
 H476 H 1.14322 0.34202 0.22350
 H477 H 1.09502 0.31616 0.25080
 H478 H 1.05362 0.29154 0.15425
 C479 C 1.12401 0.82875 0.70662
 C480 C 1.12608 0.82937 0.67148
 C481 C 1.10048 0.81411 0.65276
 C482 C 1.07394 0.79789 0.66882
 C483 C 1.07197 0.79758 0.70388
 C484 C 1.09699 0.81348 0.72261
 H485 H 1.14360 0.83966 0.72177
 H486 H 1.10130 0.81440 0.62568
 H487 H 1.05480 0.78590 0.65389
 H488 H 1.09615 0.81323 0.74971
 C489 C 0.37679 0.67009 0.70761
 C490 C 0.37452 0.66885 0.67249
 C491 C 0.40021 0.68341 0.65330
 C492 C 0.42691 0.69975 0.66887
 C493 C 0.42899 0.70086 0.70390
 C494 C 0.40400 0.68547 0.72312
 H495 H 0.35716 0.65971 0.72309
 H496 H 0.39926 0.68259 0.62624
 H497 H 0.44603 0.71137 0.65357
 H498 H 0.40492 0.68636 0.75020
 C499 C 0.37469 0.20458 0.17150
 C500 C 0.37290 0.16942 0.17074
 C501 C 0.39922 0.15080 0.18482
 C502 C 0.42623 0.16697 0.20006
 C503 C 0.42792 0.20204 0.20054
 C504 C 0.40216 0.22069 0.18577
 H505 H 0.35458 0.21964 0.16141
 H506 H 0.39865 0.12373 0.18432
 H507 H 0.44591 0.15210 0.21127
 H508 H 0.40272 0.24778 0.18626
 C509 C -0.12582 0.70731 0.16864
 C510 C -0.12840 0.67219 0.16808
 C511 C -0.10257 0.65310 0.18243
 C512 C -0.07551 0.66874 0.19808
 C513 C -0.07319 0.70377 0.19877
 C514 C -0.09826 0.72291 0.18341
 H515 H -0.14550 0.72272 0.15824
 H516 H -0.10368 0.62604 0.18202
 H517 H -0.05636 0.65345 0.20965
 H518 H -0.09720 0.74998 0.18396
 C519 C -0.09768 0.15442 0.68151
 C520 C -0.12385 0.17344 0.66773
 C521 C -0.12185 0.20856 0.66895
 C522 C -0.09446 0.22426 0.68383
 C523 C -0.06906 0.20516 0.69865
 C524 C -0.07079 0.17013 0.69729
 H525 H -0.09844 0.12736 0.68061
 H526 H -0.14185 0.22387 0.65903
 H527 H -0.09380 0.25133 0.68495
 H528 H -0.05135 0.15493 0.70848
 C529 C 0.31835 0.40271 0.34570
 C530 C 0.33247 0.37663 0.32672
 C531 C 0.33159 0.37882 0.29157
 C532 C 0.31679 0.40627 0.27583
 C533 C 0.30165 0.43155 0.29487
 C534 C 0.30258 0.42963 0.32992
 H535 H 0.31899 0.40185 0.37277
 H536 H 0.34174 0.35891 0.27625
 H537 H 0.31599 0.40709 0.24874
 H538 H 0.29114 0.44899 0.34506
 C539 C 0.31458 -0.09899 0.84647
 C540 C 0.32951 -0.12469 0.82754
 C541 C 0.32837 -0.12268 0.79240
 C542 C 0.31289 -0.09564 0.77663
 C543 C 0.29727 -0.07057 0.79560
 C544 C 0.29812 -0.07246 0.83064
 H545 H 0.31530 -0.09975 0.87355
 H546 H 0.33900 -0.14233 0.77710
 H547 H 0.31221 -0.09485 0.74954
 H548 H 0.28633 -0.05327 0.84572
 C549 C 0.81681 0.39817 0.84746
 C550 C 0.83171 0.37227 0.82885
 C551 C 0.83140 0.37433 0.79367
 C552 C 0.81648 0.40152 0.77755
 C553 C 0.80065 0.42667 0.79621
 C554 C 0.80095 0.42483 0.83129
 H555 H 0.81700 0.39746 0.87455
 H556 H 0.84218 0.35456 0.77862
 H557 H 0.81620 0.40226 0.75045
 H558 H 0.78898 0.44407 0.84616
 C559 C 0.81619 -0.10078 0.34895
 C560 C 0.83027 -0.12699 0.33011
 C561 C 0.82921 -0.12505 0.29496
 C562 C 0.81436 -0.09769 0.27909
 C563 C 0.79935 -0.07219 0.29799
 C564 C 0.80040 -0.07392 0.33305
 H565 H 0.81696 -0.10144 0.37603
 H566 H 0.83934 -0.14504 0.27975
 H567 H 0.81353 -0.09705 0.25199
 H568 H 0.78910 -0.05442 0.34812
 C569 C 0.34793 0.59966 0.68631
 C570 C 0.32916 0.62548 0.67141
 C571 C 0.29407 0.62354 0.67231
 C572 C 0.27816 0.59643 0.68747
 C573 C 0.29693 0.57117 0.70299
 C574 C 0.33194 0.57301 0.70244
 H575 H 0.37498 0.60037 0.68576
 H576 H 0.27889 0.64328 0.66167
 H577 H 0.25109 0.59569 0.68793
 H578 H 0.34689 0.55369 0.71416
 C579 C 0.31468 1.09817 0.15361
 C580 C 0.32974 1.12373 0.17257
 C581 C 0.32931 1.12119 0.20770
 C582 C 0.31419 1.09389 0.22342
 C583 C 0.29827 1.06905 0.20443
 C584 C 0.29861 1.07138 0.16940
 H585 H 0.31490 1.09927 0.12653
 H586 H 0.34013 1.14068 0.22305
 H587 H 0.31392 1.09278 0.25051
 H588 H 0.28661 1.05240 0.15426
 C589 C 0.82723 0.62526 0.20577
 C590 C 0.82770 0.62730 0.17062
 C591 C 0.81269 0.60146 0.15199
 C592 C 0.79683 0.57475 0.16814
 C593 C 0.79666 0.57281 0.20319
 C594 C 0.81234 0.59806 0.22184
 H595 H 0.83800 0.64499 0.22086
 H596 H 0.81293 0.60220 0.12491
 H597 H 0.78501 0.55545 0.15327
 H598 H 0.81219 0.59725 0.24895
 C599 C 0.81821 1.10225 0.65174
 C600 C 0.83280 1.12826 0.67039
 C601 C 0.83224 1.12629 0.70555
 C602 C 0.81731 1.09911 0.72165
 C603 C 0.80179 1.07382 0.70296
 C604 C 0.80240 1.07555 0.66787
 H605 H 0.81858 1.10295 0.62465
 H606 H 0.84280 1.14615 0.72061
 H607 H 0.81685 1.09846 0.74875
 H608 H 0.79071 1.05620 0.65295
 C609 C 0.65290 0.60076 0.31823
 C610 C 0.67201 0.62648 0.33276
 C611 C 0.70709 0.62397 0.33201
 C612 C 0.72266 0.59652 0.31705
 C613 C 0.70353 0.57155 0.30160
 C614 C 0.66853 0.57382 0.30229
 H615 H 0.62587 0.60189 0.31872
 H616 H 0.72251 0.64361 0.34244
 H617 H 0.74972 0.59544 0.31643
 H618 H 0.65332 0.55472 0.29058
 C619 C 0.67070 1.12518 0.79344
 C620 C 0.66939 1.12680 0.82859
 C621 C 0.68391 1.10079 0.84733
 C622 C 0.70036 1.07439 0.83132
 C623 C 0.70166 1.07298 0.79625
 C624 C 0.68624 1.09828 0.77745
 H625 H 0.66024 1.14509 0.77835
 H626 H 0.68301 1.10127 0.87441
 H627 H 0.71196 1.05502 0.84630
 H628 H 0.68724 1.09787 0.75035
 C629 C 0.18376 0.59970 0.84826
 C630 C 0.16891 0.62547 0.82943
 C631 C 0.16913 0.62307 0.79429
 C632 C 0.18385 0.59564 0.77840
 C633 C 0.19959 0.57059 0.79727
 C634 C 0.19944 0.57279 0.83231
 H635 H 0.18369 0.60073 0.87534
 H636 H 0.15846 0.64275 0.77906
 H637 H 0.18405 0.59463 0.75131
 H638 H 0.21136 0.55364 0.84733
 C639 C 0.20631 1.12316 0.32798
 C640 C 0.17125 1.12571 0.32920
 C641 C 0.15192 1.09974 0.31539
 C642 C 0.16731 1.07237 0.29991
 C643 C 0.20228 1.06995 0.29900
 C644 C 0.22163 1.09532 0.31353
 H645 H 0.22190 1.14300 0.33776
 H646 H 0.12490 1.10091 0.31622
 H647 H 0.15195 1.05299 0.28887
 H648 H 0.24867 1.09415 0.31269
 C649 C 0.65161 0.39712 0.68537
 C650 C 0.67027 0.37130 0.67031
 C651 C 0.70537 0.37319 0.67105
 C652 C 0.72137 0.40024 0.68623
 C653 C 0.70270 0.42548 0.70195
 C654 C 0.66768 0.42368 0.70154
 H655 H 0.62456 0.39646 0.68496
 H656 H 0.72047 0.35345 0.66028
 H657 H 0.74845 0.40095 0.68655
 H658 H 0.65280 0.44299 0.71337
 C659 C 0.67143 -0.12464 0.20549
 C660 C 0.67020 -0.12578 0.17031
 C661 C 0.68445 -0.09937 0.15194
 C662 C 0.70035 -0.07292 0.16836
 C663 C 0.70137 -0.07189 0.20346
 C664 C 0.68639 -0.09771 0.22188
 H665 H 0.66122 -0.14486 0.22033
 H666 H 0.68360 -0.09948 0.12486
 H667 H 0.71167 -0.05316 0.15368
 H668 H 0.68724 -0.09760 0.24898
 C669 C 0.20653 0.37744 0.17251
 C670 C 0.17144 0.37569 0.17132
 C671 C 0.15265 0.40188 0.18554
 C672 C 0.16859 0.42874 0.20128
 C673 C 0.20359 0.43041 0.20208
 C674 C 0.22241 0.40477 0.18724
 H675 H 0.22170 0.35739 0.16242
 H676 H 0.12560 0.40130 0.18477
 H677 H 0.15364 0.44836 0.21250
 H678 H 0.24948 0.40539 0.18795
 C679 C 0.15139 -0.10073 0.68373
 C680 C 0.17061 -0.12641 0.66919
 C681 C 0.20567 -0.12369 0.66979
 C682 C 0.22109 -0.09604 0.68449
 C683 C 0.20186 -0.07102 0.69985
 C684 C 0.16688 -0.07356 0.69942
 H685 H 0.12436 -0.10200 0.68338
 H686 H 0.22121 -0.14328 0.65938
 H687 H 0.24814 -0.09479 0.68490
 H688 H 0.15158 -0.05446 0.71105
 C689 C 0.29473 0.33295 0.37417
 C690 C 0.32985 0.33322 0.37200
 C691 C 0.34850 0.31840 0.39790
 C692 C 0.33242 0.30264 0.42467
 C693 C 0.29740 0.30239 0.42661
 C694 C 0.27869 0.31815 0.40147
 H695 H 0.27964 0.34364 0.35438
 H696 H 0.37555 0.31853 0.39705
 H697 H 0.34731 0.29070 0.44390
 H698 H 0.25163 0.31788 0.40229
 C699 C 0.29361 0.83041 -0.12477
 C700 C 0.32866 0.83200 -0.12702
 C701 C 0.34793 0.81788 -0.10115
 C702 C 0.33249 0.80161 -0.07426
 C703 C 0.29751 0.80015 -0.07220
 C704 C 0.27822 0.81511 -0.09741
 H705 H 0.27808 0.84049 -0.14454
 H706 H 0.37495 0.81897 -0.10210
 H707 H 0.34785 0.79033 -0.05500
 H708 H 0.25117 0.81396 -0.09652
 C709 C 0.79464 0.32810 -0.12346
 C710 C 0.82975 0.32914 -0.12546
 C711 C 0.84860 0.31496 -0.09933
 C712 C 0.83273 0.29916 -0.07243
 C713 C 0.79771 0.29820 -0.07062
 C714 C 0.77881 0.31324 -0.09607
 H715 H 0.77943 0.33827 -0.14341
 H716 H 0.87564 0.31567 -0.10005
 H717 H 0.84780 0.28780 -0.05299
 H718 H 0.75175 0.31244 -0.09538
 C719 C 0.79305 0.82965 0.37820
 C720 C 0.82815 0.82991 0.37573
 C721 C 0.84703 0.81540 0.40164
 C722 C 0.83117 0.80002 0.42877
 C723 C 0.79617 0.79985 0.43106
 C724 C 0.77725 0.81524 0.40585
 H725 H 0.77779 0.84010 0.35843
 H726 H 0.87407 0.81554 0.40058
 H727 H 0.84622 0.78833 0.44804
 H728 H 0.75019 0.81499 0.40691
 C729 C 0.66858 0.29154 0.62340
 C730 C 0.66800 0.32664 0.62613
 C731 C 0.68261 0.34582 0.60045
 C732 C 0.69839 0.33026 0.57335
 C733 C 0.69890 0.29524 0.57083
 C734 C 0.68341 0.27604 0.59579
 H735 H 0.65810 0.27604 0.64298
 H736 H 0.68226 0.37287 0.60170
 H737 H 0.71012 0.34555 0.55429
 H738 H 0.68387 0.24897 0.59456
 C739 C 0.65203 0.81757 1.09816
 C740 C 0.67126 0.83178 1.12399
 C741 C 0.70633 0.83073 1.12144
 C742 C 0.72175 0.81570 1.09391
 C743 C 0.70248 0.80051 1.06883
 C744 C 0.66749 0.80162 1.07111
 H745 H 0.62500 0.81829 1.09930
 H746 H 0.72185 0.84092 1.14113
 H747 H 0.74880 0.81483 1.09287
 H748 H 0.65214 0.79018 1.05196
 C749 C 0.18492 0.34863 1.10232
 C750 C 0.16970 0.33012 1.12813
 C751 C 0.17006 0.29497 1.12618
 C752 C 0.18516 0.27879 1.09913
 C753 C 0.20115 0.29733 1.07399
 C754 C 0.20099 0.33238 1.07579
 H755 H 0.18476 0.37571 1.10298
 H756 H 0.15910 0.27997 1.14590
 H757 H 0.18529 0.25169 1.09841
 H758 H 0.21305 0.34716 1.05654
 C759 C 0.18354 0.84663 0.59994
 C760 C 0.16954 0.82783 0.62623
 C761 C 0.17132 0.79272 0.62475
 C762 C 0.18663 0.77682 0.59768
 C763 C 0.20140 0.79566 0.57201
 C764 C 0.19980 0.83070 0.57334
 H765 H 0.18229 0.87368 0.60031
 H766 H 0.16134 0.77756 0.64486
 H767 H 0.18789 0.74974 0.59736
 H768 H 0.21091 0.84571 0.55369
 C769 C 0.31650 0.65116 0.60161
 C770 C 0.33090 0.67025 0.62744
 C771 C 0.32964 0.70535 0.62526
 C772 C 0.31447 0.72095 0.59796
 C773 C 0.29933 0.70185 0.57271
 C774 C 0.30041 0.66682 0.57475
 H775 H 0.31732 0.62411 0.60252
 H776 H 0.33993 0.72074 0.64502
 H777 H 0.31363 0.74803 0.59711
 H778 H 0.28901 0.65159 0.55546
 C779 C 0.34667 0.18180 1.10144
 C780 C 0.32776 0.16737 1.12741
 C781 C 0.29268 0.16872 1.12558
 C782 C 0.27691 0.18415 1.09851
 C783 C 0.29587 0.19947 1.07326
 C784 C 0.33087 0.19820 1.07489
 H785 H 0.37371 0.18088 1.10208
 H786 H 0.27744 0.15839 1.14545
 H787 H 0.24985 0.18515 1.09789
 H788 H 0.34595 0.20975 1.05555
 C789 C 0.79099 0.67169 1.12296
 C790 C 0.82609 0.67034 1.12493
 C791 C 0.84507 0.68406 1.09865
 C792 C 0.82934 0.69967 1.07158
 C793 C 0.79433 0.70091 1.06977
 C794 C 0.77529 0.68636 1.09542
 H795 H 0.77569 0.66186 1.14304
 H796 H 0.87210 0.68310 1.09935
 H797 H 0.84451 0.71065 1.05198
 H798 H 0.74824 0.68740 1.09473
 C799 C 0.84871 0.18640 0.59894
 C800 C 0.83025 0.17170 0.62510
 C801 C 0.79514 0.17239 0.62352
 C802 C 0.77891 0.18720 0.59641
 C803 C 0.79739 0.20256 0.57083
 C804 C 0.83241 0.20219 0.57231
 H805 H 0.87577 0.18599 0.59939
 H806 H 0.78022 0.16188 0.64353
 H807 H 0.75183 0.18754 0.59592
 H808 H 0.84711 0.21380 0.55272
 C809 C 0.67202 0.70694 0.37791
 C810 C 0.67053 0.67185 0.37602
 C811 C 0.68466 0.65282 0.40209
 C812 C 0.70070 0.66854 0.42892
 C813 C 0.70187 0.70355 0.43069
 C814 C 0.68706 0.72260 0.40521
 H815 H 0.66200 0.72228 0.35797
 H816 H 0.68365 0.62577 0.40140
 H817 H 0.71187 0.65341 0.44843
 H818 H 0.68803 0.74968 0.40592
 C819 C 0.65261 0.18398 -0.09962
 C820 C 0.67124 0.16999 -0.12603
 C821 C 0.70638 0.17103 -0.12434
 C822 C 0.72244 0.18559 -0.09696
 C823 C 0.70377 0.20035 -0.07116
 C824 C 0.66872 0.19948 -0.07271
 H825 H 0.62556 0.18324 -0.10008
 H826 H 0.72144 0.16099 -0.14448
 H827 H 0.74951 0.18632 -0.09649
 H828 H 0.65382 0.21064 -0.05301
 C829 C 0.20677 0.67025 -0.12423
 C830 C 0.17164 0.66915 -0.12557
 C831 C 0.15319 0.68359 -0.09928
 C832 C 0.16947 0.69972 -0.07288
 C833 C 0.20451 0.70077 -0.07173
 C834 C 0.22302 0.68547 -0.09733
 H835 H 0.22166 0.65986 -0.14434
 H836 H 0.12614 0.68282 -0.09951
 H837 H 0.15471 0.71123 -0.05326
 H838 H 0.25009 0.68627 -0.09711
 C839 C 0.17167 0.20697 0.37334
 C840 C 0.17057 0.17183 0.37183
 C841 C 0.18552 0.15330 0.39781
 C842 C 0.20196 0.16951 0.42411
 C843 C 0.20276 0.20457 0.42552
 C844 C 0.18714 0.22313 0.40016
 H845 H 0.16096 0.22196 0.35350
 H846 H 0.18480 0.12622 0.39747
 H847 H 0.21368 0.15471 0.44355
 H848 H 0.18772 0.25023 0.40059
 C849 C 0.32819 0.37526 0.70639
 C850 C 0.32972 0.37366 0.67124
 C851 C 0.31579 0.39998 0.65245
 C852 C 0.29980 0.42669 0.66842
 C853 C 0.29839 0.42813 0.70349
 C854 C 0.31315 0.40246 0.72233
 H855 H 0.33815 0.35514 0.72154
 H856 H 0.31688 0.39954 0.62538
 H857 H 0.28867 0.44632 0.65341
 H858 H 0.31201 0.40287 0.74942
 C859 C 0.29404 0.87426 0.17168
 C860 C 0.32916 0.87262 0.17052
 C861 C 0.34780 0.89852 0.18533
 C862 C 0.33170 0.92492 0.20174
 C863 C 0.29668 0.92645 0.20262
 C864 C 0.27799 0.90117 0.18709
 H865 H 0.27898 0.85443 0.16108
 H866 H 0.37485 0.89803 0.18457
 H867 H 0.34655 0.94429 0.21346
 H868 H 0.25092 0.90169 0.18781
 C869 C 0.79277 0.37674 0.17145
 C870 C 0.82785 0.37478 0.17004
 C871 C 0.84683 0.40096 0.18389
 C872 C 0.83110 0.42787 0.19976
 C873 C 0.79609 0.42963 0.20113
 C874 C 0.77706 0.40413 0.18638
 H875 H 0.77748 0.35673 0.16154
 H876 H 0.87387 0.40024 0.18288
 H877 H 0.84625 0.44736 0.21090
 H878 H 0.75001 0.40479 0.18750
 C879 C 0.83230 0.87856 0.70708
 C880 C 0.83275 0.87591 0.67196
 C881 C 0.81833 0.90170 0.65282
 C882 C 0.80275 0.92883 0.66845
 C883 C 0.80229 0.93123 0.70348
 C884 C 0.81768 0.90620 0.72265
 H885 H 0.84266 0.85888 0.72252
 H886 H 0.81860 0.90047 0.62575
 H887 H 0.79108 0.94797 0.65321
 H888 H 0.81723 0.90737 0.74973
 C889 C 0.67034 0.62157 0.70759
 C890 C 0.66922 0.62423 0.67250
 C891 C 0.68353 0.59855 0.65310
 C892 C 0.69952 0.57145 0.66843
 C893 C 0.70058 0.56899 0.70345
 C894 C 0.68540 0.59400 0.72287
 H895 H 0.66012 0.64117 0.72324
 H896 H 0.68279 0.59980 0.62604
 H897 H 0.71098 0.55237 0.65296
 H898 H 0.68625 0.59284 0.74995
 C899 C 0.66981 0.12255 0.20675
 C900 C 0.66933 0.12453 0.17158
 C901 C 0.68406 0.09853 0.15295
 C902 C 0.69992 0.07187 0.16909
 C903 C 0.70035 0.07010 0.20416
 C904 C 0.68470 0.09535 0.22285
 H905 H 0.65920 0.14241 0.22182
 H906 H 0.68376 0.09922 0.12586
 H907 H 0.71175 0.05254 0.15421
 H908 H 0.68510 0.09465 0.24995
 C909 C 0.16986 0.62556 0.20538
 C910 C 0.16890 0.62749 0.17024
 C911 C 0.18344 0.60154 0.15142
 C912 C 0.19970 0.57498 0.16734
 C913 C 0.20079 0.57332 0.20240
 C914 C 0.18523 0.59850 0.22129
 H915 H 0.15933 0.64538 0.22056
 H916 H 0.18276 0.60222 0.12434
 H917 H 0.21138 0.55571 0.15228
 H918 H 0.18603 0.59789 0.24838
 C919 C 0.17064 0.12540 0.70364
 C920 C 0.17022 0.12767 0.66850
 C921 C 0.18495 0.10179 0.64968
 C922 C 0.20057 0.07484 0.66565
 C923 C 0.20075 0.07271 0.70070
 C924 C 0.18527 0.09795 0.71954
 H925 H 0.16008 0.14515 0.71887
 H926 H 0.18473 0.10270 0.62260
 H927 H 0.21230 0.05555 0.65065
 H928 H 0.18548 0.09701 0.74663
 C929 C 0.31839 0.60088 0.34708
 C930 C 0.33280 0.62714 0.32864
 C931 C 0.33162 0.62588 0.29346
 C932 C 0.31636 0.59905 0.27715
 C933 C 0.30110 0.57346 0.29567
 C934 C 0.30223 0.57454 0.33076
 H935 H 0.31921 0.60109 0.37417
 H936 H 0.34199 0.64599 0.27858
 H937 H 0.31548 0.59888 0.25005
 H938 H 0.29074 0.55494 0.34552
 C939 C 0.34557 0.10045 0.81599
 C940 C 0.32654 0.12609 0.83086
 C941 C 0.29146 0.12403 0.82959
 C942 C 0.27584 0.09704 0.81390
 C943 C 0.29491 0.07208 0.79823
 C944 C 0.32990 0.07398 0.79933
 H945 H 0.37261 0.10125 0.81683
 H946 H 0.27609 0.14363 0.84022
 H947 H 0.24878 0.09623 0.81305
 H948 H 0.34508 0.05487 0.78754
 C949 C 0.81585 0.59841 0.84642
 C950 C 0.83015 0.62444 0.82751
 C951 C 0.82962 0.62213 0.79237
 C952 C 0.81503 0.59461 0.77656
 C953 C 0.79980 0.56928 0.79550
 C954 C 0.80036 0.57137 0.83056
 H955 H 0.81621 0.59934 0.87349
 H956 H 0.83994 0.64197 0.77710
 H957 H 0.81458 0.59371 0.74947
 H958 H 0.78888 0.55202 0.84568
 C959 C 0.84808 0.09991 0.31540
 C960 C 0.82914 0.12583 0.32990
 C961 C 0.79406 0.12377 0.32892
 C962 C 0.77834 0.09645 0.31397
 C963 C 0.79730 0.07113 0.29876
 C964 C 0.83230 0.07307 0.29947
 H965 H 0.87513 0.10073 0.31603
 H966 H 0.77877 0.14358 0.33927
 H967 H 0.75127 0.09562 0.31337
 H968 H 0.84738 0.05370 0.28799
 C969 C 0.70582 0.37574 0.32964
 C970 C 0.67071 0.37344 0.32996
 C971 C 0.65194 0.39944 0.31545
 C972 C 0.66791 0.42651 0.30008
 C973 C 0.70294 0.42863 0.29982
 C974 C 0.72173 0.40327 0.31517
 H975 H 0.72100 0.35591 0.34011
 H976 H 0.62489 0.39851 0.31563
 H977 H 0.65290 0.44587 0.28849
 H978 H 0.74880 0.40417 0.31493
 C979 C 0.70707 0.87759 0.82644
 C980 C 0.67197 0.87584 0.82762
 C981 C 0.65323 0.90188 0.81308
 C982 C 0.66923 0.92860 0.79709
 C983 C 0.70425 0.93029 0.79635
 C984 C 0.72301 0.90478 0.81145
 H985 H 0.72223 0.85767 0.83677
 H986 H 0.62618 0.90131 0.81382
 H987 H 0.65431 0.94813 0.78567
 H988 H 0.75008 0.90540 0.81082
 C989 C 0.18388 0.39963 0.84906
 C990 C 0.16954 0.37342 0.83049
 C991 C 0.17030 0.37519 0.79531
 C992 C 0.18503 0.40243 0.77914
 C993 C 0.20020 0.42798 0.79776
 C994 C 0.19953 0.42639 0.83285
 H995 H 0.18335 0.39910 0.87615
 H996 H 0.15997 0.35519 0.78029
 H997 H 0.18559 0.40295 0.75204
 H998 H 0.21099 0.44592 0.84771
 C999 C 0.18346 0.89642 0.34862
 C1000 C 0.16845 0.87095 0.32950
 C1001 C 0.16897 0.87366 0.29439
 C1002 C 0.18408 0.90107 0.27884
 C1003 C 0.19991 0.92586 0.29798
 C1004 C 0.19953 0.92332 0.33300
 H1005 H 0.18319 0.89517 0.37569
 H1006 H 0.15821 0.85424 0.27892
 H1007 H 0.18439 0.90232 0.25175
 H1008 H 0.21147 0.94224 0.34826
 C1009 C 0.37539 0.29326 0.66983
 C1010 C 0.37313 0.32838 0.66936
 C1011 C 0.39868 0.34716 0.68463
 C1012 C 0.42518 0.33119 0.70095
 C1013 C 0.42724 0.29615 0.70134
 C1014 C 0.40242 0.27735 0.68521
 H1015 H 0.35588 0.27807 0.65883
 H1016 H 0.39778 0.37422 0.68438
 H1017 H 0.44418 0.34618 0.71309
 H1018 H 0.40333 0.25026 0.68550
 C1019 C 0.40052 0.81494 0.15238
 C1020 C 0.37471 0.82942 0.17149
 C1021 C 0.37698 0.82832 0.20662
 C1022 C 0.40440 0.81337 0.22220
 C1023 C 0.42962 0.79821 0.20307
 C1024 C 0.42745 0.79897 0.16804
 H1025 H 0.39957 0.81564 0.12531
 H1026 H 0.35726 0.83861 0.22207
 H1027 H 0.40538 0.81270 0.24929
 H1028 H 0.44673 0.78751 0.15282
 C1029 C 0.89918 0.31714 0.15320
 C1030 C 0.87322 0.33152 0.17211
 C1031 C 0.87554 0.33097 0.20727
 C1032 C 0.90302 0.31627 0.22309
 C1033 C 0.92827 0.30095 0.20413
 C1034 C 0.92617 0.30156 0.16906
 H1035 H 0.89825 0.31752 0.12613
 H1036 H 0.85574 0.34137 0.22255
 H1037 H 0.90392 0.31577 0.25018
 H1038 H 0.94545 0.28999 0.15392
 C1039 C 0.87681 0.79469 0.67165
 C1040 C 0.87534 0.82983 0.67028
 C1041 C 0.90170 0.84844 0.68427
 C1042 C 0.92826 0.83232 0.70030
 C1043 C 0.92950 0.79727 0.70165
 C1044 C 0.90386 0.77858 0.68673
 H1045 H 0.85667 0.77966 0.66161
 H1046 H 0.90138 0.87551 0.68327
 H1047 H 0.94789 0.84720 0.71154
 H1048 H 0.90415 0.75151 0.68780
 C1049 C 0.59969 0.31492 0.34633
 C1050 C 0.62549 0.32985 0.32758
 C1051 C 0.62355 0.32910 0.29244
 C1052 C 0.59654 0.31382 0.27648
 C1053 C 0.57141 0.29808 0.29527
 C1054 C 0.57318 0.29870 0.33032
 H1055 H 0.60038 0.31538 0.37341
 H1056 H 0.64327 0.33981 0.27729
 H1057 H 0.59583 0.31335 0.24938
 H1058 H 0.55394 0.28688 0.34529
 C1059 C 0.60071 0.81832 0.84624
 C1060 C 0.62625 0.83282 0.82681
 C1061 C 0.62361 0.83167 0.79172
 C1062 C 0.59622 0.81636 0.77647
 C1063 C 0.57140 0.80096 0.79592
 C1064 C 0.57382 0.80204 0.83093
 H1065 H 0.60196 0.81907 0.87329
 H1066 H 0.64312 0.84202 0.77605
 H1067 H 0.59504 0.81550 0.74940
 H1068 H 0.55484 0.79042 0.84640
 C1069 C 0.10018 0.34699 0.81862
 C1070 C 0.12628 0.32817 0.83278
 C1071 C 0.12456 0.29303 0.83154
 C1072 C 0.09751 0.27712 0.81627
 C1073 C 0.07217 0.29603 0.80109
 C1074 C 0.07363 0.33108 0.80247
 H1075 H 0.10073 0.37406 0.81954
 H1076 H 0.14453 0.27788 0.84177
 H1077 H 0.09704 0.25005 0.81517
 H1078 H 0.05422 0.34614 0.79104
 C1079 C 0.09891 0.84487 0.31708
 C1080 C 0.12484 0.82572 0.33119
 C1081 C 0.12247 0.79059 0.33006
 C1082 C 0.09502 0.77506 0.31506
 C1083 C 0.06983 0.79428 0.29999
 C1084 C 0.07195 0.82932 0.30118
 H1085 H 0.09986 0.87193 0.31791
 H1086 H 0.14223 0.77512 0.34021
 H1087 H 0.09409 0.74800 0.31412
 H1088 H 0.05271 0.84465 0.28983
 C1089 C 0.60029 0.65151 0.68635
 C1090 C 0.62629 0.67015 0.67165
 C1091 C 0.62448 0.70530 0.67254
 C1092 C 0.59730 0.72137 0.68745
 C1093 C 0.57188 0.70270 0.70279
 C1094 C 0.57361 0.66765 0.70228
 H1095 H 0.60086 0.62444 0.68579
 H1096 H 0.64436 0.72039 0.66205
 H1097 H 0.59665 0.74846 0.68793
 H1098 H 0.55416 0.65279 0.71389
 C1099 C 0.59996 0.15121 0.18344
 C1100 C 0.62601 0.16994 0.16896
 C1101 C 0.62384 0.20508 0.16936
 C1102 C 0.59636 0.22106 0.18384
 C1103 C 0.57102 0.20230 0.19919
 C1104 C 0.57300 0.16726 0.19892
 H1105 H 0.60080 0.12414 0.18320
 H1106 H 0.64373 0.22022 0.15897
 H1107 H 0.59552 0.24815 0.18416
 H1108 H 0.55363 0.15234 0.21057
 C1109 C 0.09934 0.65328 0.18198
 C1110 C 0.12515 0.67247 0.16772
 C1111 C 0.12248 0.70758 0.16840
 C1112 C 0.09482 0.72308 0.18316
 C1113 C 0.06976 0.70384 0.19842
 C1114 C 0.07218 0.66881 0.19762
 H1115 H 0.10054 0.62623 0.18151
 H1116 H 0.14215 0.72307 0.15813
 H1117 H 0.09368 0.75014 0.18382
 H1118 H 0.05306 0.65347 0.20914
 C1119 C 0.10083 0.15423 0.68072
 C1120 C 0.12692 0.17309 0.66656
 C1121 C 0.12508 0.20823 0.66787
 C1122 C 0.09796 0.22409 0.68320
 C1123 C 0.07265 0.20514 0.69839
 C1124 C 0.07423 0.17009 0.69694
 H1125 H 0.10143 0.12717 0.67975
 H1126 H 0.14500 0.22343 0.65762
 H1127 H 0.09741 0.25116 0.68431
 H1128 H 0.05485 0.15499 0.70836
 C1129 C 0.37888 0.70696 0.33070
 C1130 C 0.37655 0.67186 0.33130
 C1131 C 0.40222 0.65287 0.31645
 C1132 C 0.42895 0.66864 0.30034
 C1133 C 0.43105 0.70365 0.29979
 C1134 C 0.40611 0.72267 0.31555
 H1135 H 0.35926 0.72229 0.34135
 H1136 H 0.40119 0.62581 0.31680
 H1137 H 0.44803 0.65352 0.28844
 H1138 H 0.40707 0.74975 0.31507
 C1139 C 0.39750 0.18395 0.84881
 C1140 C 0.37162 0.16964 0.82974
 C1141 C 0.37376 0.17094 0.79461
 C1142 C 0.40112 0.18594 0.77897
 C1143 C 0.42639 0.20095 0.79807
 C1144 C 0.42436 0.19998 0.83311
 H1145 H 0.39664 0.18309 0.87588
 H1146 H 0.35398 0.16075 0.77921
 H1147 H 0.40200 0.18677 0.75188
 H1148 H 0.44369 0.21133 0.84829
 C1149 C 0.87478 0.70546 0.82888
 C1150 C 0.87298 0.67030 0.82966
 C1151 C 0.89935 0.65168 0.81561
 C1152 C 0.92633 0.66783 0.80029
 C1153 C 0.92799 0.70290 0.79965
 C1154 C 0.90224 0.72156 0.81449
 H1155 H 0.85465 0.72051 0.83897
 H1156 H 0.89879 0.62461 0.81614
 H1157 H 0.94599 0.65293 0.78907
 H1158 H 0.90280 0.74865 0.81393
 C1159 C 0.90027 0.18346 0.34699
 C1160 C 0.87430 0.16922 0.32807
 C1161 C 0.87640 0.17018 0.29292
 C1162 C 0.90372 0.18512 0.27709
 C1163 C 0.92899 0.20028 0.29607
 C1164 C 0.92710 0.19929 0.33114
 H1165 H 0.89947 0.18277 0.37407
 H1166 H 0.85655 0.15992 0.27765
 H1167 H 0.90447 0.18595 0.25000
 H1168 H 0.94641 0.21077 0.34627
 C1169 C 0.34728 0.31655 0.59945
 C1170 C 0.32822 0.33077 0.62543
 C1171 C 0.29313 0.33023 0.62289
 C1172 C 0.27753 0.31588 0.59513
 C1173 C 0.29660 0.30084 0.56978
 C1174 C 0.33161 0.30127 0.57215
 H1175 H 0.37432 0.31689 0.60057
 H1176 H 0.27773 0.34045 0.64270
 H1177 H 0.25047 0.31549 0.59405
 H1178 H 0.34683 0.28990 0.55281
 C1179 C 0.31635 0.84749 0.10074
 C1180 C 0.33113 0.82823 0.12628
 C1181 C 0.33017 0.79316 0.12377
 C1182 C 0.31499 0.77775 0.09640
 C1183 C 0.29952 0.79700 0.07145
 C1184 C 0.30019 0.83199 0.07383
 H1185 H 0.31692 0.87454 0.10193
 H1186 H 0.34069 0.77763 0.14330
 H1187 H 0.31444 0.75068 0.09524
 H1188 H 0.28853 0.84730 0.05475
 C1189 C 0.81447 0.34774 0.10116
 C1190 C 0.82951 0.32910 0.12701
 C1191 C 0.82901 0.29397 0.12500
 C1192 C 0.81401 0.27792 0.09785
 C1193 C 0.79826 0.29658 0.07263
 C1194 C 0.79851 0.33162 0.07451
 H1195 H 0.81473 0.37481 0.10188
 H1196 H 0.83980 0.27888 0.14473
 H1197 H 0.81382 0.25083 0.09708
 H1198 H 0.78665 0.34650 0.05522
 C1199 C 0.84811 0.81699 0.60128
 C1200 C 0.82971 0.83189 0.62733
 C1201 C 0.79458 0.83125 0.62580
 C1202 C 0.77827 0.81605 0.59893
 C1203 C 0.79671 0.80031 0.57355
 C1204 C 0.83176 0.80089 0.57490
 H1205 H 0.87517 0.81738 0.60168
 H1206 H 0.77971 0.84201 0.64574
 H1207 H 0.75119 0.81560 0.59856
 H1208 H 0.84649 0.78903 0.55547
 C1209 C 0.34966 0.68420 0.40069
 C1210 C 0.33097 0.66995 0.37448
 C1211 C 0.29586 0.67089 0.37633
 C1212 C 0.27987 0.68559 0.40367
 C1213 C 0.29857 0.70059 0.42928
 C1214 C 0.33360 0.69986 0.42758
 H1215 H 0.37671 0.68358 0.40005
 H1216 H 0.28075 0.66072 0.35632
 H1217 H 0.25280 0.68621 0.40427
 H1218 H 0.34851 0.71118 0.44715
 C1219 C 0.31310 0.15174 0.90050
 C1220 C 0.32799 0.17088 0.87493
 C1221 C 0.32733 0.20597 0.87754
 C1222 C 0.31242 0.22150 0.90504
 C1223 C 0.29688 0.20237 0.93003
 C1224 C 0.29720 0.16736 0.92752
 H1225 H 0.31346 0.12469 0.89929
 H1226 H 0.33795 0.22144 0.85801
 H1227 H 0.31210 0.24858 0.90627
 H1228 H 0.28543 0.15214 0.94661
 C1229 C 0.84611 0.68253 0.89880
 C1230 C 0.82746 0.66788 0.87281
 C1231 C 0.79233 0.66848 0.87482
 C1232 C 0.77629 0.68354 0.90200
 C1233 C 0.79501 0.69921 0.92718
 C1234 C 0.83003 0.69853 0.92543
 H1235 H 0.87316 0.68211 0.89810
 H1236 H 0.77726 0.65789 0.85499
 H1237 H 0.74922 0.68410 0.90269
 H1238 H 0.84494 0.71036 0.94471
 C1239 C 0.81620 0.15217 0.39926
 C1240 C 0.83083 0.17109 0.37342
 C1241 C 0.82988 0.20622 0.37559
 C1242 C 0.81457 0.22199 0.40279
 C1243 C 0.79902 0.20302 0.42792
 C1244 C 0.80000 0.16797 0.42597
 H1245 H 0.81685 0.12510 0.39843
 H1246 H 0.84042 0.22151 0.35587
 H1247 H 0.81384 0.24907 0.40358
 H1248 H 0.78832 0.15282 0.44518
 C1249 C 0.68220 0.34668 0.39946
 C1250 C 0.66852 0.32788 0.37307
 C1251 C 0.66990 0.29275 0.37476
 C1252 C 0.68463 0.27682 0.40213
 C1253 C 0.69920 0.29569 0.42785
 C1254 C 0.69787 0.33074 0.42635
 H1255 H 0.68120 0.37375 0.39893
 H1256 H 0.66008 0.27760 0.35458
 H1257 H 0.68573 0.24975 0.40260
 H1258 H 0.70887 0.34576 0.44603
 C1259 C 0.68542 0.84935 0.89703
 C1260 C 0.67047 0.83066 0.87120
 C1261 C 0.67129 0.79554 0.87306
 C1262 C 0.68634 0.77951 0.90017
 C1263 C 0.70186 0.79820 0.92548
 C1264 C 0.70146 0.83324 0.92366
 H1265 H 0.68497 0.87642 0.89634
 H1266 H 0.66063 0.78044 0.85329
 H1267 H 0.68669 0.75242 0.90089
 H1268 H 0.71318 0.84811 0.94303
 C1269 C 0.20627 0.32973 0.87881
 C1270 C 0.17120 0.33046 0.87638
 C1271 C 0.15212 0.31580 0.90210
 C1272 C 0.16775 0.29978 0.92897
 C1273 C 0.20273 0.29910 0.93118
 C1274 C 0.22185 0.31466 0.90619
 H1275 H 0.22167 0.34023 0.85916
 H1276 H 0.12508 0.31626 0.90103
 H1277 H 0.15255 0.28803 0.94809
 H1278 H 0.24890 0.31409 0.90722
 C1279 C 0.20556 0.82573 0.37594
 C1280 C 0.17046 0.82692 0.37424
 C1281 C 0.15175 0.81253 0.40038
 C1282 C 0.16777 0.79667 0.42716
 C1283 C 0.20280 0.79583 0.42880
 C1284 C 0.22153 0.81082 0.40317
 H1285 H 0.22067 0.83600 0.35593
 H1286 H 0.12470 0.81330 0.39985
 H1287 H 0.15284 0.78535 0.44675
 H1288 H 0.24860 0.81012 0.40370
 C1289 C 0.70628 0.66937 0.62579
 C1290 C 0.67119 0.66831 0.62785
 C1291 C 0.65229 0.68310 0.60209
 C1292 C 0.66810 0.69955 0.57556
 C1293 C 0.70311 0.70059 0.57372
 C1294 C 0.72206 0.68491 0.59876
 H1295 H 0.72153 0.65872 0.64547
 H1296 H 0.62524 0.68239 0.60289
 H1297 H 0.65300 0.71134 0.55639
 H1298 H 0.74912 0.68567 0.59802
 C1299 C 0.65302 0.18194 0.09976
 C1300 C 0.67168 0.16762 0.12595
 C1301 C 0.70681 0.16851 0.12412
 C1302 C 0.72284 0.18343 0.09688
 C1303 C 0.70410 0.19871 0.07146
 C1304 C 0.66908 0.19785 0.07306
 H1305 H 0.62597 0.18132 0.10034
 H1306 H 0.72189 0.15822 0.14412
 H1307 H 0.74990 0.18416 0.09630
 H1308 H 0.65418 0.20939 0.05360
 C1309 C 0.15283 0.68518 0.09873
 C1310 C 0.17131 0.67087 0.12504
 C1311 C 0.20647 0.67154 0.12332
 C1312 C 0.22269 0.68610 0.09601
 C1313 C 0.20415 0.70124 0.07039
 C1314 C 0.16911 0.70071 0.07194
 H1315 H 0.12578 0.68470 0.09919
 H1316 H 0.22142 0.66125 0.14342
 H1317 H 0.24977 0.68663 0.09550
 H1318 H 0.15434 0.71221 0.05234
 C1319 C 0.15306 0.18554 0.59719
 C1320 C 0.17205 0.17106 0.62305
 C1321 C 0.20713 0.17203 0.62086
 C1322 C 0.22282 0.18713 0.59355
 C1323 C 0.20380 0.20248 0.56836
 C1324 C 0.16880 0.20156 0.57035
 H1325 H 0.12602 0.18491 0.59809
 H1326 H 0.22244 0.16164 0.64064
 H1327 H 0.24988 0.18787 0.59272
 H1328 H 0.15365 0.21315 0.55111
   
