data_POSCAR
  _audit_creation_date              2014-09-24
  _audit_creation_method            'ToBaCCo'
  _symmetry_space_group_name_H-M    'P1'
  _symmetry_Int_Tables_number       1
  _symmetry_cell_setting            triclinic
  loop_
  _symmetry_equiv_pos_as_xyz
 x,y,z
_cell_length_a 23.9344
_cell_length_b 23.9190
_cell_length_c 41.2566
_cell_angle_alpha 86.407600
_cell_angle_beta 88.925600
_cell_angle_gamma 142.794000
loop_
  _atom_site_label
  _atom_site_type_symbol
  _atom_site_fract_x
  _atom_site_fract_y
  _atom_site_fract_z
Zr1 Zr 0.22052 0.25221 0.30901
 O2 O 0.27427 0.28078 0.35047
 O3 O 0.23264 0.21744 0.32611
 O4 O 0.20997 0.27989 0.34083
 O5 O 0.31257 0.18518 0.30014
 O6 O 0.18434 0.30160 0.29382
 O7 O 0.29313 0.20809 0.32305
 O8 O 0.18817 0.18685 0.26822
 O9 O 0.19947 0.24031 0.27370
 O10 O 0.24678 0.19514 0.27648
 O11 O 0.24334 0.29016 0.28626
 O12 O 0.29654 0.27391 0.27940
 Zr13 Zr 0.24592 0.27390 0.19175
 Zr14 Zr 0.19906 0.30077 0.25040
 Zr15 Zr 0.30122 0.19936 0.25045
 Zr16 Zr 0.20375 0.20176 0.24635
 O17 O 0.35001 0.21339 0.26147
 O18 O 0.16163 0.19932 0.24763
 O19 O 0.22514 0.20755 0.22407
 O20 O 0.20639 0.25653 0.21270
 O21 O 0.25898 0.30166 0.22484
 O22 O 0.30423 0.25185 0.22008
 C23 C 0.19891 0.18984 0.31538
 C24 C 0.30337 0.19091 0.31764
 C25 C 0.18775 0.30092 0.32500
 O26 O 0.15034 0.28617 0.23844
 O27 O 0.19658 0.31228 0.20796
 O28 O 0.20258 0.28083 0.15455
 C29 C 0.18875 0.31367 0.17657
 O30 O 0.32839 0.31132 0.28981
 Zr31 Zr 0.29934 0.29748 0.25245
 O32 O 0.27980 0.27266 0.18330
 O33 O 0.21438 0.34957 0.26081
 O34 O 0.30147 0.33837 0.25196
 O35 O 0.34109 0.30303 0.25912
 O36 O 0.31952 0.32418 0.22114
 C37 C 0.31037 0.31046 0.18402
 O38 O 0.22318 0.22325 0.14893
 O39 O 0.28681 0.14930 0.23821
 O40 O 0.28217 0.20913 0.17018
 O41 O 0.31439 0.18767 0.19952
 O42 O 0.19782 0.16078 0.24140
 O43 O 0.18632 0.17178 0.21375
 C44 C 0.31031 0.19461 0.18009
 H45 H 0.24189 0.16341 0.28120
 H46 H 0.19087 0.24507 0.19600
 H47 H 0.33588 0.25920 0.21669
 H48 H 0.25563 0.30821 0.30144
 H49 H 0.13637 0.20193 0.24421
 H50 H 0.13538 0.29847 0.23774
 H51 H 0.20183 0.36383 0.26140
 H52 H 0.29848 0.36228 0.25510
 H53 H 0.20407 0.13426 0.24397
 H54 H 0.29799 0.13753 0.23741
 H55 H 0.36288 0.20233 0.26289
 H56 H 0.36235 0.29795 0.25274
 H57 H 0.17487 0.16599 0.19162
 H58 H 0.22874 0.22769 0.13623
 H59 H 0.27106 0.27458 0.36417
 H60 H 0.33110 0.32467 0.31056
 Zr61 Zr 0.75672 0.75330 0.31499
 O62 O 0.72036 0.72114 0.35222
 O63 O 0.78095 0.77807 0.31846
 O64 O 0.78471 0.71186 0.33294
 O65 O 0.68696 0.80932 0.29556
 O66 O 0.81861 0.69200 0.29487
 O67 O 0.71109 0.78233 0.32137
 O68 O 0.82654 0.81955 0.27939
 O69 O 0.79683 0.76651 0.27195
 O70 O 0.74911 0.80066 0.28054
 O71 O 0.75715 0.70537 0.28478
 O72 O 0.70785 0.73165 0.27344
 Zr73 Zr 0.75215 0.74024 0.18479
 Zr74 Zr 0.80249 0.69762 0.24974
 Zr75 Zr 0.69739 0.80252 0.25000
 Zr76 Zr 0.79981 0.79940 0.24492
 O77 O 0.65024 0.78568 0.26495
 O78 O 0.83706 0.80007 0.24489
 O79 O 0.76864 0.79258 0.22646
 O80 O 0.79483 0.74214 0.21499
 O81 O 0.73385 0.70325 0.22814
 O82 O 0.69959 0.75108 0.21949
 C83 C 0.81419 0.81027 0.31370
 C84 C 0.69493 0.80886 0.31818
 C85 C 0.81635 0.69827 0.31871
 O86 O 0.84976 0.71415 0.23592
 O87 O 0.80871 0.68042 0.20457
 O88 O 0.79569 0.72451 0.16437
 C89 C 0.81028 0.68615 0.17990
 O90 O 0.67466 0.68402 0.28737
 Zr91 Zr 0.69967 0.70077 0.25541
 O92 O 0.71779 0.72401 0.18283
 O93 O 0.78517 0.65005 0.26340
 O94 O 0.69967 0.66290 0.25524
 O95 O 0.66314 0.69994 0.25937
 O96 O 0.68071 0.67362 0.22075
 C97 C 0.69003 0.68770 0.18752
 O98 O 0.77919 0.77854 0.14785
 O99 O 0.71493 0.84977 0.23673
 O100 O 0.71477 0.78907 0.17290
 O101 O 0.68707 0.81023 0.20399
 O102 O 0.80042 0.83691 0.24041
 O103 O 0.81561 0.82503 0.21224
 C104 C 0.69045 0.80341 0.17912
 H105 H 0.76387 0.82966 0.28466
 H106 H 0.81600 0.75349 0.20101
 H107 H 0.67100 0.73575 0.21298
 H108 H 0.74511 0.68417 0.29864
 H109 H 0.86247 0.79793 0.24293
 H110 H 0.86543 0.70211 0.23536
 H111 H 0.79806 0.63519 0.26512
 H112 H 0.70245 0.63734 0.25756
 H113 H 0.79704 0.86326 0.24531
 H114 H 0.70297 0.86395 0.23537
 H115 H 0.63447 0.79797 0.26492
 H116 H 0.63646 0.70285 0.25409
 H117 H 0.82788 0.83148 0.19368
 H118 H 0.77166 0.77198 0.13557
 H119 H 0.72796 0.72828 0.36429
 H120 H 0.66861 0.67181 0.30648
 Zr121 Zr 0.77213 0.23324 -0.31193
 O122 O 0.71608 0.28124 -0.35908
 O123 O 0.79199 0.20681 -0.31896
 O124 O 0.77465 0.27258 -0.34502
 O125 O 0.67513 0.18087 -0.28495
 O126 O 0.82460 0.31704 -0.28468
 O127 O 0.72396 0.22107 -0.33331
 O128 O 0.81912 0.18793 -0.28827
 O129 O 0.79696 0.26507 -0.26958
 O130 O 0.75627 0.20207 -0.27833
 O131 O 0.74548 0.29607 -0.28337
 O132 O 0.70830 0.22886 -0.27092
 Zr133 Zr 0.72931 0.26484 -0.18898
 Zr134 Zr 0.79990 0.30056 -0.25031
 Zr135 Zr 0.69798 0.20093 -0.24960
 Zr136 Zr 0.80190 0.19752 -0.24373
 O137 O 0.66325 0.19929 -0.25122
 O138 O 0.85032 0.21552 -0.23338
 O139 O 0.73618 0.20699 -0.22467
 O140 O 0.79482 0.24642 -0.21416
 O141 O 0.77030 0.29472 -0.23099
 O142 O 0.70009 0.25595 -0.22073
 C143 C 0.81401 0.19905 -0.31209
 C144 C 0.68785 0.18955 -0.31225
 C145 C 0.81996 0.30791 -0.31323
 O146 O 0.83753 0.29995 -0.25260
 O147 O 0.81761 0.32743 -0.22076
 O148 O 0.77024 0.29257 -0.16926
 C149 C 0.80534 0.32594 -0.19000
 O150 O 0.68435 0.31045 -0.30674
 Zr151 Zr 0.69806 0.30258 -0.25707
 O152 O 0.70679 0.29734 -0.17827
 O153 O 0.80061 0.33706 -0.25092
 O154 O 0.71957 0.34967 -0.25775
 O155 O 0.65000 0.28388 -0.26680
 O156 O 0.68618 0.31592 -0.21243
 C157 C 0.69065 0.31076 -0.18448
 O158 O 0.79109 0.22062 -0.14512
 O159 O 0.69909 0.16355 -0.24297
 O160 O 0.72109 0.22394 -0.16298
 O161 O 0.68095 0.17798 -0.21369
 O162 O 0.78405 0.15656 -0.24690
 O163 O 0.81244 0.18432 -0.19653
 C164 C 0.68740 0.18521 -0.18308
 H165 H 0.74242 0.17578 -0.28427
 H166 H 0.81299 0.25258 -0.20086
 H167 H 0.67237 0.24113 -0.21097
 H168 H 0.75367 0.32143 -0.29177
 H169 H 0.87166 0.20229 -0.23299
 H170 H 0.86452 0.29805 -0.24602
 H171 H 0.79832 0.36377 -0.25592
 H172 H 0.70540 0.36697 -0.24733
 H173 H 0.79584 0.13404 -0.25419
 H174 H 0.70073 0.13640 -0.24592
 H175 H 0.63573 0.20290 -0.24998
 H176 H 0.62736 0.29722 -0.26708
 H177 H 0.82397 0.17568 -0.19316
 H178 H 0.77402 0.22883 -0.13375
 H179 H 0.72449 0.27464 -0.37039
 H180 H 0.67623 0.32443 -0.30670
 Zr181 Zr 0.23442 0.77259 -0.31392
 O182 O 0.28485 0.73024 -0.35450
 O183 O 0.19947 0.78572 -0.31568
 O184 O 0.22151 0.72357 -0.33755
 O185 O 0.32109 0.81865 -0.28738
 O186 O 0.17356 0.68219 -0.28131
 O187 O 0.27666 0.77362 -0.33706
 O188 O 0.18056 0.81351 -0.28751
 O189 O 0.20500 0.72952 -0.26937
 O190 O 0.24456 0.79916 -0.27744
 O191 O 0.25480 0.70445 -0.28539
 O192 O 0.29332 0.76066 -0.27461
 Zr193 Zr 0.26654 0.73182 -0.19243
 Zr194 Zr 0.19964 0.70175 -0.24861
 Zr195 Zr 0.29938 0.80257 -0.25071
 Zr196 Zr 0.19737 0.80163 -0.24315
 O197 O 0.33707 0.80048 -0.25740
 O198 O 0.15078 0.78083 -0.24273
 O199 O 0.27148 0.79236 -0.22475
 O200 O 0.20396 0.75420 -0.21555
 O201 O 0.23545 0.70249 -0.23148
 O202 O 0.30054 0.74548 -0.21882
 C203 C 0.18391 0.79608 -0.31098
 C204 C 0.31000 0.81477 -0.31475
 C205 C 0.17736 0.69118 -0.31008
 O206 O 0.16302 0.69957 -0.24744
 O207 O 0.18635 0.67390 -0.22287
 O208 O 0.23213 0.70349 -0.19212
 C209 C 0.19948 0.67746 -0.18689
 O210 O 0.31596 0.68869 -0.30444
 Zr211 Zr 0.30291 0.69836 -0.25598
 O212 O 0.29046 0.69612 -0.17849
 O213 O 0.19976 0.66230 -0.24599
 O214 O 0.28400 0.64935 -0.26689
 O215 O 0.34884 0.71943 -0.25798
 O216 O 0.31431 0.68062 -0.21049
 C217 C 0.31184 0.68464 -0.18793
 O218 O 0.20666 0.77954 -0.15957
 O219 O 0.30123 0.83637 -0.24779
 O220 O 0.27327 0.77803 -0.16584
 O221 O 0.31921 0.82686 -0.21730
 O222 O 0.21684 0.85018 -0.23308
 O223 O 0.18739 0.81761 -0.19326
 C224 C 0.30441 0.81600 -0.17923
 H225 H 0.25764 0.82937 -0.28451
 H226 H 0.18273 0.75245 -0.20424
 H227 H 0.32365 0.75575 -0.21378
 H228 H 0.24568 0.68456 -0.30041
 H229 H 0.13311 0.79420 -0.25275
 H230 H 0.13729 0.70149 -0.24428
 H231 H 0.20245 0.63395 -0.25369
 H232 H 0.29859 0.62823 -0.26704
 H233 H 0.20214 0.87207 -0.23269
 H234 H 0.29706 0.86338 -0.24863
 H235 H 0.36436 0.79909 -0.25173
 H236 H 0.36551 0.70604 -0.24576
 H237 H 0.17530 0.82398 -0.19369
 H238 H 0.22128 0.77093 -0.13304
 H239 H 0.27552 0.72994 -0.36907
 H240 H 0.32430 0.67608 -0.30657
 Zr241 Zr 1.25704 1.25289 0.81507
 O242 O 1.22036 1.22123 0.85209
 O243 O 1.28078 1.27830 0.81832
 O244 O 1.28404 1.21107 0.83330
 O245 O 1.18632 1.31584 0.79667
 O246 O 1.31845 1.19245 0.79462
 O247 O 1.21268 1.28253 0.81996
 O248 O 1.32577 1.32021 0.77955
 O249 O 1.29664 1.26700 0.77172
 O250 O 1.24970 1.30054 0.77999
 O251 O 1.25689 1.20577 0.78468
 O252 O 1.20762 1.23167 0.77371
 Zr253 Zr 1.24793 1.24349 0.68541
 Zr254 Zr 1.30248 1.19763 0.74951
 Zr255 Zr 1.19740 1.30257 0.75063
 Zr256 Zr 1.29978 1.30034 0.74552
 O257 O 1.15018 1.28560 0.76475
 O258 O 1.33696 1.30036 0.74634
 O259 O 1.26842 1.29262 0.72622
 O260 O 1.29465 1.24244 0.71566
 O261 O 1.23150 1.20406 0.72970
 O262 O 1.19945 1.25105 0.71903
 C263 C 1.31453 1.31017 0.81354
 C264 C 1.19708 1.31177 0.81486
 C265 C 1.31180 1.19464 0.81912
 O266 O 1.34984 1.21411 0.73598
 O267 O 1.30885 1.18005 0.70367
 O268 O 1.29279 1.21575 0.67436
 C269 C 1.30453 1.18718 0.68094
 O270 O 1.17441 1.18410 0.78754
 Zr271 Zr 1.19953 1.20072 0.75515
 O272 O 1.22246 1.22004 0.68326
 O273 O 1.28531 1.14997 0.76342
 O274 O 1.19972 1.16288 0.75521
 O275 O 1.16304 1.19986 0.75914
 O276 O 1.18071 1.17335 0.72116
 C277 C 1.19204 1.18551 0.68806
 O278 O 1.27880 1.27934 0.64805
 O279 O 1.21490 1.34978 0.73649
 O280 O 1.21414 1.28936 0.66719
 O281 O 1.18715 1.31013 0.70441
 O282 O 1.30032 1.33688 0.74018
 O283 O 1.31566 1.32528 0.71243
 C284 C 1.19046 1.30426 0.67808
 H285 H 1.26069 1.33059 0.78303
 H286 H 1.31865 1.25413 0.70727
 H287 H 1.17166 1.23550 0.71115
 H288 H 1.24438 1.18436 0.79825
 H289 H 1.36280 1.29791 0.74332
 H290 H 1.36525 1.20219 0.73513
 H291 H 1.29811 1.13511 0.76509
 H292 H 1.20268 1.13676 0.75770
 H293 H 1.29698 1.36352 0.74475
 H294 H 1.20293 1.36410 0.73536
 H295 H 1.13451 1.29779 0.76469
 H296 H 1.13675 1.20285 0.75381
 H297 H 1.32902 1.33076 0.69411
 H298 H 1.27209 1.27161 0.63591
 H299 H 1.22794 1.22831 0.86423
 H300 H 1.16837 1.17194 0.80673
 Zr301 Zr 0.72772 0.75368 0.80750
 O302 O 0.77647 0.77703 0.85102
 O303 O 0.72977 0.71786 0.81717
 O304 O 0.71837 0.78904 0.84411
 O305 O 0.80842 0.68765 0.79751
 O306 O 0.68496 0.80485 0.79284
 O307 O 0.79204 0.71800 0.82755
 O308 O 0.67533 0.68124 0.77804
 O309 O 0.69951 0.73956 0.77466
 O310 O 0.74674 0.69634 0.77886
 O311 O 0.74352 0.79358 0.78699
 O312 O 0.79261 0.77477 0.77634
 Zr313 Zr 0.74587 0.77386 0.69176
 Zr314 Zr 0.69894 0.80069 0.75046
 Zr315 Zr 0.80113 0.69936 0.74938
 Zr316 Zr 0.70324 0.70129 0.74692
 O317 O 0.84994 0.71324 0.76172
 O318 O 0.66151 0.69936 0.74761
 O319 O 0.72537 0.70732 0.72358
 O320 O 0.70628 0.75659 0.71282
 O321 O 0.75929 0.80108 0.72487
 O322 O 0.80419 0.75234 0.72061
 C323 C 0.69117 0.68829 0.81645
 C324 C 0.80177 0.69294 0.81864
 C325 C 0.68703 0.80147 0.82595
 O326 O 0.65052 0.78607 0.73882
 O327 O 0.69660 0.81228 0.70793
 O328 O 0.70256 0.78079 0.65455
 C329 C 0.68875 0.81367 0.67658
 O330 O 0.82873 0.81357 0.78617
 Zr331 Zr 0.79901 0.79673 0.75262
 O332 O 0.77971 0.77273 0.68334
 O333 O 0.71403 0.84982 0.76129
 O334 O 0.80104 0.83807 0.75241
 O335 O 0.84030 0.80190 0.75822
 O336 O 0.81944 0.82414 0.72122
 C337 C 0.81040 0.81038 0.68415
 O338 O 0.72320 0.72325 0.64893
 O339 O 0.78598 0.64978 0.73858
 O340 O 0.78182 0.70936 0.66987
 O341 O 0.81411 0.68789 0.70009
 O342 O 0.69756 0.66059 0.74102
 O343 O 0.68648 0.67166 0.71377
 C344 C 0.81043 0.69577 0.68189
 H345 H 0.73690 0.66560 0.78138
 H346 H 0.69088 0.74508 0.69604
 H347 H 0.83586 0.75946 0.71724
 H348 H 0.75468 0.80936 0.80199
 H349 H 0.63695 0.70160 0.74473
 H350 H 0.63556 0.79831 0.73774
 H351 H 0.70107 0.86486 0.76121
 H352 H 0.79851 0.86263 0.75468
 H353 H 0.70276 0.63639 0.74656
 H354 H 0.79787 0.63746 0.73748
 H355 H 0.86385 0.70186 0.76237
 H356 H 0.86295 0.79731 0.75357
 H357 H 0.67478 0.66600 0.69140
 H358 H 0.72871 0.72771 0.63621
 H359 H 0.77251 0.77110 0.86400
 H360 H 0.83379 0.82560 0.80829
 Zr361 Zr 1.27167 0.73491 0.18775
 O362 O 1.20897 0.78272 0.16674
 O363 O 1.30013 0.70656 0.16797
 O364 O 1.27646 0.76309 0.15099
 O365 O 1.17608 0.68166 0.21431
 O366 O 1.32234 0.81708 0.21650
 O367 O 1.22589 0.72519 0.16061
 O368 O 1.31994 0.68505 0.20830
 O369 O 1.29711 0.76366 0.22841
 O370 O 1.25734 0.70196 0.21912
 O371 O 1.24466 0.79677 0.21703
 O372 O 1.20685 0.73048 0.22765
 Zr373 Zr 1.22768 0.76426 0.31297
 Zr374 Zr 1.29956 0.80037 0.24917
 Zr375 Zr 1.19888 0.70062 0.24986
 Zr376 Zr 1.30171 0.69742 0.25681
 O377 O 1.16327 0.69893 0.24867
 O378 O 1.35027 0.71488 0.26573
 O379 O 1.23844 0.70631 0.27485
 O380 O 1.29575 0.74552 0.28492
 O381 O 1.27137 0.79407 0.26903
 O382 O 1.20118 0.75563 0.27935
 C383 C 1.31654 0.68369 0.18250
 C384 C 1.18789 0.69328 0.18512
 C385 C 1.31504 0.80752 0.18477
 O386 O 1.33753 0.79999 0.24651
 O387 O 1.31793 0.82627 0.28162
 O388 O 1.27215 0.78114 0.33690
 C389 C 1.30418 0.82042 0.31118
 O390 O 1.18188 0.81298 0.19508
 Zr391 Zr 1.19804 0.80255 0.24298
 O392 O 1.20839 0.80515 0.31635
 O393 O 1.30054 0.83698 0.24871
 O394 O 1.21961 0.84964 0.24196
 O395 O 1.15006 0.78384 0.23320
 O396 O 1.18586 0.81616 0.28802
 C397 C 1.19033 0.81438 0.31310
 O398 O 1.28998 0.71670 0.34069
 O399 O 1.19933 0.66346 0.25600
 O400 O 1.22468 0.72941 0.34329
 O401 O 1.18214 0.67810 0.28795
 O402 O 1.29031 0.66078 0.23844
 O403 O 1.31135 0.68389 0.30409
 C404 C 1.19037 0.68433 0.31681
 H405 H 1.24683 0.67757 0.21005
 H406 H 1.31575 0.75490 0.30025
 H407 H 1.17264 0.74216 0.28539
 H408 H 1.25351 0.82311 0.20354
 H409 H 1.36830 0.70303 0.26672
 H410 H 1.36447 0.79825 0.25259
 H411 H 1.29824 0.86414 0.24509
 H412 H 1.20547 0.86686 0.25277
 H413 H 1.29992 0.63625 0.24173
 H414 H 1.20111 0.63672 0.25207
 H415 H 1.13569 0.70282 0.25051
 H416 H 1.12721 0.79729 0.23314
 H417 H 1.32386 0.67571 0.30660
 H418 H 1.27636 0.72450 0.36831
 H419 H 1.22482 0.77912 0.13145
 H420 H 1.17597 0.82473 0.19333
 Zr421 Zr 0.73278 1.27339 0.18504
 O422 O 0.78304 1.22783 0.14087
 O423 O 0.70308 1.29425 0.17669
 O424 O 0.71772 1.22456 0.16423
 O425 O 0.82034 1.31934 0.21360
 O426 O 0.67276 1.18265 0.21804
 O427 O 0.78159 1.27692 0.16600
 O428 O 0.68039 1.30922 0.21328
 O429 O 0.70512 1.22936 0.22964
 O430 O 0.74355 1.30027 0.22204
 O431 O 0.75325 1.20545 0.21417
 O432 O 0.79274 1.26373 0.22557
 Zr433 Zr 0.76981 1.22795 0.31699
 Zr434 Zr 0.69831 1.20000 0.24921
 Zr435 Zr 0.79947 1.30119 0.24886
 Zr436 Zr 0.69742 1.30128 0.25718
 O437 O 0.83677 1.30028 0.24313
 O438 O 0.65026 1.28135 0.25614
 O439 O 0.77701 1.29021 0.26865
 O440 O 0.70476 1.25583 0.27974
 O441 O 0.73627 1.20237 0.26952
 O442 O 0.79855 1.24327 0.27870
 C443 C 0.68825 1.30890 0.18346
 C444 C 0.81000 1.31744 0.18485
 C445 C 0.67384 1.19449 0.18845
 O446 O 0.66282 1.19918 0.25103
 O447 O 0.68445 1.17498 0.28741
 O448 O 0.72370 1.22379 0.33811
 C449 C 0.69601 1.18050 0.31320
 O450 O 0.81570 1.18684 0.19619
 Zr451 Zr 0.80275 1.19821 0.24395
 O452 O 0.79588 1.20928 0.32250
 O453 O 0.69966 1.16230 0.25310
 O454 O 0.78378 1.14950 0.23324
 O455 O 0.84893 1.21932 0.24218
 O456 O 0.81461 1.18011 0.29010
 C457 C 0.81213 1.18742 0.31483
 O458 O 0.72006 1.26784 0.36016
 O459 O 0.80169 1.33677 0.24974
 O460 O 0.77740 1.27628 0.33591
 O461 O 0.81893 1.32359 0.28575
 O462 O 0.71665 1.35035 0.26672
 O463 O 0.69053 1.31777 0.30372
 C464 C 0.81518 1.31458 0.31003
 H465 H 0.75799 1.32864 0.21109
 H466 H 0.67622 1.24796 0.28851
 H467 H 0.82443 1.25529 0.28655
 H468 H 0.74656 1.18573 0.20333
 H469 H 0.63259 1.29471 0.24718
 H470 H 0.63553 1.20165 0.25280
 H471 H 0.70219 1.13574 0.24619
 H472 H 0.79862 1.12821 0.23306
 H473 H 0.70234 1.37191 0.26758
 H474 H 0.79658 1.36396 0.25195
 H475 H 0.86457 1.29892 0.24680
 H476 H 0.86536 1.20610 0.25438
 H477 H 0.67561 1.32389 0.30637
 H478 H 0.72550 1.27097 0.36927
 H479 H 0.77335 1.22856 0.13247
 H480 H 0.82439 1.17597 0.19347
 O481 O 0.47277 1.07029 0.02879
 O482 O 0.53114 0.92908 0.02658
 O483 O 0.40393 0.96107 0.02400
 O484 O 0.60272 1.04088 -0.00729
 O485 O 0.46330 0.89141 0.03452
 O486 O 0.53758 1.09146 0.02835
 O487 O 0.57610 0.96506 0.02196
 O488 O 0.42812 1.02331 0.02234
 C489 C 0.44552 1.05821 0.05312
 C490 C 0.56460 0.94103 0.04752
 C491 C 0.40734 0.91036 0.05847
 C492 C 0.57795 1.08583 0.05117
 O493 O 0.53308 1.08559 -0.02656
 O494 O 0.46766 0.91457 -0.04181
 O495 O 0.43501 1.05793 -0.01381
 O496 O 0.56661 0.96908 -0.02140
 O497 O 0.52672 0.92839 -0.03559
 O498 O 0.47341 1.06086 -0.02265
 O499 O 0.58540 1.03142 -0.02167
 O500 O 0.41570 0.95342 -0.03430
 Co501 Co 0.47183 0.91456 -0.00276
 Co502 Co 0.47793 0.78563 -0.02078
 Co503 Co 0.41634 0.85402 -0.00314
 Co504 Co 0.54057 0.84418 -0.00646
 O505 O 0.50916 0.97748 -0.00791
 C506 C 0.56479 1.06984 -0.04878
 C507 C 0.43619 0.93463 -0.05417
 C508 C 0.44029 1.04720 -0.04727
 C509 C 0.55729 0.93199 -0.02881
 O510 O 0.97503 0.56348 0.53043
 O511 O 1.03114 0.42712 0.52678
 O512 O 0.90936 0.46221 0.50633
 O513 O 1.09898 0.53946 0.49325
 O514 O 0.96411 0.39261 0.53658
 O515 O 1.03764 0.59198 0.52845
 O516 O 1.07517 0.46310 0.52018
 O517 O 0.92887 0.52126 0.52032
 C518 C 0.94893 0.56434 0.55047
 C519 C 1.06220 0.44139 0.55167
 C520 C 0.90952 0.40337 0.55995
 C521 C 1.07537 0.58650 0.55169
 O522 O 1.03498 0.58360 0.47526
 O523 O 0.96560 0.41325 0.45687
 O524 O 0.93982 0.55944 0.48905
 O525 O 1.06601 0.46686 0.47365
 O526 O 1.03027 0.42352 0.46718
 O527 O 0.97317 0.56302 0.47600
 O528 O 1.08571 0.53060 0.47423
 O529 O 0.91510 0.45208 0.47153
 Co530 Co 0.97449 0.41197 0.49754
 Co531 Co 0.96862 0.26628 0.49184
 Co532 Co 0.90337 0.33352 0.49631
 Co533 Co 1.04071 0.34392 0.49454
 O534 O 1.00701 0.47423 0.49195
 C535 C 1.06624 0.56770 0.45144
 C536 C 0.93834 0.43242 0.44656
 C537 C 0.94460 0.55887 0.46034
 C538 C 1.06283 0.44057 0.45163
 O539 O 1.05244 0.46837 0.03711
 O540 O 1.01290 0.53844 -0.06802
 O541 O 1.02613 0.43582 -0.02868
 O542 O 1.03384 0.59958 0.01857
 O543 O 1.05647 0.47183 -0.07665
 O544 O 1.01210 0.54882 0.03998
 O545 O 1.02979 0.56807 -0.02669
 O546 O 1.02953 0.42892 0.02011
 C547 C 1.05257 0.44008 0.04229
 C548 C 1.05556 0.56693 -0.04057
 C549 C 1.05081 0.44304 -0.05792
 C550 C 1.05631 0.57324 0.04096
 O551 O 0.95756 0.54470 0.05589
 O552 O 0.98124 0.47187 -0.07566
 O553 O 0.97277 0.46038 0.06242
 O554 O 0.96868 0.56772 -0.02030
 O555 O 0.98251 0.52666 -0.07459
 O556 O 0.97744 0.45868 0.06230
 O557 O 0.96475 0.56726 0.01811
 O558 O 0.96590 0.43017 -0.03208
 Co559 Co 0.90062 0.46513 -0.00964
 Co560 Co 0.90410 0.47300 -0.14829
 Co561 Co 0.90163 0.39720 -0.04839
 Co562 Co 0.89752 0.52694 -0.05268
 O563 O 0.98162 0.50076 -0.00520
 C564 C 0.94666 0.56367 0.05505
 C565 C 0.93560 0.41545 -0.05431
 C566 C 0.94760 0.43112 0.05140
 C567 C 0.96313 0.58182 -0.04271
 O568 O 0.58708 0.98077 0.54007
 O569 O 0.52332 1.03327 0.43186
 O570 O 0.53013 0.92940 0.47242
 O571 O 0.52849 1.07201 0.52671
 O572 O 0.53829 0.95261 0.43455
 O573 O 0.51435 1.04074 0.55172
 O574 O 0.54210 1.06295 0.46791
 O575 O 0.53263 0.92464 0.52232
 C576 C 0.55900 0.93805 0.54566
 C577 C 0.57947 1.03964 0.45732
 C578 C 0.55065 0.93730 0.44597
 C579 C 0.55078 1.06978 0.53659
 O580 O 0.45716 1.05011 0.56426
 O581 O 0.47314 0.97563 0.42318
 O582 O 0.42230 0.92887 0.53477
 O583 O 0.38932 1.07886 0.53217
 O584 O 0.45402 1.01987 0.41002
 O585 O 0.48302 0.95770 0.55247
 O586 O 0.46350 1.06767 0.54656
 O587 O 0.46270 0.92977 0.47475
 Co588 Co 0.40141 0.96546 0.48566
 Co589 Co 0.42386 0.97546 0.34278
 Co590 Co 0.39856 0.89779 0.45173
 Co591 Co 0.40935 1.03823 0.44643
 O592 O 0.48481 1.00584 0.48664
 C593 C 0.44800 1.06800 0.56675
 C594 C 0.43510 0.93008 0.45552
 C595 C 0.46270 0.92775 0.54987
 C596 C 0.39609 1.04783 0.43865
 O597 O 1.04420 1.01361 0.47399
 O598 O 0.92906 1.03036 0.52499
 O599 O 0.96490 1.05176 0.44299
 O600 O 1.01794 1.03091 0.58265
 O601 O 0.93077 1.02800 0.48067
 O602 O 1.06252 1.04109 0.53525
 O603 O 0.97445 1.04957 0.57810
 O604 O 1.00580 1.03841 0.44451
 C605 C 1.03367 1.04994 0.46104
 C606 C 0.95168 1.06349 0.54207
 C607 C 0.94458 1.05703 0.44871
 C608 C 1.06008 1.06111 0.54361
 O609 O 1.06052 0.96486 0.54795
 O610 O 0.90336 0.98783 0.49228
 O611 O 1.06776 0.98080 0.44129
 O612 O 0.96769 0.97640 0.57524
 O613 O 0.91924 0.96596 0.53053
 O614 O 1.08049 0.96016 0.46340
 O615 O 1.02948 0.94867 0.55568
 O616 O 0.98379 0.97060 0.43162
 Co617 Co 0.94113 0.90039 0.53382
 Co618 Co 0.79328 0.93108 0.56253
 Co619 Co 0.88538 0.91094 0.49941
 Co620 Co 0.89873 0.98126 0.64456
 O621 O 0.96997 1.00160 0.51460
 C622 C 1.04517 0.94688 0.55235
 C623 C 0.93664 0.92169 0.45795
 C624 C 1.05937 0.95055 0.44413
 C625 C 0.93841 0.94329 0.55822
 O626 O 0.56734 0.54476 -0.03276
 O627 O 0.43289 0.52838 0.02593
 O628 O 0.46488 0.53897 -0.03975
 O629 O 0.51955 0.52963 0.08262
 O630 O 0.43083 0.52825 -0.01825
 O631 O 0.56938 0.53452 0.03490
 O632 O 0.46857 0.55348 0.07618
 O633 O 0.52681 0.52605 -0.05395
 C634 C 0.55857 0.55659 -0.04219
 C635 C 0.44273 0.56255 0.05221
 C636 C 0.44446 0.55238 -0.04640
 C637 C 0.56624 0.55417 0.04003
 O638 O 0.56045 0.47139 0.04623
 O639 O 0.40370 0.49092 0.00027
 O640 O 0.56865 0.47501 -0.04351
 O641 O 0.46898 0.47724 0.07075
 O642 O 0.42318 0.47713 0.03008
 O643 O 0.58163 0.45926 -0.03577
 O644 O 0.53272 0.44385 0.05917
 O645 O 0.47597 0.46763 -0.06583
 Co646 Co 0.44161 0.40089 0.03368
 Co647 Co 0.29367 0.43118 0.06276
 Co648 Co 0.36073 0.39820 0.01207
 Co649 Co 0.39796 0.48062 0.14522
 O650 O 0.46877 0.50493 0.01671
 C651 C 0.55923 0.45168 0.05856
 C652 C 0.43839 0.43379 -0.02573
 C653 C 0.55824 0.44818 -0.05616
 C654 C 0.43897 0.44467 0.05763
 C655 C 0.37843 1.13659 0.15054
 C656 C 0.35814 1.13046 0.12115
 C657 C 0.32420 1.14362 0.11597
 C658 C 0.30926 1.16372 0.13893
 C659 C 0.32768 1.17186 0.16823
 C660 C 0.36403 1.15680 0.17519
 O661 O 0.41020 1.12089 0.14897
 C662 C 0.40940 1.10544 0.11834
 C663 C 0.37783 1.11065 0.10063
 C664 C 0.37113 1.09657 0.06816
 C665 C 0.39630 1.07717 0.05411
 C666 C 0.42814 1.07183 0.07035
 C667 C 0.43642 1.08442 0.10371
 H668 H 0.31065 1.13765 0.09408
 H669 H 0.28505 1.17201 0.13269
 H670 H 0.37614 1.16411 0.19825
 H671 H 0.34882 1.09943 0.05548
 H672 H 0.38729 1.06915 0.02699
 H673 H 0.45897 1.08121 0.11586
 C674 C 0.88176 0.63978 0.64824
 C675 C 0.85704 0.62704 0.62286
 C676 C 0.82014 0.63467 0.62053
 C677 C 0.80491 0.65685 0.64320
 C678 C 0.82745 0.67201 0.66929
 C679 C 0.86685 0.66262 0.67286
 O680 O 0.91434 0.62937 0.64444
 C681 C 0.91138 0.60943 0.61623
 C682 C 0.87666 0.60723 0.60222
 C683 C 0.86522 0.58832 0.57152
 C684 C 0.89324 0.56962 0.55801
 C685 C 0.92876 0.57175 0.57061
 C686 C 0.94098 0.58961 0.60270
 H687 H 0.80489 0.62302 0.60311
 H688 H 0.78055 0.65852 0.63765
 H689 H 0.88078 0.67538 0.69131
 H690 H 0.84293 0.58488 0.56484
 H691 H 0.87561 0.56034 0.53328
 H692 H 0.96296 0.59301 0.60944
 C693 C 0.63161 0.84640 0.12567
 C694 C 0.63528 0.88162 0.13931
 C695 C 0.65495 0.89447 0.16932
 C696 C 0.67136 0.86823 0.18002
 C697 C 0.67217 0.82696 0.16810
 C698 C 0.65148 0.81559 0.13902
 O699 O 0.61092 0.84311 0.09844
 C700 C 0.60212 0.87493 0.09418
 C701 C 0.61563 0.90110 0.11878
 C702 C 0.60919 0.93822 0.12037
 C703 C 0.58710 0.94955 0.09571
 C704 C 0.57361 0.92647 0.07007
 C705 C 0.57770 0.89130 0.06866
 H706 H 0.65988 0.91589 0.17500
 H707 H 0.68580 0.87708 0.20008
 H708 H 0.64681 0.79395 0.13347
 H709 H 0.62164 0.95400 0.13674
 H710 H 0.58252 0.96481 0.09984
 H711 H 0.56844 0.87147 0.05309
 C712 C 1.13160 0.34641 0.62567
 C713 C 1.13527 0.38163 0.63930
 C714 C 1.15496 0.39446 0.66932
 C715 C 1.17145 0.36813 0.68009
 C716 C 1.17213 0.32697 0.66808
 C717 C 1.15144 0.31561 0.63899
 O718 O 1.11085 0.34320 0.59844
 C719 C 1.10167 0.37546 0.59428
 C720 C 1.11552 0.40121 0.61873
 C721 C 1.10890 0.43859 0.62030
 C722 C 1.08625 0.45098 0.59583
 C723 C 1.07218 0.42739 0.57051
 C724 C 1.07757 0.39142 0.56862
 H725 H 1.15988 0.41589 0.67501
 H726 H 1.18587 0.37699 0.70002
 H727 H 1.14678 0.29395 0.63336
 H728 H 1.12158 0.45407 0.63661
 H729 H 1.08482 0.46974 0.59673
 H730 H 1.06783 0.37226 0.55245
 C731 C 0.62011 1.15161 -0.13198
 C732 C 0.64009 1.11801 -0.12277
 C733 C 0.67386 1.11377 -0.13965
 C734 C 0.69341 1.13042 -0.16992
 C735 C 0.67075 1.15862 -0.17255
 C736 C 0.61406 1.17750 -0.15107
 O737 O 0.59033 1.15074 -0.12009
 C738 C 0.59023 1.12188 -0.10220
 C739 C 0.63409 1.11097 -0.11041
 C740 C 0.63883 1.06771 -0.08755
 C741 C 0.60603 1.05413 -0.07093
 C742 C 0.57159 1.07485 -0.06177
 C743 C 0.56302 1.10586 -0.07967
 H744 H 0.68996 1.09182 -0.13919
 H745 H 0.71644 1.13606 -0.17769
 H746 H 0.61932 1.19697 -0.16092
 H747 H 0.65227 1.05179 -0.10011
 H748 H 0.60425 1.03140 -0.06554
 H749 H 0.54135 1.11739 -0.07942
 C750 C 1.15078 0.62112 0.37132
 C751 C 1.11826 0.64125 0.37419
 C752 C 1.11011 0.67694 0.35448
 C753 C 1.11353 0.68165 0.33738
 C754 C 1.17487 0.65651 0.32383
 C755 C 1.17304 0.62128 0.35025
 O756 O 1.15017 0.59144 0.38306
 C757 C 1.14159 0.60486 0.40474
 C758 C 1.10048 0.62340 0.38820
 C759 C 1.06604 0.62736 0.40525
 C760 C 1.05139 0.60213 0.42462
 C761 C 1.07207 0.57404 0.43844
 C762 C 1.11133 0.56895 0.42601
 H763 H 1.09090 0.68859 0.35823
 H764 H 1.12349 0.70107 0.32046
 H765 H 1.20128 0.62014 0.34374
 H766 H 1.05491 0.65068 0.39733
 H767 H 1.03052 0.60428 0.43114
 H768 H 1.11722 0.54488 0.42596
 C769 C 0.34781 0.87667 -0.13145
 C770 C 0.38162 0.85950 -0.12800
 C771 C 0.39083 0.82640 -0.14875
 C772 C 0.38281 0.81700 -0.16402
 C773 C 0.32905 0.83563 -0.17198
 C774 C 0.32447 0.87569 -0.14866
 O775 O 0.34631 0.90621 -0.11550
 C776 C 0.37774 0.90995 -0.10248
 C777 C 0.40132 0.87891 -0.11425
 C778 C 0.43626 0.87572 -0.10132
 C779 C 0.45257 0.89910 -0.08564
 C780 C 0.42961 0.92953 -0.06841
 C781 C 0.39377 0.93408 -0.08189
 H782 H 0.41253 0.81633 -0.14724
 H783 H 0.37730 0.79909 -0.18301
 H784 H 0.29737 0.87791 -0.15302
 H785 H 0.45173 0.85400 -0.11075
 H786 H 0.47252 0.90022 -0.07913
 H787 H 0.37899 0.95385 -0.07479
 C788 C 0.87978 0.34973 0.36345
 C789 C 0.85674 0.38018 0.37593
 C790 C 0.82339 0.38827 0.36039
 C791 C 0.81163 0.37897 0.32921
 C792 C 0.83336 0.33926 0.32850
 C793 C 0.88212 0.32353 0.34769
 O794 O 0.91186 0.35211 0.37506
 C795 C 0.91103 0.38264 0.39353
 C796 C 0.87681 0.39872 0.38816
 C797 C 0.86902 0.43123 0.40840
 C798 C 0.89540 0.44574 0.42519
 C799 C 0.93058 0.42921 0.43355
 C800 C 0.93839 0.39726 0.41136
 H801 H 0.80645 0.40351 0.36677
 H802 H 0.78168 0.36335 0.32597
 H803 H 0.88278 0.30532 0.33467
 H804 H 0.84480 0.44197 0.40365
 H805 H 0.89045 0.46633 0.43634
 H806 H 0.96113 0.38656 0.41393
 C807 C 1.13162 0.34641 0.12586
 C808 C 1.13526 0.38164 0.13930
 C809 C 1.15500 0.39440 0.16947
 C810 C 1.17258 0.36657 0.18135
 C811 C 1.17166 0.32797 0.16867
 C812 C 1.15102 0.31593 0.13894
 O813 O 1.11098 0.34304 0.09846
 C814 C 1.10265 0.37427 0.09401
 C815 C 1.11569 0.40103 0.11876
 C816 C 1.10933 0.43807 0.12030
 C817 C 1.08898 0.44893 0.09564
 C818 C 1.07504 0.42718 0.06845
 C819 C 1.07780 0.39122 0.06816
 H820 H 1.15992 0.41585 0.17505
 H821 H 1.18682 0.37634 0.20287
 H822 H 1.14654 0.29408 0.13277
 H823 H 1.12165 0.45399 0.13676
 H824 H 1.08728 0.46562 0.09774
 H825 H 1.06560 0.37525 0.05239
 C826 C 0.63162 0.84641 0.62586
 C827 C 0.63526 0.88164 0.63927
 C828 C 0.65500 0.89439 0.66948
 C829 C 0.67258 0.86657 0.68135
 C830 C 0.67166 0.82797 0.66867
 C831 C 0.65102 0.81593 0.63894
 O832 O 0.61091 0.84313 0.59847
 C833 C 0.60176 0.87538 0.59408
 C834 C 0.61557 0.90115 0.61867
 C835 C 0.60911 0.93844 0.62071
 C836 C 0.58588 0.95117 0.59684
 C837 C 0.57195 0.92809 0.57030
 C838 C 0.57878 0.88994 0.56944
 H839 H 0.65992 0.91585 0.67505
 H840 H 0.68683 0.87634 0.70288
 H841 H 0.64654 0.79408 0.63277
 H842 H 0.62163 0.95402 0.63669
 H843 H 0.58497 0.96950 0.59879
 H844 H 0.56793 0.87241 0.55294
 C845 C 1.10663 0.64298 -0.15654
 C846 C 1.14791 0.62733 -0.11451
 C847 C 1.18758 0.63556 -0.12033
 C848 C 1.21175 0.64632 -0.13032
 C849 C 1.16973 0.65960 -0.16676
 C850 C 1.12649 0.66086 -0.17074
 O851 O 1.07753 0.63340 -0.14584
 C852 C 1.08022 0.61108 -0.11793
 C853 C 1.11716 0.61383 -0.10555
 C854 C 1.13872 0.59164 -0.06997
 C855 C 1.11520 0.57395 -0.04594
 C856 C 1.07057 0.57458 -0.04875
 C857 C 1.04671 0.60229 -0.11029
 H858 H 1.20735 0.62634 -0.10471
 H859 H 1.22295 0.66379 -0.14443
 H860 H 1.11347 0.66112 -0.18944
 H861 H 1.15902 0.59078 -0.06396
 H862 H 1.11460 0.55522 -0.02584
 H863 H 1.02842 0.59262 -0.10926
 C864 C 0.65287 1.11858 0.36389
 C865 C 0.63014 1.12801 0.36750
 C866 C 0.61161 1.17143 0.33252
 C867 C 0.62468 1.19024 0.32492
 C868 C 0.66167 1.16529 0.30894
 C869 C 0.67709 1.11437 0.34467
 O870 O 0.65097 1.09184 0.37842
 C871 C 0.62378 1.08754 0.39500
 C872 C 0.60341 1.11886 0.39026
 C873 C 0.56679 1.13642 0.40153
 C874 C 0.56498 1.12648 0.39076
 C875 C 0.58508 1.07209 0.43782
 C876 C 0.61844 1.06703 0.41186
 H877 H 0.63012 1.18451 0.33529
 H878 H 0.61321 1.22251 0.31891
 H879 H 0.69943 1.11872 0.34075
 H880 H 0.52603 1.18008 0.36741
 H881 H 0.55298 1.13929 0.36492
 H882 H 0.62390 1.04997 0.41708
 C883 C 0.87718 0.63505 0.15134
 C884 C 0.85885 0.63183 0.12056
 C885 C 0.82646 0.64730 0.11423
 C886 C 0.81287 0.66602 0.13731
 C887 C 0.82827 0.67122 0.16786
 C888 C 0.86205 0.65488 0.17653
 O889 O 0.90799 0.61733 0.15037
 C890 C 0.90829 0.60383 0.11916
 C891 C 0.87853 0.61206 0.10006
 C892 C 0.87353 0.60015 0.06669
 C893 C 0.89851 0.57983 0.05265
 C894 C 0.92836 0.57193 0.07115
 C895 C 0.93427 0.58266 0.10506
 H896 H 0.81396 0.64378 0.09122
 H897 H 0.79050 0.67648 0.12877
 H898 H 0.87351 0.65932 0.20038
 H899 H 0.85219 0.60550 0.05255
 H900 H 0.89479 0.57096 0.02691
 H901 H 0.95636 0.57650 0.11812
 C902 C 0.37724 1.13500 0.65137
 C903 C 0.35878 1.13192 0.62069
 C904 C 0.32651 1.14728 0.61428
 C905 C 0.31333 1.16587 0.63772
 C906 C 0.32791 1.17156 0.66792
 C907 C 0.36211 1.15483 0.67649
 O908 O 0.40798 1.11736 0.65057
 C909 C 0.40836 1.10403 0.62221
 C910 C 0.37776 1.11283 0.60070
 C911 C 0.37085 1.10284 0.57183
 C912 C 0.39221 1.09010 0.57728
 C913 C 0.42905 1.07222 0.58001
 C914 C 0.43387 1.08320 0.60731
 H915 H 0.31395 1.14380 0.59120
 H916 H 0.29427 1.17523 0.62926
 H917 H 0.37349 1.15934 0.70035
 H918 H 0.35150 1.10621 0.55330
 H919 H 0.41899 1.05901 0.49649
 H920 H 0.45592 1.07686 0.61961
 C921 C 0.88928 0.35386 -0.14806
 C922 C 0.85490 0.37264 -0.12166
 C923 C 0.81438 0.36996 -0.12439
 C924 C 0.78722 0.36754 -0.14033
 C925 C 0.83389 0.33746 -0.16936
 C926 C 0.87847 0.33508 -0.17145
 O927 O 0.91814 0.36272 -0.13944
 C928 C 0.91556 0.38599 -0.11613
 C929 C 0.87620 0.39144 -0.11681
 C930 C 0.86210 0.41330 -0.07773
 C931 C 0.86751 0.43706 -0.05104
 C932 C 0.94247 0.41611 -0.08241
 C933 C 0.94905 0.39356 -0.10319
 H934 H 0.79716 0.38502 -0.10995
 H935 H 0.77542 0.34712 -0.14534
 H936 H 0.88622 0.32166 -0.18127
 H937 H 0.84157 0.41848 -0.07130
 H938 H 0.89133 0.45036 -0.04197
 H939 H 0.96750 0.40087 -0.10420
 C940 C 0.37949 0.85052 0.36006
 C941 C 0.35508 0.87825 0.37603
 C942 C 0.31965 0.88340 0.36460
 C943 C 0.30477 0.88009 0.34595
 C944 C 0.33842 0.83498 0.32858
 C945 C 0.37996 0.83172 0.34465
 O946 O 0.41145 0.85201 0.37267
 C947 C 0.40999 0.88256 0.39143
 C948 C 0.37318 0.89888 0.38188
 C949 C 0.34221 0.91905 0.42039
 C950 C 0.37663 0.94384 0.44733
 C951 C 0.43686 0.92067 0.41655
 C952 C 0.44005 0.88256 0.40348
 H953 H 0.30507 0.90606 0.37340
 H954 H 0.28607 0.86764 0.34143
 H955 H 0.38381 0.80594 0.32735
 H956 H 0.34473 0.94195 0.40707
 H957 H 0.38967 0.96411 0.44664
 H958 H 0.45978 0.88397 0.40914
 C959 C 1.10145 1.13697 0.34585
 C960 C 1.14692 1.13671 0.38038
 C961 C 1.19158 1.14842 0.38477
 C962 C 1.21688 1.15996 0.37409
 C963 C 1.18471 1.15765 0.32809
 C964 C 1.11568 1.14908 0.32211
 O965 O 1.08144 1.12180 0.34531
 C966 C 1.07365 1.10326 0.37591
 C967 C 1.11310 1.11504 0.39614
 C968 C 1.14758 1.11145 0.43541
 C969 C 1.12367 1.10864 0.43459
 C970 C 1.06257 1.07774 0.45350
 C971 C 1.03806 1.08675 0.40096
 H972 H 1.21047 1.14482 0.40108
 H973 H 1.22931 1.17303 0.35884
 H974 H 1.10585 1.15816 0.30045
 H975 H 1.15557 1.10554 0.44834
 H976 H 1.11851 1.09360 0.49540
 H977 H 1.02780 1.08074 0.38293
 C978 C 0.65150 0.62253 -0.13582
 C979 C 0.61888 0.64246 -0.12644
 C980 C 0.61050 0.67155 -0.14561
 C981 C 0.62098 0.67761 -0.17077
 C982 C 0.67394 0.65504 -0.17212
 C983 C 0.67410 0.62324 -0.14996
 O984 O 0.65038 0.59239 -0.12105
 C985 C 0.61947 0.59020 -0.10193
 C986 C 0.59945 0.62251 -0.11226
 C987 C 0.56639 0.62739 -0.09505
 C988 C 0.54966 0.61358 -0.08088
 C989 C 0.57947 0.57829 -0.05855
 C990 C 0.61288 0.56436 -0.08654
 H991 H 0.59095 0.68866 -0.14358
 H992 H 0.63299 0.70736 -0.18733
 H993 H 0.69468 0.61866 -0.15976
 H994 H 0.55496 0.65137 -0.10625
 H995 H 0.53679 0.60737 -0.07419
 H996 H 0.61839 0.54836 -0.08138
 C997 C 0.88188 1.16393 0.62468
 C998 C 0.86017 1.11860 0.63118
 C999 C 0.82473 1.08831 0.64687
 C1000 C 0.80658 1.12511 0.67622
 C1001 C 0.82723 1.17337 0.67343
 C1002 C 0.86126 1.20666 0.65601
 O1003 O 0.90355 1.15985 0.60523
 C1004 C 0.90997 1.13893 0.59467
 C1005 C 0.87819 1.10022 0.61447
 C1006 C 0.86608 1.05360 0.62240
 C1007 C 0.88770 1.03975 0.58884
 C1008 C 0.92956 1.07204 0.56726
 C1009 C 0.94720 1.11413 0.55537
 H1010 H 0.80883 1.08037 0.65787
 H1011 H 0.79590 1.11083 0.68522
 H1012 H 0.88035 1.21062 0.64398
 H1013 H 0.84988 1.03598 0.61460
 H1014 H 0.88572 1.02811 0.58727
 H1015 H 0.95704 1.14091 0.56729
 C1016 C 0.37869 0.63640 0.15078
 C1017 C 0.35815 0.63044 0.12113
 C1018 C 0.32441 0.64342 0.11560
 C1019 C 0.31169 0.66145 0.13553
 C1020 C 0.32920 0.67024 0.16858
 C1021 C 0.36342 0.65732 0.17547
 O1022 O 0.41019 0.62089 0.14902
 C1023 C 0.40914 0.60573 0.11851
 C1024 C 0.37775 0.61072 0.10066
 C1025 C 0.37107 0.59662 0.06795
 C1026 C 0.39670 0.57715 0.05364
 C1027 C 0.42769 0.57306 0.07091
 C1028 C 0.43285 0.58728 0.10633
 H1029 H 0.31065 0.63765 0.09404
 H1030 H 0.28770 0.67100 0.13007
 H1031 H 0.37687 0.66344 0.19831
 H1032 H 0.34883 0.59941 0.05542
 H1033 H 0.38893 0.56866 0.02618
 H1034 H 0.45526 0.58295 0.11983
 C1035 C 1.12343 0.83800 0.62665
 C1036 C 1.14088 0.88067 0.63291
 C1037 C 1.17431 0.91338 0.65344
 C1038 C 1.18864 0.87265 0.67402
 C1039 C 1.17306 0.82567 0.67278
 C1040 C 1.13876 0.79245 0.65486
 O1041 O 1.09747 0.84079 0.61384
 C1042 C 1.09518 0.86111 0.60739
 C1043 C 1.13557 0.89694 0.61691
 C1044 C 1.14581 0.95309 0.62398
 C1045 C 1.11096 0.95526 0.58012
 C1046 C 1.06951 0.93544 0.58516
 C1047 C 1.04673 0.87717 0.59129
 H1048 H 1.18814 0.91713 0.65580
 H1049 H 1.20468 0.88708 0.68278
 H1050 H 1.12376 0.79101 0.64599
 H1051 H 1.14741 0.96183 0.61410
 H1052 H 1.11461 0.98157 0.58485
 H1053 H 1.03058 0.88221 0.61419
 C1054 C 0.63186 0.34612 0.12630
 C1055 C 0.63581 0.38109 0.13998
 C1056 C 0.65518 0.39422 0.16950
 C1057 C 0.67275 0.36650 0.18044
 C1058 C 0.67190 0.32773 0.16931
 C1059 C 0.65140 0.31564 0.13901
 O1060 O 0.61140 0.34275 0.09979
 C1061 C 0.60968 0.37034 0.09862
 C1062 C 0.61997 0.39675 0.12334
 C1063 C 0.61118 0.43885 0.12700
 C1064 C 0.58891 0.45600 0.11931
 C1065 C 0.61540 0.46944 0.09485
 C1066 C 0.61084 0.38110 0.07170
 H1067 H 0.65981 0.41597 0.17500
 H1068 H 0.68544 0.37922 0.20072
 H1069 H 0.64702 0.29384 0.13392
 H1070 H 0.62277 0.45309 0.14153
 H1071 H 0.58841 0.46598 0.10001
 H1072 H 0.58044 0.37208 0.04989
 C1073 C 0.87982 0.84913 0.36173
 C1074 C 0.85639 0.88042 0.37810
 C1075 C 0.82108 0.88344 0.36018
 C1076 C 0.80764 0.86969 0.34659
 C1077 C 0.83790 0.83720 0.33542
 C1078 C 0.87349 0.82845 0.34690
 O1079 O 0.91184 0.85204 0.37475
 C1080 C 0.91086 0.88247 0.39320
 C1081 C 0.87663 0.89867 0.38793
 C1082 C 0.86892 0.92984 0.40751
 C1083 C 0.86929 0.94202 0.41915
 C1084 C 0.92948 0.91895 0.43048
 C1085 C 0.94258 0.88698 0.40626
 H1086 H 0.80529 0.90518 0.36998
 H1087 H 0.78829 0.86369 0.34039
 H1088 H 0.88420 0.80785 0.33415
 H1089 H 0.84440 0.94247 0.40178
 H1090 H 0.87765 0.95699 0.43339
 H1091 H 0.96132 0.88616 0.41417
 C1092 C 0.37981 0.34920 -0.13800
 C1093 C 0.35642 0.38042 -0.12177
 C1094 C 0.32111 0.38340 -0.13982
 C1095 C 0.30704 0.36949 -0.15365
 C1096 C 0.33789 0.33726 -0.16456
 C1097 C 0.37332 0.32849 -0.15321
 O1098 O 0.41185 0.35206 -0.12522
 C1099 C 0.41089 0.38255 -0.10644
 C1100 C 0.37682 0.39851 -0.11223
 C1101 C 0.36931 0.42922 -0.09189
 C1102 C 0.37030 0.44587 -0.08028
 C1103 C 0.42655 0.42400 -0.06949
 C1104 C 0.44205 0.38853 -0.09256
 H1105 H 0.30542 0.40490 -0.13071
 H1106 H 0.28680 0.36363 -0.16042
 H1107 H 0.38399 0.30763 -0.16670
 H1108 H 0.34427 0.44241 -0.09948
 H1109 H 0.37812 0.46260 -0.06737
 H1110 H 0.46113 0.38643 -0.08552
 C1111 C 1.14047 0.38234 -0.14796
 C1112 C 1.12641 0.35688 -0.12292
 C1113 C 1.13303 0.31922 -0.12007
 C1114 C 1.15607 0.30383 -0.14467
 C1115 C 1.17199 0.32756 -0.17007
 C1116 C 1.16396 0.36743 -0.17401
 O1117 O 1.13095 0.41490 -0.14393
 C1118 C 1.11018 0.41173 -0.11656
 C1119 C 1.10658 0.37655 -0.10232
 C1120 C 1.08762 0.36230 -0.07105
 C1121 C 1.06875 0.39249 -0.05787
 C1122 C 1.07066 0.42941 -0.07132
 C1123 C 1.09171 0.44180 -0.10682
 H1124 H 1.12031 0.30409 -0.10453
 H1125 H 1.15501 0.27987 -0.13632
 H1126 H 1.17737 0.38155 -0.19026
 H1127 H 1.08214 0.34205 -0.06644
 H1128 H 1.05658 0.38052 -0.03557
 H1129 H 1.09540 0.46379 -0.10977
 C1130 C 0.63182 0.84625 0.37482
 C1131 C 0.63525 0.88162 0.36047
 C1132 C 0.65406 0.89602 0.32954
 C1133 C 0.67197 0.86761 0.31866
 C1134 C 0.67238 0.82743 0.33151
 C1135 C 0.65257 0.81382 0.36186
 O1136 O 0.61110 0.84300 0.40208
 C1137 C 0.60253 0.87443 0.40658
 C1138 C 0.61559 0.90110 0.38105
 C1139 C 0.60930 0.93839 0.37771
 C1140 C 0.58870 0.95140 0.39757
 C1141 C 0.57190 0.92838 0.42938
 C1142 C 0.57761 0.89125 0.43308
 H1143 H 0.65976 0.91605 0.32455
 H1144 H 0.68601 0.87737 0.29775
 H1145 H 0.64717 0.79366 0.36669
 H1146 H 0.62161 0.95398 0.36260
 H1147 H 0.58630 0.97394 0.39562
 H1148 H 0.56598 0.87491 0.44867
 C1149 C 0.84252 0.62866 -0.12546
 C1150 C 0.88186 0.63842 -0.13689
 C1151 C 0.91306 0.65930 -0.16482
 C1152 C 0.87137 0.67879 -0.17801
 C1153 C 0.82567 0.67312 -0.16930
 C1154 C 0.79660 0.65026 -0.14170
 O1155 O 0.84039 0.60274 -0.10607
 C1156 C 0.86536 0.60210 -0.09222
 C1157 C 0.90015 0.61948 -0.11893
 C1158 C 0.94301 0.62101 -0.12809
 C1159 C 0.95698 0.61894 -0.11506
 C1160 C 0.91301 0.61190 -0.06555
 C1161 C 0.87435 0.57995 -0.05846
 H1162 H 0.91508 0.67749 -0.16513
 H1163 H 0.87937 0.69773 -0.18988
 H1164 H 0.79467 0.63231 -0.13981
 H1165 H 0.95689 0.63653 -0.12295
 H1166 H 0.98546 0.61179 -0.09380
 H1167 H 0.86928 0.55868 -0.05989
 C1168 C 0.38068 1.13836 0.35053
 C1169 C 0.35723 1.12853 0.37779
 C1170 C 0.32159 1.13824 0.38189
 C1171 C 0.30779 1.15879 0.35942
 C1172 C 0.32729 1.17209 0.33086
 C1173 C 0.36604 1.16017 0.32572
 O1174 O 0.41281 1.12602 0.35265
 C1175 C 0.40943 1.10869 0.38179
 C1176 C 0.37440 1.11104 0.39672
 C1177 C 0.36163 1.09813 0.42839
 C1178 C 0.38582 1.08175 0.44172
 C1179 C 0.42767 1.07475 0.41076
 C1180 C 0.43405 1.08959 0.39671
 H1181 H 0.30662 1.12895 0.40132
 H1182 H 0.28746 1.15967 0.36651
 H1183 H 0.37926 1.17088 0.30537
 H1184 H 0.34424 1.09112 0.43967
 H1185 H 0.37088 1.07027 0.47505
 H1186 H 0.45747 1.08738 0.38876
 C1187 C 1.12280 0.65174 0.13327
 C1188 C 1.14075 0.61891 0.12860
 C1189 C 1.17281 0.61075 0.14787
 C1190 C 1.18036 0.61556 0.16273
 C1191 C 1.16109 0.66883 0.17448
 C1192 C 1.12219 0.67474 0.14844
 O1193 O 1.09328 0.65265 0.11792
 C1194 C 1.09063 0.62054 0.10244
 C1195 C 1.12160 0.59901 0.11477
 C1196 C 1.12390 0.56771 0.09971
 C1197 C 1.10693 0.55335 0.07983
 C1198 C 1.07243 0.57993 0.07066
 C1199 C 1.06743 0.60792 0.08257
 H1200 H 1.18423 0.58883 0.14622
 H1201 H 1.20272 0.62279 0.18351
 H1202 H 1.11942 0.70077 0.15340
 H1203 H 1.14636 0.55510 0.10978
 H1204 H 1.10258 0.53308 0.06983
 H1205 H 1.04726 0.62246 0.08065
 C1206 C 0.61913 1.14854 0.63968
 C1207 C 0.64451 1.12032 0.62519
 C1208 C 0.68020 1.11798 0.63608
 C1209 C 0.69459 1.12508 0.65073
 C1210 C 0.66196 1.16599 0.67243
 C1211 C 0.61629 1.16727 0.66131
 O1212 O 0.58759 1.14627 0.62994
 C1213 C 0.58860 1.11680 0.60865
 C1214 C 0.62233 1.10304 0.61062
 C1215 C 0.62967 1.07541 0.58682
 C1216 C 0.61151 1.05997 0.57152
 C1217 C 0.56975 1.07668 0.56631
 C1218 C 0.56175 1.10488 0.59277
 H1219 H 0.69566 1.09792 0.62451
 H1220 H 0.71725 1.13646 0.65710
 H1221 H 0.61778 1.19468 0.67413
 H1222 H 0.65658 1.06715 0.59043
 H1223 H 0.60192 1.04113 0.56467
 H1224 H 0.54185 1.11110 0.59418
 C1225 C 0.84735 0.37702 0.13332
 C1226 C 0.88056 0.36202 0.12755
 C1227 C 0.89600 0.32776 0.15628
 C1228 C 0.87709 0.30924 0.17811
 C1229 C 0.84201 0.32811 0.17985
 C1230 C 0.82046 0.38063 0.14956
 O1231 O 0.84693 0.40567 0.11496
 C1232 C 0.87728 0.40985 0.10201
 C1233 C 0.90122 0.37839 0.11816
 C1234 C 0.93554 0.37527 0.10358
 C1235 C 0.94522 0.35359 0.09781
 C1236 C 0.93096 0.42533 0.06896
 C1237 C 0.87777 0.43161 0.08494
 H1238 H 0.91300 0.31550 0.15023
 H1239 H 0.86756 0.29033 0.18686
 H1240 H 0.79813 0.37526 0.15308
 H1241 H 0.95235 0.35354 0.11239
 H1242 H 0.97083 0.38372 0.07598
 H1243 H 0.87485 0.44483 0.07392
 C1244 C 0.38453 0.85236 0.64053
 C1245 C 0.35457 0.88125 0.62783
 C1246 C 0.31972 0.88502 0.64011
 C1247 C 0.31062 0.88349 0.65463
 C1248 C 0.34264 0.82770 0.67689
 C1249 C 0.38704 0.82757 0.67101
 O1250 O 0.41071 0.85287 0.62817
 C1251 C 0.41038 0.88218 0.60995
 C1252 C 0.37691 0.89791 0.61213
 C1253 C 0.36946 0.92757 0.59035
 C1254 C 0.37946 0.93149 0.57505
 C1255 C 0.43204 0.91876 0.56506
 C1256 C 0.43498 0.88499 0.59471
 H1257 H 0.30506 0.90510 0.62934
 H1258 H 0.29090 0.87202 0.66409
 H1259 H 0.38167 0.80247 0.67303
 H1260 H 0.34589 0.94126 0.59123
 H1261 H 0.38961 0.96196 0.54809
 H1262 H 0.46223 0.87876 0.59096
 C1263 C 0.35867 1.11605 -0.14674
 C1264 C 0.37494 1.14313 -0.12401
 C1265 C 0.37047 1.18156 -0.12288
 C1266 C 0.34777 1.19629 -0.14621
 C1267 C 0.32820 1.17271 -0.16980
 C1268 C 0.33344 1.13226 -0.17258
 O1269 O 0.36600 1.08407 -0.14125
 C1270 C 0.38854 1.08749 -0.11551
 C1271 C 0.39474 1.12349 -0.10327
 C1272 C 0.41570 1.14002 -0.07353
 C1273 C 0.43481 1.10771 -0.06274
 C1274 C 0.42968 1.07028 -0.07066
 C1275 C 0.40863 1.05336 -0.10233
 H1276 H 0.38499 1.19687 -0.10896
 H1277 H 0.35127 1.21982 -0.13733
 H1278 H 0.31828 1.11793 -0.18691
 H1279 H 0.42132 1.16076 -0.07361
 H1280 H 0.44722 1.13167 -0.04888
 H1281 H 0.40124 1.03458 -0.10431
 C1282 C 0.88201 0.63956 0.35152
 C1283 C 0.85704 0.62705 0.37741
 C1284 C 0.82011 0.63468 0.38049
 C1285 C 0.80572 0.65604 0.35749
 C1286 C 0.82774 0.67188 0.33044
 C1287 C 0.86650 0.66304 0.32572
 O1288 O 0.91431 0.62929 0.35486
 C1289 C 0.91140 0.60937 0.38302
 C1290 C 0.87658 0.60736 0.39776
 C1291 C 0.86419 0.58900 0.42906
 C1292 C 0.89321 0.56929 0.44062
 C1293 C 0.92784 0.57246 0.42990
 C1294 C 0.94045 0.58946 0.39619
 H1295 H 0.80493 0.62308 0.39754
 H1296 H 0.78114 0.65707 0.36651
 H1297 H 0.88076 0.67531 0.30809
 H1298 H 0.84116 0.58653 0.43366
 H1299 H 0.87057 0.56001 0.45684
 H1300 H 0.96091 0.59316 0.38931
 C1301 C 0.62187 1.15104 0.13378
 C1302 C 0.64143 1.11948 0.12445
 C1303 C 0.67312 1.10999 0.14659
 C1304 C 0.68591 1.12339 0.17185
 C1305 C 0.66538 1.16337 0.17021
 C1306 C 0.61937 1.17952 0.14782
 O1307 O 0.59049 1.15064 0.12040
 C1308 C 0.58975 1.11860 0.10365
 C1309 C 0.62225 1.10003 0.11294
 C1310 C 0.62657 1.07087 0.09670
 C1311 C 0.60322 1.05553 0.07308
 C1312 C 0.56896 1.07071 0.06644
 C1313 C 0.56313 1.10448 0.08245
 H1314 H 0.68984 1.09198 0.14123
 H1315 H 0.71531 1.13282 0.17466
 H1316 H 0.61975 1.19972 0.15839
 H1317 H 0.65383 1.05948 0.10819
 H1318 H 0.62206 1.04105 0.06435
 H1319 H 0.54185 1.11693 0.08049
 C1320 C 1.11846 0.64999 0.63644
 C1321 C 1.14325 0.62098 0.62327
 C1322 C 1.17792 0.61496 0.63710
 C1323 C 1.18639 0.61882 0.66300
 C1324 C 1.16440 0.66245 0.66999
 C1325 C 1.11580 0.67489 0.65349
 O1326 O 1.08702 0.64618 0.62679
 C1327 C 1.08853 0.61622 0.60697
 C1328 C 1.12296 0.60250 0.61083
 C1329 C 1.13018 0.57589 0.58930
 C1330 C 1.10655 0.56071 0.56846
 C1331 C 1.06796 0.57069 0.56530
 C1332 C 1.05990 0.60200 0.58562
 H1333 H 1.19560 0.59926 0.63063
 H1334 H 1.21959 0.63241 0.67043
 H1335 H 1.11312 0.69247 0.66548
 H1336 H 1.15505 0.56854 0.59579
 H1337 H 1.14754 0.55217 0.55730
 H1338 H 1.03818 0.61068 0.58800
 C1339 C 0.60369 0.84556 -0.14684
 C1340 C 0.64139 0.88028 -0.12884
 C1341 C 0.68929 0.89221 -0.12480
 C1342 C 0.70867 0.86281 -0.15437
 C1343 C 0.67245 0.82714 -0.17218
 C1344 C 0.62249 0.81130 -0.18316
 O1345 O 0.58122 0.85322 -0.13230
 C1346 C 0.57986 0.87584 -0.11461
 C1347 C 0.62326 0.89823 -0.11182
 C1348 C 0.65617 0.93427 -0.09932
 C1349 C 0.61545 0.94975 -0.06688
 C1350 C 0.57076 0.92829 -0.06497
 C1351 C 0.53440 0.88496 -0.08275
 H1352 H 0.70552 0.91077 -0.13126
 H1353 H 0.71445 0.88496 -0.15991
 H1354 H 0.60647 0.79904 -0.16875
 H1355 H 0.65925 0.95142 -0.08827
 H1356 H 0.62316 0.97660 -0.06915
 H1357 H 0.53336 0.87670 -0.09309
 C1358 C 1.13180 0.34629 0.37462
 C1359 C 1.13522 0.38164 0.36044
 C1360 C 1.15418 0.39595 0.32926
 C1361 C 1.17317 0.36625 0.31790
 C1362 C 1.17224 0.32702 0.33214
 C1363 C 1.15226 0.31418 0.36219
 O1364 O 1.11094 0.34322 0.40205
 C1365 C 1.10135 0.37583 0.40596
 C1366 C 1.11543 0.40127 0.38099
 C1367 C 1.10871 0.43899 0.37823
 C1368 C 1.08570 0.45354 0.40333
 C1369 C 1.07116 0.42862 0.42953
 C1370 C 1.07760 0.39120 0.43246
 H1371 H 1.15980 0.41601 0.32448
 H1372 H 1.18804 0.37465 0.29935
 H1373 H 1.14646 0.29428 0.36839
 H1374 H 1.12146 0.45414 0.36280
 H1375 H 1.08339 0.47580 0.40130
 H1376 H 1.06842 0.37149 0.44671
 C1377 C 0.34711 0.88000 0.13296
 C1378 C 0.38391 0.86022 0.12643
 C1379 C 0.39611 0.82691 0.14939
 C1380 C 0.38715 0.82424 0.17739
 C1381 C 0.32611 0.84174 0.17739
 C1382 C 0.32917 0.87471 0.16139
 O1383 O 0.34610 0.90628 0.11654
 C1384 C 0.37841 0.91060 0.10472
 C1385 C 0.40144 0.87868 0.11656
 C1386 C 0.43737 0.87510 0.09939
 C1387 C 0.45164 0.90040 0.07989
 C1388 C 0.42951 0.93052 0.06702
 C1389 C 0.39411 0.93375 0.08008
 H1390 H 0.41283 0.81601 0.14923
 H1391 H 0.37531 0.79064 0.19294
 H1392 H 0.29903 0.88044 0.15719
 H1393 H 0.45323 0.85265 0.10936
 H1394 H 0.47302 0.90021 0.07526
 H1395 H 0.37874 0.95313 0.07574
 C1396 C 0.88470 0.34892 0.63379
 C1397 C 0.85683 0.38050 0.62336
 C1398 C 0.82573 0.39017 0.64483
 C1399 C 0.80874 0.37333 0.66898
 C1400 C 0.82909 0.34183 0.67535
 C1401 C 0.88704 0.32794 0.65927
 O1402 O 0.91181 0.35204 0.62469
 C1403 C 0.91174 0.38278 0.60843
 C1404 C 0.87590 0.39922 0.61498
 C1405 C 0.86911 0.43230 0.59092
 C1406 C 0.89661 0.44342 0.57219
 C1407 C 0.93205 0.42852 0.56800
 C1408 C 0.93879 0.39751 0.58395
 H1409 H 0.80521 0.40477 0.63404
 H1410 H 0.78237 0.36289 0.67116
 H1411 H 0.88659 0.30680 0.66448
 H1412 H 0.84367 0.44340 0.59558
 H1413 H 0.89144 0.46022 0.56300
 H1414 H 0.96193 0.38613 0.58486
 C1415 C 1.11924 1.15210 0.65227
 C1416 C 1.15068 1.11820 0.62406
 C1417 C 1.18092 1.12022 0.63565
 C1418 C 1.19380 1.13281 0.65058
 C1419 C 1.16174 1.16247 0.66605
 C1420 C 1.12293 1.16892 0.66191
 O1421 O 1.08814 1.14423 0.63667
 C1422 C 1.09029 1.11519 0.61928
 C1423 C 1.12229 1.10876 0.61477
 C1424 C 1.13269 1.07554 0.58834
 C1425 C 1.12028 1.06262 0.57829
 C1426 C 1.08548 1.05373 0.57266
 C1427 C 1.05079 1.09731 0.61719
 H1428 H 1.19632 1.10181 0.62447
 H1429 H 1.21434 1.13985 0.65554
 H1430 H 1.11560 1.18728 0.67696
 H1431 H 1.15933 1.06632 0.59408
 H1432 H 1.12296 1.05250 0.56411
 H1433 H 1.02794 1.11314 0.60762
 C1434 C 0.62423 0.65307 0.14786
 C1435 C 0.64646 0.61726 0.12951
 C1436 C 0.67544 0.61349 0.14536
 C1437 C 0.68347 0.62187 0.15970
 C1438 C 0.65667 0.66765 0.16833
 C1439 C 0.62778 0.67693 0.15521
 O1440 O 0.59461 0.64853 0.12666
 C1441 C 0.59361 0.61859 0.11334
 C1442 C 0.62254 0.60342 0.11847
 C1443 C 0.62671 0.57160 0.09711
 C1444 C 0.61510 0.55609 0.08333
 C1445 C 0.58596 0.55396 0.07519
 C1446 C 0.55777 0.61005 0.11161
 H1447 H 0.68845 0.59186 0.14165
 H1448 H 0.70493 0.62821 0.17917
 H1449 H 0.61996 0.69676 0.16033
 H1450 H 0.65102 0.56347 0.10729
 H1451 H 0.61091 0.54186 0.07749
 H1452 H 0.53614 0.62798 0.09906
 C1453 C 1.13182 0.84626 0.37479
 C1454 C 1.13528 0.88158 0.36051
 C1455 C 1.15416 0.89592 0.32951
 C1456 C 1.17258 0.86678 0.31883
 C1457 C 1.17140 0.82842 0.33041
 C1458 C 1.15224 0.81435 0.36216
 O1459 O 1.11107 0.84305 0.40206
 C1460 C 1.10186 0.87513 0.40619
 C1461 C 1.11561 0.90109 0.38102
 C1462 C 1.10917 0.93851 0.37722
 C1463 C 1.08635 0.95297 0.39882
 C1464 C 1.07100 0.92976 0.42744
 C1465 C 1.07853 0.88948 0.43139
 H1466 H 1.15966 0.91616 0.32468
 H1467 H 1.18401 0.88058 0.29773
 H1468 H 1.14714 0.79392 0.36659
 H1469 H 1.12177 0.95382 0.36231
 H1470 H 1.08506 0.97611 0.39313
 H1471 H 1.06536 0.87528 0.44795
 C1472 C 0.63182 0.34626 -0.12523
 C1473 C 0.63530 0.38156 -0.13952
 C1474 C 0.65418 0.39590 -0.17052
 C1475 C 0.67281 0.36653 -0.18122
 C1476 C 0.67188 0.32790 -0.16927
 C1477 C 0.65210 0.31424 -0.13785
 O1478 O 0.61107 0.34305 -0.09794
 C1479 C 0.60199 0.37497 -0.09393
 C1480 C 0.61562 0.40108 -0.11903
 C1481 C 0.60915 0.43852 -0.12267
 C1482 C 0.58665 0.45202 -0.10010
 C1483 C 0.57145 0.42927 -0.07215
 C1484 C 0.57848 0.38952 -0.06861
 H1485 H 0.65968 0.41615 -0.17534
 H1486 H 0.68513 0.37927 -0.20088
 H1487 H 0.64715 0.29369 -0.13337
 H1488 H 0.62183 0.45377 -0.13780
 H1489 H 0.58595 0.47403 -0.10791
 H1490 H 0.56559 0.37496 -0.05217
 C1491 C 0.88221 1.13943 0.35141
 C1492 C 0.85707 1.12702 0.37745
 C1493 C 0.82020 1.13462 0.38066
 C1494 C 0.80612 1.15591 0.35873
 C1495 C 0.82840 1.17112 0.33018
 C1496 C 0.86634 1.16316 0.32567
 O1497 O 0.91435 1.12925 0.35493
 C1498 C 0.91146 1.10933 0.38331
 C1499 C 0.87661 1.10731 0.39790
 C1500 C 0.86429 1.08889 0.42939
 C1501 C 0.89301 1.07017 0.44276
 C1502 C 0.92884 1.07247 0.42985
 C1503 C 0.94167 1.08948 0.39618
 H1504 H 0.80487 1.12313 0.39745
 H1505 H 0.78205 1.15848 0.36399
 H1506 H 0.88152 1.17471 0.30813
 H1507 H 0.84284 1.08500 0.43562
 H1508 H 0.88055 1.05958 0.46614
 H1509 H 0.96331 1.09278 0.39057
 C1510 C 0.38371 0.63998 -0.14785
 C1511 C 0.35694 0.62597 -0.12307
 C1512 C 0.31919 0.63178 -0.12016
 C1513 C 0.30651 0.65252 -0.14292
 C1514 C 0.32862 0.67076 -0.17074
 C1515 C 0.36739 0.66491 -0.17451
 O1516 O 0.41528 0.63172 -0.14341
 C1517 C 0.41200 0.61047 -0.11624
 C1518 C 0.37634 0.60637 -0.10268
 C1519 C 0.36103 0.58705 -0.07133
 C1520 C 0.39243 0.56792 -0.05846
 C1521 C 0.42773 0.57325 -0.06996
 C1522 C 0.44235 0.59103 -0.10400
 H1523 H 0.30374 0.61887 -0.10548
 H1524 H 0.28662 0.64997 -0.13990
 H1525 H 0.38307 0.67754 -0.18958
 H1526 H 0.34157 0.58076 -0.06763
 H1527 H 0.37682 0.55789 -0.03658
 H1528 H 0.46103 0.59698 -0.10812
 C1529 C 0.87996 0.84941 0.63933
 C1530 C 0.85531 0.88248 0.62296
 C1531 C 0.82141 0.87603 0.63671
 C1532 C 0.81722 0.87704 0.66307
 C1533 C 0.84246 0.82852 0.67039
 C1534 C 0.88263 0.83017 0.65810
 O1535 O 0.91166 0.85177 0.62891
 C1536 C 0.91345 0.87785 0.60848
 C1537 C 0.86000 0.85644 0.61144
 C1538 C 0.85302 0.92423 0.58762
 C1539 C 0.86682 0.93614 0.57266
 C1540 C 0.92154 0.92428 0.56506
 C1541 C 0.94088 0.88312 0.59328
 H1542 H 0.80586 0.90289 0.63488
 H1543 H 0.78998 0.86419 0.67454
 H1544 H 0.88343 0.80880 0.67130
 H1545 H 0.84602 0.93844 0.59774
 H1546 H 0.87978 0.96229 0.56353
 H1547 H 0.95954 0.88487 0.59059
 C1548 C 0.38006 0.34936 0.13896
 C1549 C 0.35487 0.38301 0.12289
 C1550 C 0.32123 0.37577 0.13607
 C1551 C 0.31725 0.37679 0.16308
 C1552 C 0.34245 0.32844 0.17028
 C1553 C 0.38244 0.33004 0.15769
 O1554 O 0.41172 0.35171 0.12878
 C1555 C 0.41333 0.37834 0.10768
 C1556 C 0.36024 0.35678 0.11114
 C1557 C 0.35236 0.42701 0.08792
 C1558 C 0.36746 0.43578 0.07445
 C1559 C 0.42151 0.42457 0.06485
 C1560 C 0.44065 0.38468 0.09256
 H1561 H 0.30599 0.40275 0.13459
 H1562 H 0.28997 0.36423 0.17450
 H1563 H 0.38344 0.30874 0.17170
 H1564 H 0.34279 0.44486 0.09714
 H1565 H 0.37966 0.45950 0.06428
 H1566 H 0.46050 0.38616 0.09076
   
