data_POSCAR
  _audit_creation_date              2014-09-24
  _audit_creation_method            'ToBaCCo'
  _symmetry_space_group_name_H-M    'P1'
  _symmetry_Int_Tables_number       1
  _symmetry_cell_setting            triclinic
  loop_
  _symmetry_equiv_pos_as_xyz
 x,y,z
_cell_length_a 21.7982
_cell_length_b 37.7602
_cell_length_c 29.7908
_cell_angle_alpha 90.119800
_cell_angle_beta 90.025700
_cell_angle_gamma 88.592400
loop_
  _atom_site_label
  _atom_site_type_symbol
  _atom_site_fract_x
  _atom_site_fract_y
  _atom_site_fract_z
B1 B -0.04711 -0.02643 0.02892
 B2 B 0.02807 -0.02505 0.04122
 B3 B 0.00594 -0.03889 -0.00991
 B4 B -0.05775 -0.01499 -0.02508
 B5 B -0.07329 0.01436 0.01728
 B6 B -0.01942 0.00800 0.05839
 B7 B 0.04012 0.02885 -0.01671
 B8 B -0.03505 0.02733 -0.02866
 B9 B -0.01266 0.04130 0.02249
 B10 B 0.05096 0.01735 0.03757
 B11 B 0.06640 -0.01191 -0.00474
 B12 B 0.01243 -0.00576 -0.04574
 B13 B 0.53859 0.48566 0.54504
 B14 B 0.46103 0.48334 0.54334
 B15 B 0.49599 0.52214 0.55467
 B16 B 0.56059 0.52355 0.52301
 B17 B 0.56456 0.48602 0.49153
 B18 B 0.50351 0.46142 0.50484
 B19 B 0.46024 0.52324 0.46747
 B20 B 0.53763 0.52342 0.46892
 B21 B 0.50223 0.48528 0.45764
 B22 B 0.43762 0.48406 0.48913
 B23 B 0.43346 0.52173 0.52073
 B24 B 0.49628 0.54590 0.50793
 B25 B 0.54306 0.02623 0.51683
 B26 B 0.46797 0.02586 0.52937
 B27 B 0.49034 0.03988 0.47840
 B28 B 0.55264 0.01501 0.46242
 B29 B 0.56714 -0.01491 0.50414
 B30 B 0.51404 -0.00801 0.54562
 B31 B 0.45248 -0.02706 0.47072
 B32 B 0.52766 -0.02692 0.45812
 B33 B 0.50508 -0.04074 0.50912
 B34 B 0.44300 -0.01589 0.52500
 B35 B 0.42850 0.01396 0.48334
 B36 B 0.48164 0.00710 0.44185
 B37 B -0.03217 0.52168 0.03489
 B38 B 0.04460 0.52291 0.02807
 B39 B 0.01206 0.48419 0.04115
 B40 B -0.05594 0.48229 0.01399
 B41 B -0.06582 0.52004 -0.01646
 B42 B -0.00304 0.54535 -0.00747
 B43 B 0.03767 0.48584 -0.04815
 B44 B -0.03915 0.48206 -0.04151
 B45 B -0.00789 0.52159 -0.05442
 B46 B 0.06019 0.52395 -0.02720
 B47 B 0.06990 0.48621 0.00343
 B48 B 0.00876 0.46076 -0.00616
 B49 B 0.04335 0.46632 0.48323
 B50 B -0.03025 0.47749 0.47010
 B51 B -0.01087 0.46565 0.52321
 B52 B 0.05961 0.48146 0.53525
 B53 B 0.08297 0.50367 0.48895
 B54 B 0.02764 0.50079 0.44862
 B55 B -0.02214 0.53677 0.52046
 B56 B 0.05201 0.52621 0.53250
 B57 B 0.03218 0.53749 0.47974
 B58 B -0.03784 0.52188 0.46787
 B59 B -0.06124 0.49971 0.51393
 B60 B -0.00506 0.50228 0.55420
 B61 B 0.48816 -0.01554 -0.04853
 B62 B 0.55966 -0.01422 -0.02702
 B63 B 0.52448 0.02356 -0.04405
 B64 B 0.44883 0.02152 -0.03195
 B65 B 0.43799 -0.01809 -0.00637
 B66 B 0.50693 -0.04036 -0.00331
 B67 B 0.51573 0.02034 0.04635
 B68 B 0.44434 0.01895 0.02460
 B69 B 0.47934 -0.01887 0.04176
 B70 B 0.55517 -0.01679 0.02966
 B71 B 0.56596 0.02282 0.00413
 B72 B 0.49706 0.04514 0.00102
 B73 B 0.46749 0.53208 -0.01446
 B74 B 0.53671 0.52014 -0.03592
 B75 B 0.52897 0.53107 0.01911
 B76 B 0.46140 0.51617 0.03819
 B77 B 0.42754 0.49544 -0.00565
 B78 B 0.47443 0.49835 -0.05136
 B79 B 0.53555 0.45991 0.01304
 B80 B 0.46575 0.47196 0.03360
 B81 B 0.47395 0.46092 -0.02117
 B82 B 0.54159 0.47570 -0.04005
 B83 B 0.57550 0.49669 0.00362
 B84 B 0.52863 0.49391 0.04962
 B85 B 0.01104 0.01662 0.45471
 B86 B -0.06081 0.01588 0.47570
 B87 B -0.02718 -0.02205 0.45737
 B88 B 0.04864 -0.02140 0.47025
 B89 B 0.06082 0.01743 0.49746
 B90 B -0.00721 0.04065 0.50084
 B91 B -0.01946 -0.02080 0.54787
 B92 B 0.05245 -0.02015 0.52705
 B93 B 0.01855 0.01780 0.54527
 B94 B -0.05701 0.01711 0.53236
 B95 B -0.06924 -0.02172 0.50516
 B96 B -0.00117 -0.04493 0.50185
 B97 B 0.76773 0.28233 0.27945
 B98 B 0.69203 0.27614 0.28734
 B99 B 0.71738 0.28361 0.23543
 B100 B 0.78736 0.26434 0.22897
 B101 B 0.80523 0.24271 0.27788
 B102 B 0.74538 0.25024 0.31449
 B103 B 0.70152 0.21299 0.24336
 B104 B 0.77665 0.22044 0.23311
 B105 B 0.75172 0.21167 0.28617
 B106 B 0.68133 0.23174 0.29328
 B107 B 0.66417 0.25239 0.24451
 B108 B 0.72248 0.24547 0.20765
 B109 B 0.72978 0.79127 0.77725
 B110 B 0.70505 0.78256 0.72415
 B111 B 0.78051 0.78787 0.73506
 B112 B 0.79808 0.76938 0.78525
 B113 B 0.73185 0.75327 0.80601
 B114 B 0.67356 0.76180 0.76869
 B115 B 0.75904 0.71783 0.72776
 B116 B 0.78337 0.72564 0.78029
 B117 B 0.70750 0.72128 0.77120
 B118 B 0.69069 0.73900 0.72024
 B119 B 0.75761 0.75576 0.69947
 B120 B 0.81468 0.74743 0.73698
 B121 B 0.27810 0.21315 0.73471
 B122 B 0.20307 0.22098 0.72224
 B123 B 0.22535 0.21296 0.77596
 B124 B 0.29401 0.23172 0.78426
 B125 B 0.31297 0.25188 0.73589
 B126 B 0.25704 0.24513 0.69706
 B127 B 0.20701 0.28347 0.76643
 B128 B 0.28217 0.27558 0.77704
 B129 B 0.25945 0.28385 0.72438
 B130 B 0.19045 0.26516 0.71587
 B131 B 0.17096 0.24458 0.76496
 B132 B 0.22836 0.25159 0.80276
 B133 B 0.22006 0.78192 0.23418
 B134 B 0.29250 0.77596 0.21461
 B135 B 0.27987 0.78204 0.27017
 B136 B 0.21464 0.76191 0.28411
 B137 B 0.18721 0.74222 0.23698
 B138 B 0.23557 0.75141 0.19357
 B139 B 0.29957 0.71206 0.25505
 B140 B 0.22776 0.71878 0.27513
 B141 B 0.24011 0.71205 0.21962
 B142 B 0.30574 0.73243 0.20501
 B143 B 0.33315 0.75189 0.25240
 B144 B 0.28482 0.74265 0.29535
 B145 B 0.27895 0.71992 0.78156
 B146 B 0.30112 0.72493 0.72811
 B147 B 0.22575 0.71931 0.73939
 B148 B 0.20969 0.73997 0.78875
 B149 B 0.27595 0.75941 0.80636
 B150 B 0.33187 0.75035 0.76815
 B151 B 0.24272 0.78954 0.72621
 B152 B 0.22071 0.78345 0.78064
 B153 B 0.29504 0.78992 0.76746
 B154 B 0.31212 0.76884 0.71858
 B155 B 0.24703 0.74959 0.70088
 B156 B 0.18949 0.75942 0.73892
 B157 B 0.19947 0.20992 0.26076
 B158 B 0.27489 0.21665 0.27058
 B159 B 0.24902 0.20797 0.21772
 B160 B 0.17925 0.22872 0.21091
 B161 B 0.16327 0.24967 0.25970
 B162 B 0.22173 0.24228 0.29637
 B163 B 0.26768 0.27818 0.22438
 B164 B 0.19160 0.27299 0.21672
 B165 B 0.21766 0.28030 0.26841
 B166 B 0.28702 0.26032 0.27472
 B167 B 0.30370 0.23832 0.22573
 B168 B 0.24377 0.24639 0.18940
 B169 B 0.79130 0.71100 0.24090
 B170 B 0.72078 0.71798 0.21870
 B171 B 0.73005 0.71185 0.27448
 B172 B 0.79537 0.73190 0.29075
 B173 B 0.82559 0.75062 0.24393
 B174 B 0.77941 0.74120 0.19975
 B175 B 0.71229 0.78168 0.25894
 B176 B 0.78364 0.77535 0.28044
 B177 B 0.77390 0.78101 0.22451
 B178 B 0.70902 0.76117 0.20888
 B179 B 0.67878 0.74222 0.25541
 B180 B 0.72515 0.75138 0.30014
 B181 B 0.73624 0.21237 0.71685
 B182 B 0.71353 0.22093 0.77028
 B183 B 0.78870 0.21295 0.75837
 B184 B 0.80516 0.23101 0.70864
 B185 B 0.73969 0.25083 0.68952
 B186 B 0.68188 0.24415 0.72711
 B187 B 0.76985 0.28362 0.76795
 B188 B 0.79332 0.27496 0.71543
 B189 B 0.71809 0.28297 0.72557
 B190 B 0.70083 0.26509 0.77610
 B191 B 0.76717 0.24529 0.79552
 B192 B 0.82366 0.25163 0.75705
 C193 C 0.12308 0.41280 0.85877
 C194 C 0.15035 0.41949 0.90048
 C195 C 0.13051 0.44847 0.92535
 C196 C 0.07741 0.46776 0.91249
 C197 C 0.05488 0.46378 0.86819
 C198 C 0.07779 0.43576 0.84102
 C199 C 0.13904 0.37970 0.83520
 C200 C 0.11449 0.37279 0.79253
 C201 C 0.13329 0.34139 0.76969
 C202 C 0.17373 0.31684 0.79093
 C203 C 0.18941 0.32282 0.83638
 C204 C 0.17670 0.35479 0.85701
 C205 C 0.05304 0.42809 0.79845
 C206 C 0.07214 0.39755 0.77416
 C207 C 0.19208 0.39500 0.91931
 C208 C 0.20357 0.36256 0.89852
 H209 H 0.01808 0.44552 0.78410
 H210 H 0.05223 0.39277 0.74145
 H211 H 0.21323 0.40003 0.95156
 H212 H 0.23441 0.34360 0.91475
 H213 H 0.15185 0.45244 0.95770
 H214 H 0.01536 0.47933 0.85707
 H215 H 0.11692 0.33624 0.73604
 H216 H 0.21783 0.30427 0.85521
 C217 C 0.39697 0.59825 0.36272
 C218 C 0.43164 0.60936 0.39909
 C219 C 0.44145 0.58650 0.43455
 C220 C 0.42649 0.55006 0.43199
 C221 C 0.39058 0.53910 0.39512
 C222 C 0.37358 0.56386 0.36110
 C223 C 0.38281 0.62398 0.32689
 C224 C 0.33996 0.61554 0.29390
 C225 C 0.31827 0.64262 0.26503
 C226 C 0.33988 0.67764 0.26936
 C227 C 0.39020 0.68342 0.29780
 C228 C 0.40890 0.65762 0.32846
 C229 C 0.33417 0.55540 0.32540
 C230 C 0.31641 0.58106 0.29306
 C231 C 0.45790 0.64294 0.39923
 C232 C 0.44811 0.66635 0.36376
 H233 H 0.31520 0.52921 0.32331
 H234 H 0.28345 0.57398 0.26755
 H235 H 0.48651 0.65116 0.42695
 H236 H 0.46845 0.69223 0.36534
 H237 H 0.46645 0.59753 0.46229
 H238 H 0.37708 0.51175 0.39256
 H239 H 0.28125 0.63679 0.24262
 H240 H 0.40900 0.70960 0.30108
 C241 C 0.91091 0.90491 0.64863
 C242 C 0.96638 0.89711 0.62688
 C243 C 0.98989 0.92183 0.59710
 C244 C 0.96123 0.95556 0.59059
 C245 C 0.90723 0.96369 0.61511
 C246 C 0.88094 0.93803 0.64308
 C247 C 0.88113 0.87670 0.67443
 C248 C 0.82242 0.88304 0.69195
 C249 C 0.79171 0.85513 0.71229
 C250 C 0.81888 0.82092 0.71615
 C251 C 0.87933 0.81565 0.69986
 C252 C 0.91004 0.84317 0.67830
 C253 C 0.82333 0.94389 0.66331
 C254 C 0.79434 0.91678 0.68695
 C255 C 0.99530 0.86374 0.63284
 C256 C 0.96791 0.83734 0.65855
 H257 H 0.79942 0.96919 0.65943
 H258 H 0.74897 0.92205 0.70066
 H259 H 1.03883 0.85770 0.61662
 H260 H 0.99110 0.81174 0.66148
 H261 H 1.02833 0.91326 0.57667
 H262 H 0.88300 0.98872 0.60968
 H263 H 0.74522 0.85992 0.72214
 H264 H 0.90177 0.78981 0.70200
 C265 C 0.58006 0.09452 0.15060
 C266 C 0.61223 0.06220 0.14389
 C267 C 0.58800 0.03654 0.11458
 C268 C 0.53357 0.04383 0.09007
 C269 C 0.50283 0.07689 0.09769
 C270 C 0.52446 0.10155 0.12864
 C271 C 0.60744 0.12277 0.17819
 C272 C 0.57629 0.15554 0.18329
 C273 C 0.60476 0.18323 0.20653
 C274 C 0.66521 0.17901 0.22350
 C275 C 0.69431 0.14533 0.21869
 C276 C 0.66599 0.11727 0.19637
 C277 C 0.49332 0.13416 0.13584
 C278 C 0.51848 0.16053 0.16307
 C279 C 0.66978 0.05717 0.16459
 C280 C 0.69637 0.08429 0.19002
 H281 H 0.44968 0.13963 0.11950
 H282 H 0.49349 0.18552 0.16692
 H283 H 0.69545 0.03252 0.15985
 H284 H 0.74170 0.07963 0.20409
 H285 H 0.61393 0.01218 0.10834
 H286 H 0.46402 0.08500 0.07735
 H287 H 0.58052 0.20850 0.20934
 H288 H 0.74058 0.14113 0.22920
 C289 C 0.82594 0.08739 0.39501
 C290 C 0.85781 0.05918 0.37425
 C291 C 0.88424 0.03249 0.40074
 C292 C 0.88488 0.03552 0.44805
 C293 C 0.84868 0.06264 0.46838
 C294 C 0.81908 0.08872 0.44183
 C295 C 0.80465 0.11772 0.36756
 C296 C 0.77274 0.14613 0.38788
 C297 C 0.75315 0.17504 0.36131
 C298 C 0.76985 0.17705 0.31541
 C299 C 0.80635 0.14929 0.29732
 C300 C 0.82065 0.11888 0.32211
 C301 C 0.78719 0.11772 0.46117
 C302 C 0.76335 0.14561 0.43456
 C303 C 0.86917 0.06020 0.32787
 C304 C 0.85207 0.08994 0.30240
 H305 H 0.78206 0.11928 0.49727
 H306 H 0.73988 0.16773 0.45087
 H307 H 0.89451 0.03872 0.31161
 H308 H 0.86406 0.09042 0.26710
 H309 H 0.91280 0.01283 0.38396
 H310 H 0.84807 0.06540 0.50459
 H311 H 0.72700 0.19648 0.37694
 H312 H 0.82392 0.15065 0.26388
 C313 C 0.36914 0.40303 0.62654
 C314 C 0.43012 0.39846 0.61294
 C315 C 0.45675 0.42424 0.58714
 C316 C 0.42615 0.45663 0.57683
 C317 C 0.36431 0.46118 0.59101
 C318 C 0.33531 0.43398 0.61561
 C319 C 0.33990 0.37397 0.65102
 C320 C 0.27769 0.37677 0.66282
 C321 C 0.25022 0.34801 0.68522
 C322 C 0.28553 0.31725 0.69657
 C323 C 0.34794 0.31577 0.68357
 C324 C 0.37487 0.34344 0.66111
 C325 C 0.27317 0.43633 0.62876
 C326 C 0.24487 0.40822 0.65170
 C327 C 0.46368 0.36759 0.62410
 C328 C 0.43662 0.34063 0.64820
 H329 H 0.24594 0.45986 0.62078
 H330 H 0.19685 0.41113 0.66067
 H331 H 0.51124 0.36420 0.61399
 H332 H 0.46401 0.31712 0.65614
 H333 H 0.50186 0.41786 0.57408
 H334 H 0.33864 0.48502 0.58189
 H335 H 0.20222 0.34976 0.69386
 H336 H 0.37723 0.29294 0.69042
 C337 C 0.67158 0.91697 0.88849
 C338 C 0.68158 0.91533 0.93504
 C339 C 0.65272 0.94084 0.96304
 C340 C 0.61494 0.96790 0.94427
 C341 C 0.61450 0.97197 0.89705
 C342 C 0.63912 0.94552 0.86923
 C343 C 0.68944 0.88647 0.86003
 C344 C 0.66909 0.88536 0.81540
 C345 C 0.67924 0.85457 0.79013
 C346 C 0.71590 0.82638 0.80673
 C347 C 0.73762 0.82854 0.85156
 C348 C 0.72225 0.85784 0.87883
 C349 C 0.62432 0.94481 0.82333
 C350 C 0.63768 0.91481 0.79711
 C351 C 0.71549 0.88642 0.95271
 C352 C 0.73677 0.85855 0.92487
 H353 H 0.59855 0.96662 0.80826
 H354 H 0.62264 0.91449 0.76244
 H355 H 0.72422 0.88488 0.98846
 H356 H 0.76205 0.83656 0.93993
 H357 H 0.65473 0.93750 0.99913
 H358 H 0.58527 0.99171 0.88126
 H359 H 0.65895 0.85323 0.75736
 H360 H 0.76434 0.80686 0.86603
 C361 C 0.14928 0.59248 0.11523
 C362 C 0.10371 0.57145 0.13392
 C363 C 0.07554 0.54633 0.10710
 C364 C 0.08891 0.54395 0.06094
 C365 C 0.13772 0.56369 0.04349
 C366 C 0.16802 0.58802 0.07055
 C367 C 0.17513 0.62111 0.14215
 C368 C 0.22002 0.64265 0.12347
 C369 C 0.24221 0.67096 0.14879
 C370 C 0.21827 0.67840 0.19193
 C371 C 0.17291 0.65644 0.20936
 C372 C 0.15206 0.62754 0.18529
 C373 C 0.21429 0.60937 0.05319
 C374 C 0.24026 0.63609 0.07939
 C375 C 0.08399 0.57760 0.17812
 C376 C 0.10735 0.60551 0.20329
 H377 H 0.22956 0.60595 0.01882
 H378 H 0.27507 0.65239 0.06457
 H379 H 0.04849 0.56165 0.19269
 H380 H 0.08959 0.61024 0.23680
 H381 H 0.03943 0.53077 0.12148
 H382 H 0.15038 0.56166 0.00842
 H383 H 0.27661 0.68769 0.13426
 H384 H 0.15298 0.66143 0.24145
 C385 C 0.40211 0.89638 0.12310
 C386 C 0.46499 0.90304 0.12758
 C387 C 0.48981 0.93240 0.10525
 C388 C 0.45168 0.95514 0.07918
 C389 C 0.38781 0.94907 0.07841
 C390 C 0.36328 0.91947 0.09897
 C391 C 0.37657 0.86406 0.14279
 C392 C 0.31451 0.85663 0.13578
 C393 C 0.29022 0.82613 0.15459
 C394 C 0.32565 0.80456 0.18367
 C395 C 0.38913 0.81114 0.18808
 C396 C 0.41471 0.84103 0.16776
 C397 C 0.30105 0.91154 0.09356
 C398 C 0.27726 0.88039 0.11115
 C399 C 0.50192 0.87923 0.15268
 C400 C 0.47711 0.84901 0.17280
 H401 H 0.27073 0.92918 0.07474
 H402 H 0.22918 0.87506 0.10580
 H403 H 0.55045 0.88393 0.15670
 H404 H 0.50716 0.83160 0.19217
 H405 H 0.53887 0.93634 0.10615
 H406 H 0.35713 0.96586 0.05876
 H407 H 0.24276 0.82025 0.14803
 H408 H 0.41782 0.79434 0.20924
 C409 C 0.55691 0.40077 0.36473
 C410 C 0.58406 0.43397 0.36063
 C411 C 0.56136 0.46273 0.38592
 C412 C 0.51014 0.45939 0.41433
 C413 C 0.47904 0.42660 0.41352
 C414 C 0.50406 0.39682 0.39060
 C415 C 0.58717 0.36918 0.34413
 C416 C 0.56450 0.33513 0.35178
 C417 C 0.59713 0.30490 0.33455
 C418 C 0.65119 0.30904 0.30893
 C419 C 0.66935 0.34418 0.29985
 C420 C 0.63975 0.37370 0.31841
 C421 C 0.48035 0.36262 0.39575
 C422 C 0.51031 0.33236 0.37713
 C423 C 0.63660 0.43722 0.33395
 C424 C 0.66336 0.40768 0.31255
 H425 H 0.43950 0.35902 0.41576
 H426 H 0.49133 0.30656 0.38318
 H427 H 0.65787 0.46268 0.33022
 H428 H 0.70435 0.41127 0.29264
 H429 H 0.58829 0.48619 0.38675
 H430 H 0.43981 0.42284 0.43516
 H431 H 0.58066 0.27856 0.34101
 H432 H 0.70825 0.34938 0.27880
 C433 C 0.92392 0.60368 0.85695
 C434 C 0.97947 0.60878 0.87922
 C435 C 1.00869 0.57971 0.90031
 C436 C 0.97990 0.54637 0.90248
 C437 C 0.92760 0.54115 0.87592
 C438 C 0.89911 0.56973 0.85345
 C439 C 0.88938 0.63468 0.83900
 C440 C 0.83411 0.62922 0.81684
 C441 C 0.80172 0.65822 0.79948
 C442 C 0.82104 0.69358 0.80568
 C443 C 0.87706 0.69859 0.82845
 C444 C 0.91179 0.66906 0.84469
 C445 C 0.84372 0.56551 0.83031
 C446 C 0.81208 0.59474 0.81187
 C447 C 1.00203 0.64333 0.88297
 C448 C 0.96866 0.67293 0.86624
 H449 H 0.82407 0.53954 0.82720
 H450 H 0.76915 0.59043 0.79456
 H451 H 1.04500 0.64766 0.90020
 H452 H 0.98725 0.69905 0.87064
 H453 H 1.04971 0.58438 0.91979
 H454 H 0.90563 0.51587 0.87602
 H455 H 0.76264 0.65246 0.77877
 H456 H 0.89439 0.72507 0.83232
 C457 C 0.09290 0.10110 0.63000
 C458 C 0.13183 0.07987 0.60326
 C459 C 0.10882 0.04989 0.58267
 C460 C 0.04557 0.04259 0.58426
 C461 C 0.00728 0.06335 0.61289
 C462 C 0.03129 0.09241 0.63660
 C463 C 0.11693 0.13365 0.65022
 C464 C 0.07977 0.15428 0.67915
 C465 C 0.10508 0.18405 0.70053
 C466 C 0.16664 0.19317 0.69197
 C467 C 0.19935 0.17455 0.65826
 C468 C 0.17663 0.14371 0.63965
 C469 C -0.00519 0.11401 0.66515
 C470 C 0.01895 0.14398 0.68671
 C471 C 0.19219 0.09018 0.59498
 C472 C 0.21372 0.12207 0.61195
 H473 H -0.05273 0.10768 0.67096
 H474 H -0.01052 0.15950 0.70892
 H475 H 0.22244 0.07404 0.57403
 H476 H 0.26021 0.12948 0.60408
 H477 H 0.13978 0.03410 0.56188
 H478 H -0.04130 0.05812 0.61487
 H479 H 0.07831 0.19876 0.72523
 H480 H 0.24466 0.18253 0.64832
 C481 C 0.12730 0.38352 0.40033
 C482 C 0.16595 0.40844 0.41956
 C483 C 0.14074 0.43339 0.44986
 C484 C 0.07780 0.43251 0.46164
 C485 C 0.04304 0.40404 0.44654
 C486 C 0.06599 0.38101 0.41392
 C487 C 0.15077 0.36012 0.36454
 C488 C 0.10987 0.33803 0.34259
 C489 C 0.13129 0.31652 0.30810
 C490 C 0.19471 0.31326 0.29844
 C491 C 0.23552 0.33609 0.32026
 C492 C 0.21317 0.36044 0.35268
 C493 C 0.02736 0.35707 0.39266
 C494 C 0.04849 0.33667 0.35653
 C495 C 0.22801 0.40876 0.40643
 C496 C 0.25153 0.38464 0.37421
 H497 H -0.02010 0.35503 0.40291
 H498 H 0.01687 0.31917 0.33999
 H499 H 0.25861 0.42774 0.42119
 H500 H 0.29974 0.38538 0.36553
 H501 H 0.16937 0.45430 0.46230
 H502 H -0.00362 0.40101 0.45751
 H503 H 0.09784 0.30082 0.29076
 H504 H 0.28413 0.33440 0.31284
 C505 C 0.37757 0.61921 0.91473
 C506 C 0.43966 0.62147 0.92668
 C507 C 0.46514 0.59678 0.95644
 C508 C 0.43160 0.56722 0.96947
 C509 C 0.36788 0.56687 0.96021
 C510 C 0.34046 0.59323 0.93316
 C511 C 0.35185 0.64343 0.88064
 C512 C 0.28905 0.64273 0.87007
 C513 C 0.26490 0.66686 0.83822
 C514 C 0.30431 0.68927 0.81450
 C515 C 0.36796 0.68751 0.82420
 C516 C 0.39119 0.66622 0.85844
 C517 C 0.27773 0.59302 0.92191
 C518 C 0.25216 0.61790 0.89164
 C519 C 0.47647 0.64653 0.90585
 C520 C 0.45307 0.66785 0.87127
 H521 H 0.24830 0.57332 0.93632
 H522 H 0.20363 0.61694 0.88399
 H523 H 0.52443 0.64851 0.91485
 H524 H 0.48356 0.68589 0.85466
 H525 H 0.51301 0.59874 0.96536
 H526 H 0.34032 0.54513 0.97145
 H527 H 0.21589 0.66836 0.83231
 H528 H 0.40027 0.70366 0.80649
 C529 C 0.64558 0.09995 0.59960
 C530 C 0.62186 0.06951 0.61889
 C531 C 0.59525 0.04455 0.59127
 C532 C 0.58793 0.05070 0.54468
 C533 C 0.61398 0.08082 0.52545
 C534 C 0.64289 0.10564 0.55299
 C535 C 0.67149 0.12698 0.62906
 C536 C 0.69700 0.15702 0.61002
 C537 C 0.72192 0.18249 0.63832
 C538 C 0.71709 0.17968 0.68571
 C539 C 0.68939 0.14963 0.70369
 C540 C 0.66870 0.12271 0.67579
 C541 C 0.66705 0.13671 0.53528
 C542 C 0.69512 0.16159 0.56318
 C543 C 0.62214 0.06532 0.66573
 C544 C 0.64435 0.09181 0.69382
 H545 H 0.66403 0.14182 0.49962
 H546 H 0.71386 0.18507 0.54810
 H547 H 0.60333 0.04188 0.68085
 H548 H 0.64231 0.08812 0.72987
 H549 H 0.57673 0.02149 0.60732
 H550 H 0.60906 0.08580 0.48980
 H551 H 0.74287 0.20513 0.62291
 H552 H 0.68500 0.14628 0.73935
 C553 C 0.85775 0.89621 0.10962
 C554 C 0.88000 0.92678 0.12979
 C555 C 0.90322 0.95310 0.10284
 C556 C 0.90914 0.94816 0.05597
 C557 C 0.88340 0.91825 0.03575
 C558 C 0.85747 0.89205 0.06269
 C559 C 0.83630 0.86760 0.13839
 C560 C 0.81238 0.83730 0.11864
 C561 C 0.79128 0.81043 0.14643
 C562 C 0.79630 0.81293 0.19382
 C563 C 0.82265 0.84318 0.21240
 C564 C 0.84092 0.87091 0.18518
 C565 C 0.83371 0.86108 0.04403
 C566 C 0.81065 0.83435 0.07156
 C567 C 0.88191 0.92980 0.17675
 C568 C 0.86330 0.90207 0.20408
 H569 H 0.83332 0.85739 0.00797
 H570 H 0.79248 0.81090 0.05591
 H571 H 0.89950 0.95338 0.19248
 H572 H 0.86652 0.90500 0.24021
 H573 H 0.92096 0.97615 0.11955
 H574 H 0.88682 0.91438 -0.00022
 H575 H 0.77158 0.78743 0.13076
 H576 H 0.82561 0.84673 0.24802
 C577 C 0.90224 0.10257 0.86784
 C578 C 0.94199 0.11330 0.90182
 C579 C 0.95868 0.08951 0.93515
 C580 C 0.93805 0.05444 0.93480
 C581 C 0.89842 0.04376 0.90009
 C582 C 0.87990 0.06800 0.86657
 C583 C 0.88192 0.12856 0.83407
 C584 C 0.83997 0.11876 0.80094
 C585 C 0.81614 0.14485 0.77181
 C586 C 0.83018 0.18077 0.77814
 C587 C 0.87720 0.18902 0.80886
 C588 C 0.90247 0.16334 0.83704
 C589 C 0.83950 0.05867 0.83192
 C590 C 0.81993 0.08363 0.79957
 C591 C 0.96417 0.14783 0.90234
 C592 C 0.94465 0.17255 0.87036
 H593 H 0.82204 0.03208 0.83024
 H594 H 0.78742 0.07567 0.77417
 H595 H 0.99583 0.15602 0.92822
 H596 H 0.96113 0.19934 0.87261
 H597 H 0.98870 0.09871 0.96125
 H598 H 0.88237 0.01685 0.89895
 H599 H 0.78486 0.13711 0.74627
 H600 H 0.89120 0.21603 0.81397
 C601 C 0.12782 0.60595 0.62575
 C602 C 0.13659 0.56996 0.63634
 C603 C 0.11844 0.54379 0.60488
 C604 C 0.09017 0.55381 0.56367
 C605 C 0.08321 0.59049 0.55469
 C606 C 0.10175 0.61622 0.58482
 C607 C 0.14422 0.63367 0.65855
 C608 C 0.13431 0.66932 0.64737
 C609 C 0.15387 0.69557 0.67656
 C610 C 0.18637 0.68730 0.71657
 C611 C 0.18761 0.65126 0.73025
 C612 C 0.16897 0.62418 0.70036
 C613 C 0.09123 0.65226 0.57537
 C614 C 0.10739 0.67838 0.60608
 C615 C 0.16094 0.56127 0.67890
 C616 C 0.17649 0.58781 0.71032
 H617 H 0.07040 0.66036 0.54386
 H618 H 0.09935 0.70592 0.59720
 H619 H 0.16776 0.53373 0.68815
 H620 H 0.19530 0.57975 0.74248
 H621 H 0.12258 0.51601 0.61366
 H622 H 0.05655 0.59998 0.52667
 H623 H 0.14662 0.72278 0.66604
 H624 H 0.20595 0.64382 0.76255
 C625 C 0.58986 0.89615 0.35515
 C626 C 0.54673 0.88664 0.38740
 C627 C 0.52986 0.91091 0.42044
 C628 C 0.55313 0.94544 0.42115
 C629 C 0.59572 0.95495 0.38783
 C630 C 0.61490 0.93009 0.35500
 C631 C 0.61172 0.86925 0.32271
 C632 C 0.65813 0.87756 0.29229
 C633 C 0.68441 0.85037 0.26576
 C634 C 0.66777 0.81484 0.27205
 C635 C 0.61586 0.80818 0.29887
 C636 C 0.58870 0.83496 0.32486
 C637 C 0.65923 0.93805 0.32248
 C638 C 0.68052 0.91221 0.29166
 C639 C 0.52199 0.85269 0.38681
 C640 C 0.54254 0.82723 0.35586
 H641 H 0.67886 0.96412 0.32163
 H642 H 0.71643 0.91904 0.26830
 H643 H 0.48764 0.84546 0.41121
 H644 H 0.52404 0.80088 0.35748
 H645 H 0.49850 0.90229 0.44590
 H646 H 0.61422 0.98132 0.38761
 H647 H 0.72029 0.85688 0.24310
 H648 H 0.59996 0.78148 0.30340
 C649 C 0.37445 0.39646 0.12251
 C650 C 0.35189 0.40295 0.07902
 C651 C 0.37749 0.42952 0.05298
 C652 C 0.42828 0.44829 0.06855
 C653 C 0.44861 0.44269 0.11330
 C654 C 0.42164 0.41668 0.14045
 C655 C 0.34985 0.36685 0.14886
 C656 C 0.37141 0.36004 0.19261
 C657 C 0.34648 0.33177 0.21757
 C658 C 0.30192 0.30989 0.19801
 C659 C 0.28468 0.31654 0.15277
 C660 C 0.30620 0.34534 0.12906
 C661 C 0.44257 0.40919 0.18429
 C662 C 0.41749 0.38167 0.21004
 C663 C 0.30608 0.38157 0.06134
 C664 C 0.28406 0.35300 0.08578
 H665 H 0.47911 0.42449 0.19869
 H666 H 0.43513 0.37692 0.24355
 H667 H 0.28834 0.38632 0.02784
 H668 H 0.24949 0.33668 0.07057
 H669 H 0.35983 0.43403 0.01948
 H670 H 0.48726 0.45708 0.12616
 H671 H 0.36168 0.32683 0.25164
 H672 H 0.25126 0.30045 0.13598
 C673 C 0.60924 0.61816 0.09446
 C674 C 0.64766 0.59264 0.07399
 C675 C 0.62146 0.56486 0.05087
 C676 C 0.55768 0.56438 0.04324
 C677 C 0.51970 0.59102 0.06278
 C678 C 0.54525 0.61740 0.08966
 C679 C 0.63658 0.64505 0.12329
 C680 C 0.59837 0.66840 0.14779
 C681 C 0.62508 0.69197 0.17803
 C682 C 0.68947 0.69215 0.18358
 C683 C 0.72641 0.67154 0.15435
 C684 C 0.70059 0.64651 0.12633
 C685 C 0.50830 0.64228 0.11304
 C686 C 0.53442 0.66709 0.14215
 C687 C 0.71161 0.59489 0.07780
 C688 C 0.73773 0.62215 0.10250
 H689 H 0.45881 0.64194 0.10977
 H690 H 0.50437 0.68517 0.16059
 H691 H 0.74164 0.57556 0.06141
 H692 H 0.78725 0.62330 0.10443
 H693 H 0.65139 0.54334 0.03967
 H694 H 0.47031 0.59028 0.05898
 H695 H 0.59570 0.70966 0.19761
 H696 H 0.77554 0.67432 0.15356
 C697 C 0.08229 0.87312 0.91050
 C698 C 0.11318 0.88478 0.94881
 C699 C 0.08393 0.90883 0.97775
 C700 C 0.02483 0.92317 0.96810
 C701 C -0.00715 0.90947 0.93071
 C702 C 0.02158 0.88436 0.90175
 C703 C 0.11562 0.85041 0.87766
 C704 C 0.08552 0.83859 0.83895
 C705 C 0.11826 0.81711 0.80772
 C706 C 0.18168 0.80941 0.81384
 C707 C 0.21020 0.82187 0.85327
 C708 C 0.17766 0.84181 0.88515
 C709 C -0.00744 0.87177 0.86278
 C710 C 0.02369 0.84900 0.83225
 C711 C 0.17466 0.87434 0.95593
 C712 C 0.20652 0.85345 0.92444
 H713 H -0.05436 0.87997 0.85546
 H714 H -0.00042 0.84020 0.80259
 H715 H 0.19897 0.88332 0.98543
 H716 H 0.25438 0.84670 0.93066
 H717 H 0.11061 0.91914 1.00524
 H718 H -0.05213 0.92028 0.92213
 H719 H 0.09495 0.80719 0.77830
 H720 H 0.25816 0.81582 0.85986
 C721 C 0.41661 0.12903 0.40049
 C722 C 0.47611 0.11640 0.39038
 C723 C 0.50465 0.09108 0.41903
 C724 C 0.47345 0.07832 0.45727
 C725 C 0.41580 0.09402 0.46820
 C726 C 0.38688 0.11851 0.43978
 C727 C 0.38293 0.15179 0.36798
 C728 C 0.32183 0.16173 0.37694
 C729 C 0.28861 0.18139 0.34527
 C730 C 0.31534 0.19198 0.30437
 C731 C 0.37810 0.18319 0.29681
 C732 C 0.41153 0.16209 0.32801
 C733 C 0.32649 0.13038 0.44835
 C734 C 0.29436 0.15145 0.41730
 C735 C 0.50386 0.12769 0.35032
 C736 C 0.47241 0.15038 0.31995
 H737 H 0.30310 0.12232 0.47862
 H738 H 0.24724 0.15925 0.42462
 H739 H 0.54987 0.11840 0.34194
 H740 H 0.49541 0.15802 0.28934
 H741 H 0.54849 0.07922 0.40946
 H742 H 0.38948 0.08432 0.49614
 H743 H 0.24135 0.18841 0.35304
 H744 H 0.40013 0.19173 0.26622
 C745 C 0.91569 0.38116 0.60767
 C746 C 0.96379 0.37203 0.57826
 C747 C 0.98924 0.39867 0.55145
 C748 C 0.96258 0.43315 0.55106
 C749 C 0.91271 0.44076 0.58018
 C750 C 0.89095 0.41563 0.60935
 C751 C 0.89052 0.35429 0.63746
 C752 C 0.84602 0.36464 0.66899
 C753 C 0.82128 0.33937 0.69660
 C754 C 0.83438 0.30307 0.68989
 C755 C 0.88089 0.29291 0.65905
 C756 C 0.91027 0.31880 0.63335
 C757 C 0.84536 0.42480 0.64075
 C758 C 0.82418 0.39981 0.67090
 C759 C 0.98509 0.33654 0.57658
 C760 C 0.95777 0.31021 0.60291
 H761 H 0.82643 0.45159 0.64237
 H762 H 0.78900 0.40776 0.69483
 H763 H 1.02202 0.32891 0.55397
 H764 H 0.97413 0.28301 0.59958
 H765 H 1.02976 0.39249 0.53194
 H766 H 0.89163 0.46697 0.58209
 H767 H 0.78693 0.34832 0.72033
 H768 H 0.89330 0.26519 0.65440
 C769 C 0.90329 0.59474 0.14307
 C770 C 0.87482 0.56175 0.13953
 C771 C 0.89445 0.53737 0.10565
 C772 C 0.93892 0.54739 0.07385
 C773 C 0.96175 0.58227 0.07683
 C774 C 0.94766 0.60462 0.11228
 C775 C 0.88340 0.62076 0.17742
 C776 C 0.91217 0.65363 0.17976
 C777 C 0.88782 0.68028 0.20734
 C778 C 0.83158 0.67577 0.22946
 C779 C 0.80677 0.64131 0.23064
 C780 C 0.83248 0.61370 0.20420
 C781 C 0.97752 0.63695 0.11696
 C782 C 0.96085 0.66081 0.15081
 C783 C 0.82665 0.55459 0.16938
 C784 C 0.80516 0.58031 0.20056
 H785 H 1.01351 0.64410 0.09383
 H786 H 0.98371 0.68595 0.15252
 H787 H 0.80375 0.52950 0.16744
 H788 H 0.76581 0.57435 0.22116
 H789 H 0.87473 0.51137 0.10358
 H790 H 0.99468 0.59213 0.05314
 H791 H 0.90884 0.70598 0.20663
 H792 H 0.76378 0.63674 0.24720
 C793 C 0.63084 0.41202 0.63428
 C794 C 0.58647 0.43495 0.65335
 C795 C 0.56232 0.46304 0.62716
 C796 C 0.58111 0.46666 0.58196
 C797 C 0.63234 0.44678 0.56666
 C798 C 0.65519 0.41846 0.59156
 C799 C 0.64891 0.37924 0.65777
 C800 C 0.68722 0.35475 0.63563
 C801 C 0.70140 0.32288 0.65613
 C802 C 0.68532 0.31646 0.70135
 C803 C 0.64484 0.34076 0.72300
 C804 C 0.62553 0.37217 0.70072
 C805 C 0.69745 0.39444 0.57226
 C806 C 0.71231 0.36265 0.59360
 C807 C 0.56374 0.42734 0.69644
 C808 C 0.58363 0.39674 0.72001
 H809 H 0.71656 0.39936 0.53935
 H810 H 0.74354 0.34406 0.57703
 H811 H 0.52943 0.44476 0.71169
 H812 H 0.56488 0.39185 0.75302
 H813 H 0.52420 0.47891 0.63998
 H814 H 0.65028 0.45024 0.53312
 H815 H 0.73023 0.30450 0.63727
 H816 H 0.62853 0.33532 0.75653
 C817 C 0.07703 0.09195 0.35274
 C818 C 0.10810 0.05911 0.35804
 C819 C 0.08349 0.03327 0.38679
 C820 C 0.02992 0.04089 0.41212
 C821 C 0.00070 0.07458 0.40620
 C822 C 0.02241 0.09939 0.37572
 C823 C 0.10465 0.12021 0.32556
 C824 C 0.07449 0.15339 0.32172
 C825 C 0.10314 0.18098 0.29867
 C826 C 0.16291 0.17627 0.28074
 C827 C 0.19122 0.14231 0.28456
 C828 C 0.16254 0.11429 0.30650
 C829 C -0.00772 0.13245 0.36994
 C830 C 0.01750 0.15883 0.34297
 C831 C 0.16493 0.05370 0.33645
 C832 C 0.19190 0.08088 0.31152
 H833 H -0.05062 0.13824 0.38715
 H834 H -0.00669 0.18414 0.34013
 H835 H 0.18976 0.02867 0.34010
 H836 H 0.23669 0.07589 0.29671
 H837 H 0.10842 0.00842 0.39186
 H838 H -0.03712 0.08296 0.42733
 H839 H 0.07968 0.20654 0.29672
 H840 H 0.23713 0.13778 0.27342
 C841 C 0.42193 0.91026 0.84899
 C842 C 0.39028 0.94280 0.85534
 C843 C 0.41554 0.96870 0.88367
 C844 C 0.47006 0.96124 0.90793
 C845 C 0.50019 0.92802 0.90071
 C846 C 0.47796 0.90327 0.87036
 C847 C 0.39321 0.88162 0.82314
 C848 C 0.42388 0.84865 0.81870
 C849 C 0.39402 0.82049 0.79786
 C850 C 0.33254 0.82437 0.78315
 C851 C 0.30381 0.85821 0.78679
 C852 C 0.33371 0.88684 0.80649
 C853 C 0.50868 0.87051 0.86363
 C854 C 0.48247 0.84382 0.83766
 C855 C 0.33204 0.94769 0.83568
 C856 C 0.30400 0.92009 0.81208
 H857 H 0.55264 0.86512 0.87954
 H858 H 0.50700 0.81865 0.83420
 H859 H 0.30682 0.97252 0.84016
 H860 H 0.25804 0.92454 0.79905
 H861 H 0.39005 0.99324 0.88975
 H862 H 0.53883 0.91976 0.92112
 H863 H 0.41796 0.79509 0.79558
 H864 H 0.25685 0.86212 0.77752
 C865 C 0.16598 0.91005 0.61099
 C866 C 0.13311 0.93845 0.63044
 C867 C 0.10653 0.96434 0.60283
 C868 C 0.10655 0.96042 0.55559
 C869 C 0.14358 0.93302 0.53650
 C870 C 0.17384 0.90782 0.56428
 C871 C 0.18792 0.88063 0.63985
 C872 C 0.22129 0.85212 0.62100
 C873 C 0.24099 0.82394 0.64896
 C874 C 0.22391 0.82306 0.69493
 C875 C 0.18712 0.85120 0.71170
 C876 C 0.17174 0.88060 0.68534
 C877 C 0.20805 0.87899 0.54646
 C878 C 0.23239 0.85199 0.57441
 C879 C 0.12142 0.93856 0.67680
 C880 C 0.13934 0.90977 0.70364
 H881 H 0.21504 0.87691 0.51055
 H882 H 0.25803 0.83016 0.55919
 H883 H 0.09541 0.96024 0.69206
 H884 H 0.12726 0.91020 0.73893
 H885 H 0.07752 0.98410 0.61890
 H886 H 0.14479 0.92952 0.50040
 H887 H 0.26777 0.80224 0.63448
 H888 H 0.17042 0.85096 0.74546
 C889 C 0.63511 0.59274 0.37666
 C890 C 0.58112 0.57684 0.36232
 C891 C 0.55451 0.55146 0.38958
 C892 C 0.57738 0.54465 0.43309
 C893 C 0.63408 0.55908 0.44552
 C894 C 0.66342 0.58284 0.41712
 C895 C 0.66126 0.62114 0.34961
 C896 C 0.71559 0.63694 0.36374
 C897 C 0.73855 0.66519 0.33896
 C898 C 0.70639 0.67833 0.30112
 C899 C 0.65182 0.66206 0.28789
 C900 C 0.62985 0.63303 0.31125
 C901 C 0.71915 0.59805 0.42923
 C902 C 0.74500 0.62464 0.40292
 C903 C 0.55298 0.58795 0.32218
 C904 C 0.57635 0.61609 0.29745
 H905 H 0.74246 0.58949 0.45948
 H906 H 0.78746 0.63622 0.41391
 H907 H 0.51119 0.57581 0.31081
 H908 H 0.55213 0.62485 0.26753
 H909 H 0.51449 0.53817 0.37739
 H910 H 0.65451 0.55298 0.47782
 H911 H 0.78049 0.67734 0.34992
 H912 H 0.62534 0.67224 0.26013
 C913 C 0.32479 0.08550 0.10686
 C914 C 0.31768 0.08739 0.06007
 C915 C 0.34990 0.06283 0.03279
 C916 C 0.38863 0.03666 0.05245
 C917 C 0.38798 0.03263 0.09957
 C918 C 0.35906 0.05791 0.12681
 C919 C 0.30161 0.11487 0.13513
 C920 C 0.31823 0.11585 0.18050
 C921 C 0.30320 0.14582 0.20586
 C922 C 0.26575 0.17331 0.18840
 C923 C 0.24763 0.17127 0.14281
 C924 C 0.26777 0.14284 0.11562
 C925 C 0.37042 0.05841 0.17319
 C926 C 0.35148 0.08735 0.19946
 C927 C 0.28295 0.11564 0.04160
 C928 C 0.25746 0.14258 0.06904
 H929 H 0.39746 0.03734 0.18878
 H930 H 0.36380 0.08769 0.23471
 H931 H 0.27707 0.11747 0.00558
 H932 H 0.23224 0.16435 0.05347
 H933 H 0.34914 0.06617 -0.00332
 H934 H 0.41823 0.01360 0.11584
 H935 H 0.32123 0.14713 0.23919
 H936 H 0.22044 0.19251 0.12777
 C937 C 0.87120 0.40125 0.87367
 C938 C 0.83499 0.43055 0.88768
 C939 C 0.86237 0.45755 0.91385
 C940 C 0.92505 0.45438 0.92645
 C941 C 0.95740 0.42286 0.91427
 C942 C 0.93253 0.39765 0.88660
 C943 C 0.84434 0.37290 0.84636
 C944 C 0.88211 0.34448 0.83225
 C945 C 0.85753 0.31760 0.80677
 C946 C 0.79438 0.31717 0.79616
 C947 C 0.75638 0.34582 0.81125
 C948 C 0.78166 0.37424 0.83578
 C949 C 0.96863 0.36859 0.87214
 C950 C 0.94411 0.34275 0.84462
 C951 C 0.77242 0.43157 0.87554
 C952 C 0.74616 0.40380 0.85048
 H953 H 1.01640 0.36590 0.88196
 H954 H 0.97358 0.32081 0.83383
 H955 H 0.74330 0.45374 0.88597
 H956 H 0.69768 0.40554 0.84252
 H957 H 0.83517 0.48037 0.92477
 H958 H 1.00333 0.41713 0.92618
 H959 H 0.88897 0.29670 0.79608
 H960 H 0.70782 0.34603 0.80429
 C961 C 0.60064 0.10514 0.86883
 C962 C 0.53904 0.09636 0.86222
 C963 C 0.51426 0.06841 0.88751
 C964 C 0.55181 0.04889 0.91783
 C965 C 0.61489 0.05654 0.92023
 C966 C 0.63869 0.08525 0.89765
 C967 C 0.62571 0.13631 0.84618
 C968 C 0.68556 0.14642 0.85630
 C969 C 0.70911 0.17612 0.83570
 C970 C 0.67688 0.19364 0.80092
 C971 C 0.61545 0.18427 0.79230
 C972 C 0.58938 0.15564 0.81546
 C973 C 0.69922 0.09548 0.90548
 C974 C 0.72184 0.12606 0.88591
 C975 C 0.50347 0.11661 0.83169
 C976 C 0.52849 0.14533 0.80817
 H977 H 0.72880 0.08031 0.92795
 H978 H 0.76842 0.13351 0.89346
 H979 H 0.45596 0.11019 0.82584
 H980 H 0.49965 0.15985 0.78458
 H981 H 0.46585 0.06287 0.88492
 H982 H 0.64543 0.04166 0.94227
 H983 H 0.75436 0.18428 0.84553
 H984 H 0.58917 0.19809 0.76659
 C985 C 0.44286 0.60431 0.64908
 C986 C 0.42190 0.56987 0.65678
 C987 C 0.44548 0.54148 0.63092
 C988 C 0.49087 0.54725 0.59839
 C989 C 0.51797 0.58116 0.59676
 C990 C 0.49155 0.61014 0.61982
 C991 C 0.41058 0.63502 0.66988
 C992 C 0.42659 0.66978 0.65859
 C993 C 0.39158 0.69885 0.67599
 C994 C 0.34244 0.69304 0.70584
 C995 C 0.33181 0.65776 0.71883
 C996 C 0.36310 0.62891 0.69988
 C997 C 0.50931 0.64515 0.61130
 C998 C 0.47685 0.67444 0.62982
 C999 C 0.37464 0.56499 0.68793
 C1000 C 0.34673 0.59400 0.70994
 H1001 H 0.54694 0.65000 0.58856
 H1002 H 0.49078 0.70090 0.62113
 H1003 H 0.35842 0.53864 0.69477
 H1004 H 0.31032 0.58915 0.73370
 H1005 H 0.42491 0.51582 0.63363
 H1006 H 0.55410 0.58629 0.57285
 H1007 H 0.40282 0.72562 0.66665
 H1008 H 0.29966 0.65205 0.74446
 C1009 C 0.06776 0.39901 0.13407
 C1010 C 0.09951 0.43095 0.13489
 C1011 C 0.07906 0.45942 0.10819
 C1012 C 0.02422 0.45768 0.08328
 C1013 C -0.01034 0.42619 0.08688
 C1014 C 0.01299 0.39626 0.11014
 C1015 C 0.09462 0.36730 0.15648
 C1016 C 0.06787 0.33397 0.15123
 C1017 C 0.09774 0.30331 0.16968
 C1018 C 0.15227 0.30652 0.19507
 C1019 C 0.17320 0.34135 0.20302
 C1020 C 0.14773 0.37092 0.18183
 C1021 C -0.01496 0.36298 0.10759
 C1022 C 0.01251 0.33234 0.12703
 C1023 C 0.15339 0.43315 0.16038
 C1024 C 0.17617 0.40389 0.18447
 H1025 H -0.05730 0.36030 0.08896
 H1026 H -0.00966 0.30718 0.12288
 H1027 H 0.17823 0.45764 0.16162
 H1028 H 0.21794 0.40669 0.20379
 H1029 H 0.10917 0.48137 0.10413
 H1030 H -0.05201 0.42338 0.06754
 H1031 H 0.07877 0.27738 0.16438
 H1032 H 0.21196 0.34612 0.22439
 C1033 C 0.89427 0.89502 0.37371
 C1034 C 0.85564 0.91853 0.39747
 C1035 C 0.88073 0.94787 0.41852
 C1036 C 0.94486 0.95311 0.41872
 C1037 C 0.98275 0.93004 0.39285
 C1038 C 0.95747 0.90099 0.37004
 C1039 C 0.86818 0.86290 0.35364
 C1040 C 0.90625 0.83943 0.32920
 C1041 C 0.88032 0.80972 0.30857
 C1042 C 0.81652 0.80379 0.31199
 C1043 C 0.78092 0.82582 0.34052
 C1044 C 0.80574 0.85609 0.35984
 C1045 C 0.99426 0.87676 0.34540
 C1046 C 0.96900 0.84674 0.32497
 C1047 C 0.79308 0.91118 0.40216
 C1048 C 0.76874 0.88022 0.38421
 H1049 H 1.04304 0.88093 0.34205
 H1050 H 0.99899 0.82896 0.30602
 H1051 H 0.76291 0.92912 0.42074
 H1052 H 0.72044 0.87532 0.38909
 H1053 H 0.85027 0.96496 0.43802
 H1054 H 1.03199 0.93334 0.39269
 H1055 H 0.90915 0.79257 0.28788
 H1056 H 0.73307 0.82046 0.34624
 C1057 C 0.87665 0.61462 0.60566
 C1058 C 0.85394 0.60875 0.56222
 C1059 C 0.88786 0.58607 0.53253
 C1060 C 0.94202 0.56821 0.54774
 C1061 C 0.95965 0.57348 0.59289
 C1062 C 0.93067 0.59791 0.62036
 C1063 C 0.84308 0.63812 0.63706
 C1064 C 0.87010 0.64597 0.67832
 C1065 C 0.84229 0.67085 0.70598
 C1066 C 0.78303 0.68497 0.69722
 C1067 C 0.75492 0.67585 0.65586
 C1068 C 0.78622 0.65332 0.62483
 C1069 C 0.95493 0.60524 0.66285
 C1070 C 0.92596 0.62982 0.69093
 C1071 C 0.79755 0.62530 0.55038
 C1072 C 0.76375 0.64659 0.58132
 H1073 H 0.99740 0.59255 0.67400
 H1074 H 0.94675 0.63570 0.72308
 H1075 H 0.77915 0.62171 0.51710
 H1076 H 0.72036 0.65844 0.57075
 H1077 H 0.87084 0.58110 0.49899
 H1078 H 0.99535 0.55771 0.60855
 H1079 H 0.86993 0.68045 0.73312
 H1080 H 0.71133 0.68812 0.64654
 C1081 C 0.62331 0.37952 0.09654
 C1082 C 0.56188 0.37599 0.08368
 C1083 C 0.53770 0.39758 0.04991
 C1084 C 0.57165 0.42562 0.03252
 C1085 C 0.63502 0.42693 0.04310
 C1086 C 0.66120 0.40358 0.07497
 C1087 C 0.64757 0.35847 0.13438
 C1088 C 0.71000 0.35993 0.14588
 C1089 C 0.73318 0.33768 0.18033
 C1090 C 0.69313 0.31589 0.20450
 C1091 C 0.62950 0.31839 0.19513
 C1092 C 0.60734 0.33756 0.15867
 C1093 C 0.72336 0.40501 0.08768
 C1094 C 0.74764 0.38299 0.12189
 C1095 C 0.52415 0.35290 0.10719
 C1096 C 0.54599 0.33484 0.14502
 H1097 H 0.75343 0.42330 0.07115
 H1098 H 0.79589 0.38458 0.13020
 H1099 H 0.47668 0.34992 0.09743
 H1100 H 0.51488 0.31816 0.16326
 H1101 H 0.49023 0.39456 0.04071
 H1102 H 0.66301 0.44751 0.02919
 H1103 H 0.78195 0.33657 0.18730
 H1104 H 0.59669 0.30345 0.21409
 C1105 C 0.35677 0.89736 0.38793
 C1106 C 0.35496 0.89294 0.43480
 C1107 C 0.38076 0.91875 0.46253
 C1108 C 0.40747 0.94861 0.44313
 C1109 C 0.40200 0.95413 0.39634
 C1110 C 0.37964 0.92801 0.36860
 C1111 C 0.33674 0.86882 0.35838
 C1112 C 0.34385 0.87214 0.31177
 C1113 C 0.32755 0.84429 0.28390
 C1114 C 0.30009 0.81412 0.30155
 C1115 C 0.29220 0.81172 0.34873
 C1116 C 0.31190 0.83852 0.37726
 C1117 C 0.38359 0.93117 0.32175
 C1118 C 0.36676 0.90339 0.29372
 C1119 C 0.33021 0.86200 0.45259
 C1120 C 0.30801 0.83546 0.42423
 H1121 H 0.40175 0.95482 0.30670
 H1122 H 0.37180 0.90634 0.25772
 H1123 H 0.32845 0.85817 0.48859
 H1124 H 0.28906 0.81199 0.43918
 H1125 H 0.38357 0.91453 0.49844
 H1126 H 0.42013 0.97728 0.38025
 H1127 H 0.33269 0.84768 0.24840
 H1128 H 0.27155 0.78879 0.36372
 C1129 C 0.13801 0.10256 0.89715
 C1130 C 0.11259 0.07224 0.87880
 C1131 C 0.08773 0.04752 0.90733
 C1132 C 0.08305 0.05379 0.95419
 C1133 C 0.11028 0.08402 0.97242
 C1134 C 0.13834 0.10847 0.94380
 C1135 C 0.16291 0.12911 0.86666
 C1136 C 0.19074 0.15889 0.88461
 C1137 C 0.21483 0.18383 0.85526
 C1138 C 0.20690 0.18077 0.80804
 C1139 C 0.17703 0.15099 0.79129
 C1140 C 0.15709 0.12458 0.82008
 C1141 C 0.16497 0.13928 0.96048
 C1142 C 0.19214 0.16367 0.93147
 C1143 C 0.10968 0.06778 0.83202
 C1144 C 0.13067 0.09388 0.80305
 H1145 H 0.16458 0.14458 0.99616
 H1146 H 0.21279 0.18694 0.94576
 H1147 H 0.08940 0.04440 0.81768
 H1148 H 0.12622 0.09000 0.76714
 H1149 H 0.06850 0.02448 0.89164
 H1150 H 0.10750 0.08917 1.00817
 H1151 H 0.23763 0.20629 0.86976
 H1152 H 0.17023 0.14744 0.75589
 C1153 C 0.09452 0.89681 0.14070
 C1154 C 0.11820 0.93109 0.14218
 C1155 C 0.09755 0.95647 0.11058
 C1156 C 0.05481 0.94712 0.07726
 C1157 C 0.03286 0.91228 0.07675
 C1158 C 0.05127 0.88748 0.10844
 C1159 C 0.11783 0.86945 0.17175
 C1160 C 0.09624 0.83487 0.16816
 C1161 C 0.12449 0.80790 0.19301
 C1162 C 0.17562 0.81477 0.22052
 C1163 C 0.19112 0.85036 0.22798
 C1164 C 0.16402 0.87772 0.20240
 C1165 C 0.02800 0.85317 0.10753
 C1166 C 0.05012 0.82722 0.13706
 C1167 C 0.16262 0.93888 0.17475
 C1168 C 0.18515 0.91262 0.20440
 H1169 H -0.00640 0.84609 0.08303
 H1170 H 0.03273 0.80066 0.13434
 H1171 H 0.18122 0.96518 0.17662
 H1172 H 0.22092 0.91938 0.22795
 H1173 H 0.11504 0.98307 0.11169
 H1174 H 0.00154 0.90373 0.05118
 H1175 H 0.10971 0.78107 0.18743
 H1176 H 0.22658 0.85693 0.25095
 C1177 C 0.87417 0.40119 0.38303
 C1178 C 0.91818 0.42292 0.36391
 C1179 C 0.94519 0.44924 0.39067
 C1180 C 0.92918 0.45349 0.43667
 C1181 C 0.88201 0.43268 0.45408
 C1182 C 0.85543 0.40613 0.42784
 C1183 C 0.84886 0.37176 0.35622
 C1184 C 0.80715 0.34929 0.37638
 C1185 C 0.78440 0.32096 0.35183
 C1186 C 0.80045 0.31487 0.30610
 C1187 C 0.84300 0.33784 0.28629
 C1188 C 0.86775 0.36618 0.31150
 C1189 C 0.81226 0.38336 0.44624
 C1190 C 0.78865 0.35542 0.42102
 C1191 C 0.93613 0.41675 0.31903
 C1192 C 0.91122 0.38909 0.29331
 H1193 H 0.79753 0.38670 0.48074
 H1194 H 0.75594 0.33824 0.43678
 H1195 H 0.97032 0.43322 0.30375
 H1196 H 0.92673 0.38537 0.25903
 H1197 H 0.98111 0.46491 0.37624
 H1198 H 0.86812 0.43574 0.48878
 H1199 H 0.75202 0.30432 0.36871
 H1200 H 0.85683 0.33368 0.25173
 C1201 C 0.40125 0.10120 0.63193
 C1202 C 0.37763 0.06693 0.63162
 C1203 C 0.39858 0.04253 0.59897
 C1204 C 0.44186 0.05274 0.56654
 C1205 C 0.46434 0.08738 0.56795
 C1206 C 0.44509 0.11138 0.60051
 C1207 C 0.37743 0.12762 0.66411
 C1208 C 0.39880 0.16226 0.66222
 C1209 C 0.37061 0.18837 0.68847
 C1210 C 0.32009 0.18064 0.71624
 C1211 C 0.30416 0.14491 0.72136
 C1212 C 0.33119 0.11842 0.69422
 C1213 C 0.46795 0.14576 0.60129
 C1214 C 0.44509 0.17088 0.63175
 C1215 C 0.33293 0.05816 0.66347
 C1216 C 0.31016 0.08348 0.69435
 H1217 H 0.50260 0.15355 0.57741
 H1218 H 0.46224 0.19755 0.63040
 H1219 H 0.31440 0.03180 0.66387
 H1220 H 0.27432 0.07600 0.71741
 H1221 H 0.38083 0.01598 0.59864
 H1222 H 0.49618 0.09640 0.54304
 H1223 H 0.38581 0.21522 0.68421
 H1224 H 0.26854 0.13769 0.74381
 C1225 C 0.61233 0.59983 0.87277
 C1226 C 0.56485 0.57906 0.85657
 C1227 C 0.54255 0.55175 0.88416
 C1228 C 0.56955 0.54452 0.92684
 C1229 C 0.62236 0.56282 0.93870
 C1230 C 0.64105 0.59192 0.91385
 C1231 C 0.63120 0.63120 0.84713
 C1232 C 0.67281 0.65405 0.86669
 C1233 C 0.68868 0.68449 0.84390
 C1234 C 0.67192 0.69025 0.79831
 C1235 C 0.62909 0.66706 0.77894
 C1236 C 0.60672 0.63811 0.80423
 C1237 C 0.68564 0.61447 0.93080
 C1238 C 0.69996 0.64559 0.90822
 C1239 C 0.53938 0.58723 0.81414
 C1240 C 0.56099 0.61563 0.78799
 H1241 H 0.70774 0.60881 0.96268
 H1242 H 0.73340 0.66289 0.92303
 H1243 H 0.50266 0.57145 0.80091
 H1244 H 0.54072 0.62047 0.75529
 H1245 H 0.50276 0.53744 0.87326
 H1246 H 0.64725 0.55590 0.96854
 H1247 H 0.71992 0.70173 0.86106
 H1248 H 0.61375 0.67132 0.74474
 C1249 C 0.39913 0.37886 0.89201
 C1250 C 0.37165 0.41270 0.89396
 C1251 C 0.39163 0.43654 0.92593
 C1252 C 0.44404 0.42880 0.95243
 C1253 C 0.47302 0.39509 0.94836
 C1254 C 0.44829 0.36926 0.92012
 C1255 C 0.37634 0.35322 0.85942
 C1256 C 0.39811 0.31798 0.86068
 C1257 C 0.37004 0.29281 0.83311
 C1258 C 0.32322 0.30356 0.80292
 C1259 C 0.30952 0.33999 0.79797
 C1260 C 0.33224 0.36440 0.82807
 C1261 C 0.47213 0.33431 0.91859
 C1262 C 0.44613 0.30876 0.89032
 C1263 C 0.32631 0.42270 0.86274
 C1264 C 0.30833 0.39922 0.82927
 H1265 H 0.50995 0.32641 0.94026
 H1266 H 0.46414 0.28178 0.89131
 H1267 H 0.30544 0.44903 0.86366
 H1268 H 0.27342 0.40783 0.80549
 H1269 H 0.36870 0.46230 0.92740
 H1270 H 0.51556 0.38906 0.96542
 H1271 H 0.38352 0.26511 0.83603
 H1272 H 0.27558 0.34933 0.77419
 C1273 C 0.91408 0.13049 0.10225
 C1274 C 0.88288 0.11928 0.06379
 C1275 C 0.91082 0.09438 0.03523
 C1276 C 0.96932 0.07929 0.04489
 C1277 C 1.00169 0.09251 0.08246
 C1278 C 0.97396 0.11805 0.11141
 C1279 C 0.88177 0.15401 0.13482
 C1280 C 0.91172 0.16488 0.17409
 C1281 C 0.87946 0.18661 0.20548
 C1282 C 0.81664 0.19570 0.19868
 C1283 C 0.78882 0.18479 0.15817
 C1284 C 0.82063 0.16420 0.12657
 C1285 C 1.00310 0.12992 0.15074
 C1286 C 0.97277 0.15308 0.18129
 C1287 C 0.82231 0.13120 0.05608
 C1288 C 0.79162 0.15316 0.08704
 H1289 H 1.04941 0.12076 0.15841
 H1290 H 0.99686 0.16111 0.21132
 H1291 H 0.79777 0.12265 0.02648
 H1292 H 0.74437 0.16106 0.08033
 H1293 H 0.88376 0.08431 0.00778
 H1294 H 1.04617 0.08107 0.09116
 H1295 H 0.90241 0.19537 0.23566
 H1296 H 0.74153 0.19200 0.15080
 C1297 C 0.57294 0.87055 0.58977
 C1298 C 0.60476 0.88030 0.55098
 C1299 C 0.57783 0.90470 0.52141
 C1300 C 0.52015 0.92092 0.53078
 C1301 C 0.48673 0.90875 0.56830
 C1302 C 0.51329 0.88371 0.59814
 C1303 C 0.60442 0.84802 0.62359
 C1304 C 0.57375 0.83868 0.66315
 C1305 C 0.60506 0.81777 0.69562
 C1306 C 0.66755 0.80785 0.68948
 C1307 C 0.69646 0.81752 0.64896
 C1308 C 0.66550 0.83725 0.61622
 C1309 C 0.48337 0.87331 0.63774
 C1310 C 0.51286 0.85100 0.66947
 C1311 C 0.66513 0.86770 0.54412
 C1312 C 0.69512 0.84668 0.57632
 H1313 H 0.43719 0.88307 0.64472
 H1314 H 0.48831 0.84408 0.69971
 H1315 H 0.69011 0.87510 0.51426
 H1316 H 0.74228 0.83824 0.57028
 H1317 H 0.60538 0.91388 0.49376
 H1318 H 0.44267 0.92095 0.57657
 H1319 H 0.58137 0.80992 0.72585
 H1320 H 0.74366 0.80964 0.64229
 C1321 C 0.11083 0.62289 0.40116
 C1322 C 0.04694 0.61879 0.40009
 C1323 C 0.02071 0.59266 0.42692
 C1324 C 0.05845 0.57057 0.45387
 C1325 C 0.12225 0.57605 0.45516
 C1326 C 0.14852 0.60204 0.42916
 C1327 C 0.13925 0.64865 0.37138
 C1328 C 0.20317 0.65201 0.37207
 C1329 C 0.23036 0.67518 0.34235
 C1330 C 0.19496 0.69376 0.31027
 C1331 C 0.13025 0.69237 0.31262
 C1332 C 0.10224 0.66906 0.34234
 C1333 C 0.21215 0.60680 0.42984
 C1334 C 0.23907 0.63161 0.40185
 C1335 C 0.01106 0.64023 0.37127
 C1336 C 0.03829 0.66501 0.34285
 H1337 H 0.24144 0.59088 0.45168
 H1338 H 0.28841 0.63432 0.40285
 H1339 H -0.03828 0.63747 0.37016
 H1340 H 0.00919 0.68065 0.32058
 H1341 H -0.02837 0.58885 0.42570
 H1342 H 0.15221 0.55981 0.47611
 H1343 H 0.27923 0.67859 0.34462
 H1344 H 0.10184 0.70806 0.28995
   
