data_POSCAR
  _audit_creation_date              2014-09-24
  _audit_creation_method            'ToBaCCo'
  _symmetry_space_group_name_H-M    'P1'
  _symmetry_Int_Tables_number       1
  _symmetry_cell_setting            triclinic
  loop_
  _symmetry_equiv_pos_as_xyz
 x,y,z
_cell_length_a 74.8685
_cell_length_b 74.9414
_cell_length_c 75.1945
_cell_angle_alpha 89.995900
_cell_angle_beta 90.003500
_cell_angle_gamma 90.010800
loop_
  _atom_site_label
  _atom_site_type_symbol
  _atom_site_fract_x
  _atom_site_fract_y
  _atom_site_fract_z
N1 N 0.17843 0.22167 0.22478
 N2 N 0.18306 0.20733 0.23376
 C3 C 0.17165 0.20509 0.24744
 C4 C 0.15932 0.21873 0.24688
 C5 C 0.16392 0.22903 0.23241
 H6 H 0.17222 0.19440 0.25707
 H7 H 0.15722 0.24095 0.22779
 Cu8 Cu 0.20355 0.19302 0.22669
 Cu9 Cu 0.19150 0.22973 0.20389
 Cu10 Cu 0.22850 0.20489 0.19141
 N11 N 0.22458 0.17946 0.21975
 N12 N 0.23428 0.18418 0.20593
 C13 C 0.24793 0.17263 0.20406
 C14 C 0.24665 0.16011 0.21741
 C15 C 0.23176 0.16474 0.22715
 H16 H 0.25802 0.17328 0.19379
 H17 H 0.22660 0.15788 0.23872
 N18 N 0.22053 0.22627 0.17839
 N19 N 0.20642 0.23574 0.18315
 C20 C 0.20441 0.24941 0.17168
 C21 C 0.21785 0.24840 0.15923
 C22 C 0.22785 0.23367 0.16377
 H23 H 0.19395 0.25934 0.17227
 H24 H 0.23953 0.22874 0.15691
 H25 H 0.20139 0.20504 0.19661
 H26 H 0.21579 0.21897 0.21139
 N27 N 0.67843 0.72182 0.72505
 N28 N 0.68307 0.70747 0.73401
 C29 C 0.67166 0.70520 0.74769
 C30 C 0.65933 0.71884 0.74715
 C31 C 0.66392 0.72916 0.73270
 H32 H 0.67223 0.69449 0.75731
 H33 H 0.65721 0.74108 0.72810
 Cu34 Cu 0.70357 0.69317 0.72692
 Cu35 Cu 0.69151 0.72991 0.70418
 Cu36 Cu 0.72853 0.70513 0.69168
 N37 N 0.72461 0.67964 0.71997
 N38 N 0.73432 0.68440 0.70617
 C39 C 0.74798 0.67286 0.70428
 C40 C 0.74669 0.66031 0.71760
 C41 C 0.73180 0.66490 0.72734
 H42 H 0.75807 0.67354 0.69402
 H43 H 0.72664 0.65802 0.73889
 N44 N 0.72054 0.72652 0.67869
 N45 N 0.70643 0.73596 0.68345
 C46 C 0.70439 0.74964 0.67200
 C47 C 0.71784 0.74867 0.65955
 C48 C 0.72785 0.73395 0.66408
 H49 H 0.69392 0.75956 0.67260
 H50 H 0.73954 0.72903 0.65721
 H51 H 0.70142 0.70525 0.69686
 H52 H 0.71581 0.71916 0.71168
 N53 N 0.32068 0.77828 0.72543
 N54 N 0.31582 0.79244 0.73457
 C55 C 0.32723 0.79472 0.74826
 C56 C 0.33977 0.78128 0.74753
 C57 C 0.33532 0.77107 0.73296
 H58 H 0.32652 0.80531 0.75800
 H59 H 0.34221 0.75932 0.72820
 Cu60 Cu 0.29509 0.80646 0.72763
 Cu61 Cu 0.30773 0.77026 0.70444
 Cu62 Cu 0.27073 0.79508 0.69184
 N63 N 0.27431 0.82028 0.72045
 N64 N 0.26483 0.81574 0.70641
 C65 C 0.25130 0.82740 0.70437
 C66 C 0.25245 0.83980 0.71784
 C67 C 0.26712 0.83501 0.72784
 H68 H 0.24140 0.82689 0.69390
 H69 H 0.27212 0.84174 0.73954
 N70 N 0.27882 0.77375 0.67880
 N71 N 0.29291 0.76429 0.68361
 C72 C 0.29500 0.75064 0.67213
 C73 C 0.28161 0.75165 0.65962
 C74 C 0.27158 0.76636 0.66414
 H75 H 0.30545 0.74071 0.67277
 H76 H 0.25991 0.77128 0.65723
 H77 H 0.29776 0.79500 0.69740
 H78 H 0.28324 0.78071 0.71170
 N79 N 0.82120 0.27762 0.22571
 N80 N 0.81611 0.29155 0.23508
 C81 C 0.82750 0.29384 0.24878
 C82 C 0.84027 0.28062 0.24781
 C83 C 0.83598 0.27054 0.23310
 H84 H 0.82662 0.30428 0.25867
 H85 H 0.84305 0.25898 0.22815
 Cu86 Cu 0.79512 0.30534 0.22845
 Cu87 Cu 0.80834 0.26971 0.20463
 Cu88 Cu 0.77129 0.29445 0.19211
 N89 N 0.77453 0.31932 0.22102
 N90 N 0.76526 0.31497 0.20680
 C91 C 0.75183 0.32673 0.20466
 C92 C 0.75282 0.33901 0.21825
 C93 C 0.76730 0.33402 0.22841
 H94 H 0.74210 0.32639 0.19404
 H95 H 0.77216 0.34063 0.24025
 N96 N 0.77949 0.27325 0.17895
 N97 N 0.79361 0.26382 0.18372
 C98 C 0.79576 0.25024 0.17217
 C99 C 0.78237 0.25126 0.15966
 C100 C 0.77228 0.26591 0.16425
 H101 H 0.80623 0.24032 0.17278
 H102 H 0.76058 0.27081 0.15737
 H103 H 0.79827 0.29453 0.19803
 H104 H 0.78371 0.27980 0.21184
 N105 N 0.82086 0.72228 0.27441
 N106 N 0.81580 0.70832 0.26507
 C107 C 0.82722 0.70603 0.25139
 C108 C 0.83997 0.71926 0.25232
 C109 C 0.83563 0.72935 0.26700
 H110 H 0.82637 0.69557 0.24153
 H111 H 0.84270 0.74093 0.27193
 Cu112 Cu 0.79484 0.69450 0.27172
 Cu113 Cu 0.80798 0.73022 0.29546
 Cu114 Cu 0.77098 0.70542 0.30804
 N115 N 0.77428 0.68050 0.27919
 N116 N 0.76501 0.68485 0.29340
 C117 C 0.75161 0.67305 0.29557
 C118 C 0.75262 0.66074 0.28201
 C119 C 0.76708 0.66575 0.27183
 H120 H 0.74188 0.67339 0.30620
 H121 H 0.77195 0.65914 0.26000
 N122 N 0.77914 0.72668 0.32114
 N123 N 0.79324 0.73614 0.31635
 C124 C 0.79537 0.74975 0.32787
 C125 C 0.78200 0.74871 0.34040
 C126 C 0.77194 0.73403 0.33585
 H127 H 0.80581 0.75969 0.32722
 H128 H 0.76025 0.72912 0.34274
 H129 H 0.79796 0.70539 0.30212
 H130 H 0.78336 0.72005 0.28827
 N131 N 0.32181 0.22176 -0.22537
 N132 N 0.31718 0.20739 -0.23432
 C133 C 0.32861 0.20511 -0.24799
 C134 C 0.34093 0.21877 -0.24743
 C135 C 0.33633 0.22911 -0.23300
 H136 H 0.32805 0.19438 -0.25760
 H137 H 0.34303 0.24104 -0.22839
 Cu138 Cu 0.29668 0.19309 -0.22724
 Cu139 Cu 0.30872 0.22984 -0.20451
 Cu140 Cu 0.27171 0.20503 -0.19199
 N141 N 0.27564 0.17955 -0.22028
 N142 N 0.26593 0.18429 -0.20648
 C143 C 0.25227 0.17276 -0.20460
 C144 C 0.25355 0.16021 -0.21792
 C145 C 0.26845 0.16482 -0.22766
 H146 H 0.24218 0.17343 -0.19433
 H147 H 0.27360 0.15794 -0.23922
 N148 N 0.27970 0.22643 -0.17901
 N149 N 0.29380 0.23589 -0.18379
 C150 C 0.29582 0.24958 -0.17234
 C151 C 0.28238 0.24859 -0.15988
 C152 C 0.27238 0.23385 -0.16440
 H153 H 0.30628 0.25951 -0.17295
 H154 H 0.26070 0.22893 -0.15753
 H155 H 0.29882 0.20516 -0.19717
 H156 H 0.28442 0.21905 -0.21199
 N157 N 0.67868 0.27750 -0.22586
 N158 N 0.68375 0.29144 -0.23524
 C159 C 0.67233 0.29373 -0.24891
 C160 C 0.65956 0.28052 -0.24792
 C161 C 0.66388 0.27043 -0.23322
 H162 H 0.67319 0.30418 -0.25879
 H163 H 0.65682 0.25886 -0.22826
 Cu164 Cu 0.70474 0.30524 -0.22863
 Cu165 Cu 0.69159 0.26959 -0.20481
 Cu166 Cu 0.72865 0.29436 -0.19234
 N167 N 0.72535 0.31923 -0.22124
 N168 N 0.73464 0.31489 -0.20703
 C169 C 0.74805 0.32667 -0.20491
 C170 C 0.74703 0.33896 -0.21849
 C171 C 0.73255 0.33395 -0.22864
 H172 H 0.75780 0.32634 -0.19429
 H173 H 0.72767 0.34055 -0.24047
 N174 N 0.72048 0.27314 -0.17918
 N175 N 0.70636 0.26369 -0.18393
 C176 C 0.70423 0.25011 -0.17237
 C177 C 0.71763 0.25115 -0.15987
 C178 C 0.72771 0.26581 -0.16448
 H179 H 0.69376 0.24019 -0.17297
 H180 H 0.73941 0.27072 -0.15761
 H181 H 0.70167 0.29441 -0.19820
 H182 H 0.71622 0.27971 -0.21205
 N183 N 0.17957 0.77807 0.27431
 N184 N 0.18463 0.79202 0.26496
 C185 C 0.17322 0.79431 0.25129
 C186 C 0.16045 0.78110 0.25222
 C187 C 0.16479 0.77100 0.26691
 H188 H 0.17407 0.80477 0.24141
 H189 H 0.15772 0.75943 0.27184
 Cu190 Cu 0.20561 0.80583 0.27160
 Cu191 Cu 0.19245 0.77013 0.29536
 Cu192 Cu 0.22947 0.79492 0.30792
 N193 N 0.22620 0.81982 0.27903
 N194 N 0.23547 0.81547 0.29326
 C195 C 0.24889 0.82724 0.29541
 C196 C 0.24787 0.83953 0.28183
 C197 C 0.23340 0.83455 0.27164
 H198 H 0.25863 0.82689 0.30604
 H199 H 0.22853 0.84115 0.25981
 N200 N 0.22129 0.77367 0.32104
 N201 N 0.20719 0.76423 0.31625
 C202 C 0.20506 0.75062 0.32779
 C203 C 0.21843 0.75166 0.34032
 C204 C 0.22850 0.76633 0.33575
 H205 H 0.19459 0.74070 0.32716
 H206 H 0.24018 0.77124 0.34264
 H207 H 0.20249 0.79495 0.30200
 H208 H 0.21707 0.78027 0.28816
 N209 N 0.47224 0.42906 0.47589
 N210 N 0.45832 0.43417 0.48529
 C211 C 0.45604 0.42279 0.49898
 C212 C 0.46922 0.41000 0.49801
 C213 C 0.47929 0.41428 0.48328
 H214 H 0.44561 0.42369 0.50889
 H215 H 0.49083 0.40718 0.47832
 Cu216 Cu 0.44454 0.45516 0.47868
 Cu217 Cu 0.48016 0.44189 0.45481
 Cu218 Cu 0.45542 0.47892 0.44229
 N219 N 0.43056 0.47573 0.47123
 N220 N 0.43489 0.48496 0.45698
 C221 C 0.42312 0.49838 0.45484
 C222 C 0.41084 0.49742 0.46846
 C223 C 0.41585 0.48297 0.47863
 H224 H 0.42345 0.50809 0.44421
 H225 H 0.40926 0.47814 0.49049
 N226 N 0.47663 0.47071 0.42913
 N227 N 0.48606 0.45660 0.43390
 C228 C 0.49966 0.45445 0.42235
 C229 C 0.49864 0.46782 0.40983
 C230 C 0.48398 0.47791 0.41442
 H231 H 0.50958 0.44398 0.42297
 H232 H 0.47909 0.48960 0.40755
 H233 H 0.47010 0.46652 0.46203
 H234 H 0.45532 0.45197 0.44825
 N235 N -0.02755 -0.07080 0.97535
 N236 N -0.04149 -0.06570 0.98472
 C237 C -0.04378 -0.07709 0.99841
 C238 C -0.03058 -0.08986 0.99746
 C239 C -0.02050 -0.08557 0.98275
 H240 H -0.05422 -0.07620 1.00830
 H241 H -0.00893 -0.09265 0.97781
 Cu242 Cu -0.05528 -0.04473 0.97808
 Cu243 Cu -0.01961 -0.05796 0.95428
 Cu244 Cu -0.04436 -0.02094 0.94173
 N245 N -0.06927 -0.02416 0.97063
 N246 N -0.06492 -0.01491 0.95640
 C247 C -0.07669 -0.00151 0.95425
 C248 C -0.08899 -0.00248 0.96784
 C249 C -0.08399 -0.01694 0.97802
 H250 H -0.07636 0.00821 0.94362
 H251 H -0.09060 -0.02178 0.98986
 N252 N -0.02313 -0.02914 0.92859
 N253 N -0.01369 -0.04324 0.93338
 C254 C -0.00009 -0.04540 0.92184
 C255 C -0.00110 -0.03203 0.90932
 C256 C -0.01577 -0.02195 0.91389
 H257 H 0.00983 -0.05586 0.92246
 H258 H -0.02066 -0.01026 0.90700
 H259 H -0.02970 -0.03334 0.96148
 H260 H -0.04445 -0.04789 0.94767
 N261 N 1.02828 0.57149 0.97501
 N262 N 1.04266 0.56684 0.98395
 C263 C 1.04496 0.57826 0.99761
 C264 C 1.03133 0.59060 0.99708
 C265 C 1.02097 0.58601 0.98265
 H266 H 1.05570 0.57768 1.00721
 H267 H 1.00904 0.59272 0.97807
 Cu268 Cu 1.05692 0.54633 0.97687
 Cu269 Cu 1.02013 0.55842 0.95417
 Cu270 Cu 1.04485 0.52137 0.94167
 N271 N 1.07040 0.52526 0.96992
 N272 N 1.06561 0.51556 0.95614
 C273 C 1.07711 0.50188 0.95427
 C274 C 1.08969 0.50315 0.96758
 C275 C 1.08514 0.51805 0.97730
 H276 H 1.07639 0.49178 0.94402
 H277 H 1.09205 0.52320 0.98884
 N278 N 1.02344 0.52938 0.92871
 N279 N 1.01401 0.54350 0.93347
 C280 C 1.00031 0.54555 0.92203
 C281 C 1.00124 0.53210 0.90959
 C282 C 1.01597 0.52208 0.91411
 H283 H 0.99040 0.55602 0.92263
 H284 H 1.02086 0.51038 0.90724
 H285 H 1.03087 0.53412 0.96168
 H286 H 1.04479 0.54845 0.94682
 N287 N 0.52760 0.07101 0.47584
 N288 N 0.54157 0.06594 0.48519
 C289 C 0.54387 0.07734 0.49886
 C290 C 0.53065 0.09010 0.49793
 C291 C 0.52054 0.08578 0.48324
 H292 H 0.55433 0.07648 0.50874
 H293 H 0.50896 0.09284 0.47832
 Cu294 Cu 0.55536 0.04497 0.47855
 Cu295 Cu 0.51964 0.05814 0.45479
 Cu296 Cu 0.54441 0.02115 0.44223
 N297 N 0.56935 0.02441 0.47110
 N298 N 0.56499 0.01516 0.45688
 C299 C 0.57676 0.00175 0.45473
 C300 C 0.58908 0.00274 0.46830
 C301 C 0.58409 0.01720 0.47847
 H302 H 0.57641 -0.00798 0.44411
 H303 H 0.59071 0.02206 0.49030
 N304 N 0.52315 0.02931 0.42912
 N305 N 0.51370 0.04341 0.43391
 C306 C 0.50007 0.04553 0.42239
 C307 C 0.50109 0.03216 0.40988
 C308 C 0.51577 0.02210 0.41444
 H309 H 0.49014 0.05599 0.42302
 H310 H 0.52067 0.01042 0.40755
 H311 H 0.52977 0.03353 0.46200
 H312 H 0.54448 0.04809 0.44815
 N313 N -0.02824 0.07172 0.52491
 N314 N -0.04262 0.06707 0.51598
 C315 C -0.04493 0.07848 0.50232
 C316 C -0.03130 0.09083 0.50285
 C317 C -0.02093 0.08624 0.51727
 H318 H -0.05567 0.07790 0.49272
 H319 H -0.00900 0.09296 0.52185
 Cu320 Cu -0.05688 0.04656 0.52306
 Cu321 Cu -0.02009 0.05865 0.54576
 Cu322 Cu -0.04483 0.02161 0.55827
 N323 N -0.07038 0.02549 0.53001
 N324 N -0.06559 0.01580 0.54380
 C325 C -0.07710 0.00212 0.54568
 C326 C -0.08968 0.00338 0.53237
 C327 C -0.08512 0.01828 0.52264
 H328 H -0.07639 -0.00798 0.55594
 H329 H -0.09202 0.02343 0.51109
 N330 N -0.02341 0.02962 0.57123
 N331 N -0.01398 0.04374 0.56647
 C332 C -0.00027 0.04577 0.57790
 C333 C -0.00121 0.03232 0.59033
 C334 C -0.01594 0.02231 0.58582
 H335 H 0.00966 0.05624 0.57728
 H336 H -0.02083 0.01061 0.59269
 H337 H -0.03084 0.03436 0.53826
 H338 H -0.04476 0.04869 0.55311
 N339 N 0.47234 0.57089 0.02453
 N340 N 0.45840 0.56582 0.01515
 C341 C 0.45610 0.57724 0.00149
 C342 C 0.46930 0.59001 0.00247
 C343 C 0.47939 0.58568 0.01717
 H344 H 0.44566 0.57638 -0.00840
 H345 H 0.49096 0.59276 0.02212
 Cu346 Cu 0.44461 0.54482 0.02173
 Cu347 Cu 0.48028 0.55800 0.04557
 Cu348 Cu 0.45553 0.52095 0.05802
 N349 N 0.43063 0.52423 0.02912
 N350 N 0.43498 0.51495 0.04333
 C351 C 0.42321 0.50153 0.04545
 C352 C 0.41092 0.50253 0.03185
 C353 C 0.41591 0.51701 0.02171
 H354 H 0.42356 0.49178 0.05605
 H355 H 0.40931 0.52188 0.00988
 N356 N 0.47676 0.52912 0.07118
 N357 N 0.48620 0.54324 0.06644
 C358 C 0.49981 0.54536 0.07798
 C359 C 0.49879 0.53196 0.09047
 C360 C 0.48412 0.52189 0.08587
 H361 H 0.50973 0.55582 0.07738
 H362 H 0.47922 0.51018 0.09272
 H363 H 0.47019 0.53339 0.03830
 H364 H 0.45544 0.54791 0.05215
 N365 N 0.52831 -0.07135 0.02525
 N366 N 0.54265 -0.06668 0.01627
 C367 C 0.54491 -0.07805 0.00258
 C368 C 0.53128 -0.09040 0.00312
 C369 C 0.52097 -0.08584 0.01759
 H370 H 0.55562 -0.07745 -0.00706
 H371 H 0.50905 -0.09257 0.02220
 Cu372 Cu 0.55694 -0.04619 0.02337
 Cu373 Cu 0.52023 -0.05833 0.04615
 Cu374 Cu 0.54503 -0.02134 0.05869
 N375 N 0.57049 -0.02516 0.03034
 N376 N 0.56576 -0.01551 0.04418
 C377 C 0.57729 -0.00185 0.04607
 C378 C 0.58982 -0.00308 0.03271
 C379 C 0.58521 -0.01794 0.02295
 H380 H 0.57662 0.00821 0.05636
 H381 H 0.59208 -0.02306 0.01137
 N382 N 0.52365 -0.02937 0.07169
 N383 N 0.51419 -0.04346 0.06691
 C384 C 0.50050 -0.04551 0.07837
 C385 C 0.50148 -0.03209 0.09083
 C386 C 0.51622 -0.02208 0.08631
 H387 H 0.49056 -0.05596 0.07775
 H388 H 0.52114 -0.01040 0.09319
 H389 H 0.53096 -0.03403 0.03870
 H390 H 0.54493 -0.04842 0.05346
 N391 N 1.02782 0.42899 0.52459
 N392 N 1.04194 0.43390 0.51539
 C393 C 1.04419 0.42252 0.50169
 C394 C 1.03078 0.40995 0.50246
 C395 C 1.02061 0.41436 0.51708
 H396 H 1.05474 0.42328 0.49189
 H397 H 1.00888 0.40744 0.52187
 Cu398 Cu 1.05595 0.45464 0.52228
 Cu399 Cu 1.01983 0.44191 0.54561
 Cu400 Cu 1.04462 0.47895 0.55811
 N401 N 1.06976 0.47544 0.52943
 N402 N 1.06524 0.48488 0.54347
 C403 C 1.07689 0.49843 0.54548
 C404 C 1.08929 0.49733 0.53198
 C405 C 1.08447 0.48267 0.52201
 H406 H 1.07640 0.50831 0.55594
 H407 H 1.09119 0.47769 0.51029
 N408 N 1.02333 0.47081 0.57121
 N409 N 1.01389 0.45670 0.56645
 C410 C 1.00026 0.45459 0.57797
 C411 C 1.00127 0.46798 0.59046
 C412 C 1.01595 0.47804 0.58589
 H413 H 0.99034 0.44412 0.57737
 H414 H 1.02086 0.48973 0.59276
 H415 H 1.03020 0.46640 0.53830
 H416 H 1.04459 0.45194 0.55256
 C417 C 0.40102 0.00815 0.22629
 H418 H 0.40170 0.02028 0.23405
 C419 C 0.41270 0.00561 0.21202
 H420 H 0.42238 0.01584 0.20873
 C421 C 0.38777 -0.02016 0.22121
 H422 H 0.37825 -0.03029 0.22499
 C423 C 0.39921 -0.02322 0.20685
 H424 H 0.39833 -0.03563 0.19951
 N425 N 0.38874 -0.00457 0.23047
 C426 C 0.34633 0.02385 0.25846
 H427 H 0.34561 0.01607 0.27056
 C428 C 0.33468 0.03817 0.25588
 H429 H 0.32498 0.04151 0.26603
 C430 C 0.35968 0.02889 0.23029
 H431 H 0.36923 0.02508 0.22022
 C432 C 0.34827 0.04331 0.22717
 H433 H 0.34920 0.05066 0.21480
 Zn434 Zn 0.37368 -0.00021 0.25024
 N435 N 0.35865 0.01963 0.24583
 C436 C 0.38760 0.01980 0.27932
 N437 N 0.38865 0.00422 0.27006
 C438 C 0.40098 -0.00844 0.27426
 C439 C 0.41262 -0.00586 0.28855
 C440 C 0.39899 0.02291 0.29370
 C441 C 0.34644 -0.02435 0.24191
 C442 C 0.33485 -0.03873 0.24442
 C443 C 0.34838 -0.04389 0.27314
 C444 C 0.35973 -0.02941 0.27010
 N445 N 0.35871 -0.02010 0.25458
 H446 H 0.37804 0.02988 0.27552
 H447 H 0.40173 -0.02057 0.26649
 H448 H 0.42234 -0.01604 0.29186
 H449 H 0.39804 0.03532 0.30104
 H450 H 0.34572 -0.01654 0.22983
 H451 H 0.32519 -0.04208 0.23422
 H452 H 0.34931 -0.05127 0.28549
 H453 H 0.36924 -0.02558 0.28020
 C454 C 0.33571 0.04801 0.24011
 C455 C 0.41174 -0.01020 0.20220
 C456 C 0.33587 -0.04861 0.26016
 C457 C 0.41158 0.00995 0.29837
 C458 C 0.09913 -0.00845 0.72572
 H459 H 0.09840 -0.02058 0.73349
 C460 C 0.08748 -0.00587 0.71145
 H461 H 0.07776 -0.01606 0.70814
 C462 C 0.11250 0.01980 0.72067
 H463 H 0.12205 0.02990 0.72447
 C464 C 0.10109 0.02292 0.70630
 H465 H 0.10202 0.03533 0.69897
 N466 N 0.11146 0.00422 0.72992
 C467 C 0.15370 -0.02433 0.75802
 H468 H 0.15442 -0.01653 0.77010
 C469 C 0.16530 -0.03871 0.75550
 H470 H 0.17496 -0.04206 0.76569
 C471 C 0.14039 -0.02938 0.72983
 H472 H 0.13088 -0.02556 0.71974
 C473 C 0.15175 -0.04385 0.72678
 H474 H 0.15081 -0.05123 0.71442
 Zn475 Zn 0.12646 -0.00020 0.74972
 N476 N 0.14142 -0.02009 0.74536
 C477 C 0.11241 -0.02014 0.77877
 N478 N 0.11143 -0.00456 0.76951
 C479 C 0.09914 0.00815 0.77369
 C480 C 0.08747 0.00561 0.78796
 C481 C 0.10098 -0.02322 0.79313
 C482 C 0.15380 0.02385 0.74145
 C483 C 0.16545 0.03819 0.74400
 C484 C 0.15189 0.04336 0.77270
 C485 C 0.14048 0.02893 0.76963
 N486 N 0.14149 0.01964 0.75410
 H487 H 0.12193 -0.03027 0.77498
 H488 H 0.09845 0.02028 0.76592
 H489 H 0.07779 0.01583 0.79126
 H490 H 0.10187 -0.03562 0.80047
 H491 H 0.15451 0.01606 0.72936
 H492 H 0.17514 0.04151 0.73383
 H493 H 0.15097 0.05073 0.78507
 H494 H 0.13094 0.02513 0.77970
 C495 C 0.16427 -0.04858 0.73975
 C496 C 0.08851 0.00994 0.70164
 C497 C 0.16444 0.04805 0.75975
 C498 C 0.08844 -0.01020 0.79779
 C499 C 0.59882 0.49146 0.22616
 H500 H 0.59811 0.47932 0.23392
 C501 C 0.58719 0.49402 0.21187
 H502 H 0.57750 0.48381 0.20854
 C503 C 0.61214 0.51974 0.22113
 H504 H 0.62167 0.52985 0.22493
 C505 C 0.60075 0.52283 0.20674
 H506 H 0.60167 0.53524 0.19941
 N507 N 0.61112 0.50415 0.23037
 C508 C 0.65341 0.47567 0.25848
 H509 H 0.65412 0.48347 0.27056
 C510 C 0.66504 0.46133 0.25595
 H511 H 0.67471 0.45799 0.26613
 C512 C 0.64011 0.47060 0.23029
 H513 H 0.63058 0.47441 0.22020
 C514 C 0.65149 0.45616 0.22723
 H515 H 0.65057 0.44879 0.21487
 Zn516 Zn 0.62611 0.49976 0.25018
 N517 N 0.64112 0.47989 0.24582
 C518 C 0.61210 0.47979 0.27923
 N519 N 0.61109 0.49537 0.26997
 C520 C 0.59879 0.50806 0.27415
 C521 C 0.58713 0.50551 0.28843
 C522 C 0.60069 0.47671 0.29361
 C523 C 0.65342 0.52384 0.24192
 C524 C 0.66503 0.53821 0.24445
 C525 C 0.65144 0.54340 0.27314
 C526 C 0.64007 0.52894 0.27008
 N527 N 0.64111 0.51963 0.25456
 H528 H 0.62164 0.46968 0.27545
 H529 H 0.59808 0.52019 0.26638
 H530 H 0.57744 0.51572 0.29173
 H531 H 0.60160 0.46431 0.30096
 H532 H 0.65416 0.51603 0.22985
 H533 H 0.67472 0.54154 0.23428
 H534 H 0.65049 0.55078 0.28549
 H535 H 0.63053 0.52513 0.28015
 C536 C 0.66402 0.45146 0.24020
 C537 C 0.58820 0.50984 0.20205
 C538 C 0.66399 0.54809 0.26018
 C539 C 0.58813 0.48971 0.29826
 C540 C 0.90107 0.50822 0.72611
 H541 H 0.90177 0.52034 0.73389
 C542 C 0.91275 0.50568 0.71185
 H543 H 0.92245 0.51590 0.70857
 C544 C 0.88776 0.47996 0.72099
 H545 H 0.87822 0.46984 0.72475
 C546 C 0.89920 0.47688 0.70663
 H547 H 0.89830 0.46449 0.69928
 N548 N 0.88875 0.49553 0.73027
 C549 C 0.84637 0.52395 0.75828
 H550 H 0.84562 0.51614 0.77035
 C551 C 0.83474 0.53830 0.75572
 H552 H 0.82503 0.54161 0.76588
 C553 C 0.85976 0.52907 0.73014
 H554 H 0.86932 0.52528 0.72008
 C555 C 0.84838 0.54351 0.72706
 H556 H 0.84934 0.55090 0.71471
 Zn557 Zn 0.87370 0.49989 0.75004
 N558 N 0.85870 0.51975 0.74565
 C559 C 0.88764 0.51982 0.77914
 N560 N 0.88867 0.50425 0.76987
 C561 C 0.90097 0.49156 0.77407
 C562 C 0.91260 0.49411 0.78837
 C563 C 0.89904 0.52291 0.79352
 C564 C 0.84642 0.47581 0.74167
 C565 C 0.83479 0.46145 0.74415
 C566 C 0.84831 0.45621 0.77286
 C567 C 0.85970 0.47067 0.76985
 N568 N 0.85870 0.48000 0.75435
 H569 H 0.87811 0.52994 0.77534
 H570 H 0.90169 0.47944 0.76629
 H571 H 0.92229 0.48390 0.79168
 H572 H 0.89811 0.53531 0.80087
 H573 H 0.84572 0.48364 0.72960
 H574 H 0.82513 0.45814 0.73394
 H575 H 0.84923 0.44880 0.78520
 H576 H 0.86921 0.47446 0.77996
 C577 C 0.83580 0.54818 0.73999
 C578 C 0.91176 0.48989 0.70200
 C579 C 0.83580 0.45154 0.75987
 C580 C 0.91159 0.50991 0.79820
 C581 C 0.22596 0.40318 0.00805
 H582 H 0.23378 0.40388 0.02013
 C583 C 0.21161 0.41481 0.00555
 H584 H 0.20829 0.42447 0.01574
 C585 C 0.22084 0.38991 -0.02013
 H586 H 0.22463 0.38040 -0.03023
 C587 C 0.20638 0.40130 -0.02317
 H588 H 0.19898 0.40040 -0.03552
 N589 N 0.23016 0.39091 -0.00462
 C590 C 0.25835 0.34858 0.02367
 H591 H 0.27049 0.34787 0.01589
 C592 C 0.25579 0.33692 0.03794
 H593 H 0.26601 0.32723 0.04123
 C594 C 0.23007 0.36190 0.02877
 H595 H 0.21995 0.37144 0.02500
 C596 C 0.22698 0.35048 0.04314
 H597 H 0.21457 0.35140 0.05049
 Zn598 Zn 0.25004 0.37590 -0.00028
 N599 N 0.24566 0.36089 0.01950
 C600 C 0.27926 0.38984 0.01961
 N601 N 0.26994 0.39088 0.00409
 C602 C 0.27415 0.40318 -0.00854
 C603 C 0.28852 0.41480 -0.00601
 C604 C 0.29373 0.40121 0.02268
 C605 C 0.24171 0.34866 -0.02433
 C606 C 0.24426 0.33704 -0.03862
 C607 C 0.27312 0.35057 -0.04374
 C608 C 0.27002 0.36195 -0.02935
 N609 N 0.25442 0.36094 -0.02010
 H610 H 0.27546 0.38030 0.02968
 H611 H 0.26633 0.40392 -0.02062
 H612 H 0.29185 0.42448 -0.01618
 H613 H 0.30112 0.40026 0.03502
 H614 H 0.22956 0.34795 -0.01657
 H615 H 0.23404 0.32737 -0.04195
 H616 H 0.28554 0.35148 -0.05106
 H617 H 0.28015 0.37146 -0.02553
 C618 C 0.23998 0.33793 0.04778
 C619 C 0.20171 0.41382 -0.01019
 C620 C 0.26010 0.33805 -0.04843
 C621 C 0.29842 0.41375 0.00973
 C622 C 0.72605 0.09677 -0.00829
 H623 H 0.73384 0.09606 -0.02039
 C624 C 0.71173 0.08512 -0.00571
 H625 H 0.70840 0.07542 -0.01587
 C626 C 0.72099 0.11010 0.01988
 H627 H 0.72480 0.11965 0.02994
 C628 C 0.70657 0.09869 0.02299
 H629 H 0.69921 0.09961 0.03536
 N630 N 0.73027 0.10908 0.00434
 C631 C 0.75835 0.15137 -0.02412
 H632 H 0.77051 0.15210 -0.01638
 C633 C 0.75575 0.16299 -0.03841
 H634 H 0.76595 0.17268 -0.04176
 C635 C 0.73005 0.13802 -0.02910
 H636 H 0.71995 0.12849 -0.02528
 C637 C 0.72691 0.14940 -0.04348
 H638 H 0.71448 0.14846 -0.05080
 Zn639 Zn 0.75013 0.12410 -0.00008
 N640 N 0.74567 0.13907 -0.01988
 C641 C 0.77928 0.11014 -0.02003
 N642 N 0.77002 0.10913 -0.00448
 C643 C 0.77428 0.09687 0.00818
 C644 C 0.78864 0.08526 0.00564
 C645 C 0.79374 0.09877 -0.02311
 C646 C 0.74185 0.15139 0.02392
 C647 C 0.74445 0.16304 0.03819
 C648 C 0.77331 0.14953 0.04326
 C649 C 0.77019 0.13813 0.02889
 N650 N 0.75456 0.13911 0.01969
 H651 H 0.77544 0.11964 -0.03011
 H652 H 0.76650 0.09617 0.02029
 H653 H 0.79201 0.07561 0.01582
 H654 H 0.80110 0.09969 -0.03548
 H655 H 0.72969 0.15209 0.01619
 H656 H 0.73423 0.17270 0.04153
 H657 H 0.78575 0.14863 0.05056
 H658 H 0.78031 0.12862 0.02507
 C659 C 0.73990 0.16195 -0.04820
 C660 C 0.70188 0.08613 0.01005
 C661 C 0.76030 0.16205 0.04797
 C662 C 0.79848 0.08627 -0.01013
 C663 C 0.22594 0.59691 0.49162
 H664 H 0.23380 0.59618 0.47957
 C665 C 0.21157 0.58529 0.49411
 H666 H 0.20828 0.57560 0.48393
 C667 C 0.22074 0.61024 0.51976
 H668 H 0.22451 0.61977 0.52985
 C669 C 0.20627 0.59886 0.52278
 H670 H 0.19884 0.59980 0.53510
 N671 N 0.23011 0.60921 0.50427
 C672 C 0.25843 0.65147 0.47600
 H673 H 0.27055 0.65217 0.48381
 C674 C 0.25593 0.66311 0.46171
 H675 H 0.26616 0.67279 0.45843
 C676 C 0.23014 0.63818 0.47084
 H677 H 0.22000 0.62865 0.47460
 C678 C 0.22710 0.64958 0.45646
 H679 H 0.21470 0.64868 0.44908
 Zn680 Zn 0.25001 0.62420 0.49998
 N681 N 0.24571 0.63918 0.48015
 C682 C 0.27929 0.61022 0.48022
 N683 N 0.26991 0.60921 0.49571
 C684 C 0.27407 0.59693 0.50838
 C685 C 0.28843 0.58529 0.50592
 C686 C 0.29375 0.59883 0.47723
 C687 C 0.24160 0.65150 0.52392
 C688 C 0.24410 0.66315 0.53820
 C689 C 0.27291 0.64961 0.54349
 C690 C 0.26988 0.63820 0.52911
 N691 N 0.25432 0.63920 0.51978
 H692 H 0.27554 0.61974 0.47012
 H693 H 0.26621 0.59622 0.52043
 H694 H 0.29171 0.57562 0.51611
 H695 H 0.30119 0.59975 0.46490
 H696 H 0.22949 0.65220 0.51609
 H697 H 0.23386 0.67283 0.54146
 H698 H 0.28529 0.64870 0.55089
 H699 H 0.28002 0.62868 0.52537
 C700 C 0.24013 0.66212 0.45184
 C701 C 0.20162 0.58632 0.50981
 C702 C 0.25988 0.66215 0.54809
 C703 C 0.29838 0.58630 0.49021
 C704 C 0.72592 0.90339 0.50830
 H705 H 0.73377 0.90412 0.52036
 C706 C 0.71156 0.91501 0.50579
 H707 H 0.70826 0.92470 0.51597
 C708 C 0.72076 0.89006 0.48015
 H709 H 0.72453 0.88052 0.47007
 C710 C 0.70629 0.90143 0.47711
 H711 H 0.69887 0.90049 0.46478
 N712 N 0.73010 0.89109 0.49565
 C713 C 0.75834 0.84884 0.52399
 H714 H 0.77047 0.84813 0.51621
 C715 C 0.75579 0.83720 0.53828
 H716 H 0.76601 0.82752 0.54158
 C717 C 0.73004 0.86214 0.52907
 H718 H 0.71992 0.87166 0.52529
 C719 C 0.72696 0.85074 0.54345
 H720 H 0.71455 0.85165 0.55080
 Zn721 Zn 0.74999 0.87611 0.49999
 N722 N 0.74563 0.86113 0.51980
 C723 C 0.77919 0.89011 0.51986
 N724 N 0.76988 0.89111 0.50433
 C725 C 0.77409 0.90339 0.49167
 C726 C 0.78844 0.91503 0.49420
 C727 C 0.79363 0.90151 0.52292
 C728 C 0.74165 0.84881 0.47602
 C729 C 0.74420 0.83715 0.46175
 C730 C 0.77303 0.85071 0.45656
 C731 C 0.76994 0.86212 0.47092
 N732 N 0.75435 0.86111 0.48019
 H733 H 0.77539 0.88059 0.52995
 H734 H 0.76628 0.90409 0.47958
 H735 H 0.79176 0.92471 0.48402
 H736 H 0.80101 0.90061 0.53528
 H737 H 0.72952 0.84809 0.48380
 H738 H 0.73399 0.82746 0.45845
 H739 H 0.78544 0.85162 0.44921
 H740 H 0.78007 0.87165 0.47470
 C741 C 0.73998 0.83820 0.54811
 C742 C 0.70163 0.91398 0.49007
 C743 C 0.76002 0.83816 0.45191
 C744 C 0.79831 0.91405 0.50995
 C745 C 0.00812 0.22631 0.40194
 H746 H 0.02021 0.23419 0.40262
 C747 C 0.00566 0.21200 0.41358
 H748 H 0.01590 0.20878 0.42324
 C749 C -0.02015 0.22101 0.38871
 H750 H -0.03031 0.22472 0.37921
 C751 C -0.02315 0.20659 0.40012
 H752 H -0.03552 0.19915 0.39924
 N753 N -0.00462 0.23040 0.38969
 C754 C 0.02369 0.25870 0.34751
 H755 H 0.01583 0.27078 0.34680
 C756 C 0.03804 0.25621 0.33590
 H757 H 0.04129 0.26642 0.32623
 C758 C 0.02893 0.23046 0.36079
 H759 H 0.02518 0.22033 0.37029
 C760 C 0.04337 0.22744 0.34942
 H761 H 0.05081 0.21507 0.35032
 Zn762 Zn -0.00036 0.25027 0.37470
 N763 N 0.01955 0.24599 0.35977
 C764 C 0.01945 0.27956 0.38862
 N765 N 0.00390 0.27019 0.38961
 C766 C -0.00884 0.27433 0.40184
 C767 C -0.00637 0.28867 0.41345
 C768 C 0.02245 0.29400 0.39999
 C769 C -0.02440 0.24174 0.34754
 C770 C -0.03875 0.24418 0.33591
 C771 C -0.04411 0.27299 0.34932
 C772 C -0.02966 0.27002 0.36070
 N773 N -0.02027 0.25449 0.35975
 H774 H 0.02960 0.27581 0.37914
 H775 H -0.02094 0.26647 0.40254
 H776 H -0.01661 0.29193 0.42309
 H777 H 0.03484 0.30143 0.39910
 H778 H -0.01652 0.22966 0.34687
 H779 H -0.04200 0.23392 0.32629
 H780 H -0.05155 0.28536 0.35018
 H781 H -0.02592 0.28019 0.37017
 C782 C 0.04798 0.24045 0.33690
 C783 C -0.01010 0.20203 0.41262
 C784 C -0.04871 0.25993 0.33686
 C785 C 0.00941 0.29861 0.41248
 C786 C -0.00828 0.72615 0.09777
 H787 H -0.02038 0.73401 0.09707
 C788 C -0.00581 0.71182 0.08615
 H789 H -0.01604 0.70856 0.07651
 C790 C 0.02000 0.72091 0.11101
 H791 H 0.03015 0.72466 0.12050
 C792 C 0.02301 0.70649 0.09963
 H793 H 0.03540 0.69906 0.10052
 N794 N 0.00445 0.73028 0.11001
 C795 C -0.02389 0.75858 0.15215
 H796 H -0.01603 0.77068 0.15285
 C797 C -0.03823 0.75609 0.16376
 H798 H -0.04150 0.76631 0.17342
 C799 C -0.02910 0.73033 0.13890
 H800 H -0.02534 0.72020 0.12941
 C801 C -0.04354 0.72730 0.15028
 H802 H -0.05097 0.71492 0.14937
 Zn803 Zn 0.00017 0.75017 0.12496
 N804 N -0.01973 0.74587 0.13990
 C805 C -0.01967 0.77942 0.11101
 N806 N -0.00412 0.77005 0.11001
 C807 C 0.00861 0.77419 0.09776
 C808 C 0.00613 0.78852 0.08615
 C809 C -0.02268 0.79385 0.09964
 C810 C 0.02423 0.74175 0.15214
 C811 C 0.03858 0.74424 0.16375
 C812 C 0.04390 0.77302 0.15026
 C813 C 0.02945 0.77000 0.13889
 N814 N 0.02007 0.75446 0.13989
 H815 H -0.02981 0.77567 0.12051
 H816 H 0.02071 0.76633 0.09706
 H817 H 0.01637 0.79179 0.07650
 H818 H -0.03506 0.80128 0.10054
 H819 H 0.01637 0.72965 0.15285
 H820 H 0.04185 0.73401 0.17340
 H821 H 0.05133 0.78539 0.14935
 H822 H 0.02569 0.78013 0.12940
 C823 C -0.04816 0.74032 0.16278
 C824 C 0.00997 0.70188 0.08713
 C825 C 0.04852 0.76000 0.16276
 C826 C -0.00964 0.79846 0.08714
 C827 C 0.49149 0.22602 0.59829
 H828 H 0.47939 0.23388 0.59761
 C829 C 0.49395 0.21169 0.58666
 H830 H 0.48370 0.20845 0.57702
 C831 C 0.51978 0.22076 0.61150
 H832 H 0.52994 0.22449 0.62099
 C833 C 0.52277 0.20634 0.60011
 H834 H 0.53515 0.19890 0.60099
 N835 N 0.50423 0.23013 0.61053
 C836 C 0.47594 0.25842 0.65270
 H837 H 0.48381 0.27051 0.65341
 C838 C 0.46160 0.25594 0.66432
 H839 H 0.45834 0.26615 0.67398
 C840 C 0.47069 0.23019 0.63944
 H841 H 0.47443 0.22006 0.62993
 C842 C 0.45625 0.22716 0.65081
 H843 H 0.44881 0.21480 0.64991
 Zn844 Zn 0.49998 0.25001 0.62549
 N845 N 0.48007 0.24572 0.64044
 C846 C 0.48014 0.27927 0.61157
 N847 N 0.49570 0.26991 0.61057
 C848 C 0.50842 0.27406 0.59833
 C849 C 0.50594 0.28839 0.58671
 C850 C 0.47712 0.29370 0.60020
 C851 C 0.52404 0.24152 0.65266
 C852 C 0.53840 0.24398 0.66426
 C853 C 0.54375 0.27278 0.65079
 C854 C 0.52929 0.26978 0.63944
 N855 N 0.51990 0.25426 0.64043
 H856 H 0.47000 0.27552 0.62106
 H857 H 0.52053 0.26620 0.59762
 H858 H 0.51617 0.29165 0.57706
 H859 H 0.46474 0.30113 0.60110
 H860 H 0.51617 0.22944 0.65336
 H861 H 0.54167 0.23375 0.67390
 H862 H 0.55120 0.28514 0.64990
 H863 H 0.52554 0.27993 0.62996
 C864 C 0.45164 0.24018 0.66332
 C865 C 0.50972 0.20175 0.58762
 C866 C 0.54837 0.25974 0.66328
 C867 C 0.49016 0.29832 0.58770
 C868 C 0.50825 0.72618 0.90231
 H869 H 0.52035 0.73404 0.90298
 C870 C 0.50581 0.71184 0.91392
 H871 H 0.51607 0.70858 0.92355
 C872 C 0.47994 0.72093 0.88913
 H873 H 0.46977 0.72467 0.87966
 C874 C 0.47696 0.70649 0.90051
 H875 H 0.46459 0.69905 0.89964
 N876 N 0.49549 0.73031 0.89009
 C877 C 0.52374 0.75865 0.84791
 H878 H 0.51587 0.77073 0.84722
 C879 C 0.53807 0.75617 0.83628
 H880 H 0.54132 0.76640 0.82662
 C881 C 0.52900 0.73039 0.86114
 H882 H 0.52526 0.72025 0.87064
 C883 C 0.54342 0.72739 0.84975
 H884 H 0.55086 0.71502 0.85063
 Zn885 Zn 0.49974 0.75019 0.87514
 N886 N 0.51961 0.74593 0.86016
 C887 C 0.51959 0.77945 0.88906
 N888 N 0.50404 0.77008 0.89007
 C889 C 0.49133 0.77420 0.90233
 C890 C 0.49383 0.78852 0.91395
 C891 C 0.52263 0.79387 0.90044
 C892 C 0.47563 0.74175 0.84800
 C893 C 0.46128 0.74423 0.83640
 C894 C 0.45598 0.77302 0.84987
 C895 C 0.47043 0.77001 0.86123
 N896 N 0.47980 0.75447 0.86023
 H897 H 0.52973 0.77571 0.87955
 H898 H 0.47923 0.76634 0.90304
 H899 H 0.48361 0.79177 0.92362
 H900 H 0.53501 0.80129 0.89953
 H901 H 0.48349 0.72965 0.84730
 H902 H 0.45800 0.73400 0.82676
 H903 H 0.44856 0.78540 0.85076
 H904 H 0.47420 0.78015 0.87071
 C905 C 0.54802 0.74042 0.83724
 C906 C 0.49004 0.70189 0.91298
 C907 C 0.45135 0.75999 0.83738
 C908 C 0.50961 0.79846 0.91296
 C909 C 0.11765 0.22690 0.28080
 N910 N 0.11376 0.21476 0.29360
 N911 N 0.10010 0.21742 0.30464
 C912 C 0.08990 0.23231 0.30321
 N913 N 0.09378 0.24446 0.29040
 N914 N 0.10745 0.24179 0.27936
 C915 C 0.13234 0.22401 0.26888
 C916 C 0.14466 0.22160 0.25886
 C917 C 0.07517 0.23517 0.31507
 C918 C 0.06278 0.23758 0.32503
 C919 C 0.61766 0.72695 0.78110
 N920 N 0.61311 0.71430 0.79318
 N921 N 0.59944 0.71695 0.80422
 C922 C 0.58992 0.73233 0.80352
 N923 N 0.59448 0.74498 0.79145
 N924 N 0.60814 0.74233 0.78040
 C925 C 0.63235 0.72408 0.76918
 C926 C 0.64467 0.72168 0.75914
 C927 C 0.57519 0.73518 0.81539
 C928 C 0.56281 0.73757 0.82536
 C929 C 0.38158 0.77335 0.78135
 N930 N 0.38485 0.78501 0.79476
 N931 N 0.39854 0.78239 0.80578
 C932 C 0.40937 0.76804 0.80373
 N933 N 0.40611 0.75638 0.79033
 N934 N 0.39242 0.75899 0.77930
 C935 C 0.36685 0.77616 0.76947
 C936 C 0.35449 0.77851 0.75947
 C937 C 0.42413 0.76523 0.81558
 C938 C 0.43653 0.76285 0.82553
 C939 C -0.11858 0.27302 0.28088
 N940 N -0.11565 0.28440 0.29460
 N941 N -0.10193 0.28183 0.30560
 C942 C -0.09072 0.26782 0.30321
 N943 N -0.09365 0.25644 0.28949
 N944 N -0.10738 0.25900 0.27849
 C945 C -0.13335 0.27577 0.26903
 C946 C -0.14575 0.27806 0.25906
 C947 C -0.07595 0.26505 0.31505
 C948 C -0.06353 0.26272 0.32499
 C949 C -0.11806 0.72699 0.21865
 N950 N -0.12083 0.73323 0.20194
 N951 N -0.10710 0.73582 0.19096
 C952 C -0.09019 0.73225 0.19635
 N953 N -0.08742 0.72601 0.21306
 N954 N -0.10115 0.72342 0.22404
 C955 C -0.13284 0.72425 0.23048
 C956 C -0.14525 0.72196 0.24044
 C957 C -0.07540 0.73507 0.18454
 C958 C -0.06298 0.73746 0.17462
 C959 C 0.38189 0.22670 0.71935
 N960 N 0.39271 0.24108 0.72141
 N961 N 0.40639 0.24373 0.71039
 C962 C 0.40968 0.23208 0.69698
 N963 N 0.39886 0.21771 0.69491
 N964 N 0.38518 0.21506 0.70593
 C965 C 0.36717 0.22384 0.73124
 C966 C 0.35483 0.22145 0.74125
 C967 C 0.42443 0.23493 0.68513
 C968 C 0.43683 0.23732 0.67518
 C969 C 0.61833 0.27292 0.71912
 N970 N 0.60720 0.25884 0.72147
 N971 N 0.59345 0.25627 0.71050
 C972 C 0.59043 0.26770 0.69685
 N973 N 0.60156 0.28178 0.69449
 N974 N 0.61530 0.28436 0.70546
 C975 C 0.63313 0.27568 0.73093
 C976 C 0.64556 0.27797 0.74087
 C977 C 0.57564 0.26491 0.68503
 C978 C 0.56321 0.26256 0.67511
 C979 C 0.11845 0.77332 0.21861
 N980 N 0.10801 0.75862 0.22027
 N981 N 0.09427 0.75602 0.20930
 C982 C 0.09056 0.76804 0.19633
 N983 N 0.10099 0.78274 0.19467
 N984 N 0.11473 0.78534 0.20564
 C985 C 0.13324 0.77610 0.23042
 C986 C 0.14566 0.77840 0.24036
 C987 C 0.07577 0.76523 0.18452
 C988 C 0.06335 0.76285 0.17460
 C989 C 0.27997 0.11798 0.22605
 N990 N 0.28718 0.10902 0.21211
 N991 N 0.29810 0.09526 0.21489
 C992 C 0.30214 0.09004 0.23169
 N993 N 0.29494 0.09900 0.24562
 N994 N 0.28402 0.11277 0.24284
 C995 C 0.26823 0.13281 0.22305
 C996 C 0.25838 0.14527 0.22049
 C997 C 0.31393 0.07525 0.23467
 C998 C 0.32385 0.06283 0.23716
 C999 C 0.78009 0.61822 0.72614
 N1000 N 0.79367 0.61486 0.71469
 N1001 N 0.80460 0.60110 0.71742
 C1002 C 0.80228 0.59028 0.73169
 N1003 N 0.78870 0.59363 0.74315
 N1004 N 0.77776 0.60739 0.74041
 C1005 C 0.76831 0.63303 0.72318
 C1006 C 0.75844 0.64547 0.72066
 C1007 C 0.81405 0.57546 0.73463
 C1008 C 0.82396 0.56302 0.73708
 C1009 C 0.78022 0.38128 0.77324
 N1010 N 0.77484 0.39540 0.76331
 N1011 N 0.78574 0.40922 0.76067
 C1012 C 0.80234 0.40933 0.76790
 N1013 N 0.80771 0.39521 0.77783
 N1014 N 0.79682 0.38140 0.78047
 C1015 C 0.76849 0.36641 0.77610
 C1016 C 0.75868 0.35389 0.77855
 C1017 C 0.81408 0.42419 0.76507
 C1018 C 0.82397 0.43667 0.76270
 C1019 C 0.28042 -0.11893 0.27370
 N1020 N 0.27508 -0.10492 0.26359
 N1021 N 0.28596 -0.09110 0.26092
 C1022 C 0.30250 -0.09087 0.26827
 N1023 N 0.30784 -0.10488 0.27838
 N1024 N 0.29696 -0.11871 0.28105
 C1025 C 0.26871 -0.13382 0.27659
 C1026 C 0.25890 -0.14634 0.27904
 C1027 C 0.31422 -0.07599 0.26541
 C1028 C 0.32408 -0.06351 0.26301
 C1029 C 0.21983 -0.11876 0.72606
 N1030 N 0.22156 -0.10849 0.74081
 N1031 N 0.21066 -0.09470 0.74351
 C1032 C 0.19770 -0.09075 0.73153
 N1033 N 0.19596 -0.10102 0.71678
 N1034 N 0.20686 -0.11482 0.71408
 C1035 C 0.23155 -0.13362 0.72315
 C1036 C 0.24139 -0.14611 0.72067
 C1037 C 0.18595 -0.07591 0.73444
 C1038 C 0.17608 -0.06345 0.73687
 C1039 C 0.71962 0.38130 0.22655
 N1040 N 0.72126 0.39149 0.24136
 N1041 N 0.71036 0.40529 0.24405
 C1042 C 0.69749 0.40931 0.23200
 N1043 N 0.69586 0.39912 0.21718
 N1044 N 0.70675 0.38532 0.21450
 C1045 C 0.73133 0.36643 0.22366
 C1046 C 0.74115 0.35393 0.22121
 C1047 C 0.68574 0.42415 0.23490
 C1048 C 0.67585 0.43661 0.23732
 C1049 C 0.71952 0.61834 0.27379
 N1050 N 0.70759 0.61346 0.28646
 N1051 N 0.69670 0.59964 0.28379
 C1052 C 0.69743 0.59028 0.26837
 N1053 N 0.70937 0.59516 0.25570
 N1054 N 0.72025 0.60898 0.25837
 C1055 C 0.73120 0.63325 0.27666
 C1056 C 0.74099 0.64579 0.27909
 C1057 C 0.68569 0.57543 0.26548
 C1058 C 0.67580 0.56296 0.26307
 C1059 C 0.22017 0.11809 0.77356
 N1060 N 0.20836 0.11308 0.78629
 N1061 N 0.19743 0.09931 0.78357
 C1062 C 0.19799 0.09014 0.76803
 N1063 N 0.20980 0.09515 0.75530
 N1064 N 0.22073 0.10892 0.75802
 C1065 C 0.23194 0.13291 0.77651
 C1066 C 0.24181 0.14537 0.77902
 C1067 C 0.18621 0.07532 0.76510
 C1068 C 0.17629 0.06288 0.76265
 C1069 C 0.22620 0.28199 0.11739
 N1070 N 0.21338 0.29377 0.11245
 N1071 N 0.21609 0.30475 0.09877
 C1072 C 0.23170 0.30428 0.08962
 N1073 N 0.24451 0.29249 0.09457
 N1074 N 0.24180 0.28151 0.10825
 C1075 C 0.22327 0.27017 0.13212
 C1076 C 0.22081 0.26024 0.14449
 C1077 C 0.23462 0.31610 0.07490
 C1078 C 0.23706 0.32605 0.06253
 C1079 C 0.72616 0.78228 0.61773
 N1080 N 0.71394 0.79499 0.61363
 N1081 N 0.71666 0.80597 0.59995
 C1082 C 0.73167 0.80456 0.58996
 N1083 N 0.74389 0.79185 0.59406
 N1084 N 0.74117 0.78087 0.60774
 C1085 C 0.72323 0.77046 0.63245
 C1086 C 0.72077 0.76052 0.64482
 C1087 C 0.73460 0.81639 0.57523
 C1088 C 0.73706 0.82633 0.56287
 C1089 C 0.77377 0.78227 0.38227
 N1090 N 0.78583 0.78321 0.39570
 N1091 N 0.78312 0.79417 0.40939
 C1092 C 0.76828 0.80452 0.41006
 N1093 N 0.75623 0.80359 0.39663
 N1094 N 0.75893 0.79262 0.38294
 C1095 C 0.77668 0.77046 0.36753
 C1096 C 0.77911 0.76053 0.35515
 C1097 C 0.76537 0.81634 0.42479
 C1098 C 0.76293 0.82628 0.43715
 C1099 C 0.27402 0.28218 -0.11806
 N1100 N 0.25915 0.29249 -0.11741
 N1101 N 0.25641 0.30346 -0.10373
 C1102 C 0.26845 0.30445 -0.09029
 N1103 N 0.28333 0.29414 -0.09095
 N1104 N 0.28607 0.28317 -0.10463
 C1105 C 0.27697 0.27036 -0.13279
 C1106 C 0.27944 0.26044 -0.14516
 C1107 C 0.26550 0.31626 -0.07557
 C1108 C 0.26303 0.32619 -0.06320
 C1109 C 0.72593 0.21770 -0.11793
 N1110 N 0.74155 0.21821 -0.10881
 N1111 N 0.74429 0.20727 -0.09510
 C1112 C 0.73149 0.19549 -0.09010
 N1113 N 0.71587 0.19497 -0.09922
 N1114 N 0.71313 0.20591 -0.11293
 C1115 C 0.72299 0.22947 -0.13269
 C1116 C 0.72053 0.23936 -0.14509
 C1117 C 0.73445 0.18370 -0.07536
 C1118 C 0.73693 0.17379 -0.06297
 C1119 C 0.22656 0.71810 0.38221
 N1120 N 0.24161 0.71941 0.39217
 N1121 N 0.24427 0.70842 0.40586
 C1122 C 0.23197 0.69579 0.40999
 N1123 N 0.21693 0.69448 0.40002
 N1124 N 0.21426 0.70547 0.38634
 C1125 C 0.22370 0.72992 0.36747
 C1126 C 0.22129 0.73984 0.35508
 C1127 C 0.23485 0.68396 0.42471
 C1128 C 0.23725 0.67401 0.43708
 C1129 C 0.27343 0.71808 0.61775
 N1130 N 0.25881 0.70740 0.61726
 N1131 N 0.25614 0.69642 0.60357
 C1132 C 0.26801 0.69580 0.58996
 N1133 N 0.28263 0.70648 0.59045
 N1134 N 0.28530 0.71746 0.60414
 C1135 C 0.27630 0.72989 0.63249
 C1136 C 0.27872 0.73982 0.64487
 C1137 C 0.26515 0.68397 0.57523
 C1138 C 0.26274 0.67403 0.56286
 C1139 C 0.77414 0.21779 0.11772
 N1140 N 0.75950 0.20714 0.11723
 N1141 N 0.75679 0.19620 0.10351
 C1142 C 0.76863 0.19559 0.08988
 N1143 N 0.78327 0.20625 0.09037
 N1144 N 0.78599 0.21718 0.10409
 C1145 C 0.77706 0.22957 0.13248
 C1146 C 0.77949 0.23947 0.14488
 C1147 C 0.76571 0.18381 0.07512
 C1148 C 0.76325 0.17390 0.06274
 C1149 C 0.47693 0.36811 0.53174
 N1150 N 0.46998 0.35184 0.52793
 N1151 N 0.47255 0.33814 0.53893
 C1152 C 0.48215 0.34029 0.55408
 N1153 N 0.48909 0.35656 0.55790
 N1154 N 0.48652 0.37027 0.54689
 C1155 C 0.47420 0.38286 0.51988
 C1156 C 0.47192 0.39524 0.50991
 C1157 C 0.48495 0.32553 0.56591
 C1158 C 0.48731 0.31312 0.57584
 C1159 C -0.02284 0.86827 0.03120
 N1160 N -0.03591 0.85601 0.03377
 N1161 N -0.03334 0.84231 0.04477
 C1162 C -0.01762 0.84045 0.05354
 N1163 N -0.00454 0.85271 0.05098
 N1164 N -0.00711 0.86642 0.03997
 C1165 C -0.02559 0.88301 0.01934
 C1166 C -0.02788 0.89539 0.00936
 C1167 C -0.01484 0.82568 0.06536
 C1168 C -0.01248 0.81328 0.07529
 C1169 C 0.02332 0.63225 0.03102
 N1170 N 0.03600 0.63678 0.04309
 N1171 N 0.03338 0.65044 0.05413
 C1172 C 0.01800 0.65998 0.05344
 N1173 N 0.00532 0.65545 0.04137
 N1174 N 0.00795 0.64179 0.03032
 C1175 C 0.02616 0.61757 0.01910
 C1176 C 0.02853 0.60526 0.00906
 C1177 C 0.01519 0.67471 0.06531
 C1178 C 0.01281 0.68709 0.07526
 C1179 C 0.52290 0.13199 0.53163
 N1180 N 0.53553 0.13643 0.54377
 N1181 N 0.53296 0.15013 0.55478
 C1182 C 0.51767 0.15980 0.55397
 N1183 N 0.50504 0.15537 0.54182
 N1184 N 0.50761 0.14167 0.53081
 C1185 C 0.52566 0.11724 0.51978
 C1186 C 0.52795 0.10485 0.50981
 C1187 C 0.51489 0.17455 0.56581
 C1188 C 0.51254 0.18695 0.57576
 C1189 C -0.02336 0.13248 0.46887
 N1190 N -0.03748 0.14111 0.46153
 N1191 N -0.03488 0.15475 0.45046
 C1192 C -0.01809 0.16017 0.44639
 N1193 N -0.00397 0.15155 0.45373
 N1194 N -0.00657 0.13790 0.46480
 C1195 C -0.02616 0.11781 0.48081
 C1196 C -0.02851 0.10549 0.49086
 C1197 C -0.01529 0.17489 0.43450
 C1198 C -0.01293 0.18726 0.42452
 C1199 C 0.47700 0.63199 0.96885
 N1200 N 0.46297 0.63957 0.96030
 N1201 N 0.46552 0.65330 0.94932
 C1202 C 0.48217 0.65987 0.94656
 N1203 N 0.49620 0.65229 0.95511
 N1204 N 0.49366 0.63855 0.96609
 C1205 C 0.47427 0.61721 0.98067
 C1206 C 0.47199 0.60480 0.99061
 C1207 C 0.48491 0.67465 0.93475
 C1208 C 0.48724 0.68707 0.92482
 C1209 C 0.52314 0.86802 0.96912
 N1210 N 0.53581 0.86346 0.95706
 N1211 N 0.53315 0.84982 0.94600
 C1212 C 0.51774 0.84033 0.94667
 N1213 N 0.50506 0.84489 0.95873
 N1214 N 0.50772 0.85854 0.96978
 C1215 C 0.52601 0.88268 0.98105
 C1216 C 0.52842 0.89498 0.99111
 C1217 C 0.51489 0.82562 0.93479
 C1218 C 0.51248 0.81324 0.92483
 C1219 C 0.02278 0.36824 0.46859
 N1220 N 0.00741 0.35867 0.46931
 N1221 N 0.00479 0.34501 0.45827
 C1222 C 0.01745 0.34050 0.44617
 N1223 N 0.03281 0.35007 0.44545
 N1224 N 0.03544 0.36373 0.45650
 C1225 C 0.02561 0.38293 0.48049
 C1226 C 0.02798 0.39527 0.49051
 C1227 C 0.01463 0.32578 0.43430
 C1228 C 0.01225 0.31340 0.42435
 C1229 C 0.36856 0.53064 0.47681
 N1230 N 0.35165 0.52499 0.47365
 N1231 N 0.33785 0.53590 0.47631
 C1232 C 0.34055 0.55279 0.48220
 N1233 N 0.35747 0.55844 0.48536
 N1234 N 0.37126 0.54753 0.48271
 C1235 C 0.38343 0.51892 0.47390
 C1236 C 0.39593 0.50909 0.47143
 C1237 C 0.32570 0.56455 0.48503
 C1238 C 0.31324 0.57445 0.48739
 C1239 C 0.86868 0.03069 -0.02386
 N1240 N 0.85750 0.02803 -0.00991
 N1241 N 0.84370 0.03893 -0.00721
 C1242 C 0.84065 0.05281 -0.01838
 N1243 N 0.85182 0.05546 -0.03233
 N1244 N 0.86563 0.04457 -0.03503
 C1245 C 0.88356 0.01898 -0.02675
 C1246 C 0.89608 0.00917 -0.02921
 C1247 C 0.82580 0.06455 -0.01547
 C1248 C 0.81334 0.07444 -0.01304
 C1249 C 0.63192 0.03032 0.02410
 N1250 N 0.63399 0.03854 0.00816
 N1251 N 0.64775 0.04948 0.00538
 C1252 C 0.65985 0.05253 0.01846
 N1253 N 0.65777 0.04431 0.03440
 N1254 N 0.64402 0.03337 0.03717
 C1255 C 0.61710 0.01856 0.02710
 C1256 C 0.60465 0.00868 0.02964
 C1257 C 0.67464 0.06433 0.01548
 C1258 C 0.68706 0.07426 0.01300
 C1259 C 0.13146 0.53066 0.52348
 N1260 N 0.12993 0.54837 0.52688
 N1261 N 0.14372 0.55929 0.52417
 C1262 C 0.15945 0.55283 0.51796
 N1263 N 0.16098 0.53512 0.51455
 N1264 N 0.14719 0.52420 0.51727
 C1265 C 0.11663 0.51891 0.52643
 C1266 C 0.10416 0.50905 0.52895
 C1267 C 0.17430 0.56458 0.51507
 C1268 C 0.18676 0.57448 0.51266
 C1269 C 0.13171 0.46965 -0.02388
 N1270 N 0.14409 0.47343 -0.01126
 N1271 N 0.15784 0.46246 -0.00855
 C1272 C 0.15961 0.44739 -0.01837
 N1273 N 0.14723 0.44360 -0.03098
 N1274 N 0.13348 0.45457 -0.03369
 C1275 C 0.11693 0.48146 -0.02683
 C1276 C 0.10450 0.49137 -0.02936
 C1277 C 0.17442 0.43559 -0.01547
 C1278 C 0.18686 0.42567 -0.01305
 C1279 C 0.63141 0.96955 0.47654
 N1280 N 0.64366 0.97324 0.48931
 N1281 N 0.65747 0.96234 0.49198
 C1282 C 0.65944 0.94743 0.48194
 N1283 N 0.64719 0.94375 0.46917
 N1284 N 0.63338 0.95464 0.46651
 C1285 C 0.61653 0.98127 0.47367
 C1286 C 0.60401 0.99109 0.47124
 C1287 C 0.67430 0.93569 0.48481
 C1288 C 0.68677 0.92580 0.48722
 C1289 C 0.86824 0.96994 0.52380
 N1290 N 0.85756 0.96499 0.53751
 N1291 N 0.84382 0.95402 0.53477
 C1292 C 0.84034 0.94768 0.51824
 N1293 N 0.85101 0.95264 0.50453
 N1294 N 0.86476 0.96361 0.50727
 C1295 C 0.88305 0.98173 0.52677
 C1296 C 0.89549 0.99161 0.52930
 C1297 C 0.82556 0.93586 0.51530
 C1298 C 0.81314 0.92592 0.51285
 C1299 C 0.36863 0.46932 0.02347
 N1300 N 0.36508 0.45594 0.03510
 N1301 N 0.35128 0.44504 0.03239
 C1302 C 0.34060 0.44720 0.01797
 N1303 N 0.34415 0.46058 0.00635
 N1304 N 0.35795 0.47147 0.00906
 C1305 C 0.38350 0.48104 0.02639
 C1306 C 0.39600 0.49086 0.02887
 C1307 C 0.32575 0.43546 0.01506
 C1308 C 0.31328 0.42557 0.01262
 C1309 C 0.53218 0.47599 0.36792
 N1310 N 0.54599 0.46468 0.36487
 N1311 N 0.55697 0.46737 0.35118
 C1312 C 0.55448 0.48145 0.34012
 N1313 N 0.54067 0.49277 0.34317
 N1314 N 0.52969 0.49008 0.35686
 C1315 C 0.52037 0.47311 0.38267
 C1316 C 0.51045 0.47069 0.39506
 C1317 C 0.56630 0.48436 0.32539
 C1318 C 0.57625 0.48679 0.31302
 C1319 C 0.03245 -0.02389 0.86741
 N1320 N 0.02999 -0.00979 0.85637
 N1321 N 0.04098 -0.00711 0.84268
 C1322 C 0.05476 -0.01844 0.83962
 N1323 N 0.05722 -0.03255 0.85066
 N1324 N 0.04623 -0.03523 0.86435
 C1325 C 0.02064 -0.02677 0.88215
 C1326 C 0.01072 -0.02917 0.89455
 C1327 C 0.06660 -0.01554 0.82490
 C1328 C 0.07655 -0.01311 0.81254
 C1329 C 0.03250 0.02393 0.63208
 N1330 N 0.04633 0.03522 0.63515
 N1331 N 0.05732 0.03246 0.64881
 C1332 C 0.05483 0.01834 0.65982
 N1333 N 0.04101 0.00706 0.65675
 N1334 N 0.03001 0.00981 0.64309
 C1335 C 0.02065 0.02689 0.61738
 C1336 C 0.01069 0.02937 0.60503
 C1337 C 0.06667 0.01538 0.67453
 C1338 C 0.07662 0.01290 0.68689
 C1339 C 0.53234 0.52368 0.13236
 N1340 N 0.54614 0.53498 0.13544
 N1341 N 0.55711 0.53226 0.14914
 C1342 C 0.55460 0.51816 0.16016
 N1343 N 0.54079 0.50685 0.15708
 N1344 N 0.52983 0.50957 0.14338
 C1345 C 0.52054 0.52660 0.11761
 C1346 C 0.51062 0.52905 0.10522
 C1347 C 0.56641 0.51523 0.17490
 C1348 C 0.57634 0.51276 0.18728
 C1349 C 0.46781 -0.02385 0.13263
 N1350 N 0.45557 -0.03640 0.13714
 N1351 N 0.44456 -0.03372 0.15082
 C1352 C 0.44546 -0.01840 0.16039
 N1353 N 0.45771 -0.00585 0.15587
 N1354 N 0.46871 -0.00853 0.14220
 C1355 C 0.47966 -0.02674 0.11792
 C1356 C 0.48961 -0.02918 0.10556
 C1357 C 0.43361 -0.01552 0.17510
 C1358 C 0.42365 -0.01309 0.18746
 C1359 C 0.96772 0.47618 0.63237
 N1360 N 0.96173 0.46221 0.64215
 N1361 N 0.95075 0.46490 0.65585
 C1362 C 0.94544 0.48165 0.66017
 N1363 N 0.95144 0.49563 0.65038
 N1364 N 0.96242 0.49293 0.63669
 C1365 C 0.97953 0.47328 0.61762
 C1366 C 0.98945 0.47086 0.60523
 C1367 C 0.93361 0.48455 0.67489
 C1368 C 0.92366 0.48699 0.68726
 C1369 C 0.96756 0.52376 0.86781
 N1370 N 0.96826 0.50829 0.85848
 N1371 N 0.95727 0.50557 0.84481
 C1372 C 0.94524 0.51823 0.84006
 N1373 N 0.94453 0.53370 0.84939
 N1374 N 0.95553 0.53643 0.86306
 C1375 C 0.97940 0.52670 0.88253
 C1376 C 0.98936 0.52917 0.89488
 C1377 C 0.93341 0.51529 0.82533
 C1378 C 0.92346 0.51284 0.81296
 C1379 C 0.46749 0.02389 0.36801
 N1380 N 0.47403 0.02266 0.35124
 N1381 N 0.46305 0.01992 0.33755
 C1382 C 0.44520 0.01833 0.34023
 N1383 N 0.43867 0.01957 0.35701
 N1384 N 0.44965 0.02231 0.37070
 C1385 C 0.47931 0.02682 0.38275
 C1386 C 0.48924 0.02927 0.39513
 C1387 C 0.43338 0.01538 0.32550
 C1388 C 0.42345 0.01290 0.31313
   
