data_POSCAR
  _audit_creation_date              2014-09-24
  _audit_creation_method            'ToBaCCo'
  _symmetry_space_group_name_H-M    'P1'
  _symmetry_Int_Tables_number       1
  _symmetry_cell_setting            triclinic
  loop_
  _symmetry_equiv_pos_as_xyz
 x,y,z
_cell_length_a 99.3400
_cell_length_b 99.3107
_cell_length_c 99.8459
_cell_angle_alpha 89.976200
_cell_angle_beta 89.960700
_cell_angle_gamma 89.819200
loop_
  _atom_site_label
  _atom_site_type_symbol
  _atom_site_fract_x
  _atom_site_fract_y
  _atom_site_fract_z
N1 N 0.36014 0.32230 0.33309
 N2 N 0.35998 0.33187 0.32399
 C3 C 0.37039 0.32993 0.31551
 C4 C 0.37736 0.31848 0.31949
 C5 C 0.37053 0.31396 0.33070
 H6 H 0.37261 0.33623 0.30696
 H7 H 0.37299 0.30529 0.33677
 Cu8 Cu 0.34595 0.34567 0.32414
 Cu9 Cu 0.34697 0.32119 0.34743
 Cu10 Cu 0.32251 0.34601 0.34855
 N11 N 0.33219 0.35972 0.32505
 N12 N 0.32312 0.35972 0.33463
 C13 C 0.31480 0.37028 0.33296
 C14 C 0.31879 0.37738 0.32170
 C15 C 0.32992 0.37035 0.31694
 H16 H 0.30645 0.37257 0.33952
 H17 H 0.33586 0.37271 0.30819
 N18 N 0.32355 0.33128 0.36173
 N19 N 0.33282 0.32176 0.36120
 C20 C 0.33082 0.31307 0.37136
 C21 C 0.31976 0.31732 0.37868
 C22 C 0.31542 0.32892 0.37227
 H23 H 0.33703 0.30436 0.37335
 H24 H 0.30685 0.33507 0.37498
 H25 H 0.33155 0.33096 0.33746
 H26 H 0.34284 0.34159 0.34801
 N27 N 0.35931 0.82105 -0.16804
 N28 N 0.36127 0.83176 -0.17550
 C29 C 0.37269 0.83011 -0.18258
 C30 C 0.37823 0.81762 -0.17943
 C31 C 0.36933 0.81219 -0.17014
 H32 H 0.37652 0.83744 -0.18960
 H33 H 0.36993 0.80250 -0.16525
 Cu34 Cu 0.34830 0.84646 -0.17557
 Cu35 Cu 0.34361 0.81917 -0.15658
 Cu36 Cu 0.32551 0.84861 -0.15088
 N37 N 0.33405 0.85989 -0.17594
 N38 N 0.32509 0.86074 -0.16630
 C39 C 0.31682 0.87123 -0.16875
 C40 C 0.32079 0.87733 -0.18068
 C41 C 0.33176 0.86973 -0.18492
 H42 H 0.30865 0.87415 -0.16222
 H43 H 0.33788 0.87129 -0.19373
 N44 N 0.32400 0.83250 -0.13937
 N45 N 0.33074 0.82129 -0.14176
 C46 C 0.32787 0.81224 -0.13217
 C47 C 0.31879 0.81794 -0.12327
 C48 C 0.31653 0.83082 -0.12823
 H49 H 0.33239 0.80235 -0.13162
 H50 H 0.30998 0.83845 -0.12406
 H51 H 0.33060 0.83412 -0.16396
 H52 H 0.34448 0.83926 -0.15247
 N53 N 0.86008 0.32387 -0.16873
 N54 N 0.85916 0.33290 -0.17830
 C55 C 0.86943 0.33120 -0.18692
 C56 C 0.87722 0.32046 -0.18257
 C57 C 0.87095 0.31606 -0.17096
 H58 H 0.87120 0.33743 -0.19561
 H59 H 0.87400 0.30779 -0.16461
 Cu60 Cu 0.84473 0.34607 -0.17814
 Cu61 Cu 0.84720 0.32309 -0.15396
 Cu62 Cu 0.82225 0.34786 -0.15332
 N63 N 0.83135 0.36029 -0.17774
 N64 N 0.82260 0.36107 -0.16790
 C65 C 0.81467 0.37193 -0.16984
 C66 C 0.81865 0.37833 -0.18160
 C67 C 0.82932 0.37057 -0.18627
 H68 H 0.80659 0.37483 -0.16318
 H69 H 0.83531 0.37229 -0.19512
 N70 N 0.82377 0.33349 -0.13963
 N71 N 0.83323 0.32412 -0.13995
 C72 C 0.83151 0.31575 -0.12950
 C73 C 0.82044 0.31997 -0.12219
 C74 C 0.81579 0.33129 -0.12892
 H75 H 0.83791 0.30721 -0.12737
 H76 H 0.80713 0.33735 -0.12634
 H77 H 0.83106 0.33209 -0.16350
 H78 H 0.84254 0.34340 -0.15404
 N79 N 0.86007 0.82371 0.33333
 N80 N 0.86012 0.83278 0.32373
 C81 C 0.87080 0.83049 0.31569
 C82 C 0.87781 0.81936 0.32049
 C83 C 0.87064 0.81539 0.33172
 H84 H 0.87324 0.83644 0.30696
 H85 H 0.87290 0.80708 0.33833
 Cu86 Cu 0.84615 0.84666 0.32276
 Cu87 Cu 0.84641 0.82318 0.34729
 Cu88 Cu 0.82209 0.84806 0.34646
 N89 N 0.83255 0.86094 0.32288
 N90 N 0.82326 0.86129 0.33224
 C91 C 0.81521 0.87197 0.33026
 C92 C 0.81956 0.87888 0.31898
 C93 C 0.83066 0.87150 0.31456
 H94 H 0.80678 0.87442 0.33664
 H95 H 0.83695 0.87363 0.30599
 N96 N 0.82245 0.83386 0.36013
 N97 N 0.83173 0.82436 0.36053
 C98 C 0.82930 0.81631 0.37113
 C99 C 0.81790 0.82097 0.37771
 C100 C 0.81387 0.83213 0.37041
 H101 H 0.83534 0.80765 0.37381
 H102 H 0.80541 0.83863 0.37252
 H103 H 0.83150 0.83241 0.33632
 H104 H 0.84250 0.84353 0.34671
 N105 N 0.64123 0.67816 0.33498
 N106 N 0.64076 0.66918 0.32534
 C107 C 0.63006 0.67181 0.31748
 C108 C 0.62345 0.68306 0.32245
 C109 C 0.63088 0.68681 0.33358
 H110 H 0.62732 0.66598 0.30877
 H111 H 0.62885 0.69510 0.34030
 Cu112 Cu 0.65403 0.65480 0.32416
 Cu113 Cu 0.65507 0.67785 0.34878
 Cu114 Cu 0.67874 0.65218 0.34698
 N115 N 0.66743 0.64053 0.32319
 N116 N 0.67697 0.63948 0.33224
 C117 C 0.68469 0.62870 0.32942
 C118 C 0.67976 0.62264 0.31795
 C119 C 0.66879 0.63046 0.31427
 H120 H 0.69334 0.62560 0.33523
 H121 H 0.66220 0.62881 0.30583
 N122 N 0.67884 0.66601 0.36112
 N123 N 0.66985 0.67579 0.36179
 C124 C 0.67260 0.68356 0.37249
 C125 C 0.68389 0.67844 0.37890
 C126 C 0.68754 0.66730 0.37136
 H127 H 0.66686 0.69236 0.37534
 H128 H 0.69588 0.66056 0.37324
 H129 H 0.66958 0.66825 0.33742
 H130 H 0.65858 0.65736 0.34801
 N131 N 0.63969 0.17703 -0.16704
 N132 N 0.63964 0.16725 -0.17589
 C133 C 0.62929 0.16923 -0.18443
 C134 C 0.62254 0.18091 -0.18069
 C135 C 0.62947 0.18552 -0.16960
 H136 H 0.62695 0.16277 -0.19281
 H137 H 0.62721 0.19436 -0.16371
 Cu138 Cu 0.65327 0.15305 -0.17536
 Cu139 Cu 0.65294 0.17830 -0.15284
 Cu140 Cu 0.67793 0.15405 -0.15214
 N141 N 0.66777 0.13975 -0.17502
 N142 N 0.67738 0.14034 -0.16602
 C143 C 0.68608 0.13014 -0.16802
 C144 C 0.68174 0.12259 -0.17889
 C145 C 0.67002 0.12908 -0.18306
 H146 H 0.69483 0.12837 -0.16185
 H147 H 0.66362 0.12633 -0.19135
 N148 N 0.67675 0.16872 -0.13893
 N149 N 0.66718 0.17794 -0.13922
 C150 C 0.66896 0.18649 -0.12893
 C151 C 0.68020 0.18249 -0.12176
 C152 C 0.68487 0.17115 -0.12841
 H153 H 0.66244 0.19494 -0.12675
 H154 H 0.69358 0.16515 -0.12583
 H155 H 0.66801 0.16845 -0.16334
 H156 H 0.65753 0.15798 -0.15179
 N157 N 0.14179 0.67807 -0.16772
 N158 N 0.14088 0.66782 -0.17597
 C159 C 0.12970 0.66932 -0.18348
 C160 C 0.12332 0.68121 -0.17975
 C161 C 0.13134 0.68644 -0.16970
 H162 H 0.12660 0.66243 -0.19127
 H163 H 0.12978 0.69567 -0.16417
 Cu164 Cu 0.15483 0.65394 -0.17637
 Cu165 Cu 0.15665 0.68032 -0.15541
 Cu166 Cu 0.17734 0.65260 -0.15097
 N167 N 0.16805 0.63947 -0.17494
 N168 N 0.17661 0.63894 -0.16492
 C169 C 0.18464 0.62813 -0.16642
 C170 C 0.18097 0.62142 -0.17801
 C171 C 0.17034 0.62892 -0.18314
 H172 H 0.19265 0.62544 -0.15959
 H173 H 0.16484 0.62699 -0.19227
 N174 N 0.17665 0.66775 -0.13826
 N175 N 0.16903 0.67845 -0.14023
 C176 C 0.17085 0.68716 -0.13010
 C177 C 0.18015 0.68175 -0.12126
 C178 C 0.18362 0.66941 -0.12680
 H179 H 0.16573 0.69673 -0.12927
 H180 H 0.19068 0.66216 -0.12280
 H181 H 0.17120 0.66722 -0.16365
 H182 H 0.15775 0.65966 -0.15292
 N183 N 0.13968 0.17641 0.33291
 N184 N 0.13998 0.16732 0.32336
 C185 C 0.12963 0.16947 0.31495
 C186 C 0.12240 0.18054 0.31939
 C187 C 0.12909 0.18468 0.33086
 H188 H 0.12747 0.16333 0.30630
 H189 H 0.12655 0.19315 0.33719
 Cu190 Cu 0.15376 0.15344 0.32267
 Cu191 Cu 0.15315 0.17680 0.34712
 Cu192 Cu 0.17772 0.15186 0.34630
 N193 N 0.16730 0.13931 0.32266
 N194 N 0.17668 0.13872 0.33189
 C195 C 0.18465 0.12798 0.32952
 C196 C 0.18000 0.12146 0.31816
 C197 C 0.16896 0.12897 0.31410
 H198 H 0.19321 0.12521 0.33561
 H199 H 0.16250 0.12701 0.30563
 N200 N 0.17710 0.16600 0.36010
 N201 N 0.16770 0.17542 0.36054
 C202 C 0.17004 0.18345 0.37116
 C203 C 0.18150 0.17890 0.37768
 C204 C 0.18566 0.16782 0.37036
 H205 H 0.16399 0.19210 0.37384
 H206 H 0.19425 0.16146 0.37244
 H207 H 0.16830 0.16761 0.33635
 H208 H 0.15731 0.15643 0.34663
 N209 N 0.63940 0.32430 0.66752
 N210 N 0.64034 0.33384 0.67656
 C211 C 0.63010 0.33262 0.68532
 C212 C 0.62230 0.32170 0.68157
 C213 C 0.62856 0.31668 0.67020
 H214 H 0.62839 0.33926 0.69372
 H215 H 0.62555 0.30806 0.66433
 Cu216 Cu 0.65481 0.34698 0.67599
 Cu217 Cu 0.65226 0.32247 0.65291
 Cu218 Cu 0.67791 0.34600 0.65131
 N219 N 0.66902 0.36035 0.67469
 N220 N 0.67810 0.35984 0.66513
 C221 C 0.68673 0.37015 0.66664
 C222 C 0.68282 0.37760 0.67772
 C223 C 0.67152 0.37106 0.68256
 H224 H 0.69512 0.37217 0.66005
 H225 H 0.66565 0.37381 0.69125
 N226 N 0.67597 0.33123 0.63826
 N227 N 0.66620 0.32228 0.63889
 C228 C 0.66754 0.31360 0.62862
 C229 C 0.67868 0.31723 0.62111
 C230 C 0.68376 0.32847 0.62756
 H231 H 0.66079 0.30532 0.62668
 H232 H 0.69254 0.33420 0.62473
 H233 H 0.66830 0.33147 0.66255
 H234 H 0.65740 0.34266 0.65210
 N235 N 0.63937 0.82412 1.16794
 N236 N 0.64007 0.83390 1.17677
 C237 C 0.62993 0.83255 1.18562
 C238 C 0.62242 0.82134 1.18213
 C239 C 0.62876 0.81625 1.17084
 H240 H 0.62807 0.83931 1.19390
 H241 H 0.62597 0.80742 1.16519
 Cu242 Cu 0.65413 0.84746 1.17571
 Cu243 Cu 0.65220 0.82228 1.15331
 Cu244 Cu 0.67770 0.84597 1.15154
 N245 N 0.66862 0.86057 1.17472
 N246 N 0.67783 0.85988 1.16528
 C247 C 0.68659 0.87006 1.16686
 C248 C 0.68267 0.87760 1.17788
 C249 C 0.67121 0.87125 1.18261
 H250 H 0.69508 0.87191 1.16035
 H251 H 0.66527 0.87411 1.19122
 N252 N 0.67583 0.83113 1.13857
 N253 N 0.66612 0.82212 1.13925
 C254 C 0.66748 0.81342 1.12901
 C255 C 0.67858 0.81710 1.12145
 C256 C 0.68361 0.82839 1.12785
 H257 H 0.66077 0.80509 1.12711
 H258 H 0.69233 0.83417 1.12497
 H259 H 0.66798 0.83168 1.16302
 H260 H 0.65723 0.84244 1.15199
 N261 N 0.13989 0.32428 1.16707
 N262 N 0.14016 0.33393 1.17606
 C263 C 0.12985 0.33226 1.18464
 C264 C 0.12266 0.32094 1.18086
 C265 C 0.12936 0.31615 1.16962
 H266 H 0.12769 0.33885 1.19297
 H267 H 0.12688 0.30734 1.16379
 Cu268 Cu 0.15392 0.34782 1.17580
 Cu269 Cu 0.15327 0.32293 1.15278
 Cu270 Cu 0.17831 0.34715 1.15259
 N271 N 0.16823 0.36118 1.17563
 N272 N 0.17775 0.36077 1.16652
 C273 C 0.18639 0.37094 1.16860
 C274 C 0.18210 0.37820 1.17963
 C275 C 0.17050 0.37171 1.18384
 H276 H 0.19509 0.37295 1.16242
 H277 H 0.16427 0.37434 1.19233
 N278 N 0.17728 0.33266 1.13928
 N279 N 0.16777 0.32342 1.13922
 C280 C 0.16994 0.31503 1.12879
 C281 C 0.18139 0.31921 1.12202
 C282 C 0.18571 0.33042 1.12898
 H283 H 0.16372 0.30646 1.12639
 H284 H 0.19430 0.33662 1.12663
 H285 H 0.16828 0.33230 1.16337
 H286 H 0.15778 0.34309 1.15214
 N287 N 0.13968 0.82290 0.66736
 N288 N 0.13998 0.83197 0.67693
 C289 C 0.12976 0.82971 0.68547
 C290 C 0.12263 0.81861 0.68107
 C291 C 0.12921 0.81456 0.66949
 H292 H 0.12759 0.83576 0.69421
 H293 H 0.12672 0.80607 0.66321
 Cu294 Cu 0.15363 0.84592 0.67745
 Cu295 Cu 0.15308 0.82252 0.65306
 Cu296 Cu 0.17741 0.84754 0.65361
 N297 N 0.16707 0.86010 0.67735
 N298 N 0.17638 0.86069 0.66804
 C299 C 0.18431 0.87141 0.67034
 C300 C 0.17972 0.87795 0.68175
 C301 C 0.16874 0.87044 0.68589
 H302 H 0.19279 0.87417 0.66416
 H303 H 0.16237 0.87237 0.69445
 N304 N 0.17680 0.83337 0.63981
 N305 N 0.16753 0.82388 0.63953
 C306 C 0.16989 0.81580 0.62893
 C307 C 0.18120 0.82041 0.62222
 C308 C 0.18527 0.83158 0.62944
 H309 H 0.16391 0.80711 0.62639
 H310 H 0.19374 0.83800 0.62727
 H311 H 0.16824 0.83180 0.66368
 H312 H 0.15708 0.84292 0.65345
 N313 N 0.36007 0.67543 0.66794
 N314 N 0.35939 0.66614 0.67729
 C315 C 0.36957 0.66792 0.68600
 C316 C 0.37709 0.67891 0.68191
 C317 C 0.37074 0.68341 0.67037
 H318 H 0.37144 0.66160 0.69461
 H319 H 0.37354 0.69196 0.66430
 Cu320 Cu 0.34529 0.65258 0.67731
 Cu321 Cu 0.34692 0.67660 0.65344
 Cu322 Cu 0.32196 0.65230 0.65304
 N323 N 0.33144 0.63876 0.67663
 N324 N 0.32233 0.63879 0.66711
 C325 C 0.31396 0.62834 0.66891
 C326 C 0.31800 0.62129 0.68019
 C327 C 0.32917 0.62821 0.68482
 H328 H 0.30562 0.62600 0.66238
 H329 H 0.33512 0.62584 0.69357
 N330 N 0.32317 0.66673 0.63962
 N331 N 0.33265 0.67600 0.63966
 C332 C 0.33061 0.68437 0.62919
 C333 C 0.31928 0.68016 0.62227
 C334 C 0.31489 0.66893 0.62920
 H335 H 0.33683 0.69298 0.62688
 H336 H 0.30633 0.66272 0.62679
 H337 H 0.33140 0.66753 0.66365
 H338 H 0.34244 0.65635 0.65335
 N339 N 0.36046 0.17592 1.16764
 N340 N 0.35978 0.16668 1.17704
 C341 C 0.36996 0.16849 1.18573
 C342 C 0.37747 0.17947 1.18160
 C343 C 0.37113 0.18391 1.17003
 H344 H 0.37185 0.16221 1.19437
 H345 H 0.37394 0.19244 1.16392
 Cu346 Cu 0.34576 0.15305 1.17715
 Cu347 Cu 0.34731 0.17700 1.15313
 Cu348 Cu 0.32257 0.15250 1.15274
 N349 N 0.33204 0.13910 1.17639
 N350 N 0.32303 0.13900 1.16678
 C351 C 0.31478 0.12844 1.16850
 C352 C 0.31878 0.12145 1.17983
 C353 C 0.32982 0.12853 1.18457
 H354 H 0.30654 0.12602 1.16188
 H355 H 0.33574 0.12622 1.19336
 N356 N 0.32364 0.16692 1.13934
 N357 N 0.33303 0.17628 1.13935
 C358 C 0.33086 0.18464 1.12890
 C359 C 0.31952 0.18032 1.12203
 C360 C 0.31529 0.16905 1.12896
 H361 H 0.33696 0.19332 1.12656
 H362 H 0.30678 0.16275 1.12659
 H363 H 0.33188 0.16790 1.16337
 H364 H 0.34307 0.15675 1.15316
 N365 N 0.86084 0.67740 1.16715
 N366 N 0.86098 0.66762 1.17601
 C367 C 0.87129 0.66965 1.18457
 C368 C 0.87789 0.68138 1.18086
 C369 C 0.87094 0.68596 1.16975
 H370 H 0.87370 0.66321 1.19297
 H371 H 0.87314 0.69481 1.16386
 Cu372 Cu 0.84747 0.65337 1.17547
 Cu373 Cu 0.84771 0.67849 1.15283
 Cu374 Cu 0.82299 0.65413 1.15197
 N375 N 0.83305 0.64006 1.17512
 N376 N 0.82352 0.64052 1.16600
 C377 C 0.81482 0.63040 1.16813
 C378 C 0.81906 0.62312 1.17919
 C379 C 0.83070 0.62956 1.18336
 H380 H 0.80609 0.62843 1.16198
 H381 H 0.83688 0.62692 1.19188
 N382 N 0.82418 0.66874 1.13864
 N383 N 0.83363 0.67802 1.13904
 C384 C 0.83188 0.68657 1.12873
 C385 C 0.82077 0.68254 1.12142
 C386 C 0.81615 0.67116 1.12803
 H387 H 0.83833 0.69504 1.12664
 H388 H 0.80752 0.66513 1.12536
 H389 H 0.83258 0.66856 1.16322
 H390 H 0.84330 0.65810 1.15183
 N391 N 0.86057 0.17543 0.66760
 N392 N 0.85900 0.16658 0.67725
 C393 C 0.86913 0.16793 0.68611
 C394 C 0.87751 0.17823 0.68182
 C395 C 0.87169 0.18273 0.67000
 H396 H 0.87027 0.16184 0.69501
 H397 H 0.87512 0.19085 0.66368
 Cu398 Cu 0.84389 0.15415 0.67743
 Cu399 Cu 0.84782 0.17724 0.65294
 Cu400 Cu 0.82004 0.15626 0.65356
 N401 N 0.83041 0.14016 0.67506
 N402 N 0.82111 0.14105 0.66577
 C403 C 0.81280 0.13044 0.66676
 C404 C 0.81710 0.12235 0.67727
 C405 C 0.82836 0.12889 0.68227
 H406 H 0.80416 0.12889 0.66038
 H407 H 0.83450 0.12584 0.69068
 N408 N 0.82305 0.16976 0.63943
 N409 N 0.83373 0.17761 0.63908
 C410 C 0.83292 0.18564 0.62824
 C411 C 0.82118 0.18269 0.62137
 C412 C 0.81521 0.17253 0.62878
 H413 H 0.84035 0.19308 0.62554
 H414 H 0.80578 0.16756 0.62667
 H415 H 0.83162 0.17058 0.66359
 H416 H 0.84067 0.15756 0.65351
 N417 N 0.32265 0.35986 0.66573
 N418 N 0.33209 0.36017 0.67494
 C419 C 0.32977 0.37070 0.68316
 C420 C 0.31824 0.37734 0.67888
 C421 C 0.31403 0.37012 0.66777
 H422 H 0.33593 0.37323 0.69170
 H423 H 0.30537 0.37219 0.66156
 Cu424 Cu 0.34643 0.34672 0.67534
 Cu425 Cu 0.32206 0.34617 0.65179
 Cu426 Cu 0.34677 0.32159 0.65277
 N427 N 0.36005 0.33253 0.67587
 N428 N 0.35998 0.32274 0.66702
 C429 C 0.37023 0.31428 0.66955
 C430 C 0.37720 0.31892 0.68061
 C431 C 0.37044 0.33059 0.68436
 H432 H 0.37252 0.30545 0.66363
 H433 H 0.37283 0.33708 0.69270
 N434 N 0.33260 0.32204 0.63906
 N435 N 0.32321 0.33145 0.63858
 C436 C 0.31511 0.32901 0.62804
 C437 C 0.31959 0.31747 0.62161
 C438 C 0.33070 0.31336 0.62890
 H439 H 0.30648 0.33508 0.62534
 H440 H 0.33704 0.30474 0.62688
 H441 H 0.33160 0.33161 0.66305
 H442 H 0.34237 0.34198 0.65170
 N443 N 0.32491 0.86021 0.16690
 N444 N 0.33446 0.85977 0.17600
 C445 C 0.33268 0.87000 0.18466
 C446 C 0.32143 0.87728 0.18081
 C447 C 0.31676 0.87077 0.16946
 H448 H 0.33915 0.87202 0.19312
 H449 H 0.30797 0.87335 0.16362
 Cu450 Cu 0.34828 0.84588 0.17577
 Cu451 Cu 0.32355 0.84686 0.15265
 Cu452 Cu 0.34752 0.82142 0.15262
 N453 N 0.36155 0.83144 0.17564
 N454 N 0.36112 0.82189 0.16656
 C455 C 0.37131 0.81321 0.16865
 C456 C 0.37859 0.81751 0.17965
 C457 C 0.37208 0.82914 0.18384
 H458 H 0.37333 0.80449 0.16248
 H459 H 0.37473 0.83541 0.19227
 N460 N 0.33304 0.82262 0.13930
 N461 N 0.32397 0.83235 0.13914
 C462 C 0.31557 0.83033 0.12873
 C463 C 0.31953 0.81873 0.12208
 C464 C 0.33064 0.81416 0.12907
 H465 H 0.30708 0.83671 0.12629
 H466 H 0.33664 0.80537 0.12679
 H467 H 0.33276 0.83166 0.16332
 H468 H 0.34370 0.84197 0.15210
 N469 N 0.82268 0.36065 0.16559
 N470 N 0.83208 0.36143 0.17480
 C471 C 0.82954 0.37211 0.18272
 C472 C 0.81789 0.37836 0.17825
 C473 C 0.81382 0.37078 0.16735
 H474 H 0.83562 0.37504 0.19120
 H475 H 0.80517 0.37257 0.16104
 Cu476 Cu 0.84672 0.34838 0.17554
 Cu477 Cu 0.82272 0.34677 0.15185
 Cu478 Cu 0.84839 0.32310 0.15318
 N479 N 0.86082 0.33477 0.17638
 N480 N 0.86141 0.32494 0.16761
 C481 C 0.87209 0.31705 0.17038
 C482 C 0.87860 0.32219 0.18152
 C483 C 0.87112 0.33345 0.18506
 H484 H 0.87482 0.30819 0.16472
 H485 H 0.87308 0.34026 0.19326
 N486 N 0.83427 0.32297 0.13934
 N487 N 0.82451 0.33199 0.13884
 C488 C 0.81664 0.32935 0.12819
 C489 C 0.82166 0.31812 0.12164
 C490 C 0.83285 0.31435 0.12904
 H491 H 0.80786 0.33518 0.12545
 H492 H 0.83959 0.30605 0.12696
 H493 H 0.83278 0.33251 0.16320
 H494 H 0.84325 0.34324 0.15192
 N495 N 0.82383 0.86124 0.66732
 N496 N 0.83314 0.86110 0.67666
 C497 C 0.83096 0.87137 0.68517
 C498 C 0.81966 0.87839 0.68100
 C499 C 0.81541 0.87167 0.66958
 H500 H 0.83721 0.87364 0.69371
 H501 H 0.80673 0.87405 0.66348
 Cu502 Cu 0.84726 0.84758 0.67698
 Cu503 Cu 0.82336 0.84767 0.65314
 Cu504 Cu 0.84850 0.82325 0.65378
 N505 N 0.86117 0.83383 0.67732
 N506 N 0.86171 0.82437 0.66814
 C507 C 0.87231 0.81627 0.67067
 C508 C 0.87875 0.82089 0.68208
 C509 C 0.87137 0.83205 0.68601
 H510 H 0.87500 0.80757 0.66474
 H511 H 0.87335 0.83848 0.69450
 N512 N 0.83427 0.82379 0.64006
 N513 N 0.82471 0.83305 0.63975
 C514 C 0.81660 0.83059 0.62921
 C515 C 0.82126 0.81922 0.62259
 C516 C 0.83248 0.81523 0.62979
 H517 H 0.80786 0.83656 0.62664
 H518 H 0.83897 0.80675 0.62765
 H519 H 0.83290 0.83273 0.66389
 H520 H 0.84372 0.84360 0.65313
 N521 N 0.67692 0.64042 0.66610
 N522 N 0.66735 0.63997 0.67520
 C523 C 0.66966 0.62941 0.68338
 C524 C 0.68132 0.62295 0.67920
 C525 C 0.68562 0.63025 0.66821
 H526 H 0.66343 0.62673 0.69184
 H527 H 0.69436 0.62824 0.66206
 Cu528 Cu 0.65287 0.65327 0.67548
 Cu529 Cu 0.67745 0.65401 0.65209
 Cu530 Cu 0.65245 0.67825 0.65272
 N531 N 0.63921 0.66743 0.67592
 N532 N 0.63921 0.67709 0.66694
 C533 C 0.62886 0.68547 0.66929
 C534 C 0.62188 0.68093 0.68040
 C535 C 0.62877 0.66939 0.68436
 H536 H 0.62656 0.69418 0.66322
 H537 H 0.62640 0.66294 0.69275
 N538 N 0.66667 0.67784 0.63908
 N539 N 0.67622 0.66860 0.63877
 C540 C 0.68433 0.67103 0.62823
 C541 C 0.67966 0.68237 0.62160
 C542 C 0.66844 0.68639 0.62879
 H543 H 0.69306 0.66504 0.62565
 H544 H 0.66193 0.69484 0.62661
 H545 H 0.66764 0.66846 0.66321
 H546 H 0.65710 0.65789 0.65184
 N547 N 0.67724 0.14024 0.16599
 N548 N 0.66796 0.14019 0.17539
 C549 C 0.67020 0.12964 0.18361
 C550 C 0.68153 0.12277 0.17915
 C551 C 0.68569 0.12983 0.16794
 H552 H 0.66417 0.12725 0.19230
 H553 H 0.69418 0.12751 0.16157
 Cu554 Cu 0.65404 0.15408 0.17602
 Cu555 Cu 0.67782 0.15374 0.15186
 Cu556 Cu 0.65281 0.17802 0.15223
 N557 N 0.63981 0.16769 0.17582
 N558 N 0.63951 0.17696 0.16644
 C559 C 0.62891 0.18512 0.16848
 C560 C 0.62209 0.18085 0.17980
 C561 C 0.62932 0.16969 0.18420
 H562 H 0.62637 0.19353 0.16209
 H563 H 0.62718 0.16355 0.19287
 N564 N 0.66710 0.17750 0.13863
 N565 N 0.67665 0.16825 0.13843
 C566 C 0.68483 0.17061 0.12791
 C567 C 0.68022 0.18194 0.12118
 C568 C 0.66896 0.18600 0.12830
 H569 H 0.69356 0.16461 0.12543
 H570 H 0.66249 0.19447 0.12607
 H571 H 0.66836 0.16873 0.16257
 H572 H 0.65744 0.15765 0.15210
 N573 N 0.17704 0.63949 0.16769
 N574 N 0.16747 0.63962 0.17677
 C575 C 0.16945 0.62924 0.18528
 C576 C 0.18094 0.62231 0.18132
 C577 C 0.18543 0.62913 0.17010
 H578 H 0.16317 0.62703 0.19385
 H579 H 0.19413 0.62672 0.16405
 Cu580 Cu 0.15369 0.65368 0.17658
 Cu581 Cu 0.17817 0.65271 0.15339
 Cu582 Cu 0.15354 0.67743 0.15247
 N583 N 0.13976 0.66755 0.17588
 N584 N 0.13989 0.67684 0.16649
 C585 C 0.12950 0.68535 0.16844
 C586 C 0.12240 0.68120 0.17965
 C587 C 0.12921 0.66983 0.18409
 H588 H 0.12727 0.69389 0.16211
 H589 H 0.12682 0.66383 0.19280
 N590 N 0.16824 0.67628 0.13920
 N591 N 0.17766 0.66690 0.13966
 C592 C 0.18632 0.66882 0.12948
 C593 C 0.18219 0.67993 0.12219
 C594 C 0.17065 0.68440 0.12864
 H595 H 0.19496 0.66250 0.12744
 H596 H 0.16459 0.69303 0.12596
 H597 H 0.16846 0.66818 0.16346
 H598 H 0.15778 0.65711 0.15275
 N599 N 0.17681 0.13848 0.66714
 N600 N 0.16727 0.13837 0.67625
 C601 C 0.16935 0.12800 0.68466
 C602 C 0.18085 0.12116 0.68069
 C603 C 0.18531 0.12812 0.66947
 H604 H 0.16290 0.12558 0.69302
 H605 H 0.19412 0.12591 0.66349
 Cu606 Cu 0.15298 0.15174 0.67645
 Cu607 Cu 0.17736 0.15209 0.65301
 Cu608 Cu 0.15210 0.17636 0.65350
 N609 N 0.13906 0.16550 0.67671
 N610 N 0.13876 0.17515 0.66772
 C611 C 0.12817 0.18326 0.67019
 C612 C 0.12143 0.17846 0.68137
 C613 C 0.12867 0.16716 0.68522
 H614 H 0.12565 0.19205 0.66431
 H615 H 0.12650 0.16055 0.69354
 N616 N 0.16645 0.17592 0.63990
 N617 N 0.17606 0.16673 0.63964
 C618 C 0.18415 0.16917 0.62906
 C619 C 0.17938 0.18044 0.62232
 C620 C 0.16814 0.18440 0.62953
 H621 H 0.19285 0.16316 0.62647
 H622 H 0.16155 0.19278 0.62735
 H623 H 0.16754 0.16683 0.66382
 H624 H 0.15698 0.15605 0.65274
 N625 N 0.32401 0.63911 0.33238
 N626 N 0.33327 0.63985 0.32301
 C627 C 0.33151 0.62970 0.31426
 C628 C 0.32055 0.62215 0.31835
 C629 C 0.31605 0.62844 0.32992
 H630 H 0.33783 0.62782 0.30565
 H631 H 0.30753 0.62558 0.33602
 Cu632 Cu 0.34682 0.65387 0.32333
 Cu633 Cu 0.32297 0.65214 0.34696
 Cu634 Cu 0.34728 0.67728 0.34756
 N635 N 0.36041 0.66785 0.32366
 N636 N 0.36067 0.67696 0.33320
 C637 C 0.37116 0.68528 0.33108
 C638 C 0.37781 0.68116 0.31955
 C639 C 0.37068 0.67005 0.31517
 H640 H 0.37366 0.69375 0.33738
 H641 H 0.37290 0.66391 0.30651
 N642 N 0.33284 0.67579 0.36112
 N643 N 0.32363 0.66624 0.36085
 C644 C 0.31518 0.66797 0.37125
 C645 C 0.31921 0.67915 0.37849
 C646 C 0.33047 0.68383 0.37175
 H647 H 0.30674 0.66150 0.37343
 H648 H 0.33642 0.69256 0.37429
 H649 H 0.33210 0.66794 0.33699
 H650 H 0.34323 0.65690 0.34730
 N651 N 0.32362 0.13938 0.83279
 N652 N 0.33283 0.13953 0.82335
 C653 C 0.33072 0.12919 0.81494
 C654 C 0.31955 0.12212 0.81927
 C655 C 0.31531 0.12889 0.83069
 H656 H 0.33695 0.12689 0.80637
 H657 H 0.30674 0.12647 0.83691
 Cu658 Cu 0.34680 0.15312 0.82293
 Cu659 Cu 0.32317 0.15294 0.84700
 Cu660 Cu 0.34823 0.17732 0.84614
 N661 N 0.36080 0.16670 0.82251
 N662 N 0.36134 0.17617 0.83166
 C663 C 0.37195 0.18418 0.82914
 C664 C 0.37844 0.17947 0.81776
 C665 C 0.37105 0.16834 0.81385
 H666 H 0.37464 0.19284 0.83510
 H667 H 0.37305 0.16183 0.80541
 N668 N 0.33410 0.17680 0.85998
 N669 N 0.32457 0.16757 0.86039
 C670 C 0.31655 0.17004 0.87101
 C671 C 0.32124 0.18139 0.87760
 C672 C 0.33238 0.18535 0.87028
 H673 H 0.30787 0.16409 0.87368
 H674 H 0.33886 0.19380 0.87235
 H675 H 0.33250 0.16791 0.83624
 H676 H 0.34348 0.15698 0.84681
 N677 N 0.82370 0.63839 0.83172
 N678 N 0.83314 0.63884 0.82251
 C679 C 0.83129 0.62866 0.81382
 C680 C 0.82011 0.62139 0.81779
 C681 C 0.81556 0.62788 0.82922
 H682 H 0.83768 0.62660 0.80529
 H683 H 0.80685 0.62528 0.83518
 Cu684 Cu 0.84691 0.65266 0.82285
 Cu685 Cu 0.82259 0.65162 0.84607
 Cu686 Cu 0.84697 0.67666 0.84660
 N687 N 0.86049 0.66667 0.82316
 N688 N 0.86053 0.67607 0.83241
 C689 C 0.87102 0.68437 0.83020
 C690 C 0.87793 0.67991 0.81893
 C691 C 0.87090 0.66864 0.81479
 H692 H 0.87339 0.69301 0.83633
 H693 H 0.87322 0.66224 0.80636
 N694 N 0.83236 0.67541 0.86002
 N695 N 0.82314 0.66588 0.85976
 C696 C 0.81460 0.66771 0.87007
 C697 C 0.81858 0.67894 0.87723
 C698 C 0.82991 0.68355 0.87056
 H699 H 0.80615 0.66126 0.87225
 H700 H 0.83586 0.69228 0.87310
 H701 H 0.83204 0.66717 0.83587
 H702 H 0.84292 0.65633 0.84666
 N703 N 0.82410 0.13881 0.33110
 N704 N 0.83346 0.13949 0.32183
 C705 C 0.83174 0.12934 0.31308
 C706 C 0.82070 0.12185 0.31706
 C707 C 0.81612 0.12818 0.32858
 H708 H 0.83812 0.12744 0.30451
 H709 H 0.80750 0.12539 0.33457
 Cu710 Cu 0.84701 0.15353 0.32222
 Cu711 Cu 0.82294 0.15189 0.34562
 Cu712 Cu 0.84720 0.17706 0.34635
 N713 N 0.86058 0.16754 0.32261
 N714 N 0.86071 0.17672 0.33208
 C715 C 0.87116 0.18508 0.32999
 C716 C 0.87796 0.18092 0.31855
 C717 C 0.87092 0.16974 0.31419
 H718 H 0.87354 0.19363 0.33624
 H719 H 0.87323 0.16355 0.30560
 N720 N 0.83266 0.17558 0.35981
 N721 N 0.82345 0.16602 0.35947
 C722 C 0.81492 0.16776 0.36980
 C723 C 0.81888 0.17894 0.37706
 C724 C 0.83020 0.18362 0.37041
 H725 H 0.80646 0.16128 0.37192
 H726 H 0.83611 0.19235 0.37300
 H727 H 0.83217 0.16767 0.33568
 H728 H 0.84321 0.15670 0.34614
 N729 N 0.67548 0.36153 0.33080
 N730 N 0.66588 0.36070 0.32180
 C731 C 0.66735 0.37080 0.31290
 C732 C 0.67843 0.37840 0.31656
 C733 C 0.68332 0.37218 0.32799
 H734 H 0.66077 0.37257 0.30446
 H735 H 0.69206 0.37507 0.33376
 Cu736 Cu 0.65234 0.34657 0.32275
 Cu737 Cu 0.67725 0.34867 0.34543
 Cu738 Cu 0.65373 0.32301 0.34693
 N739 N 0.63926 0.33203 0.32364
 N740 N 0.63993 0.32282 0.33307
 C741 C 0.62982 0.31399 0.33142
 C742 C 0.62233 0.31785 0.32035
 C743 C 0.62865 0.32937 0.31568
 H744 H 0.62798 0.30548 0.33791
 H745 H 0.62580 0.33529 0.30705
 N746 N 0.66844 0.32493 0.36003
 N747 N 0.67738 0.33470 0.35947
 C748 C 0.68605 0.33331 0.36975
 C749 C 0.68240 0.32212 0.37719
 C750 C 0.67117 0.31708 0.37069
 H751 H 0.69434 0.34002 0.37173
 H752 H 0.66546 0.30826 0.37345
 H753 H 0.66808 0.33283 0.33560
 H754 H 0.65713 0.34350 0.34652
 N755 N 0.67500 0.86137 0.83093
 N756 N 0.66515 0.86071 0.82218
 C757 C 0.66637 0.87096 0.81342
 C758 C 0.67760 0.87848 0.81686
 C759 C 0.68281 0.87203 0.82804
 H760 H 0.65952 0.87285 0.80524
 H761 H 0.69165 0.87482 0.83368
 Cu762 Cu 0.65165 0.84656 0.82320
 Cu763 Cu 0.67692 0.84847 0.84551
 Cu764 Cu 0.65335 0.82287 0.84724
 N765 N 0.63865 0.83196 0.82414
 N766 N 0.63943 0.82269 0.83351
 C767 C 0.62937 0.81381 0.83185
 C768 C 0.62180 0.81769 0.82085
 C769 C 0.62801 0.82928 0.81621
 H770 H 0.62764 0.80524 0.83829
 H771 H 0.62510 0.83523 0.80762
 N772 N 0.66817 0.82477 0.86021
 N773 N 0.67717 0.83449 0.85953
 C774 C 0.68589 0.83310 0.86976
 C775 C 0.68222 0.82198 0.87729
 C776 C 0.67093 0.81697 0.87090
 H777 H 0.69421 0.83981 0.87167
 H778 H 0.66517 0.80821 0.87376
 H779 H 0.66753 0.83271 0.83575
 H780 H 0.65679 0.84337 0.84689
 N781 N 0.17778 0.35858 0.83369
 N782 N 0.16848 0.35940 0.82438
 C783 C 0.17039 0.37072 0.81723
 C784 C 0.18156 0.37737 0.82226
 C785 C 0.18597 0.36930 0.83274
 H786 H 0.16428 0.37369 0.80876
 H787 H 0.19457 0.37096 0.83915
 Cu788 Cu 0.15531 0.34516 0.82187
 Cu789 Cu 0.17902 0.34331 0.84583
 Cu790 Cu 0.15113 0.32243 0.84657
 N791 N 0.14001 0.33301 0.82220
 N792 N 0.13834 0.32429 0.83194
 C793 C 0.12715 0.31707 0.82959
 C794 C 0.12142 0.32150 0.81772
 C795 C 0.12990 0.33167 0.81333
 H796 H 0.12366 0.30899 0.83594
 H797 H 0.12884 0.33766 0.80435
 N798 N 0.16528 0.32202 0.86037
 N799 N 0.17599 0.32982 0.85997
 C800 C 0.18388 0.32700 0.87058
 C801 C 0.17790 0.31685 0.87800
 C802 C 0.16611 0.31397 0.87119
 H803 H 0.19335 0.33191 0.87264
 H804 H 0.15866 0.30655 0.87390
 H805 H 0.16748 0.32887 0.83597
 H806 H 0.15844 0.34206 0.84582
 N807 N 0.17882 0.85876 0.33249
 N808 N 0.16887 0.85983 0.32391
 C809 C 0.17058 0.87111 0.31660
 C810 C 0.18230 0.87741 0.32080
 C811 C 0.18722 0.86922 0.33093
 H812 H 0.16396 0.87430 0.30862
 H813 H 0.19629 0.87062 0.33672
 Cu814 Cu 0.15510 0.84600 0.32266
 Cu815 Cu 0.18058 0.84356 0.34453
 Cu816 Cu 0.15271 0.82281 0.34740
 N817 N 0.14058 0.83296 0.32327
 N818 N 0.13946 0.82415 0.33303
 C819 C 0.12851 0.81648 0.33084
 C820 C 0.12245 0.82070 0.31903
 C821 C 0.13041 0.83120 0.31456
 H822 H 0.12541 0.80823 0.33718
 H823 H 0.12890 0.83718 0.30564
 N824 N 0.16752 0.82297 0.36062
 N825 N 0.17821 0.83066 0.35921
 C826 C 0.18667 0.82846 0.36948
 C827 C 0.18116 0.81880 0.37783
 C828 C 0.16896 0.81555 0.37186
 H829 H 0.19611 0.83366 0.37076
 H830 H 0.16172 0.80825 0.37535
 H831 H 0.16788 0.82925 0.33553
 H832 H 0.15986 0.84244 0.34626
 C833 C 0.23949 0.95809 0.24847
 C834 C 0.24924 0.95807 0.23875
 C835 C 0.25496 0.97079 0.23884
 N836 N 0.24906 0.97853 0.24831
 C837 C 0.23954 0.97082 0.25416
 C838 C 0.26597 0.97473 0.23079
 C839 C 0.27094 0.98804 0.23008
 C840 C 0.28300 0.99166 0.22409
 C841 C 0.28394 1.00544 0.22503
 C842 C 0.27246 1.00987 0.23162
 N843 N 0.26452 0.99922 0.23451
 C844 C 0.26930 1.02354 0.23413
 C845 C 0.25892 1.02786 0.24283
 C846 C 0.25519 1.04119 0.24475
 C847 C 0.24540 1.04121 0.25442
 C848 C 0.24344 1.02790 0.25811
 N849 N 0.25182 1.01978 0.25110
 C850 C 0.23457 1.02361 0.26833
 C851 C 0.23199 1.00997 0.27146
 C852 C 0.22501 1.00562 0.28268
 C853 C 0.22412 0.99183 0.28176
 C854 C 0.23053 0.98813 0.26997
 N855 N 0.23516 0.99926 0.26370
 C856 C 0.23136 0.97480 0.26506
 H857 H 0.23313 0.94965 0.25109
 H858 H 0.25189 0.94963 0.23242
 H859 H 0.23897 0.99966 0.25405
 H860 H 0.29034 0.98507 0.21945
 H861 H 0.29214 1.01150 0.22124
 H862 H 0.25920 1.05002 0.23982
 H863 H 0.24042 1.05006 0.25838
 H864 H 0.21918 0.98530 0.28891
 H865 H 0.25468 0.99968 0.23795
 H866 H 0.22086 1.01172 0.29066
 C867 C 0.24453 0.54157 0.75516
 C868 C 0.25553 0.54148 0.74690
 C869 C 0.25859 0.52808 0.74437
 N870 N 0.24986 0.52002 0.75095
 C871 C 0.24125 0.52823 0.75758
 C872 C 0.26905 0.52368 0.73577
 C873 C 0.27207 0.51001 0.73291
 C874 C 0.28083 0.50587 0.72289
 C875 C 0.28078 0.49204 0.72290
 C876 C 0.27199 0.48803 0.73293
 N877 N 0.26690 0.49906 0.73914
 C878 C 0.26890 0.47440 0.73585
 C879 C 0.25853 0.47017 0.74462
 C880 C 0.25549 0.45683 0.74734
 C881 C 0.24461 0.45691 0.75577
 C882 C 0.24137 0.47031 0.75806
 N883 N 0.24989 0.47837 0.75121
 C884 C 0.23088 0.47473 0.76663
 C885 C 0.22764 0.48840 0.76924
 C886 C 0.21860 0.49258 0.77900
 C887 C 0.21852 0.50640 0.77883
 C888 C 0.22753 0.51038 0.76898
 N889 N 0.23285 0.49933 0.76301
 C890 C 0.23066 0.52400 0.76608
 H891 H 0.23958 0.55050 0.75899
 H892 H 0.26063 0.55032 0.74313
 H893 H 0.23901 0.49925 0.75465
 H894 H 0.28652 0.51215 0.71609
 H895 H 0.28642 0.48568 0.71611
 H896 H 0.26054 0.44791 0.74362
 H897 H 0.23970 0.44807 0.75978
 H898 H 0.21267 0.51279 0.78542
 H899 H 0.26100 0.49912 0.74769
 H900 H 0.21282 0.48633 0.78575
 C901 C 0.74896 0.04107 0.26028
 C902 C 0.73881 0.04116 0.25099
 C903 C 0.73851 0.02841 0.24537
 N904 N 0.74819 0.02056 0.25084
 C905 C 0.75456 0.02827 0.26001
 C906 C 0.72989 0.02451 0.23482
 C907 C 0.72849 0.01107 0.23034
 C908 C 0.72184 0.00729 0.21872
 C909 C 0.72225 -0.00655 0.21820
 C910 C 0.72917 -0.01085 0.22948
 N911 N 0.73281 -0.00006 0.23689
 C912 C 0.73147 -0.02449 0.23287
 C913 C 0.74082 -0.02875 0.24267
 C914 C 0.74241 -0.04194 0.24695
 C915 C 0.75296 -0.04200 0.25579
 C916 C 0.75742 -0.02882 0.25670
 N917 N 0.75006 -0.02076 0.24860
 C918 C 0.76859 -0.02463 0.26439
 C919 C 0.77208 -0.01101 0.26649
 C920 C 0.78399 -0.00672 0.27232
 C921 C 0.78320 0.00709 0.27328
 C922 C 0.77083 0.01085 0.26802
 N923 N 0.76408 -0.00024 0.26402
 C924 C 0.76589 0.02421 0.26759
 H925 H 0.75195 0.04951 0.26644
 H926 H 0.73242 0.04968 0.24860
 H927 H 0.75404 -0.00057 0.26119
 H928 H 0.71715 0.01382 0.21140
 H929 H 0.71795 -0.01273 0.21038
 H930 H 0.73665 -0.05066 0.24395
 H931 H 0.75692 -0.05076 0.26091
 H932 H 0.79084 0.01360 0.27745
 H933 H 0.73675 -0.00037 0.24651
 H934 H 0.79233 -0.01289 0.27566
 C935 C 0.73754 0.45842 0.75069
 C936 C 0.74692 0.45839 0.76076
 C937 C 0.75206 0.47134 0.76142
 N938 N 0.74619 0.47924 0.75205
 C939 C 0.73725 0.47138 0.74553
 C940 C 0.76255 0.47539 0.77004
 C941 C 0.76681 0.48888 0.77146
 C942 C 0.77864 0.49280 0.77768
 C943 C 0.77881 0.50665 0.77750
 C944 C 0.76706 0.51080 0.77122
 N945 N 0.75977 0.49990 0.76765
 C946 C 0.76307 0.52437 0.76959
 C947 C 0.75238 0.52852 0.76120
 C948 C 0.74717 0.54147 0.76072
 C949 C 0.73751 0.54151 0.75093
 C950 C 0.73715 0.52857 0.74572
 N951 N 0.74629 0.52067 0.75197
 C952 C 0.72899 0.52453 0.73486
 C953 C 0.72770 0.51102 0.73061
 C954 C 0.72197 0.50704 0.71859
 C955 C 0.72209 0.49319 0.71848
 C956 C 0.72788 0.48908 0.73045
 N957 N 0.73118 0.50001 0.73782
 C958 C 0.72932 0.47551 0.73453
 H959 H 0.73164 0.44985 0.74751
 H960 H 0.74969 0.44980 0.76684
 H961 H 0.73422 0.49997 0.74776
 H962 H 0.78634 0.48636 0.78194
 H963 H 0.78666 0.51295 0.78162
 H964 H 0.75004 0.55003 0.76678
 H965 H 0.73149 0.55010 0.74795
 H966 H 0.71828 0.48687 0.71053
 H967 H 0.74992 0.49999 0.76420
 H968 H 0.71806 0.51346 0.71073
 C969 C 0.24132 0.45794 0.25008
 C970 C 0.25185 0.45780 0.25893
 C971 C 0.25644 0.47093 0.25986
 N972 N 0.24916 0.47905 0.25171
 C973 C 0.23986 0.47114 0.24579
 C974 C 0.26766 0.47502 0.26753
 C975 C 0.27144 0.48861 0.26936
 C976 C 0.28345 0.49278 0.27507
 C977 C 0.28293 0.50661 0.27579
 C978 C 0.27061 0.51052 0.27051
 N979 N 0.26363 0.49949 0.26673
 C980 C 0.26588 0.52395 0.26995
 C981 C 0.25451 0.52809 0.26248
 C982 C 0.24903 0.54095 0.26278
 C983 C 0.23875 0.54110 0.25364
 C984 C 0.23825 0.52833 0.24807
 N985 N 0.24795 0.52042 0.25344
 C986 C 0.22945 0.52447 0.23766
 C987 C 0.22792 0.51103 0.23324
 C988 C 0.22122 0.50726 0.22166
 C989 C 0.22151 0.49342 0.22120
 C990 C 0.22841 0.48911 0.23249
 N991 N 0.23217 0.49990 0.23984
 C992 C 0.23057 0.47547 0.23595
 H993 H 0.23549 0.44927 0.24705
 H994 H 0.25574 0.44898 0.26402
 H995 H 0.23613 0.49961 0.24945
 H996 H 0.29168 0.48652 0.27851
 H997 H 0.29070 0.51305 0.27983
 H998 H 0.25217 0.54938 0.26888
 H999 H 0.23239 0.54967 0.25132
 H1000 H 0.21713 0.48724 0.21342
 H1001 H 0.25358 0.49931 0.26397
 H1002 H 0.21657 0.51380 0.21431
 C1003 C 0.75047 1.04274 0.74112
 C1004 C 0.74047 1.04275 0.75059
 C1005 C 0.73930 1.02960 0.75512
 N1006 N 0.74827 1.02159 0.74874
 C1007 C 0.75503 1.02957 0.74008
 C1008 C 0.73055 1.02544 0.76549
 C1009 C 0.72899 1.01191 0.76965
 C1010 C 0.72246 1.00793 0.78127
 C1011 C 0.72270 0.99408 0.78147
 C1012 C 0.72934 0.98995 0.76994
 N1013 N 0.73301 1.00089 0.76275
 C1014 C 0.73111 0.97635 0.76602
 C1015 C 0.73923 0.97219 0.75513
 C1016 C 0.73999 0.95910 0.75034
 C1017 C 0.74932 0.95912 0.74023
 C1018 C 0.75409 0.97219 0.73923
 N1019 N 0.74796 0.98013 0.74840
 C1020 C 0.76451 0.97630 0.73050
 C1021 C 0.76886 0.98978 0.72913
 C1022 C 0.78066 0.99365 0.72282
 C1023 C 0.78107 1.00749 0.72326
 C1024 C 0.76948 1.01171 0.72981
 N1025 N 0.76204 1.00085 0.73322
 C1026 C 0.76578 1.02534 0.73179
 H1027 H 0.75403 1.05147 0.73570
 H1028 H 0.73483 1.05148 0.75388
 H1029 H 0.75224 1.00101 0.73679
 H1030 H 0.71792 1.01434 0.78880
 H1031 H 0.71831 0.98779 0.78916
 H1032 H 0.73447 0.95039 0.75381
 H1033 H 0.75236 0.95044 0.73440
 H1034 H 0.78896 1.01372 0.71911
 H1035 H 0.73671 1.00086 0.75305
 H1036 H 0.78821 0.98718 0.71834
 C1037 C 0.75111 0.54197 0.26063
 C1038 C 0.76110 0.54212 0.25115
 C1039 C 0.76162 0.52929 0.24570
 N1040 N 0.75223 0.52134 0.25148
 C1041 C 0.74584 0.52906 0.26066
 C1042 C 0.77015 0.52538 0.23506
 C1043 C 0.77162 0.51191 0.23070
 C1044 C 0.77783 0.50805 0.21886
 C1045 C 0.77770 0.49420 0.21857
 C1046 C 0.77143 0.48998 0.23024
 N1047 N 0.76785 0.50083 0.23762
 C1048 C 0.76979 0.47637 0.23406
 C1049 C 0.76131 0.47212 0.24461
 C1050 C 0.76080 0.45909 0.24959
 C1051 C 0.75087 0.45894 0.25912
 C1052 C 0.74562 0.47188 0.25967
 N1053 N 0.75197 0.47990 0.25074
 C1054 C 0.73469 0.47586 0.26783
 C1055 C 0.73053 0.48940 0.26937
 C1056 C 0.71849 0.49342 0.27519
 C1057 C 0.71852 0.50727 0.27538
 C1058 C 0.73058 0.51134 0.26968
 N1059 N 0.73787 0.50038 0.26612
 C1060 C 0.73482 0.52487 0.26857
 H1061 H 0.74805 0.55043 0.26676
 H1062 H 0.76725 0.55071 0.24855
 H1063 H 0.74786 0.50039 0.26308
 H1064 H 0.78205 0.51454 0.21123
 H1065 H 0.78182 0.48796 0.21067
 H1066 H 0.76693 0.45056 0.24664
 H1067 H 0.74784 0.45028 0.26496
 H1068 H 0.71059 0.51362 0.27935
 H1069 H 0.76439 0.50064 0.24743
 H1070 H 0.71054 0.48704 0.27897
 C1071 C 0.24303 -0.04255 0.74818
 C1072 C 0.25163 -0.04258 0.75889
 C1073 C 0.25610 -0.02946 0.76044
 N1074 N 0.25056 -0.02145 0.75097
 C1075 C 0.24246 -0.02939 0.74352
 C1076 C 0.26571 -0.02535 0.77001
 C1077 C 0.26939 -0.01179 0.77227
 C1078 C 0.28036 -0.00778 0.77986
 C1079 C 0.28031 0.00607 0.77993
 C1080 C 0.26931 0.01016 0.77239
 N1081 N 0.26263 -0.00079 0.76789
 C1082 C 0.26556 0.02374 0.77022
 C1083 C 0.25605 0.02794 0.76053
 C1084 C 0.25159 0.04109 0.75896
 C1085 C 0.24321 0.04115 0.74807
 C1086 C 0.24272 0.02802 0.74337
 N1087 N 0.25069 0.02000 0.75094
 C1088 C 0.23560 0.02389 0.73182
 C1089 C 0.23435 0.01033 0.72766
 C1090 C 0.22893 0.00627 0.71552
 C1091 C 0.22877 -0.00757 0.71561
 C1092 C 0.23412 -0.01164 0.72779
 N1093 N 0.23734 -0.00066 0.73512
 C1094 C 0.23516 -0.02518 0.73209
 H1095 H 0.23792 -0.05128 0.74418
 H1096 H 0.25439 -0.05131 0.76478
 H1097 H 0.23998 -0.00064 0.74515
 H1098 H 0.28767 -0.01416 0.78482
 H1099 H 0.28757 0.01241 0.78495
 H1100 H 0.25421 0.04978 0.76493
 H1101 H 0.23817 0.04993 0.74402
 H1102 H 0.22499 -0.01390 0.70764
 H1103 H 0.25328 -0.00076 0.76328
 H1104 H 0.22527 0.01261 0.70748
 C1105 C 0.24416 0.25323 0.95762
 C1106 C 0.25426 0.24380 0.95761
 C1107 C 0.25753 0.24140 0.97090
 N1108 N 0.24969 0.24900 0.97898
 C1109 C 0.24149 0.25624 0.97093
 C1110 C 0.26744 0.23208 0.97522
 C1111 C 0.27094 0.22962 0.98878
 C1112 C 0.27986 0.21968 0.99291
 C1113 C 0.28045 0.22029 1.00664
 C1114 C 0.27184 0.23056 1.01061
 N1115 N 0.26630 0.23637 0.99964
 C1116 C 0.26918 0.23394 1.02416
 C1117 C 0.25869 0.24263 1.02847
 C1118 C 0.25550 0.24508 1.04177
 C1119 C 0.24450 0.25341 1.04179
 C1120 C 0.24141 0.25603 1.02850
 N1121 N 0.25008 0.24939 1.02040
 C1122 C 0.23102 0.26485 1.02423
 C1123 C 0.22833 0.26819 1.01069
 C1124 C 0.22005 0.27872 1.00671
 C1125 C 0.22040 0.27909 0.99296
 C1126 C 0.22885 0.26874 0.98884
 N1127 N 0.23345 0.26199 0.99972
 C1128 C 0.23189 0.26586 0.97526
 H1129 H 0.23937 0.25740 0.94881
 H1130 H 0.25866 0.23925 0.94878
 H1131 H 0.23892 0.25311 0.99968
 H1132 H 0.28530 0.21259 0.98669
 H1133 H 0.28635 0.21370 1.01299
 H1134 H 0.26048 0.24118 1.05060
 H1135 H 0.23946 0.25720 1.05064
 H1136 H 0.21509 0.28626 0.98673
 H1137 H 0.26039 0.24496 0.99956
 H1138 H 0.21450 0.28562 1.01306
 C1139 C 0.25628 0.74627 0.54233
 C1140 C 0.24508 0.75432 0.54241
 C1141 C 0.24173 0.75668 0.52913
 N1142 N 0.25050 0.75021 0.52098
 C1143 C 0.25940 0.74380 0.52901
 C1144 C 0.23094 0.76502 0.52490
 C1145 C 0.22756 0.76761 0.51134
 C1146 C 0.21839 0.77736 0.50729
 C1147 C 0.21817 0.77715 0.49354
 C1148 C 0.22721 0.76729 0.48948
 N1149 N 0.23271 0.76135 0.50041
 C1150 C 0.23016 0.76431 0.47590
 C1151 C 0.24078 0.75582 0.47155
 C1152 C 0.24376 0.75317 0.45823
 C1153 C 0.25496 0.74511 0.45815
 C1154 C 0.25844 0.74292 0.47143
 N1155 N 0.24976 0.74950 0.47957
 C1156 C 0.26931 0.73468 0.47566
 C1157 C 0.27278 0.73218 0.48922
 C1158 C 0.28211 0.72259 0.49326
 C1159 C 0.28233 0.72280 0.50701
 C1160 C 0.27314 0.73251 0.51108
 N1161 N 0.26754 0.73836 0.50015
 C1162 C 0.27009 0.73540 0.52466
 H1163 H 0.26148 0.74260 0.55114
 H1164 H 0.24003 0.75804 0.55128
 H1165 H 0.26117 0.74662 0.50013
 H1166 H 0.21262 0.78412 0.51358
 H1167 H 0.21219 0.78373 0.48725
 H1168 H 0.23849 0.75674 0.44943
 H1169 H 0.25992 0.74128 0.44928
 H1170 H 0.28841 0.71631 0.51330
 H1171 H 0.23891 0.75295 0.50043
 H1172 H 0.28798 0.71591 0.48698
 C1173 C 0.24129 0.74906 -0.04144
 C1174 C 0.25014 0.75961 -0.04150
 C1175 C 0.25468 0.76108 -0.02846
 N1176 N 0.24889 0.75177 -0.02044
 C1177 C 0.24061 0.74448 -0.02834
 C1178 C 0.26462 0.77036 -0.02437
 C1179 C 0.26825 0.77251 -0.01085
 C1180 C 0.27969 0.77931 -0.00671
 C1181 C 0.27936 0.77958 0.00706
 C1182 C 0.26772 0.77298 0.01096
 N1183 N 0.26095 0.76881 -0.00002
 C1184 C 0.26339 0.77150 0.02438
 C1185 C 0.25288 0.76283 0.02840
 C1186 C 0.24738 0.76246 0.04116
 C1187 C 0.23815 0.75224 0.04120
 C1188 C 0.23832 0.74667 0.02848
 N1189 N 0.24738 0.75312 0.02068
 C1190 C 0.23075 0.73532 0.02454
 C1191 C 0.23015 0.73050 0.01124
 C1192 C 0.22490 0.71814 0.00751
 C1193 C 0.22560 0.71753 -0.00624
 C1194 C 0.23127 0.72953 -0.01053
 N1195 N 0.23390 0.73741 0.00018
 C1196 C 0.23303 0.73324 -0.02409
 H1197 H 0.23603 0.74517 -0.05009
 H1198 H 0.25299 0.76545 -0.05020
 H1199 H 0.23664 0.74748 -0.00013
 H1200 H 0.28748 0.78361 -0.01296
 H1201 H 0.28685 0.78415 0.01347
 H1202 H 0.24982 0.76885 0.04959
 H1203 H 0.23208 0.74919 0.04968
 H1204 H 0.22217 0.70924 -0.01238
 H1205 H 0.25126 0.76493 -0.00017
 H1206 H 0.22089 0.71040 0.01400
 C1207 C 0.24699 0.26022 0.45902
 C1208 C 0.23754 0.25020 0.45904
 C1209 C 0.23759 0.24467 0.47180
 N1210 N 0.24678 0.25097 0.47955
 C1211 C 0.25248 0.26053 0.47178
 C1212 C 0.22979 0.23349 0.47579
 C1213 C 0.22906 0.22873 0.48912
 C1214 C 0.22359 0.21648 0.49289
 C1215 C 0.22428 0.21587 0.50665
 C1216 C 0.23016 0.22777 0.51090
 N1217 N 0.23292 0.23560 0.50015
 C1218 C 0.23203 0.23145 0.52446
 C1219 C 0.23977 0.24260 0.52864
 C1220 C 0.24058 0.24717 0.54174
 C1221 C 0.24957 0.25761 0.54173
 C1222 C 0.25406 0.25901 0.52866
 N1223 N 0.24812 0.24978 0.52070
 C1224 C 0.26411 0.26817 0.52451
 C1225 C 0.26783 0.27017 0.51099
 C1226 C 0.27936 0.27682 0.50685
 C1227 C 0.27912 0.27700 0.49308
 C1228 C 0.26742 0.27051 0.48918
 N1229 N 0.26054 0.26648 0.50017
 C1230 C 0.26313 0.26903 0.47576
 H1231 H 0.24956 0.26653 0.45056
 H1232 H 0.23141 0.24725 0.45059
 H1233 H 0.25080 0.26274 0.50032
 H1234 H 0.21945 0.20879 0.48642
 H1235 H 0.22071 0.20765 0.51280
 H1236 H 0.23533 0.24334 0.55043
 H1237 H 0.25254 0.26341 0.55041
 H1238 H 0.28669 0.28146 0.48667
 H1239 H 0.23585 0.24561 0.50041
 H1240 H 0.28716 0.28108 0.51310
 C1241 C 0.74447 0.75425 1.04113
 C1242 C 0.75442 0.74468 1.04111
 C1243 C 0.75750 0.74210 1.02780
 N1244 N 0.74968 0.74974 1.01974
 C1245 C 0.74169 0.75718 1.02783
 C1246 C 0.76715 0.73252 1.02346
 C1247 C 0.77037 0.72981 1.00989
 C1248 C 0.77874 0.71941 1.00573
 C1249 C 0.77925 0.71994 0.99200
 C1250 C 0.77118 0.73065 0.98805
 N1251 N 0.76601 0.73676 0.99904
 C1252 C 0.76872 0.73421 0.97451
 C1253 C 0.75878 0.74352 0.97023
 C1254 C 0.75592 0.74637 0.95693
 C1255 C 0.74538 0.75528 0.95693
 C1256 C 0.74222 0.75780 0.97023
 N1257 N 0.75042 0.75056 0.97831
 C1258 C 0.73214 0.76694 0.97454
 C1259 C 0.72928 0.77005 0.98811
 C1260 C 0.72108 0.78061 0.99217
 C1261 C 0.72114 0.78065 1.00593
 C1262 C 0.72939 0.77010 1.00997
 N1263 N 0.73410 0.76354 0.99903
 C1264 C 0.73220 0.76693 1.02354
 H1265 H 0.73987 0.75858 1.04997
 H1266 H 0.75886 0.74014 1.04993
 H1267 H 0.73948 0.75460 0.99899
 H1268 H 0.78387 0.71207 1.01194
 H1269 H 0.78478 0.71305 0.98563
 H1270 H 0.76081 0.74236 0.94810
 H1271 H 0.74065 0.75948 0.94810
 H1272 H 0.71581 0.78776 1.01221
 H1273 H 0.76062 0.74570 0.99916
 H1274 H 0.71575 0.78773 0.98588
 C1275 C 0.74529 0.25486 0.54096
 C1276 C 0.75534 0.24539 0.54097
 C1277 C 0.75821 0.24256 0.52767
 N1278 N 0.75018 0.24996 0.51959
 C1279 C 0.74225 0.25750 0.52766
 C1280 C 0.76782 0.23293 0.52336
 C1281 C 0.77087 0.23003 0.50979
 C1282 C 0.77909 0.21949 0.50567
 C1283 C 0.77949 0.21988 0.49192
 C1284 C 0.77150 0.23064 0.48794
 N1285 N 0.76649 0.23692 0.49890
 C1286 C 0.76905 0.23415 0.47439
 C1287 C 0.75916 0.24350 0.47008
 C1288 C 0.75644 0.24648 0.45678
 C1289 C 0.74588 0.25538 0.45675
 C1290 C 0.74257 0.25775 0.47004
 N1291 N 0.75069 0.25045 0.47814
 C1292 C 0.73237 0.26679 0.47432
 C1293 C 0.72939 0.26982 0.48788
 C1294 C 0.72089 0.28016 0.49192
 C1295 C 0.72099 0.28027 0.50567
 C1296 C 0.72954 0.26999 0.50975
 N1297 N 0.73441 0.26351 0.49883
 C1298 C 0.73254 0.26702 0.52333
 H1299 H 0.74079 0.25932 0.54979
 H1300 H 0.75997 0.24107 0.54980
 H1301 H 0.74011 0.25478 0.49883
 H1302 H 0.78419 0.21217 0.51191
 H1303 H 0.78490 0.21287 0.48558
 H1304 H 0.76144 0.24257 0.44796
 H1305 H 0.74126 0.25966 0.44790
 H1306 H 0.71548 0.28727 0.51194
 H1307 H 0.76125 0.24594 0.49898
 H1308 H 0.71536 0.28711 0.48561
 C1309 C 0.74651 0.24545 -0.04235
 C1310 C 0.75468 0.25652 -0.04237
 C1311 C 0.75722 0.25963 -0.02907
 N1312 N 0.75074 0.25088 -0.02097
 C1313 C 0.74416 0.24220 -0.02905
 C1314 C 0.76574 0.27019 -0.02480
 C1315 C 0.76876 0.27315 -0.01124
 C1316 C 0.77873 0.28203 -0.00725
 C1317 C 0.77899 0.28181 0.00649
 C1318 C 0.76916 0.27281 0.01060
 N1319 N 0.76280 0.26777 -0.00028
 C1320 C 0.76660 0.26948 0.02417
 C1321 C 0.75809 0.25893 0.02849
 C1322 C 0.75579 0.25563 0.04180
 C1323 C 0.74749 0.24466 0.04181
 C1324 C 0.74482 0.24165 0.02851
 N1325 N 0.75134 0.25037 0.02042
 C1326 C 0.73614 0.23123 0.02424
 C1327 C 0.73317 0.22824 0.01068
 C1328 C 0.72315 0.21942 0.00666
 C1329 C 0.72303 0.21953 -0.00708
 C1330 C 0.73297 0.22841 -0.01117
 N1331 N 0.73927 0.23349 -0.00027
 C1332 C 0.73569 0.23161 -0.02473
 H1333 H 0.74270 0.24043 -0.05118
 H1334 H 0.75838 0.26162 -0.05121
 H1335 H 0.74780 0.23946 -0.00033
 H1336 H 0.78537 0.28787 -0.01358
 H1337 H 0.78586 0.28746 0.01274
 H1338 H 0.75972 0.26055 0.05063
 H1339 H 0.74379 0.23955 0.05065
 H1340 H 0.71618 0.21388 -0.01335
 H1341 H 0.75434 0.26171 -0.00021
 H1342 H 0.71642 0.21368 0.01297
 C1343 C 0.74720 0.74523 0.45832
 C1344 C 0.75665 0.75524 0.45839
 C1345 C 0.75915 0.75830 0.47172
 N1346 N 0.75156 0.75041 0.47973
 C1347 C 0.74426 0.74239 0.47160
 C1348 C 0.76858 0.76799 0.47612
 C1349 C 0.77121 0.77121 0.48970
 C1350 C 0.78139 0.77977 0.49388
 C1351 C 0.78088 0.78019 0.50762
 C1352 C 0.77041 0.77186 0.51154
 N1353 N 0.76441 0.76664 0.50054
 C1354 C 0.76699 0.76919 0.52507
 C1355 C 0.75800 0.75899 0.52930
 C1356 C 0.75532 0.75589 0.54258
 C1357 C 0.74668 0.74517 0.54250
 C1358 C 0.74415 0.74216 0.52918
 N1359 N 0.75112 0.75060 0.52116
 C1360 C 0.73517 0.73203 0.52481
 C1361 C 0.73194 0.72936 0.51124
 C1362 C 0.72142 0.72117 0.50719
 C1363 C 0.72122 0.72146 0.49344
 C1364 C 0.73163 0.72981 0.48940
 N1365 N 0.73828 0.73438 0.50033
 C1366 C 0.73465 0.73281 0.47585
 H1367 H 0.74297 0.74061 0.44946
 H1368 H 0.76118 0.75972 0.44960
 H1369 H 0.74717 0.73978 0.50036
 H1370 H 0.78857 0.78509 0.48768
 H1371 H 0.78764 0.78581 0.51400
 H1372 H 0.75924 0.76074 0.55145
 H1373 H 0.74265 0.74026 0.55130
 H1374 H 0.71410 0.71619 0.48716
 H1375 H 0.75564 0.76105 0.50042
 H1376 H 0.71444 0.71571 0.51348
 C1377 C 1.04281 0.25582 0.24574
 C1378 C 1.04271 0.24773 0.25684
 C1379 C 1.02932 0.24515 0.25979
 N1380 N 1.02127 0.25153 0.25091
 C1381 C 1.02947 0.25809 0.24231
 C1382 C 1.02493 0.23660 0.27026
 C1383 C 1.01127 0.23373 0.27319
 C1384 C 1.00714 0.22363 0.28186
 C1385 C 0.99332 0.22370 0.28180
 C1386 C 0.98931 0.23384 0.27311
 N1387 N 1.00033 0.24007 0.26807
 C1388 C 0.97569 0.23686 0.27008
 C1389 C 0.97146 0.24558 0.25967
 C1390 C 0.95813 0.24844 0.25669
 C1391 C 0.95820 0.25666 0.24568
 C1392 C 0.97159 0.25871 0.24232
 N1393 N 0.97965 0.25189 0.25088
 C1394 C 0.97600 0.26703 0.23167
 C1395 C 0.98965 0.26951 0.22837
 C1396 C 0.99381 0.27912 0.21918
 C1397 C 1.00763 0.27893 0.21914
 C1398 C 1.01162 0.26921 0.22830
 N1399 N 1.00059 0.26333 0.23370
 C1400 C 1.02524 0.26639 0.23155
 H1401 H 1.05173 0.25962 0.24082
 H1402 H 1.05155 0.24410 0.26207
 H1403 H 1.00051 0.25507 0.24001
 H1404 H 1.01342 0.21672 0.28747
 H1405 H 0.98696 0.21686 0.28737
 H1406 H 0.94922 0.24494 0.26185
 H1407 H 0.94936 0.26069 0.24077
 H1408 H 1.01400 0.28546 0.21323
 H1409 H 1.00039 0.24872 0.26227
 H1410 H 0.98755 0.28582 0.21331
 C1411 C 0.54239 0.25307 0.74186
 C1412 C 0.54244 0.24241 0.75056
 C1413 C 0.52918 0.24033 0.75437
 N1414 N 0.52106 0.24934 0.74819
 C1415 C 0.52909 0.25716 0.74054
 C1416 C 0.52499 0.23049 0.76374
 C1417 C 0.51147 0.22837 0.76778
 C1418 C 0.50769 0.21999 0.77824
 C1419 C 0.49394 0.22092 0.77936
 C1420 C 0.48963 0.22990 0.76960
 N1421 N 0.50036 0.23417 0.76241
 C1422 C 0.47603 0.23385 0.76778
 C1423 C 0.47164 0.24437 0.75925
 C1424 C 0.45837 0.24855 0.75804
 C1425 C 0.45830 0.25910 0.74921
 C1426 C 0.47154 0.26104 0.74524
 N1427 N 0.47965 0.25205 0.75144
 C1428 C 0.47570 0.27074 0.73571
 C1429 C 0.48922 0.27285 0.73168
 C1430 C 0.49301 0.28111 0.72113
 C1431 C 0.50677 0.28029 0.72013
 C1432 C 0.51109 0.27149 0.73003
 N1433 N 0.50035 0.26722 0.73721
 C1434 C 0.52471 0.26768 0.73201
 H1435 H 0.55117 0.25722 0.73695
 H1436 H 0.55127 0.23685 0.75372
 H1437 H 0.50069 0.26156 0.74591
 H1438 H 0.51417 0.21396 0.78457
 H1439 H 0.48785 0.21572 0.78670
 H1440 H 0.44961 0.24450 0.76306
 H1441 H 0.44948 0.26469 0.74607
 H1442 H 0.51287 0.28545 0.71276
 H1443 H 0.50002 0.23998 0.75382
 H1444 H 0.48651 0.28700 0.71468
 C1445 C -0.04226 0.24156 0.74835
 C1446 C -0.04210 0.25064 0.75868
 C1447 C -0.02897 0.25519 0.75977
 N1448 N -0.02113 0.24922 0.75043
 C1449 C -0.02919 0.24078 0.74350
 C1450 C -0.02471 0.26528 0.76880
 C1451 C -0.01116 0.26927 0.77053
 C1452 C -0.00714 0.28062 0.77754
 C1453 C 0.00669 0.28079 0.77726
 C1454 C 0.01076 0.26954 0.77007
 N1455 N -0.00018 0.26250 0.76614
 C1456 C 0.02434 0.26588 0.76777
 C1457 C 0.02844 0.25594 0.75848
 C1458 C 0.04159 0.25153 0.75686
 C1459 C 0.04148 0.24246 0.74653
 C1460 C 0.02825 0.24154 0.74220
 N1461 N 0.02033 0.24990 0.74944
 C1462 C 0.02392 0.23360 0.73126
 C1463 C 0.01030 0.23195 0.72745
 C1464 C 0.00609 0.22565 0.71579
 C1465 C -0.00775 0.22545 0.71610
 C1466 C -0.01166 0.23163 0.72795
 N1467 N -0.00058 0.23539 0.73486
 C1468 C -0.02517 0.23295 0.73234
 H1469 H -0.05105 0.23629 0.74476
 H1470 H -0.05073 0.25366 0.76460
 H1471 H -0.00039 0.23878 0.74465
 H1472 H -0.01351 0.28803 0.78237
 H1473 H 0.01302 0.28835 0.78181
 H1474 H 0.05039 0.25460 0.76246
 H1475 H 0.05021 0.23724 0.74260
 H1476 H -0.01416 0.22106 0.70852
 H1477 H -0.00014 0.25295 0.76195
 H1478 H 0.01231 0.22145 0.70792
 C1479 C 0.45876 0.25136 0.23812
 C1480 C 0.45878 0.26161 0.24731
 C1481 C 0.47154 0.26182 0.25294
 N1482 N 0.47926 0.25199 0.24756
 C1483 C 0.47149 0.24561 0.23845
 C1484 C 0.47551 0.27047 0.26344
 C1485 C 0.48895 0.27177 0.26795
 C1486 C 0.49275 0.27843 0.27954
 C1487 C 0.50658 0.27790 0.28010
 C1488 C 0.51086 0.27090 0.26886
 N1489 N 0.50005 0.26731 0.26144
 C1490 C 0.52449 0.26846 0.26551
 C1491 C 0.52865 0.25901 0.25575
 C1492 C 0.54183 0.25727 0.25149
 C1493 C 0.54178 0.24671 0.24266
 C1494 C 0.52855 0.24238 0.24173
 N1495 N 0.52057 0.24984 0.24983
 C1496 C 0.52426 0.23124 0.23403
 C1497 C 0.51061 0.22779 0.23202
 C1498 C 0.50624 0.21589 0.22621
 C1499 C 0.49244 0.21675 0.22529
 C1500 C 0.48876 0.22915 0.23054
 N1501 N 0.49990 0.23585 0.23451
 C1502 C 0.47543 0.23418 0.23096
 H1503 H 0.45030 0.24842 0.23198
 H1504 H 0.45034 0.26812 0.24963
 H1505 H 0.50030 0.24589 0.23731
 H1506 H 0.48625 0.28321 0.28684
 H1507 H 0.51278 0.28218 0.28792
 H1508 H 0.55060 0.26296 0.25448
 H1509 H 0.55052 0.24265 0.23758
 H1510 H 0.48588 0.20914 0.22113
 H1511 H 0.50033 0.26333 0.25184
 H1512 H 0.51236 0.20751 0.22285
 C1513 C 1.04149 0.73642 0.74836
 C1514 C 1.04161 0.74587 0.73835
 C1515 C 1.02892 0.75171 0.73819
 N1516 N 1.02110 0.74621 0.74781
 C1517 C 1.02874 0.73681 0.75401
 C1518 C 1.02506 0.76248 0.72975
 C1519 C 1.01167 0.76718 0.72850
 C1520 C 1.00795 0.77900 0.72206
 C1521 C 0.99413 0.77967 0.72249
 C1522 C 0.98977 0.76827 0.72922
 N1523 N 1.00051 0.76065 0.73273
 C1524 C 0.97612 0.76494 0.73143
 C1525 C 0.97183 0.75508 0.74069
 C1526 C 0.95862 0.75092 0.74228
 C1527 C 0.95855 0.74197 0.75272
 C1528 C 0.97174 0.74084 0.75711
 N1529 N 0.97982 0.74896 0.74982
 C1530 C 0.97593 0.73296 0.76815
 C1531 C 0.98955 0.73069 0.77158
 C1532 C 0.99387 0.72468 0.78337
 C1533 C 1.00765 0.72354 0.78252
 C1534 C 1.01138 0.72887 0.77023
 N1535 N 1.00028 0.73309 0.76359
 C1536 C 1.02470 0.72916 0.76525
 H1537 H 1.04988 0.73006 0.75123
 H1538 H 1.05009 0.74821 0.73197
 H1539 H 0.99992 0.73601 0.75362
 H1540 H 1.01451 0.78637 0.71748
 H1541 H 0.98798 0.78766 0.71832
 H1542 H 0.94990 0.75408 0.73659
 H1543 H 0.94975 0.73693 0.75666
 H1544 H 1.01417 0.71919 0.79006
 H1545 H 1.00015 0.75092 0.73650
 H1546 H 0.98773 0.72132 0.79167
 C1547 C 0.54308 0.74422 0.25538
 C1548 C 0.54313 0.75343 0.24517
 C1549 C 0.52979 0.75677 0.24269
 N1550 N 0.52164 0.74981 0.25101
 C1551 C 0.52971 0.74214 0.25880
 C1552 C 0.52552 0.76624 0.23296
 C1553 C 0.51193 0.76986 0.23046
 C1554 C 0.50798 0.78011 0.22186
 C1555 C 0.49418 0.78084 0.22247
 C1556 C 0.49001 0.77107 0.23148
 N1557 N 0.50088 0.76426 0.23609
 C1558 C 0.47641 0.76896 0.23525
 C1559 C 0.47209 0.76024 0.24561
 C1560 C 0.45884 0.75907 0.24987
 C1561 C 0.45882 0.74994 0.26015
 C1562 C 0.47204 0.74574 0.26184
 N1563 N 0.48010 0.75208 0.25296
 C1564 C 0.47623 0.73581 0.27112
 C1565 C 0.48976 0.73164 0.27299
 C1566 C 0.49359 0.72052 0.28049
 C1567 C 0.50737 0.71970 0.27980
 C1568 C 0.51166 0.73031 0.27184
 N1569 N 0.50087 0.73769 0.26793
 C1570 C 0.52530 0.73284 0.26860
 H1571 H 0.55190 0.73947 0.25966
 H1572 H 0.55200 0.75721 0.24015
 H1573 H 0.50116 0.74690 0.26307
 H1574 H 0.51437 0.78656 0.21589
 H1575 H 0.48797 0.78795 0.21703
 H1576 H 0.45009 0.76433 0.24606
 H1577 H 0.45004 0.74674 0.26571
 H1578 H 0.51352 0.71203 0.28451
 H1579 H 0.50070 0.75582 0.24214
 H1580 H 0.48711 0.71359 0.28581
 C1581 C 0.04173 0.73904 0.25233
 C1582 C 0.04168 0.74917 0.26164
 C1583 C 0.02880 0.75461 0.26164
 N1584 N 0.02101 0.74814 0.25262
 C1585 C 0.02887 0.73856 0.24697
 C1586 C 0.02472 0.76583 0.26939
 C1587 C 0.01129 0.77053 0.27011
 C1588 C 0.00742 0.78283 0.27547
 C1589 C -0.00641 0.78335 0.27485
 C1590 C -0.01063 0.77135 0.26913
 N1591 N 0.00023 0.76356 0.26639
 C1592 C -0.02424 0.76758 0.26741
 C1593 C -0.02841 0.75625 0.25992
 C1594 C -0.04153 0.75159 0.25929
 C1595 C -0.04150 0.74096 0.25055
 C1596 C -0.02838 0.73953 0.24600
 N1597 N -0.02041 0.74893 0.25170
 C1598 C -0.02421 0.73018 0.23613
 C1599 C -0.01062 0.72820 0.23233
 C1600 C -0.00650 0.72136 0.22093
 C1601 C 0.00734 0.72133 0.22101
 C1602 C 0.01132 0.72811 0.23248
 N1603 N 0.00030 0.73216 0.23938
 C1604 C 0.02486 0.72982 0.23654
 H1605 H 0.05027 0.73274 0.24979
 H1606 H 0.05018 0.75224 0.26767
 H1607 H 0.00021 0.73614 0.24898
 H1608 H 0.01388 0.79059 0.27948
 H1609 H -0.01265 0.79158 0.27836
 H1610 H -0.05027 0.75548 0.26450
 H1611 H -0.05019 0.73505 0.24775
 H1612 H 0.01375 0.71678 0.21348
 H1613 H 0.00004 0.75352 0.26358
 H1614 H -0.01282 0.71687 0.21333
 C1615 C 0.45833 0.76085 0.74850
 C1616 C 0.45821 0.75072 0.73918
 C1617 C 0.47098 0.74505 0.73922
 N1618 N 0.47887 0.75137 0.74827
 C1619 C 0.47118 0.76109 0.75389
 C1620 C 0.47487 0.73374 0.73152
 C1621 C 0.48820 0.72872 0.73094
 C1622 C 0.49184 0.71637 0.72555
 C1623 C 0.50564 0.71549 0.72639
 C1624 C 0.51006 0.72732 0.73230
 N1625 N 0.49937 0.73537 0.73491
 C1626 C 0.52372 0.73073 0.73427
 C1627 C 0.52810 0.74183 0.74197
 C1628 C 0.54135 0.74612 0.74283
 C1629 C 0.54149 0.75665 0.75169
 C1630 C 0.52835 0.75839 0.75606
 N1631 N 0.52020 0.74927 0.75017
 C1632 C 0.52428 0.76782 0.76588
 C1633 C 0.51068 0.77019 0.76939
 C1634 C 0.50653 0.77716 0.78070
 C1635 C 0.49269 0.77763 0.78031
 C1636 C 0.48877 0.77096 0.76875
 N1637 N 0.49981 0.76658 0.76210
 C1638 C 0.47530 0.76966 0.76440
 H1639 H 0.44988 0.76727 0.75106
 H1640 H 0.44966 0.74780 0.73314
 H1641 H 0.49998 0.76263 0.75248
 H1642 H 0.48525 0.70881 0.72135
 H1643 H 0.51172 0.70713 0.72292
 H1644 H 0.55004 0.74206 0.73767
 H1645 H 0.55030 0.76231 0.75464
 H1646 H 0.48626 0.78239 0.78768
 H1647 H 0.49980 0.74538 0.73781
 H1648 H 0.51280 0.78146 0.78844
 C1649 C 0.39270 0.29872 0.31613
 C1650 C 0.40402 0.29270 0.31039
 C1651 C 0.41226 0.29995 0.30168
 C1652 C 0.40901 0.31339 0.29863
 C1653 C 0.39760 0.31944 0.30433
 C1654 C 0.38935 0.31217 0.31320
 N1655 N 0.42370 0.29328 0.29598
 N1656 N 0.43220 0.29917 0.28847
 C1657 C 0.44337 0.29199 0.28279
 C1658 C 0.45263 0.29890 0.27474
 C1659 C 0.46331 0.29199 0.26867
 C1660 C 0.46480 0.27807 0.27056
 C1661 C 0.45568 0.27118 0.27878
 C1662 C 0.44506 0.27808 0.28488
 H1663 H 0.38651 0.29272 0.32275
 H1664 H 0.40638 0.28231 0.31274
 H1665 H 0.41523 0.31919 0.29186
 H1666 H 0.39534 0.32983 0.30190
 H1667 H 0.45146 0.30961 0.27306
 H1668 H 0.47027 0.29742 0.26231
 H1669 H 0.45671 0.26043 0.28031
 H1670 H 0.43807 0.27249 0.29105
 C1671 C 0.39420 0.79872 0.81952
 C1672 C 0.40571 0.79271 0.81413
 C1673 C 0.41338 0.79940 0.80451
 C1674 C 0.40949 0.81234 0.80036
 C1675 C 0.39796 0.81840 0.80571
 C1676 C 0.39004 0.81166 0.81534
 N1677 N 0.42479 0.79264 0.79886
 N1678 N 0.43255 0.79820 0.79037
 C1679 C 0.44364 0.79108 0.78449
 C1680 C 0.45210 0.79782 0.77551
 C1681 C 0.46262 0.79095 0.76915
 C1682 C 0.46471 0.77721 0.77168
 C1683 C 0.45636 0.77047 0.78079
 C1684 C 0.44591 0.77735 0.78719
 H1685 H 0.38860 0.79307 0.82690
 H1686 H 0.40862 0.78271 0.81740
 H1687 H 0.41527 0.81771 0.79288
 H1688 H 0.39530 0.82833 0.80212
 H1689 H 0.45043 0.80838 0.77332
 H1690 H 0.46898 0.79624 0.76210
 H1691 H 0.45788 0.75986 0.78280
 H1692 H 0.43950 0.77190 0.79407
 C1693 C -0.10681 0.31894 0.79800
 C1694 C -0.09529 0.31368 0.79190
 C1695 C -0.08720 0.30437 0.79864
 C1696 C -0.09071 0.30036 0.81167
 C1697 C -0.10224 0.30560 0.81780
 C1698 C -0.11046 0.31495 0.81102
 N1699 N -0.07569 0.29895 0.79190
 N1700 N -0.06775 0.29053 0.79740
 C1701 C -0.05650 0.28494 0.79033
 C1702 C -0.04830 0.27545 0.79678
 C1703 C -0.03769 0.26928 0.78989
 C1704 C -0.03523 0.27255 0.77645
 C1705 C -0.04324 0.28225 0.77005
 C1706 C -0.05380 0.28843 0.77694
 H1707 H -0.11290 0.32601 0.79239
 H1708 H -0.09271 0.31680 0.78182
 H1709 H -0.08459 0.29314 0.81708
 H1710 H -0.10465 0.30235 0.82786
 H1711 H -0.05029 0.27267 0.80708
 H1712 H -0.03160 0.26176 0.79490
 H1713 H -0.04142 0.28483 0.75967
 H1714 H -0.05998 0.29575 0.77174
 C1715 C -0.10474 0.80098 0.32058
 C1716 C -0.09315 0.79491 0.31546
 C1717 C -0.08636 0.80058 0.30459
 C1718 C -0.09129 0.81254 0.29886
 C1719 C -0.10291 0.81868 0.30401
 C1720 C -0.10981 0.81297 0.31495
 N1721 N -0.07463 0.79383 0.29956
 N1722 N -0.06814 0.79788 0.28933
 C1723 C -0.05657 0.79071 0.28445
 C1724 C -0.05065 0.79472 0.27236
 C1725 C -0.03989 0.78739 0.26694
 C1726 C -0.03485 0.77604 0.27366
 C1727 C -0.04050 0.77223 0.28595
 C1728 C -0.05131 0.77949 0.29131
 H1729 H -0.10971 0.79615 0.32892
 H1730 H -0.08947 0.78566 0.31992
 H1731 H -0.08619 0.81712 0.29044
 H1732 H -0.10643 0.82790 0.29941
 H1733 H -0.05458 0.80334 0.26698
 H1734 H -0.03564 0.79041 0.25741
 H1735 H -0.03674 0.76345 0.29121
 H1736 H -0.05567 0.77620 0.30069
 C1737 C 0.60683 0.70218 0.32200
 C1738 C 0.59522 0.70831 0.31695
 C1739 C 0.58766 0.70203 0.30697
 C1740 C 0.59180 0.68943 0.30206
 C1741 C 0.60340 0.68326 0.30710
 C1742 C 0.61109 0.68957 0.31713
 N1743 N 0.57599 0.70877 0.30183
 N1744 N 0.56882 0.70381 0.29252
 C1745 C 0.55735 0.71079 0.28725
 C1746 C 0.55052 0.70530 0.27628
 C1747 C 0.53981 0.71229 0.27039
 C1748 C 0.53578 0.72482 0.27552
 C1749 C 0.54238 0.73018 0.28670
 C1750 C 0.55311 0.72322 0.29254
 H1751 H 0.61249 0.70742 0.32962
 H1752 H 0.59215 0.71806 0.32077
 H1753 H 0.58610 0.68437 0.29433
 H1754 H 0.60626 0.67353 0.30315
 H1755 H 0.55370 0.69574 0.27211
 H1756 H 0.53484 0.70810 0.26170
 H1757 H 0.53940 0.73989 0.29068
 H1758 H 0.55822 0.72766 0.30103
 C1759 C 0.60706 0.20062 0.81623
 C1760 C 0.59575 0.20667 0.81053
 C1761 C 0.58775 0.19962 0.80146
 C1762 C 0.59123 0.18634 0.79801
 C1763 C 0.60261 0.18023 0.80372
 C1764 C 0.61062 0.18729 0.81295
 N1765 N 0.57628 0.20633 0.79591
 N1766 N 0.56832 0.20085 0.78756
 C1767 C 0.55706 0.20812 0.78218
 C1768 C 0.54898 0.20205 0.77242
 C1769 C 0.53833 0.20920 0.76658
 C1770 C 0.53566 0.22251 0.77049
 C1771 C 0.54352 0.22849 0.78048
 C1772 C 0.55416 0.22137 0.78628
 H1773 H 0.61304 0.20649 0.82312
 H1774 H 0.59321 0.21694 0.81319
 H1775 H 0.58518 0.18070 0.79097
 H1776 H 0.60501 0.16995 0.80100
 H1777 H 0.55108 0.19185 0.76919
 H1778 H 0.53232 0.20447 0.75886
 H1779 H 0.54155 0.23876 0.78360
 H1780 H 0.56020 0.22629 0.79385
 C1781 C 1.10774 0.70091 0.81738
 C1782 C 1.09625 0.70688 0.81196
 C1783 C 1.08771 0.69955 0.80362
 C1784 C 1.09078 0.68604 0.80071
 C1785 C 1.10234 0.68002 0.80611
 C1786 C 1.11097 0.68740 0.81452
 N1787 N 1.07623 0.70625 0.79805
 N1788 N 1.06758 0.70035 0.79074
 C1789 C 1.05644 0.70757 0.78507
 C1790 C 1.04710 0.70065 0.77714
 C1791 C 1.03652 0.70761 0.77095
 C1792 C 1.03523 0.72158 0.77260
 C1793 C 1.04440 0.72848 0.78073
 C1794 C 1.05492 0.72153 0.78695
 H1795 H 1.11415 0.70700 0.82366
 H1796 H 1.09401 0.71732 0.81421
 H1797 H 1.08432 0.68019 0.79423
 H1798 H 1.10447 0.66961 0.80373
 H1799 H 1.04815 0.68991 0.77561
 H1800 H 1.02952 0.70217 0.76466
 H1801 H 1.04351 0.73927 0.78206
 H1802 H 1.06197 0.72712 0.79303
 C1803 C 1.10645 0.18267 0.30004
 C1804 C 1.09502 0.18817 0.29403
 C1805 C 1.08716 0.19764 0.30082
 C1806 C 1.09086 0.20162 0.31381
 C1807 C 1.10234 0.19610 0.31987
 C1808 C 1.11026 0.18653 0.31305
 N1809 N 1.07564 0.20313 0.29416
 N1810 N 1.06796 0.21192 0.29947
 C1811 C 1.05667 0.21738 0.29236
 C1812 C 1.04907 0.22770 0.29825
 C1813 C 1.03850 0.23376 0.29120
 C1814 C 1.03543 0.22952 0.27816
 C1815 C 1.04276 0.21892 0.27239
 C1816 C 1.05333 0.21290 0.27941
 H1817 H 1.11233 0.17548 0.29437
 H1818 H 1.09230 0.18509 0.28399
 H1819 H 1.08493 0.20896 0.31925
 H1820 H 1.10491 0.19928 0.32991
 H1821 H 1.05152 0.23122 0.30822
 H1822 H 1.03290 0.24193 0.29577
 H1823 H 1.04046 0.21553 0.26234
 H1824 H 1.05901 0.20491 0.27465
 C1825 C 0.60623 0.32117 0.70103
 C1826 C 0.59476 0.31614 0.70737
 C1827 C 0.58684 0.30637 0.70113
 C1828 C 0.59049 0.30170 0.68835
 C1829 C 0.60196 0.30671 0.68198
 C1830 C 0.61001 0.31649 0.68826
 N1831 N 0.57535 0.30119 0.70806
 N1832 N 0.56785 0.29213 0.70304
 C1833 C 0.55654 0.28674 0.71012
 C1834 C 0.54922 0.27623 0.70430
 C1835 C 0.53860 0.27023 0.71127
 C1836 C 0.53516 0.27476 0.72413
 C1837 C 0.54228 0.28547 0.72987
 C1838 C 0.55292 0.29143 0.72292
 H1839 H 0.61219 0.32860 0.70624
 H1840 H 0.59207 0.31978 0.71724
 H1841 H 0.58452 0.29414 0.68330
 H1842 H 0.60444 0.30293 0.67213
 H1843 H 0.55193 0.27252 0.69447
 H1844 H 0.53323 0.26190 0.70678
 H1845 H 0.53976 0.28898 0.73983
 H1846 H 0.55843 0.29954 0.72763
 C1847 C 0.60663 0.82049 0.20179
 C1848 C 0.59530 0.81527 0.20825
 C1849 C 0.58742 0.80545 0.20204
 C1850 C 0.59096 0.80091 0.18918
 C1851 C 0.60229 0.80611 0.18271
 C1852 C 0.61030 0.81594 0.18895
 N1853 N 0.57607 0.80008 0.20908
 N1854 N 0.56851 0.79111 0.20401
 C1855 C 0.55734 0.78553 0.21118
 C1856 C 0.54974 0.77534 0.20515
 C1857 C 0.53919 0.76924 0.21212
 C1858 C 0.53613 0.77329 0.22523
 C1859 C 0.54354 0.78368 0.23119
 C1860 C 0.55410 0.78976 0.22423
 H1861 H 0.61258 0.82796 0.20697
 H1862 H 0.59270 0.81881 0.21818
 H1863 H 0.58501 0.79332 0.18416
 H1864 H 0.60468 0.80243 0.17280
 H1865 H 0.55215 0.77200 0.19510
 H1866 H 0.53355 0.76121 0.20742
 H1867 H 0.54127 0.78688 0.24132
 H1868 H 0.55981 0.79763 0.22910
 C1869 C 1.10643 0.31999 0.20013
 C1870 C 1.09502 0.31472 0.20638
 C1871 C 1.08746 0.30466 0.20017
 C1872 C 1.09144 0.29988 0.18752
 C1873 C 1.10288 0.30515 0.18124
 C1874 C 1.11052 0.31528 0.18747
 N1875 N 1.07595 0.29940 0.20703
 N1876 N 1.06860 0.29015 0.20215
 C1877 C 1.05728 0.28487 0.20932
 C1878 C 1.05002 0.27416 0.20378
 C1879 C 1.03938 0.26832 0.21088
 C1880 C 1.03587 0.27319 0.22360
 C1881 C 1.04287 0.28415 0.22901
 C1882 C 1.05353 0.28994 0.22194
 H1883 H 1.11206 0.32766 0.20535
 H1884 H 1.09208 0.31844 0.21615
 H1885 H 1.08575 0.29209 0.18252
 H1886 H 1.10564 0.30131 0.17148
 H1887 H 1.05279 0.27017 0.19407
 H1888 H 1.03405 0.25987 0.20659
 H1889 H 1.04025 0.28800 0.23882
 H1890 H 1.05894 0.29824 0.22643
 C1891 C 1.10769 0.81531 0.70103
 C1892 C 1.09648 0.80959 0.70722
 C1893 C 1.08802 0.80095 0.70012
 C1894 C 1.09094 0.79799 0.68666
 C1895 C 1.10223 0.80366 0.68045
 C1896 C 1.11071 0.81243 0.68757
 N1897 N 1.07673 0.79522 0.70694
 N1898 N 1.06809 0.78781 0.70113
 C1899 C 1.05705 0.78201 0.70835
 C1900 C 1.04761 0.77419 0.70144
 C1901 C 1.03702 0.76802 0.70834
 C1902 C 1.03581 0.76958 0.72225
 C1903 C 1.04512 0.77757 0.72915
 C1904 C 1.05566 0.78376 0.72226
 H1905 H 1.11406 0.82186 0.70690
 H1906 H 1.09438 0.81189 0.71762
 H1907 H 1.08455 0.79128 0.68098
 H1908 H 1.10421 0.80128 0.67006
 H1909 H 1.04856 0.77277 0.69073
 H1910 H 1.02991 0.76187 0.70289
 H1911 H 1.04429 0.77887 0.73989
 H1912 H 1.06279 0.78977 0.72784
 C1913 C 0.39214 0.68121 0.70194
 C1914 C 0.40341 0.68662 0.70831
 C1915 C 0.41193 0.69547 0.70151
 C1916 C 0.40904 0.69892 0.68816
 C1917 C 0.39771 0.69357 0.68178
 C1918 C 0.38913 0.68463 0.68860
 N1919 N 0.42325 0.70096 0.70849
 N1920 N 0.43191 0.70849 0.70284
 C1921 C 0.44299 0.71415 0.71009
 C1922 C 0.45240 0.72205 0.70323
 C1923 C 0.46299 0.72817 0.71014
 C1924 C 0.46424 0.72649 0.72403
 C1925 C 0.45496 0.71841 0.73090
 C1926 C 0.44442 0.71225 0.72399
 H1927 H 0.38573 0.67450 0.70758
 H1928 H 0.40550 0.68394 0.71862
 H1929 H 0.41547 0.70578 0.68270
 H1930 H 0.39575 0.69636 0.67149
 H1931 H 0.45141 0.72361 0.69254
 H1932 H 0.47006 0.73443 0.70473
 H1933 H 0.45580 0.71705 0.74163
 H1934 H 0.43728 0.70619 0.72953
 C1935 C 0.39248 0.18188 0.20165
 C1936 C 0.40377 0.18727 0.20800
 C1937 C 0.41238 0.19598 0.20113
 C1938 C 0.40954 0.19933 0.18775
 C1939 C 0.39818 0.19400 0.18139
 C1940 C 0.38952 0.18519 0.18827
 N1941 N 0.42372 0.20144 0.20809
 N1942 N 0.43248 0.20881 0.20238
 C1943 C 0.44358 0.21446 0.20961
 C1944 C 0.45309 0.22219 0.20269
 C1945 C 0.46368 0.22833 0.20958
 C1946 C 0.46484 0.22683 0.22350
 C1947 C 0.45547 0.21891 0.23042
 C1948 C 0.44492 0.21273 0.22353
 H1949 H 0.38599 0.17527 0.20734
 H1950 H 0.40581 0.18467 0.21834
 H1951 H 0.41603 0.20609 0.18224
 H1952 H 0.39626 0.19671 0.17107
 H1953 H 0.45216 0.22361 0.19198
 H1954 H 0.47082 0.23447 0.20412
 H1955 H 0.45623 0.21771 0.24118
 H1956 H 0.43771 0.20680 0.22912
 C1957 C -0.10722 0.70137 0.18438
 C1958 C -0.09594 0.70748 0.19001
 C1959 C -0.08744 0.70026 0.19854
 C1960 C -0.09042 0.68675 0.20153
 C1961 C -0.10178 0.68060 0.19593
 C1962 C -0.11026 0.68783 0.18720
 N1963 N -0.07599 0.70700 0.20404
 N1964 N -0.06737 0.70120 0.21151
 C1965 C -0.05616 0.70842 0.21697
 C1966 C -0.04709 0.70170 0.22541
 C1967 C -0.03645 0.70868 0.23137
 C1968 C -0.03479 0.72250 0.22897
 C1969 C -0.04365 0.72917 0.22026
 C1970 C -0.05426 0.72220 0.21430
 H1971 H -0.11359 0.70734 0.17789
 H1972 H -0.09380 0.71791 0.18771
 H1973 H -0.08400 0.68098 0.20816
 H1974 H -0.10380 0.67016 0.19828
 H1975 H -0.04842 0.69109 0.22753
 H1976 H -0.02969 0.70341 0.23809
 H1977 H -0.04248 0.73983 0.21830
 H1978 H -0.06109 0.72763 0.20779
 C1979 C -0.10611 0.17853 0.70106
 C1980 C -0.09466 0.18365 0.70739
 C1981 C -0.08709 0.19383 0.70134
 C1982 C -0.09104 0.19879 0.68877
 C1983 C -0.10246 0.19366 0.68241
 C1984 C -0.11020 0.18350 0.68849
 N1985 N -0.07560 0.19908 0.70825
 N1986 N -0.06876 0.20886 0.70365
 C1987 C -0.05741 0.21428 0.71063
 C1988 C -0.05122 0.22588 0.70562
 C1989 C -0.04056 0.23184 0.71255
 C1990 C -0.03586 0.22613 0.72452
 C1991 C -0.04182 0.21432 0.72940
 C1992 C -0.05257 0.20844 0.72254
 H1993 H -0.11177 0.17076 0.70612
 H1994 H -0.09174 0.17975 0.71710
 H1995 H -0.08533 0.20665 0.68387
 H1996 H -0.10516 0.19774 0.67273
 H1997 H -0.05484 0.23046 0.69645
 H1998 H -0.03608 0.24098 0.70869
 H1999 H -0.03833 0.20984 0.73867
 H2000 H -0.05717 0.19946 0.72660
 C2001 C 0.30031 0.39472 0.32147
 C2002 C 0.29424 0.40625 0.31620
 C2003 C 0.30002 0.41300 0.30536
 C2004 C 0.31207 0.40809 0.29981
 C2005 C 0.31821 0.39654 0.30511
 C2006 C 0.31239 0.38969 0.31601
 N2007 N 0.29331 0.42467 0.30018
 N2008 N 0.29750 0.43111 0.28998
 C2009 C 0.29041 0.44264 0.28493
 C2010 C 0.29462 0.44852 0.27288
 C2011 C 0.28741 0.45929 0.26733
 C2012 C 0.27597 0.46437 0.27388
 C2013 C 0.27194 0.45875 0.28611
 C2014 C 0.27908 0.44793 0.29160
 H2015 H 0.29541 0.38976 0.32978
 H2016 H 0.28492 0.40990 0.32052
 H2017 H 0.31673 0.41316 0.29141
 H2018 H 0.32750 0.39305 0.30064
 H2019 H 0.30332 0.44456 0.26765
 H2020 H 0.29058 0.46352 0.25785
 H2021 H 0.26309 0.46255 0.29122
 H2022 H 0.27564 0.44360 0.30094
 C2023 C 0.32039 -0.10647 0.80075
 C2024 C 0.31498 -0.09505 0.79458
 C2025 C 0.30437 -0.08799 0.80051
 C2026 C 0.29910 -0.09253 0.81274
 C2027 C 0.30443 -0.10401 0.81894
 C2028 C 0.31522 -0.11117 0.81306
 N2029 N 0.29905 -0.07643 0.79374
 N2030 N 0.28987 -0.06901 0.79876
 C2031 C 0.28448 -0.05767 0.79166
 C2032 C 0.27463 -0.04968 0.79783
 C2033 C 0.26878 -0.03888 0.79094
 C2034 C 0.27271 -0.03601 0.77775
 C2035 C 0.28272 -0.04386 0.77162
 C2036 C 0.28860 -0.05461 0.77852
 H2037 H 0.32857 -0.11154 0.79569
 H2038 H 0.31910 -0.09167 0.78512
 H2039 H 0.29083 -0.08725 0.81750
 H2040 H 0.30006 -0.10714 0.82834
 H2041 H 0.27135 -0.05195 0.80792
 H2042 H 0.26099 -0.03295 0.79575
 H2043 H 0.28578 -0.04178 0.76141
 H2044 H 0.29617 -0.06064 0.77352
 C2045 C 0.81799 0.39466 0.79995
 C2046 C 0.81248 0.40609 0.79392
 C2047 C 0.80216 0.41327 0.80018
 C2048 C 0.79731 0.40889 0.81264
 C2049 C 0.80272 0.39736 0.81869
 C2050 C 0.81317 0.39002 0.81243
 N2051 N 0.79661 0.42472 0.79344
 N2052 N 0.78792 0.43246 0.79880
 C2053 C 0.78223 0.44361 0.79163
 C2054 C 0.77331 0.45229 0.79823
 C2055 C 0.76715 0.46288 0.79130
 C2056 C 0.76980 0.46481 0.77764
 C2057 C 0.77889 0.45627 0.77104
 C2058 C 0.78511 0.44575 0.77799
 H2059 H 0.82591 0.38947 0.79461
 H2060 H 0.81626 0.40935 0.78428
 H2061 H 0.78926 0.41428 0.81764
 H2062 H 0.79866 0.39431 0.82826
 H2063 H 0.77101 0.45075 0.80872
 H2064 H 0.76011 0.46941 0.79648
 H2065 H 0.78100 0.45765 0.76049
 H2066 H 0.79196 0.43917 0.77264
 C2067 C 0.80266 -0.10307 0.31962
 C2068 C 0.79687 -0.09149 0.31422
 C2069 C 0.80200 -0.08578 0.30253
 C2070 C 0.81316 -0.09177 0.29625
 C2071 C 0.81905 -0.10341 0.30167
 C2072 C 0.81385 -0.10931 0.31346
 N2073 N 0.79545 -0.07407 0.29726
 N2074 N 0.79894 -0.06839 0.28638
 C2075 C 0.79184 -0.05684 0.28140
 C2076 C 0.79519 -0.05164 0.26879
 C2077 C 0.78784 -0.04091 0.26335
 C2078 C 0.77711 -0.03521 0.27055
 C2079 C 0.77396 -0.04014 0.28331
 C2080 C 0.78124 -0.05090 0.28870
 H2081 H 0.79819 -0.10702 0.32867
 H2082 H 0.78825 -0.08696 0.31913
 H2083 H 0.81729 -0.08751 0.28716
 H2084 H 0.82761 -0.10774 0.29653
 H2085 H 0.80332 -0.05610 0.26306
 H2086 H 0.79034 -0.03720 0.25346
 H2087 H 0.76565 -0.03586 0.28892
 H2088 H 0.77845 -0.05470 0.29848
 C2089 C 0.29883 0.60496 0.68164
 C2090 C 0.29280 0.59349 0.68703
 C2091 C 0.29940 0.58590 0.69682
 C2092 C 0.31221 0.58990 0.70122
 C2093 C 0.31827 0.60140 0.69584
 C2094 C 0.31165 0.60908 0.68597
 N2095 N 0.29273 0.57435 0.70223
 N2096 N 0.29797 0.56690 0.71121
 C2097 C 0.29094 0.55556 0.71664
 C2098 C 0.29687 0.54814 0.72702
 C2099 C 0.28990 0.53751 0.73304
 C2100 C 0.27691 0.53419 0.72869
 C2101 C 0.27109 0.54136 0.71805
 C2102 C 0.27804 0.55199 0.71207
 H2103 H 0.29332 0.61063 0.67419
 H2104 H 0.28289 0.59054 0.68362
 H2105 H 0.31751 0.58418 0.70880
 H2106 H 0.32817 0.60419 0.69936
 H2107 H 0.30679 0.55078 0.73063
 H2108 H 0.29449 0.53206 0.74125
 H2109 H 0.26106 0.53889 0.71460
 H2110 H 0.27324 0.55754 0.70404
 C2111 C 0.30014 1.10446 0.18052
 C2112 C 0.29422 1.09288 0.18577
 C2113 C 0.30046 1.08575 0.19612
 C2114 C 0.31281 1.09032 0.20121
 C2115 C 0.31879 1.10192 0.19594
 C2116 C 0.31252 1.10914 0.18552
 N2117 N 0.29391 1.07404 0.20132
 N2118 N 0.29860 1.06721 0.21104
 C2119 C 0.29166 1.05568 0.21616
 C2120 C 0.29651 1.04932 0.22772
 C2121 C 0.28944 1.03859 0.23342
 C2122 C 0.27749 1.03403 0.22749
 C2123 C 0.27281 1.04012 0.21572
 C2124 C 0.27982 1.05090 0.21008
 H2125 H 0.29490 1.10974 0.17262
 H2126 H 0.28467 1.08948 0.18182
 H2127 H 0.31782 1.08496 0.20923
 H2128 H 0.32833 1.10515 0.20002
 H2129 H 0.30560 1.05290 0.23249
 H2130 H 0.29311 1.03400 0.24256
 H2131 H 0.26355 1.03673 0.21111
 H2132 H 0.27587 1.05561 0.20113
 C2133 C 0.79901 0.60807 0.18203
 C2134 C 0.79274 0.59684 0.18764
 C2135 C 0.79972 0.58842 0.19647
 C2136 C 0.81315 0.59141 0.19972
 C2137 C 0.81944 0.60272 0.19416
 C2138 C 0.81245 0.61117 0.18522
 N2139 N 0.79284 0.57710 0.20211
 N2140 N 0.79863 0.56850 0.20963
 C2141 C 0.79143 0.55741 0.21538
 C2142 C 0.79841 0.54806 0.22330
 C2143 C 0.79155 0.53744 0.22946
 C2144 C 0.77760 0.53609 0.22782
 C2145 C 0.77063 0.54531 0.21972
 C2146 C 0.77748 0.55588 0.21352
 H2147 H 0.79324 0.61440 0.17533
 H2148 H 0.78237 0.59468 0.18512
 H2149 H 0.81875 0.58507 0.20657
 H2150 H 0.82980 0.60474 0.19679
 H2151 H 0.80914 0.54911 0.22482
 H2152 H 0.79706 0.53042 0.23572
 H2153 H 0.75985 0.54439 0.21836
 H2154 H 0.77185 0.56295 0.20744
 C2155 C 0.79867 1.10503 0.67673
 C2156 C 0.79245 1.09349 0.68180
 C2157 C 0.79807 1.08653 0.69262
 C2158 C 0.81013 1.09117 0.69828
 C2159 C 0.81639 1.10270 0.69321
 C2160 C 0.81069 1.10985 0.68242
 N2161 N 0.79116 1.07501 0.69782
 N2162 N 0.79536 1.06855 0.70802
 C2163 C 0.78823 1.05722 0.71335
 C2164 C 0.79281 1.05127 0.72523
 C2165 C 0.78565 1.04071 0.73111
 C2166 C 0.77386 1.03590 0.72508
 C2167 C 0.76941 1.04161 0.71302
 C2168 C 0.77652 1.05224 0.70719
 H2169 H 0.79392 1.11018 0.66845
 H2170 H 0.78314 1.09003 0.67737
 H2171 H 0.81469 1.08595 0.70666
 H2172 H 0.82564 1.10599 0.69785
 H2173 H 0.80181 1.05501 0.73007
 H2174 H 0.78917 1.03640 0.74044
 H2175 H 0.76029 1.03801 0.70830
 H2176 H 0.77279 1.05665 0.69800
 C2177 C 0.68157 0.60769 0.29777
 C2178 C 0.68676 0.59633 0.29129
 C2179 C 0.69542 0.58752 0.29804
 C2180 C 0.69885 0.59017 0.31143
 C2181 C 0.69373 0.60157 0.31790
 C2182 C 0.68506 0.61048 0.31113
 N2183 N 0.70087 0.57620 0.29099
 N2184 N 0.70825 0.56744 0.29674
 C2185 C 0.71409 0.55637 0.28959
 C2186 C 0.72186 0.54695 0.29663
 C2187 C 0.72833 0.53646 0.28984
 C2188 C 0.72713 0.53534 0.27589
 C2189 C 0.71913 0.54460 0.26885
 C2190 C 0.71263 0.55505 0.27565
 H2191 H 0.67502 0.61438 0.29221
 H2192 H 0.68410 0.59442 0.28095
 H2193 H 0.70555 0.58352 0.31686
 H2194 H 0.69653 0.60332 0.32822
 H2195 H 0.72308 0.54788 0.30737
 H2196 H 0.73451 0.52940 0.29539
 H2197 H 0.71814 0.54384 0.25807
 H2198 H 0.70668 0.56221 0.26998
 C2199 C 0.70016 1.10604 0.82084
 C2200 C 0.70627 1.09458 0.81544
 C2201 C 0.70030 1.08769 0.80482
 C2202 C 0.68806 1.09241 0.79956
 C2203 C 0.68194 1.10394 0.80489
 C2204 C 0.68787 1.11096 0.81565
 N2205 N 0.70704 1.07612 0.79945
 N2206 N 0.70192 1.06881 0.79032
 C2207 C 0.70898 1.05749 0.78483
 C2208 C 0.70269 1.04965 0.77501
 C2209 C 0.70958 1.03895 0.76899
 C2210 C 0.72287 1.03601 0.77270
 C2211 C 0.72913 1.04367 0.78269
 C2212 C 0.72223 1.05433 0.78876
 H2213 H 0.70525 1.11098 0.82902
 H2214 H 0.71574 1.09106 0.81954
 H2215 H 0.68328 1.08726 0.79129
 H2216 H 0.67253 1.10722 0.80051
 H2217 H 0.69251 1.05199 0.77189
 H2218 H 0.70467 1.03314 0.76122
 H2219 H 0.73942 1.04152 0.78560
 H2220 H 0.72732 1.06023 0.79632
 C2221 C 0.19989 0.60465 0.82097
 C2222 C 0.20599 0.59322 0.81550
 C2223 C 0.19973 0.58607 0.80520
 C2224 C 0.18719 0.59048 0.80038
 C2225 C 0.18106 0.60196 0.80583
 C2226 C 0.18734 0.60919 0.81620
 N2227 N 0.20648 0.57454 0.79975
 N2228 N 0.20152 0.56743 0.79038
 C2229 C 0.20864 0.55610 0.78493
 C2230 C 0.20294 0.54895 0.77427
 C2231 C 0.20996 0.53827 0.76832
 C2232 C 0.22278 0.53464 0.77300
 C2233 C 0.22837 0.54157 0.78389
 C2234 C 0.22137 0.55225 0.78981
 H2235 H 0.20514 0.60998 0.82881
 H2236 H 0.21569 0.58995 0.81925
 H2237 H 0.18216 0.58511 0.79240
 H2238 H 0.17137 0.60508 0.80195
 H2239 H 0.19315 0.55180 0.77042
 H2240 H 0.20554 0.53301 0.75991
 H2241 H 0.23826 0.53887 0.78759
 H2242 H 0.22598 0.55759 0.79805
 C2243 C 0.18085 1.10501 0.29907
 C2244 C 0.18605 1.09346 0.29298
 C2245 C 0.19604 1.08586 0.29931
 C2246 C 0.20081 1.08990 0.31192
 C2247 C 0.19560 1.10145 0.31806
 C2248 C 0.18555 1.10917 0.31170
 N2249 N 0.20128 1.07423 0.29261
 N2250 N 0.21078 1.06712 0.29745
 C2251 C 0.21606 1.05567 0.29047
 C2252 C 0.22743 1.04909 0.29559
 C2253 C 0.23331 1.03841 0.28856
 C2254 C 0.22776 1.03414 0.27638
 C2255 C 0.21616 1.04045 0.27141
 C2256 C 0.21034 1.05118 0.27839
 H2257 H 0.17324 1.11070 0.29377
 H2258 H 0.18234 1.09047 0.28323
 H2259 H 0.20854 1.08416 0.31701
 H2260 H 0.19943 1.10425 0.32780
 H2261 H 0.23191 1.05245 0.30489
 H2262 H 0.24231 1.03364 0.29246
 H2263 H 0.21182 1.03726 0.26199
 H2264 H 0.20153 1.05607 0.27425
 C2265 C 0.70262 0.39310 0.67981
 C2266 C 0.70878 0.40449 0.68524
 C2267 C 0.70175 0.41286 0.69410
 C2268 C 0.68839 0.40972 0.69747
 C2269 C 0.68224 0.39829 0.69212
 C2270 C 0.68929 0.38983 0.68324
 N2271 N 0.70849 0.42424 0.69977
 N2272 N 0.70244 0.43268 0.70727
 C2273 C 0.70927 0.44380 0.71332
 C2274 C 0.70187 0.45291 0.72112
 C2275 C 0.70834 0.46346 0.72775
 C2276 C 0.72233 0.46496 0.72670
 C2277 C 0.72974 0.45600 0.71870
 C2278 C 0.72326 0.44549 0.71202
 H2279 H 0.70839 0.38676 0.67311
 H2280 H 0.71911 0.40677 0.68261
 H2281 H 0.68275 0.41603 0.70432
 H2282 H 0.67193 0.39617 0.69489
 H2283 H 0.69109 0.45170 0.72222
 H2284 H 0.70250 0.47028 0.73394
 H2285 H 0.74055 0.45704 0.71781
 H2286 H 0.72920 0.43858 0.70606
 C2287 C 0.70243 -0.10676 0.17941
 C2288 C 0.70869 -0.09534 0.18465
 C2289 C 0.70197 -0.08711 0.19386
 C2290 C 0.68881 -0.09044 0.19781
 C2291 C 0.68255 -0.10189 0.19262
 C2292 C 0.68928 -0.11020 0.18336
 N2293 N 0.70883 -0.07567 0.19924
 N2294 N 0.70318 -0.06747 0.20728
 C2295 C 0.71024 -0.05626 0.21291
 C2296 C 0.70344 -0.04763 0.22173
 C2297 C 0.71025 -0.03705 0.22795
 C2298 C 0.72398 -0.03501 0.22544
 C2299 C 0.73075 -0.04344 0.21638
 C2300 C 0.72394 -0.05400 0.21014
 H2301 H 0.70799 -0.11295 0.17241
 H2302 H 0.71886 -0.09291 0.18158
 H2303 H 0.68341 -0.08425 0.20495
 H2304 H 0.67240 -0.10414 0.19582
 H2305 H 0.69290 -0.04928 0.22395
 H2306 H 0.70491 -0.03064 0.23496
 H2307 H 0.74136 -0.04197 0.21436
 H2308 H 0.72942 -0.06051 0.20335
 C2309 C 0.20187 0.39364 0.18204
 C2310 C 0.20803 0.40497 0.18755
 C2311 C 0.20109 0.41314 0.19663
 C2312 C 0.18782 0.40984 0.20021
 C2313 C 0.18164 0.39846 0.19474
 C2314 C 0.18859 0.39024 0.18556
 N2315 N 0.20786 0.42453 0.20220
 N2316 N 0.20213 0.43274 0.21017
 C2317 C 0.20921 0.44388 0.21588
 C2318 C 0.20243 0.45250 0.22471
 C2319 C 0.20929 0.46303 0.23099
 C2320 C 0.22304 0.46501 0.22851
 C2321 C 0.22978 0.45658 0.21943
 C2322 C 0.22293 0.44609 0.21314
 H2323 H 0.20762 0.38750 0.17515
 H2324 H 0.21828 0.40738 0.18477
 H2325 H 0.18226 0.41600 0.20726
 H2326 H 0.17139 0.39620 0.19762
 H2327 H 0.19188 0.45091 0.22690
 H2328 H 0.20397 0.46945 0.23801
 H2329 H 0.24040 0.45801 0.21743
 H2330 H 0.22839 0.43959 0.20634
 C2331 C 0.18004 -0.10502 0.70037
 C2332 C 0.18532 -0.09353 0.70645
 C2333 C 0.19596 -0.08656 0.70053
 C2334 C 0.20128 -0.09116 0.68832
 C2335 C 0.19598 -0.10265 0.68218
 C2336 C 0.18531 -0.10976 0.68815
 N2337 N 0.20128 -0.07500 0.70724
 N2338 N 0.21144 -0.06857 0.70287
 C2339 C 0.21678 -0.05717 0.70985
 C2340 C 0.22881 -0.05141 0.70536
 C2341 C 0.23468 -0.04079 0.71242
 C2342 C 0.22847 -0.03572 0.72399
 C2343 C 0.21623 -0.04122 0.72831
 C2344 C 0.21043 -0.05191 0.72132
 H2345 H 0.17189 -0.11018 0.70537
 H2346 H 0.18117 -0.09010 0.71589
 H2347 H 0.20952 -0.08591 0.68353
 H2348 H 0.20030 -0.10589 0.67277
 H2349 H 0.23379 -0.05536 0.69653
 H2350 H 0.24417 -0.03665 0.70902
 H2351 H 0.21137 -0.03744 0.73727
 H2352 H 0.20111 -0.05617 0.72498
 C2353 C 0.31698 0.29730 0.39373
 C2354 C 0.31134 0.29106 0.40494
 C2355 C 0.30254 0.29814 0.41332
 C2356 C 0.29937 0.31161 0.41035
 C2357 C 0.30495 0.31786 0.39909
 C2358 C 0.31383 0.31077 0.39065
 N2359 N 0.29679 0.29130 0.42457
 N2360 N 0.28919 0.29719 0.43302
 C2361 C 0.28328 0.29009 0.44403
 C2362 C 0.27526 0.29716 0.45319
 C2363 C 0.26891 0.29038 0.46372
 C2364 C 0.27050 0.27642 0.46514
 C2365 C 0.27869 0.26934 0.45610
 C2366 C 0.28506 0.27612 0.44562
 H2367 H 0.32365 0.29147 0.38741
 H2368 H 0.31380 0.28066 0.40709
 H2369 H 0.29255 0.31728 0.41667
 H2370 H 0.30238 0.32826 0.39708
 H2371 H 0.27380 0.30791 0.45207
 H2372 H 0.26258 0.29595 0.47062
 H2373 H 0.27999 0.25855 0.45708
 H2374 H 0.29121 0.27042 0.43867
 C2375 C 0.31594 0.79808 -0.10794
 C2376 C 0.31073 0.79212 -0.09640
 C2377 C 0.30257 0.79948 -0.08766
 C2378 C 0.29969 0.81304 -0.09055
 C2379 C 0.30492 0.81906 -0.10212
 C2380 C 0.31312 0.81165 -0.11098
 N2381 N 0.29717 0.79282 -0.07614
 N2382 N 0.28970 0.79872 -0.06759
 C2383 C 0.28418 0.79165 -0.05635
 C2384 C 0.27579 0.79854 -0.04738
 C2385 C 0.26972 0.79171 -0.03671
 C2386 C 0.27196 0.77787 -0.03494
 C2387 C 0.28060 0.77101 -0.04373
 C2388 C 0.28667 0.77783 -0.05437
 H2389 H 0.32212 0.79195 -0.11445
 H2390 H 0.31301 0.78166 -0.09427
 H2391 H 0.29338 0.81894 -0.08392
 H2392 H 0.30251 0.82950 -0.10406
 H2393 H 0.27377 0.80917 -0.04880
 H2394 H 0.26303 0.79712 -0.03003
 H2395 H 0.28241 0.76032 -0.04250
 H2396 H 0.29310 0.77226 -0.06116
 C2397 C 0.81915 0.30070 -0.10598
 C2398 C 0.81385 0.29461 -0.09454
 C2399 C 0.80407 0.30118 -0.08688
 C2400 C 0.79961 0.31404 -0.09077
 C2401 C 0.80491 0.32018 -0.10224
 C2402 C 0.81476 0.31357 -0.10999
 N2403 N 0.79875 0.29444 -0.07538
 N2404 N 0.78970 0.29957 -0.06793
 C2405 C 0.78439 0.29243 -0.05663
 C2406 C 0.77385 0.29817 -0.04924
 C2407 C 0.76797 0.29108 -0.03865
 C2408 C 0.77262 0.27816 -0.03533
 C2409 C 0.78342 0.27253 -0.04247
 C2410 C 0.78925 0.27959 -0.05307
 H2411 H 0.82659 0.29520 -0.11170
 H2412 H 0.81732 0.28467 -0.09167
 H2413 H 0.79203 0.31932 -0.08499
 H2414 H 0.80133 0.33011 -0.10494
 H2415 H 0.77002 0.30805 -0.05188
 H2416 H 0.75964 0.29553 -0.03321
 H2417 H 0.78710 0.26256 -0.04000
 H2418 H 0.79741 0.27494 -0.05859
 C2419 C 0.79859 0.81995 0.39388
 C2420 C 0.79251 0.81491 0.40545
 C2421 C 0.79909 0.80528 0.41329
 C2422 C 0.81190 0.80067 0.40942
 C2423 C 0.81802 0.80571 0.39784
 C2424 C 0.81144 0.81545 0.38994
 N2425 N 0.79243 0.80027 0.42498
 N2426 N 0.79761 0.79133 0.43253
 C2427 C 0.79063 0.78628 0.44403
 C2428 C 0.79628 0.77560 0.45128
 C2429 C 0.78929 0.76988 0.46201
 C2430 C 0.77659 0.77489 0.46566
 C2431 C 0.77107 0.78583 0.45868
 C2432 C 0.77803 0.79149 0.44791
 H2433 H 0.79310 0.82730 0.38803
 H2434 H 0.78260 0.81847 0.40829
 H2435 H 0.81718 0.79319 0.41534
 H2436 H 0.82793 0.80205 0.39518
 H2437 H 0.80597 0.77149 0.44838
 H2438 H 0.79361 0.76137 0.46729
 H2439 H 0.76124 0.78972 0.46136
 H2440 H 0.77346 0.79977 0.44249
 C2441 C 0.67913 0.29786 0.60491
 C2442 C 0.68414 0.29155 0.59343
 C2443 C 0.69405 0.29777 0.58565
 C2444 C 0.69890 0.31047 0.58948
 C2445 C 0.69390 0.31680 0.60097
 C2446 C 0.68396 0.31056 0.60886
 N2447 N 0.69916 0.29088 0.57411
 N2448 N 0.70830 0.29588 0.56670
 C2449 C 0.71362 0.28884 0.55534
 C2450 C 0.72426 0.29460 0.54816
 C2451 C 0.73021 0.28765 0.53750
 C2452 C 0.72549 0.27488 0.53386
 C2453 C 0.71462 0.26921 0.54082
 C2454 C 0.70872 0.27614 0.55151
 H2455 H 0.67158 0.29266 0.61074
 H2456 H 0.68037 0.28174 0.59061
 H2457 H 0.70656 0.31549 0.58363
 H2458 H 0.69780 0.32660 0.60358
 H2459 H 0.72813 0.30437 0.55102
 H2460 H 0.73864 0.29210 0.53225
 H2461 H 0.71095 0.25932 0.53814
 H2462 H 0.70050 0.27148 0.55689
 C2463 C 0.67895 0.79779 1.10517
 C2464 C 0.68394 0.79152 1.09366
 C2465 C 0.69390 0.79771 1.08594
 C2466 C 0.69883 0.81036 1.08984
 C2467 C 0.69385 0.81666 1.10135
 C2468 C 0.68385 0.81045 1.10918
 N2469 N 0.69898 0.79086 1.07436
 N2470 N 0.70822 0.79580 1.06704
 C2471 C 0.71348 0.78879 1.05564
 C2472 C 0.72430 0.79440 1.04861
 C2473 C 0.73018 0.78745 1.03792
 C2474 C 0.72522 0.77482 1.03409
 C2475 C 0.71417 0.76932 1.04089
 C2476 C 0.70833 0.77624 1.05162
 H2477 H 0.67135 0.79261 1.11095
 H2478 H 0.68010 0.78175 1.09078
 H2479 H 0.70655 0.81536 1.08404
 H2480 H 0.69782 0.82642 1.10402
 H2481 H 0.72835 0.80404 1.05161
 H2482 H 0.73876 0.79176 1.03280
 H2483 H 0.71031 0.75954 1.03807
 H2484 H 0.69997 0.77170 1.05688
 C2485 C 0.20094 0.31693 1.10630
 C2486 C 0.20699 0.31156 1.09488
 C2487 C 0.20011 0.30233 1.08689
 C2488 C 0.18701 0.29842 1.09049
 C2489 C 0.18091 0.30381 1.10197
 C2490 C 0.18779 0.31319 1.10998
 N2491 N 0.20680 0.29705 1.07532
 N2492 N 0.20145 0.28851 1.06748
 C2493 C 0.20864 0.28333 1.05613
 C2494 C 0.20278 0.27317 1.04837
 C2495 C 0.20993 0.26738 1.03774
 C2496 C 0.22301 0.27173 1.03475
 C2497 C 0.22872 0.28220 1.04223
 C2498 C 0.22162 0.28795 1.05287
 H2499 H 0.20668 0.32395 1.11227
 H2500 H 0.21712 0.31457 1.09225
 H2501 H 0.18151 0.29125 1.08446
 H2502 H 0.17077 0.30073 1.10445
 H2503 H 0.19279 0.26955 1.05074
 H2504 H 0.20540 0.25930 1.03203
 H2505 H 0.23881 0.28567 1.04001
 H2506 H 0.22635 0.29583 1.05866
 C2507 C 0.20055 0.81896 0.60608
 C2508 C 0.20670 0.81358 0.59468
 C2509 C 0.20017 0.80381 0.58703
 C2510 C 0.18731 0.79942 0.59091
 C2511 C 0.18112 0.80480 0.60233
 C2512 C 0.18768 0.81465 0.61007
 N2513 N 0.20694 0.79842 0.57555
 N2514 N 0.20179 0.78940 0.56810
 C2515 C 0.20890 0.78399 0.55680
 C2516 C 0.20307 0.77353 0.54943
 C2517 C 0.21010 0.76756 0.53882
 C2518 C 0.22305 0.77202 0.53546
 C2519 C 0.22875 0.78275 0.54258
 C2520 C 0.22176 0.78869 0.55321
 H2521 H 0.20602 0.82640 0.61179
 H2522 H 0.21664 0.81699 0.59183
 H2523 H 0.18206 0.79185 0.58515
 H2524 H 0.17119 0.80128 0.60502
 H2525 H 0.19318 0.76984 0.55208
 H2526 H 0.20558 0.75928 0.53340
 H2527 H 0.23874 0.78631 0.54008
 H2528 H 0.22647 0.79678 0.55871
 C2529 C 0.30003 0.68224 0.60614
 C2530 C 0.29409 0.68773 0.59472
 C2531 C 0.30089 0.69731 0.58706
 C2532 C 0.31381 0.70145 0.59100
 C2533 C 0.31981 0.69595 0.60247
 C2534 C 0.31300 0.68623 0.61017
 N2535 N 0.29429 0.70270 0.57549
 N2536 N 0.29953 0.71160 0.56795
 C2537 C 0.29242 0.71685 0.55658
 C2538 C 0.29810 0.72739 0.54918
 C2539 C 0.29101 0.73322 0.53854
 C2540 C 0.27815 0.72851 0.53517
 C2541 C 0.27262 0.71769 0.54229
 C2542 C 0.27967 0.71191 0.55294
 H2543 H 0.29434 0.67495 0.61184
 H2544 H 0.28409 0.68453 0.59182
 H2545 H 0.31925 0.70889 0.58523
 H2546 H 0.32981 0.69924 0.60522
 H2547 H 0.30791 0.73128 0.55186
 H2548 H 0.29538 0.74158 0.53312
 H2549 H 0.26270 0.71395 0.53978
 H2550 H 0.27507 0.70374 0.55845
 C2551 C 0.30006 0.18230 1.10618
 C2552 C 0.29398 0.18763 1.09476
 C2553 C 0.30071 0.19707 1.08687
 C2554 C 0.31369 0.20125 1.09059
 C2555 C 0.31982 0.19590 1.10207
 C2556 C 0.31309 0.18630 1.10997
 N2557 N 0.29399 0.20225 1.07528
 N2558 N 0.29914 0.21100 1.06752
 C2559 C 0.29190 0.21602 1.05613
 C2560 C 0.29745 0.22646 1.04851
 C2561 C 0.29022 0.23208 1.03784
 C2562 C 0.27736 0.22724 1.03467
 C2563 C 0.27196 0.21650 1.04201
 C2564 C 0.27915 0.21094 1.05269
 H2565 H 0.29442 0.17511 1.11206
 H2566 H 0.28394 0.18441 1.09204
 H2567 H 0.31907 0.20858 1.08463
 H2568 H 0.32987 0.19918 1.10464
 H2569 H 0.30726 0.23045 1.05103
 H2570 H 0.29449 0.24038 1.03225
 H2571 H 0.26204 0.21267 1.03966
 H2572 H 0.27465 0.20283 1.05837
 C2573 C 0.81975 0.70181 1.10517
 C2574 C 0.81460 0.70794 1.09367
 C2575 C 0.80480 0.70151 1.08599
 C2576 C 0.80013 0.68877 1.08994
 C2577 C 0.80528 0.68260 1.10146
 C2578 C 0.81518 0.68904 1.10922
 N2579 N 0.79969 0.70825 1.07437
 N2580 N 0.79057 0.70323 1.06696
 C2581 C 0.78544 0.71030 1.05553
 C2582 C 0.77466 0.70479 1.04838
 C2583 C 0.76891 0.71184 1.03768
 C2584 C 0.77399 0.72446 1.03396
 C2585 C 0.78501 0.72985 1.04086
 C2586 C 0.79070 0.72283 1.05159
 H2587 H 0.82722 0.70720 1.11090
 H2588 H 0.81823 0.71780 1.09076
 H2589 H 0.79252 0.68361 1.08415
 H2590 H 0.80155 0.67275 1.10419
 H2591 H 0.77051 0.69515 1.05131
 H2592 H 0.76035 0.70762 1.03247
 H2593 H 0.78896 0.73963 1.03812
 H2594 H 0.79905 0.72730 1.05693
 C2595 C 0.82171 0.20124 0.60424
 C2596 C 0.81677 0.20741 0.59265
 C2597 C 0.80614 0.20166 0.58551
 C2598 C 0.80047 0.18955 0.59009
 C2599 C 0.80538 0.18337 0.60169
 C2600 C 0.81605 0.18915 0.60894
 N2601 N 0.80114 0.20845 0.57386
 N2602 N 0.79144 0.20386 0.56693
 C2603 C 0.78627 0.21086 0.55547
 C2604 C 0.77511 0.20557 0.54875
 C2605 C 0.76931 0.21257 0.53804
 C2606 C 0.77470 0.22492 0.53389
 C2607 C 0.78607 0.23010 0.54038
 C2608 C 0.79183 0.22313 0.55112
 H2609 H 0.82983 0.20608 0.60957
 H2610 H 0.82119 0.21677 0.58926
 H2611 H 0.79223 0.18491 0.58474
 H2612 H 0.80083 0.17403 0.60491
 H2613 H 0.77073 0.19615 0.55201
 H2614 H 0.76048 0.20851 0.53315
 H2615 H 0.79026 0.23967 0.53731
 H2616 H 0.80046 0.22742 0.55615
 C2617 C 0.70325 0.67876 0.39509
 C2618 C 0.70962 0.68386 0.40649
 C2619 C 0.70352 0.69400 0.41409
 C2620 C 0.69087 0.69900 0.41020
 C2621 C 0.68448 0.69391 0.39882
 C2622 C 0.69060 0.68375 0.39108
 N2623 N 0.71048 0.69920 0.42552
 N2624 N 0.70564 0.70864 0.43269
 C2625 C 0.71273 0.71401 0.44396
 C2626 C 0.70719 0.72499 0.45084
 C2627 C 0.71418 0.73094 0.46142
 C2628 C 0.72679 0.72589 0.46530
 C2629 C 0.73224 0.71471 0.45863
 C2630 C 0.72527 0.70880 0.44801
 H2631 H 0.70836 0.67103 0.38939
 H2632 H 0.71940 0.67996 0.40935
 H2633 H 0.68594 0.70685 0.41593
 H2634 H 0.67472 0.69795 0.39616
 H2635 H 0.69755 0.72910 0.44781
 H2636 H 0.70990 0.73961 0.46646
 H2637 H 0.74199 0.71076 0.46151
 H2638 H 0.72975 0.70031 0.44286
 C2639 C 0.68147 0.20179 -0.10560
 C2640 C 0.68679 0.20789 -0.09418
 C2641 C 0.69658 0.20130 -0.08655
 C2642 C 0.70103 0.18845 -0.09044
 C2643 C 0.69572 0.18232 -0.10188
 C2644 C 0.68587 0.18893 -0.10961
 N2645 N 0.70196 0.20801 -0.07507
 N2646 N 0.71100 0.20277 -0.06769
 C2647 C 0.71646 0.20979 -0.05642
 C2648 C 0.72699 0.20387 -0.04917
 C2649 C 0.73306 0.21083 -0.03862
 C2650 C 0.72860 0.22380 -0.03521
 C2651 C 0.71780 0.22959 -0.04220
 C2652 C 0.71178 0.22266 -0.05276
 H2653 H 0.67403 0.20728 -0.11133
 H2654 H 0.68333 0.21783 -0.09131
 H2655 H 0.70862 0.18316 -0.08468
 H2656 H 0.69930 0.17239 -0.10456
 H2657 H 0.73068 0.19397 -0.05188
 H2658 H 0.74139 0.20626 -0.03329
 H2659 H 0.71427 0.23959 -0.03964
 H2660 H 0.70363 0.22743 -0.05819
 C2661 C 0.17918 0.69965 -0.10353
 C2662 C 0.18411 0.70567 -0.09190
 C2663 C 0.19519 0.70018 -0.08522
 C2664 C 0.20126 0.68842 -0.09022
 C2665 C 0.19632 0.68234 -0.10186
 C2666 C 0.18526 0.68794 -0.10872
 N2667 N 0.20019 0.70694 -0.07360
 N2668 N 0.21064 0.70301 -0.06733
 C2669 C 0.21563 0.71015 -0.05591
 C2670 C 0.22788 0.70615 -0.05019
 C2671 C 0.23343 0.71347 -0.03959
 C2672 C 0.22668 0.72481 -0.03454
 C2673 C 0.21425 0.72862 -0.04000
 C2674 C 0.20876 0.72137 -0.05064
 H2675 H 0.17059 0.70424 -0.10839
 H2676 H 0.17935 0.71474 -0.08814
 H2677 H 0.20986 0.68398 -0.08521
 H2678 H 0.20130 0.67338 -0.10554
 H2679 H 0.23326 0.69753 -0.05415
 H2680 H 0.24306 0.71047 -0.03548
 H2681 H 0.20900 0.73741 -0.03621
 H2682 H 0.19927 0.72466 -0.05487
 C2683 C 0.20144 0.18130 0.39286
 C2684 C 0.20764 0.18665 0.40421
 C2685 C 0.20059 0.19533 0.41273
 C2686 C 0.18717 0.19870 0.40973
 C2687 C 0.18096 0.19341 0.39831
 C2688 C 0.18802 0.18462 0.38976
 N2689 N 0.20740 0.20074 0.42415
 N2690 N 0.20152 0.20809 0.43281
 C2691 C 0.20864 0.21368 0.44397
 C2692 C 0.20159 0.22152 0.45331
 C2693 C 0.20841 0.22767 0.46393
 C2694 C 0.22237 0.22607 0.46525
 C2695 C 0.22941 0.21801 0.45607
 C2696 C 0.22260 0.21183 0.44551
 H2697 H 0.20726 0.17471 0.38645
 H2698 H 0.21801 0.18405 0.40638
 H2699 H 0.18153 0.20544 0.41616
 H2700 H 0.17060 0.19612 0.39628
 H2701 H 0.19085 0.22304 0.45224
 H2702 H 0.20287 0.23392 0.47092
 H2703 H 0.24020 0.21672 0.45698
 H2704 H 0.22828 0.20582 0.43843
 C2705 C 0.29874 0.39339 0.68081
 C2706 C 0.29257 0.40472 0.68641
 C2707 C 0.29920 0.41233 0.69615
 C2708 C 0.31217 0.40848 0.70026
 C2709 C 0.31837 0.39712 0.69466
 C2710 C 0.31173 0.38942 0.68486
 N2711 N 0.29241 0.42376 0.70177
 N2712 N 0.29769 0.43119 0.71071
 C2713 C 0.29060 0.44243 0.71637
 C2714 C 0.29669 0.44989 0.72660
 C2715 C 0.28976 0.46049 0.73276
 C2716 C 0.27663 0.46376 0.72872
 C2717 C 0.27063 0.45653 0.71825
 C2718 C 0.27754 0.44592 0.71213
 H2719 H 0.29322 0.38771 0.67341
 H2720 H 0.28255 0.40756 0.68320
 H2721 H 0.31750 0.41420 0.70779
 H2722 H 0.32839 0.39445 0.69799
 H2723 H 0.30674 0.44732 0.72995
 H2724 H 0.29450 0.46600 0.74083
 H2725 H 0.26050 0.45896 0.71503
 H2726 H 0.27262 0.44035 0.70422
 C2727 C 0.31930 0.89249 0.20075
 C2728 C 0.31381 0.90375 0.20713
 C2729 C 0.30461 0.91204 0.20047
 C2730 C 0.30088 0.90894 0.18725
 C2731 C 0.30631 0.89762 0.18086
 C2732 C 0.31561 0.88928 0.18754
 N2733 N 0.29907 0.92337 0.20744
 N2734 N 0.29112 0.93175 0.20189
 C2735 C 0.28544 0.94284 0.20915
 C2736 C 0.27693 0.95188 0.20246
 C2737 C 0.27080 0.96248 0.20942
 C2738 C 0.27311 0.96409 0.22317
 C2739 C 0.28178 0.95518 0.22986
 C2740 C 0.28794 0.94464 0.22290
 H2741 H 0.32629 0.88624 0.20628
 H2742 H 0.31670 0.90601 0.21734
 H2743 H 0.29373 0.91519 0.18191
 H2744 H 0.30331 0.89551 0.17067
 H2745 H 0.27491 0.95060 0.19188
 H2746 H 0.26408 0.96927 0.20416
 H2747 H 0.28361 0.95632 0.24049
 H2748 H 0.29448 0.93780 0.22830
 C2749 C 0.79781 0.39357 0.18062
 C2750 C 0.79153 0.40496 0.18599
 C2751 C 0.79855 0.41354 0.19458
 C2752 C 0.81201 0.41061 0.19780
 C2753 C 0.81829 0.39918 0.19249
 C2754 C 0.81126 0.39052 0.18384
 N2755 N 0.79170 0.42495 0.20014
 N2756 N 0.79763 0.43352 0.20752
 C2757 C 0.79060 0.44467 0.21338
 C2758 C 0.79776 0.45381 0.22131
 C2759 C 0.79106 0.46437 0.22777
 C2760 C 0.77708 0.46586 0.22638
 C2761 C 0.76994 0.45690 0.21820
 C2762 C 0.77664 0.44638 0.21173
 H2763 H 0.79204 0.38708 0.17410
 H2764 H 0.78113 0.40708 0.18350
 H2765 H 0.81764 0.41708 0.20446
 H2766 H 0.82868 0.39722 0.19510
 H2767 H 0.80851 0.45259 0.22267
 H2768 H 0.79668 0.47119 0.23409
 H2769 H 0.75914 0.45794 0.21706
 H2770 H 0.77089 0.43945 0.20565
 C2771 C 0.81714 0.89371 0.70077
 C2772 C 0.81166 0.90506 0.70697
 C2773 C 0.80257 0.91332 0.70014
 C2774 C 0.79889 0.91006 0.68695
 C2775 C 0.80434 0.89863 0.68071
 C2776 C 0.81359 0.89037 0.68755
 N2777 N 0.79715 0.92479 0.70697
 N2778 N 0.78919 0.93316 0.70142
 C2779 C 0.78373 0.94438 0.70865
 C2780 C 0.77486 0.95320 0.70214
 C2781 C 0.76886 0.96384 0.70915
 C2782 C 0.77167 0.96573 0.72279
 C2783 C 0.78077 0.95711 0.72926
 C2784 C 0.78679 0.94651 0.72225
 H2785 H 0.82405 0.88752 0.70645
 H2786 H 0.81451 0.90743 0.71717
 H2787 H 0.79182 0.91630 0.68148
 H2788 H 0.80142 0.89639 0.67052
 H2789 H 0.77242 0.95168 0.69169
 H2790 H 0.76181 0.97041 0.70406
 H2791 H 0.78301 0.95847 0.73979
 H2792 H 0.79364 0.93986 0.72752
 C2793 C 0.70136 0.60785 0.68216
 C2794 C 0.70754 0.59647 0.68766
 C2795 C 0.70036 0.58787 0.69610
 C2796 C 0.68684 0.59081 0.69910
 C2797 C 0.68065 0.60225 0.69367
 C2798 C 0.68784 0.61088 0.68511
 N2799 N 0.70713 0.57642 0.70166
 N2800 N 0.70113 0.56771 0.70884
 C2801 C 0.70817 0.55650 0.71459
 C2802 C 0.70099 0.54714 0.72226
 C2803 C 0.70771 0.53649 0.72857
 C2804 C 0.72171 0.53514 0.72730
 C2805 C 0.72888 0.54433 0.71939
 C2806 C 0.72216 0.55494 0.71306
 H2807 H 0.70727 0.61433 0.67575
 H2808 H 0.71799 0.59435 0.68534
 H2809 H 0.68109 0.58432 0.70566
 H2810 H 0.67021 0.60423 0.69608
 H2811 H 0.69022 0.54824 0.72352
 H2812 H 0.70206 0.52948 0.73469
 H2813 H 0.73969 0.54339 0.71834
 H2814 H 0.72794 0.56202 0.70717
 C2815 C 0.70129 0.10721 0.18168
 C2816 C 0.70744 0.09586 0.18727
 C2817 C 0.70045 0.08770 0.19629
 C2818 C 0.68714 0.09105 0.19975
 C2819 C 0.68097 0.10247 0.19423
 C2820 C 0.68798 0.11067 0.18510
 N2821 N 0.70723 0.07628 0.20191
 N2822 N 0.70144 0.06790 0.20963
 C2823 C 0.70858 0.05672 0.21534
 C2824 C 0.70164 0.04756 0.22346
 C2825 C 0.70848 0.03686 0.22958
 C2826 C 0.72239 0.03527 0.22768
 C2827 C 0.72932 0.04431 0.21940
 C2828 C 0.72248 0.05495 0.21325
 H2829 H 0.70707 0.11334 0.17483
 H2830 H 0.71773 0.09343 0.18458
 H2831 H 0.68154 0.08490 0.20675
 H2832 H 0.67070 0.10478 0.19702
 H2833 H 0.69094 0.04881 0.22516
 H2834 H 0.70301 0.02997 0.23598
 H2835 H 0.74006 0.04321 0.21786
 H2836 H 0.72809 0.06188 0.20703
 C2837 C 0.20081 0.60713 0.18476
 C2838 C 0.20692 0.59589 0.19056
 C2839 C 0.19973 0.58764 0.19934
 C2840 C 0.18627 0.59082 0.20238
 C2841 C 0.18014 0.60215 0.19662
 C2842 C 0.18734 0.61040 0.18768
 N2843 N 0.20649 0.57627 0.20510
 N2844 N 0.20066 0.56777 0.21265
 C2845 C 0.20789 0.55666 0.21838
 C2846 C 0.20101 0.54737 0.22641
 C2847 C 0.20794 0.53670 0.23248
 C2848 C 0.22187 0.53525 0.23061
 C2849 C 0.22874 0.54441 0.22242
 C2850 C 0.22182 0.55503 0.21632
 H2851 H 0.20675 0.61331 0.17809
 H2852 H 0.21732 0.59358 0.18822
 H2853 H 0.18053 0.58459 0.20920
 H2854 H 0.16974 0.60434 0.19904
 H2855 H 0.19030 0.54850 0.22808
 H2856 H 0.20252 0.52971 0.23882
 H2857 H 0.23950 0.54341 0.22088
 H2858 H 0.22738 0.56204 0.21015
 C2859 C 0.18202 0.10459 0.69962
 C2860 C 0.18745 0.09315 0.70570
 C2861 C 0.19786 0.08598 0.69956
 C2862 C 0.20286 0.09039 0.68714
 C2863 C 0.19739 0.10185 0.68099
 C2864 C 0.18686 0.10908 0.68715
 N2865 N 0.20313 0.07437 0.70625
 N2866 N 0.21310 0.06761 0.70185
 C2867 C 0.21815 0.05613 0.70897
 C2868 C 0.23016 0.05005 0.70473
 C2869 C 0.23573 0.03934 0.71199
 C2870 C 0.22923 0.03451 0.72350
 C2871 C 0.21701 0.04032 0.72755
 C2872 C 0.21152 0.05108 0.72037
 H2873 H 0.17407 0.10989 0.70482
 H2874 H 0.18357 0.08989 0.71531
 H2875 H 0.21093 0.08497 0.68220
 H2876 H 0.20136 0.10494 0.67138
 H2877 H 0.23535 0.05381 0.69596
 H2878 H 0.24519 0.03496 0.70878
 H2879 H 0.21192 0.03670 0.73644
 H2880 H 0.20220 0.05557 0.72384
 C2881 C 0.31824 0.60708 0.29835
 C2882 C 0.31297 0.59569 0.29208
 C2883 C 0.30439 0.58702 0.29903
 C2884 C 0.30106 0.58988 0.31242
 C2885 C 0.30627 0.60132 0.31870
 C2886 C 0.31495 0.61004 0.31174
 N2887 N 0.29899 0.57559 0.29217
 N2888 N 0.29171 0.56686 0.29802
 C2889 C 0.28606 0.55568 0.29094
 C2890 C 0.27828 0.54631 0.29797
 C2891 C 0.27202 0.53571 0.29121
 C2892 C 0.27346 0.53443 0.27730
 C2893 C 0.28147 0.54363 0.27026
 C2894 C 0.28776 0.55419 0.27702
 H2895 H 0.32476 0.61362 0.29262
 H2896 H 0.31554 0.59363 0.28174
 H2897 H 0.29440 0.58334 0.31799
 H2898 H 0.30359 0.60324 0.32903
 H2899 H 0.27688 0.54737 0.30868
 H2900 H 0.26581 0.52870 0.29675
 H2901 H 0.28262 0.54276 0.25951
 H2902 H 0.29372 0.56130 0.27136
 C2903 C 0.31727 0.10645 0.79975
 C2904 C 0.31190 0.09500 0.79371
 C2905 C 0.30279 0.08687 0.80062
 C2906 C 0.29899 0.09036 0.81373
 C2907 C 0.30434 0.10187 0.81981
 C2908 C 0.31360 0.11002 0.81290
 N2909 N 0.29749 0.07531 0.79393
 N2910 N 0.28935 0.06713 0.79944
 C2911 C 0.28410 0.05581 0.79225
 C2912 C 0.27485 0.04728 0.79856
 C2913 C 0.26906 0.03658 0.79152
 C2914 C 0.27247 0.03434 0.77807
 C2915 C 0.28196 0.04267 0.77183
 C2916 C 0.28774 0.05333 0.77885
 H2917 H 0.32420 0.11252 0.79400
 H2918 H 0.31484 0.09245 0.78358
 H2919 H 0.29191 0.08422 0.81925
 H2920 H 0.30134 0.10428 0.82995
 H2921 H 0.27196 0.04908 0.80886
 H2922 H 0.26171 0.03024 0.79644
 H2923 H 0.28467 0.04104 0.76144
 H2924 H 0.29489 0.05974 0.77374
 C2925 C 0.81755 0.60633 0.79781
 C2926 C 0.81196 0.59510 0.79152
 C2927 C 0.80309 0.58669 0.79844
 C2928 C 0.79981 0.58965 0.81181
 C2929 C 0.80533 0.60094 0.81810
 C2930 C 0.81427 0.60940 0.81117
 N2931 N 0.79736 0.57544 0.79157
 N2932 N 0.78980 0.56695 0.79742
 C2933 C 0.78379 0.55594 0.79037
 C2934 C 0.77584 0.54676 0.79746
 C2935 C 0.76932 0.53628 0.79076
 C2936 C 0.77066 0.53493 0.77684
 C2937 C 0.77882 0.54396 0.76974
 C2938 C 0.78537 0.55439 0.77645
 H2939 H 0.82427 0.61268 0.79211
 H2940 H 0.81451 0.59295 0.78118
 H2941 H 0.79293 0.58332 0.81736
 H2942 H 0.80266 0.60294 0.82842
 H2943 H 0.77455 0.54785 0.80818
 H2944 H 0.76303 0.52939 0.79635
 H2945 H 0.77994 0.54302 0.75899
 H2946 H 0.79147 0.56136 0.77074
 C2947 C 0.81842 0.10686 0.29700
 C2948 C 0.81307 0.09557 0.29063
 C2949 C 0.80432 0.08697 0.29747
 C2950 C 0.80089 0.08983 0.31083
 C2951 C 0.80618 0.10118 0.31720
 C2952 C 0.81503 0.10982 0.31036
 N2953 N 0.79887 0.07563 0.29051
 N2954 N 0.79143 0.06694 0.29622
 C2955 C 0.78577 0.05586 0.28900
 C2956 C 0.77785 0.04648 0.29588
 C2957 C 0.77165 0.03594 0.28898
 C2958 C 0.77328 0.03472 0.27508
 C2959 C 0.78141 0.04394 0.26820
 C2960 C 0.78764 0.05443 0.27510
 H2961 H 0.82506 0.11335 0.29135
 H2962 H 0.81572 0.09351 0.28031
 H2963 H 0.79410 0.08334 0.31631
 H2964 H 0.80342 0.10310 0.32751
 H2965 H 0.77632 0.04748 0.30657
 H2966 H 0.76535 0.02891 0.29439
 H2967 H 0.78272 0.04310 0.25746
 H2968 H 0.79372 0.06154 0.26955
 C2969 C 0.68044 0.39346 0.29643
 C2970 C 0.68586 0.40472 0.28997
 C2971 C 0.69476 0.41325 0.29671
 C2972 C 0.69818 0.41041 0.31007
 C2973 C 0.69285 0.39912 0.31651
 C2974 C 0.68394 0.39049 0.30976
 N2975 N 0.70040 0.42450 0.28970
 N2976 N 0.70793 0.43306 0.29547
 C2977 C 0.71393 0.44410 0.28842
 C2978 C 0.72168 0.45339 0.29557
 C2979 C 0.72819 0.46392 0.28892
 C2980 C 0.72707 0.46522 0.27498
 C2981 C 0.71913 0.45605 0.26780
 C2982 C 0.71258 0.44556 0.27447
 H2983 H 0.67371 0.38699 0.29088
 H2984 H 0.68318 0.40676 0.27966
 H2985 H 0.70506 0.41684 0.31550
 H2986 H 0.69566 0.39724 0.32681
 H2987 H 0.72282 0.45236 0.30631
 H2988 H 0.73431 0.47090 0.29458
 H2989 H 0.71818 0.45694 0.25703
 H2990 H 0.70666 0.43850 0.26871
 C2991 C 0.67746 0.89511 0.79783
 C2992 C 0.68243 0.90666 0.79153
 C2993 C 0.69284 0.91407 0.79734
 C2994 C 0.69825 0.90982 0.80964
 C2995 C 0.69329 0.89830 0.81597
 C2996 C 0.68284 0.89077 0.81014
 N2997 N 0.69785 0.92571 0.79049
 N2998 N 0.70768 0.93256 0.79497
 C2999 C 0.71286 0.94405 0.78801
 C3000 C 0.72453 0.95025 0.79283
 C3001 C 0.73031 0.96098 0.78585
 C3002 C 0.72438 0.96573 0.77400
 C3003 C 0.71247 0.95980 0.76935
 C3004 C 0.70675 0.94899 0.77628
 H3005 H 0.66949 0.88959 0.79295
 H3006 H 0.67821 0.90980 0.78202
 H3007 H 0.70631 0.91539 0.81435
 H3008 H 0.69765 0.89538 0.82546
 H3009 H 0.72932 0.94655 0.80186
 H3010 H 0.73953 0.96545 0.78953
 H3011 H 0.70782 0.96335 0.76019
 H3012 H 0.69770 0.94440 0.77237
 C3013 C 0.20056 0.39404 0.82175
 C3014 C 0.20668 0.40557 0.81657
 C3015 C 0.20028 0.41321 0.80666
 C3016 C 0.18753 0.40926 0.80206
 C3017 C 0.18138 0.39772 0.80724
 C3018 C 0.18786 0.38990 0.81709
 N3019 N 0.20710 0.42466 0.80122
 N3020 N 0.20202 0.43192 0.79200
 C3021 C 0.20908 0.44313 0.78636
 C3022 C 0.20317 0.45030 0.77579
 C3023 C 0.21014 0.46079 0.76955
 C3024 C 0.22311 0.46424 0.77385
 C3025 C 0.22892 0.45731 0.78465
 C3026 C 0.22197 0.44681 0.79086
 H3027 H 0.20593 0.38830 0.82926
 H3028 H 0.21653 0.40849 0.82017
 H3029 H 0.18237 0.41501 0.79441
 H3030 H 0.17158 0.39496 0.80346
 H3031 H 0.19325 0.44757 0.77223
 H3032 H 0.20554 0.46606 0.76121
 H3033 H 0.23893 0.45989 0.78807
 H3034 H 0.22675 0.44145 0.79903
 C3035 C 0.20176 0.89337 0.31900
 C3036 C 0.20786 0.90477 0.31356
 C3037 C 0.20099 0.91282 0.30434
 C3038 C 0.18779 0.90942 0.30064
 C3039 C 0.18165 0.89798 0.30607
 C3040 C 0.18859 0.88977 0.31528
 N3041 N 0.20784 0.92413 0.29866
 N3042 N 0.20229 0.93215 0.29038
 C3043 C 0.20956 0.94316 0.28460
 C3044 C 0.20295 0.95183 0.27568
 C3045 C 0.20996 0.96233 0.26949
 C3046 C 0.22369 0.96419 0.27213
 C3047 C 0.23029 0.95564 0.28118
 C3048 C 0.22328 0.94521 0.28741
 H3049 H 0.20750 0.88732 0.32597
 H3050 H 0.21806 0.90728 0.31645
 H3051 H 0.18228 0.91551 0.29350
 H3052 H 0.17149 0.89561 0.30301
 H3053 H 0.19240 0.95035 0.27341
 H3054 H 0.20478 0.96885 0.26248
 H3055 H 0.24090 0.95698 0.28329
 H3056 H 0.22862 0.93865 0.29426
 C3057 C 0.39283 0.29932 0.68366
 C3058 C 0.40425 0.29339 0.68926
 C3059 C 0.41233 0.30057 0.69816
 C3060 C 0.40881 0.31387 0.70153
 C3061 C 0.39732 0.31985 0.69593
 C3062 C 0.38923 0.31265 0.68686
 N3063 N 0.42394 0.29401 0.70363
 N3064 N 0.43198 0.29967 0.71177
 C3065 C 0.44337 0.29259 0.71711
 C3066 C 0.45155 0.29891 0.72663
 C3067 C 0.46231 0.29193 0.73249
 C3068 C 0.46500 0.27856 0.72883
 C3069 C 0.45704 0.27233 0.71905
 C3070 C 0.44630 0.27927 0.71324
 H3071 H 0.38679 0.29336 0.67690
 H3072 H 0.40683 0.28311 0.68666
 H3073 H 0.41492 0.31961 0.70844
 H3074 H 0.39490 0.33013 0.69859
 H3075 H 0.44942 0.30915 0.72969
 H3076 H 0.46837 0.29685 0.74005
 H3077 H 0.45902 0.26200 0.71614
 H3078 H 0.44018 0.27416 0.70586
 C3079 C 0.39445 0.79792 0.18176
 C3080 C 0.40589 0.79184 0.18721
 C3081 C 0.41380 0.79871 0.19651
 C3082 C 0.41015 0.81183 0.20037
 C3083 C 0.39870 0.81794 0.19493
 C3084 C 0.39071 0.81106 0.18554
 N3085 N 0.42534 0.79204 0.20197
 N3086 N 0.43301 0.79754 0.21056
 C3087 C 0.44437 0.79056 0.21606
 C3088 C 0.45198 0.79677 0.22610
 C3089 C 0.46266 0.78989 0.23216
 C3090 C 0.46587 0.77674 0.22814
 C3091 C 0.45847 0.77061 0.21789
 C3092 C 0.44778 0.77746 0.21188
 H3093 H 0.38851 0.79223 0.17469
 H3094 H 0.40857 0.78170 0.18422
 H3095 H 0.41613 0.81733 0.20757
 H3096 H 0.39620 0.82808 0.19802
 H3097 H 0.44944 0.80685 0.22941
 H3098 H 0.46827 0.79469 0.24013
 H3099 H 0.46082 0.76042 0.21477
 H3100 H 0.44206 0.77244 0.20413
 C3101 C 0.89489 0.32168 0.20077
 C3102 C 0.90637 0.31652 0.20704
 C3103 C 0.91405 0.30645 0.20088
 C3104 C 0.91014 0.30159 0.18826
 C3105 C 0.89866 0.30673 0.18197
 C3106 C 0.89086 0.31682 0.18816
 N3107 N 0.92556 0.30117 0.20774
 N3108 N 0.93288 0.29188 0.20278
 C3109 C 0.94420 0.28640 0.20981
 C3110 C 0.95131 0.27564 0.20410
 C3111 C 0.96190 0.26953 0.21107
 C3112 C 0.96550 0.27417 0.22382
 C3113 C 0.95865 0.28520 0.22940
 C3114 C 0.94803 0.29126 0.22246
 H3115 H 0.88913 0.32935 0.20591
 H3116 H 0.90926 0.32031 0.21679
 H3117 H 0.91592 0.29380 0.18329
 H3118 H 0.89599 0.30280 0.17224
 H3119 H 0.94845 0.27181 0.19436
 H3120 H 0.96710 0.26102 0.20666
 H3121 H 0.96134 0.28887 0.23925
 H3122 H 0.94271 0.29959 0.22707
 C3123 C 0.89403 0.81883 0.70196
 C3124 C 0.90538 0.81345 0.70827
 C3125 C 0.91374 0.80436 0.70153
 C3126 C 0.91063 0.80065 0.68831
 C3127 C 0.89924 0.80599 0.68199
 C3128 C 0.89081 0.81516 0.68874
 N3129 N 0.92512 0.79887 0.70844
 N3130 N 0.93346 0.79093 0.70283
 C3131 C 0.94459 0.78521 0.70999
 C3132 C 0.95340 0.77650 0.70326
 C3133 C 0.96390 0.77017 0.71016
 C3134 C 0.96567 0.77247 0.72390
 C3135 C 0.95706 0.78145 0.73059
 C3136 C 0.94658 0.78779 0.72370
 H3137 H 0.88772 0.82572 0.70754
 H3138 H 0.90764 0.81633 0.71848
 H3139 H 0.91694 0.79361 0.68290
 H3140 H 0.89713 0.80300 0.67179
 H3141 H 0.95197 0.77444 0.69271
 H3142 H 0.97047 0.76325 0.70487
 H3143 H 0.95832 0.78332 0.74121
 H3144 H 0.93992 0.79448 0.72912
 C3145 C 0.60698 0.29788 0.31858
 C3146 C 0.59563 0.29152 0.31330
 C3147 C 0.58727 0.29824 0.30421
 C3148 C 0.59041 0.31150 0.30041
 C3149 C 0.60180 0.31786 0.30564
 C3150 C 0.61023 0.31113 0.31479
 N3151 N 0.57587 0.29130 0.29883
 N3152 N 0.56751 0.29693 0.29094
 C3153 C 0.55633 0.28979 0.28534
 C3154 C 0.54751 0.29661 0.27673
 C3155 C 0.53692 0.28976 0.27055
 C3156 C 0.53506 0.27596 0.27289
 C3157 C 0.54369 0.26917 0.28175
 C3158 C 0.55426 0.27603 0.28794
 H3159 H 0.61327 0.29232 0.32548
 H3160 H 0.59336 0.28129 0.31626
 H3161 H 0.58411 0.31690 0.29337
 H3162 H 0.60390 0.32809 0.30256
 H3163 H 0.54899 0.30720 0.27464
 H3164 H 0.53035 0.29512 0.26371
 H3165 H 0.54237 0.25852 0.28366
 H3166 H 0.56092 0.27053 0.29457
 C3167 C 0.60654 0.79765 0.81907
 C3168 C 0.59525 0.79122 0.81375
 C3169 C 0.58691 0.79788 0.80460
 C3170 C 0.59000 0.81114 0.80079
 C3171 C 0.60132 0.81757 0.80606
 C3172 C 0.60974 0.81090 0.81527
 N3173 N 0.57557 0.79087 0.79918
 N3174 N 0.56724 0.79644 0.79122
 C3175 C 0.55612 0.78925 0.78558
 C3176 C 0.54729 0.79602 0.77694
 C3177 C 0.53673 0.78912 0.77077
 C3178 C 0.53490 0.77533 0.77315
 C3179 C 0.54355 0.76858 0.78203
 C3180 C 0.55409 0.77549 0.78821
 H3181 H 0.61282 0.79213 0.82602
 H3182 H 0.59301 0.78098 0.81672
 H3183 H 0.58371 0.81649 0.79370
 H3184 H 0.60339 0.82780 0.80296
 H3185 H 0.54874 0.80661 0.77483
 H3186 H 0.53014 0.79446 0.76393
 H3187 H 0.54224 0.75794 0.78397
 H3188 H 0.56076 0.77003 0.79486
 C3189 C 0.10585 0.32022 0.79789
 C3190 C 0.09454 0.31492 0.79146
 C3191 C 0.08635 0.30553 0.79795
 C3192 C 0.08954 0.30153 0.81107
 C3193 C 0.10084 0.30680 0.81752
 C3194 C 0.10920 0.31617 0.81099
 N3195 N 0.07509 0.30000 0.79091
 N3196 N 0.06715 0.29153 0.79628
 C3197 C 0.05608 0.28575 0.78913
 C3198 C 0.04782 0.27643 0.79567
 C3199 C 0.03729 0.27016 0.78880
 C3200 C 0.03496 0.27314 0.77527
 C3201 C 0.04307 0.28264 0.76875
 C3202 C 0.05357 0.28893 0.77562
 H3203 H 0.11201 0.32734 0.79249
 H3204 H 0.09221 0.31806 0.78134
 H3205 H 0.08337 0.29427 0.81631
 H3206 H 0.10299 0.30349 0.82761
 H3207 H 0.04967 0.27388 0.80605
 H3208 H 0.03113 0.26282 0.79394
 H3209 H 0.04137 0.28503 0.75830
 H3210 H 0.05981 0.29611 0.77035
 C3211 C 0.10762 0.81809 0.29887
 C3212 C 0.09634 0.81272 0.29249
 C3213 C 0.08754 0.80425 0.29942
 C3214 C 0.09017 0.80116 0.31291
 C3215 C 0.10151 0.80649 0.31931
 C3216 C 0.11037 0.81503 0.31236
 N3217 N 0.07624 0.79876 0.29242
 N3218 N 0.06739 0.79150 0.29813
 C3219 C 0.05635 0.78581 0.29085
 C3220 C 0.04681 0.77809 0.29774
 C3221 C 0.03629 0.77187 0.29081
 C3222 C 0.03524 0.77327 0.27687
 C3223 C 0.04462 0.78121 0.26997
 C3224 C 0.05510 0.78747 0.27691
 H3225 H 0.11425 0.82449 0.29312
 H3226 H 0.09446 0.81512 0.28208
 H3227 H 0.08352 0.79459 0.31847
 H3228 H 0.10326 0.80397 0.32971
 H3229 H 0.04766 0.77672 0.30846
 H3230 H 0.02915 0.76573 0.29625
 H3231 H 0.04393 0.78237 0.25921
 H3232 H 0.06232 0.79340 0.27135
 C3233 C 0.60501 0.69970 0.68184
 C3234 C 0.59340 0.70550 0.68719
 C3235 C 0.58621 0.69896 0.69727
 C3236 C 0.59078 0.68645 0.70206
 C3237 C 0.60242 0.68057 0.69666
 C3238 C 0.60966 0.68712 0.68643
 N3239 N 0.57439 0.70539 0.70243
 N3240 N 0.56756 0.70071 0.71215
 C3241 C 0.55589 0.70768 0.71702
 C3242 C 0.54989 0.70346 0.72900
 C3243 C 0.53912 0.71074 0.73447
 C3244 C 0.53418 0.72221 0.72790
 C3245 C 0.53985 0.72617 0.71568
 C3246 C 0.55067 0.71900 0.71028
 H3247 H 0.61030 0.70521 0.67414
 H3248 H 0.59000 0.71519 0.68349
 H3249 H 0.58536 0.68122 0.70988
 H3250 H 0.60565 0.67088 0.70044
 H3251 H 0.55380 0.69477 0.73428
 H3252 H 0.53484 0.70762 0.74395
 H3253 H 0.53614 0.73505 0.71054
 H3254 H 0.55508 0.72242 0.70097
 C3255 C 0.60482 0.19932 0.18070
 C3256 C 0.59324 0.20517 0.18608
 C3257 C 0.58641 0.19900 0.19663
 C3258 C 0.59130 0.18678 0.20183
 C3259 C 0.60291 0.18084 0.19641
 C3260 C 0.60981 0.18704 0.18574
 N3261 N 0.57465 0.20551 0.20184
 N3262 N 0.56808 0.20112 0.21187
 C3263 C 0.55647 0.20816 0.21681
 C3264 C 0.55058 0.20407 0.22889
 C3265 C 0.53983 0.21136 0.23437
 C3266 C 0.53477 0.22274 0.22771
 C3267 C 0.54036 0.22660 0.21542
 C3268 C 0.55116 0.21940 0.21000
 H3269 H 0.60982 0.20455 0.17263
 H3270 H 0.58961 0.21464 0.18205
 H3271 H 0.58616 0.18182 0.21002
 H3272 H 0.60640 0.17139 0.20055
 H3273 H 0.55456 0.19544 0.23423
 H3274 H 0.53562 0.20832 0.24391
 H3275 H 0.53657 0.23541 0.21021
 H3276 H 0.55548 0.22274 0.20062
 C3277 C 0.10698 0.70108 0.18230
 C3278 C 0.09573 0.70732 0.18801
 C3279 C 0.08760 0.70038 0.19710
 C3280 C 0.09088 0.68703 0.20051
 C3281 C 0.10220 0.68078 0.19486
 C3282 C 0.11037 0.68774 0.18567
 N3283 N 0.07627 0.70723 0.20286
 N3284 N 0.06793 0.70145 0.21064
 C3285 C 0.05684 0.70860 0.21652
 C3286 C 0.04774 0.70162 0.22467
 C3287 C 0.03713 0.70844 0.23097
 C3288 C 0.03555 0.72237 0.22922
 C3289 C 0.04453 0.72935 0.22089
 C3290 C 0.05509 0.72253 0.21457
 H3291 H 0.11309 0.70682 0.17540
 H3292 H 0.09335 0.71763 0.18536
 H3293 H 0.08476 0.68146 0.20756
 H3294 H 0.10445 0.67049 0.19762
 H3295 H 0.04897 0.69090 0.22627
 H3296 H 0.03030 0.70293 0.23739
 H3297 H 0.04344 0.74011 0.21945
 H3298 H 0.06197 0.72817 0.20832
 C3299 C 0.10479 0.17921 0.70030
 C3300 C 0.09325 0.18448 0.70637
 C3301 C 0.08590 0.19473 0.70016
 C3302 C 0.09018 0.19970 0.68769
 C3303 C 0.10171 0.19442 0.68158
 C3304 C 0.10917 0.18410 0.68781
 N3305 N 0.07426 0.20001 0.70682
 N3306 N 0.06739 0.20975 0.70210
 C3307 C 0.05592 0.21504 0.70904
 C3308 C 0.04967 0.22671 0.70417
 C3309 C 0.03902 0.23261 0.71122
 C3310 C 0.03442 0.22678 0.72317
 C3311 C 0.04038 0.21487 0.72786
 C3312 C 0.05110 0.20905 0.72088
 H3313 H 0.11028 0.17139 0.70551
 H3314 H 0.09008 0.18063 0.71602
 H3315 H 0.08464 0.20763 0.68269
 H3316 H 0.10469 0.19840 0.67194
 H3317 H 0.05327 0.23140 0.69506
 H3318 H 0.03450 0.24183 0.70752
 H3319 H 0.03695 0.21031 0.73710
 H3320 H 0.05574 0.20001 0.72483
 C3321 C 0.39332 0.68375 0.29992
 C3322 C 0.40475 0.68917 0.29388
 C3323 C 0.41300 0.69808 0.30089
 C3324 C 0.40965 0.70161 0.31412
 C3325 C 0.39816 0.69620 0.32019
 C3326 C 0.38989 0.68715 0.31317
 N3327 N 0.42456 0.70346 0.29423
 N3328 N 0.43279 0.71145 0.29986
 C3329 C 0.44411 0.71683 0.29277
 C3330 C 0.45260 0.72598 0.29924
 C3331 C 0.46330 0.73193 0.29231
 C3332 C 0.46559 0.72875 0.27882
 C3333 C 0.45732 0.71933 0.27241
 C3334 C 0.44664 0.71341 0.27932
 H3335 H 0.38714 0.67698 0.29410
 H3336 H 0.40719 0.68645 0.28366
 H3337 H 0.41588 0.70852 0.31973
 H3338 H 0.39587 0.69900 0.33041
 H3339 H 0.45078 0.72869 0.30959
 H3340 H 0.46961 0.73920 0.29736
 H3341 H 0.45899 0.71680 0.26199
 H3342 H 0.44026 0.70634 0.27409
 C3343 C 0.39441 0.18068 0.79830
 C3344 C 0.40586 0.18590 0.79208
 C3345 C 0.41372 0.19555 0.79854
 C3346 C 0.41002 0.19999 0.81139
 C3347 C 0.39856 0.19478 0.81764
 C3348 C 0.39061 0.18505 0.81117
 N3349 N 0.42526 0.20079 0.79174
 N3350 N 0.43285 0.20969 0.79689
 C3351 C 0.44419 0.21501 0.78981
 C3352 C 0.45164 0.22543 0.79563
 C3353 C 0.46227 0.23136 0.78862
 C3354 C 0.46560 0.22684 0.77573
 C3355 C 0.45837 0.21621 0.77000
 C3356 C 0.44772 0.21032 0.77698
 H3357 H 0.38851 0.17333 0.79291
 H3358 H 0.40858 0.18246 0.78215
 H3359 H 0.41596 0.20747 0.81658
 H3360 H 0.39602 0.19834 0.82756
 H3361 H 0.44900 0.22913 0.80549
 H3362 H 0.46773 0.23963 0.79311
 H3363 H 0.46081 0.21270 0.76002
 H3364 H 0.44214 0.20227 0.77228
 C3365 C 0.89491 0.68058 0.80032
 C3366 C 0.90648 0.68580 0.79437
 C3367 C 0.91354 0.69627 0.80045
 C3368 C 0.90889 0.70156 0.81267
 C3369 C 0.89730 0.69630 0.81870
 C3370 C 0.89017 0.68571 0.81260
 N3371 N 0.92529 0.70133 0.79387
 N3372 N 0.93203 0.71129 0.79821
 C3373 C 0.94362 0.71611 0.79114
 C3374 C 0.94971 0.72811 0.79524
 C3375 C 0.96048 0.73348 0.78797
 C3376 C 0.96535 0.72677 0.77658
 C3377 C 0.95955 0.71455 0.77269
 C3378 C 0.94873 0.70925 0.77988
 H3379 H 0.88972 0.67257 0.79517
 H3380 H 0.90993 0.68171 0.78492
 H3381 H 0.91421 0.70969 0.81755
 H3382 H 0.89401 0.70050 0.82815
 H3383 H 0.94589 0.73348 0.80389
 H3384 H 0.96486 0.74296 0.79104
 H3385 H 0.96319 0.70931 0.76388
 H3386 H 0.94425 0.69992 0.77653
 C3387 C 0.89394 0.18312 0.29922
 C3388 C 0.90536 0.18863 0.29323
 C3389 C 0.91314 0.19810 0.30005
 C3390 C 0.90934 0.20207 0.31303
 C3391 C 0.89788 0.19655 0.31905
 C3392 C 0.89005 0.18697 0.31222
 N3393 N 0.92468 0.20358 0.29344
 N3394 N 0.93234 0.21229 0.29882
 C3395 C 0.94366 0.21775 0.29180
 C3396 C 0.95130 0.22790 0.29785
 C3397 C 0.96194 0.23393 0.29092
 C3398 C 0.96507 0.22983 0.27784
 C3399 C 0.95769 0.21941 0.27189
 C3400 C 0.94704 0.21342 0.27880
 H3401 H 0.88813 0.17592 0.29353
 H3402 H 0.90815 0.18555 0.28320
 H3403 H 0.91521 0.20941 0.31849
 H3404 H 0.89525 0.19972 0.32909
 H3405 H 0.94883 0.23131 0.30786
 H3406 H 0.96757 0.24196 0.29562
 H3407 H 0.96002 0.21614 0.26180
 H3408 H 0.94134 0.20556 0.27390
 C3409 C 0.31733 0.29748 0.60645
 C3410 C 0.31190 0.29118 0.59519
 C3411 C 0.30292 0.29806 0.58686
 C3412 C 0.29935 0.31142 0.58992
 C3413 C 0.30473 0.31773 0.60123
 C3414 C 0.31380 0.31083 0.60962
 N3415 N 0.29742 0.29116 0.57554
 N3416 N 0.28960 0.29685 0.56718
 C3417 C 0.28395 0.28967 0.55610
 C3418 C 0.27539 0.29647 0.54722
 C3419 C 0.26919 0.28956 0.53671
 C3420 C 0.27146 0.27572 0.53501
 C3421 C 0.28026 0.26894 0.54370
 C3422 C 0.28647 0.27585 0.55418
 H3423 H 0.32414 0.29178 0.61272
 H3424 H 0.31467 0.28086 0.59296
 H3425 H 0.29239 0.31694 0.58363
 H3426 H 0.30187 0.32804 0.60331
 H3427 H 0.27337 0.30710 0.54859
 H3428 H 0.26240 0.29491 0.53008
 H3429 H 0.28211 0.25825 0.54248
 H3430 H 0.29305 0.27036 0.56088
 C3431 C 0.31609 0.79888 0.10705
 C3432 C 0.31040 0.79287 0.09577
 C3433 C 0.30191 0.80024 0.08734
 C3434 C 0.29905 0.81377 0.09036
 C3435 C 0.30468 0.81980 0.10171
 C3436 C 0.31332 0.81242 0.11015
 N3437 N 0.29623 0.79361 0.07596
 N3438 N 0.28888 0.79964 0.06741
 C3439 C 0.28314 0.79259 0.05629
 C3440 C 0.27517 0.79966 0.04707
 C3441 C 0.26898 0.79288 0.03646
 C3442 C 0.27067 0.77893 0.03500
 C3443 C 0.27884 0.77188 0.04407
 C3444 C 0.28505 0.77864 0.05463
 H3445 H 0.32252 0.79281 0.11339
 H3446 H 0.31261 0.78241 0.09358
 H3447 H 0.29246 0.81964 0.08399
 H3448 H 0.30240 0.83025 0.10377
 H3449 H 0.27362 0.81039 0.04824
 H3450 H 0.26265 0.79843 0.02955
 H3451 H 0.28023 0.76110 0.04306
 H3452 H 0.29116 0.77294 0.06160
 C3453 C 0.82092 0.29887 0.10535
 C3454 C 0.81579 0.29275 0.09384
 C3455 C 0.80600 0.29926 0.08612
 C3456 C 0.80140 0.31207 0.09000
 C3457 C 0.80652 0.31820 0.10151
 C3458 C 0.81632 0.31166 0.10936
 N3459 N 0.80071 0.29255 0.07459
 N3460 N 0.79166 0.29782 0.06724
 C3461 C 0.78615 0.29092 0.05592
 C3462 C 0.77564 0.29697 0.04875
 C3463 C 0.76948 0.29014 0.03817
 C3464 C 0.77382 0.27717 0.03465
 C3465 C 0.78461 0.27124 0.04156
 C3466 C 0.79072 0.27805 0.05216
 H3467 H 0.82836 0.29346 0.11116
 H3468 H 0.81937 0.28285 0.09097
 H3469 H 0.79383 0.31731 0.08418
 H3470 H 0.80280 0.32809 0.10416
 H3471 H 0.77204 0.30688 0.05155
 H3472 H 0.76116 0.29482 0.03291
 H3473 H 0.78805 0.26123 0.03892
 H3474 H 0.79885 0.27317 0.05753
 C3475 C 0.81991 0.79971 0.60666
 C3476 C 0.81464 0.79350 0.59528
 C3477 C 0.80493 0.80002 0.58749
 C3478 C 0.80047 0.81292 0.59124
 C3479 C 0.80573 0.81917 0.60265
 C3480 C 0.81555 0.81264 0.61050
 N3481 N 0.79970 0.79320 0.57599
 N3482 N 0.79083 0.79839 0.56836
 C3483 C 0.78558 0.79125 0.55704
 C3484 C 0.77527 0.79715 0.54945
 C3485 C 0.76944 0.79010 0.53881
 C3486 C 0.77389 0.77708 0.53564
 C3487 C 0.78446 0.77129 0.54298
 C3488 C 0.79026 0.77831 0.55363
 H3489 H 0.82732 0.79426 0.61248
 H3490 H 0.81810 0.78352 0.59254
 H3491 H 0.79293 0.81815 0.58537
 H3492 H 0.80216 0.82914 0.60523
 H3493 H 0.77159 0.80711 0.55196
 H3494 H 0.76127 0.79468 0.53323
 H3495 H 0.78799 0.76124 0.54063
 H3496 H 0.79824 0.77355 0.55931
 C3497 C 0.29996 0.68037 0.39478
 C3498 C 0.29381 0.68574 0.40618
 C3499 C 0.30023 0.69568 0.41371
 C3500 C 0.31299 0.70024 0.40971
 C3501 C 0.31918 0.69487 0.39829
 C3502 C 0.31273 0.68486 0.39066
 N3503 N 0.29344 0.70108 0.42518
 N3504 N 0.29849 0.71025 0.43250
 C3505 C 0.29138 0.71568 0.44379
 C3506 C 0.29710 0.72632 0.45100
 C3507 C 0.29006 0.73231 0.46159
 C3508 C 0.27721 0.72768 0.46510
 C3509 C 0.27161 0.71678 0.45814
 C3510 C 0.27862 0.71083 0.44753
 H3511 H 0.29458 0.67280 0.38917
 H3512 H 0.28394 0.68219 0.40913
 H3513 H 0.31815 0.70795 0.41537
 H3514 H 0.32903 0.69855 0.39551
 H3515 H 0.30691 0.73013 0.44823
 H3516 H 0.29450 0.74071 0.46688
 H3517 H 0.26170 0.71310 0.46076
 H3518 H 0.27399 0.70260 0.44215
 C3519 C 0.32018 0.20080 0.89368
 C3520 C 0.31501 0.20703 0.90511
 C3521 C 0.30520 0.20066 0.91287
 C3522 C 0.30056 0.18788 0.90904
 C3523 C 0.30573 0.18160 0.89758
 C3524 C 0.31563 0.18798 0.88975
 N3525 N 0.30005 0.20752 0.92441
 N3526 N 0.29099 0.20253 0.93192
 C3527 C 0.28582 0.20971 0.94327
 C3528 C 0.27519 0.20413 0.95061
 C3529 C 0.26942 0.21125 0.96126
 C3530 C 0.27430 0.22402 0.96473
 C3531 C 0.28516 0.22949 0.95762
 C3532 C 0.29089 0.22240 0.94695
 H3533 H 0.32765 0.20615 0.88790
 H3534 H 0.31861 0.21692 0.90792
 H3535 H 0.29295 0.18276 0.91488
 H3536 H 0.30202 0.17173 0.89494
 H3537 H 0.27119 0.19438 0.94789
 H3538 H 0.26098 0.20696 0.96663
 H3539 H 0.28897 0.23937 0.96017
 H3540 H 0.29912 0.22692 0.94146
 C3541 C 0.79908 0.68044 0.89319
 C3542 C 0.79287 0.68579 0.90457
 C3543 C 0.79941 0.69547 0.91233
 C3544 C 0.81232 0.69981 0.90858
 C3545 C 0.81856 0.69447 0.89717
 C3546 C 0.81202 0.68470 0.88933
 N3547 N 0.79258 0.70082 0.92381
 N3548 N 0.79781 0.70964 0.93142
 C3549 C 0.79068 0.71507 0.94269
 C3550 C 0.79670 0.72524 0.95032
 C3551 C 0.78968 0.73125 0.96090
 C3552 C 0.77656 0.72712 0.96399
 C3553 C 0.77064 0.71668 0.95661
 C3554 C 0.77764 0.71070 0.94602
 H3555 H 0.79362 0.67307 0.88738
 H3556 H 0.78289 0.68242 0.90732
 H3557 H 0.81757 0.70731 0.91443
 H3558 H 0.82854 0.69795 0.89458
 H3559 H 0.80673 0.72868 0.94787
 H3560 H 0.79436 0.73931 0.96652
 H3561 H 0.76051 0.71340 0.95891
 H3562 H 0.77278 0.70283 0.94031
 C3563 C 0.79934 0.18041 0.39297
 C3564 C 0.79312 0.18573 0.40435
 C3565 C 0.79968 0.19533 0.41220
 C3566 C 0.81263 0.19960 0.40853
 C3567 C 0.81889 0.19430 0.39711
 C3568 C 0.81231 0.18462 0.38919
 N3569 N 0.79283 0.20068 0.42367
 N3570 N 0.79811 0.20939 0.43138
 C3571 C 0.79097 0.21485 0.44263
 C3572 C 0.79709 0.22485 0.45038
 C3573 C 0.79009 0.23091 0.46095
 C3574 C 0.77686 0.22699 0.46388
 C3575 C 0.77083 0.21672 0.45637
 C3576 C 0.77782 0.21069 0.44579
 H3577 H 0.79386 0.17311 0.38709
 H3578 H 0.78310 0.18241 0.40704
 H3579 H 0.81790 0.20704 0.41444
 H3580 H 0.82889 0.19774 0.39459
 H3581 H 0.80722 0.22813 0.44806
 H3582 H 0.79485 0.23883 0.46667
 H3583 H 0.76062 0.21360 0.45853
 H3584 H 0.77288 0.20295 0.43998
 C3585 C 0.70184 0.32134 0.39329
 C3586 C 0.70815 0.31615 0.40470
 C3587 C 0.70185 0.30626 0.41244
 C3588 C 0.68906 0.30163 0.40866
 C3589 C 0.68274 0.30680 0.39725
 C3590 C 0.68906 0.31670 0.38939
 N3591 N 0.70876 0.30094 0.42388
 N3592 N 0.70363 0.29191 0.43133
 C3593 C 0.71069 0.28636 0.44258
 C3594 C 0.70468 0.27598 0.44993
 C3595 C 0.71161 0.26982 0.46048
 C3596 C 0.72465 0.27401 0.46380
 C3597 C 0.73055 0.28466 0.45670
 C3598 C 0.72364 0.29079 0.44613
 H3599 H 0.70710 0.32886 0.38748
 H3600 H 0.71804 0.31976 0.40747
 H3601 H 0.68397 0.29398 0.41449
 H3602 H 0.67287 0.30304 0.39467
 H3603 H 0.69471 0.27249 0.44730
 H3604 H 0.70693 0.26161 0.46588
 H3605 H 0.74062 0.28800 0.45918
 H3606 H 0.72848 0.29883 0.44063
 C3607 C 0.70175 0.82118 0.89328
 C3608 C 0.70807 0.81604 0.90471
 C3609 C 0.70170 0.80632 0.91260
 C3610 C 0.68883 0.80178 0.90895
 C3611 C 0.68250 0.80689 0.89751
 C3612 C 0.68889 0.81664 0.88951
 N3613 N 0.70861 0.80103 0.92405
 N3614 N 0.70341 0.79215 0.93163
 C3615 C 0.71047 0.78662 0.94287
 C3616 C 0.70436 0.77641 0.95038
 C3617 C 0.71129 0.77022 0.96091
 C3618 C 0.72443 0.77422 0.96405
 C3619 C 0.73045 0.78471 0.95681
 C3620 C 0.72353 0.79086 0.94626
 H3621 H 0.70706 0.82857 0.88735
 H3622 H 0.71801 0.81957 0.90739
 H3623 H 0.68370 0.79425 0.91488
 H3624 H 0.67258 0.80322 0.89503
 H3625 H 0.69430 0.77306 0.94788
 H3626 H 0.70653 0.76214 0.96643
 H3627 H 0.74059 0.78790 0.95916
 H3628 H 0.72845 0.79876 0.94063
 C3629 C 0.17739 0.29823 0.89504
 C3630 C 0.18239 0.29196 0.90655
 C3631 C 0.19313 0.29760 0.91361
 C3632 C 0.19883 0.30970 0.90906
 C3633 C 0.19384 0.31599 0.89754
 C3634 C 0.18308 0.31031 0.89036
 N3635 N 0.19821 0.29069 0.92516
 N3636 N 0.20803 0.29518 0.93199
 C3637 C 0.21330 0.28808 0.94335
 C3638 C 0.22455 0.29328 0.94998
 C3639 C 0.23040 0.28622 0.96061
 C3640 C 0.22499 0.27388 0.96476
 C3641 C 0.21354 0.26878 0.95836
 C3642 C 0.20772 0.27582 0.94769
 H3643 H 0.16918 0.29347 0.88976
 H3644 H 0.17795 0.28261 0.90992
 H3645 H 0.20715 0.31426 0.91435
 H3646 H 0.19842 0.32531 0.89433
 H3647 H 0.22894 0.30270 0.94672
 H3648 H 0.23929 0.29022 0.96544
 H3649 H 0.20932 0.25922 0.96143
 H3650 H 0.19902 0.27159 0.94273
 C3651 C 0.20012 0.81731 0.39440
 C3652 C 0.20596 0.81203 0.40597
 C3653 C 0.19913 0.80254 0.41370
 C3654 C 0.18621 0.79838 0.40978
 C3655 C 0.18030 0.80369 0.39816
 C3656 C 0.18721 0.81320 0.39029
 N3657 N 0.20574 0.79718 0.42528
 N3658 N 0.20053 0.78828 0.43283
 C3659 C 0.20770 0.78300 0.44415
 C3660 C 0.20197 0.77257 0.45167
 C3661 C 0.20912 0.76669 0.46225
 C3662 C 0.22210 0.77121 0.46541
 C3663 C 0.22770 0.78191 0.45815
 C3664 C 0.22058 0.78775 0.44757
 H3665 H 0.20586 0.82454 0.38870
 H3666 H 0.21594 0.81527 0.40888
 H3667 H 0.18074 0.79103 0.41562
 H3668 H 0.17036 0.80028 0.39539
 H3669 H 0.19206 0.76883 0.44916
 H3670 H 0.20469 0.75843 0.46778
 H3671 H 0.23771 0.78550 0.46050
 H3672 H 0.22523 0.79582 0.44196
 C3673 C 0.68108 0.70185 0.60567
 C3674 C 0.68639 0.70801 0.59427
 C3675 C 0.69602 0.70139 0.58647
 C3676 C 0.70034 0.68842 0.59017
 C3677 C 0.69504 0.68223 0.60159
 C3678 C 0.68534 0.68888 0.60948
 N3679 N 0.70141 0.70818 0.57504
 N3680 N 0.71029 0.70289 0.56749
 C3681 C 0.71579 0.71001 0.55629
 C3682 C 0.72612 0.70402 0.54881
 C3683 C 0.73223 0.71106 0.53834
 C3684 C 0.72803 0.72419 0.53524
 C3685 C 0.71743 0.73007 0.54244
 C3686 C 0.71135 0.72305 0.55293
 H3687 H 0.67377 0.70737 0.61153
 H3688 H 0.68305 0.71804 0.59155
 H3689 H 0.70780 0.68311 0.58428
 H3690 H 0.69849 0.67221 0.60414
 H3691 H 0.72960 0.69398 0.55129
 H3692 H 0.74041 0.70642 0.53282
 H3693 H 0.71409 0.74020 0.54012
 H3694 H 0.70335 0.72789 0.55853
 C3695 C 0.68174 0.20131 0.10511
 C3696 C 0.68716 0.20743 0.09374
 C3697 C 0.69693 0.20081 0.08609
 C3698 C 0.70126 0.18790 0.08994
 C3699 C 0.69584 0.18174 0.10134
 C3700 C 0.68601 0.18839 0.10907
 N3701 N 0.70240 0.20756 0.07466
 N3702 N 0.71139 0.20230 0.06722
 C3703 C 0.71691 0.20937 0.05599
 C3704 C 0.72730 0.20338 0.04858
 C3705 C 0.73337 0.21036 0.03802
 C3706 C 0.72907 0.22341 0.03476
 C3707 C 0.71843 0.22930 0.04193
 C3708 C 0.71240 0.22235 0.05249
 H3709 H 0.67432 0.20684 0.11084
 H3710 H 0.68380 0.21742 0.09091
 H3711 H 0.70882 0.18258 0.08417
 H3712 H 0.69932 0.17176 0.10400
 H3713 H 0.73086 0.19340 0.05117
 H3714 H 0.74159 0.20571 0.03256
 H3715 H 0.71501 0.23937 0.03949
 H3716 H 0.70436 0.22719 0.05803
 C3717 C 0.20228 0.68252 0.10720
 C3718 C 0.20857 0.68797 0.09593
 C3719 C 0.20155 0.69667 0.08741
 C3720 C 0.18808 0.69994 0.09030
 C3721 C 0.18179 0.69455 0.10164
 C3722 C 0.18881 0.68575 0.11020
 N3723 N 0.20843 0.70219 0.07607
 N3724 N 0.20255 0.70953 0.06740
 C3725 C 0.20969 0.71525 0.05630
 C3726 C 0.20260 0.72298 0.04691
 C3727 C 0.20940 0.72922 0.03633
 C3728 C 0.22339 0.72783 0.03509
 C3729 C 0.23049 0.71990 0.04433
 C3730 C 0.22369 0.71362 0.05486
 H3731 H 0.20806 0.67592 0.11363
 H3732 H 0.21897 0.68544 0.09384
 H3733 H 0.18246 0.70669 0.08387
 H3734 H 0.17139 0.69719 0.10359
 H3735 H 0.19183 0.72433 0.04791
 H3736 H 0.20381 0.73537 0.02928
 H3737 H 0.24130 0.71877 0.04349
 H3738 H 0.22940 0.70770 0.06199
 C3739 C 0.17945 0.19907 0.60528
 C3740 C 0.18449 0.20511 0.59370
 C3741 C 0.19508 0.19917 0.58662
 C3742 C 0.20064 0.18701 0.59126
 C3743 C 0.19558 0.18090 0.60286
 C3744 C 0.18490 0.18686 0.61003
 N3745 N 0.20003 0.20583 0.57490
 N3746 N 0.21006 0.20152 0.56821
 C3747 C 0.21491 0.20857 0.55664
 C3748 C 0.22694 0.20435 0.55061
 C3749 C 0.23236 0.21159 0.53988
 C3750 C 0.22571 0.22305 0.53498
 C3751 C 0.21346 0.22705 0.54072
 C3752 C 0.20809 0.21989 0.55151
 H3753 H 0.17133 0.20409 0.61050
 H3754 H 0.18017 0.21452 0.59026
 H3755 H 0.20886 0.18222 0.58594
 H3756 H 0.20002 0.17151 0.60612
 H3757 H 0.23227 0.19565 0.55446
 H3758 H 0.24186 0.20843 0.53555
 H3759 H 0.20826 0.23592 0.53705
 H3760 H 0.19876 0.22333 0.55596
   
