data_POSCAR
  _audit_creation_date              2014-09-24
  _audit_creation_method            'ToBaCCo'
  _symmetry_space_group_name_H-M    'P1'
  _symmetry_Int_Tables_number       1
  _symmetry_cell_setting            triclinic
  loop_
  _symmetry_equiv_pos_as_xyz
 x,y,z
_cell_length_a 51.2656
_cell_length_b 51.4300
_cell_length_c 41.8914
_cell_angle_alpha 89.061600
_cell_angle_beta 92.621700
_cell_angle_gamma 91.443300
loop_
  _atom_site_label
  _atom_site_type_symbol
  _atom_site_fract_x
  _atom_site_fract_y
  _atom_site_fract_z
C1 C 0.36282 0.03015 0.29961
 C2 C 0.34740 0.05341 0.28697
 C3 C 0.33155 0.04783 0.26087
 C4 C 0.33248 0.01948 0.24976
 C5 C 0.34240 0.00864 0.30578
 C6 C 0.32668 0.00283 0.27956
 C7 C 0.37749 0.02072 0.27101
 C8 C 0.36154 0.01505 0.24501
 H9 H 0.34937 0.07268 0.29716
 H10 H 0.31942 0.01511 0.22851
 H11 H 0.34308 -0.00361 0.32719
 H12 H 0.39841 0.01762 0.27177
 C13 C 0.13120 -0.02957 0.78299
 C14 C 0.14438 -0.05325 0.77006
 C15 C 0.15978 -0.04727 0.74522
 C16 C 0.16060 -0.01829 0.73564
 C17 C 0.15363 -0.01029 0.79175
 C18 C 0.16897 -0.00423 0.76673
 C19 C 0.11710 -0.01775 0.75577
 C20 C 0.13343 -0.01150 0.72979
 H21 H 0.14264 -0.07270 0.78043
 H22 H 0.17332 -0.01374 0.71535
 H23 H 0.15459 0.00071 0.81373
 H24 H 0.09674 -0.01234 0.75593
 C25 C 0.63580 0.47295 0.28800
 C26 C 0.65133 0.45077 0.27534
 C27 C 0.66688 0.45826 0.25126
 C28 C 0.66551 0.48715 0.24183
 C29 C 0.65615 0.49412 0.29748
 C30 C 0.67158 0.50160 0.27313
 C31 C 0.62064 0.48428 0.25876
 C32 C 0.63636 0.49181 0.23467
 H33 H 0.65092 0.43115 0.28538
 H34 H 0.67829 0.49299 0.22206
 H35 H 0.65575 0.50484 0.31960
 H36 H 0.59973 0.48740 0.25790
 C37 C 0.86277 0.52939 0.79703
 C38 C 0.84681 0.55227 0.78435
 C39 C 0.83104 0.54631 0.75831
 C40 C 0.83257 0.51799 0.74730
 C41 C 0.84284 0.50744 0.80334
 C42 C 0.82719 0.50128 0.77719
 C43 C 0.87761 0.52026 0.76842
 C44 C 0.86173 0.51421 0.74249
 H45 H 0.84857 0.57166 0.79425
 H46 H 0.81957 0.51329 0.72612
 H47 H 0.84376 0.49530 0.82484
 H48 H 0.89862 0.51781 0.76903
 C49 C 0.28655 0.42927 0.98221
 C50 C 0.27789 0.41070 1.00907
 C51 C 0.25697 0.39508 1.00007
 C52 C 0.24702 0.39923 0.96536
 C53 C 0.29171 0.41183 0.95420
 C54 C 0.27113 0.39605 0.94552
 C55 C 0.26200 0.44429 0.97205
 C56 C 0.24113 0.42837 0.96363
 H57 H 0.28572 0.41171 1.03358
 H58 H 0.23020 0.38634 0.95781
 H59 H 0.31083 0.41017 0.94428
 H60 H 0.25993 0.46480 0.97698
 C61 C 0.76079 0.05813 0.97723
 C62 C 0.75325 0.07825 0.95119
 C63 C 0.73373 0.09395 0.95963
 C64 C 0.72375 0.08819 0.99312
 C65 C 0.76779 0.07424 1.00704
 C66 C 0.74841 0.08996 1.01529
 C67 C 0.73685 0.04385 0.98407
 C68 C 0.71653 0.06064 0.99281
 H69 H 0.76323 0.08070 0.92895
 H70 H 0.70791 0.10112 0.99997
 H71 H 0.78670 0.07388 1.01990
 H72 H 0.73420 0.02295 0.98149
 C73 C 0.26317 0.55916 0.47439
 C74 C 0.25614 0.58053 0.44981
 C75 C 0.23671 0.59597 0.45896
 C76 C 0.22621 0.58888 0.49175
 C77 C 0.26974 0.57355 0.50555
 C78 C 0.25046 0.58903 0.51455
 C79 C 0.23751 0.54414 0.47992
 C80 C 0.21821 0.55998 0.48898
 H81 H 0.26597 0.58353 0.42755
 H82 H 0.21039 0.60155 0.49922
 H83 H 0.28848 0.57240 0.51872
 H84 H 0.23462 0.52342 0.47606
 C85 C 0.78624 0.93225 0.48564
 C86 C 0.77825 0.91285 0.51197
 C87 C 0.75764 0.89694 0.50267
 C88 C 0.74729 0.90168 0.46823
 C89 C 0.79157 0.91566 0.45693
 C90 C 0.77129 0.89963 0.44793
 C91 C 0.76125 0.94688 0.47635
 C92 C 0.74070 0.93066 0.46761
 H93 H 0.78611 0.91363 0.53648
 H94 H 0.73072 0.88857 0.46042
 H95 H 0.81062 0.91475 0.44665
 H96 H 0.75874 0.96718 0.48203
 C97 C -0.00875 0.28939 0.38858
 C98 C 0.01343 0.29421 0.36555
 C99 C 0.01760 0.27349 0.34655
 C100 C -0.00101 0.24989 0.35227
 C101 C -0.03145 0.28186 0.36859
 C102 C -0.02731 0.26018 0.34874
 C103 C -0.00106 0.26461 0.40748
 C104 C 0.00307 0.24390 0.38838
 H105 H 0.02579 0.31169 0.36573
 H106 H 0.00229 0.23309 0.33669
 H107 H -0.05034 0.29088 0.36976
 H108 H 0.00063 0.26345 0.43341
 C109 C 0.01168 0.77040 0.11075
 C110 C -0.01149 0.77130 0.13236
 C111 C -0.01381 0.75021 0.15217
 C112 C 0.00754 0.72993 0.14877
 C113 C 0.03552 0.76668 0.13343
 C114 C 0.03352 0.74556 0.15324
 C115 C 0.00808 0.74459 0.09289
 C116 C 0.00587 0.72338 0.11290
 H117 H -0.02591 0.78646 0.13057
 H118 H 0.00580 0.71280 0.16512
 H119 H 0.05300 0.77908 0.13291
 H120 H 0.00799 0.74315 0.06705
 C121 C 0.51109 0.26842 0.61482
 C122 C 0.48822 0.26899 0.63695
 C123 C 0.48630 0.24774 0.65657
 C124 C 0.50772 0.22767 0.65250
 C125 C 0.53524 0.26472 0.63698
 C126 C 0.53364 0.24345 0.65662
 C127 C 0.50740 0.24273 0.59673
 C128 C 0.50560 0.22137 0.61657
 H129 H 0.47357 0.28393 0.63542
 H130 H 0.50633 0.21042 0.66872
 H131 H 0.55261 0.27725 0.63625
 H132 H 0.50687 0.24148 0.57085
 C133 C 0.49404 0.78582 0.89404
 C134 C 0.51566 0.79086 0.87027
 C135 C 0.51966 0.77015 0.85117
 C136 C 0.50149 0.74635 0.85759
 C137 C 0.46983 0.77785 0.87327
 C138 C 0.47361 0.75715 0.85421
 C139 C 0.50151 0.76239 0.91177
 C140 C 0.50567 0.74073 0.89169
 H141 H 0.52778 0.80849 0.87000
 H142 H 0.50462 0.72958 0.84189
 H143 H 0.45110 0.78717 0.87439
 H144 H 0.50320 0.76116 0.93770
 C145 C -0.22017 0.61922 0.95227
 C146 C -0.19702 0.60311 0.96401
 C147 C -0.20264 0.58651 0.98848
 C148 C -0.23095 0.58743 0.99906
 C149 C -0.24215 0.59946 0.94372
 C150 C -0.24801 0.58299 0.96839
 C151 C -0.22921 0.63293 0.98193
 C152 C -0.23496 0.61617 1.00634
 H153 H -0.17778 0.60500 0.95426
 H154 H -0.23533 0.57375 1.01904
 H155 H -0.25468 0.60118 0.92218
 H156 H -0.23247 0.65371 0.98275
 C157 C -0.27821 0.38383 0.46832
 C158 C -0.30101 0.39697 0.48319
 C159 C -0.29347 0.41147 0.50912
 C160 C -0.26396 0.41151 0.51771
 C161 C -0.25885 0.40603 0.46063
 C162 C -0.25127 0.42047 0.48666
 C163 C -0.26544 0.36888 0.49402
 C164 C -0.25757 0.38420 0.52107
 H165 H -0.32107 0.39555 0.47368
 H166 H -0.25808 0.42348 0.53885
 H167 H -0.24910 0.40763 0.43815
 H168 H -0.26136 0.34830 0.49253
 C169 C 0.22068 -0.11768 -0.03499
 C170 C 0.19853 -0.10217 -0.02214
 C171 C 0.20640 -0.08708 0.00312
 C172 C 0.23553 -0.08892 0.01321
 C173 C 0.24188 -0.09731 -0.04300
 C174 C 0.24969 -0.08229 -0.01756
 C175 C 0.23154 -0.13244 -0.00789
 C176 C 0.23978 -0.11654 0.01853
 H177 H 0.17881 -0.10220 -0.03282
 H178 H 0.24164 -0.07649 0.03386
 H179 H 0.25217 -0.09719 -0.06512
 H180 H 0.23484 -0.15324 -0.00831
 C181 C 0.27947 1.11870 0.44999
 C182 C 0.30243 1.10215 0.46128
 C183 C 0.29662 1.08524 0.48537
 C184 C 0.26835 1.08631 0.49602
 C185 C 0.25724 1.09935 0.44100
 C186 C 0.25122 1.08255 0.46528
 C187 C 0.27065 1.13204 0.48002
 C188 C 0.26471 1.11496 0.50403
 H189 H 0.32172 1.10412 0.45170
 H190 H 0.26381 1.07236 0.51566
 H191 H 0.24469 1.10158 0.41955
 H192 H 0.26762 1.15283 0.48137
 C193 C 0.18370 0.53634 0.27376
 C194 C 0.16628 0.52733 0.24498
 C195 C 0.14972 0.50709 0.25225
 C196 C 0.15187 0.49810 0.28732
 C197 C 0.16489 0.54273 0.29956
 C198 C 0.14824 0.52278 0.30656
 C199 C 0.19770 0.51180 0.28576
 C200 C 0.18086 0.49160 0.29247
 H201 H 0.16860 0.53451 0.22071
 H202 H 0.13818 0.48184 0.29342
 H203 H 0.16357 0.56194 0.30973
 H204 H 0.21843 0.50907 0.28304
 C205 C -0.19619 1.01397 0.26103
 C206 C -0.17662 1.00828 0.28895
 C207 C -0.15906 0.98993 0.28200
 C208 C -0.16258 0.97923 0.24796
 C209 C -0.17927 1.02176 0.23304
 C210 C -0.16168 1.00360 0.22626
 C211 C -0.20836 0.98907 0.25264
 C212 C -0.18967 0.96999 0.24547
 H213 H -0.17619 1.01832 0.31161
 H214 H -0.14811 0.96441 0.24224
 H215 H -0.18065 1.04027 0.22020
 H216 H -0.22908 0.98463 0.25444
 C217 C 0.30648 0.50983 -0.23907
 C218 C 0.32731 0.50487 -0.21241
 C219 C 0.34483 0.48676 -0.22009
 C220 C 0.34016 0.47546 -0.25361
 C221 C 0.32175 0.51727 -0.26850
 C222 C 0.33933 0.49937 -0.27604
 C223 C 0.29390 0.48312 -0.24629
 C224 C 0.31174 0.46517 -0.25383
 H225 H 0.32821 0.51483 -0.18969
 H226 H 0.35453 0.46077 -0.25994
 H227 H 0.31962 0.53564 -0.28149
 H228 H 0.27336 0.47838 -0.24348
 C229 C 0.68365 0.03433 -0.22349
 C230 C 0.66533 0.02564 -0.25164
 C231 C 0.64907 0.00525 -0.24396
 C232 C 0.65238 -0.00417 -0.20915
 C233 C 0.66575 0.04030 -0.19658
 C234 C 0.64937 0.02023 -0.18919
 C235 C 0.69803 0.00967 -0.21270
 C236 C 0.68147 -0.01065 -0.20558
 H237 H 0.66687 0.03310 -0.27591
 H238 H 0.63895 -0.02055 -0.20269
 H239 H 0.66470 0.05939 -0.18598
 H240 H 0.71864 0.00707 -0.21637
 C241 C 0.03683 0.24051 0.85949
 C242 C 0.04207 0.26263 0.88338
 C243 C 0.02144 0.26703 0.90197
 C244 C -0.00247 0.24874 0.89500
 C245 C 0.02909 0.21685 0.88002
 C246 C 0.00847 0.22104 0.89860
 C247 C 0.01316 0.24754 0.84125
 C248 C -0.00841 0.25212 0.86081
 H249 H 0.05961 0.27495 0.88379
 H250 H -0.01918 0.25216 0.91030
 H251 H 0.03847 0.19817 0.87909
 H252 H 0.01194 0.24956 0.81536
 C253 C 0.51796 0.26459 0.13980
 C254 C 0.51842 0.24105 0.11807
 C255 C 0.49712 0.23860 0.09761
 C256 C 0.47707 0.26030 0.10052
 C257 C 0.51447 0.28793 0.11718
 C258 C 0.49316 0.28590 0.09671
 C259 C 0.49212 0.26172 0.15685
 C260 C 0.47069 0.25945 0.13623
 H261 H 0.53343 0.22648 0.12029
 H262 H 0.45975 0.25852 0.08368
 H263 H 0.52757 0.30490 0.11767
 H264 H 0.49088 0.26156 0.18267
 C265 C 0.01741 0.76547 0.63845
 C266 C 0.01775 0.74267 0.61555
 C267 C -0.00350 0.74092 0.59496
 C268 C -0.02341 0.76257 0.59890
 C269 C 0.01415 0.78954 0.61701
 C270 C -0.00716 0.78822 0.59638
 C271 C -0.00849 0.76211 0.65528
 C272 C -0.02988 0.76059 0.63453
 H273 H 0.03264 0.72795 0.61714
 H274 H -0.04071 0.76142 0.58196
 H275 H 0.02741 0.80636 0.61827
 H276 H -0.00979 0.76105 0.68108
 C277 C 0.53751 0.74124 0.36022
 C278 C 0.54248 0.76293 0.38465
 C279 C 0.52188 0.76676 0.40342
 C280 C 0.49816 0.74838 0.39623
 C281 C 0.52984 0.71716 0.37990
 C282 C 0.50926 0.72077 0.39868
 C283 C 0.51238 0.74886 0.34136
 C284 C 0.49182 0.75266 0.36025
 H285 H 0.55989 0.77544 0.38533
 H286 H 0.48144 0.75134 0.41165
 H287 H 0.53937 0.69860 0.37841
 H288 H 0.51108 0.75138 0.31554
 B289 B -0.02511 0.01228 1.03563
 B290 B -0.03687 0.00415 0.99938
 B291 B -0.01540 0.02890 1.00363
 B292 B 0.00645 0.02169 1.03362
 B293 B -0.00206 -0.00868 1.04776
 B294 B -0.02939 -0.01934 1.02641
 B295 B 0.00970 -0.01278 0.98534
 B296 B 0.02154 -0.00466 1.02154
 B297 B 0.00005 -0.02930 1.01722
 B298 B -0.02178 -0.02214 0.98734
 B299 B -0.01325 0.00817 0.97316
 B300 B 0.01410 0.01881 0.99448
 B301 B 0.47470 0.51054 0.53275
 B302 B 0.46438 0.50263 0.49587
 B303 B 0.48628 0.52685 0.50155
 B304 B 0.50659 0.51915 0.53293
 B305 B 0.49665 0.48903 0.54644
 B306 B 0.47004 0.47901 0.52333
 B307 B 0.51120 0.48445 0.48515
 B308 B 0.52156 0.49236 0.52200
 B309 B 0.49963 0.46828 0.51626
 B310 B 0.47936 0.47591 0.48497
 B311 B 0.48931 0.50599 0.47137
 B312 B 0.51598 0.51599 0.49448
 B313 B 0.52560 0.96994 0.55829
 B314 B 0.53878 0.97821 0.52387
 B315 B 0.51438 0.95621 0.52441
 B316 B 0.49318 0.96476 0.55190
 B317 B 0.50523 0.99323 0.56829
 B318 B 0.53395 1.00128 0.55083
 B319 B 0.49514 1.00176 0.50461
 B320 B 0.48180 0.99356 0.53891
 B321 B 0.50626 1.01547 0.53837
 B322 B 0.52739 1.00692 0.51099
 B323 B 0.51533 0.97855 0.49458
 B324 B 0.48667 0.97047 0.51197
 B325 B 0.02742 0.47184 1.05390
 B326 B 0.04015 0.48013 1.01923
 B327 B 0.01575 0.45815 1.02021
 B328 B -0.00504 0.46670 1.04816
 B329 B 0.00725 0.49514 1.06438
 B330 B 0.03572 0.50319 1.04635
 B331 B -0.00370 0.50375 1.00089
 B332 B -0.01655 0.49551 1.03548
 B333 B 0.00789 0.51742 1.03448
 B334 B 0.02863 0.50887 1.00662
 B335 B 0.01632 0.48053 0.99039
 B336 B -0.01210 0.47246 1.00836
 B337 B -0.00671 0.52406 0.47260
 B338 B 0.00781 0.51862 0.50836
 B339 B -0.01548 0.54061 0.50404
 B340 B -0.03848 0.52990 0.47693
 B341 B -0.02872 0.50019 0.46466
 B342 B 0.00034 0.49349 0.48424
 B343 B -0.03622 0.49692 0.52869
 B344 B -0.05073 0.50236 0.49290
 B345 B -0.02741 0.48042 0.49717
 B346 B -0.00447 0.49113 0.52429
 B347 B -0.01417 0.52085 0.53660
 B348 B -0.04334 0.52755 0.51705
 B349 B 0.49502 0.02065 -0.02166
 B350 B 0.50890 0.01556 0.01452
 B351 B 0.48542 0.03726 0.00929
 B352 B 0.46307 0.02615 -0.01836
 B353 B 0.47345 -0.00350 -0.03002
 B354 B 0.50223 -0.00977 -0.00954
 B355 B 0.46469 -0.00653 0.03371
 B356 B 0.45082 -0.00144 -0.00251
 B357 B 0.47434 -0.02309 0.00265
 B358 B 0.49663 -0.01199 0.03032
 B359 B 0.48631 0.01769 0.04203
 B360 B 0.45743 0.02395 0.02158
 B361 B 0.49967 0.49715 -0.03856
 B362 B 0.48736 0.50434 -0.00380
 B363 B 0.50923 0.48110 -0.00552
 B364 B 0.53132 0.48982 -0.03262
 B365 B 0.52239 0.51964 -0.04769
 B366 B 0.49468 0.52835 -0.02975
 B367 B 0.53349 0.52431 0.01631
 B368 B 0.54582 0.51715 -0.01847
 B369 B 0.52380 0.54036 -0.01686
 B370 B 0.50182 0.53159 0.01032
 B371 B 0.51072 0.50174 0.02537
 B372 B 0.53844 0.49299 0.00745
 B373 B -0.00204 1.00009 0.46168
 B374 B -0.01373 1.00753 0.49669
 B375 B 0.00783 0.98405 0.49459
 B376 B 0.02958 0.99245 0.46698
 B377 B 0.02076 1.02231 0.45196
 B378 B -0.00656 1.03137 0.47047
 B379 B 0.03282 1.02709 0.51575
 B380 B 0.04455 1.01968 0.48072
 B381 B 0.02284 1.04313 0.48269
 B382 B 0.00119 1.03468 0.51039
 B383 B 0.00998 1.00479 0.52539
 B384 B 0.03731 0.99568 0.50691
 B385 B 0.76119 0.22561 0.21297
 B386 B 0.75322 0.21396 0.24860
 B387 B 0.77872 0.23451 0.24568
 B388 B 0.77178 0.25671 0.21659
 B389 B 0.74082 0.24938 0.20163
 B390 B 0.72951 0.22242 0.22159
 B391 B 0.73807 0.26082 0.26460
 B392 B 0.74610 0.27257 0.22904
 B393 B 0.72070 0.25199 0.23201
 B394 B 0.72758 0.22982 0.26097
 B395 B 0.75846 0.23717 0.27602
 B396 B 0.76975 0.26418 0.25610
 B397 B 0.71985 0.77557 0.69570
 B398 B 0.72890 0.78865 0.73071
 B399 B 0.70688 0.76424 0.72917
 B400 B 0.71488 0.74326 0.70078
 B401 B 0.74302 0.75541 0.68490
 B402 B 0.75146 0.78400 0.70353
 B403 B 0.75317 0.74522 0.74815
 B404 B 0.74411 0.73198 0.71330
 B405 B 0.76608 0.75643 0.71481
 B406 B 0.75808 0.77738 0.74311
 B407 B 0.73005 0.76519 0.75903
 B408 B 0.72160 0.73665 0.74048
 B409 B 0.27123 0.24054 0.77683
 B410 B 0.26534 0.25435 0.74111
 B411 B 0.28701 0.23082 0.74551
 B412 B 0.27642 0.20867 0.77241
 B413 B 0.24704 0.21922 0.78448
 B414 B 0.24048 0.24793 0.76499
 B415 B 0.24235 0.21044 0.72042
 B416 B 0.24825 0.19661 0.75615
 B417 B 0.22660 0.22019 0.75183
 B418 B 0.23723 0.24230 0.72491
 B419 B 0.26660 0.23178 0.71281
 B420 B 0.27317 0.20301 0.73224
 B421 B 0.24767 0.75047 0.28794
 B422 B 0.25607 0.73597 0.25483
 B423 B 0.23173 0.75684 0.25338
 B424 B 0.23905 0.78115 0.27909
 B425 B 0.26913 0.77468 0.29658
 B426 B 0.27940 0.74619 0.28145
 B427 B 0.27444 0.78121 0.23239
 B428 B 0.26611 0.79572 0.26552
 B429 B 0.29041 0.77470 0.26705
 B430 B 0.28302 0.75050 0.24128
 B431 B 0.25294 0.75693 0.22383
 B432 B 0.24262 0.78543 0.23892
 B433 B 0.26093 0.71993 0.71646
 B434 B 0.25366 0.70873 0.75254
 B435 B 0.27815 0.73036 0.74869
 B436 B 0.27000 0.75155 0.71887
 B437 B 0.23936 0.74241 0.70445
 B438 B 0.22945 0.71544 0.72543
 B439 B 0.23630 0.75512 0.76696
 B440 B 0.24357 0.76641 0.73095
 B441 B 0.21926 0.74474 0.73485
 B442 B 0.22731 0.72362 0.76454
 B443 B 0.25789 0.73275 0.77909
 B444 B 0.26778 0.75981 0.75811
 B445 B 0.22006 0.27735 0.19569
 B446 B 0.22902 0.29079 0.23052
 B447 B 0.20702 0.26635 0.22925
 B448 B 0.21511 0.24509 0.20124
 B449 B 0.24329 0.25708 0.18529
 B450 B 0.25165 0.28587 0.20350
 B451 B 0.25327 0.24753 0.24872
 B452 B 0.24432 0.23394 0.21405
 B453 B 0.26627 0.25841 0.21528
 B454 B 0.25818 0.27964 0.24321
 B455 B 0.23011 0.26761 0.25920
 B456 B 0.22172 0.23888 0.24105
 B457 B 0.77193 0.74726 0.27473
 B458 B 0.76570 0.76050 0.23877
 B459 B 0.78754 0.73713 0.24348
 B460 B 0.77727 0.71536 0.27101
 B461 B 0.74794 0.72595 0.28313
 B462 B 0.74105 0.75431 0.26306
 B463 B 0.74283 0.71612 0.21936
 B464 B 0.74908 0.70291 0.25535
 B465 B 0.72727 0.72629 0.25069
 B466 B 0.73754 0.74803 0.22314
 B467 B 0.76688 0.73749 0.21097
 B468 B 0.77377 0.70904 0.23102
 B469 B 0.74863 0.24863 0.78875
 B470 B 0.75702 0.23397 0.75574
 B471 B 0.73278 0.25494 0.75413
 B472 B 0.74015 0.27932 0.77972
 B473 B 0.77017 0.27279 0.79734
 B474 B 0.78035 0.24419 0.78238
 B475 B 0.77561 0.27907 0.73313
 B476 B 0.76728 0.29373 0.76616
 B477 B 0.79150 0.27262 0.76786
 B478 B 0.78406 0.24834 0.74219
 B479 B 0.75403 0.25484 0.72463
 B480 B 0.74380 0.28344 0.73955
 C481 C 0.45120 1.03319 0.42834
 C482 C 0.42802 1.04696 0.43187
 C483 C 0.40987 1.04969 0.40543
 C484 C 0.41539 1.03900 0.37563
 C485 C 0.43963 1.02718 0.37151
 C486 C 0.45757 1.02420 0.39801
 C487 C 0.48142 1.01170 0.39363
 C488 C 0.48738 1.00244 0.36382
 C489 C 0.46984 1.00542 0.33781
 C490 C 0.44622 1.01763 0.34146
 C491 C 0.38640 1.06280 0.40967
 C492 C 0.38131 1.07345 0.43908
 C493 C 0.39927 1.07112 0.46482
 C494 C 0.42230 1.05781 0.46147
 C495 C 0.39570 1.03814 0.34974
 C496 C 0.38028 1.03549 0.32744
 C497 C 0.46692 1.02530 0.45616
 C498 C 0.47971 1.01639 0.47825
 H499 H 0.49578 1.00911 0.41310
 H500 H 0.50571 0.99295 0.36089
 H501 H 0.47455 0.99823 0.31467
 H502 H 0.43330 1.01958 0.32045
 H503 H 0.37195 1.06516 0.39025
 H504 H 0.36334 1.08356 0.44192
 H505 H 0.39522 1.07943 0.48759
 H506 H 0.43565 1.05626 0.48217
 C507 C -0.04848 0.53506 0.92527
 C508 C -0.04170 0.52685 0.89475
 C509 C -0.05982 0.52934 0.86833
 C510 C -0.08462 0.53990 0.87274
 C511 C -0.09055 0.54999 0.90272
 C512 C -0.07225 0.54775 0.92908
 C513 C -0.07838 0.55801 0.95885
 C514 C -0.10195 0.57032 0.96242
 C515 C -0.12007 0.57212 0.93678
 C516 C -0.11457 0.56201 0.90721
 C517 C -0.05281 0.52057 0.83808
 C518 C -0.02860 0.50962 0.83413
 C519 C -0.01089 0.50713 0.86005
 C520 C -0.01726 0.51561 0.89007
 C521 C -0.10436 0.53834 0.84696
 C522 C -0.11981 0.53519 0.82477
 C523 C -0.03252 0.52728 0.95294
 C524 C -0.01948 0.51841 0.97485
 H525 H -0.06492 0.55684 0.97948
 H526 H -0.10627 0.57830 0.98529
 H527 H -0.13847 0.58141 0.93980
 H528 H -0.12915 0.56397 0.88785
 H529 H -0.06587 0.52218 0.81715
 H530 H -0.02357 0.50304 0.81083
 H531 H 0.00790 0.49863 0.85688
 H532 H -0.00275 0.51345 0.90946
 C533 C 0.05333 -0.03944 0.91205
 C534 C 0.04216 -0.03461 0.88108
 C535 C 0.05775 -0.03633 0.85416
 C536 C 0.08432 -0.04283 0.85854
 C537 C 0.09482 -0.04987 0.88921
 C538 C 0.07915 -0.04829 0.91614
 C539 C 0.08989 -0.05528 0.94668
 C540 C 0.11546 -0.06381 0.95043
 C541 C 0.13096 -0.06504 0.92411
 C542 C 0.12087 -0.05810 0.89377
 C543 C 0.04643 -0.03088 0.82339
 C544 C 0.02036 -0.02395 0.81940
 C545 C 0.00507 -0.02225 0.84581
 C546 C 0.01574 -0.02747 0.87636
 C547 C 0.10120 -0.03976 0.83201
 C548 C 0.11483 -0.03573 0.80980
 C549 C 0.03907 -0.03241 0.93938
 C550 C 0.02656 -0.02471 0.96065
 H551 H 0.07855 -0.05447 0.96781
 H552 H 0.12334 -0.06937 0.97389
 H553 H 0.15088 -0.07144 0.92721
 H554 H 0.13353 -0.05953 0.87392
 H555 H 0.05752 -0.03206 0.80212
 H556 H 0.01200 -0.01989 0.79570
 H557 H -0.01517 -0.01689 0.84261
 H558 H 0.00303 -0.02605 0.89615
 C559 C 0.55756 0.45616 0.41547
 C560 C 0.54597 0.45615 0.38418
 C561 C 0.56201 0.45525 0.35757
 C562 C 0.58942 0.45428 0.36260
 C563 C 0.60070 0.45140 0.39388
 C564 C 0.58464 0.45239 0.42052
 C565 C 0.59624 0.45015 0.45170
 C566 C 0.62302 0.44664 0.45635
 C567 C 0.63880 0.44567 0.43027
 C568 C 0.62787 0.44815 0.39929
 C569 C 0.55019 0.45608 0.32638
 C570 C 0.52317 0.45761 0.32169
 C571 C 0.50743 0.45846 0.34780
 C572 C 0.51860 0.45779 0.37876
 C573 C 0.60594 0.45936 0.33608
 C574 C 0.61940 0.46502 0.31417
 C575 C 0.54219 0.46374 0.44160
 C576 C 0.52888 0.47193 0.46181
 H577 H 0.58467 0.45072 0.47266
 H578 H 0.63157 0.44455 0.48028
 H579 H 0.65959 0.44293 0.43406
 H580 H 0.64082 0.44717 0.37967
 H581 H 0.56167 0.45535 0.30538
 H582 H 0.51442 0.45814 0.29769
 H583 H 0.48646 0.45963 0.34406
 H584 H 0.50558 0.45837 0.39835
 C585 C 0.58052 0.54254 0.09615
 C586 C 0.56850 0.54632 0.12535
 C587 C 0.58189 0.53967 0.15465
 C588 C 0.60716 0.52927 0.15439
 C589 C 0.62031 0.52846 0.12547
 C590 C 0.60691 0.53517 0.09618
 C591 C 0.62006 0.53352 0.06735
 C592 C 0.64590 0.52567 0.06754
 C593 C 0.65903 0.51908 0.09622
 C594 C 0.64643 0.52034 0.12494
 C595 C 0.56924 0.54286 0.18358
 C596 C 0.54402 0.55241 0.18352
 C597 C 0.53088 0.55884 0.15479
 C598 C 0.54288 0.55580 0.12594
 C599 C 0.61827 0.51683 0.18302
 C600 C 0.62672 0.50558 0.20658
 C601 C 0.56443 0.54068 0.06695
 C602 C 0.55067 0.53577 0.04369
 H603 H 0.61059 0.53861 0.04456
 H604 H 0.65583 0.52473 0.04538
 H605 H 0.67908 0.51297 0.09622
 H606 H 0.65740 0.51515 0.14671
 H607 H 0.57877 0.53820 0.20648
 H608 H 0.53463 0.55482 0.20587
 H609 H 0.51130 0.56624 0.15487
 H610 H 0.53205 0.56118 0.10413
 C611 C 0.08040 1.04440 0.59534
 C612 C 0.06833 1.04762 0.62463
 C613 C 0.08147 1.03997 0.65371
 C614 C 0.10654 1.02918 0.65314
 C615 C 0.11985 1.02907 0.62429
 C616 C 0.10669 1.03676 0.59521
 C617 C 0.11995 1.03573 0.56641
 C618 C 0.14569 1.02760 0.56644
 C619 C 0.15858 1.02005 0.59491
 C620 C 0.14585 1.02065 0.62360
 C621 C 0.06873 1.04252 0.68270
 C622 C 0.04367 1.05242 0.68289
 C623 C 0.03078 1.05984 0.65437
 C624 C 0.04286 1.05744 0.62546
 C625 C 0.11709 1.01541 0.68111
 C626 C 0.12497 1.00296 0.70400
 C627 C 0.06430 1.04304 0.56609
 C628 C 0.05041 1.03841 0.54286
 H629 H 0.11065 1.04154 0.54377
 H630 H 0.15573 1.02718 0.54432
 H631 H 0.17855 1.01372 0.59478
 H632 H 0.15662 1.01471 0.64522
 H633 H 0.07807 1.03706 0.70543
 H634 H 0.03420 1.05431 0.70528
 H635 H 0.01132 1.06751 0.65465
 H636 H 0.03224 1.06358 0.60382
 C637 C -0.07870 0.47662 0.60779
 C638 C -0.06538 0.47538 0.63806
 C639 C -0.07914 0.47953 0.66612
 C640 C -0.10615 0.48477 0.66362
 C641 C -0.11995 0.48325 0.63367
 C642 C -0.10613 0.47930 0.60560
 C643 C -0.12008 0.47889 0.57572
 C644 C -0.14707 0.48184 0.57365
 C645 C -0.16064 0.48546 0.60116
 C646 C -0.14731 0.48629 0.63092
 C647 C -0.06528 0.47901 0.69611
 C648 C -0.03858 0.47441 0.69829
 C649 C -0.02512 0.47035 0.67080
 C650 C -0.03826 0.47086 0.64094
 C651 C -0.11887 0.49429 0.69118
 C652 C -0.12831 0.50317 0.71431
 C653 C -0.06381 0.47976 0.57935
 C654 C -0.05140 0.48527 0.55639
 H655 H -0.11024 0.47612 0.55381
 H656 H -0.15749 0.48137 0.55060
 H657 H -0.18160 0.48772 0.59944
 H658 H -0.15862 0.48916 0.65171
 H659 H -0.07495 0.48197 0.71815
 H660 H -0.02828 0.47400 0.72143
 H661 H -0.00438 0.46678 0.67262
 H662 H -0.02706 0.46748 0.62019
 C663 C 0.42114 -0.02606 0.11206
 C664 C 0.43416 -0.02705 0.14252
 C665 C 0.42021 -0.02222 0.17024
 C666 C 0.39331 -0.01658 0.16722
 C667 C 0.37975 -0.01844 0.13714
 C668 C 0.39377 -0.02302 0.10939
 C669 C 0.38009 -0.02367 0.07934
 C670 C 0.35314 -0.02051 0.07682
 C671 C 0.33936 -0.01633 0.10404
 C672 C 0.35245 -0.01512 0.13393
 C673 C 0.43380 -0.02246 0.20042
 C674 C 0.46042 -0.02743 0.20310
 C675 C 0.47406 -0.03216 0.17594
 C676 C 0.46119 -0.03194 0.14590
 C677 C 0.38056 -0.00622 0.19430
 C678 C 0.37124 0.00331 0.21712
 C679 C 0.43635 -0.02337 0.08384
 C680 C 0.44909 -0.01810 0.06108
 H681 H 0.39011 -0.02679 0.05764
 H682 H 0.34293 -0.02127 0.05365
 H683 H 0.31844 -0.01388 0.10198
 H684 H 0.34100 -0.01179 0.15449
 H685 H 0.42397 -0.01899 0.22222
 H686 H 0.47050 -0.02760 0.22637
 H687 H 0.49474 -0.03601 0.17814
 H688 H 0.47252 -0.03585 0.12542
 C689 C 0.40833 0.48620 0.00360
 C690 C 0.39803 0.47177 0.02934
 C691 C 0.37147 0.46325 0.02762
 C692 C 0.35551 0.46920 0.00015
 C693 C 0.36560 0.48442 -0.02512
 C694 C 0.39214 0.49297 -0.02339
 C695 C 0.40208 0.50751 -0.04936
 C696 C 0.38626 0.51325 -0.07635
 C697 C 0.36025 0.50488 -0.07803
 C698 C 0.34992 0.49070 -0.05274
 C699 C 0.36164 0.44832 0.05328
 C700 C 0.37768 0.44195 0.07988
 C701 C 0.40371 0.45031 0.08156
 C702 C 0.41387 0.46510 0.05665
 C703 C 0.32992 0.45696 -0.00404
 C704 C 0.30959 0.44533 -0.00922
 C705 C 0.43589 0.49265 0.00365
 C706 C 0.45873 0.49783 0.00182
 H707 H 0.42222 0.51438 -0.04925
 H708 H 0.39424 0.52414 -0.09612
 H709 H 0.34804 0.50931 -0.09908
 H710 H 0.32957 0.48462 -0.05514
 H711 H 0.34150 0.44146 0.05307
 H712 H 0.36988 0.43044 0.09926
 H713 H 0.41610 0.44526 0.10223
 H714 H 0.43424 0.47113 0.05897
 C715 C -0.09264 0.99009 0.50596
 C716 C -0.10261 0.97576 0.53197
 C717 C -0.12917 0.96722 0.53075
 C718 C -0.14543 0.97309 0.50352
 C719 C -0.13570 0.98837 0.47809
 C720 C -0.10916 0.99691 0.47930
 C721 C -0.09956 1.01148 0.45315
 C722 C -0.11574 1.01729 0.42650
 C723 C -0.14176 1.00896 0.42533
 C724 C -0.15175 0.99471 0.45080
 C725 C -0.13869 0.95240 0.55668
 C726 C -0.12237 0.94621 0.58310
 C727 C -0.09635 0.95459 0.58428
 C728 C -0.08646 0.96920 0.55905
 C729 C -0.17087 0.96056 0.49960
 C730 C -0.19103 0.94864 0.49444
 C731 C -0.06509 0.99635 0.50537
 C732 C -0.04228 1.00133 0.50299
 H733 H -0.07943 1.01832 0.45285
 H734 H -0.10802 1.02823 0.40660
 H735 H -0.15425 1.01346 0.40455
 H736 H -0.17212 0.98866 0.44881
 H737 H -0.15882 0.94553 0.55683
 H738 H -0.12995 0.93485 0.60274
 H739 H -0.08373 0.94970 0.60482
 H740 H -0.06608 0.97524 0.56097
 C741 C -0.11487 0.01753 0.97435
 C742 C -0.13332 -0.00308 0.96915
 C743 C -0.16022 0.00245 0.96447
 C744 C -0.16829 0.02849 0.96481
 C745 C -0.14962 0.04918 0.96825
 C746 C -0.12283 0.04364 0.97349
 C747 C -0.10458 0.06450 0.97838
 C748 C -0.11257 0.09019 0.97750
 C749 C -0.13878 0.09569 0.97190
 C750 C -0.15718 0.07552 0.96737
 C751 C -0.17851 -0.01834 0.96000
 C752 C -0.17036 -0.04400 0.96002
 C753 C -0.14400 -0.04945 0.96454
 C754 C -0.12558 -0.02928 0.96910
 C755 C -0.19559 0.03444 0.96584
 C756 C -0.21682 0.04293 0.96947
 C757 C -0.08785 0.01208 0.98201
 C758 C -0.06533 0.00840 0.98921
 H759 H -0.08400 0.06122 0.98301
 H760 H -0.09833 0.10589 0.98115
 H761 H -0.14492 0.11568 0.97114
 H762 H -0.17731 0.08087 0.96301
 H763 H -0.19918 -0.01493 0.95624
 H764 H -0.18458 -0.05973 0.95648
 H765 H -0.13777 -0.06941 0.96453
 H766 H -0.10529 -0.03442 0.97252
 C767 C 0.38730 0.51812 0.46835
 C768 C 0.36868 0.49806 0.46104
 C769 C 0.34183 0.50402 0.45693
 C770 C 0.33400 0.52995 0.45992
 C771 C 0.35286 0.55023 0.46533
 C772 C 0.37958 0.54422 0.47001
 C773 C 0.39801 0.56458 0.47695
 C774 C 0.39028 0.59027 0.47849
 C775 C 0.36413 0.59626 0.47343
 C776 C 0.34555 0.57657 0.46700
 C777 C 0.32337 0.48371 0.45038
 C778 C 0.33129 0.45813 0.44777
 C779 C 0.35760 0.45227 0.45171
 C780 C 0.37618 0.47194 0.45834
 C781 C 0.30674 0.53597 0.46154
 C782 C 0.28555 0.54431 0.46579
 C783 C 0.41414 0.51196 0.47619
 C784 C 0.43641 0.50765 0.48405
 H785 H 0.41854 0.56089 0.48130
 H786 H 0.40466 0.60558 0.48362
 H787 H 0.35818 0.61625 0.47457
 H788 H 0.32547 0.58228 0.46321
 H789 H 0.30274 0.48746 0.44703
 H790 H 0.31695 0.44278 0.44264
 H791 H 0.36365 0.43237 0.44966
 H792 H 0.39642 0.46650 0.46123
 C793 C 0.08782 0.53292 0.51054
 C794 C 0.09974 0.52114 0.48473
 C795 C 0.12689 0.52506 0.48070
 C796 C 0.14195 0.54046 0.50270
 C797 C 0.13008 0.55195 0.52871
 C798 C 0.10287 0.54821 0.53259
 C799 C 0.09131 0.56008 0.55853
 C800 C 0.10632 0.57516 0.58014
 C801 C 0.13296 0.57882 0.57639
 C802 C 0.14481 0.56741 0.55101
 C803 C 0.13830 0.51374 0.45427
 C804 C 0.12325 0.49895 0.43240
 C805 C 0.09670 0.49494 0.43643
 C806 C 0.08499 0.50578 0.46230
 C807 C 0.16934 0.54567 0.49773
 C808 C 0.19186 0.55126 0.49365
 C809 C 0.05996 0.52965 0.51352
 C810 C 0.03676 0.52581 0.51347
 H811 H 0.07065 0.55777 0.56239
 H812 H 0.09728 0.58401 0.59996
 H813 H 0.14453 0.59055 0.59326
 H814 H 0.16561 0.57081 0.54913
 H815 H 0.15889 0.51631 0.45013
 H816 H 0.13224 0.49061 0.41216
 H817 H 0.08505 0.48354 0.41930
 H818 H 0.06423 0.50220 0.46424
 C819 C 0.58857 0.03121 0.01730
 C820 C 0.60065 0.01916 -0.00821
 C821 C 0.62764 0.02374 -0.01269
 C822 C 0.64237 0.04010 0.00852
 C823 C 0.63037 0.05186 0.03425
 C824 C 0.60331 0.04744 0.03860
 C825 C 0.59158 0.05963 0.06417
 C826 C 0.60627 0.07571 0.08497
 C827 C 0.63278 0.08002 0.08078
 C828 C 0.64480 0.06830 0.05574
 C829 C 0.63919 0.01215 -0.03884
 C830 C 0.62442 -0.00350 -0.06005
 C831 C 0.59801 -0.00811 -0.05560
 C832 C 0.58618 0.00293 -0.02996
 C833 C 0.66951 0.04605 0.00291
 C834 C 0.69179 0.05215 -0.00186
 C835 C 0.56080 0.02744 0.02047
 C836 C 0.53766 0.02319 0.02028
 H837 H 0.57102 0.05683 0.06836
 H838 H 0.59709 0.08485 0.10449
 H839 H 0.64410 0.09252 0.09701
 H840 H 0.66547 0.07223 0.05348
 H841 H 0.65968 0.01518 -0.04329
 H842 H 0.63350 -0.01202 -0.08009
 H843 H 0.58657 -0.02019 -0.07221
 H844 H 0.56555 -0.00118 -0.02766
 C845 C 0.61450 0.95939 0.50209
 C846 C 0.63591 0.97287 0.51723
 C847 C 0.66171 0.96779 0.50853
 C848 C 0.66583 0.94933 0.48467
 C849 C 0.64441 0.93550 0.46996
 C850 C 0.61862 0.94063 0.47864
 C851 C 0.59743 0.92669 0.46359
 C852 C 0.60167 0.90798 0.44082
 C853 C 0.62693 0.90283 0.43247
 C854 C 0.64814 0.91643 0.44673
 C855 C 0.68289 0.98130 0.52421
 C856 C 0.67866 0.99928 0.54784
 C857 C 0.65339 1.00430 0.55629
 C858 C 0.63218 0.99136 0.54118
 C859 C 0.69220 0.94367 0.47650
 C860 C 0.71428 0.93833 0.47123
 C861 C 0.58822 0.96527 0.51016
 C862 C 0.56643 0.97065 0.51650
 H863 H 0.57743 0.92993 0.46940
 H864 H 0.58526 0.89734 0.42974
 H865 H 0.63013 0.88824 0.41483
 H866 H 0.66743 0.91179 0.43940
 H867 H 0.70291 0.97807 0.51847
 H868 H 0.69508 1.00938 0.55966
 H869 H 0.65020 1.01824 0.57471
 H870 H 0.61290 0.99580 0.54873
 C871 C 0.11555 0.46049 0.99676
 C872 C 0.13707 0.47543 1.00928
 C873 C 0.16273 0.46976 1.00055
 C874 C 0.16662 0.44920 0.97935
 C875 C 0.14511 0.43395 0.96731
 C876 C 0.11945 0.43966 0.97600
 C877 C 0.09820 0.42417 0.96375
 C878 C 0.10224 0.40342 0.94372
 C879 C 0.12737 0.39774 0.93534
 C880 C 0.14863 0.41282 0.94683
 C881 C 0.18402 0.48478 1.01361
 C882 C 0.18006 0.50472 1.03486
 C883 C 0.15494 0.51026 1.04342
 C884 C 0.13361 0.49592 1.03074
 C885 C 0.19290 0.44278 0.97154
 C886 C 0.21487 0.43679 0.96667
 C887 C 0.08939 0.46681 1.00491
 C888 C 0.06769 0.47245 1.01141
 H889 H 0.07830 0.42778 0.96969
 H890 H 0.08579 0.39162 0.93480
 H891 H 0.13041 0.38156 0.91984
 H892 H 0.16780 0.40769 0.93958
 H893 H 0.20393 0.48125 1.00764
 H894 H 0.19657 0.51593 1.04474
 H895 H 0.15197 0.52572 1.06000
 H896 H 0.11445 0.50089 1.03823
 C897 C -0.03056 0.40181 0.47329
 C898 C -0.05041 0.39120 0.45243
 C899 C -0.04671 0.36704 0.43733
 C900 C -0.02302 0.35370 0.44291
 C901 C -0.00379 0.36362 0.46515
 C902 C -0.00759 0.38768 0.48041
 C903 C 0.01210 0.39731 0.50220
 C904 C 0.03485 0.38357 0.50881
 C905 C 0.03856 0.36008 0.49389
 C906 C 0.01954 0.35014 0.47227
 C907 C -0.06683 0.35695 0.41649
 C908 C -0.08995 0.37030 0.41074
 C909 C -0.09348 0.39397 0.42533
 C910 C -0.07394 0.40446 0.44581
 C911 C -0.01788 0.33062 0.42461
 C912 C -0.01356 0.31187 0.40875
 C913 C -0.03225 0.42838 0.48446
 C914 C -0.03175 0.45101 0.49180
 H915 H 0.01006 0.41544 0.51449
 H916 H 0.04968 0.39119 0.52560
 H917 H 0.05627 0.34949 0.49912
 H918 H 0.02328 0.33177 0.46132
 H919 H -0.06497 0.33861 0.40459
 H920 H -0.10520 0.36225 0.39482
 H921 H -0.11145 0.40429 0.42072
 H922 H -0.07748 0.42297 0.45649
 C923 C 0.47254 -0.10170 -0.02119
 C924 C 0.45199 -0.11339 -0.04004
 C925 C 0.45577 -0.13757 -0.05508
 C926 C 0.48022 -0.14982 -0.05149
 C927 C 0.50031 -0.13878 -0.03128
 C928 C 0.49644 -0.11472 -0.01605
 C929 C 0.51697 -0.10397 0.00369
 C930 C 0.54060 -0.11660 0.00833
 C931 C 0.54438 -0.14008 -0.00656
 C932 C 0.52454 -0.15112 -0.02618
 C933 C 0.43491 -0.14876 -0.07387
 C934 C 0.41101 -0.13647 -0.07768
 C935 C 0.40740 -0.11278 -0.06317
 C936 C 0.42765 -0.10122 -0.04469
 C937 C 0.48518 -0.17295 -0.06981
 C938 C 0.48937 -0.19171 -0.08570
 C939 C 0.47035 -0.07518 -0.01002
 C940 C 0.47044 -0.05255 -0.00268
 H941 H 0.51493 -0.08579 0.01589
 H942 H 0.55607 -0.10812 0.02357
 H943 H 0.56277 -0.14981 -0.00288
 H944 H 0.52838 -0.16945 -0.03719
 H945 H 0.43680 -0.16715 -0.08564
 H946 H 0.39522 -0.14536 -0.09203
 H947 H 0.38883 -0.10328 -0.06626
 H948 H 0.42403 -0.08273 -0.03402
 C949 C 0.01633 -0.10683 1.04088
 C950 C 0.00813 -0.12747 1.02053
 C951 C 0.00902 -0.15363 1.03205
 C952 C 0.01818 -0.15897 1.06381
 C953 C 0.02783 -0.13840 1.08351
 C954 C 0.02687 -0.11226 1.07202
 C955 C 0.03611 -0.09200 1.09238
 C956 C 0.04596 -0.09740 1.12324
 C957 C 0.04704 -0.12295 1.13445
 C958 C 0.03810 -0.14328 1.11493
 C959 C 0.00033 -0.17390 1.01148
 C960 C -0.00892 -0.16850 0.98032
 C961 C -0.00977 -0.14294 0.96905
 C962 C -0.00139 -0.12256 0.98884
 C963 C 0.01608 -0.18515 1.07729
 C964 C 0.01409 -0.20595 1.09085
 C965 C 0.01196 -0.08003 1.03100
 C966 C 0.00738 -0.05770 1.02414
 H967 H 0.03585 -0.07181 1.08467
 H968 H 0.05274 -0.08167 1.13858
 H969 H 0.05479 -0.12704 1.15842
 H970 H 0.03939 -0.16282 1.12474
 H971 H 0.00073 -0.19408 1.01921
 H972 H -0.01545 -0.18425 0.96484
 H973 H -0.01695 -0.13886 0.94483
 H974 H -0.00231 -0.10299 0.97901
 C975 C 0.51355 0.39135 0.54465
 C976 C 0.51409 0.37029 0.52338
 C977 C 0.51497 0.34432 0.53560
 C978 C 0.51548 0.33963 0.56901
 C979 C 0.51612 0.36081 0.59029
 C980 C 0.51499 0.38671 0.57807
 C981 C 0.51514 0.40752 0.59984
 C982 C 0.51666 0.40289 0.63271
 C983 C 0.51792 0.37758 0.64467
 C984 C 0.51760 0.35672 0.62385
 C985 C 0.51512 0.32357 0.51389
 C986 C 0.51454 0.32833 0.48101
 C987 C 0.51374 0.35370 0.46907
 C988 C 0.51348 0.37454 0.48991
 C989 C 0.51434 0.31322 0.58193
 C990 C 0.51298 0.29224 0.59516
 C991 C 0.50997 0.41769 0.53255
 C992 C 0.50604 0.43983 0.52420
 H993 H 0.51431 0.42758 0.59174
 H994 H 0.51689 0.41904 0.64898
 H995 H 0.51912 0.37407 0.67024
 H996 H 0.51863 0.33741 0.63439
 H997 H 0.51579 0.30353 0.52212
 H998 H 0.51472 0.31222 0.46470
 H999 H 0.51332 0.35728 0.44351
 H1000 H 0.51291 0.39395 0.47956
 C1001 C 0.50158 1.09394 0.56301
 C1002 C 0.47801 1.10773 0.56245
 C1003 C 0.47812 1.13393 0.57305
 C1004 C 0.50183 1.14623 0.58412
 C1005 C 0.52541 1.13240 0.58459
 C1006 C 0.52529 1.10624 0.57400
 C1007 C 0.54915 1.09289 0.57480
 C1008 C 0.57241 1.10495 0.58580
 C1009 C 0.57252 1.13047 0.59620
 C1010 C 0.54937 1.14413 0.59564
 C1011 C 0.45427 1.14720 0.57239
 C1012 C 0.43098 1.13500 0.56159
 C1013 C 0.43090 1.10946 0.55120
 C1014 C 0.45409 1.09587 0.55158
 C1015 C 0.50219 1.17298 0.59527
 C1016 C 0.50340 1.19507 0.60482
 C1017 C 0.50158 1.06693 0.55314
 C1018 C 0.50274 1.04438 0.54585
 H1019 H 0.55012 1.07300 0.56697
 H1020 H 0.59045 1.09442 0.58628
 H1021 H 0.59064 1.13975 0.60476
 H1022 H 0.55051 1.16394 0.60399
 H1023 H 0.45337 1.16709 0.58023
 H1024 H 0.41290 1.14544 0.56129
 H1025 H 0.41276 1.10009 0.54284
 H1026 H 0.45305 1.07603 0.54329
 C1027 C 0.00290 0.59583 1.05957
 C1028 C 0.02648 0.60827 1.07076
 C1029 C 0.02637 0.63438 1.08148
 C1030 C 0.00269 0.64806 1.08089
 C1031 C -0.02090 0.63561 1.06965
 C1032 C -0.02077 0.60946 1.05892
 C1033 C -0.04456 0.59748 1.04781
 C1034 C -0.06786 0.61089 1.04735
 C1035 C -0.06802 0.63637 1.05794
 C1036 C -0.04487 0.64869 1.06896
 C1037 C 0.05020 0.64624 1.09275
 C1038 C 0.07345 0.63274 1.09339
 C1039 C 0.07357 0.60727 1.08286
 C1040 C 0.05043 0.59508 1.07166
 C1041 C 0.00284 0.67485 1.09195
 C1042 C 0.00386 0.69699 1.10137
 C1043 C 0.00314 0.56885 1.04955
 C1044 C 0.00441 0.54633 1.04213
 H1045 H -0.04541 0.57768 1.03938
 H1046 H -0.08589 0.60144 1.03879
 H1047 H -0.08620 0.64666 1.05762
 H1048 H -0.04595 0.66853 1.07695
 H1049 H 0.05116 0.66601 1.10123
 H1050 H 0.09147 0.64212 1.10212
 H1051 H 0.09169 0.59688 1.08338
 H1052 H 0.05158 0.57524 1.06372
 C1053 C 0.52779 0.61770 -0.04795
 C1054 C 0.54312 0.63874 -0.03547
 C1055 C 0.53964 0.66433 -0.04827
 C1056 C 0.52076 0.66876 -0.07347
 C1057 C 0.50588 0.64756 -0.08646
 C1058 C 0.50942 0.62201 -0.07374
 C1059 C 0.49420 0.60120 -0.08720
 C1060 C 0.47602 0.60550 -0.11236
 C1061 C 0.47254 0.63047 -0.12471
 C1062 C 0.48723 0.65132 -0.11203
 C1063 C 0.55519 0.68503 -0.03532
 C1064 C 0.57369 0.68060 -0.01051
 C1065 C 0.57706 0.65562 0.00197
 C1066 C 0.56195 0.63485 -0.01024
 C1067 C 0.51611 0.69503 -0.08573
 C1068 C 0.51146 0.71654 -0.09626
 C1069 C 0.52990 0.59164 -0.03404
 C1070 C 0.52922 0.56935 -0.02451
 H1071 H 0.49617 0.58139 -0.07855
 H1072 H 0.46459 0.58935 -0.12232
 H1073 H 0.45839 0.63371 -0.14426
 H1074 H 0.48383 0.67035 -0.12255
 H1075 H 0.55328 0.70478 -0.04428
 H1076 H 0.58548 0.69665 -0.00091
 H1077 H 0.59148 0.65230 0.02121
 H1078 H 0.56530 0.61573 0.00011
 C1079 C 0.02651 1.12009 0.45050
 C1080 C 0.04298 1.14099 0.46108
 C1081 C 0.03931 1.16645 0.44795
 C1082 C 0.01915 1.17087 0.42431
 C1083 C 0.00310 1.14979 0.41317
 C1084 C 0.00681 1.12437 0.42622
 C1085 C -0.00957 1.10367 0.41460
 C1086 C -0.02902 1.10795 0.39092
 C1087 C -0.03267 1.13279 0.37825
 C1088 C -0.01686 1.15353 0.38914
 C1089 C 0.05601 1.18701 0.45901
 C1090 C 0.07579 1.18258 0.48227
 C1091 C 0.07935 1.15772 0.49506
 C1092 C 0.06313 1.13709 0.48472
 C1093 C 0.01437 1.19703 0.41181
 C1094 C 0.00954 1.21846 0.40116
 C1095 C 0.02893 1.09420 0.46478
 C1096 C 0.02837 1.07201 0.47466
 H1097 H -0.00753 1.08395 0.42356
 H1098 H -0.04132 1.09189 0.38235
 H1099 H -0.04781 1.13603 0.35985
 H1100 H -0.02045 1.17247 0.37844
 H1101 H 0.05400 1.20665 0.44973
 H1102 H 0.08844 1.19853 0.49042
 H1103 H 0.09477 1.15440 0.51308
 H1104 H 0.06666 1.11806 0.49524
 C1105 C 0.78750 0.70351 0.82387
 C1106 C 0.78337 0.71323 0.85456
 C1107 C 0.78575 0.69649 0.88170
 C1108 C 0.79224 0.67020 0.87782
 C1109 C 0.79885 0.66122 0.84756
 C1110 C 0.79658 0.67805 0.82043
 C1111 C 0.80301 0.66877 0.79027
 C1112 C 0.81172 0.64353 0.78713
 C1113 C 0.81357 0.62689 0.81358
 C1114 C 0.80716 0.63551 0.84354
 C1115 C 0.78084 0.70637 0.91213
 C1116 C 0.77383 0.73214 0.91558
 C1117 C 0.77148 0.74856 0.88895
 C1118 C 0.77613 0.73930 0.85871
 C1119 C 0.78944 0.65199 0.90416
 C1120 C 0.78566 0.63708 0.92595
 C1121 C 0.77851 0.71821 0.79604
 C1122 C 0.76870 0.73024 0.77404
 H1123 H 0.80179 0.68105 0.76903
 H1124 H 0.81723 0.63692 0.76412
 H1125 H 0.82013 0.60724 0.81091
 H1126 H 0.80910 0.62199 0.86353
 H1127 H 0.78253 0.69434 0.93354
 H1128 H 0.77019 0.73941 0.93903
 H1129 H 0.76603 0.76856 0.89173
 H1130 H 0.77422 0.75280 0.83869
 C1131 C 0.28749 0.20552 0.32426
 C1132 C 0.28268 0.21445 0.35512
 C1133 C 0.28505 0.19718 0.38176
 C1134 C 0.29215 0.17115 0.37718
 C1135 C 0.29943 0.16303 0.34681
 C1136 C 0.29725 0.18042 0.32022
 C1137 C 0.30450 0.17205 0.28997
 C1138 C 0.31395 0.14717 0.28623
 C1139 C 0.31562 0.12993 0.31211
 C1140 C 0.30840 0.13764 0.34215
 C1141 C 0.27953 0.20627 0.41239
 C1142 C 0.27193 0.23179 0.41650
 C1143 C 0.26957 0.24871 0.39036
 C1144 C 0.27481 0.24023 0.35994
 C1145 C 0.28932 0.15233 0.40285
 C1146 C 0.28547 0.13697 0.42416
 C1147 C 0.27853 0.22057 0.29671
 C1148 C 0.26874 0.23271 0.27479
 H1149 H 0.30340 0.18480 0.26915
 H1150 H 0.32014 0.14130 0.26318
 H1151 H 0.32270 0.11055 0.30896
 H1152 H 0.31025 0.12370 0.36171
 H1153 H 0.28119 0.19383 0.43344
 H1154 H 0.26786 0.23846 0.44009
 H1155 H 0.26367 0.26851 0.39365
 H1156 H 0.27288 0.25410 0.34031
 C1157 C 0.71137 0.30505 0.33797
 C1158 C 0.70144 0.33031 0.33366
 C1159 C 0.69932 0.34642 0.36055
 C1160 C 0.70680 0.33687 0.39139
 C1161 C 0.71420 0.31071 0.39592
 C1162 C 0.71656 0.29472 0.36904
 C1163 C 0.72467 0.26878 0.37392
 C1164 C 0.73020 0.25893 0.40460
 C1165 C 0.72786 0.27461 0.43098
 C1166 C 0.71998 0.30022 0.42684
 C1167 C 0.69017 0.37195 0.35580
 C1168 C 0.68279 0.38111 0.32529
 C1169 C 0.68449 0.36517 0.29898
 C1170 C 0.69393 0.34008 0.30295
 C1171 C 0.70981 0.35436 0.41798
 C1172 C 0.71431 0.36810 0.44057
 C1173 C 0.71888 0.29053 0.31085
 C1174 C 0.72669 0.27786 0.28966
 H1175 H 0.72662 0.25579 0.35414
 H1176 H 0.73630 0.23903 0.40792
 H1177 H 0.73216 0.26689 0.45479
 H1178 H 0.71830 0.31163 0.44810
 H1179 H 0.68835 0.38492 0.37563
 H1180 H 0.67573 0.40067 0.32205
 H1181 H 0.67870 0.37236 0.27535
 H1182 H 0.69513 0.32838 0.28183
 C1183 C 0.20767 0.80066 0.83781
 C1184 C 0.19961 0.82647 0.83222
 C1185 C 0.19770 0.84335 0.85842
 C1186 C 0.20360 0.83403 0.88982
 C1187 C 0.20880 0.80744 0.89551
 C1188 C 0.21089 0.79066 0.86933
 C1189 C 0.21686 0.76425 0.87536
 C1190 C 0.22055 0.75471 0.90653
 C1191 C 0.21850 0.77117 0.93224
 C1192 C 0.21273 0.79727 0.92693
 C1193 C 0.19037 0.86936 0.85244
 C1194 C 0.18449 0.87825 0.82136
 C1195 C 0.18598 0.86155 0.79573
 C1196 C 0.19379 0.83601 0.80091
 C1197 C 0.20751 0.85199 0.91581
 C1198 C 0.21267 0.86608 0.93790
 C1199 C 0.21576 0.78533 0.81171
 C1200 C 0.22415 0.77224 0.79129
 H1201 H 0.21851 0.75069 0.85611
 H1202 H 0.22501 0.73445 0.91074
 H1203 H 0.22137 0.76369 0.95641
 H1204 H 0.21118 0.80931 0.94768
 H1205 H 0.18874 0.88289 0.87174
 H1206 H 0.17860 0.89812 0.81714
 H1207 H 0.18100 0.86840 0.77174
 H1208 H 0.19480 0.82370 0.78030
 C1209 C 0.29199 0.82299 0.15059
 C1210 C 0.28678 0.80931 0.12191
 C1211 C 0.27977 0.82315 0.09335
 C1212 C 0.27805 0.85056 0.09379
 C1213 C 0.28634 0.86437 0.12152
 C1214 C 0.29341 0.85047 0.15009
 C1215 C 0.30118 0.86450 0.17779
 C1216 C 0.30239 0.89162 0.17711
 C1217 C 0.29529 0.90525 0.14921
 C1218 C 0.28719 0.89186 0.12167
 C1219 C 0.27384 0.80903 0.06511
 C1220 C 0.27490 0.78198 0.06513
 C1221 C 0.28172 0.76843 0.09314
 C1222 C 0.28756 0.78184 0.12132
 C1223 C 0.26530 0.86391 0.06687
 C1224 C 0.25356 0.87365 0.04436
 C1225 C 0.29047 0.80898 0.18071
 C1226 C 0.28574 0.79679 0.20458
 H1227 H 0.30675 0.85462 0.20000
 H1228 H 0.30872 0.90212 0.19837
 H1229 H 0.29607 0.92631 0.14891
 H1230 H 0.28196 0.90318 0.10043
 H1231 H 0.26854 0.81875 0.04272
 H1232 H 0.27040 0.77148 0.04329
 H1233 H 0.28252 0.74741 0.09305
 H1234 H 0.29295 0.77054 0.14252
 C1235 C 0.79368 0.32119 0.65174
 C1236 C 0.78778 0.30796 0.62289
 C1237 C 0.78105 0.32231 0.59463
 C1238 C 0.78029 0.34977 0.59553
 C1239 C 0.78923 0.36304 0.62341
 C1240 C 0.79604 0.34863 0.65167
 C1241 C 0.80451 0.36213 0.67952
 C1242 C 0.80661 0.38922 0.67928
 C1243 C 0.79973 0.40336 0.65169
 C1244 C 0.79098 0.39050 0.62401
 C1245 C 0.77442 0.30866 0.56620
 C1246 C 0.77452 0.28157 0.56578
 C1247 C 0.78107 0.26752 0.59351
 C1248 C 0.78759 0.28047 0.62184
 C1249 C 0.76781 0.36378 0.56894
 C1250 C 0.75620 0.37399 0.54666
 C1251 C 0.79195 0.30692 0.68165
 C1252 C 0.78706 0.29461 0.70538
 H1253 H 0.80993 0.35184 0.70150
 H1254 H 0.81345 0.39930 0.70066
 H1255 H 0.80119 0.42440 0.65174
 H1256 H 0.78596 0.40221 0.60302
 H1257 H 0.76929 0.31876 0.54403
 H1258 H 0.76949 0.27143 0.54382
 H1259 H 0.78113 0.24648 0.59307
 H1260 H 0.79273 0.26878 0.64281
 C1261 C 0.22107 0.16727 0.64044
 C1262 C 0.22746 0.14067 0.64151
 C1263 C 0.23239 0.12773 0.61282
 C1264 C 0.23115 0.14164 0.58341
 C1265 C 0.22189 0.16734 0.58203
 C1266 C 0.21680 0.18021 0.61072
 C1267 C 0.20841 0.20620 0.60903
 C1268 C 0.20498 0.21909 0.57967
 C1269 C 0.20992 0.20649 0.55153
 C1270 C 0.21835 0.18091 0.55255
 C1271 C 0.23927 0.10127 0.61443
 C1272 C 0.24112 0.08794 0.64369
 C1273 C 0.23653 0.10071 0.67184
 C1274 C 0.22997 0.12685 0.67089
 C1275 C 0.24226 0.13089 0.55546
 C1276 C 0.25239 0.12312 0.53219
 C1277 C 0.22413 0.18236 0.66926
 C1278 C 0.22993 0.19501 0.69251
 H1279 H 0.20422 0.21666 0.63036
 H1280 H 0.19846 0.23895 0.57876
 H1281 H 0.20724 0.21658 0.52878
 H1282 H 0.22188 0.17184 0.53007
 H1283 H 0.24304 0.09063 0.59310
 H1284 H 0.24625 0.06765 0.64453
 H1285 H 0.23810 0.09035 0.69453
 H1286 H 0.22672 0.13611 0.69328
 C1287 C 0.72137 0.67090 0.14123
 C1288 C 0.72845 0.64451 0.14329
 C1289 C 0.73341 0.63092 0.11507
 C1290 C 0.73147 0.64399 0.08511
 C1291 C 0.72147 0.66939 0.08283
 C1292 C 0.71638 0.68290 0.11107
 C1293 C 0.70724 0.70859 0.10846
 C1294 C 0.70305 0.72056 0.07863
 C1295 C 0.70799 0.70732 0.05094
 C1296 C 0.71717 0.68203 0.05287
 C1297 C 0.74101 0.60470 0.11766
 C1298 C 0.74351 0.59222 0.14743
 C1299 C 0.73885 0.60562 0.17511
 C1300 C 0.73161 0.63155 0.17319
 C1301 C 0.74258 0.63278 0.05744
 C1302 C 0.75271 0.62469 0.03434
 C1303 C 0.72445 0.68683 0.16934
 C1304 C 0.73030 0.70009 0.19205
 H1305 H 0.70304 0.71951 0.12941
 H1306 H 0.69594 0.74020 0.07701
 H1307 H 0.70469 0.71670 0.02783
 H1308 H 0.72066 0.67244 0.03071
 H1309 H 0.74484 0.59359 0.09672
 H1310 H 0.74917 0.57209 0.14902
 H1311 H 0.74091 0.59591 0.19819
 H1312 H 0.72834 0.64132 0.19524
 C1313 C 0.24262 0.65586 0.25208
 C1314 C 0.23205 0.64277 0.22487
 C1315 C 0.22383 0.61631 0.22761
 C1316 C 0.22629 0.60325 0.25755
 C1317 C 0.23869 0.61580 0.28416
 C1318 C 0.24694 0.64224 0.28140
 C1319 C 0.25886 0.65464 0.30847
 C1320 C 0.26250 0.64122 0.33744
 C1321 C 0.25435 0.61533 0.34017
 C1322 C 0.24253 0.60267 0.31391
 C1323 C 0.21287 0.60362 0.20026
 C1324 C 0.21042 0.61668 0.17090
 C1325 C 0.21863 0.64257 0.16818
 C1326 C 0.22915 0.65563 0.19485
 C1327 C 0.21327 0.57829 0.26200
 C1328 C 0.20082 0.55860 0.26670
 C1329 C 0.24750 0.68362 0.25068
 C1330 C 0.25121 0.70675 0.25115
 H1331 H 0.26543 0.67479 0.30757
 H1332 H 0.27148 0.65104 0.35797
 H1333 H 0.25705 0.60504 0.36278
 H1334 H 0.23654 0.58250 0.31713
 H1335 H 0.20636 0.58345 0.20122
 H1336 H 0.20215 0.60666 0.15013
 H1337 H 0.21673 0.65262 0.14532
 H1338 H 0.23518 0.67579 0.19165
 C1339 C 0.74265 0.15393 0.75364
 C1340 C 0.73189 0.14075 0.72659
 C1341 C 0.72339 0.11438 0.72960
 C1342 C 0.72577 0.10149 0.75964
 C1343 C 0.73824 0.11413 0.78615
 C1344 C 0.74678 0.14047 0.78312
 C1345 C 0.75882 0.15293 0.81006
 C1346 C 0.76226 0.13970 0.83919
 C1347 C 0.75381 0.11392 0.84219
 C1348 C 0.74190 0.10118 0.81605
 C1349 C 0.71227 0.10162 0.70238
 C1350 C 0.70991 0.11452 0.67290
 C1351 C 0.71839 0.14030 0.66993
 C1352 C 0.72908 0.15344 0.69645
 C1353 C 0.71280 0.07650 0.76423
 C1354 C 0.70050 0.05673 0.76910
 C1355 C 0.74793 0.18163 0.75195
 C1356 C 0.75194 0.20473 0.75222
 H1357 H 0.76563 0.17300 0.80895
 H1358 H 0.77133 0.14958 0.85962
 H1359 H 0.75636 0.10378 0.86492
 H1360 H 0.73568 0.08111 0.81949
 H1361 H 0.70555 0.08153 0.70355
 H1362 H 0.70151 0.10444 0.65226
 H1363 H 0.71656 0.15022 0.64697
 H1364 H 0.73532 0.17352 0.69305
 C1365 C 0.75746 0.13447 0.26691
 C1366 C 0.76924 0.12378 0.29515
 C1367 C 0.77259 0.09653 0.29784
 C1368 C 0.76435 0.08035 0.27213
 C1369 C 0.75094 0.09087 0.24483
 C1370 C 0.74743 0.11809 0.24221
 C1371 C 0.73460 0.12836 0.21429
 C1372 C 0.72567 0.11214 0.18959
 C1373 C 0.72922 0.08546 0.19212
 C1374 C 0.74171 0.07484 0.21939
 C1375 C 0.78501 0.08617 0.32592
 C1376 C 0.79388 0.10237 0.35070
 C1377 C 0.79064 0.12910 0.34803
 C1378 C 0.77849 0.13980 0.32060
 C1379 C 0.77466 0.05458 0.27066
 C1380 C 0.78619 0.03485 0.26743
 C1381 C 0.75684 0.16229 0.26231
 C1382 C 0.75596 0.18526 0.25716
 H1383 H 0.73150 0.14900 0.21115
 H1384 H 0.71609 0.12033 0.16831
 H1385 H 0.72233 0.07294 0.17284
 H1386 H 0.74394 0.05396 0.22043
 H1387 H 0.78783 0.06547 0.32904
 H1388 H 0.80333 0.09415 0.37205
 H1389 H 0.79759 0.14161 0.36731
 H1390 H 0.77641 0.16070 0.31956
 C1391 C 0.25952 0.62959 0.77113
 C1392 C 0.27169 0.61853 0.79890
 C1393 C 0.27517 0.59128 0.80083
 C1394 C 0.26665 0.57550 0.77486
 C1395 C 0.25268 0.58634 0.74820
 C1396 C 0.24904 0.61355 0.74633
 C1397 C 0.23561 0.62418 0.71902
 C1398 C 0.22622 0.60829 0.69420
 C1399 C 0.22992 0.58162 0.69600
 C1400 C 0.24298 0.57065 0.72265
 C1401 C 0.28796 0.58052 0.82843
 C1402 C 0.29698 0.59633 0.85351
 C1403 C 0.29359 0.62307 0.85159
 C1404 C 0.28114 0.63417 0.82460
 C1405 C 0.27721 0.54995 0.77235
 C1406 C 0.28887 0.53044 0.76827
 C1407 C 0.25883 0.65743 0.76705
 C1408 C 0.25756 0.68036 0.76187
 H1409 H 0.23234 0.64483 0.71647
 H1410 H 0.21617 0.61676 0.67340
 H1411 H 0.22268 0.56936 0.67661
 H1412 H 0.24530 0.54978 0.72315
 H1413 H 0.29090 0.55980 0.83095
 H1414 H 0.30666 0.58780 0.87452
 H1415 H 0.30063 0.63527 0.87112
 H1416 H 0.27895 0.65505 0.82411
 C1417 C 0.28429 0.33331 0.73608
 C1418 C 0.27334 0.34796 0.76026
 C1419 C 0.27874 0.37510 0.76205
 C1420 C 0.29484 0.38741 0.73946
 C1421 C 0.30600 0.37271 0.71550
 C1422 C 0.30073 0.34552 0.71385
 C1423 C 0.31221 0.33112 0.68989
 C1424 C 0.32850 0.34330 0.66816
 C1425 C 0.33364 0.36992 0.66973
 C1426 C 0.32255 0.38457 0.69307
 C1427 C 0.26807 0.38929 0.78682
 C1428 C 0.25260 0.37694 0.80930
 C1429 C 0.24723 0.35038 0.80750
 C1430 C 0.25731 0.33598 0.78324
 C1431 C 0.30034 0.41509 0.74128
 C1432 C 0.30522 0.43801 0.74319
 C1433 C 0.27886 0.30564 0.73479
 C1434 C 0.27352 0.28278 0.73578
 H1435 H 0.30874 0.31036 0.68774
 H1436 H 0.33717 0.33206 0.64999
 H1437 H 0.34629 0.37929 0.65279
 H1438 H 0.32715 0.40521 0.69335
 H1439 H 0.27175 0.40998 0.78926
 H1440 H 0.24482 0.38803 0.82827
 H1441 H 0.23532 0.34083 0.82511
 H1442 H 0.25267 0.31534 0.78301
 C1443 C 0.78351 0.83964 0.23329
 C1444 C 0.77260 0.85387 0.25787
 C1445 C 0.77765 0.88105 0.25999
 C1446 C 0.79338 0.89381 0.23738
 C1447 C 0.80440 0.87955 0.21292
 C1448 C 0.79948 0.85231 0.21091
 C1449 C 0.81084 0.83835 0.18648
 C1450 C 0.82666 0.85100 0.16460
 C1451 C 0.83146 0.87766 0.16651
 C1452 C 0.82050 0.89188 0.19034
 C1453 C 0.76703 0.89482 0.28516
 C1454 C 0.75194 0.88204 0.30768
 C1455 C 0.74692 0.85543 0.30557
 C1456 C 0.75697 0.84143 0.28094
 C1457 C 0.79884 0.92147 0.23983
 C1458 C 0.80384 0.94434 0.24225
 C1459 C 0.77858 0.81188 0.23182
 C1460 C 0.77359 0.78895 0.23289
 H1461 H 0.80764 0.81758 0.18407
 H1462 H 0.83522 0.84009 0.14604
 H1463 H 0.84375 0.88738 0.14945
 H1464 H 0.82482 0.91257 0.19087
 H1465 H 0.77044 0.91554 0.28786
 H1466 H 0.74418 0.89281 0.32695
 H1467 H 0.73531 0.84555 0.32322
 H1468 H 0.75262 0.82074 0.28049
 C1469 C 0.70976 0.86316 0.75864
 C1470 C 0.72782 0.87657 0.77944
 C1471 C 0.72253 0.90216 0.78913
 C1472 C 0.69931 0.91418 0.77782
 C1473 C 0.68107 0.90063 0.75735
 C1474 C 0.68620 0.87491 0.74800
 C1475 C 0.66753 0.86156 0.72801
 C1476 C 0.64466 0.87348 0.71696
 C1477 C 0.63980 0.89880 0.72568
 C1478 C 0.65767 0.91228 0.74574
 C1479 C 0.74084 0.91526 0.80988
 C1480 C 0.76375 0.90335 0.82080
 C1481 C 0.76895 0.87830 0.81133
 C1482 C 0.75127 0.86497 0.79088
 C1483 C 0.69439 0.94074 0.78621
 C1484 C 0.68929 0.96294 0.79135
 C1485 C 0.71571 0.83744 0.74796
 C1486 C 0.72123 0.81605 0.73970
 H1487 H 0.67037 0.84177 0.72077
 H1488 H 0.63066 0.86301 0.70156
 H1489 H 0.62204 0.90802 0.71698
 H1490 H 0.65289 0.93186 0.75203
 H1491 H 0.73762 0.93476 0.81790
 H1492 H 0.77754 0.91362 0.83669
 H1493 H 0.78677 0.86913 0.81989
 H1494 H 0.75619 0.84551 0.78423
 C1495 C 0.20982 0.36544 0.25780
 C1496 C 0.18604 0.37691 0.24747
 C1497 C 0.18069 0.40256 0.25686
 C1498 C 0.19898 0.41635 0.27701
 C1499 C 0.22247 0.40465 0.28795
 C1500 C 0.22795 0.37912 0.27824
 C1501 C 0.25170 0.36785 0.28924
 C1502 C 0.26947 0.38146 0.30929
 C1503 C 0.26407 0.40645 0.31881
 C1504 C 0.24085 0.41802 0.30833
 C1505 C 0.15703 0.41390 0.24560
 C1506 C 0.13912 0.40019 0.22585
 C1507 C 0.14422 0.37494 0.21705
 C1508 C 0.16735 0.36333 0.22773
 C1509 C 0.19392 0.44292 0.28520
 C1510 C 0.18873 0.46515 0.29002
 C1511 C 0.21584 0.33970 0.24726
 C1512 C 0.22136 0.31827 0.23917
 H1513 H 0.25678 0.34845 0.28253
 H1514 H 0.28754 0.37256 0.31748
 H1515 H 0.27793 0.41694 0.33439
 H1516 H 0.23747 0.43748 0.31638
 H1517 H 0.15207 0.43342 0.25195
 H1518 H 0.12115 0.40918 0.21744
 H1519 H 0.13019 0.36429 0.20187
 H1520 H 0.17038 0.34360 0.22042
 C1521 C 0.14837 0.21961 0.77521
 C1522 C 0.13742 0.24464 0.77532
 C1523 C 0.11358 0.24841 0.79053
 C1524 C 0.10072 0.22713 0.80553
 C1525 C 0.11096 0.20186 0.80393
 C1526 C 0.13488 0.19812 0.78881
 C1527 C 0.14497 0.17282 0.78806
 C1528 C 0.13169 0.15167 0.80152
 C1529 C 0.10829 0.15528 0.81620
 C1530 C 0.09799 0.18006 0.81754
 C1531 C 0.10330 0.27369 0.79073
 C1532 C 0.11617 0.29465 0.77630
 C1533 C 0.13946 0.29098 0.76145
 C1534 C 0.15006 0.26632 0.76091
 C1535 C 0.07777 0.23156 0.82386
 C1536 C 0.05915 0.23560 0.83963
 C1537 C 0.17465 0.21681 0.76413
 C1538 C 0.19718 0.21653 0.75692
 H1539 H 0.16313 0.16914 0.77699
 H1540 H 0.13962 0.13240 0.80056
 H1541 H 0.09806 0.13879 0.82664
 H1542 H 0.07973 0.18192 0.82921
 H1543 H 0.08521 0.27752 0.80192
 H1544 H 0.10801 0.31385 0.77665
 H1545 H 0.14937 0.30733 0.75027
 H1546 H 0.16817 0.26445 0.74895
 C1547 C 0.64919 0.72369 0.27503
 C1548 C 0.63676 0.74801 0.27387
 C1549 C 0.61287 0.75098 0.28928
 C1550 C 0.60145 0.72961 0.30575
 C1551 C 0.61318 0.70495 0.30545
 C1552 C 0.63715 0.70202 0.29015
 C1553 C 0.64878 0.67736 0.29079
 C1554 C 0.63693 0.65605 0.30573
 C1555 C 0.61346 0.65885 0.32056
 C1556 C 0.60168 0.68300 0.32059
 C1557 C 0.60111 0.77560 0.28821
 C1558 C 0.61258 0.79668 0.27236
 C1559 C 0.63591 0.79379 0.25732
 C1560 C 0.64796 0.76979 0.25800
 C1561 C 0.57848 0.73341 0.32426
 C1562 C 0.55983 0.73695 0.34018
 C1563 C 0.67548 0.72191 0.26366
 C1564 C 0.69795 0.72228 0.25619
 H1565 H 0.66707 0.67433 0.27970
 H1566 H 0.64603 0.63728 0.30581
 H1567 H 0.60435 0.64224 0.33217
 H1568 H 0.58344 0.68425 0.33245
 H1569 H 0.58292 0.77881 0.29950
 H1570 H 0.60330 0.81537 0.27176
 H1571 H 0.64474 0.81022 0.24503
 H1572 H 0.66604 0.76849 0.24583
 C1573 C 0.64224 0.26925 0.21100
 C1574 C 0.63521 0.28466 0.18382
 C1575 C 0.60861 0.28567 0.17273
 C1576 C 0.58918 0.27123 0.18889
 C1577 C 0.59601 0.25717 0.21723
 C1578 C 0.62262 0.25622 0.22836
 C1579 C 0.62902 0.24174 0.25653
 C1580 C 0.60969 0.22861 0.27324
 C1581 C 0.58370 0.22950 0.26230
 C1582 C 0.57683 0.24357 0.23459
 C1583 C 0.60213 0.30083 0.14512
 C1584 C 0.62137 0.31454 0.12891
 C1585 C 0.64735 0.31351 0.13974
 C1586 C 0.65433 0.29882 0.16690
 C1587 C 0.56283 0.26910 0.17458
 C1588 C 0.54186 0.26708 0.16039
 C1589 C 0.66963 0.26490 0.21934
 C1590 C 0.69225 0.26009 0.22535
 H1591 H 0.64897 0.24056 0.26600
 H1592 H 0.61491 0.21768 0.29480
 H1593 H 0.56877 0.21925 0.27536
 H1594 H 0.55636 0.24381 0.22703
 H1595 H 0.58217 0.30232 0.13583
 H1596 H 0.61607 0.32600 0.10781
 H1597 H 0.66219 0.32411 0.12697
 H1598 H 0.67479 0.29873 0.17452
 C1599 C 0.14013 0.75798 0.71307
 C1600 C 0.12919 0.78296 0.71063
 C1601 C 0.10288 0.78570 0.69892
 C1602 C 0.08762 0.76340 0.69005
 C1603 C 0.09824 0.73831 0.69399
 C1604 C 0.12455 0.73561 0.70549
 C1605 C 0.13482 0.71033 0.70875
 C1606 C 0.11954 0.68839 0.70085
 C1607 C 0.09382 0.69103 0.68958
 C1608 C 0.08318 0.71563 0.68615
 C1609 C 0.09255 0.81091 0.69603
 C1610 C 0.10768 0.83278 0.70482
 C1611 C 0.13329 0.83006 0.71660
 C1612 C 0.14408 0.80548 0.71937
 C1613 C 0.06188 0.76598 0.67436
 C1614 C 0.04120 0.76655 0.65940
 C1615 C 0.16767 0.75512 0.72176
 C1616 C 0.19047 0.75144 0.72802
 H1617 H 0.15470 0.70723 0.71749
 H1618 H 0.12771 0.66923 0.70351
 H1619 H 0.08202 0.67392 0.68347
 H1620 H 0.06304 0.71663 0.67741
 H1621 H 0.07268 0.81392 0.68716
 H1622 H 0.09947 0.85194 0.70254
 H1623 H 0.14492 0.84709 0.72350
 H1624 H 0.16412 0.80431 0.72853
 C1625 C 0.84394 0.74987 0.68896
 C1626 C 0.86515 0.75735 0.70994
 C1627 C 0.89102 0.75853 0.69887
 C1628 C 0.89564 0.75213 0.66686
 C1629 C 0.87454 0.74366 0.64626
 C1630 C 0.84865 0.74262 0.65728
 C1631 C 0.82790 0.73444 0.63604
 C1632 C 0.83258 0.72725 0.60494
 C1633 C 0.85785 0.72816 0.59422
 C1634 C 0.87866 0.73631 0.61452
 C1635 C 0.91179 0.76632 0.72029
 C1636 C 0.90720 0.77269 0.75172
 C1637 C 0.88195 0.77150 0.76251
 C1638 C 0.86109 0.76395 0.74196
 C1639 C 0.92195 0.75482 0.65501
 C1640 C 0.94381 0.75736 0.64544
 C1641 C 0.81722 0.75099 0.69930
 C1642 C 0.79490 0.75278 0.70697
 H1643 H 0.80790 0.73336 0.64328
 H1644 H 0.81649 0.72092 0.58906
 H1645 H 0.86137 0.72255 0.57003
 H1646 H 0.89797 0.73670 0.60509
 H1647 H 0.93178 0.76749 0.71303
 H1648 H 0.92333 0.77857 0.76778
 H1649 H 0.87850 0.77644 0.78696
 H1650 H 0.84180 0.76324 0.75148
 C1651 C 0.34425 0.25109 0.19019
 C1652 C 0.36544 0.25860 0.21119
 C1653 C 0.39138 0.25932 0.20032
 C1654 C 0.39609 0.25242 0.16850
 C1655 C 0.37499 0.24396 0.14789
 C1656 C 0.34903 0.24338 0.15871
 C1657 C 0.32829 0.23519 0.13747
 C1658 C 0.33303 0.22758 0.10654
 C1659 C 0.35836 0.22803 0.09602
 C1660 C 0.37917 0.23616 0.11633
 C1661 C 0.41214 0.26715 0.22174
 C1662 C 0.40746 0.27399 0.25299
 C1663 C 0.38214 0.27325 0.26359
 C1664 C 0.36130 0.26567 0.24303
 C1665 C 0.42248 0.25459 0.15682
 C1666 C 0.44438 0.25670 0.14727
 C1667 C 0.31749 0.25260 0.20029
 C1668 C 0.29513 0.25462 0.20771
 H1669 H 0.30825 0.23443 0.14456
 H1670 H 0.31694 0.22126 0.09066
 H1671 H 0.36193 0.22208 0.07197
 H1672 H 0.39853 0.23619 0.10706
 H1673 H 0.43218 0.26798 0.21464
 H1674 H 0.42358 0.27989 0.26907
 H1675 H 0.37863 0.27856 0.28789
 H1676 H 0.34196 0.26533 0.25239
 C1677 C 0.36933 0.78372 0.29504
 C1678 C 0.37620 0.79098 0.32685
 C1679 C 0.40175 0.78626 0.34011
 C1680 C 0.42034 0.77434 0.32146
 C1681 C 0.41390 0.76847 0.28907
 C1682 C 0.38835 0.77318 0.27585
 C1683 C 0.38229 0.76673 0.24360
 C1684 C 0.40092 0.75599 0.22489
 C1685 C 0.42588 0.75141 0.23778
 C1686 C 0.43240 0.75752 0.26949
 C1687 C 0.40796 0.79330 0.37212
 C1688 C 0.38948 0.80465 0.39054
 C1689 C 0.36453 0.80923 0.37760
 C1690 C 0.35785 0.80251 0.34613
 C1691 C 0.44564 0.76714 0.33580
 C1692 C 0.46661 0.76067 0.34726
 C1693 C 0.34210 0.78391 0.28350
 C1694 C 0.31932 0.78174 0.27506
 H1695 H 0.36316 0.77008 0.23248
 H1696 H 0.39597 0.75121 0.20025
 H1697 H 0.44029 0.74306 0.22314
 H1698 H 0.45208 0.75363 0.27841
 H1699 H 0.42713 0.79014 0.38322
 H1700 H 0.39453 0.80988 0.41501
 H1701 H 0.35025 0.81803 0.39203
 H1702 H 0.33825 0.80655 0.33703
 C1703 C 0.87047 0.28191 0.79562
 C1704 C 0.87755 0.29001 0.82706
 C1705 C 0.90317 0.28558 0.84029
 C1706 C 0.92158 0.27302 0.82202
 C1707 C 0.91495 0.26630 0.78994
 C1708 C 0.88936 0.27079 0.77672
 C1709 C 0.88310 0.26353 0.74479
 C1710 C 0.90159 0.25219 0.72639
 C1711 C 0.92659 0.24781 0.73929
 C1712 C 0.93330 0.25473 0.77069
 C1713 C 0.90962 0.29353 0.87191
 C1714 C 0.89129 0.30548 0.88999
 C1715 C 0.86626 0.30972 0.87710
 C1716 C 0.85936 0.30213 0.84600
 C1717 C 0.94688 0.26599 0.83652
 C1718 C 0.96781 0.25961 0.84818
 C1719 C 0.84321 0.28193 0.78423
 C1720 C 0.82042 0.27965 0.77588
 H1721 H 0.86394 0.26669 0.73367
 H1722 H 0.89649 0.24678 0.70199
 H1723 H 0.94088 0.23900 0.72489
 H1724 H 0.95301 0.25099 0.77962
 H1725 H 0.92886 0.29065 0.88294
 H1726 H 0.89654 0.31142 0.91415
 H1727 H 0.85209 0.31895 0.89130
 H1728 H 0.83970 0.30597 0.83692
 C1729 C 0.57281 0.94860 0.63620
 C1730 C 0.60015 0.94959 0.63313
 C1731 C 0.61682 0.95737 0.65946
 C1732 C 0.60589 0.96408 0.68854
 C1733 C 0.57891 0.95968 0.69277
 C1734 C 0.56230 0.95187 0.66643
 C1735 C 0.53522 0.94850 0.67069
 C1736 C 0.52486 0.95249 0.70035
 C1737 C 0.54113 0.96005 0.72620
 C1738 C 0.56788 0.96372 0.72257
 C1739 C 0.64407 0.95906 0.65565
 C1740 C 0.65455 0.95309 0.62658
 C1741 C 0.63822 0.94538 0.60084
 C1742 C 0.61125 0.94382 0.60386
 C1743 C 0.62160 0.97808 0.71262
 C1744 C 0.63414 0.99050 0.73234
 C1745 C 0.55571 0.95077 0.60787
 C1746 C 0.54178 0.95653 0.58510
 H1747 H 0.52193 0.94246 0.65122
 H1748 H 0.50410 0.94969 0.70329
 H1749 H 0.53298 0.96307 0.74917
 H1750 H 0.57983 0.96954 0.74334
 H1751 H 0.65748 0.96478 0.67514
 H1752 H 0.67544 0.95452 0.62399
 H1753 H 0.64648 0.94069 0.57838
 H1754 H 0.59918 0.93777 0.58329
 C1755 C 0.07537 0.45032 1.13098
 C1756 C 0.10261 0.45290 1.12754
 C1757 C 0.11911 0.46078 1.15397
 C1758 C 0.10814 0.46583 1.18357
 C1759 C 0.08145 0.45990 1.18798
 C1760 C 0.06497 0.45213 1.16151
 C1761 C 0.03810 0.44735 1.16598
 C1762 C 0.02781 0.44998 1.19596
 C1763 C 0.04396 0.45750 1.22195
 C1764 C 0.07050 0.46248 1.21813
 C1765 C 0.14619 0.46428 1.14975
 C1766 C 0.15667 0.45989 1.12022
 C1767 C 0.14051 0.45198 1.09442
 C1768 C 0.11370 0.44873 1.09782
 C1769 C 0.12336 0.47978 1.20809
 C1770 C 0.13542 0.49222 1.22817
 C1771 C 0.05796 0.45255 1.10295
 C1772 C 0.04384 0.45837 1.08040
 H1773 H 0.02493 0.44129 1.14641
 H1774 H 0.00721 0.44618 1.19904
 H1775 H 0.03588 0.45950 1.24517
 H1776 H 0.08236 0.46820 1.23900
 H1777 H 0.15947 0.47025 1.16924
 H1778 H 0.17742 0.46267 1.11733
 H1779 H 0.14880 0.44844 1.07163
 H1780 H 0.10176 0.44261 1.07716
 C1781 C -0.07430 0.02778 1.10803
 C1782 C -0.10101 0.03312 1.10213
 C1783 C -0.11880 0.02904 1.12684
 C1784 C -0.10969 0.01940 1.15712
 C1785 C -0.08275 0.01527 1.16342
 C1786 C -0.06497 0.01961 1.13880
 C1787 C -0.03813 0.01500 1.14542
 C1788 C -0.02917 0.00619 1.17548
 C1789 C -0.04661 0.00180 1.19954
 C1790 C -0.07311 0.00633 1.19376
 C1791 C -0.14551 0.03430 1.12038
 C1792 C -0.15437 0.04322 1.09028
 C1793 C -0.13696 0.04700 1.06602
 C1794 C -0.11054 0.04202 1.07174
 C1795 C -0.12801 0.01316 1.18156
 C1796 C -0.14320 0.00823 1.20197
 C1797 C -0.05716 0.02663 1.08169
 C1798 C -0.04282 0.02260 1.06055
 H1799 H -0.02380 0.01821 1.12749
 H1800 H -0.00860 0.00270 1.18010
 H1801 H -0.03957 -0.00522 1.22278
 H1802 H -0.08590 0.00268 1.21328
 H1803 H -0.15978 0.03161 1.13848
 H1804 H -0.17486 0.04719 1.08574
 H1805 H -0.14394 0.05388 1.04268
 H1806 H -0.09766 0.04536 1.05224
 C1807 C 0.42476 0.52601 0.60416
 C1808 C 0.39790 0.53080 0.59857
 C1809 C 0.38035 0.52615 0.62344
 C1810 C 0.38986 0.51654 0.65356
 C1811 C 0.41694 0.51303 0.65958
 C1812 C 0.43447 0.51792 0.63481
 C1813 C 0.46146 0.51391 0.64116
 C1814 C 0.47080 0.50517 0.67109
 C1815 C 0.45362 0.50028 0.69530
 C1816 C 0.42698 0.50420 0.68979
 C1817 C 0.35350 0.53086 0.61729
 C1818 C 0.34427 0.53982 0.58735
 C1819 C 0.36145 0.54416 0.56295
 C1820 C 0.38800 0.53970 0.56836
 C1821 C 0.37188 0.50976 0.67821
 C1822 C 0.35713 0.50442 0.69899
 C1823 C 0.44177 0.52518 0.57765
 C1824 C 0.45631 0.52119 0.55670
 H1825 H 0.47562 0.51757 0.62312
 H1826 H 0.49149 0.50215 0.67549
 H1827 H 0.46095 0.49336 0.71845
 H1828 H 0.41440 0.50017 0.70942
 H1829 H 0.33940 0.52772 0.63551
 H1830 H 0.32367 0.54337 0.58305
 H1831 H 0.35418 0.55107 0.53975
 H1832 H 0.40071 0.54346 0.54877
 C1833 C 0.44805 0.47200 -0.11161
 C1834 C 0.45215 0.48227 -0.14255
 C1835 C 0.43135 0.48192 -0.16608
 C1836 C 0.40663 0.47132 -0.15841
 C1837 C 0.40312 0.45932 -0.12818
 C1838 C 0.42401 0.45956 -0.10471
 C1839 C 0.42007 0.44790 -0.07443
 C1840 C 0.39606 0.43634 -0.06751
 C1841 C 0.37554 0.43622 -0.09042
 C1842 C 0.37892 0.44758 -0.12046
 C1843 C 0.43565 0.49295 -0.19665
 C1844 C 0.45983 0.50409 -0.20365
 C1845 C 0.48020 0.50442 -0.18059
 C1846 C 0.47652 0.49365 -0.15035
 C1847 C 0.38446 0.47513 -0.18049
 C1848 C 0.36631 0.47981 -0.19872
 C1849 C 0.46706 0.47775 -0.08601
 C1850 C 0.48214 0.48485 -0.06496
 H1851 H 0.43548 0.44761 -0.05588
 H1852 H 0.39331 0.42762 -0.04416
 H1853 H 0.35688 0.42736 -0.08485
 H1854 H 0.36244 0.44701 -0.13756
 H1855 H 0.42044 0.49307 -0.21543
 H1856 H 0.46276 0.51257 -0.22707
 H1857 H 0.49895 0.51308 -0.18614
 H1858 H 0.49298 0.49423 -0.13322
 C1859 C -0.05521 0.97566 0.38990
 C1860 C -0.05157 0.98611 0.35894
 C1861 C -0.07268 0.98586 0.33584
 C1862 C -0.09725 0.97514 0.34393
 C1863 C -0.10037 0.96311 0.37421
 C1864 C -0.07918 0.96330 0.39729
 C1865 C -0.08276 0.95167 0.42767
 C1866 C -0.10668 0.94014 0.43505
 C1867 C -0.12746 0.94000 0.41250
 C1868 C -0.12446 0.95136 0.38238
 C1869 C -0.06882 0.99710 0.30526
 C1870 C -0.04479 1.00835 0.29786
 C1871 C -0.02410 1.00853 0.32048
 C1872 C -0.02733 0.99755 0.35070
 C1873 C -0.11963 0.97870 0.32208
 C1874 C -0.13779 0.98318 0.30379
 C1875 C -0.03570 0.98108 0.41506
 C1876 C -0.02014 0.98794 0.43573
 H1877 H -0.06714 0.95140 0.44596
 H1878 H -0.10915 0.93146 0.45848
 H1879 H -0.14603 0.93114 0.41841
 H1880 H -0.14114 0.95080 0.36559
 H1881 H -0.08428 0.99732 0.28679
 H1882 H -0.04224 1.01705 0.27448
 H1883 H -0.00546 1.01726 0.31460
 H1884 H -0.01064 0.99806 0.36748
 C1885 C 0.04394 0.54258 0.40133
 C1886 C 0.06839 0.55475 0.40910
 C1887 C 0.08969 0.55134 0.38917
 C1888 C 0.08623 0.53593 0.36151
 C1889 C 0.06132 0.52513 0.35271
 C1890 C 0.04009 0.52850 0.37270
 C1891 C 0.01546 0.51708 0.36387
 C1892 C 0.01191 0.50277 0.33598
 C1893 C 0.03268 0.49950 0.31636
 C1894 C 0.05717 0.51048 0.32452
 C1895 C 0.11423 0.56298 0.39796
 C1896 C 0.11759 0.57755 0.42569
 C1897 C 0.09671 0.58092 0.44514
 C1898 C 0.07233 0.56970 0.43703
 C1899 C 0.10830 0.53072 0.34244
 C1900 C 0.12653 0.52659 0.32631
 C1901 C 0.02445 0.54037 0.42516
 C1902 C 0.00943 0.53544 0.44573
 H1903 H -0.00132 0.51927 0.37829
 H1904 H -0.00707 0.49419 0.32957
 H1905 H 0.02983 0.48838 0.29472
 H1906 H 0.07273 0.50738 0.30850
 H1907 H 0.13105 0.56083 0.38363
 H1908 H 0.13654 0.58617 0.43219
 H1909 H 0.09947 0.59211 0.46675
 H1910 H 0.05662 0.57279 0.45287
 C1911 C 0.54609 0.03908 -0.09250
 C1912 C 0.57044 0.05159 -0.08509
 C1913 C 0.59164 0.04829 -0.10519
 C1914 C 0.58819 0.03264 -0.13265
 C1915 C 0.56339 0.02140 -0.14102
 C1916 C 0.54225 0.02468 -0.12088
 C1917 C 0.51772 0.01285 -0.12930
 C1918 C 0.51419 -0.00180 -0.15691
 C1919 C 0.53489 -0.00501 -0.17666
 C1920 C 0.55926 0.00641 -0.16894
 C1921 C 0.61608 0.06032 -0.09681
 C1922 C 0.61943 0.07518 -0.06932
 C1923 C 0.59864 0.07844 -0.04970
 C1924 C 0.57436 0.06682 -0.05739
 C1925 C 0.61012 0.02775 -0.15210
 C1926 C 0.62810 0.02384 -0.16870
 C1927 C 0.52665 0.03698 -0.06861
 C1928 C 0.51151 0.03207 -0.04818
 H1929 H 0.50099 0.01496 -0.11478
 H1930 H 0.49530 -0.01071 -0.16300
 H1931 H 0.53207 -0.01642 -0.19805
 H1932 H 0.57475 0.00334 -0.18506
 H1933 H 0.63283 0.05826 -0.11129
 H1934 H 0.63830 0.08411 -0.06313
 H1935 H 0.60139 0.08986 -0.02827
 H1936 H 0.55873 0.06983 -0.04142
 C1937 C 0.62418 0.53774 -0.02926
 C1938 C 0.63087 0.56400 -0.03631
 C1939 C 0.65756 0.57196 -0.03696
 C1940 C 0.67735 0.55360 -0.03056
 C1941 C 0.67063 0.52734 -0.02358
 C1942 C 0.64392 0.51937 -0.02295
 C1943 C 0.63761 0.49307 -0.01556
 C1944 C 0.65716 0.47517 -0.00895
 C1945 C 0.68330 0.48297 -0.00961
 C1946 C 0.69007 0.50874 -0.01685
 C1947 C 0.66381 0.59839 -0.04386
 C1948 C 0.64424 0.61636 -0.05000
 C1949 C 0.61813 0.60854 -0.04942
 C1950 C 0.61139 0.58269 -0.04261
 C1951 C 0.70452 0.56205 -0.03072
 C1952 C 0.72659 0.57056 -0.03102
 C1953 C 0.59701 0.52998 -0.02707
 C1954 C 0.57441 0.52401 -0.02423
 H1955 H 0.61755 0.48610 -0.01474
 H1956 H 0.65200 0.45514 -0.00330
 H1957 H 0.69841 0.46899 -0.00447
 H1958 H 0.71066 0.51392 -0.01703
 H1959 H 0.68383 0.60546 -0.04460
 H1960 H 0.64939 0.63647 -0.05527
 H1961 H 0.60301 0.62256 -0.05433
 H1962 H 0.59080 0.57757 -0.04240
 C1963 C 0.12295 1.03911 0.46865
 C1964 C 0.12994 1.06496 0.45998
 C1965 C 0.15670 1.07252 0.45888
 C1966 C 0.17626 1.05415 0.46650
 C1967 C 0.16925 1.02831 0.47516
 C1968 C 0.14246 1.02075 0.47623
 C1969 C 0.13583 0.99488 0.48537
 C1970 C 0.15516 0.97701 0.49326
 C1971 C 0.18138 0.98441 0.49216
 C1972 C 0.18846 1.00974 0.48321
 C1973 C 0.16326 1.09857 0.45036
 C1974 C 0.14391 1.11656 0.44313
 C1975 C 0.11771 1.10914 0.44417
 C1976 C 0.11068 1.08367 0.45253
 C1977 C 0.20351 1.06226 0.46610
 C1978 C 0.22567 1.07048 0.46573
 C1979 C 0.09571 1.03181 0.47122
 C1980 C 0.07310 1.02618 0.47441
 H1981 H 0.11570 0.98823 0.48660
 H1982 H 0.14977 0.95732 0.50026
 H1983 H 0.19632 0.97046 0.49830
 H1984 H 0.20910 1.01462 0.48274
 H1985 H 0.18336 1.10532 0.44921
 H1986 H 0.14928 1.13638 0.43666
 H1987 H 0.10276 1.12317 0.43844
 H1988 H 0.09003 1.07884 0.45304
 C1989 C 0.10042 -0.01914 1.03622
 C1990 C 0.11109 -0.03465 1.06150
 C1991 C 0.13642 -0.04476 1.05924
 C1992 C 0.15071 -0.03920 1.03180
 C1993 C 0.14105 -0.02163 1.00806
 C1994 C 0.11567 -0.01170 1.01014
 C1995 C 0.10572 0.00471 0.98520
 C1996 C 0.12052 0.01107 0.95898
 C1997 C 0.14549 0.00146 0.95706
 C1998 C 0.15577 -0.01467 0.98129
 C1999 C 0.14655 -0.06093 1.08420
 C2000 C 0.13206 -0.06676 1.11087
 C2001 C 0.10726 -0.05678 1.11313
 C2002 C 0.09670 -0.04100 1.08868
 C2003 C 0.17250 -0.05505 1.02482
 C2004 C 0.18891 -0.06930 1.01629
 C2005 C 0.07299 -0.01349 1.03473
 C2006 C 0.05014 -0.00937 1.03072
 H2007 H 0.08643 0.01273 0.98568
 H2008 H 0.11257 0.02352 0.94005
 H2009 H 0.15692 0.00645 0.93665
 H2010 H 0.17529 -0.02168 0.97883
 H2011 H 0.16583 -0.06896 1.08344
 H2012 H 0.14013 -0.07904 1.12989
 H2013 H 0.09618 -0.06125 1.13397
 H2014 H 0.07733 -0.03366 1.09138
 C2015 C 0.59795 0.47258 0.54737
 C2016 C 0.60257 0.44773 0.56110
 C2017 C 0.62784 0.43720 0.56049
 C2018 C 0.64811 0.45158 0.54604
 C2019 C 0.64409 0.47740 0.53519
 C2020 C 0.61883 0.48795 0.53578
 C2021 C 0.61486 0.51342 0.52354
 C2022 C 0.63540 0.52807 0.51115
 C2023 C 0.66017 0.51771 0.51057
 C2024 C 0.66457 0.49264 0.52239
 C2025 C 0.63197 0.41196 0.57334
 C2026 C 0.61163 0.39754 0.58653
 C2027 C 0.58684 0.40784 0.58709
 C2028 C 0.58222 0.43264 0.57447
 C2029 C 0.67078 0.43819 0.53627
 C2030 C 0.68802 0.42633 0.52520
 C2031 C 0.57145 0.48068 0.54104
 C2032 C 0.54942 0.48647 0.53376
 H2033 H 0.59593 0.52226 0.52358
 H2034 H 0.63207 0.54755 0.50193
 H2035 H 0.67606 0.52916 0.50091
 H2036 H 0.68415 0.48535 0.52160
 H2037 H 0.65099 0.40326 0.57351
 H2038 H 0.61511 0.37828 0.59636
 H2039 H 0.57115 0.39655 0.59738
 H2040 H 0.56265 0.43993 0.57547
 C2041 C -0.12791 0.47585 0.48450
 C2042 C -0.13276 0.45042 0.49659
 C2043 C -0.15880 0.44065 0.49781
 C2044 C -0.17974 0.45638 0.48682
 C2045 C -0.17489 0.48183 0.47486
 C2046 C -0.14882 0.49162 0.47371
 C2047 C -0.14432 0.51716 0.46178
 C2048 C -0.16506 0.53257 0.45121
 C2049 C -0.19061 0.52296 0.45231
 C2050 C -0.19559 0.49787 0.46399
 C2051 C -0.16326 0.41521 0.51024
 C2052 C -0.14253 0.39992 0.52113
 C2053 C -0.11701 0.40953 0.51997
 C2054 C -0.11207 0.43448 0.50795
 C2055 C -0.20608 0.44578 0.48696
 C2056 C -0.22725 0.43529 0.48694
 C2057 C -0.10143 0.48604 0.48488
 C2058 C -0.07917 0.49377 0.48700
 H2059 H -0.12477 0.52544 0.46044
 H2060 H -0.16130 0.55206 0.44212
 H2061 H -0.20666 0.53500 0.44409
 H2062 H -0.21577 0.49123 0.46447
 H2063 H -0.18276 0.40688 0.51182
 H2064 H -0.14631 0.38054 0.53057
 H2065 H -0.10095 0.39762 0.52849
 H2066 H -0.09189 0.44114 0.50783
 C2067 C 0.37393 -0.02836 -0.01408
 C2068 C 0.36833 -0.05312 -0.00045
 C2069 C 0.34220 -0.06281 -0.00086
 C2070 C 0.32194 -0.04771 -0.01506
 C2071 C 0.32754 -0.02294 -0.02860
 C2072 C 0.35369 -0.01320 -0.02808
 C2073 C 0.35894 0.01166 -0.04164
 C2074 C 0.33885 0.02646 -0.05538
 C2075 C 0.31322 0.01690 -0.05592
 C2076 C 0.30751 -0.00752 -0.04271
 C2077 C 0.33695 -0.08753 0.01320
 C2078 C 0.35701 -0.10221 0.02719
 C2079 C 0.38263 -0.09271 0.02755
 C2080 C 0.38833 -0.06845 0.01398
 C2081 C 0.29553 -0.05817 -0.01629
 C2082 C 0.27417 -0.06829 -0.01705
 C2083 C 0.40042 -0.01821 -0.01234
 C2084 C 0.42260 -0.01037 -0.00928
 H2085 H 0.37858 0.01988 -0.04179
 H2086 H 0.34319 0.04544 -0.06566
 H2087 H 0.29768 0.02846 -0.06662
 H2088 H 0.28729 -0.01414 -0.04361
 H2089 H 0.31733 -0.09575 0.01365
 H2090 H 0.35263 -0.12105 0.03784
 H2091 H 0.39817 -0.10416 0.03847
 H2092 H 0.40855 -0.06183 0.01511
 C2093 C 0.40560 1.01894 0.53675
 C2094 C 0.39113 1.01162 0.50857
 C2095 C 0.36669 1.02305 0.50085
 C2096 C 0.35699 1.04189 0.52121
 C2097 C 0.37121 1.04880 0.54972
 C2098 C 0.39563 1.03729 0.55750
 C2099 C 0.40989 1.04500 0.58562
 C2100 C 0.40029 1.06365 0.60549
 C2101 C 0.37637 1.07491 0.59789
 C2102 C 0.36188 1.06761 0.57038
 C2103 C 0.35295 1.01608 0.47202
 C2104 C 0.36325 0.99857 0.45122
 C2105 C 0.38722 0.98745 0.45869
 C2106 C 0.40102 0.99371 0.48706
 C2107 C 0.33419 1.05633 0.51069
 C2108 C 0.31633 1.06907 0.50010
 C2109 C 0.43180 1.00953 0.54222
 C2110 C 0.45385 1.00206 0.54345
 H2111 H 0.42861 1.03679 0.59244
 H2112 H 0.41149 1.06945 0.62683
 H2113 H 0.36901 1.08942 0.61337
 H2114 H 0.34336 1.07685 0.56546
 H2115 H 0.33424 1.02424 0.46511
 H2116 H 0.35260 0.99367 0.42914
 H2117 H 0.39519 0.97392 0.44242
 H2118 H 0.41959 0.98453 0.49174
 C2119 C -0.09281 0.52052 1.03650
 C2120 C -0.10838 0.51256 1.00945
 C2121 C -0.13306 0.52383 1.00284
 C2122 C -0.14188 0.54319 1.02315
 C2123 C -0.12658 0.55068 1.05062
 C2124 C -0.10193 0.53929 1.05732
 C2125 C -0.08660 0.54755 1.08438
 C2126 C -0.09539 0.56661 1.10428
 C2127 C -0.11951 0.57777 1.09774
 C2128 C -0.13503 0.56994 1.07126
 C2129 C -0.14794 0.51618 0.97510
 C2130 C -0.13851 0.49817 0.95425
 C2131 C -0.11430 0.48723 0.96063
 C2132 C -0.09937 0.49415 0.98793
 C2133 C -0.16485 0.55763 1.01330
 C2134 C -0.18284 0.57037 1.00307
 C2135 C -0.06644 0.51130 1.04062
 C2136 C -0.04437 0.50395 1.04086
 H2137 H -0.06767 0.53947 1.09033
 H2138 H -0.08338 0.57281 1.12482
 H2139 H -0.12623 0.59260 1.11324
 H2140 H -0.15368 0.57913 1.06713
 H2141 H -0.16689 0.52417 0.96908
 H2142 H -0.15004 0.49274 0.93300
 H2143 H -0.10701 0.47329 0.94433
 H2144 H -0.08066 0.48507 0.99180
 C2145 C -0.00664 0.61988 0.52488
 C2146 C 0.00946 0.62683 0.55191
 C2147 C 0.00898 0.65249 0.56404
 C2148 C -0.00764 0.67119 0.54910
 C2149 C -0.02316 0.66445 0.52151
 C2150 C -0.02266 0.63875 0.50937
 C2151 C -0.03853 0.63246 0.48194
 C2152 C -0.05442 0.65100 0.46688
 C2153 C -0.05490 0.67607 0.47874
 C2154 C -0.03950 0.68283 0.50576
 C2155 C 0.02512 0.65876 0.59133
 C2156 C 0.04111 0.64026 0.60626
 C2157 C 0.04145 0.61519 0.59446
 C2158 C 0.02594 0.60846 0.56756
 C2159 C -0.00866 0.69707 0.56270
 C2160 C -0.00772 0.71776 0.57610
 C2161 C -0.00829 0.59285 0.51494
 C2162 C -0.01050 0.57003 0.50867
 H2163 H -0.03874 0.61323 0.47181
 H2164 H -0.06643 0.64587 0.44589
 H2165 H -0.06729 0.69038 0.46693
 H2166 H -0.04049 0.70256 0.51413
 H2167 H 0.02557 0.67797 0.60150
 H2168 H 0.05325 0.64540 0.62714
 H2169 H 0.05375 0.60084 0.60628
 H2170 H 0.02703 0.58873 0.55921
 C2171 C 0.49387 0.11663 0.02972
 C2172 C 0.50938 0.12352 0.05725
 C2173 C 0.50894 0.14927 0.06911
 C2174 C 0.49298 0.16812 0.05337
 C2175 C 0.47801 0.16141 0.02533
 C2176 C 0.47846 0.13562 0.01347
 C2177 C 0.46317 0.12937 -0.01443
 C2178 C 0.44789 0.14803 -0.03024
 C2179 C 0.44745 0.17320 -0.01866
 C2180 C 0.46230 0.17992 0.00882
 C2181 C 0.52448 0.15549 0.09690
 C2182 C 0.53986 0.13685 0.11257
 C2183 C 0.54020 0.11170 0.10103
 C2184 C 0.52526 0.10502 0.07365
 C2185 C 0.49210 0.19417 0.06652
 C2186 C 0.49307 0.21505 0.07945
 C2187 C 0.49222 0.08957 0.01991
 C2188 C 0.49009 0.06672 0.01377
 H2189 H 0.46296 0.11006 -0.02437
 H2190 H 0.43634 0.14293 -0.05160
 H2191 H 0.43554 0.18760 -0.03103
 H2192 H 0.46135 0.19972 0.01696
 H2193 H 0.52491 0.17476 0.10691
 H2194 H 0.55155 0.14195 0.13383
 H2195 H 0.55204 0.09726 0.11340
 H2196 H 0.52631 0.08522 0.06553
 C2197 C -0.02515 0.10699 0.97664
 C2198 C -0.01069 0.12648 0.99375
 C2199 C -0.00719 0.15173 0.97991
 C2200 C -0.01825 0.15743 0.94907
 C2201 C -0.03449 0.13857 0.93314
 C2202 C -0.03780 0.11326 0.94686
 C2203 C -0.05336 0.09451 0.92992
 C2204 C -0.06574 0.10071 0.90058
 C2205 C -0.06268 0.12549 0.88730
 C2206 C -0.04715 0.14425 0.90322
 C2207 C 0.00788 0.17065 0.99718
 C2208 C 0.01910 0.16486 1.02732
 C2209 C 0.01566 0.14021 1.04084
 C2210 C 0.00100 0.12114 1.02433
 C2211 C -0.01053 0.18132 0.93232
 C2212 C -0.00268 0.20012 0.91754
 C2213 C -0.02440 0.08002 0.98782
 C2214 C -0.02189 0.05751 0.99585
 H2215 H -0.05620 0.07495 0.93922
 H2216 H -0.07774 0.08618 0.88806
 H2217 H -0.07234 0.13019 0.86449
 H2218 H -0.04533 0.16327 0.89198
 H2219 H 0.01098 0.19012 0.98768
 H2220 H 0.03051 0.17959 1.04025
 H2221 H 0.02441 0.13582 1.06425
 H2222 H -0.00121 0.10227 1.03584
 C2223 C 0.47763 0.60521 0.47466
 C2224 C 0.49243 0.62446 0.49178
 C2225 C 0.49556 0.64994 0.47845
 C2226 C 0.48380 0.65610 0.44811
 C2227 C 0.46731 0.63745 0.43221
 C2228 C 0.46438 0.61189 0.44538
 C2229 C 0.44857 0.59336 0.42842
 C2230 C 0.43555 0.59999 0.39963
 C2231 C 0.43820 0.62501 0.38692
 C2232 C 0.45398 0.64357 0.40284
 C2233 C 0.51095 0.66862 0.49571
 C2234 C 0.52285 0.66239 0.52533
 C2235 C 0.51977 0.63752 0.53836
 C2236 C 0.50478 0.61869 0.52186
 C2237 C 0.49103 0.68032 0.43175
 C2238 C 0.49851 0.69943 0.41726
 C2239 C 0.47831 0.57814 0.48548
 C2240 C 0.48055 0.55558 0.49342
 H2241 H 0.44605 0.57362 0.43727
 H2242 H 0.42336 0.58561 0.38709
 H2243 H 0.42804 0.63006 0.36454
 H2244 H 0.45546 0.66279 0.39206
 H2245 H 0.51378 0.68826 0.48660
 H2246 H 0.53451 0.67694 0.53825
 H2247 H 0.52905 0.63279 0.56138
 H2248 H 0.50287 0.59964 0.53299
 C2249 C 0.51932 0.87990 0.49177
 C2250 C 0.49593 0.86907 0.47763
 C2251 C 0.49636 0.84508 0.46119
 C2252 C 0.52016 0.83197 0.45889
 C2253 C 0.54345 0.84254 0.47362
 C2254 C 0.54299 0.86649 0.49019
 C2255 C 0.56650 0.87665 0.50458
 C2256 C 0.58988 0.86368 0.50248
 C2257 C 0.59038 0.84039 0.48616
 C2258 C 0.56748 0.82982 0.47190
 C2259 C 0.47276 0.83490 0.44695
 C2260 C 0.44944 0.84801 0.44884
 C2261 C 0.44902 0.87141 0.46491
 C2262 C 0.47192 0.88190 0.47919
 C2263 C 0.52078 0.80826 0.44026
 C2264 C 0.52116 0.78906 0.42398
 C2265 C 0.51912 0.90563 0.50585
 C2266 C 0.51791 0.92751 0.51568
 H2267 H 0.56706 0.89473 0.51750
 H2268 H 0.60772 0.87181 0.51347
 H2269 H 0.60861 0.83043 0.48454
 H2270 H 0.56883 0.81162 0.45956
 H2271 H 0.47206 0.81674 0.43421
 H2272 H 0.43160 0.83997 0.43776
 H2273 H 0.43084 0.88151 0.46633
 H2274 H 0.47055 0.90013 0.49147
 C2275 C 0.01979 0.38175 0.98749
 C2276 C -0.00304 0.37232 0.97063
 C2277 C -0.00288 0.34808 0.95469
 C2278 C 0.02013 0.33334 0.95555
 C2279 C 0.04284 0.34259 0.97283
 C2280 C 0.04262 0.36677 0.98897
 C2281 C 0.06552 0.37553 1.00605
 C2282 C 0.08813 0.36100 1.00696
 C2283 C 0.08843 0.33751 0.99102
 C2284 C 0.06609 0.32830 0.97417
 C2285 C -0.02590 0.33927 0.93780
 C2286 C -0.04839 0.35396 0.93659
 C2287 C -0.04856 0.37762 0.95213
 C2288 C -0.02622 0.38678 0.96899
 C2289 C 0.02061 0.30925 0.93762
 C2290 C 0.02087 0.28973 0.92191
 C2291 C 0.02000 0.40752 1.00154
 C2292 C 0.01907 0.42943 1.01139
 H2293 H 0.06621 0.39371 1.01877
 H2294 H 0.10554 0.36806 1.01999
 H2295 H 0.10608 0.32635 0.99174
 H2296 H 0.06725 0.30988 0.96224
 H2297 H -0.02677 0.32099 0.92533
 H2298 H -0.06579 0.34696 0.92349
 H2299 H -0.06609 0.38896 0.95111
 H2300 H -0.02738 0.40528 0.98072
 C2301 C 0.49314 0.40223 0.01470
 C2302 C 0.46816 0.39273 0.02304
 C2303 C 0.46516 0.36705 0.03591
 C2304 C 0.48712 0.35096 0.04004
 C2305 C 0.51171 0.35988 0.02948
 C2306 C 0.51473 0.38556 0.01686
 C2307 C 0.53964 0.39415 0.00711
 C2308 C 0.56094 0.37784 0.00968
 C2309 C 0.55802 0.35275 0.02201
 C2310 C 0.53376 0.34377 0.03183
 C2311 C 0.44014 0.35822 0.04476
 C2312 C 0.41858 0.37414 0.04059
 C2313 C 0.42145 0.39909 0.02770
 C2314 C 0.44596 0.40846 0.01917
 C2315 C 0.48557 0.32650 0.05807
 C2316 C 0.48722 0.30713 0.07472
 C2317 C 0.49727 0.42954 0.00620
 C2318 C 0.50191 0.45221 0.00034
 H2319 H 0.54289 0.41348 -0.00276
 H2320 H 0.57983 0.38472 0.00205
 H2321 H 0.57463 0.34014 0.02395
 H2322 H 0.53248 0.32405 0.04110
 H2323 H 0.43700 0.33888 0.05466
 H2324 H 0.39951 0.36703 0.04728
 H2325 H 0.40460 0.41126 0.02430
 H2326 H 0.44729 0.42800 0.00927
 C2327 C -0.00813 0.90532 0.51544
 C2328 C -0.03284 0.89581 0.52476
 C2329 C -0.03551 0.87010 0.53763
 C2330 C -0.01349 0.85400 0.54082
 C2331 C 0.01078 0.86295 0.52932
 C2332 C 0.01347 0.88866 0.51670
 C2333 C 0.03809 0.89730 0.50604
 C2334 C 0.05941 0.88099 0.50768
 C2335 C 0.05678 0.85584 0.51995
 C2336 C 0.03282 0.84683 0.53070
 C2337 C -0.06025 0.86124 0.54742
 C2338 C -0.08187 0.87716 0.54418
 C2339 C -0.07932 0.90217 0.53135
 C2340 C -0.05508 0.91156 0.52189
 C2341 C -0.01464 0.82944 0.55867
 C2342 C -0.01288 0.80990 0.57500
 C2343 C -0.00422 0.93261 0.50679
 C2344 C 0.00037 0.95525 0.50073
 H2345 H 0.04110 0.91667 0.49618
 H2346 H 0.07806 0.88790 0.49937
 H2347 H 0.07340 0.84323 0.52114
 H2348 H 0.03176 0.82708 0.53990
 H2349 H -0.06315 0.84187 0.55734
 H2350 H -0.10074 0.87003 0.55158
 H2351 H -0.09622 0.91436 0.52869
 H2352 H -0.05400 0.93114 0.51205
 C2353 C 0.19893 0.32218 0.11696
 C2354 C 0.20248 0.31070 0.08709
 C2355 C 0.21070 0.32635 0.06103
 C2356 C 0.21524 0.35336 0.06516
 C2357 C 0.20843 0.36524 0.09374
 C2358 C 0.20028 0.34952 0.11979
 C2359 C 0.19462 0.36152 0.14867
 C2360 C 0.19661 0.38846 0.15166
 C2361 C 0.20450 0.40390 0.12611
 C2362 C 0.21043 0.39251 0.09741
 C2363 C 0.21503 0.31438 0.03164
 C2364 C 0.21123 0.28761 0.02814
 C2365 C 0.20328 0.27227 0.05374
 C2366 C 0.19900 0.28358 0.08300
 C2367 C 0.22949 0.36823 0.04167
 C2368 C 0.24208 0.38037 0.02269
 C2369 C 0.20066 0.30605 0.14557
 C2370 C 0.20628 0.29290 0.16875
 H2371 H 0.18839 0.35012 0.16895
 H2372 H 0.19207 0.39739 0.17390
 H2373 H 0.20616 0.42479 0.12858
 H2374 H 0.21642 0.40524 0.07811
 H2375 H 0.22118 0.32558 0.01109
 H2376 H 0.21448 0.27873 0.00548
 H2377 H 0.20040 0.25149 0.05092
 H2378 H 0.19268 0.27099 0.10228
 C2379 C 0.69983 0.82225 0.61837
 C2380 C 0.70237 0.81145 0.58789
 C2381 C 0.71085 0.82747 0.56226
 C2382 C 0.71659 0.85415 0.56742
 C2383 C 0.71096 0.86550 0.59678
 C2384 C 0.70265 0.84941 0.62242
 C2385 C 0.69833 0.86084 0.65210
 C2386 C 0.70164 0.88757 0.65622
 C2387 C 0.70960 0.90338 0.63105
 C2388 C 0.71431 0.89256 0.60161
 C2389 C 0.71419 0.81611 0.53223
 C2390 C 0.70919 0.78963 0.52768
 C2391 C 0.70096 0.77393 0.55283
 C2392 C 0.69761 0.78462 0.58270
 C2393 C 0.73068 0.86922 0.54398
 C2394 C 0.74307 0.88169 0.52509
 C2395 C 0.70098 0.80528 0.64628
 C2396 C 0.70622 0.79155 0.66905
 H2397 H 0.69220 0.84914 0.67217
 H2398 H 0.69807 0.89605 0.67906
 H2399 H 0.71229 0.92411 0.63439
 H2400 H 0.72047 0.90558 0.58268
 H2401 H 0.72052 0.82761 0.51200
 H2402 H 0.71173 0.78124 0.50453
 H2403 H 0.69713 0.75337 0.54919
 H2404 H 0.69103 0.77178 0.60159
 C2405 C 0.27425 0.67132 0.64182
 C2406 C 0.27962 0.64461 0.64574
 C2407 C 0.27479 0.62752 0.61972
 C2408 C 0.26466 0.63738 0.59001
 C2409 C 0.26031 0.66429 0.58577
 C2410 C 0.26523 0.68135 0.61174
 C2411 C 0.26044 0.70819 0.60712
 C2412 C 0.25093 0.71783 0.57769
 C2413 C 0.24600 0.70111 0.55229
 C2414 C 0.25067 0.67464 0.55610
 C2415 C 0.27993 0.60077 0.62427
 C2416 C 0.28959 0.59122 0.65373
 C2417 C 0.29431 0.60798 0.67917
 C2418 C 0.28939 0.63441 0.67537
 C2419 C 0.25876 0.61997 0.56371
 C2420 C 0.25433 0.60585 0.54143
 C2421 C 0.27411 0.68787 0.66935
 C2422 C 0.27077 0.70205 0.69119
 H2423 H 0.26408 0.72200 0.62612
 H2424 H 0.24734 0.73839 0.57460
 H2425 H 0.23845 0.70867 0.52954
 H2426 H 0.24656 0.66244 0.53559
 H2427 H 0.27654 0.58700 0.60518
 H2428 H 0.29336 0.57069 0.65684
 H2429 H 0.30169 0.60045 0.70203
 H2430 H 0.29332 0.64675 0.69581
 C2431 C 0.77264 0.17599 0.13862
 C2432 C 0.77863 0.14948 0.14323
 C2433 C 0.77357 0.13174 0.11793
 C2434 C 0.76259 0.14075 0.08824
 C2435 C 0.75745 0.16745 0.08332
 C2436 C 0.76258 0.18516 0.10858
 C2437 C 0.75699 0.21176 0.10331
 C2438 C 0.74646 0.22054 0.07395
 C2439 C 0.74132 0.20317 0.04926
 C2440 C 0.74680 0.17693 0.05370
 C2441 C 0.77933 0.10520 0.12318
 C2442 C 0.78976 0.09646 0.15264
 C2443 C 0.79469 0.11384 0.17740
 C2444 C 0.78923 0.14009 0.17287
 C2445 C 0.75664 0.12267 0.06267
 C2446 C 0.75222 0.10782 0.04112
 C2447 C 0.77306 0.19315 0.16562
 C2448 C 0.77028 0.20763 0.18733
 H2449 H 0.76073 0.22604 0.12174
 H2450 H 0.74224 0.24092 0.07036
 H2451 H 0.73298 0.21006 0.02657
 H2452 H 0.74249 0.16420 0.03373
 H2453 H 0.77580 0.09096 0.10465
 H2454 H 0.79398 0.07608 0.15631
 H2455 H 0.80266 0.10693 0.20028
 H2456 H 0.79337 0.15293 0.19280
 C2457 C 0.72051 0.19959 0.85988
 C2458 C 0.73049 0.20273 0.89163
 C2459 C 0.72889 0.18166 0.91379
 C2460 C 0.71729 0.15769 0.90393
 C2461 C 0.70521 0.15535 0.87303
 C2462 C 0.70686 0.17643 0.85085
 C2463 C 0.69565 0.17340 0.81958
 C2464 C 0.68317 0.15011 0.81051
 C2465 C 0.68150 0.12947 0.83226
 C2466 C 0.69234 0.13196 0.86323
 C2467 C 0.73982 0.18486 0.94517
 C2468 C 0.75205 0.20826 0.95431
 C2469 C 0.75354 0.22893 0.93261
 C2470 C 0.74292 0.22630 0.90158
 C2471 C 0.72101 0.13480 0.92399
 C2472 C 0.72599 0.11602 0.94039
 C2473 C 0.72791 0.21829 0.83560
 C2474 C 0.73598 0.23263 0.81520
 H2475 H 0.69652 0.18894 0.80188
 H2476 H 0.67486 0.14802 0.78643
 H2477 H 0.67189 0.11138 0.82505
 H2478 H 0.69062 0.11542 0.87937
 H2479 H 0.73899 0.16938 0.96294
 H2480 H 0.76046 0.21035 0.97833
 H2481 H 0.76301 0.24708 0.93984
 H2482 H 0.74447 0.24291 0.88551
 C2483 C 0.22039 0.70130 0.35944
 C2484 C 0.23034 0.70486 0.39114
 C2485 C 0.22934 0.68389 0.41349
 C2486 C 0.21836 0.65958 0.40389
 C2487 C 0.20617 0.65682 0.37310
 C2488 C 0.20723 0.67781 0.35071
 C2489 C 0.19595 0.67437 0.31956
 C2490 C 0.18388 0.65079 0.31081
 C2491 C 0.18276 0.63026 0.33277
 C2492 C 0.19374 0.63314 0.36362
 C2493 C 0.24023 0.68754 0.44482
 C2494 C 0.25180 0.71130 0.45372
 C2495 C 0.25272 0.73187 0.43182
 C2496 C 0.24216 0.72879 0.40082
 C2497 C 0.22288 0.63685 0.42399
 C2498 C 0.22843 0.61812 0.44022
 C2499 C 0.22738 0.71997 0.33494
 C2500 C 0.23519 0.73434 0.31441
 H2501 H 0.19639 0.68982 0.30171
 H2502 H 0.17548 0.64841 0.28682
 H2503 H 0.17347 0.61195 0.32581
 H2504 H 0.19245 0.61666 0.37993
 H2505 H 0.23981 0.67213 0.46272
 H2506 H 0.26015 0.71376 0.47770
 H2507 H 0.26168 0.75030 0.43886
 H2508 H 0.24324 0.74534 0.38460
 C2509 C 0.79206 0.79803 0.34739
 C2510 C 0.77887 0.79344 0.37594
 C2511 C 0.77518 0.81428 0.39688
 C2512 C 0.78480 0.83950 0.38908
 C2513 C 0.79959 0.84369 0.36165
 C2514 C 0.80332 0.82278 0.34076
 C2515 C 0.81776 0.82733 0.31315
 C2516 C 0.82825 0.85197 0.30636
 C2517 C 0.82454 0.87250 0.32674
 C2518 C 0.81038 0.86852 0.35411
 C2519 C 0.76142 0.80940 0.42501
 C2520 C 0.75166 0.78456 0.43221
 C2521 C 0.75527 0.76414 0.41166
 C2522 C 0.76867 0.76843 0.38378
 C2523 C 0.77927 0.86107 0.40921
 C2524 C 0.77499 0.87875 0.42647
 C2525 C 0.78962 0.77887 0.32256
 C2526 C 0.78422 0.76388 0.30149
 H2527 H 0.82106 0.81192 0.29663
 H2528 H 0.83912 0.85518 0.28504
 H2529 H 0.83257 0.89163 0.32124
 H2530 H 0.80795 0.88507 0.36922
 H2531 H 0.75811 0.82466 0.44174
 H2532 H 0.74125 0.78115 0.45385
 H2533 H 0.74768 0.74488 0.41735
 H2534 H 0.77116 0.75192 0.36860
 C2535 C 0.29143 0.29152 0.84924
 C2536 C 0.27767 0.28779 0.87751
 C2537 C 0.27400 0.30915 0.89769
 C2538 C 0.28426 0.33403 0.88943
 C2539 C 0.29961 0.33734 0.86233
 C2540 C 0.30328 0.31593 0.84221
 C2541 C 0.31822 0.31965 0.81486
 C2542 C 0.32924 0.34396 0.80758
 C2543 C 0.32560 0.36497 0.82722
 C2544 C 0.31098 0.36182 0.85434
 C2545 C 0.25963 0.30512 0.92549
 C2546 C 0.24922 0.28062 0.93309
 C2547 C 0.25280 0.25970 0.91330
 C2548 C 0.26683 0.26314 0.88577
 C2549 C 0.27876 0.35617 0.90865
 C2550 C 0.27460 0.37442 0.92508
 C2551 C 0.28890 0.27198 0.82486
 C2552 C 0.28347 0.25688 0.80392
 H2553 H 0.32151 0.30382 0.79891
 H2554 H 0.34047 0.34654 0.78644
 H2555 H 0.33403 0.38386 0.82133
 H2556 H 0.30862 0.37874 0.86886
 H2557 H 0.25631 0.32080 0.94164
 H2558 H 0.23831 0.27786 0.95444
 H2559 H 0.24469 0.24070 0.91930
 H2560 H 0.26929 0.24627 0.87119
 C2561 C 0.78328 0.37349 0.77361
 C2562 C 0.77177 0.39081 0.75076
 C2563 C 0.77878 0.41771 0.75142
 C2564 C 0.79709 0.42708 0.77506
 C2565 C 0.80823 0.40980 0.79828
 C2566 C 0.80135 0.38289 0.79747
 C2567 C 0.81301 0.36589 0.82060
 C2568 C 0.83092 0.37525 0.84393
 C2569 C 0.83761 0.40159 0.84480
 C2570 C 0.82646 0.41875 0.82231
 C2571 C 0.76746 0.43460 0.72797
 C2572 C 0.74968 0.42516 0.70452
 C2573 C 0.74274 0.39886 0.70393
 C2574 C 0.75357 0.38179 0.72676
 C2575 C 0.80569 0.45415 0.77476
 C2576 C 0.81446 0.47608 0.77535
 C2577 C 0.77729 0.34589 0.77192
 C2578 C 0.77272 0.32291 0.77003
 H2579 H 0.80841 0.34524 0.82094
 H2580 H 0.83964 0.36201 0.86144
 H2581 H 0.85151 0.40877 0.86299
 H2582 H 0.83229 0.43906 0.82404
 H2583 H 0.77226 0.45521 0.72750
 H2584 H 0.74127 0.43833 0.68667
 H2585 H 0.72899 0.39162 0.68561
 H2586 H 0.74768 0.36147 0.72524
 C2587 C 0.28208 0.87538 0.27417
 C2588 C 0.27031 0.89306 0.25199
 C2589 C 0.27740 0.91992 0.25315
 C2590 C 0.29606 0.92888 0.27663
 C2591 C 0.30742 0.91123 0.29925
 C2592 C 0.30047 0.88437 0.29793
 C2593 C 0.31237 0.86699 0.32043
 C2594 C 0.33059 0.87594 0.34364
 C2595 C 0.33735 0.90225 0.34503
 C2596 C 0.32597 0.91978 0.32316
 C2597 C 0.26582 0.93720 0.23035
 C2598 C 0.24767 0.92818 0.20706
 C2599 C 0.24063 0.90191 0.20599
 C2600 C 0.25174 0.88446 0.22816
 C2601 C 0.30481 0.95590 0.27671
 C2602 C 0.31371 0.97777 0.27752
 C2603 C 0.27603 0.84782 0.27190
 C2604 C 0.27147 0.82488 0.26964
 H2605 H 0.30772 0.84634 0.32035
 H2606 H 0.33949 0.86241 0.36066
 H2607 H 0.35149 0.90913 0.36314
 H2608 H 0.33187 0.94004 0.32527
 H2609 H 0.27068 0.95780 0.23027
 H2610 H 0.23905 0.94164 0.18971
 H2611 H 0.22659 0.89500 0.18780
 H2612 H 0.24576 0.86419 0.22628
 C2613 C 0.22466 0.84356 0.71388
 C2614 C 0.23592 0.86205 0.73534
 C2615 C 0.22530 0.88717 0.73647
 C2616 C 0.20334 0.89342 0.71639
 C2617 C 0.19323 0.87553 0.69344
 C2618 C 0.20395 0.85043 0.69218
 C2619 C 0.19301 0.83243 0.66983
 C2620 C 0.17204 0.83913 0.64924
 C2621 C 0.16155 0.86375 0.65045
 C2622 C 0.17194 0.88183 0.67229
 C2623 C 0.23623 0.90516 0.75888
 C2624 C 0.25703 0.89839 0.77969
 C2625 C 0.26739 0.87373 0.77865
 C2626 C 0.25707 0.85569 0.75675
 C2627 C 0.18859 0.91599 0.72345
 C2628 C 0.17569 0.93349 0.73205
 C2629 C 0.23222 0.81680 0.71700
 C2630 C 0.23777 0.79452 0.72177
 H2631 H 0.20054 0.81305 0.66810
 H2632 H 0.16384 0.82512 0.63234
 H2633 H 0.14522 0.86884 0.63447
 H2634 H 0.16323 0.90078 0.67238
 H2635 H 0.22883 0.92459 0.76050
 H2636 H 0.26512 0.91235 0.79673
 H2637 H 0.28353 0.86853 0.79488
 H2638 H 0.26581 0.83675 0.75679
 C2639 C 0.73444 0.35180 0.21850
 C2640 C 0.74025 0.36581 0.24683
 C2641 C 0.73072 0.39125 0.24968
 C2642 C 0.71519 0.40219 0.22438
 C2643 C 0.71164 0.38922 0.19498
 C2644 C 0.72138 0.36384 0.19199
 C2645 C 0.71717 0.35083 0.16267
 C2646 C 0.70388 0.36278 0.13684
 C2647 C 0.69418 0.38761 0.13983
 C2648 C 0.69787 0.40074 0.16861
 C2649 C 0.73601 0.40474 0.27854
 C2650 C 0.75013 0.39323 0.30401
 C2651 C 0.75932 0.36820 0.30131
 C2652 C 0.75458 0.35458 0.27306
 C2653 C 0.69928 0.42407 0.23089
 C2654 C 0.68489 0.44059 0.23885
 C2655 C 0.73913 0.32427 0.21846
 C2656 C 0.74237 0.30132 0.22123
 H2657 H 0.72433 0.33148 0.15937
 H2658 H 0.70106 0.35272 0.11442
 H2659 H 0.68379 0.39675 0.11974
 H2660 H 0.69016 0.42008 0.16990
 H2661 H 0.72925 0.42426 0.28170
 H2662 H 0.75384 0.40374 0.32600
 H2663 H 0.77014 0.35926 0.32120
 H2664 H 0.76220 0.33520 0.27204
 C2665 C 0.72311 0.62635 0.26794
 C2666 C 0.69927 0.61918 0.25169
 C2667 C 0.69004 0.59300 0.25306
 C2668 C 0.70466 0.57427 0.27084
 C2669 C 0.72848 0.58145 0.28707
 C2670 C 0.73777 0.60764 0.28558
 C2671 C 0.76169 0.61449 0.30188
 C2672 C 0.77599 0.59592 0.31924
 C2673 C 0.76687 0.57025 0.32073
 C2674 C 0.74339 0.56298 0.30485
 C2675 C 0.66623 0.58615 0.23641
 C2676 C 0.65197 0.60472 0.21900
 C2677 C 0.66101 0.63040 0.21774
 C2678 C 0.68437 0.63765 0.23383
 C2679 C 0.69474 0.54780 0.27268
 C2680 C 0.68508 0.52631 0.27343
 C2681 C 0.73280 0.65284 0.26551
 C2682 C 0.74036 0.67492 0.26212
 H2683 H 0.76954 0.63422 0.30143
 H2684 H 0.79423 0.60147 0.33161
 H2685 H 0.77805 0.55590 0.33423
 H2686 H 0.73708 0.54279 0.30664
 H2687 H 0.65838 0.56642 0.23659
 H2688 H 0.63383 0.59914 0.20642
 H2689 H 0.64989 0.64478 0.20420
 H2690 H 0.69062 0.65786 0.23198
 C2691 C 0.22249 0.11960 0.76467
 C2692 C 0.19847 0.11300 0.74848
 C2693 C 0.18941 0.08673 0.74814
 C2694 C 0.20433 0.06735 0.76429
 C2695 C 0.22845 0.07392 0.78022
 C2696 C 0.23760 0.10019 0.78038
 C2697 C 0.26180 0.10642 0.79641
 C2698 C 0.27652 0.08716 0.81188
 C2699 C 0.26754 0.06142 0.81176
 C2700 C 0.24377 0.05476 0.79615
 C2701 C 0.16542 0.08048 0.73153
 C2702 C 0.15082 0.09970 0.71580
 C2703 C 0.15966 0.12545 0.71626
 C2704 C 0.18319 0.13214 0.73236
 C2705 C 0.19404 0.04098 0.76554
 C2706 C 0.18371 0.01978 0.76632
 C2707 C 0.23197 0.14625 0.76399
 C2708 C 0.23943 0.16847 0.76184
 H2709 H 0.26955 0.12618 0.79718
 H2710 H 0.29498 0.09224 0.82404
 H2711 H 0.27904 0.04654 0.82381
 H2712 H 0.23759 0.03449 0.79661
 H2713 H 0.15772 0.06072 0.73039
 H2714 H 0.13256 0.09455 0.70319
 H2715 H 0.14827 0.14034 0.70403
 H2716 H 0.18929 0.15244 0.73186
 C2717 C 0.26882 0.15757 0.20855
 C2718 C 0.29253 0.15138 0.19481
 C2719 C 0.30352 0.12660 0.20089
 C2720 C 0.29085 0.10833 0.22098
 C2721 C 0.26641 0.11403 0.23324
 C2722 C 0.25535 0.13874 0.22700
 C2723 C 0.23124 0.14429 0.24028
 C2724 C 0.21843 0.12593 0.25917
 C2725 C 0.22928 0.10175 0.26530
 C2726 C 0.25299 0.09577 0.25255
 C2727 C 0.32760 0.12104 0.18760
 C2728 C 0.34048 0.13949 0.16887
 C2729 C 0.32977 0.16377 0.16302
 C2730 C 0.30606 0.16976 0.17579
 C2731 C 0.30456 0.08556 0.23283
 C2732 C 0.31651 0.06770 0.24467
 C2733 C 0.25976 0.18403 0.20694
 C2734 C 0.25261 0.20607 0.20815
 H2735 H 0.22201 0.16281 0.23614
 H2736 H 0.20000 0.13049 0.26911
 H2737 H 0.21925 0.08755 0.27998
 H2738 H 0.26063 0.07668 0.25788
 H2739 H 0.33665 0.10240 0.19152
 H2740 H 0.35890 0.13493 0.15889
 H2741 H 0.33991 0.17803 0.14854
 H2742 H 0.29844 0.18888 0.17059
 C2743 C 0.76882 0.65588 0.70538
 C2744 C 0.79381 0.65078 0.69428
 C2745 C 0.80478 0.62594 0.69990
 C2746 C 0.79084 0.60655 0.71698
 C2747 C 0.76517 0.61113 0.72619
 C2748 C 0.75411 0.63589 0.72036
 C2749 C 0.72868 0.64030 0.73057
 C2750 C 0.71455 0.62073 0.74604
 C2751 C 0.72538 0.59649 0.75175
 C2752 C 0.75042 0.59164 0.74202
 C2753 C 0.83005 0.62143 0.68928
 C2754 C 0.84410 0.64096 0.67361
 C2755 C 0.83341 0.66531 0.66827
 C2756 C 0.80854 0.67028 0.67845
 C2757 C 0.80424 0.58375 0.72934
 C2758 C 0.81605 0.56598 0.74163
 C2759 C 0.75956 0.68225 0.70486
 C2760 C 0.75235 0.70422 0.70681
 H2761 H 0.71942 0.65883 0.72659
 H2762 H 0.69510 0.62440 0.75363
 H2763 H 0.71433 0.58135 0.76375
 H2764 H 0.75802 0.57246 0.74684
 H2765 H 0.83913 0.60278 0.69291
 H2766 H 0.86342 0.63719 0.66563
 H2767 H 0.84445 0.68042 0.65617
 H2768 H 0.80098 0.68949 0.67375
 C2769 C 0.86601 0.74618 0.22122
 C2770 C 0.87085 0.75899 0.19183
 C2771 C 0.89623 0.75886 0.17949
 C2772 C 0.91672 0.74588 0.19657
 C2773 C 0.91201 0.73358 0.22631
 C2774 C 0.88659 0.73374 0.23868
 C2775 C 0.88234 0.72116 0.26832
 C2776 C 0.90260 0.70878 0.28533
 C2777 C 0.92742 0.70863 0.27325
 C2778 C 0.93218 0.72085 0.24407
 C2779 C 0.90044 0.77168 0.14990
 C2780 C 0.88017 0.78408 0.13295
 C2781 C 0.85536 0.78407 0.14495
 C2782 C 0.85065 0.77180 0.17408
 C2783 C 0.94243 0.74539 0.18318
 C2784 C 0.96300 0.74645 0.17018
 C2785 C 0.83943 0.74421 0.23192
 C2786 C 0.81685 0.74186 0.23863
 H2787 H 0.86337 0.72084 0.27868
 H2788 H 0.89903 0.69925 0.30800
 H2789 H 0.94309 0.69898 0.28657
 H2790 H 0.95179 0.72023 0.23561
 H2791 H 0.91937 0.77222 0.13948
 H2792 H 0.88374 0.79370 0.11034
 H2793 H 0.83964 0.79359 0.13160
 H2794 H 0.83103 0.77248 0.18246
 C2795 C 0.36560 0.24072 0.72412
 C2796 C 0.37026 0.25305 0.69439
 C2797 C 0.39580 0.25358 0.68245
 C2798 C 0.41659 0.24167 0.70023
 C2799 C 0.41203 0.22983 0.73028
 C2800 C 0.38646 0.22937 0.74227
 C2801 C 0.38236 0.21730 0.77226
 C2802 C 0.40293 0.20603 0.78997
 C2803 C 0.42789 0.20650 0.77827
 C2804 C 0.43250 0.21822 0.74876
 C2805 C 0.39986 0.26598 0.65257
 C2806 C 0.37931 0.27734 0.63495
 C2807 C 0.35434 0.27665 0.64654
 C2808 C 0.34977 0.26476 0.67593
 C2809 C 0.44247 0.24183 0.68723
 C2810 C 0.46311 0.24341 0.67444
 C2811 C 0.33898 0.23824 0.73461
 C2812 C 0.31637 0.23561 0.74108
 H2813 H 0.36328 0.21654 0.78235
 H2814 H 0.39947 0.19690 0.81291
 H2815 H 0.44379 0.19772 0.79214
 H2816 H 0.45223 0.21811 0.74060
 H2817 H 0.41889 0.26702 0.64243
 H2818 H 0.38278 0.28668 0.61214
 H2819 H 0.33841 0.28537 0.63269
 H2820 H 0.33001 0.26487 0.68396
 C2821 C 0.35752 0.72237 0.77478
 C2822 C 0.37567 0.73906 0.75952
 C2823 C 0.40132 0.74296 0.77338
 C2824 C 0.40875 0.73019 0.80248
 C2825 C 0.39129 0.71191 0.81632
 C2826 C 0.36561 0.70800 0.80245
 C2827 C 0.34838 0.69003 0.81709
 C2828 C 0.35630 0.67618 0.84458
 C2829 C 0.38136 0.67997 0.85811
 C2830 C 0.39872 0.69765 0.84427
 C2831 C 0.41888 0.76012 0.75796
 C2832 C 0.41138 0.77302 0.72963
 C2833 C 0.38633 0.76923 0.71610
 C2834 C 0.36858 0.75249 0.73080
 C2835 C 0.43302 0.73794 0.81976
 C2836 C 0.45219 0.74586 0.83491
 C2837 C 0.33003 0.72240 0.76416
 C2838 C 0.30714 0.72440 0.75643
 H2839 H 0.32875 0.68636 0.80730
 H2840 H 0.34292 0.66242 0.85543
 H2841 H 0.38741 0.66914 0.87944
 H2842 H 0.41806 0.69987 0.85553
 H2843 H 0.43861 0.76359 0.76751
 H2844 H 0.42509 0.78602 0.71809
 H2845 H 0.38061 0.77929 0.69408
 H2846 H 0.34935 0.75005 0.71930
 C2847 C 0.85774 0.22441 0.27162
 C2848 C 0.87617 0.24019 0.25556
 C2849 C 0.90182 0.24423 0.26937
 C2850 C 0.90898 0.23245 0.29919
 C2851 C 0.89123 0.21494 0.31388
 C2852 C 0.86555 0.21092 0.30006
 C2853 C 0.84803 0.19376 0.31553
 C2854 C 0.85566 0.18080 0.34378
 C2855 C 0.88073 0.18471 0.35728
 C2856 C 0.89837 0.20162 0.34264
 C2857 C 0.91965 0.26055 0.25316
 C2858 C 0.91242 0.27251 0.22411
 C2859 C 0.88737 0.26857 0.21063
 C2860 C 0.86936 0.25265 0.22610
 C2861 C 0.93323 0.24060 0.31623
 C2862 C 0.95237 0.24899 0.33105
 C2863 C 0.83023 0.22478 0.26108
 C2864 C 0.80741 0.22733 0.25338
 H2865 H 0.82838 0.19003 0.30581
 H2866 H 0.84206 0.16764 0.35526
 H2867 H 0.88654 0.17458 0.37921
 H2868 H 0.91769 0.20398 0.35391
 H2869 H 0.93939 0.26409 0.26265
 H2870 H 0.92633 0.28488 0.21199
 H2871 H 0.88186 0.27789 0.18805
 H2872 H 0.85014 0.25006 0.21462
 C2873 C 0.13087 0.27304 0.26096
 C2874 C 0.12433 0.29509 0.27850
 C2875 C 0.10023 0.29543 0.29412
 C2876 C 0.08283 0.27355 0.29255
 C2877 C 0.08908 0.25178 0.27431
 C2878 C 0.11308 0.25155 0.25845
 C2879 C 0.11888 0.22946 0.24061
 C2880 C 0.10153 0.20820 0.23848
 C2881 C 0.07813 0.20841 0.25398
 C2882 C 0.07188 0.22989 0.27172
 C2883 C 0.09423 0.31776 0.31139
 C2884 C 0.11151 0.33911 0.31326
 C2885 C 0.13513 0.33868 0.29827
 C2886 C 0.14160 0.31693 0.28117
 C2887 C 0.05913 0.27306 0.31072
 C2888 C 0.03993 0.27293 0.32655
 C2889 C 0.15655 0.27171 0.24746
 C2890 C 0.17835 0.26995 0.23792
 H2891 H 0.13682 0.22841 0.22809
 H2892 H 0.10627 0.19147 0.22471
 H2893 H 0.06474 0.19183 0.25225
 H2894 H 0.05343 0.22916 0.28331
 H2895 H 0.07614 0.31900 0.32354
 H2896 H 0.10658 0.35605 0.32653
 H2897 H 0.14852 0.35527 0.29991
 H2898 H 0.16025 0.31742 0.27007
 C2899 C 0.63113 0.77043 0.76223
 C2900 C 0.62452 0.79265 0.77941
 C2901 C 0.60070 0.79284 0.79565
 C2902 C 0.58370 0.77065 0.79511
 C2903 C 0.59000 0.74869 0.77725
 C2904 C 0.61370 0.74861 0.76073
 C2905 C 0.61957 0.72633 0.74329
 C2906 C 0.60259 0.70474 0.74217
 C2907 C 0.57950 0.70481 0.75831
 C2908 C 0.57318 0.72647 0.77569
 C2909 C 0.59461 0.81537 0.81250
 C2910 C 0.61154 0.83701 0.81341
 C2911 C 0.63490 0.83670 0.79786
 C2912 C 0.64145 0.81478 0.78112
 C2913 C 0.56039 0.77005 0.81401
 C2914 C 0.54155 0.76979 0.83046
 C2915 C 0.65660 0.76930 0.74812
 C2916 C 0.67827 0.76770 0.73816
 H2917 H 0.63729 0.72537 0.73031
 H2918 H 0.60738 0.68787 0.72869
 H2919 H 0.56638 0.68798 0.75736
 H2920 H 0.55498 0.72562 0.78782
 H2921 H 0.57670 0.81652 0.82505
 H2922 H 0.60654 0.85409 0.82637
 H2923 H 0.64804 0.85351 0.79879
 H2924 H 0.65990 0.81538 0.76957
 C2925 C 0.65405 0.23466 0.73297
 C2926 C 0.63452 0.24913 0.74694
 C2927 C 0.60814 0.24699 0.73494
 C2928 C 0.60143 0.23037 0.70907
 C2929 C 0.62056 0.21429 0.69696
 C2930 C 0.64696 0.21642 0.70895
 C2931 C 0.66581 0.20050 0.69601
 C2932 C 0.65876 0.18294 0.67192
 C2933 C 0.63299 0.18086 0.66021
 C2934 C 0.61403 0.19635 0.67247
 C2935 C 0.58908 0.26210 0.74880
 C2936 C 0.59583 0.27877 0.77391
 C2937 C 0.62159 0.28083 0.78568
 C2938 C 0.64081 0.26626 0.77240
 C2939 C 0.57602 0.23248 0.69229
 C2940 C 0.55593 0.23623 0.67688
 C2941 C 0.68148 0.24030 0.74127
 C2942 C 0.70410 0.24614 0.74736
 H2943 H 0.68608 0.20135 0.70448
 H2944 H 0.67336 0.17090 0.66223
 H2945 H 0.62766 0.16718 0.64151
 H2946 H 0.59419 0.19400 0.66275
 H2947 H 0.56877 0.26102 0.74055
 H2948 H 0.58098 0.29013 0.78431
 H2949 H 0.62672 0.29378 0.80521
 H2950 H 0.66057 0.26843 0.78242
 C2951 C 0.15312 0.73652 0.23157
 C2952 C 0.13348 0.75116 0.24509
 C2953 C 0.10721 0.74906 0.23271
 C2954 C 0.10069 0.73233 0.20689
 C2955 C 0.11991 0.71611 0.19521
 C2956 C 0.14620 0.71820 0.20759
 C2957 C 0.16514 0.70214 0.19506
 C2958 C 0.15828 0.68451 0.17099
 C2959 C 0.13261 0.68248 0.15889
 C2960 C 0.11356 0.69809 0.17074
 C2961 C 0.08806 0.76434 0.24612
 C2962 C 0.09462 0.78115 0.27114
 C2963 C 0.12028 0.78319 0.28326
 C2964 C 0.13958 0.76844 0.27045
 C2965 C 0.07546 0.73448 0.18969
 C2966 C 0.05555 0.73828 0.17393
 C2967 C 0.18049 0.74213 0.24022
 C2968 C 0.20308 0.74797 0.24653
 H2969 H 0.18533 0.70296 0.20383
 H2970 H 0.17294 0.67237 0.16162
 H2971 H 0.12742 0.66874 0.14021
 H2972 H 0.09382 0.69577 0.16073
 H2973 H 0.06782 0.76329 0.23758
 H2974 H 0.07971 0.79265 0.28118
 H2975 H 0.12527 0.79627 0.30271
 H2976 H 0.15926 0.77060 0.28073
   
