data_POSCAR
  _audit_creation_date              2014-09-24
  _audit_creation_method            'ToBaCCo'
  _symmetry_space_group_name_H-M    'P1'
  _symmetry_Int_Tables_number       1
  _symmetry_cell_setting            triclinic
  loop_
  _symmetry_equiv_pos_as_xyz
 x,y,z
_cell_length_a 66.9787
_cell_length_b 66.7880
_cell_length_c 62.0868
_cell_angle_alpha 91.162600
_cell_angle_beta 89.674300
_cell_angle_gamma 89.002800
loop_
  _atom_site_label
  _atom_site_type_symbol
  _atom_site_fract_x
  _atom_site_fract_y
  _atom_site_fract_z
C1 C 0.39589 0.02484 0.28145
 H2 H 0.39603 0.03214 0.26605
 C3 C 0.40846 0.03143 0.29794
 H4 H 0.41824 0.04387 0.29518
 C5 C 0.38253 0.00008 0.30394
 H6 H 0.37217 -0.01188 0.30637
 C7 C 0.39469 0.00629 0.32089
 H8 H 0.39388 -0.00135 0.33608
 N9 N 0.38344 0.00927 0.28463
 C10 C 0.37060 -0.00943 0.21861
 H11 H 0.35447 -0.00814 0.21890
 C12 C 0.38046 -0.01551 0.19968
 H13 H 0.37174 -0.01827 0.18534
 C14 C 0.40134 -0.00707 0.23707
 H15 H 0.40936 -0.00427 0.25185
 C16 C 0.41181 -0.01343 0.21857
 H17 H 0.42787 -0.01531 0.21937
 Zn18 Zn 0.36627 0.00156 0.26192
 N19 N 0.38110 -0.00504 0.23670
 C20 C 0.34927 0.03420 0.23906
 N21 N 0.34855 0.02343 0.25741
 C22 C 0.33633 0.02910 0.27408
 C23 C 0.32424 0.04625 0.27273
 C24 C 0.33742 0.05148 0.23703
 C25 C 0.36413 -0.03815 0.27290
 C26 C 0.35572 -0.05674 0.27632
 C27 C 0.32311 -0.04173 0.27131
 C28 C 0.33226 -0.02329 0.26821
 N29 N 0.35244 -0.02192 0.26889
 H30 H 0.35955 0.02986 0.22627
 H31 H 0.33629 0.02045 0.28863
 H32 H 0.31464 0.05050 0.28621
 H33 H 0.33866 0.06019 0.22258
 H34 H 0.38018 -0.03663 0.27334
 H35 H 0.36598 -0.06865 0.28052
 H36 H 0.30712 -0.04197 0.26929
 H37 H 0.32323 -0.01028 0.26440
 C38 C 0.40139 -0.01769 0.19946
 C39 C 0.40787 0.02216 0.31801
 C40 C 0.33477 -0.05930 0.27500
 C41 C 0.32488 0.05786 0.25413
 C42 C 0.12488 0.00653 0.72248
 H43 H 0.12417 0.01656 0.73637
 C44 C 0.11242 0.00991 0.70487
 H45 H 0.10196 0.02245 0.70537
 C46 C 0.13938 -0.02207 0.70495
 H47 H 0.15019 -0.03424 0.70475
 C48 C 0.12721 -0.01930 0.68710
 H49 H 0.12878 -0.02949 0.67337
 N50 N 0.13777 -0.00945 0.72235
 C51 C 0.14865 -0.02075 0.79021
 H52 H 0.16481 -0.02082 0.79028
 C53 C 0.13811 -0.02299 0.80941
 H54 H 0.14623 -0.02480 0.82430
 C55 C 0.11845 -0.01813 0.77068
 H56 H 0.11085 -0.01630 0.75554
 C57 C 0.10729 -0.02050 0.78952
 H58 H 0.09114 -0.02000 0.78877
 Zn59 Zn 0.15432 -0.01331 0.74658
 N60 N 0.13874 -0.01777 0.77147
 C61 C 0.16771 0.02183 0.76823
 N62 N 0.16952 0.01007 0.75016
 C63 C 0.18134 0.01537 0.73343
 C64 C 0.19213 0.03303 0.73455
 C65 C 0.17812 0.03970 0.76997
 C66 C 0.16192 -0.05395 0.74000
 C67 C 0.17307 -0.07143 0.73593
 C68 C 0.20314 -0.05197 0.73717
 C69 C 0.19137 -0.03479 0.74115
 N70 N 0.17112 -0.03605 0.74208
 H71 H 0.15777 0.01770 0.78108
 H72 H 0.18224 0.00590 0.71909
 H73 H 0.20155 0.03689 0.72109
 H74 H 0.17598 0.04915 0.78420
 H75 H 0.14582 -0.05455 0.74124
 H76 H 0.16543 -0.08554 0.73434
 H77 H 0.21921 -0.05070 0.73612
 H78 H 0.19846 -0.02052 0.74342
 C79 C 0.11714 -0.02250 0.80926
 C80 C 0.11336 -0.00328 0.68699
 C81 C 0.19395 -0.07055 0.73425
 C82 C 0.19041 0.04560 0.75291
 C83 C 0.60158 0.52655 0.23079
 H84 H 0.60527 0.53593 0.24456
 C85 C 0.58666 0.53268 0.21658
 H86 H 0.57878 0.54678 0.21945
 C87 C 0.60752 0.49682 0.21004
 H88 H 0.61591 0.48308 0.20723
 C89 C 0.59252 0.50218 0.19571
 H90 H 0.58946 0.49245 0.18199
 N91 N 0.61159 0.50886 0.22734
 C92 C 0.63332 0.48766 0.28873
 H93 H 0.64912 0.48637 0.28515
 C94 C 0.62614 0.48235 0.30890
 H95 H 0.63652 0.47695 0.32085
 C96 C 0.60059 0.49612 0.27729
 H97 H 0.59070 0.50141 0.26487
 C98 C 0.59273 0.49088 0.29726
 H99 H 0.57684 0.49262 0.30021
 Zn100 Zn 0.63189 0.50161 0.24687
 N101 N 0.62060 0.49475 0.27358
 C102 C 0.65020 0.53300 0.27017
 N103 N 0.64879 0.52383 0.25049
 C104 C 0.65790 0.53141 0.23287
 C105 C 0.66885 0.54898 0.23465
 C106 C 0.66087 0.55063 0.27265
 C107 C 0.63561 0.46138 0.23641
 C108 C 0.64478 0.44336 0.23003
 C109 C 0.67549 0.46104 0.22431
 C110 C 0.66567 0.47882 0.23082
 N111 N 0.64604 0.47865 0.23657
 H112 H 0.64250 0.52706 0.28390
 H113 H 0.65617 0.52408 0.21730
 H114 H 0.67552 0.55514 0.22036
 H115 H 0.66156 0.55788 0.28838
 H116 H 0.62014 0.46164 0.24152
 H117 H 0.63626 0.42974 0.23052
 H118 H 0.69110 0.46137 0.21975
 H119 H 0.67381 0.49263 0.23152
 C120 C 0.60563 0.48416 0.31345
 C121 C 0.58191 0.52029 0.19891
 C122 C 0.66499 0.44299 0.22390
 C123 C 0.67013 0.55898 0.25469
 C124 C 0.88976 0.52715 0.76026
 H125 H 0.89142 0.53501 0.74530
 C126 C 0.90121 0.53262 0.77815
 H127 H 0.91127 0.54498 0.77650
 C128 C 0.87340 0.50252 0.78031
 H129 H 0.86240 0.49092 0.78121
 C130 C 0.88434 0.50757 0.79861
 H131 H 0.88194 0.49887 0.81286
 N132 N 0.87622 0.51230 0.76162
 C133 C 0.86515 0.49438 0.69474
 H134 H 0.84910 0.49649 0.69431
 C135 C 0.87540 0.48746 0.67636
 H136 H 0.86709 0.48486 0.66171
 C137 C 0.89528 0.49562 0.71446
 H138 H 0.90289 0.49842 0.72949
 C139 C 0.90612 0.48844 0.69652
 H140 H 0.92204 0.48586 0.69801
 Zn141 Zn 0.85973 0.50664 0.73759
 N142 N 0.87518 0.49858 0.71320
 C143 C 0.84599 0.54002 0.71325
 N144 N 0.84463 0.53026 0.73223
 C145 C 0.83332 0.53784 0.74882
 C146 C 0.82278 0.55588 0.74672
 C147 C 0.83566 0.55814 0.71045
 C148 C 0.85211 0.46697 0.74618
 C149 C 0.84103 0.44995 0.75015
 C150 C 0.81089 0.47027 0.74887
 C151 C 0.82259 0.48694 0.74478
 N152 N 0.84283 0.48502 0.74371
 H153 H 0.85551 0.53410 0.70046
 H154 H 0.83275 0.52994 0.76385
 H155 H 0.81387 0.56163 0.76015
 H156 H 0.83736 0.56597 0.69546
 H157 H 0.86821 0.46581 0.74489
 H158 H 0.84879 0.43569 0.75162
 H159 H 0.79483 0.47214 0.74996
 H160 H 0.81545 0.50134 0.74237
 C161 C 0.89620 0.48429 0.67706
 C162 C 0.89848 0.52303 0.79800
 C163 C 0.82011 0.45143 0.75163
 C164 C 0.82404 0.56641 0.72742
 C165 C 0.22033 0.42864 0.97421
 H166 H 0.23373 0.42766 0.96440
 C167 C 0.20529 0.44260 0.96943
 H168 H 0.20725 0.45249 0.95601
 C169 C 0.20142 0.41668 1.00350
 H170 H 0.19973 0.40627 1.01643
 C171 C 0.18608 0.43043 0.99936
 H172 H 0.17269 0.43035 1.00921
 N173 N 0.21818 0.41611 0.99105
 C174 C 0.27840 0.39718 1.00799
 H175 H 0.27681 0.38111 1.00674
 C176 C 0.29675 0.40524 1.01361
 H177 H 0.30932 0.39519 1.01624
 C178 C 0.26391 0.42966 1.00538
 H179 H 0.25100 0.43909 1.00240
 C180 C 0.28198 0.43838 1.01113
 H181 H 0.28275 0.45453 1.01253
 Zn182 Zn 0.23857 0.39683 0.99591
 N183 N 0.26257 0.40940 1.00362
 C184 C 0.25990 0.38198 0.95912
 N185 N 0.24224 0.38179 0.97005
 C186 C 0.22636 0.37161 0.96222
 C187 C 0.22806 0.36059 0.94295
 C188 C 0.26223 0.37123 0.93972
 C189 C 0.23072 0.38905 1.03888
 C190 C 0.22779 0.37768 1.05718
 C191 C 0.22665 0.34796 1.03442
 C192 C 0.22971 0.35992 1.01649
 N193 N 0.23178 0.38008 1.01905
 H194 H 0.27214 0.39070 0.96520
 H195 H 0.21238 0.37202 0.97104
 H196 H 0.21536 0.35223 0.93728
 H197 H 0.27631 0.37177 0.93112
 H198 H 0.23266 0.40506 1.04049
 H199 H 0.22729 0.38509 1.07285
 H200 H 0.22567 0.33188 1.03222
 H201 H 0.23108 0.35297 1.00069
 C202 C 0.29878 0.42613 1.01514
 C203 C 0.18788 0.44362 0.98213
 C204 C 0.22606 0.35681 1.05511
 C205 C 0.24619 0.36031 0.93141
 C206 C 0.77477 0.07350 0.96694
 H207 H 0.76016 0.06900 0.96159
 C208 C 0.79167 0.06210 0.96063
 H209 H 0.78962 0.04883 0.95066
 C210 C 0.79502 0.09704 0.98497
 H211 H 0.79635 0.11073 0.99439
 C212 C 0.81223 0.08661 0.97847
 H213 H 0.82638 0.09227 0.98402
 N214 N 0.77670 0.09018 0.97965
 C215 C 0.71821 0.10353 1.00862
 H216 H 0.72077 0.11941 1.01049
 C217 C 0.70004 0.09579 1.01502
 H218 H 0.68890 0.10584 1.02218
 C219 C 0.72995 0.07134 0.99731
 H220 H 0.74171 0.06178 0.99077
 C221 C 0.71171 0.06295 1.00316
 H222 H 0.70952 0.04709 1.00038
 Zn223 Zn 0.75480 0.10618 0.98996
 N224 N 0.73251 0.09147 0.99936
 C225 C 0.72807 0.12110 0.95882
 N226 N 0.74650 0.12331 0.96760
 C227 C 0.75941 0.13699 0.95996
 C228 C 0.75384 0.14932 0.94300
 C229 C 0.72193 0.13306 0.94183
 C230 C 0.77045 0.10978 1.03092
 C231 C 0.77517 0.11875 1.05065
 C232 C 0.76461 0.15069 1.03664
 C233 C 0.76030 0.14109 1.01699
 N234 N 0.76304 0.12094 1.01464
 H235 H 0.71816 0.10985 0.96475
 H236 H 0.77410 0.13823 0.96698
 H237 H 0.76442 0.15995 0.93694
 H238 H 0.70715 0.13113 0.93519
 H239 H 0.77234 0.09375 1.02864
 H240 H 0.78101 0.10950 1.06335
 H241 H 0.76147 0.16658 1.03854
 H242 H 0.75400 0.14961 1.00398
 C243 C 0.69626 0.07537 1.01161
 C244 C 0.81090 0.06856 0.96641
 C245 C 0.77180 0.13941 1.05395
 C246 C 0.73487 0.14738 0.93366
 C247 C 0.27742 0.57937 0.47493
 H248 H 0.26383 0.57642 0.46621
 C249 C 0.29531 0.56969 0.46853
 H250 H 0.29536 0.55901 0.45516
 C251 C 0.29437 0.59761 0.50212
 H252 H 0.29428 0.60886 0.51483
 C253 C 0.31247 0.58864 0.49604
 H254 H 0.32594 0.59272 0.50454
 N255 N 0.27719 0.59276 0.49180
 C256 C 0.21760 0.59963 0.52014
 H257 H 0.21981 0.61472 0.52620
 C258 C 0.19952 0.59034 0.52395
 H259 H 0.18817 0.59827 0.53341
 C260 C 0.22962 0.57138 0.50002
 H261 H 0.24124 0.56413 0.49046
 C262 C 0.21154 0.56159 0.50320
 H263 H 0.20943 0.54698 0.49575
 Zn264 Zn 0.25360 0.60709 0.50072
 N265 N 0.23205 0.59033 0.50794
 C266 C 0.22671 0.62189 0.46980
 N267 N 0.24537 0.62387 0.47806
 C268 C 0.25845 0.63702 0.46970
 C269 C 0.25295 0.64878 0.45224
 C270 C 0.22065 0.63326 0.45233
 C271 C 0.26431 0.61157 0.54352
 C272 C 0.26951 0.62124 0.56270
 C273 C 0.26397 0.65303 0.54560
 C274 C 0.25901 0.64270 0.52660
 N275 N 0.25947 0.62233 0.52589
 H276 H 0.21656 0.61125 0.47649
 H277 H 0.27328 0.63813 0.47640
 H278 H 0.26372 0.65883 0.44545
 H279 H 0.20579 0.63137 0.44590
 H280 H 0.26448 0.59538 0.54248
 H281 H 0.27384 0.61231 0.57632
 H282 H 0.26331 0.66924 0.54598
 H283 H 0.25477 0.65096 0.51251
 C284 C 0.19596 0.57137 0.51475
 C285 C 0.31310 0.57448 0.47911
 C286 C 0.26940 0.64227 0.56397
 C287 C 0.23389 0.64679 0.44319
 C288 C 0.73791 0.92018 0.47403
 H289 H 0.75269 0.92219 0.46743
 C290 C 0.72184 0.93173 0.46650
 H291 H 0.72431 0.94290 0.45441
 C292 C 0.71630 0.90270 0.49713
 H293 H 0.71401 0.89112 0.50871
 C294 C 0.69987 0.91350 0.48971
 H295 H 0.68514 0.91044 0.49600
 N296 N 0.73495 0.90636 0.48953
 C297 C 0.79167 0.89446 0.52155
 H298 H 0.78872 0.87900 0.52511
 C299 C 0.80986 0.90267 0.52736
 H300 H 0.82061 0.89350 0.53582
 C301 C 0.78122 0.92490 0.50586
 H302 H 0.77009 0.93350 0.49739
 C303 C 0.79945 0.93366 0.51108
 H304 H 0.80223 0.94881 0.50611
 Zn305 Zn 0.75630 0.89025 0.50003
 N306 N 0.77805 0.90535 0.51038
 C307 C 0.78478 0.87427 0.47032
 N308 N 0.76554 0.87317 0.47730
 C309 C 0.75249 0.86050 0.46769
 C310 C 0.75868 0.84817 0.45038
 C311 C 0.79155 0.86233 0.45300
 C312 C 0.74051 0.88580 0.54104
 C313 C 0.73426 0.87599 0.55942
 C314 C 0.74221 0.84435 0.54154
 C315 C 0.74814 0.85480 0.52337
 N316 N 0.74719 0.87517 0.52348
 H317 H 0.79487 0.88466 0.47790
 H318 H 0.73720 0.86013 0.47337
 H319 H 0.74798 0.83847 0.44263
 H320 H 0.80688 0.86350 0.44757
 H321 H 0.74008 0.90200 0.54072
 H322 H 0.72879 0.88480 0.57311
 H323 H 0.74364 0.82818 0.54139
 H324 H 0.75396 0.84664 0.50944
 C325 C 0.81433 0.92224 0.52131
 C326 C 0.70258 0.92831 0.47439
 C327 C 0.73530 0.85498 0.55996
 C328 C 0.77841 0.84914 0.44273
 C329 C 0.00961 0.26690 0.40013
 H330 H 0.02309 0.25823 0.39687
 C331 C 0.01058 0.28438 0.41280
 H332 H 0.02482 0.28885 0.41933
 C333 C -0.02487 0.27254 0.39408
 H334 H -0.03861 0.26824 0.38648
 C335 C -0.02457 0.29013 0.40664
 H336 H -0.03824 0.29885 0.40882
 N337 N -0.00796 0.26117 0.39119
 C338 C -0.01747 0.19942 0.38903
 H339 H -0.02916 0.19994 0.37715
 C340 C -0.01621 0.18307 0.40265
 H341 H -0.02690 0.17128 0.40036
 C342 C 0.01118 0.21352 0.40479
 H343 H 0.02184 0.22543 0.40568
 C344 C 0.01314 0.19736 0.41864
 H345 H 0.02508 0.19780 0.43028
 Zn346 Zn -0.00761 0.23761 0.37322
 N347 N -0.00415 0.21449 0.39058
 C348 C 0.02859 0.22568 0.35153
 N349 N 0.01403 0.24004 0.35371
 C350 C 0.01470 0.25724 0.34241
 C351 C 0.03050 0.26060 0.32827
 C352 C 0.04478 0.22849 0.33762
 C353 C -0.04947 0.23398 0.36847
 C354 C -0.06760 0.23327 0.35751
 C355 C -0.04953 0.23543 0.32392
 C356 C -0.03172 0.23602 0.33553
 N357 N -0.03198 0.23569 0.35745
 H358 H 0.02779 0.21216 0.36075
 H359 H 0.00293 0.26842 0.34450
 H360 H 0.03058 0.27434 0.31934
 H361 H 0.05649 0.21714 0.33655
 H362 H -0.04933 0.23331 0.38586
 H363 H -0.08131 0.23199 0.36667
 H364 H -0.04899 0.23640 0.30654
 H365 H -0.01772 0.23699 0.32694
 C366 C -0.00087 0.18179 0.41811
 C367 C -0.00666 0.29632 0.41614
 C368 C -0.06785 0.23431 0.33493
 C369 C 0.04597 0.24623 0.32587
 C370 C 0.02032 0.72627 0.09686
 H371 H 0.03280 0.73634 0.09755
 C372 C 0.02065 0.71006 0.08221
 H373 H 0.03340 0.70789 0.07157
 C374 C -0.01162 0.71727 0.10955
 H375 H -0.02413 0.71996 0.12032
 C376 C -0.01189 0.70088 0.09523
 H377 H -0.02460 0.69109 0.09536
 N378 N 0.00414 0.72984 0.10982
 C379 C 0.00051 0.79447 0.12207
 H380 H -0.00184 0.79482 0.13933
 C381 C 0.00132 0.81237 0.11087
 H382 H -0.00068 0.82643 0.11968
 C383 C 0.00568 0.77566 0.08972
 H384 H 0.00730 0.76136 0.08145
 C385 C 0.00667 0.79322 0.07789
 H386 H 0.00944 0.79212 0.06071
 Zn387 Zn 0.00359 0.75300 0.12824
 N388 N 0.00318 0.77659 0.11150
 C389 C 0.03892 0.76860 0.14698
 N390 N 0.02670 0.75254 0.14599
 C391 C 0.03050 0.73602 0.15786
 C392 C 0.04669 0.73552 0.17198
 C393 C 0.05523 0.76875 0.16090
 C394 C -0.03774 0.75615 0.13617
 C395 C -0.05543 0.75617 0.14822
 C396 C -0.03591 0.75066 0.18015
 C397 C -0.01864 0.75095 0.16744
 N398 N -0.01982 0.75330 0.14581
 H399 H 0.03603 0.78142 0.13709
 H400 H 0.02068 0.72336 0.15666
 H401 H 0.04917 0.72242 0.18166
 H402 H 0.06477 0.78167 0.16137
 H403 H -0.03831 0.75806 0.11891
 H404 H -0.06915 0.75740 0.13927
 H405 H -0.03382 0.74945 0.19731
 H406 H -0.00426 0.74937 0.17504
 C407 C 0.00484 0.81193 0.08851
 C408 C 0.00426 0.69723 0.08105
 C409 C -0.05504 0.75320 0.17080
 C410 C 0.05921 0.75214 0.17380
 C411 C 0.51030 0.22275 0.60465
 H412 H 0.52194 0.23365 0.60291
 C413 C 0.51064 0.20532 0.59181
 H414 H 0.52247 0.20311 0.58001
 C415 C 0.48057 0.21278 0.62189
 H416 H 0.46909 0.21550 0.63392
 C417 C 0.48044 0.19507 0.60958
 H418 H 0.46880 0.18438 0.61242
 N419 N 0.49510 0.22644 0.61889
 C420 C 0.49416 0.29175 0.62482
 H421 H 0.49377 0.29363 0.64217
 C422 C 0.49456 0.30855 0.61180
 H423 H 0.49438 0.32333 0.61930
 C424 C 0.49439 0.27019 0.59407
 H425 H 0.49399 0.25526 0.58713
 C426 C 0.49475 0.28658 0.58043
 H427 H 0.49516 0.28399 0.56316
 Zn428 Zn 0.49493 0.25102 0.63484
 N429 N 0.49462 0.27301 0.61585
 C430 C 0.53164 0.26608 0.65133
 N431 N 0.51820 0.25108 0.65221
 C432 C 0.52129 0.23510 0.66508
 C433 C 0.53845 0.23373 0.67772
 C434 C 0.54884 0.26548 0.66395
 C435 C 0.45369 0.25243 0.64247
 C436 C 0.43604 0.25422 0.65447
 C437 C 0.45569 0.25948 0.68655
 C438 C 0.47302 0.25707 0.67400
 N439 N 0.47171 0.25348 0.65239
 H440 H 0.52917 0.27851 0.64079
 H441 H 0.51049 0.22324 0.66528
 H442 H 0.54078 0.22058 0.68734
 H443 H 0.55905 0.27783 0.66325
 H444 H 0.45306 0.25000 0.62521
 H445 H 0.42178 0.25313 0.64643
 H446 H 0.45684 0.26242 0.70371
 H447 H 0.48749 0.25832 0.68149
 C448 C 0.49517 0.30607 0.58927
 C449 C 0.49542 0.19126 0.59400
 C450 C 0.43698 0.25784 0.67674
 C451 C 0.55259 0.24905 0.67728
 C452 C 0.52422 0.77796 0.90884
 H453 H 0.53730 0.76829 0.90730
 C454 C 0.52449 0.79474 0.92269
 H455 H 0.53794 0.79799 0.93159
 C456 C 0.49108 0.78583 0.89840
 H457 H 0.47817 0.78254 0.88873
 C458 C 0.49067 0.80267 0.91207
 H459 H 0.47722 0.81187 0.91301
 N460 N 0.50765 0.77380 0.89711
 C461 C 0.51024 0.70984 0.88223
 H462 H 0.50962 0.71010 0.86483
 C463 C 0.50977 0.69161 0.89276
 H464 H 0.50919 0.67785 0.88328
 C465 C 0.51130 0.72760 0.91563
 H466 H 0.51129 0.74169 0.92448
 C467 C 0.51076 0.70968 0.92684
 H468 H 0.51037 0.71021 0.94428
 Zn469 Zn 0.50829 0.75124 0.87806
 N470 N 0.51089 0.72735 0.89371
 C471 C 0.54520 0.74022 0.85795
 N472 N 0.53010 0.75410 0.85883
 C473 C 0.53075 0.77095 0.84693
 C474 C 0.54704 0.77432 0.83339
 C475 C 0.56174 0.74298 0.84462
 C476 C 0.46755 0.74534 0.87520
 C477 C 0.44883 0.74354 0.86576
 C478 C 0.46391 0.74965 0.83112
 C479 C 0.48243 0.75136 0.84128
 N480 N 0.48383 0.74946 0.86301
 H481 H 0.54470 0.72720 0.86795
 H482 H 0.51868 0.78190 0.84816
 H483 H 0.54727 0.78782 0.82403
 H484 H 0.57382 0.73199 0.84459
 H485 H 0.46917 0.74351 0.89238
 H486 H 0.43612 0.74014 0.87581
 H487 H 0.46297 0.75156 0.81387
 H488 H 0.49561 0.75421 0.83179
 C489 C 0.50964 0.69138 0.91539
 C490 C 0.50756 0.80742 0.92436
 C491 C 0.44677 0.74586 0.84344
 C492 C 0.56289 0.76028 0.83221
 C493 C -0.23607 0.64599 0.96899
 H494 H -0.22629 0.64542 0.98278
 C495 C -0.23004 0.65577 0.95044
 H496 H -0.21555 0.66268 0.95000
 C497 C -0.26653 0.63687 0.95254
 H498 H -0.28057 0.62920 0.95324
 C499 C -0.26110 0.64645 0.93370
 H500 H -0.27131 0.64640 0.92024
 N501 N -0.25407 0.63687 0.96974
 C502 C -0.27038 0.63278 1.03733
 H503 H -0.27301 0.61689 1.03828
 C504 C -0.27395 0.64528 1.05528
 H505 H -0.27863 0.63841 1.07006
 C506 C -0.26040 0.66035 1.01676
 H507 H -0.25568 0.66627 1.00154
 C508 C -0.26343 0.67336 1.03438
 H509 H -0.26112 0.68916 1.03204
 Zn510 Zn -0.26047 0.62265 0.99480
 N511 N -0.26362 0.64044 1.01862
 C512 C -0.22715 0.60575 1.01666
 N513 N -0.23908 0.60441 0.99905
 C514 C -0.23466 0.59148 0.98245
 C515 C -0.21739 0.57957 0.98288
 C516 C -0.20957 0.59421 1.01766
 C517 C -0.30166 0.62074 0.98955
 C518 C -0.32031 0.61194 0.98768
 C519 C -0.30419 0.57941 0.98994
 C520 C -0.28582 0.58886 0.99180
 N521 N -0.28488 0.60917 0.99138
 H522 H -0.23073 0.61646 1.02944
 H523 H -0.24425 0.59097 0.96850
 H524 H -0.21405 0.56958 0.96934
 H525 H -0.19974 0.59623 1.03128
 H526 H -0.30051 0.63689 0.98971
 H527 H -0.33350 0.62145 0.98658
 H528 H -0.30462 0.56322 0.99007
 H529 H -0.27239 0.57993 0.99378
 C530 C -0.27029 0.66600 1.05420
 C531 C -0.24258 0.65592 0.93241
 C532 C -0.32176 0.59099 0.98785
 C533 C -0.20425 0.58126 1.00035
 C534 C -0.21945 0.36975 0.53304
 H535 H -0.20883 0.37986 0.52624
 C536 C -0.21423 0.35894 0.55006
 H537 H -0.19925 0.36042 0.55624
 C538 C -0.25126 0.35453 0.53057
 H539 H -0.26564 0.35290 0.52296
 C540 C -0.24610 0.34212 0.54924
 H541 H -0.25755 0.33244 0.55525
 N542 N -0.23885 0.36772 0.52356
 C543 C -0.26391 0.37859 0.46003
 H544 H -0.26617 0.39461 0.46113
 C545 C -0.26984 0.36823 0.44151
 H546 H -0.27692 0.37643 0.42867
 C547 C -0.25172 0.34856 0.47525
 H548 H -0.24421 0.34103 0.48823
 C549 C -0.25739 0.33757 0.45692
 H550 H -0.25416 0.32164 0.45599
 Zn551 Zn -0.24619 0.38441 0.50028
 N552 N -0.25496 0.36873 0.47642
 C553 C -0.21455 0.39449 0.47257
 N554 N -0.22379 0.39919 0.49160
 C555 C -0.21690 0.41396 0.50485
 C556 C -0.19954 0.42409 0.49953
 C557 C -0.19723 0.40430 0.46656
 C558 C -0.28049 0.39857 0.52411
 C559 C -0.29724 0.41102 0.52761
 C560 C -0.28538 0.43242 0.49960
 C561 C -0.26887 0.41963 0.49677
 N562 N -0.26703 0.40272 0.50843
 H563 H -0.22031 0.38275 0.46224
 H564 H -0.22458 0.41742 0.51988
 H565 H -0.19380 0.43516 0.51076
 H566 H -0.18997 0.40016 0.45146
 H567 H -0.27877 0.38517 0.53338
 H568 H -0.30817 0.40635 0.53927
 H569 H -0.28613 0.44572 0.48998
 H570 H -0.25775 0.42290 0.48470
 C571 C -0.26638 0.34748 0.43963
 C572 C -0.22843 0.34443 0.55937
 C573 C -0.30046 0.42792 0.51465
 C574 C -0.18926 0.41904 0.48032
 C575 C 0.27379 -0.14803 0.02704
 H576 H 0.28157 -0.15045 0.01185
 C577 C 0.27858 -0.15914 0.04403
 H578 H 0.29051 -0.17017 0.04219
 C579 C 0.24970 -0.12868 0.04715
 H580 H 0.23898 -0.11648 0.04860
 C581 C 0.25447 -0.14047 0.06630
 H582 H 0.24577 -0.13718 0.08068
 N583 N 0.25862 -0.13259 0.02887
 C584 C 0.24193 -0.12129 -0.03761
 H585 H 0.24224 -0.10510 -0.03684
 C586 C 0.23751 -0.13109 -0.05696
 H587 H 0.23433 -0.12232 -0.07105
 C588 C 0.24569 -0.15229 -0.02003
 H589 H 0.24877 -0.16046 -0.00556
 C590 C 0.24131 -0.16275 -0.03914
 H591 H 0.24152 -0.17897 -0.03931
 Zn592 Zn 0.25335 -0.11642 0.00474
 N593 N 0.24645 -0.13193 -0.01981
 C594 C 0.28726 -0.10493 -0.01951
 N595 N 0.27680 -0.10198 -0.00084
 C596 C 0.28340 -0.08938 0.01494
 C597 C 0.30120 -0.07912 0.01228
 C598 C 0.30515 -0.09501 -0.02283
 C599 C 0.21397 -0.10653 0.01634
 C600 C 0.19686 -0.09446 0.01852
 C601 C 0.21602 -0.06632 0.00682
 C602 C 0.23291 -0.07886 0.00549
 N603 N 0.23155 -0.09860 0.01008
 H604 H 0.28200 -0.11531 -0.03169
 H605 H 0.27493 -0.08755 0.02976
 H606 H 0.30645 -0.06955 0.02526
 H607 H 0.31331 -0.09760 -0.03776
 H608 H 0.21316 -0.12243 0.01918
 H609 H 0.18304 -0.10158 0.02278
 H610 H 0.21769 -0.05067 0.00312
 H611 H 0.24693 -0.07294 0.00005
 C612 C 0.23759 -0.15210 -0.05802
 C613 C 0.26847 -0.15532 0.06525
 C614 C 0.19747 -0.07401 0.01324
 C615 C 0.31243 -0.08202 -0.00674
 C616 C 0.27539 1.12303 0.45789
 H617 H 0.28864 1.11653 0.46497
 C618 C 0.27665 1.13222 0.43790
 H619 H 0.29089 1.13253 0.42960
 C620 C 0.24064 1.13030 0.45993
 H621 H 0.22668 1.12945 0.46867
 C622 C 0.24123 1.13962 0.44009
 H623 H 0.22762 1.14620 0.43381
 N624 N 0.25754 1.12222 0.46838
 C625 C 0.24736 1.12244 0.53768
 H626 H 0.24927 1.10673 0.54121
 C627 C 0.24133 1.13596 0.55396
 H628 H 0.23897 1.13060 0.57011
 C629 C 0.24786 1.14845 0.51230
 H630 H 0.25024 1.15326 0.49600
 C631 C 0.24199 1.16253 0.52816
 H632 H 0.23981 1.17804 0.52387
 Zn633 Zn 0.25479 1.10922 0.49485
 N634 N 0.24992 1.12873 0.51716
 C635 C 0.29047 1.09935 0.51720
 N636 N 0.27850 1.09414 0.50041
 C637 C 0.28396 1.07913 0.48635
 C638 C 0.30221 1.06904 0.48854
 C639 C 0.30888 1.08959 0.52002
 C640 C 0.21658 1.09494 0.50603
 C641 C 0.19883 1.08485 0.50261
 C642 C 0.21338 1.06923 0.47069
 C643 C 0.23088 1.07979 0.47462
 N644 N 0.23221 1.09239 0.49208
 H645 H 0.28618 1.11160 0.52795
 H646 H 0.27458 1.07544 0.47287
 H647 H 0.30640 1.05739 0.47691
 H648 H 0.31854 1.09447 0.53296
 H649 H 0.21738 1.10543 0.51937
 H650 H 0.18645 1.08740 0.51368
 H651 H 0.21230 1.05978 0.45637
 H652 H 0.24291 1.07874 0.46301
 C653 C 0.23819 1.15623 0.54918
 C654 C 0.25937 1.14054 0.42871
 C655 C 0.19697 1.07208 0.48458
 C656 C 0.31510 1.07449 0.50530
 C657 C 0.16080 0.48180 0.26369
 H658 H 0.16297 0.49579 0.27237
 C659 C 0.17080 0.46439 0.27025
 H660 H 0.18083 0.46502 0.28385
 C661 C 0.14466 0.46365 0.23579
 H662 H 0.13423 0.46326 0.22261
 C663 C 0.15396 0.44593 0.24205
 H664 H 0.15090 0.43211 0.23334
 N665 N 0.14832 0.48118 0.24646
 C666 C 0.14285 0.54210 0.22274
 H667 H 0.12702 0.54212 0.21934
 C668 C 0.15396 0.55909 0.21876
 H669 H 0.14654 0.57207 0.21208
 C670 C 0.17159 0.52498 0.23541
 H671 H 0.17845 0.51162 0.24175
 C672 C 0.18327 0.54178 0.23187
 H673 H 0.19892 0.54128 0.23612
 Zn674 Zn 0.13421 0.50447 0.23778
 N675 N 0.15162 0.52569 0.23149
 C676 C 0.11757 0.53084 0.26985
 N677 N 0.11653 0.51232 0.26042
 C678 C 0.10355 0.49854 0.26772
 C679 C 0.09091 0.50318 0.28514
 C680 C 0.10521 0.53610 0.28733
 C681 C 0.13140 0.49446 0.19450
 C682 C 0.12253 0.49027 0.17473
 C683 C 0.09020 0.49453 0.19174
 C684 C 0.09980 0.49874 0.21122
 N685 N 0.12004 0.49861 0.21222
 H686 H 0.12822 0.54148 0.26411
 H687 H 0.10327 0.48380 0.26018
 H688 H 0.08104 0.49181 0.29103
 H689 H 0.10628 0.55091 0.29461
 H690 H 0.14750 0.49425 0.19584
 H691 H 0.13250 0.48612 0.16160
 H692 H 0.07411 0.49580 0.19179
 H693 H 0.09101 0.50243 0.22544
 C694 C 0.17435 0.55932 0.22393
 C695 C 0.16725 0.44620 0.25939
 C696 C 0.10145 0.49047 0.17265
 C697 C 0.09174 0.52213 0.29530
 C698 C -0.16374 1.02775 0.27488
 H699 H -0.16455 1.01545 0.28590
 C700 C -0.17431 1.04558 0.27944
 H701 H -0.18354 1.04687 0.29379
 C702 C -0.15027 1.04138 0.24310
 H703 H -0.14051 1.04005 0.22927
 C704 C -0.16075 1.05929 0.24687
 H705 H -0.15905 1.07146 0.23576
 N706 N -0.15209 1.02592 0.25686
 C707 C -0.14547 0.96401 0.23520
 H708 H -0.13008 0.96451 0.22992
 C709 C -0.15647 0.94681 0.23129
 H710 H -0.14939 0.93419 0.22290
 C711 C -0.17336 0.98003 0.25219
 H712 H -0.17992 0.99298 0.26034
 C713 C -0.18490 0.96302 0.24877
 H714 H -0.20011 0.96299 0.25474
 Zn715 Zn -0.13701 1.00198 0.25144
 N716 N -0.15388 0.98005 0.24584
 C717 C -0.11189 0.97826 0.27771
 N718 N -0.12078 0.99659 0.27561
 C719 C -0.11768 1.01159 0.29026
 C720 C -0.10541 1.00844 0.30794
 C721 C -0.09941 0.97446 0.29518
 C722 C -0.12915 1.00737 0.20753
 C723 C -0.11749 1.01037 0.18924
 C724 C -0.08800 1.00765 0.21130
 C725 C -0.10029 1.00520 0.22924
 N726 N -0.12045 1.00517 0.22706
 H727 H -0.11431 0.96663 0.26573
 H728 H -0.12450 1.02617 0.28812
 H729 H -0.10346 1.02054 0.31955
 H730 H -0.09226 0.95989 0.29644
 H731 H -0.14525 1.00698 0.20624
 H732 H -0.12500 1.01166 0.17394
 H733 H -0.07205 1.00816 0.21381
 H734 H -0.09368 1.00352 0.24495
 C735 C -0.17633 0.94597 0.23854
 C736 C -0.17295 1.06153 0.26520
 C737 C -0.09647 1.01045 0.19079
 C738 C -0.09597 0.98971 0.31054
 C739 C 0.34477 0.51166 -0.21263
 H740 H 0.34178 0.49792 -0.20434
 C741 C 0.33561 0.52966 -0.20560
 H742 H 0.32546 0.52976 -0.19196
 C743 C 0.36197 0.52848 -0.24018
 H744 H 0.37249 0.52815 -0.25341
 C745 C 0.35345 0.54673 -0.23352
 H746 H 0.35718 0.56015 -0.24208
 N747 N 0.35742 0.51136 -0.22989
 C748 C 0.36116 0.44878 -0.25529
 H749 H 0.37719 0.44769 -0.25746
 C750 C 0.34977 0.43330 -0.26070
 H751 H 0.35722 0.41975 -0.26652
 C752 C 0.33321 0.46868 -0.24343
 H753 H 0.32678 0.48256 -0.23717
 C754 C 0.31996 0.45196 -0.24918
 H755 H 0.30409 0.45457 -0.24714
 Zn756 Zn 0.37057 0.48740 -0.23948
 N757 N 0.35243 0.46677 -0.24606
 C758 C 0.38740 0.46056 -0.20944
 N759 N 0.38845 0.47921 -0.21774
 C760 C 0.40158 0.49280 -0.20990
 C761 C 0.41420 0.48789 -0.19289
 C762 C 0.39983 0.45498 -0.19257
 C763 C 0.37233 0.49632 -0.28246
 C764 C 0.38064 0.50010 -0.30252
 C765 C 0.41349 0.49591 -0.28713
 C766 C 0.40450 0.49211 -0.26727
 N767 N 0.38425 0.49244 -0.26536
 H768 H 0.37667 0.45006 -0.21556
 H769 H 0.40190 0.50763 -0.21656
 H770 H 0.42404 0.49916 -0.18640
 H771 H 0.39874 0.44006 -0.18623
 H772 H 0.35627 0.49648 -0.28042
 H773 H 0.37086 0.50326 -0.31591
 H774 H 0.42961 0.49533 -0.28857
 H775 H 0.41367 0.48879 -0.25348
 C776 C 0.32765 0.43456 -0.25750
 C777 C 0.34008 0.54748 -0.21607
 C778 C 0.40146 0.49981 -0.30509
 C779 C 0.41326 0.46881 -0.18383
 C780 C 0.65643 -0.01514 -0.22325
 H781 H 0.66038 -0.00145 -0.21483
 C782 C 0.66555 -0.03251 -0.21828
 H783 H 0.67663 -0.03245 -0.20567
 C784 C 0.63549 -0.03112 -0.24900
 H785 H 0.62346 -0.03085 -0.26046
 C786 C 0.64479 -0.05049 -0.24387
 H787 H 0.63997 -0.06341 -0.25311
 N788 N 0.64117 -0.01467 -0.23947
 C789 C 0.63366 0.04732 -0.26042
 H790 H 0.61760 0.04717 -0.26223
 C791 C 0.64403 0.06475 -0.26456
 H792 H 0.63530 0.07778 -0.26891
 C793 C 0.66351 0.03042 -0.25089
 H794 H 0.67108 0.01692 -0.24585
 C795 C 0.67457 0.04759 -0.25480
 H796 H 0.69059 0.04652 -0.25305
 Zn797 Zn 0.62666 0.00916 -0.24628
 N798 N 0.64335 0.03079 -0.25319
 C799 C 0.61158 0.03502 -0.21291
 N800 N 0.61031 0.01648 -0.22225
 C801 C 0.59776 0.00261 -0.21430
 C802 C 0.58562 0.00728 -0.19646
 C803 C 0.59968 0.04033 -0.19511
 C804 C 0.62101 -0.00043 -0.28949
 C805 C 0.61086 -0.00650 -0.30797
 C806 C 0.57982 -0.00319 -0.28810
 C807 C 0.59059 0.00290 -0.26996
 N808 N 0.61086 0.00373 -0.27087
 H809 H 0.62192 0.04573 -0.21907
 H810 H 0.59728 -0.01214 -0.22179
 H811 H 0.57600 -0.00410 -0.19017
 H812 H 0.60078 0.05525 -0.18810
 H813 H 0.63713 0.00049 -0.28977
 H814 H 0.61928 -0.00980 -0.32259
 H815 H 0.56376 -0.00439 -0.28689
 H816 H 0.58277 0.00647 -0.25508
 C817 C 0.66490 0.06542 -0.26142
 C818 C 0.65937 -0.05165 -0.22898
 C819 C 0.59001 -0.00830 -0.30735
 C820 C 0.58650 0.02637 -0.18660
 C821 C 0.02337 0.25919 0.84579
 H822 H 0.01303 0.27178 0.84508
 C823 C 0.03938 0.25763 0.83123
 H824 H 0.04111 0.26901 0.81923
 C825 C 0.03339 0.22891 0.86207
 H826 H 0.03122 0.21784 0.87425
 C827 C 0.04960 0.22681 0.84794
 H828 H 0.05976 0.21415 0.84960
 N829 N 0.02040 0.24468 0.86049
 C830 C -0.04356 0.24366 0.87398
 H831 H -0.04307 0.24258 0.89133
 C832 C -0.06191 0.24416 0.86349
 H833 H -0.07548 0.24316 0.87293
 C834 C -0.02635 0.24612 0.84074
 H835 H -0.01248 0.24684 0.83188
 C836 C -0.04442 0.24677 0.82957
 H837 H -0.04420 0.24837 0.81225
 Zn838 Zn -0.00236 0.24647 0.87895
 N839 N -0.02626 0.24518 0.86262
 C840 C -0.01762 0.28427 0.89305
 N841 N -0.00193 0.27120 0.89473
 C842 C 0.01404 0.27568 0.90729
 C843 C 0.01442 0.29373 0.91915
 C844 C -0.01785 0.30242 0.90456
 C845 C -0.00503 0.20607 0.88890
 C846 C -0.00544 0.18915 0.90171
 C847 C -0.00077 0.21048 0.93310
 C848 C -0.00052 0.22704 0.91966
 N849 N -0.00241 0.22453 0.89795
 H850 H -0.03003 0.28075 0.88273
 H851 H 0.02649 0.26518 0.90812
 H852 H 0.02731 0.29712 0.92891
 H853 H -0.03067 0.31242 0.90318
 H854 H -0.00671 0.20450 0.87163
 H855 H -0.00719 0.17457 0.89409
 H856 H 0.00064 0.21275 0.95033
 H857 H 0.00109 0.24185 0.92664
 C858 C -0.06256 0.24622 0.84101
 C859 C 0.05262 0.24110 0.83200
 C860 C -0.00329 0.19122 0.92414
 C861 C -0.00170 0.30741 0.91782
 C862 C 0.46979 0.24807 0.17284
 H863 H 0.48447 0.24625 0.17962
 C864 C 0.45303 0.24594 0.18609
 H865 H 0.45494 0.24229 0.20288
 C866 C 0.44910 0.25500 0.14295
 H867 H 0.44771 0.25830 0.12604
 C868 C 0.43201 0.25352 0.15574
 H869 H 0.41741 0.25564 0.14862
 N870 N 0.46754 0.25211 0.15156
 C871 C 0.52617 0.27132 0.14353
 H872 H 0.52208 0.28246 0.13195
 C873 C 0.54400 0.27333 0.15477
 H874 H 0.55328 0.28605 0.15158
 C875 C 0.51991 0.24057 0.16037
 H876 H 0.51057 0.22766 0.16219
 C877 C 0.53756 0.24210 0.17219
 H878 H 0.54141 0.23047 0.18340
 Zn879 Zn 0.48942 0.25388 0.13210
 N880 N 0.51419 0.25544 0.14693
 C881 C 0.48473 0.29520 0.12705
 N882 N 0.48525 0.27742 0.11595
 C883 C 0.48274 0.27661 0.09421
 C884 C 0.48031 0.29426 0.08269
 C885 C 0.48284 0.31318 0.11613
 C886 C 0.47662 0.21641 0.11543
 C887 C 0.47759 0.19935 0.10205
 C888 C 0.50706 0.21244 0.08515
 C889 C 0.50554 0.22925 0.09888
 N890 N 0.49043 0.23097 0.11357
 H891 H 0.48635 0.29539 0.14438
 H892 H 0.48268 0.26231 0.08575
 H893 H 0.47859 0.29351 0.06536
 H894 H 0.48299 0.32726 0.12508
 H895 H 0.46494 0.21787 0.12746
 H896 H 0.46665 0.18778 0.10408
 H897 H 0.51907 0.21146 0.07341
 H898 H 0.51640 0.24099 0.09784
 C899 C 0.54975 0.25884 0.16971
 C900 C 0.43392 0.24867 0.17748
 C901 C 0.49297 0.19716 0.08664
 C902 C 0.48075 0.31279 0.09368
 C903 C -0.02738 0.76353 0.64872
 H904 H -0.02300 0.77710 0.64090
 C905 C -0.04306 0.76394 0.66219
 H906 H -0.05131 0.77790 0.66422
 C907 C -0.02107 0.72880 0.65408
 H908 H -0.01249 0.71521 0.65102
 C909 C -0.03834 0.72846 0.66894
 H910 H -0.04128 0.71447 0.67670
 N911 N -0.01639 0.74520 0.64447
 C912 C 0.04679 0.74265 0.62917
 H913 H 0.04625 0.73954 0.61202
 C914 C 0.06506 0.74236 0.63982
 H915 H 0.07850 0.73880 0.63066
 C916 C 0.02965 0.75015 0.66192
 H917 H 0.01574 0.75311 0.67043
 C918 C 0.04766 0.75016 0.67323
 H919 H 0.04746 0.75342 0.69038
 Zn920 Zn 0.00541 0.74539 0.62476
 N921 N 0.02958 0.74649 0.64029
 C922 C 0.01757 0.78175 0.60605
 N923 N 0.00272 0.76816 0.60703
 C924 C -0.01458 0.77085 0.59599
 C925 C -0.01740 0.78764 0.58322
 C926 C 0.01538 0.79877 0.59348
 C927 C 0.01351 0.70460 0.61694
 C928 C 0.01604 0.68682 0.60494
 C929 C 0.00368 0.70387 0.57367
 C930 C 0.00154 0.72140 0.58624
 N931 N 0.00633 0.72145 0.60753
 H932 H 0.03108 0.77957 0.61520
 H933 H -0.02629 0.75997 0.59726
 H934 H -0.03122 0.78938 0.57446
 H935 H 0.02723 0.80958 0.59328
 H936 H 0.01777 0.70507 0.63371
 H937 H 0.02176 0.67359 0.61279
 H938 H 0.00003 0.70418 0.55671
 H939 H -0.00365 0.73497 0.57880
 C940 C 0.06572 0.74622 0.66216
 C941 C -0.04945 0.74526 0.67292
 C942 C 0.01118 0.68632 0.58297
 C943 C -0.00232 0.80193 0.58188
 C944 C 0.52754 0.76253 0.34797
 H945 H 0.51664 0.77465 0.34912
 C946 C 0.54426 0.76421 0.33458
 H947 H 0.54594 0.77759 0.32524
 C948 C 0.53849 0.73039 0.35880
 H949 H 0.53643 0.71737 0.36855
 C950 C 0.55542 0.73144 0.34566
 H951 H 0.56621 0.71918 0.34557
 N952 N 0.52485 0.74571 0.35957
 C953 C 0.46106 0.74088 0.37253
 H954 H 0.46175 0.73761 0.38951
 C955 C 0.44263 0.74189 0.36225
 H956 H 0.42921 0.73909 0.37143
 C957 C 0.47786 0.74829 0.34005
 H958 H 0.49162 0.75078 0.33145
 C959 C 0.45968 0.74953 0.32911
 H960 H 0.45966 0.75328 0.31223
 Zn961 Zn 0.50206 0.74441 0.37784
 N962 N 0.47817 0.74451 0.36151
 C963 C 0.48604 0.77994 0.39719
 N964 N 0.50203 0.76710 0.39679
 C965 C 0.51839 0.77070 0.40908
 C966 C 0.51904 0.78777 0.42250
 C967 C 0.48606 0.79712 0.41034
 C968 C 0.50050 0.70299 0.38216
 C969 C 0.50040 0.68470 0.39260
 C970 C 0.50438 0.70244 0.42655
 C971 C 0.50437 0.72045 0.41543
 N972 N 0.50267 0.72038 0.39360
 H973 H 0.47330 0.77710 0.38709
 H974 H 0.53104 0.76041 0.40824
 H975 H 0.53236 0.79061 0.43180
 H976 H 0.47312 0.80706 0.41043
 H977 H 0.49879 0.70339 0.36486
 H978 H 0.49843 0.67108 0.38315
 H979 H 0.50609 0.70276 0.44388
 H980 H 0.50569 0.73443 0.42430
 C981 C 0.44171 0.74669 0.34034
 C982 C 0.55848 0.74849 0.33325
 C983 C 0.50248 0.68421 0.41510
 C984 C 0.50278 0.80135 0.42307
 B985 B -0.00967 0.00685 1.01718
 B986 B -0.02023 0.00298 0.99300
 B987 B -0.00322 0.02103 0.99612
 B988 B 0.01438 0.01296 1.01353
 B989 B 0.00810 -0.01062 1.02080
 B990 B -0.01347 -0.01678 1.00792
 B991 B 0.01511 -0.01103 0.97729
 B992 B 0.02552 -0.00719 1.00158
 B993 B 0.00857 -0.02522 0.99825
 B994 B -0.00908 -0.01713 0.98087
 B995 B -0.00280 0.00643 0.97362
 B996 B 0.01883 0.01259 0.98649
 B997 B 0.48988 0.50600 0.52232
 B998 B 0.48096 0.50066 0.49766
 B999 B 0.49860 0.51807 0.50074
 B1000 B 0.51453 0.51069 0.52013
 B1001 B 0.50656 0.48819 0.52899
 B1002 B 0.48557 0.48196 0.51501
 B1003 B 0.51647 0.48393 0.48626
 B1004 B 0.52542 0.48927 0.51090
 B1005 B 0.50780 0.47184 0.50789
 B1006 B 0.49186 0.47919 0.48847
 B1007 B 0.49981 0.50171 0.47962
 B1008 B 0.52078 0.50796 0.49359
 B1009 B 0.52216 0.98701 0.51633
 B1010 B 0.53208 0.99200 0.49215
 B1011 B 0.51250 0.97671 0.49375
 B1012 B 0.49715 0.98523 0.51369
 B1013 B 0.50749 1.00636 0.52435
 B1014 B 0.52934 1.01053 0.51093
 B1015 B 0.49876 1.01299 0.48203
 B1016 B 0.48892 1.00801 0.50625
 B1017 B 0.50850 1.02331 0.50456
 B1018 B 0.52383 1.01478 0.48459
 B1019 B 0.51347 0.99370 0.47397
 B1020 B 0.49167 0.98948 0.48741
 B1021 B 0.00508 0.49716 1.00564
 B1022 B 0.01500 0.50203 0.98140
 B1023 B -0.00346 0.48543 0.98325
 B1024 B -0.01965 0.49345 1.00266
 B1025 B -0.01105 0.51563 1.01268
 B1026 B 0.01060 0.52094 0.99944
 B1027 B -0.01945 0.52030 0.96991
 B1028 B -0.02936 0.51535 0.99414
 B1029 B -0.01091 0.53200 0.99228
 B1030 B 0.00534 0.52395 0.97287
 B1031 B -0.00332 0.50183 0.96285
 B1032 B -0.02497 0.49648 0.97608
 B1033 B 0.01474 0.50544 0.47175
 B1034 B 0.02586 0.50028 0.49524
 B1035 B 0.00761 0.51785 0.49452
 B1036 B -0.00974 0.51045 0.47657
 B1037 B -0.00205 0.48778 0.46622
 B1038 B 0.02021 0.48143 0.47781
 B1039 B -0.00814 0.48405 0.50964
 B1040 B -0.01930 0.48924 0.48621
 B1041 B -0.00109 0.47164 0.48681
 B1042 B 0.01631 0.47900 0.50478
 B1043 B 0.00863 0.50173 0.51514
 B1044 B -0.01362 0.50806 0.50355
 B1045 B 0.51332 0.01162 -0.00894
 B1046 B 0.52525 0.00667 0.01413
 B1047 B 0.50651 0.02374 0.01412
 B1048 B 0.48886 0.01593 -0.00330
 B1049 B 0.49690 -0.00649 -0.01403
 B1050 B 0.51964 -0.01225 -0.00320
 B1051 B 0.49220 -0.01061 0.02951
 B1052 B 0.48021 -0.00562 0.00650
 B1053 B 0.49894 -0.02268 0.00642
 B1054 B 0.51661 -0.01489 0.02385
 B1055 B 0.50857 0.00755 0.03460
 B1056 B 0.48582 0.01329 0.02378
 B1057 B 0.48032 0.49318 -0.00632
 B1058 B 0.46818 0.49853 0.01687
 B1059 B 0.48800 0.48277 0.01675
 B1060 B 0.50496 0.49090 -0.00116
 B1061 B 0.49532 0.51222 -0.01207
 B1062 B 0.47239 0.51681 -0.00079
 B1063 B 0.50005 0.51891 0.03134
 B1064 B 0.51222 0.51335 0.00790
 B1065 B 0.49243 0.52930 0.00828
 B1066 B 0.47541 0.52121 0.02604
 B1067 B 0.48490 0.49983 0.03698
 B1068 B 0.50792 0.49515 0.02589
 B1069 B -0.00414 0.98324 0.47976
 B1070 B -0.01431 0.98811 0.50412
 B1071 B 0.00343 0.97014 0.50123
 B1072 B 0.02035 0.97757 0.48287
 B1073 B 0.01286 1.00066 0.47454
 B1074 B -0.00880 1.00720 0.48779
 B1075 B 0.02054 1.00318 0.51780
 B1076 B 0.03074 0.99831 0.49345
 B1077 B 0.01300 1.01628 0.49628
 B1078 B -0.00391 1.00886 0.51466
 B1079 B 0.00357 0.98576 0.52299
 B1080 B 0.02522 0.97921 0.50975
 B1081 B 0.75447 0.23795 0.22416
 B1082 B 0.75122 0.22924 0.24918
 B1083 B 0.76834 0.24684 0.24458
 B1084 B 0.75927 0.26263 0.22596
 B1085 B 0.73609 0.25458 0.21910
 B1086 B 0.73116 0.23378 0.23356
 B1087 B 0.73553 0.26490 0.26203
 B1088 B 0.73862 0.27362 0.23702
 B1089 B 0.72168 0.25594 0.24161
 B1090 B 0.73086 0.24016 0.26025
 B1091 B 0.75401 0.24836 0.26707
 B1092 B 0.75864 0.26926 0.25262
 B1093 B 0.74534 0.77697 0.73375
 B1094 B 0.74815 0.78633 0.75884
 B1095 B 0.73366 0.76632 0.75459
 B1096 B 0.74411 0.75175 0.73487
 B1097 B 0.76552 0.76300 0.72705
 B1098 B 0.76803 0.78459 0.74197
 B1099 B 0.76908 0.75315 0.76951
 B1100 B 0.76634 0.74386 0.74435
 B1101 B 0.78079 0.76386 0.74865
 B1102 B 0.77038 0.77839 0.76838
 B1103 B 0.74889 0.76718 0.77616
 B1104 B 0.74642 0.74558 0.76124
 B1105 B 0.24949 0.25841 0.76458
 B1106 B 0.24605 0.27139 0.74189
 B1107 B 0.26369 0.25311 0.74278
 B1108 B 0.25492 0.23437 0.75795
 B1109 B 0.23147 0.24123 0.76615
 B1110 B 0.22613 0.26440 0.75637
 B1111 B 0.23164 0.23839 0.72220
 B1112 B 0.23477 0.22555 0.74492
 B1113 B 0.21729 0.24389 0.74400
 B1114 B 0.22607 0.26257 0.72886
 B1115 B 0.24952 0.25552 0.72050
 B1116 B 0.25495 0.23245 0.73055
 B1117 B 0.23967 0.74118 0.27608
 B1118 B 0.24339 0.72919 0.25230
 B1119 B 0.22659 0.74814 0.25418
 B1120 B 0.23532 0.76570 0.27156
 B1121 B 0.25811 0.75737 0.28014
 B1122 B 0.26308 0.73458 0.26809
 B1123 B 0.26018 0.76234 0.23651
 B1124 B 0.25645 0.77422 0.26037
 B1125 B 0.27322 0.75524 0.25829
 B1126 B 0.26444 0.73769 0.24093
 B1127 B 0.24173 0.74607 0.23236
 B1128 B 0.23674 0.76888 0.24442
 B1129 B 0.26706 0.72069 0.74055
 B1130 B 0.26162 0.71239 0.76522
 B1131 B 0.27792 0.73103 0.76239
 B1132 B 0.27016 0.74575 0.74223
 B1133 B 0.24860 0.73601 0.73258
 B1134 B 0.24326 0.71514 0.74687
 B1135 B 0.24251 0.74733 0.77477
 B1136 B 0.24799 0.75565 0.75014
 B1137 B 0.23166 0.73702 0.75284
 B1138 B 0.23935 0.72230 0.77309
 B1139 B 0.26102 0.73201 0.78275
 B1140 B 0.26633 0.75286 0.76846
 B1141 B 0.22785 0.25961 0.22275
 B1142 B 0.22959 0.27171 0.24664
 B1143 B 0.21382 0.25255 0.24383
 B1144 B 0.22437 0.23494 0.22724
 B1145 B 0.24723 0.24353 0.21990
 B1146 B 0.25047 0.26647 0.23201
 B1147 B 0.24704 0.23902 0.26361
 B1148 B 0.24499 0.22676 0.23984
 B1149 B 0.26093 0.24594 0.24257
 B1150 B 0.25037 0.26353 0.25919
 B1151 B 0.22753 0.25508 0.26642
 B1152 B 0.22432 0.23214 0.25456
 B1153 B 0.76341 0.75928 0.27285
 B1154 B 0.75824 0.77361 0.25159
 B1155 B 0.77526 0.75496 0.24909
 B1156 B 0.76772 0.73553 0.26398
 B1157 B 0.74539 0.74240 0.27556
 B1158 B 0.73954 0.76623 0.26784
 B1159 B 0.74088 0.74223 0.23175
 B1160 B 0.74613 0.72790 0.25294
 B1161 B 0.72904 0.74657 0.25547
 B1162 B 0.73663 0.76603 0.24058
 B1163 B 0.75887 0.75909 0.22899
 B1164 B 0.76480 0.73533 0.23674
 B1165 B 0.73633 0.24889 0.77551
 B1166 B 0.73925 0.23410 0.75325
 B1167 B 0.72356 0.25432 0.75311
 B1168 B 0.73393 0.27290 0.76794
 B1169 B 0.75617 0.26406 0.77716
 B1170 B 0.75928 0.23989 0.76832
 B1171 B 0.75799 0.26392 0.73319
 B1172 B 0.75546 0.27856 0.75535
 B1173 B 0.77081 0.25841 0.75566
 B1174 B 0.76056 0.23988 0.74080
 B1175 B 0.73823 0.24885 0.73141
 B1176 B 0.73524 0.27297 0.74051
 C1177 C 0.44105 1.03292 0.33258
 C1178 C 0.45347 1.03754 0.35000
 C1179 C 0.44580 1.03859 0.37110
 C1180 C 0.42529 1.03523 0.37434
 C1181 C 0.41296 1.03054 0.35699
 C1182 C 0.42075 1.02895 0.33599
 C1183 C 0.45980 1.04055 0.38947
 C1184 C 0.45379 1.04590 0.40941
 C1185 C 0.46531 1.04005 0.42848
 C1186 C 0.45555 1.02890 0.44399
 C1187 C 0.46613 1.02070 0.46095
 C1188 C 0.48659 1.02448 0.46374
 C1189 C 0.49627 1.03632 0.44846
 C1190 C 0.48575 1.04386 0.43079
 H1191 H 0.44749 1.03164 0.31656
 H1192 H 0.46923 1.03976 0.34706
 H1193 H 0.41875 1.03516 0.39029
 H1194 H 0.39733 1.02774 0.36008
 H1195 H 0.47506 1.03531 0.38693
 H1196 H 0.43862 1.05113 0.41226
 H1197 H 0.43986 1.02552 0.44227
 H1198 H 0.45819 1.01087 0.47150
 H1199 H 0.51210 1.03911 0.44962
 H1200 H 0.49357 1.05238 0.41883
 C1201 C -0.07175 0.53774 0.81540
 C1202 C -0.06089 0.54249 0.83400
 C1203 C -0.06875 0.53888 0.85450
 C1204 C -0.08769 0.53028 0.85601
 C1205 C -0.09846 0.52539 0.83754
 C1206 C -0.09068 0.52875 0.81676
 C1207 C -0.05627 0.54222 0.87392
 C1208 C -0.06428 0.54531 0.89356
 C1209 C -0.05305 0.54166 0.91353
 C1210 C -0.06236 0.53044 0.92933
 C1211 C -0.05186 0.52429 0.94733
 C1212 C -0.03200 0.53013 0.95079
 C1213 C -0.02293 0.54228 0.93536
 C1214 C -0.03330 0.54780 0.91672
 H1215 H -0.06464 0.54022 0.80002
 H1216 H -0.04614 0.54872 0.83236
 H1217 H -0.09411 0.52665 0.87143
 H1218 H -0.11317 0.51936 0.83988
 H1219 H -0.04024 0.54031 0.87218
 H1220 H -0.08028 0.54735 0.89525
 H1221 H -0.07751 0.52538 0.92711
 H1222 H -0.05928 0.51432 0.95817
 H1223 H -0.00759 0.54682 0.93719
 H1224 H -0.02584 0.55661 0.90474
 C1225 C 0.11172 -0.01021 0.84702
 C1226 C 0.10049 -0.00900 0.86597
 C1227 C 0.08316 -0.02027 0.86827
 C1228 C 0.07722 -0.03290 0.85116
 C1229 C 0.08839 -0.03392 0.83198
 C1230 C 0.10572 -0.02252 0.82976
 C1231 C 0.07136 -0.01731 0.88830
 C1232 C 0.05930 -0.03094 0.89687
 C1233 C 0.04892 -0.02719 0.91783
 C1234 C 0.03100 -0.03692 0.92245
 C1235 C 0.02047 -0.03253 0.94165
 C1236 C 0.02775 -0.01834 0.95657
 C1237 C 0.04604 -0.00920 0.95209
 C1238 C 0.05666 -0.01389 0.93335
 H1239 H 0.12480 -0.00101 0.84563
 H1240 H 0.10529 0.00095 0.87886
 H1241 H 0.06372 -0.04148 0.85225
 H1242 H 0.08345 -0.04351 0.81886
 H1243 H 0.07327 -0.00306 0.89657
 H1244 H 0.05683 -0.04502 0.88845
 H1245 H 0.02486 -0.04750 0.91093
 H1246 H 0.00643 -0.03983 0.94448
 H1247 H 0.05235 0.00172 0.96310
 H1248 H 0.07095 -0.00691 0.93117
 C1249 C 0.60829 0.48745 0.35344
 C1250 C 0.60049 0.48527 0.37409
 C1251 C 0.58229 0.47565 0.37724
 C1252 C 0.57211 0.46790 0.35924
 C1253 C 0.57987 0.47023 0.33846
 C1254 C 0.59794 0.48023 0.33537
 C1255 C 0.57368 0.47601 0.39922
 C1256 C 0.56020 0.46307 0.40650
 C1257 C 0.55079 0.46546 0.42817
 C1258 C 0.53193 0.45729 0.43198
 C1259 C 0.52150 0.46177 0.45118
 C1260 C 0.52972 0.47463 0.46689
 C1261 C 0.54911 0.48175 0.46345
 C1262 C 0.55970 0.47676 0.44474
 H1263 H 0.62208 0.49548 0.35156
 H1264 H 0.60851 0.49154 0.38767
 H1265 H 0.55781 0.46080 0.36101
 H1266 H 0.57164 0.46446 0.32479
 H1267 H 0.57859 0.48813 0.40957
 H1268 H 0.55502 0.45115 0.39599
 H1269 H 0.52483 0.44824 0.41965
 H1270 H 0.50660 0.45604 0.45312
 H1271 H 0.55603 0.49186 0.47489
 H1272 H 0.57464 0.48242 0.44321
 C1273 C 0.55168 0.51249 0.17728
 C1274 C 0.53828 0.51707 0.16091
 C1275 C 0.53956 0.53522 0.15008
 C1276 C 0.55356 0.54941 0.15697
 C1277 C 0.56678 0.54495 0.17364
 C1278 C 0.56632 0.52620 0.18344
 C1279 C 0.52713 0.53804 0.13075
 C1280 C 0.53401 0.54701 0.11314
 C1281 C 0.52466 0.54390 0.09185
 C1282 C 0.53705 0.54123 0.07377
 C1283 C 0.52925 0.53452 0.05418
 C1284 C 0.50878 0.53070 0.05199
 C1285 C 0.49615 0.53524 0.06977
 C1286 C 0.50399 0.54167 0.08948
 H1287 H 0.55093 0.49803 0.18482
 H1288 H 0.52754 0.50596 0.15597
 H1289 H 0.55457 0.56374 0.14921
 H1290 H 0.57794 0.55576 0.17821
 H1291 H 0.51353 0.52952 0.12971
 H1292 H 0.54864 0.55367 0.11348
 H1293 H 0.55303 0.54316 0.07512
 H1294 H 0.53955 0.53198 0.04113
 H1295 H 0.48023 0.53282 0.06893
 H1296 H 0.49395 0.54422 0.10303
 C1297 C 0.09143 0.98266 0.65826
 C1298 C 0.08036 0.98468 0.63949
 C1299 C 0.07753 1.00349 0.63023
 C1300 C 0.08552 1.02048 0.64057
 C1301 C 0.09666 1.01844 0.65947
 C1302 C 0.10008 0.99943 0.66821
 C1303 C 0.06781 1.00413 0.60892
 C1304 C 0.06027 1.02058 0.59967
 C1305 C 0.05184 1.01916 0.57772
 C1306 C 0.03389 1.02913 0.57272
 C1307 C 0.02442 1.02525 0.55301
 C1308 C 0.03291 1.01148 0.53794
 C1309 C 0.05166 1.00276 0.54254
 C1310 C 0.06107 1.00673 0.56200
 H1311 H 0.09349 0.96788 0.66485
 H1312 H 0.07434 0.97136 0.63190
 H1313 H 0.08395 1.03517 0.63370
 H1314 H 0.10329 1.03160 0.66673
 H1315 H 0.06668 0.98990 0.60031
 H1316 H 0.05927 1.03472 0.60844
 H1317 H 0.02666 1.03901 0.58453
 H1318 H 0.01001 1.03222 0.55011
 H1319 H 0.05883 0.99213 0.53149
 H1320 H 0.07528 0.99939 0.56511
 C1321 C -0.10149 0.46400 0.64246
 C1322 C -0.09182 0.45887 0.62307
 C1323 C -0.07287 0.46628 0.61845
 C1324 C -0.06353 0.47867 0.63381
 C1325 C -0.07333 0.48407 0.65307
 C1326 C -0.09261 0.47711 0.65748
 C1327 C -0.06447 0.46320 0.59652
 C1328 C -0.04486 0.46338 0.59211
 C1329 C -0.03712 0.46555 0.56992
 C1330 C -0.01813 0.45787 0.56426
 C1331 C -0.00945 0.46236 0.54437
 C1332 C -0.01945 0.47503 0.52996
 C1333 C -0.03865 0.48234 0.53565
 C1334 C -0.04745 0.47749 0.55518
 H1335 H -0.11610 0.45794 0.64548
 H1336 H -0.09936 0.44939 0.61143
 H1337 H -0.04916 0.48513 0.63049
 H1338 H -0.06612 0.49444 0.66402
 H1339 H -0.07498 0.46164 0.58341
 H1340 H -0.03417 0.46301 0.60513
 H1341 H -0.00976 0.44888 0.57552
 H1342 H 0.00549 0.45677 0.54088
 H1343 H -0.04667 0.49267 0.52549
 H1344 H -0.06181 0.48425 0.55928
 C1345 C 0.40339 -0.03718 0.16433
 C1346 C 0.41263 -0.04152 0.14451
 C1347 C 0.43108 -0.03319 0.13942
 C1348 C 0.44035 -0.02067 0.15471
 C1349 C 0.43096 -0.01606 0.17439
 C1350 C 0.41218 -0.02397 0.17932
 C1351 C 0.43894 -0.03548 0.11720
 C1352 C 0.45839 -0.03456 0.11228
 C1353 C 0.46547 -0.03146 0.09001
 C1354 C 0.48446 -0.03851 0.08352
 C1355 C 0.49247 -0.03318 0.06359
 C1356 C 0.48179 -0.02027 0.04999
 C1357 C 0.46260 -0.01357 0.05651
 C1358 C 0.45447 -0.01926 0.07608
 H1359 H 0.38918 -0.04396 0.16773
 H1360 H 0.40516 -0.05110 0.13292
 H1361 H 0.45430 -0.01352 0.15103
 H1362 H 0.43804 -0.00556 0.18530
 H1363 H 0.42813 -0.03699 0.10436
 H1364 H 0.46942 -0.03497 0.12496
 H1365 H 0.49333 -0.04769 0.09415
 H1366 H 0.50741 -0.03837 0.05940
 H1367 H 0.45405 -0.00316 0.04693
 H1368 H 0.44006 -0.01300 0.08086
 C1369 C 0.33160 0.42554 0.03457
 C1370 C 0.35076 0.43286 0.03788
 C1371 C 0.35709 0.44996 0.02724
 C1372 C 0.34381 0.45977 0.01334
 C1373 C 0.32471 0.45232 0.00984
 C1374 C 0.31846 0.43496 0.02020
 C1375 C 0.37814 0.45599 0.02929
 C1376 C 0.38417 0.47481 0.02671
 C1377 C 0.40552 0.47998 0.02582
 C1378 C 0.41150 0.49909 0.03258
 C1379 C 0.43142 0.50473 0.03044
 C1380 C 0.44575 0.49146 0.02110
 C1381 C 0.43956 0.47232 0.01434
 C1382 C 0.41978 0.46662 0.01673
 H1383 H 0.32716 0.41234 0.04310
 H1384 H 0.36078 0.42500 0.04858
 H1385 H 0.34843 0.47263 0.00435
 H1386 H 0.31516 0.45972 -0.00166
 H1387 H 0.38903 0.44440 0.03298
 H1388 H 0.37323 0.48683 0.02519
 H1389 H 0.40070 0.50972 0.03939
 H1390 H 0.43539 0.51967 0.03569
 H1391 H 0.44977 0.46184 0.00639
 H1392 H 0.41554 0.45203 0.01058
 C1393 C -0.14868 0.91666 0.52036
 C1394 C -0.12923 0.92358 0.52141
 C1395 C -0.12550 0.94386 0.52564
 C1396 C -0.14180 0.95708 0.52955
 C1397 C -0.16140 0.95008 0.52863
 C1398 C -0.16505 0.92980 0.52383
 C1399 C -0.10443 0.95023 0.52490
 C1400 C -0.09843 0.96919 0.52313
 C1401 C -0.07727 0.97378 0.51867
 C1402 C -0.06906 0.99158 0.52668
 C1403 C -0.04912 0.99611 0.52228
 C1404 C -0.03708 0.98302 0.50948
 C1405 C -0.04563 0.96545 0.50111
 C1406 C -0.06540 0.96092 0.50557
 H1407 H -0.15085 0.90105 0.51612
 H1408 H -0.11701 0.91306 0.51825
 H1409 H -0.13961 0.97276 0.53329
 H1410 H -0.17368 0.96053 0.53165
 H1411 H -0.09320 0.93835 0.52447
 H1412 H -0.10898 0.98159 0.52433
 H1413 H -0.07804 1.00190 0.53651
 H1414 H -0.04324 1.00991 0.52888
 H1415 H -0.03721 0.95514 0.49080
 H1416 H -0.07146 0.94749 0.49830
 C1417 C -0.17169 0.03601 0.95969
 C1418 C -0.15371 0.02490 0.95857
 C1419 C -0.13536 0.03469 0.95862
 C1420 C -0.13532 0.05565 0.95745
 C1421 C -0.15308 0.06671 0.95888
 C1422 C -0.17158 0.05717 0.96119
 C1423 C -0.11642 0.02331 0.96174
 C1424 C -0.10243 0.03089 0.97479
 C1425 C -0.08282 0.02160 0.97984
 C1426 C -0.07197 0.03058 0.99649
 C1427 C -0.05264 0.02424 1.00097
 C1428 C -0.04336 0.00850 0.98904
 C1429 C -0.05446 -0.00103 0.97268
 C1430 C -0.07402 0.00548 0.96806
 H1431 H -0.18543 0.02786 0.96127
 H1432 H -0.15411 0.00871 0.95908
 H1433 H -0.12141 0.06359 0.95623
 H1434 H -0.15217 0.08285 0.95825
 H1435 H -0.11472 0.00842 0.95471
 H1436 H -0.10574 0.04507 0.98297
 H1437 H -0.07823 0.04315 1.00573
 H1438 H -0.04472 0.03273 1.01302
 H1439 H -0.04785 -0.01308 0.96298
 H1440 H -0.08184 -0.00167 0.95489
 C1441 C 0.34898 0.57748 0.46932
 C1442 C 0.36810 0.56915 0.46699
 C1443 C 0.37132 0.54837 0.46828
 C1444 C 0.35463 0.53594 0.47039
 C1445 C 0.33536 0.54436 0.47251
 C1446 C 0.33253 0.56523 0.47276
 C1447 C 0.39234 0.54103 0.46952
 C1448 C 0.39817 0.52203 0.47294
 C1449 C 0.41910 0.51693 0.47856
 C1450 C 0.42753 0.49834 0.47225
 C1451 C 0.44712 0.49321 0.47808
 C1452 C 0.45858 0.50645 0.49070
 C1453 C 0.44978 0.52485 0.49736
 C1454 C 0.43039 0.53002 0.49138
 H1455 H 0.34710 0.59363 0.46926
 H1456 H 0.38057 0.57911 0.46521
 H1457 H 0.35628 0.51987 0.47129
 H1458 H 0.32284 0.53464 0.47518
 H1459 H 0.40375 0.55233 0.46897
 H1460 H 0.38763 0.50998 0.47222
 H1461 H 0.41898 0.48784 0.46268
 H1462 H 0.45316 0.47879 0.47278
 H1463 H 0.45765 0.53526 0.50763
 H1464 H 0.42408 0.54410 0.49737
 C1465 C 0.15881 0.57563 0.51387
 C1466 C 0.13961 0.56800 0.51400
 C1467 C 0.13652 0.54738 0.51566
 C1468 C 0.15326 0.53447 0.51765
 C1469 C 0.17261 0.54218 0.51763
 C1470 C 0.17560 0.56287 0.51568
 C1471 C 0.11560 0.54045 0.51459
 C1472 C 0.10997 0.52138 0.51191
 C1473 C 0.08881 0.51626 0.50804
 C1474 C 0.08144 0.49787 0.51480
 C1475 C 0.06152 0.49281 0.51095
 C1476 C 0.04862 0.50597 0.50000
 C1477 C 0.05630 0.52420 0.49294
 C1478 C 0.07605 0.52923 0.49679
 H1479 H 0.16049 0.59157 0.51181
 H1480 H 0.12707 0.57831 0.51232
 H1481 H 0.15161 0.51851 0.51926
 H1482 H 0.18523 0.53197 0.51926
 H1483 H 0.10411 0.55207 0.51522
 H1484 H 0.12081 0.50922 0.51223
 H1485 H 0.09106 0.48747 0.52320
 H1486 H 0.05634 0.47855 0.51650
 H1487 H 0.04725 0.53459 0.48395
 H1488 H 0.08139 0.54313 0.49042
 C1489 C 0.65911 0.07975 0.01141
 C1490 C 0.63992 0.07292 0.01515
 C1491 C 0.63689 0.05363 0.02282
 C1492 C 0.65360 0.04130 0.02711
 C1493 C 0.67296 0.04827 0.02361
 C1494 C 0.67592 0.06762 0.01571
 C1495 C 0.61602 0.04728 0.02568
 C1496 C 0.61002 0.02825 0.02442
 C1497 C 0.58858 0.02330 0.02287
 C1498 C 0.58178 0.00489 0.03024
 C1499 C 0.56170 -0.00027 0.02794
 C1500 C 0.54803 0.01280 0.01794
 C1501 C 0.55507 0.03114 0.01047
 C1502 C 0.57498 0.03626 0.01277
 H1503 H 0.66070 0.09450 0.00477
 H1504 H 0.62731 0.08267 0.01156
 H1505 H 0.65181 0.02646 0.03343
 H1506 H 0.68559 0.03864 0.02734
 H1507 H 0.60487 0.05917 0.02719
 H1508 H 0.62085 0.01604 0.02348
 H1509 H 0.59205 -0.00552 0.03776
 H1510 H 0.55702 -0.01463 0.03375
 H1511 H 0.54540 0.04146 0.00212
 H1512 H 0.57975 0.05015 0.00589
 C1513 C 0.68338 0.96055 0.47141
 C1514 C 0.66507 0.97060 0.46864
 C1515 C 0.64827 0.96012 0.46149
 C1516 C 0.65063 0.93985 0.45512
 C1517 C 0.66878 0.92979 0.45817
 C1518 C 0.68506 0.93990 0.46703
 C1519 C 0.62826 0.97002 0.46275
 C1520 C 0.61191 0.95959 0.46746
 C1521 C 0.59209 0.96853 0.47292
 C1522 C 0.57900 0.95697 0.48492
 C1523 C 0.56026 0.96443 0.49098
 C1524 C 0.55379 0.98367 0.48499
 C1525 C 0.56685 0.99525 0.47269
 C1526 C 0.58583 0.98778 0.46672
 H1527 H 0.69582 0.96857 0.47827
 H1528 H 0.66371 0.98627 0.47338
 H1529 H 0.63828 0.93150 0.44857
 H1530 H 0.66992 0.91390 0.45443
 H1531 H 0.62747 0.98621 0.46254
 H1532 H 0.61343 0.94359 0.46962
 H1533 H 0.58340 0.94210 0.48996
 H1534 H 0.55100 0.95501 0.50065
 H1535 H 0.56246 1.01010 0.46765
 H1536 H 0.59539 0.99699 0.45709
 C1537 C 0.16489 0.46026 0.95572
 C1538 C 0.14725 0.47100 0.95143
 C1539 C 0.13560 0.47905 0.96843
 C1540 C 0.14275 0.47782 0.98961
 C1541 C 0.16034 0.46722 0.99388
 C1542 C 0.17118 0.45763 0.97709
 C1543 C 0.11507 0.48651 0.96437
 C1544 C 0.10008 0.48006 0.97661
 C1545 C 0.07874 0.48500 0.97363
 C1546 C 0.06497 0.47135 0.98128
 C1547 C 0.04477 0.47625 0.98227
 C1548 C 0.03758 0.49512 0.97576
 C1549 C 0.05132 0.50846 0.96690
 C1550 C 0.07178 0.50344 0.96580
 H1551 H 0.17294 0.45304 0.94244
 H1552 H 0.14202 0.47186 0.93498
 H1553 H 0.13424 0.48435 1.00296
 H1554 H 0.16512 0.46594 1.01044
 H1555 H 0.11208 0.49538 0.95031
 H1556 H 0.10354 0.46947 0.98914
 H1557 H 0.06997 0.45709 0.98752
 H1558 H 0.03521 0.46567 0.98994
 H1559 H 0.04649 0.52317 0.96181
 H1560 H 0.08215 0.51439 0.96003
 C1561 C 0.00591 0.31741 0.44720
 C1562 C 0.00711 0.33581 0.45833
 C1563 C -0.00341 0.35274 0.45114
 C1564 C -0.01494 0.35091 0.43230
 C1565 C -0.01617 0.33257 0.42124
 C1566 C -0.00576 0.31559 0.42851
 C1567 C -0.00105 0.37231 0.46263
 C1568 C -0.01459 0.38726 0.46134
 C1569 C -0.01112 0.40802 0.46902
 C1570 C -0.01983 0.42354 0.45733
 C1571 C -0.01658 0.44344 0.46306
 C1572 C -0.00512 0.44853 0.48126
 C1573 C 0.00336 0.43293 0.49331
 C1574 C 0.00048 0.41282 0.48718
 H1575 H 0.01406 0.30458 0.45326
 H1576 H 0.01630 0.33683 0.47260
 H1577 H -0.02255 0.36371 0.42553
 H1578 H -0.02482 0.33185 0.40658
 H1579 H 0.01255 0.37462 0.47162
 H1580 H -0.02828 0.38482 0.45259
 H1581 H -0.02882 0.42025 0.44328
 H1582 H -0.02324 0.45484 0.45312
 H1583 H 0.01243 0.43622 0.50726
 H1584 H 0.00716 0.40113 0.49672
 C1585 C 0.51698 -0.17389 -0.04154
 C1586 C 0.51672 -0.15642 -0.02862
 C1587 C 0.50687 -0.13901 -0.03555
 C1588 C 0.49790 -0.13919 -0.05598
 C1589 C 0.49823 -0.15653 -0.06888
 C1590 C 0.50760 -0.17416 -0.06178
 C1591 C 0.50704 -0.12048 -0.02195
 C1592 C 0.49210 -0.10688 -0.02255
 C1593 C 0.49317 -0.08635 -0.01328
 C1594 C 0.48225 -0.07128 -0.02350
 C1595 C 0.48381 -0.05137 -0.01688
 C1596 C 0.49579 -0.04591 0.00078
 C1597 C 0.50621 -0.06114 0.01162
 C1598 C 0.50499 -0.08120 0.00460
 H1599 H 0.52429 -0.18724 -0.03558
 H1600 H 0.52402 -0.15657 -0.01310
 H1601 H 0.49100 -0.12580 -0.06235
 H1602 H 0.49144 -0.15599 -0.08464
 H1603 H 0.52004 -0.11776 -0.01212
 H1604 H 0.47907 -0.11018 -0.03216
 H1605 H 0.47303 -0.07482 -0.03730
 H1606 H 0.47575 -0.04022 -0.02597
 H1607 H 0.51574 -0.05755 0.02512
 H1608 H 0.51334 -0.09255 0.01310
 C1609 C 0.01737 -0.15301 1.08618
 C1610 C 0.01972 -0.13516 1.07525
 C1611 C 0.01228 -0.13291 1.05433
 C1612 C 0.00232 -0.14906 1.04452
 C1613 C -0.00011 -0.16699 1.05555
 C1614 C 0.00731 -0.16913 1.07658
 C1615 C 0.01453 -0.11315 1.04415
 C1616 C 0.01256 -0.10953 1.02303
 C1617 C 0.01442 -0.08901 1.01443
 C1618 C 0.00335 -0.08338 0.99632
 C1619 C 0.00276 -0.06336 0.98984
 C1620 C 0.01331 -0.04860 1.00134
 C1621 C 0.02552 -0.05471 1.01848
 C1622 C 0.02635 -0.07462 1.02467
 H1623 H 0.02365 -0.15424 1.10214
 H1624 H 0.02746 -0.12300 1.08322
 H1625 H -0.00405 -0.14783 1.02864
 H1626 H -0.00816 -0.17902 1.04778
 H1627 H 0.01786 -0.10081 1.05504
 H1628 H 0.00860 -0.12145 1.01189
 H1629 H -0.00571 -0.09425 0.98788
 H1630 H -0.00690 -0.05934 0.97664
 H1631 H 0.03375 -0.04397 1.02803
 H1632 H 0.03589 -0.07851 1.03801
 C1633 C 0.48589 0.32488 0.55588
 C1634 C 0.48735 0.34170 0.54287
 C1635 C 0.49985 0.35753 0.54870
 C1636 C 0.51062 0.35635 0.56807
 C1637 C 0.50912 0.33963 0.58105
 C1638 C 0.49671 0.32372 0.57518
 C1639 C 0.50028 0.37570 0.53528
 C1640 C 0.51573 0.38819 0.53538
 C1641 C 0.51467 0.40856 0.52657
 C1642 C 0.52422 0.42382 0.53805
 C1643 C 0.52234 0.44362 0.53179
 C1644 C 0.51158 0.44873 0.51320
 C1645 C 0.50262 0.43326 0.50112
 C1646 C 0.50401 0.41334 0.50785
 H1647 H 0.47599 0.31297 0.55106
 H1648 H 0.47863 0.34237 0.52825
 H1649 H 0.51982 0.36852 0.57367
 H1650 H 0.51776 0.33914 0.59573
 H1651 H 0.48707 0.37934 0.52606
 H1652 H 0.52899 0.38442 0.54442
 H1653 H 0.53247 0.42051 0.55256
 H1654 H 0.52911 0.45497 0.54190
 H1655 H 0.49405 0.43658 0.48687
 H1656 H 0.49671 0.40177 0.49850
 C1657 C 0.47687 1.16466 0.57352
 C1658 C 0.47644 1.14668 0.56168
 C1659 C 0.49421 1.13651 0.55589
 C1660 C 0.51254 1.14475 0.56209
 C1661 C 0.51298 1.16264 0.57419
 C1662 C 0.49512 1.17272 0.58027
 C1663 C 0.49299 1.11648 0.54541
 C1664 C 0.50742 1.10827 0.53286
 C1665 C 0.50669 1.08717 0.52513
 C1666 C 0.51534 1.08145 0.50526
 C1667 C 0.51548 1.06134 0.49830
 C1668 C 0.50727 1.04653 0.51132
 C1669 C 0.49889 1.05240 0.53138
 C1670 C 0.49849 1.07241 0.53811
 H1671 H 0.46285 1.17219 0.57749
 H1672 H 0.46214 1.14058 0.55718
 H1673 H 0.52651 1.13699 0.55844
 H1674 H 0.52728 1.16819 0.57940
 H1675 H 0.47952 1.10814 0.54825
 H1676 H 0.52004 1.11711 0.52807
 H1677 H 0.52202 1.09255 0.49512
 H1678 H 0.52235 1.05741 0.48295
 H1679 H 0.49261 1.04153 0.54206
 H1680 H 0.49229 1.07618 0.55385
 C1681 C 0.02118 0.66870 1.06045
 C1682 C 0.02043 0.65207 1.04638
 C1683 C 0.00232 0.64642 1.03696
 C1684 C -0.01485 0.65836 1.04101
 C1685 C -0.01408 0.67500 1.05498
 C1686 C 0.00384 0.68017 1.06522
 C1687 C 0.00166 0.62766 1.02373
 C1688 C -0.01450 0.61609 1.02328
 C1689 C -0.01433 0.59554 1.01389
 C1690 C -0.02489 0.58088 1.02470
 C1691 C -0.02416 0.56101 1.01749
 C1692 C -0.01354 0.55530 0.99862
 C1693 C -0.00354 0.57022 0.98726
 C1694 C -0.00380 0.59015 0.99493
 H1695 H 0.03522 0.67218 1.06810
 H1696 H 0.03389 0.64319 1.04344
 H1697 H -0.02891 0.65488 1.03342
 H1698 H -0.02758 0.68385 1.05776
 H1699 H 0.01542 0.62212 1.01633
 H1700 H -0.02758 0.62063 1.03261
 H1701 H -0.03313 0.58467 1.03934
 H1702 H -0.03175 0.55007 1.02703
 H1703 H 0.00496 0.56644 0.97282
 H1704 H 0.00425 0.60129 0.98609
 C1705 C 0.49409 0.65777 -0.08125
 C1706 C 0.49146 0.63985 -0.07056
 C1707 C 0.50164 0.63596 -0.05137
 C1708 C 0.51479 0.65043 -0.04316
 C1709 C 0.51747 0.66842 -0.05394
 C1710 C 0.50716 0.67226 -0.07314
 C1711 C 0.49831 0.61644 -0.04110
 C1712 C 0.50298 0.61208 -0.02070
 C1713 C 0.49893 0.59215 -0.01166
 C1714 C 0.51165 0.58424 0.00401
 C1715 C 0.50912 0.56473 0.01127
 C1716 C 0.49382 0.55267 0.00297
 C1717 C 0.48029 0.56127 -0.01163
 C1718 C 0.48273 0.58073 -0.01873
 H1719 H 0.48561 0.66039 -0.09575
 H1720 H 0.48124 0.62901 -0.07727
 H1721 H 0.52331 0.64787 -0.02871
 H1722 H 0.52784 0.67919 -0.04743
 H1723 H 0.49143 0.60506 -0.05111
 H1724 H 0.51045 0.62288 -0.01051
 H1725 H 0.52407 0.59287 0.00999
 H1726 H 0.51986 0.55885 0.02243
 H1727 H 0.46799 0.55289 -0.01822
 H1728 H 0.47198 0.58668 -0.02998
 C1729 C -0.01672 1.15440 0.43783
 C1730 C -0.01542 1.13790 0.45128
 C1731 C 0.00298 1.13162 0.45958
 C1732 C 0.02000 1.14282 0.45504
 C1733 C 0.01874 1.15945 0.44174
 C1734 C 0.00039 1.16540 0.43244
 C1735 C 0.00391 1.11297 0.47217
 C1736 C 0.01996 1.10069 0.47187
 C1737 C 0.01944 1.08004 0.48003
 C1738 C 0.02987 1.06500 0.46843
 C1739 C 0.02826 1.04502 0.47403
 C1740 C 0.01682 1.03950 0.49202
 C1741 C 0.00707 1.05475 0.50429
 C1742 C 0.00827 1.07483 0.49828
 H1743 H -0.03141 1.15870 0.43224
 H1744 H -0.02884 1.12973 0.45482
 H1745 H 0.03439 1.13869 0.46161
 H1746 H 0.03251 1.16689 0.43804
 H1747 H -0.00980 1.10799 0.47953
 H1748 H 0.03299 1.10467 0.46261
 H1749 H 0.03857 1.06863 0.45431
 H1750 H 0.03569 1.03384 0.46382
 H1751 H -0.00206 1.05116 0.51806
 H1752 H 0.00031 1.08622 0.50774
 C1753 C 0.75949 0.65612 0.89225
 C1754 C 0.76396 0.66551 0.87304
 C1755 C 0.77288 0.68436 0.87315
 C1756 C 0.77778 0.69348 0.89301
 C1757 C 0.77323 0.68404 0.91235
 C1758 C 0.76367 0.66544 0.91213
 C1759 C 0.77489 0.69442 0.85228
 C1760 C 0.78704 0.70970 0.84816
 C1761 C 0.78666 0.71974 0.82701
 C1762 C 0.79101 0.74018 0.82576
 C1763 C 0.78724 0.75063 0.80677
 C1764 C 0.77892 0.74080 0.78873
 C1765 C 0.77587 0.72005 0.78982
 C1766 C 0.78036 0.70958 0.80830
 H1767 H 0.75255 0.64160 0.89153
 H1768 H 0.76008 0.65813 0.85797
 H1769 H 0.78430 0.70817 0.89375
 H1770 H 0.77650 0.69163 0.92746
 H1771 H 0.76508 0.68900 0.83976
 H1772 H 0.79645 0.71579 0.86070
 H1773 H 0.79619 0.74833 0.83985
 H1774 H 0.78957 0.76662 0.80680
 H1775 H 0.76879 0.71181 0.77691
 H1776 H 0.77787 0.69362 0.80808
 C1777 C 0.24424 0.14791 0.39293
 C1778 C 0.24375 0.15852 0.37385
 C1779 C 0.25915 0.17157 0.36869
 C1780 C 0.27543 0.17342 0.38275
 C1781 C 0.27586 0.16285 0.40199
 C1782 C 0.26004 0.15031 0.40748
 C1783 C 0.25655 0.18430 0.34970
 C1784 C 0.27143 0.19305 0.33912
 C1785 C 0.26701 0.20640 0.32101
 C1786 C 0.27858 0.20530 0.30215
 C1787 C 0.27294 0.21629 0.28413
 C1788 C 0.25572 0.22873 0.28477
 C1789 C 0.24506 0.23075 0.30433
 C1790 C 0.25064 0.21976 0.32218
 H1791 H 0.23204 0.13804 0.39647
 H1792 H 0.23106 0.15683 0.36326
 H1793 H 0.28734 0.18368 0.37949
 H1794 H 0.28814 0.16516 0.41298
 H1795 H 0.24140 0.18639 0.34397
 H1796 H 0.28686 0.18969 0.34295
 H1797 H 0.29138 0.19519 0.30100
 H1798 H 0.28149 0.21410 0.26944
 H1799 H 0.23188 0.24027 0.30585
 H1800 H 0.24183 0.22139 0.33681
 C1801 C 0.72095 0.31723 0.41938
 C1802 C 0.71713 0.30694 0.39999
 C1803 C 0.72105 0.31581 0.38012
 C1804 C 0.72908 0.33515 0.38007
 C1805 C 0.73285 0.34539 0.39938
 C1806 C 0.72888 0.33658 0.41926
 C1807 C 0.71835 0.30393 0.35990
 C1808 C 0.71662 0.31230 0.34052
 C1809 C 0.71881 0.30068 0.32013
 C1810 C 0.72928 0.30933 0.30322
 C1811 C 0.73391 0.29822 0.28459
 C1812 C 0.72745 0.27838 0.28193
 C1813 C 0.71603 0.27006 0.29852
 C1814 C 0.71183 0.28107 0.31750
 H1815 H 0.71766 0.31007 0.43445
 H1816 H 0.71123 0.29196 0.40051
 H1817 H 0.73324 0.34225 0.36525
 H1818 H 0.73950 0.36004 0.39871
 H1819 H 0.71904 0.28777 0.36099
 H1820 H 0.71585 0.32842 0.33930
 H1821 H 0.73485 0.32441 0.30491
 H1822 H 0.74321 0.30509 0.27261
 H1823 H 0.71100 0.25478 0.29730
 H1824 H 0.70341 0.27414 0.33019
 C1825 C 0.24513 0.84441 0.90271
 C1826 C 0.24380 0.83432 0.88295
 C1827 C 0.23240 0.81699 0.88078
 C1828 C 0.22222 0.80990 0.89893
 C1829 C 0.22369 0.82000 0.91888
 C1830 C 0.23520 0.83734 0.92093
 C1831 C 0.23290 0.80634 0.85966
 C1832 C 0.21940 0.79312 0.85262
 C1833 C 0.22175 0.78285 0.83129
 C1834 C 0.21520 0.76314 0.82831
 C1835 C 0.22023 0.75220 0.80946
 C1836 C 0.23192 0.76082 0.79328
 C1837 C 0.23714 0.78105 0.79583
 C1838 C 0.23169 0.79203 0.81424
 H1839 H 0.25441 0.85750 0.90385
 H1840 H 0.25193 0.83999 0.86929
 H1841 H 0.21364 0.79636 0.89799
 H1842 H 0.21587 0.81424 0.93269
 H1843 H 0.24546 0.80970 0.84939
 H1844 H 0.20709 0.78897 0.86286
 H1845 H 0.20720 0.75583 0.84106
 H1846 H 0.21601 0.73665 0.80825
 H1847 H 0.24643 0.78832 0.78414
 H1848 H 0.23609 0.80752 0.81540
 C1849 C 0.28131 0.81346 0.08141
 C1850 C 0.28511 0.80185 0.09955
 C1851 C 0.28161 0.80970 0.12035
 C1852 C 0.27413 0.82942 0.12266
 C1853 C 0.27019 0.84095 0.10468
 C1854 C 0.27337 0.83317 0.08358
 C1855 C 0.28379 0.79661 0.13927
 C1856 C 0.28691 0.80410 0.15911
 C1857 C 0.28170 0.79315 0.17865
 C1858 C 0.26944 0.80307 0.19383
 C1859 C 0.26272 0.79321 0.21188
 C1860 C 0.26902 0.77343 0.21601
 C1861 C 0.28166 0.76352 0.20087
 C1862 C 0.28779 0.77325 0.18216
 H1863 H 0.28361 0.80639 0.06575
 H1864 H 0.29049 0.78655 0.09731
 H1865 H 0.27059 0.83593 0.13834
 H1866 H 0.26500 0.85618 0.10763
 H1867 H 0.28084 0.78080 0.13709
 H1868 H 0.28996 0.81987 0.16131
 H1869 H 0.26436 0.81833 0.19126
 H1870 H 0.25242 0.80125 0.22255
 H1871 H 0.28644 0.74816 0.20317
 H1872 H 0.29726 0.76532 0.17052
 C1873 C 0.78954 0.34255 0.59379
 C1874 C 0.79278 0.33361 0.61364
 C1875 C 0.78331 0.31582 0.61883
 C1876 C 0.77080 0.30679 0.60352
 C1877 C 0.76726 0.31585 0.58375
 C1878 C 0.77624 0.33419 0.57862
 C1879 C 0.78458 0.30866 0.64119
 C1880 C 0.78170 0.28962 0.64674
 C1881 C 0.77827 0.28406 0.66942
 C1882 C 0.78373 0.26491 0.67648
 C1883 C 0.77846 0.25881 0.69721
 C1884 C 0.76724 0.27165 0.71110
 C1885 C 0.76194 0.29085 0.70385
 C1886 C 0.76755 0.29704 0.68346
 H1887 H 0.79649 0.35679 0.59122
 H1888 H 0.80226 0.34101 0.62531
 H1889 H 0.76298 0.29320 0.60711
 H1890 H 0.75757 0.30823 0.57252
 H1891 H 0.78721 0.31982 0.65372
 H1892 H 0.78099 0.27794 0.63443
 H1893 H 0.79173 0.25452 0.66579
 H1894 H 0.78247 0.24378 0.70196
 H1895 H 0.75277 0.30103 0.71360
 H1896 H 0.76244 0.31163 0.67831
 C1897 C 0.23914 0.18953 0.56871
 C1898 C 0.23315 0.20220 0.58588
 C1899 C 0.21868 0.19609 0.60070
 C1900 C 0.20924 0.17767 0.59710
 C1901 C 0.21530 0.16499 0.58007
 C1902 C 0.23070 0.17053 0.56607
 C1903 C 0.21524 0.20821 0.62070
 C1904 C 0.21130 0.19951 0.63947
 C1905 C 0.21487 0.20960 0.66035
 C1906 C 0.22672 0.19948 0.67515
 C1907 C 0.23186 0.20867 0.69453
 C1908 C 0.22434 0.22789 0.70030
 C1909 C 0.21202 0.23794 0.68555
 C1910 C 0.20749 0.22894 0.66556
 H1911 H 0.25097 0.19423 0.55809
 H1912 H 0.24056 0.21636 0.58821
 H1913 H 0.19747 0.17282 0.60770
 H1914 H 0.20810 0.15069 0.57798
 H1915 H 0.21934 0.22384 0.62077
 H1916 H 0.20943 0.18345 0.63985
 H1917 H 0.23273 0.18466 0.67132
 H1918 H 0.24198 0.20060 0.70489
 H1919 H 0.20630 0.25289 0.68917
 H1920 H 0.19829 0.23699 0.65424
 C1921 C 0.73893 0.69605 0.07527
 C1922 C 0.73808 0.70741 0.09438
 C1923 C 0.72515 0.70231 0.11109
 C1924 C 0.71255 0.68594 0.10818
 C1925 C 0.71363 0.67428 0.08924
 C1926 C 0.72720 0.67881 0.07258
 C1927 C 0.72742 0.71229 0.13231
 C1928 C 0.71290 0.71409 0.14717
 C1929 C 0.71799 0.72017 0.16937
 C1930 C 0.70839 0.73651 0.17978
 C1931 C 0.71505 0.74328 0.20000
 C1932 C 0.73106 0.73345 0.21023
 C1933 C 0.73974 0.71635 0.20004
 C1934 C 0.73332 0.70987 0.17990
 H1935 H 0.74998 0.70009 0.06344
 H1936 H 0.74814 0.71983 0.09643
 H1937 H 0.70258 0.68147 0.12092
 H1938 H 0.70365 0.66177 0.08776
 H1939 H 0.74220 0.71759 0.13632
 H1940 H 0.69760 0.71054 0.14333
 H1941 H 0.69644 0.74457 0.17186
 H1942 H 0.70814 0.75657 0.20717
 H1943 H 0.75191 0.70811 0.20733
 H1944 H 0.74065 0.69695 0.17228
 C1945 C 0.20594 0.57825 0.21641
 C1946 C 0.21664 0.59613 0.21671
 C1947 C 0.20736 0.61416 0.22357
 C1948 C 0.18694 0.61420 0.22897
 C1949 C 0.17632 0.59647 0.22871
 C1950 C 0.18569 0.57821 0.22268
 C1951 C 0.21891 0.63287 0.22529
 C1952 C 0.21499 0.64621 0.24124
 C1953 C 0.22320 0.66659 0.24323
 C1954 C 0.21287 0.68019 0.25679
 C1955 C 0.21922 0.69973 0.25939
 C1956 C 0.23642 0.70644 0.24880
 C1957 C 0.24697 0.69275 0.23521
 C1958 C 0.24040 0.67299 0.23237
 H1959 H 0.21350 0.56447 0.21138
 H1960 H 0.23227 0.59580 0.21214
 H1961 H 0.17911 0.62796 0.23358
 H1962 H 0.16084 0.59704 0.23383
 H1963 H 0.23035 0.63555 0.21338
 H1964 H 0.20401 0.64238 0.25331
 H1965 H 0.19950 0.67578 0.26526
 H1966 H 0.21027 0.70959 0.26968
 H1967 H 0.26026 0.69727 0.22673
 H1968 H 0.24890 0.66283 0.22193
 C1969 C 0.66778 0.09899 0.72286
 C1970 C 0.67720 0.11742 0.72165
 C1971 C 0.69461 0.12121 0.73331
 C1972 C 0.70307 0.10565 0.74537
 C1973 C 0.69366 0.08715 0.74664
 C1974 C 0.67547 0.08355 0.73586
 C1975 C 0.70310 0.14161 0.73249
 C1976 C 0.71599 0.14900 0.74700
 C1977 C 0.72261 0.17015 0.74751
 C1978 C 0.73126 0.17773 0.76645
 C1979 C 0.73677 0.19778 0.76817
 C1980 C 0.73325 0.21099 0.75118
 C1981 C 0.72588 0.20303 0.73167
 C1982 C 0.72054 0.18293 0.72986
 H1983 H 0.65463 0.09696 0.71311
 H1984 H 0.67059 0.12893 0.71176
 H1985 H 0.71685 0.10761 0.75406
 H1986 H 0.70032 0.07619 0.75711
 H1987 H 0.69711 0.15131 0.72030
 H1988 H 0.72084 0.13976 0.76014
 H1989 H 0.73356 0.16816 0.78013
 H1990 H 0.74354 0.20295 0.78301
 H1991 H 0.72380 0.21239 0.71781
 H1992 H 0.71491 0.17761 0.71455
 C1993 C 0.81708 0.09065 0.28927
 C1994 C 0.80815 0.10964 0.29217
 C1995 C 0.79768 0.11858 0.27526
 C1996 C 0.79635 0.10824 0.25536
 C1997 C 0.80540 0.08945 0.25242
 C1998 C 0.81603 0.08059 0.26923
 C1999 C 0.78972 0.13929 0.27790
 C2000 C 0.77347 0.14549 0.26726
 C2001 C 0.76709 0.16669 0.26499
 C2002 C 0.75288 0.17094 0.24919
 C2003 C 0.74764 0.19063 0.24455
 C2004 C 0.75656 0.20673 0.25551
 C2005 C 0.76983 0.20250 0.27239
 C2006 C 0.77522 0.18270 0.27697
 H2007 H 0.82541 0.08416 0.30237
 H2008 H 0.80960 0.11745 0.30752
 H2009 H 0.78900 0.11494 0.24173
 H2010 H 0.80442 0.08196 0.23683
 H2011 H 0.79805 0.14952 0.28794
 H2012 H 0.76509 0.13448 0.25819
 H2013 H 0.74610 0.15896 0.23993
 H2014 H 0.73663 0.19305 0.23222
 H2015 H 0.77651 0.21449 0.28169
 H2016 H 0.78582 0.18017 0.28972
 C2017 C 0.34292 0.58391 0.79260
 C2018 C 0.33426 0.60287 0.79568
 C2019 C 0.31343 0.60539 0.79671
 C2020 C 0.30145 0.58824 0.79626
 C2021 C 0.31019 0.56916 0.79333
 C2022 C 0.33095 0.56695 0.79071
 C2023 C 0.30526 0.62617 0.79634
 C2024 C 0.28631 0.63114 0.79165
 C2025 C 0.28051 0.65189 0.78609
 C2026 C 0.26129 0.65932 0.79102
 C2027 C 0.25537 0.67856 0.78477
 C2028 C 0.26847 0.69062 0.77307
 C2029 C 0.28758 0.68283 0.76787
 C2030 C 0.29353 0.66381 0.77431
 H2031 H 0.35901 0.58254 0.79098
 H2032 H 0.34390 0.61574 0.79620
 H2033 H 0.28538 0.58939 0.79754
 H2034 H 0.30067 0.55625 0.79201
 H2035 H 0.31595 0.63810 0.79804
 H2036 H 0.27490 0.61993 0.79065
 H2037 H 0.25085 0.65023 0.79973
 H2038 H 0.24043 0.68381 0.78891
 H2039 H 0.29791 0.69108 0.75819
 H2040 H 0.30814 0.65820 0.76934
 C2041 C 0.32225 0.40272 0.72271
 C2042 C 0.31125 0.38546 0.71898
 C2043 C 0.29307 0.38262 0.72963
 C2044 C 0.28552 0.39808 0.74324
 C2045 C 0.29655 0.41537 0.74710
 C2046 C 0.31548 0.41786 0.73735
 C2047 C 0.28305 0.36310 0.72652
 C2048 C 0.26891 0.35629 0.73978
 C2049 C 0.26149 0.33548 0.73879
 C2050 C 0.25222 0.32793 0.75715
 C2051 C 0.24665 0.30792 0.75780
 C2052 C 0.25073 0.29474 0.74030
 C2053 C 0.25823 0.30279 0.72119
 C2054 C 0.26369 0.32287 0.72045
 H2055 H 0.33594 0.40411 0.71361
 H2056 H 0.31725 0.37404 0.70798
 H2057 H 0.27125 0.39693 0.75128
 H2058 H 0.29045 0.42612 0.75870
 H2059 H 0.28906 0.35330 0.71392
 H2060 H 0.26386 0.36549 0.75332
 H2061 H 0.24970 0.33742 0.77130
 H2062 H 0.23954 0.30275 0.77230
 H2063 H 0.25992 0.29365 0.70670
 H2064 H 0.26956 0.32834 0.70547
 C2065 C 0.79196 0.92688 0.23212
 C2066 C 0.78156 0.90885 0.23153
 C2067 C 0.79146 0.89070 0.23584
 C2068 C 0.81213 0.89078 0.23969
 C2069 C 0.82247 0.90868 0.24029
 C2070 C 0.81252 0.92698 0.23672
 C2071 C 0.78029 0.87174 0.23625
 C2072 C 0.78537 0.85737 0.25004
 C2073 C 0.77744 0.83683 0.24997
 C2074 C 0.78887 0.82223 0.26032
 C2075 C 0.78280 0.80249 0.26066
 C2076 C 0.76482 0.79661 0.25099
 C2077 C 0.75316 0.81131 0.24071
 C2078 C 0.75942 0.83126 0.24014
 H2079 H 0.78395 0.94073 0.22899
 H2080 H 0.76570 0.90911 0.22819
 H2081 H 0.82041 0.87698 0.24228
 H2082 H 0.83823 0.90818 0.24405
 H2083 H 0.76817 0.86971 0.22503
 H2084 H 0.79708 0.86042 0.26157
 H2085 H 0.80285 0.82604 0.26796
 H2086 H 0.79250 0.79187 0.26853
 H2087 H 0.73923 0.80745 0.23306
 H2088 H 0.75006 0.84218 0.23224
 C2089 C 0.65781 0.91163 0.77340
 C2090 C 0.66700 0.89310 0.77669
 C2091 C 0.68712 0.89172 0.78251
 C2092 C 0.69763 0.90949 0.78633
 C2093 C 0.68831 0.92822 0.78337
 C2094 C 0.66840 0.92962 0.77605
 C2095 C 0.69632 0.87139 0.78336
 C2096 C 0.71593 0.86729 0.78122
 C2097 C 0.72348 0.84658 0.77685
 C2098 C 0.74255 0.84065 0.78375
 C2099 C 0.75021 0.82146 0.77858
 C2100 C 0.73906 0.80789 0.76603
 C2101 C 0.72004 0.81411 0.75901
 C2102 C 0.71238 0.83308 0.76431
 H2103 H 0.64217 0.91167 0.76915
 H2104 H 0.65839 0.87968 0.77406
 H2105 H 0.71306 0.90906 0.79135
 H2106 H 0.69721 0.94144 0.78563
 H2107 H 0.68612 0.85899 0.78376
 H2108 H 0.72666 0.87920 0.78141
 H2109 H 0.75156 0.85092 0.79311
 H2110 H 0.76501 0.81746 0.78412
 H2111 H 0.71115 0.80465 0.74868
 H2112 H 0.69801 0.83739 0.75781
 C2113 C 0.19802 0.42560 0.26660
 C2114 C 0.20723 0.40681 0.26916
 C2115 C 0.19566 0.38958 0.27099
 C2116 C 0.17473 0.39172 0.27210
 C2117 C 0.16558 0.41038 0.26929
 C2118 C 0.17712 0.42734 0.26584
 C2119 C 0.20558 0.36954 0.27035
 C2120 C 0.19664 0.35364 0.26133
 C2121 C 0.20589 0.33349 0.25803
 C2122 C 0.19617 0.32007 0.24419
 C2123 C 0.20377 0.30080 0.24047
 C2124 C 0.22139 0.29421 0.25055
 C2125 C 0.23119 0.30766 0.26450
 C2126 C 0.22352 0.32709 0.26826
 H2127 H 0.20717 0.43856 0.26404
 H2128 H 0.22337 0.40560 0.26859
 H2129 H 0.16534 0.37895 0.27458
 H2130 H 0.14942 0.41150 0.26920
 H2131 H 0.22096 0.36845 0.27548
 H2132 H 0.18188 0.35570 0.25461
 H2133 H 0.18254 0.32451 0.23611
 H2134 H 0.19564 0.29111 0.22963
 H2135 H 0.24470 0.30319 0.27273
 H2136 H 0.23130 0.33682 0.27938
 C2137 C 0.07535 0.21955 0.80859
 C2138 C 0.09212 0.21699 0.79527
 C2139 C 0.10339 0.23348 0.78921
 C2140 C 0.09730 0.25275 0.79651
 C2141 C 0.08056 0.25530 0.80997
 C2142 C 0.06957 0.23869 0.81646
 C2143 C 0.12248 0.22974 0.77746
 C2144 C 0.13187 0.24356 0.76593
 C2145 C 0.15271 0.24074 0.75797
 C2146 C 0.15952 0.25212 0.74072
 C2147 C 0.17980 0.25192 0.73498
 C2148 C 0.19377 0.24055 0.74663
 C2149 C 0.18670 0.22858 0.76337
 C2150 C 0.16651 0.22861 0.76890
 H2151 H 0.06702 0.20646 0.81290
 H2152 H 0.09652 0.20199 0.78997
 H2153 H 0.10592 0.26578 0.79273
 H2154 H 0.07670 0.27021 0.81597
 H2155 H 0.12922 0.21497 0.77881
 H2156 H 0.12440 0.25767 0.76270
 H2157 H 0.14923 0.26172 0.73213
 H2158 H 0.18460 0.26151 0.72217
 H2159 H 0.19688 0.21982 0.77301
 H2160 H 0.16206 0.22006 0.78269
 C2161 C 0.58676 0.76814 0.31786
 C2162 C 0.60441 0.76919 0.30580
 C2163 C 0.61245 0.75208 0.29524
 C2164 C 0.60193 0.73406 0.29613
 C2165 C 0.58427 0.73302 0.30813
 C2166 C 0.57662 0.74996 0.31944
 C2167 C 0.63195 0.75349 0.28392
 C2168 C 0.64478 0.73790 0.28181
 C2169 C 0.66547 0.73971 0.27357
 C2170 C 0.68024 0.72688 0.28167
 C2171 C 0.70016 0.72879 0.27553
 C2172 C 0.70584 0.74313 0.26043
 C2173 C 0.69088 0.75569 0.25190
 C2174 C 0.67091 0.75399 0.25835
 H2175 H 0.58138 0.78145 0.32646
 H2176 H 0.61213 0.78329 0.30526
 H2177 H 0.60725 0.72073 0.28754
 H2178 H 0.57655 0.71892 0.30853
 H2179 H 0.63665 0.76821 0.27919
 H2180 H 0.64085 0.72365 0.28851
 H2181 H 0.67647 0.71577 0.29343
 H2182 H 0.71116 0.71918 0.28303
 H2183 H 0.69460 0.76728 0.24072
 H2184 H 0.65980 0.76391 0.25150
 C2185 C 0.57472 0.28042 0.18883
 C2186 C 0.59301 0.28295 0.19911
 C2187 C 0.60531 0.26638 0.20355
 C2188 C 0.59888 0.24710 0.19767
 C2189 C 0.58067 0.24457 0.18710
 C2190 C 0.56848 0.26123 0.18226
 C2191 C 0.62551 0.26986 0.21223
 C2192 C 0.63545 0.25657 0.22420
 C2193 C 0.65670 0.25897 0.22997
 C2194 C 0.66410 0.25031 0.24877
 C2195 C 0.68454 0.25047 0.25328
 C2196 C 0.69810 0.25900 0.23884
 C2197 C 0.69051 0.26796 0.22018
 C2198 C 0.67011 0.26809 0.21588
 H2199 H 0.56555 0.29356 0.18585
 H2200 H 0.59769 0.29795 0.20342
 H2201 H 0.60827 0.23404 0.20031
 H2202 H 0.57654 0.22962 0.18199
 H2203 H 0.63242 0.28393 0.20850
 H2204 H 0.62793 0.24340 0.22978
 H2205 H 0.65407 0.24300 0.25975
 H2206 H 0.68973 0.24313 0.26763
 H2207 H 0.70040 0.27438 0.20843
 H2208 H 0.66504 0.27440 0.20091
 C2209 C 0.10233 0.75327 0.66341
 C2210 C 0.12089 0.75209 0.67338
 C2211 C 0.12283 0.74407 0.69398
 C2212 C 0.10568 0.73734 0.70459
 C2213 C 0.08703 0.73832 0.69446
 C2214 C 0.08519 0.74609 0.67363
 C2215 C 0.14319 0.74218 0.70296
 C2216 C 0.14759 0.74175 0.72404
 C2217 C 0.16859 0.74137 0.73180
 C2218 C 0.17318 0.73365 0.75213
 C2219 C 0.19304 0.73262 0.75928
 C2220 C 0.20867 0.73935 0.74619
 C2221 C 0.20384 0.74748 0.72610
 C2222 C 0.18418 0.74886 0.71924
 H2223 H 0.10145 0.75978 0.64761
 H2224 H 0.13386 0.75747 0.66489
 H2225 H 0.10669 0.73070 0.72030
 H2226 H 0.07417 0.73242 0.70268
 H2227 H 0.15517 0.74161 0.69120
 H2228 H 0.13571 0.74173 0.73593
 H2229 H 0.16143 0.72807 0.76232
 H2230 H 0.19615 0.72625 0.77481
 H2231 H 0.21527 0.75310 0.71553
 H2232 H 0.18139 0.75600 0.70405
 C2233 C 0.92212 0.72743 0.68889
 C2234 C 0.90394 0.72780 0.70001
 C2235 C 0.89613 0.74568 0.70901
 C2236 C 0.90720 0.76322 0.70722
 C2237 C 0.92537 0.76296 0.69595
 C2238 C 0.93305 0.74514 0.68608
 C2239 C 0.87546 0.74578 0.71766
 C2240 C 0.86758 0.76003 0.73086
 C2241 C 0.84588 0.76093 0.73563
 C2242 C 0.83207 0.75585 0.71961
 C2243 C 0.81168 0.75702 0.72381
 C2244 C 0.80436 0.76320 0.74424
 C2245 C 0.81817 0.76871 0.76020
 C2246 C 0.83876 0.76775 0.75585
 H2247 H 0.92667 0.71336 0.68131
 H2248 H 0.89558 0.71409 0.70093
 H2249 H 0.90157 0.77738 0.71371
 H2250 H 0.93335 0.77686 0.69527
 H2251 H 0.86606 0.73362 0.71232
 H2252 H 0.87697 0.77127 0.73816
 H2253 H 0.83701 0.75124 0.70360
 H2254 H 0.80170 0.75274 0.71093
 H2255 H 0.81311 0.77377 0.77600
 H2256 H 0.84915 0.77209 0.76833
 C2257 C 0.41198 0.22702 0.19934
 C2258 C 0.39382 0.22367 0.20979
 C2259 C 0.37962 0.23923 0.21242
 C2260 C 0.38395 0.25830 0.20459
 C2261 C 0.40188 0.26151 0.19367
 C2262 C 0.41592 0.24584 0.19080
 C2263 C 0.35951 0.23468 0.22072
 C2264 C 0.34829 0.24796 0.23208
 C2265 C 0.32676 0.24496 0.23597
 C2266 C 0.31767 0.25246 0.25494
 C2267 C 0.29692 0.25174 0.25761
 C2268 C 0.28477 0.24390 0.24111
 C2269 C 0.29408 0.23647 0.22215
 C2270 C 0.31477 0.23671 0.21974
 H2271 H 0.42258 0.21472 0.19707
 H2272 H 0.39067 0.20880 0.21542
 H2273 H 0.37306 0.27045 0.20588
 H2274 H 0.40465 0.27609 0.18705
 H2275 H 0.35350 0.22014 0.21662
 H2276 H 0.35479 0.26176 0.23796
 H2277 H 0.32662 0.25919 0.26754
 H2278 H 0.29037 0.25791 0.27234
 H2279 H 0.28547 0.23139 0.20855
 H2280 H 0.32126 0.23153 0.20457
 C2281 C 0.40612 0.75877 0.34098
 C2282 C 0.38745 0.76104 0.33144
 C2283 C 0.38416 0.75422 0.31026
 C2284 C 0.40013 0.74506 0.29869
 C2285 C 0.41890 0.74272 0.30833
 C2286 C 0.42204 0.74941 0.32967
 C2287 C 0.36364 0.75631 0.30162
 C2288 C 0.35863 0.75500 0.28071
 C2289 C 0.33755 0.75714 0.27361
 C2290 C 0.33117 0.74697 0.25493
 C2291 C 0.31094 0.74720 0.24921
 C2292 C 0.29670 0.75773 0.26202
 C2293 C 0.30342 0.76877 0.28004
 C2294 C 0.32354 0.76876 0.28554
 H2295 H 0.40810 0.76449 0.35726
 H2296 H 0.37547 0.76819 0.34072
 H2297 H 0.39815 0.73923 0.28250
 H2298 H 0.43081 0.73526 0.29926
 H2299 H 0.35198 0.75906 0.31351
 H2300 H 0.36988 0.75160 0.26857
 H2301 H 0.34172 0.73815 0.24525
 H2302 H 0.30641 0.73845 0.23528
 H2303 H 0.29308 0.77717 0.29035
 H2304 H 0.32795 0.77766 0.29940
 C2305 C 0.90252 0.26013 0.83973
 C2306 C 0.88415 0.26256 0.82960
 C2307 C 0.88070 0.25386 0.80922
 C2308 C 0.89616 0.24252 0.79915
 C2309 C 0.91462 0.24001 0.80939
 C2310 C 0.91797 0.24871 0.82987
 C2311 C 0.86054 0.25658 0.79984
 C2312 C 0.85580 0.25353 0.77903
 C2313 C 0.83509 0.25673 0.77119
 C2314 C 0.82791 0.24504 0.75394
 C2315 C 0.80778 0.24637 0.74792
 C2316 C 0.79447 0.25954 0.75899
 C2317 C 0.80210 0.27205 0.77540
 C2318 C 0.82213 0.27091 0.78115
 H2319 H 0.90468 0.26741 0.85526
 H2320 H 0.87255 0.27139 0.83773
 H2321 H 0.89401 0.23521 0.78367
 H2322 H 0.92615 0.23094 0.80147
 H2323 H 0.84891 0.26149 0.81102
 H2324 H 0.86692 0.24797 0.76762
 H2325 H 0.83768 0.23423 0.74574
 H2326 H 0.80253 0.23644 0.73527
 H2327 H 0.79249 0.28246 0.78434
 H2328 H 0.82728 0.28094 0.79377
 C2329 C 0.56051 0.99304 0.66781
 C2330 C 0.55085 0.98702 0.64892
 C2331 C 0.55963 0.97254 0.63499
 C2332 C 0.57776 0.96334 0.64090
 C2333 C 0.58737 0.96928 0.65984
 C2334 C 0.57908 0.98451 0.67329
 C2335 C 0.54999 0.96827 0.61402
 C2336 C 0.56047 0.96340 0.59615
 C2337 C 0.55165 0.96510 0.57450
 C2338 C 0.56284 0.97419 0.55843
 C2339 C 0.55387 0.97980 0.53922
 C2340 C 0.53364 0.97573 0.53522
 C2341 C 0.52297 0.96494 0.55065
 C2342 C 0.53185 0.95980 0.57017
 H2343 H 0.55374 1.00485 0.67774
 H2344 H 0.53684 0.99427 0.64476
 H2345 H 0.58462 0.95165 0.63091
 H2346 H 0.60136 0.96198 0.66394
 H2347 H 0.53426 0.97211 0.61262
 H2348 H 0.57655 0.96166 0.59702
 H2349 H 0.57815 0.97839 0.56142
 H2350 H 0.56256 0.98850 0.52817
 H2351 H 0.50736 0.96163 0.54838
 H2352 H 0.52301 0.95242 0.58221
 C2353 C 0.10308 0.49037 1.13352
 C2354 C 0.09371 0.48883 1.11362
 C2355 C 0.07354 0.48403 1.11214
 C2356 C 0.06284 0.48034 1.13107
 C2357 C 0.07211 0.48211 1.15119
 C2358 C 0.09247 0.48750 1.15303
 C2359 C 0.06398 0.48536 1.09083
 C2360 C 0.04801 0.47492 1.08446
 C2361 C 0.03836 0.47784 1.06314
 C2362 C 0.01878 0.47122 1.05971
 C2363 C 0.00854 0.47594 1.04074
 C2364 C 0.01763 0.48756 1.02489
 C2365 C 0.03748 0.49340 1.02815
 C2366 C 0.04788 0.48804 1.04648
 H2367 H 0.11830 0.49539 1.13316
 H2368 H 0.10220 0.49203 1.09922
 H2369 H 0.04715 0.47680 1.13046
 H2370 H 0.06312 0.47866 1.16509
 H2371 H 0.07071 0.49591 1.08019
 H2372 H 0.04130 0.46454 1.09542
 H2373 H 0.01111 0.46309 1.07209
 H2374 H -0.00681 0.47139 1.03907
 H2375 H 0.04505 0.50286 1.01691
 H2376 H 0.06323 0.49259 1.04749
 C2377 C -0.06513 0.00373 1.17083
 C2378 C -0.05383 0.00466 1.15194
 C2379 C -0.06099 0.01522 1.13427
 C2380 C -0.07963 0.02505 1.13578
 C2381 C -0.09122 0.02372 1.15446
 C2382 C -0.08431 0.01280 1.17229
 C2383 C -0.04998 0.01360 1.11369
 C2384 C -0.04954 0.02818 1.09923
 C2385 C -0.04065 0.02418 1.07780
 C2386 C -0.02614 0.03675 1.06939
 C2387 C -0.01653 0.03165 1.04988
 C2388 C -0.02172 0.01420 1.03826
 C2389 C -0.03716 0.00236 1.04634
 C2390 C -0.04638 0.00723 1.06591
 H2391 H -0.05923 -0.00532 1.18366
 H2392 H -0.03961 -0.00330 1.15093
 H2393 H -0.08564 0.03306 1.12222
 H2394 H -0.10548 0.03158 1.15491
 H2395 H -0.04211 -0.00043 1.11013
 H2396 H -0.05564 0.04296 1.10307
 H2397 H -0.02166 0.05000 1.07834
 H2398 H -0.00472 0.04107 1.04427
 H2399 H -0.04200 -0.01098 1.03786
 H2400 H -0.05790 -0.00243 1.07193
 C2401 C 0.40198 0.49339 0.65519
 C2402 C 0.41020 0.49591 0.63479
 C2403 C 0.42688 0.50801 0.63195
 C2404 C 0.43535 0.51749 0.65009
 C2405 C 0.42716 0.51483 0.67063
 C2406 C 0.41037 0.50279 0.67334
 C2407 C 0.43550 0.50905 0.61003
 C2408 C 0.44741 0.52358 0.60311
 C2409 C 0.45636 0.52272 0.58119
 C2410 C 0.47540 0.53055 0.57779
 C2411 C 0.48552 0.52687 0.55826
 C2412 C 0.47672 0.51532 0.54175
 C2413 C 0.45701 0.50892 0.54473
 C2414 C 0.44683 0.51292 0.56397
 H2415 H 0.38925 0.48375 0.65681
 H2416 H 0.40353 0.48826 0.62113
 H2417 H 0.44852 0.52650 0.64863
 H2418 H 0.43389 0.52226 0.68439
 H2419 H 0.43184 0.49682 0.59913
 H2420 H 0.45168 0.53564 0.61393
 H2421 H 0.48294 0.53845 0.59071
 H2422 H 0.50071 0.53194 0.55676
 H2423 H 0.44968 0.49973 0.53273
 H2424 H 0.43177 0.50752 0.56557
 C2425 C 0.44470 0.47075 -0.16195
 C2426 C 0.45491 0.46797 -0.14261
 C2427 C 0.44565 0.45852 -0.12531
 C2428 C 0.42655 0.45052 -0.12829
 C2429 C 0.41635 0.45331 -0.14756
 C2430 C 0.42508 0.46393 -0.16441
 C2431 C 0.45555 0.45878 -0.10402
 C2432 C 0.44503 0.46004 -0.08558
 C2433 C 0.45389 0.46605 -0.06475
 C2434 C 0.47359 0.46102 -0.05903
 C2435 C 0.48174 0.46868 -0.03989
 C2436 C 0.47039 0.48163 -0.02624
 C2437 C 0.45057 0.48624 -0.03203
 C2438 C 0.44234 0.47818 -0.05073
 H2439 H 0.45199 0.47860 -0.17482
 H2440 H 0.46972 0.47403 -0.14082
 H2441 H 0.41921 0.44252 -0.11558
 H2442 H 0.40126 0.44787 -0.14888
 H2443 H 0.47153 0.46104 -0.10366
 H2444 H 0.42889 0.45984 -0.08618
 H2445 H 0.48277 0.45145 -0.06945
 H2446 H 0.49714 0.46503 -0.03629
 H2447 H 0.44142 0.49658 -0.02246
 H2448 H 0.42714 0.48231 -0.05482
 C2449 C -0.07031 1.00172 0.33667
 C2450 C -0.05938 0.99956 0.35552
 C2451 C -0.06026 0.98187 0.36721
 C2452 C -0.07187 0.96602 0.35933
 C2453 C -0.08301 0.96826 0.34048
 C2454 C -0.08270 0.98634 0.32924
 C2455 C -0.05067 0.98154 0.38855
 C2456 C -0.04450 0.96495 0.39853
 C2457 C -0.03590 0.96661 0.42033
 C2458 C -0.01788 0.95677 0.42523
 C2459 C -0.00819 0.96100 0.44471
 C2460 C -0.01661 0.97484 0.45975
 C2461 C -0.03541 0.98349 0.45522
 C2462 C -0.04495 0.97935 0.43586
 H2463 H -0.06934 1.01564 0.32812
 H2464 H -0.05051 1.01196 0.36126
 H2465 H -0.07316 0.95234 0.36821
 H2466 H -0.09254 0.95620 0.33526
 H2467 H -0.04831 0.99596 0.39639
 H2468 H -0.04471 0.95048 0.39037
 H2469 H -0.01073 0.94679 0.41346
 H2470 H 0.00634 0.95425 0.44740
 H2471 H -0.04250 0.99424 0.46621
 H2472 H -0.05911 0.98676 0.43265
 C2473 C 0.05970 0.52017 0.31638
 C2474 C 0.04881 0.52300 0.33552
 C2475 C 0.05748 0.53233 0.35354
 C2476 C 0.07683 0.53998 0.35160
 C2477 C 0.08770 0.53719 0.33247
 C2478 C 0.07944 0.52683 0.31481
 C2479 C 0.04648 0.53268 0.37434
 C2480 C 0.05594 0.53135 0.39325
 C2481 C 0.04560 0.52679 0.41361
 C2482 C 0.05549 0.51440 0.42815
 C2483 C 0.04584 0.50810 0.44666
 C2484 C 0.02626 0.51473 0.45173
 C2485 C 0.01655 0.52772 0.43742
 C2486 C 0.02610 0.53367 0.41850
 H2487 H 0.05278 0.51250 0.30291
 H2488 H 0.03384 0.51717 0.33652
 H2489 H 0.08376 0.54782 0.36494
 H2490 H 0.10287 0.54251 0.33181
 H2491 H 0.03041 0.53122 0.37389
 H2492 H 0.07210 0.53069 0.39345
 H2493 H 0.07047 0.50881 0.42468
 H2494 H 0.05371 0.49759 0.45673
 H2495 H 0.00133 0.53277 0.44037
 H2496 H 0.01819 0.54347 0.40767
 C2497 C 0.55482 0.02437 -0.16484
 C2498 C 0.54410 0.02773 -0.14567
 C2499 C 0.55276 0.03798 -0.12823
 C2500 C 0.57191 0.04596 -0.13082
 C2501 C 0.58263 0.04258 -0.14994
 C2502 C 0.57440 0.03136 -0.16701
 C2503 C 0.54210 0.03880 -0.10723
 C2504 C 0.55193 0.03841 -0.08850
 C2505 C 0.54219 0.03370 -0.06787
 C2506 C 0.55264 0.02137 -0.05375
 C2507 C 0.54359 0.01483 -0.03502
 C2508 C 0.52409 0.02122 -0.02927
 C2509 C 0.51381 0.03419 -0.04315
 C2510 C 0.52274 0.04031 -0.06236
 H2511 H 0.54789 0.01606 -0.17786
 H2512 H 0.52929 0.02162 -0.14417
 H2513 H 0.57882 0.05450 -0.11797
 H2514 H 0.59767 0.04818 -0.15104
 H2515 H 0.52608 0.03673 -0.10725
 H2516 H 0.56810 0.03832 -0.08862
 H2517 H 0.56759 0.01598 -0.05772
 H2518 H 0.55189 0.00434 -0.02532
 H2519 H 0.49864 0.03908 -0.03961
 H2520 H 0.51441 0.05002 -0.07294
 C2521 C 0.64356 0.58904 -0.02711
 C2522 C 0.62464 0.58057 -0.02765
 C2523 C 0.62024 0.56411 -0.01487
 C2524 C 0.63518 0.55630 -0.00141
 C2525 C 0.65408 0.56482 -0.00082
 C2526 C 0.65845 0.58136 -0.01355
 C2527 C 0.59959 0.55652 -0.01484
 C2528 C 0.59496 0.53784 -0.00931
 C2529 C 0.57414 0.53096 -0.00696
 C2530 C 0.57049 0.51472 0.00637
 C2531 C 0.55099 0.50878 0.01056
 C2532 C 0.53459 0.51927 0.00185
 C2533 C 0.53840 0.53428 -0.01312
 C2534 C 0.55791 0.54023 -0.01732
 H2535 H 0.64651 0.60162 -0.03730
 H2536 H 0.61335 0.58695 -0.03803
 H2537 H 0.63219 0.54412 0.00928
 H2538 H 0.66508 0.55884 0.01015
 H2539 H 0.58788 0.56703 -0.01913
 H2540 H 0.60676 0.52737 -0.00514
 H2541 H 0.58275 0.50694 0.01410
 H2542 H 0.54883 0.49649 0.02137
 H2543 H 0.52634 0.54160 -0.02157
 H2544 H 0.56011 0.55199 -0.02875
 C2545 C 0.16017 1.07528 0.48049
 C2546 C 0.14149 1.06703 0.47712
 C2547 C 0.13957 1.04642 0.47303
 C2548 C 0.15697 1.03430 0.47130
 C2549 C 0.17580 1.04268 0.47446
 C2550 C 0.17746 1.06315 0.47961
 C2551 C 0.11908 1.03851 0.47212
 C2552 C 0.11427 1.01926 0.47444
 C2553 C 0.09340 1.01377 0.47899
 C2554 C 0.08549 0.99599 0.47055
 C2555 C 0.06565 0.99099 0.47500
 C2556 C 0.05352 1.00355 0.48830
 C2557 C 0.06191 1.02099 0.49722
 C2558 C 0.08148 1.02601 0.49267
 H2559 H 0.16111 1.09119 0.48401
 H2560 H 0.12840 1.07675 0.47841
 H2561 H 0.15618 1.01842 0.46776
 H2562 H 0.18900 1.03309 0.47354
 H2563 H 0.10704 1.04956 0.47153
 H2564 H 0.12556 1.00750 0.47427
 H2565 H 0.09456 0.98614 0.46028
 H2566 H 0.05988 0.97731 0.46799
 H2567 H 0.05341 1.03100 0.50780
 H2568 H 0.08738 1.03942 0.50018
 C2569 C 0.17730 -0.04646 0.99830
 C2570 C 0.15896 -0.03638 0.99636
 C2571 C 0.14286 -0.04098 1.00973
 C2572 C 0.14543 -0.05562 1.02539
 C2573 C 0.16356 -0.06613 1.02698
 C2574 C 0.17976 -0.06205 1.01316
 C2575 C 0.12298 -0.03218 1.00536
 C2576 C 0.10955 -0.02781 1.02085
 C2577 C 0.08880 -0.02213 1.01557
 C2578 C 0.07890 -0.00665 1.02709
 C2579 C 0.05904 -0.00161 1.02239
 C2580 C 0.04853 -0.01236 1.00644
 C2581 C 0.05848 -0.02835 0.99554
 C2582 C 0.07841 -0.03296 0.99980
 H2583 H 0.18895 -0.04295 0.98692
 H2584 H 0.15718 -0.02529 0.98399
 H2585 H 0.13315 -0.05964 1.03577
 H2586 H 0.16481 -0.07738 1.03923
 H2587 H 0.11914 -0.02956 0.98869
 H2588 H 0.11373 -0.02853 1.03765
 H2589 H 0.08661 0.00166 1.03959
 H2590 H 0.05192 0.01055 1.03149
 H2591 H 0.05086 -0.03768 0.98392
 H2592 H 0.08554 -0.04544 0.99120
 C2593 C 0.67403 0.44900 0.49722
 C2594 C 0.65499 0.45777 0.49707
 C2595 C 0.64265 0.45736 0.51530
 C2596 C 0.64996 0.44855 0.53408
 C2597 C 0.66897 0.43949 0.53422
 C2598 C 0.68125 0.43907 0.51559
 C2599 C 0.62161 0.46399 0.51317
 C2600 C 0.60997 0.47048 0.52958
 C2601 C 0.58850 0.47468 0.52617
 C2602 C 0.57918 0.49171 0.53551
 C2603 C 0.55913 0.49625 0.53104
 C2604 C 0.54795 0.48359 0.51745
 C2605 C 0.55723 0.46595 0.50920
 C2606 C 0.57720 0.46163 0.51338
 H2607 H 0.68227 0.44881 0.48219
 H2608 H 0.64958 0.46430 0.48232
 H2609 H 0.64072 0.44781 0.54839
 H2610 H 0.67391 0.43289 0.54907
 H2611 H 0.61532 0.46336 0.49711
 H2612 H 0.61621 0.47318 0.54540
 H2613 H 0.58759 0.50182 0.54570
 H2614 H 0.55255 0.50983 0.53798
 H2615 H 0.54927 0.45554 0.49901
 H2616 H 0.58387 0.44804 0.50650
 C2617 C -0.15400 0.41586 0.46692
 C2618 C -0.13493 0.42353 0.46429
 C2619 C -0.13092 0.44345 0.47010
 C2620 C -0.14665 0.45582 0.47803
 C2621 C -0.16581 0.44813 0.48065
 C2622 C -0.16960 0.42795 0.47550
 C2623 C -0.10984 0.44981 0.46984
 C2624 C -0.10385 0.46883 0.47165
 C2625 C -0.08255 0.47371 0.47475
 C2626 C -0.07501 0.49172 0.46712
 C2627 C -0.05498 0.49661 0.47046
 C2628 C -0.04216 0.48368 0.48181
 C2629 C -0.05004 0.46585 0.48974
 C2630 C -0.06987 0.46096 0.48632
 H2631 H -0.15628 0.40018 0.46311
 H2632 H -0.12307 0.41361 0.45832
 H2633 H -0.14416 0.47116 0.48308
 H2634 H -0.17756 0.45787 0.48711
 H2635 H -0.09860 0.43798 0.46857
 H2636 H -0.11455 0.48111 0.47088
 H2637 H -0.08461 0.50195 0.45845
 H2638 H -0.04965 0.51057 0.46425
 H2639 H -0.04101 0.45561 0.49897
 H2640 H -0.07534 0.44735 0.49327
 C2641 C 0.34843 -0.08363 -0.01784
 C2642 C 0.36742 -0.07537 -0.01858
 C2643 C 0.37061 -0.05581 -0.01086
 C2644 C 0.35425 -0.04446 -0.00268
 C2645 C 0.33523 -0.05276 -0.00187
 C2646 C 0.33217 -0.07253 -0.00918
 C2647 C 0.39140 -0.04869 -0.00975
 C2648 C 0.39650 -0.02941 -0.00762
 C2649 C 0.41749 -0.02353 -0.00419
 C2650 C 0.42423 -0.00518 -0.01178
 C2651 C 0.44404 0.00053 -0.00852
 C2652 C 0.45744 -0.01189 0.00272
 C2653 C 0.45032 -0.03001 0.01074
 C2654 C 0.43069 -0.03573 0.00739
 H2655 H 0.34665 -0.09899 -0.02329
 H2656 H 0.37978 -0.08451 -0.02476
 H2657 H 0.35616 -0.02949 0.00387
 H2658 H 0.32295 -0.04381 0.00476
 H2659 H 0.40313 -0.06006 -0.01071
 H2660 H 0.38527 -0.01764 -0.00876
 H2661 H 0.41422 0.00463 -0.02047
 H2662 H 0.44878 0.01468 -0.01481
 H2663 H 0.45985 -0.03995 0.01978
 H2664 H 0.42582 -0.04960 0.01426
 C2665 C 0.34686 1.06324 0.48723
 C2666 C 0.36650 1.05606 0.48792
 C2667 C 0.37527 1.05096 0.50755
 C2668 C 0.36393 1.05313 0.52664
 C2669 C 0.34423 1.06048 0.52597
 C2670 C 0.33554 1.06567 0.50624
 C2671 C 0.39659 1.04481 0.50735
 C2672 C 0.40554 1.03404 0.52266
 C2673 C 0.42697 1.02841 0.52087
 C2674 C 0.43369 1.00952 0.52746
 C2675 C 0.45350 1.00328 0.52363
 C2676 C 0.46703 1.01594 0.51332
 C2677 C 0.46037 1.03533 0.50802
 C2678 C 0.44070 1.04150 0.51183
 H2679 H 0.34073 1.06747 0.47185
 H2680 H 0.37497 1.05472 0.47302
 H2681 H 0.37037 1.04976 0.54212
 H2682 H 0.33583 1.06223 0.54086
 H2683 H 0.40518 1.04875 0.49326
 H2684 H 0.39690 1.02812 0.53579
 H2685 H 0.42340 0.99927 0.53474
 H2686 H 0.45795 0.98830 0.52814
 H2687 H 0.46995 1.04556 0.49981
 H2688 H 0.43615 1.05643 0.50719
 C2689 C -0.17358 0.57008 0.97998
 C2690 C -0.15430 0.56194 0.97914
 C2691 C -0.14517 0.55457 0.99771
 C2692 C -0.15597 0.55521 1.01725
 C2693 C -0.17538 0.56339 1.01809
 C2694 C -0.18433 0.57109 0.99949
 C2695 C -0.12399 0.54791 0.99599
 C2696 C -0.11397 0.53750 1.01084
 C2697 C -0.09244 0.53255 1.00802
 C2698 C -0.08453 0.51445 1.01561
 C2699 C -0.06447 0.50914 1.01175
 C2700 C -0.05186 0.52196 1.00038
 C2701 C -0.05978 0.54047 0.99373
 C2702 C -0.07967 0.54575 0.99760
 H2703 H -0.17978 0.57626 0.96544
 H2704 H -0.14629 0.56181 0.96392
 H2705 H -0.14937 0.55004 1.03203
 H2706 H -0.18331 0.56388 1.03335
 H2707 H -0.11625 0.55170 0.98129
 H2708 H -0.12162 0.53179 1.02476
 H2709 H -0.09403 0.50416 1.02398
 H2710 H -0.05902 0.49480 1.01730
 H2711 H -0.05083 0.55083 0.98486
 H2712 H -0.08504 0.56018 0.99225
 C2713 C 0.03161 0.65584 0.57244
 C2714 C 0.03426 0.63788 0.56078
 C2715 C 0.01967 0.63120 0.54627
 C2716 C 0.00241 0.64323 0.54342
 C2717 C -0.00016 0.66131 0.55501
 C2718 C 0.01428 0.66766 0.56986
 C2719 C 0.02260 0.61107 0.53591
 C2720 C 0.01083 0.60324 0.52055
 C2721 C 0.01241 0.58200 0.51293
 C2722 C 0.00322 0.57632 0.49351
 C2723 C 0.00250 0.55614 0.48702
 C2724 C 0.01095 0.54112 0.49984
 C2725 C 0.02058 0.54693 0.51901
 C2726 C 0.02126 0.56701 0.52549
 H2727 H 0.04315 0.66048 0.58353
 H2728 H 0.04768 0.62898 0.56340
 H2729 H -0.00945 0.63864 0.53281
 H2730 H -0.01376 0.67002 0.55286
 H2731 H 0.03507 0.60220 0.54164
 H2732 H -0.00067 0.61242 0.51335
 H2733 H -0.00392 0.58749 0.48361
 H2734 H -0.00534 0.55233 0.47237
 H2735 H 0.02715 0.53590 0.52950
 H2736 H 0.02794 0.57045 0.54090
 C2737 C 0.47733 0.16977 0.06444
 C2738 C 0.47872 0.15185 0.05244
 C2739 C 0.49733 0.14242 0.04857
 C2740 C 0.51467 0.15188 0.05605
 C2741 C 0.51327 0.16981 0.06805
 C2742 C 0.49456 0.17880 0.07271
 C2743 C 0.49794 0.12259 0.03726
 C2744 C 0.51254 0.10894 0.04031
 C2745 C 0.51176 0.08795 0.03212
 C2746 C 0.52184 0.07315 0.04370
 C2747 C 0.52053 0.05301 0.03765
 C2748 C 0.50950 0.04707 0.01943
 C2749 C 0.49996 0.06200 0.00733
 C2750 C 0.50108 0.08224 0.01359
 H2751 H 0.46272 0.17652 0.06734
 H2752 H 0.46515 0.14505 0.04664
 H2753 H 0.52935 0.14549 0.05280
 H2754 H 0.52684 0.17635 0.07417
 H2755 H 0.48495 0.11844 0.02800
 H2756 H 0.52458 0.11247 0.05122
 H2757 H 0.53028 0.07711 0.05795
 H2758 H 0.52806 0.04207 0.04752
 H2759 H 0.49121 0.05809 -0.00667
 H2760 H 0.49352 0.09331 0.00394
 C2761 C 0.00973 0.17106 0.95506
 C2762 C 0.00992 0.15361 0.96721
 C2763 C -0.00352 0.13819 0.96274
 C2764 C -0.01717 0.14062 0.94577
 C2765 C -0.01733 0.15799 0.93364
 C2766 C -0.00376 0.17332 0.93797
 C2767 C -0.00179 0.11915 0.97464
 C2768 C -0.01676 0.10615 0.97597
 C2769 C -0.01400 0.08528 0.98307
 C2770 C -0.02500 0.07045 0.97257
 C2771 C -0.02181 0.05033 0.97706
 C2772 C -0.00824 0.04439 0.99307
 C2773 C 0.00253 0.05939 1.00398
 C2774 C -0.00029 0.07965 0.99903
 H2775 H 0.02054 0.18252 0.95862
 H2776 H 0.02078 0.15203 0.97995
 H2777 H -0.02733 0.12890 0.94118
 H2778 H -0.02799 0.15933 0.92069
 H2779 H 0.01264 0.11530 0.98134
 H2780 H -0.03123 0.11005 0.96945
 H2781 H -0.03547 0.07438 0.96003
 H2782 H -0.02967 0.03944 0.96735
 H2783 H 0.01366 0.05549 1.01581
 H2784 H 0.00834 0.09081 1.00753
 C2785 C 0.51206 0.64784 0.41695
 C2786 C 0.51127 0.62928 0.42681
 C2787 C 0.50116 0.62717 0.44646
 C2788 C 0.49195 0.64416 0.45624
 C2789 C 0.49267 0.66279 0.44629
 C2790 C 0.50254 0.66478 0.42639
 C2791 C 0.49955 0.60678 0.45524
 C2792 C 0.49545 0.60271 0.47587
 C2793 C 0.49410 0.58177 0.48317
 C2794 C 0.50096 0.57658 0.50367
 C2795 C 0.50157 0.55649 0.50984
 C2796 C 0.49504 0.54126 0.49570
 C2797 C 0.48703 0.54678 0.47570
 C2798 C 0.48644 0.56672 0.46960
 H2799 H 0.52010 0.64890 0.40185
 H2800 H 0.51849 0.61645 0.41892
 H2801 H 0.48362 0.64304 0.47112
 H2802 H 0.48495 0.67549 0.45383
 H2803 H 0.50261 0.59441 0.44407
 H2804 H 0.49431 0.61469 0.48784
 H2805 H 0.50667 0.58798 0.51455
 H2806 H 0.50781 0.55289 0.52535
 H2807 H 0.48153 0.53564 0.46441
 H2808 H 0.48026 0.57030 0.45404
 C2809 C 0.51189 0.82092 0.45669
 C2810 C 0.51292 0.83906 0.46837
 C2811 C 0.50594 0.85696 0.45938
 C2812 C 0.49713 0.85625 0.43887
 C2813 C 0.49604 0.83820 0.42728
 C2814 C 0.50355 0.82034 0.43594
 C2815 C 0.50802 0.87625 0.47138
 C2816 C 0.51157 0.89323 0.46098
 C2817 C 0.51331 0.91337 0.47120
 C2818 C 0.52171 0.92838 0.45882
 C2819 C 0.52199 0.94810 0.46637
 C2820 C 0.51391 0.95353 0.48669
 C2821 C 0.50595 0.93840 0.49946
 C2822 C 0.50563 0.91847 0.49180
 H2823 H 0.51753 0.80734 0.46391
 H2824 H 0.51955 0.83919 0.48424
 H2825 H 0.49100 0.86964 0.43172
 H2826 H 0.48964 0.83833 0.41131
 H2827 H 0.50759 0.87617 0.48880
 H2828 H 0.51382 0.89238 0.44369
 H2829 H 0.52773 0.92492 0.44291
 H2830 H 0.52836 0.95913 0.45594
 H2831 H 0.49942 0.94201 0.51507
 H2832 H 0.49870 0.90737 0.50168
 C2833 C 0.00545 0.32859 0.95092
 C2834 C 0.00531 0.34716 0.96189
 C2835 C -0.00155 0.36452 0.95170
 C2836 C -0.00890 0.36283 0.93056
 C2837 C -0.00880 0.34436 0.91966
 C2838 C -0.00158 0.32701 0.92965
 C2839 C -0.00112 0.38421 0.96327
 C2840 C 0.00193 0.40119 0.95266
 C2841 C 0.00192 0.42167 0.96239
 C2842 C 0.00942 0.43697 0.94975
 C2843 C 0.00819 0.45684 0.95676
 C2844 C -0.00054 0.46218 0.97680
 C2845 C -0.00761 0.44681 0.98986
 C2846 C -0.00643 0.42671 0.98272
 H2847 H 0.01082 0.31543 0.95916
 H2848 H 0.01081 0.34802 0.97825
 H2849 H -0.01493 0.37574 0.92241
 H2850 H -0.01422 0.34371 0.90327
 H2851 H -0.00247 0.38448 0.98064
 H2852 H 0.00507 0.40010 0.93554
 H2853 H 0.01595 0.43359 0.93406
 H2854 H 0.01400 0.46804 0.94617
 H2855 H -0.01453 0.45033 1.00530
 H2856 H -0.01266 0.41536 0.99282
 C2857 C 0.46271 0.33614 0.06917
 C2858 C 0.46108 0.35459 0.05896
 C2859 C 0.47641 0.36858 0.06072
 C2860 C 0.49330 0.36395 0.07314
 C2861 C 0.49469 0.34575 0.08377
 C2862 C 0.47942 0.33172 0.08187
 C2863 C 0.47390 0.38844 0.05092
 C2864 C 0.48920 0.39820 0.04224
 C2865 C 0.48724 0.41897 0.03463
 C2866 C 0.49874 0.42503 0.01707
 C2867 C 0.49833 0.44503 0.01073
 C2868 C 0.48675 0.45950 0.02218
 C2869 C 0.47539 0.45330 0.03994
 C2870 C 0.47539 0.43326 0.04587
 H2871 H 0.45072 0.32554 0.06766
 H2872 H 0.44784 0.35796 0.04968
 H2873 H 0.50512 0.37467 0.07522
 H2874 H 0.50767 0.34260 0.09355
 H2875 H 0.45902 0.39508 0.05065
 H2876 H 0.50364 0.39074 0.04057
 H2877 H 0.50822 0.41430 0.00837
 H2878 H 0.50761 0.44917 -0.00271
 H2879 H 0.46663 0.46399 0.04951
 H2880 H 0.46679 0.42915 0.05987
 C2881 C -0.02385 0.83044 0.56911
 C2882 C -0.02634 0.84838 0.55816
 C2883 C -0.01038 0.85667 0.54683
 C2884 C 0.00817 0.84639 0.54648
 C2885 C 0.01065 0.82841 0.55742
 C2886 C -0.00526 0.82034 0.56909
 C2887 C -0.01328 0.87678 0.53741
 C2888 C -0.00092 0.88472 0.52289
 C2889 C -0.00232 0.90595 0.51621
 C2890 C 0.00744 0.91168 0.49729
 C2891 C 0.00842 0.93188 0.49182
 C2892 C -0.00035 0.94688 0.50520
 C2893 C -0.01050 0.94101 0.52390
 C2894 C -0.01149 0.92089 0.52933
 H2895 H -0.03634 0.82482 0.57818
 H2896 H -0.04072 0.85605 0.55894
 H2897 H 0.02103 0.85240 0.53843
 H2898 H 0.02511 0.82092 0.55692
 H2899 H -0.02618 0.88541 0.54299
 H2900 H 0.01092 0.87556 0.51571
 H2901 H 0.01486 0.90052 0.48700
 H2902 H 0.01676 0.93571 0.47757
 H2903 H -0.01720 0.95202 0.53488
 H2904 H -0.01861 0.91736 0.54442
 C2905 C 0.23833 0.34842 0.09171
 C2906 C 0.23820 0.33676 0.11004
 C2907 C 0.22496 0.32083 0.11193
 C2908 C 0.21190 0.31659 0.09480
 C2909 C 0.21219 0.32823 0.07622
 C2910 C 0.22532 0.34435 0.07461
 C2911 C 0.22584 0.30923 0.13200
 C2912 C 0.21148 0.29738 0.13955
 C2913 C 0.21328 0.28853 0.16123
 C2914 C 0.20598 0.26937 0.16534
 C2915 C 0.20950 0.26037 0.18528
 C2916 C 0.22024 0.27051 0.20147
 C2917 C 0.22658 0.29008 0.19745
 C2918 C 0.22279 0.29907 0.17791
 H2919 H 0.24888 0.36048 0.09077
 H2920 H 0.24850 0.34031 0.12290
 H2921 H 0.20171 0.30424 0.09551
 H2922 H 0.20205 0.32475 0.06320
 H2923 H 0.23910 0.31132 0.14164
 H2924 H 0.19839 0.29415 0.13006
 H2925 H 0.19831 0.26105 0.15283
 H2926 H 0.20453 0.24524 0.18765
 H2927 H 0.23506 0.29849 0.20921
 H2928 H 0.22778 0.31424 0.17577
 C2929 C 0.72085 0.82571 0.57939
 C2930 C 0.71711 0.81548 0.59842
 C2931 C 0.72242 0.82383 0.61845
 C2932 C 0.73175 0.84254 0.61908
 C2933 C 0.73559 0.85267 0.60014
 C2934 C 0.73026 0.84438 0.58004
 C2935 C 0.72009 0.81197 0.63819
 C2936 C 0.71834 0.82058 0.65781
 C2937 C 0.72213 0.80964 0.67785
 C2938 C 0.73188 0.81980 0.69455
 C2939 C 0.73852 0.80959 0.71254
 C2940 C 0.73483 0.78905 0.71480
 C2941 C 0.72408 0.77909 0.69849
 C2942 C 0.71782 0.78927 0.68015
 H2943 H 0.71645 0.81897 0.56418
 H2944 H 0.71018 0.80095 0.59749
 H2945 H 0.73694 0.84908 0.63407
 H2946 H 0.74340 0.86670 0.60122
 H2947 H 0.72147 0.79584 0.63650
 H2948 H 0.71678 0.83672 0.65927
 H2949 H 0.73545 0.83548 0.69311
 H2950 H 0.74723 0.81778 0.72427
 H2951 H 0.72126 0.76323 0.69933
 H2952 H 0.71002 0.78110 0.66764
 C2953 C 0.28548 0.67058 0.58451
 C2954 C 0.29021 0.68034 0.60395
 C2955 C 0.28447 0.67231 0.62370
 C2956 C 0.27351 0.65453 0.62365
 C2957 C 0.26866 0.64490 0.60429
 C2958 C 0.27462 0.65274 0.58448
 C2959 C 0.28835 0.68361 0.64397
 C2960 C 0.29003 0.67465 0.66303
 C2961 C 0.28816 0.68569 0.68385
 C2962 C 0.27851 0.67624 0.70081
 C2963 C 0.27300 0.68701 0.71940
 C2964 C 0.27770 0.70739 0.72193
 C2965 C 0.28878 0.71643 0.70552
 C2966 C 0.29395 0.70570 0.68664
 H2967 H 0.29043 0.67695 0.56955
 H2968 H 0.29839 0.69418 0.60357
 H2969 H 0.26799 0.64837 0.63847
 H2970 H 0.25979 0.63152 0.60486
 H2971 H 0.28841 0.69979 0.64319
 H2972 H 0.29010 0.65845 0.66355
 H2973 H 0.27388 0.66083 0.69904
 H2974 H 0.26395 0.67954 0.73115
 H2975 H 0.29242 0.73213 0.70655
 H2976 H 0.30184 0.71328 0.67403
 C2977 C 0.76880 0.13807 0.09414
 C2978 C 0.76969 0.14699 0.11460
 C2979 C 0.77601 0.16678 0.11736
 C2980 C 0.78197 0.17737 0.09906
 C2981 C 0.78114 0.16836 0.07850
 C2982 C 0.77428 0.14868 0.07577
 C2983 C 0.77402 0.17612 0.13918
 C2984 C 0.78102 0.19410 0.14514
 C2985 C 0.77513 0.20392 0.16594
 C2986 C 0.78770 0.21788 0.17592
 C2987 C 0.78159 0.22820 0.19481
 C2988 C 0.76275 0.22477 0.20409
 C2989 C 0.75016 0.21099 0.19373
 C2990 C 0.75626 0.20069 0.17507
 H2991 H 0.76304 0.12306 0.09271
 H2992 H 0.76481 0.13852 0.12831
 H2993 H 0.78662 0.19275 0.10035
 H2994 H 0.78564 0.17690 0.06470
 H2995 H 0.76569 0.16777 0.15090
 H2996 H 0.79091 0.20207 0.13463
 H2997 H 0.80213 0.22100 0.16893
 H2998 H 0.79141 0.23926 0.20175
 H2999 H 0.73514 0.20857 0.19941
 H3000 H 0.74569 0.19087 0.16731
 C3001 C 0.71846 0.15144 0.89768
 C3002 C 0.71351 0.16299 0.87988
 C3003 C 0.71855 0.18328 0.87925
 C3004 C 0.72870 0.19180 0.89693
 C3005 C 0.73370 0.18023 0.91469
 C3006 C 0.72880 0.15988 0.91520
 C3007 C 0.71486 0.19440 0.85914
 C3008 C 0.71458 0.21445 0.85821
 C3009 C 0.71630 0.22504 0.83761
 C3010 C 0.72828 0.24196 0.83707
 C3011 C 0.73345 0.25032 0.81747
 C3012 C 0.72652 0.24211 0.79784
 C3013 C 0.71239 0.22680 0.79873
 C3014 C 0.70764 0.21802 0.81838
 H3015 H 0.71473 0.13573 0.89744
 H3016 H 0.70599 0.15596 0.86638
 H3017 H 0.73350 0.20716 0.89690
 H3018 H 0.74156 0.18719 0.92799
 H3019 H 0.71369 0.18561 0.84436
 H3020 H 0.71578 0.22339 0.87285
 H3021 H 0.73476 0.24795 0.85174
 H3022 H 0.74366 0.26269 0.81789
 H3023 H 0.70588 0.22073 0.78423
 H3024 H 0.69764 0.20546 0.81842
 C3025 C 0.21858 0.64787 0.40653
 C3026 C 0.21469 0.65763 0.38729
 C3027 C 0.22014 0.67762 0.38468
 C3028 C 0.22926 0.68785 0.40196
 C3029 C 0.23331 0.67801 0.42119
 C3030 C 0.22826 0.65783 0.42355
 C3031 C 0.21854 0.68629 0.36298
 C3032 C 0.21832 0.70598 0.35915
 C3033 C 0.22144 0.71371 0.33720
 C3034 C 0.21332 0.73238 0.33148
 C3035 C 0.21800 0.74069 0.31153
 C3036 C 0.23124 0.73064 0.29713
 C3037 C 0.23914 0.71185 0.30299
 C3038 C 0.23422 0.70347 0.32259
 H3039 H 0.21474 0.63225 0.40775
 H3040 H 0.20791 0.64934 0.37414
 H3041 H 0.23414 0.70311 0.40036
 H3042 H 0.24070 0.68607 0.43409
 H3043 H 0.21828 0.67579 0.34944
 H3044 H 0.21661 0.71673 0.37234
 H3045 H 0.20365 0.74069 0.34262
 H3046 H 0.21187 0.75530 0.30781
 H3047 H 0.24968 0.70370 0.29269
 H3048 H 0.24134 0.68940 0.32670
 C3049 C 0.79565 0.84675 0.40691
 C3050 C 0.79963 0.83665 0.38741
 C3051 C 0.79311 0.81702 0.38392
 C3052 C 0.78312 0.80735 0.40067
 C3053 C 0.77899 0.81753 0.42014
 C3054 C 0.78481 0.83748 0.42325
 C3055 C 0.79396 0.80853 0.36174
 C3056 C 0.79234 0.78900 0.35681
 C3057 C 0.78690 0.78225 0.33482
 C3058 C 0.79403 0.76385 0.32627
 C3059 C 0.78739 0.75681 0.30615
 C3060 C 0.77316 0.76789 0.29451
 C3061 C 0.76595 0.78618 0.30344
 C3062 C 0.77287 0.79335 0.32311
 H3063 H 0.80014 0.86218 0.40875
 H3064 H 0.80711 0.84451 0.37466
 H3065 H 0.77744 0.79239 0.39841
 H3066 H 0.77073 0.81000 0.43255
 H3067 H 0.79442 0.81913 0.34876
 H3068 H 0.79368 0.77787 0.36918
 H3069 H 0.80456 0.75487 0.33527
 H3070 H 0.79293 0.74245 0.30010
 H3071 H 0.75463 0.79500 0.29541
 H3072 H 0.76650 0.80723 0.32960
 C3073 C 0.23222 0.34796 0.89634
 C3074 C 0.23365 0.33627 0.87753
 C3075 C 0.25118 0.32530 0.87255
 C3076 C 0.26745 0.32643 0.88670
 C3077 C 0.26598 0.33807 0.90565
 C3078 C 0.24824 0.34877 0.91081
 C3079 C 0.25110 0.31171 0.85348
 C3080 C 0.26746 0.30466 0.84310
 C3081 C 0.26552 0.29073 0.82445
 C3082 C 0.27731 0.29293 0.80594
 C3083 C 0.27329 0.28174 0.78717
 C3084 C 0.25738 0.26821 0.78665
 C3085 C 0.24694 0.26482 0.80596
 C3086 C 0.25100 0.27587 0.82457
 H3087 H 0.21850 0.35631 0.89960
 H3088 H 0.22089 0.33562 0.86690
 H3089 H 0.28102 0.31779 0.88363
 H3090 H 0.27849 0.33816 0.91662
 H3091 H 0.23656 0.30765 0.84734
 H3092 H 0.28212 0.30999 0.84734
 H3093 H 0.28881 0.30412 0.80562
 H3094 H 0.28174 0.28479 0.77276
 H3095 H 0.23490 0.25427 0.80668
 H3096 H 0.24222 0.27328 0.83893
 C3097 C 0.78987 0.43030 0.74491
 C3098 C 0.77956 0.41240 0.74722
 C3099 C 0.78748 0.39702 0.75982
 C3100 C 0.80525 0.40031 0.77118
 C3101 C 0.81544 0.41822 0.76906
 C3102 C 0.80816 0.43325 0.75547
 C3103 C 0.77743 0.37746 0.76030
 C3104 C 0.78797 0.36023 0.76045
 C3105 C 0.77891 0.34024 0.75884
 C3106 C 0.78985 0.32476 0.74855
 C3107 C 0.78227 0.30550 0.74708
 C3108 C 0.76372 0.30098 0.75643
 C3109 C 0.75270 0.31663 0.76672
 C3110 C 0.76018 0.33609 0.76785
 H3111 H 0.78387 0.44149 0.73424
 H3112 H 0.76580 0.41024 0.73845
 H3113 H 0.81137 0.38897 0.78160
 H3114 H 0.82914 0.42023 0.77795
 H3115 H 0.76137 0.37721 0.75841
 H3116 H 0.80413 0.36072 0.75997
 H3117 H 0.80431 0.32760 0.74143
 H3118 H 0.79112 0.29419 0.73856
 H3119 H 0.73833 0.31390 0.77405
 H3120 H 0.75153 0.34771 0.77621
 C3121 C 0.33810 0.90428 0.27402
 C3122 C 0.32962 0.88541 0.27479
 C3123 C 0.30910 0.88324 0.27796
 C3124 C 0.29717 0.90056 0.28099
 C3125 C 0.30562 0.91961 0.28035
 C3126 C 0.32638 0.92209 0.27660
 C3127 C 0.30120 0.86259 0.27723
 C3128 C 0.28183 0.85781 0.27606
 C3129 C 0.27557 0.83683 0.27232
 C3130 C 0.25730 0.83031 0.28055
 C3131 C 0.25122 0.81055 0.27692
 C3132 C 0.26320 0.79693 0.26470
 C3133 C 0.28127 0.80380 0.25611
 C3134 C 0.28732 0.82339 0.25976
 H3135 H 0.35379 0.90435 0.27003
 H3136 H 0.33923 0.87234 0.27221
 H3137 H 0.28131 0.89964 0.28403
 H3138 H 0.29561 0.93216 0.28362
 H3139 H 0.31224 0.85055 0.27673
 H3140 H 0.27025 0.86923 0.27753
 H3141 H 0.24782 0.84049 0.28999
 H3142 H 0.23711 0.80602 0.28367
 H3143 H 0.29081 0.79416 0.24619
 H3144 H 0.30105 0.82806 0.25227
 C3145 C 0.22352 0.90696 0.74144
 C3146 C 0.23338 0.88840 0.73915
 C3147 C 0.22569 0.87345 0.72552
 C3148 C 0.20890 0.87790 0.71288
 C3149 C 0.19909 0.89642 0.71513
 C3150 C 0.20590 0.91089 0.72996
 C3151 C 0.23428 0.85292 0.72617
 C3152 C 0.22250 0.83694 0.72527
 C3153 C 0.22941 0.81659 0.73068
 C3154 C 0.21626 0.80448 0.74186
 C3155 C 0.22218 0.78541 0.74807
 C3156 C 0.24124 0.77756 0.74261
 C3157 C 0.25436 0.78971 0.73105
 C3158 C 0.24855 0.80911 0.72525
 H3159 H 0.22912 0.91784 0.75296
 H3160 H 0.24638 0.88533 0.74893
 H3161 H 0.20304 0.86690 0.70165
 H3162 H 0.18589 0.89928 0.70560
 H3163 H 0.24984 0.85107 0.73051
 H3164 H 0.20655 0.83914 0.72333
 H3165 H 0.20149 0.81002 0.74638
 H3166 H 0.21180 0.77707 0.75760
 H3167 H 0.26920 0.78438 0.72663
 H3168 H 0.25891 0.81813 0.71638
 C3169 C 0.66496 0.40868 0.20683
 C3170 C 0.67317 0.38941 0.20450
 C3171 C 0.69180 0.38470 0.21342
 C3172 C 0.70253 0.39991 0.22398
 C3173 C 0.69425 0.41919 0.22642
 C3174 C 0.67512 0.42360 0.21842
 C3175 C 0.69822 0.36343 0.21393
 C3176 C 0.71713 0.35724 0.21678
 C3177 C 0.72210 0.33607 0.22109
 C3178 C 0.74015 0.32755 0.21358
 C3179 C 0.74524 0.30770 0.21825
 C3180 C 0.73252 0.29609 0.23092
 C3181 C 0.71466 0.30498 0.23880
 C3182 C 0.70947 0.32462 0.23387
 H3183 H 0.65035 0.41173 0.20014
 H3184 H 0.66462 0.37795 0.19632
 H3185 H 0.71672 0.39673 0.23152
 H3186 H 0.70233 0.43029 0.23566
 H3187 H 0.68663 0.35235 0.21256
 H3188 H 0.72921 0.36777 0.21609
 H3189 H 0.75028 0.33625 0.20401
 H3190 H 0.75928 0.30162 0.21211
 H3191 H 0.70478 0.29702 0.24930
 H3192 H 0.69582 0.33103 0.24067
 C3193 C 0.67008 0.59451 0.26806
 C3194 C 0.67831 0.61355 0.26886
 C3195 C 0.69649 0.61723 0.25849
 C3196 C 0.70639 0.60141 0.24728
 C3197 C 0.69802 0.58235 0.24628
 C3198 C 0.67973 0.57876 0.25659
 C3199 C 0.70366 0.63804 0.25828
 C3200 C 0.72284 0.64298 0.25572
 C3201 C 0.72885 0.66415 0.25459
 C3202 C 0.74715 0.67016 0.26321
 C3203 C 0.75268 0.69029 0.26272
 C3204 C 0.74012 0.70475 0.25329
 C3205 C 0.72213 0.69837 0.24400
 C3206 C 0.71657 0.67842 0.24465
 H3207 H 0.65581 0.59226 0.27586
 H3208 H 0.67029 0.62553 0.27739
 H3209 H 0.72019 0.60386 0.23866
 H3210 H 0.70575 0.57046 0.23733
 H3211 H 0.69256 0.64986 0.26090
 H3212 H 0.73441 0.63145 0.25531
 H3213 H 0.75700 0.65934 0.27069
 H3214 H 0.76677 0.69444 0.26984
 H3215 H 0.71206 0.70878 0.23631
 H3216 H 0.70267 0.67416 0.23716
 C3217 C 0.20813 0.07306 0.77307
 C3218 C 0.21588 0.09237 0.77405
 C3219 C 0.21577 0.10437 0.75577
 C3220 C 0.20887 0.09626 0.73615
 C3221 C 0.20108 0.07705 0.73518
 C3222 C 0.20028 0.06534 0.75370
 C3223 C 0.22246 0.12535 0.75764
 C3224 C 0.21450 0.13980 0.74551
 C3225 C 0.21979 0.16122 0.74689
 C3226 C 0.20707 0.17500 0.73691
 C3227 C 0.21159 0.19524 0.73670
 C3228 C 0.22906 0.20241 0.74644
 C3229 C 0.24179 0.18858 0.75664
 C3230 C 0.23725 0.16819 0.75683
 H3231 H 0.20810 0.06425 0.78752
 H3232 H 0.22143 0.09817 0.78926
 H3233 H 0.20927 0.10478 0.72152
 H3234 H 0.19511 0.07163 0.72003
 H3235 H 0.23294 0.12904 0.77023
 H3236 H 0.20267 0.13596 0.73443
 H3237 H 0.19361 0.17007 0.72895
 H3238 H 0.20155 0.20510 0.72821
 H3239 H 0.25549 0.19337 0.76414
 H3240 H 0.24773 0.15802 0.76428
 C3241 C 0.31190 0.08987 0.27119
 C3242 C 0.30150 0.10811 0.27019
 C3243 C 0.29238 0.11409 0.25100
 C3244 C 0.29356 0.10114 0.23284
 C3245 C 0.30401 0.08284 0.23385
 C3246 C 0.31333 0.07702 0.25303
 C3247 C 0.28158 0.13369 0.25102
 C3248 C 0.27670 0.14374 0.23322
 C3249 C 0.26706 0.16393 0.23421
 C3250 C 0.26991 0.17711 0.21718
 C3251 C 0.26227 0.19674 0.21843
 C3252 C 0.25194 0.20376 0.23694
 C3253 C 0.24752 0.18991 0.25302
 C3254 C 0.25506 0.17033 0.25176
 H3255 H 0.31914 0.08601 0.28612
 H3256 H 0.30078 0.11773 0.28445
 H3257 H 0.28627 0.10485 0.21792
 H3258 H 0.30459 0.07310 0.21969
 H3259 H 0.27863 0.14064 0.26664
 H3260 H 0.28117 0.13787 0.21753
 H3261 H 0.27844 0.17233 0.20306
 H3262 H 0.26454 0.20634 0.20489
 H3263 H 0.23859 0.19426 0.26698
 H3264 H 0.25144 0.16030 0.26462
 C3265 C 0.80493 0.59227 0.70639
 C3266 C 0.79652 0.61153 0.70462
 C3267 C 0.79770 0.62542 0.72180
 C3268 C 0.80662 0.61941 0.74114
 C3269 C 0.81490 0.60022 0.74294
 C3270 C 0.81434 0.58647 0.72554
 C3271 C 0.78945 0.64602 0.71953
 C3272 C 0.79817 0.66171 0.72919
 C3273 C 0.79032 0.68264 0.72988
 C3274 C 0.80208 0.69703 0.74016
 C3275 C 0.79483 0.71643 0.74390
 C3276 C 0.77557 0.72229 0.73725
 C3277 C 0.76404 0.70807 0.72608
 C3278 C 0.77127 0.68842 0.72249
 H3279 H 0.80403 0.58189 0.69281
 H3280 H 0.78946 0.61572 0.68968
 H3281 H 0.80719 0.62950 0.75497
 H3282 H 0.82213 0.59630 0.75787
 H3283 H 0.77649 0.64810 0.70947
 H3284 H 0.81205 0.65904 0.73763
 H3285 H 0.81672 0.69305 0.74625
 H3286 H 0.80403 0.72626 0.75340
 H3287 H 0.74909 0.71183 0.72080
 H3288 H 0.76159 0.67780 0.71464
 C3289 C 0.92726 0.74387 0.20357
 C3290 C 0.90960 0.74321 0.21571
 C3291 C 0.89186 0.75174 0.20809
 C3292 C 0.89198 0.76054 0.18776
 C3293 C 0.90948 0.76108 0.17547
 C3294 C 0.92774 0.75278 0.18297
 C3295 C 0.87320 0.75036 0.22097
 C3296 C 0.85869 0.76441 0.22019
 C3297 C 0.83842 0.76254 0.22965
 C3298 C 0.82313 0.77443 0.22107
 C3299 C 0.80344 0.77238 0.22776
 C3300 C 0.79836 0.75872 0.24381
 C3301 C 0.81379 0.74726 0.25308
 C3302 C 0.83365 0.74912 0.24607
 H3303 H 0.94012 0.73627 0.21019
 H3304 H 0.90981 0.73592 0.23114
 H3305 H 0.87843 0.76682 0.18104
 H3306 H 0.90845 0.76892 0.16047
 H3307 H 0.87138 0.73728 0.23074
 H3308 H 0.86124 0.77760 0.21075
 H3309 H 0.82631 0.78492 0.20846
 H3310 H 0.79214 0.78136 0.21990
 H3311 H 0.81051 0.73644 0.26528
 H3312 H 0.84507 0.73994 0.25341
 C3313 C 0.41325 0.27865 0.69931
 C3314 C 0.39470 0.28137 0.70956
 C3315 C 0.38131 0.26549 0.71070
 C3316 C 0.38678 0.24679 0.70139
 C3317 C 0.40510 0.24423 0.69070
 C3318 C 0.41839 0.26016 0.68948
 C3319 C 0.36096 0.26924 0.71945
 C3320 C 0.35071 0.25530 0.72986
 C3321 C 0.32915 0.25759 0.73487
 C3322 C 0.32111 0.24810 0.75282
 C3323 C 0.30041 0.24782 0.75616
 C3324 C 0.28727 0.25662 0.74129
 C3325 C 0.29551 0.26640 0.72355
 C3326 C 0.31614 0.26708 0.72050
 H3327 H 0.42327 0.29115 0.69833
 H3328 H 0.39068 0.29596 0.71636
 H3329 H 0.37655 0.23442 0.70151
 H3330 H 0.40879 0.22990 0.68306
 H3331 H 0.35411 0.28379 0.71680
 H3332 H 0.35817 0.24148 0.73432
 H3333 H 0.33084 0.24049 0.76400
 H3334 H 0.29474 0.24002 0.76996
 H3335 H 0.28614 0.27265 0.71125
 H3336 H 0.32180 0.27396 0.70611
 C3337 C 0.40986 0.75253 0.84388
 C3338 C 0.39088 0.75025 0.83512
 C3339 C 0.38830 0.73986 0.81550
 C3340 C 0.40526 0.73185 0.80467
 C3341 C 0.42432 0.73412 0.81349
 C3342 C 0.42679 0.74430 0.83332
 C3343 C 0.36764 0.73698 0.80771
 C3344 C 0.36278 0.73221 0.78732
 C3345 C 0.34169 0.73013 0.78058
 C3346 C 0.33605 0.73540 0.75969
 C3347 C 0.31597 0.73506 0.75356
 C3348 C 0.30112 0.72916 0.76813
 C3349 C 0.30702 0.72293 0.78871
 C3350 C 0.32702 0.72329 0.79480
 H3351 H 0.41127 0.76074 0.85900
 H3352 H 0.37811 0.75658 0.84381
 H3353 H 0.40388 0.72333 0.78977
 H3354 H 0.43705 0.72738 0.80512
 H3355 H 0.35576 0.73986 0.81933
 H3356 H 0.37422 0.73117 0.77496
 H3357 H 0.34711 0.74049 0.74835
 H3358 H 0.31209 0.74001 0.73763
 H3359 H 0.29617 0.71797 0.80034
 H3360 H 0.33092 0.71831 0.81074
 C3361 C 0.89665 0.24628 0.33174
 C3362 C 0.87876 0.24790 0.32046
 C3363 C 0.87653 0.23849 0.30021
 C3364 C 0.89272 0.22721 0.29150
 C3365 C 0.91070 0.22558 0.30286
 C3366 C 0.91289 0.23518 0.32308
 C3367 C 0.85738 0.24177 0.28874
 C3368 C 0.85146 0.23187 0.27088
 C3369 C 0.83176 0.23629 0.26096
 C3370 C 0.82096 0.22094 0.25088
 C3371 C 0.80130 0.22447 0.24403
 C3372 C 0.79199 0.24335 0.24743
 C3373 C 0.80371 0.25912 0.25548
 C3374 C 0.82329 0.25566 0.26205
 H3375 H 0.89789 0.25419 0.34706
 H3376 H 0.86665 0.25680 0.32755
 H3377 H 0.89179 0.21994 0.27584
 H3378 H 0.92289 0.21679 0.29580
 H3379 H 0.84724 0.25278 0.29603
 H3380 H 0.86035 0.21957 0.26419
 H3381 H 0.82739 0.20600 0.24919
 H3382 H 0.79319 0.21216 0.23693
 H3383 H 0.79768 0.27416 0.25756
 H3384 H 0.83159 0.26816 0.26849
 C3385 C 0.07144 0.26954 0.31114
 C3386 C 0.08853 0.27323 0.29897
 C3387 C 0.09832 0.25772 0.28727
 C3388 C 0.09031 0.23836 0.28773
 C3389 C 0.07311 0.23468 0.29988
 C3390 C 0.06360 0.25019 0.31194
 C3391 C 0.11769 0.26220 0.27674
 C3392 C 0.12777 0.24972 0.26317
 C3393 C 0.14876 0.25318 0.25643
 C3394 C 0.15661 0.24319 0.23804
 C3395 C 0.17701 0.24407 0.23300
 C3396 C 0.19006 0.25484 0.24640
 C3397 C 0.18196 0.26542 0.26435
 C3398 C 0.16169 0.26460 0.26931
 H3399 H 0.06477 0.28179 0.32050
 H3400 H 0.09443 0.28824 0.29916
 H3401 H 0.09750 0.22584 0.27934
 H3402 H 0.06735 0.21963 0.29996
 H3403 H 0.12413 0.27648 0.28096
 H3404 H 0.12087 0.23621 0.25719
 H3405 H 0.14704 0.23413 0.22794
 H3406 H 0.18265 0.23556 0.21919
 H3407 H 0.19140 0.27372 0.27530
 H3408 H 0.15658 0.27203 0.28401
 C3409 C 0.58921 0.78331 0.81879
 C3410 C 0.60722 0.78658 0.80807
 C3411 C 0.61743 0.77080 0.79725
 C3412 C 0.60896 0.75165 0.79699
 C3413 C 0.59093 0.74837 0.80776
 C3414 C 0.58102 0.76409 0.81908
 C3415 C 0.63767 0.77455 0.78851
 C3416 C 0.64741 0.76238 0.77436
 C3417 C 0.66876 0.76497 0.76872
 C3418 C 0.67627 0.75720 0.74905
 C3419 C 0.69668 0.75813 0.74413
 C3420 C 0.71006 0.76672 0.75891
 C3421 C 0.70242 0.77443 0.77862
 C3422 C 0.68211 0.77362 0.78343
 H3423 H 0.58212 0.79568 0.82760
 H3424 H 0.61348 0.80143 0.80873
 H3425 H 0.61650 0.73896 0.78928
 H3426 H 0.58491 0.73343 0.80753
 H3427 H 0.64495 0.78792 0.79439
 H3428 H 0.63973 0.75005 0.76671
 H3429 H 0.66635 0.75016 0.73757
 H3430 H 0.70197 0.75165 0.72902
 H3431 H 0.71215 0.78094 0.79062
 H3432 H 0.67712 0.77911 0.79910
 C3433 C 0.57155 0.23844 0.71036
 C3434 C 0.58924 0.23700 0.72221
 C3435 C 0.60692 0.24524 0.71444
 C3436 C 0.60675 0.25446 0.69429
 C3437 C 0.58920 0.25561 0.68230
 C3438 C 0.57129 0.24775 0.69020
 C3439 C 0.62558 0.24334 0.72701
 C3440 C 0.63923 0.25778 0.72734
 C3441 C 0.65904 0.25599 0.73773
 C3442 C 0.66925 0.27354 0.74287
 C3443 C 0.68913 0.27272 0.74945
 C3444 C 0.69961 0.25427 0.75066
 C3445 C 0.68886 0.23663 0.74690
 C3446 C 0.66885 0.23744 0.74046
 H3447 H 0.55806 0.23242 0.71715
 H3448 H 0.58905 0.22969 0.73762
 H3449 H 0.62031 0.26035 0.68751
 H3450 H 0.58983 0.26233 0.66660
 H3451 H 0.62779 0.23006 0.73647
 H3452 H 0.63581 0.27177 0.71948
 H3453 H 0.66203 0.28805 0.74103
 H3454 H 0.69653 0.28677 0.75246
 H3455 H 0.69579 0.22212 0.74817
 H3456 H 0.66153 0.22354 0.73652
 C3457 C 0.08155 0.76944 0.20053
 C3458 C 0.09844 0.76961 0.21371
 C3459 C 0.11073 0.75247 0.21547
 C3460 C 0.10544 0.73496 0.20387
 C3461 C 0.08853 0.73479 0.19078
 C3462 C 0.07652 0.75207 0.18872
 C3463 C 0.12964 0.75407 0.22792
 C3464 C 0.14160 0.73840 0.23233
 C3465 C 0.16247 0.74080 0.23929
 C3466 C 0.17719 0.72961 0.22824
 C3467 C 0.19724 0.73202 0.23308
 C3468 C 0.20322 0.74492 0.25003
 C3469 C 0.18833 0.75591 0.26149
 C3470 C 0.16810 0.75403 0.25600
 H3471 H 0.07246 0.78294 0.19952
 H3472 H 0.10211 0.78333 0.22229
 H3473 H 0.11454 0.72147 0.20406
 H3474 H 0.08526 0.72127 0.18163
 H3475 H 0.13463 0.76897 0.23221
 H3476 H 0.13728 0.72336 0.22801
 H3477 H 0.17320 0.71946 0.21518
 H3478 H 0.20806 0.72373 0.22328
 H3479 H 0.19231 0.76627 0.27432
 H3480 H 0.15689 0.76280 0.26481
   
