data_POSCAR
  _audit_creation_date              2014-09-24
  _audit_creation_method            'ToBaCCo'
  _symmetry_space_group_name_H-M    'P1'
  _symmetry_Int_Tables_number       1
  _symmetry_cell_setting            triclinic
  loop_
  _symmetry_equiv_pos_as_xyz
 x,y,z
_cell_length_a 50.8791
_cell_length_b 50.7095
_cell_length_c 50.3271
_cell_angle_alpha 89.818300
_cell_angle_beta 89.973700
_cell_angle_gamma 90.012000
loop_
  _atom_site_label
  _atom_site_type_symbol
  _atom_site_fract_x
  _atom_site_fract_y
  _atom_site_fract_z
C1 C 0.22751 1.07865 -0.01204
 C2 C 0.22073 1.07883 0.01431
 C3 C 0.22557 1.05368 0.02400
 N4 N 0.23451 1.03794 0.00425
 C5 C 0.23589 1.05329 -0.01774
 C6 C 0.22251 1.04563 0.05084
 C7 C 0.21913 1.01873 0.05782
 C8 C 0.22093 1.00856 0.08345
 C9 C 0.21581 0.98211 0.08185
 C10 C 0.21169 0.97653 0.05524
 N11 N 0.21323 0.99901 0.04077
 C12 C 0.20570 0.95132 0.04507
 C13 C 0.20638 0.94550 0.01785
 C14 C 0.19666 0.92256 0.00675
 C15 C 0.20538 0.92213 -0.01894
 C16 C 0.22056 0.94466 -0.02256
 N17 N 0.22087 0.95908 -0.00007
 C18 C 0.23631 0.94998 -0.04514
 C19 C 0.24597 0.97583 -0.05044
 C20 C 0.26647 0.98233 -0.06753
 C21 C 0.26920 1.00937 -0.06685
 C22 C 0.25088 1.01865 -0.04883
 N23 N 0.23678 0.99821 -0.03898
 C24 C 0.24707 1.04543 -0.04214
 H25 H 0.22639 1.09532 -0.02547
 H26 H 0.21291 1.09555 0.02502
 H27 H 0.22048 0.99986 -0.02655
 H28 H 0.22571 1.01884 0.10162
 H29 H 0.21528 0.96867 0.09856
 H30 H 0.18512 0.90735 0.01637
 H31 H 0.20150 0.90662 -0.03313
 H32 H 0.28365 1.02079 -0.07770
 H33 H 0.20847 1.00106 0.02076
 H34 H 0.27891 0.96913 -0.07872
 C35 C 0.73296 0.47878 0.57081
 C36 C 0.73360 0.50566 0.57347
 C37 C 0.72687 0.51615 0.54893
 N38 N 0.72197 0.49660 0.53148
 C39 C 0.72603 0.47369 0.54467
 C40 C 0.72427 0.54332 0.54339
 C41 C 0.72048 0.55358 0.51742
 C42 C 0.71242 0.57913 0.51179
 C43 C 0.71307 0.58198 0.48462
 C44 C 0.72119 0.55802 0.47428
 N45 N 0.72566 0.54079 0.49440
 C46 C 0.72569 0.55318 0.44696
 C47 C 0.72647 0.52732 0.43636
 C48 C 0.73384 0.52067 0.41070
 C49 C 0.72980 0.49400 0.40816
 C50 C 0.72088 0.48503 0.43258
 N51 N 0.71861 0.50546 0.44965
 C52 C 0.71358 0.45874 0.43851
 C53 C 0.70922 0.44939 0.46464
 C54 C 0.69935 0.42461 0.47093
 C55 C 0.70209 0.42143 0.49790
 C56 C 0.71329 0.44444 0.50745
 N57 N 0.71755 0.46136 0.48707
 C58 C 0.72169 0.44835 0.53387
 H59 H 0.73655 0.46476 0.58663
 H60 H 0.73833 0.51620 0.59151
 H61 H 0.72905 0.47826 0.48788
 H62 H 0.70681 0.59427 0.52578
 H63 H 0.70804 0.59971 0.47372
 H64 H 0.74140 0.53352 0.39531
 H65 H 0.73325 0.48259 0.39037
 H66 H 0.69692 0.40388 0.50900
 H67 H 0.73474 0.52252 0.49261
 H68 H 0.69196 0.40980 0.45743
 C69 C 0.69066 1.01872 1.05777
 C70 C 0.69091 0.99169 1.05804
 C71 C 0.70927 0.98397 1.03930
 N72 N 0.71975 1.00532 1.02717
 C73 C 0.70851 1.02668 1.03844
 C74 C 0.71710 0.95778 1.03395
 C75 C 0.72763 0.95095 1.00884
 C76 C 0.74127 0.92789 1.00323
 C77 C 0.74589 0.92782 0.97638
 C78 C 0.73530 0.95096 0.96632
 N79 N 0.72435 0.96507 0.98621
 C80 C 0.73409 0.95734 0.93908
 C81 C 0.73061 0.98344 0.92982
 C82 C 0.72601 0.99070 0.90370
 C83 C 0.72528 1.01775 0.90321
 C84 C 0.72901 1.02621 0.92916
 N85 N 0.73252 1.00513 0.94528
 C86 C 0.73041 1.05297 0.93722
 C87 C 0.73015 1.06134 0.96424
 C88 C 0.73166 1.08735 0.97250
 C89 C 0.72804 1.08744 0.99959
 C90 C 0.72462 1.06140 1.00762
 N91 N 0.72550 1.04584 0.98572
 C92 C 0.71683 1.05292 1.03361
 H93 H 0.67826 1.03095 1.07009
 H94 H 0.67870 0.97920 1.07040
 H95 H 0.72078 1.02602 0.98515
 H96 H 0.74726 0.91254 1.01693
 H97 H 0.75584 0.91242 0.96545
 H98 H 0.72340 0.97795 0.88671
 H99 H 0.72225 1.02971 0.88564
 H100 H 0.72583 1.10512 1.01129
 H101 H 0.71246 0.98163 0.98395
 H102 H 0.73354 1.10481 0.96027
 C103 C 0.27785 0.41709 0.49831
 C104 C 0.27221 0.41905 0.52487
 C105 C 0.26125 0.44378 0.52860
 N106 N 0.25995 0.45693 0.50529
 C107 C 0.27014 0.44072 0.48672
 C108 C 0.25056 0.45298 0.55267
 C109 C 0.24282 0.47947 0.55635
 C110 C 0.22645 0.48830 0.57650
 C111 C 0.22550 0.51528 0.57441
 C112 C 0.24110 0.52216 0.55289
 N113 N 0.25142 0.50025 0.54181
 C114 C 0.24641 0.54829 0.54479
 C115 C 0.25127 0.55479 0.51786
 C116 C 0.25458 0.58010 0.50799
 C117 C 0.25604 0.57792 0.48084
 C118 C 0.25442 0.55125 0.47492
 N119 N 0.25112 0.53725 0.49762
 C120 C 0.25412 0.54035 0.44896
 C121 C 0.25568 0.51290 0.44371
 C122 C 0.25291 0.50169 0.41872
 C123 C 0.25771 0.47515 0.42145
 C124 C 0.26302 0.47063 0.44810
 N125 N 0.26217 0.49381 0.46142
 C126 C 0.26976 0.44578 0.45917
 H127 H 0.28604 0.39996 0.48857
 H128 H 0.27545 0.40384 0.53964
 H129 H 0.26832 0.49675 0.48084
 H130 H 0.21622 0.47659 0.59124
 H131 H 0.21442 0.52835 0.58715
 H132 H 0.25513 0.59839 0.51897
 H133 H 0.25779 0.59434 0.46723
 H134 H 0.25756 0.46097 0.40546
 H135 H 0.26589 0.49991 0.52717
 H136 H 0.24850 0.51161 0.40018
 C137 C 1.08460 0.21758 -0.00054
 C138 C 1.08388 0.21028 0.02565
 C139 C 1.05843 0.21442 0.03443
 N140 N 1.04333 0.22289 0.01400
 C141 C 1.05914 0.22458 -0.00767
 C142 C 1.04985 0.21225 0.06122
 C143 C 1.02291 0.21161 0.06839
 C144 C 1.01339 0.21595 0.09394
 C145 C 0.98661 0.21381 0.09280
 C146 C 0.98033 0.20843 0.06661
 N147 N 1.00253 0.20695 0.05181
 C148 C 0.95454 0.20483 0.05716
 C149 C 0.94832 0.20610 0.03001
 C150 C 0.92492 0.19766 0.01892
 C151 C 0.92516 0.20599 -0.00701
 C152 C 0.94867 0.21949 -0.01072
 N153 N 0.96288 0.21924 0.01191
 C154 C 0.95603 0.23377 -0.03368
 C155 C 0.98205 0.24340 -0.03643
 C156 C 0.98959 0.26536 -0.05107
 C157 C 1.01658 0.26616 -0.05056
 C158 C 1.02481 0.24504 -0.03503
 N159 N 1.00360 0.23164 -0.02603
 C160 C 1.05101 0.23615 -0.03214
 H161 H 1.10256 0.21916 -0.01181
 H162 H 1.10061 0.20357 0.03708
 H163 H 1.00399 0.21349 -0.01619
 H164 H 1.02441 0.22090 0.11161
 H165 H 0.97331 0.21654 0.10934
 H166 H 0.90915 0.18707 0.02869
 H167 H 0.90961 0.20266 -0.02126
 H168 H 1.02859 0.28082 -0.06041
 H169 H 1.00376 0.20127 0.03197
 H170 H 0.97702 0.27937 -0.06116
 C171 C 0.47750 0.70956 0.58766
 C172 C 0.50420 0.71313 0.58852
 C173 C 0.51279 0.71384 0.56239
 N174 N 0.49226 0.71085 0.54567
 C175 C 0.47057 0.70874 0.56101
 C176 C 0.53921 0.71619 0.55422
 C177 C 0.54644 0.71734 0.52714
 C178 C 0.57097 0.71061 0.51728
 C179 C 0.57087 0.71692 0.49072
 C180 C 0.54626 0.72734 0.48509
 N181 N 0.53138 0.72726 0.50736
 C182 C 0.53908 0.73892 0.46058
 C183 C 0.51270 0.74435 0.45375
 C184 C 0.50455 0.76086 0.43338
 C185 C 0.47752 0.76027 0.43342
 C186 C 0.47010 0.74315 0.45361
 N187 N 0.49166 0.73346 0.46594
 C188 C 0.44401 0.73593 0.46015
 C189 C 0.43779 0.72118 0.48314
 C190 C 0.41414 0.70823 0.48736
 C191 C 0.41446 0.69927 0.51314
 C192 C 0.43833 0.70695 0.52397
 N193 N 0.45252 0.72009 0.50545
 C194 C 0.44481 0.70509 0.55117
 H195 H 0.46479 0.70769 0.60479
 H196 H 0.51582 0.71481 0.60643
 H197 H 0.46927 0.73125 0.50899
 H198 H 0.58735 0.70234 0.52820
 H199 H 0.58726 0.71457 0.47721
 H200 H 0.51676 0.77251 0.42021
 H201 H 0.46488 0.77142 0.42026
 H202 H 0.39848 0.68911 0.52301
 H203 H 0.51345 0.73680 0.50977
 H204 H 0.39799 0.70611 0.47354
 C205 C 0.06400 0.71117 0.01480
 C206 C 0.06343 0.71367 -0.01241
 C207 C 0.04286 0.73069 -0.01847
 N208 N 0.03048 0.73800 0.00409
 C209 C 0.04343 0.72620 0.02436
 C210 C 0.03592 0.74021 -0.04408
 C211 C 0.01029 0.75017 -0.04914
 C212 C 0.00360 0.76653 -0.07026
 C213 C -0.02314 0.77018 -0.06917
 C214 C -0.03225 0.75568 -0.04766
 N215 N -0.01167 0.74411 -0.03510
 C216 C -0.05904 0.75251 -0.04037
 C217 C -0.06601 0.74866 -0.01338
 C218 C -0.09032 0.74014 -0.00426
 C219 C -0.08915 0.74038 0.02295
 C220 C -0.06429 0.74936 0.02968
 N221 N -0.05005 0.75407 0.00742
 C222 C -0.05476 0.75302 0.05589
 C223 C -0.02748 0.75256 0.06142
 C224 C -0.01598 0.76094 0.08501
 C225 C 0.01003 0.75401 0.08388
 C226 C 0.01385 0.74209 0.05948
 N227 N -0.00895 0.74152 0.04573
 C228 C 0.03746 0.73023 0.05137
 H229 H 0.07776 0.69945 0.02621
 H230 H 0.07645 0.70369 -0.02608
 H231 H -0.01225 0.73119 0.02818
 H232 H 0.01663 0.77526 -0.08484
 H233 H -0.03449 0.78240 -0.08258
 H234 H -0.10701 0.73369 -0.01586
 H235 H -0.10461 0.73382 0.03617
 H236 H 0.02446 0.75722 0.09933
 H237 H -0.01298 0.73061 -0.01948
 H238 H -0.02533 0.77071 0.10160
 C239 C 0.48956 0.27658 0.43413
 C240 C 0.51656 0.27626 0.43278
 C241 C 0.52537 0.26435 0.45594
 N242 N 0.50466 0.25748 0.47139
 C243 C 0.48274 0.26491 0.45809
 C244 C 0.55197 0.25897 0.46227
 C245 C 0.55998 0.25151 0.48814
 C246 C 0.58385 0.23975 0.49423
 C247 C 0.58499 0.23757 0.52145
 C248 C 0.56193 0.24834 0.53132
 N249 N 0.54669 0.25660 0.51086
 C250 C 0.55605 0.25162 0.55863
 C251 C 0.53033 0.25633 0.56795
 C252 C 0.52397 0.26315 0.59383
 C253 C 0.49709 0.26391 0.59517
 C254 C 0.48791 0.25753 0.57008
 N255 N 0.50825 0.25289 0.55345
 C256 C 0.46120 0.25423 0.56336
 C257 C 0.45270 0.25092 0.53682
 C258 C 0.42846 0.24088 0.52935
 C259 C 0.42725 0.24255 0.50212
 C260 C 0.45088 0.25336 0.49363
 N261 N 0.46634 0.25830 0.51489
 C262 C 0.45674 0.26020 0.46703
 H263 H 0.47651 0.28477 0.41927
 H264 H 0.52828 0.28419 0.41669
 H265 H 0.48384 0.26892 0.51462
 H266 H 0.59893 0.23342 0.48048
 H267 H 0.60108 0.22910 0.53264
 H268 H 0.53728 0.26709 0.61011
 H269 H 0.48566 0.26854 0.61269
 H270 H 0.41078 0.23655 0.48995
 H271 H 0.52966 0.26786 0.51238
 H272 H 0.41316 0.23320 0.54215
 C273 C 1.07020 0.00002 0.22704
 C274 C 1.06814 0.02688 0.22748
 C275 C 1.04642 0.03288 0.24294
 N276 N 1.03443 0.01035 0.25098
 C277 C 1.04921 -0.00984 0.24165
 C278 C 1.03846 0.05882 0.24999
 C279 C 1.01204 0.06473 0.25736
 C280 C 1.00363 0.08880 0.26745
 C281 C 0.97705 0.08689 0.27150
 C282 C 0.96967 0.06163 0.26427
 N283 N 0.99106 0.04821 0.25552
 C284 C 0.94368 0.05179 0.26709
 C285 C 0.93741 0.02463 0.26885
 C286 C 0.91319 0.01483 0.27679
 C287 C 0.91525 -0.01204 0.27692
 C288 C 0.94035 -0.01803 0.26813
 N289 N 0.95402 0.00447 0.26359
 C290 C 0.94968 -0.04386 0.26309
 C291 C 0.97596 -0.04959 0.25580
 C292 C 0.98386 -0.07346 0.24513
 C293 C 1.01034 -0.07164 0.24062
 C294 C 1.01833 -0.04692 0.24925
 N295 N 0.99706 -0.03336 0.25809
 C296 C 1.04439 -0.03702 0.24647
 H297 H 1.08490 -0.01079 0.21602
 H298 H 1.08099 0.04041 0.21707
 H299 H 0.99732 -0.01495 0.26712
 H300 H 1.01528 0.10600 0.27212
 H301 H 0.96474 0.10215 0.27989
 H302 H 0.89578 0.02565 0.28248
 H303 H 0.89982 -0.02547 0.28288
 H304 H 1.02206 -0.08649 0.23078
 H305 H 0.99099 0.02956 0.24701
 H306 H 0.97165 -0.09021 0.24017
 C307 C 0.51464 0.57760 0.78806
 C308 C 0.54103 0.57654 0.78251
 C309 C 0.54565 0.55225 0.77087
 N310 N 0.52301 0.53828 0.76966
 C311 C 0.50402 0.55361 0.78036
 C312 C 0.56997 0.54374 0.76020
 C313 C 0.57415 0.51770 0.75121
 C314 C 0.59413 0.51025 0.73407
 C315 C 0.59255 0.48334 0.73145
 C316 C 0.57189 0.47497 0.74738
 N317 N 0.56063 0.49610 0.75922
 C318 C 0.56495 0.44825 0.75181
 C319 C 0.54037 0.44053 0.76232
 C320 C 0.53370 0.41496 0.76940
 C321 C 0.50789 0.41556 0.77711
 C322 C 0.49959 0.44154 0.77471
 N323 N 0.51947 0.45669 0.76546
 C324 C 0.47358 0.45032 0.77934
 C325 C 0.46590 0.47730 0.77934
 C326 C 0.44028 0.48617 0.78222
 C327 C 0.44122 0.51325 0.78275
 C328 C 0.46743 0.52052 0.78025
 N329 N 0.48228 0.49839 0.77860
 C330 C 0.47702 0.54688 0.78194
 H331 H 0.50463 0.59412 0.79707
 H332 H 0.55507 0.59201 0.78660
 H333 H 0.50257 0.49764 0.77935
 H334 H 0.60835 0.52293 0.72439
 H335 H 0.60531 0.47133 0.71926
 H336 H 0.54603 0.39759 0.76897
 H337 H 0.49656 0.39863 0.78351
 H338 H 0.42441 0.52590 0.78588
 H339 H 0.54677 0.49556 0.77440
 H340 H 0.42265 0.47451 0.78463
 C341 C 1.03058 1.07775 0.75502
 C342 C 1.00373 1.07693 0.75264
 C343 C 0.99744 1.05197 0.74354
 N344 N 1.01967 1.03794 0.73928
 C345 C 1.04005 1.05376 0.74591
 C346 C 0.97181 1.04274 0.73787
 C347 C 0.96587 1.01568 0.73486
 C348 C 0.94184 1.00583 0.72648
 C349 C 0.94260 0.97898 0.73023
 C350 C 0.96721 0.97302 0.74051
 N351 N 0.98118 0.99556 0.74334
 C352 C 0.97527 0.94797 0.74995
 C353 C 1.00142 0.94247 0.75718
 C354 C 1.00958 0.92083 0.77189
 C355 C 1.03651 0.92174 0.77241
 C356 C 1.04390 0.94341 0.75724
 N357 N 1.02238 0.95621 0.74827
 C358 C 1.06989 0.95085 0.75065
 C359 C 1.07572 0.97705 0.74278
 C360 C 1.09843 0.98479 0.72958
 C361 C 1.09750 1.01170 0.72737
 C362 C 1.07420 1.01982 0.73917
 N363 N 1.06081 0.99854 0.74820
 C364 C 1.06686 1.04647 0.74296
 H365 H 1.04152 1.09408 0.76319
 H366 H 0.99057 1.09288 0.75765
 H367 H 1.04405 0.99901 0.76008
 H368 H 0.92496 1.01688 0.71959
 H369 H 0.92631 0.96574 0.72682
 H370 H 0.99747 0.90602 0.78141
 H371 H 1.04911 0.90806 0.78292
 H372 H 1.11233 1.02391 0.71804
 H373 H 0.99868 0.99744 0.75381
 H374 H 1.11410 0.97240 0.72217
 C375 C 0.41358 0.48032 0.21389
 C376 C 0.40928 0.50697 0.21377
 C377 C 0.43368 0.51883 0.21643
 N378 N 0.45263 0.50029 0.21848
 C379 C 0.44040 0.47670 0.21729
 C380 C 0.43810 0.54629 0.21653
 C381 C 0.46345 0.55778 0.21638
 C382 C 0.46858 0.58342 0.20821
 C383 C 0.49484 0.58775 0.21211
 C384 C 0.50523 0.56456 0.22235
 N385 N 0.48597 0.54628 0.22486
 C386 C 0.53183 0.56145 0.22964
 C387 C 0.54396 0.53673 0.23397
 C388 C 0.56992 0.53316 0.24153
 C389 C 0.57447 0.50657 0.24133
 C390 C 0.55093 0.49461 0.23442
 N391 N 0.53237 0.51312 0.22990
 C392 C 0.54699 0.46709 0.23283
 C393 C 0.52195 0.45498 0.23049
 C394 C 0.51716 0.42871 0.23664
 C395 C 0.49088 0.42445 0.23305
 C396 C 0.47999 0.44825 0.22502
 N397 N 0.49913 0.46678 0.22322
 C398 C 0.45276 0.45194 0.22058
 H399 H 0.39851 0.46540 0.21202
 H400 H 0.39029 0.51634 0.21173
 H401 H 0.49706 0.48578 0.21583
 H402 H 0.45481 0.59758 0.20009
 H403 H 0.50517 0.60590 0.20767
 H404 H 0.58428 0.54805 0.24657
 H405 H 0.59299 0.49727 0.24617
 H406 H 0.48083 0.40600 0.23685
 H407 H 0.48754 0.52821 0.23454
 H408 H 0.53094 0.41417 0.24397
 O409 O 0.26322 0.17950 0.21145
 O410 O 0.29426 0.17130 0.24699
 O411 O 0.19429 0.20295 0.25312
 O412 O 0.18235 0.23402 0.28131
 O413 O 0.22279 0.24884 0.18555
 O414 O 0.25675 0.27936 0.17926
 O415 O 0.25951 0.27627 0.32511
 O416 O 0.23252 0.23855 0.33080
 O417 O 0.32851 0.24741 0.28825
 O418 O 0.33912 0.22402 0.25014
 O419 O 0.28967 0.31513 0.26108
 O420 O 0.25209 0.32267 0.23046
 O421 O 0.25305 0.30930 0.29513
 O422 O 0.22397 0.31763 0.25751
 O423 O 0.32391 0.28679 0.25596
 O424 O 0.33306 0.25089 0.22125
 O425 O 0.29836 0.24426 0.32148
 O426 O 0.26468 0.20988 0.32814
 O427 O 0.26210 0.21394 0.18232
 O428 O 0.28816 0.25344 0.17769
 O429 O 0.19150 0.24201 0.21720
 O430 O 0.18362 0.26958 0.25727
 O431 O 0.22815 0.17379 0.25063
 O432 O 0.26657 0.16707 0.27746
 Zr433 Zr 0.26216 0.19768 0.24922
 O434 O 0.28570 0.22040 0.27499
 Zr435 Zr 0.21275 0.24002 0.25326
 O436 O 0.23379 0.26406 0.27995
 Zr437 Zr 0.25828 0.24744 0.20632
 O438 O 0.28079 0.27245 0.23039
 Zr439 Zr 0.26189 0.24206 0.30125
 O440 O 0.23814 0.21708 0.27720
 Zr441 Zr 0.30624 0.24931 0.25340
 O442 O 0.28558 0.22422 0.22721
 Zr443 Zr 0.25620 0.29125 0.25798
 O444 O 0.23315 0.26894 0.23139
 O445 O 0.23588 0.21941 0.22649
 O446 O 0.28353 0.27033 0.28064
 C447 C 0.26345 0.18927 0.18779
 C448 C 0.20354 0.17940 0.25221
 C449 C 0.19890 0.24617 0.19307
 C450 C 0.25521 0.30053 0.31890
 C451 C 0.32214 0.24582 0.31282
 C452 C 0.31425 0.30996 0.25921
 H453 H 0.29795 0.20857 0.28451
 H454 H 0.29042 0.28517 0.21910
 H455 H 0.22520 0.20820 0.21458
 H456 H 0.22122 0.27276 0.29208
 H457 H 0.21970 0.22538 0.32425
 H458 H 0.18818 0.24206 0.29817
 H459 H 0.33038 0.26780 0.21177
 H460 H 0.30246 0.24090 0.18196
 H461 H 0.27987 0.19889 0.32291
 H462 H 0.25509 0.17167 0.29264
 H463 H 0.26719 0.32213 0.21809
 H464 H 0.24553 0.29295 0.18759
 H465 H 0.30673 0.17888 0.23392
 H466 H 0.33397 0.20685 0.25791
 H467 H 0.18670 0.28270 0.24299
 H468 H 0.21122 0.31151 0.27104
 O469 O 0.72626 0.83842 0.22170
 O470 O 0.69814 0.83792 0.25927
 O471 O 0.79809 0.80665 0.25425
 O472 O 0.81063 0.77028 0.27520
 O473 O 0.76881 0.77960 0.17937
 O474 O 0.73608 0.74929 0.16644
 O475 O 0.73287 0.71842 0.30947
 O476 O 0.76085 0.75275 0.32311
 O477 O 0.66484 0.75194 0.28049
 O478 O 0.65358 0.78572 0.24897
 O479 O 0.70361 0.69499 0.23472
 O480 O 0.74256 0.69452 0.20696
 O481 O 0.73569 0.69241 0.27286
 O482 O 0.76962 0.69368 0.23611
 O483 O 0.66907 0.72296 0.23976
 O484 O 0.65873 0.76553 0.21505
 O485 O 0.69513 0.75120 0.31372
 O486 O 0.72969 0.78266 0.32699
 O487 O 0.72856 0.81216 0.18522
 O488 O 0.70366 0.77397 0.17128
 O489 O 0.80066 0.77543 0.21086
 O490 O 0.80892 0.74034 0.24443
 O491 O 0.76398 0.83546 0.25784
 O492 O 0.72707 0.83432 0.28888
 Zr493 Zr 0.73006 0.81184 0.25369
 O494 O 0.70682 0.78360 0.27357
 Zr495 Zr 0.77985 0.77012 0.24698
 O496 O 0.75920 0.74041 0.26790
 Zr497 Zr 0.73377 0.77382 0.20025
 O498 O 0.71188 0.74350 0.21807
 Zr499 Zr 0.73134 0.75698 0.29383
 O500 O 0.75481 0.78683 0.27593
 Zr501 Zr 0.68636 0.76019 0.24605
 O502 O 0.70653 0.79102 0.22633
 Zr503 Zr 0.73670 0.71885 0.24053
 O504 O 0.75920 0.74703 0.21934
 O505 O 0.75615 0.79634 0.22612
 O506 O 0.70961 0.73394 0.26757
 C507 C 0.72579 0.83469 0.19648
 C508 C 0.78865 0.82993 0.25762
 C509 C 0.79289 0.77872 0.18671
 C510 C 0.73409 0.69578 0.29809
 C511 C 0.67143 0.74956 0.30493
 C512 C 0.67896 0.70006 0.23541
 H513 H 0.69463 0.79275 0.28573
 H514 H 0.70242 0.73376 0.20404
 H515 H 0.76629 0.81018 0.21672
 H516 H 0.77160 0.72907 0.27784
 H517 H 0.77397 0.76677 0.31968
 H518 H 0.80520 0.75848 0.28988
 H519 H 0.66220 0.75204 0.20134
 H520 H 0.68913 0.78476 0.17850
 H521 H 0.71470 0.79481 0.32448
 H522 H 0.74087 0.82775 0.30108
 H523 H 0.72991 0.70020 0.19317
 H524 H 0.74919 0.73546 0.17061
 H525 H 0.68411 0.83200 0.24704
 H526 H 0.65711 0.79828 0.26352
 H527 H 0.80510 0.72998 0.22825
 H528 H 0.77986 0.69411 0.25280
 O529 O 0.77746 0.19289 0.78009
 O530 O 0.74980 0.18426 0.74302
 O531 O 0.84874 0.21981 0.74143
 O532 O 0.85862 0.25060 0.71081
 O533 O 0.81911 0.26155 0.80766
 O534 O 0.78350 0.29222 0.81393
 O535 O 0.78144 0.29239 0.66882
 O536 O 0.81188 0.25586 0.66371
 O537 O 0.71418 0.26152 0.70241
 O538 O 0.70455 0.23396 0.74146
 O539 O 0.74939 0.32877 0.73565
 O540 O 0.78769 0.33623 0.76480
 O541 O 0.78450 0.32533 0.69924
 O542 O 0.81482 0.33383 0.73628
 O543 O 0.71608 0.29888 0.73696
 O544 O 0.70654 0.26247 0.76900
 O545 O 0.74576 0.25934 0.67051
 O546 O 0.77593 0.22706 0.66390
 O547 O 0.78077 0.22618 0.81015
 O548 O 0.75331 0.26404 0.81570
 O549 O 0.85032 0.25881 0.77538
 O550 O 0.85773 0.28610 0.73636
 O551 O 0.81602 0.18922 0.74342
 O552 O 0.77771 0.18149 0.71411
 Zr553 Zr 0.78098 0.21181 0.74274
 O554 O 0.75738 0.23447 0.71682
 Zr555 Zr 0.82901 0.25604 0.73982
 O556 O 0.80761 0.28050 0.71379
 Zr557 Zr 0.78324 0.26049 0.78677
 O558 O 0.75973 0.28507 0.76286
 Zr559 Zr 0.78103 0.25770 0.69186
 O560 O 0.80493 0.23243 0.71538
 Zr561 Zr 0.73525 0.26200 0.73854
 O562 O 0.75664 0.23726 0.76486
 Zr563 Zr 0.78381 0.30597 0.73618
 O564 O 0.80761 0.28363 0.76227
 O565 O 0.80636 0.23387 0.76606
 O566 O 0.75786 0.28458 0.71254
 C567 C 0.77794 0.20179 0.80402
 C568 C 0.84043 0.19597 0.74279
 C569 C 0.84313 0.26086 0.79970
 C570 C 0.78285 0.31683 0.67533
 C571 C 0.72173 0.26069 0.67802
 C572 C 0.72495 0.32262 0.73618
 H573 H 0.74614 0.22257 0.70621
 H574 H 0.74954 0.29698 0.77445
 H575 H 0.81701 0.22281 0.77819
 H576 H 0.81977 0.29017 0.70193
 H577 H 0.82297 0.24057 0.66869
 H578 H 0.85337 0.26075 0.69487
 H579 H 0.71074 0.27723 0.78107
 H580 H 0.73886 0.25226 0.81004
 H581 H 0.78626 0.21191 0.67046
 H582 H 0.79338 0.18256 0.70251
 H583 H 0.77355 0.33388 0.77809
 H584 H 0.79658 0.30508 0.80722
 H585 H 0.73561 0.19215 0.75386
 H586 H 0.70801 0.21997 0.72826
 H587 H 0.85297 0.30001 0.74925
 H588 H 0.82735 0.32885 0.72213
 O589 O 0.25451 0.80585 0.79183
 O590 O 0.28042 0.80926 0.75380
 O591 O 0.18592 0.76526 0.76225
 O592 O 0.17574 0.72684 0.74504
 O593 O 0.22191 0.74160 0.83725
 O594 O 0.25905 0.71691 0.84847
 O595 O 0.25545 0.68748 0.70417
 O596 O 0.22541 0.71883 0.69208
 O597 O 0.32265 0.72948 0.72968
 O598 O 0.33183 0.76217 0.76228
 O599 O 0.29354 0.66560 0.77394
 O600 O 0.25951 0.65915 0.80553
 O601 O 0.25708 0.66013 0.73996
 O602 O 0.22741 0.65830 0.78157
 O603 O 0.32448 0.69767 0.76955
 O604 O 0.33083 0.74027 0.79550
 O605 O 0.29076 0.72227 0.69886
 O606 O 0.25250 0.75206 0.68817
 O607 O 0.25720 0.78026 0.82897
 O608 O 0.28838 0.74468 0.84074
 O609 O 0.18908 0.73560 0.80720
 O610 O 0.18383 0.69832 0.77475
 O611 O 0.21597 0.79816 0.75737
 O612 O 0.25192 0.80148 0.72508
 Zr613 Zr 0.25260 0.77901 0.76056
 O614 O 0.27800 0.75404 0.73950
 Zr615 Zr 0.20857 0.73163 0.77028
 O616 O 0.23115 0.70501 0.74765
 Zr617 Zr 0.25633 0.74101 0.81426
 O618 O 0.28037 0.71313 0.79477
 Zr619 Zr 0.25534 0.72521 0.72048
 O620 O 0.22948 0.75150 0.73993
 Zr621 Zr 0.30242 0.73284 0.76570
 O622 O 0.27989 0.76114 0.78654
 Zr623 Zr 0.25761 0.68582 0.77319
 O624 O 0.23352 0.71109 0.79640
 O625 O 0.23000 0.76064 0.78965
 O626 O 0.28114 0.70441 0.74494
 C627 C 0.25652 0.80280 0.81699
 C628 C 0.19225 0.78940 0.75805
 C629 C 0.19761 0.73894 0.83104
 C630 C 0.25613 0.66449 0.71475
 C631 C 0.31488 0.72516 0.70589
 C632 C 0.31744 0.67343 0.77215
 H633 H 0.28836 0.76474 0.72684
 H634 H 0.29176 0.70417 0.80788
 H635 H 0.21867 0.77322 0.79938
 H636 H 0.21932 0.69257 0.73844
 H637 H 0.21059 0.73048 0.69702
 H638 H 0.18226 0.71847 0.72860
 H639 H 0.32978 0.72592 0.80881
 H640 H 0.30043 0.75794 0.83293
 H641 H 0.26821 0.76354 0.68818
 H642 H 0.23801 0.79384 0.71370
 H643 H 0.26978 0.66776 0.81973
 H644 H 0.24919 0.70059 0.84440
 H645 H 0.29577 0.80510 0.76514
 H646 H 0.32576 0.77508 0.74886
 H647 H 0.18852 0.68979 0.79183
 H648 H 0.21619 0.65690 0.76559
 O649 O 0.25260 0.33621 0.74405
 O650 O 0.22853 0.33545 0.78576
 O651 O 0.32427 0.29686 0.76532
 O652 O 0.33487 0.25779 0.78445
 O653 O 0.28324 0.27482 0.69419
 O654 O 0.24470 0.24863 0.68569
 O655 O 0.26137 0.21071 0.82443
 O656 O 0.29386 0.24432 0.83479
 O657 O 0.19195 0.25366 0.80968
 O658 O 0.18115 0.29189 0.78107
 O659 O 0.21560 0.19606 0.75591
 O660 O 0.25057 0.19464 0.72016
 O661 O 0.25448 0.18708 0.78676
 O662 O 0.27943 0.18574 0.74586
 O663 O 0.18588 0.22783 0.76650
 O664 O 0.17638 0.27135 0.74743
 O665 O 0.22687 0.24430 0.83625
 O666 O 0.26011 0.27190 0.84750
 O667 O 0.24777 0.31154 0.70670
 O668 O 0.21757 0.27796 0.69465
 O669 O 0.31826 0.26719 0.72126
 O670 O 0.32822 0.23109 0.75096
 O671 O 0.29353 0.32827 0.77408
 O672 O 0.26134 0.33030 0.80972
 Zr673 Zr 0.25765 0.30792 0.77450
 O674 O 0.23561 0.28080 0.79716
 Zr675 Zr 0.30179 0.26220 0.75939
 O676 O 0.28116 0.23283 0.78081
 Zr677 Zr 0.25049 0.27236 0.71967
 O678 O 0.22751 0.24418 0.73963
 Zr679 Zr 0.25968 0.25033 0.81162
 O680 O 0.28270 0.27965 0.79219
 Zr681 Zr 0.20860 0.26178 0.77224
 O682 O 0.22883 0.29085 0.75003
 Zr683 Zr 0.25228 0.21554 0.75646
 O684 O 0.27530 0.24243 0.73408
 O685 O 0.27820 0.29139 0.74296
 O686 O 0.23160 0.23160 0.78822
 C687 C 0.24885 0.33369 0.71893
 C688 C 0.31731 0.32074 0.77046
 C689 C 0.30794 0.27162 0.69834
 C690 C 0.25829 0.18886 0.81187
 C691 C 0.20213 0.24683 0.83203
 C692 C 0.19201 0.20420 0.76008
 H693 H 0.22693 0.29008 0.81203
 H694 H 0.21490 0.23652 0.72687
 H695 H 0.28838 0.30448 0.73259
 H696 H 0.29369 0.21966 0.78786
 H697 H 0.30500 0.26019 0.83250
 H698 H 0.33024 0.24457 0.79816
 H699 H 0.17807 0.26088 0.73097
 H700 H 0.20472 0.28848 0.70489
 H701 H 0.26791 0.28922 0.84323
 H702 H 0.27763 0.32444 0.81873
 H703 H 0.23422 0.19989 0.71091
 H704 H 0.25748 0.23396 0.68693
 H705 H 0.21343 0.33273 0.77368
 H706 H 0.18703 0.30086 0.79745
 H707 H 0.32009 0.22045 0.73671
 H708 H 0.29476 0.18727 0.75783
 O709 O 0.75754 0.68956 0.69781
 O710 O 0.78635 0.68211 0.73511
 O711 O 0.69128 0.72689 0.73535
 O712 O 0.68387 0.76267 0.75981
 O713 O 0.72442 0.75851 0.66305
 O714 O 0.76217 0.78555 0.65397
 O715 O 0.76476 0.79932 0.79831
 O716 O 0.73240 0.76619 0.80750
 O717 O 0.82958 0.75760 0.76769
 O718 O 0.83635 0.72710 0.73142
 O719 O 0.80067 0.82549 0.72676
 O720 O 0.76206 0.83373 0.69818
 O721 O 0.76741 0.82900 0.76443
 O722 O 0.73642 0.83723 0.72807
 O723 O 0.83080 0.79264 0.73103
 O724 O 0.83626 0.75291 0.70128
 O725 O 0.79871 0.76160 0.80010
 O726 O 0.76158 0.73451 0.81055
 O727 O 0.76069 0.72020 0.66477
 O728 O 0.78967 0.75536 0.65484
 O729 O 0.69303 0.76062 0.69523
 O730 O 0.68917 0.79433 0.73032
 O731 O 0.72090 0.69326 0.73590
 O732 O 0.75750 0.68495 0.76481
 Zr733 Zr 0.75775 0.71228 0.73301
 O734 O 0.78381 0.73472 0.75642
 Zr735 Zr 0.71427 0.76102 0.73115
 O736 O 0.73834 0.78542 0.75472
 Zr737 Zr 0.76001 0.75661 0.68424
 O738 O 0.78601 0.78086 0.70543
 Zr739 Zr 0.76282 0.76242 0.77910
 O740 O 0.73632 0.73782 0.75797
 Zr741 Zr 0.80819 0.75781 0.73196
 O742 O 0.78429 0.73294 0.70838
 Zr743 Zr 0.76431 0.80628 0.72987
 O744 O 0.73813 0.78416 0.70612
 O745 O 0.73446 0.73433 0.70746
 O746 O 0.78830 0.78484 0.75572
 C747 C 0.75947 0.69635 0.67320
 C748 C 0.69728 0.70234 0.73674
 C749 C 0.70041 0.75978 0.67080
 C750 C 0.76677 0.82297 0.78916
 C751 C 0.82262 0.75932 0.79214
 C752 C 0.82433 0.81698 0.72823
 H753 H 0.79421 0.72266 0.76771
 H754 H 0.79719 0.79055 0.69265
 H755 H 0.72268 0.72297 0.69683
 H756 H 0.72730 0.79734 0.76551
 H757 H 0.71856 0.75337 0.80256
 H758 H 0.69028 0.77356 0.77473
 H759 H 0.83479 0.76814 0.68905
 H760 H 0.80377 0.74390 0.66196
 H761 H 0.77268 0.71933 0.80552
 H762 H 0.74593 0.69247 0.77867
 H763 H 0.77558 0.82885 0.68495
 H764 H 0.74993 0.79985 0.65907
 H765 H 0.80027 0.68689 0.72221
 H766 H 0.83081 0.71371 0.74461
 H767 H 0.69501 0.80561 0.71535
 H768 H 0.72338 0.83430 0.74235
 O769 O 0.25090 0.68566 0.28893
 O770 O 0.22008 0.67677 0.25258
 O771 O 0.31412 0.72478 0.24823
 O772 O 0.31856 0.75995 0.22140
 O773 O 0.28267 0.75693 0.32025
 O774 O 0.24269 0.78273 0.32927
 O775 O 0.23673 0.79282 0.18565
 O776 O 0.27110 0.76066 0.17715
 O777 O 0.17444 0.74916 0.21719
 O778 O 0.17206 0.71624 0.25602
 O779 O 0.19975 0.81824 0.25463
 O780 O 0.23731 0.82865 0.28536
 O781 O 0.23521 0.82327 0.21873
 O782 O 0.26338 0.83368 0.25591
 O783 O 0.17163 0.78337 0.25555
 O784 O 0.16673 0.74555 0.28262
 O785 O 0.20534 0.75597 0.18525
 O786 O 0.23863 0.72827 0.17505
 O787 O 0.25003 0.71696 0.32125
 O788 O 0.21776 0.74939 0.33107
 O789 O 0.31228 0.76026 0.28649
 O790 O 0.31430 0.79188 0.25085
 O791 O 0.28565 0.69014 0.24884
 O792 O 0.24759 0.67762 0.22361
 Zr793 Zr 0.24829 0.70741 0.25295
 O794 O 0.22135 0.72818 0.22889
 Zr795 Zr 0.28985 0.75808 0.25180
 O796 O 0.26426 0.78137 0.22892
 Zr797 Zr 0.24609 0.75262 0.30050
 O798 O 0.21789 0.77459 0.27913
 Zr799 Zr 0.24080 0.75662 0.20571
 O800 O 0.26828 0.73304 0.22653
 Zr801 Zr 0.19620 0.75015 0.25332
 O802 O 0.22179 0.72752 0.27778
 Zr803 Zr 0.23750 0.80107 0.25385
 O804 O 0.26573 0.78070 0.27703
 O805 O 0.27164 0.73106 0.27687
 O806 O 0.21443 0.77792 0.22892
 C807 C 0.25144 0.69296 0.31343
 C808 C 0.30883 0.70006 0.24714
 C809 C 0.30624 0.75956 0.31117
 C810 C 0.23503 0.81660 0.19419
 C811 C 0.18162 0.75250 0.19283
 C812 C 0.17655 0.80819 0.25553
 H813 H 0.21170 0.71563 0.21748
 H814 H 0.20627 0.78380 0.29182
 H815 H 0.28451 0.72067 0.28727
 H816 H 0.27463 0.79369 0.21783
 H817 H 0.28400 0.74646 0.18071
 H818 H 0.31147 0.77108 0.20692
 H819 H 0.17261 0.75535 0.29850
 H820 H 0.20481 0.73610 0.32508
 H821 H 0.25065 0.71384 0.18012
 H822 H 0.26002 0.68297 0.20947
 H823 H 0.22282 0.82393 0.29759
 H824 H 0.25452 0.79718 0.32355
 H825 H 0.20742 0.68061 0.26700
 H826 H 0.17463 0.70580 0.23965
 H827 H 0.30791 0.80392 0.26488
 H828 H 0.27742 0.83086 0.24262
 O829 O 0.73572 0.32183 0.27265
 O830 O 0.76105 0.33155 0.23560
 O831 O 0.66803 0.28449 0.23249
 O832 O 0.66043 0.24835 0.20938
 O833 O 0.69964 0.25204 0.30607
 O834 O 0.73736 0.22521 0.31510
 O835 O 0.74550 0.21725 0.16945
 O836 O 0.71101 0.24740 0.16096
 O837 O 0.80675 0.25482 0.20266
 O838 O 0.81135 0.28785 0.24049
 O839 O 0.77945 0.18755 0.23951
 O840 O 0.74288 0.17583 0.26652
 O841 O 0.74489 0.18518 0.20118
 O842 O 0.71335 0.17615 0.23981
 O843 O 0.80842 0.22170 0.23894
 O844 O 0.81338 0.25945 0.26875
 O845 O 0.77595 0.25529 0.16993
 O846 O 0.73724 0.28232 0.16109
 O847 O 0.73485 0.29123 0.30584
 O848 O 0.76540 0.25574 0.31487
 O849 O 0.66930 0.24890 0.27305
 O850 O 0.66715 0.21638 0.23649
 O851 O 0.69713 0.31841 0.23593
 O852 O 0.73330 0.32773 0.20609
 Zr853 Zr 0.73402 0.29996 0.23753
 O854 O 0.76098 0.27916 0.21402
 Zr855 Zr 0.69120 0.25047 0.23755
 O856 O 0.71609 0.22754 0.21329
 Zr857 Zr 0.73576 0.25479 0.28546
 O858 O 0.76249 0.23142 0.26360
 Zr859 Zr 0.74026 0.25229 0.19040
 O860 O 0.71291 0.27513 0.21181
 Zr861 Zr 0.78495 0.25563 0.23830
 O862 O 0.76026 0.27924 0.26226
 Zr863 Zr 0.74225 0.20613 0.23754
 O864 O 0.71539 0.22711 0.26207
 O865 O 0.71037 0.27710 0.26224
 O866 O 0.76585 0.22938 0.21314
 C867 C 0.73592 0.31515 0.29721
 C868 C 0.67382 0.30915 0.23295
 C869 C 0.67587 0.24960 0.29767
 C870 C 0.74646 0.19311 0.17687
 C871 C 0.79977 0.25496 0.17811
 C872 C 0.80292 0.19705 0.23948
 H873 H 0.77142 0.29176 0.20334
 H874 H 0.77367 0.22140 0.27611
 H875 H 0.69828 0.28801 0.27302
 H876 H 0.70548 0.21589 0.20179
 H877 H 0.69618 0.25904 0.16593
 H878 H 0.66764 0.23981 0.19332
 H879 H 0.80979 0.24570 0.28224
 H880 H 0.77860 0.26876 0.30876
 H881 H 0.75007 0.29632 0.16537
 H882 H 0.72059 0.32108 0.19281
 H883 H 0.75214 0.18288 0.28223
 H884 H 0.72624 0.21049 0.30876
 H885 H 0.77699 0.32557 0.24513
 H886 H 0.80985 0.29812 0.22381
 H887 H 0.67231 0.20515 0.25174
 H888 H 0.70249 0.17720 0.22355
 C889 C 0.22304 0.06419 0.07178
 C890 C 0.23868 0.08686 0.07196
 C891 C 0.24246 0.10236 0.09638
 N892 N 0.25708 0.12471 0.09574
 N893 N 0.26118 0.13851 0.11784
 C894 C 0.25102 0.13034 0.14146
 N895 N 0.23655 0.10790 0.14214
 N896 N 0.23236 0.09417 0.12002
 C897 C 0.25467 0.14587 0.16584
 C898 C 0.26439 0.17149 0.16487
 H899 H 0.25041 0.09216 0.05482
 H900 H 0.24750 0.13788 0.18447
 H901 H 0.21337 0.05912 0.09025
 H902 H 0.26994 0.17994 0.14588
 C903 C 0.72481 0.56161 0.56636
 C904 C 0.74182 0.58310 0.56712
 C905 C 0.74425 0.60011 0.59058
 N906 N 0.75918 0.62219 0.58916
 N907 N 0.76142 0.63805 0.61005
 C908 C 0.74895 0.63238 0.63325
 N909 N 0.73423 0.61011 0.63481
 N910 N 0.73189 0.59427 0.61383
 C911 C 0.75051 0.65056 0.65598
 C912 C 0.76015 0.67603 0.65254
 H913 H 0.75390 0.58752 0.54994
 H914 H 0.74238 0.64457 0.67496
 H915 H 0.71351 0.55653 0.58388
 H916 H 0.76665 0.68223 0.63298
 C917 C 0.71454 0.93760 0.05324
 C918 C 0.71551 0.94158 0.08072
 C919 C 0.71533 0.91926 0.09945
 N920 N 0.71860 0.92349 0.12586
 N921 N 0.71948 0.90327 0.14283
 C922 C 0.71712 0.87811 0.13395
 N923 N 0.71368 0.87392 0.10760
 N924 N 0.71278 0.89410 0.09067
 C925 C 0.71904 0.85541 0.15198
 C926 C 0.72233 0.85796 0.17933
 H927 H 0.71875 0.96106 0.08879
 H928 H 0.71823 0.83595 0.14319
 H929 H 0.71421 0.91736 0.04649
 H930 H 0.72246 0.87733 0.18834
 C931 C 0.24533 0.43323 0.57379
 C932 C 0.25203 0.43727 0.60033
 C933 C 0.24764 0.41671 0.62049
 N934 N 0.25511 0.42061 0.64608
 N935 N 0.25188 0.40164 0.66421
 C936 C 0.24099 0.37817 0.65733
 N937 N 0.23337 0.37440 0.63183
 N938 N 0.23658 0.39331 0.61377
 C939 C 0.23887 0.35621 0.67619
 C940 C 0.24664 0.35776 0.70270
 H941 H 0.26119 0.45561 0.60628
 H942 H 0.23216 0.33751 0.66832
 H943 H 0.23755 0.41427 0.56780
 H944 H 0.25222 0.37653 0.71123
 C945 C 0.73143 0.07315 0.91572
 C946 C 0.75281 0.09009 0.91263
 C947 C 0.75544 0.10790 0.88958
 N948 N 0.77307 0.12797 0.89024
 N949 N 0.77590 0.14407 0.86944
 C950 C 0.76140 0.14053 0.84706
 N951 N 0.74397 0.12028 0.84629
 N952 N 0.74097 0.10433 0.86719
 C953 C 0.76437 0.15824 0.82395
 C954 C 0.77577 0.18311 0.82636
 H955 H 0.76814 0.09026 0.92756
 H956 H 0.75619 0.15219 0.80506
 H957 H 0.71625 0.07288 0.90065
 H958 H 0.78196 0.18985 0.84579
 C959 C 0.25011 0.55813 0.42577
 C960 C 0.26827 0.57740 0.41847
 C961 C 0.26408 0.59479 0.39536
 N962 N 0.27713 0.61806 0.39375
 N963 N 0.27310 0.63435 0.37334
 C964 C 0.25610 0.62789 0.35359
 N965 N 0.24338 0.60439 0.35494
 N966 N 0.24719 0.58820 0.37553
 C967 C 0.25120 0.64624 0.33134
 C968 C 0.25531 0.67319 0.33451
 H969 H 0.28547 0.58058 0.43072
 H970 H 0.24314 0.63875 0.31293
 H971 H 0.23313 0.55472 0.41327
 H972 H 0.26113 0.68047 0.35387
 C973 C 0.24377 0.92774 0.93969
 C974 C 0.24856 0.92718 0.91238
 C975 C 0.25267 0.90174 0.89870
 N976 N 0.25318 0.90070 0.87180
 N977 N 0.25536 0.87762 0.85939
 C978 C 0.25711 0.85467 0.87338
 N979 N 0.25692 0.85574 0.90027
 N980 N 0.25474 0.87881 0.91267
 C981 C 0.25829 0.82893 0.85979
 C982 C 0.25746 0.82747 0.83223
 H983 H 0.24645 0.94484 0.90044
 H984 H 0.25896 0.81104 0.87158
 H985 H 0.24326 0.90875 0.94958
 H986 H 0.25678 0.84563 0.82083
 C987 C 0.71052 0.43945 0.41673
 C988 C 0.73230 0.42918 0.40366
 C989 C 0.73060 0.40522 0.38740
 N990 N 0.74985 0.39969 0.36966
 N991 N 0.74879 0.37782 0.35512
 C992 C 0.72866 0.36044 0.35808
 N993 N 0.70961 0.36573 0.37616
 N994 N 0.71052 0.38777 0.39050
 C995 C 0.72705 0.33676 0.34132
 C996 C 0.73819 0.33695 0.31611
 H997 H 0.75132 0.43846 0.40616
 H998 H 0.71533 0.32010 0.34781
 H999 H 0.69155 0.43007 0.41426
 H1000 H 0.74728 0.35494 0.30889
 C1001 C 0.06821 0.21170 0.08224
 C1002 C 0.09060 0.22755 0.08290
 C1003 C 0.10695 0.22966 0.10679
 N1004 N 0.12844 0.24540 0.10644
 N1005 N 0.14339 0.24776 0.12797
 C1006 C 0.13731 0.23461 0.15072
 N1007 N 0.11567 0.21901 0.15116
 N1008 N 0.10075 0.21659 0.12957
 C1009 C 0.15446 0.23627 0.17410
 C1010 C 0.17924 0.24760 0.17197
 H1011 H 0.09524 0.24049 0.06640
 H1012 H 0.14847 0.22674 0.19242
 H1013 H 0.06287 0.20160 0.10045
 H1014 H 0.18557 0.25571 0.15308
 C1015 C 0.56004 0.71722 0.57488
 C1016 C 0.58047 0.73550 0.57335
 C1017 C 0.59976 0.73897 0.59473
 N1018 N 0.62148 0.75387 0.59036
 N1019 N 0.63905 0.75753 0.60960
 C1020 C 0.63540 0.74661 0.63400
 N1021 N 0.61355 0.73190 0.63844
 N1022 N 0.59606 0.72809 0.61914
 C1023 C 0.65479 0.75020 0.65529
 C1024 C 0.68015 0.75918 0.65007
 H1025 H 0.58220 0.74808 0.55600
 H1026 H 0.64955 0.74392 0.67520
 H1027 H 0.55809 0.70508 0.59251
 H1028 H 0.68599 0.76355 0.62983
 C1029 C 0.05404 0.73999 0.93448
 C1030 C 0.08136 0.74167 0.93720
 C1031 C 0.09935 0.74089 0.91422
 N1032 N 0.12559 0.74363 0.91810
 N1033 N 0.14222 0.74272 0.89767
 C1034 C 0.13327 0.73900 0.87253
 N1035 N 0.10701 0.73625 0.86862
 N1036 N 0.09036 0.73716 0.88908
 C1037 C 0.15154 0.73780 0.84978
 C1038 C 0.17865 0.74032 0.85312
 H1039 H 0.09004 0.74495 0.95653
 H1040 H 0.14351 0.73475 0.83010
 H1041 H 0.04634 0.74057 0.91442
 H1042 H 0.18649 0.74333 0.87290
 C1043 C 0.57304 0.26187 0.44186
 C1044 C 0.57148 0.25115 0.41638
 C1045 C 0.59381 0.25207 0.39759
 N1046 N 0.59077 0.24313 0.37237
 N1047 N 0.61081 0.24361 0.35528
 C1048 C 0.63474 0.25292 0.36277
 N1049 N 0.63781 0.26176 0.38801
 N1050 N 0.61774 0.26137 0.40507
 C1051 C 0.65715 0.25360 0.34405
 C1052 C 0.65417 0.24794 0.31710
 H1053 H 0.55362 0.24129 0.41022
 H1054 H 0.67622 0.25949 0.35153
 H1055 H 0.59145 0.27058 0.44815
 H1056 H 0.63482 0.24310 0.30957
 C1057 C 0.92802 0.75584 0.07777
 C1058 C 0.90307 0.76724 0.07666
 C1059 C 0.88671 0.76982 0.10064
 N1060 N 0.86254 0.78092 0.09890
 N1061 N 0.84734 0.78288 0.12035
 C1062 C 0.85576 0.77391 0.14437
 N1063 N 0.88002 0.76302 0.14616
 N1064 N 0.89520 0.76101 0.12470
 C1065 C 0.83849 0.77468 0.16783
 C1066 C 0.81226 0.78197 0.16539
 H1067 H 0.89571 0.77555 0.05829
 H1068 H 0.84591 0.76754 0.18669
 H1069 H 0.93527 0.75065 0.09731
 H1070 H 0.80488 0.78816 0.14616
 C1071 C 0.44203 0.25225 0.58560
 C1072 C 0.41827 0.26597 0.58591
 C1073 C 0.40086 0.26567 0.60931
 N1074 N 0.37677 0.27712 0.60807
 N1075 N 0.36097 0.27714 0.62921
 C1076 C 0.36874 0.26582 0.65243
 N1077 N 0.39286 0.25451 0.65369
 N1078 N 0.40860 0.25439 0.63254
 C1079 C 0.35161 0.26554 0.67601
 C1080 C 0.32537 0.27343 0.67505
 H1081 H 0.41252 0.27758 0.56877
 H1082 H 0.35968 0.25797 0.69443
 H1083 H 0.44791 0.24138 0.60318
 H1084 H 0.31699 0.27997 0.65637
 C1085 C 0.93644 0.23955 0.94728
 C1086 C 0.94142 0.24438 0.92042
 C1087 C 0.92007 0.24956 0.90149
 N1088 N 0.92554 0.25207 0.87525
 N1089 N 0.90630 0.25606 0.85777
 C1090 C 0.88090 0.25775 0.86592
 N1091 N 0.87544 0.25546 0.89219
 N1092 N 0.89469 0.25147 0.90966
 C1093 C 0.85941 0.26082 0.84670
 C1094 C 0.86424 0.26151 0.81949
 H1095 H 0.96113 0.24267 0.91252
 H1096 H 0.83940 0.26118 0.85405
 H1097 H 0.91604 0.23837 0.95322
 H1098 H 0.88430 0.26105 0.81229
 C1099 C 0.42153 0.74460 0.44349
 C1100 C 0.42042 0.74071 0.41617
 C1101 C 0.39620 0.74570 0.40097
 N1102 N 0.39689 0.74539 0.37407
 N1103 N 0.37504 0.74923 0.36005
 C1104 C 0.35160 0.75336 0.37234
 N1105 N 0.35086 0.75350 0.39928
 N1106 N 0.37278 0.74983 0.41333
 C1107 C 0.32731 0.75670 0.35670
 C1108 C 0.32873 0.76073 0.32938
 H1109 H 0.43742 0.73309 0.40577
 H1110 H 0.30841 0.75513 0.36648
 H1111 H 0.40405 0.75141 0.45368
 H1112 H 0.34790 0.76311 0.32028
 C1113 C 0.05702 0.07988 0.24942
 C1114 C 0.08395 0.07690 0.25472
 C1115 C 0.10291 0.09895 0.25367
 N1116 N 0.12888 0.09417 0.25770
 N1117 N 0.14638 0.11373 0.25680
 C1118 C 0.13857 0.13888 0.25188
 N1119 N 0.11260 0.14368 0.24790
 N1120 N 0.09511 0.12410 0.24871
 C1121 C 0.15759 0.16088 0.25111
 C1122 C 0.18478 0.15714 0.25273
 H1123 H 0.09158 0.05789 0.26078
 H1124 H 0.14985 0.18067 0.24891
 H1125 H 0.05004 0.09985 0.24669
 H1126 H 0.19261 0.13732 0.25406
 C1127 C 0.59268 0.56218 0.75843
 C1128 C 0.59092 0.58747 0.74758
 C1129 C 0.61381 0.60523 0.74596
 N1130 N 0.61043 0.63077 0.73861
 N1131 N 0.63087 0.64718 0.73739
 C1132 C 0.65549 0.63866 0.74337
 N1133 N 0.65890 0.61306 0.75053
 N1134 N 0.63844 0.59668 0.75187
 C1135 C 0.67825 0.65665 0.74211
 C1136 C 0.67510 0.68377 0.73870
 H1137 H 0.57215 0.59460 0.74039
 H1138 H 0.69778 0.64844 0.74432
 H1139 H 0.61180 0.55470 0.76417
 H1140 H 0.65545 0.69189 0.73743
 C1141 C 0.95007 0.06187 0.73406
 C1142 C 0.94044 0.07723 0.75475
 C1143 C 0.91825 0.09542 0.75101
 N1144 N 0.91589 0.11682 0.76690
 N1145 N 0.89624 0.13383 0.76340
 C1146 C 0.87800 0.12987 0.74411
 N1147 N 0.88005 0.10817 0.72853
 N1148 N 0.89992 0.09133 0.73181
 C1149 C 0.85670 0.14905 0.73987
 C1150 C 0.86077 0.17560 0.74541
 H1151 H 0.95006 0.07666 0.77394
 H1152 H 0.83837 0.14259 0.73110
 H1153 H 0.94016 0.06220 0.71502
 H1154 H 0.88018 0.18199 0.75152
 C1155 C 0.41494 0.56409 0.21607
 C1156 C 0.41328 0.58517 0.23367
 C1157 C 0.39094 0.60333 0.23419
 N1158 N 0.39320 0.62654 0.24726
 N1159 N 0.37316 0.64337 0.24805
 C1160 C 0.35007 0.63748 0.23595
 N1161 N 0.34771 0.61415 0.22305
 N1162 N 0.36785 0.59739 0.22207
 C1163 C 0.32778 0.65574 0.23713
 C1164 C 0.33112 0.68197 0.24451
 H1165 H 0.42941 0.58896 0.24720
 H1166 H 0.30849 0.64852 0.23167
 H1167 H 0.39870 0.55995 0.20284
 H1168 H 0.35068 0.68961 0.24808
 C1169 C 0.09087 0.93256 0.75162
 C1170 C 0.08819 0.90548 0.74734
 C1171 C 0.11075 0.88742 0.74860
 N1172 N 0.10692 0.86115 0.74553
 N1173 N 0.12708 0.84447 0.74697
 C1174 C 0.15183 0.85347 0.75145
 N1175 N 0.15569 0.87976 0.75436
 N1176 N 0.13551 0.89644 0.75300
 C1177 C 0.17415 0.83521 0.75360
 C1178 C 0.17049 0.80800 0.75424
 H1179 H 0.06939 0.89718 0.74182
 H1180 H 0.19371 0.84338 0.75571
 H1181 H 0.11067 0.94009 0.75372
 H1182 H 0.15079 0.79998 0.75299
 C1183 C 0.57031 0.44979 0.23599
 C1184 C 0.57505 0.42915 0.21844
 C1185 C 0.59629 0.41014 0.22271
 N1186 N 0.59544 0.38640 0.21042
 N1187 N 0.61416 0.36856 0.21470
 C1188 C 0.63448 0.37392 0.23131
 N1189 N 0.63551 0.39779 0.24334
 N1190 N 0.61666 0.41555 0.23925
 C1191 C 0.65538 0.35460 0.23593
 C1192 C 0.65222 0.32802 0.22980
 H1193 H 0.56155 0.42572 0.20217
 H1194 H 0.67352 0.36140 0.24486
 H1195 H 0.58382 0.45333 0.25221
 H1196 H 0.63342 0.32085 0.22275
 C1197 C 0.93114 0.93337 0.26509
 C1198 C 0.90677 0.93297 0.25233
 C1199 C 0.88807 0.91095 0.25521
 N1200 N 0.86260 0.91430 0.24794
 N1201 N 0.84534 0.89467 0.25045
 C1202 C 0.85293 0.87086 0.26020
 N1203 N 0.87845 0.86743 0.26731
 N1204 N 0.89567 0.88715 0.26501
 C1205 C 0.83430 0.84865 0.26198
 C1206 C 0.80716 0.85219 0.25993
 H1207 H 0.90072 0.94987 0.24063
 H1208 H 0.84221 0.82898 0.26456
 H1209 H 0.93764 0.91595 0.27574
 H1210 H 0.79923 0.87200 0.25893
 C1211 C 0.45345 0.42960 0.78418
 C1212 C 0.43287 0.42539 0.76647
 C1213 C 0.41512 0.40257 0.76867
 N1214 N 0.39142 0.40322 0.75641
 N1215 N 0.37520 0.38265 0.75786
 C1216 C 0.38220 0.36047 0.77133
 N1217 N 0.40609 0.35963 0.78328
 N1218 N 0.42222 0.38036 0.78209
 C1219 C 0.36406 0.33785 0.77299
 C1220 C 0.33709 0.34187 0.77078
 H1221 H 0.42964 0.43930 0.75043
 H1222 H 0.37175 0.31830 0.77686
 H1223 H 0.45672 0.41560 0.80014
 H1224 H 0.32981 0.36192 0.76939
 C1225 C 0.06840 0.24053 0.94625
 C1226 C 0.08913 0.22390 0.93909
 C1227 C 0.10683 0.23015 0.91678
 N1228 N 0.12982 0.21687 0.91404
 N1229 N 0.14626 0.22263 0.89422
 C1230 C 0.14019 0.24176 0.87629
 N1231 N 0.11708 0.25483 0.87884
 N1232 N 0.10077 0.24924 0.89880
 C1233 C 0.15799 0.24820 0.85417
 C1234 C 0.18442 0.24098 0.85439
 H1235 H 0.09202 0.20523 0.94909
 H1236 H 0.15028 0.25965 0.83773
 H1237 H 0.06375 0.25587 0.93206
 H1238 H 0.19253 0.23118 0.87169
 C1239 C 0.56071 0.74615 0.44218
 C1240 C 0.56102 0.73822 0.41573
 C1241 C 0.58457 0.74115 0.39898
 N1242 N 0.58371 0.73386 0.37311
 N1243 N 0.60498 0.73593 0.35782
 C1244 C 0.62799 0.74521 0.36783
 N1245 N 0.62891 0.75238 0.39376
 N1246 N 0.60759 0.75038 0.40905
 C1247 C 0.65143 0.74803 0.35082
 C1248 C 0.64968 0.74457 0.32345
 H1249 H 0.54395 0.72848 0.40744
 H1250 H 0.66983 0.75415 0.35968
 H1251 H 0.57824 0.75490 0.45062
 H1252 H 0.63085 0.73957 0.31477
 C1253 C 0.92043 0.75457 0.94058
 C1254 C 0.92331 0.74987 0.91331
 C1255 C 0.90138 0.75270 0.89428
 N1256 N 0.90575 0.74879 0.86799
 N1257 N 0.88628 0.75127 0.85045
 C1258 C 0.86162 0.75774 0.85852
 N1259 N 0.85722 0.76162 0.88483
 N1260 N 0.87673 0.75920 0.90238
 C1261 C 0.83983 0.76022 0.83928
 C1262 C 0.84396 0.75819 0.81194
 H1263 H 0.94185 0.74292 0.90548
 H1264 H 0.82018 0.76361 0.84682
 H1265 H 0.90071 0.75862 0.94752
 H1266 H 0.86376 0.75532 0.80458
 C1267 C 0.43407 0.26291 0.44852
 C1268 C 0.43339 0.25104 0.42359
 C1269 C 0.40953 0.25100 0.40694
 N1270 N 0.41073 0.24162 0.38178
 N1271 N 0.38935 0.24118 0.36651
 C1272 C 0.36585 0.24994 0.37584
 N1273 N 0.36458 0.25915 0.40111
 N1274 N 0.38602 0.25971 0.41636
 C1275 C 0.34220 0.24974 0.35880
 C1276 C 0.34434 0.24540 0.33156
 H1277 H 0.45066 0.24092 0.41627
 H1278 H 0.32321 0.25405 0.36750
 H1279 H 0.41635 0.27208 0.45605
 H1280 H 0.36371 0.24262 0.32304
 C1281 C 0.05631 0.72269 0.07252
 C1282 C 0.08078 0.73476 0.07445
 C1283 C 0.09596 0.73494 0.09942
 N1284 N 0.11836 0.74928 0.10081
 N1285 N 0.13174 0.75082 0.12347
 C1286 C 0.12324 0.73820 0.14575
 N1287 N 0.10081 0.72376 0.14438
 N1288 N 0.08737 0.72223 0.12165
 C1289 C 0.13855 0.73964 0.17072
 C1290 C 0.16228 0.75332 0.17119
 H1291 H 0.08780 0.74669 0.05801
 H1292 H 0.13205 0.72877 0.18808
 H1293 H 0.04864 0.71207 0.08955
 H1294 H 0.16874 0.76318 0.15321
 C1295 C 0.57700 0.24836 0.57897
 C1296 C 0.60127 0.26100 0.57727
 C1297 C 0.62046 0.25998 0.59915
 N1298 N 0.64528 0.26898 0.59530
 N1299 N 0.66275 0.26837 0.61501
 C1300 C 0.65600 0.25892 0.63938
 N1301 N 0.63111 0.25014 0.64330
 N1302 N 0.61369 0.25059 0.62354
 C1303 C 0.67515 0.25815 0.66131
 C1304 C 0.70193 0.26164 0.65677
 H1305 H 0.60618 0.27230 0.55965
 H1306 H 0.66815 0.25387 0.68119
 H1307 H 0.57215 0.23764 0.59697
 H1308 H 0.70889 0.26446 0.63660
 C1309 C 0.93297 0.20336 0.07691
 C1310 C 0.91217 0.22118 0.07570
 C1311 C 0.89429 0.22569 0.09805
 N1312 N 0.87395 0.24267 0.09506
 N1313 N 0.85803 0.24790 0.11534
 C1314 C 0.86204 0.23653 0.13946
 N1315 N 0.88249 0.21963 0.14253
 N1316 N 0.89837 0.21432 0.12218
 C1317 C 0.84408 0.24166 0.16170
 C1318 C 0.82007 0.25413 0.15756
 H1319 H 0.91002 0.23375 0.05839
 H1320 H 0.84879 0.23358 0.18108
 H1321 H 0.93575 0.19153 0.09464
 H1322 H 0.81465 0.26047 0.13773
 C1323 C 0.42299 0.70099 0.57015
 C1324 C 0.41611 0.72104 0.58757
 C1325 C 0.39389 0.71906 0.60594
 N1326 N 0.39229 0.73618 0.62646
 N1327 N 0.37248 0.73473 0.64363
 C1328 C 0.35338 0.71627 0.64078
 N1329 N 0.35470 0.69936 0.61997
 N1330 N 0.37471 0.70065 0.60289
 C1331 C 0.33191 0.71452 0.66020
 C1332 C 0.33551 0.72445 0.68566
 H1333 H 0.42805 0.73873 0.58828
 H1334 H 0.31371 0.70481 0.65482
 H1335 H 0.41097 0.68343 0.56866
 H1336 H 0.35466 0.73194 0.69130
 C1337 C 0.25711 0.06670 0.94018
 C1338 C 0.25161 0.06779 0.91307
 C1339 C 0.25616 0.09203 0.89741
 N1340 N 0.25019 0.09266 0.87113
 N1341 N 0.25286 0.11488 0.85715
 C1342 C 0.26149 0.13737 0.86894
 N1343 N 0.26754 0.13670 0.89518
 N1344 N 0.26495 0.11448 0.90913
 C1345 C 0.26344 0.16240 0.85406
 C1346 C 0.25861 0.16384 0.82684
 H1347 H 0.24199 0.05126 0.90358
 H1348 H 0.26832 0.18015 0.86492
 H1349 H 0.26605 0.08370 0.94952
 H1350 H 0.25435 0.14592 0.81600
 C1351 C 0.73011 0.57668 0.42963
 C1352 C 0.71830 0.58019 0.40483
 C1353 C 0.72263 0.60413 0.38864
 N1354 N 0.71573 0.60436 0.36260
 N1355 N 0.71950 0.62584 0.34772
 C1356 C 0.73014 0.64800 0.35838
 N1357 N 0.73683 0.64784 0.38449
 N1358 N 0.73327 0.62629 0.39931
 C1359 C 0.73380 0.67211 0.34230
 C1360 C 0.73273 0.67173 0.31459
 H1361 H 0.70568 0.56494 0.39689
 H1362 H 0.73760 0.69050 0.35250
 H1363 H 0.74174 0.59266 0.43771
 H1364 H 0.73043 0.65304 0.30450
 C1365 C 0.71694 0.07011 0.05581
 C1366 C 0.73569 0.08978 0.06021
 C1367 C 0.73677 0.10467 0.08535
 N1368 N 0.75382 0.12505 0.08787
 N1369 N 0.75490 0.13882 0.11035
 C1370 C 0.73915 0.13260 0.13128
 N1371 N 0.72233 0.11199 0.12890
 N1372 N 0.72114 0.09830 0.10635
 C1373 C 0.73923 0.14873 0.15564
 C1374 C 0.75001 0.17395 0.15538
 H1375 H 0.75127 0.09324 0.04599
 H1376 H 0.72852 0.14188 0.17294
 H1377 H 0.70476 0.06535 0.07274
 H1378 H 0.75873 0.18130 0.13716
 C1379 C 0.24478 0.56971 0.56495
 C1380 C 0.25489 0.56640 0.59060
 C1381 C 0.25330 0.58691 0.61117
 N1382 N 0.26142 0.58156 0.63634
 N1383 N 0.26026 0.59996 0.65518
 C1384 C 0.25095 0.62442 0.64947
 N1385 N 0.24287 0.62975 0.62431
 N1386 N 0.24393 0.61134 0.60552
 C1387 C 0.25026 0.64549 0.66945
 C1388 C 0.25576 0.64177 0.69646
 H1389 H 0.26422 0.54793 0.59592
 H1390 H 0.24515 0.66501 0.66233
 H1391 H 0.23634 0.58851 0.55938
 H1392 H 0.25968 0.62220 0.70415
 C1393 C 0.73559 0.93492 0.92025
 C1394 C 0.75278 0.93416 0.89872
 C1395 C 0.75536 0.91033 0.88227
 N1396 N 0.76877 0.91133 0.85899
 N1397 N 0.77082 0.88995 0.84379
 C1398 C 0.75974 0.86673 0.85141
 N1399 N 0.74664 0.86565 0.87485
 N1400 N 0.74445 0.88706 0.88997
 C1401 C 0.76098 0.84325 0.83432
 C1402 C 0.76841 0.84516 0.80777
 H1403 H 0.76465 0.95125 0.89393
 H1404 H 0.75411 0.82457 0.84220
 H1405 H 0.72460 0.91731 0.92534
 H1406 H 0.77382 0.86424 0.79968
 C1407 C 0.27457 0.42312 0.44130
 C1408 C 0.25387 0.41149 0.42759
 C1409 C 0.25685 0.38731 0.41185
 N1410 N 0.23720 0.37991 0.39532
 N1411 N 0.23955 0.35839 0.38045
 C1412 C 0.26154 0.34325 0.38171
 N1413 N 0.28105 0.35035 0.39864
 N1414 N 0.27878 0.37204 0.41341
 C1415 C 0.26473 0.32055 0.36378
 C1416 C 0.25115 0.32014 0.33980
 H1417 H 0.23466 0.42071 0.42823
 H1418 H 0.27943 0.30568 0.36806
 H1419 H 0.29371 0.41377 0.44156
 H1420 H 0.23874 0.33678 0.33470
 C1421 C 0.20288 0.92883 0.06361
 C1422 C 0.22453 0.92070 0.07835
 C1423 C 0.22390 0.89811 0.09642
 N1424 N 0.24214 0.89639 0.11593
 N1425 N 0.24201 0.87614 0.13276
 C1426 C 0.22383 0.85671 0.13049
 N1427 N 0.20579 0.85816 0.11068
 N1428 N 0.20573 0.87863 0.09399
 C1429 C 0.22364 0.83465 0.14934
 C1430 C 0.23351 0.83808 0.17485
 H1431 H 0.24250 0.93216 0.07743
 H1432 H 0.21484 0.81607 0.14359
 H1433 H 0.18491 0.91739 0.06372
 H1434 H 0.23956 0.85754 0.18125
 C1435 C 0.72568 0.42471 0.55083
 C1436 C 0.75007 0.41962 0.56232
 C1437 C 0.75495 0.39661 0.57936
 N1438 N 0.77623 0.39639 0.59557
 N1439 N 0.78063 0.37608 0.61178
 C1440 C 0.76406 0.35508 0.61215
 N1441 N 0.74301 0.35508 0.59560
 N1442 N 0.73847 0.37554 0.57955
 C1443 C 0.76806 0.33321 0.63093
 C1444 C 0.78226 0.33684 0.65428
 H1445 H 0.76588 0.43372 0.55966
 H1446 H 0.75753 0.31492 0.62773
 H1447 H 0.70991 0.41053 0.55296
 H1448 H 0.79050 0.35605 0.65864
 C1449 C 0.08765 0.06496 0.74414
 C1450 C 0.08627 0.09157 0.73707
 C1451 C 0.10914 0.10904 0.74023
 N1452 N 0.10612 0.13555 0.73853
 N1453 N 0.12657 0.15154 0.74218
 C1454 C 0.15081 0.14159 0.74750
 N1455 N 0.15392 0.11509 0.74883
 N1456 N 0.13343 0.09911 0.74538
 C1457 C 0.17345 0.15906 0.75182
 C1458 C 0.17002 0.18580 0.75678
 H1459 H 0.06864 0.09982 0.72843
 H1460 H 0.19301 0.15062 0.75172
 H1461 H 0.10692 0.05756 0.74950
 H1462 H 0.15029 0.19374 0.75818
 C1463 C 0.54762 0.58583 0.23227
 C1464 C 0.57035 0.59005 0.21751
 C1465 C 0.58636 0.61382 0.22093
 N1466 N 0.61112 0.61455 0.21103
 N1467 N 0.62632 0.63553 0.21498
 C1468 C 0.61727 0.65659 0.22884
 N1469 N 0.59235 0.65605 0.23838
 N1470 N 0.57719 0.63498 0.23459
 C1471 C 0.63420 0.67944 0.23394
 C1472 C 0.66127 0.67786 0.23037
 H1473 H 0.57727 0.57488 0.20411
 H1474 H 0.62541 0.69731 0.24162
 H1475 H 0.54000 0.60141 0.24478
 H1476 H 0.67001 0.65942 0.22409
 C1477 C 0.06633 0.94552 0.24598
 C1478 C 0.06677 0.92028 0.25742
 C1479 C 0.09010 0.90305 0.25624
 N1480 N 0.08839 0.87772 0.26487
 N1481 N 0.10917 0.86177 0.26373
 C1482 C 0.13251 0.87056 0.25403
 N1483 N 0.13429 0.89594 0.24556
 N1484 N 0.11346 0.91186 0.24656
 C1485 C 0.15566 0.85314 0.25270
 C1486 C 0.15373 0.82599 0.25684
 H1487 H 0.04996 0.91287 0.26826
 H1488 H 0.17449 0.86180 0.24769
 H1489 H 0.08510 0.95268 0.23902
 H1490 H 0.13463 0.81728 0.26058
 C1491 C 0.58358 0.42697 0.74416
 C1492 C 0.60997 0.42741 0.75156
 C1493 C 0.62781 0.40516 0.74651
 N1494 N 0.65391 0.40795 0.75113
 N1495 N 0.67030 0.38784 0.74733
 C1496 C 0.66120 0.36411 0.73890
 N1497 N 0.63507 0.36127 0.73436
 N1498 N 0.61868 0.38145 0.73802
 C1499 C 0.67912 0.34154 0.73556
 C1500 C 0.70630 0.34476 0.73663
 H1501 H 0.61773 0.44444 0.76186
 H1502 H 0.67080 0.32212 0.73254
 H1503 H 0.57580 0.40956 0.73454
 H1504 H 0.71441 0.36443 0.73849
 C1505 C 0.92175 0.07100 0.27043
 C1506 C 0.91735 0.09103 0.25190
 C1507 C 0.89338 0.10736 0.25193
 N1508 N 0.89215 0.12912 0.23625
 N1509 N 0.87043 0.14375 0.23540
 C1510 C 0.84894 0.13704 0.24999
 N1511 N 0.85006 0.11512 0.26551
 N1512 N 0.87190 0.10058 0.26651
 C1513 C 0.82489 0.15333 0.24919
 C1514 C 0.82564 0.17912 0.23958
 H1515 H 0.93164 0.09434 0.23627
 H1516 H 0.80685 0.14553 0.25751
 H1517 H 0.90754 0.06797 0.28613
 H1518 H 0.84432 0.18731 0.23330
 C1519 C 0.45796 0.56885 0.78589
 C1520 C 0.43761 0.57349 0.76790
 C1521 C 0.41874 0.59533 0.77072
 N1522 N 0.39536 0.59411 0.75787
 N1523 N 0.37799 0.61364 0.75994
 C1524 C 0.38344 0.63533 0.77471
 N1525 N 0.40699 0.63674 0.78733
 N1526 N 0.42428 0.61703 0.78550
 C1527 C 0.36424 0.65706 0.77676
 C1528 C 0.33759 0.65259 0.77217
 H1529 H 0.43483 0.55998 0.75150
 H1530 H 0.37098 0.67646 0.78257
 H1531 H 0.46096 0.58246 0.80214
 H1532 H 0.33095 0.63259 0.76868
 C1533 C 0.95596 0.92627 0.75214
 C1534 C 0.94366 0.91611 0.72974
 C1535 C 0.92513 0.89405 0.73141
 N1536 N 0.90681 0.89087 0.71215
 N1537 N 0.88937 0.87137 0.71371
 C1538 C 0.88986 0.85412 0.73440
 N1539 N 0.90853 0.85696 0.75340
 N1540 N 0.92579 0.87668 0.75201
 C1541 C 0.87006 0.83321 0.73662
 C1542 C 0.84514 0.83678 0.72589
 H1543 H 0.94687 0.92534 0.71057
 H1544 H 0.87441 0.81580 0.74835
 H1545 H 0.95303 0.91690 0.77128
 H1546 H 0.84017 0.85549 0.71671
 C1547 C 0.43610 0.42803 0.22153
 C1548 C 0.41766 0.42450 0.24163
 C1549 C 0.40268 0.39999 0.24451
 N1550 N 0.38166 0.39919 0.26104
 N1551 N 0.36750 0.37725 0.26346
 C1552 C 0.37402 0.35524 0.24962
 N1553 N 0.39530 0.35591 0.23341
 N1554 N 0.40936 0.37793 0.23084
 C1555 C 0.35777 0.33141 0.25114
 C1556 C 0.33218 0.33247 0.26080
 H1557 H 0.41390 0.44037 0.25549
 H1558 H 0.36520 0.31335 0.24249
 H1559 H 0.44068 0.41194 0.20820
 H1560 H 0.32426 0.35105 0.26773
   
