data_POSCAR
  _audit_creation_date              2014-09-24
  _audit_creation_method            'ToBaCCo'
  _symmetry_space_group_name_H-M    'P1'
  _symmetry_Int_Tables_number       1
  _symmetry_cell_setting            triclinic
  loop_
  _symmetry_equiv_pos_as_xyz
 x,y,z
_cell_length_a 56.8200
_cell_length_b 56.8976
_cell_length_c 56.7309
_cell_angle_alpha 90.012300
_cell_angle_beta 89.984400
_cell_angle_gamma 89.984700
loop_
  _atom_site_label
  _atom_site_type_symbol
  _atom_site_fract_x
  _atom_site_fract_y
  _atom_site_fract_z
C1 C 0.33798 1.36815 0.33831
 C2 C 0.34804 1.37804 0.31799
 C3 C 0.36816 1.36800 0.30725
 C4 C 0.37808 1.34776 0.31781
 C5 C 0.36816 1.33771 0.33807
 C6 C 0.34800 1.34788 0.34831
 C7 C 0.31766 1.37800 0.34839
 C8 C 0.30695 1.36792 0.36852
 C9 C 0.31754 1.34770 0.37842
 C10 C 0.33777 1.33767 0.36846
 C11 C 0.34784 1.31743 0.37835
 C12 C 0.36792 1.30710 0.36823
 C13 C 0.37805 1.31745 0.34814
 H14 H 0.33929 1.39297 0.31007
 H15 H 0.39406 1.34005 0.31089
 H16 H 0.30973 1.39293 0.33965
 H17 H 0.31065 1.33996 0.39442
 H18 H 0.34007 1.30972 0.39400
 H19 H 0.39332 1.30940 0.34001
 C20 C 0.33800 0.86821 0.83848
 C21 C 0.34804 0.87799 0.81811
 C22 C 0.36805 0.86779 0.80769
 C23 C 0.37812 0.84771 0.81803
 C24 C 0.36827 0.83772 0.83835
 C25 C 0.34808 0.84797 0.84858
 C26 C 0.31774 0.87813 0.84857
 C27 C 0.30708 0.86813 0.86877
 C28 C 0.31767 0.84793 0.87873
 C29 C 0.33788 0.83783 0.86878
 C30 C 0.34794 0.81761 0.87870
 C31 C 0.36797 0.80719 0.86856
 C32 C 0.37810 0.81746 0.84842
 H33 H 0.33997 0.89327 0.81006
 H34 H 0.39372 0.83989 0.81030
 H35 H 0.30981 0.89303 0.83977
 H36 H 0.31080 0.84026 0.89477
 H37 H 0.34019 0.80995 0.89438
 H38 H 0.39334 0.80937 0.84027
 C39 C 0.83803 1.36790 0.83802
 C40 C 0.84811 1.37779 0.81775
 C41 C 0.86828 1.36777 0.80707
 C42 C 0.87820 1.34754 0.81767
 C43 C 0.86827 1.33749 0.83794
 C44 C 0.84810 1.34766 0.84813
 C45 C 0.81768 1.37771 0.84807
 C46 C 0.80727 1.36755 0.86812
 C47 C 0.81760 1.34748 0.87823
 C48 C 0.83786 1.33745 0.86834
 C49 C 0.84789 1.31721 0.87823
 C50 C 0.86798 1.30688 0.86812
 C51 C 0.87815 1.31724 0.84805
 H52 H 0.83933 1.39269 0.80980
 H53 H 0.89419 1.33983 0.81078
 H54 H 0.80965 1.39299 0.83998
 H55 H 0.80988 1.33970 0.89387
 H56 H 0.84009 1.30952 0.89387
 H57 H 0.89344 1.30919 0.83994
 C58 C 0.83829 0.86804 0.33809
 C59 C 0.84839 0.87793 0.31782
 C60 C 0.86857 0.86789 0.30716
 C61 C 0.87848 0.84767 0.31778
 C62 C 0.86853 0.83762 0.33804
 C63 C 0.84834 0.84780 0.34821
 C64 C 0.81793 0.87785 0.34811
 C65 C 0.80750 0.86768 0.36815
 C66 C 0.81781 0.84763 0.37827
 C67 C 0.83808 0.83759 0.36841
 C68 C 0.84810 0.81735 0.37831
 C69 C 0.86820 0.80702 0.36822
 C70 C 0.87839 0.81737 0.34816
 H71 H 0.83962 0.89282 0.30985
 H72 H 0.89448 0.83996 0.31090
 H73 H 0.80990 0.89313 0.34000
 H74 H 0.81008 0.83985 0.39390
 H75 H 0.84028 0.80966 0.39394
 H76 H 0.89368 0.80932 0.34007
 C77 C 0.66140 0.63153 0.33822
 C78 C 0.65106 0.62171 0.31804
 C79 C 0.63087 0.63189 0.30758
 C80 C 0.62118 0.65216 0.31831
 C81 C 0.63135 0.66210 0.33852
 C82 C 0.65155 0.65179 0.34850
 C83 C 0.68175 0.62155 0.34803
 C84 C 0.69241 0.63156 0.36802
 C85 C 0.68233 0.65167 0.37830
 C86 C 0.66204 0.66188 0.36865
 C87 C 0.65223 0.68219 0.37866
 C88 C 0.63209 0.69263 0.36878
 C89 C 0.62169 0.68238 0.34877
 H90 H 0.65967 0.60678 0.30997
 H91 H 0.60518 0.65999 0.31157
 H92 H 0.68925 0.60587 0.34018
 H93 H 0.69061 0.65972 0.39351
 H94 H 0.66022 0.68981 0.39423
 H95 H 0.60638 0.69053 0.34083
 C96 C 0.66246 0.13223 0.83823
 C97 C 0.65233 0.12252 0.81786
 C98 C 0.63224 0.13272 0.80760
 C99 C 0.62219 0.15275 0.81809
 C100 C 0.63213 0.16267 0.83840
 C101 C 0.65239 0.15242 0.84847
 C102 C 0.68277 0.12229 0.84817
 C103 C 0.69351 0.13223 0.86837
 C104 C 0.68293 0.15237 0.87847
 C105 C 0.66267 0.16249 0.86866
 C106 C 0.65261 0.18265 0.87873
 C107 C 0.63249 0.19306 0.86875
 C108 C 0.62230 0.18286 0.84862
 H109 H 0.66037 0.10728 0.80970
 H110 H 0.60653 0.16056 0.81049
 H111 H 0.69068 0.10744 0.83927
 H112 H 0.68986 0.15999 0.89451
 H113 H 0.66042 0.19026 0.89441
 H114 H 0.60701 0.19095 0.84058
 C115 C 1.16183 0.63160 0.83832
 C116 C 1.15151 0.62186 0.81808
 C117 C 1.13143 0.63214 0.80790
 C118 C 1.12156 0.65225 0.81837
 C119 C 1.13163 0.66214 0.83864
 C120 C 1.15186 0.65178 0.84866
 C121 C 1.18210 0.62154 0.84819
 C122 C 1.19291 0.63131 0.86841
 C123 C 1.18245 0.65148 0.87863
 C124 C 1.16220 0.66172 0.86889
 C125 C 1.15237 0.68204 0.87889
 C126 C 1.13229 0.69257 0.86895
 C127 C 1.12196 0.68240 0.84887
 H128 H 1.15945 0.60657 0.80990
 H129 H 1.10593 0.66015 0.81080
 H130 H 1.18882 0.60555 0.84035
 H131 H 1.19057 0.66015 0.89353
 H132 H 1.16028 0.68962 0.89453
 H133 H 1.10670 0.69058 0.84087
 C134 C 1.16220 0.13193 0.33819
 C135 C 1.15205 0.12211 0.31788
 C136 C 1.13187 0.13218 0.30729
 C137 C 1.12201 0.15238 0.31798
 C138 C 1.13201 0.16237 0.33823
 C139 C 1.15222 0.15216 0.34832
 C140 C 1.18256 0.12204 0.34813
 C141 C 1.19336 0.13206 0.36825
 C142 C 1.18281 0.15224 0.37829
 C143 C 1.16254 0.16231 0.36847
 C144 C 1.15250 0.18251 0.37848
 C145 C 1.13237 0.19286 0.36850
 C146 C 1.12216 0.18258 0.34843
 H147 H 1.16076 0.10721 0.30985
 H148 H 1.10599 0.16012 0.31117
 H149 H 1.19046 0.10715 0.33930
 H150 H 1.18976 0.15992 0.39429
 H151 H 1.16034 0.19017 0.39412
 H152 H 1.10685 0.19065 0.34040
 C153 C 0.66183 1.36825 0.66169
 C154 C 0.65156 1.37794 0.68198
 C155 C 0.63151 1.36764 0.69220
 C156 C 0.62161 1.34756 0.68170
 C157 C 0.63163 1.33772 0.66137
 C158 C 0.65183 1.34810 0.65132
 C159 C 0.68207 1.37833 0.65179
 C160 C 0.69283 1.36860 0.63150
 C161 C 0.68236 1.34847 0.62127
 C162 C 0.66214 1.33821 0.63104
 C163 C 0.65228 1.31792 0.62101
 C164 C 0.63223 1.30737 0.63098
 C165 C 0.62195 1.31749 0.65112
 H166 H 0.65951 1.39321 0.69018
 H167 H 0.60600 1.33964 0.68929
 H168 H 0.68881 1.39429 0.65965
 H169 H 0.69044 1.33983 0.60632
 H170 H 0.66015 1.31038 0.60532
 H171 H 0.60670 1.30930 0.65914
 C172 C 0.66161 0.86836 1.16179
 C173 C 0.65131 0.87817 1.18200
 C174 C 0.63114 0.86801 1.19252
 C175 C 0.62142 0.84775 1.18181
 C176 C 0.63154 0.83780 1.16158
 C177 C 0.65173 0.84810 1.15154
 C178 C 0.68193 0.87832 1.15192
 C179 C 0.69255 0.86831 1.13190
 C180 C 0.68244 0.84820 1.12164
 C181 C 0.66216 0.83801 1.13135
 C182 C 0.65233 0.81771 1.12137
 C183 C 0.63220 0.80728 1.13130
 C184 C 0.62185 0.81753 1.15134
 H185 H 0.65995 0.89310 1.19005
 H186 H 0.60544 0.83993 1.18860
 H187 H 0.68945 0.89399 1.15976
 H188 H 0.69068 0.84016 1.10641
 H189 H 0.66028 0.81009 1.10577
 H190 H 0.60656 0.80940 1.15933
 C191 C 1.16187 1.36819 1.16128
 C192 C 1.15177 1.37789 1.18167
 C193 C 1.13175 1.36764 1.19202
 C194 C 1.12174 1.34758 1.18159
 C195 C 1.13165 1.33767 1.16125
 C196 C 1.15184 1.34796 1.15110
 C197 C 1.18212 1.37817 1.15127
 C198 C 1.19285 1.36824 1.13107
 C199 C 1.18232 1.34805 1.12101
 C200 C 1.16211 1.33790 1.13089
 C201 C 1.15209 1.31768 1.12089
 C202 C 1.13205 1.30723 1.13095
 C203 C 1.12186 1.31743 1.15110
 H204 H 1.15979 1.39316 1.18979
 H205 H 1.10614 1.33973 1.18927
 H206 H 1.19001 1.39305 1.16014
 H207 H 1.18925 1.34043 1.10497
 H208 H 1.15989 1.31007 1.10520
 H209 H 1.10663 1.30930 1.15920
 C210 C 1.16220 0.86798 0.66134
 C211 C 1.15211 0.87770 0.68172
 C212 C 1.13211 0.86746 0.69209
 C213 C 1.12209 0.84738 0.68169
 C214 C 1.13199 0.83745 0.66136
 C215 C 1.15217 0.84774 0.65118
 C216 C 1.18244 0.87796 0.65130
 C217 C 1.19315 0.86802 0.63109
 C218 C 1.18263 0.84781 0.62107
 C219 C 1.16243 0.83766 0.63097
 C220 C 1.15241 0.81743 0.62099
 C221 C 1.13236 0.80699 0.63108
 C222 C 1.12220 0.81720 0.65122
 H223 H 1.16014 0.89298 0.68982
 H224 H 1.10650 0.83953 0.68939
 H225 H 1.19032 0.89285 0.66015
 H226 H 1.18954 0.84018 0.60502
 H227 H 1.16019 0.80981 0.60530
 H228 H 1.10697 0.80908 0.65934
 C229 C 0.33808 0.63191 0.66175
 C230 C 0.34824 0.62214 0.68204
 C231 C 0.36833 0.63234 0.69229
 C232 C 0.37835 0.65240 0.68186
 C233 C 0.36839 0.66238 0.66158
 C234 C 0.34815 0.65214 0.65149
 C235 C 0.31776 0.62202 0.65179
 C236 C 0.30731 0.63210 0.63172
 C237 C 0.31758 0.65215 0.62151
 C238 C 0.33784 0.66226 0.63129
 C239 C 0.34781 0.68250 0.62132
 C240 C 0.36790 0.69290 0.63135
 C241 C 0.37816 0.68263 0.65142
 H242 H 0.34020 0.60689 0.69016
 H243 H 0.39400 0.66021 0.68948
 H244 H 0.30978 0.60677 0.65998
 H245 H 0.30980 0.65987 0.60587
 H246 H 0.33995 0.69014 0.60569
 H247 H 0.39344 0.69073 0.65947
 C248 C 0.33811 0.13198 1.16203
 C249 C 0.34831 0.12210 1.18225
 C250 C 0.36850 0.13217 1.19282
 C251 C 0.37833 0.15241 1.18218
 C252 C 0.36829 0.16245 1.16196
 C253 C 0.34808 0.15225 1.15187
 C254 C 0.31774 0.12214 1.15209
 C255 C 0.30721 0.13229 1.13209
 C256 C 0.31745 0.15238 1.12193
 C257 C 0.33773 0.16245 1.13172
 C258 C 0.34767 0.18271 1.12179
 C259 C 0.36779 0.19306 1.13179
 C260 C 0.37807 0.18271 1.15181
 H261 H 0.33961 0.10719 1.19024
 H262 H 0.39434 0.16014 1.18898
 H263 H 0.30978 0.10684 1.16021
 H264 H 0.30964 0.16015 1.10634
 H265 H 0.33978 0.19040 1.10620
 H266 H 0.39337 0.19078 1.15984
 C267 C 0.83814 0.63193 1.16170
 C268 C 0.84830 0.62216 1.18200
 C269 C 0.86842 0.63232 1.19222
 C270 C 0.87849 0.65234 1.18174
 C271 C 0.86853 0.66232 1.16146
 C272 C 0.84826 0.65212 1.15141
 C273 C 0.81779 0.62209 1.15178
 C274 C 0.80734 0.63217 1.13170
 C275 C 0.81766 0.65218 1.12145
 C276 C 0.83796 0.66225 1.13120
 C277 C 0.84797 0.68244 1.12121
 C278 C 0.86810 0.69281 1.13120
 C279 C 0.87834 0.68253 1.15127
 H280 H 0.84022 0.60694 1.19015
 H281 H 0.89416 0.66012 1.18934
 H282 H 0.80977 0.60686 1.15999
 H283 H 0.80989 0.65990 1.10581
 H284 H 0.84011 0.69009 1.10557
 H285 H 0.89365 0.69059 1.15931
 C286 C 0.83761 0.13213 0.66213
 C287 C 0.84778 0.12230 0.68241
 C288 C 0.86793 0.13240 0.69303
 C289 C 0.87774 0.15264 0.68239
 C290 C 0.86772 0.16263 0.66215
 C291 C 0.84754 0.15240 0.65203
 C292 C 0.81728 0.12222 0.65215
 C293 C 0.80647 0.13223 0.63204
 C294 C 0.81697 0.15245 0.62205
 C295 C 0.83720 0.16255 0.63190
 C296 C 0.84720 0.18278 0.62192
 C297 C 0.86730 0.19316 0.63191
 C298 C 0.87752 0.18288 0.65199
 H299 H 0.83910 0.10737 0.69041
 H300 H 0.89374 0.16039 0.68921
 H301 H 0.80942 0.10729 0.66096
 H302 H 0.81000 0.16014 0.60606
 H303 H 0.83935 0.19043 0.60628
 H304 H 0.89282 0.19097 0.66003
 C305 C 1.36847 0.33745 0.66189
 C306 C 1.37858 0.34743 0.68214
 C307 C 1.36882 0.36766 0.69288
 C308 C 1.34859 0.37774 0.68243
 C309 C 1.33829 0.36789 0.66226
 C310 C 1.34823 0.34765 0.65197
 C311 C 1.37824 0.31722 0.65163
 C312 C 1.36799 0.30663 0.63153
 C313 C 1.34767 0.31726 0.62182
 C314 C 1.33780 0.33752 0.63187
 C315 C 1.31749 0.34770 0.62217
 C316 C 1.30734 0.36779 0.63242
 C317 C 1.31793 0.37781 0.65243
 H318 H 1.39462 0.33968 0.68888
 H319 H 1.33991 0.39264 0.69049
 H320 H 1.39321 0.30922 0.66026
 H321 H 1.33977 0.31042 0.60589
 H322 H 1.30925 0.33966 0.60694
 H323 H 1.31038 0.39347 0.66028
 C324 C 1.36883 0.83772 1.16110
 C325 C 1.37876 0.84766 1.18144
 C326 C 1.36866 0.86764 1.19199
 C327 C 1.34852 0.87778 1.18181
 C328 C 1.33838 0.86804 1.16150
 C329 C 1.34853 0.84788 1.15115
 C330 C 1.37870 0.81755 1.15087
 C331 C 1.36854 0.80697 1.13071
 C332 C 1.34827 0.81760 1.12090
 C333 C 1.33824 0.83776 1.13099
 C334 C 1.31794 0.84787 1.12123
 C335 C 1.30760 0.86785 1.13151
 C336 C 1.31801 0.87789 1.15162
 H337 H 1.39446 0.83991 1.18901
 H338 H 1.34041 0.89298 1.19001
 H339 H 1.39365 0.80958 1.15956
 H340 H 1.34047 0.81079 1.10490
 H341 H 1.31018 0.84020 1.10557
 H342 H 1.30998 0.89309 1.15987
 C343 C 0.86855 0.33738 1.16132
 C344 C 0.87850 0.34735 1.18163
 C345 C 0.86842 0.36735 1.19216
 C346 C 0.84826 0.37747 1.18197
 C347 C 0.83811 0.36769 1.16169
 C348 C 0.84824 0.34751 1.15137
 C349 C 0.87843 0.31719 1.15111
 C350 C 0.86828 0.30659 1.13096
 C351 C 0.84797 0.31718 1.12117
 C352 C 0.83795 0.33736 1.13123
 C353 C 0.81764 0.34747 1.12146
 C354 C 0.80732 0.36748 1.13171
 C355 C 0.81775 0.37754 1.15180
 H356 H 0.89421 0.33961 1.18921
 H357 H 0.84017 0.39269 1.19014
 H358 H 0.89339 0.30924 1.15980
 H359 H 0.84017 0.31034 1.10518
 H360 H 0.80986 0.33977 1.10582
 H361 H 0.80973 0.39276 1.16003
 C362 C 0.86855 0.83769 0.66138
 C363 C 0.87851 0.84764 0.68167
 C364 C 0.86845 0.86766 0.69218
 C365 C 0.84831 0.87783 0.68197
 C366 C 0.83815 0.86808 0.66167
 C367 C 0.84827 0.84790 0.65135
 C368 C 0.87836 0.81748 0.65116
 C369 C 0.86810 0.80722 0.63108
 C370 C 0.84797 0.81760 0.62110
 C371 C 0.83796 0.83780 0.63113
 C372 C 0.81765 0.84788 0.62140
 C373 C 0.80734 0.86788 0.63168
 C374 C 0.81779 0.87795 0.65176
 H375 H 0.89419 0.83985 0.68925
 H376 H 0.84024 0.89305 0.69015
 H377 H 0.89367 0.80940 0.65918
 H378 H 0.84011 0.80997 0.60547
 H379 H 0.80988 0.84018 0.60576
 H380 H 0.80978 0.89316 0.66000
 C381 C 0.63131 0.66225 0.66179
 C382 C 0.62127 0.65209 0.68193
 C383 C 0.63129 0.63197 0.69224
 C384 C 0.65141 0.62187 0.68196
 C385 C 0.66164 0.63183 0.66180
 C386 C 0.65158 0.65211 0.65165
 C387 C 0.62155 0.68256 0.65179
 C388 C 0.63184 0.69305 0.63186
 C389 C 0.65198 0.68276 0.62175
 C390 C 0.66192 0.66239 0.63153
 C391 C 0.68229 0.65238 0.62176
 C392 C 0.69252 0.63225 0.63188
 C393 C 0.68198 0.62203 0.65183
 H394 H 0.60559 0.65984 0.68958
 H395 H 0.65945 0.60656 0.68999
 H396 H 0.60586 0.69020 0.65951
 H397 H 0.66022 0.69091 0.60658
 H398 H 0.69048 0.66057 0.60659
 H399 H 0.68958 0.60635 0.65957
 C400 C 0.63164 1.16269 1.16174
 C401 C 0.62181 1.15249 1.18199
 C402 C 0.63201 1.13243 1.19226
 C403 C 0.65209 1.12241 1.18182
 C404 C 0.66204 1.13235 1.16150
 C405 C 0.65179 1.15260 1.15144
 C406 C 0.62164 1.18291 1.15181
 C407 C 0.63150 1.19365 1.13160
 C408 C 0.65165 1.18310 1.12140
 C409 C 0.66181 1.16284 1.13119
 C410 C 0.68212 1.15290 1.12123
 C411 C 0.69256 1.13282 1.13123
 C412 C 0.68232 1.12261 1.15134
 H413 H 0.60616 1.16015 1.18977
 H414 H 0.66026 1.10714 1.18980
 H415 H 0.60563 1.18969 1.15961
 H416 H 0.66036 1.19114 1.10649
 H417 H 0.68975 1.16072 1.10557
 H418 H 0.69043 1.10734 1.15938
 C419 C 0.13139 0.66255 1.16214
 C420 C 0.12127 0.65230 1.18224
 C421 C 0.13113 0.63203 1.19279
 C422 C 0.15136 0.62210 1.18221
 C423 C 0.16158 0.63215 1.16209
 C424 C 0.15156 0.65244 1.15201
 C425 C 0.12152 0.68282 1.15211
 C426 C 0.13162 0.69359 1.13203
 C427 C 0.15187 0.68304 1.12206
 C428 C 0.16184 0.66271 1.13188
 C429 C 0.18225 0.65275 1.12213
 C430 C 0.19252 0.63264 1.13223
 C431 C 0.18197 0.62239 1.15215
 H432 H 0.10522 0.65994 1.18908
 H433 H 0.16011 0.60716 1.19013
 H434 H 0.10544 0.68961 1.15973
 H435 H 0.16078 0.69110 1.10727
 H436 H 0.19044 0.66094 1.10695
 H437 H 0.18958 0.60670 1.15985
 C438 C 0.13116 1.16162 0.66169
 C439 C 0.12140 1.15131 0.68191
 C440 C 0.13160 1.13115 0.69235
 C441 C 0.15185 1.12144 0.68155
 C442 C 0.16174 1.13157 0.66131
 C443 C 0.15141 1.15175 0.65135
 C444 C 0.12116 1.18195 0.65188
 C445 C 0.13113 1.19256 0.63184
 C446 C 0.15123 1.18246 0.62151
 C447 C 0.16146 1.16219 0.63115
 C448 C 0.18175 1.15237 0.62108
 C449 C 0.19222 1.13224 0.63095
 C450 C 0.18200 1.12189 0.65100
 H451 H 0.10648 1.15994 0.69003
 H452 H 0.15969 1.10546 0.68827
 H453 H 0.10550 1.18946 0.65978
 H454 H 0.15925 1.19069 0.60626
 H455 H 0.18935 1.16032 0.60548
 H456 H 0.19017 1.10660 0.65893
 C457 C 1.36845 0.66263 0.33840
 C458 C 1.37842 0.65266 0.31809
 C459 C 1.36855 0.63247 0.30738
 C460 C 1.34837 0.62240 0.31796
 C461 C 1.33824 0.63223 0.33824
 C462 C 1.34826 0.65247 0.34845
 C463 C 1.37831 0.68285 0.34859
 C464 C 1.36819 0.69346 0.36876
 C465 C 1.34794 0.68284 0.37862
 C466 C 1.33797 0.66263 0.36861
 C467 C 1.31772 0.65249 0.37846
 C468 C 1.30745 0.63243 0.36828
 C469 C 1.31790 0.62236 0.34821
 H470 H 1.39443 0.66037 0.31125
 H471 H 1.33962 0.60753 0.30994
 H472 H 1.39323 0.69084 0.33986
 H473 H 1.34015 0.68967 0.39462
 H474 H 1.30995 0.66020 0.39411
 H475 H 1.30991 0.60709 0.34005
 C476 C 1.36857 1.16267 0.83870
 C477 C 1.37847 1.15274 0.81834
 C478 C 1.36839 1.13274 0.80782
 C479 C 1.34828 1.12257 0.81806
 C480 C 1.33818 1.13231 0.83840
 C481 C 1.34831 1.15249 0.84871
 C482 C 1.37843 1.18286 0.84891
 C483 C 1.36831 1.19341 0.86912
 C484 C 1.34807 1.18275 0.87897
 C485 C 1.33806 1.16258 0.86892
 C486 C 1.31780 1.15244 0.87874
 C487 C 1.30748 1.13244 0.86849
 C488 C 1.31786 1.12242 0.84835
 H489 H 1.39414 1.16051 0.81072
 H490 H 1.34019 1.10736 0.80990
 H491 H 1.39335 1.19085 0.84018
 H492 H 1.34031 1.18955 0.89501
 H493 H 1.31007 1.16010 0.89443
 H494 H 1.30984 1.10721 0.84013
 C495 C 0.86846 0.66236 0.83854
 C496 C 0.87836 0.65240 0.81821
 C497 C 0.86828 0.63237 0.80776
 C498 C 0.84819 0.62220 0.81805
 C499 C 0.83809 0.63195 0.83839
 C500 C 0.84822 0.65214 0.84865
 C501 C 0.87829 0.68258 0.84871
 C502 C 0.86809 0.69284 0.86883
 C503 C 0.84800 0.68246 0.87889
 C504 C 0.83798 0.66225 0.86891
 C505 C 0.81771 0.65216 0.87872
 C506 C 0.80739 0.63215 0.86850
 C507 C 0.81778 0.62208 0.84838
 H508 H 0.89400 0.66019 0.81056
 H509 H 0.84010 0.60697 0.80992
 H510 H 0.89356 0.69065 0.84063
 H511 H 0.84019 0.69009 0.89455
 H512 H 0.80998 0.65987 0.89440
 H513 H 0.80975 0.60686 0.84018
 C514 C 0.86851 1.16220 0.33837
 C515 C 0.87850 1.15220 0.31810
 C516 C 0.86864 1.13197 0.30744
 C517 C 0.84849 1.12189 0.31806
 C518 C 0.83833 1.13173 0.33833
 C519 C 0.84833 1.15198 0.34850
 C520 C 0.87831 1.18245 0.34853
 C521 C 0.86808 1.19276 0.36860
 C522 C 0.84798 1.18239 0.37865
 C523 C 0.83802 1.16214 0.36871
 C524 C 0.81776 1.15206 0.37852
 C525 C 0.80751 1.13199 0.36835
 C526 C 0.81799 1.12187 0.34831
 H527 H 0.89449 1.15994 0.31126
 H528 H 0.83976 1.10699 0.31006
 H529 H 0.89359 1.19054 0.34047
 H530 H 0.84013 1.19006 0.39427
 H531 H 0.80999 1.15981 0.39415
 H532 H 0.81001 1.10659 0.34017
 C533 C 0.63145 0.33777 0.33833
 C534 C 0.62125 0.34779 0.31818
 C535 C 0.63089 0.36813 0.30754
 C536 C 0.65107 0.37828 0.31803
 C537 C 0.66146 0.36839 0.33815
 C538 C 0.65165 0.34806 0.34834
 C539 C 0.62183 0.31745 0.34850
 C540 C 0.63226 0.30713 0.36846
 C541 C 0.65240 0.31755 0.37836
 C542 C 0.66217 0.33791 0.36844
 C543 C 0.68246 0.34810 0.37812
 C544 C 0.69250 0.36827 0.36792
 C545 C 0.68180 0.37835 0.34799
 H546 H 0.60526 0.33998 0.31141
 H547 H 0.65967 0.39325 0.31003
 H548 H 0.60652 0.30932 0.34054
 H549 H 0.66042 0.30988 0.39390
 H550 H 0.69076 0.34000 0.39328
 H551 H 0.68925 0.39407 0.34020
 C552 C 0.63206 0.83746 0.83806
 C553 C 0.62211 0.84747 0.81777
 C554 C 0.63215 0.86757 0.80740
 C555 C 0.65218 0.87776 0.81775
 C556 C 0.66234 0.86792 0.83798
 C557 C 0.65229 0.84769 0.84819
 C558 C 0.62235 0.81714 0.84814
 C559 C 0.63260 0.80684 0.86821
 C560 C 0.65268 0.81725 0.87828
 C561 C 0.66260 0.83756 0.86840
 C562 C 0.68286 0.84770 0.87821
 C563 C 0.69307 0.86781 0.86802
 C564 C 0.68257 0.87788 0.84798
 H565 H 0.60686 0.83931 0.80973
 H566 H 0.65985 0.89343 0.81006
 H567 H 0.60708 0.80904 0.84006
 H568 H 0.66053 0.80959 0.89390
 H569 H 0.69102 0.83963 0.89347
 H570 H 0.69014 0.89354 0.84019
 C571 C 0.13135 0.33732 0.83865
 C572 C 0.12125 0.34727 0.81840
 C573 C 0.13116 0.36734 0.80788
 C574 C 0.15131 0.37754 0.81799
 C575 C 0.16164 0.36775 0.83817
 C576 C 0.15166 0.34752 0.84852
 C577 C 0.12163 0.31708 0.84888
 C578 C 0.13192 0.30650 0.86897
 C579 C 0.15224 0.31715 0.87867
 C580 C 0.16210 0.33742 0.86862
 C581 C 0.18242 0.34762 0.87829
 C582 C 0.19257 0.36770 0.86800
 C583 C 0.18197 0.37770 0.84798
 H584 H 0.10555 0.33947 0.81088
 H585 H 0.15929 0.39281 0.80981
 H586 H 0.10667 0.30908 0.84024
 H587 H 0.16017 0.31031 0.89459
 H588 H 0.19067 0.33959 0.89352
 H589 H 0.18950 0.39334 0.84009
 C590 C 0.13163 0.83731 0.33830
 C591 C 0.12145 0.84734 0.31812
 C592 C 0.13114 0.86764 0.30745
 C593 C 0.15136 0.87772 0.31791
 C594 C 0.16173 0.86780 0.33801
 C595 C 0.15187 0.84750 0.34822
 C596 C 0.12192 0.81702 0.34849
 C597 C 0.13224 0.80636 0.36853
 C598 C 0.15257 0.81698 0.37823
 C599 C 0.16237 0.83730 0.36825
 C600 C 0.18268 0.84749 0.37795
 C601 C 0.19276 0.86764 0.36776
 C602 C 0.18209 0.87772 0.34783
 H603 H 0.10542 0.83960 0.31138
 H604 H 0.15999 0.89266 0.30989
 H605 H 0.10695 0.80903 0.33985
 H606 H 0.16052 0.81008 0.39411
 H607 H 0.19098 0.83940 0.39312
 H608 H 0.18957 0.89343 0.34003
 O609 O 1.08491 1.02292 1.11791
 O610 O 1.11227 1.02296 1.14547
 C611 C 1.09315 1.03098 1.13709
 C612 C 1.08063 1.05026 1.14938
 C613 C 1.08855 1.05850 1.17134
 H614 H 1.10352 1.05031 1.17986
 O615 O 0.91492 0.97720 1.11750
 O616 O 0.88751 0.97716 1.14503
 C617 C 0.90666 0.96914 1.13667
 C618 C 0.91917 0.94988 1.14899
 C619 C 0.91125 0.94169 1.17097
 H620 H 0.89627 0.94990 1.17948
 O621 O 1.02297 1.11696 1.08526
 O622 O 1.02297 1.14455 1.11257
 C623 C 1.03100 1.13613 1.09344
 C624 C 1.05025 1.14839 1.08083
 C625 C 1.05838 1.17038 1.08862
 H626 H 1.05015 1.17893 1.10358
 O627 O 0.97717 0.88295 1.08524
 O628 O 0.97708 0.85543 1.11261
 C629 C 0.96912 0.86380 1.09344
 C630 C 0.94991 0.85151 1.08082
 C631 C 0.94177 0.82953 1.08862
 H632 H 0.94999 0.82100 1.10360
 O633 O 1.11731 1.08460 1.02312
 O634 O 1.14483 1.11193 1.02318
 C635 C 1.13645 1.09284 1.03122
 C636 C 1.14871 1.08037 1.05058
 C637 C 1.17064 1.08829 1.05881
 H638 H 1.17915 1.10322 1.05055
 O639 O 0.88290 0.91525 1.02301
 O640 O 0.85539 0.88792 1.02299
 C641 C 0.86372 0.90703 1.03104
 C642 C 0.85136 0.91954 1.05031
 C643 C 0.82939 0.91164 1.05847
 H644 H 0.82093 0.89667 1.05023
 O645 O 0.97703 1.08491 1.11758
 O646 O 0.97695 1.11232 1.14507
 C647 C 0.96895 1.09319 1.13674
 C648 C 0.94968 1.08070 1.14909
 C649 C 0.94152 1.08859 1.17109
 H650 H 0.94976 1.10353 1.17960
 O651 O 1.02295 0.91512 1.11769
 O652 O 1.02290 0.88775 1.14522
 C653 C 1.03093 0.90687 1.13690
 C654 C 1.05014 0.91938 1.14931
 C655 C 1.05823 0.91147 1.17132
 H656 H 1.04998 0.89650 1.17978
 O657 O 1.11712 0.97705 1.08562
 O658 O 1.14464 0.97703 1.11303
 C659 C 1.13630 0.96904 1.09385
 C660 C 1.14866 0.94986 1.08125
 C661 C 1.17064 0.94172 1.08914
 H662 H 1.17910 0.94989 1.10418
 O663 O 0.88274 1.02308 1.08522
 O664 O 0.85517 1.02313 1.11259
 C665 C 0.86356 1.03113 1.09343
 C666 C 0.85128 1.05036 1.08083
 C667 C 0.82933 1.05862 1.08872
 H668 H 0.82082 1.05050 1.10375
 O669 O 0.91513 1.11696 1.02284
 O670 O 0.88780 1.14449 1.02281
 C671 C 0.90691 1.13612 1.03087
 C672 C 0.91943 1.14844 1.05016
 C673 C 0.91158 1.17043 1.05824
 H674 H 0.89666 1.17893 1.04993
 O675 O 1.08519 0.88302 1.02316
 O676 O 1.11259 0.85556 1.02323
 C677 C 1.09343 0.86390 1.03124
 C678 C 1.08090 0.85159 1.05052
 C679 C 1.08880 0.82966 1.05870
 H680 H 1.10379 0.82118 1.05046
 O681 O 0.91491 1.02305 1.11755
 O682 O 0.88750 1.02309 1.14509
 C683 C 0.90665 1.03108 1.13674
 C684 C 0.91919 1.05031 1.14909
 C685 C 0.91131 1.05847 1.17110
 H686 H 0.89633 1.05028 1.17962
 O687 O 1.08493 0.97707 1.11795
 O688 O 1.11229 0.97703 1.14552
 C689 C 1.09316 0.96903 1.13714
 C690 C 1.08060 0.94979 1.14945
 C691 C 1.08843 0.94159 1.17146
 H692 H 1.10339 0.94978 1.18002
 O693 O 1.02308 0.88300 1.08533
 O694 O 1.02305 0.85549 1.11271
 C695 C 1.03112 0.86386 1.09357
 C696 C 1.05041 0.85157 1.08103
 C697 C 1.05860 0.82964 1.08893
 H698 H 1.05038 0.82115 1.10392
 O699 O 0.97707 1.11701 1.08523
 O700 O 0.97700 1.14459 1.11256
 C701 C 0.96902 1.13618 1.09340
 C702 C 0.94981 1.14847 1.08076
 C703 C 0.94167 1.17047 1.08856
 H704 H 0.94987 1.17899 1.10354
 O705 O 0.88286 1.08484 1.02283
 O706 O 0.85538 1.11222 1.02281
 C707 C 0.86370 1.09311 1.03087
 C708 C 0.85135 1.08067 1.05020
 C709 C 0.82941 1.08864 1.05836
 H710 H 0.82096 1.10359 1.05007
 O711 O 1.11735 0.91526 1.02319
 O712 O 1.14489 0.88795 1.02325
 C713 C 1.13650 0.90705 1.03128
 C714 C 1.14876 0.91955 1.05061
 C715 C 1.17074 0.91169 1.05878
 H716 H 1.17928 0.89678 1.05050
 O717 O 0.97704 0.91516 1.11750
 O718 O 0.97693 0.88780 1.14502
 C719 C 0.96893 0.90692 1.13666
 C720 C 0.94964 0.91944 1.14897
 C721 C 0.94144 0.91154 1.17095
 H722 H 0.94965 0.89657 1.17945
 O723 O 1.02294 1.08494 1.11769
 O724 O 1.02294 1.11237 1.14517
 C725 C 1.03096 1.09323 1.13687
 C726 C 1.05021 1.08074 1.14926
 C727 C 1.05840 1.08870 1.17123
 H728 H 1.05021 1.10372 1.17967
 O729 O 0.88274 0.97723 1.08519
 O730 O 0.85517 0.97721 1.11256
 C731 C 0.86356 0.96920 1.09341
 C732 C 0.85128 0.94997 1.08082
 C733 C 0.82932 0.94179 1.08871
 H734 H 0.82080 0.94998 1.10370
 O735 O 1.11711 1.02288 1.08561
 O736 O 1.14464 1.02292 1.11301
 C737 C 1.13628 1.03090 1.09383
 C738 C 1.14862 1.05009 1.08123
 C739 C 1.17056 1.05828 1.08917
 H740 H 1.17900 1.05015 1.10423
 O741 O 0.91517 0.88309 1.02302
 O742 O 0.88781 0.85561 1.02301
 C743 C 0.90694 0.86394 1.03104
 C744 C 0.91947 0.85159 1.05029
 C745 C 0.91162 0.82961 1.05837
 H746 H 0.89666 0.82115 1.05009
 O747 O 1.08506 1.11679 1.02301
 O748 O 1.11244 1.14426 1.02307
 C749 C 1.09328 1.13593 1.03106
 C750 C 1.08071 1.14829 1.05030
 C751 C 1.08855 1.17027 1.05837
 H752 H 1.10351 1.17874 1.05009
 Cu753 Cu 1.09827 0.99997 1.09904
 Cu754 Cu 1.13122 0.99999 1.13202
 Cu755 Cu 0.90157 1.00014 1.09863
 Cu756 Cu 0.86858 1.00015 1.13158
 Cu757 Cu 1.00001 1.09820 1.09871
 Cu758 Cu 0.99996 1.13122 1.13160
 Cu759 Cu 1.00007 0.90180 1.09870
 Cu760 Cu 0.99998 0.86886 1.13165
 C761 C 1.06130 1.06135 1.13861
 H762 H 1.05531 1.05532 1.12152
 C763 C 1.07745 1.07761 1.18222
 C764 C 0.93853 0.93877 1.13825
 H765 H 0.94453 0.94476 1.12115
 C766 C 0.92237 0.92264 1.18191
 C767 C 1.06139 1.13760 1.06150
 H768 H 1.05545 1.12050 1.05559
 C769 C 1.07741 1.18128 1.07741
 C770 C 0.93879 0.86228 1.06148
 H771 H 0.94474 0.87938 1.05557
 C772 C 0.92275 0.81862 1.07741
 C773 C 1.13796 1.06110 1.06177
 H774 H 1.12089 1.05510 1.05576
 C775 C 1.18152 1.07727 1.07798
 C776 C 0.86204 0.93887 1.06146
 H777 H 0.87913 0.94486 1.05549
 C778 C 0.81841 0.92274 1.07755
 C779 C 0.93854 1.06139 1.13835
 H780 H 0.94452 1.05542 1.12123
 C781 C 0.92246 1.07749 1.18206
 C782 C 1.06129 0.93870 1.13864
 H783 H 1.05536 0.94470 1.12152
 C784 C 1.07726 0.92255 1.18235
 C785 C 1.13798 0.93880 1.06182
 H786 H 1.12089 0.94476 1.05583
 C787 C 1.18163 0.92276 1.07792
 C788 C 0.86203 1.06137 1.06141
 H789 H 0.87910 1.05533 1.05543
 C790 C 0.81844 1.07764 1.07750
 C791 C 0.93871 1.13772 1.06140
 H792 H 0.94466 1.12061 1.05549
 C793 C 0.92268 1.18140 1.07731
 C794 C 1.06154 0.86229 1.06166
 H795 H 1.05555 0.87935 1.05567
 C796 C 1.07768 0.81872 1.07778
 O797 O 1.08530 0.97692 0.88241
 O798 O 1.11272 0.97685 0.85489
 C799 C 1.09358 0.96885 0.86324
 C800 C 1.08107 0.94959 0.85092
 C801 C 1.08901 0.94136 0.82896
 H802 H 1.10400 0.94954 0.82045
 O803 O 0.91526 1.02294 0.88225
 O804 O 0.88790 1.02291 0.85469
 C805 C 0.90701 1.03096 0.86306
 C806 C 0.91951 1.05023 0.85074
 C807 C 0.91153 1.05849 0.82881
 H808 H 0.89652 1.05033 0.82033
 O809 O 0.97734 1.11694 0.91467
 O810 O 0.97737 1.14448 0.88731
 C811 C 0.96933 1.13611 0.90646
 C812 C 0.95008 1.14841 0.91903
 C813 C 0.94192 1.17035 0.91114
 H814 H 0.95014 1.17884 0.89615
 O815 O 1.02329 0.88288 0.91487
 O816 O 1.02333 0.85532 0.88753
 C817 C 1.03134 0.86371 0.90668
 C818 C 1.05058 0.85144 0.91929
 C819 C 1.05878 0.82948 0.91146
 H820 H 1.05059 0.82094 0.89647
 O821 O 1.11745 0.91520 0.97718
 O822 O 1.14499 0.88788 0.97720
 C823 C 1.13663 0.90698 0.96915
 C824 C 1.14895 0.91947 0.94984
 C825 C 1.17095 0.91161 0.94172
 H826 H 1.17947 0.89670 0.95001
 O827 O 0.88291 1.08481 0.97682
 O828 O 0.85542 1.11219 0.97675
 C829 C 0.86377 1.09306 0.96873
 C830 C 0.85148 1.08057 0.94941
 C831 C 0.82953 1.08847 0.94119
 H832 H 0.82103 1.10342 0.94943
 O833 O 1.02321 1.08475 0.88233
 O834 O 1.02330 1.11212 0.85480
 C835 C 1.03128 1.09298 0.86315
 C836 C 1.05051 1.08042 0.85080
 C837 C 1.05865 1.08823 0.82876
 H838 H 1.05042 1.10316 0.82023
 O839 O 0.97739 0.91502 0.88253
 O840 O 0.97736 0.88761 0.85503
 C841 C 0.96935 0.90675 0.86336
 C842 C 0.95010 0.91926 0.85098
 C843 C 0.94192 0.91131 0.82901
 H844 H 0.95012 0.89631 0.82056
 O845 O 1.11742 1.02279 0.91472
 O846 O 1.14500 1.02281 0.88735
 C847 C 1.13661 1.03081 0.90651
 C848 C 1.14891 1.05000 0.91912
 C849 C 1.17087 1.05821 0.91122
 H850 H 1.17935 1.05007 0.89617
 O851 O 0.88309 0.97711 0.91461
 O852 O 0.85557 0.97702 0.88721
 C853 C 0.86393 0.96906 0.90639
 C854 C 0.85161 0.94987 0.91901
 C855 C 0.82965 0.94168 0.91112
 H856 H 0.82116 0.94982 0.89608
 O857 O 1.08518 1.11676 0.97702
 O858 O 1.11256 1.14423 0.97705
 C859 C 1.09344 1.13589 0.96898
 C860 C 1.08096 1.14822 0.94967
 C861 C 1.08885 1.17018 0.94158
 H862 H 1.10379 1.17865 0.94990
 O863 O 0.91523 0.88308 0.97705
 O864 O 0.88786 0.85560 0.97699
 C865 C 0.90701 0.86394 0.96899
 C866 C 0.91958 0.85159 0.94975
 C867 C 0.91172 0.82962 0.94165
 H868 H 0.89674 0.82116 0.94990
 O869 O 0.91534 0.97707 0.88235
 O870 O 0.88798 0.97698 0.85478
 C871 C 0.90711 0.96899 0.86317
 C872 C 0.91966 0.94972 0.85089
 C873 C 0.91176 0.94149 0.82891
 H874 H 0.89679 0.94968 0.82038
 O875 O 1.08524 1.02276 0.88240
 O876 O 1.11266 1.02277 0.85487
 C877 C 1.09350 1.03078 0.86321
 C878 C 1.08097 1.04998 0.85084
 C879 C 1.08882 1.05807 0.82880
 H880 H 1.10378 1.04982 0.82029
 O881 O 0.97738 0.88290 0.91487
 O882 O 0.97735 0.85534 0.88753
 C883 C 0.96933 0.86374 0.90667
 C884 C 0.95008 0.85148 0.91926
 C885 C 0.94193 0.82951 0.91143
 H886 H 0.95016 0.82097 0.89647
 O887 O 1.02325 1.11690 0.91465
 O888 O 1.02335 1.14443 0.88729
 C889 C 1.03133 1.13604 0.90645
 C890 C 1.05059 1.14830 0.91906
 C891 C 1.05877 1.17027 0.91126
 H892 H 1.05058 1.17880 0.89627
 O893 O 0.88302 0.91530 0.97701
 O894 O 0.85551 0.88796 0.97696
 C895 C 0.86388 0.90707 0.96894
 C896 C 0.85158 0.91956 0.94963
 C897 C 0.82962 0.91166 0.94146
 H898 H 0.82113 0.89673 0.94974
 O899 O 1.11741 1.08457 0.97710
 O900 O 1.14493 1.11189 0.97712
 C901 C 1.13658 1.09279 0.96907
 C902 C 1.14891 1.08031 0.94975
 C903 C 1.17086 1.08823 0.94157
 H904 H 1.17934 1.10317 0.94984
 O905 O 1.02330 0.91496 0.88251
 O906 O 1.02334 0.88756 0.85501
 C907 C 1.03135 0.90669 0.86333
 C908 C 1.05062 0.91917 0.85097
 C909 C 1.05883 0.91122 0.82901
 H910 H 1.05063 0.89623 0.82054
 O911 O 0.97730 1.08486 0.88229
 O912 O 0.97731 1.11224 0.85478
 C913 C 0.96926 1.09313 0.86311
 C914 C 0.94996 1.08066 0.85077
 C915 C 0.94170 1.08865 0.82884
 H916 H 0.94988 1.10366 0.82038
 O917 O 0.88304 1.02295 0.91454
 O918 O 0.85552 1.02292 0.88714
 C919 C 0.86387 1.03095 0.90630
 C920 C 0.85152 1.05018 0.91885
 C921 C 0.82957 1.05836 0.91092
 H922 H 0.82111 1.05018 0.89589
 O923 O 1.11741 0.97697 0.91478
 O924 O 1.14500 0.97692 0.88742
 C925 C 1.13661 0.96894 0.90659
 C926 C 1.14894 0.94978 0.91922
 C927 C 1.17094 0.94164 0.91138
 H928 H 1.17944 0.94981 0.89636
 O929 O 1.08522 0.88302 0.97717
 O930 O 1.11262 0.85556 0.97719
 C931 C 1.09348 0.86388 0.96914
 C932 C 1.08099 0.85153 0.94986
 C933 C 1.08889 0.82957 0.94175
 H934 H 1.10385 0.82111 0.95004
 O935 O 0.91520 1.11694 0.97685
 O936 O 0.88785 1.14446 0.97678
 C937 C 0.90700 1.13609 0.96878
 C938 C 0.91958 1.14839 0.94952
 C939 C 0.91170 1.17034 0.94134
 H940 H 0.89671 1.17881 0.94956
 Cu941 Cu 1.09859 0.99986 0.90131
 Cu942 Cu 1.13161 0.99984 0.86837
 Cu943 Cu 0.90193 1.00003 0.90118
 Cu944 Cu 0.86899 0.99995 0.86819
 Cu945 Cu 1.09850 1.09793 1.00006
 Cu946 Cu 1.13145 1.13082 1.00011
 Cu947 Cu 1.09856 0.90186 1.00017
 Cu948 Cu 1.13154 0.86899 1.00022
 Cu949 Cu 0.90176 1.09814 0.99984
 Cu950 Cu 0.86886 1.13109 0.99978
 Cu951 Cu 0.90182 0.90192 1.00003
 Cu952 Cu 0.86888 0.86902 0.99998
 Cu953 Cu 1.00027 1.09812 0.90122
 Cu954 Cu 1.00034 1.13108 0.86829
 Cu955 Cu 1.00034 0.90168 0.90143
 Cu956 Cu 1.00034 0.86870 0.86852
 C957 C 1.06172 0.93852 0.86166
 H958 H 1.05570 0.94455 0.87875
 C959 C 1.07790 0.92229 0.81804
 C960 C 0.93889 1.06129 0.86145
 H961 H 0.94494 1.05524 0.87851
 C962 C 0.92260 1.07759 0.81790
 C963 C 0.93893 1.13769 0.93839
 H964 H 0.94490 1.12062 0.94436
 C965 C 0.92285 1.18127 0.92228
 C966 C 1.06167 0.86221 0.93865
 H967 H 1.05568 0.87929 0.94458
 C968 C 1.07781 0.81858 0.92268
 C969 C 1.13820 0.93872 0.93862
 H970 H 1.12109 0.94467 0.94456
 C971 C 1.18190 0.92267 0.92261
 C972 C 0.86221 1.06126 0.93826
 H973 H 0.87928 1.05527 0.94427
 C974 C 0.81862 1.07739 0.92207
 C975 C 1.06164 1.06113 0.86158
 H976 H 1.05569 1.05522 0.87872
 C977 C 1.07768 1.07707 0.81780
 C978 C 0.93899 0.93863 0.86166
 H979 H 0.94497 0.94465 0.87875
 C980 C 0.92287 0.92241 0.81802
 C981 C 1.13820 1.06103 0.93855
 H982 H 1.12112 1.05503 0.94454
 C983 C 1.18180 1.07720 0.92243
 C984 C 0.86231 0.93883 0.93843
 H985 H 0.87940 0.94482 0.94441
 C986 C 0.81870 0.92269 0.92234
 C987 C 1.06166 1.13753 0.93843
 H988 H 1.05567 1.12045 0.94436
 C989 C 1.07778 1.18117 0.92250
 C990 C 0.93893 0.86227 0.93859
 H991 H 0.94489 0.87936 0.94452
 C992 C 0.92287 0.81862 0.92261
 O993 O 0.97715 0.41500 0.38250
 O994 O 0.97713 0.38760 0.35500
 C995 C 0.96912 0.40674 0.36332
 C996 C 0.94988 0.41925 0.35093
 C997 C 0.94171 0.41129 0.32897
 H998 H 0.94991 0.39629 0.32052
 O999 O 1.02326 0.58469 0.38257
 O1000 O 1.02334 0.61201 0.35499
 C1001 C 1.03131 0.59288 0.36337
 C1002 C 1.05052 0.58030 0.35101
 C1003 C 1.05862 0.58812 0.32897
 H1004 H 1.05038 0.60306 0.32046
 O1005 O 0.88287 0.47705 0.41460
 O1006 O 0.85540 0.47704 0.38714
 C1007 C 0.86371 0.46904 0.40633
 C1008 C 0.85135 0.44984 0.41889
 C1009 C 0.82939 0.44170 0.41096
 H1010 H 0.82094 0.44989 0.39592
 O1011 O 1.11750 0.52262 0.41478
 O1012 O 1.14503 0.52261 0.38738
 C1013 C 1.13667 0.53063 0.40654
 C1014 C 1.14899 0.54985 0.41910
 C1015 C 1.17093 0.55806 0.41116
 H1016 H 1.17941 0.54990 0.39612
 O1017 O 0.91487 0.38303 0.47698
 O1018 O 0.88749 0.35556 0.47690
 C1019 C 0.90666 0.36389 0.46892
 C1020 C 0.91925 0.35156 0.44968
 C1021 C 0.91141 0.32959 0.44155
 H1022 H 0.89642 0.32112 0.44978
 O1023 O 1.08532 0.61679 0.47693
 O1024 O 1.11273 0.64423 0.47698
 C1025 C 1.09360 0.63592 0.46890
 C1026 C 1.08113 0.64826 0.44960
 C1027 C 1.08908 0.67018 0.44144
 H1028 H 1.10406 0.67863 0.44970
 O1029 O 0.91521 0.52286 0.38239
 O1030 O 0.88789 0.52293 0.35478
 C1031 C 0.90701 0.53092 0.36319
 C1032 C 0.91957 0.55016 0.35090
 C1033 C 0.91168 0.55839 0.32893
 H1034 H 0.89669 0.55022 0.32041
 O1035 O 1.08525 0.47679 0.38253
 O1036 O 1.11264 0.47670 0.35497
 C1037 C 1.09349 0.46873 0.36334
 C1038 C 1.08093 0.44951 0.35102
 C1039 C 1.08882 0.44131 0.32903
 H1040 H 1.10382 0.44947 0.32052
 O1041 O 1.02299 0.38284 0.41489
 O1042 O 1.02304 0.35530 0.38753
 C1043 C 1.03103 0.36368 0.40669
 C1044 C 1.05026 0.35138 0.41929
 C1045 C 1.05842 0.32942 0.41142
 H1046 H 1.05022 0.32092 0.39642
 O1047 O 0.97741 0.61699 0.41482
 O1048 O 0.97743 0.64447 0.38741
 C1049 C 0.96939 0.63613 0.40657
 C1050 C 0.95012 0.64845 0.41910
 C1051 C 0.94200 0.67040 0.41120
 H1052 H 0.95027 0.67890 0.39624
 O1053 O 0.88281 0.58483 0.47676
 O1054 O 0.85534 0.61222 0.47669
 C1055 C 0.86367 0.59309 0.46868
 C1056 C 0.85137 0.58058 0.44939
 C1057 C 0.82939 0.58845 0.44121
 H1058 H 0.82088 0.60339 0.44945
 O1059 O 1.11734 0.41496 0.47716
 O1060 O 1.14481 0.38757 0.47716
 C1061 C 1.13650 0.40669 0.46911
 C1062 C 1.14885 0.41916 0.44981
 C1063 C 1.17082 0.41126 0.44165
 H1064 H 1.17931 0.39631 0.44992
 O1065 O 0.97736 0.58483 0.38252
 O1066 O 0.97738 0.61215 0.35496
 C1067 C 0.96933 0.59306 0.36333
 C1068 C 0.95006 0.58057 0.35098
 C1069 C 0.94188 0.58851 0.32900
 H1070 H 0.95010 0.60349 0.32054
 O1071 O 1.02306 0.41496 0.38255
 O1072 O 1.02310 0.38757 0.35504
 C1073 C 1.03112 0.40668 0.36338
 C1074 C 1.05041 0.41915 0.35104
 C1075 C 1.05858 0.41123 0.32905
 H1076 H 1.05034 0.39627 0.32056
 O1077 O 1.11742 0.47679 0.41485
 O1078 O 1.14497 0.47670 0.38746
 C1079 C 1.13659 0.46873 0.40663
 C1080 C 1.14888 0.44952 0.41923
 C1081 C 1.17086 0.44134 0.41136
 H1082 H 1.17937 0.44951 0.39635
 O1083 O 0.88288 0.52289 0.41457
 O1084 O 0.85541 0.52294 0.38712
 C1085 C 0.86373 0.53093 0.40630
 C1086 C 0.85140 0.55016 0.41886
 C1087 C 0.82943 0.55831 0.41096
 H1088 H 0.82094 0.55009 0.39596
 O1089 O 0.91510 0.61695 0.47679
 O1090 O 0.88778 0.64449 0.47672
 C1091 C 0.90693 0.63611 0.46873
 C1092 C 0.91955 0.64842 0.44950
 C1093 C 0.91170 0.67038 0.44133
 H1094 H 0.89670 0.67886 0.44952
 O1095 O 1.08504 0.38287 0.47714
 O1096 O 1.11235 0.35532 0.47715
 C1097 C 1.09324 0.36370 0.46910
 C1098 C 1.08069 0.35140 0.44983
 C1099 C 1.08857 0.32944 0.44168
 H1100 H 1.10354 0.32096 0.44993
 O1101 O 1.08527 0.52263 0.38252
 O1102 O 1.11264 0.52261 0.35495
 C1103 C 1.09351 0.53064 0.36332
 C1104 C 1.08097 0.54985 0.35097
 C1105 C 1.08880 0.55795 0.32892
 H1106 H 1.10374 0.54972 0.32038
 O1107 O 0.91512 0.47701 0.38233
 O1108 O 0.88780 0.47700 0.35472
 C1109 C 0.90691 0.46897 0.36312
 C1110 C 0.91944 0.44970 0.35083
 C1111 C 0.91154 0.44146 0.32886
 H1112 H 0.89657 0.44965 0.32033
 O1113 O 1.02333 0.61698 0.41476
 O1114 O 1.02341 0.64445 0.38734
 C1115 C 1.03142 0.63609 0.40650
 C1116 C 1.05070 0.64835 0.41906
 C1117 C 1.05894 0.67028 0.41117
 H1118 H 1.05075 0.67879 0.39617
 O1119 O 0.97708 0.38290 0.41486
 O1120 O 0.97707 0.35535 0.38750
 C1121 C 0.96904 0.36375 0.40665
 C1122 C 0.94978 0.35148 0.41922
 C1123 C 0.94165 0.32951 0.41137
 H1124 H 0.94990 0.32098 0.39641
 O1125 O 1.11747 0.58453 0.47699
 O1126 O 1.14503 0.61182 0.47704
 C1127 C 1.13666 0.59273 0.46897
 C1128 C 1.14899 0.58023 0.44967
 C1129 C 1.17092 0.58815 0.44145
 H1130 H 1.17940 0.60312 0.44968
 O1131 O 0.88263 0.41521 0.47690
 O1132 O 0.85510 0.38789 0.47682
 C1133 C 0.86348 0.40699 0.46880
 C1134 C 0.85123 0.41949 0.44947
 C1135 C 0.82927 0.41163 0.44126
 H1136 H 0.82074 0.39671 0.44950
 Cu1137 Cu 1.00007 0.40167 0.40144
 Cu1138 Cu 1.00009 0.36870 0.36851
 Cu1139 Cu 1.00034 0.59814 0.40142
 Cu1140 Cu 1.00040 0.63102 0.36841
 Cu1141 Cu 0.90176 0.49995 0.40122
 Cu1142 Cu 0.86887 0.49998 0.36817
 Cu1143 Cu 1.09862 0.49971 0.40141
 Cu1144 Cu 1.13158 0.49965 0.36843
 C1145 C 0.93878 0.43862 0.36160
 H1146 H 0.94476 0.44464 0.37869
 C1147 C 0.92266 0.42238 0.31797
 C1148 C 1.06166 0.56101 0.36175
 H1149 H 1.05573 0.55509 0.37890
 C1150 C 1.07763 0.57697 0.31797
 C1151 C 0.86201 0.43876 0.43831
 H1152 H 0.87908 0.44472 0.44432
 C1153 C 0.81839 0.42271 0.42212
 C1154 C 1.13829 0.56091 0.43852
 H1155 H 1.12122 0.55491 0.44453
 C1156 C 1.18185 0.57709 0.42232
 C1157 C 0.93860 0.36225 0.43854
 H1158 H 0.94455 0.37934 0.44448
 C1159 C 0.92258 0.31861 0.42252
 C1160 C 1.06178 0.63761 0.43843
 H1161 H 1.05575 0.62056 0.44441
 C1162 C 1.07801 0.68116 0.42235
 C1163 C 0.93893 0.56123 0.36167
 H1164 H 0.94491 0.55521 0.37876
 C1165 C 0.92281 0.57744 0.31802
 C1166 C 1.06156 0.43846 0.36176
 H1167 H 1.05558 0.44446 0.37887
 C1168 C 1.07766 0.42228 0.31809
 C1169 C 1.06137 0.36211 0.43866
 H1170 H 1.05540 0.37919 0.44462
 C1171 C 1.07746 0.31850 0.42260
 C1172 C 0.93892 0.63771 0.43841
 H1173 H 0.94487 0.62064 0.44439
 C1174 C 0.92291 0.68132 0.42231
 C1175 C 0.86211 0.56127 0.43824
 H1176 H 0.87920 0.55531 0.44422
 C1177 C 0.81846 0.57733 0.42212
 C1178 C 1.13814 0.43846 0.43862
 H1179 H 1.12105 0.44445 0.44458
 C1180 C 1.18179 0.42233 0.42255
 O1181 O 1.02262 0.41506 0.61749
 O1182 O 1.02259 0.38771 0.64503
 C1183 C 1.03063 0.40682 0.63669
 C1184 C 1.04988 0.41930 0.64907
 C1185 C 1.05800 0.41137 0.67106
 H1186 H 1.04973 0.39642 0.67953
 O1187 O 0.97697 0.58483 0.61730
 O1188 O 0.97692 0.61221 0.64482
 C1189 C 0.96890 0.59310 0.63647
 C1190 C 0.94960 0.58063 0.64881
 C1191 C 0.94142 0.58857 0.67079
 H1192 H 0.94965 0.60352 0.67927
 O1193 O 0.88255 0.52301 0.58504
 O1194 O 0.85499 0.52313 0.61243
 C1195 C 0.86339 0.53110 0.59326
 C1196 C 0.85113 0.55035 0.58067
 C1197 C 0.82919 0.55861 0.58857
 H1198 H 0.82068 0.55048 0.60360
 O1199 O 1.11716 0.47680 0.58543
 O1200 O 1.14463 0.47677 0.61288
 C1201 C 1.13631 0.46876 0.59371
 C1202 C 1.14864 0.44952 0.58116
 C1203 C 1.17057 0.44132 0.58911
 H1204 H 1.17902 0.44948 0.60416
 O1205 O 1.08497 0.38288 0.52312
 O1206 O 1.11228 0.35533 0.52318
 C1207 C 1.09315 0.36372 0.53118
 C1208 C 1.08053 0.35144 0.55044
 C1209 C 1.08835 0.32947 0.55861
 H1210 H 1.10333 0.32095 0.55041
 O1211 O 0.91506 0.61695 0.52276
 O1212 O 0.88774 0.64450 0.52274
 C1213 C 0.90686 0.63612 0.53078
 C1214 C 0.91941 0.64843 0.55004
 C1215 C 0.91158 0.67042 0.55814
 H1216 H 0.89664 0.67892 0.54987
 O1217 O 0.91465 0.47712 0.61738
 O1218 O 0.88725 0.47716 0.64493
 C1219 C 0.90638 0.46911 0.63657
 C1220 C 0.91888 0.44985 0.64891
 C1221 C 0.91095 0.44166 0.67089
 H1222 H 0.89596 0.44987 0.67939
 O1223 O 1.08491 0.52271 0.61761
 O1224 O 1.11222 0.52274 0.64523
 C1225 C 1.09311 0.53076 0.63681
 C1226 C 1.08056 0.55003 0.64910
 C1227 C 1.08841 0.55823 0.67110
 H1228 H 1.10337 0.55004 0.67965
 O1229 O 0.97675 0.38291 0.58514
 O1230 O 0.97667 0.35541 0.61254
 C1231 C 0.96868 0.36377 0.59337
 C1232 C 0.94943 0.35150 0.58080
 C1233 C 0.94121 0.32958 0.58870
 H1234 H 0.94940 0.32108 0.60371
 O1235 O 1.02299 0.61690 0.58506
 O1236 O 1.02300 0.64443 0.61243
 C1237 C 1.03104 0.63604 0.59329
 C1238 C 1.05032 0.64830 0.58073
 C1239 C 1.05848 0.67026 0.58858
 H1240 H 1.05025 0.67879 0.60355
 O1241 O 0.88251 0.41522 0.52290
 O1242 O 0.85498 0.38790 0.52287
 C1243 C 0.86333 0.40701 0.53092
 C1244 C 0.85098 0.41954 0.55019
 C1245 C 0.82899 0.41168 0.55834
 H1246 H 0.82049 0.39674 0.55009
 O1247 O 1.11736 0.58451 0.52300
 O1248 O 1.14491 0.61180 0.52309
 C1249 C 1.13651 0.59271 0.53110
 C1250 C 1.14876 0.58019 0.55044
 C1251 C 1.17071 0.58807 0.55866
 H1252 H 1.17923 0.60300 0.55042
 O1253 O 1.02288 0.58476 0.61738
 O1254 O 1.02289 0.61214 0.64490
 C1255 C 1.03090 0.59300 0.63658
 C1256 C 1.05011 0.58048 0.64897
 C1257 C 1.05824 0.58840 0.67097
 H1258 H 1.05001 0.60339 0.67942
 O1259 O 0.97670 0.41512 0.61741
 O1260 O 0.97662 0.38777 0.64495
 C1261 C 0.96862 0.40689 0.63658
 C1262 C 0.94934 0.41941 0.64891
 C1263 C 0.94113 0.41151 0.67088
 H1264 H 0.94934 0.39654 0.67938
 O1265 O 1.11714 0.52264 0.58534
 O1266 O 1.14461 0.52267 0.61279
 C1267 C 1.13630 0.53066 0.59360
 C1268 C 1.14866 0.54985 0.58103
 C1269 C 1.17061 0.55800 0.58897
 H1270 H 1.17905 0.54984 0.60401
 O1271 O 0.88248 0.47717 0.58506
 O1272 O 0.85492 0.47721 0.61244
 C1273 C 0.86329 0.46917 0.59329
 C1274 C 0.85097 0.44996 0.58071
 C1275 C 0.82898 0.44183 0.58859
 H1276 H 0.82047 0.45005 0.60358
 O1277 O 1.08516 0.61674 0.52292
 O1278 O 1.11256 0.64417 0.52302
 C1279 C 1.09339 0.63586 0.53100
 C1280 C 1.08082 0.64820 0.55024
 C1281 C 1.08870 0.67016 0.55837
 H1282 H 1.10368 0.67861 0.55013
 O1283 O 0.91473 0.38301 0.52296
 O1284 O 0.88735 0.35555 0.52293
 C1285 C 0.90648 0.36388 0.53099
 C1286 C 0.91898 0.35156 0.55028
 C1287 C 0.91104 0.32964 0.55846
 H1288 H 0.89605 0.32119 0.55023
 O1289 O 1.08484 0.47687 0.61762
 O1290 O 1.11215 0.47682 0.64524
 C1291 C 1.09302 0.46884 0.63684
 C1292 C 1.08043 0.44963 0.64915
 C1293 C 1.08827 0.44142 0.67115
 H1294 H 1.10326 0.44956 0.67968
 O1295 O 0.91475 0.52297 0.61733
 O1296 O 0.88736 0.52308 0.64488
 C1297 C 0.90651 0.53104 0.63651
 C1298 C 0.91908 0.55027 0.64883
 C1299 C 0.91117 0.55849 0.67082
 H1300 H 0.89617 0.55033 0.67933
 O1301 O 0.97708 0.61696 0.58499
 O1302 O 0.97704 0.64450 0.61236
 C1303 C 0.96905 0.63613 0.59319
 C1304 C 0.94985 0.64845 0.58058
 C1305 C 0.94173 0.67044 0.58840
 H1306 H 0.94995 0.67895 0.60338
 O1307 O 1.02267 0.38293 0.58516
 O1308 O 1.02264 0.35543 0.61255
 C1309 C 1.03069 0.36378 0.59340
 C1310 C 1.04997 0.35147 0.58087
 C1311 C 1.05807 0.32951 0.58876
 H1312 H 1.04979 0.32102 0.60372
 O1313 O 1.11729 0.41496 0.52316
 O1314 O 1.14476 0.38756 0.52322
 C1315 C 1.13642 0.40669 0.53125
 C1316 C 1.14871 0.41916 0.55058
 C1317 C 1.17064 0.41123 0.55881
 H1318 H 1.17914 0.39627 0.55058
 O1319 O 0.88274 0.58487 0.52275
 O1320 O 0.85528 0.61227 0.52273
 C1321 C 0.86359 0.59315 0.53079
 C1322 C 0.85122 0.58070 0.55009
 C1323 C 0.82929 0.58868 0.55827
 H1324 H 0.82084 0.60366 0.55002
 Cu1325 Cu 0.99969 0.40174 0.59855
 Cu1326 Cu 0.99962 0.36883 0.63153
 Cu1327 Cu 0.99998 0.59812 0.59844
 Cu1328 Cu 0.99996 0.63108 0.63139
 Cu1329 Cu 0.90142 0.40186 0.49994
 Cu1330 Cu 0.86847 0.36897 0.49987
 Cu1331 Cu 1.09843 0.40167 0.50014
 Cu1332 Cu 1.13130 0.36869 0.50018
 Cu1333 Cu 0.90166 0.59815 0.49977
 Cu1334 Cu 0.86878 0.63113 0.49971
 Cu1335 Cu 1.09858 0.59791 0.49995
 Cu1336 Cu 1.13157 0.63075 0.50004
 Cu1337 Cu 0.90135 0.50006 0.59846
 Cu1338 Cu 0.86837 0.50015 0.63143
 Cu1339 Cu 1.09827 0.49975 0.59875
 Cu1340 Cu 1.13116 0.49975 0.63181
 C1341 C 1.06107 0.43859 0.63837
 H1342 H 1.05512 0.44460 0.62126
 C1343 C 1.07707 0.42240 0.68206
 C1344 C 0.93845 0.56132 0.63809
 H1345 H 0.94444 0.55530 0.62099
 C1346 C 0.92233 0.57752 0.68175
 C1347 C 0.86188 0.56137 0.56127
 H1348 H 0.87894 0.55532 0.55528
 C1349 C 0.81831 0.57766 0.57739
 C1350 C 1.13798 0.43847 0.56173
 H1351 H 1.12092 0.44448 0.55570
 C1352 C 1.18153 0.42229 0.57796
 C1353 C 1.06118 0.36218 0.56154
 H1354 H 1.05525 0.37926 0.55556
 C1355 C 1.07714 0.31855 0.57765
 C1356 C 0.93871 0.63771 0.56123
 H1357 H 0.94465 0.62060 0.55530
 C1358 C 0.92272 0.68138 0.57720
 C1359 C 0.93824 0.43874 0.63818
 H1360 H 0.94425 0.44473 0.62109
 C1361 C 0.92206 0.42261 0.68184
 C1362 C 1.06124 0.56113 0.63830
 H1363 H 1.05529 0.55512 0.62119
 C1364 C 1.07727 0.57730 0.68199
 C1365 C 0.93834 0.36222 0.56142
 H1366 H 0.94435 0.37927 0.55544
 C1367 C 0.92214 0.31869 0.57755
 C1368 C 1.06147 0.63753 0.56139
 H1369 H 1.05550 0.62045 0.55544
 C1370 C 1.07755 0.68114 0.57742
 C1371 C 0.86170 0.43884 0.56135
 H1372 H 0.87880 0.44479 0.55539
 C1373 C 0.81803 0.42281 0.57742
 C1374 C 1.13799 0.56092 0.56160
 H1375 H 1.12092 0.55495 0.55558
 C1376 C 1.18159 0.57700 0.57780
 O1377 O 0.58478 1.02312 0.61767
 O1378 O 0.61209 1.02312 0.64528
 C1379 C 0.59300 1.03117 0.63686
 C1380 C 0.58051 1.05049 0.64913
 C1381 C 0.58846 1.05876 0.67106
 H1382 H 0.60343 1.05057 0.67959
 O1383 O 0.41483 0.97742 0.61742
 O1384 O 0.38743 0.97744 0.64496
 C1385 C 0.40656 0.96939 0.63660
 C1386 C 0.41903 0.95010 0.64891
 C1387 C 0.41108 0.94190 0.67087
 H1388 H 0.39610 0.95011 0.67938
 O1389 O 0.52295 1.11731 0.58499
 O1390 O 0.52297 1.14488 0.61232
 C1391 C 0.53101 1.13646 0.59319
 C1392 C 0.55032 1.14867 0.58061
 C1393 C 0.55852 1.17063 0.58843
 H1394 H 0.55029 1.17921 0.60337
 O1395 O 0.47683 0.88306 0.58507
 O1396 O 0.47676 0.85556 0.61247
 C1397 C 0.46877 0.86391 0.59330
 C1398 C 0.44954 0.85163 0.58072
 C1399 C 0.44140 0.82966 0.58856
 H1400 H 0.44963 0.82114 0.60353
 O1401 O 0.61738 1.08472 0.52304
 O1402 O 0.64494 1.11200 0.52304
 C1403 C 0.63654 1.09294 0.53111
 C1404 C 0.64878 1.08048 0.55050
 C1405 C 0.67070 1.08840 0.55876
 H1406 H 0.67923 1.10332 0.55051
 O1407 O 0.38262 0.91543 0.52289
 O1408 O 0.35507 0.88813 0.52294
 C1409 C 0.36344 0.90724 0.53096
 C1410 C 0.35113 0.91979 0.55024
 C1411 C 0.32916 0.91193 0.55842
 H1412 H 0.32066 0.89698 0.55018
 O1413 O 0.47697 1.08525 0.61728
 O1414 O 0.47692 1.11265 0.64478
 C1415 C 0.46890 1.09352 0.63645
 C1416 C 0.44963 1.08104 0.64880
 C1417 C 0.44144 1.08899 0.67077
 H1418 H 0.44965 1.10396 0.67924
 O1419 O 0.52266 0.91525 0.61743
 O1420 O 0.52263 0.88790 0.64497
 C1421 C 0.53066 0.90702 0.63663
 C1422 C 0.54987 0.91952 0.64902
 C1423 C 0.55805 0.91154 0.67098
 H1424 H 0.54985 0.89653 0.67941
 O1425 O 0.61700 0.97720 0.58545
 O1426 O 0.64447 0.97714 0.61291
 C1427 C 0.63615 0.96916 0.59372
 C1428 C 0.64850 0.94995 0.58115
 C1429 C 0.67046 0.94180 0.58908
 H1430 H 0.67891 0.94997 0.60412
 O1431 O 0.38269 1.02326 0.58507
 O1432 O 0.35512 1.02337 0.61244
 C1433 C 0.36351 1.03133 0.59327
 C1434 C 0.35122 1.05052 0.58063
 C1435 C 0.32922 1.05870 0.58845
 H1436 H 0.32068 1.05055 0.60345
 O1437 O 0.41502 1.11725 0.52273
 O1438 O 0.38766 1.14474 0.52267
 C1439 C 0.40677 1.13640 0.53075
 C1440 C 0.41927 1.14874 0.55005
 C1441 C 0.41132 1.17067 0.55821
 H1442 H 0.39634 1.17912 0.54996
 O1443 O 0.58500 0.88313 0.52307
 O1444 O 0.61237 0.85564 0.52318
 C1445 C 0.59321 0.86400 0.53115
 C1446 C 0.58063 0.85170 0.55040
 C1447 C 0.58852 0.82976 0.55858
 H1448 H 0.60353 0.82130 0.55037
 O1449 O 0.41487 1.02329 0.61739
 O1450 O 0.38747 1.02339 0.64493
 C1451 C 0.40662 1.03137 0.63656
 C1452 C 0.41915 1.05063 0.64886
 C1453 C 0.41124 1.05886 0.67084
 H1454 H 0.39626 1.05068 0.67936
 O1455 O 0.58471 0.97725 0.61768
 O1456 O 0.61202 0.97718 0.64529
 C1457 C 0.59290 0.96920 0.63688
 C1458 C 0.58033 0.94995 0.64916
 C1459 C 0.58823 0.94167 0.67111
 H1460 H 0.60323 0.94982 0.67964
 O1461 O 0.52275 0.88307 0.58513
 O1462 O 0.52273 0.85558 0.61253
 C1463 C 0.53079 0.86394 0.59338
 C1464 C 0.55009 0.85165 0.58085
 C1465 C 0.55828 0.82972 0.58876
 H1466 H 0.55004 0.82122 0.60374
 O1467 O 0.47702 1.11740 0.58499
 O1468 O 0.47698 1.14496 0.61233
 C1469 C 0.46897 1.13657 0.59318
 C1470 C 0.44970 1.14883 0.58059
 C1471 C 0.44148 1.17077 0.58847
 H1472 H 0.44966 1.17928 0.60347
 O1473 O 0.38283 1.08504 0.52270
 O1474 O 0.35531 1.11239 0.52264
 C1475 C 0.36365 1.09329 0.53071
 C1476 C 0.35129 1.08082 0.55000
 C1477 C 0.32929 1.08872 0.55809
 H1478 H 0.32081 1.10364 0.54977
 O1479 O 0.61721 0.91532 0.52311
 O1480 O 0.64473 0.88798 0.52322
 C1481 C 0.63635 0.90709 0.53122
 C1482 C 0.64861 0.91960 0.55055
 C1483 C 0.67056 0.91173 0.55876
 H1484 H 0.67909 0.89679 0.55052
 O1485 O 0.47675 0.91527 0.61734
 O1486 O 0.47667 0.88792 0.64488
 C1487 C 0.46868 0.90704 0.63652
 C1488 C 0.44942 0.91958 0.64885
 C1489 C 0.44118 0.91166 0.67081
 H1490 H 0.44934 0.89665 0.67928
 O1491 O 0.52288 1.08526 0.61741
 O1492 O 0.52290 1.11268 0.64489
 C1493 C 0.53091 1.09353 0.63659
 C1494 C 0.55014 1.08102 0.64898
 C1495 C 0.55838 1.08902 0.67092
 H1496 H 0.55023 1.10407 0.67934
 O1497 O 0.38264 0.97743 0.58512
 O1498 O 0.35508 0.97746 0.61250
 C1499 C 0.36346 0.96943 0.59335
 C1500 C 0.35113 0.95020 0.58078
 C1501 C 0.32915 0.94206 0.58867
 H1502 H 0.32066 0.95026 0.60368
 O1503 O 0.61707 1.02303 0.58545
 O1504 O 0.64453 1.02303 0.61291
 C1505 C 0.63623 1.03103 0.59372
 C1506 C 0.64862 1.05020 0.58115
 C1507 C 0.67055 1.05839 0.58913
 H1508 H 0.67896 1.05025 0.60421
 O1509 O 0.41477 0.88316 0.52292
 O1510 O 0.38737 0.85571 0.52297
 C1511 C 0.40652 0.86403 0.53098
 C1512 C 0.41906 0.85169 0.55023
 C1513 C 0.41120 0.82973 0.55835
 H1514 H 0.39622 0.82126 0.55011
 O1515 O 0.58515 1.11691 0.52290
 O1516 O 0.61256 1.14434 0.52290
 C1517 C 0.59339 1.13606 0.53092
 C1518 C 0.58084 1.14846 0.55014
 C1519 C 0.58875 1.17042 0.55823
 H1520 H 0.60375 1.17883 0.54998
 Cu1521 Cu 0.59814 1.00015 0.59882
 Cu1522 Cu 0.63102 1.00011 0.63187
 Cu1523 Cu 0.40150 1.00034 0.59851
 Cu1524 Cu 0.36852 1.00042 0.63147
 Cu1525 Cu 0.49996 1.09856 0.59843
 Cu1526 Cu 0.49994 1.13156 0.63133
 Cu1527 Cu 0.49975 0.90190 0.59849
 Cu1528 Cu 0.49969 0.86898 0.63147
 C1529 C 0.56119 1.06159 0.63835
 H1530 H 0.55516 1.05553 0.62129
 C1531 C 0.57742 1.07791 0.68192
 C1532 C 0.43837 0.93897 0.63816
 H1533 H 0.44440 0.94497 0.62108
 C1534 C 0.42213 0.92279 0.68178
 C1535 C 0.56146 1.13784 0.56130
 H1536 H 0.55546 1.12077 0.55538
 C1537 C 0.57762 1.18146 0.57725
 C1538 C 0.43840 0.86238 0.56139
 H1539 H 0.44436 0.87946 0.55544
 C1540 C 0.42235 0.81876 0.57739
 C1541 C 0.63800 1.06122 0.56167
 H1542 H 0.62095 1.05523 0.55562
 C1543 C 0.68155 1.07737 0.57796
 C1544 C 0.36186 0.93909 0.56140
 H1545 H 0.37895 0.94504 0.55542
 C1546 C 0.31821 0.92304 0.57751
 C1547 C 0.43851 1.06170 0.63811
 H1548 H 0.44450 1.05568 0.62101
 C1549 C 0.42237 1.07792 0.68175
 C1550 C 0.56098 0.93889 0.63838
 H1551 H 0.55500 0.94494 0.62129
 C1552 C 0.57711 0.92259 0.68197
 C1553 C 0.63784 0.93888 0.56172
 H1554 H 0.62076 0.94485 0.55571
 C1555 C 0.68144 0.92280 0.57791
 C1556 C 0.36199 1.06156 0.56125
 H1557 H 0.37910 1.05557 0.55532
 C1558 C 0.31830 1.07768 0.57719
 C1559 C 0.43862 1.13808 0.56122
 H1560 H 0.44464 1.12102 0.55525
 C1561 C 0.42241 1.18165 0.57730
 C1562 C 0.56125 0.86238 0.56151
 H1563 H 0.55526 0.87944 0.55552
 C1564 C 0.57737 0.81882 0.57763
 O1565 O 0.58508 0.97681 0.38243
 O1566 O 0.61246 0.97672 0.35486
 C1567 C 0.59332 0.96874 0.36324
 C1568 C 0.58076 0.94950 0.35094
 C1569 C 0.58857 0.94134 0.32890
 H1570 H 0.60352 0.94954 0.32034
 O1571 O 0.41515 1.02288 0.38229
 O1572 O 0.38782 1.02292 0.35468
 C1573 C 0.40695 1.03091 0.36308
 C1574 C 0.41950 1.05016 0.35077
 C1575 C 0.41161 1.05836 0.32879
 H1576 H 0.39663 1.05018 0.32027
 O1577 O 0.47732 1.11706 0.41463
 O1578 O 0.47735 1.14454 0.38722
 C1579 C 0.46931 1.13621 0.40639
 C1580 C 0.45007 1.14854 0.41894
 C1581 C 0.44193 1.17050 0.41103
 H1582 H 0.45017 1.17897 0.39604
 O1583 O 0.52299 0.88279 0.41497
 O1584 O 0.52304 0.85523 0.38762
 C1585 C 0.53105 0.86363 0.40676
 C1586 C 0.55033 0.85139 0.41935
 C1587 C 0.55853 0.82943 0.41151
 H1588 H 0.55032 0.82088 0.39655
 O1589 O 0.61736 0.91519 0.47710
 O1590 O 0.64487 0.88785 0.47716
 C1591 C 0.63653 0.90694 0.46908
 C1592 C 0.64885 0.91938 0.44975
 C1593 C 0.67081 0.91146 0.44157
 H1594 H 0.67931 0.89653 0.44985
 O1595 O 0.38288 1.08502 0.47670
 O1596 O 0.35537 1.11237 0.47659
 C1597 C 0.36373 1.09324 0.46859
 C1598 C 0.35144 1.08071 0.44930
 C1599 C 0.32948 1.08859 0.44108
 H1600 H 0.32099 1.10357 0.44930
 O1601 O 0.52317 1.08475 0.38236
 O1602 O 0.52326 1.11208 0.35480
 C1603 C 0.53123 1.09295 0.36317
 C1604 C 0.55046 1.08039 0.35083
 C1605 C 0.55868 1.08828 0.32885
 H1606 H 0.55052 1.10328 0.32037
 O1607 O 0.47710 0.91492 0.38261
 O1608 O 0.47708 0.88751 0.35512
 C1609 C 0.46907 0.90665 0.36343
 C1610 C 0.44985 0.91917 0.35104
 C1611 C 0.44170 0.91124 0.32905
 H1612 H 0.44991 0.89624 0.32060
 O1613 O 0.61728 1.02267 0.41468
 O1614 O 0.64482 1.02265 0.38729
 C1615 C 0.63646 1.03067 0.40645
 C1616 C 0.64880 1.04986 0.41904
 C1617 C 0.67077 1.05801 0.41113
 H1618 H 0.67924 1.04983 0.39609
 O1619 O 0.38280 0.97710 0.41455
 O1620 O 0.35533 0.97707 0.38710
 C1621 C 0.36364 0.96908 0.40629
 C1622 C 0.35128 0.94988 0.41885
 C1623 C 0.32936 0.94166 0.41089
 H1624 H 0.32092 0.94980 0.39582
 O1625 O 0.58525 1.11683 0.47692
 O1626 O 0.61267 1.14426 0.47687
 C1627 C 0.59353 1.13594 0.46884
 C1628 C 0.58103 1.14825 0.44952
 C1629 C 0.58896 1.17018 0.44137
 H1630 H 0.60393 1.17863 0.44963
 O1631 O 0.41482 0.88311 0.47696
 O1632 O 0.38743 0.85566 0.47695
 C1633 C 0.40659 0.86396 0.46894
 C1634 C 0.41916 0.85157 0.44972
 C1635 C 0.41129 0.82960 0.44161
 H1636 H 0.39629 0.82116 0.44984
 O1637 O 0.41512 0.97701 0.38235
 O1638 O 0.38780 0.97698 0.35474
 C1639 C 0.40691 0.96896 0.36316
 C1640 C 0.41944 0.94967 0.35089
 C1641 C 0.41157 0.94145 0.32890
 H1642 H 0.39663 0.94966 0.32034
 O1643 O 0.58511 1.02265 0.38236
 O1644 O 0.61250 1.02263 0.35481
 C1645 C 0.59337 1.03066 0.36316
 C1646 C 0.58086 1.04990 0.35082
 C1647 C 0.58881 1.05807 0.32885
 H1648 H 0.60380 1.04985 0.32035
 O1649 O 0.47706 0.88280 0.41494
 O1650 O 0.47705 0.85523 0.38760
 C1651 C 0.46902 0.86364 0.40673
 C1652 C 0.44973 0.85140 0.41930
 C1653 C 0.44158 0.82943 0.41147
 H1654 H 0.44984 0.82087 0.39653
 O1655 O 0.52324 1.11694 0.41465
 O1656 O 0.52333 1.14442 0.38724
 C1657 C 0.53133 1.13606 0.40641
 C1658 C 0.55061 1.14832 0.41897
 C1659 C 0.55882 1.17025 0.41110
 H1660 H 0.55063 1.17876 0.39610
 O1661 O 0.38261 0.91532 0.47688
 O1662 O 0.35507 0.88802 0.47688
 C1663 C 0.36345 0.90710 0.46882
 C1664 C 0.35119 0.91956 0.44947
 C1665 C 0.32927 0.91163 0.44123
 H1666 H 0.32076 0.89669 0.44947
 O1667 O 0.61740 1.08456 0.47702
 O1668 O 0.64496 1.11184 0.47697
 C1669 C 0.63657 1.09274 0.46895
 C1670 C 0.64887 1.08021 0.44964
 C1671 C 0.67083 1.08807 0.44145
 H1672 H 0.67935 1.10301 0.44970
 O1673 O 0.52300 0.91488 0.38261
 O1674 O 0.52303 0.88748 0.35511
 C1675 C 0.53104 0.90661 0.36343
 C1676 C 0.55028 0.91910 0.35104
 C1677 C 0.55836 0.91122 0.32901
 H1678 H 0.55010 0.89628 0.32052
 O1679 O 0.47726 1.08484 0.38238
 O1680 O 0.47729 1.11217 0.35482
 C1681 C 0.46924 1.09307 0.36318
 C1682 C 0.44997 1.08058 0.35083
 C1683 C 0.44180 1.08850 0.32885
 H1684 H 0.45001 1.10347 0.32038
 O1685 O 0.38290 1.02294 0.41455
 O1686 O 0.35542 1.02298 0.38710
 C1687 C 0.36376 1.03099 0.40627
 C1688 C 0.35145 1.05025 0.41881
 C1689 C 0.32949 1.05842 0.41088
 H1690 H 0.32101 1.05020 0.39588
 O1691 O 0.61731 0.97685 0.41470
 O1692 O 0.64485 0.97677 0.38729
 C1693 C 0.63648 0.96881 0.40648
 C1694 C 0.64882 0.94965 0.41910
 C1695 C 0.67078 0.94145 0.41120
 H1696 H 0.67925 0.94958 0.39615
 O1697 O 0.58508 0.88306 0.47710
 O1698 O 0.61245 0.85557 0.47716
 C1699 C 0.59333 0.86390 0.46910
 C1700 C 0.58081 0.85153 0.44984
 C1701 C 0.58872 0.82958 0.44173
 H1702 H 0.60371 0.82114 0.44999
 O1703 O 0.41517 1.11715 0.47675
 O1704 O 0.38781 1.14465 0.47664
 C1705 C 0.40696 1.13628 0.46866
 C1706 C 0.41956 1.14857 0.44941
 C1707 C 0.41170 1.17052 0.44122
 H1708 H 0.39671 1.17901 0.44943
 Cu1709 Cu 0.59845 0.99975 0.40128
 Cu1710 Cu 0.63142 0.99969 0.36829
 Cu1711 Cu 0.40173 0.99998 0.40118
 Cu1712 Cu 0.36884 0.99999 0.36814
 Cu1713 Cu 0.59856 1.09801 0.49997
 Cu1714 Cu 0.63155 1.13085 0.49994
 Cu1715 Cu 0.59843 0.90192 0.50008
 Cu1716 Cu 0.63137 0.86901 0.50019
 Cu1717 Cu 0.40171 1.09837 0.49973
 Cu1718 Cu 0.36878 1.13129 0.49962
 Cu1719 Cu 0.40145 0.90199 0.49991
 Cu1720 Cu 0.36846 0.86914 0.49994
 Cu1721 Cu 0.50024 1.09816 0.40126
 Cu1722 Cu 0.50032 1.13106 0.36826
 Cu1723 Cu 0.50004 0.90158 0.40153
 Cu1724 Cu 0.50005 0.86860 0.36861
 C1725 C 0.56145 0.93841 0.36175
 H1726 H 0.55552 0.94438 0.37888
 C1727 C 0.57739 0.92232 0.31798
 C1728 C 0.43884 1.06124 0.36153
 H1729 H 0.44482 1.05523 0.37863
 C1730 C 0.42274 1.07742 0.31787
 C1731 C 0.43891 1.13785 0.43829
 H1732 H 0.44486 1.12077 0.44428
 C1733 C 0.42287 1.18144 0.42216
 C1734 C 0.56145 0.86218 0.43868
 H1735 H 0.55545 0.87925 0.44461
 C1736 C 0.57761 0.81856 0.42269
 C1737 C 0.63812 0.93864 0.43854
 H1738 H 0.62104 0.94465 0.44452
 C1739 C 0.68173 0.92248 0.42242
 C1740 C 0.36216 1.06137 0.43818
 H1741 H 0.37924 1.05539 0.44419
 C1742 C 0.31855 1.07747 0.42200
 C1743 C 0.56152 1.06103 0.36155
 H1744 H 0.55550 1.05505 0.37865
 C1745 C 0.57774 1.07714 0.31791
 C1746 C 0.43874 0.93855 0.36170
 H1747 H 0.44470 0.94456 0.37880
 C1748 C 0.42269 0.92236 0.31802
 C1749 C 0.63811 1.06093 0.43846
 H1750 H 0.62102 1.05497 0.44446
 C1751 C 0.68174 1.07700 0.42231
 C1752 C 0.36193 0.93885 0.43831
 H1753 H 0.37898 0.94486 0.44435
 C1754 C 0.31840 0.92265 0.42205
 C1755 C 0.56169 1.13758 0.43835
 H1756 H 0.55568 1.12052 0.44433
 C1757 C 0.57788 1.18114 0.42228
 C1758 C 0.43854 0.86221 0.43859
 H1759 H 0.44451 0.87930 0.44451
 C1760 C 0.42248 0.81857 0.42261
 O1761 O 0.47698 0.41493 0.88280
 O1762 O 0.47697 0.38750 0.85534
 C1763 C 0.46896 0.40665 0.86363
 C1764 C 0.44973 0.41914 0.85122
 C1765 C 0.44163 0.41121 0.82922
 H1766 H 0.44988 0.39623 0.82077
 O1767 O 0.52295 0.58468 0.88267
 O1768 O 0.52302 0.61197 0.85507
 C1769 C 0.53099 0.59285 0.86346
 C1770 C 0.55019 0.58026 0.85110
 C1771 C 0.55831 0.58806 0.82906
 H1772 H 0.55008 0.60301 0.82055
 O1773 O 0.38265 0.47698 0.91476
 O1774 O 0.35518 0.47693 0.88731
 C1775 C 0.36350 0.46895 0.90650
 C1776 C 0.35115 0.44976 0.91909
 C1777 C 0.32923 0.44153 0.91113
 H1778 H 0.32079 0.44966 0.89606
 O1779 O 0.61722 0.52268 0.91489
 O1780 O 0.64474 0.52267 0.88747
 C1781 C 0.63639 0.53069 0.90664
 C1782 C 0.64871 0.54991 0.91919
 C1783 C 0.67067 0.55808 0.91127
 H1784 H 0.67915 0.54989 0.89624
 O1785 O 0.41476 0.38313 0.97726
 O1786 O 0.38739 0.35565 0.97729
 C1787 C 0.40654 0.36396 0.96926
 C1788 C 0.41912 0.35158 0.95004
 C1789 C 0.41128 0.32959 0.94197
 H1790 H 0.39630 0.32113 0.95022
 O1791 O 0.58508 0.61691 0.97702
 O1792 O 0.61249 0.64434 0.97698
 C1793 C 0.59335 0.63602 0.96894
 C1794 C 0.58086 0.64831 0.94962
 C1795 C 0.58883 0.67021 0.94139
 H1796 H 0.60383 0.67865 0.94961
 O1797 O 0.41496 0.52278 0.88251
 O1798 O 0.38764 0.52282 0.85491
 C1799 C 0.40676 0.53082 0.86331
 C1800 C 0.41931 0.55007 0.85102
 C1801 C 0.41141 0.55829 0.82904
 H1802 H 0.39643 0.55011 0.82051
 O1803 O 0.58503 0.47677 0.88269
 O1804 O 0.61239 0.47670 0.85511
 C1805 C 0.59326 0.46871 0.86350
 C1806 C 0.58071 0.44946 0.85121
 C1807 C 0.58857 0.44125 0.82921
 H1808 H 0.60355 0.44942 0.82067
 O1809 O 0.52287 0.38285 0.91521
 O1810 O 0.52292 0.35527 0.88789
 C1811 C 0.53093 0.36369 0.90703
 C1812 C 0.55020 0.35144 0.91962
 C1813 C 0.55840 0.32949 0.91177
 H1814 H 0.55020 0.32095 0.89679
 O1815 O 0.47711 0.61702 0.91489
 O1816 O 0.47713 0.64447 0.88745
 C1817 C 0.46909 0.63615 0.90662
 C1818 C 0.44983 0.64848 0.91916
 C1819 C 0.44172 0.67044 0.91127
 H1820 H 0.44999 0.67894 0.89631
 O1821 O 0.38261 0.58484 0.97691
 O1822 O 0.35512 0.61221 0.97681
 C1823 C 0.36347 0.59307 0.96882
 C1824 C 0.35116 0.58053 0.94954
 C1825 C 0.32917 0.58837 0.94138
 H1826 H 0.32065 0.60331 0.94962
 O1827 O 0.61730 0.41519 0.97735
 O1828 O 0.64478 0.38782 0.97740
 C1829 C 0.63645 0.40692 0.96932
 C1830 C 0.64878 0.41936 0.94998
 C1831 C 0.67072 0.41141 0.94178
 H1832 H 0.67920 0.39646 0.95004
 O1833 O 0.47705 0.58480 0.88265
 O1834 O 0.47706 0.61210 0.85506
 C1835 C 0.46902 0.59301 0.86344
 C1836 C 0.44976 0.58051 0.85109
 C1837 C 0.44159 0.58844 0.82912
 H1838 H 0.44979 0.60342 0.82065
 O1839 O 0.52289 0.41491 0.88283
 O1840 O 0.52294 0.38748 0.85535
 C1841 C 0.53095 0.40662 0.86366
 C1842 C 0.55021 0.41909 0.85129
 C1843 C 0.55835 0.41115 0.82930
 H1844 H 0.55010 0.39619 0.82082
 O1845 O 0.61724 0.47685 0.91497
 O1846 O 0.64476 0.47677 0.88754
 C1847 C 0.63641 0.46882 0.90673
 C1848 C 0.64875 0.44964 0.91934
 C1849 C 0.67069 0.44142 0.91142
 H1850 H 0.67915 0.44954 0.89635
 O1851 O 0.38269 0.52282 0.91474
 O1852 O 0.35520 0.52284 0.88730
 C1853 C 0.36353 0.53086 0.90647
 C1854 C 0.35120 0.55009 0.91903
 C1855 C 0.32921 0.55821 0.91115
 H1856 H 0.32071 0.54998 0.89617
 O1857 O 0.41486 0.61702 0.97688
 O1858 O 0.38752 0.64453 0.97679
 C1859 C 0.40666 0.63616 0.96881
 C1860 C 0.41927 0.64846 0.94957
 C1861 C 0.41144 0.67042 0.94141
 H1862 H 0.39644 0.67891 0.94962
 O1863 O 0.58499 0.38309 0.97737
 O1864 O 0.61233 0.35558 0.97742
 C1865 C 0.59321 0.36392 0.96937
 C1866 C 0.58067 0.35157 0.95012
 C1867 C 0.58859 0.32962 0.94199
 H1868 H 0.60359 0.32118 0.95023
 O1869 O 0.58498 0.52261 0.88265
 O1870 O 0.61234 0.52261 0.85507
 C1871 C 0.59320 0.53061 0.86344
 C1872 C 0.58063 0.54980 0.85109
 C1873 C 0.58847 0.55789 0.82904
 H1874 H 0.60343 0.54966 0.82051
 O1875 O 0.41492 0.47692 0.88252
 O1876 O 0.38761 0.47688 0.85491
 C1877 C 0.40672 0.46886 0.86332
 C1878 C 0.41928 0.44959 0.85105
 C1879 C 0.41145 0.44137 0.82904
 H1880 H 0.39651 0.44956 0.82047
 O1881 O 0.52303 0.61697 0.91485
 O1882 O 0.52311 0.64441 0.88740
 C1883 C 0.53112 0.63608 0.90657
 C1884 C 0.55041 0.64835 0.91910
 C1885 C 0.55866 0.67025 0.91114
 H1886 H 0.55048 0.67873 0.89613
 O1887 O 0.47695 0.38286 0.91519
 O1888 O 0.47695 0.35527 0.88787
 C1889 C 0.46892 0.36369 0.90700
 C1890 C 0.44965 0.35144 0.91959
 C1891 C 0.44153 0.32945 0.91179
 H1892 H 0.44980 0.32089 0.89686
 O1893 O 0.61725 0.58465 0.97710
 O1894 O 0.64481 0.61194 0.97706
 C1895 C 0.63643 0.59284 0.96904
 C1896 C 0.64874 0.58031 0.94975
 C1897 C 0.67069 0.58819 0.94155
 H1898 H 0.67919 0.60314 0.94978
 O1899 O 0.38249 0.41528 0.97716
 O1900 O 0.35498 0.38795 0.97718
 C1901 C 0.36335 0.40703 0.96910
 C1902 C 0.35107 0.41947 0.94973
 C1903 C 0.32915 0.41153 0.94150
 H1904 H 0.32065 0.39659 0.94976
 Cu1905 Cu 0.49992 0.40164 0.90175
 Cu1906 Cu 0.49995 0.36861 0.86886
 Cu1907 Cu 0.50003 0.59814 0.90152
 Cu1908 Cu 0.50009 0.63099 0.86848
 Cu1909 Cu 0.40155 0.49987 0.90138
 Cu1910 Cu 0.36866 0.49987 0.86834
 Cu1911 Cu 0.59838 0.49973 0.90155
 Cu1912 Cu 0.63132 0.49969 0.86853
 C1913 C 0.43858 0.43849 0.86187
 H1914 H 0.44451 0.44450 0.87899
 C1915 C 0.42262 0.42230 0.81817
 C1916 C 0.56133 0.56096 0.86186
 H1917 H 0.55539 0.55504 0.87900
 C1918 C 0.57732 0.57690 0.81808
 C1919 C 0.36181 0.43875 0.93855
 H1920 H 0.37886 0.44477 0.94458
 C1921 C 0.31827 0.42254 0.92232
 C1922 C 0.63801 0.56100 0.93860
 H1923 H 0.62093 0.55503 0.94460
 C1924 C 0.68162 0.57710 0.92243
 C1925 C 0.43847 0.36225 0.93888
 H1926 H 0.44441 0.37935 0.94479
 C1927 C 0.42247 0.31856 0.92297
 C1928 C 0.56149 0.63765 0.93849
 H1929 H 0.55545 0.62063 0.94452
 C1930 C 0.57775 0.68113 0.92228
 C1931 C 0.43864 0.56116 0.86178
 H1932 H 0.44463 0.55515 0.87888
 C1933 C 0.42253 0.57735 0.81813
 C1934 C 0.56136 0.43840 0.86198
 H1935 H 0.55540 0.44442 0.87909
 C1936 C 0.57741 0.42222 0.81829
 C1937 C 0.56131 0.36222 0.93896
 H1938 H 0.55531 0.37929 0.94491
 C1939 C 0.57748 0.31862 0.92294
 C1940 C 0.43863 0.63775 0.93847
 H1941 H 0.44457 0.62066 0.94444
 C1942 C 0.42264 0.68137 0.92239
 C1943 C 0.36191 0.56123 0.93839
 H1944 H 0.37901 0.55529 0.94436
 C1945 C 0.31823 0.57723 0.92231
 C1946 C 0.63806 0.43864 0.93879
 H1947 H 0.62099 0.44466 0.94479
 C1948 C 0.68163 0.42242 0.92261
 O1949 O 0.52263 0.41534 1.11775
 O1950 O 0.52261 0.38801 1.14531
 C1951 C 0.53064 0.40712 1.13696
 C1952 C 0.54986 0.41963 1.14934
 C1953 C 0.55794 0.41175 1.17137
 H1954 H 0.54967 0.39681 1.17986
 O1955 O 0.47685 0.58522 1.11745
 O1956 O 0.47680 0.61265 1.14492
 C1957 C 0.46879 0.59351 1.13661
 C1958 C 0.44951 0.58105 1.14898
 C1959 C 0.44136 0.58899 1.17097
 H1960 H 0.44960 0.60395 1.17944
 O1961 O 0.38251 0.52329 1.08534
 O1962 O 0.35497 0.52340 1.11274
 C1963 C 0.36334 0.53136 1.09357
 C1964 C 0.35105 0.55058 1.08096
 C1965 C 0.32913 0.55887 1.08890
 H1966 H 0.32066 0.55078 1.10397
 O1967 O 0.61704 0.47715 1.08566
 O1968 O 0.64452 0.47715 1.11310
 C1969 C 0.63620 0.46913 1.09393
 C1970 C 0.64854 0.44990 1.08138
 C1971 C 0.67049 0.44171 1.08932
 H1972 H 0.67895 0.44987 1.10436
 O1973 O 0.58493 0.38317 1.02335
 O1974 O 0.61227 0.35564 1.02344
 C1975 C 0.59312 0.36402 1.03143
 C1976 C 0.58053 0.35173 1.05068
 C1977 C 0.58837 0.32976 1.05882
 H1978 H 0.60334 0.32126 1.05058
 O1979 O 0.41485 0.61707 1.02285
 O1980 O 0.38753 0.64460 1.02280
 C1981 C 0.40665 0.63625 1.03084
 C1982 C 0.41923 0.64861 1.05006
 C1983 C 0.41143 0.67064 1.05809
 H1984 H 0.39649 0.67913 1.04980
 O1985 O 0.41468 0.47744 1.11767
 O1986 O 0.38729 0.47746 1.14522
 C1987 C 0.40642 0.46942 1.13686
 C1988 C 0.41892 0.45015 1.14919
 C1989 C 0.41098 0.44196 1.17116
 H1990 H 0.39600 0.45017 1.17966
 O1991 O 0.58477 0.52307 1.11781
 O1992 O 0.61208 0.52314 1.14542
 C1993 C 0.59297 0.53114 1.13700
 C1994 C 0.58040 0.55040 1.14927
 C1995 C 0.58818 0.55857 1.17131
 H1996 H 0.60310 0.55035 1.17990
 O1997 O 0.47678 0.38317 1.08541
 O1998 O 0.47672 0.35568 1.11281
 C1999 C 0.46873 0.36403 1.09364
 C2000 C 0.44949 0.35174 1.08106
 C2001 C 0.44134 0.32978 1.08893
 H2002 H 0.44957 0.32127 1.10391
 O2003 O 0.52287 0.61725 1.08515
 O2004 O 0.52288 0.64482 1.11248
 C2005 C 0.53092 0.63640 1.09335
 C2006 C 0.55022 0.64863 1.08078
 C2007 C 0.55843 0.67058 1.08864
 H2008 H 0.55022 0.67912 1.10361
 O2009 O 0.38251 0.41545 1.02316
 O2010 O 0.35498 0.38813 1.02323
 C2011 C 0.36334 0.40725 1.03123
 C2012 C 0.35101 0.41981 1.05050
 C2013 C 0.32901 0.41198 1.05864
 H2014 H 0.32051 0.39704 1.05039
 O2015 O 0.61719 0.58473 1.02311
 O2016 O 0.64475 0.61202 1.02312
 C2017 C 0.63635 0.59295 1.03118
 C2018 C 0.64861 0.58047 1.05053
 C2019 C 0.67057 0.58835 1.05872
 H2020 H 0.67910 0.60327 1.05045
 O2021 O 0.52276 0.58512 1.11748
 O2022 O 0.52276 0.61254 1.14496
 C2023 C 0.53077 0.59339 1.13667
 C2024 C 0.54996 0.58086 1.14910
 C2025 C 0.55801 0.58874 1.17113
 H2026 H 0.54976 0.60371 1.17959
 O2027 O 0.47672 0.41537 1.11767
 O2028 O 0.47664 0.38804 1.14522
 C2029 C 0.46864 0.40715 1.13685
 C2030 C 0.44936 0.41968 1.14917
 C2031 C 0.44114 0.41177 1.17114
 H2032 H 0.44932 0.39679 1.17963
 O2033 O 0.61701 0.52298 1.08554
 O2034 O 0.64449 0.52306 1.11299
 C2035 C 0.63617 0.53101 1.09379
 C2036 C 0.64852 0.55018 1.08118
 C2037 C 0.67048 0.55835 1.08909
 H2038 H 0.67893 0.55020 1.10414
 O2039 O 0.38250 0.47746 1.08536
 O2040 O 0.35495 0.47748 1.11275
 C2041 C 0.36332 0.46946 1.09359
 C2042 C 0.35099 0.45024 1.08102
 C2043 C 0.32900 0.44212 1.08888
 H2044 H 0.32048 0.45034 1.10387
 O2045 O 0.58500 0.61697 1.02301
 O2046 O 0.61241 0.64440 1.02302
 C2047 C 0.59325 0.63611 1.03104
 C2048 C 0.58071 0.64848 1.05029
 C2049 C 0.58863 0.67042 1.05841
 H2050 H 0.60363 0.67885 1.05017
 O2051 O 0.41469 0.38321 1.02323
 O2052 O 0.38732 0.35574 1.02330
 C2053 C 0.40646 0.36408 1.03131
 C2054 C 0.41901 0.35177 1.05058
 C2055 C 0.41114 0.32982 1.05873
 H2056 H 0.39617 0.32134 1.05049
 O2057 O 0.58475 0.47722 1.11788
 O2058 O 0.61207 0.47721 1.14549
 C2059 C 0.59294 0.46921 1.13710
 C2060 C 0.58036 0.45000 1.14942
 C2061 C 0.58817 0.44184 1.17146
 H2062 H 0.60313 0.45003 1.18000
 O2063 O 0.41473 0.52331 1.11762
 O2064 O 0.38735 0.52340 1.14518
 C2065 C 0.40649 0.53138 1.13680
 C2066 C 0.41904 0.55064 1.14909
 C2067 C 0.41116 0.55886 1.17108
 H2068 H 0.39620 0.55068 1.17963
 O2069 O 0.47695 0.61725 1.08503
 O2070 O 0.47690 0.64484 1.11234
 C2071 C 0.46892 0.63643 1.09319
 C2072 C 0.44970 0.64871 1.08056
 C2073 C 0.44162 0.67074 1.08831
 H2074 H 0.44988 0.67930 1.10324
 O2075 O 0.52270 0.38317 1.08545
 O2076 O 0.52269 0.35568 1.11285
 C2077 C 0.53074 0.36403 1.09370
 C2078 C 0.55002 0.35173 1.08115
 C2079 C 0.55814 0.32976 1.08901
 H2080 H 0.54989 0.32125 1.10398
 O2081 O 0.61719 0.41530 1.02336
 O2082 O 0.64468 0.38793 1.02346
 C2083 C 0.63633 0.40705 1.03146
 C2084 C 0.64861 0.41955 1.05079
 C2085 C 0.67055 0.41164 1.05900
 H2086 H 0.67905 0.39669 1.05076
 O2087 O 0.38254 0.58498 1.02291
 O2088 O 0.35507 0.61236 1.02287
 C2089 C 0.36340 0.59327 1.03095
 C2090 C 0.35107 0.58086 1.05031
 C2091 C 0.32916 0.58886 1.05852
 H2092 H 0.32070 0.60382 1.05025
 Cu2093 Cu 0.49971 0.40200 1.09882
 Cu2094 Cu 0.49966 0.36910 1.13181
 Cu2095 Cu 0.49986 0.59846 1.09854
 Cu2096 Cu 0.49983 0.63148 1.13143
 Cu2097 Cu 0.40135 0.40201 1.00020
 Cu2098 Cu 0.36840 0.36912 1.00026
 Cu2099 Cu 0.59837 0.40194 1.00035
 Cu2100 Cu 0.63128 0.36899 1.00044
 Cu2101 Cu 0.40145 0.59823 0.99989
 Cu2102 Cu 0.36855 0.63118 0.99981
 Cu2103 Cu 0.59839 0.59808 1.00006
 Cu2104 Cu 0.63138 0.63092 1.00004
 Cu2105 Cu 0.40135 0.50037 1.09876
 Cu2106 Cu 0.36838 0.50044 1.13174
 Cu2107 Cu 0.59815 0.50010 1.09898
 Cu2108 Cu 0.63104 0.50015 1.13202
 C2109 C 0.56104 0.43892 1.13863
 H2110 H 0.55512 0.44488 1.12150
 C2111 C 0.57697 0.42284 1.18238
 C2112 C 0.43837 0.56171 1.13830
 H2113 H 0.44434 0.55570 1.12120
 C2114 C 0.42231 0.57791 1.18199
 C2115 C 0.36176 0.56156 1.06150
 H2116 H 0.37880 0.55549 1.05549
 C2117 C 0.31823 0.57789 1.07769
 C2118 C 0.63787 0.43884 1.06195
 H2119 H 0.62080 0.44484 1.05593
 C2120 C 0.68145 0.42269 1.07814
 C2121 C 0.56119 0.36246 1.06182
 H2122 H 0.55525 0.37954 1.05586
 C2123 C 0.57720 0.31882 1.07786
 C2124 C 0.43853 0.63790 1.06127
 H2125 H 0.44444 0.62077 1.05540
 C2126 C 0.42261 0.68166 1.07709
 C2127 C 0.43828 0.43903 1.13845
 H2128 H 0.44430 0.44503 1.12136
 C2129 C 0.42207 0.42289 1.18209
 C2130 C 0.56112 0.56153 1.13843
 H2131 H 0.55523 0.55555 1.12129
 C2132 C 0.57700 0.57762 1.18220
 C2133 C 0.43835 0.36247 1.06172
 H2134 H 0.44431 0.37955 1.05576
 C2135 C 0.42229 0.31886 1.07778
 C2136 C 0.56134 0.63785 1.06145
 H2137 H 0.55534 0.62078 1.05549
 C2138 C 0.57752 0.68143 1.07747
 C2139 C 0.36174 0.43911 1.06166
 H2140 H 0.37885 0.44505 1.05570
 C2141 C 0.31805 0.42311 1.07771
 C2142 C 0.63785 0.56122 1.06173
 H2143 H 0.62077 0.55525 1.05574
 C2144 C 0.68146 0.57731 1.07788
 C2145 C 1.10298 1.10352 1.24429
 C2146 C 1.11552 1.08915 1.25979
 C2147 C 1.12493 1.09846 1.28056
 C2148 C 1.12199 1.12250 1.28635
 C2149 C 1.10905 1.13665 1.27042
 C2150 C 1.09972 1.12724 1.24968
 C2151 C 1.09379 1.09409 1.22262
 C2152 C 1.08625 1.08645 1.20430
 H2153 H 1.11800 1.07068 1.25585
 H2154 H 1.13376 1.08640 1.29233
 H2155 H 1.10690 1.15533 1.27316
 H2156 H 1.09022 1.13860 1.23766
 C2157 C 1.10247 0.60338 0.74410
 C2158 C 1.10985 0.58838 0.76220
 C2159 C 1.11912 0.59770 0.78303
 C2160 C 1.12111 0.62217 0.78602
 C2161 C 1.11350 0.63709 0.76777
 C2162 C 1.10426 0.62774 0.74696
 C2163 C 1.09341 0.59385 0.72243
 C2164 C 1.08597 0.58615 0.70410
 H2165 H 1.10851 0.56949 0.76017
 H2166 H 1.12457 0.58578 0.79687
 H2167 H 1.11512 0.65598 0.76940
 H2168 H 1.09869 0.63950 0.73302
 C2169 C 0.60314 1.10400 0.74383
 C2170 C 0.61070 1.08898 0.76184
 C2171 C 0.62008 1.09828 0.78264
 C2172 C 0.62201 1.12275 0.78568
 C2173 C 0.61428 1.13769 0.76748
 C2174 C 0.60493 1.12836 0.74671
 C2175 C 0.59388 1.09450 0.72223
 C2176 C 0.58627 1.08681 0.70395
 H2177 H 0.60937 1.07009 0.75979
 H2178 H 0.62562 1.08635 0.79643
 H2179 H 0.61585 1.15658 0.76914
 H2180 H 0.59924 1.14014 0.73284
 C2181 C 0.60196 0.60336 1.24455
 C2182 C 0.61437 0.58893 1.26010
 C2183 C 0.62371 0.59818 1.28091
 C2184 C 0.62086 0.62224 1.28670
 C2185 C 0.60798 0.63644 1.27077
 C2186 C 0.59872 0.62707 1.24997
 C2187 C 0.59297 0.59399 1.22278
 C2188 C 0.58560 0.58638 1.20438
 H2189 H 0.61682 0.57045 1.25615
 H2190 H 0.63245 0.58608 1.29271
 H2191 H 0.60586 0.65512 1.27353
 H2192 H 0.58930 0.63847 1.23792
 C2193 C 0.89712 0.89671 1.24409
 C2194 C 0.90047 0.87300 1.24942
 C2195 C 0.89128 0.86354 1.27020
 C2196 C 0.87838 0.87763 1.28622
 C2197 C 0.87536 0.90168 1.28050
 C2198 C 0.88464 0.91104 1.25969
 C2199 C 0.90616 0.90619 1.22238
 C2200 C 0.91362 0.91385 1.20403
 H2201 H 0.90994 0.86168 1.23733
 H2202 H 0.89349 0.84486 1.27290
 H2203 H 0.86657 0.91370 1.29234
 H2204 H 0.88210 0.92951 1.25580
 C2205 C 0.89680 0.39664 0.74400
 C2206 C 0.88432 0.41095 0.75961
 C2207 C 0.87505 0.40157 0.78042
 C2208 C 0.87808 0.37752 0.78613
 C2209 C 0.89098 0.36344 0.77009
 C2210 C 0.90016 0.37293 0.74931
 C2211 C 0.90584 0.40614 0.72230
 C2212 C 0.91330 0.41381 0.70395
 H2213 H 0.88177 0.42942 0.75574
 H2214 H 0.86626 0.41359 0.79227
 H2215 H 0.89320 0.34477 0.77278
 H2216 H 0.90963 0.36162 0.73721
 C2217 C 0.39668 0.89670 0.74380
 C2218 C 0.38930 0.91167 0.76193
 C2219 C 0.38009 0.90230 0.78278
 C2220 C 0.37816 0.87782 0.78574
 C2221 C 0.38571 0.86294 0.76742
 C2222 C 0.39490 0.87234 0.74660
 C2223 C 0.40580 0.90625 0.72216
 C2224 C 0.41332 0.91395 0.70385
 H2225 H 0.39063 0.93056 0.75995
 H2226 H 0.37467 0.91419 0.79667
 H2227 H 0.38414 0.84404 0.76902
 H2228 H 0.40047 0.86059 0.73263
 C2229 C 0.39671 0.39690 1.24420
 C2230 C 0.40000 0.37317 1.24948
 C2231 C 0.39080 0.36368 1.27024
 C2232 C 0.37794 0.37777 1.28631
 C2233 C 0.37496 0.40183 1.28063
 C2234 C 0.38425 0.41121 1.25983
 C2235 C 0.40579 0.40641 1.22252
 C2236 C 0.41328 0.41408 1.20419
 H2237 H 0.40944 0.36186 1.23735
 H2238 H 0.39297 0.34499 1.27290
 H2239 H 0.36620 0.41385 1.29250
 H2240 H 0.38175 0.42970 1.25599
 C2241 C 0.89692 1.10362 0.75594
 C2242 C 0.88440 1.08927 0.74041
 C2243 C 0.87495 1.09862 0.71967
 C2244 C 0.87785 1.12268 0.71394
 C2245 C 0.89077 1.13681 0.72990
 C2246 C 0.90013 1.12735 0.75061
 C2247 C 0.90615 1.09414 0.77757
 C2248 C 0.91374 1.08646 0.79586
 H2249 H 0.88196 1.07079 0.74429
 H2250 H 0.86615 1.08657 0.70787
 H2251 H 0.89289 1.15549 0.72721
 H2252 H 0.90962 1.13870 0.76266
 C2253 C 0.89735 0.60352 0.25602
 C2254 C 0.88982 0.58852 0.23798
 C2255 C 0.88052 0.59784 0.21716
 C2256 C 0.87865 0.62232 0.21413
 C2257 C 0.88637 0.63724 0.23235
 C2258 C 0.89565 0.62788 0.25313
 C2259 C 0.90651 0.59400 0.27765
 C2260 C 0.91403 0.58630 0.29595
 H2261 H 0.89109 0.56963 0.24002
 H2262 H 0.87497 0.58593 0.20335
 H2263 H 0.88485 0.65613 0.23069
 H2264 H 0.90133 0.63964 0.26703
 C2265 C 0.39737 1.10337 0.25577
 C2266 C 0.38486 1.08903 0.24021
 C2267 C 0.37548 1.09838 0.21945
 C2268 C 0.37842 1.12243 0.21372
 C2269 C 0.39135 1.13655 0.22969
 C2270 C 0.40064 1.12709 0.25042
 C2271 C 0.40649 1.09390 0.27744
 C2272 C 0.41398 1.08624 0.29577
 H2273 H 0.38237 1.07055 0.24411
 H2274 H 0.36667 1.08635 0.20764
 H2275 H 0.39351 1.15523 0.22699
 H2276 H 0.41013 1.13842 0.26248
 C2277 C 0.39718 0.60347 0.75610
 C2278 C 0.38972 0.58849 0.73801
 C2279 C 0.38047 0.59784 0.71718
 C2280 C 0.37856 0.62232 0.71419
 C2281 C 0.38621 0.63722 0.73246
 C2282 C 0.39544 0.62783 0.75325
 C2283 C 0.40628 0.59392 0.77774
 C2284 C 0.41377 0.58621 0.79605
 H2285 H 0.39101 0.56960 0.74002
 H2286 H 0.37497 0.58594 0.70334
 H2287 H 0.38466 0.65611 0.73083
 H2288 H 0.40107 0.63958 0.76719
 C2289 C 1.10334 0.89623 0.75600
 C2290 C 1.10517 0.87188 0.75315
 C2291 C 1.11440 0.86252 0.73233
 C2292 C 1.12195 0.87744 0.71404
 C2293 C 1.11996 0.90192 0.71704
 C2294 C 1.11071 0.91124 0.73789
 C2295 C 1.09421 0.90575 0.77765
 C2296 C 1.08669 0.91344 0.79597
 H2297 H 1.09962 0.86011 0.76709
 H2298 H 1.11602 0.84363 0.73069
 H2299 H 1.12537 0.91383 0.70318
 H2300 H 1.10934 0.93012 0.73991
 C2301 C 1.10301 0.39632 0.25597
 C2302 C 1.11037 0.41135 0.23789
 C2303 C 1.11961 0.40206 0.21702
 C2304 C 1.12160 0.37759 0.21398
 C2305 C 1.11405 0.36265 0.23224
 C2306 C 1.10483 0.37197 0.25308
 C2307 C 1.09390 0.40580 0.27765
 C2308 C 1.08641 0.41346 0.29599
 H2309 H 1.10901 0.43023 0.23994
 H2310 H 1.12502 0.41400 0.20318
 H2311 H 1.11566 0.34376 0.23058
 H2312 H 1.09928 0.36018 0.26701
 C2313 C 0.60236 0.89657 0.25562
 C2314 C 0.61474 0.91099 0.24004
 C2315 C 0.62405 0.90172 0.21920
 C2316 C 0.62118 0.87767 0.21343
 C2317 C 0.60832 0.86348 0.22939
 C2318 C 0.59910 0.87286 0.25021
 C2319 C 0.59338 0.90595 0.27739
 C2320 C 0.58601 0.91356 0.29580
 H2321 H 0.61720 0.92946 0.24398
 H2322 H 0.63277 0.91382 0.20739
 H2323 H 0.60620 0.84481 0.22663
 H2324 H 0.58970 0.86147 0.26228
 C2325 C 0.60261 0.39625 0.75612
 C2326 C 0.60997 0.41129 0.73805
 C2327 C 0.61922 0.40202 0.71718
 C2328 C 0.62122 0.37755 0.71412
 C2329 C 0.61365 0.36259 0.73236
 C2330 C 0.60442 0.37189 0.75320
 C2331 C 0.59355 0.40572 0.77782
 C2332 C 0.58611 0.41339 0.79617
 H2333 H 0.60862 0.43017 0.74012
 H2334 H 0.62465 0.41397 0.70336
 H2335 H 0.61527 0.34370 0.73068
 H2336 H 0.59887 0.36009 0.76712
 C2337 C 1.24341 1.10334 1.10353
 C2338 C 1.24617 1.12770 1.10538
 C2339 C 1.26694 1.13710 1.11459
 C2340 C 1.28527 1.12223 1.12208
 C2341 C 1.28234 1.09775 1.12011
 C2342 C 1.26153 1.08838 1.11088
 C2343 C 1.22182 1.09379 1.09436
 C2344 C 1.20356 1.08610 1.08680
 H2345 H 1.23221 1.13944 1.09985
 H2346 H 1.26852 1.15600 1.11620
 H2347 H 1.29623 1.08587 1.12549
 H2348 H 1.25958 1.06949 1.10950
 C2349 C 1.24351 0.60307 0.60325
 C2350 C 1.24629 0.62743 0.60498
 C2351 C 1.26707 0.63686 0.61413
 C2352 C 1.28538 0.62202 0.62171
 C2353 C 1.28244 0.59753 0.61985
 C2354 C 1.26162 0.58813 0.61067
 C2355 C 1.22191 0.59350 0.59414
 C2356 C 1.20363 0.58580 0.58662
 H2357 H 1.23234 0.63915 0.59938
 H2358 H 1.26866 0.65577 0.61566
 H2359 H 1.29631 0.58566 0.62530
 H2360 H 1.25965 0.56923 0.60939
 C2361 C 0.74348 1.10334 0.60353
 C2362 C 0.74874 1.12707 0.60027
 C2363 C 0.76945 1.13657 0.60949
 C2364 C 0.78551 1.12247 0.62233
 C2365 C 0.77984 1.09842 0.62532
 C2366 C 0.75908 1.08903 0.61601
 C2367 C 0.72187 1.09383 0.59437
 C2368 C 0.70358 1.08617 0.58681
 H2369 H 0.73663 1.13839 0.59082
 H2370 H 0.77209 1.15526 0.60734
 H2371 H 0.79170 1.08640 0.63409
 H2372 H 0.75525 1.07054 0.61850
 C2373 C 0.74344 0.60329 1.10328
 C2374 C 0.74630 0.62765 1.10498
 C2375 C 0.76710 0.63703 1.11413
 C2376 C 0.78537 0.62214 1.12172
 C2377 C 0.78236 0.59765 1.11989
 C2378 C 0.76151 0.58831 1.11071
 C2379 C 0.72182 0.59377 1.09417
 C2380 C 0.70352 0.58611 1.08666
 H2381 H 0.73238 0.63941 1.09938
 H2382 H 0.76875 0.65593 1.11564
 H2383 H 0.79620 0.58576 1.12534
 H2384 H 0.75949 0.56941 1.10945
 C2385 C 1.24405 0.89688 0.89735
 C2386 C 1.25959 0.91122 0.88484
 C2387 C 1.28038 0.90188 0.87553
 C2388 C 1.28614 0.87785 0.87856
 C2389 C 1.27016 0.86373 0.89146
 C2390 C 1.24940 0.87317 0.90068
 C2391 C 1.22237 0.90632 0.90643
 C2392 C 1.20402 0.91392 0.91389
 H2393 H 1.25568 0.92969 0.88230
 H2394 H 1.29219 0.91392 0.86672
 H2395 H 1.27287 0.84506 0.89365
 H2396 H 1.23735 0.86184 0.91015
 C2397 C 1.24390 0.39655 0.39718
 C2398 C 1.24925 0.37282 0.40040
 C2399 C 1.27000 0.36342 0.39114
 C2400 C 1.28599 0.37759 0.37831
 C2401 C 1.28023 0.40164 0.37538
 C2402 C 1.25944 0.41094 0.38472
 C2403 C 1.22222 0.40595 0.40630
 C2404 C 1.20388 0.41355 0.41381
 H2405 H 1.23718 0.36145 0.40982
 H2406 H 1.27271 0.34473 0.39326
 H2407 H 1.29204 0.41371 0.36663
 H2408 H 1.25553 0.42942 0.38227
 C2409 C 0.74368 0.89649 0.39688
 C2410 C 0.74651 0.87213 0.39504
 C2411 C 0.76729 0.86278 0.38578
 C2412 C 0.78555 0.87769 0.37823
 C2413 C 0.78256 0.90217 0.38020
 C2414 C 0.76174 0.91149 0.38948
 C2415 C 0.72207 0.90599 0.40607
 C2416 C 0.70379 0.91365 0.41363
 H2417 H 0.73259 0.86037 0.40061
 H2418 H 0.76892 0.84389 0.38417
 H2419 H 0.79640 0.91408 0.37477
 H2420 H 0.75973 0.93038 0.39085
 C2421 C 0.74352 0.39638 0.89697
 C2422 C 0.74634 0.37202 0.89512
 C2423 C 0.76709 0.36266 0.88583
 C2424 C 0.78535 0.37756 0.87824
 C2425 C 0.78237 0.40204 0.88022
 C2426 C 0.76157 0.41137 0.88954
 C2427 C 0.72193 0.40589 0.90620
 C2428 C 0.70366 0.41357 0.91379
 H2429 H 0.73242 0.36026 0.90072
 H2430 H 0.76871 0.34377 0.88421
 H2431 H 0.79620 0.41394 0.87477
 H2432 H 0.75957 0.43026 0.89091
 C2433 C 0.75637 0.89729 1.10338
 C2434 C 0.73846 0.88975 1.08824
 C2435 C 0.71763 0.88044 1.09747
 C2436 C 0.71446 0.87857 1.12200
 C2437 C 0.73254 0.88630 1.13707
 C2438 C 0.75334 0.89559 1.12780
 C2439 C 0.77802 0.90645 1.09396
 C2440 C 0.79633 0.91397 1.08633
 H2441 H 0.74062 0.89101 1.06930
 H2442 H 0.70392 0.87488 1.08544
 H2443 H 0.73078 0.88478 1.15601
 H2444 H 0.76714 0.90128 1.13968
 C2445 C 0.75584 0.39753 0.60308
 C2446 C 0.75037 0.40073 0.62686
 C2447 C 0.72960 0.39143 0.63619
 C2448 C 0.71374 0.37856 0.62189
 C2449 C 0.71961 0.37571 0.59779
 C2450 C 0.74040 0.38509 0.58857
 C2451 C 0.77755 0.40664 0.59375
 C2452 C 0.79591 0.41411 0.58617
 H2453 H 0.76234 0.41016 0.63833
 H2454 H 0.72679 0.39352 0.65492
 H2455 H 0.70789 0.36696 0.58562
 H2456 H 0.74440 0.38267 0.57005
 C2457 C 0.25612 0.89706 0.60270
 C2458 C 0.25085 0.87334 0.59927
 C2459 C 0.23011 0.86381 0.60841
 C2460 C 0.21406 0.87784 0.62134
 C2461 C 0.21973 0.90188 0.62445
 C2462 C 0.24050 0.91131 0.61522
 C2463 C 0.27779 0.90659 0.59369
 C2464 C 0.29612 0.91426 0.58625
 H2465 H 0.26297 0.86207 0.58978
 H2466 H 0.22746 0.84513 0.60614
 H2467 H 0.20786 0.91386 0.63327
 H2468 H 0.24434 0.92978 0.61783
 C2469 C 0.25589 0.39721 1.10279
 C2470 C 0.25060 0.37351 1.09934
 C2471 C 0.22984 0.36399 1.10845
 C2472 C 0.21378 0.37804 1.12136
 C2473 C 0.21947 0.40207 1.12449
 C2474 C 0.24027 0.41148 1.11530
 C2475 C 0.27758 0.40672 1.09382
 C2476 C 0.29593 0.41437 1.08642
 H2477 H 0.26272 0.36223 1.08986
 H2478 H 0.22717 0.34532 1.10617
 H2479 H 0.20761 0.41405 1.13330
 H2480 H 0.24413 0.42995 1.11792
 C2481 C 0.75657 1.10333 0.89671
 C2482 C 0.75124 1.12703 0.90014
 C2483 C 0.73048 1.13652 0.89098
 C2484 C 0.71448 1.12246 0.87804
 C2485 C 0.72023 1.09844 0.87489
 C2486 C 0.74102 1.08905 0.88414
 C2487 C 0.77823 1.09383 0.90578
 C2488 C 0.79655 1.08618 0.91328
 H2489 H 0.76330 1.13832 0.90966
 H2490 H 0.72778 1.15519 0.89327
 H2491 H 0.70842 1.08645 0.86604
 H2492 H 0.74492 1.07059 0.88152
 C2493 C 0.75633 0.60262 0.39637
 C2494 C 0.73844 0.61015 0.41156
 C2495 C 0.71757 0.61944 0.40238
 C2496 C 0.71435 0.62130 0.37786
 C2497 C 0.73241 0.61356 0.36275
 C2498 C 0.75325 0.60430 0.37196
 C2499 C 0.77802 0.59352 0.40575
 C2500 C 0.79636 0.58604 0.41335
 H2501 H 0.74064 0.60891 0.43049
 H2502 H 0.70389 0.62500 0.41445
 H2503 H 0.73060 0.61507 0.34381
 H2504 H 0.76703 0.59862 0.36005
 C2505 C 0.25648 1.10330 0.39661
 C2506 C 0.24090 1.08896 0.38413
 C2507 C 0.22010 1.09831 0.37488
 C2508 C 0.21435 1.12234 0.37792
 C2509 C 0.23039 1.13647 0.39075
 C2510 C 0.25115 1.12702 0.39992
 C2511 C 0.27814 1.09385 0.40570
 C2512 C 0.29647 1.08623 0.41321
 H2513 H 0.24479 1.07049 0.38161
 H2514 H 0.20827 1.08627 0.36611
 H2515 H 0.22769 1.15515 0.39294
 H2516 H 0.26324 1.13836 0.40936
 C2517 C 0.25599 0.60244 0.89671
 C2518 C 0.25046 0.59918 0.87297
 C2519 C 0.22967 0.60847 0.86367
 C2520 C 0.21384 0.62138 0.87798
 C2521 C 0.21976 0.62429 0.90206
 C2522 C 0.24058 0.61492 0.91124
 C2523 C 0.27773 0.59336 0.90601
 C2524 C 0.29610 0.58591 0.91357
 H2525 H 0.26241 0.58972 0.86149
 H2526 H 0.22681 0.60633 0.84496
 H2527 H 0.20807 0.63307 0.91424
 H2528 H 0.24462 0.61739 0.92975
 C2529 C 1.10332 1.24340 1.10237
 C2530 C 1.12771 1.24634 1.10401
 C2531 C 1.13705 1.26716 1.11313
 C2532 C 1.12208 1.28534 1.12077
 C2533 C 1.09757 1.28226 1.11895
 C2534 C 1.08827 1.26141 1.10980
 C2535 C 1.09383 1.22173 1.09341
 C2536 C 1.08617 1.20339 1.08604
 H2537 H 1.13951 1.23246 1.09840
 H2538 H 1.15597 1.26885 1.11463
 H2539 H 1.08562 1.29604 1.12444
 H2540 H 1.06935 1.25932 1.10858
 C2541 C 1.10355 0.74319 0.60249
 C2542 C 1.08852 0.76122 0.60995
 C2543 C 1.09785 0.78205 0.61910
 C2544 C 1.12237 0.78510 0.62090
 C2545 C 1.13731 0.76691 0.61324
 C2546 C 1.12794 0.74611 0.60410
 C2547 C 1.09403 0.72154 0.59351
 C2548 C 1.08635 0.70323 0.58610
 H2549 H 1.06961 0.75914 0.60874
 H2550 H 1.08592 0.79584 0.62461
 H2551 H 1.15623 0.76859 0.61471
 H2552 H 1.13973 0.73223 0.59847
 C2553 C 0.60360 1.24357 0.60222
 C2554 C 0.58853 1.26156 0.60964
 C2555 C 0.59781 1.28241 0.61882
 C2556 C 0.62231 1.28550 0.62069
 C2557 C 0.63730 1.26736 0.61303
 C2558 C 0.62799 1.24654 0.60387
 C2559 C 0.59412 1.22189 0.59325
 C2560 C 0.58644 1.20355 0.58589
 H2561 H 0.56962 1.25946 0.60840
 H2562 H 0.58583 1.29617 0.62432
 H2563 H 0.65622 1.26907 0.61455
 H2564 H 0.63982 1.23268 0.59826
 C2565 C 0.60353 0.74347 1.10256
 C2566 C 0.62792 0.74637 1.10436
 C2567 C 0.63724 0.76718 1.11353
 C2568 C 0.62227 0.78540 1.12106
 C2569 C 0.59776 0.78237 1.11906
 C2570 C 0.58847 0.76153 1.10987
 C2571 C 0.59404 0.72182 1.09356
 C2572 C 0.58635 0.70350 1.08615
 H2573 H 0.63973 0.73247 1.09884
 H2574 H 0.65616 0.76884 1.11514
 H2575 H 0.58580 0.79618 1.12446
 H2576 H 0.56957 0.75948 1.10853
 C2577 C 0.89686 1.24317 0.89683
 C2578 C 0.91187 1.26121 0.88941
 C2579 C 0.90252 1.28200 0.88016
 C2580 C 0.87801 1.28499 0.87823
 C2581 C 0.86309 1.26676 0.88582
 C2582 C 0.87246 1.24601 0.89504
 C2583 C 0.90638 1.22158 0.90597
 C2584 C 0.91405 1.20331 0.91349
 H2585 H 0.93079 1.25919 0.89073
 H2586 H 0.91444 1.29581 0.87471
 H2587 H 0.84417 1.26839 0.88424
 H2588 H 0.86069 1.23211 0.90064
 C2589 C 0.89701 0.74327 0.39690
 C2590 C 0.91204 0.76131 0.38952
 C2591 C 0.90272 0.78211 0.38028
 C2592 C 0.87821 0.78512 0.37833
 C2593 C 0.86326 0.76689 0.38588
 C2594 C 0.87262 0.74612 0.39509
 C2595 C 0.90651 0.72167 0.40602
 C2596 C 0.91415 0.70338 0.41353
 H2597 H 0.93095 0.75928 0.39086
 H2598 H 0.91465 0.79593 0.37486
 H2599 H 0.84434 0.76853 0.38429
 H2600 H 0.86083 0.73222 0.40065
 C2601 C 0.39686 1.24336 0.39680
 C2602 C 0.41186 1.26142 0.38938
 C2603 C 0.40249 1.28222 0.38019
 C2604 C 0.37797 1.28521 0.37832
 C2605 C 0.36306 1.26697 0.38591
 C2606 C 0.37247 1.24620 0.39508
 C2607 C 0.40641 1.22177 0.40589
 C2608 C 0.41408 1.20348 0.41338
 H2609 H 0.43078 1.25940 0.39067
 H2610 H 0.41439 1.29604 0.37473
 H2611 H 0.34414 1.26859 0.38438
 H2612 H 0.36070 1.23229 0.40067
 C2613 C 0.39676 0.74339 0.89713
 C2614 C 0.37237 0.74631 0.89547
 C2615 C 0.36302 0.76710 0.88631
 C2616 C 0.37797 0.78528 0.87867
 C2617 C 0.40248 0.78222 0.88048
 C2618 C 0.41180 0.76139 0.88967
 C2619 C 0.40626 0.72176 0.90619
 C2620 C 0.41390 0.70345 0.91365
 H2621 H 0.36058 0.73244 0.90110
 H2622 H 0.34410 0.76879 0.88481
 H2623 H 0.41442 0.79599 0.87499
 H2624 H 0.43072 0.75931 0.89091
 C2625 C 1.10375 0.75645 0.89769
 C2626 C 1.08865 0.73844 0.89035
 C2627 C 1.09791 0.71758 0.88116
 C2628 C 1.12241 0.71447 0.87922
 C2629 C 1.13742 0.73263 0.88680
 C2630 C 1.12813 0.75346 0.89596
 C2631 C 1.09429 0.77814 0.90666
 C2632 C 1.08662 0.79648 0.91403
 H2633 H 1.06975 0.74056 0.89164
 H2634 H 1.08591 0.70382 0.87573
 H2635 H 1.15633 0.73090 0.88522
 H2636 H 1.13997 0.76733 0.90150
 C2637 C 1.10349 0.25654 0.39731
 C2638 C 1.08848 0.23848 0.38994
 C2639 C 1.09784 0.21769 0.38069
 C2640 C 1.12235 0.21472 0.37872
 C2641 C 1.13727 0.23295 0.38629
 C2642 C 1.12789 0.25371 0.39551
 C2643 C 1.09395 0.27815 0.40640
 C2644 C 1.08627 0.29644 0.41386
 H2645 H 1.06957 0.24049 0.39128
 H2646 H 1.08592 0.20386 0.37526
 H2647 H 1.15619 0.23134 0.38468
 H2648 H 1.13966 0.26763 0.40107
 C2649 C 0.60354 0.75648 0.39759
 C2650 C 0.58845 0.73844 0.39034
 C2651 C 0.59770 0.71759 0.38112
 C2652 C 0.62220 0.71453 0.37904
 C2653 C 0.63721 0.73273 0.38652
 C2654 C 0.62792 0.75355 0.39571
 C2655 C 0.59409 0.77815 0.40661
 C2656 C 0.58642 0.79648 0.41402
 H2657 H 0.56955 0.74051 0.39174
 H2658 H 0.58571 0.70379 0.37577
 H2659 H 0.65612 0.73105 0.38484
 H2660 H 0.63976 0.76745 0.40119
 C2661 C 0.60359 0.25669 0.89766
 C2662 C 0.62799 0.25384 0.89592
 C2663 C 0.63738 0.23310 0.88668
 C2664 C 0.62247 0.21489 0.87902
 C2665 C 0.59795 0.21787 0.88095
 C2666 C 0.58859 0.23865 0.89022
 C2667 C 0.59404 0.27829 0.90675
 C2668 C 0.58633 0.29657 0.91421
 H2669 H 0.63975 0.26774 0.90154
 H2670 H 0.65630 0.23147 0.88511
 H2671 H 0.58604 0.20407 0.87545
 H2672 H 0.56967 0.24067 0.89151
 C2673 C 0.89683 0.75657 1.10252
 C2674 C 0.87245 0.75370 1.10431
 C2675 C 0.86311 0.73291 1.11349
 C2676 C 0.87807 0.71468 1.12102
 C2677 C 0.90258 0.71769 1.11904
 C2678 C 0.91188 0.73852 1.10984
 C2679 C 0.90633 0.77821 1.09349
 C2680 C 0.91397 0.79653 1.08608
 H2681 H 0.86065 0.76761 1.09879
 H2682 H 0.84419 0.73127 1.11510
 H2683 H 0.91452 0.70388 1.12445
 H2684 H 0.93079 0.74056 1.10850
 C2685 C 0.89609 0.25682 0.60301
 C2686 C 0.91113 0.23879 0.61043
 C2687 C 0.90180 0.21802 0.61973
 C2688 C 0.87729 0.21503 0.62170
 C2689 C 0.86235 0.23323 0.61410
 C2690 C 0.87171 0.25398 0.60483
 C2691 C 0.90561 0.27840 0.59386
 C2692 C 0.91329 0.29667 0.58634
 H2693 H 0.93004 0.24081 0.60908
 H2694 H 0.91374 0.20422 0.62519
 H2695 H 0.84343 0.23161 0.61571
 H2696 H 0.85991 0.26787 0.59924
 C2697 C 0.39651 0.75672 0.60262
 C2698 C 0.37213 0.75379 0.60442
 C2699 C 0.36283 0.73300 0.61363
 C2700 C 0.37783 0.71481 0.62118
 C2701 C 0.40233 0.71787 0.61921
 C2702 C 0.41160 0.73871 0.60998
 C2703 C 0.40596 0.77836 0.59355
 C2704 C 0.41358 0.79667 0.58610
 H2705 H 0.36030 0.76767 0.59888
 H2706 H 0.34392 0.73131 0.61523
 H2707 H 0.41431 0.70409 0.62463
 H2708 H 0.43050 0.74079 0.60864
 C2709 C 0.39643 0.25686 1.10309
 C2710 C 0.37205 0.25399 1.10496
 C2711 C 0.36275 0.23319 1.11416
 C2712 C 0.37773 0.21497 1.12164
 C2713 C 0.40223 0.21800 1.11962
 C2714 C 0.41151 0.23882 1.11039
 C2715 C 0.40589 0.27849 1.09399
 C2716 C 0.41352 0.29680 1.08651
 H2717 H 0.36023 0.26789 1.09945
 H2718 H 0.34383 0.23154 1.11581
 H2719 H 0.41420 0.20418 1.12499
 H2720 H 0.43041 0.24087 1.10899
 C2721 C 1.10326 1.10221 0.75546
 C2722 C 1.08876 1.11464 0.74000
 C2723 C 1.09796 1.12402 0.71916
 C2724 C 1.12202 1.12117 0.71328
 C2725 C 1.13630 1.10829 0.72914
 C2726 C 1.12699 1.09899 0.74995
 C2727 C 1.09396 1.09314 0.77722
 C2728 C 1.08641 1.08572 0.79563
 H2729 H 1.07028 1.11708 0.74402
 H2730 H 1.08580 1.13278 0.70743
 H2731 H 1.15499 1.10618 0.72631
 H2732 H 1.13845 1.08956 0.76194
 C2733 C 1.10257 0.60292 0.25570
 C2734 C 1.09915 0.62664 0.25045
 C2735 C 1.10831 0.63619 0.22970
 C2736 C 1.12124 0.62218 0.21364
 C2737 C 1.12428 0.59811 0.21926
 C2738 C 1.11504 0.58866 0.24004
 C2739 C 1.09364 0.59338 0.27742
 C2740 C 1.08629 0.58571 0.29580
 H2741 H 1.08969 0.63790 0.26260
 H2742 H 1.10607 0.65488 0.22707
 H2743 H 1.13308 0.58614 0.20736
 H2744 H 1.11762 0.57018 0.24386
 C2745 C 0.60336 1.10328 0.25601
 C2746 C 0.60509 1.12766 0.25328
 C2747 C 0.61432 1.13712 0.23252
 C2748 C 0.62196 1.12230 0.21418
 C2749 C 0.62010 1.09781 0.21707
 C2750 C 0.61085 1.08837 0.23787
 C2751 C 0.59417 1.09368 0.27758
 C2752 C 0.58659 1.08597 0.29586
 H2753 H 0.59945 1.13935 0.26725
 H2754 H 0.61585 1.15603 0.23097
 H2755 H 0.62560 1.08597 0.20317
 H2756 H 0.60956 1.06947 0.23981
 C2757 C 0.60254 0.60292 0.75598
 C2758 C 0.60427 0.62729 0.75321
 C2759 C 0.61347 0.63673 0.73243
 C2760 C 0.62108 0.62188 0.71411
 C2761 C 0.61918 0.59739 0.71701
 C2762 C 0.60995 0.58799 0.73783
 C2763 C 0.59349 0.59334 0.77762
 C2764 C 0.58604 0.58566 0.79595
 H2765 H 0.59868 0.63900 0.76720
 H2766 H 0.61503 0.65563 0.73087
 H2767 H 0.62465 0.58554 0.70312
 H2768 H 0.60866 0.56909 0.73979
 C2769 C 0.89741 0.89638 0.75599
 C2770 C 0.89569 0.87203 0.75308
 C2771 C 0.88640 0.86269 0.73229
 C2772 C 0.87868 0.87762 0.71409
 C2773 C 0.88055 0.90210 0.71715
 C2774 C 0.88987 0.91140 0.73798
 C2775 C 0.90657 0.90588 0.77763
 C2776 C 0.91410 0.91356 0.79594
 H2777 H 0.90138 0.86024 0.76696
 H2778 H 0.88488 0.84379 0.73061
 H2779 H 0.87500 0.91403 0.70336
 H2780 H 0.89114 0.93029 0.74005
 C2781 C 0.89729 0.39623 0.25595
 C2782 C 0.89567 0.37186 0.25305
 C2783 C 0.88643 0.36247 0.23226
 C2784 C 0.87866 0.37736 0.21405
 C2785 C 0.88045 0.40185 0.21709
 C2786 C 0.88972 0.41120 0.23791
 C2787 C 0.90640 0.40578 0.27759
 C2788 C 0.91389 0.41350 0.29589
 H2789 H 0.90139 0.36011 0.26695
 H2790 H 0.88497 0.34357 0.23060
 H2791 H 0.87486 0.41375 0.20328
 H2792 H 0.89092 0.43010 0.23996
 C2793 C 0.39744 0.89635 0.25590
 C2794 C 0.39582 0.87199 0.25294
 C2795 C 0.38661 0.86266 0.23211
 C2796 C 0.37887 0.87760 0.21393
 C2797 C 0.38067 0.90207 0.21702
 C2798 C 0.38990 0.91137 0.23789
 C2799 C 0.40651 0.90584 0.27758
 C2800 C 0.41397 0.91352 0.29592
 H2801 H 0.40152 0.86020 0.26681
 H2802 H 0.38515 0.84376 0.23040
 H2803 H 0.37510 0.91401 0.20324
 H2804 H 0.39110 0.93026 0.23999
 C2805 C 0.39763 0.39637 0.75589
 C2806 C 0.40099 0.37266 0.75047
 C2807 C 0.39177 0.36324 0.72969
 C2808 C 0.37880 0.37737 0.71376
 C2809 C 0.37584 0.40141 0.71953
 C2810 C 0.38515 0.41072 0.74034
 C2811 C 0.40662 0.40580 0.77763
 C2812 C 0.41398 0.41347 0.79602
 H2813 H 0.41048 0.36132 0.76252
 H2814 H 0.39397 0.34457 0.72692
 H2815 H 0.36704 0.41347 0.70773
 H2816 H 0.38261 0.42919 0.74427
 C2817 C 1.10224 0.89653 1.24458
 C2818 C 1.11468 0.91085 1.26019
 C2819 C 1.12400 0.90148 1.28096
 C2820 C 1.12110 0.87741 1.28664
 C2821 C 1.10817 0.86332 1.27065
 C2822 C 1.09892 0.87280 1.24990
 C2823 C 1.09326 0.90602 1.22286
 C2824 C 1.08590 0.91371 1.20449
 H2825 H 1.11718 0.92934 1.25633
 H2826 H 1.13277 0.91351 1.29281
 H2827 H 1.10600 0.84464 1.27334
 H2828 H 1.08947 0.86148 1.23781
 C2829 C 1.10219 0.39623 0.74416
 C2830 C 1.10386 0.37186 0.74702
 C2831 C 1.11309 0.36247 0.76781
 C2832 C 1.12080 0.37735 0.78605
 C2833 C 1.11891 0.40184 0.78307
 C2834 C 1.10966 0.41120 0.76225
 C2835 C 1.09317 0.40580 0.72250
 C2836 C 1.08576 0.41353 0.70416
 H2837 H 1.09821 0.36012 0.73308
 H2838 H 1.11462 0.34357 0.76943
 H2839 H 1.12445 0.41373 0.79690
 H2840 H 1.10842 0.43009 0.76023
 C2841 C 0.60315 0.89657 0.74375
 C2842 C 0.62755 0.89477 0.74653
 C2843 C 0.63695 0.88539 0.76724
 C2844 C 0.62206 0.87767 0.78548
 C2845 C 0.59754 0.87955 0.78253
 C2846 C 0.58816 0.88896 0.76178
 C2847 C 0.59361 0.90595 0.72222
 C2848 C 0.58594 0.91365 0.70399
 H2849 H 0.63930 0.90050 0.73263
 H2850 H 0.65588 0.88384 0.76884
 H2851 H 0.58565 0.87398 0.79636
 H2852 H 0.56924 0.89029 0.75980
 C2853 C 0.60196 0.39693 1.24465
 C2854 C 0.59873 0.37319 1.24996
 C2855 C 0.60799 0.36374 1.27071
 C2856 C 0.62086 0.37787 1.28671
 C2857 C 0.62368 0.40195 1.28105
 C2858 C 0.61434 0.41130 1.26027
 C2859 C 0.59298 0.40638 1.22292
 C2860 C 0.58561 0.41404 1.20454
 H2861 H 0.58933 0.36184 1.23785
 H2862 H 0.60589 0.34505 1.27339
 H2863 H 0.63240 0.41401 1.29291
 H2864 H 0.61677 0.42979 1.25641
 C2865 C 0.89728 1.10330 1.24432
 C2866 C 0.90058 1.12701 1.24970
 C2867 C 0.89137 1.13643 1.27050
 C2868 C 0.87849 1.12228 1.28649
 C2869 C 0.87554 1.09824 1.28072
 C2870 C 0.88483 1.08893 1.25989
 C2871 C 0.90632 1.09388 1.22258
 C2872 C 0.91375 1.08626 1.20420
 H2873 H 0.91001 1.13837 1.23763
 H2874 H 0.89353 1.15510 1.27324
 H2875 H 0.86678 1.08618 1.29254
 H2876 H 0.88233 1.07046 1.25596
 C2877 C 0.89700 0.60357 0.74384
 C2878 C 0.88955 0.58857 0.76191
 C2879 C 0.88032 0.59790 0.78277
 C2880 C 0.87844 0.62238 0.78581
 C2881 C 0.88609 0.63729 0.76757
 C2882 C 0.89529 0.62793 0.74674
 C2883 C 0.90609 0.59405 0.72218
 C2884 C 0.91357 0.58636 0.70385
 H2885 H 0.89082 0.56968 0.75986
 H2886 H 0.87483 0.58598 0.79660
 H2887 H 0.88456 0.65619 0.76923
 H2888 H 0.90092 0.63970 0.73282
 C2889 C 0.39710 1.10398 0.74388
 C2890 C 0.39546 1.12834 0.74681
 C2891 C 0.38627 1.13769 0.76766
 C2892 C 0.37858 1.12277 0.78587
 C2893 C 0.38040 1.09829 0.78280
 C2894 C 0.38961 1.08897 0.76192
 C2895 C 0.40616 1.09446 0.72219
 C2896 C 0.41362 1.08676 0.70385
 H2897 H 0.40111 1.14011 0.73291
 H2898 H 0.38479 1.15659 0.76935
 H2899 H 0.37488 1.08637 0.79660
 H2900 H 0.39083 1.07008 0.75984
 C2901 C 0.39717 0.60381 1.24424
 C2902 C 0.38469 0.58945 1.25979
 C2903 C 0.37540 0.59875 1.28062
 C2904 C 0.37840 0.62278 1.28642
 C2905 C 0.39132 0.63692 1.27046
 C2906 C 0.40052 0.62751 1.24965
 C2907 C 0.40620 0.59438 1.22250
 C2908 C 0.41362 0.58673 1.20412
 H2909 H 0.38215 0.57098 1.25584
 H2910 H 0.36662 0.58669 1.29242
 H2911 H 0.39352 0.65558 1.27322
 H2912 H 0.40999 0.63885 1.23759
 C2913 C 1.10351 1.24342 0.89760
 C2914 C 1.12726 1.24882 0.90079
 C2915 C 1.13659 1.26962 0.89162
 C2916 C 1.12232 1.28559 0.87887
 C2917 C 1.09823 1.27982 0.87607
 C2918 C 1.08901 1.25899 0.88533
 C2919 C 1.09416 1.22167 0.90655
 C2920 C 1.08655 1.20330 0.91389
 H2921 H 1.13872 1.23675 0.91011
 H2922 H 1.15530 1.27238 0.89369
 H2923 H 1.08607 1.29163 0.86745
 H2924 H 1.07050 1.25507 0.88292
 C2925 C 1.10382 0.74328 0.39719
 C2926 C 1.08932 0.75886 0.38492
 C2927 C 1.09854 0.77967 0.37563
 C2928 C 1.12264 0.78542 0.37840
 C2929 C 1.13692 0.76944 0.39111
 C2930 C 1.12759 0.74865 0.40032
 C2931 C 1.09445 0.72157 0.40623
 C2932 C 1.08682 0.70324 0.41365
 H2933 H 1.07080 0.75496 0.38256
 H2934 H 1.08638 0.79149 0.36702
 H2935 H 1.15564 0.77217 0.39314
 H2936 H 1.13904 0.73658 0.40963
 C2937 C 0.60378 1.24321 0.39713
 C2938 C 0.58867 1.26126 0.38993
 C2939 C 0.59790 1.28213 0.38075
 C2940 C 0.62239 1.28519 0.37866
 C2941 C 0.63742 1.26698 0.38607
 C2942 C 0.62816 1.24614 0.39524
 C2943 C 0.59434 1.22153 0.40616
 C2944 C 0.58669 1.20321 0.41358
 H2945 H 0.56977 1.25919 0.39135
 H2946 H 0.58590 1.29593 0.37544
 H2947 H 0.65633 1.26867 0.38438
 H2948 H 0.64001 1.23224 0.40067
 C2949 C 0.60383 0.74305 0.89690
 C2950 C 0.58880 0.76107 0.88949
 C2951 C 0.59811 0.78189 0.88027
 C2952 C 0.62262 0.78493 0.87837
 C2953 C 0.63758 0.76673 0.88597
 C2954 C 0.62822 0.74594 0.89516
 C2955 C 0.59432 0.72143 0.90600
 C2956 C 0.58661 0.70316 0.91349
 H2957 H 0.56988 0.75903 0.89078
 H2958 H 0.58617 0.79568 0.87482
 H2959 H 0.65650 0.76839 0.88442
 H2960 H 0.64002 0.73206 0.90076
 C2961 C 0.89693 1.24360 1.10232
 C2962 C 0.91135 1.25917 1.11470
 C2963 C 0.90205 1.27996 1.12398
 C2964 C 0.87797 1.28570 1.12108
 C2965 C 0.86377 1.26972 1.10827
 C2966 C 0.87317 1.24896 1.09907
 C2967 C 0.90633 1.22189 1.09333
 C2968 C 0.91394 1.20353 1.08595
 H2969 H 0.92986 1.25526 1.11716
 H2970 H 0.91415 1.29177 1.13269
 H2971 H 0.84506 1.27244 1.10615
 H2972 H 0.86178 1.23690 1.08968
 C2973 C 0.89684 0.74345 0.60234
 C2974 C 0.91189 0.76150 0.60967
 C2975 C 0.90258 0.78233 0.61888
 C2976 C 0.87807 0.78535 0.62087
 C2977 C 0.86311 0.76713 0.61333
 C2978 C 0.87245 0.74634 0.60414
 C2979 C 0.90632 0.72181 0.59331
 C2980 C 0.91397 0.70348 0.58588
 H2981 H 0.93080 0.75945 0.60833
 H2982 H 0.91453 0.79613 0.62429
 H2983 H 0.84419 0.76879 0.61495
 H2984 H 0.86065 0.73244 0.59862
 C2985 C 0.39654 1.24370 0.60262
 C2986 C 0.37277 1.24906 0.59948
 C2987 C 0.36339 1.26979 0.60878
 C2988 C 0.37763 1.28574 0.62159
 C2989 C 0.40173 1.27999 0.62437
 C2990 C 0.41100 1.25923 0.61499
 C2991 C 0.40594 1.22203 0.59351
 C2992 C 0.41358 1.20371 0.58603
 H2993 H 0.36134 1.23702 0.59010
 H2994 H 0.34468 1.27252 0.60674
 H2995 H 0.41387 1.29178 0.63306
 H2996 H 0.42952 1.25533 0.61737
 C2997 C 0.39705 0.74395 1.10204
 C2998 C 0.41151 0.75947 1.11443
 C2999 C 0.40226 0.78028 1.12372
 C3000 C 0.37819 0.78607 1.12082
 C3001 C 0.36395 0.77013 1.10801
 C3002 C 0.37331 0.74936 1.09880
 C3003 C 0.40639 0.72221 1.09306
 C3004 C 0.41393 0.70383 1.08569
 H3005 H 0.43001 0.75552 1.11689
 H3006 H 0.41439 0.79206 1.13244
 H3007 H 0.34525 0.77289 1.10590
 H3008 H 0.36188 0.73732 1.08942
 C3009 C 0.89691 0.75659 0.89748
 C3010 C 0.87252 0.75371 0.89577
 C3011 C 0.86315 0.73293 0.88661
 C3012 C 0.87809 0.71471 0.87900
 C3013 C 0.90261 0.71773 0.88088
 C3014 C 0.91194 0.73855 0.89007
 C3015 C 0.90642 0.77823 0.90650
 C3016 C 0.91409 0.79654 0.91392
 H3017 H 0.86073 0.76761 0.90136
 H3018 H 0.84423 0.73128 0.88507
 H3019 H 0.91454 0.70393 0.87542
 H3020 H 0.93085 0.74060 0.89134
 C3021 C 0.89674 0.25657 0.39728
 C3022 C 0.87236 0.25368 0.39548
 C3023 C 0.86305 0.23288 0.38629
 C3024 C 0.87803 0.21467 0.37875
 C3025 C 0.90253 0.21771 0.38070
 C3026 C 0.91181 0.23855 0.38992
 C3027 C 0.90621 0.27821 0.40635
 C3028 C 0.91383 0.29652 0.41381
 H3029 H 0.86054 0.26757 0.40103
 H3030 H 0.84413 0.23121 0.38469
 H3031 H 0.91450 0.20392 0.37528
 H3032 H 0.93072 0.24061 0.39125
 C3033 C 0.39676 0.75644 0.39743
 C3034 C 0.41120 0.74093 0.38499
 C3035 C 0.40192 0.72015 0.37567
 C3036 C 0.37785 0.71437 0.37861
 C3037 C 0.36364 0.73031 0.39148
 C3038 C 0.37302 0.75106 0.40071
 C3039 C 0.40615 0.77813 0.40649
 C3040 C 0.41373 0.79647 0.41393
 H3041 H 0.42969 0.74486 0.38250
 H3042 H 0.41403 0.70837 0.36691
 H3043 H 0.34494 0.72757 0.39362
 H3044 H 0.36162 0.76309 0.41014
 C3045 C 0.39684 0.25638 0.89784
 C3046 C 0.41128 0.24090 0.88537
 C3047 C 0.40202 0.22012 0.87604
 C3048 C 0.37796 0.21431 0.87900
 C3049 C 0.36374 0.23021 0.89189
 C3050 C 0.37311 0.25096 0.90114
 C3051 C 0.40619 0.27808 0.90689
 C3052 C 0.41376 0.29644 0.91431
 H3053 H 0.42977 0.24486 0.88286
 H3054 H 0.41413 0.20836 0.86725
 H3055 H 0.34505 0.22745 0.89405
 H3056 H 0.36170 0.26297 0.91059
 C3057 C 1.10309 0.75667 1.10350
 C3058 C 1.09962 0.75114 1.12721
 C3059 C 1.10884 0.73038 1.13658
 C3060 C 1.12189 0.71457 1.12239
 C3061 C 1.12509 0.72052 1.09836
 C3062 C 1.11578 0.74132 1.08909
 C3063 C 1.09397 0.77834 1.09412
 C3064 C 1.08645 0.79665 1.08654
 H3065 H 1.09001 0.76305 1.13860
 H3066 H 1.10651 0.72752 1.15527
 H3067 H 1.13403 0.70887 1.08627
 H3068 H 1.11844 0.74537 1.07062
 C3069 C 1.10226 0.25642 0.60345
 C3070 C 1.10971 0.23851 0.58827
 C3071 C 1.11895 0.21765 0.59747
 C3072 C 1.12086 0.21446 0.62200
 C3073 C 1.11319 0.23254 0.63709
 C3074 C 1.10397 0.25337 0.62786
 C3075 C 1.09322 0.27811 0.59405
 C3076 C 1.08580 0.29645 0.58644
 H3077 H 1.10844 0.24069 0.56934
 H3078 H 1.12446 0.20396 0.58541
 H3079 H 1.11473 0.23076 0.65603
 H3080 H 1.09834 0.26717 0.63977
 C3081 C 0.60307 0.75691 0.60337
 C3082 C 0.60476 0.75388 0.62778
 C3083 C 0.61407 0.73310 0.63702
 C3084 C 0.62182 0.71504 0.62195
 C3085 C 0.62003 0.71824 0.59742
 C3086 C 0.61070 0.73906 0.58820
 C3087 C 0.59380 0.77850 0.59399
 C3088 C 0.58619 0.79678 0.58641
 H3089 H 0.59902 0.76763 0.63967
 H3090 H 0.61553 0.73131 0.65597
 H3091 H 0.62562 0.70456 0.58538
 H3092 H 0.60946 0.74123 0.56927
 C3093 C 0.60264 0.25670 1.10334
 C3094 C 0.59943 0.25118 1.12710
 C3095 C 0.60876 0.23043 1.13638
 C3096 C 0.62164 0.21461 1.12204
 C3097 C 0.62455 0.22054 1.09797
 C3098 C 0.61514 0.24132 1.08880
 C3099 C 0.59345 0.27838 1.09407
 C3100 C 0.58593 0.29671 1.08656
 H3101 H 0.58997 0.26311 1.13860
 H3102 H 0.60666 0.22759 1.15510
 H3103 H 0.63335 0.20887 1.08578
 H3104 H 0.61759 0.24537 1.07029
 C3105 C 1.24371 1.10336 0.89703
 C3106 C 1.24652 1.12774 0.89541
 C3107 C 1.26729 1.13718 0.88623
 C3108 C 1.28556 1.12234 0.87854
 C3109 C 1.28260 1.09785 0.88030
 C3110 C 1.26179 1.08843 0.88950
 C3111 C 1.22212 1.09377 0.90614
 C3112 C 1.20384 1.08605 0.91365
 H3113 H 1.23259 1.13945 0.90109
 H3114 H 1.26889 1.15609 0.88479
 H3115 H 1.29645 1.08599 0.87476
 H3116 H 1.25980 1.06954 0.89070
 C3117 C 1.24372 0.60330 0.39685
 C3118 C 1.24647 0.62768 0.39514
 C3119 C 1.26723 0.63714 0.38595
 C3120 C 1.28555 0.62232 0.37834
 C3121 C 1.28264 0.59783 0.38019
 C3122 C 1.26185 0.58839 0.38940
 C3123 C 1.22214 0.59369 0.40598
 C3124 C 1.20388 0.58596 0.41350
 H3125 H 1.23250 0.63937 0.40076
 H3126 H 1.26879 0.65605 0.38444
 H3127 H 1.29653 0.58598 0.37472
 H3128 H 1.25991 0.56949 0.39067
 C3129 C 0.74369 1.10302 0.39687
 C3130 C 0.74647 1.12738 0.39509
 C3131 C 0.76726 1.13679 0.38592
 C3132 C 0.78557 1.12193 0.37838
 C3133 C 0.78263 1.09744 0.38029
 C3134 C 0.76181 1.08806 0.38949
 C3135 C 0.72209 1.09347 0.40600
 C3136 C 0.70380 1.08579 0.41352
 H3137 H 0.73251 1.13912 0.40066
 H3138 H 0.76884 1.15569 0.38435
 H3139 H 0.79651 1.08556 0.37487
 H3140 H 0.75984 1.06917 0.39081
 C3141 C 0.74357 0.60316 0.89702
 C3142 C 0.74640 0.62752 0.89536
 C3143 C 0.76719 0.63694 0.88620
 C3144 C 0.78546 0.62208 0.87854
 C3145 C 0.78248 0.59759 0.88034
 C3146 C 0.76165 0.58820 0.88953
 C3147 C 0.72197 0.59360 0.90612
 C3148 C 0.70368 0.58591 0.91363
 H3149 H 0.73247 0.63925 0.90101
 H3150 H 0.76880 0.65584 0.88472
 H3151 H 0.79632 0.58571 0.87484
 H3152 H 0.75965 0.56931 0.89076
 C3153 C 1.24367 0.89678 1.10320
 C3154 C 1.24655 0.87241 1.10483
 C3155 C 1.26737 0.86302 1.11393
 C3156 C 1.28562 0.87790 1.12155
 C3157 C 1.28259 0.90239 1.11979
 C3158 C 1.26173 0.91175 1.11066
 C3159 C 1.22203 0.90631 1.09414
 C3160 C 1.20371 0.91398 1.08667
 H3161 H 1.23263 0.86067 1.09920
 H3162 H 1.26903 0.84412 1.11538
 H3163 H 1.29642 0.91428 1.12527
 H3164 H 1.25968 0.93065 1.10945
 C3165 C 1.24351 0.39678 0.60389
 C3166 C 1.26144 0.38923 0.58875
 C3167 C 1.28227 0.37991 0.59799
 C3168 C 1.28541 0.37803 0.62252
 C3169 C 1.26731 0.38577 0.63758
 C3170 C 1.24652 0.39507 0.62830
 C3171 C 1.22188 0.40596 0.59445
 C3172 C 1.20358 0.41350 0.58680
 H3173 H 1.25930 0.39050 0.56981
 H3174 H 1.29598 0.37435 0.58596
 H3175 H 1.26906 0.38425 0.65652
 H3176 H 1.23271 0.40076 0.64018
 C3177 C 0.74343 0.89681 0.60332
 C3178 C 0.76150 0.91178 0.61077
 C3179 C 0.78234 0.90242 0.61992
 C3180 C 0.78536 0.87793 0.62172
 C3181 C 0.76709 0.86306 0.61413
 C3182 C 0.74629 0.87245 0.60500
 C3183 C 0.72181 0.90635 0.59422
 C3184 C 0.70351 0.91401 0.58670
 H3185 H 0.75947 0.93068 0.60952
 H3186 H 0.79619 0.91431 0.62539
 H3187 H 0.76874 0.84415 0.61561
 H3188 H 0.73236 0.86070 0.59938
 C3189 C 0.74343 0.39655 1.10342
 C3190 C 0.74626 0.37217 1.10503
 C3191 C 0.76707 0.36273 1.11411
 C3192 C 0.78537 0.37757 1.12172
 C3193 C 0.78238 0.40206 1.11996
 C3194 C 0.76154 0.41148 1.11085
 C3195 C 0.72180 0.40614 1.09438
 C3196 C 0.70350 0.41386 1.08692
 H3197 H 0.73231 0.36046 1.09941
 H3198 H 0.76869 0.34382 1.11556
 H3199 H 0.79625 0.41392 1.12543
 H3200 H 0.75953 0.43037 1.10965
 C3201 C 0.75638 1.10389 1.10257
 C3202 C 0.73828 1.08894 1.10998
 C3203 C 0.71744 1.09831 1.11913
 C3204 C 0.71444 1.12280 1.12100
 C3205 C 0.73270 1.13767 1.11337
 C3206 C 0.75352 1.12826 1.10423
 C3207 C 0.77805 1.09430 1.09360
 C3208 C 0.79636 1.08654 1.08620
 H3209 H 0.74030 1.07004 1.10874
 H3210 H 0.70360 1.08643 1.12460
 H3211 H 0.73107 1.15657 1.11488
 H3212 H 0.76746 1.13999 1.09863
 C3213 C 0.75639 0.60341 0.60324
 C3214 C 0.73849 0.61106 0.58812
 C3215 C 0.71767 0.62039 0.59739
 C3216 C 0.71449 0.62215 0.62193
 C3217 C 0.73258 0.61436 0.63696
 C3218 C 0.75337 0.60507 0.62766
 C3219 C 0.77799 0.59415 0.59380
 C3220 C 0.79627 0.58654 0.58618
 H3221 H 0.74065 0.60984 0.56918
 H3222 H 0.70397 0.62600 0.58538
 H3223 H 0.73081 0.61581 0.65591
 H3224 H 0.76715 0.59930 0.63953
 C3225 C 0.25611 1.10364 0.60216
 C3226 C 0.23802 1.08860 0.60942
 C3227 C 0.21715 1.09787 0.61861
 C3228 C 0.21411 1.12234 0.62065
 C3229 C 0.23235 1.13730 0.61315
 C3230 C 0.25319 1.12800 0.60398
 C3231 C 0.27781 1.09416 0.59319
 C3232 C 0.29617 1.08649 0.58582
 H3233 H 0.24008 1.06972 0.60806
 H3234 H 0.20332 1.08592 0.62398
 H3235 H 0.23068 1.15619 0.61480
 H3236 H 0.26712 1.13979 0.59849
 C3237 C 0.25637 0.60377 1.10359
 C3238 C 0.25336 0.60543 1.12801
 C3239 C 0.23258 0.61476 1.13731
 C3240 C 0.21450 0.62256 1.12228
 C3241 C 0.21768 0.62079 1.09773
 C3242 C 0.23849 0.61144 1.08847
 C3243 C 0.27795 0.59446 1.09415
 C3244 C 0.29621 0.58681 1.08651
 H3245 H 0.26713 0.59965 1.13987
 H3246 H 0.23082 0.61621 1.15626
 H3247 H 0.20398 0.62641 1.08573
 H3248 H 0.24064 0.61022 1.06953
 C3249 C 0.75679 0.89693 0.89657
 C3250 C 0.73888 0.88936 0.91172
 C3251 C 0.71810 0.87994 0.90248
 C3252 C 0.71498 0.87800 0.87795
 C3253 C 0.73309 0.88571 0.86289
 C3254 C 0.75383 0.89510 0.87216
 C3255 C 0.77837 0.90624 0.90597
 C3256 C 0.79665 0.91386 0.91356
 H3257 H 0.74100 0.89070 0.93065
 H3258 H 0.70438 0.87439 0.91450
 H3259 H 0.73137 0.88413 0.84395
 H3260 H 0.76764 0.90080 0.86028
 C3261 C 0.75634 0.39730 0.39631
 C3262 C 0.73850 0.38965 0.41149
 C3263 C 0.71766 0.38031 0.40230
 C3264 C 0.71442 0.37853 0.37777
 C3265 C 0.73244 0.38637 0.36267
 C3266 C 0.75324 0.39568 0.37190
 C3267 C 0.77800 0.40647 0.40570
 C3268 C 0.79631 0.41398 0.41331
 H3269 H 0.74072 0.39084 0.43042
 H3270 H 0.70401 0.37467 0.41436
 H3271 H 0.73061 0.38491 0.34373
 H3272 H 0.76699 0.40145 0.35999
 C3273 C 0.25651 0.89688 0.39619
 C3274 C 0.23868 0.88917 0.41136
 C3275 C 0.21789 0.87973 0.40216
 C3276 C 0.21468 0.87790 0.37763
 C3277 C 0.23269 0.88578 0.36254
 C3278 C 0.25345 0.89518 0.37178
 C3279 C 0.27810 0.90619 0.40558
 C3280 C 0.29637 0.91381 0.41321
 H3281 H 0.24087 0.89041 0.43029
 H3282 H 0.20425 0.87407 0.41421
 H3283 H 0.23090 0.88429 0.34360
 H3284 H 0.26718 0.90099 0.35987
 C3285 C 0.25635 0.39684 0.89645
 C3286 C 0.23845 0.38929 0.91162
 C3287 C 0.21764 0.37990 0.90241
 C3288 C 0.21449 0.37796 0.87788
 C3289 C 0.23257 0.38569 0.86280
 C3290 C 0.25334 0.39506 0.87204
 C3291 C 0.27796 0.40611 0.90586
 C3292 C 0.29623 0.41370 0.91349
 H3293 H 0.24059 0.39061 0.93055
 H3294 H 0.20394 0.37435 0.91445
 H3295 H 0.23081 0.38412 0.84386
 H3296 H 0.26713 0.40075 0.86015
   
