data_POSCAR
  _audit_creation_date              2014-09-24
  _audit_creation_method            'ToBaCCo'
  _symmetry_space_group_name_H-M    'P1'
  _symmetry_Int_Tables_number       1
  _symmetry_cell_setting            triclinic
  loop_
  _symmetry_equiv_pos_as_xyz
 x,y,z
_cell_length_a 76.7461
_cell_length_b 76.9515
_cell_length_c 76.9563
_cell_angle_alpha 89.978100
_cell_angle_beta 90.014700
_cell_angle_gamma 89.972300
loop_
  _atom_site_label
  _atom_site_type_symbol
  _atom_site_fract_x
  _atom_site_fract_y
  _atom_site_fract_z
C1 C 0.29839 0.43711 0.92526
 C2 C 0.29847 0.42432 0.93823
 C3 C 0.31164 0.42400 0.95047
 C4 C 0.32495 0.43650 0.94989
 C5 C 0.32486 0.44909 0.93716
 C6 C 0.31148 0.44943 0.92472
 C7 C 0.28790 0.43980 0.91102
 N8 N 0.29430 0.45345 0.90178
 C9 C 0.30872 0.45943 0.91014
 C10 C 0.33977 0.45879 0.93920
 N11 N 0.34913 0.45244 0.95293
 C12 C 0.33990 0.43872 0.95946
 C13 C 0.30905 0.40952 0.96066
 N14 N 0.29465 0.40100 0.95486
 C15 C 0.28810 0.41004 0.94115
 H16 H 0.27659 0.43216 0.90754
 H17 H 0.31707 0.46980 0.90557
 H18 H 0.34349 0.46935 0.93075
 H19 H 0.34360 0.43058 0.97029
 H20 H 0.31751 0.40512 0.97102
 H21 H 0.27678 0.40639 0.93361
 C22 C 0.43949 0.82546 0.44985
 C23 C 0.42647 0.81269 0.44971
 C24 C 0.42614 0.80032 0.43669
 C25 C 0.43886 0.80059 0.42359
 C26 C 0.45167 0.81322 0.42374
 C27 C 0.45196 0.82575 0.43698
 C28 C 0.44225 0.83974 0.46021
 N29 N 0.45613 0.84895 0.45399
 C30 C 0.46210 0.84022 0.43971
 C31 C 0.46153 0.81102 0.40898
 N32 N 0.45504 0.79735 0.39984
 C33 C 0.44117 0.79090 0.40874
 C34 C 0.41147 0.79034 0.43923
 N35 N 0.40286 0.79638 0.45346
 C36 C 0.41203 0.81004 0.45994
 H37 H 0.43405 0.84328 0.47105
 H38 H 0.47283 0.84400 0.43147
 H39 H 0.47252 0.81894 0.40514
 H40 H 0.43292 0.78034 0.40443
 H41 H 0.40704 0.77993 0.43089
 H42 H 0.40837 0.81770 0.47115
 C43 C 0.93662 0.92287 0.80190
 C44 C 0.92371 0.93577 0.80178
 C45 C 0.92361 0.94847 0.81447
 C46 C 0.93642 0.94841 0.82749
 C47 C 0.94907 0.93570 0.82760
 C48 C 0.94917 0.92282 0.81470
 C49 C 0.93929 0.90838 0.79181
 N50 N 0.95321 0.89928 0.79814
 C51 C 0.95927 0.90827 0.81221
 C52 C 0.95908 0.93826 0.84218
 N53 N 0.95289 0.95230 0.85115
 C54 C 0.93895 0.95852 0.84199
 C55 C 0.90908 0.95860 0.81174
 N56 N 0.90033 0.95234 0.79771
 C57 C 0.90925 0.93837 0.79154
 H58 H 0.93105 0.90467 0.78106
 H59 H 0.97011 0.90467 0.82041
 H60 H 0.96995 0.93013 0.84582
 H61 H 0.93066 0.96926 0.84564
 H62 H 0.90485 0.96932 0.81981
 H63 H 0.90544 0.93050 0.78053
 C64 C 0.43745 -0.07657 0.30076
 C65 C 0.42452 -0.06367 0.30104
 C66 C 0.42497 -0.05081 0.31357
 C67 C 0.43837 -0.05062 0.32595
 C68 C 0.45109 -0.06334 0.32566
 C69 C 0.45059 -0.07640 0.31296
 C70 C 0.43968 -0.09123 0.29080
 N71 N 0.45391 -0.10021 0.29662
 C72 C 0.46060 -0.09097 0.31024
 C73 C 0.46168 -0.06065 0.33982
 N74 N 0.45570 -0.04662 0.34876
 C75 C 0.44144 -0.04040 0.34030
 C76 C 0.41031 -0.04074 0.31140
 N77 N 0.40094 -0.04717 0.29785
 C78 C 0.40959 -0.06120 0.29144
 H79 H 0.43099 -0.09510 0.28047
 H80 H 0.47178 -0.09442 0.31803
 H81 H 0.47276 -0.06855 0.34347
 H82 H 0.43340 -0.02970 0.34465
 H83 H 0.40669 -0.02965 0.31925
 H84 H 0.40506 -0.06944 0.28098
 C85 C 0.79841 0.31234 0.32521
 C86 C 0.79860 0.32535 0.31246
 C87 C 0.81161 0.32559 0.30005
 C88 C 0.82464 0.31279 0.30023
 C89 C 0.82446 0.29998 0.31284
 C90 C 0.81123 0.29974 0.32541
 C91 C 0.78812 0.30973 0.33961
 N92 N 0.79440 0.29586 0.34860
 C93 C 0.80853 0.28965 0.33993
 C94 C 0.83920 0.29007 0.31058
 N95 N 0.84837 0.29653 0.29691
 C96 C 0.83950 0.31044 0.29050
 C97 C 0.80918 0.34030 0.29015
 N98 N 0.79505 0.34903 0.29630
 C99 C 0.78850 0.33989 0.30994
 H100 H 0.77708 0.31761 0.34339
 H101 H 0.81678 0.27909 0.34428
 H102 H 0.84302 0.27907 0.31847
 H103 H 0.84385 0.31868 0.27997
 H104 H 0.81757 0.34469 0.27973
 H105 H 0.77735 0.34365 0.31769
 C106 C -0.18573 0.82733 0.80187
 C107 C -0.17296 0.81428 0.80198
 C108 C -0.17319 0.80163 0.81474
 C109 C -0.18621 0.80183 0.82753
 C110 C -0.19873 0.81466 0.82739
 C111 C -0.19852 0.82749 0.81444
 C112 C -0.18816 0.84181 0.79168
 N113 N -0.20219 0.85096 0.79769
 C114 C -0.20853 0.84204 0.81169
 C115 C -0.20900 0.81223 0.84183
 N116 N -0.20306 0.79817 0.85094
 C117 C -0.18905 0.79179 0.84203
 C118 C -0.15876 0.79131 0.81229
 N119 N -0.14972 0.79738 0.79835
 C120 C -0.15838 0.81143 0.79196
 H121 H -0.17999 0.84523 0.78078
 H122 H -0.21927 0.84590 0.81989
 H123 H -0.21987 0.82045 0.84526
 H124 H -0.18088 0.78103 0.84587
 H125 H -0.15505 0.78030 0.82022
 H126 H -0.15406 0.81943 0.78123
 C127 C 0.95021 0.32636 0.43666
 C128 C 0.94997 0.31339 0.42385
 C129 C 0.93747 0.30046 0.42440
 C130 C 0.92509 0.30029 0.43780
 C131 C 0.92537 0.31307 0.45041
 C132 C 0.93804 0.32617 0.44983
 C133 C 0.96007 0.34113 0.43874
 N134 N 0.95424 0.35012 0.45292
 C135 C 0.94070 0.34080 0.45971
 C136 C 0.91118 0.31040 0.46100
 N137 N 0.90224 0.29633 0.45512
 C138 C 0.91073 0.29005 0.44093
 C139 C 0.93963 0.29036 0.40982
 N140 N 0.95315 0.29682 0.40039
 C141 C 0.95954 0.31091 0.40894
 H142 H 0.97058 0.34488 0.43020
 H143 H 0.93269 0.34446 0.47065
 H144 H 0.90751 0.31836 0.47200
 H145 H 0.90637 0.27931 0.43297
 H146 H 0.93179 0.27923 0.40628
 H147 H 0.96996 0.31919 0.40433
 C148 C 0.44992 0.43716 0.82523
 C149 C 0.44964 0.42438 0.81224
 C150 C 0.43700 0.42486 0.79944
 C151 C 0.42451 0.43816 0.79941
 C152 C 0.42483 0.45076 0.81220
 C153 C 0.43766 0.45025 0.82518
 C154 C 0.45988 0.43925 0.83993
 N155 N 0.45401 0.45335 0.84902
 C156 C 0.44035 0.46009 0.83983
 C157 C 0.41051 0.46122 0.80973
 N158 N 0.40145 0.45527 0.79576
 C159 C 0.40999 0.44118 0.78936
 C160 C 0.43914 0.41027 0.78933
 N161 N 0.45277 0.40092 0.79567
 C162 C 0.45927 0.40950 0.80969
 H163 H 0.47048 0.43077 0.84359
 H164 H 0.43226 0.47093 0.84361
 H165 H 0.40683 0.47217 0.81775
 H166 H 0.40556 0.43318 0.77867
 H167 H 0.43118 0.40667 0.77830
 H168 H 0.46978 0.40494 0.81789
 C169 C 0.80179 0.92264 0.93610
 C170 C 0.80175 0.93536 0.92304
 C171 C 0.81450 0.94804 0.92283
 C172 C 0.82749 0.94813 0.93566
 C173 C 0.82752 0.93561 0.94847
 C174 C 0.81457 0.92273 0.94867
 C175 C 0.79158 0.90826 0.93896
 N176 N 0.79779 0.89936 0.95303
 C177 C 0.81193 0.90837 0.95899
 C178 C 0.84206 0.93837 0.95854
 N179 N 0.85108 0.95232 0.95221
 C180 C 0.84200 0.95829 0.93813
 C181 C 0.81179 0.95803 0.90824
 N182 N 0.79772 0.95170 0.89955
 C183 C 0.79150 0.93783 0.90858
 H184 H 0.78080 0.90448 0.93076
 H185 H 0.82005 0.90492 0.96992
 H186 H 0.84580 0.93025 0.96936
 H187 H 0.84551 0.96911 0.92991
 H188 H 0.81990 0.96870 0.90395
 H189 H 0.78044 0.92996 0.90485
 C190 C 0.30018 0.82564 0.31244
 C191 C 0.29988 0.81238 0.32496
 C192 C 0.31249 0.79955 0.32475
 C193 C 0.32556 0.79979 0.31204
 C194 C 0.32584 0.81284 0.29970
 C195 C 0.31303 0.82586 0.29993
 C196 C 0.29027 0.84035 0.31016
 N197 N 0.29672 0.84972 0.29650
 C198 C 0.31072 0.84069 0.29024
 C199 C 0.34061 0.81048 0.28983
 N200 N 0.34934 0.79635 0.29592
 C201 C 0.34016 0.78973 0.30951
 C202 C 0.30980 0.78920 0.33906
 N203 N 0.29587 0.79541 0.34803
 C204 C 0.28970 0.80959 0.33943
 H205 H 0.27937 0.84384 0.31830
 H206 H 0.31917 0.84457 0.27972
 H207 H 0.34504 0.81892 0.27948
 H208 H 0.34391 0.77857 0.31720
 H209 H 0.31766 0.77812 0.34279
 H210 H 0.27910 0.81778 0.34378
 C211 C 0.80107 0.42355 0.43646
 C212 C 0.80107 0.43597 0.42311
 C213 C 0.81393 0.44853 0.42254
 C214 C 0.82702 0.44881 0.43527
 C215 C 0.82701 0.43662 0.44839
 C216 C 0.81397 0.42388 0.44899
 C217 C 0.79086 0.40921 0.43968
 N218 N 0.79727 0.40078 0.45386
 C219 C 0.81140 0.40974 0.45963
 C220 C 0.84166 0.43941 0.45826
 N221 N 0.85083 0.45306 0.45151
 C222 C 0.84171 0.45882 0.43737
 C223 C 0.81121 0.45821 0.40774
 N224 N 0.79703 0.45183 0.39929
 C225 C 0.79076 0.43821 0.40865
 H226 H 0.78002 0.40485 0.43182
 H227 H 0.81942 0.40615 0.47063
 H228 H 0.84543 0.43143 0.46918
 H229 H 0.84531 0.46941 0.42889
 H230 H 0.81937 0.46873 0.40317
 H231 H 0.77958 0.43037 0.40517
 C232 C 0.93553 0.82760 -0.05220
 C233 C 0.92239 0.81494 -0.05216
 C234 C 0.92217 0.80220 -0.06482
 C235 C 0.93508 0.80199 -0.07775
 C236 C 0.94799 0.81442 -0.07777
 C237 C 0.94822 0.82736 -0.06493
 C238 C 0.93841 0.84209 -0.04212
 N239 N 0.95253 0.85068 -0.04844
 C240 C 0.95861 0.84170 -0.06240
 C241 C 0.95812 0.81159 -0.09221
 N242 N 0.95174 0.79767 -0.10120
 C243 C 0.93756 0.79178 -0.09220
 C244 C 0.90751 0.79228 -0.06211
 N245 N 0.89879 0.79871 -0.04812
 C246 C 0.90786 0.81258 -0.04197
 H247 H 0.93037 0.84639 -0.03140
 H248 H 0.96967 0.84538 -0.07030
 H249 H 0.96898 0.81970 -0.09595
 H250 H 0.92933 0.78096 -0.09571
 H251 H 0.90319 0.78157 -0.07014
 H252 H 0.90414 0.82050 -0.03096
 C253 C 0.29825 0.32482 0.81292
 C254 C 0.29844 0.31203 0.82590
 C255 C 0.31155 0.29971 0.82622
 C256 C 0.32468 0.30001 0.81353
 C257 C 0.32449 0.31264 0.80074
 C258 C 0.31117 0.32512 0.80042
 C259 C 0.28784 0.33912 0.81020
 N260 N 0.29412 0.34815 0.79636
 C261 C 0.30839 0.33960 0.79028
 C262 C 0.33929 0.31046 0.79091
 N263 N 0.34850 0.29681 0.79738
 C264 C 0.33960 0.29035 0.81123
 C265 C 0.30907 0.28972 0.84086
 N266 N 0.29481 0.29572 0.84947
 C267 C 0.28823 0.30936 0.84034
 H268 H 0.27668 0.34281 0.81797
 H269 H 0.31665 0.34399 0.77977
 H270 H 0.34311 0.31838 0.77992
 H271 H 0.34395 0.27980 0.81947
 H272 H 0.31750 0.27934 0.84527
 H273 H 0.27698 0.31700 0.84402
 C274 C 0.17610 0.56260 0.54882
 C275 C 0.18879 0.57567 0.54938
 C276 C 0.20099 0.57587 0.56259
 C277 C 0.20065 0.56296 0.57547
 C278 C 0.18809 0.55008 0.57493
 C279 C 0.17574 0.54988 0.56149
 C280 C 0.16187 0.56004 0.53828
 N281 N 0.15280 0.54608 0.54425
 C282 C 0.16128 0.53977 0.55844
 C283 C 0.19014 0.54005 0.58958
 N284 N 0.20364 0.54650 0.59904
 C285 C 0.21013 0.56052 0.59045
 C286 C 0.21084 0.59068 0.56051
 N287 N 0.20487 0.59949 0.54638
 C288 C 0.19139 0.59033 0.53950
 H289 H 0.15822 0.56801 0.52728
 H290 H 0.15681 0.52913 0.56649
 H291 H 0.18223 0.52897 0.59314
 H292 H 0.22056 0.56879 0.59507
 H293 H 0.22110 0.59506 0.56910
 H294 H 0.18381 0.59413 0.52827
 C295 C 0.57209 0.68871 0.04691
 C296 C 0.55896 0.67602 0.04696
 C297 C 0.54628 0.67626 0.05970
 C298 C 0.54651 0.68916 0.07256
 C299 C 0.55942 0.70167 0.07251
 C300 C 0.57230 0.70145 0.05958
 C301 C 0.58677 0.69093 0.03690
 N302 N 0.59592 0.70471 0.04317
 C303 C 0.58711 0.71121 0.05705
 C304 C 0.55718 0.71163 0.08720
 N305 N 0.54325 0.70542 0.09620
 C306 C 0.53665 0.69168 0.08726
 C307 C 0.53613 0.66171 0.05743
 N308 N 0.54234 0.65259 0.04362
 C309 C 0.55630 0.66132 0.03713
 H310 H 0.59060 0.68290 0.02601
 H311 H 0.59148 0.72180 0.06520
 H312 H 0.56560 0.72209 0.09142
 H313 H 0.52566 0.68384 0.09127
 H314 H 0.52522 0.65792 0.06549
 H315 H 0.56448 0.65690 0.02656
 C316 C 0.68785 0.20083 0.67561
 C317 C 0.67528 0.20106 0.68883
 C318 C 0.67571 0.18864 0.70180
 C319 C 0.68870 0.17584 0.70175
 C320 C 0.70111 0.17560 0.68873
 C321 C 0.70069 0.18821 0.67556
 C322 C 0.68992 0.21056 0.66075
 N323 N 0.70371 0.20418 0.65166
 C324 C 0.71036 0.19049 0.66068
 C325 C 0.71121 0.16102 0.69127
 N326 N 0.70519 0.15237 0.70547
 C327 C 0.69144 0.16143 0.71196
 C328 C 0.66126 0.19115 0.71205
 N329 N 0.65200 0.20479 0.70563
 C330 C 0.66055 0.21095 0.69143
 H331 H 0.68184 0.22139 0.65680
 H332 H 0.72104 0.18234 0.65643
 H333 H 0.72164 0.15664 0.68288
 H334 H 0.68372 0.15769 0.72312
 H335 H 0.65763 0.18337 0.72319
 H336 H 0.65600 0.22132 0.68308
 C337 C 1.07410 0.06208 0.20141
 C338 C 1.06093 0.07473 0.20117
 C339 C 1.04836 0.07439 0.18832
 C340 C 1.04874 0.06139 0.17555
 C341 C 1.06168 0.04897 0.17577
 C342 C 1.07445 0.04927 0.18882
 C343 C 1.08864 0.05989 0.21163
 N344 N 1.09786 0.04606 0.20557
 C345 C 1.08921 0.03949 0.19161
 C346 C 1.05948 0.03881 0.16123
 N347 N 1.04547 0.04471 0.15198
 C348 C 1.03888 0.05859 0.16091
 C349 C 1.03803 0.08883 0.19054
 N350 N 1.04403 0.09799 0.20442
 C351 C 1.05804 0.08938 0.21101
 H352 H 1.09232 0.06795 0.22255
 H353 H 1.09367 0.02883 0.18359
 H354 H 1.06785 0.02807 0.15780
 H355 H 1.02812 0.06674 0.15695
 H356 H 1.02711 0.09251 0.18243
 H357 H 1.06605 0.09382 0.22170
 C358 C 0.06119 0.17531 1.04980
 C359 C 0.07447 0.18783 1.05006
 C360 C 0.07440 0.20068 1.06261
 C361 C 0.06106 0.20122 1.07505
 C362 C 0.04803 0.18892 1.07481
 C363 C 0.04807 0.17586 1.06210
 C364 C 0.05858 0.16061 1.03994
 N365 N 0.04423 0.15219 1.04599
 C366 C 0.03773 0.16150 1.05954
 C367 C 0.03769 0.19181 1.08909
 N368 N 0.04407 0.20564 1.09825
 C369 C 0.05843 0.21142 1.08947
 C370 C 0.08936 0.21027 1.06048
 N371 N 0.09856 0.20358 1.04695
 C372 C 0.08949 0.18984 1.04049
 H373 H 0.06700 0.15601 1.02964
 H374 H 0.02645 0.15798 1.06720
 H375 H 0.02656 0.18393 1.09249
 H376 H 0.06700 0.22182 1.09340
 H377 H 0.09332 0.22121 1.06838
 H378 H 0.09380 0.18147 1.03004
 C379 C 0.17593 0.70094 0.68757
 C380 C 0.18868 0.70068 0.67452
 C381 C 0.20105 0.68761 0.67424
 C382 C 0.20083 0.67461 0.68703
 C383 C 0.18824 0.67487 0.69987
 C384 C 0.17572 0.68814 0.70016
 C385 C 0.16156 0.71128 0.69023
 N386 N 0.15257 0.70507 0.70413
 C387 C 0.16121 0.69092 0.71030
 C388 C 0.19043 0.66013 0.70975
 N389 N 0.20405 0.65089 0.70324
 C390 C 0.21049 0.65971 0.68933
 C391 C 0.21094 0.68996 0.65951
 N392 N 0.20484 0.70410 0.65081
 C393 C 0.19123 0.71073 0.65997
 H394 H 0.15779 0.72233 0.68238
 H395 H 0.15685 0.68271 0.72086
 H396 H 0.18252 0.65636 0.72076
 H397 H 0.22098 0.65529 0.68104
 H398 H 0.22132 0.68153 0.65509
 H399 H 0.18352 0.72190 0.65624
 C400 C 1.18864 0.17554 0.20193
 C401 C 1.17568 0.18838 0.20198
 C402 C 1.17528 0.20079 0.18901
 C403 C 1.18785 0.20052 0.17578
 C404 C 1.20061 0.18790 0.17573
 C405 C 1.20103 0.17528 0.18890
 C406 C 1.19136 0.16113 0.21213
 N407 N 1.20509 0.15205 0.20563
 C408 C 1.21111 0.16069 0.19142
 C409 C 1.21028 0.19018 0.16086
 N410 N 1.20375 0.20393 0.15166
 C411 C 1.18996 0.21025 0.16095
 C412 C 1.16059 0.21072 0.19161
 N413 N 1.15202 0.20460 0.20582
 C414 C 1.16124 0.19093 0.21224
 H415 H 1.18365 0.15740 0.22330
 H416 H 1.22153 0.15630 0.18303
 H417 H 1.22092 0.18184 0.15701
 H418 H 1.18167 0.22101 0.15737
 H419 H 1.15607 0.22111 0.18326
 H420 H 1.15758 0.18316 0.22338
 C421 C 0.67585 1.04970 0.56120
 C422 C 0.68871 1.04928 0.57414
 C423 C 0.70152 1.06190 0.57453
 C424 C 0.70160 1.07516 0.56201
 C425 C 0.68897 1.07556 0.54929
 C426 C 0.67597 1.06277 0.54888
 C427 C 0.66112 1.03991 0.55843
 N428 N 0.65224 1.04673 0.54474
 C429 C 0.66130 1.06072 0.53881
 C430 C 0.69157 1.09040 0.53970
 N431 N 0.70553 1.09926 0.54624
 C432 C 0.71168 1.08978 0.55997
 C433 C 0.71144 1.05898 0.58914
 N434 N 0.70495 1.04491 0.59766
 C435 C 0.69105 1.03890 0.58850
 H436 H 0.65680 1.02910 0.56633
 H437 H 0.65739 1.06902 0.52815
 H438 H 0.68323 1.09453 0.52917
 H439 H 0.72256 1.09311 0.56823
 H440 H 0.72210 1.06701 0.59363
 H441 H 0.68299 1.02795 0.59214
 C442 C 0.55924 0.54730 0.17584
 C443 C 0.57214 0.54748 0.18873
 C444 C 0.57226 0.56045 0.20114
 C445 C 0.55943 0.57345 0.20083
 C446 C 0.54671 0.57328 0.18810
 C447 C 0.54660 0.56010 0.17551
 C448 C 0.55684 0.53711 0.16136
 N449 N 0.54307 0.54341 0.15218
 C450 C 0.53671 0.55746 0.16082
 C451 C 0.53683 0.58805 0.19021
 N452 N 0.54321 0.59721 0.20391
 C453 C 0.55704 0.58832 0.21048
 C454 C 0.58698 0.55812 0.21110
 N455 N 0.59584 0.54407 0.20499
 C456 C 0.58677 0.53749 0.19132
 H457 H 0.56481 0.52612 0.15764
 H458 H 0.52621 0.56572 0.15633
 H459 H 0.52593 0.59192 0.18216
 H460 H 0.56526 0.59267 0.22105
 H461 H 0.59132 0.56654 0.22150
 H462 H 0.59065 0.52642 0.18355
 C463 C 0.67730 0.68923 0.20223
 C464 C 0.69040 0.67652 0.20221
 C465 C 0.70306 0.67665 0.18944
 C466 C 0.70281 0.68950 0.17652
 C467 C 0.68991 0.70205 0.17653
 C468 C 0.67706 0.70191 0.18949
 C469 C 0.66263 0.69147 0.21224
 N470 N 0.65344 0.70520 0.20591
 C471 C 0.66223 0.71167 0.19199
 C472 C 0.69214 0.71193 0.16178
 N473 N 0.70604 0.70566 0.15279
 C474 C 0.71264 0.69194 0.16178
 C475 C 0.71315 0.66205 0.19175
 N476 N 0.70692 0.65301 0.20561
 C477 C 0.69301 0.66184 0.21210
 H478 H 0.65882 0.68347 0.22317
 H479 H 0.65781 0.72221 0.18379
 H480 H 0.68373 0.72240 0.15754
 H481 H 0.72361 0.68406 0.15779
 H482 H 0.72399 0.65815 0.18366
 H483 H 0.68482 0.65749 0.22269
 C484 C 0.17660 0.06084 1.04944
 C485 C 0.18933 0.07392 1.04987
 C486 C 0.20207 0.07368 1.06258
 C487 C 0.20230 0.06035 1.07501
 C488 C 0.18976 0.04748 1.07457
 C489 C 0.17683 0.04773 1.06171
 C490 C 0.16187 0.05853 1.03948
 N491 N 0.15313 0.04436 1.04546
 C492 C 0.16227 0.03768 1.05904
 C493 C 0.19226 0.03713 1.08893
 N494 N 0.20600 0.04341 1.09814
 C495 C 0.21224 0.05761 1.08965
 C496 C 0.21186 0.08852 1.06059
 N497 N 0.20540 0.09778 1.04698
 C498 C 0.19160 0.08889 1.04035
 H499 H 0.15745 0.06705 1.02919
 H500 H 0.15848 0.02650 1.06669
 H501 H 0.18438 0.02605 1.09254
 H502 H 0.22269 0.06588 1.09421
 H503 H 0.22277 0.09235 1.06863
 H504 H 0.18336 0.09330 1.02982
 C505 C 0.57546 0.20039 0.56284
 C506 C 0.56224 0.20080 0.57540
 C507 C 0.54952 0.18810 0.57554
 C508 C 0.54986 0.17477 0.56311
 C509 C 0.56288 0.17438 0.55069
 C510 C 0.57579 0.18728 0.55057
 C511 C 0.59014 0.21033 0.56042
 N512 N 0.59943 0.20359 0.54697
 C513 C 0.59068 0.18950 0.54085
 C514 C 0.56056 0.15950 0.54106
 N515 N 0.54646 0.15082 0.54732
 C516 C 0.53986 0.16012 0.56083
 C517 C 0.53921 0.19103 0.58988
 N518 N 0.54540 0.20518 0.59848
 C519 C 0.55948 0.21124 0.58963
 H520 H 0.59387 0.22151 0.56809
 H521 H 0.59516 0.18100 0.53057
 H522 H 0.56894 0.15502 0.53068
 H523 H 0.52869 0.15645 0.56858
 H524 H 0.52851 0.18294 0.59417
 H525 H 0.56739 0.22225 0.59339
 C526 C 0.07410 0.56232 0.69988
 C527 C 0.06079 0.57482 0.70007
 C528 C 0.04790 0.57446 0.68753
 C529 C 0.04811 0.56159 0.67465
 C530 C 0.06120 0.54925 0.67446
 C531 C 0.07429 0.54961 0.68718
 C532 C 0.08890 0.56021 0.70974
 N533 N 0.09811 0.54653 0.70336
 C534 C 0.08922 0.53997 0.68956
 C535 C 0.05879 0.53922 0.65984
 N536 N 0.04459 0.54522 0.65111
 C537 C 0.03798 0.55889 0.66016
 C538 C 0.03754 0.58883 0.69008
 N539 N 0.04382 0.59795 0.70385
 C540 C 0.05804 0.58940 0.71006
 H541 H 0.09273 0.56821 0.72066
 H542 H 0.09359 0.52939 0.68138
 H543 H 0.06724 0.52884 0.65550
 H544 H 0.02678 0.56656 0.65637
 H545 H 0.02643 0.59249 0.68223
 H546 H 0.06630 0.59387 0.72055
 C547 C 0.67552 0.54891 0.06045
 C548 C 0.68841 0.54871 0.07339
 C549 C 0.70135 0.56120 0.07338
 C550 C 0.70161 0.57406 0.06048
 C551 C 0.68892 0.57427 0.04773
 C552 C 0.67577 0.56161 0.04773
 C553 C 0.66070 0.53917 0.05792
 N554 N 0.65192 0.54566 0.04400
 C555 C 0.66111 0.55939 0.03770
 C556 C 0.69161 0.58893 0.03783
 N557 N 0.70559 0.59766 0.04429
 C558 C 0.71179 0.58857 0.05814
 C559 C 0.71124 0.55868 0.08807
 N560 N 0.70463 0.54497 0.09706
 C561 C 0.69067 0.53878 0.08810
 H562 H 0.65630 0.52860 0.06609
 H563 H 0.65733 0.56738 0.02676
 H564 H 0.68344 0.59333 0.02724
 H565 H 0.72270 0.59238 0.06619
 H566 H 0.72227 0.56649 0.09203
 H567 H 0.68226 0.52832 0.09235
 C568 C 0.06329 0.70029 0.57509
 C569 C 0.07646 0.69985 0.56245
 C570 C 0.07627 0.68714 0.54974
 C571 C 0.06289 0.67473 0.54945
 C572 C 0.04993 0.67518 0.56190
 C573 C 0.05013 0.68804 0.57480
 C574 C 0.06080 0.71036 0.58967
 N575 N 0.04649 0.70447 0.59827
 C576 C 0.03988 0.69083 0.58918
 C577 C 0.03945 0.66094 0.55925
 N578 N 0.04573 0.65179 0.54549
 C579 C 0.06006 0.66021 0.53940
 C580 C 0.09110 0.68921 0.53993
 N581 N 0.10034 0.70286 0.54634
 C582 C 0.09142 0.70943 0.56013
 H583 H 0.06927 0.72071 0.59407
 H584 H 0.02859 0.68326 0.59286
 H585 H 0.02824 0.65738 0.56699
 H586 H 0.06833 0.65571 0.52894
 H587 H 0.09492 0.68123 0.52900
 H588 H 0.09578 0.72002 0.56831
 C589 C 0.56255 1.05057 0.67433
 C590 C 0.57514 1.05045 0.68755
 C591 C 0.57467 1.06293 0.70045
 C592 C 0.56159 1.07567 0.70034
 C593 C 0.54925 1.07577 0.68735
 C594 C 0.54972 1.06311 0.67423
 C595 C 0.56041 1.04072 0.65957
 N596 N 0.54654 1.04693 0.65029
 C597 C 0.54000 1.06070 0.65943
 C598 C 0.53897 1.09019 0.68986
 N599 N 0.54472 1.09907 0.70413
 C600 C 0.55863 1.09001 0.71056
 C601 C 0.58904 1.06039 0.71084
 N602 N 0.59828 1.04667 0.70455
 C603 C 0.58980 1.04051 0.69031
 H604 H 0.56888 1.03013 0.65591
 H605 H 0.52914 1.06881 0.65572
 H606 H 0.52827 1.09382 0.68150
 H607 H 0.56668 1.09368 0.72147
 H608 H 0.59260 1.06815 0.72201
 H609 H 0.59432 1.03003 0.68209
 C610 C 0.45008 0.32542 0.93755
 C611 C 0.45026 0.31245 0.92473
 C612 C 0.43796 0.29935 0.92509
 C613 C 0.42533 0.29900 0.93823
 C614 C 0.42515 0.31178 0.95084
 C615 C 0.43763 0.32509 0.95047
 C616 C 0.45972 0.34029 0.93982
 N617 N 0.45350 0.34924 0.95386
 C618 C 0.43991 0.33978 0.96037
 C619 C 0.41072 0.30891 0.96107
 N620 N 0.40210 0.29474 0.95492
 C621 C 0.41104 0.28860 0.94096
 C622 C 0.44038 0.28937 0.91048
 N623 N 0.45385 0.29608 0.90118
 C624 C 0.46000 0.31020 0.90987
 H625 H 0.47013 0.34433 0.93129
 H626 H 0.43188 0.34315 0.97138
 H627 H 0.40638 0.31706 0.97168
 H628 H 0.40729 0.27756 0.93310
 H629 H 0.43267 0.27819 0.90679
 H630 H 0.47029 0.31869 0.90536
 C631 C 0.94895 0.43698 0.32586
 C632 C 0.94875 0.42396 0.31312
 C633 C 0.93586 0.42386 0.30057
 C634 C 0.92296 0.43678 0.30062
 C635 C 0.92317 0.44958 0.31321
 C636 C 0.93628 0.44966 0.32592
 C637 C 0.95922 0.43963 0.34026
 N638 N 0.95312 0.45366 0.34930
 C639 C 0.93901 0.45981 0.34035
 C640 C 0.90857 0.45967 0.31080
 N641 N 0.89946 0.45332 0.29705
 C642 C 0.90822 0.43931 0.29073
 C643 C 0.93829 0.40921 0.29061
 N644 N 0.95233 0.40038 0.29683
 C645 C 0.95880 0.40938 0.31060
 H646 H 0.96993 0.43131 0.34395
 H647 H 0.93089 0.47069 0.34395
 H648 H 0.90480 0.47071 0.31866
 H649 H 0.90387 0.43111 0.28017
 H650 H 0.93001 0.40496 0.28005
 H651 H 0.96990 0.40554 0.31838
 C652 C 0.29997 0.93837 0.42532
 C653 C 0.29988 0.92573 0.43846
 C654 C 0.31244 0.92609 0.45133
 C655 C 0.32524 0.93909 0.45125
 C656 C 0.32533 0.95147 0.43832
 C657 C 0.31258 0.95111 0.42525
 C658 C 0.29011 0.94056 0.41056
 N659 N 0.29637 0.95439 0.40131
 C660 C 0.31019 0.96084 0.41046
 C661 C 0.33989 0.96158 0.44078
 N662 N 0.34887 0.95567 0.45494
 C663 C 0.33973 0.94185 0.46137
 C664 C 0.30998 0.91166 0.46159
 N665 N 0.29623 0.90249 0.45526
 C666 C 0.28996 0.91107 0.44112
 H667 H 0.27950 0.93213 0.40684
 H668 H 0.31836 0.97165 0.40678
 H669 H 0.34356 0.97224 0.43243
 H670 H 0.34346 0.93371 0.47219
 H671 H 0.31784 0.90801 0.47268
 H672 H 0.27945 0.90660 0.43288
 O673 O 0.27167 0.45357 0.75125
 O674 O 0.26929 0.45914 0.72152
 O675 O 0.29555 0.49925 0.77213
 O676 O 0.29033 0.52786 0.77288
 O677 O 0.24982 0.47732 0.79640
 O678 O 0.21972 0.48072 0.79039
 O679 O 0.24867 0.54531 0.72701
 O680 O 0.27822 0.54031 0.73060
 O681 O 0.22694 0.50115 0.70438
 O682 O 0.22865 0.46954 0.71088
 O683 O 0.20368 0.52246 0.74820
 O684 O 0.20926 0.52174 0.77921
 O685 O 0.22751 0.54550 0.74780
 O686 O 0.22894 0.53907 0.78011
 O687 O 0.20361 0.50144 0.72739
 O688 O 0.20822 0.47137 0.73061
 O689 O 0.24771 0.52228 0.70452
 O690 O 0.27921 0.51647 0.71042
 O691 O 0.25023 0.45356 0.77179
 O692 O 0.21892 0.46035 0.76958
 O693 O 0.27064 0.49845 0.79660
 O694 O 0.26797 0.52996 0.78946
 O695 O 0.29552 0.47783 0.75170
 O696 O 0.28876 0.48158 0.72040
 Zr697 Zr 0.27034 0.47878 0.74078
 O698 O 0.25492 0.49394 0.72398
 Zr699 Zr 0.27008 0.50932 0.77140
 O700 O 0.25512 0.52595 0.75557
 Zr701 Zr 0.23940 0.47880 0.77117
 O702 O 0.22292 0.49430 0.75567
 Zr703 Zr 0.25934 0.52030 0.72922
 O704 O 0.27616 0.50523 0.74500
 Zr705 Zr 0.22840 0.49000 0.72932
 O706 O 0.24373 0.47310 0.74477
 Zr707 Zr 0.22856 0.52075 0.75959
 O708 O 0.24355 0.50527 0.77679
 O709 O 0.26578 0.48311 0.76705
 O710 O 0.23278 0.51639 0.73327
 C711 C 0.26257 0.44623 0.76318
 C712 C 0.30290 0.48695 0.76357
 C713 C 0.26185 0.48622 0.80384
 C714 C 0.23620 0.55258 0.73541
 C715 C 0.23538 0.51367 0.69727
 C716 C 0.19647 0.51395 0.73580
 H717 H 0.25788 0.49114 0.71179
 H718 H 0.21063 0.49146 0.75832
 H719 H 0.27324 0.47570 0.77448
 H720 H 0.25811 0.53818 0.75816
 H721 H 0.28921 0.53476 0.73446
 H722 H 0.28792 0.53669 0.76387
 H723 H 0.21262 0.46175 0.73793
 H724 H 0.22035 0.45175 0.77909
 H725 H 0.27878 0.52633 0.70214
 H726 H 0.29765 0.47226 0.72149
 H727 H 0.20276 0.51065 0.77883
 H728 H 0.22093 0.49229 0.79589
 H729 H 0.25742 0.45412 0.72195
 H730 H 0.23889 0.47116 0.70325
 H731 H 0.25727 0.52786 0.79632
 H732 H 0.23867 0.54721 0.77794
 O733 O 0.24957 0.04617 0.22810
 O734 O 0.27929 0.04033 0.23078
 O735 O 0.22839 0.00052 0.20445
 O736 O 0.22731 -0.02805 0.20985
 O737 O 0.20388 0.02299 0.24973
 O738 O 0.20963 0.01978 0.27979
 O739 O 0.27283 -0.04561 0.25191
 O740 O 0.26954 -0.04080 0.22238
 O741 O 0.29574 -0.00150 0.27345
 O742 O 0.28953 0.03013 0.27148
 O743 O 0.25141 -0.02226 0.29643
 O744 O 0.22037 -0.02129 0.29058
 O745 O 0.25181 -0.04549 0.27284
 O746 O 0.21949 -0.03877 0.27108
 O747 O 0.27245 -0.00142 0.29652
 O748 O 0.26953 0.02866 0.29168
 O749 O 0.29559 -0.02278 0.25289
 O750 O 0.28998 -0.01715 0.22138
 O751 O 0.22879 0.04652 0.24931
 O752 O 0.23069 0.03993 0.28062
 O753 O 0.20365 0.00170 0.22913
 O754 O 0.21053 -0.02986 0.23201
 O755 O 0.24909 0.02175 0.20449
 O756 O 0.28037 0.01774 0.21152
 Zr757 Zr 0.25981 0.02087 0.22970
 O758 O 0.27639 0.00568 0.24533
 Zr759 Zr 0.22882 -0.00938 0.22993
 O760 O 0.24442 -0.02605 0.24509
 Zr761 Zr 0.22909 0.02135 0.26031
 O762 O 0.24434 0.00583 0.27698
 Zr763 Zr 0.27094 -0.02067 0.24107
 O764 O 0.25538 -0.00558 0.22406
 Zr765 Zr 0.27085 0.00985 0.27170
 O766 O 0.25564 0.02678 0.25616
 Zr767 Zr 0.24022 -0.02064 0.27152
 O768 O 0.22325 -0.00509 0.25631
 O769 O 0.23339 0.01682 0.23406
 O770 O 0.26668 -0.01653 0.26749
 C771 C 0.23760 0.05368 0.23703
 C772 C 0.23716 0.01268 0.19710
 C773 C 0.19642 0.01405 0.23777
 C774 C 0.26424 -0.05274 0.26432
 C775 C 0.30283 -0.01414 0.26518
 C776 C 0.26385 -0.01380 0.30367
 H777 H 0.28866 0.00834 0.24247
 H778 H 0.24161 0.00878 0.28919
 H779 H 0.22605 0.02424 0.22652
 H780 H 0.24174 -0.03827 0.24217
 H781 H 0.26581 -0.03531 0.21135
 H782 H 0.23630 -0.03690 0.21234
 H783 H 0.26237 0.03833 0.28713
 H784 H 0.22127 0.04863 0.27904
 H785 H 0.29820 -0.02708 0.22196
 H786 H 0.27945 0.02701 0.20260
 H787 H 0.22082 -0.01018 0.29702
 H788 H 0.20406 0.00824 0.27867
 H789 H 0.27880 0.04545 0.24257
 H790 H 0.29723 0.02839 0.26132
 H791 H 0.20358 -0.02764 0.24262
 H792 H 0.22167 -0.04700 0.26145
 O793 O 0.52295 0.74918 0.20277
 O794 O 0.52069 0.77884 0.20851
 O795 O 0.54671 0.72794 0.24844
 O796 O 0.54143 0.72709 0.27704
 O797 O 0.50099 0.70387 0.22627
 O798 O 0.47094 0.70989 0.22955
 O799 O 0.49969 0.77294 0.29453
 O800 O 0.52927 0.76935 0.28964
 O801 O 0.47811 0.79579 0.25040
 O802 O 0.47996 0.78949 0.21878
 O803 O 0.45479 0.75189 0.27140
 O804 O 0.46042 0.72083 0.27058
 O805 O 0.47850 0.75219 0.29457
 O806 O 0.47996 0.71994 0.28807
 O807 O 0.45479 0.77279 0.25045
 O808 O 0.45954 0.76970 0.22038
 O809 O 0.49883 0.79554 0.27159
 O810 O 0.53036 0.78964 0.26589
 O811 O 0.50150 0.72866 0.20260
 O812 O 0.47017 0.73082 0.20933
 O813 O 0.52171 0.70352 0.24751
 O814 O 0.51905 0.71055 0.27902
 O815 O 0.54678 0.74849 0.22711
 O816 O 0.54005 0.77979 0.23105
 Zr817 Zr 0.52161 0.75946 0.22804
 O818 O 0.50614 0.77621 0.24320
 Zr819 Zr 0.52122 0.72868 0.25844
 O820 O 0.50622 0.74446 0.27509
 Zr821 Zr 0.49063 0.72912 0.22782
 O822 O 0.47411 0.74455 0.24332
 Zr823 Zr 0.51046 0.77084 0.26957
 O824 O 0.52733 0.75511 0.25450
 Zr825 Zr 0.47964 0.77092 0.23914
 O826 O 0.49501 0.75554 0.22225
 Zr827 Zr 0.47967 0.74050 0.26978
 O828 O 0.49469 0.72336 0.25428
 O829 O 0.51700 0.73317 0.23223
 O830 O 0.48392 0.76683 0.26553
 C831 C 0.51383 0.73733 0.19534
 C832 C 0.55411 0.73656 0.23621
 C833 C 0.51293 0.69635 0.23522
 C834 C 0.48717 0.76455 0.30172
 C835 C 0.48651 0.80283 0.26298
 C836 C 0.44760 0.76432 0.26289
 H837 H 0.50912 0.78841 0.24047
 H838 H 0.46183 0.74192 0.24042
 H839 H 0.52446 0.72575 0.22481
 H840 H 0.50917 0.74182 0.28731
 H841 H 0.54028 0.76551 0.28414
 H842 H 0.53902 0.73609 0.28587
 H843 H 0.46403 0.76250 0.21071
 H844 H 0.47164 0.72138 0.20066
 H845 H 0.52988 0.79788 0.27579
 H846 H 0.54898 0.77874 0.22179
 H847 H 0.45386 0.72135 0.25953
 H848 H 0.47204 0.70439 0.24113
 H849 H 0.50881 0.77854 0.20350
 H850 H 0.49018 0.79711 0.22051
 H851 H 0.50831 0.70375 0.27690
 H852 H 0.48970 0.72204 0.29622
 O853 O 0.04662 0.72744 0.74883
 O854 O 0.04087 0.72951 0.77857
 O855 O 0.00073 0.70401 0.72754
 O856 O -0.02789 0.70945 0.72657
 O857 O 0.02331 0.74938 0.70376
 O858 O 0.01937 0.78014 0.71038
 O859 O -0.04535 0.75084 0.77260
 O860 O -0.04055 0.72127 0.76888
 O861 O -0.00122 0.77202 0.79568
 O862 O 0.03048 0.76999 0.78961
 O863 O -0.02212 0.79556 0.75187
 O864 O -0.01997 0.79148 0.72221
 O865 O -0.04525 0.77214 0.75198
 O866 O -0.03864 0.77039 0.71968
 O867 O -0.00112 0.79536 0.77279
 O868 O 0.02900 0.79065 0.76979
 O869 O -0.02250 0.75141 0.79527
 O870 O -0.01680 0.71998 0.78924
 O871 O 0.04689 0.74874 0.72815
 O872 O 0.04061 0.77983 0.73203
 O873 O 0.00186 0.72892 0.70325
 O874 O -0.02978 0.73195 0.71024
 O875 O 0.02210 0.70371 0.74810
 O876 O 0.01824 0.71026 0.77945
 Zr877 Zr 0.02127 0.72875 0.75920
 O878 O 0.00606 0.74412 0.77600
 Zr879 Zr -0.00916 0.72950 0.72836
 O880 O -0.02582 0.74439 0.74418
 Zr881 Zr 0.02175 0.75986 0.72900
 O882 O 0.00613 0.77619 0.74450
 Zr883 Zr -0.02037 0.73994 0.77053
 O884 O -0.00527 0.72319 0.75474
 Zr885 Zr 0.01022 0.77057 0.77087
 O886 O 0.02714 0.75526 0.75544
 Zr887 Zr -0.02038 0.77086 0.74035
 O888 O -0.00480 0.75598 0.72308
 O889 O 0.01711 0.73357 0.73297
 O890 O -0.01620 0.76640 0.76666
 C891 C 0.05409 0.73642 0.73687
 C892 C 0.01296 0.69652 0.73613
 C893 C 0.01430 0.73755 0.69617
 C894 C -0.05248 0.76343 0.76428
 C895 C -0.01390 0.76366 0.80263
 C896 C -0.01359 0.80261 0.76436
 H897 H 0.00873 0.74106 0.78820
 H898 H 0.00890 0.78847 0.74183
 H899 H 0.02449 0.72609 0.72556
 H900 H -0.03808 0.74151 0.74151
 H901 H -0.03504 0.71029 0.76501
 H902 H -0.03673 0.71179 0.73560
 H903 H 0.03912 0.78595 0.76336
 H904 H 0.04956 0.77869 0.72280
 H905 H -0.02675 0.72043 0.79745
 H906 H 0.02750 0.70132 0.77833
 H907 H -0.01187 0.78793 0.71287
 H908 H 0.02900 0.77926 0.70183
 H909 H 0.04590 0.74135 0.77833
 H910 H 0.02869 0.75972 0.79713
 H911 H -0.02743 0.74253 0.70330
 H912 H -0.04713 0.76102 0.72203
 O913 O 0.04667 0.02271 0.00139
 O914 O 0.04092 0.02052 -0.02835
 O915 O 0.00080 0.04620 0.02259
 O916 O -0.02783 0.04081 0.02345
 O917 O 0.02330 0.00090 0.04656
 O918 O 0.01950 -0.02987 0.04001
 O919 O -0.04525 -0.00084 -0.02239
 O920 O -0.04051 0.02875 -0.01879
 O921 O -0.00099 -0.02205 -0.04532
 O922 O 0.03065 -0.02005 -0.03917
 O923 O -0.02204 -0.04542 -0.00148
 O924 O -0.01981 -0.04125 0.02820
 O925 O -0.04515 -0.02201 -0.00164
 O926 O -0.03854 -0.02016 0.03064
 O927 O -0.00103 -0.04529 -0.02237
 O928 O 0.02911 -0.04063 -0.01925
 O929 O -0.02234 -0.00148 -0.04504
 O930 O -0.01674 0.02999 -0.03911
 O931 O 0.04696 0.00152 0.02217
 O932 O 0.04075 -0.02958 0.01841
 O933 O 0.00183 0.02136 0.04697
 O934 O -0.02977 0.01838 0.03990
 O935 O 0.02216 0.04642 0.00202
 O936 O 0.01826 0.03977 -0.02930
 Zr937 Zr 0.02133 0.02135 -0.00898
 O938 O 0.00615 0.00590 -0.02574
 Zr939 Zr -0.00911 0.02073 0.02182
 O940 O -0.02574 0.00576 0.00604
 Zr941 Zr 0.02183 -0.00963 0.02134
 O942 O 0.00624 -0.02604 0.00589
 Zr943 Zr -0.02029 0.01009 -0.02033
 O944 O -0.00522 0.02692 -0.00459
 Zr945 Zr 0.01036 -0.02053 -0.02048
 O946 O 0.02724 -0.00514 -0.00511
 Zr947 Zr -0.02028 -0.02069 0.00999
 O948 O -0.00473 -0.00573 0.02720
 O949 O 0.01716 0.01664 0.01726
 O950 O -0.01608 -0.01635 -0.01633
 C951 C 0.05415 0.01380 0.01339
 C952 C 0.01303 0.05366 0.01398
 C953 C 0.01424 0.01272 0.05410
 C954 C -0.05238 -0.01338 -0.01400
 C955 C -0.01367 -0.01373 -0.05234
 C956 C -0.01353 -0.05250 -0.01397
 H957 H 0.00884 0.00892 -0.03794
 H958 H 0.00901 -0.03831 0.00861
 H959 H 0.02453 0.02414 0.02467
 H960 H -0.03801 0.00865 0.00868
 H961 H -0.03503 0.03975 -0.01496
 H962 H -0.03669 0.03841 0.01445
 H963 H 0.03925 -0.03590 -0.01287
 H964 H 0.04970 -0.02839 0.02764
 H965 H -0.02667 0.02948 -0.04735
 H966 H 0.02752 0.04870 -0.02822
 H967 H -0.01175 -0.03763 0.03755
 H968 H 0.02911 -0.02894 0.04858
 H969 H 0.04601 0.00871 -0.02802
 H970 H 0.02891 -0.00976 -0.04669
 H971 H -0.02746 0.00780 0.04686
 H972 H -0.04703 -0.01077 0.02826
 O973 O 0.00154 0.54635 0.52157
 O974 O -0.02823 0.54068 0.51894
 O975 O 0.02259 0.50062 0.54519
 O976 O 0.02327 0.47202 0.53983
 O977 O 0.04713 0.52290 0.49993
 O978 O 0.04133 0.51986 0.46987
 O979 O -0.02211 0.45475 0.49762
 O980 O -0.01887 0.45949 0.52717
 O981 O -0.04484 0.49909 0.47614
 O982 O -0.03847 0.53068 0.47820
 O983 O -0.00063 0.47810 0.45319
 O984 O 0.03049 0.47896 0.45906
 O985 O -0.00105 0.45483 0.47672
 O986 O 0.03123 0.46136 0.47845
 O987 O -0.02157 0.49907 0.45312
 O988 O -0.01847 0.52912 0.45799
 O989 O -0.04479 0.47773 0.49663
 O990 O -0.03921 0.48323 0.52817
 O991 O 0.02238 0.54665 0.50042
 O992 O 0.02041 0.54017 0.46912
 O993 O 0.04725 0.50156 0.52050
 O994 O 0.04019 0.47011 0.51766
 O995 O 0.00195 0.52191 0.54515
 O996 O -0.02939 0.51806 0.53815
 Zr997 Zr -0.00882 0.52112 0.51996
 O998 O -0.02547 0.50606 0.50430
 Zr999 Zr 0.02200 0.49070 0.51972
 O1000 O 0.00635 0.47416 0.50450
 Zr1001 Zr 0.02191 0.52151 0.48937
 O1002 O 0.00659 0.50612 0.47266
 Zr1003 Zr -0.02015 0.47967 0.50850
 O1004 O -0.00454 0.49463 0.52557
 Zr1005 Zr -0.01989 0.51028 0.47794
 O1006 O -0.00462 0.52708 0.49351
 Zr1007 Zr 0.01059 0.47962 0.47809
 O1008 O 0.02762 0.49502 0.49335
 O1009 O 0.01757 0.51693 0.51560
 O1010 O -0.01585 0.48386 0.48210
 C1011 C 0.01357 0.55382 0.51269
 C1012 C 0.01388 0.51283 0.55253
 C1013 C 0.05454 0.51387 0.51186
 C1014 C -0.01352 0.44761 0.48522
 C1015 C -0.05199 0.48645 0.48436
 C1016 C -0.01304 0.48664 0.44597
 H1017 H -0.03773 0.50878 0.50716
 H1018 H 0.00934 0.50909 0.46045
 H1019 H 0.02496 0.52429 0.52314
 H1020 H 0.00897 0.46191 0.50740
 H1021 H -0.01511 0.46493 0.53821
 H1022 H 0.01440 0.46310 0.53718
 H1023 H -0.01126 0.53875 0.46256
 H1024 H 0.02990 0.54879 0.47070
 H1025 H -0.04748 0.47335 0.52754
 H1026 H -0.02840 0.52728 0.54710
 H1027 H 0.02996 0.49001 0.45252
 H1028 H 0.04684 0.50827 0.47095
 H1029 H -0.02772 0.54583 0.50716
 H1030 H -0.04619 0.52894 0.48834
 H1031 H 0.04711 0.47225 0.50702
 H1032 H 0.02907 0.45318 0.48813
 O1033 O 0.45439 -0.00098 0.47758
 O1034 O 0.45991 0.02870 0.47999
 O1035 O 0.50031 -0.02175 0.45376
 O1036 O 0.52902 -0.02225 0.45898
 O1037 O 0.47834 -0.04632 0.49911
 O1038 O 0.48157 -0.04052 0.52914
 O1039 O 0.54620 0.02326 0.50085
 O1040 O 0.54126 0.01997 0.47138
 O1041 O 0.50173 0.04562 0.52261
 O1042 O 0.47007 0.03904 0.52073
 O1043 O 0.52324 0.00177 0.54557
 O1044 O 0.52265 -0.02920 0.53984
 O1045 O 0.54643 0.00233 0.52184
 O1046 O 0.54006 -0.02997 0.52024
 O1047 O 0.50202 0.02245 0.54571
 O1048 O 0.47188 0.01913 0.54096
 O1049 O 0.52302 0.04571 0.50200
 O1050 O 0.51729 0.04008 0.47052
 O1051 O 0.45436 -0.02171 0.49879
 O1052 O 0.46111 -0.01977 0.53005
 O1053 O 0.49967 -0.04629 0.47848
 O1054 O 0.53118 -0.03901 0.48118
 O1055 O 0.47874 -0.00138 0.45382
 O1056 O 0.48251 0.02993 0.46069
 Zr1057 Zr 0.47964 0.00946 0.47897
 O1058 O 0.49468 0.02622 0.49453
 Zr1059 Zr 0.51038 -0.02104 0.47917
 O1060 O 0.52692 -0.00526 0.49424
 Zr1061 Zr 0.47966 -0.02114 0.50965
 O1062 O 0.49507 -0.00571 0.52624
 Zr1063 Zr 0.52116 0.02111 0.49018
 O1064 O 0.50620 0.00539 0.47324
 Zr1065 Zr 0.49066 0.02066 0.52092
 O1066 O 0.47386 0.00527 0.50546
 Zr1067 Zr 0.52164 -0.00948 0.52069
 O1068 O 0.50624 -0.02663 0.50557
 O1069 O 0.48406 -0.01682 0.48339
 O1070 O 0.51716 0.01685 0.51663
 C1071 C 0.44702 -0.01296 0.48656
 C1072 C 0.48793 -0.01322 0.44645
 C1073 C 0.48741 -0.05365 0.48715
 C1074 C 0.55352 0.01478 0.51322
 C1075 C 0.51430 0.05283 0.51432
 C1076 C 0.51459 0.01406 0.55281
 H1077 H 0.49184 0.03842 0.49166
 H1078 H 0.49219 -0.00846 0.53847
 H1079 H 0.47667 -0.02425 0.47591
 H1080 H 0.53920 -0.00779 0.49128
 H1081 H 0.53574 0.01617 0.46038
 H1082 H 0.53784 -0.01324 0.46150
 H1083 H 0.46227 0.01185 0.53645
 H1084 H 0.45250 -0.02928 0.52851
 H1085 H 0.52714 0.04840 0.47106
 H1086 H 0.47323 0.02886 0.45177
 H1087 H 0.51150 -0.02892 0.54627
 H1088 H 0.49323 -0.04590 0.52800
 H1089 H 0.45490 0.02828 0.49183
 H1090 H 0.47174 0.04679 0.51061
 H1091 H 0.52912 -0.04594 0.49182
 H1092 H 0.54825 -0.02772 0.51057
 O1093 O 0.49985 0.54599 0.02168
 O1094 O 0.47015 0.54011 0.01901
 O1095 O 0.52100 0.50055 0.04588
 O1096 O 0.52211 0.47194 0.04076
 O1097 O 0.54568 0.52263 0.00051
 O1098 O 0.54006 0.51919 -0.02954
 O1099 O 0.47681 0.45402 -0.00140
 O1100 O 0.47998 0.45904 0.02811
 O1101 O 0.45395 0.49793 -0.02341
 O1102 O 0.46010 0.52958 -0.02168
 O1103 O 0.49847 0.47705 -0.04601
 O1104 O 0.52947 0.47805 -0.03997
 O1105 O 0.49792 0.45400 -0.02224
 O1106 O 0.53023 0.46070 -0.02034
 O1107 O 0.47738 0.49786 -0.04638
 O1108 O 0.48019 0.52798 -0.04176
 O1109 O 0.45402 0.47685 -0.00264
 O1110 O 0.45951 0.48270 0.02883
 O1111 O 0.52074 0.54620 0.00059
 O1112 O 0.51899 0.53934 -0.03064
 O1113 O 0.54585 0.50150 0.02129
 O1114 O 0.53900 0.46993 0.01868
 O1115 O 0.50029 0.52177 0.04557
 O1116 O 0.46904 0.51767 0.03844
 Zr1117 Zr 0.48967 0.52067 0.02032
 O1118 O 0.47317 0.50535 0.00474
 Zr1119 Zr 0.52069 0.49044 0.02050
 O1120 O 0.50517 0.47364 0.00541
 Zr1121 Zr 0.52052 0.52093 -0.01016
 O1122 O 0.50536 0.50527 -0.02676
 Zr1123 Zr 0.47863 0.47904 0.00925
 O1124 O 0.49409 0.49426 0.02621
 Zr1125 Zr 0.47882 0.50931 -0.02164
 O1126 O 0.49394 0.52637 -0.00618
 Zr1127 Zr 0.50949 0.47885 -0.02104
 O1128 O 0.52638 0.49452 -0.00590
 O1129 O 0.51611 0.51661 0.01611
 O1130 O 0.48301 0.48297 -0.01718
 C1131 C 0.51183 0.55346 0.01274
 C1132 C 0.51220 0.51277 0.05309
 C1133 C 0.55310 0.51377 0.01257
 C1134 C 0.48545 0.44681 -0.01373
 C1135 C 0.44682 0.48538 -0.01505
 C1136 C 0.48606 0.48545 -0.05338
 H1137 H 0.46089 0.50803 0.00753
 H1138 H 0.50816 0.50813 -0.03898
 H1139 H 0.52341 0.52409 0.02362
 H1140 H 0.50785 0.46144 0.00844
 H1141 H 0.48364 0.46461 0.03911
 H1142 H 0.51316 0.46306 0.03830
 H1143 H 0.48734 0.53768 -0.03726
 H1144 H 0.52841 0.54804 -0.02911
 H1145 H 0.45130 0.47277 0.02831
 H1146 H 0.46991 0.52700 0.04730
 H1147 H 0.52903 0.48910 -0.04653
 H1148 H 0.54566 0.50767 -0.02827
 H1149 H 0.47064 0.54510 0.00716
 H1150 H 0.45236 0.52791 -0.01155
 H1151 H 0.54597 0.47205 0.00807
 H1152 H 0.52799 0.45253 -0.01067
 O1153 O 0.77294 0.29626 0.49976
 O1154 O 0.77035 0.29069 0.52950
 O1155 O 0.79714 0.25081 0.47896
 O1156 O 0.79215 0.22214 0.47835
 O1157 O 0.75140 0.27240 0.45445
 O1158 O 0.72131 0.26905 0.46031
 O1159 O 0.75020 0.20444 0.52376
 O1160 O 0.77973 0.20959 0.52049
 O1161 O 0.72805 0.24854 0.54628
 O1162 O 0.72967 0.28014 0.53983
 O1163 O 0.70523 0.22714 0.50227
 O1164 O 0.71105 0.22793 0.47129
 O1165 O 0.72919 0.20419 0.50281
 O1166 O 0.73079 0.21067 0.47054
 O1167 O 0.70491 0.24818 0.52305
 O1168 O 0.70941 0.27827 0.51992
 O1169 O 0.74889 0.22746 0.54630
 O1170 O 0.78042 0.23341 0.54068
 O1171 O 0.75172 0.29623 0.47899
 O1172 O 0.72039 0.28940 0.48113
 O1173 O 0.77231 0.25135 0.45438
 O1174 O 0.76992 0.21987 0.46156
 O1175 O 0.79686 0.27215 0.49949
 O1176 O 0.78992 0.26832 0.53075
 Zr1177 Zr 0.77163 0.27107 0.51024
 O1178 O 0.75615 0.25585 0.52691
 Zr1179 Zr 0.77174 0.24055 0.47960
 O1180 O 0.75674 0.22386 0.49531
 Zr1181 Zr 0.74090 0.27097 0.47963
 O1182 O 0.72438 0.25540 0.49497
 Zr1183 Zr 0.76072 0.22950 0.52170
 O1184 O 0.77760 0.24464 0.50606
 Zr1185 Zr 0.72966 0.25970 0.52136
 O1186 O 0.74503 0.27667 0.50605
 Zr1187 Zr 0.73018 0.22896 0.49108
 O1188 O 0.74523 0.24452 0.47402
 O1189 O 0.76727 0.26674 0.48393
 O1190 O 0.73418 0.23333 0.51743
 C1191 C 0.76398 0.30357 0.48771
 C1192 C 0.80435 0.26313 0.48760
 C1193 C 0.76346 0.26351 0.44707
 C1194 C 0.73785 0.19712 0.51524
 C1195 C 0.73647 0.23604 0.55345
 C1196 C 0.69788 0.23565 0.51459
 H1197 H 0.75900 0.25865 0.53913
 H1198 H 0.71211 0.25820 0.49222
 H1199 H 0.77473 0.27415 0.47652
 H1200 H 0.75981 0.21165 0.49273
 H1201 H 0.79072 0.21518 0.51672
 H1202 H 0.78967 0.21326 0.48730
 H1203 H 0.71384 0.28794 0.51269
 H1204 H 0.72185 0.29801 0.47163
 H1205 H 0.77995 0.22355 0.54896
 H1206 H 0.79877 0.27766 0.52973
 H1207 H 0.70442 0.23894 0.47170
 H1208 H 0.72252 0.25746 0.45486
 H1209 H 0.75848 0.29570 0.52895
 H1210 H 0.73989 0.27857 0.54750
 H1211 H 0.75922 0.22186 0.45465
 H1212 H 0.74055 0.20257 0.47277
 O1213 O 0.74808 0.70411 0.02224
 O1214 O 0.77779 0.70986 0.01991
 O1215 O 0.72684 0.74960 0.04630
 O1216 O 0.72592 0.77822 0.04117
 O1217 O 0.70252 0.72767 0.00065
 O1218 O 0.70842 0.73113 -0.02932
 O1219 O 0.77175 0.79598 -0.00054
 O1220 O 0.76825 0.79093 0.02896
 O1221 O 0.79452 0.75207 -0.02244
 O1222 O 0.78827 0.72041 -0.02070
 O1223 O 0.75039 0.77317 -0.04535
 O1224 O 0.71928 0.77227 -0.03961
 O1225 O 0.75085 0.79613 -0.02160
 O1226 O 0.71847 0.78964 -0.01999
 O1227 O 0.77136 0.75223 -0.04554
 O1228 O 0.76831 0.72211 -0.04098
 O1229 O 0.79436 0.77312 -0.00164
 O1230 O 0.78862 0.76717 0.02982
 O1231 O 0.72737 0.70401 0.00096
 O1232 O 0.72944 0.71093 -0.03026
 O1233 O 0.70224 0.74878 0.02144
 O1234 O 0.70925 0.78033 0.01892
 O1235 O 0.74749 0.72832 0.04613
 O1236 O 0.77885 0.73228 0.03931
 Zr1237 Zr 0.75836 0.72939 0.02100
 O1238 O 0.77506 0.74465 0.00559
 Zr1239 Zr 0.72746 0.75975 0.02091
 O1240 O 0.74319 0.77650 0.00599
 Zr1241 Zr 0.72778 0.72930 -0.00977
 O1242 O 0.74315 0.74493 -0.02622
 Zr1243 Zr 0.76967 0.77097 0.01008
 O1244 O 0.75398 0.75580 0.02688
 Zr1245 Zr 0.76962 0.74074 -0.02084
 O1246 O 0.75430 0.72374 -0.00553
 Zr1247 Zr 0.73909 0.77136 -0.02050
 O1248 O 0.72200 0.75573 -0.00554
 O1249 O 0.73197 0.73356 0.01655
 O1250 O 0.76551 0.76709 -0.01638
 C1251 C 0.73615 0.69670 0.01319
 C1252 C 0.73556 0.73734 0.05357
 C1253 C 0.69502 0.73654 0.01264
 C1254 C 0.76330 0.80323 -0.01298
 C1255 C 0.80160 0.76462 -0.01404
 C1256 C 0.76284 0.76473 -0.05260
 H1257 H 0.78732 0.74191 0.00849
 H1258 H 0.74046 0.74211 -0.03846
 H1259 H 0.72458 0.72610 0.02397
 H1260 H 0.74055 0.78871 0.00901
 H1261 H 0.76447 0.78535 0.03992
 H1262 H 0.73495 0.78705 0.03881
 H1263 H 0.76116 0.71239 -0.03652
 H1264 H 0.71998 0.70225 -0.02883
 H1265 H 0.79688 0.77707 0.02936
 H1266 H 0.77782 0.72298 0.04819
 H1267 H 0.71978 0.76126 -0.04622
 H1268 H 0.70290 0.74270 -0.02814
 H1269 H 0.77746 0.70495 0.00803
 H1270 H 0.79599 0.72210 -0.01055
 H1271 H 0.70238 0.77826 0.00824
 H1272 H 0.72068 0.79779 -0.01030
 O1273 O 1.00012 0.20396 0.22699
 O1274 O 0.97037 0.20965 0.22952
 O1275 O 1.02117 0.24968 0.20330
 O1276 O 1.02198 0.27826 0.20863
 O1277 O 1.04565 0.22745 0.24872
 O1278 O 1.03978 0.23057 0.27874
 O1279 O 0.97632 0.29563 0.25060
 O1280 O 0.97973 0.29083 0.22107
 O1281 O 0.95362 0.25143 0.27212
 O1282 O 0.95999 0.21981 0.27020
 O1283 O 0.99777 0.27242 0.29518
 O1284 O 1.02887 0.27158 0.28939
 O1285 O 0.99730 0.29560 0.27158
 O1286 O 1.02965 0.28909 0.26991
 O1287 O 0.97682 0.25149 0.29524
 O1288 O 0.97992 0.22142 0.29047
 O1289 O 0.95369 0.27270 0.25153
 O1290 O 0.95940 0.26707 0.22005
 O1291 O 1.02089 0.20371 0.24822
 O1292 O 1.01884 0.21030 0.27950
 O1293 O 1.04582 0.24872 0.22809
 O1294 O 1.03873 0.28021 0.23085
 O1295 O 1.00055 0.22837 0.20333
 O1296 O 0.96922 0.23222 0.21026
 Zr1297 Zr 0.98975 0.22921 0.22850
 O1298 O 0.97306 0.24433 0.24406
 Zr1299 Zr 1.02058 0.25962 0.22876
 O1300 O 1.00486 0.27622 0.24386
 Zr1301 Zr 1.02040 0.22889 0.25919
 O1302 O 1.00504 0.24434 0.27580
 Zr1303 Zr 0.97838 0.27070 0.23978
 O1304 O 0.99405 0.25568 0.22283
 Zr1305 Zr 0.97856 0.24019 0.27045
 O1306 O 0.99389 0.22333 0.25498
 Zr1307 Zr 1.00903 0.27082 0.27030
 O1308 O 1.02611 0.25536 0.25516
 O1309 O 1.01614 0.23339 0.23293
 O1310 O 0.98261 0.26658 0.26621
 C1311 C 1.01211 0.19650 0.23594
 C1312 C 1.01246 0.23747 0.19596
 C1313 C 1.05310 0.23644 0.23679
 C1314 C 0.98483 0.30278 0.26304
 C1315 C 0.94648 0.26403 0.26383
 C1316 C 0.98534 0.26392 0.30238
 H1317 H 0.96081 0.24160 0.24117
 H1318 H 1.00776 0.24142 0.28802
 H1319 H 1.02355 0.22601 0.22542
 H1320 H 1.00748 0.28845 0.24094
 H1321 H 0.98348 0.28535 0.21005
 H1322 H 1.01299 0.28710 0.21112
 H1323 H 0.98716 0.21178 0.28597
 H1324 H 1.02833 0.20166 0.27797
 H1325 H 0.95113 0.27696 0.22059
 H1326 H 0.97023 0.22298 0.20133
 H1327 H 1.02838 0.26052 0.29593
 H1328 H 1.04527 0.24216 0.27765
 H1329 H 0.97082 0.20457 0.24133
 H1330 H 0.95228 0.22154 0.26005
 H1331 H 1.04564 0.27807 0.24150
 H1332 H 1.02744 0.29730 0.26027
 O1333 O 0.70400 1.02289 0.74884
 O1334 O 0.70963 1.02035 0.77853
 O1335 O 0.74983 1.04652 0.72787
 O1336 O 0.77850 1.04121 0.72719
 O1337 O 0.72761 1.00112 0.70349
 O1338 O 0.73072 0.97109 0.70938
 O1339 O 0.79585 0.99918 0.77275
 O1340 O 0.79104 1.02874 0.76933
 O1341 O 0.75151 0.97766 0.79531
 O1342 O 0.71981 0.97963 0.78892
 O1343 O 0.77267 0.95465 0.75134
 O1344 O 0.77183 0.96042 0.72031
 O1345 O 0.79585 0.97821 0.75183
 O1346 O 0.78939 0.97991 0.71954
 O1347 O 0.75164 0.95459 0.77220
 O1348 O 0.72147 0.95935 0.76902
 O1349 O 0.77284 0.99823 0.79526
 O1350 O 0.76718 1.02974 0.78958
 O1351 O 0.70378 1.00168 0.72812
 O1352 O 0.71035 0.97037 0.73024
 O1353 O 0.74895 1.02174 0.70335
 O1354 O 0.78051 1.01897 0.71047
 O1355 O 0.72845 1.04651 0.74842
 O1356 O 0.73227 1.03958 0.77971
 Zr1357 Zr 0.72928 1.02134 0.75923
 O1358 O 0.74441 1.00576 0.77591
 Zr1359 Zr 0.75983 1.02107 0.72854
 O1360 O 0.77644 1.00595 0.74425
 Zr1361 Zr 0.72901 0.99066 0.72868
 O1362 O 0.74449 0.97402 0.74403
 Zr1363 Zr 0.77086 1.01003 0.77064
 O1364 O 0.75583 1.02700 0.75499
 Zr1365 Zr 0.74027 0.97937 0.77042
 O1366 O 0.72339 0.99487 0.75512
 Zr1367 Zr 0.77104 0.97952 0.74008
 O1368 O 0.75556 0.99467 0.72302
 O1369 O 0.73353 1.01691 0.73293
 O1370 O 0.76674 0.98361 0.76642
 C1371 C 0.69654 1.01398 0.73685
 C1372 C 0.73756 1.05387 0.73652
 C1373 C 0.73664 1.01305 0.69608
 C1374 C 0.80303 0.98673 0.76428
 C1375 C 0.76415 0.98592 0.80243
 C1376 C 0.76414 0.94745 0.76374
 H1377 H 0.74165 1.00865 0.78813
 H1378 H 0.74156 0.96180 0.74132
 H1379 H 0.72614 1.02442 0.72552
 H1380 H 0.78871 1.00887 0.74166
 H1381 H 0.78554 1.03976 0.76557
 H1382 H 0.78738 1.03867 0.73614
 H1383 H 0.71179 0.96388 0.76183
 H1384 H 0.70171 0.97192 0.72077
 H1385 H 0.77708 1.02918 0.79784
 H1386 H 0.72302 1.04854 0.77866
 H1387 H 0.76076 0.95387 0.72081
 H1388 H 0.74235 0.97216 0.70393
 H1389 H 0.70455 1.00855 0.77809
 H1390 H 0.72153 0.98978 0.79661
 H1391 H 0.77838 1.00832 0.70358
 H1392 H 0.79764 0.98952 0.72177
 O1393 O 0.70248 0.52253 0.24883
 O1394 O 0.70822 0.51993 0.27846
 O1395 O 0.74841 0.54610 0.22782
 O1396 O 0.77702 0.54064 0.22682
 O1397 O 0.72585 0.50083 0.20331
 O1398 O 0.72896 0.47081 0.20908
 O1399 O 0.79437 0.49857 0.27232
 O1400 O 0.78960 0.52813 0.26903
 O1401 O 0.75007 0.47705 0.29500
 O1402 O 0.71837 0.47913 0.28876
 O1403 O 0.77100 0.45410 0.25089
 O1404 O 0.77012 0.45994 0.21992
 O1405 O 0.79429 0.47762 0.25137
 O1406 O 0.78769 0.47943 0.21911
 O1407 O 0.75001 0.45404 0.27179
 O1408 O 0.71984 0.45895 0.26876
 O1409 O 0.77144 0.49757 0.29492
 O1410 O 0.76582 0.52911 0.28937
 O1411 O 0.70216 0.50132 0.22812
 O1412 O 0.70872 0.47000 0.23004
 O1413 O 0.74726 0.52137 0.20317
 O1414 O 0.77888 0.51848 0.21017
 O1415 O 0.72704 0.54613 0.24838
 O1416 O 0.73093 0.53908 0.27962
 Zr1417 Zr 0.72781 0.52092 0.25910
 O1418 O 0.74295 0.50524 0.27570
 Zr1419 Zr 0.75826 0.52060 0.22831
 O1420 O 0.77489 0.50542 0.24393
 Zr1421 Zr 0.72738 0.49029 0.22848
 O1422 O 0.74286 0.47358 0.24374
 Zr1423 Zr 0.76939 0.50945 0.27035
 O1424 O 0.75436 0.52649 0.25478
 Zr1425 Zr 0.73874 0.47888 0.27016
 O1426 O 0.72186 0.49446 0.25494
 Zr1427 Zr 0.76942 0.47901 0.23972
 O1428 O 0.75392 0.49423 0.22274
 O1429 O 0.73195 0.51653 0.23277
 O1430 O 0.76521 0.48304 0.26609
 C1431 C 0.69496 0.51360 0.23690
 C1432 C 0.73621 0.55349 0.23652
 C1433 C 0.73490 0.51275 0.19591
 C1434 C 0.80152 0.48613 0.26380
 C1435 C 0.76276 0.48526 0.30210
 C1436 C 0.76246 0.44689 0.26328
 H1437 H 0.74024 0.50810 0.28793
 H1438 H 0.73989 0.46138 0.24100
 H1439 H 0.72456 0.52409 0.22542
 H1440 H 0.78716 0.50832 0.24131
 H1441 H 0.78411 0.53918 0.26533
 H1442 H 0.78579 0.53821 0.23590
 H1443 H 0.71014 0.46356 0.26164
 H1444 H 0.70002 0.47160 0.22063
 H1445 H 0.77575 0.52850 0.29759
 H1446 H 0.72170 0.54806 0.27864
 H1447 H 0.75898 0.45349 0.22036
 H1448 H 0.74058 0.47186 0.20360
 H1449 H 0.70315 0.50811 0.27805
 H1450 H 0.72014 0.48926 0.29646
 H1451 H 0.77666 0.50788 0.20322
 H1452 H 0.79598 0.48901 0.22135
 O1453 O 0.50008 0.20374 0.72763
 O1454 O 0.47033 0.20941 0.73031
 O1455 O 0.52095 0.24932 0.70361
 O1456 O 0.52167 0.27795 0.70872
 O1457 O 0.54573 0.22742 0.74894
 O1458 O 0.54005 0.23065 0.77898
 O1459 O 0.47632 0.29549 0.75090
 O1460 O 0.47949 0.29052 0.72138
 O1461 O 0.45382 0.25138 0.77287
 O1462 O 0.46019 0.21978 0.77105
 O1463 O 0.49813 0.27255 0.79549
 O1464 O 0.52914 0.27175 0.78949
 O1465 O 0.49742 0.29562 0.77176
 O1466 O 0.52979 0.28913 0.76988
 O1467 O 0.47724 0.25156 0.79581
 O1468 O 0.48031 0.22146 0.79112
 O1469 O 0.45373 0.27252 0.75216
 O1470 O 0.45919 0.26674 0.72066
 O1471 O 0.52100 0.20364 0.74870
 O1472 O 0.51913 0.21038 0.77998
 O1473 O 0.54573 0.24861 0.72822
 O1474 O 0.53859 0.28009 0.73082
 O1475 O 0.50038 0.22797 0.70384
 O1476 O 0.46906 0.23190 0.71092
 Zr1477 Zr 0.48970 0.22898 0.72907
 O1478 O 0.47308 0.24414 0.74468
 Zr1479 Zr 0.52046 0.25944 0.72898
 O1480 O 0.50482 0.27609 0.74410
 Zr1481 Zr 0.52054 0.22887 0.75957
 O1482 O 0.50527 0.24439 0.77620
 Zr1483 Zr 0.47833 0.27050 0.74022
 O1484 O 0.49391 0.25542 0.72324
 Zr1485 Zr 0.47877 0.24016 0.77105
 O1486 O 0.49401 0.22324 0.75555
 Zr1487 Zr 0.50919 0.27085 0.77053
 O1488 O 0.52619 0.25533 0.75537
 O1489 O 0.51610 0.23323 0.73331
 O1490 O 0.48274 0.26654 0.76665
 C1491 C 0.51216 0.19635 0.73652
 C1492 C 0.51226 0.23703 0.69638
 C1493 C 0.55309 0.23638 0.73693
 C1494 C 0.48491 0.30274 0.76323
 C1495 C 0.44661 0.26393 0.76456
 C1496 C 0.48580 0.26403 0.80283
 H1497 H 0.46081 0.24138 0.74188
 H1498 H 0.50809 0.24153 0.78841
 H1499 H 0.52348 0.22582 0.72581
 H1500 H 0.50740 0.28831 0.74109
 H1501 H 0.48320 0.28498 0.71037
 H1502 H 0.51271 0.28682 0.71126
 H1503 H 0.48748 0.21178 0.78658
 H1504 H 0.52861 0.20173 0.77843
 H1505 H 0.45091 0.27661 0.72122
 H1506 H 0.47002 0.22260 0.70204
 H1507 H 0.52878 0.26070 0.79603
 H1508 H 0.54552 0.24224 0.77780
 H1509 H 0.47085 0.20440 0.74215
 H1510 H 0.45243 0.22142 0.76092
 H1511 H 0.54557 0.27803 0.74144
 H1512 H 0.52747 0.29732 0.76024
 O1513 O 0.29731 0.75144 0.47699
 O1514 O 0.29186 0.72172 0.47958
 O1515 O 0.25120 0.77218 0.45364
 O1516 O 0.22254 0.77264 0.45912
 O1517 O 0.27356 0.79668 0.49885
 O1518 O 0.27067 0.79083 0.52890
 O1519 O 0.20577 0.72707 0.50127
 O1520 O 0.21035 0.73045 0.47171
 O1521 O 0.25046 0.70472 0.52253
 O1522 O 0.28207 0.71132 0.52036
 O1523 O 0.22917 0.74859 0.54566
 O1524 O 0.22971 0.77964 0.53986
 O1525 O 0.20574 0.74799 0.52224
 O1526 O 0.21200 0.78028 0.52052
 O1527 O 0.25034 0.72787 0.54562
 O1528 O 0.28043 0.73124 0.54062
 O1529 O 0.22899 0.70467 0.50209
 O1530 O 0.23433 0.71038 0.47055
 O1531 O 0.29753 0.77214 0.49820
 O1532 O 0.29115 0.77008 0.52956
 O1533 O 0.25208 0.79671 0.47838
 O1534 O 0.22059 0.78943 0.48136
 O1535 O 0.27270 0.75175 0.45354
 O1536 O 0.26909 0.72044 0.46048
 Zr1537 Zr 0.27210 0.74093 0.47870
 O1538 O 0.25719 0.72417 0.49439
 Zr1539 Zr 0.24136 0.77145 0.47914
 O1540 O 0.22495 0.75566 0.49438
 Zr1541 Zr 0.27237 0.77150 0.50937
 O1542 O 0.25711 0.75607 0.52610
 Zr1543 Zr 0.23068 0.72929 0.49028
 O1544 O 0.24549 0.74502 0.47321
 Zr1545 Zr 0.26148 0.72969 0.52074
 O1546 O 0.27814 0.74509 0.50513
 Zr1547 Zr 0.23049 0.75985 0.52078
 O1548 O 0.24575 0.77700 0.50552
 O1549 O 0.26771 0.76721 0.48315
 O1550 O 0.23494 0.73353 0.51668
 C1551 C 0.30475 0.76346 0.48587
 C1552 C 0.26348 0.76360 0.44623
 C1553 C 0.26442 0.80404 0.48697
 C1554 C 0.19858 0.73551 0.51374
 C1555 C 0.23782 0.69753 0.51433
 C1556 C 0.23784 0.73627 0.55283
 H1557 H 0.26001 0.71197 0.49148
 H1558 H 0.26011 0.75880 0.53830
 H1559 H 0.27501 0.77465 0.47559
 H1560 H 0.21264 0.75818 0.49154
 H1561 H 0.21573 0.73429 0.46066
 H1562 H 0.21369 0.76370 0.46177
 H1563 H 0.29003 0.73847 0.53601
 H1564 H 0.29975 0.77959 0.52794
 H1565 H 0.22450 0.70204 0.47119
 H1566 H 0.27828 0.72152 0.45148
 H1567 H 0.24085 0.77923 0.54632
 H1568 H 0.25900 0.79621 0.52790
 H1569 H 0.29705 0.72222 0.49134
 H1570 H 0.28034 0.70363 0.51021
 H1571 H 0.22274 0.79631 0.49201
 H1572 H 0.20375 0.77805 0.51090
 O1573 O 0.25112 0.27176 0.95502
 O1574 O 0.22133 0.26911 0.96059
 O1575 O 0.27191 0.29577 1.00062
 O1576 O 0.27245 0.29063 1.02928
 O1577 O 0.29668 0.25044 0.97882
 O1578 O 0.29097 0.22036 0.98209
 O1579 O 0.22712 0.24841 1.04669
 O1580 O 0.23033 0.27792 1.04177
 O1581 O 0.20467 0.22658 1.00245
 O1582 O 0.21119 0.22840 0.97087
 O1583 O 0.24892 0.20385 1.02376
 O1584 O 0.28000 0.20985 1.02304
 O1585 O 0.24823 0.22755 1.04687
 O1586 O 0.28056 0.22935 1.04049
 O1587 O 0.22806 0.20356 1.00273
 O1588 O 0.23122 0.20825 0.97268
 O1589 O 0.20456 0.24726 1.02361
 O1590 O 0.21011 0.27875 1.01791
 O1591 O 0.27204 0.25068 0.95497
 O1592 O 0.27014 0.21942 0.96169
 O1593 O 0.29664 0.27116 1.00000
 O1594 O 0.28946 0.26850 1.03145
 O1595 O 0.25136 0.29552 0.97925
 O1596 O 0.22002 0.28847 0.98306
 Zr1597 Zr 0.24065 0.27031 0.98022
 O1598 O 0.22400 0.25471 0.99533
 Zr1599 Zr 0.27135 0.27038 1.01077
 O1600 O 0.25567 0.25523 1.02736
 Zr1601 Zr 0.27149 0.23980 0.98020
 O1602 O 0.25616 0.22316 0.99565
 Zr1603 Zr 0.22919 0.25913 1.02171
 O1604 O 0.24480 0.27613 1.00668
 Zr1605 Zr 0.22967 0.22834 0.99135
 O1606 O 0.24497 0.24383 0.97449
 Zr1607 Zr 0.26002 0.22879 1.02212
 O1608 O 0.27707 0.24398 1.00667
 O1609 O 0.26704 0.26605 0.98455
 O1610 O 0.23358 0.23270 1.01775
 C1611 C 0.26322 0.26288 0.94766
 C1612 C 0.26324 0.30300 0.98831
 C1613 C 0.30400 0.26247 0.98778
 C1614 C 0.23570 0.23606 1.05396
 C1615 C 0.19743 0.23491 1.01496
 C1616 C 0.23660 0.19651 1.01522
 H1617 H 0.21174 0.25753 0.99253
 H1618 H 0.25897 0.21095 0.99279
 H1619 H 0.27444 0.27356 0.97716
 H1620 H 0.25822 0.25822 1.03959
 H1621 H 0.23408 0.28893 1.03626
 H1622 H 0.26358 0.28799 1.03821
 H1623 H 0.23849 0.21275 0.96306
 H1624 H 0.27967 0.22096 0.95311
 H1625 H 0.20180 0.27819 1.02776
 H1626 H 0.22102 0.29737 0.97377
 H1627 H 0.27958 0.20325 1.01202
 H1628 H 0.29645 0.22158 0.99367
 H1629 H 0.22190 0.25730 0.95554
 H1630 H 0.20343 0.23854 0.97249
 H1631 H 0.29640 0.25785 1.02942
 H1632 H 0.27831 0.23907 1.04860
 C1633 C 0.27613 0.39720 0.77802
 C1634 C 0.28446 0.38570 0.76663
 C1635 C 0.29015 0.36948 0.77258
 C1636 C 0.28760 0.36455 0.79001
 C1637 C 0.27901 0.37614 0.80128
 C1638 C 0.27334 0.39234 0.79531
 C1639 C 0.27104 0.41425 0.77224
 C1640 C 0.26703 0.42874 0.76784
 H1641 H 0.28669 0.38934 0.75322
 H1642 H 0.29652 0.36079 0.76353
 H1643 H 0.27707 0.37291 0.81482
 H1644 H 0.26702 0.40118 0.80427
 C1645 C 0.27891 -0.10152 0.27901
 C1646 C 0.27078 -0.10967 0.29303
 C1647 C 0.27651 -0.12595 0.29874
 C1648 C 0.29066 -0.13449 0.29056
 C1649 C 0.29850 -0.12606 0.27617
 C1650 C 0.29269 -0.10979 0.27054
 C1651 C 0.27345 -0.08446 0.27360
 C1652 C 0.26911 -0.07004 0.26925
 H1653 H 0.26007 -0.10336 0.29970
 H1654 H 0.26978 -0.13149 0.30972
 H1655 H 0.30919 -0.13176 0.26909
 H1656 H 0.29908 -0.10358 0.25962
 C1657 C 0.77947 0.89904 0.77894
 C1658 C 0.77030 0.89024 0.79189
 C1659 C 0.77623 0.87418 0.79799
 C1660 C 0.79161 0.86651 0.79128
 C1661 C 0.80050 0.87555 0.77793
 C1662 C 0.79449 0.89162 0.77190
 C1663 C 0.77378 0.91593 0.77326
 C1664 C 0.76923 0.93024 0.76877
 H1665 H 0.75860 0.89586 0.79741
 H1666 H 0.76853 0.86796 0.80793
 H1667 H 0.81233 0.87063 0.77218
 H1668 H 0.80173 0.89836 0.76187
 C1669 C 0.47168 0.85138 0.27822
 C1670 C 0.47967 0.85915 0.29253
 C1671 C 0.47397 0.87531 0.29853
 C1672 C 0.45997 0.88413 0.29037
 C1673 C 0.45226 0.87610 0.27569
 C1674 C 0.45805 0.85992 0.26976
 C1675 C 0.47713 0.83441 0.27254
 C1676 C 0.48153 0.82006 0.26803
 H1677 H 0.49025 0.85261 0.29920
 H1678 H 0.48053 0.88052 0.30977
 H1679 H 0.44174 0.88208 0.26858
 H1680 H 0.45178 0.85402 0.25861
 C1681 C -0.02850 0.85107 0.77977
 C1682 C -0.04136 0.86005 0.77061
 C1683 C -0.04729 0.87617 0.77653
 C1684 C -0.04052 0.88370 0.79191
 C1685 C -0.02726 0.87446 0.80080
 C1686 C -0.02140 0.85835 0.79479
 C1687 C -0.02298 0.83414 0.77407
 C1688 C -0.01857 0.81981 0.76950
 H1689 H -0.04692 0.85454 0.75890
 H1690 H -0.05716 0.88253 0.76884
 H1691 H -0.02146 0.87927 0.81263
 H1692 H -0.01143 0.85146 0.80202
 C1693 C -0.02867 -0.10070 -0.02988
 C1694 C -0.03687 -0.11226 -0.01847
 C1695 C -0.04288 -0.12832 -0.02451
 C1696 C -0.04077 -0.13302 -0.04206
 C1697 C -0.03234 -0.12135 -0.05337
 C1698 C -0.02636 -0.10531 -0.04731
 C1699 C -0.02308 -0.08389 -0.02389
 C1700 C -0.01860 -0.06965 -0.01918
 H1701 H -0.03873 -0.10882 -0.00495
 H1702 H -0.04911 -0.13708 -0.01544
 H1703 H -0.03073 -0.12443 -0.06699
 H1704 H -0.02012 -0.09642 -0.05627
 C1705 C -0.02799 0.39884 0.47041
 C1706 C -0.04034 0.38964 0.48003
 C1707 C -0.04609 0.37336 0.47438
 C1708 C -0.03965 0.36588 0.45884
 C1709 C -0.02690 0.37534 0.44948
 C1710 C -0.02121 0.39162 0.45521
 C1711 C -0.02264 0.41590 0.47588
 C1712 C -0.01837 0.43032 0.48027
 H1713 H -0.04563 0.39510 0.49188
 H1714 H -0.05555 0.36683 0.48243
 H1715 H -0.02139 0.37058 0.43750
 H1716 H -0.01165 0.39867 0.44763
 C1717 C 0.47395 -0.10279 0.47267
 C1718 C 0.46123 -0.11198 0.48181
 C1719 C 0.45551 -0.12815 0.47582
 C1720 C 0.46235 -0.13552 0.46039
 C1721 C 0.47555 -0.12613 0.45160
 C1722 C 0.48120 -0.10997 0.45766
 C1723 C 0.47903 -0.08568 0.47824
 C1724 C 0.48301 -0.07115 0.48254
 H1725 H 0.45555 -0.10654 0.49350
 H1726 H 0.44571 -0.13464 0.48347
 H1727 H 0.48143 -0.13084 0.43977
 H1728 H 0.49106 -0.10293 0.45045
 C1729 C 0.47092 0.39800 -0.02837
 C1730 C 0.45646 0.39013 -0.02070
 C1731 C 0.45076 0.37385 -0.02642
 C1732 C 0.45940 0.36503 -0.04009
 C1733 C 0.47421 0.37318 -0.04746
 C1734 C 0.47983 0.38946 -0.04167
 C1735 C 0.47631 0.41506 -0.02293
 C1736 C 0.48061 0.42949 -0.01859
 H1737 H 0.44943 0.39666 -0.01039
 H1738 H 0.43938 0.36857 -0.02014
 H1739 H 0.48168 0.36720 -0.05771
 H1740 H 0.49110 0.39544 -0.04769
 C1741 C 0.77883 0.35230 0.47319
 C1742 C 0.79629 0.35700 0.47541
 C1743 C 0.80229 0.37301 0.46929
 C1744 C 0.79090 0.38457 0.46080
 C1745 C 0.77330 0.37981 0.45881
 C1746 C 0.76732 0.36377 0.46496
 C1747 C 0.77301 0.33540 0.47869
 C1748 C 0.76861 0.32100 0.48300
 H1749 H 0.80535 0.34817 0.48165
 H1750 H 0.81595 0.37611 0.47081
 H1751 H 0.76416 0.38848 0.45253
 H1752 H 0.75377 0.36025 0.46314
 C1753 C 0.77890 0.85160 -0.02801
 C1754 C 0.79404 0.85885 -0.02103
 C1755 C 0.80021 0.87483 -0.02710
 C1756 C 0.79139 0.88395 -0.04047
 C1757 C 0.77589 0.87647 -0.04710
 C1758 C 0.76979 0.86050 -0.04095
 C1759 C 0.77308 0.83475 -0.02235
 C1760 C 0.76844 0.82046 -0.01791
 H1761 H 0.80123 0.85202 -0.01101
 H1762 H 0.81213 0.87960 -0.02142
 H1763 H 0.76823 0.88277 -0.05702
 H1764 H 0.75801 0.85501 -0.04643
 C1765 C 0.77687 0.27796 0.39792
 C1766 C 0.77419 0.29525 0.39302
 C1767 C 0.77972 0.30108 0.37674
 C1768 C 0.78805 0.28966 0.36511
 C1769 C 0.79051 0.27223 0.37009
 C1770 C 0.78495 0.26642 0.38640
 C1771 C 0.77188 0.27231 0.41503
 C1772 C 0.76791 0.26804 0.42957
 H1773 H 0.76805 0.30432 0.40188
 H1774 H 0.77787 0.31462 0.37346
 H1775 H 0.79668 0.26308 0.36138
 H1776 H 0.78710 0.25300 0.39009
 C1777 C 0.77805 0.78000 -0.10100
 C1778 C 0.77105 0.79501 -0.10844
 C1779 C 0.77711 0.80095 -0.12450
 C1780 C 0.79047 0.79201 -0.13353
 C1781 C 0.79713 0.77664 -0.12586
 C1782 C 0.79100 0.77078 -0.10979
 C1783 C 0.77235 0.77437 -0.08410
 C1784 C 0.76785 0.76985 -0.06980
 H1785 H 0.76102 0.80228 -0.10170
 H1786 H 0.77140 0.81278 -0.12942
 H1787 H 0.80706 0.76891 -0.13207
 H1788 H 0.79648 0.75909 -0.10415
 C1789 C 0.27585 0.47153 0.85280
 C1790 C 0.27293 0.45432 0.85787
 C1791 C 0.27878 0.44844 0.87403
 C1792 C 0.28768 0.45971 0.88538
 C1793 C 0.29038 0.47706 0.88023
 C1794 C 0.28451 0.48292 0.86404
 C1795 C 0.27056 0.47722 0.83578
 C1796 C 0.26640 0.48157 0.82131
 H1797 H 0.26635 0.44536 0.84921
 H1798 H 0.27671 0.43496 0.87743
 H1799 H 0.29700 0.48610 0.88873
 H1800 H 0.28686 0.49627 0.86024
 C1801 C 0.27856 -0.02834 0.35248
 C1802 C 0.26984 -0.04170 0.36113
 C1803 C 0.27558 -0.04732 0.37743
 C1804 C 0.29033 -0.03973 0.38549
 C1805 C 0.29877 -0.02601 0.37656
 C1806 C 0.29295 -0.02046 0.36026
 C1807 C 0.27306 -0.02303 0.33540
 C1808 C 0.26871 -0.01872 0.32097
 H1809 H 0.25863 -0.04788 0.35521
 H1810 H 0.26828 -0.05766 0.38347
 H1811 H 0.31005 -0.01951 0.38179
 H1812 H 0.29983 -0.01009 0.35365
 C1813 C -0.02885 -0.02909 -0.10072
 C1814 C -0.04204 -0.02022 -0.10952
 C1815 C -0.04798 -0.02624 -0.12561
 C1816 C -0.04089 -0.04141 -0.13328
 C1817 C -0.02732 -0.05000 -0.12420
 C1818 C -0.02145 -0.04391 -0.10813
 C1819 C -0.02327 -0.02332 -0.08383
 C1820 C -0.01877 -0.01877 -0.06953
 H1821 H -0.04785 -0.00869 -0.10390
 H1822 H -0.05814 -0.01879 -0.13181
 H1823 H -0.02124 -0.06163 -0.12912
 H1824 H -0.01123 -0.05090 -0.10138
 C1825 C -0.02817 0.47187 0.39740
 C1826 C -0.01936 0.45864 0.38866
 C1827 C -0.02537 0.45274 0.37256
 C1828 C -0.04050 0.45992 0.36482
 C1829 C -0.04900 0.47358 0.37380
 C1830 C -0.04291 0.47940 0.38989
 C1831 C -0.02247 0.47733 0.41435
 C1832 C -0.01799 0.48170 0.42871
 H1833 H -0.00788 0.45273 0.39436
 H1834 H -0.01798 0.44252 0.36642
 H1835 H -0.06058 0.47975 0.36881
 H1836 H -0.04986 0.48967 0.39658
 C1837 C 0.47431 -0.02811 0.39748
 C1838 C 0.46609 -0.01670 0.38593
 C1839 C 0.46022 -0.02270 0.36980
 C1840 C 0.46247 -0.04022 0.36503
 C1841 C 0.47098 -0.05151 0.37666
 C1842 C 0.47683 -0.04549 0.39277
 C1843 C 0.47947 -0.02229 0.41448
 C1844 C 0.48351 -0.01787 0.42896
 H1845 H 0.46405 -0.00322 0.38946
 H1846 H 0.45392 -0.01364 0.36107
 H1847 H 0.47270 -0.06511 0.37355
 H1848 H 0.48307 -0.05446 0.40166
 C1849 C 0.47185 0.47066 -0.10223
 C1850 C 0.45949 0.48032 -0.11138
 C1851 C 0.45372 0.47474 -0.12768
 C1852 C 0.46016 0.45922 -0.13522
 C1853 C 0.47295 0.44983 -0.12581
 C1854 C 0.47864 0.45549 -0.10951
 C1855 C 0.47717 0.47605 -0.08513
 C1856 C 0.48137 0.48044 -0.07069
 H1857 H 0.45418 0.49215 -0.10587
 H1858 H 0.44426 0.48282 -0.13418
 H1859 H 0.47845 0.43787 -0.13063
 H1860 H 0.48822 0.44789 -0.10249
 C1861 C 0.47261 0.77977 0.35036
 C1862 C 0.47511 0.79709 0.35531
 C1863 C 0.46948 0.80283 0.37159
 C1864 C 0.46123 0.79132 0.38319
 C1865 C 0.45887 0.77390 0.37813
 C1866 C 0.46453 0.76818 0.36183
 C1867 C 0.47796 0.77408 0.33337
 C1868 C 0.48228 0.76957 0.31899
 H1869 H 0.48125 0.80620 0.34650
 H1870 H 0.47126 0.81637 0.37494
 H1871 H 0.45277 0.76467 0.38681
 H1872 H 0.46253 0.75474 0.35813
 C1873 C -0.02960 0.77882 0.85092
 C1874 C -0.02035 0.79159 0.85988
 C1875 C -0.02638 0.79772 0.87589
 C1876 C -0.04196 0.79122 0.88333
 C1877 C -0.05094 0.77803 0.87412
 C1878 C -0.04483 0.77199 0.85811
 C1879 C -0.02378 0.77314 0.83407
 C1880 C -0.01912 0.76866 0.81980
 H1881 H -0.00849 0.79695 0.85443
 H1882 H -0.01860 0.80750 0.88224
 H1883 H -0.06292 0.77247 0.87886
 H1884 H -0.05213 0.76210 0.85123
 C1885 C 0.39887 0.77891 0.27810
 C1886 C 0.39385 0.77606 0.29533
 C1887 C 0.37754 0.78163 0.30115
 C1888 C 0.36598 0.79017 0.28979
 C1889 C 0.37111 0.79286 0.27243
 C1890 C 0.38745 0.78727 0.26664
 C1891 C 0.41590 0.77361 0.27236
 C1892 C 0.43031 0.76928 0.26787
 H1893 H 0.40264 0.76969 0.30434
 H1894 H 0.37415 0.77958 0.31464
 H1895 H 0.36245 0.79921 0.26332
 H1896 H 0.39120 0.78953 0.25326
 C1897 C -0.10091 0.77855 0.77997
 C1898 C -0.10559 0.77629 0.79739
 C1899 C -0.12168 0.78229 0.80339
 C1900 C -0.13334 0.79070 0.79203
 C1901 C -0.12857 0.79278 0.77449
 C1902 C -0.11246 0.78674 0.76851
 C1903 C -0.08404 0.77294 0.77404
 C1904 C -0.06973 0.76846 0.76940
 H1905 H -0.09670 0.77006 0.80639
 H1906 H -0.12480 0.78071 0.81700
 H1907 H -0.13732 0.79899 0.76538
 H1908 H -0.10896 0.78857 0.75499
 C1909 C 0.85341 0.27792 0.47378
 C1910 C 0.86499 0.26646 0.46567
 C1911 C 0.88115 0.27243 0.45976
 C1912 C 0.88593 0.28996 0.46189
 C1913 C 0.87426 0.30130 0.47030
 C1914 C 0.85812 0.29531 0.47618
 C1915 C 0.83637 0.27213 0.47901
 C1916 C 0.82187 0.26774 0.48311
 H1917 H 0.86145 0.25297 0.46373
 H1918 H 0.88991 0.26333 0.45355
 H1919 H 0.87738 0.31491 0.47192
 H1920 H 0.84920 0.30433 0.48233
 C1921 C 0.84990 0.78043 -0.02940
 C1922 C 0.85460 0.79785 -0.02715
 C1923 C 0.87071 0.80382 -0.03315
 C1924 C 0.88236 0.79244 -0.04153
 C1925 C 0.87755 0.77491 -0.04361
 C1926 C 0.86143 0.76896 -0.03758
 C1927 C 0.83305 0.77451 -0.02372
 C1928 C 0.81878 0.76983 -0.01917
 H1929 H 0.84573 0.80686 -0.02093
 H1930 H 0.87385 0.81743 -0.03157
 H1931 H 0.88629 0.76578 -0.04980
 H1932 H 0.85792 0.75544 -0.03939
 C1933 C -0.10086 -0.02875 -0.02931
 C1934 C -0.10950 -0.04198 -0.02038
 C1935 C -0.12556 -0.04814 -0.02635
 C1936 C -0.13338 -0.04124 -0.04154
 C1937 C -0.12448 -0.02762 -0.05019
 C1938 C -0.10843 -0.02153 -0.04415
 C1939 C -0.08396 -0.02300 -0.02361
 C1940 C -0.06963 -0.01844 -0.01908
 H1941 H -0.10376 -0.04766 -0.00884
 H1942 H -0.13162 -0.05833 -0.01886
 H1943 H -0.12952 -0.02167 -0.06184
 H1944 H -0.10181 -0.01129 -0.05120
 C1945 C -0.10062 0.47146 0.46915
 C1946 C -0.10793 0.47814 0.45394
 C1947 C -0.12415 0.47223 0.44815
 C1948 C -0.13346 0.45935 0.45747
 C1949 C -0.12589 0.45300 0.47301
 C1950 C -0.10968 0.45898 0.47872
 C1951 C -0.08361 0.47705 0.47471
 C1952 C -0.06924 0.48148 0.47921
 H1953 H -0.10099 0.48781 0.44640
 H1954 H -0.12898 0.47767 0.43617
 H1955 H -0.13231 0.44345 0.48103
 H1956 H -0.10414 0.45375 0.49058
 C1957 C 0.39759 -0.02653 0.47274
 C1958 C 0.38857 -0.03924 0.48204
 C1959 C 0.37225 -0.04495 0.47635
 C1960 C 0.36456 -0.03812 0.46106
 C1961 C 0.37379 -0.02494 0.45210
 C1962 C 0.39010 -0.01930 0.45787
 C1963 C 0.41482 -0.02142 0.47803
 C1964 C 0.42944 -0.01741 0.48213
 H1965 H 0.39424 -0.04490 0.49363
 H1966 H 0.36590 -0.05475 0.48411
 H1967 H 0.36884 -0.01906 0.44038
 H1968 H 0.39701 -0.00944 0.45055
 C1969 C 0.39814 0.47017 -0.02993
 C1970 C 0.39050 0.45561 -0.02224
 C1971 C 0.37417 0.44979 -0.02778
 C1972 C 0.36504 0.45840 -0.04128
 C1973 C 0.37298 0.47327 -0.04871
 C1974 C 0.38932 0.47901 -0.04310
 C1975 C 0.41520 0.47579 -0.02453
 C1976 C 0.42958 0.48029 -0.02013
 H1977 H 0.39725 0.44863 -0.01203
 H1978 H 0.36907 0.43836 -0.02147
 H1979 H 0.36678 0.48070 -0.05886
 H1980 H 0.39511 0.49035 -0.04912
 C1981 C 0.35218 0.47351 0.77801
 C1982 C 0.35710 0.47591 0.79534
 C1983 C 0.37338 0.47017 0.80112
 C1984 C 0.38498 0.46190 0.78962
 C1985 C 0.37999 0.45976 0.77214
 C1986 C 0.36369 0.46552 0.76639
 C1987 C 0.33504 0.47861 0.77242
 C1988 C 0.32047 0.48259 0.76814
 H1989 H 0.34824 0.48197 0.80448
 H1990 H 0.37665 0.47179 0.81469
 H1991 H 0.38869 0.45364 0.76292
 H1992 H 0.36000 0.46359 0.75294
 C1993 C 0.35145 -0.02914 0.28046
 C1994 C 0.36277 -0.03740 0.26884
 C1995 C 0.37909 -0.04320 0.27450
 C1996 C 0.38430 -0.04080 0.29188
 C1997 C 0.37285 -0.03234 0.30340
 C1998 C 0.35655 -0.02658 0.29772
 C1999 C 0.33444 -0.02364 0.27481
 C2000 C 0.32007 -0.01920 0.27029
 H2001 H 0.35895 -0.03944 0.25544
 H2002 H 0.38766 -0.04945 0.26526
 H2003 H 0.37632 -0.03052 0.31690
 H2004 H 0.34784 -0.02028 0.30684
 C2005 C 0.14776 0.52915 0.72098
 C2006 C 0.13629 0.51748 0.71302
 C2007 C 0.11992 0.52314 0.70735
 C2008 C 0.11482 0.54057 0.70957
 C2009 C 0.12643 0.55216 0.71770
 C2010 C 0.14278 0.54648 0.72335
 C2011 C 0.16480 0.52349 0.72640
 C2012 C 0.17920 0.51900 0.73079
 H2013 H 0.14001 0.50403 0.71114
 H2014 H 0.11123 0.51386 0.70134
 H2015 H 0.12305 0.56570 0.71938
 H2016 H 0.15160 0.55565 0.72941
 C2017 C 0.14730 0.02863 0.22375
 C2018 C 0.13585 0.01694 0.21575
 C2019 C 0.11953 0.02260 0.20997
 C2020 C 0.11443 0.04005 0.21209
 C2021 C 0.12598 0.05163 0.22032
 C2022 C 0.14228 0.04595 0.22608
 C2023 C 0.16441 0.02306 0.22901
 C2024 C 0.17893 0.01874 0.23316
 H2025 H 0.13960 0.00350 0.21387
 H2026 H 0.11088 0.01332 0.20389
 H2027 H 0.12261 0.06519 0.22193
 H2028 H 0.15108 0.05513 0.23215
 C2029 C 0.60359 0.72238 0.22312
 C2030 C 0.60871 0.70512 0.22571
 C2031 C 0.62515 0.69953 0.22027
 C2032 C 0.63672 0.71113 0.21211
 C2033 C 0.63151 0.72852 0.20973
 C2034 C 0.61505 0.73409 0.21519
 C2035 C 0.58634 0.72782 0.22804
 C2036 C 0.57172 0.73202 0.23193
 H2037 H 0.59989 0.69592 0.23173
 H2038 H 0.62860 0.68602 0.22207
 H2039 H 0.64018 0.73781 0.20369
 H2040 H 0.61121 0.74748 0.21311
 C2041 C 0.10326 0.72276 0.72227
 C2042 C 0.11484 0.71463 0.73374
 C2043 C 0.13115 0.70904 0.72786
 C2044 C 0.13607 0.71149 0.71041
 C2045 C 0.12440 0.71988 0.69906
 C2046 C 0.10812 0.72545 0.70496
 C2047 C 0.08615 0.72781 0.72799
 C2048 C 0.07161 0.73185 0.73232
 H2049 H 0.11120 0.71248 0.74717
 H2050 H 0.13990 0.70282 0.73696
 H2051 H 0.12763 0.72173 0.68551
 H2052 H 0.09921 0.73163 0.69594
 C2053 C 0.64913 0.22088 0.52951
 C2054 C 0.64399 0.22373 0.54671
 C2055 C 0.62763 0.21819 0.55241
 C2056 C 0.61615 0.20967 0.54096
 C2057 C 0.62141 0.20694 0.52365
 C2058 C 0.63779 0.21252 0.51797
 C2059 C 0.66618 0.22622 0.52387
 C2060 C 0.68059 0.23060 0.51947
 H2061 H 0.65270 0.23011 0.55577
 H2062 H 0.62414 0.22026 0.56586
 H2063 H 0.61281 0.20061 0.51449
 H2064 H 0.64164 0.21024 0.50462
 C2065 C 0.64568 0.72208 0.02591
 C2066 C 0.64067 0.70479 0.02339
 C2067 C 0.62425 0.69913 0.02883
 C2068 C 0.61260 0.71070 0.03694
 C2069 C 0.61770 0.72812 0.03924
 C2070 C 0.63413 0.73376 0.03377
 C2071 C 0.66289 0.72762 0.02096
 C2072 C 0.67747 0.73191 0.01703
 H2073 H 0.64955 0.69561 0.01742
 H2074 H 0.62088 0.68559 0.02709
 H2075 H 0.60897 0.73740 0.04522
 H2076 H 0.63787 0.74718 0.03579
 C2077 C 0.10343 0.02739 0.02771
 C2078 C 0.11484 0.03574 0.01625
 C2079 C 0.13126 0.04116 0.02200
 C2080 C 0.13646 0.03829 0.03932
 C2081 C 0.12491 0.02973 0.05066
 C2082 C 0.10853 0.02434 0.04489
 C2083 C 0.08626 0.02240 0.02211
 C2084 C 0.07169 0.01837 0.01788
 H2085 H 0.11101 0.03817 0.00292
 H2086 H 0.13990 0.04752 0.01290
 H2087 H 0.12834 0.02757 0.06412
 H2088 H 0.09975 0.01799 0.05390
 C2089 C 0.10367 0.52827 0.52581
 C2090 C 0.11512 0.51668 0.53394
 C2091 C 0.13138 0.52245 0.53979
 C2092 C 0.13637 0.53991 0.53758
 C2093 C 0.12482 0.55138 0.52919
 C2094 C 0.10859 0.54559 0.52337
 C2095 C 0.08658 0.52267 0.52058
 C2096 C 0.07205 0.51841 0.51644
 H2097 H 0.11142 0.50324 0.53592
 H2098 H 0.14004 0.51326 0.54601
 H2099 H 0.12810 0.56495 0.52752
 H2100 H 0.09977 0.55470 0.51720
 C2101 C 0.60250 0.02966 0.52724
 C2102 C 0.61415 0.01780 0.53467
 C2103 C 0.63058 0.02335 0.54023
 C2104 C 0.63556 0.04086 0.53843
 C2105 C 0.62380 0.05263 0.53076
 C2106 C 0.60739 0.04705 0.52523
 C2107 C 0.58536 0.02413 0.52210
 C2108 C 0.57088 0.01973 0.51795
 H2109 H 0.61050 0.00430 0.53627
 H2110 H 0.63940 0.01394 0.54587
 H2111 H 0.62710 0.06623 0.52942
 H2112 H 0.59843 0.05636 0.51958
 C2113 C 0.60228 0.52829 0.02640
 C2114 C 0.60731 0.54558 0.02389
 C2115 C 0.62368 0.55124 0.02948
 C2116 C 0.63526 0.53967 0.03771
 C2117 C 0.63013 0.52226 0.04003
 C2118 C 0.61374 0.51662 0.03441
 C2119 C 0.58513 0.52274 0.02125
 C2120 C 0.57060 0.51844 0.01715
 H2121 H 0.59850 0.55474 0.01780
 H2122 H 0.62707 0.56477 0.02772
 H2123 H 0.63880 0.51299 0.04612
 H2124 H 0.60997 0.50321 0.03643
 C2125 C 0.02818 0.02651 0.10334
 C2126 C 0.04316 0.01952 0.11091
 C2127 C 0.04878 0.02532 0.12719
 C2128 C 0.03956 0.03841 0.13629
 C2129 C 0.02419 0.04501 0.12850
 C2130 C 0.01865 0.03914 0.11222
 C2131 C 0.02297 0.02123 0.08617
 C2132 C 0.01883 0.01715 0.07161
 H2133 H 0.05068 0.00974 0.10410
 H2134 H 0.06061 0.01965 0.13221
 H2135 H 0.01623 0.05471 0.13476
 H2136 H 0.00697 0.04462 0.10649
 C2137 C 0.02729 0.52714 0.60174
 C2138 C 0.02428 0.54436 0.60672
 C2139 C 0.02976 0.55024 0.62299
 C2140 C 0.03838 0.53896 0.63456
 C2141 C 0.04118 0.52160 0.62951
 C2142 C 0.03567 0.51574 0.61319
 C2143 C 0.02230 0.52146 0.58463
 C2144 C 0.01832 0.51722 0.57009
 H2145 H 0.01791 0.55333 0.59791
 H2146 H 0.02764 0.56373 0.62632
 H2147 H 0.04759 0.51255 0.63817
 H2148 H 0.03808 0.50238 0.60946
 C2149 C 0.52923 0.02900 0.60153
 C2150 C 0.52118 0.04325 0.60935
 C2151 C 0.52675 0.04911 0.62562
 C2152 C 0.54066 0.04085 0.63449
 C2153 C 0.54843 0.02624 0.62639
 C2154 C 0.54278 0.02046 0.61011
 C2155 C 0.52388 0.02343 0.58448
 C2156 C 0.51954 0.01901 0.57009
 H2157 H 0.51066 0.04998 0.60279
 H2158 H 0.52010 0.06027 0.63089
 H2159 H 0.55893 0.01910 0.63236
 H2160 H 0.54910 0.00936 0.60416
 C2161 C 0.52594 0.52606 0.10250
 C2162 C 0.54319 0.52335 0.10770
 C2163 C 0.54876 0.52883 0.12409
 C2164 C 0.53713 0.53715 0.13554
 C2165 C 0.51975 0.53964 0.13025
 C2166 C 0.51420 0.53413 0.11383
 C2167 C 0.52056 0.52110 0.08529
 C2168 C 0.51649 0.51715 0.07068
 H2169 H 0.55242 0.51722 0.09898
 H2170 H 0.56228 0.52695 0.12758
 H2171 H 0.51044 0.54581 0.13882
 H2172 H 0.50081 0.53631 0.10993
 C2173 C 0.22057 0.52851 0.64859
 C2174 C 0.20332 0.52596 0.64333
 C2175 C 0.19778 0.53172 0.62701
 C2176 C 0.20945 0.54016 0.61571
 C2177 C 0.22682 0.54256 0.62108
 C2178 C 0.23233 0.53677 0.63741
 C2179 C 0.22606 0.52304 0.66561
 C2180 C 0.23043 0.51864 0.68000
 H2181 H 0.19408 0.51967 0.65192
 H2182 H 0.18428 0.52989 0.62342
 H2183 H 0.23617 0.54881 0.61261
 H2184 H 0.24573 0.53881 0.64135
 C2185 C 0.22329 0.02578 0.14768
 C2186 C 0.20606 0.02299 0.14247
 C2187 C 0.20044 0.02855 0.12612
 C2188 C 0.21200 0.03702 0.11472
 C2189 C 0.22938 0.03956 0.12000
 C2190 C 0.23497 0.03398 0.13639
 C2191 C 0.22869 0.02082 0.16489
 C2192 C 0.23279 0.01694 0.17950
 H2193 H 0.19687 0.01676 0.15116
 H2194 H 0.18693 0.02662 0.12262
 H2195 H 0.23864 0.04585 0.11147
 H2196 H 0.24835 0.03622 0.14030
 C2197 C 0.72117 0.22145 0.60205
 C2198 C 0.73289 0.21367 0.61362
 C2199 C 0.72720 0.20811 0.62997
 C2200 C 0.70969 0.21026 0.63497
 C2201 C 0.69805 0.21821 0.62327
 C2202 C 0.70376 0.22374 0.60693
 C2203 C 0.72686 0.22676 0.58505
 C2204 C 0.73139 0.23108 0.57068
 H2205 H 0.74640 0.21184 0.60998
 H2206 H 0.73653 0.20225 0.63874
 H2207 H 0.68444 0.21983 0.62657
 H2208 H 0.69455 0.22966 0.59804
 C2209 C 0.72251 0.72316 0.10292
 C2210 C 0.72530 0.70591 0.10793
 C2211 C 0.72008 0.70021 0.12436
 C2212 C 0.71194 0.71171 0.13605
 C2213 C 0.70932 0.72908 0.13094
 C2214 C 0.71457 0.73476 0.11448
 C2215 C 0.72731 0.72871 0.08572
 C2216 C 0.73118 0.73290 0.07113
 H2217 H 0.73133 0.69679 0.09905
 H2218 H 0.72205 0.68671 0.12773
 H2219 H 0.70329 0.73829 0.13969
 H2220 H 0.71234 0.74815 0.11073
 C2221 C 0.52683 0.72307 0.14601
 C2222 C 0.53476 0.73463 0.13441
 C2223 C 0.53999 0.72890 0.11796
 C2224 C 0.53735 0.71152 0.11291
 C2225 C 0.52921 0.70007 0.12464
 C2226 C 0.52401 0.70581 0.14106
 C2227 C 0.52205 0.72865 0.16320
 C2228 C 0.51820 0.73287 0.17779
 H2229 H 0.53702 0.74802 0.13812
 H2230 H 0.54603 0.73808 0.10918
 H2231 H 0.52723 0.68656 0.12132
 H2232 H 0.51798 0.69673 0.14997
 C2233 C 0.02856 0.72285 0.64731
 C2234 C 0.02556 0.70562 0.64237
 C2235 C 0.03127 0.69964 0.62621
 C2236 C 0.04012 0.71082 0.61473
 C2237 C 0.04293 0.72818 0.61976
 C2238 C 0.03719 0.73414 0.63596
 C2239 C 0.02328 0.72864 0.66430
 C2240 C 0.01904 0.73299 0.67874
 H2241 H 0.01900 0.69673 0.65111
 H2242 H 0.02913 0.68615 0.62290
 H2243 H 0.04951 0.73716 0.61116
 H2244 H 0.03960 0.74751 0.63966
 C2245 C 0.52618 0.64705 0.22098
 C2246 C 0.52364 0.64197 0.20371
 C2247 C 0.52904 0.62554 0.19814
 C2248 C 0.53710 0.61394 0.20979
 C2249 C 0.53943 0.61911 0.22718
 C2250 C 0.53401 0.63556 0.23272
 C2251 C 0.52123 0.66425 0.22643
 C2252 C 0.51731 0.67882 0.23065
 H2253 H 0.51769 0.65080 0.19448
 H2254 H 0.52728 0.62211 0.18463
 H2255 H 0.54538 0.61043 0.23652
 H2256 H 0.53604 0.63936 0.24613
 C2257 C 0.02607 0.64728 0.72158
 C2258 C 0.02330 0.64227 0.70433
 C2259 C 0.02889 0.62598 0.69857
 C2260 C 0.03737 0.61445 0.70999
 C2261 C 0.03989 0.61954 0.72738
 C2262 C 0.03428 0.63585 0.73313
 C2263 C 0.02109 0.66443 0.72717
 C2264 C 0.01720 0.67898 0.73148
 H2265 H 0.01707 0.65107 0.69526
 H2266 H 0.02698 0.62262 0.68506
 H2267 H 0.04618 0.61091 0.73655
 H2268 H 0.03650 0.63961 0.74651
 C2269 C 0.02634 0.10287 0.02837
 C2270 C 0.03487 0.11411 0.01689
 C2271 C 0.04056 0.13041 0.02259
 C2272 C 0.03779 0.13568 0.03989
 C2273 C 0.02899 0.12434 0.05126
 C2274 C 0.02333 0.10807 0.04553
 C2275 C 0.02127 0.08574 0.02284
 C2276 C 0.01731 0.07120 0.01858
 H2277 H 0.03729 0.11021 0.00358
 H2278 H 0.04709 0.13889 0.01347
 H2279 H 0.02687 0.12784 0.06470
 H2280 H 0.01685 0.09942 0.05457
 C2281 C 0.02740 0.60279 0.52743
 C2282 C 0.03586 0.61413 0.51600
 C2283 C 0.04169 0.63033 0.52185
 C2284 C 0.03913 0.63539 0.53924
 C2285 C 0.03041 0.62395 0.55056
 C2286 C 0.02461 0.60777 0.54469
 C2287 C 0.02218 0.58576 0.52174
 C2288 C 0.01807 0.57128 0.51738
 H2289 H 0.03811 0.61039 0.50261
 H2290 H 0.04816 0.63890 0.51276
 H2291 H 0.02846 0.62728 0.56407
 H2292 H 0.01819 0.59904 0.55368
 C2293 C 0.52882 0.10141 0.52970
 C2294 C 0.52606 0.10646 0.54695
 C2295 C 0.53169 0.12274 0.55270
 C2296 C 0.54021 0.13421 0.54127
 C2297 C 0.54281 0.12906 0.52391
 C2298 C 0.53715 0.11277 0.51818
 C2299 C 0.52349 0.08442 0.52399
 C2300 C 0.51919 0.07007 0.51944
 H2301 H 0.51971 0.09773 0.55600
 H2302 H 0.52971 0.12616 0.56619
 H2303 H 0.54912 0.13766 0.51474
 H2304 H 0.53935 0.10900 0.50480
 C2305 C 0.52498 0.60286 0.02663
 C2306 C 0.53287 0.61427 0.01486
 C2307 C 0.53839 0.63070 0.02036
 C2308 C 0.53608 0.63592 0.03774
 C2309 C 0.52794 0.62440 0.04941
 C2310 C 0.52246 0.60800 0.04388
 C2311 C 0.52003 0.58564 0.02126
 C2312 C 0.51613 0.57104 0.01716
 H2313 H 0.53491 0.61042 0.00147
 H2314 H 0.54441 0.63932 0.01103
 H2315 H 0.52621 0.62785 0.06292
 H2316 H 0.51647 0.59922 0.05313
 C2317 C 0.72353 0.14815 0.52950
 C2318 C 0.71078 0.13938 0.52000
 C2319 C 0.70495 0.12305 0.52539
 C2320 C 0.71173 0.11506 0.54054
 C2321 C 0.72490 0.12408 0.54976
 C2322 C 0.73065 0.14042 0.54430
 C2323 C 0.72893 0.16528 0.52432
 C2324 C 0.73316 0.17976 0.52010
 H2325 H 0.70522 0.14524 0.50845
 H2326 H 0.69518 0.11686 0.51744
 H2327 H 0.73067 0.11892 0.56146
 H2328 H 0.74054 0.14714 0.55178
 C2329 C 0.72291 0.64733 0.02711
 C2330 C 0.71504 0.63588 0.01538
 C2331 C 0.70955 0.61946 0.02094
 C2332 C 0.71185 0.61430 0.03835
 C2333 C 0.71997 0.62587 0.04997
 C2334 C 0.72543 0.64226 0.04438
 C2335 C 0.72785 0.66453 0.02169
 C2336 C 0.73178 0.67913 0.01757
 H2337 H 0.71301 0.63968 0.00197
 H2338 H 0.70354 0.61080 0.01164
 H2339 H 0.72170 0.62246 0.06350
 H2340 H 0.73141 0.65107 0.05361
 C2341 C 0.22138 0.60129 0.72068
 C2342 C 0.20407 0.60636 0.72323
 C2343 C 0.19840 0.62269 0.71764
 C2344 C 0.21000 0.63421 0.70939
 C2345 C 0.22743 0.62902 0.70698
 C2346 C 0.23307 0.61267 0.71260
 C2347 C 0.22698 0.58427 0.72603
 C2348 C 0.23137 0.56987 0.73040
 H2349 H 0.19489 0.59762 0.72939
 H2350 H 0.18486 0.62614 0.71946
 H2351 H 0.23672 0.63764 0.70086
 H2352 H 0.24651 0.60887 0.71057
 C2353 C 0.22318 0.10277 0.22322
 C2354 C 0.23463 0.11416 0.21483
 C2355 C 0.22876 0.13044 0.20921
 C2356 C 0.21135 0.13553 0.21192
 C2357 C 0.20002 0.12401 0.22054
 C2358 C 0.20590 0.10776 0.22612
 C2359 C 0.22886 0.08569 0.22834
 C2360 C 0.23313 0.07118 0.23244
 H2361 H 0.24803 0.11041 0.21250
 H2362 H 0.23786 0.13907 0.20281
 H2363 H 0.18648 0.12735 0.22259
 H2364 H 0.19689 0.09899 0.23250
 C2365 C 0.72326 1.10306 0.72298
 C2366 C 0.70598 1.10805 0.72589
 C2367 C 0.70011 1.12432 0.72034
 C2368 C 0.71145 1.13584 0.71175
 C2369 C 0.72886 1.13076 0.70904
 C2370 C 0.73472 1.11447 0.71462
 C2371 C 0.72892 1.08596 0.72802
 C2372 C 0.73316 1.07141 0.73204
 H2373 H 0.69697 1.09927 0.73224
 H2374 H 0.68657 1.12765 0.72239
 H2375 H 0.73796 1.13940 0.70266
 H2376 H 0.74812 1.11071 0.71228
 C2377 C 0.72367 0.60308 0.22268
 C2378 C 0.72624 0.60816 0.20542
 C2379 C 0.72099 0.62464 0.19986
 C2380 C 0.71304 0.63630 0.21152
 C2381 C 0.71072 0.63114 0.22892
 C2382 C 0.71599 0.61464 0.23445
 C2383 C 0.72836 0.58580 0.22806
 C2384 C 0.73207 0.57113 0.23216
 H2385 H 0.73207 0.59928 0.19617
 H2386 H 0.72273 0.62805 0.18634
 H2387 H 0.70484 0.63987 0.23825
 H2388 H 0.71394 0.61083 0.24785
 C2389 C 0.52616 0.14725 0.72235
 C2390 C 0.53893 0.13827 0.73164
 C2391 C 0.54491 0.12214 0.72580
 C2392 C 0.53828 0.11458 0.71037
 C2393 C 0.52503 0.12376 0.70141
 C2394 C 0.51912 0.13989 0.70733
 C2395 C 0.52082 0.16434 0.72777
 C2396 C 0.51667 0.17885 0.73198
 H2397 H 0.54445 0.14385 0.74334
 H2398 H 0.55474 0.11581 0.73357
 H2399 H 0.51930 0.11891 0.68957
 H2400 H 0.50923 0.14677 0.69999
 C2401 C 1.02585 0.14735 0.22167
 C2402 C 1.02352 0.14232 0.20436
 C2403 C 1.02927 0.12603 0.19874
 C2404 C 1.03748 0.11452 0.21038
 C2405 C 1.03958 0.11963 0.22782
 C2406 C 1.03381 0.13594 0.23341
 C2407 C 1.02067 0.16447 0.22715
 C2408 C 1.01659 0.17900 0.23137
 H2409 H 1.01748 0.15110 0.19513
 H2410 H 1.02767 0.12266 0.18519
 H2411 H 1.04564 0.11101 0.23714
 H2412 H 1.03569 0.13971 0.24685
 C2413 C 0.22274 0.64898 0.52922
 C2414 C 0.23419 0.63762 0.53768
 C2415 C 0.22837 0.62131 0.54324
 C2416 C 0.21101 0.61616 0.54038
 C2417 C 0.19965 0.62767 0.53179
 C2418 C 0.20548 0.64395 0.52627
 C2419 C 0.22849 0.66594 0.52386
 C2420 C 0.23294 0.68029 0.51944
 H2421 H 0.24758 0.64139 0.54003
 H2422 H 0.23748 0.61269 0.54964
 H2423 H 0.18615 0.62427 0.52964
 H2424 H 0.19648 0.65269 0.51982
 C2425 C 0.22249 0.14763 1.03007
 C2426 C 0.21465 0.13621 1.01829
 C2427 C 0.20917 0.11977 1.02379
 C2428 C 0.21147 0.11454 1.04117
 C2429 C 0.21951 0.12610 1.05287
 C2430 C 0.22496 0.14252 1.04734
 C2431 C 0.22766 0.16475 1.02457
 C2432 C 0.23184 0.17919 1.02018
 H2433 H 0.21269 0.14003 1.00488
 H2434 H 0.20323 0.11112 1.01443
 H2435 H 0.22124 0.12262 1.06638
 H2436 H 0.23094 0.15130 1.05659
 C2437 C 0.22276 0.72164 0.60147
 C2438 C 0.20547 0.72449 0.60647
 C2439 C 0.19963 0.71888 0.62272
 C2440 C 0.21101 0.71031 0.63423
 C2441 C 0.22842 0.70761 0.62912
 C2442 C 0.23424 0.71325 0.61284
 C2443 C 0.22850 0.72697 0.58449
 C2444 C 0.23296 0.73130 0.57011
 H2445 H 0.19644 0.73088 0.59772
 H2446 H 0.18610 0.72092 0.62609
 H2447 H 0.23755 0.70124 0.63774
 H2448 H 0.24765 0.71098 0.60909
 C2449 C 0.22102 0.22146 1.10275
 C2450 C 0.23015 0.20843 1.11148
 C2451 C 0.22458 0.20271 1.12780
 C2452 C 0.20959 0.20989 1.13581
 C2453 C 0.20070 0.22328 1.12678
 C2454 C 0.20636 0.22892 1.11046
 C2455 C 0.22641 0.22687 1.08567
 C2456 C 0.23075 0.23120 1.07125
 H2457 H 0.24157 0.20258 1.10563
 H2458 H 0.23222 0.19267 1.13394
 H2459 H 0.18917 0.22940 1.13194
 H2460 H 0.19916 0.23903 1.10378
 C2461 C 0.72143 0.52726 0.14675
 C2462 C 0.71337 0.51572 0.13522
 C2463 C 0.70800 0.52147 0.11882
 C2464 C 0.71062 0.53886 0.11375
 C2465 C 0.71887 0.55029 0.12542
 C2466 C 0.72421 0.54452 0.14179
 C2467 C 0.72639 0.52163 0.16389
 C2468 C 0.73039 0.51734 0.17842
 H2469 H 0.71114 0.50233 0.13894
 H2470 H 0.70187 0.51231 0.11009
 H2471 H 0.72084 0.56380 0.12208
 H2472 H 0.73034 0.55359 0.15066
 C2473 C 0.72238 1.02675 0.64694
 C2474 C 0.73412 1.03473 0.63554
 C2475 C 0.72846 1.04049 0.61924
 C2476 C 0.71098 1.03834 0.61415
 C2477 C 0.69936 1.03009 0.62565
 C2478 C 0.70503 1.02436 0.64192
 C2479 C 0.72789 1.02160 0.66405
 C2480 C 0.73211 1.01754 0.67858
 H2481 H 0.74758 1.03666 0.63931
 H2482 H 0.73777 1.04659 0.61063
 H2483 H 0.68577 1.02847 0.62228
 H2484 H 0.69582 1.01830 0.65070
 C2485 C 0.52691 0.22338 0.64736
 C2486 C 0.51546 0.21522 0.63580
 C2487 C 0.52145 0.20945 0.61963
 C2488 C 0.53900 0.21176 0.61483
 C2489 C 0.55033 0.22018 0.62649
 C2490 C 0.54432 0.22593 0.64262
 C2491 C 0.52111 0.22852 0.66437
 C2492 C 0.51678 0.23257 0.67887
 H2493 H 0.50196 0.21316 0.63935
 H2494 H 0.51236 0.20321 0.61088
 H2495 H 0.56396 0.22192 0.62337
 H2496 H 0.55333 0.23211 0.65153
 C2497 C 1.02605 0.22387 0.14660
 C2498 C 1.03959 0.23247 0.13808
 C2499 C 1.04538 0.22666 0.12187
 C2500 C 1.03779 0.21195 0.11379
 C2501 C 1.02376 0.20375 0.12250
 C2502 C 1.01805 0.20963 0.13871
 C2503 C 1.02090 0.22914 0.16379
 C2504 C 1.01688 0.23317 0.17838
 H2505 H 1.04587 0.24356 0.14408
 H2506 H 1.05588 0.23384 0.11594
 H2507 H 1.01723 0.19254 0.11722
 H2508 H 1.00754 0.20286 0.14522
 C2509 C 0.60238 0.22219 0.72322
 C2510 C 0.61369 0.23378 0.71491
 C2511 C 0.63009 0.22814 0.70931
 C2512 C 0.63537 0.21081 0.71195
 C2513 C 0.62394 0.19934 0.72050
 C2514 C 0.60757 0.20500 0.72607
 C2515 C 0.58520 0.22768 0.72832
 C2516 C 0.57063 0.23188 0.73238
 H2517 H 0.60979 0.24712 0.71263
 H2518 H 0.63865 0.23733 0.70297
 H2519 H 0.62744 0.18587 0.72250
 H2520 H 0.59887 0.19590 0.73239
 C2521 C 1.10242 0.22216 0.22332
 C2522 C 1.10757 0.20496 0.22620
 C2523 C 1.12393 0.19925 0.22067
 C2524 C 1.13541 0.21068 0.21213
 C2525 C 1.13018 0.22802 0.20947
 C2526 C 1.11379 0.23371 0.21502
 C2527 C 1.08524 0.22769 0.22833
 C2528 C 1.07065 0.23191 0.23233
 H2529 H 1.09882 0.19588 0.23250
 H2530 H 1.12739 0.18577 0.22269
 H2531 H 1.13878 0.23718 0.20313
 H2532 H 1.10993 0.24706 0.21272
 C2533 C 0.14994 0.72024 0.52865
 C2534 C 0.14497 0.70292 0.52629
 C2535 C 0.12864 0.69723 0.53197
 C2536 C 0.11704 0.70881 0.54014
 C2537 C 0.12214 0.72624 0.54236
 C2538 C 0.13848 0.73190 0.53665
 C2539 C 0.16696 0.72591 0.52319
 C2540 C 0.18133 0.73043 0.51877
 H2541 H 0.15378 0.69375 0.52020
 H2542 H 0.12526 0.68369 0.53029
 H2543 H 0.11345 0.73552 0.54840
 H2544 H 0.14219 0.74535 0.53854
 C2545 C 0.14858 0.22029 1.02981
 C2546 C 0.13710 0.21235 1.01813
 C2547 C 0.12063 0.20694 1.02371
 C2548 C 0.11542 0.20943 1.04107
 C2549 C 0.12705 0.21751 1.05268
 C2550 C 0.14351 0.22289 1.04707
 C2551 C 0.16569 0.22554 1.02424
 C2552 C 0.18013 0.22987 1.01985
 H2553 H 0.14090 0.21029 1.00473
 H2554 H 0.11192 0.20096 1.01442
 H2555 H 0.12359 0.21938 1.06617
 H2556 H 0.15233 0.22894 1.05625
 C2557 C 0.64561 0.52713 0.22268
 C2558 C 0.64056 0.52424 0.20546
 C2559 C 0.62416 0.52963 0.19970
 C2560 C 0.61254 0.53802 0.21111
 C2561 C 0.61769 0.54073 0.22846
 C2562 C 0.63413 0.53532 0.23419
 C2563 C 0.66280 0.52216 0.22826
 C2564 C 0.67739 0.51814 0.23246
 H2565 H 0.64939 0.51802 0.19641
 H2566 H 0.62077 0.52759 0.18622
 H2567 H 0.60900 0.54697 0.23760
 H2568 H 0.63792 0.53763 0.24755
 C2569 C 0.64745 1.02870 0.72289
 C2570 C 0.64243 1.04595 0.72563
 C2571 C 0.62620 1.05180 0.71982
 C2572 C 0.61475 1.04046 0.71113
 C2573 C 0.61985 1.02307 0.70862
 C2574 C 0.63610 1.01724 0.71445
 C2575 C 0.66453 1.02301 0.72815
 C2576 C 0.67904 1.01865 0.73229
 H2577 H 0.65116 1.05497 0.73203
 H2578 H 0.62283 1.06532 0.72174
 H2579 H 0.61127 1.01396 0.70218
 H2580 H 0.63987 1.00385 0.71225
 C2581 C 0.85016 0.47129 0.27909
 C2582 C 0.85502 0.47378 0.29643
 C2583 C 0.87127 0.46803 0.30229
 C2584 C 0.88289 0.45968 0.29088
 C2585 C 0.87792 0.45736 0.27342
 C2586 C 0.86166 0.46313 0.26758
 C2587 C 0.83318 0.47672 0.27331
 C2588 C 0.81880 0.48112 0.26878
 H2589 H 0.84618 0.47999 0.30548
 H2590 H 0.87454 0.46979 0.31585
 H2591 H 0.88664 0.45117 0.26427
 H2592 H 0.85802 0.46114 0.25412
 C2593 C 0.85145 0.97098 0.77930
 C2594 C 0.86310 0.98236 0.78743
 C2595 C 0.87923 0.97630 0.79333
 C2596 C 0.88392 0.95874 0.79117
 C2597 C 0.87217 0.94746 0.78283
 C2598 C 0.85605 0.95355 0.77696
 C2599 C 0.83458 0.97698 0.77379
 C2600 C 0.82027 0.98164 0.76934
 H2601 H 0.85966 0.99589 0.78931
 H2602 H 0.88806 0.98535 0.79951
 H2603 H 0.87522 0.93384 0.78120
 H2604 H 0.84709 0.94460 0.77078
 C2605 C 0.39805 0.27923 0.77972
 C2606 C 0.39309 0.29655 0.77727
 C2607 C 0.37679 0.30230 0.78295
 C2608 C 0.36518 0.29079 0.79120
 C2609 C 0.37026 0.27336 0.79352
 C2610 C 0.38659 0.26763 0.78781
 C2611 C 0.41503 0.27350 0.77422
 C2612 C 0.42938 0.26897 0.76973
 H2613 H 0.40190 0.30566 0.77110
 H2614 H 0.37343 0.31584 0.78119
 H2615 H 0.36157 0.26413 0.79962
 H2616 H 0.39029 0.25418 0.78977
 C2617 C 0.89787 0.27885 0.27923
 C2618 C 0.89295 0.27637 0.29656
 C2619 C 0.87665 0.28204 0.30234
 C2620 C 0.86502 0.29030 0.29085
 C2621 C 0.87005 0.29264 0.27341
 C2622 C 0.88637 0.28694 0.26765
 C2623 C 0.91486 0.27343 0.27349
 C2624 C 0.92923 0.26904 0.26893
 H2625 H 0.90180 0.27021 0.30565
 H2626 H 0.87333 0.28028 0.31588
 H2627 H 0.86134 0.29875 0.26420
 H2628 H 0.89004 0.28892 0.25421
 C2629 C 0.35369 0.77825 0.47156
 C2630 C 0.35866 0.79550 0.47438
 C2631 C 0.37487 0.80141 0.46860
 C2632 C 0.38636 0.79013 0.45988
 C2633 C 0.38129 0.77274 0.45724
 C2634 C 0.36505 0.76686 0.46304
 C2635 C 0.33667 0.77251 0.47690
 C2636 C 0.32220 0.76813 0.48115
 H2637 H 0.34992 0.80446 0.48084
 H2638 H 0.37820 0.81491 0.47061
 H2639 H 0.38990 0.76369 0.45075
 H2640 H 0.36132 0.75347 0.46077
 C2641 C 0.35304 0.27653 0.97317
 C2642 C 0.36455 0.28475 0.98462
 C2643 C 0.38077 0.29055 0.97870
 C2644 C 0.38567 0.28821 0.96123
 C2645 C 0.37404 0.27976 0.94989
 C2646 C 0.35785 0.27398 0.95583
 C2647 C 0.33600 0.27128 0.97891
 C2648 C 0.32150 0.26710 0.98322
 H2649 H 0.36093 0.28681 0.99807
 H2650 H 0.38949 0.29683 0.98779
 H2651 H 0.37723 0.27799 0.93632
 H2652 H 0.34898 0.26774 0.94682
 C2653 C 0.77814 0.46962 0.35037
 C2654 C 0.77566 0.45231 0.35535
 C2655 C 0.78170 0.44650 0.37148
 C2656 C 0.79035 0.45794 0.38286
 C2657 C 0.79264 0.47536 0.37777
 C2658 C 0.78658 0.48115 0.36163
 C2659 C 0.77244 0.47540 0.33351
 C2660 C 0.76788 0.48003 0.31925
 H2661 H 0.76924 0.44325 0.34669
 H2662 H 0.77994 0.43297 0.37486
 H2663 H 0.79903 0.48454 0.38630
 H2664 H 0.78856 0.49458 0.35791
 C2665 C 0.77923 0.97009 0.85071
 C2666 C 0.77685 0.95269 0.85541
 C2667 C 0.78274 0.94668 0.87151
 C2668 C 0.79116 0.95802 0.88316
 C2669 C 0.79337 0.97553 0.87836
 C2670 C 0.78744 0.98152 0.86224
 C2671 C 0.77368 0.97603 0.83387
 C2672 C 0.76921 0.98072 0.81960
 H2673 H 0.77060 0.94371 0.84654
 H2674 H 0.78107 0.93309 0.87466
 H2675 H 0.79959 0.98463 0.88710
 H2676 H 0.78935 0.99502 0.85873
 C2677 C 0.27770 0.77739 0.39711
 C2678 C 0.29505 0.77471 0.39222
 C2679 C 0.30095 0.78042 0.37603
 C2680 C 0.28958 0.78894 0.36447
 C2681 C 0.27209 0.79139 0.36943
 C2682 C 0.26621 0.78566 0.38566
 C2683 C 0.27202 0.77224 0.41417
 C2684 C 0.26781 0.76815 0.42869
 H2685 H 0.30409 0.76844 0.40104
 H2686 H 0.31454 0.77856 0.37278
 H2687 H 0.26297 0.79771 0.36077
 H2688 H 0.25275 0.78783 0.38933
 C2689 C 0.27706 0.27757 0.89867
 C2690 C 0.28557 0.26620 0.88730
 C2691 C 0.29124 0.27209 0.87105
 C2692 C 0.28847 0.28945 0.86597
 C2693 C 0.27973 0.30071 0.87746
 C2694 C 0.27409 0.29480 0.89368
 C2695 C 0.27189 0.27184 0.91571
 C2696 C 0.26778 0.26749 0.93019
 H2697 H 0.28795 0.25284 0.89104
 H2698 H 0.29773 0.26305 0.86245
 H2699 H 0.27762 0.31420 0.87412
 H2700 H 0.26762 0.30375 0.90243
 C2701 C 0.47115 0.27873 0.85157
 C2702 C 0.48276 0.28711 0.86281
 C2703 C 0.47714 0.29271 0.87917
 C2704 C 0.45981 0.28998 0.88449
 C2705 C 0.44829 0.28144 0.87311
 C2706 C 0.45393 0.27587 0.85678
 C2707 C 0.47670 0.27338 0.83454
 C2708 C 0.48102 0.26903 0.82013
 H2709 H 0.49613 0.28939 0.85890
 H2710 H 0.48637 0.29906 0.88769
 H2711 H 0.43481 0.27937 0.87665
 H2712 H 0.44480 0.26948 0.84814
 C2713 C 0.97039 0.27875 0.35101
 C2714 C 0.98206 0.28709 0.36222
 C2715 C 0.97645 0.29289 0.37850
 C2716 C 0.95907 0.29043 0.38380
 C2717 C 0.94749 0.28190 0.37246
 C2718 C 0.95312 0.27613 0.35619
 C2719 C 0.97596 0.27329 0.33401
 C2720 C 0.98039 0.26890 0.31964
 H2721 H 0.99547 0.28918 0.35833
 H2722 H 0.98574 0.29920 0.38699
 H2723 H 0.93398 0.28003 0.37599
 H2724 H 0.94395 0.26978 0.34757
 C2725 C 0.46997 0.35146 0.77774
 C2726 C 0.48170 0.36276 0.78586
 C2727 C 0.47611 0.37908 0.79160
 C2728 C 0.45868 0.38431 0.78929
 C2729 C 0.44704 0.37290 0.78096
 C2730 C 0.45266 0.35659 0.77525
 C2731 C 0.47552 0.33443 0.77238
 C2732 C 0.47994 0.32003 0.76809
 H2733 H 0.49514 0.35892 0.78785
 H2734 H 0.48543 0.38763 0.79776
 H2735 H 0.43350 0.37638 0.77920
 H2736 H 0.44344 0.34790 0.76906
 C2737 C 0.97010 0.35126 0.27854
 C2738 C 0.96189 0.36282 0.26713
 C2739 C 0.95619 0.37902 0.27307
 C2740 C 0.95862 0.38388 0.29054
 C2741 C 0.96702 0.37219 0.30186
 C2742 C 0.97270 0.35601 0.29589
 C2743 C 0.97548 0.33434 0.27265
 C2744 C 0.97984 0.32001 0.26806
 H2745 H 0.95982 0.35927 0.25366
 H2746 H 0.94997 0.38779 0.26399
 H2747 H 0.96886 0.37537 0.31543
 H2748 H 0.97895 0.34711 0.30487
 C2749 C 0.27862 0.85316 0.47312
 C2750 C 0.29591 0.85822 0.47581
 C2751 C 0.30164 0.87449 0.47015
 C2752 C 0.29014 0.88595 0.46167
 C2753 C 0.27272 0.88080 0.45919
 C2754 C 0.26701 0.86450 0.46488
 C2755 C 0.27307 0.83606 0.47829
 C2756 C 0.26887 0.82154 0.48240
 H2757 H 0.30504 0.84949 0.48208
 H2758 H 0.31518 0.87789 0.47203
 H2759 H 0.26350 0.88939 0.45290
 H2760 H 0.25359 0.86070 0.46272
 C2761 C 0.27681 0.35203 0.97352
 C2762 C 0.28544 0.36345 0.98474
 C2763 C 0.29112 0.37964 0.97870
 C2764 C 0.28823 0.38461 0.96132
 C2765 C 0.27934 0.37308 0.95022
 C2766 C 0.27370 0.35692 0.95629
 C2767 C 0.27172 0.33500 0.97936
 C2768 C 0.26770 0.32051 0.98375
 H2769 H 0.28794 0.35978 0.99810
 H2770 H 0.29772 0.38827 0.98762
 H2771 H 0.27714 0.37634 0.93673
 H2772 H 0.26713 0.34813 0.94745
 C2773 C 0.77724 0.39830 0.27843
 C2774 C 0.78557 0.38691 0.26694
 C2775 C 0.79131 0.37065 0.27276
 C2776 C 0.78878 0.36559 0.29015
 C2777 C 0.78027 0.37712 0.30154
 C2778 C 0.77457 0.39335 0.29571
 C2779 C 0.77183 0.41526 0.27268
 C2780 C 0.76744 0.42962 0.26821
 H2781 H 0.78772 0.39062 0.25353
 H2782 H 0.79763 0.36202 0.26363
 H2783 H 0.77836 0.37378 0.31506
 H2784 H 0.76823 0.40212 0.30474
   
