data_POSCAR
  _audit_creation_date              2014-09-24
  _audit_creation_method            'ToBaCCo'
  _symmetry_space_group_name_H-M    'P1'
  _symmetry_Int_Tables_number       1
  _symmetry_cell_setting            triclinic
  loop_
  _symmetry_equiv_pos_as_xyz
 x,y,z
_cell_length_a 43.3319
_cell_length_b 43.3605
_cell_length_c 43.4752
_cell_angle_alpha 89.891500
_cell_angle_beta 90.706300
_cell_angle_gamma 89.879900
loop_
  _atom_site_label
  _atom_site_type_symbol
  _atom_site_fract_x
  _atom_site_fract_y
  _atom_site_fract_z
C1 C 0.18580 0.21156 0.22989
 C2 C 0.20575 0.18592 0.23061
 C3 C 0.22864 0.18192 0.20830
 C4 C 0.23252 0.20513 0.18603
 C5 C 0.21301 0.23108 0.18472
 C6 C 0.18900 0.23330 0.20609
 H7 H 0.20345 0.16849 0.24810
 H8 H 0.25103 0.20355 0.16970
 H9 H 0.17238 0.25180 0.20460
 C10 C 0.68936 0.71685 0.72555
 C11 C 0.69182 0.73865 0.70170
 C12 C 0.71538 0.73667 0.67981
 C13 C 0.73530 0.71101 0.68082
 C14 C 0.73204 0.68766 0.70304
 C15 C 0.70939 0.69127 0.72564
 H16 H 0.67499 0.75696 0.70058
 H17 H 0.75357 0.70982 0.66420
 H18 H 0.70723 0.67351 0.74288
 C19 C 0.31222 0.78389 0.73219
 C20 C 0.30718 0.76849 0.70419
 C21 C 0.28263 0.77658 0.68434
 C22 C 0.26217 0.79996 0.69355
 C23 C 0.26640 0.81582 0.72159
 C24 C 0.29266 0.80860 0.73972
 H25 H 0.32280 0.75039 0.69724
 H26 H 0.24271 0.80602 0.67908
 H27 H 0.29850 0.82252 0.75950
 C28 C 0.81248 0.28680 0.23167
 C29 C 0.79064 0.31090 0.23283
 C30 C 0.76590 0.31283 0.21167
 C31 C 0.76389 0.29075 0.18810
 C32 C 0.78539 0.26654 0.18599
 C33 C 0.81002 0.26542 0.20735
 H34 H 0.79268 0.32897 0.24976
 H35 H 0.74595 0.29211 0.17078
 H36 H 0.82790 0.24824 0.20517
 C37 C 0.81588 0.70872 0.27215
 C38 C 0.81496 0.72865 0.29762
 C39 C 0.79385 0.72417 0.32152
 C40 C 0.77276 0.69967 0.31910
 C41 C 0.77458 0.67803 0.29513
 C42 C 0.79599 0.68311 0.27159
 H43 H 0.83044 0.74815 0.29830
 H44 H 0.75455 0.69798 0.33571
 H45 H 0.79698 0.66674 0.25299
 C46 C 0.32718 0.20071 -0.21567
 C47 C 0.30455 0.17751 -0.21821
 C48 C 0.28092 0.17460 -0.19654
 C49 C 0.27871 0.19688 -0.17322
 C50 C 0.30061 0.22057 -0.17016
 C51 C 0.32398 0.22286 -0.19220
 H52 H 0.30454 0.16191 -0.23757
 H53 H 0.25939 0.19664 -0.15777
 H54 H 0.33926 0.24250 -0.19189
 C55 C 0.68066 0.28823 -0.22887
 C56 C 0.68859 0.26803 -0.20453
 C57 C 0.71595 0.27186 -0.18720
 C58 C 0.73532 0.29680 -0.19422
 C59 C 0.72961 0.31558 -0.22006
 C60 C 0.70205 0.31127 -0.23689
 H61 H 0.67370 0.24895 -0.19890
 H62 H 0.75471 0.30207 -0.17937
 H63 H 0.69699 0.32623 -0.25623
 C64 C 0.17578 0.79250 0.27069
 C65 C 0.18146 0.76987 0.29326
 C66 C 0.20724 0.77161 0.31314
 C67 C 0.22677 0.79737 0.31095
 C68 C 0.22158 0.82073 0.28886
 C69 C 0.19696 0.81685 0.26773
 H70 H 0.16540 0.75103 0.29512
 H71 H 0.24650 0.79867 0.32637
 H72 H 0.19473 0.83257 0.24855
 C73 C 0.45566 0.42777 0.48021
 C74 C 0.43434 0.45178 0.48485
 C75 C 0.43355 0.47793 0.46565
 C76 C 0.45367 0.47903 0.44051
 C77 C 0.47525 0.45541 0.43527
 C78 C 0.47696 0.43072 0.45625
 H79 H 0.41862 0.45070 0.50390
 H80 H 0.45264 0.49811 0.42457
 H81 H 0.49513 0.41379 0.45445
 C82 C -0.04311 -0.06891 0.97446
 C83 C -0.07022 -0.05191 0.97970
 C84 C -0.07881 -0.02680 0.96074
 C85 C -0.05858 -0.01808 0.93707
 C86 C -0.03135 -0.03467 0.93129
 C87 C -0.02483 -0.06093 0.94920
 H88 H -0.08409 -0.05837 0.99909
 H89 H -0.06469 0.00150 0.92288
 H90 H -0.00528 -0.07502 0.94309
 C91 C 1.03410 0.56015 0.97955
 C92 C 1.05941 0.53979 0.98031
 C93 C 1.06342 0.51729 0.95743
 C94 C 1.04071 0.51452 0.93421
 C95 C 1.01517 0.53457 0.93272
 C96 C 1.01278 0.55791 0.95500
 H97 H 1.07672 0.54150 0.99824
 H98 H 1.04229 0.49656 0.91715
 H99 H 0.99455 0.57483 0.95359
 C100 C 0.54047 0.06469 0.47810
 C101 C 0.56684 0.04572 0.47832
 C102 C 0.57186 0.02365 0.45510
 C103 C 0.54864 0.01966 0.43245
 C104 C 0.52209 0.03839 0.43151
 C105 C 0.51903 0.06164 0.45378
 H106 H 0.58403 0.04820 0.49627
 H107 H 0.55053 0.00160 0.41549
 H108 H 0.50003 0.07771 0.45265
 C109 C -0.03413 0.07381 0.52187
 C110 C -0.05671 0.05102 0.51705
 C111 C -0.05826 0.02455 0.53583
 C112 C -0.03687 0.02180 0.56039
 C113 C -0.01259 0.04298 0.56432
 C114 C -0.01159 0.06893 0.54492
 H115 H -0.07321 0.05363 0.49837
 H116 H -0.03880 0.00341 0.57701
 H117 H 0.00632 0.08589 0.54788
 C118 C 0.46450 0.57172 0.02463
 C119 C 0.48206 0.56819 0.05184
 C120 C 0.47414 0.54631 0.07429
 C121 C 0.44848 0.52724 0.06869
 C122 C 0.42899 0.53193 0.04300
 C123 C 0.43748 0.55408 0.02099
 H124 H 0.50216 0.58244 0.05562
 H125 H 0.44373 0.50834 0.08414
 H126 H 0.42336 0.55730 0.00062
 C127 C 0.52952 -0.06237 0.01060
 C128 C 0.55292 -0.03992 0.00887
 C129 C 0.55500 -0.01565 0.03020
 C130 C 0.53422 -0.01507 0.05477
 C131 C 0.51091 -0.03737 0.05760
 C132 C 0.50940 -0.06130 0.03584
 H133 H 0.57039 -0.04128 -0.00856
 H134 H 0.53624 0.00221 0.07250
 H135 H 0.49305 -0.07979 0.03850
 C136 C 1.05173 0.43105 0.52555
 C137 C 1.07568 0.45267 0.52271
 C138 C 1.08019 0.47628 0.54456
 C139 C 1.05827 0.47947 0.56806
 C140 C 1.03417 0.45814 0.57159
 C141 C 1.03053 0.43480 0.54945
 H142 H 1.09051 0.45180 0.50293
 H143 H 1.05917 0.49913 0.58325
 H144 H 1.01068 0.41978 0.55029
 C145 C 0.42141 0.00714 0.20587
 H146 H 0.42448 0.02792 0.21930
 C147 C 0.43957 0.00204 0.18008
 H148 H 0.45685 0.01892 0.17403
 C149 C 0.39560 -0.04031 0.19807
 H150 H 0.37883 -0.05704 0.20547
 C151 C 0.41322 -0.04631 0.17205
 H152 H 0.40984 -0.06802 0.16037
 N153 N 0.39935 -0.01351 0.21384
 C154 C 0.32743 0.03977 0.25858
 H155 H 0.32569 0.02760 0.28024
 C156 C 0.30771 0.06450 0.25209
 H157 H 0.29100 0.07143 0.26908
 C158 C 0.35137 0.04545 0.21028
 H159 H 0.36822 0.03783 0.19385
 C160 C 0.33219 0.07035 0.20286
 H161 H 0.33564 0.08168 0.18109
 Zn162 Zn 0.37417 -0.00354 0.24773
 N163 N 0.34886 0.03086 0.23784
 C164 C 0.39867 0.03304 0.29644
 N165 N 0.40044 0.00550 0.28167
 C166 C 0.42170 -0.01607 0.29020
 C167 C 0.44127 -0.01093 0.31541
 C168 C 0.41779 0.03913 0.32180
 C169 C 0.32553 -0.04463 0.23635
 C170 C 0.30460 -0.06815 0.24273
 C171 C 0.32911 -0.07489 0.29244
 C172 C 0.34960 -0.05124 0.28509
 N173 N 0.34755 -0.03672 0.25740
 H174 H 0.38255 0.05044 0.28856
 H175 H 0.42331 -0.03739 0.27742
 H176 H 0.45825 -0.02833 0.32143
 H177 H 0.41625 0.06146 0.33269
 H178 H 0.32424 -0.03257 0.21457
 H179 H 0.28750 -0.07433 0.22545
 H180 H 0.33215 -0.08639 0.31430
 H181 H 0.36704 -0.04449 0.30168
 C182 C 0.30960 0.08009 0.22375
 C183 C 0.43486 -0.02443 0.16197
 C184 C 0.30568 -0.08332 0.27137
 C185 C 0.43876 0.01653 0.33241
 C186 C 0.07983 -0.01029 0.71054
 H187 H 0.07593 -0.03084 0.72408
 C188 C 0.06220 -0.00483 0.68401
 H189 H 0.04453 -0.02126 0.67749
 C190 C 0.10647 0.03681 0.70382
 H191 H 0.12312 0.05343 0.71211
 C192 C 0.08938 0.04318 0.67710
 H193 H 0.09308 0.06497 0.66567
 N194 N 0.10178 0.01020 0.71964
 C195 C 0.16818 -0.04186 0.77523
 H196 H 0.16859 -0.02795 0.79587
 C197 C 0.18787 -0.06724 0.77281
 H198 H 0.20350 -0.07197 0.79174
 C199 C 0.14848 -0.05041 0.72495
 H200 H 0.13365 -0.04339 0.70606
 C201 C 0.16774 -0.07599 0.72156
 H202 H 0.16739 -0.08844 0.69998
 Zn203 Zn 0.12393 0.00144 0.75640
 N204 N 0.14875 -0.03417 0.75166
 C205 C 0.09445 -0.03056 0.80514
 N206 N 0.09467 -0.00447 0.78779
 C207 C 0.07334 0.01812 0.79183
 C208 C 0.05127 0.01554 0.81482
 C209 C 0.07287 -0.03407 0.82845
 C210 C 0.17448 0.04049 0.74771
 C211 C 0.19563 0.06367 0.75495
 C212 C 0.16753 0.07383 0.80146
 C213 C 0.14691 0.05045 0.79331
 N214 N 0.15067 0.03437 0.76680
 H215 H 0.11102 -0.04868 0.80105
 H216 H 0.07360 0.03831 0.77718
 H217 H 0.03463 0.03390 0.81689
 H218 H 0.07319 -0.05494 0.84218
 H219 H 0.17706 0.02722 0.72684
 H220 H 0.21425 0.06838 0.73925
 H221 H 0.16316 0.08656 0.82225
 H222 H 0.12800 0.04511 0.80835
 C223 C 0.18752 -0.08517 0.74582
 C224 C 0.06734 0.02183 0.66631
 C225 C 0.19282 0.08037 0.78250
 C226 C 0.05116 -0.01062 0.83407
 C227 C 0.57458 0.48892 0.21377
 H228 H 0.57338 0.46677 0.22519
 C229 C 0.55385 0.49602 0.18999
 H230 H 0.53706 0.47890 0.18291
 C231 C 0.59850 0.53769 0.20883
 H232 H 0.61588 0.55393 0.21628
 C233 C 0.57816 0.54579 0.18497
 H234 H 0.58121 0.56787 0.17392
 N235 N 0.59647 0.50959 0.22257
 C236 C 0.67017 0.45518 0.26514
 H237 H 0.67300 0.46747 0.28663
 C238 C 0.68897 0.42989 0.25876
 H239 H 0.70647 0.42307 0.27543
 C240 C 0.64470 0.45013 0.21695
 H241 H 0.62794 0.45855 0.20036
 C242 C 0.66295 0.42464 0.20966
 H243 H 0.66000 0.41435 0.18722
 Zn244 Zn 0.62312 0.49839 0.25556
 N245 N 0.64808 0.46434 0.24463
 C246 C 0.60005 0.45987 0.30298
 N247 N 0.59788 0.48801 0.28927
 C248 C 0.57665 0.50907 0.29844
 C249 C 0.55668 0.50224 0.32244
 C250 C 0.58056 0.45209 0.32712
 C251 C 0.67095 0.53997 0.24467
 C252 C 0.69160 0.56382 0.25106
 C253 C 0.66872 0.56937 0.30110
 C254 C 0.64850 0.54537 0.29373
 N255 N 0.64982 0.53137 0.26584
 H256 H 0.61681 0.44327 0.29520
 H257 H 0.57522 0.53120 0.28698
 H258 H 0.54011 0.51947 0.32956
 H259 H 0.58370 0.42983 0.33782
 H260 H 0.67164 0.52830 0.22271
 H261 H 0.70795 0.57060 0.23367
 H262 H 0.66621 0.58044 0.32312
 H263 H 0.63175 0.53803 0.31039
 C264 C 0.68488 0.41348 0.23113
 C265 C 0.55493 0.52506 0.17555
 C266 C 0.69108 0.57872 0.27977
 C267 C 0.55801 0.47322 0.33694
 C268 C 0.92514 0.51178 0.70333
 H269 H 0.92604 0.53337 0.71574
 C270 C 0.94689 0.50548 0.68074
 H271 H 0.96420 0.52265 0.67560
 C272 C 0.90118 0.46349 0.69484
 H273 H 0.88348 0.44702 0.70048
 C274 C 0.92246 0.45623 0.67211
 H275 H 0.91973 0.43464 0.66008
 N276 N 0.90280 0.49091 0.70987
 C277 C 0.82757 0.54284 0.75124
 H278 H 0.82459 0.52972 0.77218
 C279 C 0.80828 0.56788 0.74478
 H280 H 0.79063 0.57407 0.76109
 C281 C 0.85437 0.55067 0.70478
 H282 H 0.87225 0.54378 0.68912
 C283 C 0.83561 0.57594 0.69740
 H284 H 0.84031 0.58828 0.67643
 Zn285 Zn 0.87492 0.50021 0.74181
 N286 N 0.85023 0.53487 0.73144
 C287 C 0.89606 0.53500 0.79340
 N288 N 0.89871 0.50801 0.77778
 C289 C 0.91945 0.48613 0.78672
 C290 C 0.93773 0.49043 0.81301
 C291 C 0.91384 0.54023 0.81989
 C292 C 0.82777 0.45926 0.72531
 C293 C 0.80774 0.43430 0.72845
 C294 C 0.82864 0.42569 0.77947
 C295 C 0.84829 0.45077 0.77533
 N296 N 0.84799 0.46656 0.74829
 H297 H 0.88039 0.55268 0.78524
 H298 H 0.92179 0.46528 0.77331
 H299 H 0.95441 0.47285 0.81935
 H300 H 0.91173 0.56223 0.83132
 H301 H 0.82736 0.47283 0.70440
 H302 H 0.79168 0.42963 0.70987
 H303 H 0.82921 0.41345 0.80121
 H304 H 0.86371 0.45756 0.79379
 C305 C 0.81184 0.58478 0.71739
 C306 C 0.94629 0.47705 0.66519
 C307 C 0.80856 0.41645 0.75555
 C308 C 0.93442 0.51736 0.83069
 C309 C 0.20734 0.42278 0.01014
 H310 H 0.21958 0.42578 0.03176
 C311 C 0.18200 0.44145 0.00296
 H312 H 0.17471 0.45867 0.01938
 C313 C 0.20221 0.39674 -0.03744
 H314 H 0.21036 0.37950 -0.05330
 C315 C 0.17667 0.41488 -0.04555
 H316 H 0.16550 0.41039 -0.06736
 N317 N 0.21681 0.40082 -0.00990
 C318 C 0.26638 0.33240 0.04536
 H319 H 0.28784 0.33128 0.03293
 C320 C 0.26179 0.31319 0.07067
 H321 H 0.27977 0.29700 0.07714
 C322 C 0.21629 0.35353 0.05034
 H323 H 0.19828 0.36868 0.04185
 C324 C 0.21072 0.33475 0.07580
 H325 H 0.18820 0.33558 0.08621
 Zn326 Zn 0.25212 0.37740 0.00130
 N327 N 0.24400 0.35247 0.03606
 C328 C 0.29888 0.40556 0.03808
 N329 N 0.28418 0.40570 0.01027
 C330 C 0.29133 0.42679 -0.01166
 C331 C 0.31423 0.44876 -0.00612
 C332 C 0.32194 0.42711 0.04459
 C333 C 0.24378 0.32764 -0.03871
 C334 C 0.25134 0.30662 -0.06169
 C335 C 0.29970 0.33320 -0.06836
 C336 C 0.29118 0.35373 -0.04523
 N337 N 0.26357 0.35071 -0.03104
 H338 H 0.29282 0.38874 0.05531
 H339 H 0.27929 0.42639 -0.03361
 H340 H 0.32008 0.46464 -0.02435
 H341 H 0.33390 0.42573 0.06652
 H342 H 0.22206 0.32558 -0.02688
 H343 H 0.23510 0.28858 -0.06763
 H344 H 0.32147 0.33696 -0.07950
 H345 H 0.30679 0.37198 -0.03859
 C346 C 0.23400 0.31486 0.08702
 C347 C 0.16629 0.43793 -0.02533
 C348 C 0.27987 0.30881 -0.07665
 C349 C 0.32941 0.44974 0.02267
 C350 C 0.69868 0.08191 -0.01666
 H351 H 0.71236 0.07944 -0.03716
 C352 C 0.67249 0.06372 -0.01272
 H353 H 0.66641 0.04707 -0.03028
 C354 C 0.69145 0.10522 0.03192
 H355 H 0.69944 0.12070 0.04972
 C356 C 0.66506 0.08752 0.03679
 H357 H 0.65355 0.08958 0.05860
 N358 N 0.70739 0.10247 0.00533
 C359 C 0.76285 0.17217 -0.04053
 H360 H 0.78303 0.17207 -0.02561
 C361 C 0.76119 0.19256 -0.06539
 H362 H 0.78013 0.20830 -0.06859
 C363 C 0.71321 0.15261 -0.05253
 H364 H 0.69433 0.13738 -0.04718
 C365 C 0.71058 0.17258 -0.07767
 H366 H 0.68957 0.17244 -0.09143
 Zn367 Zn 0.74406 0.12512 -0.00109
 N368 N 0.73935 0.15233 -0.03494
 C369 C 0.79287 0.09780 -0.03472
 N370 N 0.77583 0.09621 -0.00872
 C371 C 0.78053 0.07339 0.01230
 C372 C 0.80332 0.05111 0.00774
 C373 C 0.81595 0.07606 -0.04015
 C374 C 0.73434 0.17250 0.04135
 C375 C 0.74036 0.19095 0.06698
 C376 C 0.78712 0.16191 0.07639
 C377 C 0.78021 0.14402 0.05053
 N378 N 0.75388 0.14919 0.03397
 H379 H 0.78870 0.11594 -0.05130
 H380 H 0.76667 0.07271 0.03282
 H381 H 0.80719 0.03401 0.02549
 H382 H 0.82979 0.07836 -0.06058
 H383 H 0.71397 0.17666 0.02729
 H384 H 0.72452 0.20946 0.07238
 H385 H 0.80859 0.15752 0.08847
 H386 H 0.79609 0.12619 0.04361
 C387 C 0.73507 0.19245 -0.08500
 C388 C 0.65469 0.06688 0.01395
 C389 C 0.76663 0.18533 0.08552
 C390 C 0.82107 0.05179 -0.01916
 C391 C 0.21348 0.58045 0.48941
 H392 H 0.22607 0.57835 0.46818
 C393 C 0.19021 0.55941 0.49626
 H394 H 0.18471 0.54141 0.47986
 C395 C 0.20531 0.60670 0.53631
 H396 H 0.21138 0.62501 0.55203
 C397 C 0.18189 0.58616 0.54410
 H398 H 0.16979 0.59003 0.56530
 N399 N 0.22054 0.60356 0.50935
 C400 C 0.26521 0.67471 0.45464
 H401 H 0.28611 0.67798 0.46811
 C402 C 0.25954 0.69297 0.42871
 H403 H 0.27613 0.71053 0.42268
 C404 C 0.21741 0.64916 0.44766
 H405 H 0.20062 0.63273 0.45566
 C406 C 0.21082 0.66690 0.42155
 H407 H 0.18869 0.66394 0.41021
 Zn408 Zn 0.25358 0.63014 0.49941
 N409 N 0.24446 0.65302 0.46333
 C410 C 0.30421 0.60525 0.46663
 N411 N 0.28885 0.60508 0.49370
 C412 C 0.29704 0.58545 0.51681
 C413 C 0.32216 0.56556 0.51355
 C414 C 0.32946 0.58574 0.46238
 C415 C 0.23771 0.67980 0.53671
 C416 C 0.24085 0.70136 0.56033
 C417 C 0.29093 0.67976 0.57251
 C418 C 0.28683 0.65863 0.54863
 N419 N 0.26037 0.65881 0.53152
 H420 H 0.29660 0.62006 0.44803
 H421 H 0.28372 0.58499 0.53769
 H422 H 0.32748 0.54957 0.53198
 H423 H 0.34073 0.58573 0.44031
 H424 H 0.21685 0.67936 0.52278
 H425 H 0.22175 0.71673 0.56466
 H426 H 0.31174 0.67849 0.58649
 H427 H 0.30470 0.64193 0.54404
 C428 C 0.23240 0.68869 0.41116
 C429 C 0.17445 0.56153 0.52429
 C430 C 0.26802 0.70196 0.57841
 C431 C 0.33939 0.56604 0.48631
 C432 C 0.71527 0.92937 0.50508
 H433 H 0.72785 0.93173 0.52659
 C434 C 0.69055 0.94903 0.49834
 H435 H 0.68405 0.96630 0.51503
 C436 C 0.70828 0.90360 0.45757
 H437 H 0.71532 0.88592 0.44165
 C438 C 0.68340 0.92277 0.44988
 H439 H 0.67138 0.91856 0.42843
 N440 N 0.72345 0.90699 0.48491
 C441 C 0.76898 0.83545 0.53966
 H442 H 0.79011 0.83285 0.52692
 C443 C 0.76343 0.81660 0.56504
 H444 H 0.78037 0.79928 0.57140
 C445 C 0.72061 0.86008 0.54549
 H446 H 0.70358 0.87645 0.53729
 C447 C 0.71415 0.84176 0.57107
 H448 H 0.69189 0.84423 0.58172
 Zn449 Zn 0.75726 0.88129 0.49580
 N450 N 0.74792 0.85704 0.53073
 C451 C 0.80682 0.90562 0.53168
 N452 N 0.79155 0.90706 0.50422
 C453 C 0.79986 0.92761 0.48220
 C454 C 0.82537 0.94674 0.48679
 C455 C 0.83249 0.92431 0.53723
 C456 C 0.74518 0.83200 0.45593
 C457 C 0.75111 0.81062 0.43278
 C458 C 0.80098 0.83409 0.42560
 C459 C 0.79408 0.85503 0.44891
 N460 N 0.76649 0.85376 0.46340
 H461 H 0.79913 0.89008 0.54942
 H462 H 0.78667 0.92900 0.46095
 H463 H 0.83112 0.96320 0.46905
 H464 H 0.84390 0.92303 0.55947
 H465 H 0.72351 0.83133 0.46800
 H466 H 0.73364 0.79373 0.42692
 H467 H 0.82276 0.83655 0.41414
 H468 H 0.81091 0.87222 0.45537
 C469 C 0.73610 0.82017 0.58182
 C470 C 0.67431 0.94621 0.47026
 C471 C 0.77953 0.81105 0.41747
 C472 C 0.84289 0.94447 0.51419
 C473 C 0.01385 0.21458 0.42115
 H474 H 0.03553 0.22687 0.42233
 C475 C 0.00804 0.19068 0.44181
 H476 H 0.02564 0.18443 0.45859
 C477 C -0.03508 0.20757 0.39738
 H478 H -0.05190 0.21424 0.38009
 C479 C -0.04186 0.18352 0.41758
 H480 H -0.06353 0.17165 0.41449
 N481 N -0.00752 0.22240 0.39935
 C482 C 0.04357 0.26533 0.32488
 H483 H 0.03074 0.28660 0.32205
 C484 C 0.06874 0.25918 0.30611
 H485 H 0.07490 0.27577 0.28861
 C486 C 0.05022 0.21749 0.35045
 H487 H 0.04252 0.20096 0.36727
 C488 C 0.07555 0.21041 0.33220
 H489 H 0.08641 0.18815 0.33517
 Zn490 Zn 0.00178 0.25545 0.37253
 N491 N 0.03530 0.24492 0.34704
 C492 C 0.04010 0.30368 0.39491
 N493 N 0.01217 0.28974 0.39749
 C494 C -0.00815 0.29865 0.41932
 C495 C -0.00062 0.32235 0.43975
 C496 C 0.04857 0.32750 0.41483
 C497 C -0.04049 0.24270 0.32540
 C498 C -0.06643 0.24695 0.30653
 C499 C -0.07515 0.29604 0.33105
 C500 C -0.04892 0.29091 0.34938
 N501 N -0.03269 0.26419 0.34681
 H502 H 0.05614 0.29613 0.37768
 H503 H -0.03011 0.28699 0.42111
 H504 H -0.01716 0.32909 0.45697
 H505 H 0.07068 0.33827 0.41148
 H506 H -0.02667 0.22202 0.32327
 H507 H -0.07207 0.22954 0.28956
 H508 H -0.08727 0.31770 0.33335
 H509 H -0.04168 0.30825 0.36572
 C510 C 0.08589 0.23187 0.31029
 C511 C -0.02035 0.17499 0.44063
 C512 C -0.08499 0.27334 0.30998
 C513 C 0.02841 0.33675 0.43826
 C514 C -0.01780 0.70249 0.07607
 H515 H -0.03864 0.71595 0.07281
 C516 C -0.01247 0.67672 0.05770
 H517 H -0.02928 0.67073 0.04009
 C518 C 0.03006 0.69520 0.10193
 H519 H 0.04698 0.70298 0.11861
 C520 C 0.03631 0.66921 0.08410
 H521 H 0.05832 0.65784 0.08726
 N522 N 0.00313 0.71093 0.09799
 C523 C -0.04872 0.76246 0.16625
 H524 H -0.03561 0.78366 0.16708
 C525 C -0.07363 0.75830 0.18589
 H526 H -0.07910 0.77638 0.20206
 C527 C -0.05565 0.71242 0.14567
 H528 H -0.04802 0.69421 0.13064
 C529 C -0.08068 0.70728 0.16491
 H530 H -0.09165 0.68490 0.16451
 Zn531 Zn -0.00576 0.74662 0.12127
 N532 N -0.04053 0.73985 0.14632
 C533 C -0.03930 0.79661 0.09403
 N534 N -0.01321 0.77919 0.09313
 C535 C 0.00869 0.78433 0.07164
 C536 C 0.00563 0.80875 0.05087
 C537 C -0.04329 0.82133 0.07373
 C538 C 0.03562 0.73704 0.17065
 C539 C 0.05970 0.74414 0.19106
 C540 C 0.06726 0.79200 0.16377
 C541 C 0.04303 0.78400 0.14393
 N542 N 0.02785 0.75686 0.14757
 H543 H -0.05694 0.79159 0.11062
 H544 H 0.02882 0.76955 0.07090
 H545 H 0.02338 0.81168 0.03395
 H546 H -0.06410 0.83512 0.07496
 H547 H 0.02307 0.71566 0.17317
 H548 H 0.06582 0.72781 0.20901
 H549 H 0.07932 0.81327 0.15937
 H550 H 0.03641 0.79964 0.12565
 C551 C -0.09066 0.73071 0.18484
 C552 C 0.01452 0.65908 0.06205
 C553 C 0.07561 0.77226 0.18824
 C554 C -0.02023 0.82840 0.05233
 C555 C 0.48431 0.20200 0.58040
 H556 H 0.46260 0.21431 0.57889
 C557 C 0.48994 0.17723 0.56077
 H558 H 0.47248 0.17097 0.54391
 C559 C 0.53395 0.19661 0.60315
 H560 H 0.55139 0.20475 0.61910
 C561 C 0.54053 0.17170 0.58398
 H562 H 0.56327 0.16146 0.58538
 N563 N 0.50595 0.21077 0.60150
 C564 C 0.45553 0.25527 0.67535
 H565 H 0.46716 0.27731 0.67618
 C566 C 0.43268 0.24847 0.69663
 H567 H 0.42657 0.26565 0.71357
 C568 C 0.44958 0.20621 0.65227
 H569 H 0.45644 0.18964 0.63514
 C570 C 0.42660 0.19842 0.67313
 H571 H 0.41569 0.17622 0.67069
 Zn572 Zn 0.49640 0.24446 0.62739
 N573 N 0.46351 0.23424 0.65372
 C574 C 0.45794 0.29271 0.60421
 N575 N 0.48569 0.27829 0.60180
 C576 C 0.50642 0.28710 0.58033
 C577 C 0.49977 0.31162 0.56050
 C578 C 0.45033 0.31740 0.58484
 C579 C 0.53974 0.23296 0.67408
 C580 C 0.56399 0.23923 0.69451
 C581 C 0.56878 0.28970 0.67155
 C582 C 0.54445 0.28242 0.65149
 N583 N 0.53053 0.25441 0.65305
 H584 H 0.44158 0.28513 0.62115
 H585 H 0.52824 0.27506 0.57873
 H586 H 0.51678 0.31848 0.54379
 H587 H 0.42839 0.32860 0.58811
 H588 H 0.52819 0.21088 0.67490
 H589 H 0.57136 0.22148 0.71055
 H590 H 0.57997 0.31178 0.66898
 H591 H 0.53669 0.29928 0.63478
 C592 C 0.41823 0.21945 0.69626
 C593 C 0.51799 0.16093 0.56304
 C594 C 0.57845 0.26825 0.69407
 C595 C 0.47128 0.32709 0.56227
 C596 C 0.52072 0.70902 0.91926
 H597 H 0.54113 0.72334 0.92034
 C598 C 0.51726 0.68477 0.94010
 H599 H 0.53504 0.68132 0.95740
 C600 C 0.47200 0.69827 0.89656
 H601 H 0.45404 0.70405 0.88010
 C602 C 0.46757 0.67384 0.91697
 H603 H 0.44609 0.66116 0.91593
 N604 N 0.49851 0.71496 0.89770
 C605 C 0.54600 0.76264 0.82356
 H606 H 0.53154 0.78287 0.82095
 C607 C 0.57140 0.75856 0.80453
 H608 H 0.57607 0.77569 0.78706
 C609 C 0.55631 0.71511 0.84854
 H610 H 0.54989 0.69780 0.86514
 C611 C 0.58192 0.71010 0.83001
 H612 H 0.59438 0.68862 0.83256
 Zn613 Zn 0.50475 0.74863 0.87071
 N614 N 0.53935 0.74137 0.84549
 C615 C 0.53670 0.80178 0.89262
 N616 N 0.51099 0.78411 0.89530
 C617 C 0.48918 0.79072 0.91649
 C618 C 0.49206 0.81676 0.93510
 C619 C 0.54047 0.82812 0.91072
 C620 C 0.46279 0.73142 0.82431
 C621 C 0.43694 0.73404 0.80495
 C622 C 0.42688 0.78414 0.82682
 C623 C 0.45287 0.78053 0.84575
 N624 N 0.46986 0.75418 0.84463
 H625 H 0.55445 0.79546 0.87658
 H626 H 0.46942 0.77572 0.91883
 H627 H 0.47455 0.82124 0.95207
 H628 H 0.56144 0.84136 0.90848
 H629 H 0.47723 0.71107 0.82329
 H630 H 0.43246 0.71563 0.78887
 H631 H 0.41364 0.80530 0.82811
 H632 H 0.45940 0.79886 0.86127
 C633 C 0.59047 0.73247 0.80822
 C634 C 0.49068 0.66617 0.93869
 C635 C 0.41800 0.76043 0.80654
 C636 C 0.51742 0.83662 0.93164
 C637 C 0.15997 0.21594 0.25307
 C638 C 0.16040 0.19527 0.28206
 C639 C 0.13634 0.20031 0.30128
 C640 C 0.11369 0.22558 0.29009
 C641 C 0.13462 0.25386 0.28553
 C642 C 0.15865 0.24885 0.26629
 C643 C 0.12802 0.21071 0.23831
 C644 C 0.10403 0.21574 0.25750
 H645 H 0.17948 0.18072 0.28932
 H646 H 0.13598 0.18979 0.32391
 H647 H 0.13165 0.27561 0.29747
 H648 H 0.17590 0.26639 0.26189
 H649 H 0.12459 0.20341 0.21464
 H650 H 0.08018 0.21274 0.25018
 C651 C 0.66389 0.72053 0.74923
 C652 C 0.66690 0.70125 0.77903
 C653 C 0.64308 0.70510 0.79881
 C654 C 0.61810 0.72792 0.78733
 C655 C 0.63645 0.75762 0.78097
 C656 C 0.66025 0.75377 0.76117
 C657 C 0.63211 0.71214 0.73571
 C658 C 0.60837 0.71598 0.75546
 H659 H 0.68744 0.68872 0.78616
 H660 H 0.64420 0.69558 0.82187
 H661 H 0.63217 0.77948 0.79227
 H662 H 0.67598 0.77240 0.75574
 H663 H 0.62861 0.70370 0.71244
 H664 H 0.58465 0.71083 0.74901
 C665 C 0.34009 0.77610 0.75255
 C666 C 0.33541 0.78131 0.78726
 C667 C 0.36096 0.77550 0.80486
 C668 C 0.38920 0.76481 0.78650
 C669 C 0.37708 0.73651 0.76856
 C670 C 0.35149 0.74241 0.75100
 C671 C 0.36826 0.79569 0.74434
 C672 C 0.39374 0.78983 0.76193
 H673 H 0.31344 0.78717 0.79748
 H674 H 0.36060 0.77681 0.82979
 H675 H 0.38530 0.71310 0.77160
 H676 H 0.33892 0.72393 0.73970
 H677 H 0.36818 0.81274 0.72602
 H678 H 0.41539 0.80186 0.75853
 C679 C -0.16201 0.28415 0.25342
 C680 C -0.13108 0.29266 0.23870
 C681 C -0.10613 0.28918 0.25763
 C682 C -0.11382 0.27754 0.28996
 C683 C -0.13821 0.30030 0.30201
 C684 C -0.16330 0.30373 0.28313
 C685 C -0.15735 0.25107 0.26583
 C686 C -0.13234 0.24765 0.28477
 H687 H -0.12899 0.30097 0.21524
 H688 H -0.08288 0.29448 0.25029
 H689 H -0.13796 0.30997 0.32500
 H690 H -0.18346 0.31592 0.29124
 H691 H -0.17326 0.23224 0.26138
 H692 H -0.12732 0.22598 0.29634
 C693 C -0.16029 0.71437 0.24720
 C694 C -0.16459 0.69690 0.21651
 C695 C -0.14202 0.70250 0.19570
 C696 C -0.11693 0.72505 0.20711
 C697 C -0.13550 0.75394 0.21619
 C698 C -0.15804 0.74836 0.23703
 C699 C -0.12763 0.70583 0.25841
 C700 C -0.10517 0.71136 0.23763
 H701 H -0.18506 0.68414 0.20986
 H702 H -0.14379 0.69406 0.17227
 H703 H -0.13276 0.77646 0.20567
 H704 H -0.17400 0.76621 0.24420
 H705 H -0.12262 0.69605 0.28094
 H706 H -0.08103 0.70636 0.24247
 C707 C 0.35128 0.20392 0.76177
 C708 C 0.38245 0.21552 0.77486
 C709 C 0.40443 0.21999 0.75323
 C710 C 0.39380 0.21236 0.72019
 C711 C 0.38247 0.17871 0.72265
 C712 C 0.36050 0.17431 0.74435
 C713 C 0.34236 0.22720 0.73651
 C714 C 0.36438 0.23155 0.71497
 H715 H 0.38753 0.21825 0.79922
 H716 H 0.42783 0.22676 0.75933
 H717 H 0.39302 0.15914 0.71146
 H718 H 0.35339 0.15122 0.75075
 H719 H 0.32034 0.23920 0.73553
 H720 H 0.36107 0.24720 0.69568
 C721 C 0.65313 0.28367 0.75245
 C722 C 0.63765 0.31369 0.74078
 C723 C 0.61291 0.30910 0.72173
 C724 C 0.60538 0.27483 0.71593
 C725 C 0.63550 0.26060 0.70439
 C726 C 0.66024 0.26518 0.72327
 C727 C 0.62612 0.26633 0.76767
 C728 C 0.60139 0.26170 0.74861
 H729 H 0.64377 0.33655 0.74892
 H730 H 0.59843 0.32822 0.71436
 H731 H 0.63723 0.24792 0.68296
 H732 H 0.68301 0.25632 0.71790
 H733 H 0.62478 0.26103 0.79200
 H734 H 0.57996 0.25204 0.75692
 C735 C 0.14834 0.78885 0.24867
 C736 C 0.13801 0.81793 0.23076
 C737 C 0.11399 0.81312 0.21088
 C738 C 0.10207 0.77958 0.21046
 C739 C 0.13068 0.75978 0.20407
 C740 C 0.15466 0.76458 0.22388
 C741 C 0.11844 0.77810 0.26427
 C742 C 0.09443 0.77323 0.24439
 H743 H 0.14593 0.84111 0.23577
 H744 H 0.10249 0.83245 0.19980
 H745 H 0.13200 0.74337 0.18529
 H746 H 0.17639 0.75226 0.22199
 H747 H 0.11584 0.77601 0.28899
 H748 H 0.07164 0.76688 0.25231
 C749 C 0.25028 0.15416 0.21046
 C750 C 0.27520 0.15875 0.23541
 C751 C 0.29476 0.13446 0.23898
 C752 C 0.28798 0.10724 0.21740
 C753 C 0.25383 0.09936 0.22271
 C754 C 0.23421 0.12368 0.21901
 C755 C 0.26821 0.14578 0.18118
 C756 C 0.28787 0.12144 0.18477
 H757 H 0.27742 0.17961 0.24902
 H758 H 0.31366 0.13468 0.25562
 H759 H 0.24560 0.07626 0.22763
 H760 H 0.20938 0.12103 0.22056
 H761 H 0.26353 0.15546 0.15859
 H762 H 0.29917 0.11161 0.16500
 C763 C 0.75364 0.65983 0.70469
 C764 C 0.77733 0.66303 0.73102
 C765 C 0.79656 0.63846 0.73440
 C766 C 0.79071 0.61235 0.71123
 C767 C 0.75626 0.60449 0.71443
 C768 C 0.73699 0.62912 0.71096
 C769 C 0.77304 0.65273 0.67598
 C770 C 0.79236 0.62809 0.67939
 H771 H 0.77901 0.68321 0.74569
 H772 H 0.81461 0.63775 0.75192
 H773 H 0.74765 0.58127 0.71792
 H774 H 0.71208 0.62667 0.71138
 H775 H 0.76962 0.66340 0.65364
 H776 H 0.80464 0.61910 0.65981
 C777 C 0.75142 0.34195 0.77211
 C778 C 0.78566 0.33634 0.78060
 C779 C 0.80438 0.36071 0.77454
 C780 C 0.78755 0.38877 0.76039
 C781 C 0.77126 0.37526 0.73165
 C782 C 0.75254 0.35087 0.73778
 C783 C 0.74267 0.37177 0.78883
 C784 C 0.76140 0.39606 0.78277
 H785 H 0.79492 0.31444 0.78858
 H786 H 0.82923 0.35942 0.77781
 H787 H 0.77630 0.38161 0.70814
 H788 H 0.74215 0.33739 0.71940
 H789 H 0.72317 0.37363 0.80418
 H790 H 0.75783 0.41863 0.79291
 C791 C 0.24285 -0.15374 0.28571
 C792 C 0.25948 -0.14337 0.31557
 C793 C 0.28022 -0.12021 0.31153
 C794 C 0.28260 -0.10894 0.27792
 C795 C 0.28941 -0.13810 0.25921
 C796 C 0.26884 -0.16131 0.26323
 C797 C 0.22840 -0.12341 0.27349
 C798 C 0.24910 -0.10024 0.26936
 H799 H 0.25320 -0.15093 0.33846
 H800 H 0.29073 -0.10889 0.33120
 H801 H 0.30903 -0.14035 0.24407
 H802 H 0.27096 -0.18327 0.25146
 H803 H 0.20379 -0.11956 0.27044
 H804 H 0.24195 -0.07721 0.26246
 C805 C 0.24572 -0.15922 0.72962
 C806 C 0.24521 -0.14962 0.76386
 C807 C 0.22619 -0.12537 0.76986
 C808 C 0.20893 -0.11268 0.74124
 C809 C 0.23437 -0.10544 0.71807
 C810 C 0.25341 -0.12952 0.71203
 C811 C 0.21133 -0.16545 0.72224
 C812 C 0.19230 -0.14121 0.72815
 H813 H 0.25556 -0.16284 0.78252
 H814 H 0.22131 -0.11895 0.79337
 H815 H 0.23729 -0.08299 0.70739
 H816 H 0.27250 -0.12753 0.69620
 H817 H 0.20234 -0.18758 0.71474
 H818 H 0.16743 -0.14283 0.72534
 C819 C 0.74255 0.33899 0.21525
 C820 C 0.72864 0.33976 0.24765
 C821 C 0.70922 0.36387 0.25255
 C822 C 0.70521 0.38556 0.22468
 C823 C 0.73811 0.39497 0.21604
 C824 C 0.75745 0.37084 0.21106
 C825 C 0.71393 0.33958 0.19366
 C826 C 0.69452 0.36378 0.19864
 H827 H 0.73287 0.32212 0.26497
 H828 H 0.69688 0.36652 0.27397
 H829 H 0.74548 0.41876 0.21366
 H830 H 0.78129 0.37411 0.20440
 H831 H 0.70726 0.32147 0.17787
 H832 H 0.67226 0.36502 0.18708
 C833 C 0.75237 0.65085 0.29285
 C834 C 0.72608 0.65721 0.26974
 C835 C 0.70595 0.63348 0.26620
 C836 C 0.71358 0.60504 0.28598
 C837 C 0.74719 0.59685 0.27819
 C838 C 0.76737 0.62063 0.28181
 C839 C 0.73617 0.64117 0.32278
 C840 C 0.71595 0.61740 0.31922
 H841 H 0.72340 0.67881 0.25730
 H842 H 0.68611 0.63490 0.25075
 H843 H 0.75473 0.57390 0.27170
 H844 H 0.79200 0.61766 0.27857
 H845 H 0.74247 0.64943 0.34552
 H846 H 0.70584 0.60653 0.33913
 C847 C 0.25713 0.14896 0.79970
 C848 C 0.23369 0.15618 0.77392
 C849 C 0.21251 0.13363 0.76896
 C850 C 0.21630 0.10545 0.79011
 C851 C 0.24997 0.09494 0.78598
 C852 C 0.27120 0.11753 0.79099
 C853 C 0.23743 0.14130 0.82803
 C854 C 0.21616 0.11872 0.82305
 H855 H 0.23366 0.17748 0.76075
 H856 H 0.19443 0.13573 0.75156
 H857 H 0.25666 0.07138 0.78084
 H858 H 0.29582 0.11300 0.79017
 H859 H 0.24199 0.14982 0.85106
 H860 H 0.20351 0.10905 0.84210
 C861 C 0.21798 0.25513 0.15956
 C862 C 0.25179 0.26575 0.15738
 C863 C 0.25719 0.28575 0.13389
 C864 C 0.22831 0.29357 0.11428
 C865 C 0.21535 0.26229 0.10405
 C866 C 0.20997 0.24236 0.12752
 C867 C 0.19980 0.28574 0.16168
 C868 C 0.20523 0.30568 0.13813
 H869 H 0.26967 0.25936 0.17392
 H870 H 0.27957 0.29644 0.13093
 H871 H 0.21065 0.25635 0.08020
 H872 H 0.20064 0.21946 0.12364
 H873 H 0.18655 0.29312 0.18130
 H874 H 0.19626 0.32906 0.13837
 C875 C 0.71980 0.76075 0.65456
 C876 C 0.75314 0.77290 0.65333
 C877 C 0.75837 0.79289 0.62981
 C878 C 0.72986 0.79917 0.60918
 C879 C 0.71871 0.76721 0.59892
 C880 C 0.71343 0.74730 0.62243
 C881 C 0.70009 0.79048 0.65567
 C882 C 0.70539 0.81043 0.63209
 H883 H 0.77083 0.76726 0.67034
 H884 H 0.78045 0.80429 0.62709
 H885 H 0.71500 0.76083 0.57502
 H886 H 0.70520 0.72399 0.61853
 H887 H 0.68573 0.79742 0.67465
 H888 H 0.69539 0.83337 0.63197
 C889 C 0.79156 0.74712 0.34793
 C890 C 0.82164 0.76415 0.35656
 C891 C 0.81846 0.78527 0.37945
 C892 C 0.78536 0.78762 0.39208
 C893 C 0.76485 0.79374 0.36365
 C894 C 0.76806 0.77273 0.34077
 C895 C 0.78124 0.73319 0.37881
 C896 C 0.77796 0.75428 0.40170
 H897 H 0.84421 0.75804 0.34788
 H898 H 0.83858 0.79630 0.38948
 H899 H 0.74916 0.81321 0.36162
 H900 H 0.75507 0.77427 0.31931
 H901 H 0.77858 0.70866 0.38301
 H902 H 0.77221 0.74757 0.42501
 C903 C 0.29697 0.24443 -0.14470
 C904 C 0.32558 0.26411 -0.13666
 C905 C 0.32071 0.28548 -0.11430
 C906 C 0.28758 0.28541 -0.10157
 C907 C 0.26659 0.28915 -0.13007
 C908 C 0.27144 0.26788 -0.15241
 C909 C 0.28787 0.23052 -0.11345
 C910 C 0.28295 0.25182 -0.09109
 H911 H 0.34865 0.25959 -0.14493
 H912 H 0.33990 0.29830 -0.10462
 H913 H 0.24942 0.30728 -0.13255
 H914 H 0.25838 0.26788 -0.17388
 H915 H 0.28671 0.20593 -0.10887
 H916 H 0.27749 0.24525 -0.06767
 C917 C 0.72285 0.25033 -0.16014
 C918 C 0.75649 0.24969 -0.14802
 C919 C 0.76117 0.23076 -0.12338
 C920 C 0.73185 0.21379 -0.11277
 C921 C 0.70804 0.23945 -0.10745
 C922 C 0.70337 0.25837 -0.13202
 C923 C 0.71592 0.21610 -0.16670
 C924 C 0.72054 0.19714 -0.14206
 H925 H 0.77587 0.25997 -0.15976
 H926 H 0.78437 0.22582 -0.11519
 H927 H 0.69595 0.24257 -0.08595
 H928 H 0.68727 0.27758 -0.13144
 H929 H 0.70940 0.20723 -0.18918
 H930 H 0.71775 0.17232 -0.14370
 C931 C 0.21351 0.74766 0.33824
 C932 C 0.24755 0.73745 0.34052
 C933 C 0.25378 0.71762 0.36413
 C934 C 0.22546 0.70953 0.38368
 C935 C 0.21224 0.74070 0.39375
 C936 C 0.20602 0.76045 0.37021
 C937 C 0.19581 0.71682 0.33617
 C938 C 0.20205 0.69703 0.35981
 H939 H 0.26497 0.74400 0.32402
 H940 H 0.27644 0.70735 0.36742
 H941 H 0.20796 0.74669 0.41756
 H942 H 0.19643 0.78327 0.37399
 H943 H 0.18256 0.70914 0.31634
 H944 H 0.19373 0.67346 0.35935
 C945 C 0.27801 0.75834 0.65464
 C946 C 0.30786 0.75421 0.63616
 C947 C 0.30453 0.73618 0.61073
 C948 C 0.27160 0.72365 0.60573
 C949 C 0.26361 0.70745 0.63599
 C950 C 0.26691 0.72543 0.66133
 C951 C 0.25478 0.77111 0.63054
 C952 C 0.25148 0.75305 0.60512
 H953 H 0.32943 0.76571 0.64175
 H954 H 0.32329 0.73258 0.59480
 H955 H 0.25579 0.68372 0.63734
 H956 H 0.26186 0.71700 0.68425
 H957 H 0.24459 0.79393 0.63103
 H958 H 0.23855 0.76109 0.58514
 C959 C 0.78162 0.24312 0.16002
 C960 C 0.74867 0.22997 0.15765
 C961 C 0.74407 0.21051 0.13351
 C962 C 0.77276 0.20564 0.11352
 C963 C 0.78295 0.23822 0.10430
 C964 C 0.78757 0.25764 0.12840
 C965 C 0.80220 0.21398 0.16098
 C966 C 0.79759 0.19452 0.13680
 H967 H 0.73076 0.23465 0.17425
 H968 H 0.72228 0.19871 0.12975
 H969 H 0.78653 0.24535 0.08065
 H970 H 0.79509 0.28129 0.12526
 H971 H 0.81648 0.20688 0.18035
 H972 H 0.80816 0.17186 0.13671
 C973 C 0.45796 0.40035 0.50217
 C974 C 0.42862 0.39241 0.52031
 C975 C 0.43219 0.36837 0.54028
 C976 C 0.46485 0.35399 0.54043
 C977 C 0.46997 0.34555 0.50649
 C978 C 0.46631 0.36958 0.48659
 C979 C 0.48312 0.40521 0.52680
 C980 C 0.48667 0.38121 0.54666
 H981 H 0.40605 0.40236 0.51574
 H982 H 0.41243 0.35899 0.55202
 H983 H 0.47473 0.32229 0.49862
 H984 H 0.46772 0.36649 0.46187
 H985 H 0.49689 0.42603 0.52861
 H986 H 0.50344 0.38165 0.56542
 C987 C -0.03511 0.90379 -0.00469
 C988 C -0.00177 0.89129 -0.00612
 C989 C 0.00376 0.86655 0.01246
 C990 C -0.02447 0.85621 0.03118
 C991 C -0.03395 0.88568 0.04843
 C992 C -0.03942 0.91041 0.02982
 C993 C -0.05571 0.87579 -0.01146
 C994 C -0.05018 0.85111 0.00712
 H995 H 0.01714 0.90288 -0.01740
 H996 H 0.02710 0.85819 0.01602
 H997 H -0.03496 0.88733 0.07331
 H998 H -0.04492 0.93300 0.03901
 H999 H -0.07314 0.87538 -0.02961
 H1000 H -0.06289 0.82967 0.00479
 C1001 C 0.02983 0.58561 0.00336
 C1002 C -0.00327 0.58735 0.01577
 C1003 C -0.00813 0.61112 0.03554
 C1004 C 0.02050 0.63142 0.04138
 C1005 C 0.04518 0.60815 0.05260
 C1006 C 0.05006 0.58432 0.03286
 C1007 C 0.03590 0.61764 -0.01040
 C1008 C 0.03103 0.64138 0.00930
 H1009 H -0.02106 0.57052 0.01047
 H1010 H -0.03000 0.61429 0.04704
 H1011 H 0.05542 0.60805 0.07548
 H1012 H 0.06422 0.56489 0.03992
 H1013 H 0.04364 0.62132 -0.03377
 H1014 H 0.03460 0.66526 0.00270
 C1015 C 0.53517 0.08947 0.50241
 C1016 C 0.50182 0.09028 0.51433
 C1017 C 0.49621 0.11342 0.53464
 C1018 C 0.52440 0.13405 0.54148
 C1019 C 0.54926 0.11090 0.55249
 C1020 C 0.55489 0.08771 0.53223
 C1021 C 0.54086 0.12198 0.48962
 C1022 C 0.53526 0.14509 0.50987
 H1023 H 0.48448 0.07316 0.50848
 H1024 H 0.47418 0.11567 0.54603
 H1025 H 0.55910 0.11045 0.57555
 H1026 H 0.56916 0.06828 0.53903
 H1027 H 0.54882 0.12643 0.46646
 H1028 H 0.53841 0.16920 0.50395
 C1029 C -0.03201 0.10175 0.50061
 C1030 C -0.06246 0.11210 0.48494
 C1031 C -0.05933 0.13630 0.46522
 C1032 C -0.02594 0.14836 0.46278
 C1033 C -0.01696 0.15573 0.49637
 C1034 C -0.02018 0.13153 0.51607
 C1035 C -0.00974 0.09579 0.47411
 C1036 C -0.00660 0.11994 0.45449
 H1037 H -0.08509 0.10372 0.49126
 H1038 H -0.07950 0.14767 0.45553
 H1039 H -0.01033 0.17852 0.50431
 H1040 H -0.01656 0.13412 0.54067
 H1041 H 0.00250 0.07417 0.47097
 H1042 H 0.00830 0.11887 0.43462
 C1043 C 0.47286 0.59617 1.00088
 C1044 C 0.50744 0.60432 0.99904
 C1045 C 0.51389 0.62714 0.97856
 C1046 C 0.48523 0.64000 0.96140
 C1047 C 0.47060 0.61108 0.94679
 C1048 C 0.46420 0.58825 0.96729
 C1049 C 0.45654 0.62688 1.00729
 C1050 C 0.46295 0.64960 0.98683
 H1051 H 0.52575 0.59116 1.01018
 H1052 H 0.53754 0.63262 0.97286
 H1053 H 0.46735 0.60798 0.92220
 H1054 H 0.45589 0.56587 0.95979
 H1055 H 0.44118 0.63046 1.02651
 H1056 H 0.45307 0.67255 0.98863
 C1057 C 0.52681 0.91259 0.98870
 C1058 C 0.49326 0.90613 0.97828
 C1059 C 0.49013 0.88146 0.95920
 C1060 C 0.52078 0.86510 0.95187
 C1061 C 0.54086 0.89123 0.93882
 C1062 C 0.54398 0.91597 0.95785
 C1063 C 0.53848 0.88193 1.00237
 C1064 C 0.53532 0.85734 0.98328
 H1065 H 0.47379 0.92076 0.98397
 H1066 H 0.46807 0.87553 0.94874
 H1067 H 0.54893 0.89206 0.91531
 H1068 H 0.55425 0.93709 0.94947
 H1069 H 0.54862 0.87977 1.02524
 H1070 H 0.54270 0.83430 0.98992
 C1071 C 0.04708 0.40527 0.50212
 C1072 C 0.07579 0.39567 0.48378
 C1073 C 0.07036 0.37315 0.46263
 C1074 C 0.03658 0.36182 0.46153
 C1075 C 0.03044 0.35207 0.49498
 C1076 C 0.03594 0.37460 0.51608
 C1077 C 0.02265 0.41368 0.47765
 C1078 C 0.01722 0.39116 0.45658
 H1079 H 0.09912 0.40309 0.48912
 H1080 H 0.08941 0.36238 0.45084
 H1081 H 0.02367 0.32894 0.50166
 H1082 H 0.03401 0.37037 0.54060
 H1083 H 0.01071 0.43572 0.47687
 H1084 H 0.00067 0.39404 0.43783
 C1085 C 0.40952 0.50302 0.47124
 C1086 C 0.40599 0.51180 0.50536
 C1087 C 0.38327 0.53281 0.51066
 C1088 C 0.36581 0.54344 0.48135
 C1089 C 0.39174 0.55542 0.46056
 C1090 C 0.41450 0.53445 0.45526
 C1091 C 0.37722 0.49268 0.46075
 C1092 C 0.35457 0.51364 0.46598
 H1093 H 0.42139 0.50377 0.52357
 H1094 H 0.37993 0.54261 0.53331
 H1095 H 0.39366 0.57919 0.45298
 H1096 H 0.43543 0.54125 0.44370
 H1097 H 0.37257 0.47059 0.44994
 H1098 H 0.33063 0.50938 0.45969
 C1099 C 0.89402 -0.00820 -0.03363
 C1100 C 0.87538 -0.00010 -0.06305
 C1101 C 0.85107 0.01918 -0.05828
 C1102 C 0.84714 0.02886 -0.02446
 C1103 C 0.84487 -0.00221 -0.00731
 C1104 C 0.86916 -0.02155 -0.01209
 C1105 C 0.90274 0.02305 -0.01937
 C1106 C 0.87846 0.04222 -0.01468
 H1107 H 0.87983 -0.01003 -0.08548
 H1108 H 0.83506 0.02538 -0.07668
 H1109 H 0.82440 -0.01014 0.00439
 H1110 H 0.86802 -0.04533 -0.00451
 H1111 H 0.92622 0.02954 -0.01326
 H1112 H 0.88129 0.06497 -0.00464
 C1113 C 0.58068 0.00811 0.02671
 C1114 C 0.57906 0.03751 0.04666
 C1115 C 0.60307 0.05726 0.04251
 C1116 C 0.62683 0.04613 0.01881
 C1117 C 0.63647 0.01384 0.02982
 C1118 C 0.61255 -0.00586 0.03395
 C1119 C 0.58315 0.02085 -0.00628
 C1120 C 0.60711 0.04062 -0.01039
 H1121 H 0.55936 0.04448 0.06008
 H1122 H 0.60293 0.08010 0.05262
 H1123 H 0.66026 0.00709 0.03420
 H1124 H 0.61598 -0.02939 0.04188
 H1125 H 0.56661 0.01582 -0.02454
 H1126 H 0.61066 0.05242 -0.03210
 C1127 C 0.10513 0.49813 0.54090
 C1128 C 0.13564 0.48379 0.52965
 C1129 C 0.15847 0.50466 0.52474
 C1130 C 0.14925 0.53825 0.53158
 C1131 C 0.11989 0.54395 0.51228
 C1132 C 0.09702 0.52317 0.51710
 C1133 C 0.11536 0.51595 0.57005
 C1134 C 0.13819 0.53685 0.56518
 H1135 H 0.13966 0.45917 0.52747
 H1136 H 0.18155 0.49765 0.51824
 H1137 H 0.11726 0.56297 0.49618
 H1138 H 0.07494 0.52454 0.50506
 H1139 H 0.10838 0.51018 0.59323
 H1140 H 0.14963 0.54803 0.58443
 C1141 C 0.09117 0.49560 -0.04027
 C1142 C 0.12181 0.51236 -0.03347
 C1143 C 0.14641 0.49319 -0.02929
 C1144 C 0.13863 0.45871 -0.03236
 C1145 C 0.11222 0.45327 -0.00974
 C1146 C 0.08767 0.47243 -0.01381
 C1147 C 0.09858 0.47563 -0.06862
 C1148 C 0.12319 0.45638 -0.06450
 H1149 H 0.12422 0.53727 -0.03311
 H1150 H 0.16959 0.50187 -0.02525
 H1151 H 0.11269 0.43551 0.00790
 H1152 H 0.06728 0.47097 0.00039
 H1153 H 0.08800 0.47835 -0.09117
 H1154 H 0.13211 0.44340 -0.08368
 C1155 C 0.59879 1.00380 0.45694
 C1156 C 0.62893 1.02059 0.46609
 C1157 C 0.65375 1.00159 0.46983
 C1158 C 0.64674 0.96730 0.46391
 C1159 C 0.61965 0.95969 0.48499
 C1160 C 0.59484 0.97856 0.48141
 C1161 C 0.60788 0.98630 0.42741
 C1162 C 0.63271 0.96725 0.43108
 H1163 H 0.63106 1.04547 0.46786
 H1164 H 0.67667 1.01040 0.47497
 H1165 H 0.61989 0.94070 0.50132
 H1166 H 0.57400 0.97560 0.49472
 H1167 H 0.59862 0.99116 0.40463
 H1168 H 0.64326 0.95662 0.41128
 C1169 C 0.91729 1.00235 0.53053
 C1170 C 0.92019 0.97061 0.54670
 C1171 C 0.89596 0.95139 0.54112
 C1172 C 0.87077 0.96515 0.51982
 C1173 C 0.86171 0.99575 0.53487
 C1174 C 0.88578 1.01503 0.54044
 C1175 C 0.91288 0.99356 0.49637
 C1176 C 0.88871 0.97429 0.49080
 H1177 H 0.94078 0.96201 0.55825
 H1178 H 0.89647 0.92748 0.54855
 H1179 H 0.83817 1.00173 0.54076
 H1180 H 0.88268 1.03741 0.55116
 H1181 H 0.92864 1.00026 0.47832
 H1182 H 0.88446 0.96467 0.46813
 C1183 C 0.40111 0.51106 0.03787
 C1184 C 0.37485 0.52426 0.01743
 C1185 C 0.35098 0.50438 0.01269
 C1186 C 0.35516 0.47289 0.02876
 C1187 C 0.38644 0.46081 0.01779
 C1188 C 0.41027 0.48060 0.02253
 C1189 C 0.38438 0.50152 0.06749
 C1190 C 0.36050 0.48166 0.06278
 H1191 H 0.37340 0.54806 0.00983
 H1192 H 0.32992 0.51158 0.00094
 H1193 H 0.38957 0.43842 0.00713
 H1194 H 0.43371 0.47508 0.01587
 H1195 H 0.38924 0.51135 0.08997
 H1196 H 0.34532 0.47514 0.08134
 C1197 C 0.49744 0.45825 0.40843
 C1198 C 0.52299 0.48185 0.41510
 C1199 C 0.54294 0.48601 0.39160
 C1200 C 0.53588 0.46632 0.36306
 C1201 C 0.53465 0.43285 0.37521
 C1202 C 0.51463 0.42867 0.39875
 C1203 C 0.48200 0.46933 0.37823
 C1204 C 0.50199 0.47358 0.35470
 H1205 H 0.52532 0.49415 0.43673
 H1206 H 0.56227 0.50184 0.39325
 H1207 H 0.54538 0.41317 0.36438
 H1208 H 0.50913 0.40567 0.40676
 H1209 H 0.45727 0.47225 0.37515
 H1210 H 0.49418 0.48025 0.33181
 C1211 C -0.00963 -0.02610 0.90527
 C1212 C -0.01334 -0.04781 0.87764
 C1213 C 0.00631 -0.04197 0.85424
 C1214 C 0.02836 -0.01487 0.86018
 C1215 C 0.00701 0.01250 0.86810
 C1216 C -0.01267 0.00667 0.89159
 C1217 C 0.02478 -0.02826 0.91445
 C1218 C 0.04447 -0.02251 0.89101
 H1219 H -0.03034 -0.06614 0.87647
 H1220 H 0.00601 -0.05532 0.83314
 H1221 H 0.00896 0.03559 0.85886
 H1222 H -0.02628 0.02510 0.90139
 H1223 H 0.03302 -0.03274 0.93772
 H1224 H 0.06933 -0.02227 0.89442
 C1225 C 0.01053 0.03807 0.59067
 C1226 C 0.04047 0.05736 0.59032
 C1227 C 0.05960 0.05215 0.61489
 C1228 C 0.04737 0.02808 0.63788
 C1229 C 0.01513 0.03965 0.64646
 C1230 C -0.00396 0.04485 0.62199
 C1231 C 0.02244 0.00463 0.59318
 C1232 C 0.04159 -0.00057 0.61771
 H1233 H 0.04826 0.07095 0.57100
 H1234 H 0.08273 0.06161 0.61553
 H1235 H 0.00796 0.04363 0.66997
 H1236 H -0.02739 0.05327 0.62466
 H1237 H 0.01736 -0.01314 0.57632
 H1238 H 0.05274 -0.02271 0.62150
 C1239 C 0.49490 0.54152 0.10247
 C1240 C 0.47957 0.52669 0.13074
 C1241 C 0.49925 0.52187 0.15494
 C1242 C 0.53265 0.53226 0.14910
 C1243 C 0.54199 0.51573 0.11945
 C1244 C 0.52243 0.52055 0.09527
 C1245 C 0.50930 0.57125 0.11565
 C1246 C 0.52898 0.56649 0.13987
 H1247 H 0.45498 0.52274 0.13282
 H1248 H 0.49123 0.51347 0.17697
 H1249 H 0.56248 0.50143 0.11761
 H1250 H 0.52621 0.51030 0.07286
 H1251 H 0.50258 0.59431 0.10844
 H1252 H 0.53820 0.58575 0.15286
 C1253 C 0.48895 -0.03522 0.08474
 C1254 C 0.50558 -0.04128 0.11558
 C1255 C 0.48741 -0.03802 0.14064
 C1256 C 0.45390 -0.02901 0.13306
 C1257 C 0.45629 0.00029 0.11314
 C1258 C 0.47451 -0.00293 0.08808
 C1259 C 0.46073 -0.05696 0.08495
 C1260 C 0.44255 -0.05371 0.11007
 H1261 H 0.52971 -0.04787 0.11751
 H1262 H 0.49608 -0.04181 0.16388
 H1263 H 0.44373 0.02146 0.11764
 H1264 H 0.47742 0.01553 0.07147
 H1265 H 0.45311 -0.07106 0.06581
 H1266 H 0.42041 -0.06520 0.11115
 C1267 C 1.01098 0.46199 0.59743
 C1268 C 0.98477 0.48422 0.58849
 C1269 C 0.96360 0.48859 0.61088
 C1270 C 0.97017 0.47039 0.64058
 C1271 C 0.97348 0.43651 0.63019
 C1272 C 0.99473 0.43219 0.60780
 C1273 C 1.02455 0.47496 0.62771
 C1274 C 1.00331 0.47935 0.65010
 H1275 H 0.98300 0.49557 0.56626
 H1276 H 0.94376 0.50363 0.60769
 H1277 H 0.96308 0.41695 0.64158
 H1278 H 1.00153 0.40919 0.60074
 H1279 H 1.04901 0.47853 0.63201
 H1280 H 1.00985 0.48685 0.67308
 C1281 C 0.99182 0.53084 0.90639
 C1282 C 0.98007 0.49751 0.90295
 C1283 C 0.96076 0.49310 0.87842
 C1284 C 0.95472 0.52239 0.85911
 C1285 C 0.94255 0.54568 0.88286
 C1286 C 0.96181 0.55013 0.90744
 C1287 C 1.00606 0.53870 0.87515
 C1288 C 0.98683 0.53427 0.85065
 H1289 H 0.98536 0.47921 0.91927
 H1290 H 0.94958 0.47111 0.87423
 H1291 H 0.91947 0.55538 0.88237
 H1292 H 0.95415 0.56342 0.92698
 H1293 H 1.02941 0.54727 0.87256
 H1294 H 0.99382 0.53903 0.82722
 C1295 C 0.49815 0.03322 0.40594
 C1296 C 0.48831 -0.00077 0.40291
 C1297 C 0.46845 -0.00636 0.37908
 C1298 C 0.45996 0.02251 0.35999
 C1299 C 0.44729 0.04502 0.38421
 C1300 C 0.46710 0.05066 0.40809
 C1301 C 0.51075 0.04188 0.37420
 C1302 C 0.49095 0.03630 0.35038
 H1303 H 0.49514 -0.01867 0.41912
 H1304 H 0.45832 -0.02895 0.37548
 H1305 H 0.42369 0.05341 0.38442
 H1306 H 0.45937 0.06351 0.42788
 H1307 H 0.53344 0.05181 0.37078
 H1308 H 0.49679 0.04142 0.32670
   
