data_POSCAR
  _audit_creation_date              2014-09-24
  _audit_creation_method            'ToBaCCo'
  _symmetry_space_group_name_H-M    'P1'
  _symmetry_Int_Tables_number       1
  _symmetry_cell_setting            triclinic
  loop_
  _symmetry_equiv_pos_as_xyz
 x,y,z
_cell_length_a 78.4786
_cell_length_b 79.4664
_cell_length_c 79.4157
_cell_angle_alpha 89.605600
_cell_angle_beta 90.200400
_cell_angle_gamma 89.879400
loop_
  _atom_site_label
  _atom_site_type_symbol
  _atom_site_fract_x
  _atom_site_fract_y
  _atom_site_fract_z
C1 C 0.35197 0.34136 0.33850
 N2 N 0.34359 0.35529 0.33292
 C3 C 0.32918 0.36070 0.34062
 N4 N 0.32309 0.35195 0.35410
 C5 C 0.33133 0.33795 0.35985
 N6 N 0.34574 0.33277 0.35196
 C7 C 0.35903 0.83279 -0.16699
 N8 N 0.35150 0.82600 -0.15315
 C9 C 0.33731 0.83305 -0.14643
 N10 N 0.33059 0.84710 -0.15371
 C11 C 0.33792 0.85412 -0.16758
 N12 N 0.35213 0.84685 -0.17408
 C13 C 0.85245 0.33170 -0.16341
 N14 N 0.84500 0.32399 -0.15007
 C15 C 0.83061 0.33023 -0.14310
 N16 N 0.82356 0.34445 -0.14966
 C17 C 0.83077 0.35244 -0.16308
 N18 N 0.84528 0.34595 -0.16989
 C19 C 0.85164 0.83378 0.33299
 N20 N 0.84551 0.84810 0.32574
 C21 C 0.83132 0.85579 0.33176
 N22 N 0.82315 0.84897 0.34527
 C23 C 0.82912 0.83464 0.35269
 N24 N 0.84333 0.82718 0.34645
 C25 C 0.64055 0.66306 0.32413
 N26 N 0.64749 0.66987 0.33823
 C27 C 0.66116 0.66253 0.34590
 N28 N 0.66788 0.64825 0.33930
 C29 C 0.66107 0.64129 0.32522
 N30 N 0.64744 0.64880 0.31774
 C31 C 0.64243 0.15945 -0.16953
 N32 N 0.64982 0.16558 -0.15533
 C33 C 0.66383 0.15818 -0.14852
 N34 N 0.67055 0.14447 -0.15610
 C35 C 0.66348 0.13803 -0.17030
 N36 N 0.64935 0.14561 -0.17696
 C37 C 0.14414 0.66835 -0.16913
 N38 N 0.15134 0.67491 -0.15503
 C39 C 0.16553 0.66790 -0.14815
 N40 N 0.17254 0.65423 -0.15553
 C41 C 0.16562 0.64742 -0.16962
 N42 N 0.15135 0.65459 -0.17638
 C43 C 0.14311 0.16912 0.33201
 N44 N 0.15068 0.15528 0.32541
 C45 C 0.16464 0.14819 0.33274
 N46 N 0.17107 0.15517 0.34701
 C47 C 0.16367 0.16902 0.35387
 N48 N 0.14972 0.17590 0.34627
 C49 C 0.64886 0.32604 0.67029
 N50 N 0.65611 0.34023 0.67660
 C51 C 0.67078 0.34642 0.66993
 N52 N 0.67814 0.33825 0.65688
 C53 C 0.67112 0.32410 0.65042
 N54 N 0.65646 0.31806 0.65719
 C55 C 0.64935 0.83659 1.16632
 N56 N 0.65733 0.85058 1.17205
 C57 C 0.67180 0.85636 1.16469
 N58 N 0.67838 0.84791 1.15136
 C59 C 0.67059 0.83385 1.14542
 N60 N 0.65610 0.82831 1.15298
 C61 C 0.14944 0.33765 1.16834
 N62 N 0.15654 0.33011 1.15470
 C63 C 0.17088 0.33645 1.14749
 N64 N 0.17812 0.35049 1.15408
 C65 C 0.17125 0.35823 1.16768
 N66 N 0.15693 0.35167 1.17468
 C67 C 0.14345 0.83364 0.66568
 N68 N 0.15143 0.84723 0.67243
 C69 C 0.16576 0.85368 0.66532
 N70 N 0.17207 0.84634 0.65126
 C71 C 0.16433 0.83281 0.64429
 N72 N 0.15003 0.82651 0.65157
 C73 C 0.35560 0.66676 0.66397
 N74 N 0.34892 0.67430 0.64998
 C75 C 0.33497 0.66775 0.64223
 N76 N 0.32775 0.65359 0.64862
 C77 C 0.33423 0.64591 0.66253
 N78 N 0.34815 0.65259 0.67016
 C79 C 0.35801 0.17246 1.17438
 N80 N 0.35081 0.15836 1.18088
 C81 C 0.33735 0.15080 1.17330
 N82 N 0.33099 0.15763 1.15881
 C83 C 0.33802 0.17179 1.15203
 N84 N 0.35151 0.17911 1.15991
 C85 C 0.85573 0.65990 1.17124
 N86 N 0.84856 0.66618 1.15691
 C87 C 0.83491 0.65845 1.14974
 N88 N 0.82846 0.64434 1.15711
 C89 C 0.83548 0.63790 1.17144
 N90 N 0.84910 0.64581 1.17837
 C91 C 0.86312 0.15929 0.67401
 N92 N 0.85602 0.14528 0.68100
 C93 C 0.84265 0.13742 0.67342
 N94 N 0.83646 0.14378 0.65869
 C95 C 0.84338 0.15771 0.65152
 N96 N 0.85667 0.16537 0.65926
 C97 C 0.32921 0.35506 0.66707
 N98 N 0.34345 0.34825 0.67409
 C99 C 0.35066 0.33415 0.66761
 N100 N 0.34341 0.32682 0.65391
 C101 C 0.32912 0.33348 0.64674
 N102 N 0.32214 0.34757 0.65343
 C103 C 0.32971 0.86180 0.16095
 N104 N 0.32215 0.85518 0.14709
 C105 C 0.32883 0.84149 0.13939
 N106 N 0.34323 0.83438 0.14573
 C107 C 0.35099 0.84078 0.15958
 N108 N 0.34415 0.85452 0.16716
 C109 C 0.82784 0.35049 0.16154
 N110 N 0.84264 0.34383 0.16757
 C111 C 0.84982 0.33018 0.16013
 N112 N 0.84201 0.32320 0.14656
 C113 C 0.82723 0.32973 0.14040
 N114 N 0.82026 0.34334 0.14798
 C115 C 0.82609 0.84879 0.65897
 N116 N 0.84036 0.84180 0.66584
 C117 C 0.84753 0.82785 0.65897
 N118 N 0.84024 0.82092 0.64511
 C119 C 0.82600 0.82774 0.63808
 N120 N 0.81900 0.84166 0.64511
 C121 C 0.66449 0.63993 0.66197
 N122 N 0.65085 0.64812 0.66856
 C123 C 0.64429 0.66200 0.66086
 N124 N 0.65155 0.66769 0.64646
 C125 C 0.66518 0.65974 0.63964
 N126 N 0.67164 0.64583 0.64748
 C127 C 0.66052 0.14862 0.16941
 N128 N 0.66678 0.15444 0.15453
 C129 C 0.66013 0.16844 0.14711
 N130 N 0.64714 0.17664 0.15475
 C131 C 0.64071 0.17107 0.16959
 N132 N 0.64746 0.15702 0.17689
 C133 C 0.16476 0.64892 0.16402
 N134 N 0.17131 0.65619 0.14989
 C135 C 0.16415 0.67033 0.14323
 N136 N 0.15037 0.67717 0.15086
 C137 C 0.14365 0.67013 0.16494
 N138 N 0.15092 0.65598 0.17148
 C139 C 0.16525 0.14331 0.66890
 N140 N 0.15183 0.15094 0.67641
 C141 C 0.14493 0.16524 0.66995
 N142 N 0.15166 0.17202 0.65570
 C143 C 0.16513 0.16457 0.64795
 N144 N 0.17188 0.15021 0.65465
 C145 C 0.33227 0.65309 0.33008
 N146 N 0.34595 0.66104 0.32320
 C147 C 0.35250 0.67510 0.33040
 N148 N 0.34521 0.68117 0.34460
 C149 C 0.33157 0.67343 0.35165
 N150 N 0.32516 0.65939 0.34431
 C151 C 0.32864 0.14328 0.83468
 N152 N 0.32220 0.15055 0.84868
 C153 C 0.32933 0.16464 0.85523
 N154 N 0.34318 0.17156 0.84753
 C155 C 0.34977 0.16440 0.83341
 N156 N 0.34239 0.15030 0.82714
 C157 C 0.83082 0.64266 0.83322
 N158 N 0.84446 0.64955 0.82529
 C159 C 0.85225 0.66346 0.83146
 N160 N 0.84622 0.67052 0.84579
 C161 C 0.83258 0.66383 0.85394
 N162 N 0.82493 0.64989 0.84756
 C163 C 0.83368 0.14873 0.33270
 N164 N 0.84732 0.15585 0.32493
 C165 C 0.85513 0.16955 0.33161
 N166 N 0.84915 0.17611 0.34623
 C167 C 0.83554 0.16912 0.35415
 N168 N 0.82791 0.15547 0.34726
 C169 C 0.67030 0.35317 0.34843
 N170 N 0.67741 0.34591 0.36232
 C171 C 0.67018 0.33221 0.36966
 N172 N 0.65571 0.32575 0.36294
 C173 C 0.64840 0.33282 0.34907
 N174 N 0.65579 0.34653 0.34186
 C175 C 0.66966 0.84963 0.83574
 N176 N 0.67705 0.84309 0.84982
 C177 C 0.67065 0.82910 0.85740
 N178 N 0.65666 0.82159 0.85068
 C179 C 0.64910 0.82796 0.83657
 N180 N 0.65570 0.84197 0.82918
 C181 C 0.17006 0.35985 0.83900
 N182 N 0.17679 0.35240 0.85294
 C183 C 0.16980 0.33817 0.85951
 N184 N 0.15586 0.33134 0.85191
 C185 C 0.14899 0.33870 0.83791
 N186 N 0.15620 0.35289 0.83160
 C187 C 0.16551 0.86015 0.33347
 N188 N 0.15149 0.85332 0.32616
 C189 C 0.14406 0.83935 0.33274
 N190 N 0.15085 0.83215 0.34681
 C191 C 0.16488 0.83879 0.35430
 N192 N 0.17215 0.85280 0.34754
 O193 O 0.25414 1.02094 0.23283
 O194 O 0.23351 0.98825 0.25842
 O195 O 0.23316 1.02101 0.25808
 O196 O 0.25561 0.98819 0.23408
 O197 O 0.27688 0.98905 0.25228
 O198 O 0.25445 1.02166 0.27626
 O199 O 0.25479 0.98881 0.27662
 O200 O 0.27547 1.02182 0.25096
 Cu201 Cu 0.24198 1.00451 0.24404
 Cu202 Cu 0.26753 1.00543 0.26585
 C203 C 0.26829 1.02706 0.23752
 C204 C 0.24056 0.98286 0.27182
 C205 C 0.24002 1.02698 0.27128
 C206 C 0.27010 0.98297 0.23913
 O207 O 0.27094 0.48640 0.74934
 O208 O 0.24550 0.52025 0.76853
 O209 O 0.24594 0.48758 0.77063
 O210 O 0.27138 0.51916 0.74817
 O211 O 0.25335 0.51850 0.72682
 O212 O 0.22786 0.48662 0.74933
 O213 O 0.22748 0.51936 0.74719
 O214 O 0.25290 0.48575 0.72800
 Cu215 Cu 0.26025 0.50345 0.76130
 Cu216 Cu 0.23859 0.50247 0.73569
 C217 C 0.26620 0.48025 0.73536
 C218 C 0.23213 0.52559 0.76113
 C219 C 0.23260 0.48162 0.76385
 C220 C 0.26674 0.52429 0.73369
 O221 O 0.74870 -0.01353 0.22774
 O222 O 0.77293 0.01935 0.24952
 O223 O 0.77136 -0.01343 0.25168
 O224 O 0.74909 0.01930 0.22666
 O225 O 0.72914 0.02057 0.24610
 O226 O 0.75136 -0.01179 0.27104
 O227 O 0.75297 0.02094 0.26893
 O228 O 0.72869 -0.01223 0.24712
 Cu229 Cu 0.76252 0.00279 0.23697
 Cu230 Cu 0.73855 0.00452 0.26023
 C231 C 0.73462 -0.01862 0.23371
 C232 C 0.76711 0.02587 0.26287
 C233 C 0.76506 -0.01827 0.26563
 C234 C 0.73528 0.02556 0.23218
 O235 O 0.74845 0.47879 0.72766
 O236 O 0.77270 0.51280 0.74830
 O237 O 0.77311 0.48001 0.74956
 O238 O 0.74937 0.51154 0.72497
 O239 O 0.73001 0.51311 0.74496
 O240 O 0.75370 0.48092 0.76955
 O241 O 0.75335 0.51377 0.76835
 O242 O 0.72902 0.48032 0.74760
 Cu243 Cu 0.76283 0.49567 0.73563
 Cu244 Cu 0.73959 0.49716 0.75960
 C245 C 0.73458 0.47370 0.73419
 C246 C 0.76712 0.51910 0.76191
 C247 C 0.76750 0.47495 0.76367
 C248 C 0.73573 0.51784 0.73072
 O249 O 0.22306 0.52101 0.25293
 O250 O 0.24769 0.48898 0.27638
 O251 O 0.24671 0.52182 0.27594
 O252 O 0.22424 0.48820 0.25319
 O253 O 0.24403 0.48864 0.23355
 O254 O 0.26638 0.52246 0.25619
 O255 O 0.26748 0.48965 0.25675
 O256 O 0.24274 0.52146 0.23318
 Cu257 Cu 0.23345 0.50495 0.26658
 Cu258 Cu 0.25713 0.50560 0.24295
 C259 C 0.22870 0.52677 0.23907
 C260 C 0.26179 0.48378 0.27054
 C261 C 0.26034 0.52797 0.26992
 C262 C 0.23033 0.48259 0.23952
 O263 O 0.74165 1.01121 0.76475
 O264 O 0.76713 0.97799 0.74450
 O265 O 0.76731 1.01081 0.74409
 O266 O 0.74215 0.97845 0.76587
 O267 O 0.72395 0.97790 0.74466
 O268 O 0.74916 1.01055 0.72284
 O269 O 0.74896 0.97774 0.72326
 O270 O 0.72347 1.01078 0.74352
 Cu271 Cu 0.75637 0.99467 0.75693
 Cu272 Cu 0.73456 0.99422 0.73144
 C273 C 0.72822 1.01671 0.75758
 C274 C 0.76233 0.97213 0.73041
 C275 C 0.76255 1.01629 0.72977
 C276 C 0.72883 0.97253 0.75901
 O277 O 0.75056 0.50948 0.23048
 O278 O 0.72778 0.47735 0.25498
 O279 O 0.72809 0.51011 0.25440
 O280 O 0.75123 0.47676 0.23188
 O281 O 0.77146 0.47734 0.25122
 O282 O 0.74835 0.51049 0.27371
 O283 O 0.74800 0.47772 0.27433
 O284 O 0.77084 0.51010 0.24976
 Cu285 Cu 0.73739 0.49335 0.24100
 Cu286 Cu 0.76170 0.49395 0.26419
 C287 C 0.76454 0.51537 0.23592
 C288 C 0.73394 0.47201 0.26882
 C289 C 0.73432 0.51604 0.26791
 C290 C 0.76533 0.47134 0.23772
 O291 O 0.24731 -0.02082 0.72973
 O292 O 0.27186 0.01244 0.75096
 O293 O 0.27077 -0.02026 0.75299
 O294 O 0.24908 0.01185 0.72718
 O295 O 0.22899 0.01392 0.74642
 O296 O 0.25066 -0.01838 0.77223
 O297 O 0.25180 0.01431 0.77023
 O298 O 0.22727 -0.01872 0.74899
 Cu299 Cu 0.26177 -0.00443 0.73828
 Cu300 Cu 0.23766 -0.00201 0.76139
 C301 C 0.23308 -0.02547 0.73576
 C302 C 0.26597 0.01910 0.76423
 C303 C 0.26446 -0.02487 0.76698
 C304 C 0.23537 0.01846 0.73242
 O305 O 0.24692 0.26835 0.98750
 O306 O 0.27134 0.24536 1.02023
 O307 O 0.27208 0.24699 0.98729
 O308 O 0.24705 0.26769 1.02034
 O309 O 0.22829 0.24708 1.01974
 O310 O 0.25334 0.22639 0.98637
 O311 O 0.25259 0.22476 1.01927
 O312 O 0.22817 0.24774 0.98686
 Cu313 Cu 0.26123 0.25914 1.00392
 Cu314 Cu 0.23875 0.23442 1.00298
 C315 C 0.23337 0.26192 0.98154
 C316 C 0.26603 0.23114 1.02544
 C317 C 0.26695 0.23324 0.98103
 C318 C 0.23346 0.26096 1.02578
 O319 O 0.25822 0.73905 0.48211
 O320 O 0.23467 0.76116 0.51521
 O321 O 0.23472 0.76215 0.48241
 O322 O 0.25906 0.73894 0.51491
 O323 O 0.27847 0.75897 0.51490
 O324 O 0.25419 0.78211 0.48257
 O325 O 0.25409 0.78118 0.51535
 O326 O 0.27770 0.75901 0.48207
 Cu327 Cu 0.24473 0.74832 0.49866
 Cu328 Cu 0.26806 0.77232 0.49873
 C329 C 0.27193 0.74524 0.47635
 C330 C 0.24033 0.77492 0.52099
 C331 C 0.24035 0.77612 0.47689
 C332 C 0.27292 0.74504 0.52051
 O333 O 0.26741 0.75588 -0.02048
 O334 O 0.24638 0.73086 0.01240
 O335 O 0.24413 0.73265 -0.02028
 O336 O 0.26897 0.75470 0.01219
 O337 O 0.24878 0.77398 0.01378
 O338 O 0.22394 0.75190 -0.01848
 O339 O 0.22616 0.75008 0.01422
 O340 O 0.24719 0.77513 -0.01895
 Cu341 Cu 0.25874 0.74159 -0.00423
 Cu342 Cu 0.23448 0.76470 -0.00217
 C343 C 0.26096 0.76975 -0.02538
 C344 C 0.23271 0.73619 0.01901
 C345 C 0.22979 0.73854 -0.02497
 C346 C 0.26309 0.76815 0.01854
 O347 O 0.27172 0.24850 0.48466
 O348 O 0.25092 0.22226 0.51725
 O349 O 0.25026 0.22352 0.48435
 O350 O 0.27332 0.24632 0.51744
 O351 O 0.25226 0.26464 0.51905
 O352 O 0.22924 0.24193 0.48554
 O353 O 0.22983 0.24061 0.51839
 O354 O 0.25067 0.26683 0.48632
 Cu355 Cu 0.26364 0.23331 0.50076
 Cu356 Cu 0.23839 0.25532 0.50246
 C357 C 0.26470 0.26219 0.47993
 C358 C 0.23681 0.22705 0.52345
 C359 C 0.23588 0.22883 0.47917
 C360 C 0.26674 0.25931 0.52400
 O361 O 0.75131 0.76489 0.98585
 O362 O 0.77659 0.74271 1.01835
 O363 O 0.77424 0.74123 0.98555
 O364 O 0.75390 0.76663 1.01854
 O365 O 0.73361 0.74763 1.02105
 O366 O 0.75393 0.72224 0.98791
 O367 O 0.75632 0.72367 1.02071
 O368 O 0.73103 0.74587 0.98835
 Cu369 Cu 0.76605 0.75575 1.00184
 Cu370 Cu 0.74171 0.73294 1.00478
 C371 C 0.73688 0.75912 0.98148
 C372 C 0.77073 0.72942 1.02517
 C373 C 0.76750 0.72748 0.98095
 C374 C 0.74029 0.76148 1.02548
 O375 O 0.74613 0.25025 0.52469
 O376 O 0.76909 0.23001 0.48995
 O377 O 0.77012 0.22773 0.52269
 O378 O 0.74534 0.25270 0.49208
 O379 O 0.76485 0.27263 0.49282
 O380 O 0.78961 0.24767 0.52348
 O381 O 0.78859 0.24994 0.49066
 O382 O 0.76559 0.27022 0.52547
 Cu383 Cu 0.75574 0.23815 0.50728
 Cu384 Cu 0.77914 0.26209 0.50821
 C385 C 0.75188 0.26374 0.53100
 C386 C 0.78268 0.23654 0.48426
 C387 C 0.78407 0.23347 0.52840
 C388 C 0.75085 0.26693 0.48719
 O389 O 0.72109 0.24133 -0.01776
 O390 O 0.74576 0.26287 0.01515
 O391 O 0.74373 0.26510 -0.01745
 O392 O 0.72273 0.23940 0.01492
 O393 O 0.74306 0.22030 0.01312
 O394 O 0.76400 0.24597 -0.01954
 O395 O 0.76605 0.24375 0.01308
 O396 O 0.74132 0.22212 -0.01962
 Cu397 Cu 0.73128 0.25408 -0.00107
 Cu398 Cu 0.75564 0.23110 -0.00347
 C399 C 0.72703 0.22803 -0.02435
 C400 C 0.76014 0.25700 0.01975
 C401 C 0.75746 0.25994 -0.02407
 C402 C 0.72929 0.22553 0.01965
 O403 O 0.77286 0.74020 0.47613
 O404 O 0.75134 0.71435 0.50823
 O405 O 0.75068 0.71587 0.47536
 O406 O 0.77318 0.73884 0.50888
 O407 O 0.75223 0.75735 0.50966
 O408 O 0.72976 0.73441 0.47618
 O409 O 0.73035 0.73283 0.50901
 O410 O 0.75191 0.75872 0.47688
 Cu411 Cu 0.76410 0.72545 0.49203
 Cu412 Cu 0.73895 0.74766 0.49301
 C413 C 0.76613 0.75387 0.47101
 C414 C 0.73721 0.71925 0.51423
 C415 C 0.73639 0.72125 0.46998
 C416 C 0.76653 0.75202 0.51505
 O417 O 1.01710 0.27810 0.24506
 O418 O 0.98311 0.25752 0.26973
 O419 O 1.01629 0.25697 0.27019
 O420 O 0.98383 0.27943 0.24525
 O421 O 0.98314 0.25858 0.22709
 O422 O 1.01585 0.23609 0.25205
 O423 O 0.98267 0.23666 0.25156
 O424 O 1.01643 0.25723 0.22691
 Cu425 Cu 1.00013 0.27011 0.25935
 Cu426 Cu 0.99947 0.24507 0.23757
 C427 C 1.02266 0.27111 0.23180
 C428 C 0.97707 0.24354 0.26483
 C429 C 1.02167 0.24271 0.26541
 C430 C 0.97781 0.27284 0.23199
 O431 O 0.47992 0.24571 0.72460
 O432 O 0.51198 0.22099 0.74761
 O433 O 0.47893 0.22419 0.74949
 O434 O 0.51319 0.24417 0.72443
 O435 O 0.51486 0.26439 0.74325
 O436 O 0.48127 0.24432 0.76832
 O437 O 0.51435 0.24112 0.76645
 O438 O 0.48159 0.26587 0.74347
 Cu439 Cu 0.49578 0.23178 0.73466
 Cu440 Cu 0.49822 0.25593 0.75724
 C441 C 0.47513 0.25991 0.73005
 C442 C 0.51881 0.22680 0.76085
 C443 C 0.47425 0.23091 0.76323
 C444 C 0.51994 0.25773 0.72968
 O445 O -0.01350 0.27832 0.75411
 O446 O 0.01956 0.25536 0.73131
 O447 O -0.01361 0.25478 0.73144
 O448 O 0.01970 0.27677 0.75598
 O449 O 0.01868 0.25658 0.77513
 O450 O -0.01393 0.23466 0.75070
 O451 O 0.01919 0.23514 0.75047
 O452 O -0.01450 0.25817 0.77331
 Cu453 Cu 0.00311 0.26833 0.74132
 Cu454 Cu 0.00230 0.24416 0.76433
 C455 C -0.01980 0.27221 0.76749
 C456 C 0.02508 0.24138 0.73687
 C457 C -0.01942 0.24085 0.73695
 C458 C 0.02490 0.27032 0.76980
 O459 O 0.51701 0.26078 0.28028
 O460 O 0.48345 0.23902 0.25613
 O461 O 0.51649 0.23716 0.25781
 O462 O 0.48387 0.26114 0.28014
 O463 O 0.48453 0.28098 0.26060
 O464 O 0.51782 0.25693 0.23822
 O465 O 0.48472 0.25885 0.23661
 O466 O 0.51778 0.28062 0.26075
 Cu467 Cu 0.50009 0.24756 0.27054
 Cu468 Cu 0.50133 0.27134 0.24710
 C469 C 0.52313 0.27448 0.27458
 C470 C 0.47837 0.24526 0.24219
 C471 C 0.52280 0.24286 0.24425
 C472 C 0.47852 0.27507 0.27427
 O473 O 1.01359 0.77016 0.74275
 O474 O 0.98085 0.74843 0.76778
 O475 O 1.01396 0.74679 0.76585
 O476 O 0.98039 0.77149 0.74440
 O477 O 0.97854 0.75197 0.72488
 O478 O 1.01196 0.72726 0.74635
 O479 O 0.97882 0.72889 0.74830
 O480 O 1.01173 0.75060 0.72327
 Cu481 Cu 0.99740 0.76118 0.75714
 Cu482 Cu 0.99505 0.73773 0.73374
 C483 C 1.01837 0.76406 0.72879
 C484 C 0.97417 0.73497 0.76232
 C485 C 1.01875 0.73283 0.75973
 C486 C 0.97366 0.76590 0.73099
 O487 O 0.51421 0.73587 0.24530
 O488 O 0.48146 0.76064 0.22248
 O489 O 0.51464 0.75893 0.22192
 O490 O 0.48106 0.73615 0.24437
 O491 O 0.48124 0.75519 0.26444
 O492 O 0.51551 0.77797 0.24197
 O493 O 0.48227 0.77970 0.24251
 O494 O 0.51442 0.75493 0.26535
 Cu495 Cu 0.49779 0.74601 0.23151
 Cu496 Cu 0.49840 0.76887 0.25555
 C497 C 0.51989 0.74122 0.25930
 C498 C 0.47623 0.77443 0.22869
 C499 C 0.52097 0.77222 0.22807
 C500 C 0.47534 0.74169 0.25819
 O501 O 0.01422 0.75300 0.27422
 O502 O -0.01869 0.73096 0.24973
 O503 O 0.01438 0.72928 0.25187
 O504 O -0.01891 0.75439 0.27246
 O505 O -0.01702 0.77362 0.25240
 O506 O 0.01619 0.74845 0.23175
 O507 O -0.01687 0.75023 0.22970
 O508 O 0.01609 0.77220 0.25413
 Cu509 Cu -0.00246 0.73998 0.26409
 Cu510 Cu -0.00020 0.76306 0.23998
 C511 C 0.02084 0.76637 0.26833
 C512 C -0.02344 0.73683 0.23554
 C513 C 0.02100 0.73459 0.23828
 C514 C -0.02370 0.76827 0.26595
 O515 O 0.51897 0.75280 0.76763
 O516 O 0.48480 0.73119 0.74417
 O517 O 0.51790 0.72879 0.74554
 O518 O 0.48584 0.75458 0.76693
 O519 O 0.48733 0.77363 0.74666
 O520 O 0.51973 0.74785 0.72531
 O521 O 0.48666 0.75026 0.72395
 O522 O 0.52046 0.77189 0.74740
 Cu523 Cu 0.50171 0.73993 0.75809
 Cu524 Cu 0.50373 0.76281 0.73380
 C525 C 0.52555 0.76609 0.76149
 C526 C 0.47987 0.73707 0.73003
 C527 C 0.52436 0.73389 0.73180
 C528 C 0.48103 0.76847 0.76048
 C529 C 0.37358 0.34378 0.31535
 C530 C 0.38803 0.33790 0.30696
 C531 C 0.39687 0.32369 0.31292
 C532 C 0.39077 0.31527 0.32733
 C533 C 0.37632 0.32111 0.33570
 C534 C 0.36753 0.33542 0.32981
 C535 C 0.41178 0.31750 0.30334
 C536 C 0.42426 0.30828 0.31041
 C537 C 0.43847 0.30060 0.30088
 C538 C 0.44678 0.28663 0.30802
 C539 C 0.45984 0.27848 0.29942
 C540 C 0.46507 0.28424 0.28349
 C541 C 0.45713 0.29854 0.27649
 C542 C 0.44394 0.30667 0.28508
 H543 H 0.36708 0.35479 0.31040
 H544 H 0.39234 0.34450 0.29578
 H545 H 0.39681 0.30390 0.33198
 H546 H 0.37194 0.31426 0.34669
 H547 H 0.41222 0.32055 0.29005
 H548 H 0.42379 0.30551 0.32376
 H549 H 0.44293 0.28177 0.32020
 H550 H 0.46577 0.26758 0.30525
 H551 H 0.46098 0.30335 0.26429
 H552 H 0.43823 0.31771 0.27936
 C553 C 0.38047 0.81036 0.83307
 C554 C 0.39450 0.80249 0.82574
 C555 C 0.40208 0.80918 0.81122
 C556 C 0.39525 0.82398 0.80406
 C557 C 0.38120 0.83189 0.81136
 C558 C 0.37351 0.82515 0.82594
 C559 C 0.41650 0.79987 0.80362
 C560 C 0.42772 0.80670 0.79285
 C561 C 0.44173 0.79695 0.78509
 C562 C 0.44839 0.80242 0.76962
 C563 C 0.46127 0.79330 0.76165
 C564 C 0.46785 0.77855 0.76909
 C565 C 0.46154 0.77334 0.78482
 C566 C 0.44870 0.78247 0.79278
 H567 H 0.37503 0.80469 0.84425
 H568 H 0.39943 0.79105 0.83146
 H569 H 0.40036 0.82932 0.79259
 H570 H 0.37625 0.84317 0.80537
 H571 H 0.41775 0.78675 0.80715
 H572 H 0.42647 0.81975 0.78912
 H573 H 0.44339 0.81364 0.76352
 H574 H 0.46594 0.79769 0.74959
 H575 H 0.46650 0.76217 0.79101
 H576 H 0.44446 0.77819 0.80502
 C577 C -0.12574 0.30876 0.83533
 C578 C -0.11138 0.30130 0.82826
 C579 C -0.10276 0.30912 0.81493
 C580 C -0.10896 0.32460 0.80864
 C581 C -0.12344 0.33206 0.81569
 C582 C -0.13201 0.32420 0.82912
 C583 C -0.08790 0.30026 0.80765
 C584 C -0.07553 0.30789 0.79887
 C585 C -0.06093 0.29865 0.79151
 C586 C -0.05277 0.30556 0.77740
 C587 C -0.03931 0.29706 0.76974
 C588 C -0.03358 0.28148 0.77613
 C589 C -0.04139 0.27479 0.79058
 C590 C -0.05488 0.28330 0.79823
 H591 H -0.13200 0.30226 0.84561
 H592 H -0.10697 0.28934 0.83327
 H593 H -0.10297 0.33081 0.79806
 H594 H -0.12799 0.34390 0.81054
 H595 H -0.08719 0.28682 0.80985
 H596 H -0.07624 0.32129 0.79649
 H597 H -0.05703 0.31744 0.77209
 H598 H -0.03350 0.30263 0.75869
 H599 H -0.03714 0.26292 0.79592
 H600 H -0.06038 0.27785 0.80948
 C601 C -0.12762 0.81072 0.33386
 C602 C -0.11343 0.80253 0.32720
 C603 C -0.10493 0.80913 0.31314
 C604 C -0.11104 0.82411 0.30573
 C605 C -0.12525 0.83233 0.31236
 C606 C -0.13381 0.82574 0.32651
 C607 C -0.09031 0.79958 0.30626
 C608 C -0.07825 0.80639 0.29642
 C609 C -0.06403 0.79654 0.28918
 C610 C -0.05625 0.80245 0.27440
 C611 C -0.04308 0.79335 0.26691
 C612 C -0.03729 0.77819 0.27414
 C613 C -0.04475 0.77249 0.28919
 C614 C -0.05792 0.78158 0.29667
 H615 H -0.13376 0.80514 0.34473
 H616 H -0.10908 0.79094 0.33308
 H617 H -0.10522 0.82936 0.29456
 H618 H -0.12960 0.84377 0.30620
 H619 H -0.08962 0.78636 0.30952
 H620 H -0.07893 0.81959 0.29305
 H621 H -0.06058 0.81402 0.26847
 H622 H -0.03753 0.79814 0.25537
 H623 H -0.04044 0.76096 0.29519
 H624 H -0.06309 0.77691 0.30841
 C625 C 0.61930 0.66452 0.30052
 C626 C 0.60571 0.67235 0.29216
 C627 C 0.59823 0.68694 0.29868
 C628 C 0.60480 0.69372 0.31369
 C629 C 0.61844 0.68591 0.32204
 C630 C 0.62586 0.67122 0.31554
 C631 C 0.58418 0.69504 0.28905
 C632 C 0.57260 0.70528 0.29601
 C633 C 0.55893 0.71391 0.28630
 C634 C 0.55170 0.72853 0.29305
 C635 C 0.53900 0.73732 0.28431
 C636 C 0.53309 0.73159 0.26864
 C637 C 0.54003 0.71674 0.26201
 C638 C 0.55279 0.70795 0.27076
 H639 H 0.62472 0.65326 0.29508
 H640 H 0.60101 0.66695 0.28056
 H641 H 0.59980 0.70527 0.31886
 H642 H 0.62326 0.69149 0.33350
 H643 H 0.58347 0.69232 0.27574
 H644 H 0.57331 0.70793 0.30934
 H645 H 0.55606 0.73332 0.30505
 H646 H 0.53387 0.74866 0.28984
 H647 H 0.53563 0.71192 0.25004
 H648 H 0.55758 0.69643 0.26536
 C649 C 0.62147 0.18228 0.83109
 C650 C 0.60755 0.19077 0.82410
 C651 C 0.59958 0.18483 0.80951
 C652 C 0.60598 0.17018 0.80188
 C653 C 0.62004 0.16168 0.80882
 C654 C 0.62804 0.16763 0.82353
 C655 C 0.58522 0.19474 0.80235
 C656 C 0.57307 0.18823 0.79245
 C657 C 0.55891 0.19831 0.78504
 C658 C 0.55054 0.19208 0.77075
 C659 C 0.53742 0.20124 0.76305
 C660 C 0.53225 0.21685 0.76953
 C661 C 0.54028 0.22292 0.78410
 C662 C 0.55343 0.21374 0.79183
 H663 H 0.62716 0.18741 0.84239
 H664 H 0.60296 0.20207 0.83017
 H665 H 0.60051 0.16546 0.79033
 H666 H 0.62468 0.15054 0.80251
 H667 H 0.58474 0.20792 0.80563
 H668 H 0.57361 0.17503 0.78921
 H669 H 0.55436 0.18017 0.76535
 H670 H 0.53145 0.19614 0.75189
 H671 H 0.53647 0.23482 0.78951
 H672 H 0.55905 0.21875 0.80317
 C673 C 1.12215 0.69127 0.83038
 C674 C 1.10807 0.69929 0.82313
 C675 C 1.10017 0.69270 0.80875
 C676 C 1.10680 0.67788 0.80165
 C677 C 1.12097 0.66986 0.80889
 C678 C 1.12884 0.67649 0.82333
 C679 C 1.08562 0.70213 0.80129
 C680 C 1.07391 0.69531 0.79106
 C681 C 1.05955 0.70504 0.78356
 C682 C 1.05191 0.69912 0.76875
 C683 C 1.03858 0.70804 0.76108
 C684 C 1.03250 0.72307 0.76814
 C685 C 1.03985 0.72879 0.78320
 C686 C 1.05316 0.71986 0.79088
 H687 H 1.12788 0.69680 0.84146
 H688 H 1.10331 0.71073 0.82879
 H689 H 1.10143 0.67263 0.79029
 H690 H 1.12586 0.65856 0.80306
 H691 H 1.08461 0.71527 0.80458
 H692 H 1.07493 0.68220 0.78764
 H693 H 1.05644 0.68766 0.76294
 H694 H 1.03314 0.70323 0.74953
 H695 H 1.03532 0.74021 0.78908
 H696 H 1.05820 0.72454 0.80264
 C697 C 1.12224 0.16946 0.30902
 C698 C 1.10839 0.17688 0.30076
 C699 C 1.10061 0.19136 0.30719
 C700 C 1.10710 0.19838 0.32212
 C701 C 1.12100 0.19097 0.33042
 C702 C 1.12884 0.17641 0.32396
 C703 C 1.08633 0.19902 0.29751
 C704 C 1.07490 0.20968 0.30407
 C705 C 1.06103 0.21760 0.29404
 C706 C 1.05420 0.23294 0.29950
 C707 C 1.04137 0.24104 0.29027
 C708 C 1.03494 0.23388 0.27541
 C709 C 1.04145 0.21830 0.27016
 C710 C 1.05431 0.21020 0.27938
 H711 H 1.12782 0.15830 0.30353
 H712 H 1.10373 0.17127 0.28924
 H713 H 1.10185 0.20981 0.32727
 H714 H 1.12568 0.19683 0.34180
 H715 H 1.08534 0.19560 0.28438
 H716 H 1.07588 0.21325 0.31715
 H717 H 1.05901 0.23882 0.31083
 H718 H 1.03656 0.25298 0.29473
 H719 H 1.03664 0.21235 0.25888
 H720 H 1.05875 0.19809 0.27507
 C721 C 0.62538 0.32690 0.69171
 C722 C 0.61071 0.32013 0.69902
 C723 C 0.60318 0.30550 0.69255
 C724 C 0.61080 0.29769 0.67860
 C725 C 0.62550 0.30446 0.67130
 C726 C 0.63301 0.31912 0.67779
 C727 C 0.58796 0.29853 0.70121
 C728 C 0.57700 0.28760 0.69423
 C729 C 0.56205 0.28049 0.70326
 C730 C 0.55503 0.26526 0.69767
 C731 C 0.54121 0.25792 0.70606
 C732 C 0.53403 0.26575 0.72018
 C733 C 0.54075 0.28123 0.72548
 C734 C 0.55451 0.28857 0.71710
 H735 H 0.63081 0.33818 0.69710
 H736 H 0.60521 0.32635 0.70982
 H737 H 0.60579 0.28614 0.67347
 H738 H 0.63107 0.29804 0.66066
 H739 H 0.58586 0.30272 0.71396
 H740 H 0.57910 0.28327 0.68152
 H741 H 0.56044 0.25885 0.68694
 H742 H 0.53630 0.24603 0.70161
 H743 H 0.53539 0.28772 0.73618
 H744 H 0.55901 0.30063 0.72145
 C745 C 0.62772 0.83906 0.18837
 C746 C 0.61313 0.83305 0.19644
 C747 C 0.60472 0.81870 0.19055
 C748 C 0.61139 0.81025 0.17651
 C749 C 0.62602 0.81619 0.16845
 C750 C 0.63445 0.83070 0.17425
 C751 C 0.58960 0.81250 0.19985
 C752 C 0.57736 0.80315 0.19272
 C753 C 0.56264 0.79601 0.20202
 C754 C 0.55411 0.78225 0.19498
 C755 C 0.54050 0.77469 0.20336
 C756 C 0.53496 0.78081 0.21898
 C757 C 0.54317 0.79489 0.22588
 C758 C 0.55686 0.80245 0.21748
 H759 H 0.63375 0.85022 0.19335
 H760 H 0.60836 0.83970 0.20732
 H761 H 0.60564 0.79880 0.17192
 H762 H 0.63078 0.80926 0.15774
 H763 H 0.58870 0.81586 0.21299
 H764 H 0.57831 0.80004 0.17951
 H765 H 0.55818 0.77711 0.18304
 H766 H 0.53441 0.76392 0.19764
 H767 H 0.53911 0.79999 0.23782
 H768 H 0.56268 0.81337 0.22311
 C769 C 1.12769 0.33873 0.19034
 C770 C 1.11333 0.33203 0.19823
 C771 C 1.10541 0.31754 0.19202
 C772 C 1.11232 0.30973 0.17771
 C773 C 1.12676 0.31640 0.16979
 C774 C 1.13471 0.33100 0.17601
 C775 C 1.09052 0.31074 0.20132
 C776 C 1.07895 0.30026 0.19466
 C777 C 1.06429 0.29337 0.20428
 C778 C 1.05678 0.27834 0.19882
 C779 C 1.04318 0.27120 0.20765
 C780 C 1.03666 0.27902 0.22210
 C781 C 1.04388 0.29430 0.22733
 C782 C 1.05749 0.30144 0.21850
 H783 H 1.13331 0.34995 0.19565
 H784 H 1.10837 0.33825 0.20929
 H785 H 1.10694 0.29827 0.17276
 H786 H 1.13174 0.30996 0.15888
 H787 H 1.08914 0.31472 0.21424
 H788 H 1.08033 0.29615 0.18178
 H789 H 1.06163 0.27195 0.18782
 H790 H 1.03788 0.25946 0.20322
 H791 H 1.03903 0.30074 0.23830
 H792 H 1.06243 0.31336 0.22279
 C793 C 1.12214 0.83405 0.68816
 C794 C 1.10787 0.82711 0.69603
 C795 C 1.09969 0.81297 0.68932
 C796 C 1.10623 0.80578 0.67453
 C797 C 1.12053 0.81269 0.66664
 C798 C 1.12878 0.82690 0.67337
 C799 C 1.08497 0.80578 0.69859
 C800 C 1.07326 0.79563 0.69165
 C801 C 1.05891 0.78813 0.70123
 C802 C 1.05132 0.77337 0.69516
 C803 C 1.03804 0.76564 0.70398
 C804 C 1.03196 0.77258 0.71904
 C805 C 1.03923 0.78761 0.72489
 C806 C 1.05249 0.79534 0.71607
 H807 H 1.12801 0.84496 0.69384
 H808 H 1.10319 0.83284 0.70746
 H809 H 1.10067 0.79458 0.66918
 H810 H 1.12521 0.80668 0.65536
 H811 H 1.08391 0.80909 0.71173
 H812 H 1.07432 0.79222 0.67853
 H813 H 1.05587 0.76765 0.68367
 H814 H 1.03267 0.75412 0.69908
 H815 H 1.03471 0.79340 0.73635
 H816 H 1.05749 0.80704 0.72088
 C817 C 0.37687 0.66670 0.68763
 C818 C 0.39072 0.67375 0.69610
 C819 C 0.39877 0.68820 0.68980
 C820 C 0.39250 0.69563 0.67485
 C821 C 0.37859 0.68861 0.66639
 C822 C 0.37059 0.67406 0.67268
 C823 C 0.41312 0.69544 0.69957
 C824 C 0.42507 0.70547 0.69284
 C825 C 0.43918 0.71306 0.70270
 C826 C 0.44725 0.72742 0.69616
 C827 C 0.46047 0.73515 0.70500
 C828 C 0.46605 0.72863 0.72057
 C829 C 0.45822 0.71406 0.72699
 C830 C 0.44497 0.70631 0.71815
 H831 H 0.37100 0.65554 0.69291
 H832 H 0.39518 0.66785 0.70764
 H833 H 0.39796 0.70709 0.66984
 H834 H 0.37402 0.69469 0.65499
 H835 H 0.41373 0.69219 0.71280
 H836 H 0.42444 0.70867 0.67959
 H837 H 0.44317 0.73280 0.68424
 H838 H 0.46627 0.74632 0.69965
 H839 H 0.46234 0.70862 0.73887
 H840 H 0.43955 0.69494 0.72339
 C841 C 0.37805 0.17321 0.19800
 C842 C 0.39144 0.18085 0.20661
 C843 C 0.39914 0.19542 0.20022
 C844 C 0.39298 0.20240 0.18502
 C845 C 0.37949 0.19480 0.17639
 C846 C 0.37178 0.18008 0.18277
 C847 C 0.41304 0.20316 0.21016
 C848 C 0.42492 0.21333 0.20358
 C849 C 0.43870 0.22104 0.21373
 C850 C 0.44629 0.23588 0.20778
 C851 C 0.45918 0.24370 0.21700
 C852 C 0.46489 0.23676 0.23235
 C853 C 0.45757 0.22170 0.23816
 C854 C 0.44466 0.21387 0.22893
 H855 H 0.37256 0.16195 0.20347
 H856 H 0.39586 0.17528 0.21833
 H857 H 0.39822 0.21392 0.17992
 H858 H 0.37503 0.20059 0.16480
 H859 H 0.41346 0.20008 0.22345
 H860 H 0.42448 0.21651 0.19032
 H861 H 0.44208 0.24156 0.19604
 H862 H 0.46462 0.25525 0.21211
 H863 H 0.46182 0.21594 0.24983
 H864 H 0.43962 0.20211 0.23367
 C865 C -0.12315 0.66235 0.19478
 C866 C -0.10971 0.67053 0.20280
 C867 C -0.10229 0.68489 0.19561
 C868 C -0.10874 0.69106 0.18019
 C869 C -0.12228 0.68290 0.17216
 C870 C -0.12966 0.66846 0.17938
 C871 C -0.08836 0.69325 0.20502
 C872 C -0.07688 0.70360 0.19799
 C873 C -0.06302 0.71169 0.20774
 C874 C -0.05590 0.72670 0.20162
 C875 C -0.04299 0.73484 0.21058
 C876 C -0.03683 0.72805 0.22582
 C877 C -0.04366 0.71281 0.23175
 C878 C -0.05653 0.70466 0.22279
 H879 H -0.12852 0.65131 0.20077
 H880 H -0.10507 0.66556 0.21471
 H881 H -0.10372 0.70237 0.17444
 H882 H -0.12706 0.68800 0.16037
 H883 H -0.08757 0.69049 0.21835
 H884 H -0.07769 0.70659 0.18470
 H885 H -0.06051 0.73228 0.18998
 H886 H -0.03793 0.74653 0.20561
 H887 H -0.03903 0.70712 0.24333
 H888 H -0.06113 0.69276 0.22762
 C889 C -0.11649 0.16171 0.69736
 C890 C -0.10323 0.17030 0.70535
 C891 C -0.09631 0.18497 0.69820
 C892 C -0.10308 0.19098 0.68288
 C893 C -0.11631 0.18241 0.67486
 C894 C -0.12328 0.16765 0.68199
 C895 C -0.08255 0.19383 0.70746
 C896 C -0.07208 0.20525 0.70045
 C897 C -0.05851 0.21407 0.70998
 C898 C -0.05256 0.22965 0.70396
 C899 C -0.03984 0.23840 0.71263
 C900 C -0.03271 0.23166 0.72746
 C901 C -0.03842 0.21592 0.73329
 C902 C -0.05109 0.20718 0.72464
 H903 H -0.12143 0.15046 0.70335
 H904 H -0.09835 0.16544 0.71720
 H905 H -0.09857 0.20249 0.67712
 H906 H -0.12116 0.18756 0.66313
 H907 H -0.08112 0.19068 0.72065
 H908 H -0.07350 0.20862 0.68731
 H909 H -0.05792 0.23516 0.69259
 H910 H -0.03566 0.25046 0.70776
 H911 H -0.03305 0.21025 0.74456
 H912 H -0.05477 0.19494 0.72937
 C913 C 0.30508 0.38161 0.34175
 C914 C 0.29644 0.39566 0.33526
 C915 C 0.30266 0.40431 0.32109
 C916 C 0.31763 0.39843 0.31337
 C917 C 0.32626 0.38442 0.31985
 C918 C 0.32010 0.37581 0.33410
 C919 C 0.29278 0.41877 0.31422
 C920 C 0.29967 0.43083 0.30447
 C921 C 0.28974 0.44465 0.29645
 C922 C 0.29651 0.45253 0.28209
 C923 C 0.28751 0.46531 0.27377
 C924 C 0.27156 0.47064 0.27973
 C925 C 0.26495 0.46306 0.29436
 C926 C 0.27394 0.45022 0.30266
 H927 H 0.29993 0.37525 0.35270
 H928 H 0.28484 0.39980 0.34133
 H929 H 0.32256 0.40426 0.30206
 H930 H 0.33768 0.38023 0.31351
 H931 H 0.27937 0.41925 0.31724
 H932 H 0.31312 0.43038 0.30162
 H933 H 0.30871 0.44860 0.27711
 H934 H 0.29302 0.47093 0.26259
 H935 H 0.25276 0.46698 0.29936
 H936 H 0.26851 0.44488 0.31399
 C937 C 0.33807 -0.12454 0.81005
 C938 C 0.33064 -0.11067 0.80201
 C939 C 0.31579 -0.10328 0.80838
 C940 C 0.30840 -0.11014 0.82300
 C941 C 0.31580 -0.12405 0.83106
 C942 C 0.33071 -0.13154 0.82466
 C943 C 0.30810 -0.08902 0.79890
 C944 C 0.29724 -0.07787 0.80558
 C945 C 0.28938 -0.06396 0.79570
 C946 C 0.27384 -0.05716 0.80114
 C947 C 0.26579 -0.04435 0.79193
 C948 C 0.27319 -0.03800 0.77712
 C949 C 0.28898 -0.04447 0.77193
 C950 C 0.29705 -0.05722 0.78115
 H951 H 0.34952 -0.12984 0.80462
 H952 H 0.33654 -0.10571 0.79071
 H953 H 0.29668 -0.10515 0.82807
 H954 H 0.30963 -0.12904 0.84220
 H955 H 0.31167 -0.08782 0.78580
 H956 H 0.29351 -0.07907 0.81863
 H957 H 0.26777 -0.06198 0.81241
 H958 H 0.25367 -0.03957 0.79632
 H959 H 0.29515 -0.03967 0.76070
 H960 H 0.30934 -0.06158 0.77688
 C961 C 0.80787 0.37345 0.83691
 C962 C 0.79990 0.38755 0.82981
 C963 C 0.80689 0.39574 0.81577
 C964 C 0.82209 0.38941 0.80885
 C965 C 0.83009 0.37527 0.81593
 C966 C 0.82306 0.36700 0.83003
 C967 C 0.79745 0.41021 0.80830
 C968 C 0.80461 0.42188 0.79831
 C969 C 0.79492 0.43579 0.79014
 C970 C 0.80158 0.44310 0.77545
 C971 C 0.79275 0.45589 0.76699
 C972 C 0.77708 0.46183 0.77312
 C973 C 0.77060 0.45486 0.78809
 C974 C 0.77943 0.44200 0.79655
 H975 H 0.80194 0.36756 0.84774
 H976 H 0.78815 0.39207 0.83533
 H977 H 0.82766 0.39498 0.79771
 H978 H 0.84168 0.37073 0.81013
 H979 H 0.78402 0.41108 0.81119
 H980 H 0.81804 0.42104 0.79541
 H981 H 0.81355 0.43869 0.77033
 H982 H 0.79817 0.46104 0.75555
 H983 H 0.75864 0.45927 0.79322
 H984 H 0.77413 0.43713 0.80814
 C985 C 0.83266 -0.12250 0.30876
 C986 C 0.82628 -0.10824 0.30051
 C987 C 0.81195 -0.09977 0.30669
 C988 C 0.80396 -0.10601 0.32131
 C989 C 0.81031 -0.12034 0.32956
 C990 C 0.82472 -0.12878 0.32336
 C991 C 0.80536 -0.08507 0.29706
 C992 C 0.79564 -0.07295 0.30378
 C993 C 0.78854 -0.05863 0.29390
 C994 C 0.77398 -0.05044 0.30000
 C995 C 0.76651 -0.03722 0.29093
 C996 C 0.77351 -0.03177 0.27557
 C997 C 0.78838 -0.03962 0.26967
 C998 C 0.79586 -0.05286 0.27875
 H999 H 0.84375 -0.12868 0.30356
 H1000 H 0.83260 -0.10381 0.28922
 H1001 H 0.79256 -0.10018 0.32621
 H1002 H 0.80381 -0.12489 0.34069
 H1003 H 0.80878 -0.08435 0.28390
 H1004 H 0.79222 -0.07369 0.31694
 H1005 H 0.76818 -0.05449 0.31170
 H1006 H 0.75511 -0.03140 0.29589
 H1007 H 0.79419 -0.03559 0.25798
 H1008 H 0.80743 -0.05838 0.27390
 C1009 C 0.31126 0.62408 0.66172
 C1010 C 0.30298 0.61010 0.66856
 C1011 C 0.30914 0.60231 0.68327
 C1012 C 0.32378 0.60891 0.69111
 C1013 C 0.33207 0.62291 0.68426
 C1014 C 0.32586 0.63071 0.66953
 C1015 C 0.29942 0.58798 0.69040
 C1016 C 0.30606 0.57659 0.70111
 C1017 C 0.29594 0.56285 0.70882
 C1018 C 0.30133 0.55613 0.72432
 C1019 C 0.29193 0.54353 0.73233
 C1020 C 0.27697 0.53725 0.72490
 C1021 C 0.27182 0.54362 0.70914
 C1022 C 0.28122 0.55626 0.70114
 H1023 H 0.30608 0.62976 0.65037
 H1024 H 0.29167 0.60537 0.66235
 H1025 H 0.32866 0.60365 0.70276
 H1026 H 0.34320 0.62777 0.69068
 H1027 H 0.28620 0.58697 0.68662
 H1028 H 0.31925 0.57758 0.70497
 H1029 H 0.31271 0.56086 0.73041
 H1030 H 0.29632 0.53881 0.74441
 H1031 H 0.26047 0.53890 0.70300
 H1032 H 0.27698 0.56064 0.68890
 C1033 C 0.33679 1.12981 0.19590
 C1034 C 0.32953 1.11579 0.20363
 C1035 C 0.31549 1.10769 0.19642
 C1036 C 0.30873 1.11402 0.18118
 C1037 C 0.31598 1.12818 0.17340
 C1038 C 0.33010 1.13634 0.18069
 C1039 C 0.30811 1.09318 0.20568
 C1040 C 0.29796 1.08152 0.19880
 C1041 C 0.29093 1.06722 0.20865
 C1042 C 0.27550 1.06000 0.20352
 C1043 C 0.26822 1.04685 0.21279
 C1044 C 0.27633 1.04054 0.22734
 C1045 C 0.29206 1.04741 0.23219
 C1046 C 0.29933 1.06054 0.22292
 H1047 H 0.34762 1.13558 0.20205
 H1048 H 0.33495 1.11123 0.21538
 H1049 H 0.29765 1.10841 0.17539
 H1050 H 0.31037 1.13279 0.16176
 H1051 H 0.31143 1.09212 0.21888
 H1052 H 0.29424 1.08257 0.18571
 H1053 H 0.26888 1.06476 0.19247
 H1054 H 0.25614 1.04176 0.20863
 H1055 H 0.29874 1.04268 0.24320
 H1056 H 0.31160 1.06527 0.22691
 C1057 C 0.83578 0.61709 0.19432
 C1058 C 0.82875 0.60308 0.20237
 C1059 C 0.81452 0.59491 0.19558
 C1060 C 0.80731 0.60117 0.18053
 C1061 C 0.81431 0.61523 0.17245
 C1062 C 0.82862 0.62347 0.17926
 C1063 C 0.80722 0.58050 0.20505
 C1064 C 0.79721 0.56874 0.19812
 C1065 C 0.78948 0.55477 0.20791
 C1066 C 0.77451 0.54736 0.20178
 C1067 C 0.76650 0.53449 0.21080
 C1068 C 0.77339 0.52861 0.22611
 C1069 C 0.78864 0.53569 0.23204
 C1070 C 0.79665 0.54859 0.22302
 H1071 H 0.84676 0.62298 0.20008
 H1072 H 0.83448 0.59861 0.21400
 H1073 H 0.79602 0.59558 0.17512
 H1074 H 0.80831 0.61973 0.16096
 H1075 H 0.81031 0.57971 0.21831
 H1076 H 0.79402 0.56952 0.18488
 H1077 H 0.76882 0.55175 0.19010
 H1078 H 0.75481 0.52924 0.20582
 H1079 H 0.79438 0.53131 0.24370
 H1080 H 0.80851 0.55350 0.22788
 C1081 C 0.84102 1.11644 0.69621
 C1082 C 0.83307 1.10252 0.70363
 C1083 C 0.81905 1.09482 0.69586
 C1084 C 0.81300 1.10149 0.68050
 C1085 C 0.82093 1.11536 0.67306
 C1086 C 0.83503 1.12314 0.68081
 C1087 C 0.81060 1.08048 0.70452
 C1088 C 0.80062 1.06929 0.69662
 C1089 C 0.79138 1.05552 0.70536
 C1090 C 0.77696 1.04862 0.69753
 C1091 C 0.76763 1.03583 0.70538
 C1092 C 0.77263 1.02955 0.72122
 C1093 C 0.78728 1.03619 0.72892
 C1094 C 0.79659 1.04899 0.72108
 H1095 H 0.85179 1.12199 0.70267
 H1096 H 0.83790 1.09774 0.71554
 H1097 H 0.80188 1.09639 0.67433
 H1098 H 0.81574 1.12010 0.66129
 H1099 H 0.81269 1.07935 0.71795
 H1100 H 0.79860 1.07040 0.68318
 H1101 H 0.77274 1.05330 0.68536
 H1102 H 0.75646 1.03095 0.69906
 H1103 H 0.79158 1.03150 0.74105
 H1104 H 0.80795 1.05351 0.72731
 C1105 C 0.66169 0.61900 0.30306
 C1106 C 0.66897 0.60475 0.29582
 C1107 C 0.68322 0.59694 0.30320
 C1108 C 0.69018 0.60383 0.31800
 C1109 C 0.68289 0.61811 0.32525
 C1110 C 0.66859 0.62590 0.31784
 C1111 C 0.69078 0.58220 0.29463
 C1112 C 0.70086 0.57084 0.30231
 C1113 C 0.70883 0.55651 0.29340
 C1114 C 0.72387 0.54953 0.30002
 C1115 C 0.73208 0.53631 0.29182
 C1116 C 0.72530 0.52967 0.27687
 C1117 C 0.70998 0.53634 0.27048
 C1118 C 0.70178 0.54958 0.27867
 H1119 H 0.65071 0.62467 0.29696
 H1120 H 0.66344 0.59980 0.28436
 H1121 H 0.70147 0.59856 0.32383
 H1122 H 0.68862 0.62317 0.33656
 H1123 H 0.68781 0.58081 0.28140
 H1124 H 0.70394 0.57221 0.31551
 H1125 H 0.72947 0.55451 0.31143
 H1126 H 0.74381 0.53139 0.29714
 H1127 H 0.70433 0.53137 0.25909
 H1128 H 0.68987 0.55416 0.27349
 C1129 C 0.68588 1.11665 0.82889
 C1130 C 0.69377 1.10301 0.82118
 C1131 C 0.68704 1.09606 0.80643
 C1132 C 0.67214 1.10318 0.79944
 C1133 C 0.66421 1.11695 0.80713
 C1134 C 0.67101 1.12394 0.82197
 C1135 C 0.69645 1.08189 0.79867
 C1136 C 0.68972 1.07103 0.78763
 C1137 C 0.69960 1.05688 0.78038
 C1138 C 0.69467 1.05037 0.76473
 C1139 C 0.70386 1.03725 0.75736
 C1140 C 0.71814 1.03026 0.76557
 C1141 C 0.72282 1.03647 0.78144
 C1142 C 0.71362 1.04955 0.78882
 H1143 H 0.69166 1.12151 0.84027
 H1144 H 0.70526 1.09784 0.82682
 H1145 H 0.66674 1.09847 0.78785
 H1146 H 0.65286 1.12218 0.80132
 H1147 H 0.70961 1.08036 0.80251
 H1148 H 0.67668 1.07259 0.78344
 H1149 H 0.68381 1.05562 0.75806
 H1150 H 0.69985 1.03269 0.74516
 H1151 H 0.73361 1.03121 0.78821
 H1152 H 0.71745 1.05367 0.80121
 C1153 C 0.18848 0.62653 0.82993
 C1154 C 0.19664 0.61292 0.82247
 C1155 C 0.19002 0.60557 0.80787
 C1156 C 0.17499 0.61226 0.80074
 C1157 C 0.16679 0.62601 0.80819
 C1158 C 0.17345 0.63339 0.82289
 C1159 C 0.19965 0.59142 0.80039
 C1160 C 0.19299 0.58013 0.78978
 C1161 C 0.20307 0.56597 0.78287
 C1162 C 0.19823 0.55904 0.76738
 C1163 C 0.20760 0.54588 0.76034
 C1164 C 0.22196 0.53926 0.76874
 C1165 C 0.22654 0.54590 0.78446
 C1166 C 0.21717 0.55903 0.79150
 H1167 H 0.19415 0.63171 0.84121
 H1168 H 0.20822 0.60807 0.82819
 H1169 H 0.16969 0.60724 0.78925
 H1170 H 0.15533 0.63091 0.80229
 H1171 H 0.21287 0.59024 0.80412
 H1172 H 0.17988 0.58131 0.78570
 H1173 H 0.18731 0.56401 0.76058
 H1174 H 0.20367 0.54098 0.74825
 H1175 H 0.23738 0.54093 0.79136
 H1176 H 0.22091 0.56351 0.80379
 C1177 C 0.16574 1.12711 0.31046
 C1178 C 0.17356 1.11334 0.30286
 C1179 C 0.18815 1.10593 0.30996
 C1180 C 0.19488 1.11271 0.32491
 C1181 C 0.18706 1.12655 0.33255
 C1182 C 0.17239 1.13402 0.32540
 C1183 C 0.19614 1.09167 0.30093
 C1184 C 0.20709 1.08069 0.30797
 C1185 C 0.21501 1.06668 0.29849
 C1186 C 0.23071 1.06022 0.30406
 C1187 C 0.23878 1.04726 0.29531
 C1188 C 0.23123 1.04037 0.28084
 C1189 C 0.21529 1.04653 0.27550
 C1190 C 0.20723 1.05949 0.28425
 H1191 H 0.15451 1.13236 0.30444
 H1192 H 0.16815 1.10845 0.29132
 H1193 H 0.20636 1.10771 0.33060
 H1194 H 0.19269 1.13148 0.34397
 H1195 H 0.19267 1.09026 0.28782
 H1196 H 0.21085 1.08209 0.32100
 H1197 H 0.23689 1.06539 0.31509
 H1198 H 0.25101 1.04274 0.29982
 H1199 H 0.20903 1.04135 0.26453
 H1200 H 0.19483 1.06363 0.27991
 C1201 C 0.69449 0.36748 0.67015
 C1202 C 0.70246 0.38171 0.67667
 C1203 C 0.69509 0.39074 0.68990
 C1204 C 0.67953 0.38505 0.69665
 C1205 C 0.67154 0.37073 0.69014
 C1206 C 0.67894 0.36176 0.67681
 C1207 C 0.70446 0.40550 0.69655
 C1208 C 0.69727 0.41784 0.70555
 C1209 C 0.70698 0.43235 0.71229
 C1210 C 0.70061 0.44076 0.72641
 C1211 C 0.70948 0.45425 0.73341
 C1212 C 0.72490 0.45979 0.72633
 C1213 C 0.73107 0.45169 0.71191
 C1214 C 0.72220 0.43815 0.70492
 H1215 H 0.70063 0.36090 0.65993
 H1216 H 0.71448 0.38571 0.67130
 H1217 H 0.67362 0.39131 0.70717
 H1218 H 0.65964 0.36661 0.69565
 H1219 H 0.71792 0.40612 0.69373
 H1220 H 0.68386 0.41724 0.70856
 H1221 H 0.68883 0.43669 0.73223
 H1222 H 0.70430 0.46027 0.74448
 H1223 H 0.74282 0.45575 0.70604
 H1224 H 0.72725 0.43246 0.69365
 C1225 C 0.69526 -0.12210 0.16400
 C1226 C 0.70332 -0.10791 0.17063
 C1227 C 0.69660 -0.09964 0.18471
 C1228 C 0.68172 -0.10605 0.19220
 C1229 C 0.67367 -0.12021 0.18558
 C1230 C 0.68032 -0.12843 0.17141
 C1231 C 0.70587 -0.08494 0.19165
 C1232 C 0.69859 -0.07330 0.20151
 C1233 C 0.70799 -0.05907 0.20920
 C1234 C 0.70119 -0.05146 0.22360
 C1235 C 0.70972 -0.03825 0.23150
 C1236 C 0.72523 -0.03223 0.22507
 C1237 C 0.73184 -0.03957 0.21040
 C1238 C 0.72332 -0.05280 0.20252
 H1239 H 0.70078 -0.12815 0.15312
 H1240 H 0.71486 -0.10335 0.16472
 H1241 H 0.67641 -0.10052 0.20342
 H1242 H 0.66229 -0.12481 0.19174
 H1243 H 0.71921 -0.08388 0.18848
 H1244 H 0.68522 -0.07434 0.20461
 H1245 H 0.68932 -0.05594 0.22893
 H1246 H 0.70424 -0.03284 0.24273
 H1247 H 0.74368 -0.03512 0.20501
 H1248 H 0.72872 -0.05786 0.19112
 C1249 C 0.19388 0.37951 0.16756
 C1250 C 0.20159 0.39367 0.17464
 C1251 C 0.19456 0.40148 0.18881
 C1252 C 0.17968 0.39465 0.19592
 C1253 C 0.17195 0.38051 0.18887
 C1254 C 0.17893 0.37267 0.17458
 C1255 C 0.20352 0.41618 0.19616
 C1256 C 0.19597 0.42746 0.20624
 C1257 C 0.20505 0.44173 0.21423
 C1258 C 0.19799 0.44892 0.22872
 C1259 C 0.20613 0.46221 0.23687
 C1260 C 0.22149 0.46877 0.23061
 C1261 C 0.22840 0.46184 0.21589
 C1262 C 0.22027 0.44849 0.20775
 H1263 H 0.19977 0.37392 0.15661
 H1264 H 0.21312 0.39856 0.16898
 H1265 H 0.17411 0.39985 0.20718
 H1266 H 0.16056 0.37565 0.19482
 H1267 H 0.21686 0.41756 0.19310
 H1268 H 0.18262 0.42610 0.20925
 H1269 H 0.18622 0.44407 0.23391
 H1270 H 0.20041 0.46730 0.24814
 H1271 H 0.24014 0.46670 0.21065
 H1272 H 0.22587 0.44374 0.19631
 C1273 C 0.18924 -0.12609 0.66525
 C1274 C 0.19781 -0.11256 0.67249
 C1275 C 0.19152 -0.10483 0.68701
 C1276 C 0.17648 -0.11108 0.69433
 C1277 C 0.16789 -0.12468 0.68713
 C1278 C 0.17416 -0.13243 0.67248
 C1279 C 0.20143 -0.09081 0.69439
 C1280 C 0.19470 -0.07908 0.70448
 C1281 C 0.20477 -0.06523 0.71200
 C1282 C 0.19860 -0.05748 0.72659
 C1283 C 0.20774 -0.04454 0.73425
 C1284 C 0.22324 -0.03895 0.72741
 C1285 C 0.22926 -0.04643 0.71260
 C1286 C 0.22011 -0.05938 0.70492
 H1287 H 0.19461 -0.13162 0.65402
 H1288 H 0.20943 -0.10808 0.66667
 H1289 H 0.17148 -0.10583 0.70582
 H1290 H 0.15642 -0.12918 0.69321
 H1291 H 0.21479 -0.09021 0.69116
 H1292 H 0.18134 -0.07970 0.70774
 H1293 H 0.18675 -0.06161 0.73221
 H1294 H 0.20269 -0.03899 0.74561
 H1295 H 0.24106 -0.04228 0.70690
 H1296 H 0.22503 -0.06453 0.69334
 C1297 C 0.33284 0.31338 0.37982
 C1298 C 0.32634 0.30393 0.39322
 C1299 C 0.31154 0.30905 0.40162
 C1300 C 0.30320 0.32384 0.39615
 C1301 C 0.30969 0.33330 0.38270
 C1302 C 0.32457 0.32818 0.37436
 C1303 C 0.30492 0.29825 0.41544
 C1304 C 0.29446 0.30379 0.42755
 C1305 C 0.28741 0.29285 0.44106
 C1306 C 0.27245 0.29801 0.44916
 C1307 C 0.26515 0.28810 0.46180
 C1308 C 0.27274 0.27280 0.46677
 C1309 C 0.28793 0.26776 0.45893
 C1310 C 0.29523 0.27768 0.44624
 H1311 H 0.34429 0.30899 0.37368
 H1312 H 0.33294 0.29253 0.39706
 H1313 H 0.29146 0.32798 0.40188
 H1314 H 0.30292 0.34455 0.37875
 H1315 H 0.30898 0.28523 0.41551
 H1316 H 0.29043 0.31681 0.42747
 H1317 H 0.26624 0.30968 0.44555
 H1318 H 0.25350 0.29241 0.46762
 H1319 H 0.29418 0.25613 0.46258
 H1320 H 0.30708 0.27349 0.44076
 C1321 C 0.33569 0.81024 -0.12457
 C1322 C 0.32767 0.80246 -0.11095
 C1323 C 0.31291 0.80941 -0.10390
 C1324 C 0.30622 0.82438 -0.11088
 C1325 C 0.31424 0.83217 -0.12456
 C1326 C 0.32904 0.82516 -0.13160
 C1327 C 0.30469 0.80023 -0.08981
 C1328 C 0.29370 0.80720 -0.07896
 C1329 C 0.28573 0.79759 -0.06499
 C1330 C 0.27007 0.80310 -0.05854
 C1331 C 0.26202 0.79416 -0.04559
 C1332 C 0.26956 0.77957 -0.03876
 C1333 C 0.28545 0.77432 -0.04491
 C1334 C 0.29351 0.78326 -0.05779
 H1335 H 0.34704 0.80445 -0.12967
 H1336 H 0.33305 0.79090 -0.10590
 H1337 H 0.29461 0.82993 -0.10616
 H1338 H 0.30871 0.84359 -0.12974
 H1339 H 0.30805 0.78709 -0.08839
 H1340 H 0.29006 0.82026 -0.08039
 H1341 H 0.26391 0.81421 -0.06371
 H1342 H 0.24982 0.79859 -0.04105
 H1343 H 0.29174 0.76328 -0.03974
 H1344 H 0.30590 0.77898 -0.06186
 C1345 C 0.82953 0.30604 -0.12281
 C1346 C 0.82186 0.29729 -0.10959
 C1347 C 0.80718 0.30361 -0.10186
 C1348 C 0.80015 0.31887 -0.10778
 C1349 C 0.80781 0.32762 -0.12108
 C1350 C 0.82258 0.32129 -0.12876
 C1351 C 0.79939 0.29353 -0.08817
 C1352 C 0.78906 0.29992 -0.07641
 C1353 C 0.78143 0.28954 -0.06284
 C1354 C 0.76618 0.29496 -0.05546
 C1355 C 0.75842 0.28539 -0.04282
 C1356 C 0.76584 0.27024 -0.03720
 C1357 C 0.78132 0.26500 -0.04431
 C1358 C 0.78908 0.27457 -0.05692
 H1359 H 0.84085 0.30072 -0.12845
 H1360 H 0.82747 0.28552 -0.10536
 H1361 H 0.78855 0.32393 -0.10251
 H1362 H 0.80205 0.33927 -0.12544
 H1363 H 0.80257 0.28028 -0.08780
 H1364 H 0.78570 0.31312 -0.07678
 H1365 H 0.76013 0.30652 -0.05965
 H1366 H 0.74654 0.28983 -0.03753
 H1367 H 0.78747 0.25351 -0.04009
 H1368 H 0.80118 0.27028 -0.06178
 C1369 C 0.80543 0.83421 0.37402
 C1370 C 0.79698 0.82652 0.38754
 C1371 C 0.80316 0.81145 0.39462
 C1372 C 0.81782 0.80404 0.38768
 C1373 C 0.82624 0.81170 0.37424
 C1374 C 0.82017 0.82687 0.36721
 C1375 C 0.79364 0.80336 0.40862
 C1376 C 0.80096 0.79268 0.41967
 C1377 C 0.79162 0.78330 0.43295
 C1378 C 0.79929 0.76882 0.43982
 C1379 C 0.79103 0.75931 0.45216
 C1380 C 0.77491 0.76414 0.45806
 C1381 C 0.76731 0.77881 0.45144
 C1382 C 0.77557 0.78832 0.43902
 H1383 H 0.80035 0.84584 0.36887
 H1384 H 0.78560 0.83238 0.39251
 H1385 H 0.82264 0.79209 0.39225
 H1386 H 0.83743 0.80554 0.36922
 H1387 H 0.78021 0.80627 0.40958
 H1388 H 0.81447 0.79014 0.41874
 H1389 H 0.81169 0.76472 0.43547
 H1390 H 0.79729 0.74814 0.45705
 H1391 H 0.75495 0.78294 0.45582
 H1392 H 0.76939 0.79963 0.43444
 C1393 C 0.67229 0.30101 0.62892
 C1394 C 0.68046 0.29283 0.61563
 C1395 C 0.69601 0.29886 0.60932
 C1396 C 0.70342 0.31307 0.61685
 C1397 C 0.69526 0.32124 0.63008
 C1398 C 0.67958 0.31535 0.63627
 C1399 C 0.70438 0.28971 0.59536
 C1400 C 0.71570 0.29691 0.58492
 C1401 C 0.72464 0.28791 0.57122
 C1402 C 0.73968 0.29495 0.56478
 C1403 C 0.74857 0.28708 0.55180
 C1404 C 0.74253 0.27201 0.54485
 C1405 C 0.72738 0.26502 0.55116
 C1406 C 0.71849 0.27288 0.56416
 H1407 H 0.66027 0.29608 0.63342
 H1408 H 0.67457 0.28181 0.61019
 H1409 H 0.71569 0.31777 0.61288
 H1410 H 0.70138 0.33211 0.63556
 H1411 H 0.70092 0.27666 0.59374
 H1412 H 0.71893 0.31003 0.58652
 H1413 H 0.74465 0.30656 0.56988
 H1414 H 0.76016 0.29285 0.54719
 H1415 H 0.72231 0.25349 0.54597
 H1416 H 0.70670 0.26727 0.56835
 C1417 C 0.67018 0.80956 1.12536
 C1418 C 0.67723 0.80047 1.11209
 C1419 C 0.69209 0.80603 1.10403
 C1420 C 0.69991 0.82089 1.10972
 C1421 C 0.69288 0.82999 1.12305
 C1422 C 0.67793 0.82443 1.13105
 C1423 C 0.69926 0.79559 1.09029
 C1424 C 0.71002 0.80142 1.07851
 C1425 C 0.71733 0.79086 1.06493
 C1426 C 0.73227 0.79634 1.05692
 C1427 C 0.73969 0.78685 1.04412
 C1428 C 0.73226 0.77166 1.03890
 C1429 C 0.71715 0.76629 1.04669
 C1430 C 0.70972 0.77579 1.05950
 H1431 H 0.65870 0.80484 1.13124
 H1432 H 0.67100 0.78901 1.10807
 H1433 H 0.71166 0.82538 1.10426
 H1434 H 0.69927 0.84131 1.12717
 H1435 H 0.69529 0.78257 1.08997
 H1436 H 0.71400 0.81444 1.07884
 H1437 H 0.73833 0.80796 1.06071
 H1438 H 0.75130 0.79140 1.03835
 H1439 H 0.71100 0.75473 1.04285
 H1440 H 0.69790 0.77135 1.06486
 C1441 C 0.19394 0.33439 1.12580
 C1442 C 0.20166 0.32640 1.11220
 C1443 C 0.19443 0.31195 1.10508
 C1444 C 0.17925 0.30555 1.11203
 C1445 C 0.17153 0.31355 1.12571
 C1446 C 0.17880 0.32806 1.13278
 C1447 C 0.20355 0.30383 1.09089
 C1448 C 0.19655 0.29270 1.08026
 C1449 C 0.20608 0.28496 1.06611
 C1450 C 0.20056 0.26946 1.05970
 C1451 C 0.20932 0.26168 1.04653
 C1452 C 0.22376 0.26932 1.03938
 C1453 C 0.22904 0.28502 1.04552
 C1454 C 0.22028 0.29280 1.05865
 H1455 H 0.19996 0.34550 1.13091
 H1456 H 0.21337 0.33157 1.10720
 H1457 H 0.17344 0.29422 1.10726
 H1458 H 0.15992 0.30826 1.13082
 H1459 H 0.21672 0.30742 1.08919
 H1460 H 0.18348 0.28878 1.08197
 H1461 H 0.18955 0.26324 1.06506
 H1462 H 0.20487 0.24963 1.04204
 H1463 H 0.23997 0.29137 1.04017
 H1464 H 0.22458 0.30505 1.06268
 C1465 C 0.16409 0.81076 0.62170
 C1466 C 0.17141 0.80322 0.60759
 C1467 C 0.18639 0.80971 0.60046
 C1468 C 0.19408 0.82380 0.60793
 C1469 C 0.18678 0.83133 0.62201
 C1470 C 0.17172 0.82491 0.62909
 C1471 C 0.19406 0.80099 0.58585
 C1472 C 0.20476 0.80851 0.57500
 C1473 C 0.21331 0.79970 0.56094
 C1474 C 0.22826 0.80671 0.55427
 C1475 C 0.23700 0.79874 0.54125
 C1476 C 0.23089 0.78361 0.53450
 C1477 C 0.21571 0.77676 0.54091
 C1478 C 0.20698 0.78473 0.55395
 H1479 H 0.15253 0.80543 0.62687
 H1480 H 0.16533 0.79226 0.60219
 H1481 H 0.20596 0.82885 0.60329
 H1482 H 0.19312 0.84210 0.62745
 H1483 H 0.19074 0.78791 0.58420
 H1484 H 0.20791 0.82164 0.57663
 H1485 H 0.23335 0.81830 0.55931
 H1486 H 0.24861 0.80440 0.53655
 H1487 H 0.21056 0.76521 0.53587
 H1488 H 0.19521 0.77918 0.55828
 C1489 C 0.31237 0.66953 0.61997
 C1490 C 0.30471 0.67751 0.60620
 C1491 C 0.31179 0.69213 0.59920
 C1492 C 0.32676 0.69874 0.60640
 C1493 C 0.33444 0.69076 0.62027
 C1494 C 0.32729 0.67608 0.62724
 C1495 C 0.30267 0.70033 0.58496
 C1496 C 0.30993 0.71107 0.57404
 C1497 C 0.30040 0.71923 0.56003
 C1498 C 0.30635 0.73459 0.55356
 C1499 C 0.29753 0.74291 0.54064
 C1500 C 0.28259 0.73595 0.53380
 C1501 C 0.27687 0.72035 0.53994
 C1502 C 0.28571 0.71203 0.55285
 H1503 H 0.30645 0.65828 0.62500
 H1504 H 0.29314 0.67221 0.60098
 H1505 H 0.33239 0.71025 0.60171
 H1506 H 0.34585 0.69620 0.62563
 H1507 H 0.28935 0.69718 0.58349
 H1508 H 0.32319 0.71443 0.57553
 H1509 H 0.31773 0.74032 0.55871
 H1510 H 0.30233 0.75487 0.53612
 H1511 H 0.26554 0.71455 0.53480
 H1512 H 0.28105 0.69989 0.55698
 C1513 C 0.33765 0.19453 1.12993
 C1514 C 0.33064 0.20208 1.11554
 C1515 C 0.31678 0.19473 1.10717
 C1516 C 0.30995 0.17964 1.11363
 C1517 C 0.31694 0.17210 1.12807
 C1518 C 0.33085 0.17947 1.13643
 C1519 C 0.30942 0.20366 1.09233
 C1520 C 0.29989 0.19617 1.08049
 C1521 C 0.29193 0.20530 1.06607
 C1522 C 0.27776 0.19805 1.05813
 C1523 C 0.26950 0.20633 1.04483
 C1524 C 0.27532 0.22204 1.03902
 C1525 C 0.28981 0.22912 1.04663
 C1526 C 0.29807 0.22083 1.05997
 H1527 H 0.34831 0.20062 1.13603
 H1528 H 0.33607 0.21375 1.11094
 H1529 H 0.29895 0.17381 1.10792
 H1530 H 0.31130 0.16058 1.13278
 H1531 H 0.31203 0.21699 1.09132
 H1532 H 0.29729 0.18284 1.08151
 H1533 H 0.27285 0.18604 1.06244
 H1534 H 0.25843 0.20047 1.03921
 H1535 H 0.29472 0.24113 1.04235
 H1536 H 0.30930 0.22661 1.06529
 C1537 C 0.81214 0.65811 1.12750
 C1538 C 0.80417 0.66509 1.11332
 C1539 C 0.81073 0.67957 1.10551
 C1540 C 0.82547 0.68704 1.11230
 C1541 C 0.83343 0.68007 1.12653
 C1542 C 0.82683 0.66556 1.13434
 C1543 C 0.80134 0.68684 1.09092
 C1544 C 0.80833 0.69721 1.07946
 C1545 C 0.79863 0.70484 1.06523
 C1546 C 0.80490 0.71961 1.05771
 C1547 C 0.79597 0.72750 1.04457
 C1548 C 0.78060 0.72072 1.03858
 C1549 C 0.77456 0.70568 1.04578
 C1550 C 0.78349 0.69778 1.05889
 H1551 H 0.80664 0.64696 1.13318
 H1552 H 0.79278 0.65915 1.10844
 H1553 H 0.83067 0.69849 1.10702
 H1554 H 0.84465 0.68621 1.13152
 H1555 H 0.78807 0.68339 1.08975
 H1556 H 0.82159 0.70070 1.08064
 H1557 H 0.81661 0.72524 1.06220
 H1558 H 0.80103 0.73903 1.03925
 H1559 H 0.76286 0.70000 1.04132
 H1560 H 0.77852 0.68607 1.06382
 C1561 C 0.82199 0.15727 0.62798
 C1562 C 0.81479 0.16435 0.61347
 C1563 C 0.82167 0.17898 0.60624
 C1564 C 0.83594 0.18646 0.61391
 C1565 C 0.84314 0.17939 0.62843
 C1566 C 0.83619 0.16477 0.63571
 C1567 C 0.81298 0.18654 0.59142
 C1568 C 0.82053 0.19722 0.58063
 C1569 C 0.81134 0.20575 0.56665
 C1570 C 0.81761 0.22116 0.56063
 C1571 C 0.80891 0.23007 0.54803
 C1572 C 0.79379 0.22365 0.54109
 C1573 C 0.78782 0.20792 0.54669
 C1574 C 0.79653 0.19902 0.55929
 H1575 H 0.81627 0.14602 0.63326
 H1576 H 0.80372 0.15842 0.60791
 H1577 H 0.84132 0.19804 0.60912
 H1578 H 0.85399 0.18557 0.63411
 H1579 H 0.79972 0.18328 0.58963
 H1580 H 0.83378 0.20051 0.58241
 H1581 H 0.82909 0.22653 0.56596
 H1582 H 0.81391 0.24210 0.54392
 H1583 H 0.77633 0.20253 0.54143
 H1584 H 0.79163 0.18688 0.56309
 C1585 C 0.66199 0.68493 0.36806
 C1586 C 0.66953 0.69235 0.38214
 C1587 C 0.68408 0.68523 0.38968
 C1588 C 0.69104 0.67051 0.38270
 C1589 C 0.68349 0.66307 0.36862
 C1590 C 0.66890 0.67021 0.36110
 C1591 C 0.69189 0.69396 0.40428
 C1592 C 0.70277 0.68663 0.41519
 C1593 C 0.71089 0.69566 0.42940
 C1594 C 0.72633 0.68946 0.43596
 C1595 C 0.73457 0.69769 0.44918
 C1596 C 0.72746 0.71225 0.45626
 C1597 C 0.71180 0.71824 0.44997
 C1598 C 0.70357 0.71003 0.43674
 H1599 H 0.65079 0.69081 0.36259
 H1600 H 0.66396 0.70374 0.38715
 H1601 H 0.70253 0.66484 0.38771
 H1602 H 0.68926 0.65182 0.36352
 H1603 H 0.68844 0.70702 0.40594
 H1604 H 0.70635 0.67360 0.41356
 H1605 H 0.73216 0.67833 0.43067
 H1606 H 0.74657 0.69268 0.45378
 H1607 H 0.70588 0.72933 0.45527
 H1608 H 0.69140 0.71488 0.43251
 C1609 C 0.68686 0.15791 -0.12656
 C1610 C 0.69478 0.16480 -0.11244
 C1611 C 0.68793 0.17901 -0.10455
 C1612 C 0.67300 0.18635 -0.11122
 C1613 C 0.66508 0.17947 -0.12537
 C1614 C 0.67195 0.16520 -0.13324
 C1615 C 0.69720 0.18619 -0.08999
 C1616 C 0.68992 0.19609 -0.07843
 C1617 C 0.69948 0.20368 -0.06427
 C1618 C 0.69309 0.21840 -0.05693
 C1619 C 0.70193 0.22625 -0.04386
 C1620 C 0.71732 0.21945 -0.03778
 C1621 C 0.72349 0.20446 -0.04480
 C1622 C 0.71464 0.19660 -0.05785
 H1623 H 0.69254 0.14694 -0.13232
 H1624 H 0.70634 0.15899 -0.10765
 H1625 H 0.66759 0.19763 -0.10589
 H1626 H 0.65369 0.18550 -0.13025
 H1627 H 0.71058 0.18309 -0.08893
 H1628 H 0.67654 0.19925 -0.07950
 H1629 H 0.68135 0.22402 -0.06151
 H1630 H 0.69678 0.23774 -0.03865
 H1631 H 0.73519 0.19877 -0.04024
 H1632 H 0.71968 0.18492 -0.06267
 C1633 C 0.18885 0.66832 -0.12656
 C1634 C 0.19684 0.67542 -0.11261
 C1635 C 0.18979 0.68948 -0.10464
 C1636 C 0.17456 0.69644 -0.11104
 C1637 C 0.16656 0.68935 -0.12506
 C1638 C 0.17364 0.67523 -0.13301
 C1639 C 0.19918 0.69684 -0.09026
 C1640 C 0.19196 0.70654 -0.07851
 C1641 C 0.20170 0.71413 -0.06447
 C1642 C 0.19539 0.72882 -0.05702
 C1643 C 0.20442 0.73667 -0.04409
 C1644 C 0.21992 0.72989 -0.03824
 C1645 C 0.22601 0.71492 -0.04535
 C1646 C 0.21697 0.70706 -0.05827
 H1647 H 0.19472 0.65748 -0.13237
 H1648 H 0.20862 0.66989 -0.10802
 H1649 H 0.16897 0.70759 -0.10560
 H1650 H 0.15493 0.69507 -0.12978
 H1651 H 0.21265 0.69399 -0.08946
 H1652 H 0.17853 0.70952 -0.07933
 H1653 H 0.18357 0.73441 -0.06143
 H1654 H 0.19933 0.74815 -0.03880
 H1655 H 0.23779 0.70926 -0.04097
 H1656 H 0.22194 0.69539 -0.06319
 C1657 C 0.16342 0.19125 0.37618
 C1658 C 0.17046 0.19883 0.39042
 C1659 C 0.18506 0.19211 0.39820
 C1660 C 0.19262 0.17764 0.39127
 C1661 C 0.18558 0.17005 0.37701
 C1662 C 0.17092 0.17679 0.36926
 C1663 C 0.19235 0.20102 0.41295
 C1664 C 0.20295 0.19382 0.42420
 C1665 C 0.21078 0.20298 0.43850
 C1666 C 0.22596 0.19668 0.44550
 C1667 C 0.23402 0.20500 0.45875
 C1668 C 0.22698 0.21977 0.46547
 C1669 C 0.21154 0.22588 0.45877
 C1670 C 0.20349 0.21757 0.44546
 H1671 H 0.15215 0.19684 0.37054
 H1672 H 0.16445 0.21003 0.39538
 H1673 H 0.20419 0.17232 0.39649
 H1674 H 0.19178 0.15902 0.37195
 H1675 H 0.18875 0.21407 0.41443
 H1676 H 0.20658 0.18078 0.42274
 H1677 H 0.23177 0.18539 0.44051
 H1678 H 0.24585 0.19988 0.46367
 H1679 H 0.20570 0.23714 0.46377
 H1680 H 0.19151 0.22255 0.44086
 C1681 C 0.30635 0.37714 0.66719
 C1682 C 0.29861 0.39126 0.67422
 C1683 C 0.30557 0.39897 0.68851
 C1684 C 0.32048 0.39212 0.69575
 C1685 C 0.32823 0.37796 0.68871
 C1686 C 0.32124 0.37028 0.67436
 C1687 C 0.29649 0.41366 0.69565
 C1688 C 0.30354 0.42476 0.70625
 C1689 C 0.29400 0.43924 0.71324
 C1690 C 0.29919 0.44600 0.72871
 C1691 C 0.29029 0.45941 0.73588
 C1692 C 0.27606 0.46644 0.72762
 C1693 C 0.27116 0.45998 0.71190
 C1694 C 0.28006 0.44660 0.70475
 H1695 H 0.30057 0.37155 0.65617
 H1696 H 0.28709 0.39619 0.66844
 H1697 H 0.32604 0.39732 0.70703
 H1698 H 0.33962 0.37294 0.69464
 H1699 H 0.28333 0.41529 0.69185
 H1700 H 0.31659 0.42316 0.71036
 H1701 H 0.31001 0.44069 0.73541
 H1702 H 0.29444 0.46416 0.74796
 H1703 H 0.26041 0.46526 0.70510
 H1704 H 0.27607 0.44225 0.69248
 C1705 C 0.30647 0.88333 0.16337
 C1706 C 0.29882 0.89691 0.17146
 C1707 C 0.30646 0.90420 0.18562
 C1708 C 0.32194 0.89745 0.19168
 C1709 C 0.32959 0.88379 0.18361
 C1710 C 0.32193 0.87655 0.16937
 C1711 C 0.29745 0.91827 0.19399
 C1712 C 0.30514 0.92953 0.20396
 C1713 C 0.29591 0.94340 0.21247
 C1714 C 0.30321 0.95052 0.22690
 C1715 C 0.29489 0.96342 0.23549
 C1716 C 0.27910 0.96960 0.22975
 C1717 C 0.27195 0.96276 0.21508
 C1718 C 0.28027 0.94985 0.20648
 H1719 H 0.30014 0.87806 0.15248
 H1720 H 0.28685 0.90176 0.16660
 H1721 H 0.32801 0.90235 0.20286
 H1722 H 0.34143 0.87881 0.18864
 H1723 H 0.28391 0.91930 0.19162
 H1724 H 0.31867 0.92849 0.20640
 H1725 H 0.31531 0.94592 0.23169
 H1726 H 0.30081 0.96847 0.24671
 H1727 H 0.25989 0.96737 0.21022
 H1728 H 0.27448 0.94520 0.19506
 C1729 C 0.80415 0.37152 0.16375
 C1730 C 0.79622 0.38502 0.17169
 C1731 C 0.80369 0.39259 0.18579
 C1732 C 0.81931 0.38622 0.19192
 C1733 C 0.82726 0.37266 0.18397
 C1734 C 0.81975 0.36513 0.16981
 C1735 C 0.79441 0.40658 0.19397
 C1736 C 0.80179 0.41796 0.20401
 C1737 C 0.79222 0.43176 0.21221
 C1738 C 0.79886 0.43878 0.22699
 C1739 C 0.79017 0.45166 0.23525
 C1740 C 0.77467 0.45790 0.22880
 C1741 C 0.76819 0.45113 0.21380
 C1742 C 0.77688 0.43825 0.20554
 H1743 H 0.79795 0.36602 0.15291
 H1744 H 0.78416 0.38958 0.16678
 H1745 H 0.82528 0.39134 0.20304
 H1746 H 0.83919 0.36797 0.18905
 H1747 H 0.78089 0.40745 0.19140
 H1748 H 0.81527 0.41709 0.20674
 H1749 H 0.81073 0.43414 0.23229
 H1750 H 0.79557 0.45666 0.24673
 H1751 H 0.75639 0.45581 0.20840
 H1752 H 0.77164 0.43366 0.19384
 C1753 C 0.80313 0.87077 0.65966
 C1754 C 0.79531 0.88468 0.66703
 C1755 C 0.80224 0.89211 0.68149
 C1756 C 0.81722 0.88519 0.68853
 C1757 C 0.82505 0.87124 0.68114
 C1758 C 0.81808 0.86383 0.66664
 C1759 C 0.79302 0.90656 0.68899
 C1760 C 0.79992 0.91743 0.69994
 C1761 C 0.79026 0.93169 0.70728
 C1762 C 0.79552 0.93822 0.72283
 C1763 C 0.78657 0.95144 0.73031
 C1764 C 0.77223 0.95852 0.72231
 C1765 C 0.76723 0.95228 0.70653
 C1766 C 0.77617 0.93909 0.69905
 H1767 H 0.79736 0.86541 0.64852
 H1768 H 0.78375 0.88966 0.66138
 H1769 H 0.82277 0.89018 0.69991
 H1770 H 0.83649 0.86615 0.68693
 H1771 H 0.77988 0.90821 0.68515
 H1772 H 0.81296 0.91579 0.70407
 H1773 H 0.80644 0.93289 0.72935
 H1774 H 0.79081 0.95600 0.74244
 H1775 H 0.75637 0.95759 0.69991
 H1776 H 0.77209 0.93493 0.68675
 C1777 C 0.66467 0.61950 0.68619
 C1778 C 0.67164 0.60576 0.69485
 C1779 C 0.68567 0.59701 0.68835
 C1780 C 0.69273 0.60246 0.67297
 C1781 C 0.68577 0.61627 0.66430
 C1782 C 0.67168 0.62499 0.67083
 C1783 C 0.69293 0.58289 0.69841
 C1784 C 0.70254 0.57058 0.69187
 C1785 C 0.71037 0.55685 0.70208
 C1786 C 0.72468 0.54854 0.69561
 C1787 C 0.73278 0.53580 0.70484
 C1788 C 0.72667 0.53095 0.72077
 C1789 C 0.71208 0.53895 0.72711
 C1790 C 0.70397 0.55174 0.71786
 H1791 H 0.65386 0.62592 0.69166
 H1792 H 0.66603 0.60193 0.70672
 H1793 H 0.70386 0.59645 0.66774
 H1794 H 0.69157 0.62022 0.65258
 H1795 H 0.69015 0.58279 0.71174
 H1796 H 0.70530 0.57068 0.67854
 H1797 H 0.72979 0.55209 0.68344
 H1798 H 0.74394 0.52985 0.69953
 H1799 H 0.70695 0.53539 0.73927
 H1800 H 0.69263 0.55739 0.72308
 C1801 C 0.66181 0.12730 0.19289
 C1802 C 0.66935 0.11332 0.20071
 C1803 C 0.68333 0.10515 0.19338
 C1804 C 0.68973 0.11139 0.17802
 C1805 C 0.68218 0.12536 0.17019
 C1806 C 0.66817 0.13352 0.17755
 C1807 C 0.69121 0.09073 0.20252
 C1808 C 0.70156 0.07936 0.19538
 C1809 C 0.70970 0.06533 0.20487
 C1810 C 0.72484 0.05829 0.19866
 C1811 C 0.73311 0.04528 0.20741
 C1812 C 0.72632 0.03893 0.22251
 C1813 C 0.71092 0.04567 0.22849
 C1814 C 0.70266 0.05866 0.21975
 H1815 H 0.65107 0.13328 0.19895
 H1816 H 0.66423 0.10888 0.21259
 H1817 H 0.70078 0.10589 0.17213
 H1818 H 0.68752 0.12987 0.15845
 H1819 H 0.68829 0.08961 0.21579
 H1820 H 0.70467 0.08045 0.18217
 H1821 H 0.73043 0.06307 0.18714
 H1822 H 0.74491 0.04031 0.20242
 H1823 H 0.70523 0.04092 0.23997
 H1824 H 0.69069 0.06323 0.22464
 C1825 C 0.18757 0.62671 0.16416
 C1826 C 0.19556 0.61272 0.17150
 C1827 C 0.18905 0.60530 0.18620
 C1828 C 0.17436 0.61229 0.19354
 C1829 C 0.16637 0.62629 0.18621
 C1830 C 0.17291 0.63372 0.17147
 C1831 C 0.19843 0.59091 0.19387
 C1832 C 0.19142 0.57983 0.20463
 C1833 C 0.20108 0.56593 0.21285
 C1834 C 0.19482 0.55911 0.22795
 C1835 C 0.20368 0.54630 0.23640
 C1836 C 0.21897 0.53991 0.22983
 C1837 C 0.22502 0.54642 0.21448
 C1838 C 0.21616 0.55923 0.20603
 H1839 H 0.19301 0.63211 0.15284
 H1840 H 0.20692 0.60769 0.16566
 H1841 H 0.16920 0.60735 0.20516
 H1842 H 0.15519 0.63143 0.19227
 H1843 H 0.21169 0.58960 0.19044
 H1844 H 0.17816 0.58114 0.20806
 H1845 H 0.18316 0.56390 0.23340
 H1846 H 0.19862 0.54151 0.24815
 H1847 H 0.23666 0.54164 0.20898
 H1848 H 0.22112 0.56366 0.19412
 C1849 C 0.16606 0.12150 0.69173
 C1850 C 0.17323 0.10732 0.69939
 C1851 C 0.18711 0.09904 0.69207
 C1852 C 0.19379 0.10535 0.67684
 C1853 C 0.18662 0.11963 0.66917
 C1854 C 0.17270 0.12790 0.67657
 C1855 C 0.19452 0.08443 0.70120
 C1856 C 0.20429 0.07261 0.69408
 C1857 C 0.21160 0.05830 0.70378
 C1858 C 0.22675 0.05085 0.69815
 C1859 C 0.23437 0.03776 0.70732
 C1860 C 0.22691 0.03176 0.72226
 C1861 C 0.21144 0.03883 0.72759
 C1862 C 0.20381 0.05189 0.71842
 H1863 H 0.15538 0.12753 0.69785
 H1864 H 0.16790 0.10280 0.71114
 H1865 H 0.20477 0.09963 0.67100
 H1866 H 0.19211 0.12429 0.65755
 H1867 H 0.19161 0.08348 0.71448
 H1868 H 0.20752 0.07354 0.68088
 H1869 H 0.23289 0.05540 0.68681
 H1870 H 0.24624 0.03250 0.70281
 H1871 H 0.20524 0.03432 0.73891
 H1872 H 0.19177 0.05678 0.72281
 C1873 C 0.33213 0.63139 0.30720
 C1874 C 0.32503 0.61728 0.29945
 C1875 C 0.31073 0.60924 0.30636
 C1876 C 0.30352 0.61579 0.32115
 C1877 C 0.31062 0.62989 0.32890
 C1878 C 0.32499 0.63790 0.32202
 C1879 C 0.30336 0.59461 0.29735
 C1880 C 0.29320 0.58311 0.30464
 C1881 C 0.28531 0.56885 0.29549
 C1882 C 0.27069 0.56132 0.30231
 C1883 C 0.26265 0.54801 0.29408
 C1884 C 0.26914 0.54179 0.27887
 C1885 C 0.28399 0.54907 0.27219
 C1886 C 0.29203 0.56241 0.28042
 H1887 H 0.34316 0.63724 0.30150
 H1888 H 0.33076 0.61262 0.28800
 H1889 H 0.29218 0.61039 0.32663
 H1890 H 0.30468 0.63463 0.34021
 H1891 H 0.30653 0.59344 0.28417
 H1892 H 0.29005 0.58427 0.31783
 H1893 H 0.26533 0.56590 0.31397
 H1894 H 0.25128 0.54265 0.29962
 H1895 H 0.28942 0.54448 0.26057
 H1896 H 0.30359 0.56742 0.27500
 C1897 C 0.30586 0.12117 0.83489
 C1898 C 0.29798 0.10711 0.82788
 C1899 C 0.30463 0.09950 0.81342
 C1900 C 0.31931 0.10641 0.80597
 C1901 C 0.32718 0.12050 0.81297
 C1902 C 0.32054 0.12808 0.82749
 C1903 C 0.29542 0.08496 0.80616
 C1904 C 0.30262 0.07364 0.79590
 C1905 C 0.29314 0.05941 0.78833
 C1906 C 0.29943 0.05216 0.77352
 C1907 C 0.29072 0.03898 0.76575
 C1908 C 0.27556 0.03268 0.77270
 C1909 C 0.26948 0.03964 0.78775
 C1910 C 0.27820 0.05280 0.79554
 H1911 H 0.30034 0.12670 0.84605
 H1912 H 0.28661 0.10214 0.83379
 H1913 H 0.32456 0.10130 0.79452
 H1914 H 0.33839 0.12556 0.80686
 H1915 H 0.28214 0.08368 0.80954
 H1916 H 0.31588 0.07493 0.79248
 H1917 H 0.31100 0.05688 0.76780
 H1918 H 0.29579 0.03384 0.75420
 H1919 H 0.25796 0.03493 0.79356
 H1920 H 0.27324 0.05753 0.80727
 C1921 C 0.80806 0.62042 0.83390
 C1922 C 0.79996 0.60645 0.82686
 C1923 C 0.80600 0.59925 0.81191
 C1924 C 0.82026 0.60651 0.80401
 C1925 C 0.82835 0.62046 0.81104
 C1926 C 0.82235 0.62762 0.82605
 C1927 C 0.79665 0.58475 0.80466
 C1928 C 0.80349 0.57391 0.79364
 C1929 C 0.79397 0.55973 0.78598
 C1930 C 0.80005 0.55281 0.77091
 C1931 C 0.79143 0.53957 0.76311
 C1932 C 0.77657 0.53285 0.77029
 C1933 C 0.77067 0.53954 0.78555
 C1934 C 0.77928 0.55276 0.79335
 H1935 H 0.80305 0.62562 0.84544
 H1936 H 0.78892 0.60123 0.83314
 H1937 H 0.82502 0.60179 0.79219
 H1938 H 0.83922 0.62575 0.80454
 H1939 H 0.78361 0.58311 0.80868
 H1940 H 0.81654 0.57555 0.78966
 H1941 H 0.81142 0.55781 0.76503
 H1942 H 0.79636 0.53467 0.75140
 H1943 H 0.75936 0.53453 0.79153
 H1944 H 0.77446 0.55724 0.80524
 C1945 C 0.81014 0.12744 0.33285
 C1946 C 0.80167 0.11373 0.32582
 C1947 C 0.80783 0.10604 0.31121
 C1948 C 0.82262 0.11255 0.30359
 C1949 C 0.83109 0.12634 0.31059
 C1950 C 0.82495 0.13395 0.32531
 C1951 C 0.79806 0.09180 0.30406
 C1952 C 0.80484 0.08013 0.29392
 C1953 C 0.79493 0.06607 0.28653
 C1954 C 0.80124 0.05827 0.27203
 C1955 C 0.79228 0.04516 0.26444
 C1956 C 0.77682 0.03943 0.27126
 C1957 C 0.77067 0.04696 0.28601
 C1958 C 0.77964 0.06009 0.29361
 H1959 H 0.80497 0.13301 0.34414
 H1960 H 0.79024 0.10908 0.33187
 H1961 H 0.82751 0.10735 0.29202
 H1962 H 0.84237 0.13110 0.30438
 H1963 H 0.78477 0.09098 0.30751
 H1964 H 0.81814 0.08098 0.29050
 H1965 H 0.81305 0.06249 0.26639
 H1966 H 0.79743 0.03959 0.25313
 H1967 H 0.75890 0.04272 0.29169
 H1968 H 0.77461 0.06529 0.30511
 C1969 C 0.69381 0.37446 0.34689
 C1970 C 0.70196 0.38793 0.33894
 C1971 C 0.69508 0.39522 0.32428
 C1972 C 0.67986 0.38862 0.31762
 C1973 C 0.67171 0.37512 0.32558
 C1974 C 0.67861 0.36784 0.34028
 C1975 C 0.70458 0.40908 0.31597
 C1976 C 0.69739 0.42023 0.30534
 C1977 C 0.70705 0.43363 0.29650
 C1978 C 0.70027 0.44033 0.28152
 C1979 C 0.70898 0.45280 0.27257
 C1980 C 0.72464 0.45898 0.27850
 C1981 C 0.73130 0.45254 0.29368
 C1982 C 0.72259 0.44003 0.30263
 H1983 H 0.69955 0.36915 0.35816
 H1984 H 0.71373 0.39267 0.34425
 H1985 H 0.67439 0.39346 0.30605
 H1986 H 0.66010 0.37026 0.32005
 H1987 H 0.71803 0.40996 0.31882
 H1988 H 0.68393 0.41936 0.30251
 H1989 H 0.68826 0.43575 0.27659
 H1990 H 0.70344 0.45754 0.26097
 H1991 H 0.74325 0.45716 0.29867
 H1992 H 0.72798 0.43566 0.31441
 C1993 C 0.69164 0.87243 0.83414
 C1994 C 0.69883 0.88643 0.82619
 C1995 C 0.69156 0.89321 0.81147
 C1996 C 0.67689 0.88555 0.80475
 C1997 C 0.66969 0.87151 0.81270
 C1998 C 0.67700 0.86475 0.82747
 C1999 C 0.70014 0.90777 0.80335
 C2000 C 0.69279 0.91804 0.79194
 C2001 C 0.70189 0.93238 0.78399
 C2002 C 0.69660 0.93811 0.76804
 C2003 C 0.70518 0.95129 0.75996
 C2004 C 0.71916 0.95910 0.76775
 C2005 C 0.72411 0.95371 0.78394
 C2006 C 0.71554 0.94058 0.79201
 H2007 H 0.69766 0.86758 0.84546
 H2008 H 0.71018 0.89199 0.83160
 H2009 H 0.67110 0.89002 0.79319
 H2010 H 0.65848 0.86584 0.80715
 H2011 H 0.71320 0.91002 0.80710
 H2012 H 0.67984 0.91580 0.78786
 H2013 H 0.68600 0.93216 0.76168
 H2014 H 0.70099 0.95521 0.74753
 H2015 H 0.73467 0.95962 0.79040
 H2016 H 0.71957 0.93706 0.80458
 C2017 C 0.19230 0.38252 0.83914
 C2018 C 0.19996 0.39664 0.83182
 C2019 C 0.19340 0.40375 0.81692
 C2020 C 0.17903 0.39634 0.80938
 C2021 C 0.17137 0.38225 0.81670
 C2022 C 0.17794 0.37513 0.83162
 C2023 C 0.20241 0.41829 0.80928
 C2024 C 0.19532 0.42884 0.79798
 C2025 C 0.20479 0.44277 0.78980
 C2026 C 0.19936 0.44855 0.77392
 C2027 C 0.20825 0.46129 0.76552
 C2028 C 0.22271 0.46861 0.77293
 C2029 C 0.22785 0.46317 0.78904
 C2030 C 0.21896 0.45044 0.79743
 H2031 H 0.19773 0.37734 0.85061
 H2032 H 0.21109 0.40200 0.83782
 H2033 H 0.17386 0.40100 0.79761
 H2034 H 0.16041 0.37681 0.81047
 H2035 H 0.21551 0.42013 0.81312
 H2036 H 0.18227 0.42704 0.79400
 H2037 H 0.18837 0.44298 0.76786
 H2038 H 0.20391 0.46527 0.75316
 H2039 H 0.23880 0.46870 0.79519
 H2040 H 0.22318 0.44682 0.80991
 C2041 C 0.16694 0.88250 0.31111
 C2042 C 0.17479 0.89640 0.30365
 C2043 C 0.18947 0.90348 0.31079
 C2044 C 0.19624 0.89623 0.32561
 C2045 C 0.18838 0.88227 0.33307
 C2046 C 0.17366 0.87521 0.32588
 C2047 C 0.19748 0.91792 0.30193
 C2048 C 0.20875 0.92848 0.30895
 C2049 C 0.21644 0.94276 0.29956
 C2050 C 0.23246 0.94882 0.30456
 C2051 C 0.24028 0.96197 0.29571
 C2052 C 0.23215 0.96941 0.28172
 C2053 C 0.21589 0.96369 0.27704
 C2054 C 0.20808 0.95060 0.28589
 H2055 H 0.15564 0.87740 0.30518
 H2056 H 0.16934 0.90165 0.29221
 H2057 H 0.20778 0.90097 0.33132
 H2058 H 0.19397 0.87691 0.34439
 H2059 H 0.19374 0.91985 0.28894
 H2060 H 0.21288 0.92656 0.32182
 H2061 H 0.23908 0.94315 0.31518
 H2062 H 0.25277 0.96616 0.29969
 H2063 H 0.20916 0.96932 0.26648
 H2064 H 0.19542 0.94684 0.28206
 C2065 C 0.37305 0.33402 0.69025
 C2066 C 0.38726 0.32685 0.69817
 C2067 C 0.39495 0.31233 0.69170
 C2068 C 0.38795 0.30498 0.67714
 C2069 C 0.37370 0.31214 0.66922
 C2070 C 0.36605 0.32673 0.67570
 C2071 C 0.40962 0.30487 0.70097
 C2072 C 0.42109 0.29457 0.69392
 C2073 C 0.43524 0.28639 0.70337
 C2074 C 0.44232 0.27159 0.69686
 C2075 C 0.45534 0.26313 0.70546
 C2076 C 0.46176 0.26937 0.72073
 C2077 C 0.45503 0.28444 0.72707
 C2078 C 0.44192 0.29290 0.71848
 H2079 H 0.36748 0.34522 0.69565
 H2080 H 0.39227 0.33269 0.70943
 H2081 H 0.39310 0.29348 0.67203
 H2082 H 0.36857 0.30611 0.65812
 H2083 H 0.41084 0.30807 0.71414
 H2084 H 0.41987 0.29143 0.68074
 H2085 H 0.43754 0.26638 0.68520
 H2086 H 0.46030 0.25160 0.70015
 H2087 H 0.45980 0.28965 0.73873
 H2088 H 0.43725 0.30457 0.72366
 C2089 C 0.37286 0.81778 0.15896
 C2090 C 0.38710 0.80955 0.16566
 C2091 C 0.39544 0.81583 0.17993
 C2092 C 0.38912 0.83055 0.18749
 C2093 C 0.37481 0.83879 0.18080
 C2094 C 0.36648 0.83246 0.16649
 C2095 C 0.41007 0.80616 0.18689
 C2096 C 0.42213 0.81284 0.19679
 C2097 C 0.43632 0.80289 0.20426
 C2098 C 0.44413 0.80885 0.21896
 C2099 C 0.45719 0.79969 0.22677
 C2100 C 0.46286 0.78439 0.21995
 C2101 C 0.45539 0.77864 0.20496
 C2102 C 0.44230 0.78780 0.19715
 H2103 H 0.36677 0.81249 0.14796
 H2104 H 0.39160 0.79818 0.15967
 H2105 H 0.39483 0.83554 0.19881
 H2106 H 0.37016 0.84999 0.18698
 H2107 H 0.41076 0.79299 0.18362
 H2108 H 0.42144 0.82600 0.20010
 H2109 H 0.43991 0.82050 0.22460
 H2110 H 0.46273 0.80455 0.23825
 H2111 H 0.45960 0.76699 0.19930
 H2112 H 0.43707 0.78306 0.18550
 C2113 C 0.87267 0.30803 0.15992
 C2114 C 0.88738 0.30068 0.16670
 C2115 C 0.89564 0.30788 0.18059
 C2116 C 0.88874 0.32258 0.18768
 C2117 C 0.87400 0.32991 0.18092
 C2118 C 0.86575 0.32270 0.16699
 C2119 C 0.91076 0.29919 0.18780
 C2120 C 0.92263 0.30694 0.19714
 C2121 C 0.93718 0.29809 0.20529
 C2122 C 0.94495 0.30558 0.21929
 C2123 C 0.95828 0.29749 0.22781
 C2124 C 0.96425 0.28174 0.22242
 C2125 C 0.95684 0.27445 0.20809
 C2126 C 0.94348 0.28254 0.19957
 H2127 H 0.86664 0.30209 0.14922
 H2128 H 0.89232 0.28929 0.16109
 H2129 H 0.89434 0.32823 0.19873
 H2130 H 0.86897 0.34113 0.18677
 H2131 H 0.91193 0.28588 0.18531
 H2132 H 0.92145 0.32028 0.19953
 H2133 H 0.94048 0.31761 0.22387
 H2134 H 0.96376 0.30351 0.23874
 H2135 H 0.96128 0.26241 0.20352
 H2136 H 0.93829 0.27659 0.18849
 C2137 C 0.86976 0.80516 0.65989
 C2138 C 0.88398 0.79748 0.66727
 C2139 C 0.89183 0.80448 0.68149
 C2140 C 0.88501 0.81935 0.68829
 C2141 C 0.87073 0.82704 0.68091
 C2142 C 0.86291 0.82001 0.66664
 C2143 C 0.90656 0.79541 0.68908
 C2144 C 0.91807 0.80251 0.69935
 C2145 C 0.93258 0.79309 0.70693
 C2146 C 0.93996 0.79908 0.72185
 C2147 C 0.95341 0.79038 0.72960
 C2148 C 0.95986 0.77552 0.72250
 C2149 C 0.95278 0.76976 0.70733
 C2150 C 0.93937 0.77847 0.69957
 H2151 H 0.86407 0.79934 0.64894
 H2152 H 0.88887 0.78599 0.66183
 H2153 H 0.89034 0.82493 0.69951
 H2154 H 0.86572 0.83840 0.68651
 H2155 H 0.90785 0.78227 0.68588
 H2156 H 0.91676 0.81561 0.70274
 H2157 H 0.93512 0.81040 0.72769
 H2158 H 0.95863 0.79520 0.74124
 H2159 H 0.95760 0.75849 0.70141
 H2160 H 0.93456 0.77376 0.68774
 C2161 C 0.62567 0.31071 0.34882
 C2162 C 0.61136 0.30324 0.34157
 C2163 C 0.60375 0.31022 0.32712
 C2164 C 0.61090 0.32482 0.31992
 C2165 C 0.62525 0.33229 0.32716
 C2166 C 0.63285 0.32529 0.34166
 C2167 C 0.58900 0.30141 0.31953
 C2168 C 0.57757 0.30896 0.30939
 C2169 C 0.56336 0.29993 0.30111
 C2170 C 0.55636 0.30685 0.28633
 C2171 C 0.54325 0.29864 0.27780
 C2172 C 0.53671 0.28334 0.28395
 C2173 C 0.54339 0.27659 0.29899
 C2174 C 0.55655 0.28481 0.30752
 H2175 H 0.63120 0.30492 0.35995
 H2176 H 0.60621 0.29193 0.34727
 H2177 H 0.60580 0.33031 0.30847
 H2178 H 0.63053 0.34343 0.32124
 H2179 H 0.58771 0.28816 0.32247
 H2180 H 0.57888 0.32221 0.30648
 H2181 H 0.56125 0.31855 0.28121
 H2182 H 0.53832 0.30424 0.26630
 H2183 H 0.53849 0.26492 0.30414
 H2184 H 0.56115 0.27935 0.31918
 C2185 C 0.62707 0.80504 0.83662
 C2186 C 0.61309 0.79695 0.82933
 C2187 C 0.60564 0.80321 0.81446
 C2188 C 0.61267 0.81767 0.80686
 C2189 C 0.62664 0.82575 0.81415
 C2190 C 0.63403 0.81953 0.82910
 C2191 C 0.59113 0.79394 0.80690
 C2192 C 0.57990 0.80101 0.79618
 C2193 C 0.56590 0.79169 0.78782
 C2194 C 0.55902 0.79839 0.77288
 C2195 C 0.54595 0.79008 0.76437
 C2196 C 0.53929 0.77492 0.77071
 C2197 C 0.54593 0.76833 0.78584
 C2198 C 0.55908 0.77663 0.79434
 H2199 H 0.63247 0.79985 0.84810
 H2200 H 0.60804 0.78576 0.83535
 H2201 H 0.60778 0.82260 0.79508
 H2202 H 0.63176 0.83678 0.80790
 H2203 H 0.58984 0.78081 0.81034
 H2204 H 0.58116 0.81417 0.79288
 H2205 H 0.56392 0.81003 0.76764
 H2206 H 0.54107 0.79557 0.75279
 H2207 H 0.54097 0.75674 0.79113
 H2208 H 0.56362 0.77129 0.80609
 C2209 C 0.12815 0.33844 0.81400
 C2210 C 0.11433 0.33149 0.80546
 C2211 C 0.10588 0.31736 0.81193
 C2212 C 0.11174 0.31012 0.82714
 C2213 C 0.12568 0.31705 0.83569
 C2214 C 0.13405 0.33130 0.82920
 C2215 C 0.09155 0.31031 0.80202
 C2216 C 0.07919 0.30072 0.80861
 C2217 C 0.06508 0.29355 0.79846
 C2218 C 0.05689 0.27906 0.80447
 C2219 C 0.04378 0.27163 0.79522
 C2220 C 0.03843 0.27863 0.77976
 C2221 C 0.04631 0.29341 0.77392
 C2222 C 0.05946 0.30083 0.78318
 H2223 H 0.13429 0.34937 0.80854
 H2224 H 0.11018 0.33724 0.79372
 H2225 H 0.10591 0.29891 0.83231
 H2226 H 0.12996 0.31117 0.84730
 H2227 H 0.09124 0.31340 0.78873
 H2228 H 0.07951 0.29754 0.82188
 H2229 H 0.06082 0.27330 0.81626
 H2230 H 0.03792 0.26031 0.80015
 H2231 H 0.04235 0.29920 0.76215
 H2232 H 0.06499 0.31235 0.77839
 C2233 C 0.12238 0.83889 0.30947
 C2234 C 0.10846 0.83156 0.30136
 C2235 C 0.10069 0.81711 0.30803
 C2236 C 0.10728 0.81000 0.32298
 C2237 C 0.12123 0.81731 0.33109
 C2238 C 0.12898 0.83183 0.32441
 C2239 C 0.08634 0.80952 0.29858
 C2240 C 0.07474 0.79923 0.30554
 C2241 C 0.06071 0.79134 0.29586
 C2242 C 0.05333 0.77652 0.30217
 C2243 C 0.04031 0.76846 0.29332
 C2244 C 0.03429 0.77513 0.27797
 C2245 C 0.04138 0.79018 0.27184
 C2246 C 0.05439 0.79825 0.28070
 H2247 H 0.12804 0.85003 0.30393
 H2248 H 0.10374 0.83722 0.28980
 H2249 H 0.10205 0.79856 0.32828
 H2250 H 0.12606 0.81146 0.34250
 H2251 H 0.08544 0.81267 0.28534
 H2252 H 0.07566 0.79603 0.31877
 H2253 H 0.05783 0.77103 0.31390
 H2254 H 0.03506 0.75693 0.29844
 H2255 H 0.03688 0.79576 0.26016
 H2256 H 0.05923 0.80997 0.27569
 C2257 C 0.62359 0.68604 0.66060
 C2258 C 0.61015 0.69501 0.66772
 C2259 C 0.60234 0.68930 0.68254
 C2260 C 0.60841 0.67442 0.69024
 C2261 C 0.62191 0.66545 0.68313
 C2262 C 0.62968 0.67118 0.66824
 C2263 C 0.58849 0.69962 0.68983
 C2264 C 0.57664 0.69352 0.70034
 C2265 C 0.56307 0.70406 0.70787
 C2266 C 0.55554 0.69862 0.72294
 C2267 C 0.54292 0.70826 0.73066
 C2268 C 0.53745 0.72352 0.72339
 C2269 C 0.54470 0.72880 0.70809
 C2270 C 0.55732 0.71915 0.70036
 H2271 H 0.62930 0.69088 0.64916
 H2272 H 0.60583 0.70649 0.66161
 H2273 H 0.60311 0.66986 0.70196
 H2274 H 0.62637 0.65413 0.68942
 H2275 H 0.58816 0.71276 0.68620
 H2276 H 0.57699 0.68039 0.70401
 H2277 H 0.55960 0.68697 0.72889
 H2278 H 0.53754 0.70378 0.74240
 H2279 H 0.54061 0.74040 0.70207
 H2280 H 0.56230 0.72350 0.68844
 C2281 C 0.62083 0.19572 0.17061
 C2282 C 0.60790 0.20492 0.17832
 C2283 C 0.60041 0.19914 0.19326
 C2284 C 0.60634 0.18400 0.20054
 C2285 C 0.61936 0.17480 0.19284
 C2286 C 0.62674 0.18055 0.17777
 C2287 C 0.58695 0.20960 0.20106
 C2288 C 0.57507 0.20345 0.21151
 C2289 C 0.56170 0.21394 0.21943
 C2290 C 0.55397 0.20794 0.23418
 C2291 C 0.54137 0.21734 0.24219
 C2292 C 0.53608 0.23295 0.23555
 C2293 C 0.54359 0.23888 0.22062
 C2294 C 0.55623 0.22946 0.21260
 H2295 H 0.62625 0.20062 0.15906
 H2296 H 0.60368 0.21660 0.17253
 H2297 H 0.60129 0.17937 0.21234
 H2298 H 0.62370 0.16324 0.19877
 H2299 H 0.58684 0.22283 0.19778
 H2300 H 0.57520 0.19020 0.21475
 H2301 H 0.55781 0.19598 0.23963
 H2302 H 0.53580 0.21234 0.25363
 H2303 H 0.53966 0.25077 0.21510
 H2304 H 0.56141 0.23431 0.20094
 C2305 C 0.12223 0.69339 0.16677
 C2306 C 0.10857 0.70132 0.17460
 C2307 C 0.10100 0.69422 0.18894
 C2308 C 0.10754 0.67897 0.19543
 C2309 C 0.12132 0.67103 0.18759
 C2310 C 0.12883 0.67817 0.17318
 C2311 C 0.08682 0.70354 0.19689
 C2312 C 0.07528 0.69656 0.20720
 C2313 C 0.06113 0.70632 0.21472
 C2314 C 0.05404 0.70078 0.22997
 C2315 C 0.04093 0.70987 0.23760
 C2316 C 0.03454 0.72464 0.23004
 C2317 C 0.04131 0.72994 0.21454
 C2318 C 0.05438 0.72085 0.20691
 H2319 H 0.12770 0.69931 0.15573
 H2320 H 0.10386 0.71309 0.16940
 H2321 H 0.10239 0.67330 0.20672
 H2322 H 0.12616 0.65938 0.19292
 H2323 H 0.08585 0.71679 0.19383
 H2324 H 0.07625 0.68339 0.21059
 H2325 H 0.05886 0.68953 0.23614
 H2326 H 0.03591 0.70540 0.24950
 H2327 H 0.03650 0.74113 0.20826
 H2328 H 0.05896 0.72516 0.19481
 C2329 C 0.12417 0.16655 0.69378
 C2330 C 0.11084 0.17434 0.70233
 C2331 C 0.10336 0.18911 0.69598
 C2332 C 0.10969 0.19610 0.68089
 C2333 C 0.12308 0.18831 0.67233
 C2334 C 0.13049 0.17344 0.67869
 C2335 C 0.08954 0.19707 0.70584
 C2336 C 0.07797 0.20765 0.69920
 C2337 C 0.06438 0.21581 0.70920
 C2338 C 0.05727 0.23087 0.70311
 C2339 C 0.04454 0.23913 0.71211
 C2340 C 0.03848 0.23242 0.72738
 C2341 C 0.04535 0.21716 0.73336
 C2342 C 0.05814 0.20890 0.72436
 H2343 H 0.12958 0.15515 0.69912
 H2344 H 0.10633 0.16876 0.71397
 H2345 H 0.10467 0.20776 0.67582
 H2346 H 0.12773 0.19403 0.66083
 H2347 H 0.08894 0.19386 0.71908
 H2348 H 0.07857 0.21090 0.68596
 H2349 H 0.06172 0.23639 0.69142
 H2350 H 0.03946 0.25082 0.70708
 H2351 H 0.04082 0.21159 0.74499
 H2352 H 0.06284 0.19702 0.72921
 C2353 C 0.37353 0.69881 0.33007
 C2354 C 0.38722 0.70738 0.32284
 C2355 C 0.39509 0.70128 0.30828
 C2356 C 0.38878 0.68645 0.30091
 C2357 C 0.37504 0.67788 0.30814
 C2358 C 0.36725 0.68396 0.32281
 C2359 C 0.40932 0.71110 0.30089
 C2360 C 0.42113 0.70446 0.29072
 C2361 C 0.43507 0.71436 0.28291
 C2362 C 0.44266 0.70813 0.26826
 C2363 C 0.45572 0.71700 0.26029
 C2364 C 0.46164 0.73229 0.26690
 C2365 C 0.45431 0.73841 0.28177
 C2366 C 0.44118 0.72953 0.28974
 H2367 H 0.36782 0.70392 0.34133
 H2368 H 0.39171 0.71883 0.32869
 H2369 H 0.39408 0.68160 0.28937
 H2370 H 0.37044 0.66657 0.30212
 H2371 H 0.40998 0.72428 0.30414
 H2372 H 0.42047 0.69127 0.28752
 H2373 H 0.43833 0.69642 0.26281
 H2374 H 0.46114 0.71186 0.24891
 H2375 H 0.45870 0.75006 0.28726
 H2376 H 0.43609 0.73451 0.30132
 C2377 C 0.37016 0.16492 0.80923
 C2378 C 0.38386 0.17189 0.80051
 C2379 C 0.39256 0.18587 0.80685
 C2380 C 0.38707 0.19292 0.82215
 C2381 C 0.37324 0.18597 0.83089
 C2382 C 0.36461 0.17187 0.82452
 C2383 C 0.40678 0.19288 0.79669
 C2384 C 0.41924 0.20259 0.80290
 C2385 C 0.43339 0.20936 0.79248
 C2386 C 0.44195 0.22380 0.79799
 C2387 C 0.45523 0.23072 0.78855
 C2388 C 0.46041 0.22326 0.77338
 C2389 C 0.45211 0.20858 0.76801
 C2390 C 0.43880 0.20166 0.77747
 H2391 H 0.36384 0.15411 0.80385
 H2392 H 0.38771 0.16625 0.78873
 H2393 H 0.39312 0.20399 0.82726
 H2394 H 0.36924 0.19170 0.84256
 H2395 H 0.40695 0.18958 0.78350
 H2396 H 0.41905 0.20607 0.81605
 H2397 H 0.43820 0.22989 0.80957
 H2398 H 0.46139 0.24199 0.79311
 H2399 H 0.45590 0.20243 0.75649
 H2400 H 0.43301 0.19017 0.77305
 C2401 C 0.87278 0.66393 0.80731
 C2402 C 0.88639 0.67115 0.79860
 C2403 C 0.89465 0.68547 0.80483
 C2404 C 0.88882 0.69257 0.81997
 C2405 C 0.87517 0.68536 0.82868
 C2406 C 0.86696 0.67096 0.82245
 C2407 C 0.90872 0.69289 0.79480
 C2408 C 0.92072 0.70305 0.80120
 C2409 C 0.93453 0.71073 0.79099
 C2410 C 0.94246 0.72534 0.79697
 C2411 C 0.95537 0.73316 0.78773
 C2412 C 0.96077 0.72644 0.77231
 C2413 C 0.95311 0.71161 0.76647
 C2414 C 0.94018 0.70379 0.77571
 H2415 H 0.86675 0.65288 0.80208
 H2416 H 0.89051 0.66549 0.78692
 H2417 H 0.89443 0.70390 0.82497
 H2418 H 0.87094 0.69119 0.84022
 H2419 H 0.90909 0.68967 0.78159
 H2420 H 0.92035 0.70631 0.81439
 H2421 H 0.93849 0.73087 0.80876
 H2422 H 0.96105 0.74453 0.79264
 H2423 H 0.95710 0.70601 0.75472
 H2424 H 0.93488 0.69222 0.77091
 C2425 C 0.87611 0.17071 0.30782
 C2426 C 0.88972 0.17835 0.29944
 C2427 C 0.89748 0.19284 0.30593
 C2428 C 0.89116 0.19965 0.32101
 C2429 C 0.87754 0.19201 0.32939
 C2430 C 0.86982 0.17746 0.32289
 C2431 C 0.91161 0.20065 0.29624
 C2432 C 0.92281 0.21166 0.30269
 C2433 C 0.93675 0.21946 0.29275
 C2434 C 0.94364 0.23480 0.29818
 C2435 C 0.95674 0.24263 0.28917
 C2436 C 0.96335 0.23520 0.27457
 C2437 C 0.95668 0.21969 0.26930
 C2438 C 0.94359 0.21187 0.27830
 H2439 H 0.87047 0.15956 0.30240
 H2440 H 0.89422 0.17288 0.28781
 H2441 H 0.89634 0.21107 0.32625
 H2442 H 0.87294 0.19764 0.34090
 H2443 H 0.91273 0.19701 0.28320
 H2444 H 0.92171 0.21548 0.31568
 H2445 H 0.93874 0.24084 0.30936
 H2446 H 0.96163 0.25453 0.29363
 H2447 H 0.96162 0.21353 0.25821
 H2448 H 0.93913 0.19977 0.27399
 C2449 C 0.30549 0.33178 0.62550
 C2450 C 0.29749 0.32409 0.61185
 C2451 C 0.30474 0.30995 0.60419
 C2452 C 0.32018 0.30349 0.61065
 C2453 C 0.32818 0.31116 0.62439
 C2454 C 0.32093 0.32540 0.63199
 C2455 C 0.29540 0.30207 0.59001
 C2456 C 0.30276 0.29228 0.57839
 C2457 C 0.29325 0.28433 0.56433
 C2458 C 0.30033 0.27013 0.55661
 C2459 C 0.29178 0.26208 0.54347
 C2460 C 0.27597 0.26814 0.53764
 C2461 C 0.26903 0.28258 0.54511
 C2462 C 0.27758 0.29064 0.55826
 H2463 H 0.29946 0.34268 0.63104
 H2464 H 0.28556 0.32926 0.60723
 H2465 H 0.32596 0.29231 0.60546
 H2466 H 0.33999 0.30584 0.62914
 H2467 H 0.28190 0.30469 0.58918
 H2468 H 0.31626 0.28962 0.57924
 H2469 H 0.31244 0.26509 0.56090
 H2470 H 0.29754 0.25103 0.53795
 H2471 H 0.25696 0.28768 0.54079
 H2472 H 0.27194 0.30190 0.56339
 C2473 C 0.30513 0.84117 0.11810
 C2474 C 0.29685 0.83389 0.10437
 C2475 C 0.30356 0.81951 0.09664
 C2476 C 0.31871 0.81242 0.10306
 C2477 C 0.32700 0.81969 0.11679
 C2478 C 0.32029 0.83412 0.12451
 C2479 C 0.29395 0.81192 0.08252
 C2480 C 0.30099 0.80170 0.07107
 C2481 C 0.29114 0.79362 0.05739
 C2482 C 0.29751 0.77876 0.05029
 C2483 C 0.28847 0.77051 0.03762
 C2484 C 0.27291 0.77705 0.03166
 C2485 C 0.26674 0.79215 0.03846
 C2486 C 0.27577 0.80040 0.05113
 H2487 H 0.29956 0.85224 0.12376
 H2488 H 0.28512 0.83951 0.09978
 H2489 H 0.32404 0.80103 0.09787
 H2490 H 0.33856 0.81384 0.12148
 H2491 H 0.28053 0.81493 0.08170
 H2492 H 0.31440 0.79865 0.07189
 H2493 H 0.30940 0.77338 0.05476
 H2494 H 0.29363 0.75895 0.03257
 H2495 H 0.25490 0.79763 0.03400
 H2496 H 0.27073 0.81215 0.05577
 C2497 C 0.80288 0.32839 0.11998
 C2498 C 0.79442 0.32088 0.10652
 C2499 C 0.80142 0.30685 0.09845
 C2500 C 0.81707 0.30032 0.10428
 C2501 C 0.82554 0.30782 0.11781
 C2502 C 0.81852 0.32194 0.12583
 C2503 C 0.79163 0.29912 0.08452
 C2504 C 0.79859 0.28938 0.07265
 C2505 C 0.78855 0.28155 0.05895
 C2506 C 0.79491 0.26697 0.05133
 C2507 C 0.78573 0.25903 0.03856
 C2508 C 0.77003 0.26560 0.03303
 C2509 C 0.76383 0.28042 0.04038
 C2510 C 0.77301 0.28837 0.05314
 H2511 H 0.79705 0.33921 0.12588
 H2512 H 0.78233 0.32609 0.10236
 H2513 H 0.82266 0.28920 0.09878
 H2514 H 0.83750 0.30244 0.12207
 H2515 H 0.77810 0.30176 0.08413
 H2516 H 0.81209 0.28662 0.07304
 H2517 H 0.80692 0.26157 0.05544
 H2518 H 0.79092 0.24767 0.03309
 H2519 H 0.75187 0.28592 0.03625
 H2520 H 0.76796 0.29994 0.05820
 C2521 C 0.80294 0.82655 0.61611
 C2522 C 0.79522 0.81891 0.60225
 C2523 C 0.80242 0.80453 0.59494
 C2524 C 0.81747 0.79780 0.60197
 C2525 C 0.82518 0.80542 0.61586
 C2526 C 0.81800 0.81988 0.62312
 C2527 C 0.79344 0.79661 0.58056
 C2528 C 0.80105 0.78639 0.56946
 C2529 C 0.79194 0.77807 0.55538
 C2530 C 0.79919 0.76360 0.54829
 C2531 C 0.79101 0.75518 0.53516
 C2532 C 0.77541 0.76113 0.52871
 C2533 C 0.76831 0.77582 0.53555
 C2534 C 0.77649 0.78424 0.54868
 H2535 H 0.79700 0.83763 0.62140
 H2536 H 0.78356 0.82428 0.59719
 H2537 H 0.82316 0.78643 0.59713
 H2538 H 0.83669 0.79985 0.62100
 H2539 H 0.78002 0.79945 0.57921
 H2540 H 0.81447 0.78358 0.57082
 H2541 H 0.81115 0.75865 0.55308
 H2542 H 0.79687 0.74395 0.53013
 H2543 H 0.75639 0.78084 0.53074
 H2544 H 0.77073 0.79567 0.55332
 C2545 C 0.30938 0.67277 0.37440
 C2546 C 0.30178 0.67971 0.38867
 C2547 C 0.30833 0.69440 0.39596
 C2548 C 0.32257 0.70215 0.38852
 C2549 C 0.33016 0.69523 0.37427
 C2550 C 0.32365 0.68047 0.36701
 C2551 C 0.29949 0.70163 0.41075
 C2552 C 0.30693 0.71219 0.42165
 C2553 C 0.29786 0.72009 0.43594
 C2554 C 0.30435 0.73509 0.44261
 C2555 C 0.29604 0.74321 0.45581
 C2556 C 0.28110 0.73641 0.46274
 C2557 C 0.27483 0.72116 0.45636
 C2558 C 0.28313 0.71305 0.44315
 H2559 H 0.30399 0.66143 0.36912
 H2560 H 0.29073 0.67357 0.39405
 H2561 H 0.32768 0.71380 0.39331
 H2562 H 0.34103 0.70160 0.36884
 H2563 H 0.28632 0.69806 0.41250
 H2564 H 0.32011 0.71571 0.41991
 H2565 H 0.31577 0.74070 0.43741
 H2566 H 0.30126 0.75489 0.46049
 H2567 H 0.26344 0.71548 0.46154
 H2568 H 0.27803 0.70120 0.43884
 C2569 C 0.30654 0.16565 0.87717
 C2570 C 0.29890 0.17286 0.89122
 C2571 C 0.30614 0.18688 0.89908
 C2572 C 0.32128 0.19369 0.89241
 C2573 C 0.32893 0.18649 0.87821
 C2574 C 0.32163 0.17238 0.87042
 C2575 C 0.29703 0.19413 0.91372
 C2576 C 0.30416 0.20423 0.92524
 C2577 C 0.29459 0.21111 0.93980
 C2578 C 0.30028 0.22604 0.94727
 C2579 C 0.29144 0.23312 0.96076
 C2580 C 0.27674 0.22534 0.96721
 C2581 C 0.27129 0.21014 0.96005
 C2582 C 0.28014 0.20306 0.94657
 H2583 H 0.30045 0.15484 0.87154
 H2584 H 0.28722 0.16739 0.89600
 H2585 H 0.32708 0.20474 0.89780
 H2586 H 0.34049 0.19205 0.87329
 H2587 H 0.28376 0.19071 0.91503
 H2588 H 0.31733 0.20796 0.92393
 H2589 H 0.31147 0.23241 0.94247
 H2590 H 0.29604 0.24481 0.96602
 H2591 H 0.26014 0.20372 0.96484
 H2592 H 0.27568 0.19119 0.94167
 C2593 C 0.83353 0.68661 0.87566
 C2594 C 0.82710 0.69447 0.88999
 C2595 C 0.81303 0.68778 0.89859
 C2596 C 0.80540 0.67302 0.89239
 C2597 C 0.81183 0.66516 0.87801
 C2598 C 0.82595 0.67188 0.86944
 C2599 C 0.80641 0.69704 0.91341
 C2600 C 0.79633 0.69023 0.92527
 C2601 C 0.78954 0.69983 0.93980
 C2602 C 0.77475 0.69401 0.94782
 C2603 C 0.76769 0.70284 0.96130
 C2604 C 0.77536 0.71767 0.96717
 C2605 C 0.79043 0.72326 0.95945
 C2606 C 0.79750 0.71443 0.94598
 H2607 H 0.84439 0.69220 0.86940
 H2608 H 0.83316 0.70587 0.89439
 H2609 H 0.79425 0.66767 0.89828
 H2610 H 0.80559 0.65390 0.87351
 H2611 H 0.81014 0.71009 0.91443
 H2612 H 0.79246 0.67723 0.92426
 H2613 H 0.76846 0.68272 0.94347
 H2614 H 0.75611 0.69814 0.96700
 H2615 H 0.79678 0.73453 0.96377
 H2616 H 0.80926 0.71903 0.94064
 C2617 C 0.81425 0.16949 0.37758
 C2618 C 0.80765 0.17643 0.39227
 C2619 C 0.81548 0.19032 0.39985
 C2620 C 0.83008 0.19727 0.39227
 C2621 C 0.83668 0.19034 0.37749
 C2622 C 0.82883 0.17638 0.36996
 C2623 C 0.80754 0.19740 0.41519
 C2624 C 0.81567 0.20723 0.42628
 C2625 C 0.80729 0.21419 0.44145
 C2626 C 0.81369 0.22903 0.44853
 C2627 C 0.80586 0.23622 0.46255
 C2628 C 0.79150 0.22861 0.46988
 C2629 C 0.78541 0.21347 0.46311
 C2630 C 0.79324 0.20629 0.44913
 H2631 H 0.80781 0.15878 0.37214
 H2632 H 0.79634 0.17089 0.39777
 H2633 H 0.83625 0.20826 0.39739
 H2634 H 0.84786 0.19603 0.37190
 H2635 H 0.79434 0.19416 0.41735
 H2636 H 0.82880 0.21073 0.42414
 H2637 H 0.82461 0.23526 0.44300
 H2638 H 0.81092 0.24785 0.46752
 H2639 H 0.77452 0.20716 0.46860
 H2640 H 0.78833 0.19447 0.44453
 C2641 C 0.67123 0.30938 0.39157
 C2642 C 0.67921 0.30130 0.40513
 C2643 C 0.69429 0.30774 0.41204
 C2644 C 0.70135 0.32245 0.40501
 C2645 C 0.69339 0.33053 0.39142
 C2646 C 0.67828 0.32404 0.38448
 C2647 C 0.70265 0.29824 0.42590
 C2648 C 0.71370 0.30509 0.43679
 C2649 C 0.72262 0.29527 0.45008
 C2650 C 0.73817 0.30132 0.45633
 C2651 C 0.74729 0.29221 0.46848
 C2652 C 0.74096 0.27687 0.47474
 C2653 C 0.72516 0.27103 0.46884
 C2654 C 0.71604 0.28015 0.45671
 H2655 H 0.65964 0.30399 0.38652
 H2656 H 0.67358 0.28991 0.41022
 H2657 H 0.71324 0.32755 0.40959
 H2658 H 0.69924 0.34173 0.38619
 H2659 H 0.69952 0.28503 0.42697
 H2660 H 0.71688 0.31830 0.43571
 H2661 H 0.74343 0.31301 0.45157
 H2662 H 0.75938 0.29711 0.47284
 H2663 H 0.71983 0.25938 0.47358
 H2664 H 0.70379 0.27536 0.45275
 C2665 C 0.69416 0.82922 0.87887
 C2666 C 0.70244 0.82229 0.89288
 C2667 C 0.69585 0.80804 0.90109
 C2668 C 0.68079 0.80073 0.89483
 C2669 C 0.67252 0.80765 0.88076
 C2670 C 0.67912 0.82196 0.87258
 C2671 C 0.70553 0.80086 0.91553
 C2672 C 0.69862 0.79093 0.92742
 C2673 C 0.70854 0.78340 0.94154
 C2674 C 0.70220 0.76890 0.94949
 C2675 C 0.71129 0.76111 0.96257
 C2676 C 0.72691 0.76775 0.96809
 C2677 C 0.73306 0.78253 0.96045
 C2678 C 0.72396 0.79033 0.94738
 H2679 H 0.69967 0.84021 0.87288
 H2680 H 0.71408 0.82809 0.89734
 H2681 H 0.67555 0.78945 0.90044
 H2682 H 0.66103 0.80166 0.87619
 H2683 H 0.71890 0.80401 0.91625
 H2684 H 0.68525 0.78774 0.92669
 H2685 H 0.69028 0.76340 0.94538
 H2686 H 0.70614 0.74978 0.96823
 H2687 H 0.74495 0.78808 0.96454
 H2688 H 0.72901 0.80184 0.94209
 C2689 C 0.19248 0.33694 0.88178
 C2690 C 0.20034 0.32917 0.89558
 C2691 C 0.19361 0.31440 0.90264
 C2692 C 0.17878 0.30747 0.89546
 C2693 C 0.17091 0.31524 0.88158
 C2694 C 0.17771 0.33005 0.87453
 C2695 C 0.20294 0.30643 0.91693
 C2696 C 0.19603 0.29533 0.92773
 C2697 C 0.20572 0.28731 0.94176
 C2698 C 0.19998 0.27187 0.94825
 C2699 C 0.20887 0.26370 0.96123
 C2700 C 0.22366 0.27088 0.96815
 C2701 C 0.22919 0.28654 0.96197
 C2702 C 0.22030 0.29471 0.94898
 H2703 H 0.19814 0.34830 0.87671
 H2704 H 0.21179 0.33474 0.90077
 H2705 H 0.17340 0.29585 0.90018
 H2706 H 0.15962 0.30953 0.87625
 H2707 H 0.21613 0.31003 0.91850
 H2708 H 0.18290 0.29155 0.92615
 H2709 H 0.18871 0.26597 0.94307
 H2710 H 0.20420 0.25169 0.96575
 H2711 H 0.24042 0.29250 0.96715
 H2712 H 0.22482 0.30689 0.94483
 C2713 C 0.16524 0.81578 0.37609
 C2714 C 0.17259 0.80778 0.39006
 C2715 C 0.18715 0.81445 0.39781
 C2716 C 0.19435 0.82928 0.39115
 C2717 C 0.18701 0.83727 0.37717
 C2718 C 0.17239 0.83059 0.36943
 C2719 C 0.19485 0.80515 0.41220
 C2720 C 0.20506 0.81230 0.42369
 C2721 C 0.21348 0.80283 0.43757
 C2722 C 0.22829 0.80957 0.44477
 C2723 C 0.23694 0.80096 0.45760
 C2724 C 0.23086 0.78544 0.46364
 C2725 C 0.21579 0.77886 0.45675
 C2726 C 0.20715 0.78747 0.44388
 H2727 H 0.15402 0.81023 0.37044
 H2728 H 0.16688 0.79631 0.39483
 H2729 H 0.20589 0.83456 0.39636
 H2730 H 0.19294 0.84858 0.37229
 H2731 H 0.19194 0.79188 0.41318
 H2732 H 0.20793 0.82558 0.42271
 H2733 H 0.23336 0.82144 0.44027
 H2734 H 0.24846 0.80644 0.46270
 H2735 H 0.21068 0.76701 0.46125
 H2736 H 0.19545 0.78211 0.43911
 C2737 C 0.66636 0.68141 0.61670
 C2738 C 0.67383 0.68843 0.60241
 C2739 C 0.68805 0.68087 0.59494
 C2740 C 0.69472 0.66600 0.60219
 C2741 C 0.68724 0.65896 0.61661
 C2742 C 0.67300 0.66664 0.62407
 C2743 C 0.69569 0.68943 0.58014
 C2744 C 0.70629 0.68214 0.56914
 C2745 C 0.71359 0.69139 0.55456
 C2746 C 0.72932 0.68620 0.54802
 C2747 C 0.73689 0.69506 0.53474
 C2748 C 0.72881 0.70925 0.52763
 C2749 C 0.71278 0.71407 0.53378
 C2750 C 0.70520 0.70521 0.54701
 H2751 H 0.65543 0.68773 0.62206
 H2752 H 0.66845 0.69990 0.59716
 H2753 H 0.70590 0.65996 0.59709
 H2754 H 0.69272 0.64763 0.62202
 H2755 H 0.69223 0.70251 0.57830
 H2756 H 0.71019 0.66919 0.57097
 H2757 H 0.73594 0.67548 0.55345
 H2758 H 0.74921 0.69095 0.53022
 H2759 H 0.70609 0.72479 0.52842
 H2760 H 0.69272 0.70918 0.55116
 C2761 C 0.66030 0.18970 0.12374
 C2762 C 0.66722 0.19638 0.10901
 C2763 C 0.68108 0.18856 0.10116
 C2764 C 0.68795 0.17380 0.10842
 C2765 C 0.68102 0.16711 0.12323
 C2766 C 0.66717 0.17505 0.13110
 C2767 C 0.68831 0.19675 0.08598
 C2768 C 0.69849 0.18909 0.07486
 C2769 C 0.70570 0.19804 0.06010
 C2770 C 0.72134 0.19265 0.05351
 C2771 C 0.72892 0.20137 0.04015
 C2772 C 0.72092 0.21560 0.03306
 C2773 C 0.70494 0.22057 0.03923
 C2774 C 0.69736 0.21184 0.05251
 H2775 H 0.64965 0.19618 0.12944
 H2776 H 0.66173 0.20779 0.10375
 H2777 H 0.69890 0.16759 0.10306
 H2778 H 0.68668 0.15585 0.12862
 H2779 H 0.68501 0.20985 0.08404
 H2780 H 0.70221 0.17610 0.07676
 H2781 H 0.72791 0.18192 0.05899
 H2782 H 0.74120 0.19717 0.03560
 H2783 H 0.69830 0.23130 0.03384
 H2784 H 0.68494 0.21593 0.05671
 C2785 C 0.16428 0.69368 0.12193
 C2786 C 0.17125 0.70183 0.10797
 C2787 C 0.18539 0.69505 0.09966
 C2788 C 0.19257 0.67991 0.10574
 C2789 C 0.18560 0.67176 0.11980
 C2790 C 0.17140 0.67858 0.12808
 C2791 C 0.19255 0.70460 0.08524
 C2792 C 0.20233 0.69778 0.07326
 C2793 C 0.20954 0.70770 0.05911
 C2794 C 0.22444 0.70191 0.05135
 C2795 C 0.23190 0.71108 0.03825
 C2796 C 0.22450 0.72621 0.03252
 C2797 C 0.20932 0.73179 0.03997
 C2798 C 0.20186 0.72261 0.05307
 H2799 H 0.15337 0.69936 0.12799
 H2800 H 0.16555 0.71351 0.10362
 H2801 H 0.20377 0.67450 0.10002
 H2802 H 0.19147 0.66021 0.12427
 H2803 H 0.18943 0.71785 0.08457
 H2804 H 0.20564 0.68457 0.07393
 H2805 H 0.23050 0.69038 0.05562
 H2806 H 0.24355 0.70638 0.03271
 H2807 H 0.20319 0.74328 0.03570
 H2808 H 0.19000 0.72717 0.05824
 C2809 C 0.16578 0.18721 0.62578
 C2810 C 0.17308 0.19474 0.61160
 C2811 C 0.18731 0.18753 0.60376
 C2812 C 0.19417 0.17254 0.61053
 C2813 C 0.18687 0.16500 0.62475
 C2814 C 0.17262 0.17227 0.63258
 C2815 C 0.19481 0.19648 0.58907
 C2816 C 0.20574 0.18956 0.57811
 C2817 C 0.21317 0.19905 0.56373
 C2818 C 0.22888 0.19384 0.55712
 C2819 C 0.23651 0.20275 0.54389
 C2820 C 0.22848 0.21702 0.53689
 C2821 C 0.21251 0.22191 0.54316
 C2822 C 0.20489 0.21301 0.55634
 H2823 H 0.15484 0.19321 0.63147
 H2824 H 0.16756 0.20631 0.60674
 H2825 H 0.20538 0.16673 0.60522
 H2826 H 0.19254 0.15356 0.62970
 H2827 H 0.19106 0.20949 0.58738
 H2828 H 0.20985 0.17667 0.57979
 H2829 H 0.23543 0.18302 0.56243
 H2830 H 0.24878 0.19860 0.53930
 H2831 H 0.20586 0.23270 0.53790
 H2832 H 0.19246 0.21704 0.56054
   
