data_POSCAR
  _audit_creation_date              2014-09-24
  _audit_creation_method            'ToBaCCo'
  _symmetry_space_group_name_H-M    'P1'
  _symmetry_Int_Tables_number       1
  _symmetry_cell_setting            triclinic
  loop_
  _symmetry_equiv_pos_as_xyz
 x,y,z
_cell_length_a 67.0103
_cell_length_b 66.7584
_cell_length_c 67.9561
_cell_angle_alpha 89.984300
_cell_angle_beta 90.048100
_cell_angle_gamma 90.081900
loop_
  _atom_site_label
  _atom_site_type_symbol
  _atom_site_fract_x
  _atom_site_fract_y
  _atom_site_fract_z
O1 O 0.33916 0.31130 -0.00941
 O2 O 0.31206 0.34167 0.02680
 O3 O 0.33851 0.31331 0.02861
 O4 O 0.31300 0.34007 -0.01137
 O5 O 0.28871 0.31780 -0.01089
 O6 O 0.31450 0.29068 0.02910
 O7 O 0.28785 0.31927 0.02736
 O8 O 0.31506 0.28876 -0.00899
 Cu9 Cu 0.32807 0.32884 0.00858
 Cu10 Cu 0.29907 0.30190 0.00917
 C11 C 0.33196 0.29469 -0.01516
 C12 C 0.29526 0.33575 0.03322
 C13 C 0.33107 0.29730 0.03555
 C14 C 0.29636 0.33375 -0.01787
 O15 O 0.66495 0.68973 -0.02584
 O16 O 0.69096 0.66156 0.01272
 O17 O 0.66382 0.68941 0.01242
 O18 O 0.69222 0.66205 -0.02525
 O19 O 0.71590 0.68497 -0.02408
 O20 O 0.68723 0.71264 0.01341
 O21 O 0.71460 0.68458 0.01382
 O22 O 0.68835 0.71298 -0.02501
 Cu23 Cu 0.67560 0.67344 -0.00658
 Cu24 Cu 0.70381 0.70120 -0.00538
 C25 C 0.67208 0.70620 -0.03200
 C26 C 0.70741 0.66795 0.01959
 C27 C 0.67058 0.70575 0.01932
 C28 C 0.70917 0.66851 -0.03080
 O29 O 0.68953 0.33430 0.97826
 O30 O 0.66234 0.30592 1.01605
 O31 O 0.68952 0.33375 1.01651
 O32 O 0.66187 0.30700 0.97796
 O33 O 0.68501 0.28354 0.97729
 O34 O 0.71293 0.31062 1.01598
 O35 O 0.68552 0.28249 1.01539
 O36 O 0.71285 0.31102 0.97768
 Cu37 Cu 0.67352 0.32259 0.99727
 Cu38 Cu 0.70145 0.29460 0.99655
 C39 C 0.70590 0.32758 0.97156
 C40 C 0.66911 0.28921 1.02198
 C41 C 0.70604 0.32697 1.02280
 C42 C 0.66852 0.29061 0.97115
 O43 O 0.33295 0.69600 1.01813
 O44 O 0.30560 0.66827 0.98025
 O45 O 0.33398 0.69498 0.98021
 O46 O 0.30466 0.66934 1.01832
 O47 O 0.28189 0.69307 1.01690
 O48 O 0.31168 0.71921 0.97893
 O49 O 0.28294 0.69216 0.97880
 O50 O 0.31062 0.72022 1.01703
 Cu51 Cu 0.32150 0.67975 0.99934
 Cu52 Cu 0.29450 0.70859 0.99780
 C53 C 0.32678 0.71301 1.02380
 C54 C 0.28944 0.67520 0.97327
 C55 C 0.32815 0.71168 0.97335
 C56 C 0.28806 0.67652 1.02393
 O57 O 0.02182 0.30922 0.33479
 O58 O -0.01567 0.33795 0.30736
 O59 O -0.01678 0.31148 0.33535
 O60 O 0.02286 0.33648 0.30720
 O61 O 0.02128 0.31288 0.28453
 O62 O -0.01810 0.28732 0.31329
 O63 O -0.01726 0.31407 0.28498
 O64 O 0.02063 0.28531 0.31244
 Cu65 Cu 0.00325 0.32613 0.32341
 Cu66 Cu 0.00155 0.29745 0.29659
 C67 C 0.02740 0.29220 0.32854
 C68 C -0.02268 0.33111 0.29135
 C69 C -0.02414 0.29501 0.32936
 C70 C 0.02848 0.32933 0.29081
 O71 O 0.01824 0.67970 0.65585
 O72 O -0.02135 0.65551 0.68444
 O73 O -0.02029 0.68282 0.65726
 O74 O 0.01721 0.65257 0.68323
 O75 O 0.02003 0.67596 0.70597
 O76 O -0.01764 0.70634 0.67987
 O77 O -0.01870 0.67881 0.70730
 O78 O 0.02100 0.70336 0.67833
 Cu79 Cu -0.00181 0.66531 0.66794
 Cu80 Cu 0.00145 0.69348 0.69517
 C81 C 0.02626 0.69576 0.66200
 C82 C -0.02673 0.66286 0.70082
 C83 C -0.02532 0.69986 0.66397
 C84 C 0.02494 0.65896 0.69911
 O85 O 0.97190 0.69359 0.33511
 O86 O 1.01015 0.66656 0.30729
 O87 O 1.01042 0.69418 0.33407
 O88 O 0.97137 0.66603 0.30790
 O89 O 0.97048 0.68933 0.28491
 O90 O 1.00944 0.71772 0.31134
 O91 O 1.00943 0.68978 0.28421
 O92 O 0.97099 0.71715 0.31236
 Cu93 Cu 0.99098 0.67772 0.32333
 Cu94 Cu 0.98996 0.70577 0.29582
 C95 C 0.96527 0.71021 0.32884
 C96 C 1.01637 0.67346 0.29101
 C97 C 1.01640 0.71096 0.32744
 C98 C 0.96438 0.67272 0.29182
 O99 O 0.98633 0.30672 0.66550
 O100 O 1.02555 0.33199 0.69419
 O101 O 1.02494 0.30712 0.66482
 O102 O 0.98695 0.33266 0.69410
 O103 O 0.98706 0.30804 0.71575
 O104 O 1.02503 0.28177 0.68558
 O105 O 1.02570 0.30692 0.71536
 O106 O 0.98630 0.28176 0.68677
 Cu107 Cu 1.00592 0.32210 0.67756
 Cu108 Cu 1.00601 0.29209 0.70299
 C109 C 0.97982 0.28976 0.67106
 C110 C 1.03214 0.32391 0.70983
 C111 C 1.03132 0.28996 0.66983
 C112 C 0.98076 0.32508 0.71010
 O113 O 0.34060 0.01303 0.31111
 O114 O 0.31230 -0.02533 0.33785
 O115 O 0.33974 -0.02571 0.31092
 O116 O 0.31314 0.01356 0.33824
 O117 O 0.28984 0.01430 0.31531
 O118 O 0.31655 -0.02512 0.28787
 O119 O 0.28893 -0.02467 0.31498
 O120 O 0.31755 0.01368 0.28792
 Cu121 Cu 0.32874 -0.00614 0.32684
 Cu122 Cu 0.30085 -0.00533 0.29923
 C123 C 0.33418 0.01965 0.29477
 C124 C 0.29574 -0.03153 0.33109
 C125 C 0.33284 -0.03202 0.29463
 C126 C 0.29683 0.02051 0.33160
 O127 O 0.66302 0.02604 0.69261
 O128 O 0.69235 -0.01106 0.66538
 O129 O 0.66498 -0.01258 0.69253
 O130 O 0.68995 0.02767 0.66503
 O131 O 0.71359 0.02911 0.68758
 O132 O 0.68822 -0.01107 0.71550
 O133 O 0.71593 -0.00977 0.68801
 O134 O 0.68639 0.02757 0.71545
 Cu135 Cu 0.67527 0.00738 0.67660
 Cu136 Cu 0.70344 0.00910 0.70389
 C137 C 0.66943 0.03285 0.70888
 C138 C 0.70926 -0.01658 0.67182
 C139 C 0.67201 -0.01841 0.70891
 C140 C 0.70617 0.03511 0.67139
 O141 O 0.30443 1.01542 0.66328
 O142 O 0.33267 0.97608 0.68875
 O143 O 0.30459 0.97677 0.66228
 O144 O 0.33245 1.01493 0.68974
 O145 O 0.30980 1.01435 0.71326
 O146 O 0.28163 0.97590 0.68552
 O147 O 0.31005 0.97531 0.71229
 O148 O 0.28145 1.01457 0.68650
 Cu149 Cu 0.32083 0.99586 0.67372
 Cu150 Cu 0.29349 0.99494 0.70181
 C151 C 0.28793 1.02144 0.67027
 C152 C 0.32636 0.96910 0.70497
 C153 C 0.28816 0.97010 0.66891
 C154 C 0.32607 1.02110 0.70624
 O155 O 0.69191 1.01951 0.33947
 O156 O 0.66248 0.98345 0.31066
 O157 O 0.68828 0.98084 0.33924
 O158 O 0.66552 1.02207 0.31168
 O159 O 0.68954 1.02050 0.28957
 O160 O 0.71264 0.97892 0.31752
 O161 O 0.68658 0.98171 0.28865
 O162 O 0.71623 1.01763 0.31775
 Cu163 Cu 0.67465 1.00159 0.32745
 Cu164 Cu 0.70368 0.99949 0.30116
 C165 C 0.70923 1.02464 0.33370
 C166 C 0.66931 0.97666 0.29456
 C167 C 0.70446 0.97300 0.33339
 C168 C 0.67342 1.02825 0.29584
 C169 C 0.88218 0.81019 0.50335
 C170 C 0.87617 0.81940 0.48583
 C171 C 0.86131 0.83415 0.48642
 C172 C 0.85156 0.83909 0.50420
 C173 C 0.85739 0.82889 0.52153
 C174 C 0.87311 0.81502 0.52127
 C175 C 0.83586 0.85515 0.50471
 C176 C 0.83179 0.86573 0.52227
 C177 C 0.81755 0.88108 0.52270
 C178 C 0.80775 0.88648 0.50532
 C179 C 0.81173 0.87662 0.48757
 C180 C 0.82524 0.86056 0.48750
 H181 H 0.89366 0.79877 0.50302
 H182 H 0.85786 0.84195 0.47291
 H183 H 0.85006 0.83178 0.53539
 H184 H 0.83993 0.86260 0.53566
 H185 H 0.79661 0.89822 0.50569
 H186 H 0.82754 0.85263 0.47384
 C187 C 0.11814 0.18911 0.49657
 C188 C 0.12429 0.18006 0.47903
 C189 C 0.13959 0.16576 0.47953
 C190 C 0.14948 0.16097 0.49732
 C191 C 0.14341 0.17103 0.51467
 C192 C 0.12731 0.18445 0.51449
 C193 C 0.16547 0.14514 0.49794
 C194 C 0.17024 0.13531 0.51576
 C195 C 0.18498 0.12044 0.51654
 C196 C 0.19427 0.11431 0.49914
 C197 C 0.18957 0.12338 0.48114
 C198 C 0.17579 0.13921 0.48073
 H199 H 0.10638 0.20023 0.49621
 H200 H 0.14320 0.15817 0.46596
 H201 H 0.15080 0.16836 0.52853
 H202 H 0.16236 0.13866 0.52920
 H203 H 0.20559 0.10274 0.49963
 H204 H 0.17304 0.14651 0.46680
 C205 C 0.11438 0.80388 0.49327
 C206 C 0.12335 0.80790 0.51147
 C207 C 0.13921 0.82165 0.51241
 C208 C 0.14541 0.83231 0.49552
 C209 C 0.13575 0.82819 0.47746
 C210 C 0.12063 0.81373 0.47621
 C211 C 0.16155 0.84790 0.49672
 C212 C 0.17256 0.85330 0.47982
 C213 C 0.18639 0.86906 0.48033
 C214 C 0.19036 0.87865 0.49820
 C215 C 0.18037 0.87303 0.51543
 C216 C 0.16574 0.85798 0.51456
 H217 H 0.10278 0.79258 0.49227
 H218 H 0.14643 0.82405 0.52643
 H219 H 0.13947 0.83639 0.46425
 H220 H 0.17028 0.84562 0.46601
 H221 H 0.20165 0.89028 0.49876
 H222 H 0.15743 0.85470 0.52780
 C223 C 0.87955 0.20125 0.49894
 C224 C 0.87329 0.19279 0.51673
 C225 C 0.85782 0.17863 0.51667
 C226 C 0.84768 0.17352 0.49911
 C227 C 0.85369 0.18313 0.48150
 C228 C 0.87003 0.19633 0.48124
 C229 C 0.83164 0.15767 0.49911
 C230 C 0.82674 0.14720 0.48168
 C231 C 0.81244 0.13185 0.48169
 C232 C 0.80357 0.12609 0.49944
 C233 C 0.80822 0.13598 0.51702
 C234 C 0.82163 0.15216 0.51665
 H235 H 0.89162 0.21207 0.49887
 H236 H 0.85430 0.17134 0.53042
 H237 H 0.84613 0.18020 0.46776
 H238 H 0.83426 0.15037 0.46798
 H239 H 0.79260 0.11414 0.49951
 H240 H 0.82439 0.16003 0.53027
 C241 C 0.50158 0.88114 0.80171
 C242 C 0.48370 0.87149 0.80662
 C243 C 0.48397 0.85575 0.82032
 C244 C 0.50174 0.85040 0.83024
 C245 C 0.51948 0.86070 0.82518
 C246 C 0.51958 0.87563 0.81063
 C247 C 0.50169 0.83465 0.84610
 C248 C 0.51950 0.82473 0.85153
 C249 C 0.51994 0.81134 0.86743
 C250 C 0.50215 0.80661 0.87716
 C251 C 0.48408 0.81549 0.87163
 C252 C 0.48400 0.82976 0.85645
 H253 H 0.50153 0.89271 0.79051
 H254 H 0.47013 0.84803 0.82333
 H255 H 0.53334 0.85768 0.83274
 H256 H 0.53327 0.82753 0.84376
 H257 H 0.50234 0.79558 0.88887
 H258 H 0.47011 0.83730 0.85328
 C259 C 0.50441 0.11876 0.19729
 C260 C 0.48605 0.12390 0.18886
 C261 C 0.48529 0.13925 0.17479
 C262 C 0.50257 0.15021 0.16966
 C263 C 0.52073 0.14525 0.17910
 C264 C 0.52186 0.12911 0.19229
 C265 C 0.50184 0.16610 0.15401
 C266 C 0.51916 0.17122 0.14331
 C267 C 0.51866 0.18575 0.12844
 C268 C 0.50043 0.19451 0.12332
 C269 C 0.48289 0.18946 0.13334
 C270 C 0.48378 0.17584 0.14908
 H271 H 0.50509 0.10688 0.20814
 H272 H 0.47119 0.14208 0.16760
 H273 H 0.53423 0.15353 0.17605
 H274 H 0.53317 0.16372 0.14602
 H275 H 0.49995 0.20569 0.11176
 H276 H 0.47021 0.17273 0.15710
 C277 C 0.49384 0.11355 0.81236
 C278 C 0.51186 0.11997 0.82058
 C279 C 0.51163 0.13492 0.83503
 C280 C 0.49367 0.14446 0.84061
 C281 C 0.47572 0.13805 0.83155
 C282 C 0.47569 0.12214 0.81801
 C283 C 0.49378 0.16050 0.85618
 C284 C 0.47642 0.16497 0.86714
 C285 C 0.47684 0.17924 0.88230
 C286 C 0.49489 0.18856 0.88718
 C287 C 0.51234 0.18439 0.87671
 C288 C 0.51154 0.17103 0.86081
 H289 H 0.49396 0.10205 0.80110
 H290 H 0.52562 0.13858 0.84206
 H291 H 0.46164 0.14504 0.83505
 H292 H 0.46254 0.15717 0.86448
 H293 H 0.49528 0.19953 0.89893
 H294 H 0.52503 0.16872 0.85245
 C295 C 0.50213 0.88089 0.19074
 C296 C 0.52020 0.87590 0.18169
 C297 C 0.52048 0.86099 0.16715
 C298 C 0.50291 0.85042 0.16205
 C299 C 0.48509 0.85513 0.17220
 C300 C 0.48450 0.87078 0.18596
 C301 C 0.50293 0.83526 0.14569
 C302 C 0.48519 0.83092 0.13525
 C303 C 0.48499 0.81706 0.11975
 C304 C 0.50293 0.80821 0.11384
 C305 C 0.52086 0.81259 0.12352
 C306 C 0.52069 0.82551 0.13982
 H307 H 0.50185 0.89246 0.20192
 H308 H 0.53438 0.85825 0.15958
 H309 H 0.47143 0.84704 0.16928
 H310 H 0.47142 0.83856 0.13865
 H311 H 0.50293 0.79748 0.10187
 H312 H 0.53456 0.82809 0.14755
 C313 C 0.80819 0.49761 0.87975
 C314 C 0.81320 0.47930 0.87103
 C315 C 0.82717 0.47891 0.85567
 C316 C 0.83721 0.49651 0.84972
 C317 C 0.83200 0.51475 0.85898
 C318 C 0.81720 0.51543 0.87355
 C319 C 0.85327 0.49583 0.83431
 C320 C 0.85845 0.51320 0.82360
 C321 C 0.87452 0.51317 0.81040
 C322 C 0.88469 0.49527 0.80676
 C323 C 0.87939 0.47756 0.81651
 C324 C 0.86401 0.47800 0.83052
 H325 H 0.79679 0.49803 0.89105
 H326 H 0.83026 0.46472 0.84868
 H327 H 0.83958 0.52856 0.85538
 H328 H 0.85034 0.52701 0.82562
 H329 H 0.89654 0.49504 0.79592
 H330 H 0.86097 0.46444 0.83867
 C331 C 0.19211 0.50966 0.12073
 C332 C 0.18822 0.49131 0.12990
 C333 C 0.17462 0.49052 0.14557
 C334 C 0.16371 0.50765 0.15136
 C335 C 0.16789 0.52597 0.14166
 C336 C 0.18235 0.52711 0.12676
 C337 C 0.14781 0.50627 0.16700
 C338 C 0.14096 0.52359 0.17687
 C339 C 0.12509 0.52261 0.19031
 C340 C 0.11685 0.50396 0.19511
 C341 C 0.12387 0.48639 0.18628
 C342 C 0.13888 0.48769 0.17193
 H343 H 0.20323 0.51046 0.10918
 H344 H 0.17251 0.47632 0.15287
 H345 H 0.15976 0.53947 0.14511
 H346 H 0.14755 0.53806 0.17404
 H347 H 0.10522 0.50310 0.20615
 H348 H 0.14303 0.47406 0.16444
 C349 C 0.80505 0.49527 0.11537
 C350 C 0.81319 0.51374 0.12092
 C351 C 0.82710 0.51445 0.13633
 C352 C 0.83224 0.49704 0.14701
 C353 C 0.82307 0.47873 0.14161
 C354 C 0.81010 0.47769 0.12540
 C355 C 0.84769 0.49789 0.16306
 C356 C 0.85873 0.48066 0.16826
 C357 C 0.87376 0.48152 0.18260
 C358 C 0.87850 0.49993 0.19126
 C359 C 0.86802 0.51731 0.18628
 C360 C 0.85220 0.51610 0.17278
 H361 H 0.79433 0.49459 0.10344
 H362 H 0.83416 0.52866 0.13944
 H363 H 0.82614 0.46509 0.14960
 H364 H 0.85626 0.46652 0.16092
 H365 H 0.89016 0.50069 0.20230
 H366 H 0.84384 0.52957 0.16972
 C367 C 0.19511 0.50048 0.88378
 C368 C 0.18529 0.51775 0.87728
 C369 C 0.17159 0.51636 0.86171
 C370 C 0.16820 0.49797 0.85192
 C371 C 0.17919 0.48103 0.85821
 C372 C 0.19197 0.48204 0.87454
 C373 C 0.15271 0.49623 0.83594
 C374 C 0.14409 0.47745 0.83135
 C375 C 0.12933 0.47563 0.81686
 C376 C 0.12224 0.49281 0.80746
 C377 C 0.13007 0.51172 0.81192
 C378 C 0.14574 0.51329 0.82560
 H379 H 0.20563 0.50146 0.89587
 H380 H 0.16333 0.52967 0.85784
 H381 H 0.17768 0.46677 0.85085
 H382 H 0.14825 0.46404 0.83923
 H383 H 0.11081 0.49142 0.79624
 H384 H 0.15209 0.52792 0.82822
 C385 C 0.26174 0.37459 0.07131
 C386 C 0.28170 0.37896 0.06666
 C387 C 0.29273 0.36607 0.05472
 C388 C 0.28408 0.34847 0.04721
 C389 C 0.26433 0.34372 0.05243
 C390 C 0.25326 0.35669 0.06431
 C391 C 0.24951 0.38937 0.08222
 C392 C 0.23015 0.39401 0.07574
 C393 C 0.21935 0.40943 0.08459
 C394 C 0.22765 0.42051 0.10016
 C395 C 0.24666 0.41533 0.10721
 C396 C 0.25752 0.39995 0.09828
 C397 C 0.21704 0.43822 0.10808
 C398 C 0.21630 0.44196 0.12843
 C399 C 0.20676 0.45909 0.13564
 C400 C 0.19804 0.47288 0.12260
 C401 C 0.19873 0.46906 0.10229
 C402 C 0.20808 0.45191 0.09512
 H403 H 0.28857 0.39276 0.07164
 H404 H 0.30792 0.37014 0.05100
 H405 H 0.25726 0.33025 0.04693
 H406 H 0.23797 0.35285 0.06783
 H407 H 0.22364 0.38624 0.06329
 H408 H 0.20463 0.41297 0.07901
 H409 H 0.25346 0.42369 0.11912
 H410 H 0.27234 0.39656 0.10370
 H411 H 0.22303 0.43159 0.13873
 H412 H 0.20650 0.46175 0.15135
 H413 H 0.19195 0.47935 0.09194
 H414 H 0.20865 0.44956 0.07936
 C415 C 0.74147 0.62788 0.05578
 C416 C 0.72110 0.62437 0.05231
 C417 C 0.70982 0.63790 0.04133
 C418 C 0.71863 0.65532 0.03363
 C419 C 0.73872 0.65944 0.03805
 C420 C 0.75005 0.64583 0.04902
 C421 C 0.75389 0.61220 0.06523
 C422 C 0.76861 0.61711 0.07917
 C423 C 0.78018 0.60206 0.08789
 C424 C 0.77734 0.58187 0.08268
 C425 C 0.76271 0.57706 0.06863
 C426 C 0.75117 0.59202 0.06000
 C427 C 0.78897 0.56563 0.09220
 C428 C 0.79547 0.54912 0.08111
 C429 C 0.80415 0.53261 0.09034
 C430 C 0.80659 0.53229 0.11086
 C431 C 0.80115 0.54925 0.12185
 C432 C 0.79239 0.56577 0.11261
 H433 H 0.71397 0.61088 0.05771
 H434 H 0.69433 0.63438 0.03836
 H435 H 0.74593 0.67274 0.03230
 H436 H 0.76574 0.64890 0.05141
 H437 H 0.77099 0.63254 0.08351
 H438 H 0.79141 0.60622 0.09860
 H439 H 0.75993 0.56163 0.06453
 H440 H 0.74018 0.58778 0.04907
 H441 H 0.79345 0.54878 0.06530
 H442 H 0.80856 0.51988 0.08148
 H443 H 0.80275 0.54933 0.13771
 H444 H 0.78741 0.57821 0.12156
 C445 C 0.73983 0.36388 0.93144
 C446 C 0.72016 0.36910 0.93635
 C447 C 0.70895 0.35703 0.94897
 C448 C 0.71716 0.33942 0.95690
 C449 C 0.73657 0.33380 0.95139
 C450 C 0.74782 0.34595 0.93883
 C451 C 0.75239 0.37793 0.91995
 C452 C 0.77192 0.38226 0.92617
 C453 C 0.78298 0.39728 0.91692
 C454 C 0.77478 0.40819 0.90121
 C455 C 0.75564 0.40320 0.89434
 C456 C 0.74450 0.38825 0.90368
 C457 C 0.78549 0.42577 0.89314
 C458 C 0.78637 0.42927 0.87276
 C459 C 0.79571 0.44649 0.86544
 C460 C 0.80404 0.46059 0.87842
 C461 C 0.80332 0.45695 0.89874
 C462 C 0.79421 0.43970 0.90602
 H463 H 0.71370 0.38296 0.93106
 H464 H 0.69402 0.36174 0.95289
 H465 H 0.74329 0.32028 0.95719
 H466 H 0.76289 0.34149 0.93514
 H467 H 0.77832 0.37468 0.93876
 H468 H 0.79779 0.40071 0.92237
 H469 H 0.74894 0.41147 0.88232
 H470 H 0.72955 0.38507 0.89848
 H471 H 0.77980 0.41870 0.86253
 H472 H 0.79602 0.44903 0.84970
 H473 H 0.80980 0.46753 0.90903
 H474 H 0.79353 0.43751 0.92180
 C475 C 0.25403 0.63531 0.93812
 C476 C 0.27444 0.63163 0.94115
 C477 C 0.28615 0.64515 0.95170
 C478 C 0.27776 0.66274 0.95942
 C479 C 0.25765 0.66709 0.95533
 C480 C 0.24587 0.65347 0.94476
 C481 C 0.24120 0.61948 0.92946
 C482 C 0.22647 0.62398 0.91541
 C483 C 0.21474 0.60867 0.90726
 C484 C 0.21740 0.58868 0.91323
 C485 C 0.23195 0.58433 0.92749
 C486 C 0.24367 0.59952 0.93550
 C487 C 0.20587 0.57206 0.90420
 C488 C 0.19934 0.55593 0.91585
 C489 C 0.19156 0.53869 0.90714
 C490 C 0.19001 0.53725 0.88659
 C491 C 0.19512 0.55390 0.87498
 C492 C 0.20302 0.57117 0.88371
 H493 H 0.28123 0.61796 0.93581
 H494 H 0.30165 0.64146 0.95439
 H495 H 0.25077 0.68052 0.96110
 H496 H 0.23017 0.65666 0.94266
 H497 H 0.22428 0.63925 0.91049
 H498 H 0.20359 0.61245 0.89633
 H499 H 0.23461 0.56906 0.93217
 H500 H 0.25466 0.59563 0.94655
 H501 H 0.20091 0.55638 0.93171
 H502 H 0.18739 0.52618 0.91642
 H503 H 0.19414 0.55310 0.85909
 H504 H 0.20799 0.58331 0.87435
 C505 C 0.06265 0.25543 0.36706
 C506 C 0.05557 0.24764 0.34916
 C507 C 0.04487 0.25982 0.33611
 C508 C 0.04111 0.28000 0.34073
 C509 C 0.04917 0.28800 0.35813
 C510 C 0.05983 0.27587 0.37112
 C511 C 0.07167 0.24215 0.38215
 C512 C 0.06608 0.24424 0.40196
 C513 C 0.07426 0.23188 0.41638
 C514 C 0.08822 0.21706 0.41139
 C515 C 0.09384 0.21487 0.39157
 C516 C 0.08553 0.22724 0.37705
 C517 C 0.09721 0.20456 0.42714
 C518 C 0.11787 0.20096 0.42763
 C519 C 0.12663 0.19183 0.44406
 C520 C 0.11485 0.18622 0.46026
 C521 C 0.09407 0.18860 0.45916
 C522 C 0.08534 0.19762 0.44277
 H523 H 0.05747 0.23193 0.34568
 H524 H 0.03885 0.25321 0.32281
 H525 H 0.04671 0.30352 0.36205
 H526 H 0.06548 0.28238 0.38462
 H527 H 0.05521 0.25538 0.40631
 H528 H 0.06986 0.23418 0.43154
 H529 H 0.10453 0.20353 0.38731
 H530 H 0.09013 0.22533 0.36190
 H531 H 0.12740 0.20621 0.41584
 H532 H 0.14270 0.19024 0.44460
 H533 H 0.08463 0.18408 0.47131
 H534 H 0.06932 0.19976 0.44259
 C535 C 0.06555 0.72703 0.62271
 C536 C 0.05947 0.73609 0.64037
 C537 C 0.04741 0.72564 0.65369
 C538 C 0.04123 0.70595 0.64954
 C539 C 0.04830 0.69656 0.63242
 C540 C 0.06035 0.70696 0.61918
 C541 C 0.07562 0.73889 0.60716
 C542 C 0.06927 0.73703 0.58755
 C543 C 0.07771 0.74882 0.57284
 C544 C 0.09272 0.76277 0.57735
 C545 C 0.09945 0.76439 0.59688
 C546 C 0.09086 0.75263 0.61171
 C547 C 0.10083 0.77574 0.56160
 C548 C 0.12149 0.77861 0.55939
 C549 C 0.12894 0.78949 0.54337
 C550 C 0.11582 0.79771 0.52938
 C551 C 0.09516 0.79553 0.53215
 C552 C 0.08776 0.78466 0.54804
 H553 H 0.06317 0.75158 0.64341
 H554 H 0.04222 0.73326 0.66678
 H555 H 0.04401 0.68132 0.62891
 H556 H 0.06515 0.69948 0.60586
 H557 H 0.05736 0.72680 0.58362
 H558 H 0.07242 0.74708 0.55787
 H559 H 0.11099 0.77508 0.60072
 H560 H 0.09609 0.75428 0.62671
 H561 H 0.13186 0.77182 0.56963
 H562 H 0.14493 0.79087 0.54154
 H563 H 0.08469 0.80211 0.52187
 H564 H 0.07176 0.78305 0.54964
 C565 C 0.93150 0.74581 0.36939
 C566 C 0.93830 0.75424 0.35167
 C567 C 0.94832 0.74242 0.33783
 C568 C 0.95172 0.72198 0.34152
 C569 C 0.94380 0.71335 0.35867
 C570 C 0.93377 0.72512 0.37242
 C571 C 0.92351 0.75862 0.38537
 C572 C 0.92957 0.75524 0.40488
 C573 C 0.92240 0.76718 0.42012
 C574 C 0.90902 0.78287 0.41627
 C575 C 0.90297 0.78637 0.39674
 C576 C 0.91024 0.77441 0.38141
 C577 C 0.90101 0.79490 0.43283
 C578 C 0.88060 0.79960 0.43382
 C579 C 0.87266 0.80854 0.45070
 C580 C 0.88499 0.81288 0.46689
 C581 C 0.90556 0.80924 0.46543
 C582 C 0.91349 0.80039 0.44857
 H583 H 0.93681 0.77016 0.34896
 H584 H 0.95428 0.74950 0.32475
 H585 H 0.94598 0.69761 0.36185
 H586 H 0.92827 0.71811 0.38573
 H587 H 0.94004 0.74342 0.40838
 H588 H 0.92710 0.76388 0.43502
 H589 H 0.89272 0.79841 0.39334
 H590 H 0.90529 0.77733 0.36651
 H591 H 0.87059 0.79543 0.42198
 H592 H 0.85672 0.81107 0.45150
 H593 H 0.91545 0.81279 0.47756
 H594 H 0.92935 0.79737 0.44804
 C595 C 0.94063 0.25709 0.63257
 C596 C 0.94378 0.27770 0.62980
 C597 C 0.95602 0.28847 0.64267
 C598 C 0.96522 0.27888 0.65868
 C599 C 0.96143 0.25842 0.66190
 C600 C 0.94934 0.24761 0.64891
 C601 C 0.92933 0.24536 0.61777
 C602 C 0.93698 0.22715 0.61068
 C603 C 0.92735 0.21695 0.59542
 C604 C 0.90977 0.22466 0.58710
 C605 C 0.90174 0.24250 0.59466
 C606 C 0.91148 0.25280 0.60978
 C607 C 0.90048 0.21483 0.56981
 C608 C 0.87968 0.21251 0.56860
 C609 C 0.87090 0.20463 0.55161
 C610 C 0.88275 0.19916 0.53543
 C611 C 0.90358 0.20100 0.53685
 C612 C 0.91237 0.20868 0.55390
 H613 H 0.93740 0.28534 0.61722
 H614 H 0.95864 0.30422 0.63980
 H615 H 0.96832 0.25060 0.67410
 H616 H 0.94701 0.23177 0.65147
 H617 H 0.95081 0.22116 0.61645
 H618 H 0.93377 0.20316 0.58995
 H619 H 0.88830 0.24886 0.58839
 H620 H 0.90521 0.26674 0.61507
 H621 H 0.87021 0.21701 0.58071
 H622 H 0.85479 0.20346 0.55082
 H623 H 0.91304 0.19676 0.52463
 H624 H 0.92843 0.21046 0.55438
 C625 C 0.37369 0.05617 0.26029
 C626 C 0.37746 0.05283 0.28036
 C627 C 0.36417 0.04168 0.29174
 C628 C 0.34673 0.03369 0.28334
 C629 C 0.34238 0.03794 0.26353
 C630 C 0.35576 0.04908 0.25209
 C631 C 0.38907 0.06590 0.24781
 C632 C 0.38385 0.07993 0.23326
 C633 C 0.39861 0.08897 0.22168
 C634 C 0.41883 0.08400 0.22433
 C635 C 0.42394 0.06985 0.23878
 C636 C 0.40926 0.06089 0.25032
 C637 C 0.43478 0.09391 0.21272
 C638 C 0.45141 0.08287 0.20633
 C639 C 0.46771 0.09252 0.19776
 C640 C 0.46769 0.11339 0.19527
 C641 C 0.45060 0.12431 0.20053
 C642 C 0.43429 0.11466 0.20922
 H643 H 0.39093 0.05850 0.28719
 H644 H 0.36785 0.03886 0.30701
 H645 H 0.32907 0.03196 0.25664
 H646 H 0.35251 0.05135 0.23665
 H647 H 0.36840 0.08412 0.23105
 H648 H 0.39423 0.09976 0.21060
 H649 H 0.43939 0.06593 0.24142
 H650 H 0.41373 0.04989 0.26117
 H651 H 0.45202 0.06680 0.20841
 H652 H 0.48056 0.08372 0.19349
 H653 H 0.45028 0.14044 0.19887
 H654 H 0.42175 0.12358 0.21409
 C655 C 0.62832 0.06593 0.74462
 C656 C 0.62468 0.06321 0.72444
 C657 C 0.63854 0.05336 0.71261
 C658 C 0.65642 0.04608 0.72068
 C659 C 0.66065 0.04989 0.74060
 C660 C 0.64670 0.05971 0.75248
 C661 C 0.61235 0.07383 0.75757
 C662 C 0.61661 0.08745 0.77278
 C663 C 0.60132 0.09459 0.78494
 C664 C 0.58154 0.08808 0.78220
 C665 C 0.57739 0.07438 0.76706
 C666 C 0.59258 0.06732 0.75493
 C667 C 0.56502 0.09590 0.79450
 C668 C 0.54951 0.08311 0.80055
 C669 C 0.53264 0.09081 0.80986
 C670 C 0.53093 0.11146 0.81340
 C671 C 0.54692 0.12411 0.80841
 C672 C 0.56381 0.11641 0.79902
 H673 H 0.61083 0.06825 0.71788
 H674 H 0.63493 0.05085 0.69727
 H675 H 0.67429 0.04442 0.74724
 H676 H 0.64988 0.06154 0.76800
 H677 H 0.63171 0.09275 0.77512
 H678 H 0.60497 0.10509 0.79654
 H679 H 0.56227 0.06931 0.76436
 H680 H 0.58887 0.05658 0.74357
 H681 H 0.55024 0.06718 0.79767
 H682 H 0.52068 0.08068 0.81389
 H683 H 0.54591 0.14011 0.81085
 H684 H 0.57546 0.12665 0.79442
 C685 C 0.36438 0.92905 0.73739
 C686 C 0.36846 0.93362 0.71762
 C687 C 0.35573 0.94607 0.70691
 C688 C 0.33857 0.95418 0.71570
 C689 C 0.33400 0.94891 0.73521
 C690 C 0.34682 0.93652 0.74597
 C691 C 0.37924 0.91792 0.74934
 C692 C 0.38433 0.92471 0.76826
 C693 C 0.40004 0.91589 0.77863
 C694 C 0.41094 0.90003 0.77035
 C695 C 0.40524 0.89258 0.75184
 C696 C 0.38959 0.90149 0.74140
 C697 C 0.42908 0.89237 0.78032
 C698 C 0.43318 0.87173 0.78119
 C699 C 0.45079 0.86481 0.78997
 C700 C 0.46470 0.87844 0.79779
 C701 C 0.46049 0.89902 0.79702
 C702 C 0.44288 0.90590 0.78844
 H703 H 0.38198 0.92828 0.71067
 H704 H 0.35966 0.94980 0.69189
 H705 H 0.32087 0.95488 0.74238
 H706 H 0.34319 0.93308 0.76113
 H707 H 0.37677 0.93744 0.77470
 H708 H 0.40397 0.92178 0.79296
 H709 H 0.41344 0.88045 0.74507
 H710 H 0.38585 0.89582 0.72693
 H711 H 0.42276 0.86098 0.77510
 H712 H 0.45373 0.84887 0.79032
 H713 H 0.47086 0.90983 0.80312
 H714 H 0.44025 0.92189 0.78776
 C715 C 0.63022 0.94199 0.25764
 C716 C 0.62525 0.94584 0.27737
 C717 C 0.63827 0.95648 0.28953
 C718 C 0.65664 0.96344 0.28230
 C719 C 0.66206 0.95880 0.26284
 C720 C 0.64896 0.94819 0.25062
 C721 C 0.61539 0.93255 0.24427
 C722 C 0.62115 0.91824 0.23020
 C723 C 0.60692 0.90945 0.21778
 C724 C 0.58670 0.91490 0.21912
 C725 C 0.58106 0.92932 0.23310
 C726 C 0.59521 0.93806 0.24546
 C727 C 0.57123 0.90522 0.20665
 C728 C 0.55507 0.91648 0.19947
 C729 C 0.53895 0.90703 0.19036
 C730 C 0.53871 0.88614 0.18804
 C731 C 0.55544 0.87499 0.19391
 C732 C 0.57156 0.88444 0.20320
 H733 H 0.61110 0.94087 0.28334
 H734 H 0.63372 0.95963 0.30451
 H735 H 0.67611 0.96398 0.25683
 H736 H 0.65317 0.94556 0.23546
 H737 H 0.63658 0.91363 0.22900
 H738 H 0.61174 0.89845 0.20709
 H739 H 0.56558 0.93363 0.23478
 H740 H 0.59033 0.94928 0.25590
 H741 H 0.55461 0.93256 0.20145
 H742 H 0.52633 0.91597 0.18569
 H743 H 0.55553 0.85884 0.19237
 H744 H 0.58373 0.87534 0.20864
 C745 C 0.36905 0.25612 0.94990
 C746 C 0.35050 0.24926 0.95683
 C747 C 0.33800 0.26202 0.96754
 C748 C 0.34383 0.28186 0.97151
 C749 C 0.36195 0.28893 0.96377
 C750 C 0.37438 0.27623 0.95307
 C751 C 0.38337 0.24221 0.94043
 C752 C 0.40370 0.24320 0.94539
 C753 C 0.41744 0.23044 0.93653
 C754 C 0.41124 0.21626 0.92251
 C755 C 0.39087 0.21509 0.91764
 C756 C 0.37704 0.22789 0.92659
 C757 C 0.42632 0.20356 0.91253
 C758 C 0.42555 0.20046 0.89207
 C759 C 0.44148 0.19127 0.88231
 C760 C 0.45845 0.18515 0.89284
 C761 C 0.45861 0.18699 0.91341
 C762 C 0.44267 0.19602 0.92316
 H763 H 0.34604 0.23382 0.95468
 H764 H 0.32413 0.25613 0.97331
 H765 H 0.36680 0.30418 0.96639
 H766 H 0.38839 0.28206 0.94754
 H767 H 0.40901 0.25383 0.95623
 H768 H 0.43305 0.23198 0.94037
 H769 H 0.38564 0.20426 0.90694
 H770 H 0.36146 0.22684 0.92245
 H771 H 0.41321 0.20619 0.88346
 H772 H 0.44110 0.19010 0.86641
 H773 H 0.47142 0.18211 0.92186
 H774 H 0.44347 0.19773 0.93899
 C775 C 0.63712 0.74067 0.92711
 C776 C 0.63220 0.72064 0.93124
 C777 C 0.64393 0.70932 0.94405
 C778 C 0.66091 0.71771 0.95299
 C779 C 0.66632 0.73749 0.94826
 C780 C 0.65449 0.74888 0.93549
 C781 C 0.62320 0.75324 0.91543
 C782 C 0.61836 0.77265 0.92181
 C783 C 0.60318 0.78346 0.91257
 C784 C 0.59254 0.77513 0.89672
 C785 C 0.59812 0.75619 0.88963
 C786 C 0.61327 0.74534 0.89891
 C787 C 0.57460 0.78537 0.88881
 C788 C 0.57058 0.78579 0.86850
 C789 C 0.55298 0.79451 0.86140
 C790 C 0.53902 0.80272 0.87452
 C791 C 0.54321 0.80252 0.89477
 C792 C 0.56078 0.79398 0.90183
 H793 H 0.61877 0.71396 0.92525
 H794 H 0.63937 0.69411 0.94732
 H795 H 0.67934 0.74436 0.95488
 H796 H 0.65874 0.76422 0.93243
 H797 H 0.62561 0.77910 0.93457
 H798 H 0.59937 0.79815 0.91818
 H799 H 0.59013 0.74935 0.87750
 H800 H 0.61686 0.73051 0.89352
 H801 H 0.58101 0.77934 0.85813
 H802 H 0.55007 0.79442 0.84572
 H803 H 0.53281 0.80896 0.90519
 H804 H 0.56331 0.79364 0.91757
 C805 C 0.36725 0.74818 0.05849
 C806 C 0.34989 0.75700 0.05076
 C807 C 0.33602 0.74538 0.04035
 C808 C 0.33930 0.72478 0.03754
 C809 C 0.35603 0.71583 0.04636
 C810 C 0.36982 0.72739 0.05672
 C811 C 0.38342 0.76062 0.06704
 C812 C 0.40333 0.75681 0.06182
 C813 C 0.41881 0.76816 0.06978
 C814 C 0.41480 0.78364 0.08318
 C815 C 0.39487 0.78763 0.08833
 C816 C 0.37929 0.77630 0.08022
 C817 C 0.43161 0.79486 0.09220
 C818 C 0.43196 0.79868 0.11253
 C819 C 0.44901 0.80678 0.12138
 C820 C 0.46601 0.81119 0.11006
 C821 C 0.46522 0.80843 0.08959
 C822 C 0.44820 0.80036 0.08076
 H823 H 0.34756 0.77301 0.05189
 H824 H 0.32327 0.75270 0.03371
 H825 H 0.35889 0.69996 0.04466
 H826 H 0.38284 0.72014 0.06291
 H827 H 0.40695 0.74504 0.05146
 H828 H 0.43401 0.76452 0.06574
 H829 H 0.39136 0.79954 0.09857
 H830 H 0.36407 0.77953 0.08450
 H831 H 0.41946 0.79446 0.12173
 H832 H 0.44926 0.80863 0.13721
 H833 H 0.47795 0.81208 0.08046
 H834 H 0.44819 0.79797 0.06500
 C835 C 0.63264 0.25357 0.06038
 C836 C 0.62903 0.27417 0.05824
 C837 C 0.64122 0.28587 0.04617
 C838 C 0.65739 0.27723 0.03615
 C839 C 0.66146 0.25676 0.03888
 C840 C 0.64910 0.24501 0.05078
 C841 C 0.61851 0.24095 0.07164
 C842 C 0.61127 0.22298 0.06357
 C843 C 0.59637 0.21211 0.07320
 C844 C 0.58859 0.21890 0.09118
 C845 C 0.59640 0.23645 0.09963
 C846 C 0.61115 0.24743 0.08990
 C847 C 0.57150 0.20853 0.10051
 C848 C 0.57110 0.20534 0.12093
 C849 C 0.55418 0.19720 0.12990
 C850 C 0.53728 0.19232 0.11863
 C851 C 0.53789 0.19497 0.09814
 C852 C 0.55488 0.20291 0.08915
 H853 H 0.61632 0.28110 0.06532
 H854 H 0.63774 0.30160 0.04439
 H855 H 0.67379 0.24969 0.03131
 H856 H 0.65226 0.22918 0.05232
 H857 H 0.61659 0.21775 0.04943
 H858 H 0.59068 0.19855 0.06646
 H859 H 0.59054 0.24211 0.11339
 H860 H 0.61658 0.26117 0.09648
 H861 H 0.58378 0.20942 0.12998
 H862 H 0.55402 0.19542 0.14575
 H863 H 0.52509 0.19117 0.08913
 H864 H 0.55474 0.20537 0.07340
 C865 C 0.25179 0.05948 0.63389
 C866 C 0.24340 0.04970 0.65023
 C867 C 0.25534 0.03810 0.66269
 C868 C 0.27583 0.03586 0.65887
 C869 C 0.28430 0.04623 0.64293
 C870 C 0.27243 0.05799 0.63064
 C871 C 0.23899 0.06997 0.61940
 C872 C 0.24494 0.08844 0.61142
 C873 C 0.23402 0.09722 0.59617
 C874 C 0.21706 0.08760 0.58848
 C875 C 0.21073 0.06946 0.59692
 C876 C 0.22154 0.06078 0.61230
 C877 C 0.20691 0.09579 0.57085
 C878 C 0.20206 0.08313 0.55503
 C879 C 0.19437 0.09104 0.53757
 C880 C 0.19123 0.11175 0.53565
 C881 C 0.19534 0.12431 0.55174
 C882 C 0.20321 0.11642 0.56914
 H883 H 0.22755 0.05073 0.65313
 H884 H 0.24838 0.03024 0.67483
 H885 H 0.30005 0.04482 0.63964
 H886 H 0.27925 0.06521 0.61805
 H887 H 0.25827 0.09588 0.61672
 H888 H 0.23933 0.11113 0.58984
 H889 H 0.19762 0.06183 0.59135
 H890 H 0.21672 0.04644 0.61807
 H891 H 0.20493 0.06720 0.55588
 H892 H 0.19118 0.08102 0.52543
 H893 H 0.19317 0.14035 0.55059
 H894 H 0.20669 0.12648 0.58117
 C895 C 0.74453 0.06223 0.36988
 C896 C 0.72450 0.05843 0.37459
 C897 C 0.71278 0.04625 0.36252
 C898 C 0.72076 0.03775 0.34525
 C899 C 0.74071 0.04213 0.34026
 C900 C 0.75251 0.05408 0.35256
 C901 C 0.75718 0.07394 0.38356
 C902 C 0.77586 0.06657 0.38951
 C903 C 0.78689 0.07654 0.40400
 C904 C 0.77954 0.09420 0.41256
 C905 C 0.76124 0.10199 0.40601
 C906 C 0.75011 0.09189 0.39174
 C907 C 0.79011 0.10373 0.42927
 C908 C 0.79247 0.12463 0.43010
 C909 C 0.80061 0.13370 0.44682
 C910 C 0.80625 0.12206 0.46311
 C911 C 0.80450 0.10112 0.46203
 C912 C 0.79661 0.09203 0.44522
 H913 H 0.71806 0.06439 0.38797
 H914 H 0.69751 0.04335 0.36690
 H915 H 0.74743 0.03594 0.32711
 H916 H 0.76790 0.05692 0.34857
 H917 H 0.78157 0.05269 0.38352
 H918 H 0.80100 0.07030 0.40875
 H919 H 0.75517 0.11548 0.41251
 H920 H 0.73580 0.09791 0.38730
 H921 H 0.78767 0.13394 0.41794
 H922 H 0.80171 0.14988 0.44736
 H923 H 0.80886 0.09184 0.47437
 H924 H 0.79481 0.07591 0.44502
 C925 C 0.74596 0.94763 0.63382
 C926 C 0.72556 0.95022 0.62983
 C927 C 0.71349 0.96112 0.64264
 C928 C 0.72152 0.96965 0.65981
 C929 C 0.74170 0.96616 0.66438
 C930 C 0.75382 0.95523 0.65149
 C931 C 0.75908 0.93823 0.61889
 C932 C 0.77393 0.92439 0.62423
 C933 C 0.78595 0.91550 0.60981
 C934 C 0.78347 0.92049 0.58985
 C935 C 0.76877 0.93451 0.58464
 C936 C 0.75677 0.94327 0.59896
 C937 C 0.79541 0.91069 0.57419
 C938 C 0.80198 0.92186 0.55790
 C939 C 0.81026 0.91230 0.54159
 C940 C 0.81227 0.89138 0.54127
 C941 C 0.80710 0.88031 0.55810
 C942 C 0.79869 0.88988 0.57443
 H943 H 0.71900 0.94416 0.61652
 H944 H 0.69797 0.96333 0.63878
 H945 H 0.74832 0.97255 0.67750
 H946 H 0.76951 0.95351 0.65491
 H947 H 0.77600 0.92021 0.63949
 H948 H 0.79721 0.90478 0.61424
 H949 H 0.76625 0.93844 0.56938
 H950 H 0.74568 0.95412 0.59442
 H951 H 0.80009 0.93796 0.55748
 H952 H 0.81445 0.92119 0.52891
 H953 H 0.80843 0.86414 0.55814
 H954 H 0.79370 0.88088 0.58673
 C955 C 0.26093 0.92788 0.36623
 C956 C 0.28080 0.93225 0.37126
 C957 C 0.29226 0.94496 0.35952
 C958 C 0.28414 0.95356 0.34243
 C959 C 0.26452 0.94857 0.33694
 C960 C 0.25301 0.93590 0.34876
 C961 C 0.24817 0.91642 0.38005
 C962 C 0.22883 0.92317 0.38440
 C963 C 0.21772 0.91412 0.39934
 C964 C 0.22571 0.89811 0.41019
 C965 C 0.24462 0.89066 0.40516
 C966 C 0.25577 0.89977 0.39026
 C967 C 0.21503 0.89032 0.42768
 C968 C 0.21404 0.86966 0.43159
 C969 C 0.20458 0.86263 0.44860
 C970 C 0.19619 0.87616 0.46208
 C971 C 0.19710 0.89677 0.45808
 C972 C 0.20638 0.90377 0.44107
 H973 H 0.28724 0.92652 0.38476
 H974 H 0.30734 0.94845 0.36412
 H975 H 0.25787 0.95490 0.32382
 H976 H 0.23780 0.93262 0.34443
 H977 H 0.22263 0.93606 0.37691
 H978 H 0.20307 0.91999 0.40276
 H979 H 0.25116 0.87839 0.41335
 H980 H 0.27056 0.89413 0.38705
 H981 H 0.22054 0.85899 0.42146
 H982 H 0.20413 0.84666 0.45140
 H983 H 0.19055 0.90750 0.46812
 H984 H 0.20717 0.91978 0.43859
 C985 C 0.07109 0.35833 0.74696
 C986 C 0.06835 0.36368 0.72715
 C987 C 0.05624 0.35209 0.71487
 C988 C 0.04678 0.33482 0.72212
 C989 C 0.05026 0.32895 0.74169
 C990 C 0.06221 0.34068 0.75403
 C991 C 0.08183 0.37204 0.76045
 C992 C 0.07336 0.37722 0.77866
 C993 C 0.08200 0.39216 0.79028
 C994 C 0.09938 0.40204 0.78400
 C995 C 0.10842 0.39613 0.76628
 C996 C 0.09966 0.38133 0.75457
 C997 C 0.10701 0.41972 0.79482
 C998 C 0.12758 0.42245 0.79783
 C999 C 0.13480 0.44028 0.80597
 C1000 C 0.12157 0.45576 0.81098
 C1001 C 0.10097 0.45271 0.80870
 C1002 C 0.09375 0.43482 0.80078
 H1003 H 0.07486 0.37732 0.72137
 H1004 H 0.05387 0.35697 0.69985
 H1005 H 0.04315 0.31573 0.74770
 H1006 H 0.06421 0.33617 0.76922
 H1007 H 0.05952 0.37040 0.78347
 H1008 H 0.07483 0.39637 0.80394
 H1009 H 0.12172 0.40363 0.76101
 H1010 H 0.10655 0.37750 0.74066
 H1011 H 0.13809 0.41097 0.79345
 H1012 H 0.15076 0.44235 0.80751
 H1013 H 0.09049 0.46440 0.81256
 H1014 H 0.07784 0.43319 0.79846
 C1015 C 0.05798 0.63796 0.25785
 C1016 C 0.04895 0.65483 0.24924
 C1017 C 0.03588 0.66681 0.26015
 C1018 C 0.03147 0.66202 0.27982
 C1019 C 0.04096 0.64549 0.28854
 C1020 C 0.05409 0.63363 0.27771
 C1021 C 0.07026 0.62400 0.24597
 C1022 C 0.08755 0.61526 0.25392
 C1023 C 0.09766 0.60022 0.24370
 C1024 C 0.09060 0.59354 0.22537
 C1025 C 0.07385 0.60292 0.21702
 C1026 C 0.06380 0.61802 0.22719
 C1027 C 0.09973 0.57587 0.21569
 C1028 C 0.08745 0.56082 0.20777
 C1029 C 0.09577 0.54363 0.19953
 C1030 C 0.11656 0.54110 0.19894
 C1031 C 0.12891 0.55625 0.20659
 C1032 C 0.12055 0.57345 0.21500
 H1033 H 0.05181 0.65860 0.23400
 H1034 H 0.02882 0.67947 0.25304
 H1035 H 0.03793 0.64143 0.30368
 H1036 H 0.06059 0.62060 0.28468
 H1037 H 0.09298 0.61974 0.26828
 H1038 H 0.11047 0.59319 0.25053
 H1039 H 0.06824 0.59823 0.20279
 H1040 H 0.05045 0.62437 0.22075
 H1041 H 0.07136 0.56214 0.20834
 H1042 H 0.08592 0.53229 0.19353
 H1043 H 0.14498 0.55462 0.20639
 H1044 H 0.13035 0.58485 0.22094
 C1045 C 0.94125 0.37030 0.25606
 C1046 C 0.94806 0.35204 0.24829
 C1047 C 0.95905 0.33879 0.26001
 C1048 C 0.96346 0.34359 0.27968
 C1049 C 0.95580 0.36139 0.28767
 C1050 C 0.94478 0.37455 0.27602
 C1051 C 0.93160 0.38546 0.24325
 C1052 C 0.93662 0.40579 0.24532
 C1053 C 0.92773 0.42026 0.23344
 C1054 C 0.91363 0.41481 0.21909
 C1055 C 0.90866 0.39446 0.21687
 C1056 C 0.91761 0.37991 0.22880
 C1057 C 0.90377 0.43056 0.20713
 C1058 C 0.88312 0.42985 0.20348
 C1059 C 0.87348 0.44602 0.19450
 C1060 C 0.88430 0.46320 0.18912
 C1061 C 0.90507 0.46343 0.19173
 C1062 C 0.91472 0.44725 0.20057
 H1063 H 0.94567 0.34840 0.23295
 H1064 H 0.96478 0.32519 0.25343
 H1065 H 0.95876 0.36543 0.30283
 H1066 H 0.93932 0.38828 0.28255
 H1067 H 0.94759 0.41053 0.25607
 H1068 H 0.93165 0.43582 0.23577
 H1069 H 0.89792 0.38980 0.20587
 H1070 H 0.91340 0.36436 0.22692
 H1071 H 0.87426 0.41727 0.20847
 H1072 H 0.85742 0.44556 0.19273
 H1073 H 0.91378 0.47638 0.18740
 H1074 H 0.93071 0.44803 0.20273
 C1075 C 0.93188 0.62935 0.73621
 C1076 C 0.93558 0.62388 0.71660
 C1077 C 0.94848 0.63519 0.70494
 C1078 C 0.95798 0.65227 0.71260
 C1079 C 0.95362 0.65829 0.73194
 C1080 C 0.94072 0.64691 0.74365
 C1081 C 0.92037 0.61572 0.74920
 C1082 C 0.92733 0.61141 0.76824
 C1083 C 0.91840 0.59634 0.77944
 C1084 C 0.90232 0.58524 0.77184
 C1085 C 0.89459 0.59032 0.75328
 C1086 C 0.90355 0.60541 0.74206
 C1087 C 0.89482 0.56735 0.78246
 C1088 C 0.87431 0.56295 0.78331
 C1089 C 0.86759 0.54545 0.79253
 C1090 C 0.88128 0.53197 0.80088
 C1091 C 0.90173 0.53649 0.80017
 C1092 C 0.90842 0.55397 0.79108
 H1093 H 0.92925 0.61029 0.71051
 H1094 H 0.95147 0.63018 0.69007
 H1095 H 0.96064 0.67143 0.73823
 H1096 H 0.93797 0.65160 0.75865
 H1097 H 0.94035 0.61897 0.77412
 H1098 H 0.92447 0.59294 0.79383
 H1099 H 0.88226 0.58198 0.74701
 H1100 H 0.89769 0.60859 0.72754
 H1101 H 0.86350 0.57305 0.77685
 H1102 H 0.85174 0.54227 0.79282
 H1103 H 0.91259 0.52649 0.80670
 H1104 H 0.92433 0.55677 0.79040
 C1105 C 0.74526 0.63173 0.93314
 C1106 C 0.72528 0.62663 0.93677
 C1107 C 0.71320 0.63903 0.94823
 C1108 C 0.72075 0.65702 0.95616
 C1109 C 0.74056 0.66253 0.95170
 C1110 C 0.75273 0.64991 0.94049
 C1111 C 0.75848 0.61746 0.92274
 C1112 C 0.77706 0.61223 0.93084
 C1113 C 0.78859 0.59714 0.92227
 C1114 C 0.78189 0.58721 0.90527
 C1115 C 0.76371 0.59303 0.89672
 C1116 C 0.75204 0.60792 0.90545
 C1117 C 0.79303 0.56987 0.89726
 C1118 C 0.79611 0.56787 0.87691
 C1119 C 0.80489 0.55054 0.86928
 C1120 C 0.81045 0.53478 0.88185
 C1121 C 0.80793 0.53705 0.90224
 C1122 C 0.79943 0.55449 0.90989
 H1123 H 0.71921 0.61262 0.93139
 H1124 H 0.69804 0.63425 0.95119
 H1125 H 0.74696 0.67625 0.95743
 H1126 H 0.76806 0.65422 0.93774
 H1127 H 0.78227 0.61926 0.94426
 H1128 H 0.80260 0.59297 0.92909
 H1129 H 0.75812 0.58549 0.88372
 H1130 H 0.73782 0.61175 0.89888
 H1131 H 0.79139 0.57957 0.86690
 H1132 H 0.80656 0.54907 0.85350
 H1133 H 0.81217 0.52514 0.91221
 H1134 H 0.79708 0.55559 0.92561
 C1135 C 0.26455 0.36889 0.94074
 C1136 C 0.25639 0.35089 0.94784
 C1137 C 0.26711 0.33890 0.96102
 C1138 C 0.28621 0.34476 0.96757
 C1139 C 0.29459 0.36248 0.95986
 C1140 C 0.28390 0.37434 0.94661
 C1141 C 0.25250 0.38273 0.92841
 C1142 C 0.26121 0.39317 0.91262
 C1143 C 0.25043 0.40784 0.90247
 C1144 C 0.23078 0.41247 0.90803
 C1145 C 0.22182 0.40146 0.92328
 C1146 C 0.23254 0.38672 0.93333
 C1147 C 0.22019 0.42971 0.89903
 C1148 C 0.21000 0.44336 0.91111
 C1149 C 0.20081 0.46019 0.90305
 C1150 C 0.20146 0.46376 0.88269
 C1151 C 0.21132 0.44997 0.87049
 C1152 C 0.22074 0.43315 0.87861
 H1153 H 0.24158 0.34620 0.94338
 H1154 H 0.26016 0.32533 0.96645
 H1155 H 0.30925 0.36753 0.96440
 H1156 H 0.29051 0.38824 0.94157
 H1157 H 0.27651 0.39026 0.90837
 H1158 H 0.25774 0.41616 0.89084
 H1159 H 0.20662 0.40457 0.92772
 H1160 H 0.22546 0.37906 0.94552
 H1161 H 0.20954 0.44126 0.92691
 H1162 H 0.19313 0.47048 0.91276
 H1163 H 0.21208 0.45242 0.85476
 H1164 H 0.22843 0.42282 0.86897
 C1165 C 0.25160 0.64187 0.06184
 C1166 C 0.24442 0.65988 0.05388
 C1167 C 0.25669 0.67182 0.04198
 C1168 C 0.27629 0.66572 0.03742
 C1169 C 0.28351 0.64785 0.04587
 C1170 C 0.27136 0.63618 0.05801
 C1171 C 0.23834 0.62833 0.07319
 C1172 C 0.24504 0.61948 0.09074
 C1173 C 0.23347 0.60501 0.10029
 C1174 C 0.21508 0.59890 0.09233
 C1175 C 0.20808 0.60822 0.07512
 C1176 C 0.21953 0.62292 0.06572
 C1177 C 0.20420 0.58170 0.10107
 C1178 C 0.19765 0.56590 0.08902
 C1179 C 0.18976 0.54845 0.09733
 C1180 C 0.18799 0.54657 0.11784
 C1181 C 0.19354 0.56277 0.12986
 C1182 C 0.20173 0.58012 0.12155
 H1183 H 0.22924 0.66463 0.05672
 H1184 H 0.25054 0.68545 0.03584
 H1185 H 0.29850 0.64262 0.04287
 H1186 H 0.27721 0.62227 0.06384
 H1187 H 0.25945 0.62347 0.09683
 H1188 H 0.23931 0.59794 0.11343
 H1189 H 0.19392 0.60383 0.06873
 H1190 H 0.21409 0.62941 0.05213
 H1191 H 0.19954 0.56664 0.07321
 H1192 H 0.18552 0.53618 0.08777
 H1193 H 0.19245 0.56161 0.14572
 H1194 H 0.20656 0.59214 0.13115
 C1195 C 0.73949 0.36158 0.06344
 C1196 C 0.72025 0.36750 0.05773
 C1197 C 0.70908 0.35586 0.04467
 C1198 C 0.71683 0.33788 0.03699
 C1199 C 0.73586 0.33158 0.04331
 C1200 C 0.74709 0.34337 0.05629
 C1201 C 0.75197 0.37516 0.07565
 C1202 C 0.77194 0.37888 0.07050
 C1203 C 0.78292 0.39369 0.08022
 C1204 C 0.77422 0.40503 0.09537
 C1205 C 0.75463 0.40054 0.10127
 C1206 C 0.74359 0.38580 0.09147
 C1207 C 0.78479 0.42269 0.10363
 C1208 C 0.78424 0.42702 0.12389
 C1209 C 0.79299 0.44460 0.13119
 C1210 C 0.80214 0.45826 0.11830
 C1211 C 0.80305 0.45368 0.09815
 C1212 C 0.79454 0.43609 0.09091
 H1213 H 0.71408 0.38158 0.06277
 H1214 H 0.69450 0.36127 0.04031
 H1215 H 0.74234 0.31780 0.03787
 H1216 H 0.76182 0.33835 0.06059
 H1217 H 0.77877 0.37103 0.05830
 H1218 H 0.79807 0.39669 0.07550
 H1219 H 0.74749 0.40911 0.11281
 H1220 H 0.72831 0.38309 0.09590
 H1221 H 0.77690 0.41690 0.13402
 H1222 H 0.79207 0.44784 0.14678
 H1223 H 0.81018 0.46389 0.08794
 H1224 H 0.79499 0.43332 0.07522
 C1225 C 0.93533 0.73637 0.63086
 C1226 C 0.93971 0.71678 0.62474
 C1227 C 0.95234 0.70460 0.63588
 C1228 C 0.96091 0.71167 0.65350
 C1229 C 0.95591 0.73109 0.65996
 C1230 C 0.94335 0.74331 0.64871
 C1231 C 0.92356 0.74986 0.61792
 C1232 C 0.92995 0.76963 0.61461
 C1233 C 0.92038 0.78163 0.60065
 C1234 C 0.90416 0.77415 0.58976
 C1235 C 0.89713 0.75474 0.59377
 C1236 C 0.90678 0.74269 0.60766
 C1237 C 0.89578 0.78587 0.57314
 C1238 C 0.87509 0.78673 0.56973
 C1239 C 0.86754 0.79671 0.55318
 C1240 C 0.88060 0.80571 0.53964
 C1241 C 0.90122 0.80517 0.54329
 C1242 C 0.90872 0.79542 0.55986
 H1243 H 0.93396 0.71109 0.61093
 H1244 H 0.95569 0.68975 0.63037
 H1245 H 0.96205 0.73710 0.67348
 H1246 H 0.94006 0.75829 0.65389
 H1247 H 0.94291 0.77554 0.62217
 H1248 H 0.92598 0.79661 0.59800
 H1249 H 0.88474 0.74854 0.58552
 H1250 H 0.90140 0.72758 0.61007
 H1251 H 0.86478 0.77956 0.57980
 H1252 H 0.85159 0.79688 0.55064
 H1253 H 0.91159 0.81215 0.53315
 H1254 H 0.92473 0.79481 0.56195
 C1255 C 0.93480 0.26409 0.36584
 C1256 C 0.94134 0.28343 0.37076
 C1257 C 0.95451 0.29379 0.35851
 C1258 C 0.96144 0.28512 0.34087
 C1259 C 0.95422 0.26602 0.33559
 C1260 C 0.94117 0.25558 0.34801
 C1261 C 0.92251 0.25243 0.37999
 C1262 C 0.92744 0.23248 0.38437
 C1263 C 0.91754 0.22221 0.39941
 C1264 C 0.90238 0.23162 0.41028
 C1265 C 0.89677 0.25124 0.40526
 C1266 C 0.90681 0.26158 0.39033
 C1267 C 0.89363 0.22162 0.42778
 C1268 C 0.87299 0.22227 0.43152
 C1269 C 0.86513 0.21366 0.44867
 C1270 C 0.87783 0.20458 0.46249
 C1271 C 0.89839 0.20374 0.45860
 C1272 C 0.90619 0.21209 0.44142
 H1273 H 0.93686 0.29029 0.38450
 H1274 H 0.95957 0.30847 0.36313
 H1275 H 0.95906 0.25883 0.32213
 H1276 H 0.93622 0.24074 0.34378
 H1277 H 0.93957 0.22509 0.37677
 H1278 H 0.92203 0.20703 0.40286
 H1279 H 0.88523 0.25890 0.41347
 H1280 H 0.90258 0.27689 0.38713
 H1281 H 0.86298 0.22947 0.42121
 H1282 H 0.84923 0.21453 0.45138
 H1283 H 0.90848 0.19667 0.46894
 H1284 H 0.92216 0.21157 0.43906
 C1285 C 0.06789 0.25855 0.62958
 C1286 C 0.06286 0.27867 0.62631
 C1287 C 0.05147 0.28920 0.63997
 C1288 C 0.04477 0.27991 0.65738
 C1289 C 0.05087 0.26009 0.66123
 C1290 C 0.06230 0.24952 0.64744
 C1291 C 0.07755 0.24682 0.61367
 C1292 C 0.09321 0.23340 0.61760
 C1293 C 0.10196 0.22241 0.60228
 C1294 C 0.09497 0.22446 0.58287
 C1295 C 0.07934 0.23790 0.57904
 C1296 C 0.07075 0.24892 0.59422
 C1297 C 0.10359 0.21265 0.56646
 C1298 C 0.09089 0.20404 0.55235
 C1299 C 0.09871 0.19449 0.53584
 C1300 C 0.11943 0.19334 0.53296
 C1301 C 0.13222 0.20120 0.54746
 C1302 C 0.12435 0.21077 0.56410
 H1303 H 0.06736 0.28617 0.61289
 H1304 H 0.04746 0.30452 0.63652
 H1305 H 0.04616 0.25243 0.67450
 H1306 H 0.06597 0.23400 0.65032
 H1307 H 0.09877 0.23155 0.63245
 H1308 H 0.11394 0.21208 0.60563
 H1309 H 0.07380 0.23999 0.56420
 H1310 H 0.05853 0.25893 0.59076
 H1311 H 0.07484 0.20487 0.55400
 H1312 H 0.08848 0.18813 0.52517
 H1313 H 0.14825 0.20056 0.54560
 H1314 H 0.13447 0.21735 0.57473
 C1315 C 0.05536 0.74626 0.36215
 C1316 C 0.05108 0.72640 0.36747
 C1317 C 0.03860 0.71460 0.35578
 C1318 C 0.03026 0.72230 0.33830
 C1319 C 0.03531 0.74197 0.33259
 C1320 C 0.04755 0.75388 0.34451
 C1321 C 0.06690 0.75922 0.37571
 C1322 C 0.05950 0.77811 0.38114
 C1323 C 0.06902 0.78930 0.39579
 C1324 C 0.08627 0.78194 0.40505
 C1325 C 0.09419 0.76349 0.39894
 C1326 C 0.08451 0.75217 0.38450
 C1327 C 0.09503 0.79251 0.42217
 C1328 C 0.11579 0.79488 0.42394
 C1329 C 0.12408 0.80280 0.44116
 C1330 C 0.11176 0.80818 0.45701
 C1331 C 0.09097 0.80648 0.45497
 C1332 C 0.08268 0.79884 0.43766
 H1333 H 0.05679 0.72024 0.38110
 H1334 H 0.03522 0.69954 0.36069
 H1335 H 0.02928 0.74847 0.31924
 H1336 H 0.05075 0.76913 0.34006
 H1337 H 0.04586 0.78379 0.37468
 H1338 H 0.06268 0.80352 0.40021
 H1339 H 0.10736 0.75739 0.40597
 H1340 H 0.09054 0.73769 0.38048
 H1341 H 0.12560 0.79018 0.41216
 H1342 H 0.14016 0.80387 0.44247
 H1343 H 0.08119 0.81059 0.46698
 H1344 H 0.06664 0.79701 0.43674
 C1345 C 0.63564 0.94243 0.74415
 C1346 C 0.63254 0.94391 0.72375
 C1347 C 0.64483 0.95606 0.71219
 C1348 C 0.66064 0.96685 0.72074
 C1349 C 0.66430 0.96469 0.74100
 C1350 C 0.65183 0.95270 0.75262
 C1351 C 0.62119 0.93128 0.75658
 C1352 C 0.61369 0.93993 0.77392
 C1353 C 0.59850 0.93046 0.78454
 C1354 C 0.59064 0.91205 0.77817
 C1355 C 0.59869 0.90302 0.76127
 C1356 C 0.61373 0.91259 0.75053
 C1357 C 0.57324 0.90290 0.78830
 C1358 C 0.57242 0.88215 0.79175
 C1359 C 0.55527 0.87340 0.79977
 C1360 C 0.53852 0.88519 0.80427
 C1361 C 0.53957 0.90600 0.80135
 C1362 C 0.55677 0.91477 0.79353
 H1363 H 0.62007 0.93633 0.71684
 H1364 H 0.64163 0.95740 0.69662
 H1365 H 0.67632 0.97287 0.74802
 H1366 H 0.65464 0.95169 0.76828
 H1367 H 0.61903 0.95441 0.77883
 H1368 H 0.59268 0.93768 0.79760
 H1369 H 0.59280 0.88892 0.75591
 H1370 H 0.61933 0.90552 0.73730
 H1371 H 0.58495 0.87268 0.78798
 H1372 H 0.55481 0.85731 0.80176
 H1373 H 0.52693 0.91544 0.80483
 H1374 H 0.55691 0.93077 0.79089
 C1375 C 0.36840 0.92752 0.26007
 C1376 C 0.37380 0.93213 0.27954
 C1377 C 0.36190 0.94474 0.29096
 C1378 C 0.34429 0.95301 0.28321
 C1379 C 0.33844 0.94773 0.26402
 C1380 C 0.35040 0.93516 0.25256
 C1381 C 0.38235 0.91620 0.24727
 C1382 C 0.38610 0.92276 0.22797
 C1383 C 0.40106 0.91384 0.21670
 C1384 C 0.41258 0.89813 0.22444
 C1385 C 0.40816 0.89085 0.24334
 C1386 C 0.39323 0.89984 0.25467
 C1387 C 0.43025 0.89065 0.21355
 C1388 C 0.43476 0.87009 0.21275
 C1389 C 0.45215 0.86345 0.20337
 C1390 C 0.46544 0.87730 0.19493
 C1391 C 0.46074 0.89777 0.19550
 C1392 C 0.44334 0.90437 0.20465
 H1393 H 0.38770 0.92670 0.28568
 H1394 H 0.36682 0.94847 0.30570
 H1395 H 0.32492 0.95379 0.25764
 H1396 H 0.34575 0.93169 0.23768
 H1397 H 0.37811 0.93543 0.22190
 H1398 H 0.40401 0.91961 0.20209
 H1399 H 0.41686 0.87883 0.24972
 H1400 H 0.39051 0.89432 0.26941
 H1401 H 0.42487 0.85920 0.21943
 H1402 H 0.45550 0.84759 0.20316
 H1403 H 0.47064 0.90873 0.18893
 H1404 H 0.44042 0.92031 0.20526
 C1405 C 0.64030 0.07081 0.26134
 C1406 C 0.63530 0.06717 0.28109
 C1407 C 0.64658 0.05396 0.29246
 C1408 C 0.66317 0.04407 0.28439
 C1409 C 0.66878 0.04841 0.26493
 C1410 C 0.65741 0.06161 0.25348
 C1411 C 0.62656 0.08262 0.24869
 C1412 C 0.62157 0.07573 0.22977
 C1413 C 0.60631 0.08488 0.21904
 C1414 C 0.59569 0.10113 0.22697
 C1415 C 0.60150 0.10881 0.24535
 C1416 C 0.61676 0.09963 0.25611
 C1417 C 0.57749 0.10874 0.21699
 C1418 C 0.57310 0.12934 0.21639
 C1419 C 0.55520 0.13612 0.20807
 C1420 C 0.54130 0.12239 0.20041
 C1421 C 0.54588 0.10187 0.20073
 C1422 C 0.56374 0.09514 0.20890
 H1423 H 0.62208 0.07377 0.28752
 H1424 H 0.64188 0.05101 0.30743
 H1425 H 0.68151 0.04106 0.25831
 H1426 H 0.66173 0.06428 0.23836
 H1427 H 0.62872 0.06258 0.22368
 H1428 H 0.60236 0.07882 0.20477
 H1429 H 0.59355 0.12125 0.25188
 H1430 H 0.62046 0.10545 0.27053
 H1431 H 0.58346 0.14017 0.22244
 H1432 H 0.55200 0.15201 0.20804
 H1433 H 0.53555 0.09098 0.19470
 H1434 H 0.56652 0.07917 0.20938
 C1435 C 0.36418 0.05984 0.74017
 C1436 C 0.34617 0.05282 0.74822
 C1437 C 0.33329 0.04082 0.73700
 C1438 C 0.33820 0.03570 0.71752
 C1439 C 0.35572 0.04363 0.70922
 C1440 C 0.36853 0.05555 0.72040
 C1441 C 0.37924 0.07013 0.75261
 C1442 C 0.39935 0.06442 0.75134
 C1443 C 0.41372 0.07343 0.76324
 C1444 C 0.40838 0.08842 0.77672
 C1445 C 0.38832 0.09443 0.77788
 C1446 C 0.37381 0.08522 0.76602
 C1447 C 0.42396 0.09740 0.78949
 C1448 C 0.42576 0.11828 0.79166
 C1449 C 0.44214 0.12651 0.80169
 C1450 C 0.45690 0.11396 0.80967
 C1451 C 0.45436 0.09310 0.80849
 C1452 C 0.43812 0.08493 0.79851
 H1453 H 0.34250 0.05583 0.76345
 H1454 H 0.31989 0.03497 0.74381
 H1455 H 0.35986 0.04017 0.69420
 H1456 H 0.38214 0.06106 0.71370
 H1457 H 0.40396 0.05267 0.74135
 H1458 H 0.42910 0.06868 0.76185
 H1459 H 0.38383 0.10593 0.78819
 H1460 H 0.35841 0.08995 0.76724
 H1461 H 0.41504 0.12820 0.78481
 H1462 H 0.44377 0.14264 0.80238
 H1463 H 0.46528 0.08308 0.81490
 H1464 H 0.43686 0.06879 0.79744
 C1465 C 0.63446 0.73957 0.05983
 C1466 C 0.65255 0.74748 0.05276
 C1467 C 0.66457 0.73631 0.04002
 C1468 C 0.65870 0.71703 0.03398
 C1469 C 0.64088 0.70894 0.04147
 C1470 C 0.62893 0.72006 0.05427
 C1471 C 0.62073 0.75200 0.07186
 C1472 C 0.61009 0.74359 0.08768
 C1473 C 0.59559 0.75475 0.09761
 C1474 C 0.59134 0.77450 0.09183
 C1475 C 0.60257 0.78317 0.07658
 C1476 C 0.61712 0.77206 0.06673
 C1477 C 0.57416 0.78541 0.10047
 C1478 C 0.56085 0.79563 0.08807
 C1479 C 0.54382 0.80472 0.09572
 C1480 C 0.53972 0.80393 0.11596
 C1481 C 0.55328 0.79424 0.12853
 C1482 C 0.57030 0.78491 0.12082
 H1483 H 0.65729 0.76239 0.05694
 H1484 H 0.67824 0.74295 0.03457
 H1485 H 0.63594 0.69414 0.03714
 H1486 H 0.61496 0.71365 0.05925
 H1487 H 0.61271 0.72823 0.09211
 H1488 H 0.58710 0.74764 0.10923
 H1489 H 0.59975 0.79843 0.07195
 H1490 H 0.62494 0.77893 0.05452
 H1491 H 0.56326 0.79606 0.07232
 H1492 H 0.53368 0.81225 0.08575
 H1493 H 0.55041 0.79338 0.14419
 H1494 H 0.58038 0.77722 0.13072
 C1495 C 0.36607 0.26283 0.07642
 C1496 C 0.37154 0.28256 0.07161
 C1497 C 0.35978 0.29398 0.05889
 C1498 C 0.34223 0.28597 0.05072
 C1499 C 0.33627 0.26655 0.05620
 C1500 C 0.34811 0.25508 0.06887
 C1501 C 0.37997 0.24998 0.08783
 C1502 C 0.38385 0.23029 0.08164
 C1503 C 0.39890 0.21903 0.09058
 C1504 C 0.41036 0.22719 0.10595
 C1505 C 0.40577 0.24646 0.11287
 C1506 C 0.39076 0.25777 0.10386
 C1507 C 0.42815 0.21638 0.11344
 C1508 C 0.43272 0.21590 0.13364
 C1509 C 0.45027 0.20672 0.14029
 C1510 C 0.46365 0.19815 0.12681
 C1511 C 0.45888 0.19836 0.10669
 C1512 C 0.44133 0.20732 0.10009
 H1513 H 0.38540 0.28889 0.07698
 H1514 H 0.36477 0.30890 0.05501
 H1515 H 0.32280 0.25997 0.05019
 H1516 H 0.34343 0.23999 0.07248
 H1517 H 0.37593 0.22391 0.06924
 H1518 H 0.40197 0.20412 0.08509
 H1519 H 0.41442 0.25317 0.12462
 H1520 H 0.38794 0.27283 0.10909
 H1521 H 0.42277 0.22271 0.14425
 H1522 H 0.45365 0.20679 0.15588
 H1523 H 0.46886 0.19169 0.09601
 H1524 H 0.43837 0.20768 0.08442
 C1525 C 0.63127 0.25682 0.93161
 C1526 C 0.62653 0.27671 0.93644
 C1527 C 0.63900 0.28787 0.94874
 C1528 C 0.65653 0.27943 0.95648
 C1529 C 0.66173 0.25982 0.95100
 C1530 C 0.64919 0.24860 0.93873
 C1531 C 0.61671 0.24432 0.92059
 C1532 C 0.61248 0.22472 0.92687
 C1533 C 0.59695 0.21381 0.91828
 C1534 C 0.58534 0.22224 0.90318
 C1535 C 0.59022 0.24143 0.89617
 C1536 C 0.60572 0.25239 0.90483
 C1537 C 0.56723 0.21173 0.89595
 C1538 C 0.56229 0.21144 0.87583
 C1539 C 0.54462 0.20229 0.86941
 C1540 C 0.53148 0.19352 0.88304
 C1541 C 0.53657 0.19365 0.90309
 C1542 C 0.55423 0.20260 0.90947
 H1543 H 0.61272 0.28339 0.93141
 H1544 H 0.63458 0.30296 0.95264
 H1545 H 0.67516 0.25290 0.95667
 H1546 H 0.65332 0.23338 0.93509
 H1547 H 0.62055 0.21814 0.93907
 H1548 H 0.59368 0.19895 0.92380
 H1549 H 0.58147 0.24834 0.88462
 H1550 H 0.60879 0.26738 0.89953
 H1551 H 0.57209 0.21830 0.86510
 H1552 H 0.54100 0.20244 0.85388
 H1553 H 0.52682 0.18680 0.91389
 H1554 H 0.55748 0.20282 0.92508
 C1555 C 0.36918 0.74519 0.93739
 C1556 C 0.35129 0.75401 0.94381
 C1557 C 0.33744 0.74290 0.95476
 C1558 C 0.34124 0.72276 0.95952
 C1559 C 0.35867 0.71372 0.95227
 C1560 C 0.37243 0.72478 0.94132
 C1561 C 0.38499 0.75735 0.92772
 C1562 C 0.40509 0.75447 0.93289
 C1563 C 0.42014 0.76577 0.92406
 C1564 C 0.41553 0.78034 0.90984
 C1565 C 0.39543 0.78332 0.90465
 C1566 C 0.38029 0.77199 0.91357
 C1567 C 0.43188 0.79188 0.90027
 C1568 C 0.43177 0.79542 0.87987
 C1569 C 0.44836 0.80409 0.87063
 C1570 C 0.46536 0.80930 0.88162
 C1571 C 0.46500 0.80679 0.90214
 C1572 C 0.44844 0.79823 0.91136
 H1573 H 0.34839 0.76973 0.94110
 H1574 H 0.32417 0.75031 0.96017
 H1575 H 0.36198 0.69819 0.95551
 H1576 H 0.38585 0.71742 0.93621
 H1577 H 0.40921 0.74356 0.94396
 H1578 H 0.43547 0.76286 0.92818
 H1579 H 0.39140 0.79450 0.89381
 H1580 H 0.36495 0.77450 0.90922
 H1581 H 0.41929 0.79061 0.87090
 H1582 H 0.44830 0.80576 0.85478
 H1583 H 0.47776 0.81101 0.91101
 H1584 H 0.44879 0.79617 0.92716
 C1585 C 0.73435 0.93297 0.37312
 C1586 C 0.74399 0.93944 0.35588
 C1587 C 0.73399 0.95165 0.34232
 C1588 C 0.71418 0.95759 0.34579
 C1589 C 0.70421 0.95005 0.36241
 C1590 C 0.71417 0.93787 0.37589
 C1591 C 0.74566 0.92293 0.38909
 C1592 C 0.74305 0.92926 0.40863
 C1593 C 0.75432 0.92090 0.42377
 C1594 C 0.76845 0.90595 0.41981
 C1595 C 0.77082 0.89919 0.40036
 C1596 C 0.75961 0.90774 0.38508
 C1597 C 0.78096 0.89808 0.43605
 C1598 C 0.78363 0.87739 0.43884
 C1599 C 0.79402 0.87025 0.45533
 C1600 C 0.80197 0.88372 0.46920
 C1601 C 0.80004 0.90440 0.46581
 C1602 C 0.78961 0.91147 0.44950
 H1603 H 0.75957 0.93596 0.35341
 H1604 H 0.74206 0.95721 0.32965
 H1605 H 0.68888 0.95413 0.36541
 H1606 H 0.70625 0.93278 0.38885
 H1607 H 0.73264 0.94111 0.41216
 H1608 H 0.75205 0.92623 0.43866
 H1609 H 0.78167 0.88771 0.39694
 H1610 H 0.76186 0.90254 0.37016
 H1611 H 0.77705 0.86677 0.42867
 H1612 H 0.79523 0.85424 0.45758
 H1613 H 0.80646 0.91516 0.47593
 H1614 H 0.78815 0.92750 0.44746
 C1615 C 0.25216 0.93492 0.62960
 C1616 C 0.24407 0.94193 0.64738
 C1617 C 0.25600 0.95253 0.66076
 C1618 C 0.27621 0.95629 0.65656
 C1619 C 0.28450 0.94825 0.63930
 C1620 C 0.27263 0.93766 0.62602
 C1621 C 0.23921 0.92607 0.61412
 C1622 C 0.24197 0.93166 0.59438
 C1623 C 0.23006 0.92353 0.57958
 C1624 C 0.21499 0.90963 0.58409
 C1625 C 0.21208 0.90407 0.60385
 C1626 C 0.22402 0.91231 0.61876
 C1627 C 0.20305 0.90059 0.56794
 C1628 C 0.19908 0.87990 0.56757
 C1629 C 0.19053 0.87103 0.55090
 C1630 C 0.18589 0.88269 0.53430
 C1631 C 0.18864 0.90352 0.53519
 C1632 C 0.19706 0.91238 0.55184
 H1633 H 0.22833 0.94009 0.65051
 H1634 H 0.24919 0.95856 0.67393
 H1635 H 0.30006 0.95068 0.63573
 H1636 H 0.27939 0.93202 0.61266
 H1637 H 0.25332 0.94247 0.59036
 H1638 H 0.23294 0.92789 0.56450
 H1639 H 0.20052 0.89344 0.60777
 H1640 H 0.22158 0.90770 0.63385
 H1641 H 0.20361 0.87041 0.57970
 H1642 H 0.18864 0.85491 0.55052
 H1643 H 0.18487 0.91288 0.52271
 H1644 H 0.19947 0.92842 0.55188
 C1645 C 0.26307 0.06106 0.36784
 C1646 C 0.25486 0.05345 0.35031
 C1647 C 0.26606 0.04085 0.33814
 C1648 C 0.28565 0.03546 0.34332
 C1649 C 0.29405 0.04360 0.36052
 C1650 C 0.28291 0.05629 0.37260
 C1651 C 0.25064 0.07269 0.38186
 C1652 C 0.25858 0.08926 0.39197
 C1653 C 0.24752 0.09883 0.40667
 C1654 C 0.22837 0.09190 0.41166
 C1655 C 0.22015 0.07583 0.40102
 C1656 C 0.23114 0.06636 0.38626
 C1657 C 0.21761 0.10035 0.42884
 C1658 C 0.20858 0.08741 0.44250
 C1659 C 0.19936 0.09500 0.45930
 C1660 C 0.19881 0.11573 0.46280
 C1661 C 0.20744 0.12877 0.44897
 C1662 C 0.21690 0.12113 0.43219
 H1663 H 0.23967 0.05703 0.34617
 H1664 H 0.25916 0.03486 0.32498
 H1665 H 0.30911 0.03979 0.36492
 H1666 H 0.28958 0.06172 0.38611
 H1667 H 0.27350 0.09458 0.38876
 H1668 H 0.25426 0.11111 0.41470
 H1669 H 0.20534 0.07031 0.40443
 H1670 H 0.22467 0.05354 0.37886
 H1671 H 0.20910 0.07133 0.44045
 H1672 H 0.19265 0.08464 0.46964
 H1673 H 0.20727 0.14480 0.45138
 H1674 H 0.22368 0.13143 0.42185
 C1675 C 0.73844 0.07585 0.63393
 C1676 C 0.71851 0.07080 0.62979
 C1677 C 0.70783 0.05813 0.64233
 C1678 C 0.71680 0.05027 0.65938
 C1679 C 0.73645 0.05600 0.66398
 C1680 C 0.74718 0.06859 0.65134
 C1681 C 0.75039 0.08732 0.61934
 C1682 C 0.76982 0.08113 0.61456
 C1683 C 0.78029 0.09033 0.59924
 C1684 C 0.77160 0.10599 0.58839
 C1685 C 0.75254 0.11282 0.59375
 C1686 C 0.74200 0.10352 0.60902
 C1687 C 0.78177 0.11408 0.57067
 C1688 C 0.78201 0.13475 0.56663
 C1689 C 0.79092 0.14203 0.54939
 C1690 C 0.79947 0.12873 0.53578
 C1691 C 0.79939 0.10812 0.53996
 C1692 C 0.79069 0.10090 0.55721
 H1693 H 0.71141 0.07594 0.61639
 H1694 H 0.69271 0.05405 0.63836
 H1695 H 0.74378 0.05023 0.67700
 H1696 H 0.76245 0.07240 0.65502
 H1697 H 0.77663 0.06858 0.62210
 H1698 H 0.79504 0.08490 0.59558
 H1699 H 0.74542 0.12478 0.58559
 H1700 H 0.72713 0.10874 0.61250
 H1701 H 0.77532 0.14526 0.57680
 H1702 H 0.79074 0.15798 0.54647
 H1703 H 0.80605 0.09756 0.52982
 H1704 H 0.79052 0.08489 0.55978
 C1705 C 0.92420 0.63561 0.25834
 C1706 C 0.92947 0.63041 0.27769
 C1707 C 0.94201 0.64278 0.28877
 C1708 C 0.94952 0.66069 0.28078
 C1709 C 0.94360 0.66631 0.26171
 C1710 C 0.93112 0.65387 0.25059
 C1711 C 0.91289 0.62125 0.24587
 C1712 C 0.91895 0.61759 0.22641
 C1713 C 0.91005 0.60233 0.21540
 C1714 C 0.89486 0.59043 0.22356
 C1715 C 0.88807 0.59474 0.24265
 C1716 C 0.89705 0.60996 0.25372
 C1717 C 0.88745 0.57250 0.21290
 C1718 C 0.86704 0.56751 0.21262
 C1719 C 0.86051 0.54984 0.20350
 C1720 C 0.87433 0.53675 0.19481
 C1721 C 0.89464 0.54194 0.19482
 C1722 C 0.90112 0.55962 0.20370
 H1723 H 0.92460 0.61633 0.28400
 H1724 H 0.94624 0.63803 0.30342
 H1725 H 0.94907 0.68004 0.25515
 H1726 H 0.92713 0.65838 0.23579
 H1727 H 0.93121 0.62590 0.21999
 H1728 H 0.91543 0.59947 0.20064
 H1729 H 0.87647 0.58574 0.24936
 H1730 H 0.89192 0.61259 0.26861
 H1731 H 0.85619 0.57722 0.21953
 H1732 H 0.84478 0.54611 0.20372
 H1733 H 0.90557 0.53218 0.18807
 H1734 H 0.91694 0.56291 0.20389
 C1735 C 0.94525 0.36328 0.74691
 C1736 C 0.95319 0.34542 0.75458
 C1737 C 0.96393 0.33231 0.74243
 C1738 C 0.96686 0.33687 0.72243
 C1739 C 0.95787 0.35413 0.71462
 C1740 C 0.94718 0.36713 0.72668
 C1741 C 0.93622 0.37865 0.75993
 C1742 C 0.94116 0.39892 0.75724
 C1743 C 0.93256 0.41371 0.76892
 C1744 C 0.91878 0.40867 0.78369
 C1745 C 0.91395 0.38837 0.78662
 C1746 C 0.92270 0.37346 0.77491
 C1747 C 0.90904 0.42486 0.79522
 C1748 C 0.88837 0.42453 0.79877
 C1749 C 0.87881 0.44128 0.80683
 C1750 C 0.88976 0.45864 0.81141
 C1751 C 0.91058 0.45843 0.80908
 C1752 C 0.92011 0.44172 0.80114
 H1753 H 0.95194 0.34209 0.77013
 H1754 H 0.97070 0.31913 0.74888
 H1755 H 0.95963 0.35797 0.69923
 H1756 H 0.94082 0.38054 0.72026
 H1757 H 0.95176 0.40337 0.74603
 H1758 H 0.93638 0.42920 0.76606
 H1759 H 0.90344 0.38403 0.79794
 H1760 H 0.91861 0.35795 0.77730
 H1761 H 0.87942 0.41181 0.79428
 H1762 H 0.86273 0.44110 0.80840
 H1763 H 0.91940 0.47149 0.81283
 H1764 H 0.93612 0.44224 0.79903
 C1765 C 0.06384 0.61980 0.73168
 C1766 C 0.05832 0.63847 0.73952
 C1767 C 0.04618 0.65153 0.72872
 C1768 C 0.03933 0.64617 0.70987
 C1769 C 0.04555 0.62785 0.70176
 C1770 C 0.05767 0.61486 0.71251
 C1771 C 0.07478 0.60491 0.74383
 C1772 C 0.06897 0.58469 0.74342
 C1773 C 0.07855 0.57060 0.75524
 C1774 C 0.09418 0.57634 0.76784
 C1775 C 0.10027 0.59649 0.76809
 C1776 C 0.09058 0.61068 0.75626
 C1777 C 0.10367 0.56116 0.78078
 C1778 C 0.12453 0.56012 0.78293
 C1779 C 0.13327 0.54446 0.79366
 C1780 C 0.12127 0.52964 0.80237
 C1781 C 0.10042 0.53132 0.80101
 C1782 C 0.09174 0.54687 0.79037
 H1783 H 0.06271 0.64264 0.75430
 H1784 H 0.04166 0.66554 0.73538
 H1785 H 0.04071 0.62334 0.68721
 H1786 H 0.06199 0.60075 0.70592
 H1787 H 0.05669 0.57979 0.73423
 H1788 H 0.07371 0.55514 0.75451
 H1789 H 0.11224 0.60133 0.77770
 H1790 H 0.09546 0.62614 0.75678
 H1791 H 0.13408 0.57092 0.77565
 H1792 H 0.14938 0.54348 0.79447
 H1793 H 0.09081 0.52035 0.80796
 H1794 H 0.07562 0.54757 0.78940
 C1795 C 0.06568 0.36648 0.25433
 C1796 C 0.05595 0.34968 0.24633
 C1797 C 0.04467 0.33694 0.25835
 C1798 C 0.04271 0.34090 0.27858
 C1799 C 0.05306 0.35727 0.28667
 C1800 C 0.06448 0.36986 0.27470
 C1801 C 0.07586 0.38130 0.24144
 C1802 C 0.09410 0.38995 0.24713
 C1803 C 0.10257 0.40545 0.23607
 C1804 C 0.09290 0.41274 0.21916
 C1805 C 0.07501 0.40362 0.21310
 C1806 C 0.06662 0.38801 0.22407
 C1807 C 0.10072 0.43071 0.20878
 C1808 C 0.08771 0.44626 0.20334
 C1809 C 0.09516 0.46407 0.19540
 C1810 C 0.11577 0.46669 0.19258
 C1811 C 0.12872 0.45083 0.19724
 C1812 C 0.12128 0.43306 0.20536
 H1813 H 0.05676 0.34662 0.23070
 H1814 H 0.03683 0.32448 0.25167
 H1815 H 0.05186 0.36073 0.30219
 H1816 H 0.07164 0.38279 0.28127
 H1817 H 0.10163 0.38498 0.26037
 H1818 H 0.11629 0.41229 0.24120
 H1819 H 0.06731 0.40882 0.20005
 H1820 H 0.05247 0.38175 0.21941
 H1821 H 0.07182 0.44497 0.20596
 H1822 H 0.08483 0.47599 0.19180
 H1823 H 0.14468 0.45250 0.19533
 H1824 H 0.13163 0.42126 0.20926
   
