data_POSCAR
  _audit_creation_date              2014-09-24
  _audit_creation_method            'ToBaCCo'
  _symmetry_space_group_name_H-M    'P1'
  _symmetry_Int_Tables_number       1
  _symmetry_cell_setting            triclinic
  loop_
  _symmetry_equiv_pos_as_xyz
 x,y,z
_cell_length_a 63.5908
_cell_length_b 64.3156
_cell_length_c 64.4682
_cell_angle_alpha 90.650500
_cell_angle_beta 90.768500
_cell_angle_gamma 89.676700
loop_
  _atom_site_label
  _atom_site_type_symbol
  _atom_site_fract_x
  _atom_site_fract_y
  _atom_site_fract_z
C1 C 0.34903 0.33089 0.35592
 N2 N 0.34735 0.34885 0.34513
 C3 C 0.33104 0.36224 0.34846
 N4 N 0.31626 0.35742 0.36270
 C5 C 0.31777 0.33948 0.37361
 N6 N 0.33419 0.32639 0.37008
 C7 C 0.35275 0.82580 -0.15575
 N8 N 0.34334 0.82011 -0.13783
 C9 C 0.33222 0.83398 -0.12643
 N10 N 0.33022 0.85371 -0.13323
 C11 C 0.33848 0.85965 -0.15155
 N12 N 0.34991 0.84560 -0.16284
 C13 C 0.86274 0.33983 -0.14306
 N14 N 0.85984 0.35756 -0.15397
 C15 C 0.84117 0.36790 -0.15370
 N16 N 0.82548 0.36040 -0.14189
 C17 C 0.82815 0.34280 -0.13058
 N18 N 0.84686 0.33238 -0.13136
 C19 C 0.84860 0.82598 0.33185
 N20 N 0.83451 0.82322 0.34729
 C21 C 0.81659 0.83483 0.34815
 N22 N 0.81299 0.84952 0.33350
 C23 C 0.82687 0.85250 0.31800
 N24 N 0.84453 0.84058 0.31722
 C25 C 0.63670 0.65324 0.32056
 N26 N 0.64034 0.66467 0.33803
 C27 C 0.64883 0.65580 0.35527
 N28 N 0.65349 0.63509 0.35516
 C29 C 0.64941 0.62350 0.33778
 N30 N 0.64104 0.63263 0.32069
 C31 C 0.63323 0.16762 -0.18491
 N32 N 0.64735 0.15181 -0.18692
 C33 C 0.66251 0.14852 -0.17228
 N34 N 0.66342 0.16133 -0.15542
 C35 C 0.64948 0.17719 -0.15300
 N36 N 0.63441 0.18028 -0.16782
 C37 C 0.11391 0.66306 -0.17089
 N38 N 0.12501 0.67688 -0.15923
 C39 C 0.14419 0.67177 -0.15119
 N40 N 0.15267 0.65268 -0.15551
 C41 C 0.14157 0.63860 -0.16717
 N42 N 0.12215 0.64393 -0.17447
 C43 C 0.12766 0.15736 0.32925
 N44 N 0.12987 0.16855 0.34718
 C45 C 0.14479 0.16334 0.36152
 N46 N 0.15779 0.14696 0.35767
 C47 C 0.15585 0.13556 0.33989
 N48 N 0.14063 0.14083 0.32588
 C49 C 0.66110 0.32769 0.66056
 N50 N 0.66563 0.34417 0.67313
 C51 C 0.68447 0.35388 0.67196
 N52 N 0.69891 0.34680 0.65819
 C53 C 0.69468 0.33021 0.64562
 N54 N 0.67564 0.32083 0.64678
 C55 C 0.63078 0.85600 1.14376
 N56 N 0.64579 0.84348 1.13517
 C57 C 0.66565 0.85075 1.13256
 N58 N 0.67049 0.87036 1.13898
 C59 C 0.65576 0.88294 1.14753
 N60 N 0.63599 0.87567 1.14973
 C61 C 0.15507 0.32956 1.14654
 N62 N 0.16080 0.34407 1.16100
 C63 C 0.17771 0.35647 1.15832
 N64 N 0.18903 0.35421 1.14075
 C65 C 0.18373 0.33972 1.12612
 N66 N 0.16674 0.32738 1.12910
 C67 C 0.14694 0.81555 0.65276
 N68 N 0.15527 0.82860 0.66728
 C69 C 0.17238 0.84049 0.66329
 N70 N 0.18141 0.83904 0.64420
 C71 C 0.17311 0.82590 0.62953
 N72 N 0.15601 0.81437 0.63397
 C73 C 0.38577 0.67111 0.66833
 N74 N 0.37402 0.65952 0.68120
 C75 C 0.35472 0.65274 0.67529
 N76 N 0.34739 0.65725 0.65604
 C77 C 0.35889 0.66888 0.64293
 N78 N 0.37819 0.67597 0.64911
 C79 C 0.35334 0.16593 1.15723
 N80 N 0.34289 0.14921 1.16501
 C81 C 0.32806 0.13920 1.15304
 N82 N 0.32439 0.14578 1.13338
 C83 C 0.33470 0.16207 1.12549
 N84 N 0.34890 0.17216 1.13754
 C85 C 0.84988 0.64551 1.19778
 N86 N 0.84789 0.65349 1.17825
 C87 C 0.83130 0.64803 1.16590
 N88 N 0.81653 0.63516 1.17327
 C89 C 0.81802 0.62709 1.19252
 N90 N 0.83498 0.63204 1.20463
 C91 C 0.86472 0.15314 0.68252
 N92 N 0.85716 0.13445 0.68859
 C93 C 0.84843 0.12112 0.67429
 N94 N 0.84745 0.12682 0.65399
 C95 C 0.85527 0.14530 0.64794
 N96 N 0.86376 0.15837 0.66226
 C97 C 0.33076 0.38131 0.64475
 N98 N 0.34842 0.37540 0.65540
 C99 C 0.35870 0.35758 0.65012
 N100 N 0.35113 0.34576 0.63427
 C101 C 0.33357 0.35126 0.62357
 N102 N 0.32334 0.36912 0.62884
 C103 C 0.32130 0.85373 0.16187
 N104 N 0.33867 0.84868 0.17327
 C105 C 0.34899 0.83045 0.16986
 N106 N 0.34170 0.81717 0.15495
 C107 C 0.32431 0.82190 0.14348
 N108 N 0.31420 0.84025 0.14700
 C109 C 0.83184 0.37258 0.14993
 N110 N 0.82126 0.35888 0.13745
 C111 C 0.83064 0.34070 0.13149
 N112 N 0.85046 0.33624 0.13846
 C113 C 0.86106 0.34982 0.15093
 N114 N 0.85164 0.36792 0.15647
 C115 C 0.82486 0.86462 0.65848
 N116 N 0.84517 0.85830 0.65842
 C117 C 0.85323 0.84807 0.64186
 N118 N 0.84076 0.84379 0.62506
 C119 C 0.82036 0.85048 0.62479
 N120 N 0.81257 0.86095 0.64151
 C121 C 0.67874 0.65435 0.66996
 N122 N 0.66709 0.66249 0.68563
 C123 C 0.65549 0.68005 0.68289
 N124 N 0.65558 0.68950 0.66419
 C125 C 0.66731 0.68178 0.64838
 N126 N 0.67890 0.66417 0.65133
 C127 C 0.66508 0.15226 0.17261
 N128 N 0.66720 0.16088 0.15360
 C129 C 0.65098 0.17196 0.14503
 N130 N 0.63267 0.17416 0.15564
 C131 C 0.63044 0.16525 0.17445
 N132 N 0.64672 0.15445 0.18282
 C133 C 0.15064 0.61879 0.15309
 N134 N 0.13493 0.62473 0.16581
 C135 C 0.12431 0.64276 0.16296
 N136 N 0.12936 0.65490 0.14669
 C137 C 0.14506 0.64912 0.13354
 N138 N 0.15589 0.63105 0.13693
 C139 C 0.14930 0.12719 0.67542
 N140 N 0.13261 0.13901 0.68155
 C141 C 0.12775 0.15705 0.67174
 N142 N 0.13975 0.16319 0.65566
 C143 C 0.15649 0.15165 0.64937
 N144 N 0.16119 0.13366 0.65937
 C145 C 0.35163 0.64363 0.32417
 N146 N 0.37099 0.64485 0.31548
 C147 C 0.38635 0.65627 0.32501
 N148 N 0.38219 0.66655 0.34299
 C149 C 0.36294 0.66570 0.35163
 N150 N 0.34774 0.65419 0.34214
 C151 C 0.33383 0.14191 0.81676
 N152 N 0.34898 0.14614 0.80268
 C153 C 0.36274 0.16200 0.80625
 N154 N 0.36124 0.17342 0.82397
 C155 C 0.34626 0.16942 0.83807
 N156 N 0.33255 0.15373 0.83433
 C157 C 0.83970 0.65619 0.83084
 N158 N 0.84990 0.67225 0.82213
 C159 C 0.85432 0.68981 0.83302
 N160 N 0.84862 0.69119 0.85318
 C161 C 0.83810 0.67535 0.86212
 N162 N 0.83366 0.65775 0.85098
 C163 C 0.86180 0.13607 0.32586
 N164 N 0.85077 0.13981 0.34341
 C165 C 0.85378 0.15758 0.35465
 N166 N 0.86790 0.17177 0.34804
 C167 C 0.87896 0.16828 0.33044
 N168 N 0.87581 0.15040 0.31948
 C169 C 0.65981 0.33140 0.34686
 N170 N 0.67225 0.32913 0.36393
 C171 C 0.66819 0.31426 0.37811
 N172 N 0.65138 0.30150 0.37512
 C173 C 0.63862 0.30375 0.35817
 N174 N 0.64303 0.31867 0.34413
 C175 C 0.66291 0.87095 0.87009
 N176 N 0.67782 0.86094 0.88142
 C177 C 0.67366 0.84256 0.89071
 N178 N 0.65419 0.83391 0.88827
 C179 C 0.63907 0.84398 0.87696
 N180 N 0.64358 0.86241 0.86807
 C181 C 0.17197 0.36775 0.81709
 N182 N 0.15522 0.35470 0.81562
 C183 C 0.15296 0.33916 0.82956
 N184 N 0.16754 0.33688 0.84495
 C185 C 0.18427 0.34979 0.84662
 N186 N 0.18638 0.36513 0.83261
 C187 C 0.17706 0.85546 0.33919
 N188 N 0.18155 0.84765 0.35809
 C189 C 0.17024 0.83201 0.36606
 N190 N 0.15391 0.82382 0.35489
 C191 C 0.14886 0.83175 0.33586
 N192 N 0.16055 0.84760 0.32814
 O193 O 0.25401 1.02150 0.27618
 O194 O 0.27399 0.98306 0.23803
 O195 O 0.27321 1.02377 0.24068
 O196 O 0.25693 0.98114 0.27418
 O197 O 0.22577 0.98002 0.25877
 O198 O 0.24221 1.02263 0.22493
 O199 O 0.24276 0.98254 0.22267
 O200 O 0.22306 1.02063 0.26031
 Cu201 Cu 0.26766 1.00251 0.25884
 Cu202 Cu 0.23030 1.00149 0.24019
 C203 C 0.23501 1.02765 0.27463
 C204 C 0.26162 0.97613 0.22392
 C205 C 0.26051 1.03035 0.22687
 C206 C 0.23883 0.97310 0.27216
 O207 O 0.23996 0.52854 0.77106
 O208 O 0.27105 0.49774 0.73289
 O209 O 0.27215 0.53623 0.74760
 O210 O 0.24048 0.49058 0.75763
 O211 O 0.21813 0.49886 0.73254
 O212 O 0.25028 0.54560 0.72251
 O213 O 0.24890 0.50736 0.70815
 O214 O 0.21782 0.53673 0.74569
 Cu215 Cu 0.25831 0.51255 0.75471
 Cu216 Cu 0.23171 0.52325 0.72465
 C217 C 0.22306 0.53719 0.76473
 C218 C 0.26483 0.49693 0.71403
 C219 C 0.26671 0.54883 0.73354
 C220 C 0.22394 0.48680 0.74708
 O221 O 0.74443 0.03287 0.24165
 O222 O 0.76763 -0.01737 0.25584
 O223 O 0.77774 0.02154 0.26122
 O224 O 0.73376 -0.00574 0.23549
 O225 O 0.75178 -0.00757 0.20649
 O226 O 0.79486 0.02156 0.23167
 O227 O 0.78587 -0.01775 0.22699
 O228 O 0.76069 0.03188 0.21159
 Cu229 Cu 0.75408 0.00773 0.25146
 Cu230 Cu 0.77503 0.00688 0.21620
 C231 C 0.74871 0.04110 0.22442
 C232 C 0.78097 -0.02606 0.24405
 C233 C 0.79357 0.02673 0.25069
 C234 C 0.73533 -0.01146 0.21665
 O235 O 0.76972 0.48947 0.77479
 O236 O 0.74037 0.52840 0.74291
 O237 O 0.73654 0.48836 0.75031
 O238 O 0.77052 0.52971 0.77047
 O239 O 0.79194 0.52504 0.74416
 O240 O 0.75871 0.48184 0.72503
 O241 O 0.76162 0.52145 0.71696
 O242 O 0.79177 0.48525 0.74891
 Cu243 Cu 0.75201 0.50945 0.76212
 Cu244 Cu 0.77808 0.50284 0.73115
 C245 C 0.78617 0.48109 0.76718
 C246 C 0.74628 0.53159 0.72439
 C247 C 0.74188 0.47772 0.73457
 C248 C 0.78693 0.53463 0.76077
 O249 O 0.26287 0.48439 0.27780
 O250 O 0.22642 0.51441 0.24460
 O251 O 0.22982 0.47717 0.25442
 O252 O 0.25305 0.52529 0.27333
 O253 O 0.27783 0.52398 0.24972
 O254 O 0.25261 0.47581 0.22893
 O255 O 0.25088 0.51642 0.22068
 O256 O 0.28629 0.48472 0.25290
 Cu257 Cu 0.24152 0.50047 0.26544
 Cu258 Cu 0.26890 0.49966 0.23565
 C259 C 0.28061 0.47877 0.27064
 C260 C 0.23239 0.52025 0.22681
 C261 C 0.23674 0.46838 0.23821
 C262 C 0.26903 0.53314 0.26496
 O263 O 0.75592 1.01939 0.79242
 O264 O 0.77527 0.97117 0.76887
 O265 O 0.78226 1.01062 0.76291
 O266 O 0.74747 0.98011 0.79675
 O267 O 0.72219 0.98263 0.77308
 O268 O 0.75703 1.01089 0.73902
 O269 O 0.74985 0.97209 0.74524
 O270 O 0.73105 1.02152 0.76834
 Cu271 Cu 0.76778 0.99519 0.78262
 Cu272 Cu 0.73748 0.99696 0.75407
 C273 C 0.74021 1.02875 0.78452
 C274 C 0.76600 0.96332 0.75312
 C275 C 0.77550 1.01559 0.74496
 C276 C 0.72874 0.97641 0.79061
 O277 O 0.72088 0.49556 0.28741
 O278 O 0.75537 0.46754 0.25149
 O279 O 0.74767 0.50595 0.25987
 O280 O 0.72701 0.45567 0.27892
 O281 O 0.70269 0.45621 0.25423
 O282 O 0.72227 0.50584 0.23621
 O283 O 0.73042 0.46731 0.22731
 O284 O 0.69543 0.49491 0.26376
 Cu285 Cu 0.74019 0.48076 0.27200
 Cu286 Cu 0.71018 0.48100 0.24304
 C287 C 0.70242 0.50045 0.28154
 C288 C 0.74913 0.46329 0.23316
 C289 C 0.73819 0.51446 0.24463
 C290 C 0.71123 0.44743 0.26969
 O291 O 0.25107 -0.02792 0.78579
 O292 O 0.21164 0.00152 0.75638
 O293 O 0.22095 -0.03778 0.75991
 O294 O 0.24180 0.01064 0.78170
 O295 O 0.26488 0.01234 0.75654
 O296 O 0.24172 -0.03558 0.73295
 O297 O 0.23386 0.00506 0.73069
 O298 O 0.27283 -0.02766 0.75939
 Cu299 Cu 0.22914 -0.01376 0.77342
 Cu300 Cu 0.25547 -0.01139 0.74214
 C301 C 0.26865 -0.03269 0.77791
 C302 C 0.21617 0.00908 0.73891
 C303 C 0.22753 -0.04504 0.74279
 C304 C 0.25696 0.01977 0.77310
 O305 O 0.28504 0.29663 0.96621
 O306 O 0.30462 0.25863 1.00508
 O307 O 0.30986 0.26449 0.96576
 O308 O 0.28220 0.29299 1.00623
 O309 O 0.25417 0.27332 1.00169
 O310 O 0.28175 0.24544 0.95923
 O311 O 0.27673 0.23930 0.99831
 O312 O 0.25675 0.27733 0.96177
 Cu313 Cu 0.29821 0.28015 0.98650
 Cu314 Cu 0.26451 0.25695 0.97978
 C315 C 0.26734 0.29325 0.95735
 C316 C 0.29408 0.24211 1.00774
 C317 C 0.30070 0.25024 0.95542
 C318 C 0.26355 0.28831 1.01089
 O319 O 0.27116 0.77622 0.48011
 O320 O 0.29971 0.74369 0.51829
 O321 O 0.30426 0.75105 0.47855
 O322 O 0.26966 0.77112 0.51938
 O323 O 0.24662 0.74670 0.51109
 O324 O 0.28244 0.72524 0.47180
 O325 O 0.27710 0.71858 0.51140
 O326 O 0.25026 0.74996 0.47195
 Cu327 Cu 0.28865 0.76294 0.49957
 Cu328 Cu 0.26210 0.73234 0.49108
 C329 C 0.25550 0.76880 0.46999
 C330 C 0.29290 0.72548 0.52151
 C331 C 0.29943 0.73479 0.46825
 C332 C 0.25176 0.76290 0.52145
 O333 O 0.25763 0.74699 -0.01893
 O334 O 0.22208 0.71577 0.01397
 O335 O 0.22487 0.72333 -0.02615
 O336 O 0.25639 0.73692 0.02005
 O337 O 0.23611 0.76425 0.02591
 O338 O 0.20590 0.75182 -0.02182
 O339 O 0.20185 0.74351 0.01759
 O340 O 0.23802 0.77464 -0.01229
 Cu341 Cu 0.24212 0.72789 -0.00335
 Cu342 Cu 0.21833 0.76118 0.00287
 C343 C 0.25397 0.76640 -0.02068
 C344 C 0.20583 0.72461 0.02145
 C345 C 0.21037 0.73551 -0.03225
 C346 C 0.25178 0.75287 0.03085
 O347 O 0.24738 0.25434 0.48097
 O348 O 0.23154 0.21864 0.52180
 O349 O 0.21994 0.22498 0.48337
 O350 O 0.25820 0.24898 0.51906
 O351 O 0.23425 0.27159 0.52948
 O352 O 0.19575 0.24751 0.49339
 O353 O 0.20732 0.24091 0.53224
 O354 O 0.22341 0.27712 0.49101
 Cu355 Cu 0.24156 0.23437 0.50037
 Cu356 Cu 0.21264 0.26143 0.51265
 C357 C 0.23837 0.27190 0.47907
 C358 C 0.21689 0.22359 0.53412
 C359 C 0.20143 0.23237 0.48190
 C360 C 0.25299 0.26464 0.53005
 O361 O 0.77368 0.77058 1.00041
 O362 O 0.79460 0.73597 1.04109
 O363 O 0.79729 0.73731 1.00125
 O364 O 0.77135 0.76892 1.04087
 O365 O 0.74293 0.74949 1.03828
 O366 O 0.76835 0.71901 0.99620
 O367 O 0.76682 0.71590 1.03635
 O368 O 0.74468 0.75204 0.99782
 Cu369 Cu 0.78698 0.75527 1.02116
 Cu370 Cu 0.75277 0.73220 1.01694
 C371 C 0.75569 0.76730 0.99217
 C372 C 0.78438 0.71968 1.04524
 C373 C 0.78738 0.72284 0.99191
 C374 C 0.75298 0.76447 1.04673
 O375 O 0.77824 0.26468 0.48798
 O376 O 0.81077 0.23145 0.52123
 O377 O 0.80156 0.23190 0.48194
 O378 O 0.78679 0.26384 0.52732
 O379 O 0.75908 0.24402 0.53188
 O380 O 0.77480 0.21115 0.48760
 O381 O 0.78348 0.21148 0.52722
 O382 O 0.75108 0.24399 0.49213
 Cu383 Cu 0.79708 0.24998 0.50412
 Cu384 Cu 0.76437 0.22560 0.51025
 C385 C 0.75918 0.26005 0.48423
 C386 C 0.80279 0.21587 0.53001
 C387 C 0.79078 0.21595 0.47711
 C388 C 0.77023 0.25957 0.53719
 O389 O 0.74637 0.26237 -0.02347
 O390 O 0.71676 0.23210 0.01535
 O391 O 0.71450 0.23731 -0.02481
 O392 O 0.75000 0.25541 0.01642
 O393 O 0.72944 0.28242 0.02268
 O394 O 0.69375 0.26448 -0.01999
 O395 O 0.69575 0.25917 0.01990
 O396 O 0.72552 0.28917 -0.01722
 Cu397 Cu 0.73401 0.24413 -0.00462
 Cu398 Cu 0.70911 0.27653 0.00202
 C399 C 0.74054 0.28096 -0.02718
 C400 C 0.70097 0.24061 0.02401
 C401 C 0.69827 0.24778 -0.02979
 C402 C 0.74588 0.27174 0.02681
 O403 O 0.68930 0.76121 0.47262
 O404 O 0.71849 0.79544 0.50817
 O405 O 0.71578 0.79133 0.46829
 O406 O 0.69190 0.76558 0.51244
 O407 O 0.71785 0.74272 0.51359
 O408 O 0.74225 0.76905 0.46886
 O409 O 0.74479 0.77298 0.50941
 O410 O 0.71536 0.73844 0.47289
 Cu411 Cu 0.70130 0.78060 0.49027
 Cu412 Cu 0.73271 0.75348 0.49122
 C413 C 0.69715 0.74402 0.46662
 C414 C 0.73652 0.79017 0.51501
 C415 C 0.73308 0.78481 0.46101
 C416 C 0.70064 0.74986 0.52068
 O417 O 1.03193 0.27579 0.22105
 O418 O 0.99047 0.26072 0.25674
 O419 O 1.02880 0.24884 0.25057
 O420 O 0.99302 0.28709 0.22660
 O421 O 0.98173 0.26314 0.20443
 O422 O 1.01866 0.22531 0.22741
 O423 O 0.98013 0.23635 0.23456
 O424 O 1.02103 0.25249 0.19803
 Cu425 Cu 1.01213 0.27056 0.24093
 Cu426 Cu 0.99924 0.24200 0.21377
 C427 C 1.03371 0.26679 0.20354
 C428 C 0.97843 0.24570 0.25196
 C429 C 1.02986 0.23052 0.24306
 C430 C 0.98109 0.28161 0.21157
 O431 O 0.47831 0.26255 0.69310
 O432 O 0.51748 0.22321 0.71162
 O433 O 0.47644 0.22573 0.70988
 O434 O 0.51814 0.25521 0.68712
 O435 O 0.52370 0.27279 0.71620
 O436 O 0.47946 0.24318 0.73937
 O437 O 0.52019 0.24132 0.74076
 O438 O 0.48351 0.28001 0.72232
 Cu439 Cu 0.49715 0.24001 0.69767
 Cu440 Cu 0.50198 0.26111 0.73237
 C441 C 0.47455 0.27826 0.70481
 C442 C 0.52551 0.22587 0.72973
 C443 C 0.47072 0.22894 0.72833
 C444 C 0.52842 0.26866 0.69739
 O445 O -0.01851 0.27449 0.78429
 O446 O 0.01199 0.24811 0.74390
 O447 O -0.02797 0.25083 0.75277
 O448 O 0.02092 0.27102 0.77615
 O449 O 0.02252 0.24368 0.79648
 O450 O -0.02469 0.22204 0.77086
 O451 O 0.01584 0.22051 0.76361
 O452 O -0.01792 0.24600 0.80317
 Cu453 Cu -0.00368 0.26382 0.76223
 Cu454 Cu -0.00082 0.23020 0.78545
 C455 C -0.02358 0.26480 0.80048
 C456 C 0.01963 0.23009 0.74691
 C457 C -0.03468 0.23303 0.75776
 C458 C 0.02992 0.26092 0.79060
 O459 O 0.50516 0.22148 0.30356
 O460 O 0.46206 0.20783 0.26610
 O461 O 0.50232 0.20038 0.26900
 O462 O 0.46450 0.22799 0.30165
 O463 O 0.46976 0.25698 0.28458
 O464 O 0.50892 0.22914 0.25203
 O465 O 0.46884 0.23673 0.24946
 O466 O 0.51032 0.25043 0.28641
 Cu467 Cu 0.48286 0.21157 0.28683
 Cu468 Cu 0.48998 0.24622 0.26647
 C469 C 0.51522 0.23833 0.30110
 C470 C 0.45839 0.22012 0.25111
 C471 C 0.51225 0.20987 0.25507
 C472 C 0.46050 0.24709 0.29877
 O473 O 0.99728 0.72737 0.73534
 O474 O 0.96789 0.76301 0.70185
 O475 O 1.00672 0.74969 0.70334
 O476 O 0.95996 0.74357 0.73599
 O477 O 0.97024 0.77020 0.75539
 O478 O 1.01690 0.77572 0.72359
 O479 O 0.97857 0.78965 0.72105
 O480 O 1.00769 0.75349 0.75538
 Cu481 Cu 0.98192 0.74330 0.71713
 Cu482 Cu 0.99432 0.77494 0.74080
 C483 C 1.00741 0.73413 0.75106
 C484 C 0.96817 0.78238 0.70562
 C485 C 1.01993 0.76380 0.70813
 C486 C 0.95725 0.75578 0.75141
 O487 O 0.52566 0.77865 0.22634
 O488 O 0.49956 0.74026 0.25856
 O489 O 0.53767 0.74619 0.24749
 O490 O 0.48796 0.77389 0.23940
 O491 O 0.48196 0.75562 0.21078
 O492 O 0.53073 0.72563 0.22068
 O493 O 0.49144 0.72165 0.23059
 O494 O 0.52101 0.75850 0.19869
 Cu495 Cu 0.51341 0.76171 0.24568
 Cu496 Cu 0.50568 0.73844 0.21229
 C497 C 0.52782 0.77514 0.20707
 C498 C 0.49096 0.72447 0.25011
 C499 C 0.54239 0.73071 0.23608
 C500 C 0.47658 0.76981 0.22360
 O501 O 0.02455 0.74260 0.29192
 O502 O -0.01918 0.70697 0.27777
 O503 O 0.02074 0.70791 0.27050
 O504 O -0.01569 0.74020 0.30027
 O505 O -0.02348 0.75828 0.27232
 O506 O 0.01467 0.72637 0.24239
 O507 O -0.02546 0.72500 0.24943
 O508 O 0.01701 0.76100 0.26414
 Cu509 Cu 0.00345 0.72270 0.28793
 Cu510 Cu -0.00484 0.74467 0.25435
 C511 C 0.02824 0.75796 0.28028
 C512 C -0.02980 0.70995 0.26117
 C513 C 0.02376 0.71123 0.25142
 C514 C -0.02648 0.75420 0.29133
 O515 O 0.52545 0.75417 0.80962
 O516 O 0.49905 0.72191 0.76946
 O517 O 0.53746 0.72944 0.78049
 O518 O 0.48607 0.74589 0.79940
 O519 O 0.48541 0.77273 0.77840
 O520 O 0.53711 0.75511 0.75804
 O521 O 0.49754 0.74870 0.74834
 O522 O 0.52480 0.78060 0.78802
 Cu523 Cu 0.51192 0.73531 0.79197
 Cu524 Cu 0.51134 0.76703 0.76611
 C525 C 0.52984 0.77289 0.80545
 C526 C 0.49365 0.72981 0.75217
 C527 C 0.54604 0.73921 0.76593
 C528 C 0.47669 0.76174 0.79210
 C529 C 0.39569 0.30337 0.33160
 C530 C 0.39806 0.28690 0.34484
 C531 C 0.38542 0.28413 0.36198
 C532 C 0.36954 0.29889 0.36559
 C533 C 0.36655 0.31605 0.35215
 C534 C 0.38003 0.31835 0.33496
 O535 O 0.40898 0.30264 0.31584
 C536 C 0.41993 0.28530 0.31924
 C537 C 0.41382 0.27514 0.33680
 C538 C 0.42258 0.25635 0.34299
 C539 C 0.43819 0.24753 0.33047
 C540 C 0.44479 0.25753 0.31214
 C541 C 0.43562 0.27687 0.30659
 H542 H 0.38753 0.27094 0.37209
 H543 H 0.35951 0.29679 0.37883
 H544 H 0.37811 0.33110 0.32427
 H545 H 0.41738 0.24860 0.35680
 H546 H 0.44501 0.23278 0.33503
 H547 H 0.44010 0.28478 0.29260
 C548 C 0.39780 0.80401 0.81452
 C549 C 0.39729 0.78381 0.82122
 C550 C 0.38169 0.77630 0.83389
 C551 C 0.36628 0.79033 0.84058
 C552 C 0.36649 0.81157 0.83452
 C553 C 0.38216 0.81824 0.82055
 O554 O 0.41509 0.80819 0.80393
 C555 C 0.42566 0.79025 0.80410
 C556 C 0.41532 0.77489 0.81448
 C557 C 0.42390 0.75532 0.81787
 C558 C 0.44404 0.75131 0.81027
 C559 C 0.45527 0.76677 0.79949
 C560 C 0.44579 0.78652 0.79618
 H561 H 0.38184 0.76037 0.83913
 H562 H 0.35446 0.78459 0.85099
 H563 H 0.38323 0.83432 0.81589
 H564 H 0.41553 0.74364 0.82639
 H565 H 0.45089 0.73610 0.81289
 H566 H 0.45403 0.79873 0.78826
 C567 C -0.09464 0.30110 0.84395
 C568 C -0.07712 0.31295 0.84827
 C569 C -0.07830 0.33288 0.85678
 C570 C -0.09835 0.34112 0.86062
 C571 C -0.11666 0.32935 0.85615
 C572 C -0.11479 0.30887 0.84812
 O573 O -0.09018 0.28360 0.83369
 C574 C -0.06945 0.28447 0.83144
 C575 C -0.06072 0.30211 0.84016
 C576 C -0.03972 0.30737 0.83772
 C577 C -0.02728 0.29413 0.82549
 C578 C -0.03591 0.27600 0.81617
 C579 C -0.05719 0.27084 0.81950
 H580 H -0.06434 0.34212 0.85948
 H581 H -0.09971 0.35695 0.86640
 H582 H -0.12858 0.29995 0.84377
 H583 H -0.03338 0.32164 0.84421
 H584 H -0.01112 0.29837 0.82259
 H585 H -0.06432 0.25756 0.81175
 C586 C -0.10094 0.80328 0.31343
 C587 C -0.09591 0.79053 0.32973
 C588 C -0.10861 0.78862 0.34698
 C589 C -0.12725 0.80040 0.34752
 C590 C -0.13278 0.81405 0.33105
 C591 C -0.11918 0.81543 0.31378
 O592 O -0.08729 0.80202 0.29804
 C593 C -0.07328 0.78820 0.30481
 C594 C -0.07777 0.78084 0.32419
 C595 C -0.06548 0.76595 0.33409
 C596 C -0.04806 0.75802 0.32343
 C597 C -0.04335 0.76484 0.30310
 C598 C -0.05607 0.78043 0.29382
 H599 H -0.10444 0.77824 0.35949
 H600 H -0.13723 0.79892 0.36090
 H601 H -0.12279 0.82534 0.30073
 H602 H -0.06938 0.76035 0.34933
 H603 H -0.03866 0.74606 0.33082
 H604 H -0.05310 0.78585 0.27830
 C605 C 0.60701 0.69080 0.28637
 C606 C 0.60465 0.67912 0.26848
 C607 C 0.61320 0.65929 0.26630
 C608 C 0.62437 0.65111 0.28331
 C609 C 0.62669 0.66275 0.30208
 C610 C 0.61815 0.68307 0.30336
 O611 O 0.59625 0.70849 0.28602
 C612 C 0.58679 0.70795 0.26759
 C613 C 0.59140 0.69036 0.25616
 C614 C 0.58170 0.68592 0.23715
 C615 C 0.56628 0.69992 0.22990
 C616 C 0.56089 0.71787 0.24175
 C617 C 0.57179 0.72211 0.26060
 H618 H 0.61084 0.65020 0.25223
 H619 H 0.63077 0.63552 0.28199
 H620 H 0.61921 0.69227 0.31751
 H621 H 0.58528 0.67179 0.22859
 H622 H 0.55800 0.69633 0.21554
 H623 H 0.56780 0.73537 0.27031
 C624 C 0.58869 0.19084 0.78558
 C625 C 0.58845 0.17851 0.76800
 C626 C 0.60242 0.16204 0.76527
 C627 C 0.61722 0.15827 0.78123
 C628 C 0.61793 0.17101 0.79950
 C629 C 0.60319 0.18746 0.80155
 O630 O 0.57451 0.20594 0.78512
 C631 C 0.56514 0.20316 0.76686
 C632 C 0.57297 0.18664 0.75564
 C633 C 0.56553 0.18162 0.73574
 C634 C 0.54953 0.19428 0.72712
 C635 C 0.54145 0.21149 0.73852
 C636 C 0.54937 0.21569 0.75875
 H637 H 0.60208 0.15254 0.75131
 H638 H 0.62823 0.14554 0.77912
 H639 H 0.60305 0.19764 0.81504
 H640 H 0.57200 0.16862 0.72707
 H641 H 0.54371 0.19088 0.71160
 H642 H 0.54377 0.22871 0.76798
 C643 C 1.07017 0.69537 0.80555
 C644 C 1.05752 0.68000 0.79734
 C645 C 1.06183 0.65895 0.79981
 C646 C 1.08012 0.65351 0.81093
 C647 C 1.09364 0.66907 0.81932
 C648 C 1.08831 0.69032 0.81686
 O649 O 1.06400 0.71437 0.80026
 C650 C 1.04712 0.71090 0.78840
 C651 C 1.04250 0.69012 0.78616
 C652 C 1.02631 0.68286 0.77340
 C653 C 1.01453 0.69760 0.76230
 C654 C 1.01908 0.71915 0.76414
 C655 C 1.03545 0.72588 0.77766
 H656 H 1.05178 0.64714 0.79295
 H657 H 1.08393 0.63719 0.81263
 H658 H 1.09847 0.70258 0.82267
 H659 H 1.02316 0.66640 0.77168
 H660 H 1.00205 0.69216 0.75206
 H661 H 1.03956 0.74215 0.77912
 C662 C 1.08751 0.18792 0.30012
 C663 C 1.08503 0.17560 0.28271
 C664 C 1.09578 0.15694 0.27998
 C665 C 1.10984 0.15081 0.29575
 C666 C 1.11281 0.16324 0.31400
 C667 C 1.10112 0.18200 0.31615
 O668 O 1.07636 0.20541 0.29936
 C669 C 1.06661 0.20408 0.28107
 C670 C 1.07128 0.18610 0.27030
 C671 C 1.06289 0.18163 0.25073
 C672 C 1.04911 0.19631 0.24192
 C673 C 1.04420 0.21510 0.25263
 C674 C 1.05313 0.21896 0.27253
 H675 H 1.09366 0.14757 0.26607
 H676 H 1.11844 0.13639 0.29358
 H677 H 1.10294 0.19211 0.32960
 H678 H 1.06683 0.16739 0.24254
 H679 H 1.04246 0.19312 0.22667
 H680 H 1.04968 0.23308 0.28116
 C681 C 0.60843 0.30926 0.67942
 C682 C 0.60050 0.30044 0.66148
 C683 C 0.61158 0.29961 0.64304
 C684 C 0.63170 0.30838 0.64303
 C685 C 0.64017 0.31796 0.66119
 C686 C 0.62829 0.31845 0.67966
 O687 O 0.59564 0.30745 0.69547
 C688 C 0.57925 0.29730 0.68740
 C689 C 0.58148 0.29285 0.66662
 C690 C 0.56659 0.28202 0.65502
 C691 C 0.54881 0.27504 0.66531
 C692 C 0.54624 0.27873 0.68695
 C693 C 0.56159 0.29041 0.69809
 H694 H 0.60504 0.29232 0.62921
 H695 H 0.64054 0.30797 0.62879
 H696 H 0.63445 0.32544 0.69382
 H697 H 0.56874 0.27873 0.63868
 H698 H 0.53728 0.26627 0.65640
 H699 H 0.56025 0.29331 0.71459
 C700 C 0.58760 0.81989 0.15670
 C701 C 0.57335 0.83389 0.16469
 C702 C 0.57636 0.85521 0.16444
 C703 C 0.59516 0.86247 0.15625
 C704 C 0.61072 0.84843 0.14856
 C705 C 0.60634 0.82678 0.14805
 O706 O 0.58262 0.80025 0.16047
 C707 C 0.56499 0.80198 0.17121
 C708 C 0.55871 0.82229 0.17420
 C709 C 0.54214 0.82797 0.18695
 C710 C 0.53173 0.81207 0.19726
 C711 C 0.53786 0.79103 0.19448
 C712 C 0.55445 0.78582 0.18094
 H713 H 0.56504 0.86588 0.17114
 H714 H 0.59780 0.87909 0.15667
 H715 H 0.61785 0.81550 0.14277
 H716 H 0.53791 0.84411 0.18951
 H717 H 0.51912 0.81614 0.20772
 H718 H 0.55980 0.76990 0.17914
 C719 C 1.10784 0.30779 0.17118
 C720 C 1.10171 0.29314 0.15669
 C721 C 1.11269 0.28969 0.13842
 C722 C 1.13064 0.30187 0.13500
 C723 C 1.13725 0.31719 0.14981
 C724 C 1.12546 0.31998 0.16817
 O725 O 1.09554 0.30871 0.18758
 C726 C 1.08127 0.29431 0.18342
 C727 C 1.08422 0.28426 0.16472
 C728 C 1.07096 0.26849 0.15760
 C729 C 1.05412 0.26286 0.17032
 C730 C 1.05093 0.27301 0.18973
 C731 C 1.06476 0.28903 0.19620
 H732 H 1.10765 0.27804 0.12720
 H733 H 1.13927 0.29932 0.12083
 H734 H 1.12974 0.33136 0.17998
 H735 H 1.07353 0.26073 0.14286
 H736 H 1.04372 0.25053 0.16512
 H737 H 1.06291 0.29711 0.21089
 C738 C 1.10010 0.79501 0.67917
 C739 C 1.09242 0.78153 0.66422
 C740 C 1.10227 0.77836 0.64534
 C741 C 1.12067 0.78963 0.64168
 C742 C 1.12894 0.80378 0.65688
 C743 C 1.11843 0.80619 0.67601
 O744 O 1.08802 0.79647 0.69569
 C745 C 1.07236 0.78365 0.69109
 C746 C 1.07427 0.77402 0.67206
 C747 C 1.05921 0.76034 0.66410
 C748 C 1.04142 0.75661 0.67622
 C749 C 1.03902 0.76669 0.69575
 C750 C 1.05490 0.78025 0.70326
 H751 H 1.09586 0.76780 0.63372
 H752 H 1.12829 0.78737 0.62690
 H753 H 1.12394 0.81685 0.68799
 H754 H 1.06098 0.75300 0.64902
 H755 H 1.02939 0.74622 0.67023
 H756 H 1.05362 0.78824 0.71807
 C757 C 0.43186 0.70022 0.69100
 C758 C 0.44453 0.68370 0.69657
 C759 C 0.43981 0.66323 0.69131
 C760 C 0.42095 0.65954 0.68043
 C761 C 0.40733 0.67619 0.67500
 C762 C 0.41308 0.69689 0.67988
 O763 O 0.43823 0.71816 0.69926
 C764 C 0.45514 0.71282 0.71037
 C765 C 0.45959 0.69188 0.70930
 C766 C 0.47521 0.68255 0.72139
 C767 C 0.48665 0.69529 0.73523
 C768 C 0.48246 0.71693 0.73656
 C769 C 0.46667 0.72585 0.72370
 H770 H 0.44976 0.65047 0.69628
 H771 H 0.41639 0.64363 0.67712
 H772 H 0.40249 0.70973 0.67669
 H773 H 0.47804 0.66595 0.72066
 H774 H 0.49860 0.68828 0.74507
 H775 H 0.46273 0.74222 0.72486
 C776 C 0.39143 0.18277 0.19891
 C777 C 0.39859 0.20064 0.19001
 C778 C 0.39156 0.20775 0.17099
 C779 C 0.37648 0.19594 0.16043
 C780 C 0.36837 0.17727 0.16895
 C781 C 0.37595 0.17072 0.18874
 O782 O 0.40106 0.17877 0.21697
 C783 C 0.41446 0.19454 0.21932
 C784 C 0.41333 0.20829 0.20319
 C785 C 0.42582 0.22577 0.20194
 C786 C 0.44027 0.22938 0.21800
 C787 C 0.44220 0.21553 0.23496
 C788 C 0.42898 0.19779 0.23566
 H789 H 0.39764 0.22185 0.16436
 H790 H 0.37117 0.20166 0.14551
 H791 H 0.37041 0.15658 0.19576
 H792 H 0.42456 0.23625 0.18895
 H793 H 0.45014 0.24299 0.21699
 H794 H 0.43007 0.18689 0.24830
 C795 C -0.10163 0.67157 0.21785
 C796 C -0.09945 0.66233 0.23688
 C797 C -0.11338 0.64744 0.24381
 C798 C -0.13026 0.64187 0.23063
 C799 C -0.13294 0.65108 0.21074
 C800 C -0.11814 0.66614 0.20438
 O801 O -0.08704 0.68577 0.21443
 C802 C -0.07538 0.68546 0.23167
 C803 C -0.08223 0.67134 0.24589
 C804 C -0.07237 0.66866 0.26509
 C805 C -0.05483 0.68115 0.26987
 C806 C -0.04761 0.69608 0.25557
 C807 C -0.05808 0.69809 0.23613
 H808 H -0.11144 0.64046 0.25892
 H809 H -0.14118 0.63034 0.23605
 H810 H -0.11952 0.67375 0.18952
 H811 H -0.07806 0.65747 0.27607
 H812 H -0.04713 0.67941 0.28483
 H813 H -0.05307 0.70931 0.22484
 C814 C -0.09948 0.17914 0.72158
 C815 C -0.10567 0.19952 0.71902
 C816 C -0.12255 0.20528 0.70642
 C817 C -0.13309 0.18947 0.69550
 C818 C -0.12672 0.16841 0.69743
 C819 C -0.11005 0.16306 0.71111
 O820 O -0.08184 0.17728 0.73269
 C821 C -0.07677 0.19688 0.73708
 C822 C -0.09085 0.21105 0.72903
 C823 C -0.08767 0.23240 0.73009
 C824 C -0.06917 0.23947 0.73982
 C825 C -0.05437 0.22521 0.74829
 C826 C -0.05840 0.20359 0.74712
 H827 H -0.12683 0.22144 0.70433
 H828 H -0.14569 0.19368 0.68485
 H829 H -0.10443 0.14719 0.71222
 H830 H -0.09878 0.24321 0.72322
 H831 H -0.06632 0.25605 0.74062
 H832 H -0.04717 0.19233 0.75303
 C833 C 0.30916 0.41134 0.32426
 C834 C 0.32573 0.41705 0.31213
 C835 C 0.34448 0.40586 0.31146
 C836 C 0.34619 0.38801 0.32373
 C837 C 0.32927 0.38166 0.33634
 C838 C 0.31055 0.39373 0.33668
 O839 O 0.29234 0.42345 0.32181
 C840 C 0.29842 0.43706 0.30780
 C841 C 0.31874 0.43385 0.30139
 C842 C 0.32788 0.44559 0.28596
 C843 C 0.31545 0.46100 0.27649
 C844 C 0.29430 0.46441 0.28256
 C845 C 0.28586 0.45245 0.29876
 H846 H 0.35723 0.41051 0.30161
 H847 H 0.36066 0.37908 0.32321
 H848 H 0.29721 0.38925 0.34586
 H849 H 0.34382 0.44262 0.28100
 H850 H 0.32215 0.46991 0.26408
 H851 H 0.26967 0.45432 0.30346
 C852 C 0.32381 -0.09614 0.81425
 C853 C 0.31871 -0.08159 0.82918
 C854 C 0.32132 -0.08501 0.85024
 C855 C 0.32888 -0.10446 0.85634
 C856 C 0.33420 -0.12009 0.84147
 C857 C 0.33246 -0.11545 0.81998
 O858 O 0.31725 -0.09069 0.79534
 C859 C 0.30780 -0.07239 0.79852
 C860 C 0.30848 -0.06617 0.81900
 C861 C 0.29786 -0.04877 0.82645
 C862 C 0.28565 -0.03744 0.81233
 C863 C 0.28419 -0.04357 0.79117
 C864 C 0.29586 -0.06104 0.78399
 H865 H 0.31661 -0.07350 0.86167
 H866 H 0.33017 -0.10744 0.87282
 H867 H 0.33556 -0.12718 0.80821
 H868 H 0.29827 -0.04454 0.84275
 H869 H 0.27676 -0.02418 0.81800
 H870 H 0.29446 -0.06643 0.76807
 C871 C 0.81597 0.41387 0.82114
 C872 C 0.83253 0.42087 0.80973
 C873 C 0.85219 0.41137 0.80997
 C874 C 0.85497 0.39383 0.82243
 C875 C 0.83817 0.38598 0.83442
 C876 C 0.81838 0.39645 0.83377
 O877 O 0.79837 0.42475 0.81799
 C878 C 0.80397 0.43888 0.80424
 C879 C 0.82474 0.43710 0.79873
 C880 C 0.83383 0.44957 0.78393
 C881 C 0.82095 0.46431 0.77413
 C882 C 0.79938 0.46645 0.77927
 C883 C 0.79084 0.45373 0.79484
 H884 H 0.86491 0.41712 0.80067
 H885 H 0.87026 0.38634 0.82251
 H886 H 0.80506 0.39102 0.84246
 H887 H 0.85017 0.44773 0.77975
 H888 H 0.82776 0.47394 0.76233
 H889 H 0.77438 0.45476 0.79884
 C890 C 0.80440 -0.10037 0.29079
 C891 C 0.81688 -0.09972 0.27355
 C892 C 0.83264 -0.11430 0.26978
 C893 C 0.83572 -0.13011 0.28440
 C894 C 0.82304 -0.13112 0.30236
 C895 C 0.80706 -0.11601 0.30543
 O896 O 0.79068 -0.08479 0.29180
 C897 C 0.79456 -0.07406 0.27483
 C898 C 0.81041 -0.08253 0.26307
 C899 C 0.81715 -0.07355 0.24480
 C900 C 0.80721 -0.05506 0.23845
 C901 C 0.79093 -0.04590 0.25043
 C902 C 0.78453 -0.05572 0.26886
 H903 H 0.84236 -0.11343 0.25616
 H904 H 0.84802 -0.14149 0.28172
 H905 H 0.79721 -0.11612 0.31899
 H906 H 0.82970 -0.08045 0.23582
 H907 H 0.81235 -0.04779 0.22435
 H908 H 0.77222 -0.04920 0.27843
 C909 C 0.31403 0.61561 0.69530
 C910 C 0.32061 0.61386 0.71561
 C911 C 0.33772 0.62467 0.72380
 C912 C 0.34862 0.63774 0.71047
 C913 C 0.34230 0.63975 0.68936
 C914 C 0.32455 0.62864 0.68179
 O915 O 0.29811 0.60313 0.69038
 C916 C 0.29462 0.59324 0.70797
 C917 C 0.30798 0.59929 0.72385
 C918 C 0.30796 0.59021 0.74328
 C919 C 0.29380 0.57398 0.74639
 C920 C 0.27999 0.56719 0.73021
 C921 C 0.28018 0.57725 0.71080
 H922 H 0.34273 0.62282 0.73978
 H923 H 0.36212 0.64610 0.71658
 H924 H 0.31946 0.62955 0.66573
 H925 H 0.31879 0.59510 0.75545
 H926 H 0.29382 0.56649 0.76135
 H927 H 0.27012 0.57218 0.69806
 C928 C 0.30563 1.09801 0.18669
 C929 C 0.28952 1.09132 0.17389
 C930 C 0.28574 1.09928 0.15437
 C931 C 0.29901 1.11494 0.14764
 C932 C 0.31571 1.12279 0.16050
 C933 C 0.31900 1.11403 0.18046
 O934 O 0.30654 1.08773 0.20449
 C935 C 0.29061 1.07442 0.20275
 C936 C 0.27967 1.07619 0.18434
 C937 C 0.26232 1.06408 0.17916
 C938 C 0.25597 1.04933 0.19354
 C939 C 0.26712 1.04676 0.21255
 C940 C 0.28472 1.05957 0.21723
 H941 H 0.27302 1.09357 0.14458
 H942 H 0.29583 1.12107 0.13234
 H943 H 0.33152 1.11935 0.19072
 H944 H 0.25399 1.06591 0.16454
 H945 H 0.24257 1.03964 0.18965
 H946 H 0.29350 1.05801 0.23164
 C947 C 0.78899 0.58626 0.22107
 C948 C 0.77069 0.58596 0.20950
 C949 C 0.76696 0.59893 0.19285
 C950 C 0.78286 0.61270 0.18761
 C951 C 0.80211 0.61367 0.19918
 C952 C 0.80495 0.60044 0.21655
 O953 O 0.78977 0.57130 0.23520
 C954 C 0.77154 0.56148 0.23237
 C955 C 0.75933 0.57006 0.21691
 C956 C 0.74012 0.56196 0.21054
 C957 C 0.73318 0.54403 0.22032
 C958 C 0.74553 0.53438 0.23607
 C959 C 0.76493 0.54346 0.24240
 H960 H 0.75252 0.59809 0.18381
 H961 H 0.77999 0.62263 0.17440
 H962 H 0.81947 0.60035 0.22553
 H963 H 0.73094 0.56898 0.19819
 H964 H 0.71831 0.53747 0.21525
 H965 H 0.77483 0.53637 0.25416
 C966 C 0.82799 1.07833 0.70672
 C967 C 0.82002 1.06543 0.69144
 C968 C 0.82157 1.06966 0.67047
 C969 C 0.83154 1.08810 0.66493
 C970 C 0.83977 1.10205 0.68030
 C971 C 0.83823 1.09671 0.70158
 O972 O 0.82347 1.07206 0.72573
 C973 C 0.81234 1.05489 0.72231
 C974 C 0.80984 1.05021 0.70155
 C975 C 0.79744 1.03394 0.69424
 C976 C 0.78684 1.02219 0.70890
 C977 C 0.78890 1.02677 0.73041
 C978 C 0.80221 1.04310 0.73727
 H979 H 0.81489 1.05937 0.65877
 H980 H 0.83247 1.09153 0.64856
 H981 H 0.84397 1.10692 0.71385
 H982 H 0.79544 1.03082 0.67780
 H983 H 0.77665 1.00976 0.70350
 H984 H 0.80359 1.04725 0.75355
 C985 C 0.67451 0.57125 0.33060
 C986 C 0.65700 0.55971 0.32531
 C987 C 0.63667 0.56763 0.32644
 C988 C 0.63432 0.58848 0.33255
 C989 C 0.65213 0.60086 0.33736
 C990 C 0.67247 0.59199 0.33705
 O991 O 0.69240 0.56175 0.32585
 C992 C 0.68609 0.54399 0.31719
 C993 C 0.66456 0.54199 0.31642
 C994 C 0.65452 0.52606 0.30541
 C995 C 0.66716 0.51181 0.29453
 C996 C 0.68936 0.51363 0.29507
 C997 C 0.69893 0.52966 0.30699
 H998 H 0.62320 0.55849 0.32159
 H999 H 0.61874 0.59538 0.33230
 H1000 H 0.68631 0.60146 0.33962
 H1001 H 0.63754 0.52523 0.30441
 H1002 H 0.65970 0.49973 0.28524
 H1003 H 0.71580 0.53190 0.30694
 C1004 C 0.69058 1.10245 0.80636
 C1005 C 0.70619 1.10009 0.82109
 C1006 C 0.70818 1.11311 0.83832
 C1007 C 0.69346 1.12928 0.84047
 C1008 C 0.67713 1.13223 0.82541
 C1009 C 0.67585 1.11846 0.80806
 O1010 O 0.69124 1.08814 0.79138
 C1011 C 0.70765 1.07649 0.79680
 C1012 C 0.71737 1.08318 0.81484
 C1013 C 0.73473 1.07315 0.82347
 C1014 C 0.74231 1.05540 0.81315
 C1015 C 0.73245 1.04800 0.79460
 C1016 C 0.71490 1.05885 0.78629
 H1017 H 0.72056 1.11085 0.84977
 H1018 H 0.69492 1.13947 0.85389
 H1019 H 0.66370 1.11996 0.79624
 H1020 H 0.74207 1.07871 0.83771
 H1021 H 0.75573 1.04732 0.81979
 H1022 H 0.70695 1.05362 0.77223
 C1023 C 0.17938 0.59665 0.81820
 C1024 C 0.16542 0.58186 0.81112
 C1025 C 0.14379 0.58441 0.81197
 C1026 C 0.13609 0.60319 0.81997
 C1027 C 0.14996 0.61903 0.82735
 C1028 C 0.17203 0.61528 0.82713
 O1029 O 0.19920 0.59215 0.81336
 C1030 C 0.19761 0.57419 0.80298
 C1031 C 0.17722 0.56724 0.80138
 C1032 C 0.17138 0.55004 0.78949
 C1033 C 0.18711 0.53974 0.77839
 C1034 C 0.20820 0.54669 0.77934
 C1035 C 0.21371 0.56389 0.79219
 H1036 H 0.13318 0.57273 0.80577
 H1037 H 0.11920 0.60544 0.82007
 H1038 H 0.18312 0.62716 0.83194
 H1039 H 0.15513 0.54523 0.78812
 H1040 H 0.18278 0.52673 0.76843
 H1041 H 0.22959 0.56989 0.79255
 C1042 C 0.18247 1.09185 0.31268
 C1043 C 0.19905 1.08810 0.32605
 C1044 C 0.20179 1.09904 0.34460
 C1045 C 0.18699 1.11461 0.34942
 C1046 C 0.16991 1.11914 0.33561
 C1047 C 0.16768 1.10726 0.31705
 O1048 O 0.18275 1.07997 0.29576
 C1049 C 0.19993 1.06851 0.29843
 C1050 C 0.21057 1.07287 0.31666
 C1051 C 0.22937 1.06301 0.32211
 C1052 C 0.23746 1.04807 0.30818
 C1053 C 0.22660 1.04325 0.28936
 C1054 C 0.20752 1.05365 0.28456
 H1055 H 0.21496 1.09584 0.35491
 H1056 H 0.18916 1.12334 0.36375
 H1057 H 0.15500 1.11002 0.30602
 H1058 H 0.23758 1.06678 0.33646
 H1059 H 0.25208 1.04025 0.31209
 H1060 H 0.19893 1.05055 0.27025
 C1061 C 0.71066 0.40207 0.69380
 C1062 C 0.69609 0.40843 0.70812
 C1063 C 0.67770 0.39754 0.71170
 C1064 C 0.67411 0.37942 0.69990
 C1065 C 0.68885 0.37255 0.68488
 C1066 C 0.70746 0.38410 0.68195
 O1067 O 0.72709 0.41464 0.69279
 C1068 C 0.72278 0.42926 0.70680
 C1069 C 0.70400 0.42619 0.71661
 C1070 C 0.69649 0.43955 0.73192
 C1071 C 0.70896 0.45669 0.73748
 C1072 C 0.72852 0.46016 0.72770
 C1073 C 0.73540 0.44624 0.71201
 H1074 H 0.66647 0.40285 0.72310
 H1075 H 0.65978 0.37084 0.70242
 H1076 H 0.71904 0.37943 0.67063
 H1077 H 0.68165 0.43680 0.73942
 H1078 H 0.70342 0.46715 0.74952
 H1079 H 0.75026 0.44833 0.70433
 C1080 C 0.68863 -0.07184 0.16643
 C1081 C 0.67451 -0.06163 0.17897
 C1082 C 0.65368 -0.06777 0.18062
 C1083 C 0.64728 -0.08544 0.16926
 C1084 C 0.66177 -0.09672 0.15677
 C1085 C 0.68263 -0.08942 0.15503
 O1086 O 0.70796 -0.06430 0.16797
 C1087 C 0.70605 -0.04911 0.18190
 C1088 C 0.68593 -0.04687 0.18922
 C1089 C 0.68085 -0.03303 0.20515
 C1090 C 0.69720 -0.02112 0.21396
 C1091 C 0.71805 -0.02313 0.20659
 C1092 C 0.72242 -0.03715 0.19013
 H1093 H 0.64290 -0.05963 0.19076
 H1094 H 0.63128 -0.09075 0.17091
 H1095 H 0.69421 -0.09772 0.14591
 H1096 H 0.66499 -0.03183 0.21095
 H1097 H 0.69368 -0.01049 0.22660
 H1098 H 0.73826 -0.03939 0.18452
 C1099 C 0.20555 0.39942 0.18622
 C1100 C 0.19416 0.40026 0.20416
 C1101 C 0.17730 0.38726 0.20784
 C1102 C 0.17190 0.37271 0.19238
 C1103 C 0.18340 0.37126 0.17360
 C1104 C 0.20057 0.38495 0.17063
 O1105 O 0.22066 0.41361 0.18569
 C1106 C 0.21872 0.42359 0.20374
 C1107 C 0.20276 0.41591 0.21558
 C1108 C 0.19763 0.42412 0.23484
 C1109 C 0.20929 0.44111 0.24220
 C1110 C 0.22573 0.44965 0.23027
 C1111 C 0.23062 0.44057 0.21077
 H1112 H 0.16852 0.38837 0.22208
 H1113 H 0.15873 0.36257 0.19521
 H1114 H 0.20972 0.38456 0.15658
 H1115 H 0.18496 0.41779 0.24383
 H1116 H 0.20527 0.44773 0.25715
 H1117 H 0.24294 0.44675 0.20123
 C1118 C 0.20056 -0.11597 0.69052
 C1119 C 0.19170 -0.11744 0.70976
 C1120 C 0.17720 -0.13252 0.71470
 C1121 C 0.17126 -0.14663 0.69910
 C1122 C 0.17987 -0.14568 0.67881
 C1123 C 0.19514 -0.13020 0.67467
 O1124 O 0.21329 -0.09967 0.68905
 C1125 C 0.21232 -0.09077 0.70779
 C1126 C 0.19933 -0.10118 0.72095
 C1127 C 0.19528 -0.09446 0.74102
 C1128 C 0.20491 -0.07613 0.74791
 C1129 C 0.21834 -0.06476 0.73478
 C1130 C 0.22224 -0.07235 0.71439
 H1131 H 0.17037 -0.13318 0.72996
 H1132 H 0.15973 -0.15824 0.70300
 H1133 H 0.20194 -0.12869 0.65945
 H1134 H 0.18485 -0.10293 0.75097
 H1135 H 0.20173 -0.07075 0.76354
 H1136 H 0.23224 -0.06400 0.70392
 C1137 C 0.28814 0.30967 0.41397
 C1138 C 0.27210 0.32331 0.41859
 C1139 C 0.26997 0.34251 0.40897
 C1140 C 0.28498 0.34779 0.39406
 C1141 C 0.30174 0.33395 0.38914
 C1142 C 0.30316 0.31459 0.39934
 O1143 O 0.28761 0.29231 0.42482
 C1144 C 0.27087 0.29498 0.43660
 C1145 C 0.26077 0.31367 0.43348
 C1146 C 0.24301 0.31958 0.44459
 C1147 C 0.23551 0.30570 0.45951
 C1148 C 0.24577 0.28634 0.46298
 C1149 C 0.26367 0.28100 0.45119
 H1150 H 0.25725 0.35306 0.41282
 H1151 H 0.28356 0.36268 0.38648
 H1152 H 0.31565 0.30357 0.39609
 H1153 H 0.23530 0.33438 0.44197
 H1154 H 0.22182 0.31009 0.46838
 H1155 H 0.27202 0.26647 0.45344
 C1156 C 0.30750 0.80186 -0.08440
 C1157 C 0.30172 0.81737 -0.07074
 C1158 C 0.30581 0.83825 -0.07406
 C1159 C 0.31618 0.84346 -0.09230
 C1160 C 0.32230 0.82785 -0.10680
 C1161 C 0.31808 0.80667 -0.10260
 O1162 O 0.30095 0.78315 -0.07880
 C1163 C 0.29080 0.78699 -0.06125
 C1164 C 0.29091 0.80771 -0.05570
 C1165 C 0.28032 0.81552 -0.03860
 C1166 C 0.26882 0.80149 -0.02689
 C1167 C 0.26809 0.78004 -0.03235
 C1168 C 0.27961 0.77260 -0.04960
 H1169 H 0.30084 0.85017 -0.06317
 H1170 H 0.31929 0.85970 -0.09518
 H1171 H 0.32222 0.79442 -0.11348
 H1172 H 0.28048 0.83194 -0.03470
 H1173 H 0.26016 0.80742 -0.01371
 H1174 H 0.27902 0.75641 -0.05436
 C1175 C 0.79699 0.31321 -0.09068
 C1176 C 0.77927 0.32548 -0.08980
 C1177 C 0.77624 0.34285 -0.10207
 C1178 C 0.79225 0.34801 -0.11572
 C1179 C 0.81102 0.33593 -0.11685
 C1180 C 0.81328 0.31810 -0.10418
 O1181 O 0.79663 0.29748 -0.07742
 C1182 C 0.77828 0.30002 -0.06797
 C1183 C 0.76720 0.31701 -0.07500
 C1184 C 0.74792 0.32306 -0.06707
 C1185 C 0.73960 0.31108 -0.05122
 C1186 C 0.75046 0.29328 -0.04364
 C1187 C 0.77014 0.28763 -0.05225
 H1188 H 0.76210 0.35223 -0.10103
 H1189 H 0.79006 0.36168 -0.12518
 H1190 H 0.82735 0.30857 -0.10454
 H1191 H 0.73960 0.33658 -0.07283
 H1192 H 0.72449 0.31562 -0.04501
 H1193 H 0.77885 0.27422 -0.04678
 C1194 C 0.78786 0.81196 0.39378
 C1195 C 0.77068 0.82499 0.39463
 C1196 C 0.76770 0.84147 0.38113
 C1197 C 0.78300 0.84463 0.36604
 C1198 C 0.80093 0.83141 0.36466
 C1199 C 0.80335 0.81485 0.37890
 O1200 O 0.78752 0.79713 0.40801
 C1201 C 0.76972 0.80093 0.41802
 C1202 C 0.75889 0.81782 0.41039
 C1203 C 0.73985 0.82457 0.41839
 C1204 C 0.73159 0.81350 0.43499
 C1205 C 0.74236 0.79597 0.44331
 C1206 C 0.76178 0.78963 0.43461
 H1207 H 0.75402 0.85149 0.38212
 H1208 H 0.78077 0.85739 0.35541
 H1209 H 0.81674 0.80439 0.37830
 H1210 H 0.73162 0.83789 0.41208
 H1211 H 0.71675 0.81867 0.44134
 H1212 H 0.77042 0.77636 0.44052
 C1213 C 0.72154 0.29878 0.60354
 C1214 C 0.74033 0.30912 0.60223
 C1215 C 0.74523 0.32628 0.61464
 C1216 C 0.73015 0.33306 0.62896
 C1217 C 0.71055 0.32271 0.63059
 C1218 C 0.70631 0.30525 0.61763
 O1219 O 0.71985 0.28298 0.59021
 C1220 C 0.73797 0.28338 0.58025
 C1221 C 0.75106 0.29907 0.58699
 C1222 C 0.77066 0.30250 0.57838
 C1223 C 0.77697 0.28927 0.56210
 C1224 C 0.76371 0.27297 0.55481
 C1225 C 0.74395 0.27000 0.56418
 H1226 H 0.76011 0.33422 0.61330
 H1227 H 0.73377 0.34645 0.63867
 H1228 H 0.69158 0.29695 0.61836
 H1229 H 0.78068 0.31500 0.58389
 H1230 H 0.79212 0.29182 0.55513
 H1231 H 0.73336 0.25784 0.55894
 C1232 C 0.69491 0.81052 1.10048
 C1233 C 0.71524 0.81511 1.10636
 C1234 C 0.72027 0.83035 1.12096
 C1235 C 0.70367 0.84158 1.12977
 C1236 C 0.68248 0.83741 1.12395
 C1237 C 0.67802 0.82137 1.10929
 O1238 O 0.69381 0.79624 1.08541
 C1239 C 0.71390 0.79181 1.08173
 C1240 C 0.72756 0.80298 1.09421
 C1241 C 0.74924 0.80178 1.09241
 C1242 C 0.75729 0.78866 1.07696
 C1243 C 0.74368 0.77703 1.06365
 C1244 C 0.72161 0.77842 1.06630
 H1245 H 0.73644 0.83379 1.12512
 H1246 H 0.70739 0.85370 1.14100
 H1247 H 0.66204 0.81808 1.10429
 H1248 H 0.75961 0.81092 1.10230
 H1249 H 0.77419 0.78775 1.07524
 H1250 H 0.71083 0.76999 1.05619
 C1251 C 0.20899 0.31709 1.07801
 C1252 C 0.22355 0.33223 1.07416
 C1253 C 0.22545 0.35024 1.08608
 C1254 C 0.21189 0.35271 1.10287
 C1255 C 0.19682 0.33725 1.10745
 C1256 C 0.19521 0.31928 1.09460
 O1257 O 0.21048 0.30080 1.06523
 C1258 C 0.22639 0.30579 1.05312
 C1259 C 0.23488 0.32487 1.05802
 C1260 C 0.25219 0.33289 1.04805
 C1261 C 0.26127 0.32069 1.03243
 C1262 C 0.25295 0.30087 1.02701
 C1263 C 0.23507 0.29341 1.03740
 H1264 H 0.23718 0.36183 1.08278
 H1265 H 0.21337 0.36660 1.11242
 H1266 H 0.18409 0.30707 1.09779
 H1267 H 0.25867 0.34788 1.05235
 H1268 H 0.27487 0.32672 1.02460
 H1269 H 0.22851 0.27827 1.03379
 C1270 C 0.21043 0.81027 0.58748
 C1271 C 0.19611 0.80652 0.57168
 C1272 C 0.17497 0.81170 0.57303
 C1273 C 0.16805 0.82020 0.59180
 C1274 C 0.18217 0.82316 0.60880
 C1275 C 0.20385 0.81887 0.60638
 O1276 O 0.22951 0.80287 0.58334
 C1277 C 0.22703 0.79409 0.56470
 C1278 C 0.20681 0.79575 0.55703
 C1279 C 0.20016 0.78614 0.53869
 C1280 C 0.21506 0.77464 0.52754
 C1281 C 0.23618 0.77323 0.53471
 C1282 C 0.24229 0.78315 0.55355
 H1283 H 0.16401 0.80840 0.56045
 H1284 H 0.15139 0.82327 0.59357
 H1285 H 0.21480 0.82030 0.61932
 H1286 H 0.18402 0.78730 0.53326
 H1287 H 0.21032 0.76729 0.51303
 H1288 H 0.25829 0.78213 0.55941
 C1289 C 0.34100 0.69450 0.59316
 C1290 C 0.33039 0.67817 0.58396
 C1291 C 0.32953 0.65853 0.59259
 C1292 C 0.33973 0.65564 0.61172
 C1293 C 0.35062 0.67220 0.62175
 C1294 C 0.35165 0.69185 0.61214
 O1295 O 0.33855 0.71221 0.58293
 C1296 C 0.32609 0.70688 0.56701
 C1297 C 0.32073 0.68621 0.56698
 C1298 C 0.30695 0.67743 0.55252
 C1299 C 0.29819 0.69051 0.53745
 C1300 C 0.30326 0.71198 0.53708
 C1301 C 0.31765 0.72022 0.55200
 H1302 H 0.32081 0.64604 0.58517
 H1303 H 0.33881 0.64055 0.61894
 H1304 H 0.35942 0.70486 0.61971
 H1305 H 0.30280 0.66115 0.55302
 H1306 H 0.28728 0.68389 0.52618
 H1307 H 0.32162 0.73656 0.55234
 C1308 C 0.32750 0.19616 1.07862
 C1309 C 0.31778 0.18241 1.06517
 C1310 C 0.31383 0.16186 1.07014
 C1311 C 0.31995 0.15520 1.08994
 C1312 C 0.32985 0.16906 1.10424
 C1313 C 0.33398 0.18978 1.09833
 O1314 O 0.32833 0.21538 1.07133
 C1315 C 0.31885 0.21371 1.05291
 C1316 C 0.31217 0.19381 1.04846
 C1317 C 0.30060 0.18868 1.03076
 C1318 C 0.29537 0.20478 1.01721
 C1319 C 0.30175 0.22553 1.02150
 C1320 C 0.31406 0.23000 1.03943
 H1321 H 0.30585 0.15146 1.05937
 H1322 H 0.31670 0.13931 1.09419
 H1323 H 0.34112 0.20084 1.10903
 H1324 H 0.29528 0.17296 1.02778
 H1325 H 0.28601 0.20112 1.00350
 H1326 H 0.31876 0.24575 1.04328
 C1327 C 0.82308 0.68065 1.11812
 C1328 C 0.81663 0.66533 1.10439
 C1329 C 0.81683 0.64437 1.10924
 C1330 C 0.82328 0.63895 1.12928
 C1331 C 0.82931 0.65438 1.14407
 C1332 C 0.82981 0.67554 1.13826
 O1333 O 0.82013 0.69969 1.11073
 C1334 C 0.81150 0.69624 1.09209
 C1335 C 0.80894 0.67545 1.08759
 C1336 C 0.79855 0.66824 1.06983
 C1337 C 0.79049 0.68306 1.05605
 C1338 C 0.79317 0.70459 1.06008
 C1339 C 0.80404 0.71130 1.07827
 H1340 H 0.81140 0.63267 1.09825
 H1341 H 0.82269 0.62275 1.13363
 H1342 H 0.83368 0.68765 1.14945
 H1343 H 0.79633 0.65178 1.06692
 H1344 H 0.78222 0.67778 1.04218
 H1345 H 0.80589 0.72767 1.08189
 C1346 C 0.83209 0.16219 0.59703
 C1347 C 0.84933 0.17148 0.58845
 C1348 C 0.86915 0.17125 0.59782
 C1349 C 0.87117 0.16149 0.61707
 C1350 C 0.85361 0.15202 0.62632
 C1351 C 0.83391 0.15189 0.61592
 O1352 O 0.81428 0.16622 0.58682
 C1353 C 0.82040 0.17836 0.57153
 C1354 C 0.84171 0.18196 0.57181
 C1355 C 0.85127 0.19561 0.55837
 C1356 C 0.83832 0.20620 0.54420
 C1357 C 0.81621 0.20309 0.54380
 C1358 C 0.80722 0.18864 0.55746
 H1359 H 0.88233 0.17915 0.59104
 H1360 H 0.88622 0.16190 0.62515
 H1361 H 0.82011 0.14549 0.62310
 H1362 H 0.86802 0.19847 0.55916
 H1363 H 0.84551 0.21717 0.53388
 H1364 H 0.79039 0.18623 0.55785
 C1365 C 0.67095 0.68322 0.40287
 C1366 C 0.65408 0.69576 0.40772
 C1367 C 0.63517 0.69533 0.39672
 C1368 C 0.63362 0.68159 0.37979
 C1369 C 0.65072 0.66849 0.37434
 C1370 C 0.66958 0.66902 0.38626
 O1371 O 0.68792 0.68728 0.41450
 C1372 C 0.68156 0.70270 0.42689
 C1373 C 0.66094 0.70833 0.42335
 C1374 C 0.65122 0.72471 0.43370
 C1375 C 0.66326 0.73595 0.44823
 C1376 C 0.68471 0.73078 0.45212
 C1377 C 0.69390 0.71367 0.44142
 H1378 H 0.62226 0.70562 0.40066
 H1379 H 0.61917 0.68134 0.37070
 H1380 H 0.68301 0.65952 0.38207
 H1381 H 0.63502 0.72893 0.43045
 H1382 H 0.65588 0.74889 0.45623
 H1383 H 0.71026 0.70949 0.44381
 C1384 C 0.66894 0.20076 -0.10245
 C1385 C 0.65567 0.21758 -0.10025
 C1386 C 0.63973 0.22193 -0.11462
 C1387 C 0.63751 0.20846 -0.13190
 C1388 C 0.65118 0.19108 -0.13451
 C1389 C 0.66702 0.18726 -0.11936
 O1390 O 0.68342 0.19950 -0.08756
 C1391 C 0.67930 0.21589 -0.07565
 C1392 C 0.66249 0.22753 -0.08261
 C1393 C 0.65605 0.24573 -0.07254
 C1394 C 0.66755 0.25220 -0.05479
 C1395 C 0.68511 0.24047 -0.04754
 C1396 C 0.69080 0.22193 -0.05814
 H1397 H 0.62951 0.23530 -0.11271
 H1398 H 0.62531 0.21172 -0.14330
 H1399 H 0.67785 0.17429 -0.12075
 H1400 H 0.64286 0.25479 -0.07831
 H1401 H 0.66300 0.26647 -0.04695
 H1402 H 0.70416 0.21261 -0.05324
 C1403 C 0.17672 0.69383 -0.10673
 C1404 C 0.16951 0.71404 -0.10651
 C1405 C 0.15546 0.72168 -0.12125
 C1406 C 0.14809 0.70779 -0.13656
 C1407 C 0.15476 0.68665 -0.13686
 C1408 C 0.16970 0.67974 -0.12194
 O1409 O 0.18936 0.68956 -0.09075
 C1410 C 0.19003 0.70742 -0.08022
 C1411 C 0.17809 0.72287 -0.08917
 C1412 C 0.17574 0.74251 -0.08024
 C1413 C 0.18626 0.74646 -0.06134
 C1414 C 0.19889 0.73088 -0.05184
 C1415 C 0.20078 0.71106 -0.06153
 H1416 H 0.14993 0.73762 -0.12069
 H1417 H 0.13672 0.71342 -0.14785
 H1418 H 0.17482 0.66366 -0.12147
 H1419 H 0.16604 0.75433 -0.08748
 H1420 H 0.18469 0.76171 -0.05422
 H1421 H 0.21012 0.69877 -0.05462
 C1422 C 0.16797 0.18509 0.41129
 C1423 C 0.15316 0.19984 0.41653
 C1424 C 0.13510 0.20327 0.40460
 C1425 C 0.13227 0.19105 0.38656
 C1426 C 0.14741 0.17576 0.38084
 C1427 C 0.16543 0.17273 0.39360
 O1428 O 0.18448 0.18485 0.42403
 C1429 C 0.18006 0.19977 0.43764
 C1430 C 0.16106 0.20942 0.43386
 C1431 C 0.15384 0.22603 0.44589
 C1432 C 0.16689 0.23311 0.46225
 C1433 C 0.18677 0.22363 0.46614
 C1434 C 0.19319 0.20650 0.45375
 H1435 H 0.12373 0.21510 0.40888
 H1436 H 0.11838 0.19362 0.37702
 H1437 H 0.17746 0.16143 0.38966
 H1438 H 0.13891 0.23352 0.44255
 H1439 H 0.16175 0.24631 0.47149
 H1440 H 0.20830 0.19898 0.45610
 C1441 C 0.31093 0.42796 0.67517
 C1442 C 0.29911 0.43777 0.66016
 C1443 C 0.29690 0.42999 0.64003
 C1444 C 0.30734 0.41132 0.63515
 C1445 C 0.31986 0.40096 0.65025
 C1446 C 0.32174 0.40954 0.67055
 O1447 O 0.30999 0.43736 0.69362
 C1448 C 0.29732 0.45349 0.69014
 C1449 C 0.29037 0.45448 0.66987
 C1450 C 0.27644 0.46962 0.66289
 C1451 C 0.26896 0.48410 0.67747
 C1452 C 0.27533 0.48318 0.69868
 C1453 C 0.29008 0.46780 0.70498
 H1454 H 0.28726 0.43787 0.62857
 H1455 H 0.30577 0.40503 0.61955
 H1456 H 0.33091 0.40186 0.68251
 H1457 H 0.27113 0.47001 0.64688
 H1458 H 0.25771 0.49569 0.67227
 H1459 H 0.29503 0.46643 0.72104
 C1460 C 0.30425 0.90442 0.18684
 C1461 C 0.28775 0.90992 0.17400
 C1462 C 0.28165 0.89804 0.15683
 C1463 C 0.29297 0.87968 0.15276
 C1464 C 0.31002 0.87355 0.16585
 C1465 C 0.31577 0.88631 0.18305
 O1466 O 0.30686 0.91733 0.20286
 C1467 C 0.29164 0.93127 0.20011
 C1468 C 0.27952 0.92744 0.18266
 C1469 C 0.26209 0.93946 0.17736
 C1470 C 0.25674 0.95592 0.19077
 C1471 C 0.26880 0.96005 0.20906
 C1472 C 0.28674 0.94770 0.21356
 H1473 H 0.26846 0.90258 0.14707
 H1474 H 0.28830 0.87018 0.13953
 H1475 H 0.32850 0.88206 0.19352
 H1476 H 0.25267 0.93602 0.16366
 H1477 H 0.24296 0.96520 0.18708
 H1478 H 0.29604 0.95019 0.22755
 C1479 C 0.79251 0.40979 0.17343
 C1480 C 0.80581 0.42556 0.17958
 C1481 C 0.82701 0.42581 0.17475
 C1482 C 0.83504 0.40878 0.16367
 C1483 C 0.82192 0.39188 0.15775
 C1484 C 0.80016 0.39270 0.16215
 O1485 O 0.77331 0.41185 0.18114
 C1486 C 0.77464 0.42918 0.19253
 C1487 C 0.79426 0.43806 0.19213
 C1488 C 0.79990 0.45504 0.20446
 C1489 C 0.78470 0.46321 0.21783
 C1490 C 0.76429 0.45452 0.21842
 C1491 C 0.75904 0.43744 0.20537
 H1492 H 0.83719 0.43828 0.18004
 H1493 H 0.85171 0.40837 0.16044
 H1494 H 0.78991 0.37978 0.15837
 H1495 H 0.81562 0.46140 0.20423
 H1496 H 0.78881 0.47628 0.22779
 H1497 H 0.74370 0.43027 0.20594
 C1498 C 0.79351 0.90036 0.69332
 C1499 C 0.80322 0.89651 0.71210
 C1500 C 0.81945 0.88217 0.71445
 C1501 C 0.82612 0.87146 0.69667
 C1502 C 0.81649 0.87519 0.67705
 C1503 C 0.79969 0.88964 0.67544
 O1504 O 0.77951 0.91574 0.69427
 C1505 C 0.78048 0.92172 0.71405
 C1506 C 0.79470 0.91036 0.72559
 C1507 C 0.79932 0.91479 0.74628
 C1508 C 0.78912 0.93186 0.75540
 C1509 C 0.77464 0.94412 0.74378
 C1510 C 0.76997 0.93868 0.72289
 H1511 H 0.82705 0.87967 0.72934
 H1512 H 0.83894 0.86041 0.69817
 H1513 H 0.79234 0.89310 0.66062
 H1514 H 0.81081 0.90577 0.75492
 H1515 H 0.79288 0.93581 0.77139
 H1516 H 0.75934 0.94797 0.71350
 C1517 C 0.70185 0.60625 0.69526
 C1518 C 0.71150 0.59692 0.67862
 C1519 C 0.71141 0.60560 0.65894
 C1520 C 0.70080 0.62462 0.65625
 C1521 C 0.69051 0.63457 0.67312
 C1522 C 0.69117 0.62513 0.69294
 O1523 O 0.70418 0.59564 0.71274
 C1524 C 0.71556 0.57922 0.70700
 C1525 C 0.72039 0.57927 0.68626
 C1526 C 0.73253 0.56384 0.67699
 C1527 C 0.74032 0.54789 0.68965
 C1528 C 0.73593 0.54755 0.71123
 C1529 C 0.72306 0.56338 0.71993
 H1530 H 0.71925 0.59800 0.64610
 H1531 H 0.70051 0.63148 0.64099
 H1532 H 0.68362 0.63224 0.70622
 H1533 H 0.73616 0.56424 0.66065
 H1534 H 0.75009 0.53597 0.68264
 H1535 H 0.71962 0.56376 0.73633
 C1536 C 0.70602 0.11154 0.18514
 C1537 C 0.70967 0.11630 0.20574
 C1538 C 0.70068 0.13337 0.21566
 C1539 C 0.68689 0.14580 0.20403
 C1540 C 0.68247 0.14109 0.18290
 C1541 C 0.69258 0.12401 0.17312
 O1542 O 0.71460 0.09351 0.17937
 C1543 C 0.72373 0.08674 0.19674
 C1544 C 0.72111 0.10017 0.21328
 C1545 C 0.72759 0.09549 0.23335
 C1546 C 0.73703 0.07607 0.23661
 C1547 C 0.73993 0.06184 0.21990
 C1548 C 0.73352 0.06740 0.19957
 H1549 H 0.70346 0.13650 0.23199
 H1550 H 0.67902 0.15871 0.21167
 H1551 H 0.68885 0.11970 0.15721
 H1552 H 0.72492 0.10615 0.24616
 H1553 H 0.74189 0.07200 0.25222
 H1554 H 0.73511 0.05662 0.18666
 C1555 C 0.19004 0.57929 0.17171
 C1556 C 0.17668 0.56297 0.17525
 C1557 C 0.15561 0.56317 0.16933
 C1558 C 0.14773 0.58125 0.16012
 C1559 C 0.16087 0.59865 0.15704
 C1560 C 0.18251 0.59746 0.16230
 O1561 O 0.20900 0.57657 0.18025
 C1562 C 0.20745 0.55827 0.18951
 C1563 C 0.18792 0.54943 0.18702
 C1564 C 0.18201 0.53145 0.19716
 C1565 C 0.19689 0.52211 0.21036
 C1566 C 0.21726 0.53064 0.21290
 C1567 C 0.22273 0.54886 0.20216
 H1568 H 0.14535 0.55030 0.17266
 H1569 H 0.13107 0.58222 0.15649
 H1570 H 0.19262 0.61086 0.16094
 H1571 H 0.16635 0.52514 0.19538
 H1572 H 0.19262 0.50817 0.21854
 H1573 H 0.23806 0.55589 0.20426
 C1574 C 0.17836 0.07909 0.69418
 C1575 C 0.16323 0.07033 0.70629
 C1576 C 0.14346 0.07923 0.70897
 C1577 C 0.13906 0.09794 0.69873
 C1578 C 0.15429 0.10734 0.68600
 C1579 C 0.17423 0.09761 0.68365
 O1580 O 0.19648 0.06865 0.69457
 C1581 C 0.19268 0.05295 0.70721
 C1582 C 0.17252 0.05326 0.71470
 C1583 C 0.16538 0.03886 0.72883
 C1584 C 0.17970 0.02378 0.73590
 C1585 C 0.20079 0.02330 0.72886
 C1586 C 0.20721 0.03792 0.71393
 H1587 H 0.13191 0.07216 0.71880
 H1588 H 0.12373 0.10504 0.70072
 H1589 H 0.18634 0.10445 0.67429
 H1590 H 0.14949 0.03952 0.73462
 H1591 H 0.17447 0.01279 0.74731
 H1592 H 0.22325 0.03827 0.70855
 C1593 C 0.32298 0.60152 0.29369
 C1594 C 0.30265 0.60564 0.29952
 C1595 C 0.29725 0.62217 0.31246
 C1596 C 0.31352 0.63487 0.31998
 C1597 C 0.33474 0.63092 0.31450
 C1598 C 0.33947 0.61414 0.30084
 O1599 O 0.32473 0.58428 0.28222
 C1600 C 0.30507 0.57739 0.28087
 C1601 C 0.29102 0.58997 0.29122
 C1602 C 0.26986 0.58522 0.29296
 C1603 C 0.26285 0.56662 0.28384
 C1604 C 0.27695 0.55320 0.27315
 C1605 C 0.29835 0.55885 0.27138
 H1606 H 0.28113 0.62492 0.31699
 H1607 H 0.30955 0.64764 0.33033
 H1608 H 0.35551 0.61048 0.29665
 H1609 H 0.25919 0.59526 0.30142
 H1610 H 0.24643 0.56257 0.28528
 H1611 H 0.30953 0.54876 0.26364
 C1612 C 0.30650 0.09407 0.79454
 C1613 C 0.29013 0.09253 0.80812
 C1614 C 0.28702 0.10646 0.82440
 C1615 C 0.30144 0.12268 0.82690
 C1616 C 0.31864 0.12477 0.81322
 C1617 C 0.32109 0.11021 0.79668
 O1618 O 0.30662 0.07890 0.78033
 C1619 C 0.28996 0.06758 0.78512
 C1620 C 0.27939 0.07535 0.80202
 C1621 C 0.26171 0.06598 0.81000
 C1622 C 0.25456 0.04777 0.80023
 C1623 C 0.26507 0.03922 0.78274
 C1624 C 0.28306 0.04940 0.77504
 H1625 H 0.27400 0.10484 0.83489
 H1626 H 0.29914 0.13359 0.83959
 H1627 H 0.33404 0.11123 0.78602
 H1628 H 0.25373 0.07241 0.82336
 H1629 H 0.24077 0.04034 0.80638
 H1630 H 0.29148 0.04330 0.76180
 C1631 C 0.81772 0.60577 0.80929
 C1632 C 0.83123 0.60231 0.79308
 C1633 C 0.84786 0.61536 0.78885
 C1634 C 0.85060 0.63283 0.80170
 C1635 C 0.83683 0.63693 0.81849
 C1636 C 0.82030 0.62297 0.82250
 O1637 O 0.80237 0.59191 0.80994
 C1638 C 0.80631 0.57953 0.79380
 C1639 C 0.82382 0.58520 0.78302
 C1640 C 0.83040 0.57482 0.76519
 C1641 C 0.81834 0.55791 0.75809
 C1642 C 0.80006 0.55185 0.76882
 C1643 C 0.79412 0.56280 0.78705
 H1644 H 0.85816 0.61239 0.77590
 H1645 H 0.86344 0.64324 0.79845
 H1646 H 0.80940 0.62581 0.83499
 H1647 H 0.84417 0.57972 0.75690
 H1648 H 0.82310 0.54976 0.74413
 H1649 H 0.78019 0.55871 0.79555
 C1650 C 0.83576 0.08810 0.30347
 C1651 C 0.84873 0.08366 0.28708
 C1652 C 0.86662 0.09517 0.28303
 C1653 C 0.87117 0.11208 0.29627
 C1654 C 0.85785 0.11717 0.31314
 C1655 C 0.84006 0.10469 0.31691
 O1656 O 0.81880 0.07622 0.30379
 C1657 C 0.82105 0.06407 0.28720
 C1658 C 0.83912 0.06794 0.27644
 C1659 C 0.84379 0.05798 0.25778
 C1660 C 0.82906 0.04371 0.24974
 C1661 C 0.81013 0.03974 0.26041
 C1662 C 0.80635 0.04983 0.27963
 H1663 H 0.87643 0.09159 0.26986
 H1664 H 0.88485 0.12141 0.29310
 H1665 H 0.82934 0.10830 0.32936
 H1666 H 0.85795 0.06151 0.24941
 H1667 H 0.83216 0.03621 0.23497
 H1668 H 0.79188 0.04754 0.28795
 C1669 C 0.68488 0.37675 0.31972
 C1670 C 0.67418 0.37613 0.30107
 C1671 C 0.65863 0.36164 0.29648
 C1672 C 0.65393 0.34706 0.31173
 C1673 C 0.66481 0.34717 0.33112
 C1674 C 0.68056 0.36231 0.33509
 O1675 O 0.69867 0.39220 0.32108
 C1676 C 0.69661 0.40151 0.30286
 C1677 C 0.68185 0.39219 0.29009
 C1678 C 0.67674 0.39951 0.27050
 C1679 C 0.68703 0.41737 0.26386
 C1680 C 0.70212 0.42763 0.27678
 C1681 C 0.70717 0.41935 0.29652
 H1682 H 0.65033 0.36160 0.28171
 H1683 H 0.64188 0.33565 0.30832
 H1684 H 0.68908 0.36297 0.34973
 H1685 H 0.66504 0.39190 0.26077
 H1686 H 0.68296 0.42335 0.24868
 H1687 H 0.71842 0.42688 0.30683
 C1688 C 0.69293 0.91478 0.84570
 C1689 C 0.67670 0.92558 0.83642
 C1690 C 0.65576 0.91989 0.83817
 C1691 C 0.65134 0.90219 0.84979
 C1692 C 0.66779 0.89052 0.85932
 C1693 C 0.68889 0.89718 0.85744
 O1694 O 0.71177 0.92209 0.84108
 C1695 C 0.70732 0.93780 0.82853
 C1696 C 0.68607 0.94055 0.82521
 C1697 C 0.67788 0.95516 0.81157
 C1698 C 0.69218 0.96727 0.80068
 C1699 C 0.71420 0.96467 0.80366
 C1700 C 0.72186 0.94993 0.81809
 H1701 H 0.64329 0.92852 0.83050
 H1702 H 0.63511 0.89740 0.85103
 H1703 H 0.70186 0.88850 0.86421
 H1704 H 0.66110 0.95682 0.80900
 H1705 H 0.68608 0.97848 0.78970
 H1706 H 0.73856 0.94730 0.82036
 C1707 C 0.19613 0.41248 0.78910
 C1708 C 0.18066 0.41737 0.77482
 C1709 C 0.16190 0.40632 0.77328
 C1710 C 0.15907 0.38973 0.78706
 C1711 C 0.17486 0.38466 0.80202
 C1712 C 0.19367 0.39625 0.80280
 O1713 O 0.21256 0.42494 0.78862
 C1714 C 0.20744 0.43810 0.77377
 C1715 C 0.18811 0.43429 0.76471
 C1716 C 0.17972 0.44686 0.74914
 C1717 C 0.19169 0.46406 0.74291
 C1718 C 0.21156 0.46825 0.75234
 C1719 C 0.21947 0.45483 0.76783
 H1720 H 0.14983 0.41043 0.76204
 H1721 H 0.14453 0.38106 0.78623
 H1722 H 0.20611 0.39297 0.81393
 H1723 H 0.16444 0.44373 0.74225
 H1724 H 0.18536 0.47422 0.73107
 H1725 H 0.23449 0.45749 0.77549
 C1726 C 0.19705 0.90132 0.30867
 C1727 C 0.21596 0.90454 0.31877
 C1728 C 0.22316 0.89223 0.33489
 C1729 C 0.21025 0.87599 0.34111
 C1730 C 0.19048 0.87227 0.33121
 C1731 C 0.18389 0.88506 0.31454
 O1732 O 0.19327 0.91512 0.29384
 C1733 C 0.21018 0.92722 0.29469
 C1734 C 0.22448 0.92133 0.30971
 C1735 C 0.24324 0.93171 0.31348
 C1736 C 0.24761 0.94887 0.30114
 C1737 C 0.23327 0.95536 0.28538
 C1738 C 0.21418 0.94436 0.28220
 H1739 H 0.23814 0.89511 0.34254
 H1740 H 0.21575 0.86637 0.35376
 H1741 H 0.16889 0.88274 0.30673
 H1742 H 0.25418 0.92673 0.32545
 H1743 H 0.26225 0.95703 0.30385
 H1744 H 0.20294 0.94883 0.27029
 C1745 C 0.40505 0.32467 0.66669
 C1746 C 0.41366 0.33682 0.68222
 C1747 C 0.40520 0.35600 0.68805
 C1748 C 0.38709 0.36293 0.67740
 C1749 C 0.37790 0.35063 0.66131
 C1750 C 0.38720 0.33124 0.65593
 O1751 O 0.41505 0.30671 0.66388
 C1752 C 0.43037 0.30747 0.67800
 C1753 C 0.43022 0.32558 0.68960
 C1754 C 0.44446 0.32939 0.70565
 C1755 C 0.45928 0.31382 0.71010
 C1756 C 0.45963 0.29481 0.69856
 C1757 C 0.44508 0.29176 0.68206
 H1758 H 0.41220 0.36523 0.70045
 H1759 H 0.38024 0.37778 0.68174
 H1760 H 0.38063 0.32130 0.64385
 H1761 H 0.44400 0.34371 0.71462
 H1762 H 0.47034 0.31652 0.72274
 H1763 H 0.44477 0.27741 0.67311
 C1764 C 0.39818 0.80288 0.18839
 C1765 C 0.40355 0.81487 0.20541
 C1766 C 0.39186 0.83212 0.21165
 C1767 C 0.37388 0.83721 0.19984
 C1768 C 0.36795 0.82501 0.18222
 C1769 C 0.38037 0.80756 0.17652
 O1770 O 0.41157 0.78738 0.18488
 C1771 C 0.42570 0.78961 0.20004
 C1772 C 0.42149 0.80616 0.21306
 C1773 C 0.43433 0.81140 0.22989
 C1774 C 0.45231 0.79913 0.23338
 C1775 C 0.45714 0.78204 0.22005
 C1776 C 0.44351 0.77723 0.20317
 H1777 H 0.39644 0.84138 0.22507
 H1778 H 0.36460 0.85059 0.20448
 H1779 H 0.37644 0.79796 0.16313
 H1780 H 0.43072 0.82451 0.23991
 H1781 H 0.46256 0.80311 0.24635
 H1782 H 0.44671 0.76437 0.19268
 C1783 C 0.90930 0.31972 0.16845
 C1784 C 0.92043 0.33521 0.17846
 C1785 C 0.91356 0.35574 0.17926
 C1786 C 0.89426 0.36046 0.16958
 C1787 C 0.88222 0.34473 0.15939
 C1788 C 0.89011 0.32409 0.15859
 O1789 O 0.91817 0.30109 0.17036
 C1790 C 0.93522 0.30492 0.18187
 C1791 C 0.93732 0.32556 0.18724
 C1792 C 0.95347 0.33287 0.20005
 C1793 C 0.96801 0.31829 0.20776
 C1794 C 0.96619 0.29686 0.20253
 C1795 C 0.94960 0.29017 0.18920
 H1796 H 0.92252 0.36762 0.18739
 H1797 H 0.88858 0.37634 0.17037
 H1798 H 0.88124 0.31165 0.15123
 H1799 H 0.95465 0.34917 0.20425
 H1800 H 0.98056 0.32370 0.21792
 H1801 H 0.94757 0.27392 0.18513
 C1802 C 0.90121 0.81653 0.65344
 C1803 C 0.91532 0.83226 0.65769
 C1804 C 0.91073 0.85306 0.65404
 C1805 C 0.89052 0.85792 0.64655
 C1806 C 0.87548 0.84208 0.64284
 C1807 C 0.88111 0.82104 0.64564
 O1808 O 0.90767 0.79819 0.66032
 C1809 C 0.92610 0.80244 0.66925
 C1810 C 0.93149 0.82306 0.66816
 C1811 C 0.94887 0.83132 0.67866
 C1812 C 0.96116 0.81775 0.69078
 C1813 C 0.95593 0.79640 0.69206
 C1814 C 0.93830 0.78865 0.68086
 H1815 H 0.92182 0.86521 0.65805
 H1816 H 0.88606 0.87412 0.64500
 H1817 H 0.86953 0.80882 0.64400
 H1818 H 0.95245 0.84773 0.67808
 H1819 H 0.97456 0.82390 0.69934
 H1820 H 0.93355 0.77257 0.68203
 C1821 C 0.58880 0.28141 0.33488
 C1822 C 0.58566 0.26439 0.34717
 C1823 C 0.59917 0.25947 0.36361
 C1824 C 0.61655 0.27257 0.36739
 C1825 C 0.62012 0.29012 0.35470
 C1826 C 0.60585 0.29449 0.33828
 O1827 O 0.57450 0.28344 0.31993
 C1828 C 0.56202 0.26734 0.32273
 C1829 C 0.56803 0.25509 0.33914
 C1830 C 0.55712 0.23715 0.34428
 C1831 C 0.53948 0.23166 0.33193
 C1832 C 0.53314 0.24414 0.31489
 C1833 C 0.54464 0.26230 0.31046
 H1834 H 0.59651 0.24599 0.37310
 H1835 H 0.62727 0.26890 0.38002
 H1836 H 0.60793 0.30769 0.32825
 H1837 H 0.56213 0.22762 0.35718
 H1838 H 0.53092 0.21767 0.33552
 H1839 H 0.54047 0.27218 0.29754
 C1840 C 0.59551 0.80815 0.85909
 C1841 C 0.57919 0.82226 0.85775
 C1842 C 0.58097 0.84275 0.86454
 C1843 C 0.60053 0.84920 0.87240
 C1844 C 0.61789 0.83525 0.87331
 C1845 C 0.61516 0.81421 0.86715
 O1846 O 0.59105 0.79004 0.84993
 C1847 C 0.57161 0.79287 0.84255
 C1848 C 0.56371 0.81238 0.84686
 C1849 C 0.54468 0.81956 0.83868
 C1850 C 0.53338 0.80614 0.82539
 C1851 C 0.54106 0.78592 0.82085
 C1852 C 0.56029 0.77904 0.82981
 H1853 H 0.56803 0.85365 0.86295
 H1854 H 0.60247 0.86537 0.87687
 H1855 H 0.62832 0.80346 0.86694
 H1856 H 0.53912 0.83520 0.84180
 H1857 H 0.51881 0.81157 0.81838
 H1858 H 0.56680 0.76391 0.82595
 C1859 C 0.10330 0.31201 0.81123
 C1860 C 0.10254 0.29599 0.82515
 C1861 C 0.11744 0.29336 0.84085
 C1862 C 0.13385 0.30778 0.84223
 C1863 C 0.13515 0.32445 0.82798
 C1864 C 0.11951 0.32655 0.81228
 O1865 O 0.08761 0.31162 0.79745
 C1866 C 0.07676 0.29498 0.80280
 C1867 C 0.08526 0.28486 0.81963
 C1868 C 0.07655 0.26695 0.82770
 C1869 C 0.05830 0.25914 0.81801
 C1870 C 0.04915 0.26932 0.80063
 C1871 C 0.05860 0.28755 0.79299
 H1872 H 0.11651 0.28061 0.85161
 H1873 H 0.14559 0.30580 0.85437
 H1874 H 0.11996 0.33901 0.80114
 H1875 H 0.08358 0.25923 0.84094
 H1876 H 0.05131 0.24520 0.82410
 H1877 H 0.05210 0.29567 0.77973
 C1878 C 0.10163 0.79962 0.31835
 C1879 C 0.09618 0.80970 0.30036
 C1880 C 0.10718 0.82667 0.29311
 C1881 C 0.12451 0.83364 0.30487
 C1882 C 0.13057 0.82368 0.32363
 C1883 C 0.11884 0.80634 0.33041
 O1884 O 0.08907 0.78369 0.32231
 C1885 C 0.07542 0.78380 0.30648
 C1886 C 0.07912 0.79945 0.29267
 C1887 C 0.06684 0.80253 0.27499
 C1888 C 0.05007 0.78888 0.27127
 C1889 C 0.04583 0.77242 0.28512
 C1890 C 0.05877 0.76993 0.30306
 H1891 H 0.10258 0.83431 0.27886
 H1892 H 0.13309 0.84691 0.29933
 H1893 H 0.12296 0.79831 0.34457
 H1894 H 0.07009 0.81500 0.26437
 H1895 H 0.04048 0.79111 0.25747
 H1896 H 0.05605 0.75756 0.31394
 C1897 C 0.61408 0.71027 0.71248
 C1898 C 0.61790 0.70326 0.73224
 C1899 C 0.63375 0.68904 0.73696
 C1900 C 0.64619 0.68167 0.72062
 C1901 C 0.64263 0.68859 0.70002
 C1902 C 0.62640 0.70329 0.69600
 O1903 O 0.59745 0.72285 0.71118
 C1904 C 0.59062 0.72376 0.73057
 C1905 C 0.60266 0.71207 0.74402
 C1906 C 0.59777 0.70979 0.76479
 C1907 C 0.57948 0.71960 0.77192
 C1908 C 0.56649 0.73145 0.75835
 C1909 C 0.57241 0.73392 0.73742
 H1910 H 0.63624 0.68356 0.75262
 H1911 H 0.65850 0.67048 0.72404
 H1912 H 0.62303 0.70867 0.68045
 H1913 H 0.60737 0.70033 0.77500
 H1914 H 0.57519 0.71757 0.78797
 H1915 H 0.56259 0.74248 0.72661
 C1916 C 0.58128 0.18644 0.19965
 C1917 C 0.57511 0.16917 0.21034
 C1918 C 0.58579 0.15029 0.20937
 C1919 C 0.60375 0.14919 0.19707
 C1920 C 0.61052 0.16671 0.18584
 C1921 C 0.59892 0.18556 0.18689
 O1922 O 0.56961 0.20317 0.20386
 C1923 C 0.55583 0.19624 0.21748
 C1924 C 0.55853 0.17551 0.22182
 C1925 C 0.54647 0.16513 0.23614
 C1926 C 0.53101 0.17659 0.24658
 C1927 C 0.52795 0.19813 0.24273
 C1928 C 0.54050 0.20804 0.22776
 H1929 H 0.58077 0.13702 0.21818
 H1930 H 0.61253 0.13472 0.19642
 H1931 H 0.60403 0.19928 0.17883
 H1932 H 0.54904 0.14883 0.23938
 H1933 H 0.52167 0.16866 0.25792
 H1934 H 0.53874 0.22445 0.22458
 C1935 C 0.08275 0.67339 0.19243
 C1936 C 0.07791 0.65914 0.20733
 C1937 C 0.08696 0.63952 0.20824
 C1938 C 0.10185 0.63432 0.19326
 C1939 C 0.10756 0.64871 0.17774
 C1940 C 0.09763 0.66854 0.17724
 O1941 O 0.07250 0.69135 0.19485
 C1942 C 0.06106 0.68828 0.21168
 C1943 C 0.06393 0.66881 0.21985
 C1944 C 0.05426 0.66233 0.23780
 C1945 C 0.04106 0.67654 0.24789
 C1946 C 0.03764 0.69679 0.23990
 C1947 C 0.04768 0.70269 0.22136
 H1948 H 0.08287 0.62864 0.22020
 H1949 H 0.10906 0.61905 0.19400
 H1950 H 0.10166 0.67994 0.16575
 H1951 H 0.05695 0.64694 0.24395
 H1952 H 0.03344 0.67170 0.26194
 H1953 H 0.04553 0.71808 0.21501
 C1954 C 0.08345 0.18012 0.70371
 C1955 C 0.07645 0.19550 0.69065
 C1956 C 0.08522 0.19895 0.67138
 C1957 C 0.10196 0.18607 0.66528
 C1958 C 0.10960 0.17002 0.67839
 C1959 C 0.10001 0.16695 0.69787
 O1960 O 0.07343 0.18004 0.72169
 C1961 C 0.05983 0.19573 0.71991
 C1962 C 0.06106 0.20564 0.70118
 C1963 C 0.04881 0.22286 0.69621
 C1964 C 0.03486 0.23038 0.71123
 C1965 C 0.03337 0.22069 0.73087
 C1966 C 0.04594 0.20290 0.73512
 H1967 H 0.07953 0.21129 0.66146
 H1968 H 0.10897 0.18870 0.65034
 H1969 H 0.10555 0.15504 0.70837
 H1970 H 0.05017 0.23046 0.68140
 H1971 H 0.02544 0.24397 0.70762
 H1972 H 0.04542 0.19529 0.75000
 C1973 C 0.42810 0.67163 0.28760
 C1974 C 0.44511 0.67304 0.30096
 C1975 C 0.44435 0.66705 0.32158
 C1976 C 0.42508 0.65998 0.32893
 C1977 C 0.40712 0.65897 0.31568
 C1978 C 0.40882 0.66422 0.29453
 O1979 O 0.43148 0.68038 0.26938
 C1980 C 0.45095 0.68760 0.27136
 C1981 C 0.45994 0.68351 0.29044
 C1982 C 0.47918 0.69170 0.29683
 C1983 C 0.48950 0.70479 0.28309
 C1984 C 0.48058 0.70928 0.26337
 C1985 C 0.46122 0.70021 0.25724
 H1986 H 0.45779 0.66881 0.33191
 H1987 H 0.42384 0.65624 0.34521
 H1988 H 0.39514 0.66442 0.28435
 H1989 H 0.48564 0.68874 0.31213
 H1990 H 0.50428 0.71173 0.28793
 H1991 H 0.45380 0.70394 0.24252
 C1992 C 0.40687 0.19015 0.78000
 C1993 C 0.40780 0.17942 0.76150
 C1994 C 0.39488 0.16257 0.75677
 C1995 C 0.38024 0.15662 0.77169
 C1996 C 0.37880 0.16757 0.79086
 C1997 C 0.39252 0.18450 0.79502
 O1998 O 0.42033 0.20586 0.78135
 C1999 C 0.42999 0.20507 0.76324
 C2000 C 0.42285 0.18918 0.75056
 C2001 C 0.43049 0.18561 0.73080
 C2002 C 0.44615 0.19892 0.72380
 C2003 C 0.45395 0.21550 0.73651
 C2004 C 0.44569 0.21856 0.75660
 H2005 H 0.39591 0.15440 0.74204
 H2006 H 0.36993 0.14368 0.76818
 H2007 H 0.39192 0.19331 0.80941
 H2008 H 0.42457 0.17305 0.72109
 H2009 H 0.45221 0.19618 0.70839
 H2010 H 0.45121 0.23100 0.76669
 C2011 C 0.88815 0.71734 0.79475
 C2012 C 0.89373 0.73489 0.80582
 C2013 C 0.88613 0.73920 0.82558
 C2014 C 0.87250 0.72465 0.83433
 C2015 C 0.86686 0.70625 0.82326
 C2016 C 0.87457 0.70290 0.80299
 O2017 O 0.89821 0.71516 0.77700
 C2018 C 0.91054 0.73166 0.77681
 C2019 C 0.90840 0.74432 0.79403
 C2020 C 0.92093 0.76168 0.79755
 C2021 C 0.93650 0.76590 0.78294
 C2022 C 0.93929 0.75272 0.76532
 C2023 C 0.92577 0.73560 0.76210
 H2024 H 0.89099 0.75295 0.83417
 H2025 H 0.86683 0.72747 0.84988
 H2026 H 0.87095 0.68894 0.79413
 H2027 H 0.91922 0.77126 0.81134
 H2028 H 0.94675 0.77905 0.78572
 H2029 H 0.92765 0.72501 0.74907
 C2030 C 0.91697 0.19627 0.29618
 C2031 C 0.92101 0.21383 0.30789
 C2032 C 0.91198 0.21742 0.32715
 C2033 C 0.89817 0.20232 0.33458
 C2034 C 0.89375 0.18404 0.32275
 C2035 C 0.90342 0.18108 0.30326
 O2036 O 0.92722 0.19568 0.27840
 C2037 C 0.93801 0.21326 0.27887
 C2038 C 0.93480 0.22494 0.29657
 C2039 C 0.94490 0.24374 0.30035
 C2040 C 0.95901 0.25066 0.28538
 C2041 C 0.96268 0.23880 0.26703
 C2042 C 0.95182 0.21989 0.26374
 H2043 H 0.91543 0.23134 0.33612
 H2044 H 0.89097 0.20490 0.34952
 H2045 H 0.90046 0.16740 0.29375
 H2046 H 0.94219 0.25265 0.31442
 H2047 H 0.96719 0.26516 0.28819
 H2048 H 0.95437 0.21035 0.25004
 C2049 C 0.29797 0.32222 0.58584
 C2050 C 0.31199 0.30772 0.57830
 C2051 C 0.33309 0.30736 0.58395
 C2052 C 0.34003 0.32233 0.59832
 C2053 C 0.32591 0.33729 0.60680
 C2054 C 0.30458 0.33744 0.60014
 O2055 O 0.27848 0.31934 0.57869
 C2056 C 0.28034 0.30267 0.56645
 C2057 C 0.30054 0.29500 0.56576
 C2058 C 0.30608 0.27743 0.55435
 C2059 C 0.29017 0.26739 0.54294
 C2060 C 0.26916 0.27502 0.54311
 C2061 C 0.26420 0.29292 0.55517
 H2062 H 0.34377 0.29575 0.57779
 H2063 H 0.35643 0.32200 0.60309
 H2064 H 0.29338 0.34846 0.60646
 H2065 H 0.32210 0.27166 0.55422
 H2066 H 0.29433 0.25376 0.53384
 H2067 H 0.24836 0.29915 0.55565
 C2068 C 0.29172 0.79768 0.10018
 C2069 C 0.30199 0.77898 0.09765
 C2070 C 0.31951 0.77336 0.10946
 C2071 C 0.32674 0.78761 0.12452
 C2072 C 0.31643 0.80707 0.12750
 C2073 C 0.29860 0.81208 0.11507
 O2074 O 0.27562 0.80013 0.08710
 C2075 C 0.27576 0.78258 0.07607
 C2076 C 0.29157 0.76911 0.08193
 C2077 C 0.29487 0.75002 0.07218
 C2078 C 0.28142 0.74466 0.05557
 C2079 C 0.26505 0.75835 0.04908
 C2080 C 0.26214 0.77753 0.05967
 H2081 H 0.32739 0.75858 0.10710
 H2082 H 0.34038 0.78342 0.13382
 H2083 H 0.29038 0.82677 0.11681
 H2084 H 0.30748 0.73972 0.07702
 H2085 H 0.28391 0.72992 0.04767
 H2086 H 0.24995 0.78841 0.05503
 C2087 C 0.79232 0.31720 0.09227
 C2088 C 0.80098 0.29770 0.08999
 C2089 C 0.81869 0.29117 0.10098
 C2090 C 0.82805 0.30539 0.11482
 C2091 C 0.81965 0.32576 0.11748
 C2092 C 0.80132 0.33164 0.10611
 O2093 O 0.77577 0.32034 0.07981
 C2094 C 0.77404 0.30241 0.06945
 C2095 C 0.78912 0.28810 0.07517
 C2096 C 0.79076 0.26854 0.06606
 C2097 C 0.77630 0.26344 0.05029
 C2098 C 0.76050 0.27782 0.04389
 C2099 C 0.75930 0.29761 0.05378
 H2100 H 0.82523 0.27574 0.09880
 H2101 H 0.84197 0.30050 0.12336
 H2102 H 0.79461 0.34708 0.10758
 H2103 H 0.80287 0.25762 0.07080
 H2104 H 0.77749 0.24821 0.04306
 H2105 H 0.74757 0.30898 0.04919
 C2106 C 0.79397 0.82496 0.57821
 C2107 C 0.77810 0.83910 0.57445
 C2108 C 0.77563 0.85729 0.58600
 C2109 C 0.78997 0.86100 0.60228
 C2110 C 0.80649 0.84669 0.60660
 C2111 C 0.80870 0.82853 0.59415
 O2112 O 0.79267 0.80812 0.56612
 C2113 C 0.77561 0.81175 0.55452
 C2114 C 0.76622 0.83054 0.55901
 C2115 C 0.74777 0.83723 0.54941
 C2116 C 0.73845 0.82393 0.53465
 C2117 C 0.74757 0.80426 0.52980
 C2118 C 0.76661 0.79821 0.53980
 H2119 H 0.76284 0.86803 0.58288
 H2120 H 0.78810 0.87496 0.61164
 H2121 H 0.82090 0.81715 0.59734
 H2122 H 0.74061 0.85203 0.55337
 H2123 H 0.72394 0.82891 0.52722
 H2124 H 0.77387 0.78326 0.53666
 C2125 C 0.33473 0.68904 0.39774
 C2126 C 0.34990 0.70230 0.40545
 C2127 C 0.36965 0.70398 0.39669
 C2128 C 0.37391 0.69158 0.37919
 C2129 C 0.35844 0.67791 0.37071
 C2130 C 0.33859 0.67661 0.38031
 O2131 O 0.31693 0.68996 0.40824
 C2132 C 0.32094 0.70416 0.42284
 C2133 C 0.34087 0.71223 0.42179
 C2134 C 0.34818 0.72764 0.43531
 C2135 C 0.33438 0.73502 0.45056
 C2136 C 0.31375 0.72686 0.45208
 C2137 C 0.30703 0.71114 0.43797
 H2138 H 0.38132 0.71456 0.40302
 H2139 H 0.38918 0.69289 0.37212
 H2140 H 0.32639 0.66644 0.37430
 H2141 H 0.36390 0.73384 0.43409
 H2142 H 0.33982 0.74703 0.46122
 H2143 H 0.29137 0.70467 0.43858
 C2144 C 0.32487 0.19649 0.88566
 C2145 C 0.34174 0.20872 0.89117
 C2146 C 0.36052 0.20850 0.88042
 C2147 C 0.36193 0.19523 0.86312
 C2148 C 0.34472 0.18248 0.85697
 C2149 C 0.32598 0.18300 0.86861
 O2150 O 0.30825 0.19966 0.89759
 C2151 C 0.31482 0.21421 0.91089
 C2152 C 0.33522 0.22022 0.90761
 C2153 C 0.34519 0.23555 0.91935
 C2154 C 0.33365 0.24516 0.93515
 C2155 C 0.31248 0.23940 0.93888
 C2156 C 0.30299 0.22359 0.92656
 H2157 H 0.37353 0.21839 0.88502
 H2158 H 0.37640 0.19500 0.85446
 H2159 H 0.31249 0.17367 0.86421
 H2160 H 0.36123 0.24007 0.91636
 H2161 H 0.34123 0.25721 0.94436
 H2162 H 0.28689 0.21888 0.92891
 C2163 C 0.81139 0.68470 0.91311
 C2164 C 0.82866 0.68474 0.92622
 C2165 C 0.84893 0.68051 0.91948
 C2166 C 0.85159 0.67642 0.89829
 C2167 C 0.83413 0.67651 0.88444
 C2168 C 0.81368 0.68036 0.89194
 O2169 O 0.79389 0.69106 0.92235
 C2170 C 0.80029 0.69529 0.94164
 C2171 C 0.82145 0.69167 0.94476
 C2172 C 0.83195 0.69686 0.96311
 C2173 C 0.82027 0.70649 0.97882
 C2174 C 0.79849 0.71058 0.97600
 C2175 C 0.78824 0.70449 0.95729
 H2176 H 0.86231 0.68113 0.93002
 H2177 H 0.86732 0.67384 0.89250
 H2178 H 0.80026 0.68123 0.88146
 H2179 H 0.84870 0.69427 0.96500
 H2180 H 0.82827 0.71117 0.99304
 H2181 H 0.77177 0.70801 0.95454
 C2182 C 0.83252 0.18347 0.40304
 C2183 C 0.81716 0.16962 0.40837
 C2184 C 0.81315 0.15152 0.39705
 C2185 C 0.82543 0.14756 0.37949
 C2186 C 0.84133 0.16169 0.37354
 C2187 C 0.84488 0.17988 0.38565
 O2188 O 0.83375 0.19978 0.41579
 C2189 C 0.81881 0.19616 0.42944
 C2190 C 0.80817 0.17794 0.42559
 C2191 C 0.79175 0.17129 0.43786
 C2192 C 0.78609 0.18395 0.45480
 C2193 C 0.79688 0.20282 0.45916
 C2194 C 0.81351 0.20893 0.44621
 H2195 H 0.80096 0.14085 0.40153
 H2196 H 0.82239 0.13357 0.37048
 H2197 H 0.85682 0.19103 0.38165
 H2198 H 0.78357 0.15691 0.43449
 H2199 H 0.77335 0.17898 0.46451
 H2200 H 0.82204 0.22323 0.44901
 C2201 C 0.69760 0.29091 0.42366
 C2202 C 0.71185 0.30645 0.42792
 C2203 C 0.71213 0.32502 0.41716
 C2204 C 0.69727 0.32762 0.40115
 C2205 C 0.68253 0.31174 0.39617
 C2206 C 0.68255 0.29322 0.40787
 O2207 O 0.70079 0.27406 0.43503
 C2208 C 0.71746 0.27908 0.44664
 C2209 C 0.72479 0.29873 0.44286
 C2210 C 0.74274 0.30678 0.45240
 C2211 C 0.75371 0.29397 0.46630
 C2212 C 0.74659 0.27356 0.47044
 C2213 C 0.72800 0.26613 0.46063
 H2214 H 0.72365 0.33691 0.42069
 H2215 H 0.69750 0.34192 0.39246
 H2216 H 0.67177 0.28068 0.40430
 H2217 H 0.74832 0.32221 0.44895
 H2218 H 0.76787 0.29992 0.47370
 H2219 H 0.72237 0.25053 0.46320
 C2220 C 0.70219 0.80848 0.92992
 C2221 C 0.72191 0.81715 0.92951
 C2222 C 0.72700 0.83329 0.91644
 C2223 C 0.71108 0.84105 0.90342
 C2224 C 0.69038 0.83273 0.90366
 C2225 C 0.68601 0.81596 0.91701
 O2226 O 0.70070 0.79344 0.94380
 C2227 C 0.71987 0.79271 0.95231
 C2228 C 0.73338 0.80695 0.94412
 C2229 C 0.75406 0.80923 0.95102
 C2230 C 0.76118 0.79622 0.96699
 C2231 C 0.74767 0.78121 0.97566
 C2232 C 0.72666 0.77949 0.96813
 H2233 H 0.74264 0.83984 0.91642
 H2234 H 0.71492 0.85378 0.89333
 H2235 H 0.67044 0.80932 0.91775
 H2236 H 0.76434 0.82067 0.94439
 H2237 H 0.77727 0.79776 0.97246
 H2238 H 0.71590 0.76830 0.97444
 C2239 C 0.21284 0.32783 0.89307
 C2240 C 0.23069 0.33983 0.89382
 C2241 C 0.23414 0.35571 0.87979
 C2242 C 0.21865 0.35919 0.86440
 C2243 C 0.20021 0.34678 0.86329
 C2244 C 0.19735 0.33099 0.87803
 O2245 O 0.21267 0.31313 0.90724
 C2246 C 0.23081 0.31582 0.91717
 C2247 C 0.24253 0.33192 0.90969
 C2248 C 0.26243 0.33675 0.91767
 C2249 C 0.27054 0.32432 0.93381
 C2250 C 0.25871 0.30746 0.94147
 C2251 C 0.23846 0.30346 0.93307
 H2252 H 0.24834 0.36491 0.88052
 H2253 H 0.22118 0.37134 0.85324
 H2254 H 0.18360 0.32113 0.87770
 H2255 H 0.27149 0.34939 0.91149
 H2256 H 0.28610 0.32755 0.94001
 H2257 H 0.22895 0.29071 0.93838
 C2258 C 0.19573 0.80020 0.40780
 C2259 C 0.19983 0.81577 0.42211
 C2260 C 0.19179 0.83578 0.42025
 C2261 C 0.17988 0.84023 0.40242
 C2262 C 0.17633 0.82483 0.38686
 C2263 C 0.18374 0.80430 0.38990
 O2264 O 0.20598 0.78264 0.41200
 C2265 C 0.21688 0.78735 0.42915
 C2266 C 0.21381 0.80750 0.43582
 C2267 C 0.22486 0.81624 0.45249
 C2268 C 0.23934 0.80353 0.46307
 C2269 C 0.24227 0.78247 0.45699
 C2270 C 0.23090 0.77430 0.43972
 H2271 H 0.19543 0.84780 0.43160
 H2272 H 0.17461 0.85609 0.40001
 H2273 H 0.18199 0.79252 0.37788
 H2274 H 0.22246 0.83229 0.45716
 H2275 H 0.24776 0.80990 0.47638
 H2276 H 0.23296 0.75831 0.43467
 C2277 C 0.68349 0.70252 0.59608
 C2278 C 0.66644 0.71500 0.59163
 C2279 C 0.64925 0.71689 0.60459
 C2280 C 0.64967 0.70559 0.62303
 C2281 C 0.66704 0.69257 0.62818
 C2282 C 0.68412 0.69084 0.61430
 O2283 O 0.69856 0.70376 0.58201
 C2284 C 0.69079 0.71734 0.56844
 C2285 C 0.67115 0.72458 0.57366
 C2286 C 0.66028 0.73935 0.56215
 C2287 C 0.67007 0.74716 0.54457
 C2288 C 0.69046 0.74024 0.53877
 C2289 C 0.70088 0.72489 0.55086
 H2290 H 0.63611 0.72699 0.60079
 H2291 H 0.63644 0.70708 0.63336
 H2292 H 0.69774 0.68129 0.61791
 H2293 H 0.64489 0.74488 0.56670
 H2294 H 0.66177 0.75882 0.53560
 H2295 H 0.71649 0.71940 0.54703
 C2296 C 0.67429 0.19245 0.09541
 C2297 C 0.65702 0.20237 0.08703
 C2298 C 0.63748 0.20257 0.09640
 C2299 C 0.63563 0.19220 0.11529
 C2300 C 0.65321 0.18194 0.12452
 C2301 C 0.67280 0.18197 0.11422
 O2302 O 0.69161 0.19502 0.08441
 C2303 C 0.68511 0.20688 0.06880
 C2304 C 0.66406 0.21179 0.06975
 C2305 C 0.65413 0.22503 0.05580
 C2306 C 0.66646 0.23386 0.04040
 C2307 C 0.68826 0.22923 0.03909
 C2308 C 0.69766 0.21522 0.05329
 H2309 H 0.62418 0.21068 0.08957
 H2310 H 0.62050 0.19242 0.12280
 H2311 H 0.68661 0.17453 0.12085
 H2312 H 0.63760 0.22887 0.05706
 H2313 H 0.65910 0.24459 0.02967
 H2314 H 0.71434 0.21181 0.05294
 C2315 C 0.17191 0.67268 0.08713
 C2316 C 0.15671 0.68664 0.08091
 C2317 C 0.13774 0.68917 0.09109
 C2318 C 0.13420 0.67676 0.10840
 C2319 C 0.14949 0.66206 0.11521
 C2320 C 0.16863 0.65996 0.10426
 O2321 O 0.18924 0.67355 0.07581
 C2322 C 0.18481 0.68838 0.06217
 C2323 C 0.16504 0.69677 0.06465
 C2324 C 0.15735 0.71304 0.05274
 C2325 C 0.17072 0.72137 0.03793
 C2326 C 0.19141 0.71343 0.03525
 C2327 C 0.19840 0.69636 0.04731
 H2328 H 0.12614 0.70045 0.08600
 H2329 H 0.11945 0.67859 0.11643
 H2330 H 0.18071 0.64908 0.10914
 H2331 H 0.14178 0.71945 0.05511
 H2332 H 0.16508 0.73439 0.02887
 H2333 H 0.21421 0.69022 0.04593
 C2334 C 0.17705 0.18346 0.60486
 C2335 C 0.19329 0.17098 0.59823
 C2336 C 0.19843 0.15222 0.60760
 C2337 C 0.18630 0.14602 0.62448
 C2338 C 0.16934 0.15854 0.63165
 C2339 C 0.16476 0.17759 0.62159
 O2340 O 0.17479 0.20068 0.59382
 C2341 C 0.18995 0.19902 0.57989
 C2342 C 0.20168 0.18111 0.58193
 C2343 C 0.21827 0.17616 0.56895
 C2344 C 0.22302 0.19024 0.55325
 C2345 C 0.21125 0.20894 0.55076
 C2346 C 0.19442 0.21332 0.56437
 H2347 H 0.21131 0.14266 0.60211
 H2348 H 0.19012 0.13142 0.63187
 H2349 H 0.15199 0.18759 0.62657
 H2350 H 0.22727 0.16195 0.57084
 H2351 H 0.23596 0.18655 0.54308
 H2352 H 0.18510 0.22738 0.56296
   
