data_POSCAR
  _audit_creation_date              2014-09-24
  _audit_creation_method            'ToBaCCo'
  _symmetry_space_group_name_H-M    'P1'
  _symmetry_Int_Tables_number       1
  _symmetry_cell_setting            triclinic
  loop_
  _symmetry_equiv_pos_as_xyz
 x,y,z
_cell_length_a 83.6826
_cell_length_b 83.8869
_cell_length_c 84.2076
_cell_angle_alpha 90.083000
_cell_angle_beta 90.076900
_cell_angle_gamma 90.021500
loop_
  _atom_site_label
  _atom_site_type_symbol
  _atom_site_fract_x
  _atom_site_fract_y
  _atom_site_fract_z
N1 N 0.17521 0.21352 0.21634
 N2 N 0.17916 0.20062 0.22432
 C3 C 0.16902 0.19881 0.23660
 C4 C 0.15821 0.21120 0.23618
 C5 C 0.16241 0.22032 0.22324
 H6 H 0.16953 0.18934 0.24530
 H7 H 0.15671 0.23118 0.21928
 Cu8 Cu 0.19761 0.18809 0.21796
 Cu9 Cu 0.18725 0.22085 0.19786
 Cu10 Cu 0.22082 0.19868 0.18751
 N11 N 0.21658 0.17585 0.21267
 N12 N 0.22570 0.18016 0.20069
 C13 C 0.23814 0.17004 0.19958
 C14 C 0.23667 0.15889 0.21150
 C15 C 0.22294 0.16284 0.21961
 H16 H 0.24754 0.17075 0.19081
 H17 H 0.21802 0.15673 0.22979
 N18 N 0.21384 0.21777 0.17571
 N19 N 0.20106 0.22619 0.17960
 C20 C 0.19947 0.23835 0.16927
 C21 C 0.21180 0.23747 0.15849
 C22 C 0.22068 0.22437 0.16282
 H23 H 0.19006 0.24718 0.16952
 H24 H 0.23130 0.21998 0.15697
 H25 H 0.19647 0.19910 0.19125
 H26 H 0.20889 0.21141 0.20494
 N27 N 0.67563 0.71395 0.71734
 N28 N 0.68008 0.70151 0.72575
 C29 C 0.66991 0.69964 0.73801
 C30 C 0.65859 0.71154 0.73713
 C31 C 0.66249 0.72042 0.72395
 H32 H 0.67071 0.69045 0.74696
 H33 H 0.65632 0.73086 0.71958
 Cu34 Cu 0.69890 0.68924 0.71993
 Cu35 Cu 0.68733 0.72103 0.69866
 Cu36 Cu 0.72082 0.69909 0.68800
 N37 N 0.71755 0.67688 0.71377
 N38 N 0.72612 0.68081 0.70128
 C39 C 0.73828 0.67042 0.69971
 C40 C 0.73720 0.65948 0.71187
 C41 C 0.72398 0.66384 0.72057
 H42 H 0.74722 0.67076 0.69045
 H43 H 0.71943 0.65794 0.73104
 N44 N 0.71349 0.71798 0.67611
 N45 N 0.70072 0.72631 0.68016
 C46 C 0.69887 0.73843 0.66982
 C47 C 0.71103 0.73761 0.65886
 C48 C 0.72009 0.72459 0.66309
 H49 H 0.68943 0.74722 0.67023
 H50 H 0.73068 0.72030 0.65712
 H51 H 0.69664 0.69895 0.69275
 H52 H 0.70937 0.71210 0.70542
 N53 N 0.32405 0.78607 0.71701
 N54 N 0.32086 0.79974 0.72399
 C55 C 0.33085 0.80178 0.73638
 C56 C 0.34075 0.78868 0.73712
 C57 C 0.33620 0.77893 0.72472
 H58 H 0.33093 0.81200 0.74423
 H59 H 0.34136 0.76755 0.72153
 Cu60 Cu 0.30409 0.81370 0.71628
 Cu61 Cu 0.31224 0.77866 0.69846
 Cu62 Cu 0.27902 0.80076 0.68776
 N63 N 0.28396 0.82434 0.71202
 N64 N 0.27416 0.81927 0.70087
 C65 C 0.26127 0.82887 0.70037
 C66 C 0.26320 0.84045 0.71184
 C67 C 0.27765 0.83732 0.71903
 H68 H 0.25132 0.82757 0.69224
 H69 H 0.28319 0.84400 0.72857
 N70 N 0.28598 0.78168 0.67603
 N71 N 0.29868 0.77324 0.68007
 C72 C 0.30034 0.76104 0.66976
 C73 C 0.28811 0.76194 0.65884
 C74 C 0.27923 0.77508 0.66306
 H75 H 0.30974 0.75220 0.67013
 H76 H 0.26868 0.77951 0.65709
 H77 H 0.30362 0.80033 0.69054
 H78 H 0.29151 0.78974 0.70595
 N79 N 0.82436 0.28586 0.21741
 N80 N 0.82088 0.29928 0.22473
 C81 C 0.83093 0.30127 0.23710
 C82 C 0.84115 0.28840 0.23744
 C83 C 0.83676 0.27884 0.22484
 H84 H 0.83088 0.31135 0.24513
 H85 H 0.84224 0.26772 0.22127
 Cu86 Cu 0.80385 0.31314 0.21726
 Cu87 Cu 0.81275 0.27867 0.19866
 Cu88 Cu 0.77959 0.30077 0.18774
 N89 N 0.78386 0.32392 0.21252
 N90 N 0.77444 0.31911 0.20095
 C91 C 0.76166 0.32883 0.20013
 C92 C 0.76322 0.34024 0.21182
 C93 C 0.77739 0.33686 0.21948
 H94 H 0.75203 0.32777 0.19161
 H95 H 0.78262 0.34340 0.22927
 N96 N 0.78679 0.28182 0.17590
 N97 N 0.79944 0.27338 0.18005
 C98 C 0.80120 0.26120 0.16975
 C99 C 0.78909 0.26210 0.15870
 C100 C 0.78016 0.27524 0.16286
 H101 H 0.81054 0.25230 0.17025
 H102 H 0.76961 0.27961 0.15685
 H103 H 0.80407 0.30047 0.19113
 H104 H 0.79169 0.28937 0.20593
 N105 N 0.82385 0.71463 0.28242
 N106 N 0.81948 0.70210 0.27404
 C107 C 0.82977 0.70013 0.26190
 C108 C 0.84106 0.71206 0.26279
 C109 C 0.83704 0.72106 0.27588
 H110 H 0.82913 0.69077 0.25307
 H111 H 0.84323 0.73148 0.28031
 Cu112 Cu 0.80075 0.68967 0.27984
 Cu113 Cu 0.81211 0.72167 0.30113
 Cu114 Cu 0.77890 0.69939 0.31186
 N115 N 0.78224 0.67714 0.28609
 N116 N 0.77372 0.68102 0.29864
 C117 C 0.76167 0.67049 0.30030
 C118 C 0.76278 0.65953 0.28815
 C119 C 0.77590 0.66400 0.27935
 H120 H 0.75280 0.67078 0.30963
 H121 H 0.78044 0.65811 0.26886
 N122 N 0.78605 0.71838 0.32374
 N123 N 0.79869 0.72687 0.31967
 C124 C 0.80045 0.73899 0.33006
 C125 C 0.78836 0.73798 0.34109
 C126 C 0.77944 0.72486 0.33683
 H127 H 0.80982 0.74786 0.32969
 H128 H 0.76896 0.72039 0.34285
 H129 H 0.80313 0.69953 0.30699
 H130 H 0.79022 0.71253 0.29439
 N131 N 0.32467 0.21431 -0.21773
 N132 N 0.32067 0.20153 -0.22590
 C133 C 0.33093 0.19974 -0.23811
 C134 C 0.34182 0.21205 -0.23741
 C135 C 0.33760 0.22109 -0.22441
 H136 H 0.33048 0.19030 -0.24686
 H137 H 0.34342 0.23181 -0.22020
 Cu138 Cu 0.30233 0.18859 -0.21996
 Cu139 Cu 0.31272 0.22138 -0.19923
 Cu140 Cu 0.27937 0.19929 -0.18888
 N141 N 0.28326 0.17666 -0.21421
 N142 N 0.27432 0.18089 -0.20207
 C143 C 0.26201 0.17063 -0.20074
 C144 C 0.26337 0.15947 -0.21268
 C145 C 0.27691 0.16356 -0.22103
 H146 H 0.25281 0.17120 -0.19175
 H147 H 0.28175 0.15741 -0.23124
 N148 N 0.28639 0.21827 -0.17698
 N149 N 0.29913 0.22668 -0.18090
 C150 C 0.30084 0.23880 -0.17051
 C151 C 0.28860 0.23789 -0.15964
 C152 C 0.27966 0.22481 -0.16399
 H153 H 0.31027 0.24761 -0.17077
 H154 H 0.26908 0.22040 -0.15808
 H155 H 0.30372 0.19931 -0.19302
 H156 H 0.29116 0.21180 -0.20651
 N157 N 0.67537 0.28622 -0.21727
 N158 N 0.67847 0.29997 -0.22410
 C159 C 0.66855 0.30199 -0.23654
 C160 C 0.65879 0.28878 -0.23744
 C161 C 0.66334 0.27900 -0.22511
 H162 H 0.66843 0.31227 -0.24429
 H163 H 0.65827 0.26754 -0.22205
 Cu164 Cu 0.69511 0.31399 -0.21611
 Cu165 Cu 0.68708 0.27879 -0.19872
 Cu166 Cu 0.72006 0.30101 -0.18750
 N167 N 0.71517 0.32470 -0.21161
 N168 N 0.72491 0.31962 -0.20043
 C169 C 0.73786 0.32915 -0.19993
 C170 C 0.73605 0.34071 -0.21141
 C171 C 0.72159 0.33761 -0.21862
 H172 H 0.74785 0.32775 -0.19189
 H173 H 0.71618 0.34421 -0.22826
 N174 N 0.71308 0.28180 -0.17599
 N175 N 0.70048 0.27331 -0.18027
 C176 C 0.69876 0.26102 -0.17013
 C177 C 0.71084 0.26189 -0.15905
 C178 C 0.71971 0.27512 -0.16301
 H179 H 0.68942 0.25213 -0.17071
 H180 H 0.73017 0.27956 -0.15687
 H181 H 0.69552 0.30048 -0.19049
 H182 H 0.70783 0.29010 -0.20590
 N183 N 0.17556 0.78729 0.28349
 N184 N 0.18008 0.79970 0.27506
 C185 C 0.17010 0.80139 0.26259
 C186 C 0.15885 0.78941 0.26336
 C187 C 0.16259 0.78067 0.27669
 H188 H 0.17100 0.81050 0.25357
 H189 H 0.15643 0.77020 0.28101
 Cu190 Cu 0.19877 0.81211 0.28110
 Cu191 Cu 0.18704 0.78035 0.30239
 Cu192 Cu 0.22019 0.80260 0.31349
 N193 N 0.21728 0.82461 0.28751
 N194 N 0.22559 0.82082 0.30024
 C195 C 0.23786 0.83108 0.30187
 C196 C 0.23712 0.84178 0.28951
 C197 C 0.22400 0.83744 0.28059
 H198 H 0.24673 0.83068 0.31123
 H199 H 0.21980 0.84311 0.26984
 N200 N 0.21284 0.78375 0.32535
 N201 N 0.20023 0.77525 0.32112
 C202 C 0.19862 0.76292 0.33124
 C203 C 0.21076 0.76380 0.34225
 C204 C 0.21957 0.77706 0.33826
 H205 H 0.18947 0.75384 0.33053
 H206 H 0.23022 0.78132 0.34419
 H207 H 0.19604 0.80250 0.30826
 H208 H 0.20906 0.78935 0.29592
 N209 N 0.46354 0.42477 0.46727
 N210 N 0.45054 0.42876 0.47509
 C211 C 0.44866 0.41876 0.48746
 C212 C 0.46111 0.40804 0.48726
 C213 C 0.47035 0.41210 0.47436
 H214 H 0.43908 0.41933 0.49606
 H215 H 0.48126 0.40637 0.47053
 Cu216 Cu 0.43748 0.44684 0.46878
 Cu217 Cu 0.47080 0.43649 0.44874
 Cu218 Cu 0.44909 0.46988 0.43801
 N219 N 0.42609 0.46617 0.46297
 N220 N 0.43068 0.47518 0.45103
 C221 C 0.42075 0.48776 0.44982
 C222 C 0.40945 0.48649 0.46163
 C223 C 0.41310 0.47274 0.46977
 H224 H 0.42166 0.49709 0.44102
 H225 H 0.40677 0.46792 0.47987
 N226 N 0.46807 0.46258 0.42627
 N227 N 0.47633 0.44981 0.43035
 C228 C 0.48856 0.44794 0.42011
 C229 C 0.48787 0.46010 0.40917
 C230 C 0.47482 0.46917 0.41332
 H231 H 0.49732 0.43848 0.42055
 H232 H 0.47059 0.47977 0.40735
 H233 H 0.46104 0.45805 0.45597
 H234 H 0.44878 0.44563 0.44207
 N235 N -0.03614 -0.07478 0.96634
 N236 N -0.04864 -0.07041 0.97473
 C237 C -0.05047 -0.08055 0.98700
 C238 C -0.03848 -0.09178 0.98613
 C239 C -0.02959 -0.08785 0.97295
 H240 H -0.05968 -0.07979 0.99596
 H241 H -0.01905 -0.09391 0.96863
 Cu242 Cu -0.06100 -0.05165 0.96895
 Cu243 Cu -0.02900 -0.06299 0.94773
 Cu244 Cu -0.05110 -0.02962 0.93719
 N245 N -0.07342 -0.03304 0.96288
 N246 N -0.06948 -0.02446 0.95042
 C247 C -0.07983 -0.01226 0.94893
 C248 C -0.09076 -0.01334 0.96111
 C249 C -0.08643 -0.02658 0.96976
 H250 H -0.07941 -0.00326 0.93976
 H251 H -0.09230 -0.03109 0.98027
 N252 N -0.03212 -0.03678 0.92533
 N253 N -0.02370 -0.04949 0.92933
 C254 C -0.01145 -0.05114 0.91907
 C255 C -0.01230 -0.03890 0.90822
 C256 C -0.02545 -0.03002 0.91244
 H257 H -0.00255 -0.06047 0.91947
 H258 H -0.02977 -0.01941 0.90656
 H259 H -0.03805 -0.04111 0.95459
 H260 H -0.05114 -0.05380 0.94182
 N261 N 1.03574 0.57437 0.96743
 N262 N 1.04829 0.56997 0.97578
 C263 C 1.05023 0.58014 0.98804
 C264 C 1.03824 0.59137 0.98727
 C265 C 1.02925 0.58744 0.97412
 H266 H 1.05959 0.57946 0.99688
 H267 H 1.01882 0.59365 0.96972
 Cu268 Cu 1.06078 0.55138 0.96971
 Cu269 Cu 1.02874 0.56280 0.94859
 Cu270 Cu 1.05094 0.52962 0.93760
 N271 N 1.07316 0.53277 0.96350
 N272 N 1.06924 0.52431 0.95092
 C273 C 1.07960 0.51213 0.94933
 C274 C 1.09053 0.51310 0.96154
 C275 C 1.08620 0.52628 0.97032
 H276 H 1.07924 0.50327 0.93999
 H277 H 1.09210 0.53072 0.98087
 N278 N 1.03202 0.53697 0.92572
 N279 N 1.02355 0.54958 0.92990
 C280 C 1.01134 0.55137 0.91958
 C281 C 1.01227 0.53932 0.90849
 C282 C 1.02542 0.53040 0.91265
 H283 H 1.00239 0.56065 0.92012
 H284 H 1.02977 0.51987 0.90664
 H285 H 1.03793 0.54081 0.95511
 H286 H 1.05096 0.55370 0.94255
 N287 N 0.53559 0.07475 0.46752
 N288 N 0.54819 0.07037 0.47579
 C289 C 0.55011 0.08045 0.48812
 C290 C 0.53808 0.09164 0.48745
 C291 C 0.52906 0.08776 0.47430
 H292 H 0.55953 0.07977 0.49690
 H293 H 0.51860 0.09395 0.46998
 Cu294 Cu 0.56083 0.05194 0.46955
 Cu295 Cu 0.52853 0.06329 0.44864
 Cu296 Cu 0.55069 0.03015 0.43756
 N297 N 0.57297 0.03315 0.46338
 N298 N 0.56897 0.02471 0.45081
 C299 C 0.57927 0.01248 0.44918
 C300 C 0.59021 0.01338 0.46139
 C301 C 0.58596 0.02656 0.47020
 H302 H 0.57886 0.00364 0.43983
 H303 H 0.59191 0.03098 0.48073
 N304 N 0.53178 0.03754 0.42570
 N305 N 0.52332 0.05014 0.42993
 C306 C 0.51105 0.05190 0.41968
 C307 C 0.51194 0.03985 0.40860
 C308 C 0.52514 0.03096 0.41267
 H309 H 0.50205 0.06113 0.42030
 H310 H 0.52944 0.02041 0.40666
 H311 H 0.53777 0.04145 0.45523
 H312 H 0.55066 0.05433 0.44250
 N313 N -0.03512 0.07405 0.53252
 N314 N -0.04760 0.06969 0.52404
 C315 C -0.04950 0.08001 0.51192
 C316 C -0.03757 0.09131 0.51295
 C317 C -0.02865 0.08725 0.52610
 H318 H -0.05882 0.07940 0.50303
 H319 H -0.01827 0.09345 0.53065
 Cu320 Cu -0.06009 0.05097 0.52972
 Cu321 Cu -0.02818 0.06234 0.55126
 Cu322 Cu -0.05057 0.02926 0.56191
 N323 N -0.07273 0.03255 0.53602
 N324 N -0.06893 0.02409 0.54862
 C325 C -0.07951 0.01211 0.55029
 C326 C -0.09046 0.01319 0.53810
 C327 C -0.08590 0.02623 0.52926
 H328 H -0.07928 0.00330 0.55965
 H329 H -0.09177 0.03074 0.51873
 N330 N -0.03159 0.03637 0.57386
 N331 N -0.02305 0.04898 0.56981
 C332 C -0.01092 0.05071 0.58022
 C333 C -0.01195 0.03863 0.59123
 C334 C -0.02511 0.02975 0.58694
 H335 H -0.00200 0.06003 0.57986
 H336 H -0.02959 0.01927 0.59293
 H337 H -0.03730 0.04045 0.54447
 H338 H -0.05044 0.05338 0.55693
 N339 N 0.46453 0.57427 0.03241
 N340 N 0.45204 0.56978 0.02400
 C341 C 0.45004 0.57997 0.01180
 C342 C 0.46191 0.59133 0.01269
 C343 C 0.47091 0.58744 0.02584
 H344 H 0.44073 0.57920 0.00291
 H345 H 0.48131 0.59369 0.03025
 Cu346 Cu 0.43972 0.55101 0.02978
 Cu347 Cu 0.47164 0.56266 0.05116
 Cu348 Cu 0.44953 0.52938 0.06188
 N349 N 0.42728 0.53248 0.03607
 N350 N 0.43120 0.52404 0.04864
 C351 C 0.42075 0.51195 0.05031
 C352 C 0.40977 0.51293 0.03815
 C353 C 0.41416 0.52603 0.02931
 H354 H 0.42108 0.50313 0.05967
 H355 H 0.40823 0.53050 0.01881
 N356 N 0.46847 0.53667 0.07378
 N357 N 0.47690 0.54934 0.06973
 C358 C 0.48902 0.55118 0.08014
 C359 C 0.48808 0.53909 0.09115
 C360 C 0.47500 0.53011 0.08687
 H361 H 0.49786 0.56057 0.07978
 H362 H 0.47059 0.51961 0.09287
 H363 H 0.46268 0.54073 0.04442
 H364 H 0.44950 0.55354 0.05695
 N365 N 0.53681 -0.07495 0.03317
 N366 N 0.54927 -0.07038 0.02481
 C367 C 0.55109 -0.08034 0.01236
 C368 C 0.53915 -0.09163 0.01308
 C369 C 0.53029 -0.08793 0.02635
 H370 H 0.56029 -0.07942 0.00340
 H371 H 0.51982 -0.09415 0.03063
 Cu372 Cu 0.56158 -0.05168 0.03091
 Cu373 Cu 0.52970 -0.06352 0.05203
 Cu374 Cu 0.55176 -0.03030 0.06320
 N375 N 0.57398 -0.03314 0.03734
 N376 N 0.57006 -0.02484 0.05002
 C377 C 0.58030 -0.01256 0.05168
 C378 C 0.59113 -0.01328 0.03939
 C379 C 0.58687 -0.02641 0.03049
 H380 H 0.57984 -0.00371 0.06102
 H381 H 0.59265 -0.03062 0.01980
 N382 N 0.53285 -0.03774 0.07497
 N383 N 0.52443 -0.05038 0.07072
 C384 C 0.51211 -0.05214 0.08086
 C385 C 0.51290 -0.04005 0.09190
 C386 C 0.52610 -0.03113 0.08792
 H387 H 0.50312 -0.06138 0.08018
 H388 H 0.53033 -0.02052 0.09391
 H389 H 0.53865 -0.04149 0.04559
 H390 H 0.55182 -0.05438 0.05802
 N391 N 1.03651 0.42553 0.53293
 N392 N 1.04942 0.42954 0.52498
 C393 C 1.05122 0.41947 0.51261
 C394 C 1.03879 0.40868 0.51296
 C395 C 1.02967 0.41280 0.52593
 H396 H 1.06073 0.42000 0.50395
 H397 H 1.01882 0.40705 0.52988
 Cu398 Cu 1.06239 0.44777 0.53128
 Cu399 Cu 1.02933 0.43726 0.55152
 Cu400 Cu 1.05127 0.47049 0.56247
 N401 N 1.07415 0.46688 0.53732
 N402 N 1.06971 0.47572 0.54945
 C403 C 1.07973 0.48822 0.55084
 C404 C 1.09096 0.48708 0.53895
 C405 C 1.08715 0.47347 0.53056
 H406 H 1.07890 0.49746 0.55977
 H407 H 1.09336 0.46881 0.52030
 N408 N 1.03224 0.46326 0.57416
 N409 N 1.02387 0.45057 0.57000
 C410 C 1.01161 0.44878 0.58020
 C411 C 1.01239 0.46091 0.59121
 C412 C 1.02553 0.46988 0.58713
 H413 H 1.00276 0.43940 0.57969
 H414 H 1.02984 0.48043 0.59317
 H415 H 1.03905 0.45893 0.54455
 H416 H 1.05144 0.44633 0.55809
 C417 C 0.35774 -0.01435 0.25336
 C418 C 0.36588 -0.00019 0.24979
 C419 C 0.35724 0.01371 0.24634
 C420 C 0.34050 0.01344 0.24647
 C421 C 0.33241 -0.00073 0.25004
 C422 C 0.34101 -0.01461 0.25349
 C423 C 0.38342 0.00007 0.24969
 C424 C 0.39176 -0.00324 0.23564
 C425 C 0.40849 -0.00322 0.23560
 C426 C 0.41690 0.00014 0.24961
 C427 C 0.40859 0.00346 0.26365
 C428 C 0.39185 0.00341 0.26370
 H429 H 0.36442 -0.02509 0.25603
 H430 H 0.36353 0.02466 0.24359
 H431 H 0.38523 -0.00588 0.22482
 H432 H 0.38540 0.00591 0.27458
 H433 H 0.31945 -0.00094 0.25015
 H434 H 0.42986 0.00012 0.24959
 C435 C 0.14317 -0.01484 0.74668
 C436 C 0.13483 -0.00071 0.74993
 C437 C 0.14328 0.01336 0.75323
 C438 C 0.16001 0.01328 0.75332
 C439 C 0.16830 -0.00084 0.75006
 C440 C 0.15991 -0.01489 0.74673
 C441 C 0.11728 -0.00064 0.74992
 C442 C 0.10889 -0.00429 0.76386
 C443 C 0.09216 -0.00412 0.76388
 C444 C 0.08381 -0.00034 0.74997
 C445 C 0.09214 0.00329 0.73603
 C446 C 0.10888 0.00316 0.73600
 H447 H 0.13665 -0.02572 0.74413
 H448 H 0.13683 0.02428 0.75576
 H449 H 0.11538 -0.00719 0.77463
 H450 H 0.11536 0.00599 0.72523
 H451 H 0.18127 -0.00089 0.75012
 H452 H 0.07085 -0.00020 0.75000
 C453 C 0.64226 0.48550 0.24675
 C454 C 0.63393 0.49958 0.25026
 C455 C 0.64239 0.51361 0.25370
 C456 C 0.65913 0.51355 0.25366
 C457 C 0.66741 0.49948 0.25014
 C458 C 0.65900 0.48546 0.24668
 C459 C 0.61637 0.49959 0.25037
 C460 C 0.60809 0.49567 0.26429
 C461 C 0.59135 0.49561 0.26439
 C462 C 0.58289 0.49944 0.25055
 C463 C 0.59112 0.50335 0.23662
 C464 C 0.60786 0.50344 0.23653
 H465 H 0.63573 0.47465 0.24409
 H466 H 0.63596 0.52449 0.25642
 H467 H 0.61466 0.49267 0.27499
 H468 H 0.61426 0.50645 0.22575
 H469 H 0.68037 0.49943 0.25010
 H470 H 0.56993 0.49937 0.25062
 C471 C 0.85733 0.48512 0.75201
 C472 C 0.86561 0.49942 0.74939
 C473 C 0.85710 0.51353 0.74653
 C474 C 0.84036 0.51333 0.74624
 C475 C 0.83213 0.49905 0.74891
 C476 C 0.84059 0.48495 0.75182
 C477 C 0.88317 0.49960 0.74959
 C478 C 0.89173 0.49572 0.73581
 C479 C 0.90846 0.49586 0.73599
 C480 C 0.91665 0.49978 0.74998
 C481 C 0.90814 0.50360 0.76378
 C482 C 0.89140 0.50356 0.76357
 H483 H 0.86390 0.47421 0.75424
 H484 H 0.86349 0.52458 0.74446
 H485 H 0.88537 0.49266 0.72500
 H486 H 0.88478 0.50651 0.77424
 H487 H 0.81917 0.49891 0.74872
 H488 H 0.92961 0.49983 0.75014
 C489 C 0.25376 0.35796 -0.01425
 C490 C 0.25013 0.36625 -0.00023
 C491 C 0.24668 0.35778 0.01371
 C492 C 0.24685 0.34108 0.01361
 C493 C 0.25048 0.33285 -0.00040
 C494 C 0.25394 0.34127 -0.01433
 C495 C 0.25005 0.38377 -0.00013
 C496 C 0.23600 0.39211 -0.00383
 C497 C 0.23597 0.40881 -0.00377
 C498 C 0.24997 0.41717 -0.00003
 C499 C 0.26400 0.40888 0.00367
 C500 C 0.26405 0.39218 0.00364
 H501 H 0.25645 0.36450 -0.02502
 H502 H 0.24390 0.36417 0.02456
 H503 H 0.22518 0.38562 -0.00675
 H504 H 0.27491 0.38574 0.00650
 H505 H 0.25064 0.31992 -0.00047
 H506 H 0.24994 0.43010 -0.00000
 C507 C 0.74643 0.14195 -0.01430
 C508 C 0.75018 0.13350 -0.00043
 C509 C 0.75389 0.14180 0.01357
 C510 C 0.75383 0.15849 0.01370
 C511 C 0.75009 0.16690 -0.00017
 C512 C 0.74639 0.15865 -0.01417
 C513 C 0.75003 0.11599 -0.00050
 C514 C 0.76406 0.10748 -0.00378
 C515 C 0.76389 0.09078 -0.00372
 C516 C 0.74971 0.08260 -0.00035
 C517 C 0.73569 0.09108 0.00295
 C518 C 0.73584 0.10777 0.00286
 H519 H 0.74352 0.13554 -0.02512
 H520 H 0.75673 0.13526 0.02431
 H521 H 0.77504 0.11383 -0.00634
 H522 H 0.72500 0.11435 0.00544
 H523 H 0.75001 0.17983 -0.00005
 H524 H 0.74959 0.06967 -0.00025
 C525 C 0.24781 0.64167 0.48518
 C526 C 0.25074 0.63357 0.49945
 C527 C 0.25380 0.64222 0.51339
 C528 C 0.25394 0.65891 0.51306
 C529 C 0.25096 0.66696 0.49881
 C530 C 0.24788 0.65836 0.48487
 C531 C 0.25051 0.61606 0.49980
 C532 C 0.26444 0.60743 0.49639
 C533 C 0.26420 0.59075 0.49671
 C534 C 0.25003 0.58268 0.50039
 C535 C 0.23610 0.59126 0.50379
 C536 C 0.23634 0.60795 0.50352
 H537 H 0.24540 0.63499 0.47440
 H538 H 0.25606 0.63596 0.52443
 H539 H 0.27539 0.61370 0.49352
 H540 H 0.22556 0.61462 0.50615
 H541 H 0.25100 0.67989 0.49857
 H542 H 0.24985 0.56975 0.50060
 C543 C 0.75341 0.85811 0.48638
 C544 C 0.74964 0.86655 0.50028
 C545 C 0.74586 0.85822 0.51422
 C546 C 0.74585 0.84152 0.51425
 C547 C 0.74963 0.83315 0.50036
 C548 C 0.75340 0.84141 0.48643
 C549 C 0.74959 0.88407 0.50023
 C550 C 0.73552 0.89238 0.49657
 C551 C 0.73547 0.90908 0.49649
 C552 C 0.74949 0.91747 0.50009
 C553 C 0.76356 0.90922 0.50376
 C554 C 0.76362 0.89252 0.50382
 H555 H 0.75632 0.86454 0.47560
 H556 H 0.74293 0.86473 0.52496
 H557 H 0.72467 0.88586 0.49379
 H558 H 0.77450 0.88611 0.50665
 H559 H 0.74962 0.82021 0.50039
 H560 H 0.74945 0.93040 0.50002
 C561 C -0.01430 0.25362 0.35741
 C562 C -0.00040 0.24994 0.36598
 C563 C 0.01376 0.24627 0.35786
 C564 C 0.01402 0.24631 0.34123
 C565 C 0.00011 0.24998 0.33271
 C566 C -0.01405 0.25362 0.34078
 C567 C -0.00064 0.25012 0.38344
 C568 C -0.00408 0.23614 0.39189
 C569 C -0.00438 0.23637 0.40853
 C570 C -0.00120 0.25058 0.41670
 C571 C 0.00227 0.26455 0.40830
 C572 C 0.00252 0.26433 0.39167
 H573 H -0.02523 0.25649 0.36369
 H574 H 0.02452 0.24348 0.36448
 H575 H -0.00655 0.22516 0.38553
 H576 H 0.00518 0.27514 0.38515
 H577 H 0.00032 0.25003 0.31983
 H578 H -0.00143 0.25076 0.42958
 C579 C -0.01379 0.74615 0.14209
 C580 C 0.00019 0.74990 0.13370
 C581 C 0.01433 0.75333 0.14199
 C582 C 0.01449 0.75304 0.15862
 C583 C 0.00052 0.74931 0.16696
 C584 C -0.01362 0.74585 0.15872
 C585 C 0.00005 0.75020 0.11626
 C586 C -0.00353 0.76439 0.10821
 C587 C -0.00351 0.76471 0.09158
 C588 C 0.00010 0.75086 0.08300
 C589 C 0.00369 0.73669 0.09101
 C590 C 0.00365 0.73635 0.10764
 H591 H -0.02472 0.74348 0.13568
 H592 H 0.02514 0.75619 0.13551
 H593 H -0.00628 0.77511 0.11487
 H594 H 0.00646 0.72540 0.11386
 H595 H 0.00065 0.74908 0.17984
 H596 H 0.00016 0.75112 0.07012
 C597 C 0.48624 0.24642 0.64289
 C598 C 0.50020 0.24981 0.63435
 C599 C 0.51443 0.25321 0.64248
 C600 C 0.51470 0.25323 0.65910
 C601 C 0.50075 0.24982 0.66761
 C602 C 0.48652 0.24642 0.65952
 C603 C 0.49988 0.25005 0.61692
 C604 C 0.49611 0.26419 0.60889
 C605 C 0.49594 0.26449 0.59228
 C606 C 0.49953 0.25067 0.58366
 C607 C 0.50331 0.23652 0.59165
 C608 C 0.50349 0.23621 0.60827
 H609 H 0.47521 0.24386 0.63660
 H610 H 0.52521 0.25591 0.63587
 H611 H 0.49338 0.27490 0.61558
 H612 H 0.50644 0.22528 0.61448
 H613 H 0.50095 0.24987 0.68049
 H614 H 0.49943 0.25092 0.57078
 C615 C 0.48561 0.75374 0.85796
 C616 C 0.49968 0.75002 0.86622
 C617 C 0.51369 0.74649 0.85781
 C618 C 0.51363 0.74669 0.84117
 C619 C 0.49955 0.75042 0.83296
 C620 C 0.48555 0.75395 0.84134
 C621 C 0.49975 0.75000 0.88366
 C622 C 0.49581 0.73609 0.89200
 C623 C 0.49570 0.73616 0.90864
 C624 C 0.49950 0.75015 0.91693
 C625 C 0.50343 0.76405 0.90862
 C626 C 0.50357 0.76398 0.89199
 H627 H 0.47479 0.75652 0.86447
 H628 H 0.52458 0.74366 0.86419
 H629 H 0.49283 0.72529 0.88556
 H630 H 0.50657 0.77474 0.88554
 H631 H 0.49951 0.75061 0.82008
 H632 H 0.49939 0.75021 0.92981
 C633 C 0.14545 0.21425 0.24718
 C634 C 0.13469 0.21696 0.25630
 C635 C 0.12172 0.22037 0.26700
 C636 C 0.11829 0.21003 0.27958
 C637 C 0.10544 0.21321 0.28972
 C638 C 0.09590 0.22682 0.28742
 C639 C 0.09955 0.23721 0.27484
 C640 C 0.11235 0.23398 0.26469
 C641 C 0.08200 0.23004 0.29787
 C642 C 0.07881 0.24561 0.30323
 C643 C 0.06535 0.24875 0.31255
 C644 C 0.05489 0.23639 0.31660
 C645 C 0.05806 0.22083 0.31149
 C646 C 0.07155 0.21765 0.30222
 C647 C 0.04064 0.23978 0.32557
 C648 C 0.02857 0.24271 0.33283
 H649 H 0.12551 0.19949 0.28153
 H650 H 0.10303 0.20509 0.29941
 H651 H 0.09229 0.24767 0.27264
 H652 H 0.11486 0.24205 0.25497
 H653 H 0.08674 0.25535 0.30024
 H654 H 0.06303 0.26084 0.31646
 H655 H 0.05001 0.21117 0.31448
 H656 H 0.07359 0.20559 0.29811
 C657 C 0.64563 0.71438 0.74792
 C658 C 0.63472 0.71696 0.75690
 C659 C 0.62162 0.72026 0.76746
 C660 C 0.61828 0.73599 0.77187
 C661 C 0.60528 0.73933 0.78173
 C662 C 0.59543 0.72695 0.78731
 C663 C 0.59901 0.71114 0.78297
 C664 C 0.61203 0.70784 0.77309
 C665 C 0.58127 0.73056 0.79731
 C666 C 0.57722 0.72072 0.81022
 C667 C 0.56369 0.72401 0.81940
 C668 C 0.55405 0.73715 0.81580
 C669 C 0.55802 0.74704 0.80304
 C670 C 0.57153 0.74379 0.79385
 C671 C 0.53994 0.74039 0.82499
 C672 C 0.52800 0.74321 0.83248
 H673 H 0.62566 0.74570 0.76761
 H674 H 0.60297 0.75159 0.78505
 H675 H 0.59156 0.70138 0.78692
 H676 H 0.61449 0.69561 0.76972
 H677 H 0.58457 0.71056 0.81329
 H678 H 0.56073 0.71629 0.82927
 H679 H 0.55060 0.75721 0.80010
 H680 H 0.57419 0.75145 0.78386
 C681 C 0.35341 0.78592 0.74829
 C682 C 0.36414 0.78360 0.75757
 C683 C 0.37709 0.78078 0.76845
 C684 C 0.38677 0.79344 0.77346
 C685 C 0.39978 0.79059 0.78349
 C686 C 0.40328 0.77502 0.78864
 C687 C 0.39331 0.76242 0.78375
 C688 C 0.38032 0.76529 0.77371
 C689 C 0.41756 0.77185 0.79863
 C690 C 0.41689 0.76074 0.81113
 C691 C 0.43053 0.75734 0.82011
 C692 C 0.44500 0.76497 0.81672
 C693 C 0.44575 0.77615 0.80443
 C694 C 0.43213 0.77959 0.79545
 C695 C 0.45917 0.76111 0.82560
 C696 C 0.47115 0.75785 0.83285
 H697 H 0.38435 0.80548 0.76949
 H698 H 0.40710 0.80056 0.78723
 H699 H 0.39580 0.75029 0.78735
 H700 H 0.37292 0.75541 0.76987
 H701 H 0.40580 0.75474 0.81399
 H702 H 0.42982 0.74868 0.82962
 H703 H 0.45690 0.78209 0.80167
 H704 H 0.43309 0.78802 0.78578
 C705 C -0.14652 0.28593 0.24769
 C706 C -0.13549 0.28370 0.25665
 C707 C -0.12216 0.28098 0.26714
 C708 C -0.12226 0.26800 0.27756
 C709 C -0.10906 0.26504 0.28733
 C710 C -0.09555 0.27502 0.28678
 C711 C -0.09567 0.28817 0.27641
 C712 C -0.10888 0.29111 0.26667
 C713 C -0.08125 0.27152 0.29666
 C714 C -0.06581 0.27326 0.29029
 C715 C -0.05233 0.26972 0.29945
 C716 C -0.05406 0.26442 0.31510
 C717 C -0.06936 0.26270 0.32158
 C718 C -0.08288 0.26622 0.31243
 C719 C -0.04011 0.26062 0.32438
 C720 C -0.02829 0.25744 0.33195
 H721 H -0.13246 0.26005 0.27799
 H722 H -0.10928 0.25472 0.29505
 H723 H -0.08556 0.29621 0.27588
 H724 H -0.10868 0.30122 0.25868
 H725 H -0.06415 0.27708 0.27813
 H726 H -0.04055 0.27103 0.29428
 H727 H -0.07084 0.25863 0.33370
 H728 H -0.09459 0.26493 0.31774
 C729 C -0.14569 0.71458 0.25225
 C730 C -0.13453 0.71673 0.24347
 C731 C -0.12114 0.71936 0.23308
 C732 C -0.10763 0.70959 0.23414
 C733 C -0.09446 0.71236 0.22433
 C734 C -0.09462 0.72496 0.21331
 C735 C -0.10833 0.73462 0.21223
 C736 C -0.12149 0.73183 0.22206
 C737 C -0.08043 0.72823 0.20325
 C738 C -0.08222 0.73265 0.18722
 C739 C -0.06882 0.73601 0.17789
 C740 C -0.05348 0.73502 0.18445
 C741 C -0.05157 0.73055 0.20034
 C742 C -0.06494 0.72718 0.20968
 C743 C -0.03965 0.73878 0.17503
 C744 C -0.02788 0.74199 0.16743
 H745 H -0.10725 0.69987 0.24259
 H746 H -0.08418 0.70459 0.22530
 H747 H -0.10874 0.74453 0.20402
 H748 H -0.13187 0.73950 0.22118
 H749 H -0.09397 0.73338 0.18188
 H750 H -0.07043 0.73943 0.16559
 H751 H -0.03975 0.72981 0.20556
 H752 H -0.06316 0.72403 0.22203
 C753 C 0.35413 0.21488 0.75248
 C754 C 0.36513 0.21760 0.74366
 C755 C 0.37839 0.22109 0.73337
 C756 C 0.38300 0.21021 0.72163
 C757 C 0.39615 0.21349 0.71193
 C758 C 0.40487 0.22771 0.71391
 C759 C 0.40002 0.23864 0.72564
 C760 C 0.38687 0.23534 0.73530
 C761 C 0.41915 0.23102 0.70400
 C762 C 0.43293 0.23777 0.71085
 C763 C 0.44642 0.24084 0.70160
 C764 C 0.44635 0.23721 0.68538
 C765 C 0.43272 0.23050 0.67842
 C766 C 0.41919 0.22740 0.68767
 C767 C 0.46034 0.24036 0.67598
 C768 C 0.47220 0.24308 0.66835
 H769 H 0.37652 0.19913 0.72007
 H770 H 0.39969 0.20478 0.70312
 H771 H 0.40634 0.24979 0.72728
 H772 H 0.38337 0.24387 0.74432
 H773 H 0.43336 0.24047 0.72342
 H774 H 0.45693 0.24599 0.70711
 H775 H 0.43253 0.22768 0.66586
 H776 H 0.40871 0.22237 0.68202
 C777 C 0.64689 0.28604 0.75191
 C778 C 0.63622 0.28350 0.74261
 C779 C 0.62332 0.28033 0.73175
 C780 C 0.61853 0.26461 0.72885
 C781 C 0.60558 0.26150 0.71882
 C782 C 0.59722 0.27409 0.71157
 C783 C 0.60227 0.28985 0.71439
 C784 C 0.61524 0.29294 0.72442
 C785 C 0.58299 0.27081 0.70153
 C786 C 0.56928 0.28043 0.70276
 C787 C 0.55565 0.27699 0.69379
 C788 C 0.55553 0.26391 0.68346
 C789 C 0.56917 0.25437 0.68200
 C790 C 0.58282 0.25779 0.69097
 C791 C 0.54129 0.26010 0.67465
 C792 C 0.52923 0.25694 0.66747
 H793 H 0.62467 0.25476 0.73451
 H794 H 0.60186 0.24926 0.71706
 H795 H 0.59621 0.29979 0.70883
 H796 H 0.61887 0.30515 0.72657
 H797 H 0.56896 0.29040 0.71093
 H798 H 0.54513 0.28441 0.69505
 H799 H 0.56921 0.24423 0.67401
 H800 H 0.59326 0.25028 0.68963
 C801 C 0.14610 0.78633 0.25235
 C802 C 0.13534 0.78352 0.24323
 C803 C 0.12239 0.77993 0.23255
 C804 C 0.11729 0.76416 0.23066
 C805 C 0.10437 0.76064 0.22073
 C806 C 0.09635 0.77288 0.21255
 C807 C 0.10171 0.78868 0.21435
 C808 C 0.11464 0.79218 0.22431
 C809 C 0.08220 0.76920 0.20252
 C810 C 0.07988 0.77691 0.18786
 C811 C 0.06638 0.77358 0.17862
 C812 C 0.05504 0.76254 0.18391
 C813 C 0.05728 0.75477 0.19843
 C814 C 0.07076 0.75806 0.20768
 C815 C 0.04094 0.75931 0.17465
 C816 C 0.02896 0.75650 0.16719
 H817 H 0.12323 0.75458 0.23695
 H818 H 0.10067 0.74833 0.21941
 H819 H 0.09568 0.79838 0.20835
 H820 H 0.11846 0.80444 0.22572
 H821 H 0.08857 0.78540 0.18349
 H822 H 0.06477 0.77964 0.16738
 H823 H 0.04853 0.74626 0.20268
 H824 H 0.07207 0.75211 0.21901
 C825 C 0.24719 0.14578 0.21478
 C826 C 0.25586 0.13466 0.21760
 C827 C 0.26596 0.12122 0.22104
 C828 C 0.25984 0.10830 0.22959
 C829 C 0.26947 0.09507 0.23274
 C830 C 0.28537 0.09457 0.22736
 C831 C 0.29147 0.10768 0.21890
 C832 C 0.28181 0.12091 0.21575
 C833 C 0.29546 0.08034 0.23046
 C834 C 0.31161 0.08202 0.23485
 C835 C 0.32099 0.06858 0.23796
 C836 C 0.31436 0.05330 0.23667
 C837 C 0.29835 0.05152 0.23220
 C838 C 0.28896 0.06493 0.22911
 C839 C 0.32386 0.03943 0.24008
 C840 C 0.33157 0.02766 0.24297
 H841 H 0.24761 0.10844 0.23380
 H842 H 0.26450 0.08528 0.23949
 H843 H 0.30362 0.10758 0.21448
 H844 H 0.28665 0.13084 0.20910
 H845 H 0.31691 0.09373 0.23615
 H846 H 0.33336 0.07009 0.24145
 H847 H 0.29311 0.03975 0.23112
 H848 H 0.27665 0.06323 0.22552
 C849 C 0.74758 0.64619 0.71487
 C850 C 0.75612 0.63494 0.71757
 C851 C 0.76608 0.62137 0.72096
 C852 C 0.75984 0.60846 0.72943
 C853 C 0.76940 0.59521 0.73267
 C854 C 0.78537 0.59467 0.72748
 C855 C 0.79158 0.60776 0.71906
 C856 C 0.78198 0.62102 0.71581
 C857 C 0.79542 0.58046 0.73074
 C858 C 0.81155 0.58215 0.73524
 C859 C 0.82092 0.56870 0.73839
 C860 C 0.81431 0.55343 0.73707
 C861 C 0.79832 0.55163 0.73255
 C862 C 0.78893 0.56503 0.72941
 C863 C 0.82384 0.53954 0.74036
 C864 C 0.83153 0.52770 0.74307
 H865 H 0.74757 0.60864 0.73353
 H866 H 0.76434 0.58543 0.73939
 H867 H 0.80376 0.60764 0.71476
 H868 H 0.78692 0.63094 0.70923
 H869 H 0.81684 0.59386 0.73654
 H870 H 0.83328 0.57023 0.74192
 H871 H 0.79310 0.53986 0.73144
 H872 H 0.77664 0.56332 0.72575
 C873 C 0.74695 0.35338 0.78485
 C874 C 0.75596 0.36410 0.78162
 C875 C 0.76652 0.37705 0.77770
 C876 C 0.77701 0.38317 0.78913
 C877 C 0.78691 0.39608 0.78545
 C878 C 0.78640 0.40305 0.77026
 C879 C 0.77593 0.39668 0.75880
 C880 C 0.76607 0.38377 0.76251
 C881 C 0.79646 0.41714 0.76651
 C882 C 0.79015 0.42988 0.75764
 C883 C 0.79945 0.44333 0.75444
 C884 C 0.81517 0.44426 0.76004
 C885 C 0.82161 0.43161 0.76877
 C886 C 0.81233 0.41813 0.77200
 C887 C 0.82449 0.45836 0.75710
 C888 C 0.83200 0.47038 0.75468
 H889 H 0.77742 0.37809 0.80095
 H890 H 0.79468 0.40084 0.79459
 H891 H 0.77542 0.40164 0.74695
 H892 H 0.75801 0.37909 0.75355
 H893 H 0.77791 0.42958 0.75345
 H894 H 0.79431 0.45309 0.74773
 H895 H 0.83378 0.43220 0.77315
 H896 H 0.81758 0.40845 0.77870
 C897 C 0.24745 -0.14610 0.28650
 C898 C 0.25659 -0.13534 0.28377
 C899 C 0.26738 -0.12242 0.28044
 C900 C 0.27666 -0.11581 0.29261
 C901 C 0.28682 -0.10297 0.28945
 C902 C 0.28781 -0.09658 0.27403
 C903 C 0.27856 -0.10344 0.26184
 C904 C 0.26841 -0.11627 0.26504
 C905 C 0.29809 -0.08254 0.27075
 C906 C 0.30694 -0.08158 0.25658
 C907 C 0.31610 -0.06805 0.25324
 C908 C 0.31654 -0.05533 0.26400
 C909 C 0.30795 -0.05626 0.27821
 C910 C 0.29880 -0.06977 0.28159
 C911 C 0.32541 -0.04114 0.26029
 C912 C 0.33263 -0.02911 0.25719
 H913 H 0.27599 -0.12053 0.30457
 H914 H 0.29394 -0.09808 0.29903
 H915 H 0.27890 -0.09866 0.24991
 H916 H 0.26125 -0.12128 0.25554
 H917 H 0.30680 -0.09130 0.24810
 H918 H 0.32272 -0.06746 0.24221
 H919 H 0.30816 -0.04645 0.28660
 H920 H 0.29196 -0.07006 0.29249
 C921 C 0.25316 -0.14725 0.71511
 C922 C 0.24443 -0.13621 0.71805
 C923 C 0.23428 -0.12284 0.72160
 C924 C 0.21855 -0.12241 0.71595
 C925 C 0.20884 -0.10923 0.71915
 C926 C 0.21479 -0.09628 0.72803
 C927 C 0.23057 -0.09692 0.73377
 C928 C 0.24024 -0.11011 0.73056
 C929 C 0.20468 -0.08208 0.73113
 C930 C 0.21126 -0.06667 0.73018
 C931 C 0.20184 -0.05327 0.73321
 C932 C 0.18572 -0.05505 0.73722
 C933 C 0.17901 -0.07031 0.73812
 C934 C 0.18842 -0.08376 0.73507
 C935 C 0.17620 -0.04117 0.74054
 C936 C 0.16858 -0.02931 0.74335
 H937 H 0.21383 -0.13220 0.70896
 H938 H 0.19680 -0.10901 0.71444
 H939 H 0.23541 -0.08726 0.74083
 H940 H 0.25238 -0.11034 0.73503
 H941 H 0.22366 -0.06497 0.72694
 H942 H 0.20713 -0.04151 0.73243
 H943 H 0.16655 -0.07182 0.74125
 H944 H 0.18306 -0.09546 0.73605
 C945 C 0.75263 0.35333 0.21498
 C946 C 0.74391 0.36446 0.21763
 C947 C 0.73373 0.37792 0.22080
 C948 C 0.74052 0.39274 0.22435
 C949 C 0.73074 0.40590 0.22734
 C950 C 0.71400 0.40442 0.22680
 C951 C 0.70727 0.38945 0.22328
 C952 C 0.71709 0.37629 0.22028
 C953 C 0.70366 0.41847 0.22989
 C954 C 0.68971 0.41703 0.23909
 C955 C 0.68024 0.43040 0.24230
 C956 C 0.68458 0.44534 0.23632
 C957 C 0.69833 0.44686 0.22702
 C958 C 0.70781 0.43353 0.22381
 C959 C 0.67519 0.45924 0.23997
 C960 C 0.66764 0.47109 0.24303
 H961 H 0.75339 0.39413 0.22484
 H962 H 0.73629 0.41720 0.23025
 H963 H 0.69443 0.38797 0.22261
 H964 H 0.71171 0.36487 0.21750
 H965 H 0.68629 0.40563 0.24407
 H966 H 0.66964 0.42910 0.24956
 H967 H 0.70178 0.45837 0.22231
 H968 H 0.71834 0.43499 0.21650
 C969 C 0.75248 0.64613 0.28527
 C970 C 0.74395 0.63481 0.28274
 C971 C 0.73394 0.62120 0.27962
 C972 C 0.74063 0.60722 0.27345
 C973 C 0.73097 0.59397 0.27040
 C974 C 0.71445 0.59452 0.27347
 C975 C 0.70782 0.60864 0.27963
 C976 C 0.71752 0.62189 0.28270
 C977 C 0.70423 0.58038 0.27029
 C978 C 0.68895 0.58214 0.26349
 C979 C 0.67948 0.56877 0.26028
 C980 C 0.68513 0.55349 0.26384
 C981 C 0.70025 0.55162 0.27070
 C982 C 0.70974 0.56496 0.27391
 C983 C 0.67560 0.53965 0.26027
 C984 C 0.66792 0.52786 0.25726
 H985 H 0.75331 0.60657 0.27097
 H986 H 0.73639 0.58336 0.26544
 H987 H 0.69519 0.60938 0.28229
 H988 H 0.71222 0.63264 0.28750
 H989 H 0.68445 0.59384 0.26040
 H990 H 0.66781 0.57034 0.25491
 H991 H 0.70473 0.53985 0.27354
 H992 H 0.72134 0.56322 0.27935
 C993 C 0.25301 0.14615 0.78432
 C994 C 0.24446 0.13487 0.78174
 C995 C 0.23445 0.12128 0.77860
 C996 C 0.21802 0.12196 0.78167
 C997 C 0.20835 0.10868 0.77866
 C998 C 0.21502 0.09454 0.77258
 C999 C 0.23154 0.09401 0.76950
 C1000 C 0.24116 0.10729 0.77250
 C1001 C 0.20485 0.08035 0.76951
 C1002 C 0.21040 0.06499 0.77329
 C1003 C 0.20097 0.05160 0.77018
 C1004 C 0.18587 0.05335 0.76325
 C1005 C 0.18017 0.06858 0.75953
 C1006 C 0.18958 0.08201 0.76266
 C1007 C 0.17640 0.03946 0.75976
 C1008 C 0.16877 0.02763 0.75683
 H1009 H 0.21270 0.13272 0.78643
 H1010 H 0.19572 0.10940 0.78131
 H1011 H 0.23698 0.08338 0.76460
 H1012 H 0.25385 0.10665 0.77003
 H1013 H 0.22198 0.06333 0.77878
 H1014 H 0.20548 0.03986 0.77313
 H1015 H 0.16851 0.07007 0.75412
 H1016 H 0.18505 0.09366 0.75945
 C1017 C 0.21478 0.24790 0.14531
 C1018 C 0.21745 0.25650 0.13416
 C1019 C 0.22083 0.26653 0.12072
 C1020 C 0.23137 0.26127 0.10895
 C1021 C 0.23462 0.27089 0.09581
 C1022 C 0.22734 0.28593 0.09425
 C1023 C 0.21682 0.29116 0.10620
 C1024 C 0.21358 0.28151 0.11934
 C1025 C 0.23063 0.29601 0.08013
 C1026 C 0.23270 0.31260 0.08170
 C1027 C 0.23590 0.32201 0.06837
 C1028 C 0.23704 0.31499 0.05333
 C1029 C 0.23494 0.29852 0.05165
 C1030 C 0.23175 0.28910 0.06494
 C1031 C 0.24044 0.32456 0.03957
 C1032 C 0.24334 0.33227 0.02785
 H1033 H 0.23709 0.24973 0.10993
 H1034 H 0.24295 0.26662 0.08694
 H1035 H 0.21090 0.30259 0.10525
 H1036 H 0.20537 0.28568 0.12837
 H1037 H 0.23209 0.31825 0.09325
 H1038 H 0.23756 0.33474 0.06981
 H1039 H 0.23575 0.29296 0.04006
 H1040 H 0.22999 0.27641 0.06330
 C1041 C 0.71370 0.74816 0.64570
 C1042 C 0.71597 0.75695 0.63461
 C1043 C 0.71873 0.76733 0.62129
 C1044 C 0.70925 0.76599 0.60766
 C1045 C 0.71216 0.77577 0.59455
 C1046 C 0.72462 0.78704 0.59490
 C1047 C 0.73397 0.78842 0.60874
 C1048 C 0.73105 0.77861 0.62183
 C1049 C 0.72803 0.79708 0.58078
 C1050 C 0.73217 0.81326 0.58252
 C1051 C 0.73560 0.82259 0.56918
 C1052 C 0.73497 0.81586 0.55397
 C1053 C 0.73082 0.79981 0.55213
 C1054 C 0.72737 0.79048 0.56543
 C1055 C 0.73875 0.82529 0.54021
 C1056 C 0.74196 0.83287 0.52849
 H1057 H 0.69965 0.75733 0.60713
 H1058 H 0.70461 0.77457 0.58416
 H1059 H 0.74377 0.79684 0.60931
 H1060 H 0.73848 0.77972 0.63232
 H1061 H 0.73260 0.81873 0.59416
 H1062 H 0.73878 0.83501 0.57074
 H1063 H 0.73035 0.79447 0.54042
 H1064 H 0.72446 0.77801 0.56370
 C1065 C 0.78563 0.74834 0.35443
 C1066 C 0.78321 0.75688 0.36570
 C1067 C 0.78018 0.76687 0.37929
 C1068 C 0.78334 0.78324 0.37864
 C1069 C 0.78030 0.79291 0.39185
 C1070 C 0.77407 0.78630 0.40590
 C1071 C 0.77093 0.76983 0.40640
 C1072 C 0.77396 0.76020 0.39319
 C1073 C 0.77083 0.79650 0.41997
 C1074 C 0.77437 0.79101 0.43536
 C1075 C 0.77105 0.80045 0.44863
 C1076 C 0.76415 0.81552 0.44674
 C1077 C 0.76067 0.82116 0.43149
 C1078 C 0.76400 0.81173 0.41818
 C1079 C 0.76041 0.82500 0.46051
 C1080 C 0.75724 0.83265 0.47222
 H1081 H 0.78818 0.78853 0.36795
 H1082 H 0.78302 0.80551 0.39115
 H1083 H 0.76592 0.76441 0.41695
 H1084 H 0.77141 0.74755 0.39380
 H1085 H 0.77984 0.77944 0.43713
 H1086 H 0.77382 0.79598 0.46038
 H1087 H 0.75526 0.83279 0.42989
 H1088 H 0.76095 0.81622 0.40651
 C1089 C 0.28581 0.24828 -0.14636
 C1090 C 0.28338 0.25686 -0.13513
 C1091 C 0.28036 0.26691 -0.12160
 C1092 C 0.28361 0.28327 -0.12229
 C1093 C 0.28061 0.29298 -0.10910
 C1094 C 0.27436 0.28643 -0.09504
 C1095 C 0.27112 0.26998 -0.09450
 C1096 C 0.27410 0.26030 -0.10769
 C1097 C 0.27122 0.29666 -0.08098
 C1098 C 0.27482 0.29115 -0.06561
 C1099 C 0.27155 0.30059 -0.05233
 C1100 C 0.26464 0.31566 -0.05419
 C1101 C 0.26113 0.32132 -0.06943
 C1102 C 0.26442 0.31190 -0.08275
 C1103 C 0.26091 0.32509 -0.04040
 C1104 C 0.25774 0.33265 -0.02863
 H1105 H 0.28848 0.28850 -0.13299
 H1106 H 0.28339 0.30557 -0.10983
 H1107 H 0.26608 0.26462 -0.08394
 H1108 H 0.27149 0.24767 -0.10704
 H1109 H 0.28028 0.27958 -0.06386
 H1110 H 0.27435 0.29611 -0.04059
 H1111 H 0.25573 0.33295 -0.07100
 H1112 H 0.26134 0.31639 -0.09441
 C1113 C 0.71356 0.25128 -0.14595
 C1114 C 0.71590 0.24246 -0.13490
 C1115 C 0.71876 0.23207 -0.12162
 C1116 C 0.70747 0.23089 -0.10943
 C1117 C 0.71045 0.22115 -0.09630
 C1118 C 0.72478 0.21245 -0.09518
 C1119 C 0.73598 0.21358 -0.10759
 C1120 C 0.73298 0.22334 -0.12070
 C1121 C 0.72820 0.20253 -0.08099
 C1122 C 0.73559 0.18753 -0.08256
 C1123 C 0.73911 0.17839 -0.06912
 C1124 C 0.73530 0.18411 -0.05397
 C1125 C 0.72788 0.19895 -0.05230
 C1126 C 0.72434 0.20810 -0.06570
 C1127 C 0.73919 0.17489 -0.04010
 C1128 C 0.74247 0.16738 -0.02835
 H1129 H 0.69641 0.23756 -0.11004
 H1130 H 0.70151 0.22037 -0.08705
 H1131 H 0.74721 0.20720 -0.10699
 H1132 H 0.74183 0.22420 -0.13005
 H1133 H 0.73854 0.18283 -0.09417
 H1134 H 0.74484 0.16689 -0.07055
 H1135 H 0.72494 0.20352 -0.04062
 H1136 H 0.71886 0.21968 -0.06408
 C1137 C 0.21407 0.75279 0.35486
 C1138 C 0.21702 0.74362 0.36547
 C1139 C 0.22071 0.73282 0.37821
 C1140 C 0.20971 0.72110 0.38269
 C1141 C 0.21318 0.71086 0.39532
 C1142 C 0.22772 0.71222 0.40364
 C1143 C 0.23876 0.72394 0.39892
 C1144 C 0.23526 0.73417 0.38630
 C1145 C 0.23120 0.70177 0.41743
 C1146 C 0.24665 0.69561 0.41985
 C1147 C 0.25004 0.68630 0.43320
 C1148 C 0.23803 0.68301 0.44427
 C1149 C 0.22259 0.68892 0.44187
 C1150 C 0.21917 0.69822 0.42854
 C1151 C 0.24163 0.67402 0.45836
 C1152 C 0.24454 0.66674 0.47035
 H1153 H 0.19843 0.71992 0.37647
 H1154 H 0.20452 0.70183 0.39854
 H1155 H 0.24996 0.72544 0.40521
 H1156 H 0.24385 0.74323 0.38295
 H1157 H 0.25611 0.69797 0.41141
 H1158 H 0.26204 0.68178 0.43494
 H1159 H 0.21323 0.68651 0.45042
 H1160 H 0.20722 0.70296 0.42713
 C1161 C 0.28518 0.75148 0.64564
 C1162 C 0.28249 0.74291 0.63445
 C1163 C 0.27905 0.73293 0.62096
 C1164 C 0.28751 0.71873 0.61859
 C1165 C 0.28424 0.70919 0.60534
 C1166 C 0.27248 0.71376 0.59429
 C1167 C 0.26399 0.72800 0.59685
 C1168 C 0.26726 0.73751 0.61010
 C1169 C 0.26917 0.70382 0.58005
 C1170 C 0.26643 0.71102 0.56521
 C1171 C 0.26333 0.70171 0.55179
 C1172 C 0.26291 0.68508 0.55299
 C1173 C 0.26561 0.67778 0.56769
 C1174 C 0.26874 0.68708 0.58114
 C1175 C 0.25975 0.67558 0.53910
 C1176 C 0.25711 0.66785 0.52731
 H1177 H 0.29668 0.71509 0.62692
 H1178 H 0.29110 0.69839 0.60360
 H1179 H 0.25471 0.73173 0.58869
 H1180 H 0.26061 0.74845 0.61185
 H1181 H 0.26691 0.72386 0.56394
 H1182 H 0.26130 0.70748 0.54046
 H1183 H 0.26528 0.66492 0.56875
 H1184 H 0.27061 0.68120 0.59243
 C1185 C 0.78616 0.25146 0.14564
 C1186 C 0.78353 0.24264 0.13463
 C1187 C 0.78018 0.23227 0.12141
 C1188 C 0.76631 0.23454 0.11239
 C1189 C 0.76307 0.22465 0.09942
 C1190 C 0.77368 0.21232 0.09527
 C1191 C 0.78757 0.21008 0.10445
 C1192 C 0.79078 0.21999 0.11744
 C1193 C 0.77036 0.20202 0.08128
 C1194 C 0.78275 0.19764 0.07086
 C1195 C 0.77951 0.18840 0.05740
 C1196 C 0.76387 0.18340 0.05420
 C1197 C 0.75151 0.18752 0.06458
 C1198 C 0.75472 0.19677 0.07804
 C1199 C 0.76044 0.17439 0.04004
 C1200 C 0.75748 0.16704 0.02808
 H1201 H 0.75805 0.24404 0.11532
 H1202 H 0.75241 0.22682 0.09245
 H1203 H 0.79586 0.20058 0.10168
 H1204 H 0.80152 0.21810 0.12437
 H1205 H 0.79487 0.20166 0.07292
 H1206 H 0.78916 0.18533 0.04940
 H1207 H 0.73937 0.18369 0.06223
 H1208 H 0.74497 0.19976 0.08595
 C1209 C 0.46408 0.39543 0.49837
 C1210 C 0.46670 0.38479 0.50761
 C1211 C 0.46998 0.37199 0.51847
 C1212 C 0.45850 0.36736 0.52963
 C1213 C 0.46158 0.35462 0.53988
 C1214 C 0.47621 0.34638 0.53910
 C1215 C 0.48771 0.35124 0.52795
 C1216 C 0.48460 0.36396 0.51771
 C1217 C 0.47933 0.33249 0.54956
 C1218 C 0.49454 0.33016 0.55631
 C1219 C 0.49769 0.31666 0.56550
 C1220 C 0.48570 0.30535 0.56809
 C1221 C 0.47045 0.30768 0.56166
 C1222 C 0.46727 0.32118 0.55246
 C1223 C 0.48918 0.29108 0.57688
 C1224 C 0.49221 0.27901 0.58401
 H1225 H 0.44716 0.37353 0.53035
 H1226 H 0.45257 0.35127 0.54847
 H1227 H 0.49898 0.34500 0.52689
 H1228 H 0.49355 0.36742 0.50908
 H1229 H 0.50401 0.33877 0.55446
 H1230 H 0.50953 0.31497 0.57045
 H1231 H 0.46110 0.29896 0.56354
 H1232 H 0.45550 0.32254 0.54728
 C1233 C -0.03550 0.89539 -0.00298
 C1234 C -0.03285 0.88461 0.00609
 C1235 C -0.02950 0.87165 0.01677
 C1236 C -0.01584 0.86231 0.01453
 C1237 C -0.01262 0.84959 0.02473
 C1238 C -0.02304 0.84602 0.03735
 C1239 C -0.03670 0.85554 0.03956
 C1240 C -0.03990 0.86828 0.02933
 C1241 C -0.01977 0.83225 0.04793
 C1242 C -0.03226 0.82215 0.05281
 C1243 C -0.02907 0.80880 0.06223
 C1244 C -0.01339 0.80540 0.06692
 C1245 C -0.00093 0.81551 0.06233
 C1246 C -0.00408 0.82885 0.05291
 C1247 C -0.01001 0.79125 0.07595
 C1248 C -0.00709 0.77923 0.08323
 H1249 H -0.00773 0.86480 0.00482
 H1250 H -0.00213 0.84236 0.02257
 H1251 H -0.04485 0.85322 0.04927
 H1252 H -0.05048 0.87548 0.03121
 H1253 H -0.04443 0.82433 0.04902
 H1254 H -0.03880 0.80101 0.06565
 H1255 H 0.01126 0.81299 0.06591
 H1256 H 0.00576 0.83651 0.04953
 C1257 C 0.03573 0.60459 -0.00216
 C1258 C 0.03356 0.61576 0.00661
 C1259 C 0.03089 0.62920 0.01691
 C1260 C 0.03880 0.64362 0.01407
 C1261 C 0.03586 0.65684 0.02375
 C1262 C 0.02495 0.65583 0.03641
 C1263 C 0.01721 0.64122 0.03929
 C1264 C 0.02015 0.62801 0.02958
 C1265 C 0.02142 0.67004 0.04635
 C1266 C 0.01950 0.66863 0.06289
 C1267 C 0.01599 0.68204 0.07215
 C1268 C 0.01434 0.69700 0.06500
 C1269 C 0.01625 0.69852 0.04857
 C1270 C 0.01977 0.68515 0.03930
 C1271 C 0.01061 0.71081 0.07443
 C1272 C 0.00746 0.72253 0.08211
 H1273 H 0.04716 0.64466 0.00432
 H1274 H 0.04219 0.66785 0.02137
 H1275 H 0.00861 0.64011 0.04882
 H1276 H 0.01392 0.61692 0.03185
 H1277 H 0.02087 0.65720 0.06869
 H1278 H 0.01457 0.68074 0.08487
 H1279 H 0.01494 0.71004 0.04290
 H1280 H 0.02093 0.68659 0.02658
 C1281 C 0.53555 0.10478 0.49809
 C1282 C 0.53335 0.11590 0.50690
 C1283 C 0.53064 0.12931 0.51722
 C1284 C 0.51986 0.12808 0.52986
 C1285 C 0.51687 0.14128 0.53958
 C1286 C 0.52460 0.15591 0.53673
 C1287 C 0.53553 0.15696 0.52410
 C1288 C 0.53852 0.14375 0.51442
 C1289 C 0.52106 0.17008 0.54671
 C1290 C 0.51937 0.18521 0.53971
 C1291 C 0.51586 0.19854 0.54904
 C1292 C 0.51398 0.19695 0.56547
 C1293 C 0.51567 0.18197 0.57256
 C1294 C 0.51917 0.16860 0.56325
 C1295 C 0.51025 0.21072 0.57497
 C1296 C 0.50710 0.22240 0.58270
 H1297 H 0.51366 0.11698 0.53211
 H1298 H 0.50825 0.14015 0.54909
 H1299 H 0.54184 0.16798 0.52174
 H1300 H 0.54691 0.14482 0.50469
 H1301 H 0.52052 0.18670 0.52700
 H1302 H 0.51452 0.21008 0.54342
 H1303 H 0.51428 0.18062 0.58528
 H1304 H 0.52058 0.15715 0.56900
 C1305 C -0.03497 0.10463 0.50256
 C1306 C -0.03266 0.11588 0.49396
 C1307 C -0.02977 0.12941 0.48386
 C1308 C -0.02349 0.14347 0.49030
 C1309 C -0.02060 0.15663 0.48056
 C1310 C -0.02396 0.15592 0.46419
 C1311 C -0.03025 0.14172 0.45781
 C1312 C -0.03315 0.12857 0.46759
 C1313 C -0.02091 0.16995 0.45387
 C1314 C -0.01428 0.16802 0.43862
 C1315 C -0.01112 0.18130 0.42908
 C1316 C -0.01457 0.19665 0.43463
 C1317 C -0.02128 0.19867 0.44971
 C1318 C -0.02443 0.18544 0.45927
 C1319 C -0.01101 0.21039 0.42504
 C1320 C -0.00800 0.22212 0.41733
 H1321 H -0.02077 0.14424 0.50286
 H1322 H -0.01554 0.16729 0.48579
 H1323 H -0.03313 0.14086 0.44529
 H1324 H -0.03804 0.11776 0.46248
 H1325 H -0.01127 0.15628 0.43420
 H1326 H -0.00588 0.17959 0.41745
 H1327 H -0.02404 0.21050 0.45411
 H1328 H -0.02975 0.18731 0.47084
 C1329 C 0.46445 0.60443 1.00203
 C1330 C 0.46666 0.61543 0.99310
 C1331 C 0.46940 0.62861 0.98253
 C1332 C 0.48486 0.63184 0.97709
 C1333 C 0.48763 0.64485 0.96712
 C1334 C 0.47497 0.65483 0.96245
 C1335 C 0.45944 0.65140 0.96787
 C1336 C 0.45669 0.63837 0.97784
 C1337 C 0.47802 0.66896 0.95228
 C1338 C 0.47036 0.68355 0.95544
 C1339 C 0.47366 0.69700 0.94623
 C1340 C 0.48463 0.69606 0.93374
 C1341 C 0.49218 0.68156 0.93037
 C1342 C 0.48890 0.66809 0.93958
 C1343 C 0.48843 0.71007 0.92466
 C1344 C 0.49170 0.72191 0.91725
 H1345 H 0.49479 0.62438 0.98069
 H1346 H 0.49975 0.64729 0.96332
 H1347 H 0.44941 0.65874 0.96432
 H1348 H 0.44466 0.63595 0.98194
 H1349 H 0.46209 0.68466 0.96526
 H1350 H 0.46780 0.70818 0.94897
 H1351 H 0.50067 0.68069 0.92071
 H1352 H 0.49484 0.65698 0.93673
 C1353 C 0.53625 0.89559 1.00209
 C1354 C 0.53365 0.88481 0.99297
 C1355 C 0.53036 0.87183 0.98227
 C1356 C 0.51488 0.86560 0.98121
 C1357 C 0.51171 0.85271 0.97116
 C1358 C 0.52400 0.84586 0.96203
 C1359 C 0.53949 0.85232 0.96305
 C1360 C 0.54264 0.86523 0.97311
 C1361 C 0.52073 0.83178 0.95182
 C1362 C 0.53166 0.81906 0.95116
 C1363 C 0.52831 0.80553 0.94203
 C1364 C 0.51403 0.80455 0.93342
 C1365 C 0.50317 0.81722 0.93384
 C1366 C 0.50649 0.83076 0.94297
 C1367 C 0.51036 0.79038 0.92450
 C1368 C 0.50723 0.77841 0.91719
 H1369 H 0.50530 0.87059 0.98828
 H1370 H 0.49971 0.84787 0.97080
 H1371 H 0.54915 0.84744 0.95603
 H1372 H 0.55465 0.87000 0.97381
 H1373 H 0.54263 0.81939 0.95799
 H1374 H 0.53677 0.79576 0.94183
 H1375 H 0.49209 0.81659 0.92720
 H1376 H 0.49794 0.84044 0.94308
 C1377 C 0.03568 0.39596 0.50196
 C1378 C 0.03279 0.38519 0.49290
 C1379 C 0.02905 0.37221 0.48234
 C1380 C 0.04081 0.36585 0.47236
 C1381 C 0.03723 0.35293 0.46246
 C1382 C 0.02183 0.34617 0.46244
 C1383 C 0.01005 0.35278 0.47238
 C1384 C 0.01365 0.36570 0.48226
 C1385 C 0.01814 0.33207 0.45240
 C1386 C 0.00876 0.31955 0.45843
 C1387 C 0.00546 0.30614 0.44913
 C1388 C 0.01147 0.30504 0.43367
 C1389 C 0.02077 0.31745 0.42752
 C1390 C 0.02410 0.33088 0.43682
 C1391 C 0.00829 0.29101 0.42433
 C1392 C 0.00557 0.27905 0.41684
 H1393 H 0.05278 0.37078 0.47236
 H1394 H 0.04660 0.34800 0.45508
 H1395 H -0.00197 0.34800 0.47248
 H1396 H 0.00445 0.37055 0.48990
 H1397 H 0.00420 0.31998 0.47045
 H1398 H -0.00168 0.29657 0.45404
 H1399 H 0.02548 0.31672 0.41556
 H1400 H 0.03121 0.34040 0.43178
 C1401 C 0.39639 0.49713 0.46476
 C1402 C 0.38529 0.50584 0.46754
 C1403 C 0.37185 0.51594 0.47099
 C1404 C 0.37165 0.53180 0.46586
 C1405 C 0.35845 0.54150 0.46910
 C1406 C 0.34526 0.53541 0.47749
 C1407 C 0.34564 0.51947 0.48268
 C1408 C 0.35884 0.50982 0.47944
 C1409 C 0.33108 0.54553 0.48071
 C1410 C 0.31558 0.53916 0.47929
 C1411 C 0.30220 0.54860 0.48245
 C1412 C 0.30410 0.56452 0.48705
 C1413 C 0.31946 0.57100 0.48845
 C1414 C 0.33287 0.56158 0.48528
 C1415 C 0.29025 0.57408 0.49043
 C1416 C 0.27846 0.58182 0.49328
 H1417 H 0.38165 0.53664 0.45928
 H1418 H 0.35844 0.55366 0.46481
 H1419 H 0.33579 0.51451 0.48937
 H1420 H 0.35890 0.49758 0.48352
 H1421 H 0.31380 0.52693 0.47558
 H1422 H 0.29037 0.54347 0.48130
 H1423 H 0.32106 0.58330 0.49206
 H1424 H 0.34465 0.56676 0.48665
 C1425 C 0.89614 -0.00276 -0.03568
 C1426 C 0.88508 0.00597 -0.03283
 C1427 C 0.87175 0.01619 -0.02926
 C1428 C 0.86156 0.01242 -0.01665
 C1429 C 0.84842 0.02212 -0.01328
 C1430 C 0.84528 0.03574 -0.02250
 C1431 C 0.85569 0.03952 -0.03507
 C1432 C 0.86882 0.02979 -0.03842
 C1433 C 0.83106 0.04578 -0.01917
 C1434 C 0.83200 0.06252 -0.01998
 C1435 C 0.81854 0.07190 -0.01686
 C1436 C 0.80399 0.06468 -0.01293
 C1437 C 0.80295 0.04806 -0.01211
 C1438 C 0.81637 0.03867 -0.01521
 C1439 C 0.79008 0.07424 -0.00974
 C1440 C 0.77824 0.08194 -0.00702
 H1441 H 0.86375 0.00195 -0.00945
 H1442 H 0.84078 0.01902 -0.00339
 H1443 H 0.85349 0.04982 -0.04248
 H1444 H 0.87663 0.03280 -0.04823
 H1445 H 0.84318 0.06835 -0.02282
 H1446 H 0.81949 0.08476 -0.01749
 H1447 H 0.79173 0.04235 -0.00913
 H1448 H 0.81519 0.02582 -0.01472
 C1449 C 0.60399 -0.00241 0.03628
 C1450 C 0.61482 0.00666 0.03359
 C1451 C 0.62782 0.01737 0.03030
 C1452 C 0.63603 0.02478 0.04278
 C1453 C 0.64897 0.03482 0.03960
 C1454 C 0.65387 0.03757 0.02385
 C1455 C 0.64541 0.03022 0.01138
 C1456 C 0.63248 0.02018 0.01460
 C1457 C 0.66798 0.04774 0.02047
 C1458 C 0.66794 0.05832 0.00751
 C1459 C 0.68145 0.06750 0.00407
 C1460 C 0.69516 0.06622 0.01353
 C1461 C 0.69526 0.05584 0.02651
 C1462 C 0.68178 0.04666 0.02998
 C1463 C 0.70925 0.07525 0.00973
 C1464 C 0.72123 0.08258 0.00661
 H1465 H 0.63248 0.02272 0.05498
 H1466 H 0.65510 0.04047 0.04943
 H1467 H 0.64901 0.03195 -0.00084
 H1468 H 0.62623 0.01448 0.00485
 H1469 H 0.65744 0.05955 0.00009
 H1470 H 0.68124 0.07552 -0.00600
 H1471 H 0.70584 0.05470 0.03386
 H1472 H 0.68227 0.03847 0.03989
 C1473 C 0.10391 0.49787 0.53589
 C1474 C 0.11483 0.50688 0.53330
 C1475 C 0.12794 0.51753 0.53018
 C1476 C 0.13273 0.52044 0.51454
 C1477 C 0.14573 0.53045 0.51149
 C1478 C 0.15413 0.53767 0.52408
 C1479 C 0.14912 0.53478 0.53977
 C1480 C 0.13611 0.52478 0.54278
 C1481 C 0.16828 0.54786 0.52087
 C1482 C 0.18201 0.54673 0.53047
 C1483 C 0.19551 0.55597 0.52717
 C1484 C 0.19547 0.56647 0.51428
 C1485 C 0.18183 0.56780 0.50474
 C1486 C 0.16831 0.55856 0.50801
 C1487 C 0.20960 0.57553 0.51061
 C1488 C 0.22159 0.58285 0.50752
 H1489 H 0.12651 0.51486 0.50470
 H1490 H 0.14941 0.53226 0.49931
 H1491 H 0.15521 0.54032 0.54969
 H1492 H 0.13247 0.52264 0.55494
 H1493 H 0.18245 0.53845 0.54031
 H1494 H 0.20604 0.55478 0.53458
 H1495 H 0.18167 0.57589 0.49473
 H1496 H 0.15786 0.55983 0.50052
 C1497 C 0.10382 0.50266 -0.03555
 C1498 C 0.11505 0.49401 -0.03306
 C1499 C 0.12857 0.48387 -0.03003
 C1500 C 0.14347 0.49062 -0.02660
 C1501 C 0.15665 0.48084 -0.02361
 C1502 C 0.15511 0.46414 -0.02400
 C1503 C 0.14006 0.45745 -0.02743
 C1504 C 0.12689 0.46727 -0.03044
 C1505 C 0.16915 0.45379 -0.02082
 C1506 C 0.16762 0.43994 -0.01153
 C1507 C 0.18095 0.43042 -0.00828
 C1508 C 0.19596 0.43459 -0.01430
 C1509 C 0.19757 0.44827 -0.02366
 C1510 C 0.18428 0.45780 -0.02691
 C1511 C 0.20981 0.42512 -0.01063
 C1512 C 0.22162 0.41750 -0.00752
 H1513 H 0.14490 0.50345 -0.02619
 H1514 H 0.16801 0.48636 -0.02078
 H1515 H 0.13853 0.44465 -0.02801
 H1516 H 0.11541 0.46191 -0.03312
 H1517 H 0.15618 0.43663 -0.00652
 H1518 H 0.17958 0.41990 -0.00096
 H1519 H 0.20913 0.45161 -0.02839
 H1520 H 0.18581 0.46825 -0.03428
 C1521 C 0.60346 1.00289 0.46427
 C1522 C 0.61466 0.99421 0.46675
 C1523 C 0.62817 0.98404 0.46980
 C1524 C 0.64309 0.99077 0.47318
 C1525 C 0.65625 0.98098 0.47618
 C1526 C 0.65466 0.96428 0.47585
 C1527 C 0.63959 0.95761 0.47247
 C1528 C 0.62644 0.96745 0.46945
 C1529 C 0.66868 0.95391 0.47906
 C1530 C 0.66711 0.94011 0.48844
 C1531 C 0.68043 0.93060 0.49176
 C1532 C 0.69545 0.93472 0.48572
 C1533 C 0.69709 0.94832 0.47626
 C1534 C 0.68381 0.95785 0.47295
 C1535 C 0.70930 0.92529 0.48950
 C1536 C 0.72112 0.91771 0.49268
 H1537 H 0.64454 1.00360 0.47354
 H1538 H 0.66761 0.98648 0.47898
 H1539 H 0.63803 0.94481 0.47196
 H1540 H 0.61494 0.96211 0.46682
 H1541 H 0.65567 0.93686 0.49347
 H1542 H 0.67905 0.92013 0.49914
 H1543 H 0.70865 0.95162 0.47151
 H1544 H 0.68536 0.96826 0.46551
 C1545 C 0.89610 1.00291 0.53524
 C1546 C 0.88477 0.99437 0.53277
 C1547 C 0.87115 0.98431 0.52973
 C1548 C 0.87195 0.96793 0.53279
 C1549 C 0.85870 0.95819 0.52979
 C1550 C 0.84447 0.96473 0.52372
 C1551 C 0.84381 0.98122 0.52069
 C1552 C 0.85706 0.99092 0.52367
 C1553 C 0.83034 0.95446 0.52057
 C1554 C 0.81486 0.95985 0.52425
 C1555 C 0.80154 0.95032 0.52104
 C1556 C 0.80348 0.93527 0.51413
 C1557 C 0.81882 0.92973 0.51051
 C1558 C 0.83218 0.93925 0.51372
 C1559 C 0.78965 0.92571 0.51052
 C1560 C 0.77787 0.91801 0.50746
 H1561 H 0.88278 0.96269 0.53751
 H1562 H 0.85952 0.94559 0.53243
 H1563 H 0.83312 0.98658 0.51580
 H1564 H 0.85633 1.00357 0.52121
 H1565 H 0.81306 0.97140 0.52972
 H1566 H 0.78972 0.95472 0.52391
 H1567 H 0.82046 0.91812 0.50510
 H1568 H 0.84392 0.93483 0.51058
 C1569 C 0.39641 0.50256 0.03530
 C1570 C 0.38513 0.49396 0.03286
 C1571 C 0.37156 0.48385 0.02986
 C1572 C 0.37291 0.46728 0.03135
 C1573 C 0.35969 0.45750 0.02840
 C1574 C 0.34493 0.46419 0.02394
 C1575 C 0.34372 0.48085 0.02246
 C1576 C 0.35694 0.49060 0.02540
 C1577 C 0.33084 0.45387 0.02080
 C1578 C 0.31555 0.45848 0.02601
 C1579 C 0.30223 0.44897 0.02277
 C1580 C 0.30398 0.43472 0.01429
 C1581 C 0.31914 0.42995 0.00916
 C1582 C 0.33250 0.43944 0.01241
 C1583 C 0.29012 0.42525 0.01060
 C1584 C 0.27832 0.41761 0.00747
 H1585 H 0.38416 0.46194 0.03483
 H1586 H 0.36094 0.44474 0.02980
 H1587 H 0.33259 0.48635 0.01882
 H1588 H 0.35578 0.50340 0.02415
 H1589 H 0.31391 0.46940 0.03269
 H1590 H 0.29055 0.45277 0.02681
 H1591 H 0.32062 0.41897 0.00253
 H1592 H 0.34408 0.43566 0.00808
 C1593 C 0.49854 0.46278 0.39610
 C1594 C 0.50743 0.46510 0.38508
 C1595 C 0.51790 0.46794 0.37184
 C1596 C 0.52647 0.48223 0.37085
 C1597 C 0.53631 0.48520 0.35777
 C1598 C 0.53766 0.47390 0.34547
 C1599 C 0.52912 0.45950 0.34667
 C1600 C 0.51931 0.45655 0.35976
 C1601 C 0.54765 0.47728 0.33130
 C1602 C 0.54219 0.47316 0.31602
 C1603 C 0.55137 0.47668 0.30263
 C1604 C 0.56614 0.48433 0.30430
 C1605 C 0.57174 0.48839 0.31944
 C1606 C 0.56256 0.48489 0.33287
 C1607 C 0.57533 0.48826 0.29042
 C1608 C 0.58278 0.49159 0.27863
 H1609 H 0.52543 0.49115 0.38011
 H1610 H 0.54257 0.49647 0.35711
 H1611 H 0.53008 0.45048 0.33751
 H1612 H 0.51275 0.44543 0.36043
 H1613 H 0.53066 0.46751 0.31440
 H1614 H 0.54689 0.47356 0.29096
 H1615 H 0.58317 0.49430 0.32087
 H1616 H 0.56717 0.48804 0.34448
 C1617 C -0.00165 -0.03590 0.89521
 C1618 C 0.00714 -0.03321 0.88420
 C1619 C 0.01738 -0.02981 0.87092
 C1620 C 0.03217 -0.03746 0.86942
 C1621 C 0.04196 -0.03426 0.85635
 C1622 C 0.03704 -0.02340 0.84459
 C1623 C 0.02221 -0.01569 0.84630
 C1624 C 0.01246 -0.01888 0.85937
 C1625 C 0.04718 -0.02025 0.83049
 C1626 C 0.04020 -0.01875 0.81535
 C1627 C 0.04966 -0.01566 0.80206
 C1628 C 0.06622 -0.01403 0.80367
 C1629 C 0.07332 -0.01556 0.81866
 C1630 C 0.06386 -0.01868 0.83199
 C1631 C 0.07579 -0.01064 0.78991
 C1632 C 0.08345 -0.00771 0.77815
 H1633 H 0.03608 -0.04596 0.87828
 H1634 H 0.05323 -0.04050 0.85528
 H1635 H 0.01820 -0.00708 0.83760
 H1636 H 0.00106 -0.01285 0.86045
 H1637 H 0.02743 -0.02014 0.81377
 H1638 H 0.04405 -0.01453 0.79051
 H1639 H 0.08613 -0.01427 0.82004
 H1640 H 0.06956 -0.01960 0.84351
 C1641 C -0.00153 0.03586 0.60451
 C1642 C 0.00708 0.03343 0.61574
 C1643 C 0.01717 0.03039 0.62925
 C1644 C 0.01051 0.02452 0.64330
 C1645 C 0.02023 0.02147 0.65645
 C1646 C 0.03680 0.02426 0.65573
 C1647 C 0.04341 0.03015 0.64154
 C1648 C 0.03364 0.03320 0.62840
 C1649 C 0.04710 0.02099 0.66973
 C1650 C 0.06217 0.01379 0.66788
 C1651 C 0.07167 0.01040 0.68114
 C1652 C 0.06625 0.01421 0.69639
 C1653 C 0.05134 0.02150 0.69834
 C1654 C 0.04183 0.02488 0.68512
 C1655 C 0.07576 0.01040 0.71012
 C1656 C 0.08341 0.00718 0.72182
 H1657 H -0.00222 0.02224 0.64408
 H1658 H 0.01482 0.01673 0.66712
 H1659 H 0.05608 0.03259 0.64068
 H1660 H 0.03893 0.03778 0.61758
 H1661 H 0.06648 0.01048 0.65621
 H1662 H 0.08317 0.00470 0.67950
 H1663 H 0.04704 0.02452 0.71010
 H1664 H 0.03039 0.03063 0.68693
 C1665 C 0.49845 0.53639 0.10448
 C1666 C 0.50696 0.53393 0.11578
 C1667 C 0.51688 0.53080 0.12940
 C1668 C 0.53336 0.53360 0.12876
 C1669 C 0.54295 0.53041 0.14200
 C1670 C 0.53616 0.52440 0.15606
 C1671 C 0.51958 0.52164 0.15655
 C1672 C 0.51003 0.52481 0.14331
 C1673 C 0.54629 0.52100 0.17016
 C1674 C 0.54083 0.52476 0.18552
 C1675 C 0.55023 0.52134 0.19881
 C1676 C 0.56519 0.51414 0.19697
 C1677 C 0.57077 0.51043 0.18174
 C1678 C 0.56140 0.51385 0.16841
 C1679 C 0.57465 0.51038 0.21075
 C1680 C 0.58231 0.50720 0.22246
 H1681 H 0.53879 0.53825 0.11806
 H1682 H 0.55564 0.53284 0.14132
 H1683 H 0.51403 0.51680 0.16711
 H1684 H 0.49730 0.52254 0.14390
 H1685 H 0.52936 0.53046 0.18724
 H1686 H 0.54580 0.52428 0.21054
 H1687 H 0.58231 0.50479 0.18019
 H1688 H 0.56583 0.51064 0.15677
 C1689 C 0.50195 -0.03701 0.10466
 C1690 C 0.49286 -0.03428 0.11541
 C1691 C 0.48216 -0.03084 0.12832
 C1692 C 0.47337 -0.04311 0.13541
 C1693 C 0.46334 -0.03980 0.14826
 C1694 C 0.46197 -0.02417 0.15419
 C1695 C 0.47072 -0.01189 0.14684
 C1696 C 0.48074 -0.01523 0.13401
 C1697 C 0.45181 -0.02071 0.16822
 C1698 C 0.44251 -0.00675 0.16887
 C1699 C 0.43338 -0.00328 0.18234
 C1700 C 0.43343 -0.01370 0.19530
 C1701 C 0.44251 -0.02769 0.19470
 C1702 C 0.45164 -0.03119 0.18125
 C1703 C 0.42444 -0.00993 0.20935
 C1704 C 0.41708 -0.00683 0.22126
 H1705 H 0.47434 -0.05523 0.13107
 H1706 H 0.45660 -0.04946 0.15353
 H1707 H 0.47008 0.00022 0.15125
 H1708 H 0.48753 -0.00566 0.12863
 H1709 H 0.44225 0.00144 0.15895
 H1710 H 0.42637 0.00757 0.18267
 H1711 H 0.44268 -0.03580 0.20469
 H1712 H 0.45883 -0.04191 0.18120
 C1713 C 1.00173 0.46365 0.60429
 C1714 C 0.99289 0.46600 0.61533
 C1715 C 0.98247 0.46886 0.62862
 C1716 C 0.97399 0.48320 0.62973
 C1717 C 0.96420 0.48616 0.64285
 C1718 C 0.96278 0.47481 0.65506
 C1719 C 0.97125 0.46037 0.65375
 C1720 C 0.98102 0.45743 0.64062
 C1721 C 0.95278 0.47814 0.66924
 C1722 C 0.95815 0.47388 0.68450
 C1723 C 0.94891 0.47729 0.69789
 C1724 C 0.93417 0.48498 0.69624
 C1725 C 0.92865 0.48918 0.68111
 C1726 C 0.93789 0.48579 0.66769
 C1727 C 0.92488 0.48876 0.71011
 C1728 C 0.91729 0.49197 0.72185
 H1729 H 0.97508 0.49216 0.62054
 H1730 H 0.95801 0.49747 0.64361
 H1731 H 0.97024 0.45131 0.66285
 H1732 H 0.98750 0.44628 0.63986
 H1733 H 0.96965 0.46819 0.68611
 H1734 H 0.95332 0.47404 0.70955
 H1735 H 0.91724 0.49511 0.67970
 H1736 H 0.93334 0.48904 0.65610
 C1737 C 1.00157 0.53641 0.89545
 C1738 C 0.99268 0.53380 0.88447
 C1739 C 0.98221 0.53050 0.87129
 C1740 C 0.98281 0.51564 0.86374
 C1741 C 0.97283 0.51242 0.85080
 C1742 C 0.96210 0.52405 0.84522
 C1743 C 0.96153 0.53894 0.85294
 C1744 C 0.97152 0.54212 0.86589
 C1745 C 0.95176 0.52073 0.83124
 C1746 C 0.94929 0.53246 0.81956
 C1747 C 0.93999 0.52915 0.80614
 C1748 C 0.93301 0.51411 0.80423
 C1749 C 0.93522 0.50242 0.81587
 C1750 C 0.94453 0.50570 0.82929
 C1751 C 0.92398 0.51052 0.79011
 C1752 C 0.91664 0.50742 0.77816
 H1753 H 0.99108 0.50657 0.86779
 H1754 H 0.97373 0.50094 0.84499
 H1755 H 0.95327 0.54806 0.84904
 H1756 H 0.97092 0.55365 0.87167
 H1757 H 0.95486 0.54407 0.82061
 H1758 H 0.93842 0.53826 0.79717
 H1759 H 0.92985 0.49074 0.81452
 H1760 H 0.94602 0.49649 0.83817
 C1761 C 0.50111 0.03682 0.39570
 C1762 C 0.49214 0.03404 0.38483
 C1763 C 0.48163 0.03047 0.37178
 C1764 C 0.47450 0.04280 0.36313
 C1765 C 0.46469 0.03928 0.35013
 C1766 C 0.46192 0.02336 0.34560
 C1767 C 0.46899 0.01105 0.35450
 C1768 C 0.47877 0.01460 0.36750
 C1769 C 0.45205 0.01961 0.33141
 C1770 C 0.45677 0.00752 0.32082
 C1771 C 0.44771 0.00418 0.30727
 C1772 C 0.43379 0.01286 0.30413
 C1773 C 0.42891 0.02485 0.31464
 C1774 C 0.43798 0.02821 0.32820
 C1775 C 0.42470 0.00960 0.28998
 C1776 C 0.41727 0.00683 0.27803
 H1777 H 0.47666 0.05513 0.36631
 H1778 H 0.45957 0.04902 0.34340
 H1779 H 0.46690 -0.00132 0.35145
 H1780 H 0.48420 0.00496 0.37414
 H1781 H 0.46766 0.00084 0.32284
 H1782 H 0.45162 -0.00508 0.29918
 H1783 H 0.41813 0.03161 0.31232
 H1784 H 0.43393 0.03746 0.33622
   
