data_POSCAR
  _audit_creation_date              2014-09-24
  _audit_creation_method            'ToBaCCo'
  _symmetry_space_group_name_H-M    'P1'
  _symmetry_Int_Tables_number       1
  _symmetry_cell_setting            triclinic
  loop_
  _symmetry_equiv_pos_as_xyz
 x,y,z
_cell_length_a 33.0999
_cell_length_b 33.1105
_cell_length_c 36.9178
_cell_angle_alpha 88.933100
_cell_angle_beta 91.025100
_cell_angle_gamma 90.424600
loop_
  _atom_site_label
  _atom_site_type_symbol
  _atom_site_fract_x
  _atom_site_fract_y
  _atom_site_fract_z
C1 C 0.44315 0.01004 0.28664
 C2 C 0.41134 0.04391 0.28316
 C3 C 0.38690 0.04134 0.25283
 C4 C 0.39621 0.00498 0.22922
 C5 C 0.41867 -0.02905 0.28491
 C6 C 0.39358 -0.03183 0.25575
 C7 C 0.46637 0.01267 0.25098
 C8 C 0.44178 0.01075 0.22075
 H9 H 0.40953 0.06855 0.30207
 H10 H 0.37637 0.00229 0.20478
 H11 H 0.41843 -0.05134 0.30695
 H12 H 0.49847 0.01945 0.24971
 C13 C 0.05717 -0.00250 0.78410
 C14 C 0.08299 -0.04055 0.77914
 C15 C 0.10721 -0.03886 0.74935
 C16 C 0.10311 0.00183 0.72754
 C17 C 0.08766 0.03231 0.78535
 C18 C 0.11203 0.03522 0.75623
 C19 C 0.03452 0.00291 0.75050
 C20 C 0.05938 0.00501 0.71925
 H21 H 0.08175 -0.06669 0.79732
 H22 H 0.12260 0.00404 0.70337
 H23 H 0.08945 0.05354 0.80748
 H24 H 0.00169 0.00270 0.74885
 C25 C 0.56049 0.49801 0.28552
 C26 C 0.58618 0.45999 0.28049
 C27 C 0.61022 0.46146 0.25064
 C28 C 0.60628 0.50197 0.22870
 C29 C 0.59075 0.53294 0.28624
 C30 C 0.61497 0.53565 0.25706
 C31 C 0.53648 0.50334 0.25013
 C32 C 0.55997 0.50511 0.22021
 H33 H 0.58479 0.43381 0.29863
 H34 H 0.62559 0.50401 0.20443
 H35 H 0.59252 0.55443 0.30816
 H36 H 0.50366 0.50359 0.24869
 C37 C 0.94307 0.50923 0.78647
 C38 C 0.91126 0.54310 0.78293
 C39 C 0.88674 0.54039 0.75267
 C40 C 0.89597 0.50391 0.72918
 C41 C 0.91860 0.47015 0.78494
 C42 C 0.89343 0.46723 0.75586
 C43 C 0.96620 0.51168 0.75074
 C44 C 0.94152 0.50962 0.72057
 H45 H 0.90952 0.56784 0.80174
 H46 H 0.87605 0.50110 0.70479
 H47 H 0.91842 0.44794 0.80705
 H48 H 0.99829 0.51845 0.74939
 C49 C 0.28902 0.36745 0.99918
 C50 C 0.28725 0.33532 1.02916
 C51 C 0.25403 0.31093 1.02775
 C52 C 0.22451 0.32110 0.99570
 C53 C 0.28493 0.34367 0.96373
 C54 C 0.25112 0.31931 0.96170
 C55 C 0.24915 0.39054 1.00151
 C56 C 0.21531 0.36673 0.99937
 H57 H 0.30909 0.33403 1.05152
 H58 H 0.19727 0.30133 0.99455
 H59 H 0.30599 0.34709 0.94163
 H60 H 0.24778 0.42325 1.00303
 C61 C 0.78492 0.13734 0.99680
 C62 C 0.78353 0.16832 0.96597
 C63 C 0.75174 0.19394 0.96666
 C64 C 0.72283 0.18567 0.99896
 C65 C 0.78380 0.16265 1.03138
 C66 C 0.75115 0.18799 1.03273
 C67 C 0.74603 0.11637 0.99546
 C68 C 0.71167 0.14265 0.99724
 H69 H 0.80525 0.16882 0.94417
 H70 H 0.69671 0.20654 0.99947
 H71 H 0.80485 0.15834 1.05402
 H72 H 0.74320 0.08365 0.99669
 C73 C 0.28753 0.63929 0.49668
 C74 C 0.28540 0.66945 0.46533
 C75 C 0.25361 0.69500 0.46595
 C76 C 0.22524 0.68763 0.49861
 C77 C 0.28646 0.66519 0.53083
 C78 C 0.25375 0.69040 0.53207
 C79 C 0.24642 0.61709 0.49614
 C80 C 0.21362 0.64211 0.49778
 H81 H 0.30684 0.66964 0.44331
 H82 H 0.19909 0.70844 0.49904
 H83 H 0.30742 0.66103 0.55356
 H84 H 0.24366 0.58438 0.49735
 C85 C 0.78912 0.86763 0.49992
 C86 C 0.78721 0.83528 0.52968
 C87 C 0.75406 0.81080 0.52791
 C88 C 0.72476 0.82116 0.49572
 C89 C 0.78541 0.84415 0.46431
 C90 C 0.75170 0.81973 0.46189
 C91 C 0.74919 0.89062 0.50213
 C92 C 0.71542 0.86676 0.49961
 H93 H 0.80889 0.83385 0.55216
 H94 H 0.69758 0.80135 0.49425
 H95 H 0.80668 0.84775 0.44240
 H96 H 0.74774 0.92330 0.50385
 C97 C 0.00257 0.29020 0.40684
 C98 C 0.02568 0.30337 0.37313
 C99 C 0.02509 0.27490 0.34709
 C100 C 0.00048 0.23709 0.35671
 C101 C -0.03799 0.28095 0.39432
 C102 C -0.03881 0.25180 0.36651
 C103 C 0.02127 0.25015 0.41910
 C104 C 0.02005 0.22226 0.39237
 H105 H 0.04789 0.32778 0.37346
 H106 H -0.00035 0.21404 0.33513
 H107 H -0.06434 0.29846 0.40130
 H108 H 0.02917 0.24277 0.44714
 C109 C -0.00376 0.77536 0.10863
 C110 C -0.01263 0.78238 0.14829
 C111 C -0.00848 0.74856 0.16935
 C112 C 0.00658 0.71216 0.14888
 C113 C 0.03917 0.75984 0.10803
 C114 C 0.04470 0.72713 0.13010
 C115 C -0.03046 0.74011 0.09684
 C116 C -0.02393 0.70640 0.11780
 H117 H -0.03056 0.80793 0.15664
 H118 H 0.01122 0.68474 0.16630
 H119 H 0.06427 0.77843 0.09853
 H120 H -0.04447 0.73883 0.07001
 C121 C 0.49501 0.27585 0.60977
 C122 C 0.48540 0.28256 0.64933
 C123 C 0.48962 0.24870 0.67032
 C124 C 0.50553 0.21258 0.64995
 C125 C 0.53816 0.26090 0.60972
 C126 C 0.54373 0.22809 0.63165
 C127 C 0.46898 0.24029 0.59753
 C128 C 0.47560 0.20658 0.61847
 H129 H 0.46698 0.30784 0.65751
 H130 H 0.51025 0.18515 0.66734
 H131 H 0.56320 0.27970 0.60044
 H132 H 0.45537 0.23897 0.57054
 C133 C 0.50472 0.79005 0.90948
 C134 C 0.52866 0.80314 0.87621
 C135 C 0.52800 0.77493 0.84995
 C136 C 0.50299 0.73729 0.85906
 C137 C 0.46207 0.78148 0.89510
 C138 C 0.46158 0.75390 0.86831
 C139 C 0.52119 0.75171 0.92132
 C140 C 0.52018 0.72266 0.89320
 H141 H 0.55095 0.82747 0.87682
 H142 H 0.50216 0.71454 0.83721
 H143 H 0.43580 0.79912 0.90197
 H144 H 0.52743 0.74383 0.94959
 C145 C -0.24041 0.69375 0.96352
 C146 C -0.20695 0.66150 0.96684
 C147 C -0.20964 0.63712 0.99721
 C148 C -0.24572 0.64693 1.02102
 C149 C -0.27982 0.66984 0.96551
 C150 C -0.28275 0.64479 0.99469
 C151 C -0.23721 0.71696 0.99916
 C152 C -0.23925 0.69241 1.02944
 H153 H -0.18238 0.65944 0.94786
 H154 H -0.24852 0.62713 1.04549
 H155 H -0.30220 0.66979 0.94354
 H156 H -0.22997 0.74896 1.00035
 C157 C -0.25178 0.30714 0.46614
 C158 C -0.29004 0.33262 0.47124
 C159 C -0.28846 0.35683 0.50103
 C160 C -0.24764 0.35307 0.52269
 C161 C -0.21722 0.33792 0.46477
 C162 C -0.21442 0.36229 0.49386
 C163 C -0.24606 0.28453 0.49974
 C164 C -0.24409 0.30937 0.53099
 H165 H -0.31625 0.33118 0.45315
 H166 H -0.24550 0.37255 0.54684
 H167 H -0.19610 0.33992 0.44255
 H168 H -0.24615 0.25171 0.50140
 C169 C 0.24808 -0.19120 -0.03446
 C170 C 0.20995 -0.16549 -0.02955
 C171 C 0.21142 -0.14140 0.00029
 C172 C 0.25205 -0.14552 0.02224
 C173 C 0.28286 -0.16064 -0.03552
 C174 C 0.28560 -0.13641 -0.00632
 C175 C 0.25337 -0.21397 -0.00091
 C176 C 0.25528 -0.18927 0.03042
 H177 H 0.18386 -0.16676 -0.04780
 H178 H 0.25409 -0.12614 0.04648
 H179 H 0.30422 -0.15876 -0.05756
 H180 H 0.25333 -0.24679 0.00063
 C181 C 0.25869 1.19323 0.46346
 C182 C 0.29287 1.16171 0.46687
 C183 C 0.29048 1.13718 0.49718
 C184 C 0.25403 1.14609 0.52080
 C185 C 0.21982 1.16841 0.46518
 C186 C 0.21728 1.14322 0.49429
 C187 C 0.26111 1.21635 0.49918
 C188 C 0.25941 1.19163 0.52936
 H189 H 0.31753 1.16015 0.44795
 H190 H 0.25149 1.12615 0.54521
 H191 H 0.19756 1.16796 0.44313
 H192 H 0.26768 1.24847 0.50050
 C193 C 0.11730 0.53976 0.24977
 C194 C 0.08503 0.53789 0.21993
 C195 C 0.06047 0.50481 0.22169
 C196 C 0.07063 0.47551 0.25389
 C197 C 0.09362 0.53607 0.28534
 C198 C 0.06910 0.50240 0.28769
 C199 C 0.14019 0.49975 0.24765
 C200 C 0.11620 0.46605 0.25013
 H201 H 0.08372 0.55955 0.19743
 H202 H 0.05073 0.44839 0.25531
 H203 H 0.09719 0.55730 0.30727
 H204 H 0.17289 0.49820 0.24600
 C205 C -0.11159 1.03492 0.25358
 C206 C -0.08061 1.03345 0.28439
 C207 C -0.05502 1.00164 0.28365
 C208 C -0.06333 0.97280 0.25137
 C209 C -0.08628 1.03381 0.21899
 C210 C -0.06098 1.00113 0.21763
 C211 C -0.13262 0.99605 0.25492
 C212 C -0.10636 0.96169 0.25311
 H213 H -0.08008 1.05512 0.30621
 H214 H -0.04248 0.94667 0.25084
 H215 H -0.09063 1.05482 0.19632
 H216 H -0.16535 0.99326 0.25367
 C217 C 0.38865 0.53682 -0.24666
 C218 C 0.41901 0.53496 -0.21548
 C219 C 0.44472 0.50333 -0.21620
 C220 C 0.43728 0.47479 -0.24864
 C221 C 0.41438 0.53578 -0.28095
 C222 C 0.43974 0.50319 -0.28214
 C223 C 0.36663 0.49565 -0.24587
 C224 C 0.39180 0.46299 -0.24755
 H225 H 0.41932 0.55654 -0.19359
 H226 H 0.45820 0.44874 -0.24907
 H227 H 0.41011 0.55669 -0.30370
 H228 H 0.33393 0.49276 -0.24702
 C229 C 0.61727 0.03904 -0.24986
 C230 C 0.58491 0.03719 -0.27961
 C231 C 0.56045 0.00403 -0.27788
 C232 C 0.57083 -0.02534 -0.24574
 C233 C 0.59378 0.03521 -0.21424
 C234 C 0.56937 0.00148 -0.21185
 C235 C 0.64028 -0.00086 -0.25216
 C236 C 0.61643 -0.03464 -0.24967
 H237 H 0.58350 0.05890 -0.30207
 H238 H 0.55102 -0.05252 -0.24430
 H239 H 0.59739 0.05640 -0.19228
 H240 H 0.67298 -0.00228 -0.25389
 C241 C 0.03859 0.25441 0.84074
 C242 C 0.05199 0.27800 0.87409
 C243 C 0.02381 0.27753 0.90040
 C244 C -0.01411 0.25295 0.89126
 C245 C 0.02958 0.21179 0.85495
 C246 C 0.00204 0.21141 0.88180
 C247 C 0.00040 0.27136 0.82905
 C248 C -0.02864 0.27047 0.85721
 H249 H 0.07653 0.30006 0.87349
 H250 H -0.03683 0.25224 0.91315
 H251 H 0.04695 0.18539 0.84794
 H252 H -0.00750 0.27770 0.80080
 C253 C 0.52608 0.24632 0.14187
 C254 C 0.53285 0.23600 0.10248
 C255 C 0.49911 0.24027 0.08133
 C256 C 0.46300 0.25666 0.10140
 C257 C 0.51144 0.28959 0.14129
 C258 C 0.47872 0.29502 0.11921
 C259 C 0.49029 0.22075 0.15436
 C260 C 0.45671 0.22724 0.13322
 H261 H 0.55809 0.21738 0.09454
 H262 H 0.43565 0.26130 0.08389
 H263 H 0.53038 0.31463 0.15028
 H264 H 0.48880 0.20745 0.18146
 C265 C 0.02578 0.74579 0.64122
 C266 C 0.03277 0.73621 0.60170
 C267 C -0.00107 0.73993 0.58064
 C268 C -0.03749 0.75535 0.60090
 C269 C 0.01021 0.78870 0.64118
 C270 C -0.02260 0.79378 0.61915
 C271 C -0.00947 0.71928 0.65345
 C272 C -0.04321 0.72539 0.63241
 H273 H 0.05835 0.71815 0.59360
 H274 H -0.06493 0.75966 0.58343
 H275 H 0.02866 0.81399 0.65041
 H276 H -0.01072 0.70576 0.68048
 C277 C 0.54179 0.75487 0.34123
 C278 C 0.55435 0.77961 0.37403
 C279 C 0.52635 0.77865 0.40043
 C280 C 0.48933 0.75260 0.39213
 C281 C 0.53402 0.71235 0.35606
 C282 C 0.50662 0.71161 0.38294
 C283 C 0.50084 0.77112 0.32891
 C284 C 0.47344 0.76987 0.35600
 H285 H 0.57811 0.80248 0.37297
 H286 H 0.46666 0.75155 0.41402
 H287 H 0.55173 0.68619 0.34901
 H288 H 0.49287 0.77808 0.30080
 Zr289 Zr 0.03253 -0.03527 1.04883
 O290 O 0.07883 -0.01816 1.08587
 O291 O 0.01913 -0.09417 1.06591
 O292 O 0.01108 -0.03105 1.10297
 O293 O 0.09760 -0.05927 0.97929
 O294 O -0.04666 0.00589 1.09623
 O295 O 0.08812 -0.06655 1.04017
 O296 O -0.03336 -0.11444 1.02919
 O297 O -0.03057 -0.03963 1.04291
 O298 O 0.02021 -0.06465 1.00009
 O299 O 0.01105 0.02449 1.04898
 O300 O 0.06073 0.00033 1.00832
 Zr301 Zr -0.03946 0.02609 0.95159
 Zr302 Zr -0.05159 0.01966 1.04091
 Zr303 Zr 0.04563 -0.02865 0.95987
 Zr304 Zr -0.04243 -0.06664 0.99303
 O305 O 0.09801 0.00019 0.93946
 O306 O -0.09835 -0.08102 1.01753
 O307 O -0.01713 -0.03342 0.95046
 O308 O -0.06685 -0.00888 0.99234
 O309 O -0.02734 0.05645 0.99998
 O310 O 0.02370 0.03025 0.95744
 C311 C -0.00777 -0.11948 1.05504
 C312 C 0.10864 -0.07208 1.01103
 C313 C -0.02050 -0.01353 1.11548
 O314 O -0.10620 -0.00739 1.05838
 O315 O -0.10046 0.05494 1.02315
 O316 O -0.09323 0.05969 0.96180
 C317 C -0.11190 0.06723 0.99156
 O318 O 0.08346 0.06586 1.04465
 Zr319 Zr 0.03543 0.05855 1.00627
 O320 O -0.02872 0.08457 0.93299
 O321 O -0.05194 0.07382 1.07048
 O322 O 0.02048 0.10755 1.03957
 O323 O 0.08914 0.07572 0.97934
 O324 O 0.02080 0.10773 0.97145
 C325 C -0.00425 0.11160 0.94461
 O326 O -0.08761 0.00908 0.91649
 O327 O 0.04954 -0.08465 0.93339
 O328 O -0.02001 0.01795 0.89738
 O329 O 0.03657 -0.02101 0.90415
 O330 O -0.02788 -0.11804 0.96252
 O331 O -0.08521 -0.07343 0.94991
 C332 C 0.01019 -0.00186 0.88490
 H333 H 0.03175 -0.09212 0.99949
 H334 H -0.09647 -0.01072 0.98841
 H335 H 0.03644 0.04539 0.93723
 H336 H 0.01795 0.03770 1.07214
 H337 H -0.10413 -0.10998 1.01333
 H338 H -0.11828 0.01117 1.07589
 H339 H -0.07689 0.07346 1.08495
 H340 H 0.03689 0.13116 1.03166
 H341 H -0.04699 -0.13997 0.96932
 H342 H 0.07468 -0.08387 0.91919
 H343 H 0.10992 -0.01851 0.92200
 H344 H 0.09293 0.10518 0.98245
 H345 H -0.10006 -0.09927 0.95313
 H346 H -0.09291 0.03254 0.90002
 H347 H 0.08410 -0.04185 1.10208
 H348 H 0.09316 0.09423 1.04387
 Zr349 Zr 0.53347 0.46447 0.54978
 O350 O 0.57989 0.48073 0.58702
 O351 O 0.51903 0.40583 0.56692
 O352 O 0.51193 0.46932 0.60382
 O353 O 0.59842 0.43951 0.48039
 O354 O 0.45474 0.50707 0.59678
 O355 O 0.58870 0.43244 0.54124
 O356 O 0.46636 0.38629 0.53007
 O357 O 0.47033 0.46107 0.54363
 O358 O 0.52089 0.43518 0.50105
 O359 O 0.51285 0.52454 0.54982
 O360 O 0.56234 0.49959 0.50938
 Zr361 Zr 0.46279 0.52683 0.45227
 Zr362 Zr 0.45018 0.52068 0.54147
 Zr363 Zr 0.54696 0.47080 0.46091
 Zr364 Zr 0.45825 0.43414 0.49376
 O365 O 0.59987 0.49877 0.44065
 O366 O 0.40199 0.42067 0.51800
 O367 O 0.48419 0.46696 0.45125
 O368 O 0.43470 0.49227 0.49290
 O369 O 0.47516 0.55707 0.50066
 O370 O 0.52597 0.53002 0.45840
 C371 C 0.49176 0.38093 0.55602
 C372 C 0.60922 0.42663 0.51214
 C373 C 0.48059 0.48740 0.61615
 O374 O 0.39517 0.49438 0.55886
 O375 O 0.40180 0.55653 0.52353
 O376 O 0.40934 0.56109 0.46221
 C377 C 0.39061 0.56889 0.49189
 O378 O 0.58588 0.56475 0.54582
 Zr379 Zr 0.53794 0.55818 0.50724
 O380 O 0.47449 0.58516 0.43380
 O381 O 0.45043 0.57495 0.57089
 O382 O 0.52359 0.60746 0.54043
 O383 O 0.59205 0.57447 0.48054
 O384 O 0.52432 0.60752 0.47234
 C385 C 0.49941 0.61176 0.44546
 O386 O 0.41468 0.51048 0.41686
 O387 O 0.55000 0.41470 0.43448
 O388 O 0.48258 0.51865 0.39819
 O389 O 0.53838 0.47864 0.40521
 O390 O 0.47223 0.38246 0.46339
 O391 O 0.41560 0.42789 0.45046
 C392 C 0.51257 0.49840 0.38588
 H393 H 0.53203 0.40754 0.50053
 H394 H 0.40508 0.49086 0.48887
 H395 H 0.53906 0.54496 0.43827
 H396 H 0.51985 0.53772 0.57297
 H397 H 0.39579 0.39178 0.51380
 H398 H 0.38327 0.51316 0.57629
 H399 H 0.42544 0.57497 0.58530
 H400 H 0.54042 0.63079 0.53260
 H401 H 0.45279 0.36081 0.47016
 H402 H 0.57520 0.41504 0.42034
 H403 H 0.61155 0.47988 0.42322
 H404 H 0.59633 0.60386 0.48369
 H405 H 0.40041 0.40224 0.45362
 H406 H 0.40980 0.53402 0.40039
 H407 H 0.58468 0.45693 0.60321
 H408 H 0.59602 0.59297 0.54510
 Zr409 Zr 0.45567 1.01516 0.55484
 O410 O 0.40891 0.98912 0.58601
 O411 O 0.46092 1.07168 0.57736
 O412 O 0.47662 1.00738 0.60969
 O413 O 0.39500 1.04756 0.48198
 O414 O 0.53540 0.97212 0.60485
 O415 O 0.40077 1.04727 0.54382
 O416 O 0.51332 1.10028 0.54619
 O417 O 0.51873 1.02290 0.55449
 O418 O 0.46919 1.05102 0.50920
 O419 O 0.48007 0.95684 0.55299
 O420 O 0.43068 0.98480 0.50984
 Zr421 Zr 0.53427 0.97015 0.45920
 Zr422 Zr 0.54283 0.96497 0.54929
 Zr423 Zr 0.44768 1.01985 0.46452
 Zr424 Zr 0.53147 1.05734 0.50828
 O425 O 0.39720 0.99174 0.43932
 O426 O 0.58323 1.06986 0.54092
 O427 O 0.51036 1.02889 0.46104
 O428 O 0.55845 1.00070 0.50420
 O429 O 0.52113 0.93381 0.50462
 O430 O 0.47145 0.96215 0.46006
 C431 C 0.48511 1.10065 0.56974
 C432 C 0.38280 1.05708 0.51343
 C433 C 0.50859 0.98994 0.62324
 O434 O 0.59654 0.99003 0.57160
 O435 O 0.59279 0.93221 0.53107
 O436 O 0.58844 0.93721 0.46933
 C437 C 0.60574 0.92498 0.49920
 O438 O 0.40647 0.91835 0.53873
 Zr439 Zr 0.45836 0.92825 0.50657
 O440 O 0.52825 0.91211 0.43899
 O441 O 0.54344 0.90740 0.57516
 O442 O 0.46892 0.87649 0.54005
 O443 O 0.40997 0.91010 0.47196
 O444 O 0.48106 0.88198 0.47530
 C445 C 0.50782 0.88173 0.45072
 O446 O 0.58265 0.99423 0.42869
 O447 O 0.44314 1.07844 0.44079
 O448 O 0.51681 0.98281 0.40409
 O449 O 0.45908 1.01947 0.40905
 O450 O 0.51806 1.11169 0.47936
 O451 O 0.57837 1.07310 0.47193
 C452 C 0.48674 1.00324 0.39051
 H453 H 0.45672 1.07808 0.50903
 H454 H 0.58811 1.00400 0.50247
 H455 H 0.46089 0.94859 0.43813
 H456 H 0.47274 0.94078 0.57483
 H457 H 0.58639 1.09962 0.54158
 H458 H 0.60828 0.96928 0.58829
 H459 H 0.56799 0.90643 0.59091
 H460 H 0.45253 0.85397 0.53009
 H461 H 0.53408 1.13363 0.49071
 H462 H 0.41856 1.07872 0.42504
 H463 H 0.38517 1.01203 0.42234
 H464 H 0.40749 0.88033 0.47438
 H465 H 0.59208 1.09805 0.48019
 H466 H 0.59000 0.97350 0.41095
 H467 H 0.40107 1.00984 0.60356
 H468 H 0.39564 0.89082 0.53466
 Zr469 Zr -0.04475 0.51479 1.05464
 O470 O -0.09139 0.48881 1.08599
 O471 O -0.03955 0.57144 1.07691
 O472 O -0.02367 0.50743 1.10947
 O473 O -0.10565 0.54675 0.98181
 O474 O 0.03512 0.47218 1.10471
 O475 O -0.09968 0.54681 1.04364
 O476 O 0.01278 0.59990 1.04556
 O477 O 0.01830 0.52261 1.05415
 O478 O -0.03138 0.55042 1.00883
 O479 O -0.02028 0.45649 1.05304
 O480 O -0.06982 0.48415 1.00983
 Zr481 Zr 0.03372 0.46929 0.95912
 Zr482 Zr 0.04247 0.46467 1.04919
 Zr483 Zr -0.05295 0.51897 0.96434
 Zr484 Zr 0.03089 0.55680 1.00778
 O485 O -0.10337 0.49062 0.93927
 O486 O 0.08272 0.56958 1.04024
 O487 O 0.00972 0.52802 0.96074
 O488 O 0.05794 0.50017 1.00392
 O489 O 0.02071 0.43319 1.00472
 O490 O -0.02910 0.46126 0.96009
 C491 C -0.01538 0.60036 1.06916
 C492 C -0.11775 0.55645 1.01326
 C493 C 0.00835 0.49012 1.12303
 O494 O 0.09617 0.48993 1.07133
 O495 O 0.09252 0.43198 1.03106
 O496 O 0.08801 0.43658 0.96932
 C497 C 0.10543 0.42462 0.99921
 O498 O -0.09387 0.41788 1.03909
 Zr499 Zr -0.04206 0.42762 1.00679
 O500 O 0.02768 0.41105 0.93923
 O501 O 0.04321 0.40723 1.07529
 O502 O -0.03144 0.37605 1.04051
 O503 O -0.09048 0.40924 0.97231
 O504 O -0.01942 0.38114 0.97576
 C505 C 0.00725 0.38073 0.95112
 O506 O 0.08204 0.49314 0.92840
 O507 O -0.05773 0.57743 0.94038
 O508 O 0.01629 0.48186 0.90400
 O509 O -0.04147 0.51848 0.90887
 O510 O 0.01733 0.61097 0.97864
 O511 O 0.07766 0.57242 0.97125
 C512 C -0.01374 0.50230 0.89038
 H513 H -0.04387 0.57747 1.00856
 H514 H 0.08759 0.50351 1.00212
 H515 H -0.03966 0.44759 0.93822
 H516 H -0.02753 0.44055 1.07496
 H517 H 0.08583 0.59935 1.04076
 H518 H 0.10795 0.46930 1.08812
 H519 H 0.06777 0.40639 1.09103
 H520 H -0.04788 0.35348 1.03070
 H521 H 0.03332 0.63301 0.98989
 H522 H -0.08234 0.57755 0.92466
 H523 H -0.11547 0.51082 0.92224
 H524 H -0.09298 0.37949 0.97489
 H525 H 0.09136 0.59745 0.97938
 H526 H 0.08936 0.47229 0.91075
 H527 H -0.09924 0.50960 1.10348
 H528 H -0.10476 0.39036 1.03510
 Zr529 Zr -0.03747 0.47363 0.45452
 O530 O -0.08086 0.48213 0.41235
 O531 O -0.02297 0.41344 0.44758
 O532 O -0.01130 0.47271 0.40133
 O533 O -0.10814 0.45816 0.52359
 O534 O 0.04576 0.51152 0.40712
 O535 O -0.09321 0.44215 0.46539
 O536 O 0.02516 0.39893 0.49105
 O537 O 0.02509 0.47202 0.46521
 O538 O -0.02935 0.45246 0.50800
 O539 O -0.01652 0.53320 0.44676
 O540 O -0.07003 0.51319 0.48726
 Zr541 Zr 0.02452 0.55151 0.54598
 Zr542 Zr 0.04533 0.53189 0.46018
 Zr543 Zr -0.05847 0.49313 0.54073
 Zr544 Zr 0.03245 0.45287 0.51923
 O545 O -0.11242 0.52359 0.55287
 O546 O 0.08993 0.43685 0.49973
 O547 O 0.00347 0.49175 0.55431
 O548 O 0.05598 0.51128 0.51344
 O549 O 0.01627 0.57307 0.49266
 O550 O -0.03800 0.55273 0.53545
 C551 C 0.00197 0.38995 0.46424
 C552 C -0.11585 0.44004 0.49384
 C553 C 0.02119 0.48982 0.38861
 O554 O 0.10154 0.50427 0.45067
 O555 O 0.09252 0.57075 0.47600
 O556 O 0.07998 0.58353 0.53525
 C557 C 0.10147 0.58724 0.50626
 O558 O -0.09219 0.56698 0.44101
 Zr559 Zr -0.04600 0.57162 0.48150
 O560 O 0.01022 0.61259 0.55074
 O561 O 0.04775 0.58205 0.42385
 O562 O -0.03275 0.61423 0.43964
 O563 O -0.10052 0.59232 0.50388
 O564 O -0.03317 0.62771 0.50362
 C565 C -0.01094 0.63698 0.53083
 O566 O 0.06909 0.54680 0.58769
 O567 O -0.06423 0.44130 0.57487
 O568 O 0.00214 0.54697 0.60029
 O569 O -0.05435 0.50728 0.59552
 O570 O 0.01594 0.40698 0.55712
 O571 O 0.07253 0.45324 0.56487
 C572 C -0.02834 0.52740 0.61395
 H573 H -0.04065 0.42505 0.51219
 H574 H 0.08517 0.51089 0.51973
 H575 H -0.05217 0.57045 0.55232
 H576 H -0.02149 0.54277 0.42153
 H577 H 0.09534 0.40869 0.50789
 H578 H 0.11520 0.52074 0.43175
 H579 H 0.07387 0.58071 0.41120
 H580 H -0.05259 0.63643 0.44086
 H581 H 0.03527 0.38448 0.55487
 H582 H -0.09060 0.44305 0.58708
 H583 H -0.12588 0.50741 0.57208
 H584 H -0.10538 0.61993 0.49403
 H585 H 0.08811 0.42782 0.56582
 H586 H 0.07061 0.57337 0.59972
 H587 H -0.08401 0.45581 0.40017
 H588 H -0.10546 0.59349 0.43742
 Zr589 Zr 0.46348 -0.02628 -0.04470
 O590 O 0.42025 -0.01844 -0.08711
 O591 O 0.47826 -0.08660 -0.05092
 O592 O 0.48970 -0.02768 -0.09781
 O593 O 0.39248 -0.04110 0.02417
 O594 O 0.54661 0.01137 -0.09230
 O595 O 0.40768 -0.05762 -0.03384
 O596 O 0.52625 -0.10046 -0.00715
 O597 O 0.52602 -0.02760 -0.03386
 O598 O 0.47148 -0.04689 0.00895
 O599 O 0.48426 0.03331 -0.05288
 O600 O 0.43074 0.01360 -0.01241
 Zr601 Zr 0.52503 0.05268 0.04624
 Zr602 Zr 0.54609 0.03229 -0.03938
 Zr603 Zr 0.44211 -0.00594 0.04122
 Zr604 Zr 0.53328 -0.04613 0.02035
 O605 O 0.38809 0.02456 0.05303
 O606 O 0.59083 -0.06227 0.00110
 O607 O 0.50403 -0.00702 0.05498
 O608 O 0.55669 0.01225 0.01407
 O609 O 0.51688 0.07376 -0.00725
 O610 O 0.46252 0.05363 0.03556
 C611 C 0.50318 -0.10984 -0.03391
 C612 C 0.38487 -0.05943 -0.00550
 C613 C 0.52211 -0.01059 -0.11066
 O614 O 0.60239 0.00469 -0.04855
 O615 O 0.59311 0.07148 -0.02381
 O616 O 0.58040 0.08487 0.03529
 C617 C 0.60194 0.08837 0.00630
 O618 O 0.40871 0.06722 -0.05920
 Zr619 Zr 0.45464 0.07207 -0.01851
 O620 O 0.51039 0.11365 0.05078
 O621 O 0.54850 0.08205 -0.07616
 O622 O 0.46829 0.11440 -0.06048
 O623 O 0.39984 0.09266 0.00341
 O624 O 0.46696 0.12836 0.00357
 C625 C 0.48906 0.13784 0.03082
 O626 O 0.56962 0.04857 0.08798
 O627 O 0.43629 -0.05750 0.07569
 O628 O 0.50265 0.04826 0.10056
 O629 O 0.44608 0.00866 0.09589
 O630 O 0.51686 -0.09162 0.05866
 O631 O 0.57320 -0.04498 0.06608
 C632 C 0.47212 0.02880 0.11426
 H633 H 0.46020 -0.07426 0.01335
 H634 H 0.58587 0.01202 0.02040
 H635 H 0.44823 0.07144 0.05229
 H636 H 0.47931 0.04261 -0.07819
 H637 H 0.59636 -0.09027 0.00965
 H638 H 0.61603 0.02098 -0.06760
 H639 H 0.57466 0.08062 -0.08872
 H640 H 0.44853 0.13669 -0.05944
 H641 H 0.53638 -0.11401 0.05679
 H642 H 0.40987 -0.05567 0.08780
 H643 H 0.37460 0.00853 0.07231
 H644 H 0.39492 0.12020 -0.00659
 H645 H 0.58899 -0.07026 0.06729
 H646 H 0.57095 0.07524 0.09984
 H647 H 0.41720 -0.04492 -0.09903
 H648 H 0.39567 0.09378 -0.06317
 Zr649 Zr 0.54628 0.52705 -0.04906
 O650 O 0.59364 0.50167 -0.07867
 O651 O 0.54084 0.58384 -0.07418
 O652 O 0.52759 0.51677 -0.10395
 O653 O 0.60689 0.55840 0.02412
 O654 O 0.46722 0.48345 -0.09834
 O655 O 0.60240 0.55747 -0.03770
 O656 O 0.48794 0.61164 -0.04464
 O657 O 0.48346 0.53590 -0.04948
 O658 O 0.53326 0.56316 -0.00481
 O659 O 0.51999 0.46902 -0.04520
 O660 O 0.56899 0.49550 -0.00286
 Zr661 Zr 0.46429 0.48374 0.04729
 Zr662 Zr 0.45760 0.47851 -0.04285
 Zr663 Zr 0.55313 0.53121 0.04101
 Zr664 Zr 0.47097 0.57017 -0.00417
 O665 O 0.60368 0.50261 0.06603
 O666 O 0.41842 0.58390 -0.03559
 O667 O 0.49073 0.54174 0.04428
 O668 O 0.44195 0.51431 0.00089
 O669 O 0.47660 0.44665 0.00338
 O670 O 0.52687 0.47427 0.04684
 C671 C 0.51585 0.61223 -0.06825
 C672 C 0.62033 0.56687 -0.00740
 C673 C 0.49563 0.49908 -0.11710
 O674 O 0.40618 0.50594 -0.06736
 O675 O 0.40608 0.44726 -0.02537
 O676 O 0.40927 0.45092 0.03640
 C677 C 0.39240 0.43929 0.00623
 O678 O 0.58981 0.42526 -0.02922
 Zr679 Zr 0.53896 0.43946 0.00241
 O680 O 0.46647 0.42744 0.07136
 O681 O 0.45443 0.42080 -0.06657
 O682 O 0.52346 0.38783 -0.02816
 O683 O 0.58776 0.42049 0.03650
 O684 O 0.51472 0.39599 0.03857
 C685 C 0.48741 0.39711 0.06291
 O686 O 0.41736 0.51062 0.07628
 O687 O 0.55710 0.58942 0.06366
 O688 O 0.48457 0.49220 0.10232
 O689 O 0.54387 0.52741 0.09663
 O690 O 0.48707 0.62494 0.02149
 O691 O 0.42571 0.58648 0.03287
 C692 C 0.51682 0.50963 0.11549
 H693 H 0.54648 0.59005 -0.00579
 H694 H 0.41237 0.51815 0.00207
 H695 H 0.53746 0.46002 0.06877
 H696 H 0.52724 0.45240 -0.06610
 H697 H 0.41570 0.61369 -0.03648
 H698 H 0.39372 0.48570 -0.08364
 H699 H 0.43037 0.42058 -0.08297
 H700 H 0.53682 0.36429 -0.01625
 H701 H 0.47097 0.64681 0.00973
 H702 H 0.58158 0.58980 0.07953
 H703 H 0.61616 0.52223 0.08292
 H704 H 0.58793 0.39056 0.03651
 H705 H 0.41321 0.61226 0.02479
 H706 H 0.40853 0.49012 0.09444
 H707 H 0.60212 0.52255 -0.09665
 H708 H 0.59684 0.39646 -0.02534
 Zr709 Zr 0.04716 1.02461 0.45105
 O710 O 0.09408 0.99826 0.42158
 O711 O 0.04264 1.08130 0.42569
 O712 O 0.02805 1.01439 0.39619
 O713 O 0.10844 1.05548 0.52395
 O714 O -0.03289 0.98223 0.40205
 O715 O 0.10353 1.05461 0.46213
 O716 O -0.00953 1.11012 0.45550
 O717 O -0.01549 1.03453 0.45080
 O718 O 0.03490 1.06101 0.49532
 O719 O 0.01997 0.96702 0.45513
 O720 O 0.06958 0.99287 0.49728
 Zr721 Zr -0.03503 0.98300 0.54785
 Zr722 Zr -0.04222 0.97757 0.45765
 Zr723 Zr 0.05451 1.02892 0.54117
 Zr724 Zr -0.02720 1.06910 0.49611
 O725 O 0.10480 0.99955 0.56586
 O726 O -0.07960 1.08358 0.46476
 O727 O -0.00767 1.04054 0.54459
 O728 O -0.05709 1.01373 0.50140
 O729 O -0.02352 0.94563 0.50393
 O730 O 0.02736 0.97244 0.54723
 C731 C 0.01821 1.11014 0.43171
 C732 C 0.12165 1.06395 0.49235
 C733 C -0.00429 0.99725 0.38313
 O734 O -0.09338 1.00572 0.43336
 O735 O -0.09397 0.94704 0.47546
 O736 O -0.09046 0.95083 0.53721
 C737 C -0.10755 0.93927 0.50712
 O738 O 0.08926 0.92228 0.47117
 Zr739 Zr 0.03867 0.93734 0.50279
 O740 O -0.03374 0.92676 0.57205
 O741 O -0.04638 0.91987 0.43401
 O742 O 0.02237 0.88588 0.47229
 O743 O 0.08711 0.91753 0.53690
 O744 O 0.01354 0.89434 0.53890
 C745 C -0.01359 0.89598 0.56336
 O746 O -0.08146 1.01076 0.57679
 O747 O 0.05948 1.08707 0.56383
 O748 O -0.01445 0.99147 0.60284
 O749 O 0.04560 1.02531 0.59690
 O750 O -0.01019 1.12373 0.52156
 O751 O -0.07206 1.08632 0.53319
 C752 C 0.01818 1.00831 0.61592
 H753 H 0.04845 1.08773 0.49426
 H754 H -0.08659 1.01804 0.50268
 H755 H 0.03775 0.95808 0.56918
 H756 H 0.02686 0.95023 0.43424
 H757 H -0.08174 1.11342 0.46368
 H758 H -0.10626 0.98562 0.41721
 H759 H -0.07055 0.91997 0.41774
 H760 H 0.03538 0.86216 0.48423
 H761 H -0.02595 1.14581 0.50974
 H762 H 0.08407 1.08710 0.57956
 H763 H 0.11772 1.01899 0.58266
 H764 H 0.08668 0.88759 0.53698
 H765 H -0.08423 1.11223 0.52501
 H766 H -0.09056 0.99049 0.59504
 H767 H 0.10281 1.01885 0.40345
 H768 H 0.09588 0.89339 0.47510
 Zr769 Zr 0.71550 0.28230 0.20140
 O770 O 0.73246 0.32847 0.16415
 O771 O 0.65651 0.26895 0.18456
 O772 O 0.71952 0.26065 0.14729
 O773 O 0.69179 0.34744 0.27097
 O774 O 0.75657 0.20299 0.15406
 O775 O 0.68433 0.33794 0.21012
 O776 O 0.63634 0.21650 0.22142
 O777 O 0.71120 0.21922 0.20746
 O778 O 0.68627 0.27004 0.25026
 O779 O 0.77529 0.26086 0.20112
 O780 O 0.75119 0.31056 0.24176
 Zr781 Zr 0.77724 0.21056 0.29864
 Zr782 Zr 0.77054 0.19825 0.20936
 Zr783 Zr 0.72239 0.29551 0.29034
 Zr784 Zr 0.68432 0.20743 0.25743
 O785 O 0.75125 0.34788 0.31064
 O786 O 0.66993 0.15152 0.23300
 O787 O 0.71768 0.23279 0.29987
 O788 O 0.74214 0.18308 0.25805
 O789 O 0.80744 0.22261 0.25013
 O790 O 0.78133 0.27369 0.29264
 C791 C 0.63121 0.24208 0.19556
 C792 C 0.67892 0.35847 0.23927
 C793 C 0.73702 0.22905 0.13479
 O794 O 0.74352 0.14357 0.19212
 O795 O 0.80593 0.14947 0.22714
 O796 O 0.81086 0.15683 0.28846
 C797 C 0.81832 0.13810 0.25872
 O798 O 0.81658 0.33327 0.20513
 Zr799 Zr 0.80945 0.28536 0.24367
 O800 O 0.83580 0.22153 0.31704
 O801 O 0.82463 0.19792 0.17961
 O802 O 0.85840 0.27036 0.21030
 O803 O 0.82658 0.33917 0.27038
 O804 O 0.85877 0.27099 0.27839
 C805 C 0.86276 0.24604 0.30529
 O806 O 0.76048 0.16244 0.33391
 O807 O 0.66640 0.29942 0.31692
 O808 O 0.76911 0.23004 0.35286
 O809 O 0.73008 0.28653 0.34606
 O810 O 0.63303 0.22198 0.28813
 O811 O 0.67764 0.16464 0.30058
 C812 C 0.74926 0.26020 0.36533
 H813 H 0.65879 0.28158 0.25093
 H814 H 0.74034 0.15348 0.26204
 H815 H 0.79649 0.28648 0.31279
 H816 H 0.78842 0.26771 0.17790
 H817 H 0.64096 0.14575 0.23724
 H818 H 0.76205 0.13148 0.17458
 H819 H 0.82426 0.17293 0.16522
 H820 H 0.88201 0.28685 0.21805
 H821 H 0.61105 0.20290 0.28141
 H822 H 0.66718 0.32457 0.33108
 H823 H 0.73259 0.35980 0.32814
 H824 H 0.85603 0.34305 0.26715
 H825 H 0.65178 0.14980 0.29743
 H826 H 0.78400 0.15725 0.35033
 H827 H 0.70868 0.33370 0.14804
 H828 H 0.84495 0.34299 0.20577
 Zr829 Zr 0.76477 0.70559 0.69512
 O830 O 0.73874 0.65898 0.66383
 O831 O 0.82147 0.71069 0.67282
 O832 O 0.75724 0.72668 0.64026
 O833 O 0.79680 0.64472 0.76797
 O834 O 0.72199 0.78544 0.64507
 O835 O 0.79673 0.65062 0.70613
 O836 O 0.85008 0.76291 0.70415
 O837 O 0.77263 0.76862 0.69553
 O838 O 0.80048 0.71895 0.74086
 O839 O 0.70646 0.73008 0.69686
 O840 O 0.73420 0.68058 0.74004
 Zr841 Zr 0.71952 0.78410 0.79069
 Zr842 Zr 0.71469 0.79280 0.70061
 Zr843 Zr 0.76911 0.69743 0.78546
 Zr844 Zr 0.80692 0.78121 0.74183
 O845 O 0.74076 0.64704 0.81062
 O846 O 0.81969 0.83289 0.70915
 O847 O 0.77823 0.76007 0.78897
 O848 O 0.75030 0.80828 0.74579
 O849 O 0.68330 0.77109 0.74519
 O850 O 0.71142 0.72130 0.78981
 C851 C 0.85050 0.73472 0.68062
 C852 C 0.80641 0.63257 0.73651
 C853 C 0.73985 0.75867 0.62670
 O854 O 0.73994 0.84648 0.67839
 O855 O 0.68195 0.84278 0.71878
 O856 O 0.68667 0.83830 0.78052
 C857 C 0.67459 0.85567 0.75064
 O858 O 0.66780 0.65654 0.71098
 Zr859 Zr 0.67766 0.70835 0.74320
 O860 O 0.66136 0.77808 0.81080
 O861 O 0.65718 0.79355 0.67463
 O862 O 0.62601 0.71900 0.70961
 O863 O 0.65933 0.65996 0.77776
 O864 O 0.63128 0.73105 0.77436
 C865 C 0.63098 0.75770 0.79899
 O866 O 0.74349 0.83245 0.82124
 O867 O 0.82763 0.69262 0.80929
 O868 O 0.73219 0.76671 0.84581
 O869 O 0.76871 0.70890 0.84093
 O870 O 0.86110 0.76773 0.77098
 O871 O 0.82260 0.82808 0.77818
 C872 C 0.75260 0.73666 0.85943
 H873 H 0.82751 0.70642 0.74113
 H874 H 0.75364 0.83792 0.74755
 H875 H 0.69779 0.71076 0.81172
 H876 H 0.69047 0.72281 0.67499
 H877 H 0.84947 0.83598 0.70857
 H878 H 0.71927 0.85828 0.66166
 H879 H 0.65630 0.81812 0.65890
 H880 H 0.60344 0.70261 0.71951
 H881 H 0.88315 0.78371 0.75970
 H882 H 0.82776 0.66802 0.82503
 H883 H 0.76098 0.63494 0.82762
 H884 H 0.62956 0.65750 0.77528
 H885 H 0.84758 0.84178 0.76994
 H886 H 0.72270 0.83979 0.83895
 H887 H 0.75950 0.65114 0.64631
 H888 H 0.64025 0.64571 0.71503
 Zr889 Zr 0.22220 0.21285 0.79496
 O890 O 0.22976 0.16965 0.83745
 O891 O 0.16188 0.22773 0.80112
 O892 O 0.22095 0.23912 0.84809
 O893 O 0.20750 0.14181 0.72615
 O894 O 0.26003 0.29599 0.84240
 O895 O 0.19084 0.15709 0.78412
 O896 O 0.14813 0.27561 0.75722
 O897 O 0.22097 0.27534 0.78400
 O898 O 0.20171 0.22080 0.74126
 O899 O 0.28182 0.23350 0.80314
 O900 O 0.26206 0.17999 0.76271
 Zr901 Zr 0.30146 0.27408 0.70398
 Zr902 Zr 0.28091 0.29529 0.78950
 Zr903 Zr 0.24268 0.19136 0.70904
 Zr904 Zr 0.20254 0.28254 0.72976
 O905 O 0.27317 0.13734 0.69723
 O906 O 0.18645 0.34013 0.74892
 O907 O 0.24171 0.25324 0.69521
 O908 O 0.26098 0.30584 0.73603
 O909 O 0.32239 0.26595 0.75749
 O910 O 0.30232 0.21161 0.71472
 C911 C 0.13869 0.25262 0.78403
 C912 C 0.18908 0.13428 0.75580
 C913 C 0.23811 0.27154 0.86085
 O914 O 0.25335 0.35161 0.79858
 O915 O 0.32014 0.34222 0.77388
 O916 O 0.33356 0.32943 0.71480
 C917 C 0.33702 0.35098 0.74375
 O918 O 0.31531 0.15776 0.80948
 Zr919 Zr 0.32057 0.20374 0.76885
 O920 O 0.36251 0.25938 0.69972
 O921 O 0.33070 0.29765 0.82624
 O922 O 0.36278 0.21701 0.81100
 O923 O 0.34123 0.14903 0.74686
 O924 O 0.37701 0.21619 0.74715
 C925 C 0.38663 0.23823 0.71991
 O926 O 0.29773 0.31854 0.66208
 O927 O 0.19111 0.18550 0.67460
 O928 O 0.29707 0.25177 0.64967
 O929 O 0.25724 0.19538 0.65432
 O930 O 0.15713 0.26610 0.69143
 O931 O 0.20377 0.32245 0.68401
 C932 C 0.27748 0.22137 0.63596
 H933 H 0.17432 0.20955 0.73687
 H934 H 0.26078 0.33501 0.72964
 H935 H 0.32016 0.19731 0.69802
 H936 H 0.29110 0.22857 0.82845
 H937 H 0.15845 0.34568 0.74038
 H938 H 0.26967 0.36529 0.81757
 H939 H 0.32933 0.32382 0.83876
 H940 H 0.38492 0.19708 0.81005
 H941 H 0.13471 0.28560 0.69326
 H942 H 0.19296 0.15909 0.66251
 H943 H 0.25713 0.12389 0.67794
 H944 H 0.36874 0.14407 0.75694
 H945 H 0.17845 0.33819 0.68274
 H946 H 0.32448 0.31977 0.65033
 H947 H 0.20321 0.16674 0.84934
 H948 H 0.34173 0.14441 0.81335
 Zr949 Zr 0.27561 0.79709 0.29843
 O950 O 0.24940 0.84396 0.32803
 O951 O 0.33231 0.79221 0.32372
 O952 O 0.26554 0.77786 0.35326
 O953 O 0.30679 0.85844 0.22563
 O954 O 0.23312 0.71707 0.34739
 O955 O 0.30575 0.85344 0.28744
 O956 O 0.36076 0.73983 0.29397
 O957 O 0.28524 0.73442 0.29856
 O958 O 0.31199 0.78480 0.25414
 O959 O 0.21789 0.77016 0.29438
 O960 O 0.24392 0.81974 0.25226
 Zr961 Zr 0.23364 0.71531 0.20157
 Zr962 Zr 0.22817 0.70794 0.29178
 Zr963 Zr 0.27997 0.80466 0.20835
 Zr964 Zr 0.31977 0.72266 0.25323
 O965 O 0.25082 0.85514 0.18377
 O966 O 0.33405 0.67002 0.28434
 O967 O 0.29130 0.74244 0.20480
 O968 O 0.26426 0.69301 0.24797
 O969 O 0.19629 0.72685 0.24553
 O970 O 0.22336 0.77773 0.20230
 C971 C 0.36095 0.76753 0.31776
 C972 C 0.31518 0.87163 0.25725
 C973 C 0.24838 0.74553 0.36631
 O974 O 0.25610 0.65657 0.31590
 O975 O 0.19732 0.65640 0.27400
 O976 O 0.20111 0.66000 0.21224
 C977 C 0.18945 0.64290 0.24234
 O978 O 0.17328 0.83955 0.27846
 Zr979 Zr 0.18824 0.78905 0.24675
 O980 O 0.17751 0.71691 0.17730
 O981 O 0.17049 0.70406 0.31557
 O982 O 0.13672 0.77275 0.27721
 O983 O 0.16862 0.83768 0.21277
 O984 O 0.14521 0.76423 0.21047
 C985 C 0.14681 0.73716 0.18595
 O986 O 0.26122 0.66885 0.17255
 O987 O 0.33815 0.80937 0.18565
 O988 O 0.24209 0.73611 0.14659
 O989 O 0.27623 0.79597 0.15261
 O990 O 0.37455 0.73956 0.22790
 O991 O 0.33678 0.67795 0.21594
 C992 C 0.25901 0.76874 0.13355
 H993 H 0.33877 0.79824 0.25524
 H994 H 0.26843 0.66350 0.24665
 H995 H 0.20903 0.78826 0.18041
 H996 H 0.20115 0.77705 0.31531
 H997 H 0.36388 0.66772 0.28534
 H998 H 0.23597 0.64377 0.33211
 H999 H 0.17051 0.67988 0.33184
 H1000 H 0.11302 0.78580 0.26526
 H1001 H 0.39653 0.72364 0.23968
 H1002 H 0.33831 0.83400 0.16996
 H1003 H 0.27033 0.86803 0.16699
 H1004 H 0.13867 0.83735 0.21268
 H1005 H 0.36268 0.66568 0.22401
 H1006 H 0.24090 0.65988 0.15431
 H1007 H 0.27004 0.85258 0.34615
 H1008 H 0.14438 0.84619 0.27460
 Zr1009 Zr 0.21513 0.78343 0.70075
 O1010 O 0.23185 0.82989 0.66370
 O1011 O 0.15633 0.76959 0.68361
 O1012 O 0.21993 0.76205 0.64661
 O1013 O 0.19036 0.84824 0.77025
 O1014 O 0.25728 0.70460 0.65352
 O1015 O 0.18334 0.83873 0.70937
 O1016 O 0.13628 0.71711 0.72048
 O1017 O 0.21118 0.72033 0.70674
 O1018 O 0.18571 0.77092 0.74949
 O1019 O 0.27507 0.76241 0.70075
 O1020 O 0.25041 0.81189 0.74129
 Zr1021 Zr 0.27674 0.71198 0.79819
 Zr1022 Zr 0.27066 0.69977 0.70889
 Zr1023 Zr 0.22143 0.79661 0.78973
 Zr1024 Zr 0.18413 0.70831 0.75662
 O1025 O 0.24978 0.84927 0.81000
 O1026 O 0.17021 0.65234 0.73208
 O1027 O 0.21705 0.73385 0.79923
 O1028 O 0.24208 0.68433 0.75743
 O1029 O 0.30717 0.72428 0.74984
 O1030 O 0.28049 0.77514 0.79225
 C1031 C 0.13112 0.74262 0.69458
 C1032 C 0.17753 0.85915 0.73850
 C1033 C 0.23783 0.73065 0.63417
 O1034 O 0.24396 0.64505 0.69136
 O1035 O 0.30614 0.65113 0.72677
 O1036 O 0.31067 0.65841 0.78812
 C1037 C 0.31838 0.63978 0.75839
 O1038 O 0.31593 0.83509 0.70505
 Zr1039 Zr 0.30884 0.78704 0.74346
 O1040 O 0.33514 0.72306 0.81680
 O1041 O 0.32502 0.69972 0.67952
 O1042 O 0.35808 0.77242 0.71027
 O1043 O 0.32554 0.84088 0.77033
 O1044 O 0.35805 0.77279 0.77839
 C1045 C 0.36203 0.74774 0.80522
 O1046 O 0.25990 0.66383 0.83339
 O1047 O 0.16535 0.80001 0.81622
 O1048 O 0.26856 0.73153 0.85236
 O1049 O 0.22917 0.78778 0.84548
 O1050 O 0.13257 0.72247 0.78711
 O1051 O 0.17754 0.66544 0.79972
 C1052 C 0.24859 0.76164 0.86477
 H1053 H 0.15814 0.78225 0.75006
 H1054 H 0.24042 0.65471 0.76138
 H1055 H 0.29551 0.78801 0.81244
 H1056 H 0.28834 0.76940 0.67762
 H1057 H 0.14125 0.64637 0.73623
 H1058 H 0.26270 0.63305 0.67395
 H1059 H 0.32491 0.67476 0.66509
 H1060 H 0.38155 0.78900 0.71819
 H1061 H 0.11077 0.70321 0.78033
 H1062 H 0.16588 0.82516 0.83038
 H1063 H 0.23097 0.86104 0.82745
 H1064 H 0.35500 0.84488 0.76729
 H1065 H 0.15181 0.65040 0.79645
 H1066 H 0.28337 0.65867 0.84988
 H1067 H 0.20814 0.83490 0.64745
 H1068 H 0.34423 0.84497 0.70584
 Zr1069 Zr 0.26460 0.20629 0.19524
 O1070 O 0.23921 0.15961 0.16363
 O1071 O 0.32142 0.21205 0.17325
 O1072 O 0.25726 0.22744 0.14041
 O1073 O 0.29628 0.14522 0.26806
 O1074 O 0.22171 0.28604 0.14516
 O1075 O 0.29684 0.15150 0.20627
 O1076 O 0.34942 0.26429 0.20497
 O1077 O 0.27211 0.26936 0.19594
 O1078 O 0.29984 0.21963 0.24127
 O1079 O 0.20614 0.23045 0.19665
 O1080 O 0.23374 0.18088 0.23982
 Zr1081 Zr 0.21794 0.28406 0.29079
 Zr1082 Zr 0.21399 0.29319 0.20069
 Zr1083 Zr 0.26814 0.19771 0.28554
 Zr1084 Zr 0.30589 0.28191 0.24256
 O1085 O 0.23981 0.14710 0.31035
 O1086 O 0.31864 0.33397 0.21036
 O1087 O 0.27683 0.26038 0.28937
 O1088 O 0.24907 0.30861 0.24621
 O1089 O 0.18227 0.27109 0.24493
 O1090 O 0.21024 0.22123 0.28961
 C1091 C 0.35019 0.23631 0.18126
 C1092 C 0.30631 0.13332 0.23664
 C1093 C 0.23980 0.25937 0.12683
 O1094 O 0.23924 0.34699 0.17869
 O1095 O 0.18113 0.34313 0.21878
 O1096 O 0.18526 0.33836 0.28053
 C1097 C 0.17355 0.35592 0.25062
 O1098 O 0.16793 0.15654 0.21026
 Zr1099 Zr 0.17702 0.20831 0.24268
 O1100 O 0.15942 0.27771 0.31018
 O1101 O 0.15661 0.29383 0.17448
 O1102 O 0.12564 0.21857 0.20864
 O1103 O 0.15859 0.15980 0.27706
 O1104 O 0.13004 0.23072 0.27327
 C1105 C 0.12924 0.25732 0.29793
 O1106 O 0.24119 0.33230 0.32191
 O1107 O 0.32650 0.19304 0.30973
 O1108 O 0.23036 0.26645 0.34592
 O1109 O 0.26737 0.20895 0.34102
 O1110 O 0.35990 0.26843 0.27197
 O1111 O 0.32099 0.32854 0.27932
 C1112 C 0.25097 0.23652 0.35953
 H1113 H 0.32696 0.20727 0.24163
 H1114 H 0.25229 0.33825 0.24810
 H1115 H 0.19646 0.21055 0.31139
 H1116 H 0.19036 0.22320 0.17465
 H1117 H 0.34841 0.33726 0.21003
 H1118 H 0.21866 0.35876 0.16186
 H1119 H 0.15576 0.31842 0.15877
 H1120 H 0.10312 0.20190 0.21825
 H1121 H 0.38197 0.28459 0.26092
 H1122 H 0.32663 0.16836 0.32538
 H1123 H 0.25995 0.13501 0.32744
 H1124 H 0.12886 0.15715 0.27429
 H1125 H 0.34605 0.34236 0.27141
 H1126 H 0.22011 0.33937 0.33944
 H1127 H 0.26019 0.15198 0.14625
 H1128 H 0.14051 0.14533 0.21421
 Zr1129 Zr 0.72479 0.71361 0.29491
 O1130 O 0.73254 0.67046 0.33741
 O1131 O 0.66449 0.72843 0.30100
 O1132 O 0.72315 0.73988 0.34795
 O1133 O 0.71022 0.64250 0.22623
 O1134 O 0.76223 0.79677 0.34243
 O1135 O 0.69349 0.65784 0.28415
 O1136 O 0.65074 0.77643 0.25721
 O1137 O 0.72348 0.77610 0.28395
 O1138 O 0.70432 0.72153 0.24121
 O1139 O 0.78435 0.73439 0.30319
 O1140 O 0.76474 0.68080 0.26274
 Zr1141 Zr 0.80404 0.77500 0.20401
 Zr1142 Zr 0.78335 0.79617 0.28956
 Zr1143 Zr 0.74537 0.69211 0.20907
 Zr1144 Zr 0.70511 0.78329 0.22970
 O1145 O 0.77599 0.63816 0.19732
 O1146 O 0.68894 0.84092 0.24871
 O1147 O 0.74434 0.75400 0.19521
 O1148 O 0.76349 0.80670 0.23605
 O1149 O 0.82492 0.76690 0.25756
 O1150 O 0.80497 0.71251 0.21478
 C1151 C 0.64133 0.75341 0.28399
 C1152 C 0.69179 0.63496 0.25588
 C1153 C 0.74017 0.77231 0.36077
 O1154 O 0.75572 0.85247 0.29858
 O1155 O 0.82260 0.84315 0.27402
 O1156 O 0.83606 0.83045 0.21494
 C1157 C 0.83950 0.85198 0.24392
 O1158 O 0.81800 0.65873 0.30958
 Zr1159 Zr 0.82320 0.70470 0.26893
 O1160 O 0.86507 0.76026 0.19974
 O1161 O 0.83303 0.79859 0.32641
 O1162 O 0.86533 0.71811 0.31110
 O1163 O 0.84400 0.65002 0.24699
 O1164 O 0.87963 0.71719 0.24725
 C1165 C 0.88921 0.73915 0.21994
 O1166 O 0.80057 0.81945 0.16210
 O1167 O 0.69384 0.68614 0.17460
 O1168 O 0.79937 0.75274 0.14964
 O1169 O 0.75992 0.69607 0.15437
 O1170 O 0.65966 0.76677 0.19142
 O1171 O 0.70642 0.82303 0.18383
 C1172 C 0.77990 0.72221 0.13595
 H1173 H 0.67694 0.71025 0.23681
 H1174 H 0.76326 0.83587 0.22966
 H1175 H 0.82283 0.69823 0.19809
 H1176 H 0.79357 0.72948 0.32852
 H1177 H 0.66097 0.84644 0.24007
 H1178 H 0.77195 0.86612 0.31765
 H1179 H 0.83154 0.82474 0.33898
 H1180 H 0.88753 0.69824 0.31018
 H1181 H 0.63727 0.78632 0.19321
 H1182 H 0.69570 0.65970 0.16257
 H1183 H 0.75995 0.62461 0.17809
 H1184 H 0.87149 0.64509 0.25712
 H1185 H 0.68112 0.83880 0.18251
 H1186 H 0.82736 0.82056 0.15041
 H1187 H 0.70601 0.66743 0.34931
 H1188 H 0.84447 0.64547 0.31350
 Zr1189 Zr 0.77572 0.29609 0.79925
 O1190 O 0.74998 0.34308 0.82904
 O1191 O 0.83247 0.29084 0.82444
 O1192 O 0.76529 0.27689 0.85409
 O1193 O 0.80682 0.35744 0.72637
 O1194 O 0.73258 0.21628 0.84812
 O1195 O 0.80592 0.35241 0.78818
 O1196 O 0.86078 0.23850 0.79453
 O1197 O 0.78509 0.23338 0.79932
 O1198 O 0.81198 0.28372 0.75489
 O1199 O 0.71788 0.26944 0.79517
 O1200 O 0.74411 0.31892 0.75311
 Zr1201 Zr 0.73323 0.21464 0.70228
 Zr1202 Zr 0.72788 0.20718 0.79250
 Zr1203 Zr 0.77998 0.30371 0.70912
 Zr1204 Zr 0.81951 0.22155 0.75391
 O1205 O 0.75101 0.35428 0.68448
 O1206 O 0.83358 0.16885 0.78501
 O1207 O 0.79104 0.24147 0.70552
 O1208 O 0.76385 0.19218 0.74864
 O1209 O 0.69602 0.22631 0.74630
 O1210 O 0.72324 0.27710 0.70307
 C1211 C 0.86108 0.26615 0.81837
 C1212 C 0.81526 0.37061 0.75797
 C1213 C 0.74783 0.24469 0.86710
 O1214 O 0.75568 0.15578 0.81667
 O1215 O 0.69698 0.15570 0.77463
 O1216 O 0.70068 0.15940 0.71287
 C1217 C 0.68909 0.14227 0.74295
 O1218 O 0.67373 0.33912 0.77940
 Zr1219 Zr 0.68828 0.28855 0.74761
 O1220 O 0.67694 0.21655 0.67820
 O1221 O 0.67012 0.20339 0.81615
 O1222 O 0.63671 0.27257 0.77813
 O1223 O 0.66891 0.33732 0.71368
 O1224 O 0.64500 0.26404 0.71147
 C1225 C 0.64636 0.23698 0.68695
 O1226 O 0.76052 0.16810 0.67313
 O1227 O 0.83820 0.30828 0.68648
 O1228 O 0.74180 0.23536 0.64732
 O1229 O 0.77626 0.29502 0.65335
 O1230 O 0.87424 0.23828 0.72842
 O1231 O 0.83625 0.17673 0.71663
 C1232 C 0.75895 0.26787 0.63428
 H1233 H 0.83880 0.29708 0.75597
 H1234 H 0.76792 0.16265 0.74729
 H1235 H 0.70894 0.28770 0.68118
 H1236 H 0.70115 0.27639 0.81610
 H1237 H 0.86341 0.16638 0.78595
 H1238 H 0.73548 0.14298 0.83281
 H1239 H 0.67002 0.17918 0.83236
 H1240 H 0.61309 0.28586 0.76628
 H1241 H 0.89622 0.22226 0.74011
 H1242 H 0.83844 0.33290 0.67077
 H1243 H 0.77056 0.36708 0.66768
 H1244 H 0.63897 0.33720 0.71364
 H1245 H 0.86215 0.16440 0.72464
 H1246 H 0.74013 0.15927 0.65490
 H1247 H 0.77075 0.35152 0.84711
 H1248 H 0.64488 0.34600 0.77555
 C1249 C 0.46701 1.00994 0.32096
 C1250 C 0.48017 1.00692 0.35177
 C1251 C -0.03310 0.50919 0.82079
 C1252 C -0.02010 0.50611 0.85164
 C1253 C 0.03284 -0.00289 0.81710
 C1254 C 0.01841 -0.00180 0.84687
 C1255 C 0.53615 0.49770 0.31842
 C1256 C 0.52133 0.49872 0.34800
 C1257 C 0.54159 0.50600 0.18412
 C1258 C 0.52724 0.50707 0.15364
 C1259 C 0.04244 1.00541 0.68487
 C1260 C 0.02841 1.00614 0.65421
 C1261 C -0.04426 0.51907 0.68410
 C1262 C -0.03473 0.52528 0.65277
 C1263 C 0.45612 0.02039 0.18436
 C1264 C 0.46571 0.02670 0.15307
 C1265 C 0.32559 0.39368 0.00308
 C1266 C 0.35573 0.41478 0.00630
 C1267 C -0.17442 0.89389 0.50409
 C1268 C -0.14429 0.91495 0.50735
 C1269 C -0.17901 0.11113 0.99364
 C1270 C -0.14859 0.09105 0.99095
 C1271 C 0.32368 0.61316 0.49367
 C1272 C 0.35407 0.59297 0.49111
 C1273 C 0.17272 0.62589 0.50340
 C1274 C 0.13960 0.60978 0.50665
 C1275 C 0.67309 0.12727 0.00293
 C1276 C 0.64000 0.11112 0.00648
 C1277 C 0.67525 0.88470 0.49799
 C1278 C 0.64306 0.90225 0.49754
 C1279 C 0.17513 0.38466 0.99792
 C1280 C 0.14287 0.40208 0.99755
 C1281 C 0.00400 0.32122 0.43327
 C1282 C 0.00416 0.35114 0.45032
 C1283 C 0.50584 -0.17896 -0.06408
 C1284 C 0.50563 -0.14885 -0.04733
 C1285 C -0.00806 -0.18846 1.08776
 C1286 C -0.00875 -0.15694 1.07244
 C1287 C 0.49067 0.31202 0.58889
 C1288 C 0.49020 0.34351 0.57351
 C1289 C 0.47481 1.16840 0.60212
 C1290 C 0.47881 1.13695 0.58773
 C1291 C -0.02526 0.66820 1.10149
 C1292 C -0.02155 0.63671 1.08711
 C1293 C 0.52156 0.68313 -0.09818
 C1294 C 0.52039 0.64925 -0.08701
 C1295 C 0.02354 1.18070 0.40121
 C1296 C 0.02294 1.14692 0.41264
 C1297 C 0.75954 0.71742 0.92908
 C1298 C 0.75645 0.73033 0.89819
 C1299 C 0.25824 0.21708 0.42912
 C1300 C 0.25489 0.23011 0.39828
 C1301 C 0.74798 0.28282 0.43314
 C1302 C 0.74922 0.26840 0.40337
 C1303 C 0.24777 0.78455 0.93250
 C1304 C 0.24879 0.77006 0.90277
 C1305 C 0.25579 0.79357 0.06474
 C1306 C 0.25665 0.77927 0.09531
 C1307 C 0.75618 0.29238 0.56537
 C1308 C 0.75682 0.27826 0.59601
 C1309 C 0.26903 0.20579 0.56579
 C1310 C 0.27534 0.21516 0.59713
 C1311 C 0.77083 0.70659 0.06581
 C1312 C 0.77748 0.71602 0.09710
 C1313 C 0.14371 0.57618 0.24554
 C1314 C 0.16491 0.60624 0.24218
 C1315 C 0.64353 0.07551 0.74598
 C1316 C 0.66464 0.10562 0.74271
 C1317 C 0.86223 0.07101 0.25673
 C1318 C 0.84215 0.10143 0.25937
 C1319 C 0.36245 0.57284 0.75641
 C1320 C 0.34231 0.60320 0.75907
 C1321 C 0.37573 0.42211 0.74675
 C1322 C 0.35965 0.38902 0.74343
 C1323 C 0.87827 0.92315 0.24734
 C1324 C 0.86218 0.89006 0.24373
 C1325 C 0.63438 0.92520 0.75188
 C1326 C 0.65191 0.89301 0.75230
 C1327 C 0.13391 0.42578 0.25175
 C1328 C 0.15115 0.39344 0.25223
 C1329 C 0.06954 0.25542 0.81423
 C1330 C 0.09965 0.25513 0.79745
 C1331 C 0.57248 0.75619 0.31456
 C1332 C 0.60240 0.75600 0.29756
 C1333 C 0.56218 0.24196 0.16287
 C1334 C 0.59368 0.24116 0.17823
 C1335 C 0.06202 0.74190 0.66206
 C1336 C 0.09361 0.74146 0.67727
 C1337 C 0.91854 0.72430 0.64869
 C1338 C 0.88696 0.72826 0.66289
 C1339 C 0.41837 0.22651 0.14935
 C1340 C 0.38675 0.23034 0.16352
 C1341 C 0.43170 0.77277 0.34780
 C1342 C 0.39780 0.77208 0.33671
 C1343 C 0.93184 0.27191 0.84855
 C1344 C 0.89800 0.27073 0.83727
 C1345 C 0.53471 0.99566 0.69089
 C1346 C 0.51867 0.99242 0.66133
 C1347 C 0.03466 0.49639 1.19055
 C1348 C 0.01854 0.49294 1.16105
 C1349 C -0.04123 -0.00880 1.18409
 C1350 C -0.02865 -0.01359 1.15382
 C1351 C 0.45961 0.49303 0.68451
 C1352 C 0.47234 0.48780 0.65439
 C1353 C 0.47168 0.49776 -0.18526
 C1354 C 0.48753 0.49783 -0.15549
 C1355 C -0.02826 0.99584 0.31481
 C1356 C -0.01251 0.99588 0.34467
 C1357 C 0.04724 0.49225 0.32090
 C1358 C 0.03225 0.48777 0.35068
 C1359 C 0.54779 -0.00868 -0.17851
 C1360 C 0.53305 -0.01295 -0.14860
 C1361 C 0.68527 0.61445 -0.00529
 C1362 C 0.65664 0.59146 -0.00738
 C1363 C 0.18593 1.11229 0.49424
 C1364 C 0.15771 1.08883 0.49220
 C1365 C 0.17673 -0.11579 1.00907
 C1366 C 0.14618 -0.09555 1.01245
 C1367 C 0.67694 0.38245 0.50998
 C1368 C 0.64653 0.40284 0.51355
 C1369 C -0.18116 0.39172 0.49541
 C1370 C -0.15183 0.41425 0.49399
 C1371 C 0.31916 -0.10731 -0.00435
 C1372 C 0.34870 -0.08501 -0.00549
 C1373 C 0.32122 1.10757 0.50702
 C1374 C 0.34829 1.08363 0.51267
 C1375 C -0.17918 0.60719 1.00701
 C1376 C -0.15221 0.58310 1.01255
 C1377 C -0.00703 0.70905 0.55536
 C1378 C -0.01002 0.67748 0.54097
 C1379 C 0.49273 0.20970 0.05581
 C1380 C 0.48967 0.17831 0.04111
 C1381 C -0.00194 0.17741 0.90533
 C1382 C -0.00348 0.14806 0.92437
 C1383 C 0.50267 0.67752 0.40629
 C1384 C 0.50081 0.64815 0.42524
 C1385 C 0.52173 0.81336 0.42122
 C1386 C 0.51576 0.84440 0.43549
 C1387 C 0.02016 0.31218 0.92150
 C1388 C 0.01483 0.34329 0.93588
 C1389 C 0.47659 0.33182 0.10013
 C1390 C 0.48017 0.36193 0.08292
 C1391 C -0.02515 0.83068 0.60031
 C1392 C -0.02145 0.86088 0.58325
 C1393 C 0.24574 0.28541 0.05915
 C1394 C 0.24246 0.26948 0.08876
 C1395 C 0.74569 0.78495 0.55908
 C1396 C 0.74243 0.76882 0.58862
 C1397 C 0.24351 0.71005 0.56559
 C1398 C 0.23829 0.72258 0.59582
 C1399 C 0.74135 0.20794 0.06623
 C1400 C 0.73673 0.22070 0.09647
 C1401 C 0.74609 0.22068 0.93545
 C1402 C 0.74631 0.23642 0.90556
 C1403 C 0.24761 0.72150 0.43466
 C1404 C 0.24735 0.73719 0.40476
 C1405 C 0.74171 0.79809 0.42856
 C1406 C 0.73761 0.78331 0.39867
 C1407 C 0.24061 0.29750 0.92856
 C1408 C 0.23601 0.28257 0.89878
 C1409 C 0.86295 0.43541 0.75599
 C1410 C 0.83986 0.40687 0.75810
 C1411 C 0.36306 0.93636 0.25562
 C1412 C 0.33988 0.90786 0.25751
 C1413 C 0.13312 0.92672 0.74055
 C1414 C 0.15367 0.89641 0.73709
 C1415 C 0.63552 0.42667 0.24160
 C1416 C 0.65558 0.39606 0.23797
 C1417 C 0.64400 0.56924 0.25498
 C1418 C 0.66625 0.59879 0.25598
 C1419 C 0.14115 0.06871 0.75449
 C1420 C 0.16347 0.09819 0.75576
 C1421 C 0.35710 0.07193 0.24300
 C1422 C 0.33304 0.09892 0.23741
 C1423 C 0.85696 0.57099 0.74280
 C1424 C 0.83297 0.59804 0.73722
 C1425 C 0.96116 0.74261 0.19515
 C1426 C 0.92975 0.73974 0.20985
 C1427 C 0.45885 0.24224 0.69566
 C1428 C 0.42725 0.23905 0.71002
 C1429 C 0.42767 0.75016 0.84466
 C1430 C 0.39841 0.74867 0.82552
 C1431 C 0.92874 0.24850 0.34434
 C1432 C 0.89929 0.24696 0.32542
 C1433 C 0.06007 0.27068 0.32643
 C1434 C 0.09148 0.26504 0.31259
 C1435 C 0.56258 0.77096 0.82879
 C1436 C 0.59361 0.76541 0.81433
 C1437 C 0.58080 0.22578 0.65027
 C1438 C 0.61111 0.22942 0.66716
 C1439 C 0.08167 0.72524 0.14888
 C1440 C 0.11176 0.72931 0.16601
   
