data_POSCAR
  _audit_creation_date              2014-09-24
  _audit_creation_method            'ToBaCCo'
  _symmetry_space_group_name_H-M    'P1'
  _symmetry_Int_Tables_number       1
  _symmetry_cell_setting            triclinic
  loop_
  _symmetry_equiv_pos_as_xyz
 x,y,z
_cell_length_a 77.1519
_cell_length_b 77.1944
_cell_length_c 78.5229
_cell_angle_alpha 90.031600
_cell_angle_beta 89.968200
_cell_angle_gamma 89.938800
loop_
  _atom_site_label
  _atom_site_type_symbol
  _atom_site_fract_x
  _atom_site_fract_y
  _atom_site_fract_z
N1 N 0.37333 0.32555 0.33792
 N2 N 0.37126 0.33567 0.32464
 C3 C 0.38381 0.33231 0.31321
 C4 C 0.39433 0.31927 0.31961
 C5 C 0.38726 0.31537 0.33539
 H6 H 0.38470 0.33837 0.30084
 H7 H 0.39149 0.30542 0.34413
 Cu8 Cu 0.35153 0.35116 0.32264
 Cu9 Cu 0.35665 0.32491 0.35648
 Cu10 Cu 0.32437 0.35604 0.35593
 N11 N 0.33554 0.37053 0.32413
 N12 N 0.32496 0.37247 0.33710
 C13 C 0.31475 0.38634 0.33428
 C14 C 0.31916 0.39350 0.31865
 C15 C 0.33247 0.38308 0.31264
 H16 H 0.30459 0.39056 0.34280
 H17 H 0.33906 0.38411 0.30054
 N18 N 0.32610 0.33815 0.37377
 N19 N 0.33848 0.32636 0.37401
 C20 C 0.33541 0.31519 0.38680
 C21 C 0.32031 0.32008 0.39506
 C22 C 0.31482 0.33478 0.38643
 H23 H 0.34318 0.30383 0.38933
 H24 H 0.30311 0.34209 0.38870
 H25 H 0.33523 0.33486 0.34386
 H26 H 0.35054 0.35091 0.35353
 N27 N 0.37387 0.82540 -0.16223
 N28 N 0.37205 0.83550 -0.17554
 C29 C 0.38456 0.83183 -0.18692
 C30 C 0.39479 0.81850 -0.18049
 C31 C 0.38760 0.81492 -0.16465
 H32 H 0.38562 0.83802 -0.19921
 H33 H 0.39145 0.80492 -0.15581
 Cu34 Cu 0.35261 0.85138 -0.17770
 Cu35 Cu 0.35707 0.82508 -0.14380
 Cu36 Cu 0.32480 0.85623 -0.14484
 N37 N 0.33635 0.87059 -0.17659
 N38 N 0.32553 0.87250 -0.16381
 C39 C 0.31523 0.88624 -0.16687
 C40 C 0.31975 0.89338 -0.18252
 C41 C 0.33335 0.88304 -0.18820
 H42 H 0.30490 0.89032 -0.15848
 H43 H 0.34033 0.88413 -0.20008
 N44 N 0.32644 0.83851 -0.12681
 N45 N 0.33884 0.82675 -0.12638
 C46 C 0.33571 0.81570 -0.11350
 C47 C 0.32054 0.82063 -0.10539
 C48 C 0.31508 0.83524 -0.11418
 H49 H 0.34347 0.80438 -0.11080
 H50 H 0.30332 0.84251 -0.11206
 H51 H 0.33588 0.83510 -0.15677
 H52 H 0.35097 0.85115 -0.14681
 N53 N 0.87168 0.32577 -0.16344
 N54 N 0.87005 0.33687 -0.17601
 C55 C 0.88254 0.33386 -0.18761
 C56 C 0.89257 0.32003 -0.18214
 C57 C 0.88525 0.31528 -0.16667
 H58 H 0.88385 0.34089 -0.19942
 H59 H 0.88916 0.30467 -0.15856
 Cu60 Cu 0.85109 0.35345 -0.17694
 Cu61 Cu 0.85523 0.32502 -0.14459
 Cu62 Cu 0.82369 0.35696 -0.14368
 N63 N 0.83465 0.37245 -0.17502
 N64 N 0.82401 0.37386 -0.16205
 C65 C 0.81331 0.38738 -0.16467
 C66 C 0.81735 0.39489 -0.18026
 C67 C 0.83114 0.38505 -0.18633
 H68 H 0.80292 0.39094 -0.15613
 H69 H 0.83780 0.38647 -0.19834
 N70 N 0.82542 0.33870 -0.12627
 N71 N 0.83738 0.32649 -0.12663
 C72 C 0.83424 0.31516 -0.11396
 C73 C 0.81952 0.32042 -0.10520
 C74 C 0.81437 0.33546 -0.11339
 H75 H 0.84171 0.30354 -0.11178
 H76 H 0.80292 0.34306 -0.11073
 H77 H 0.83427 0.33622 -0.15679
 H78 H 0.84985 0.35125 -0.14607
 N79 N 0.87152 0.82567 0.33653
 N80 N 0.86984 0.83677 0.32398
 C81 C 0.88235 0.83385 0.31238
 C82 C 0.89246 0.82007 0.31784
 C83 C 0.88516 0.81525 0.33330
 H84 H 0.88360 0.84089 0.30056
 H85 H 0.88913 0.80468 0.34141
 Cu86 Cu 0.85076 0.85321 0.32309
 Cu87 Cu 0.85510 0.82484 0.35543
 Cu88 Cu 0.82366 0.85685 0.35652
 N89 N 0.83452 0.87237 0.32514
 N90 N 0.82397 0.87380 0.33818
 C91 C 0.81335 0.88740 0.33567
 C92 C 0.81733 0.89495 0.32008
 C93 C 0.83101 0.88503 0.31389
 H94 H 0.80307 0.89104 0.34429
 H95 H 0.83757 0.88642 0.30182
 N96 N 0.82538 0.83853 0.37387
 N97 N 0.83728 0.82626 0.37343
 C98 C 0.83415 0.81492 0.38609
 C99 C 0.81949 0.82023 0.39493
 C100 C 0.81438 0.83531 0.38679
 H101 H 0.84158 0.80326 0.38824
 H102 H 0.80299 0.84296 0.38953
 H103 H 0.83411 0.83604 0.34335
 H104 H 0.84980 0.85105 0.35395
 N105 N 0.62782 0.67630 0.33829
 N106 N 0.62860 0.66577 0.32517
 C107 C 0.61582 0.66978 0.31420
 C108 C 0.60652 0.68367 0.32070
 C109 C 0.61455 0.68742 0.33607
 H110 H 0.61388 0.66344 0.30209
 H111 H 0.61130 0.69774 0.34482
 Cu112 Cu 0.64685 0.64855 0.32278
 Cu113 Cu 0.64493 0.67560 0.35648
 Cu114 Cu 0.67541 0.64272 0.35479
 N115 N 0.66272 0.62897 0.32322
 N116 N 0.67377 0.62666 0.33573
 C117 C 0.68375 0.61279 0.33224
 C118 C 0.67874 0.60599 0.31663
 C119 C 0.66528 0.61663 0.31136
 H120 H 0.69424 0.60839 0.34026
 H121 H 0.65823 0.61585 0.29950
 N122 N 0.67496 0.66027 0.37301
 N123 N 0.66332 0.67278 0.37365
 C124 C 0.66716 0.68340 0.38671
 C125 C 0.68201 0.67738 0.39472
 C126 C 0.68652 0.66262 0.38565
 H127 H 0.66009 0.69510 0.38965
 H128 H 0.69778 0.65455 0.38764
 H129 H 0.66505 0.66430 0.34300
 H130 H 0.64942 0.64928 0.35365
 N131 N 0.62776 0.17537 -0.16149
 N132 N 0.62876 0.16527 -0.17492
 C133 C 0.61593 0.16940 -0.18578
 C134 C 0.60636 0.18291 -0.17886
 C135 C 0.61429 0.18630 -0.16338
 H136 H 0.61415 0.16346 -0.19812
 H137 H 0.61086 0.19631 -0.15436
 Cu138 Cu 0.64741 0.14852 -0.17777
 Cu139 Cu 0.64496 0.17469 -0.14340
 Cu140 Cu 0.67581 0.14228 -0.14572
 N141 N 0.66335 0.12895 -0.17752
 N142 N 0.67425 0.12646 -0.16493
 C143 C 0.68421 0.11259 -0.16844
 C144 C 0.67943 0.10598 -0.18423
 C145 C 0.66600 0.11675 -0.18950
 H146 H 0.69457 0.10814 -0.16031
 H147 H 0.65892 0.11612 -0.20134
 N148 N 0.67529 0.15959 -0.12730
 N149 N 0.66349 0.17191 -0.12640
 C150 C 0.66734 0.18246 -0.11329
 C151 C 0.68237 0.17658 -0.10553
 C152 C 0.68698 0.16198 -0.11478
 H153 H 0.66018 0.19407 -0.11019
 H154 H 0.69839 0.15408 -0.11303
 H155 H 0.66522 0.16404 -0.15714
 H156 H 0.64971 0.14855 -0.14691
 N157 N 0.12706 0.67435 -0.16354
 N158 N 0.12954 0.66333 -0.17605
 C159 C 0.11727 0.66579 -0.18799
 C160 C 0.10650 0.67917 -0.18277
 C161 C 0.11314 0.68422 -0.16711
 H162 H 0.11669 0.65875 -0.19987
 H163 H 0.10863 0.69470 -0.15912
 Cu164 Cu 0.14933 0.64778 -0.17643
 Cu165 Cu 0.14299 0.67611 -0.14441
 Cu166 Cu 0.17556 0.64531 -0.14223
 N167 N 0.16587 0.62902 -0.17362
 N168 N 0.17612 0.62804 -0.16030
 C169 C 0.18695 0.61449 -0.16227
 C170 C 0.18327 0.60650 -0.17768
 C171 C 0.16975 0.61610 -0.18446
 H172 H 0.19703 0.61102 -0.15336
 H173 H 0.16365 0.61429 -0.19671
 N174 N 0.17282 0.66394 -0.12526
 N175 N 0.16044 0.67570 -0.12611
 C176 C 0.16287 0.68742 -0.11363
 C177 C 0.17753 0.68289 -0.10446
 C178 C 0.18343 0.66786 -0.11223
 H179 H 0.15491 0.69879 -0.11183
 H180 H 0.19507 0.66074 -0.10918
 H181 H 0.16481 0.66563 -0.15579
 H182 H 0.14937 0.65009 -0.14558
 N183 N 0.12658 0.17525 0.33689
 N184 N 0.12901 0.16477 0.32393
 C185 C 0.11653 0.16744 0.31228
 C186 C 0.10563 0.18041 0.31816
 C187 C 0.11243 0.18501 0.33390
 H188 H 0.11591 0.16089 0.30014
 H189 H 0.10782 0.19508 0.34233
 Cu190 Cu 0.14896 0.14959 0.32261
 Cu191 Cu 0.14292 0.17644 0.35580
 Cu192 Cu 0.17527 0.14526 0.35646
 N193 N 0.16470 0.13016 0.32472
 N194 N 0.17504 0.12844 0.33789
 C195 C 0.18524 0.11448 0.33547
 C196 C 0.18104 0.10705 0.31989
 C197 C 0.16788 0.11739 0.31351
 H198 H 0.19525 0.11036 0.34419
 H199 H 0.16153 0.11617 0.30130
 N200 N 0.17315 0.16353 0.37394
 N201 N 0.16081 0.17537 0.37371
 C202 C 0.16366 0.18678 0.38639
 C203 C 0.17859 0.18199 0.39503
 C204 C 0.18416 0.16710 0.38676
 H205 H 0.15586 0.19817 0.38862
 H206 H 0.19580 0.15980 0.38938
 H207 H 0.16464 0.16630 0.34388
 H208 H 0.14913 0.15044 0.35351
 N209 N 0.62756 0.32454 0.66187
 N210 N 0.62886 0.33575 0.67434
 C211 C 0.61653 0.33233 0.68604
 C212 C 0.60698 0.31814 0.68056
 C213 C 0.61441 0.31360 0.66511
 H214 H 0.61497 0.33939 0.69781
 H215 H 0.61096 0.30279 0.65704
 Cu216 Cu 0.64705 0.35326 0.67456
 Cu217 Cu 0.64392 0.32391 0.64304
 Cu218 Cu 0.67625 0.35503 0.64272
 N219 N 0.66497 0.37102 0.67384
 N220 N 0.67623 0.37175 0.66134
 C221 C 0.68737 0.38483 0.66422
 C222 C 0.68290 0.39282 0.67944
 C223 C 0.66856 0.38365 0.68516
 H224 H 0.69815 0.38799 0.65599
 H225 H 0.66145 0.38570 0.69684
 N226 N 0.67408 0.33702 0.62503
 N227 N 0.66167 0.32529 0.62511
 C228 C 0.66442 0.31404 0.61229
 C229 C 0.67935 0.31882 0.60369
 C230 C 0.68506 0.33353 0.61213
 H231 H 0.65655 0.30273 0.60995
 H232 H 0.69679 0.34072 0.60964
 H233 H 0.66456 0.33501 0.65585
 H234 H 0.65000 0.35000 0.64384
 N235 N 0.62874 0.82401 1.16118
 N236 N 0.62933 0.83535 1.17364
 C237 C 0.61685 0.83158 1.18504
 C238 C 0.60789 0.81707 1.17945
 C239 C 0.61585 0.81267 1.16420
 H240 H 0.61478 0.83861 1.19674
 H241 H 0.61273 0.80187 1.15602
 Cu242 Cu 0.64690 0.85344 1.17416
 Cu243 Cu 0.64536 0.82420 1.14248
 Cu244 Cu 0.67621 0.85678 1.14275
 N245 N 0.66415 0.87184 1.17402
 N246 N 0.67545 0.87314 1.16158
 C247 C 0.68632 0.88634 1.16487
 C248 C 0.68169 0.89377 1.18029
 C249 C 0.66749 0.88418 1.18569
 H250 H 0.69708 0.88992 1.15682
 H251 H 0.66045 0.88569 1.19748
 N252 N 0.67497 0.83903 1.12481
 N253 N 0.66329 0.82657 1.12472
 C254 C 0.66683 0.81563 1.11180
 C255 C 0.68151 0.82141 1.10335
 C256 C 0.68622 0.83634 1.11196
 H257 H 0.65973 0.80386 1.10930
 H258 H 0.69751 0.84423 1.10960
 H259 H 0.66528 0.83606 1.15561
 H260 H 0.65017 0.85041 1.14350
 N261 N 0.12804 0.32532 1.16310
 N262 N 0.12975 0.33572 1.17623
 C263 C 0.11706 0.33248 1.18753
 C264 C 0.10681 0.31922 1.18125
 C265 C 0.11419 0.31503 1.16565
 H266 H 0.11587 0.33885 1.19973
 H267 H 0.11011 0.30495 1.15699
 Cu268 Cu 0.14907 0.35162 1.17821
 Cu269 Cu 0.14480 0.32511 1.14447
 Cu270 Cu 0.17583 0.35749 1.14491
 N271 N 0.16427 0.37152 1.17679
 N272 N 0.17469 0.37390 1.16378
 C273 C 0.18450 0.38801 1.16671
 C274 C 0.17998 0.39487 1.18245
 C275 C 0.16701 0.38403 1.18840
 H276 H 0.19454 0.39256 1.15823
 H277 H 0.16054 0.38469 1.20059
 N278 N 0.17480 0.33952 1.12708
 N279 N 0.16301 0.32716 1.12692
 C280 C 0.16660 0.31610 1.11413
 C281 C 0.18144 0.32168 1.10580
 C282 C 0.18620 0.33664 1.11439
 H283 H 0.15937 0.30441 1.11161
 H284 H 0.19754 0.34448 1.11207
 H285 H 0.16584 0.33585 1.15692
 H286 H 0.14986 0.35127 1.14733
 N287 N 0.12801 0.82588 0.66291
 N288 N 0.12989 0.83624 0.67605
 C289 C 0.11718 0.83321 0.68736
 C290 C 0.10670 0.82011 0.68110
 C291 C 0.11400 0.81582 0.66547
 H292 H 0.11614 0.83958 0.69957
 H293 H 0.10980 0.80577 0.65683
 Cu294 Cu 0.14951 0.85170 0.67814
 Cu295 Cu 0.14479 0.82537 0.64428
 Cu296 Cu 0.17636 0.85727 0.64493
 N297 N 0.16499 0.87137 0.67681
 N298 N 0.17550 0.87361 0.66385
 C299 C 0.18550 0.88757 0.66683
 C300 C 0.18101 0.89447 0.68256
 C301 C 0.16786 0.88382 0.68845
 H302 H 0.19562 0.89201 0.65838
 H303 H 0.16134 0.88458 0.70060
 N304 N 0.17504 0.83945 0.62700
 N305 N 0.16309 0.82725 0.62676
 C306 C 0.16653 0.81626 0.61385
 C307 C 0.18143 0.82175 0.60555
 C308 C 0.18638 0.83656 0.61427
 H309 H 0.15911 0.80472 0.61120
 H310 H 0.19783 0.84426 0.61204
 H311 H 0.16591 0.83563 0.65680
 H312 H 0.15021 0.85136 0.64725
 N313 N 0.37178 0.67454 0.66224
 N314 N 0.37071 0.66342 0.67485
 C315 C 0.38321 0.66700 0.68629
 C316 C 0.39264 0.68117 0.68059
 C317 C 0.38496 0.68555 0.66522
 H318 H 0.38497 0.66005 0.69810
 H319 H 0.38835 0.69622 0.65697
 Cu320 Cu 0.35260 0.64582 0.67552
 Cu321 Cu 0.35521 0.67482 0.64355
 Cu322 Cu 0.32370 0.64293 0.64352
 N323 N 0.33509 0.62760 0.67485
 N324 N 0.32406 0.62642 0.66218
 C325 C 0.31306 0.61325 0.66514
 C326 C 0.31734 0.60569 0.68058
 C327 C 0.33146 0.61517 0.68634
 H328 H 0.30243 0.60981 0.65686
 H329 H 0.33827 0.61355 0.69825
 N330 N 0.32531 0.66080 0.62576
 N331 N 0.33726 0.67300 0.62577
 C332 C 0.33398 0.68411 0.61296
 C333 C 0.31918 0.67872 0.60446
 C334 C 0.31413 0.66383 0.61295
 H335 H 0.34139 0.69570 0.61052
 H336 H 0.30268 0.65618 0.61052
 H337 H 0.33486 0.66345 0.65650
 H338 H 0.34990 0.64866 0.64475
 N339 N 0.37208 0.17541 1.16180
 N340 N 0.37089 0.16511 1.17505
 C341 C 0.38369 0.16887 1.18607
 C342 C 0.39345 0.18237 1.17945
 C343 C 0.38566 0.18613 1.16396
 H344 H 0.38531 0.16270 1.19831
 H345 H 0.38925 0.19622 1.15512
 Cu346 Cu 0.35196 0.14870 1.17749
 Cu347 Cu 0.35496 0.17514 1.14357
 Cu348 Cu 0.32409 0.14267 1.14499
 N349 N 0.33648 0.12889 1.17667
 N350 N 0.32565 0.12650 1.16399
 C351 C 0.31574 0.11256 1.16734
 C352 C 0.32058 0.10581 1.18303
 C353 C 0.33387 0.11654 1.18849
 H354 H 0.30539 0.10809 1.15920
 H355 H 0.34068 0.11591 1.20049
 N356 N 0.32471 0.16041 1.12692
 N357 N 0.33650 0.17275 1.12639
 C358 C 0.33274 0.18359 1.11349
 C359 C 0.31780 0.17789 1.10545
 C360 C 0.31313 0.16308 1.11435
 H361 H 0.33994 0.19524 1.11070
 H362 H 0.30178 0.15519 1.11228
 H363 H 0.33435 0.16428 1.15672
 H364 H 0.35007 0.14890 1.14662
 N365 N 0.87200 0.67472 1.16329
 N366 N 0.87016 0.66433 1.17641
 C367 C 0.88273 0.66757 1.18782
 C368 C 0.89305 0.68082 1.18164
 C369 C 0.88581 0.68502 1.16597
 H370 H 0.88379 0.66118 1.20001
 H371 H 0.88996 0.69510 1.15735
 Cu372 Cu 0.85087 0.64843 1.17822
 Cu373 Cu 0.85541 0.67490 1.14452
 Cu374 Cu 0.82440 0.64247 1.14474
 N375 N 0.83582 0.62845 1.17666
 N376 N 0.82547 0.62607 1.16360
 C377 C 0.81569 0.61194 1.16646
 C378 C 0.82014 0.60508 1.18221
 C379 C 0.83305 0.61593 1.18823
 H380 H 0.80570 0.60738 1.15794
 H381 H 0.83944 0.61528 1.20046
 N382 N 0.82554 0.66044 1.12692
 N383 N 0.83736 0.67277 1.12682
 C384 C 0.83392 0.68378 1.11396
 C385 C 0.81915 0.67819 1.10552
 C386 C 0.81427 0.66329 1.11413
 H387 H 0.84123 0.69541 1.11144
 H388 H 0.80291 0.65548 1.11176
 H389 H 0.83426 0.66415 1.15680
 H390 H 0.85033 0.64873 1.14733
 N391 N 0.87301 0.17392 0.66383
 N392 N 0.87051 0.16372 0.67698
 C393 C 0.88300 0.16658 0.68859
 C394 C 0.89393 0.17937 0.68246
 C395 C 0.88717 0.18366 0.66664
 H396 H 0.88356 0.16035 0.70089
 H397 H 0.89180 0.19355 0.65804
 Cu398 Cu 0.85051 0.14868 0.67854
 Cu399 Cu 0.85667 0.17502 0.64498
 Cu400 Cu 0.82406 0.14424 0.64476
 N401 N 0.83464 0.12936 0.67657
 N402 N 0.82425 0.12760 0.66345
 C403 C 0.81406 0.11368 0.66595
 C404 C 0.81833 0.10627 0.68151
 C405 C 0.83151 0.11662 0.68782
 H406 H 0.80404 0.10952 0.65726
 H407 H 0.83792 0.11543 0.69999
 N408 N 0.82624 0.16232 0.62712
 N409 N 0.83874 0.17396 0.62716
 C410 C 0.83607 0.18518 0.61430
 C411 C 0.82113 0.18044 0.60570
 C412 C 0.81530 0.16582 0.61422
 H413 H 0.84408 0.19637 0.61185
 H414 H 0.80356 0.15866 0.61172
 H415 H 0.83492 0.16533 0.65710
 H416 H 0.85027 0.14912 0.64769
 N417 N 0.32512 0.37302 0.66347
 N418 N 0.33557 0.37062 0.67646
 C419 C 0.33282 0.38310 0.68810
 C420 C 0.31982 0.39395 0.68220
 C421 C 0.31530 0.38713 0.66645
 H422 H 0.33929 0.38372 0.70028
 H423 H 0.30521 0.39167 0.65801
 Cu424 Cu 0.35075 0.35068 0.67786
 Cu425 Cu 0.32395 0.35664 0.64459
 Cu426 Cu 0.35506 0.32421 0.64404
 N427 N 0.37013 0.33485 0.67577
 N428 N 0.37185 0.32446 0.66263
 C429 C 0.38576 0.31422 0.66511
 C430 C 0.39318 0.31843 0.68068
 C431 C 0.38287 0.33165 0.68701
 H432 H 0.38985 0.30415 0.65642
 H433 H 0.38405 0.33802 0.69921
 N434 N 0.33683 0.32633 0.62653
 N435 N 0.32503 0.33871 0.62672
 C436 C 0.31370 0.33594 0.61397
 C437 C 0.31850 0.32103 0.60530
 C438 C 0.33331 0.31536 0.61365
 H439 H 0.30238 0.34383 0.61167
 H440 H 0.34059 0.30370 0.61106
 H441 H 0.33400 0.33494 0.65657
 H442 H 0.34996 0.35036 0.64697
 N443 N 0.32439 0.87382 0.16079
 N444 N 0.33456 0.87212 0.17409
 C445 C 0.33091 0.88473 0.18536
 C446 C 0.31763 0.89488 0.17887
 C447 C 0.31389 0.88755 0.16317
 H448 H 0.33695 0.88590 0.19772
 H449 H 0.30385 0.89145 0.15439
 Cu450 Cu 0.35047 0.85271 0.17635
 Cu451 Cu 0.32419 0.85695 0.14238
 Cu452 Cu 0.35529 0.82464 0.14376
 N453 N 0.36956 0.83628 0.17551
 N454 N 0.37143 0.82535 0.16282
 C455 C 0.38508 0.81497 0.16600
 C456 C 0.39220 0.81961 0.18158
 C457 C 0.38197 0.83326 0.18718
 H458 H 0.38920 0.80455 0.15774
 H459 H 0.38308 0.84016 0.19910
 N460 N 0.33773 0.82622 0.12560
 N461 N 0.32599 0.83864 0.12502
 C462 C 0.31515 0.83557 0.11195
 C463 C 0.32021 0.82043 0.10385
 C464 C 0.33466 0.81492 0.11288
 H465 H 0.30394 0.84341 0.10905
 H466 H 0.34199 0.80318 0.11083
 H467 H 0.33411 0.83589 0.15552
 H468 H 0.35021 0.85086 0.14548
 N469 N 0.82349 0.37140 0.16011
 N470 N 0.83449 0.37043 0.17283
 C471 C 0.83066 0.38285 0.18427
 C472 C 0.81643 0.39214 0.17847
 C473 C 0.81228 0.38445 0.16303
 H474 H 0.83748 0.38467 0.19613
 H475 H 0.80165 0.38778 0.15468
 Cu476 Cu 0.85239 0.35264 0.17373
 Cu477 Cu 0.82374 0.35486 0.14140
 Cu478 Cu 0.85631 0.32398 0.14160
 N479 N 0.87106 0.33564 0.17308
 N480 N 0.87268 0.32467 0.16038
 C481 C 0.88610 0.31399 0.16350
 C482 C 0.89335 0.31843 0.17905
 C483 C 0.88343 0.33230 0.18470
 H484 H 0.88990 0.30343 0.15527
 H485 H 0.88472 0.33911 0.19664
 N486 N 0.83852 0.32525 0.12370
 N487 N 0.82609 0.33698 0.12362
 C488 C 0.81512 0.33349 0.11074
 C489 C 0.82083 0.31876 0.10231
 C490 C 0.83578 0.31398 0.11090
 H491 H 0.80339 0.34070 0.10823
 H492 H 0.84363 0.30264 0.10857
 H493 H 0.83539 0.33469 0.15436
 H494 H 0.85005 0.35005 0.14291
 N495 N 0.82390 0.87117 0.66074
 N496 N 0.83533 0.87056 0.67311
 C497 C 0.83157 0.88296 0.68459
 C498 C 0.81697 0.89191 0.67914
 C499 C 0.81250 0.88400 0.66389
 H500 H 0.83870 0.88499 0.69625
 H501 H 0.80158 0.88706 0.65581
 Cu502 Cu 0.85349 0.85302 0.67340
 Cu503 Cu 0.82403 0.85464 0.64196
 Cu504 Cu 0.85668 0.82373 0.64193
 N505 N 0.87188 0.83571 0.67317
 N506 N 0.87312 0.82440 0.66072
 C507 C 0.88632 0.81349 0.66396
 C508 C 0.89381 0.81812 0.67936
 C509 C 0.88425 0.83233 0.68479
 H510 H 0.88979 0.80266 0.65592
 H511 H 0.88580 0.83942 0.69655
 N512 N 0.83882 0.82509 0.62406
 N513 N 0.82635 0.83680 0.62409
 C514 C 0.81542 0.83342 0.61114
 C515 C 0.82120 0.81882 0.60254
 C516 C 0.83615 0.81399 0.61110
 H517 H 0.80369 0.84063 0.60867
 H518 H 0.84407 0.80273 0.60861
 H519 H 0.83604 0.83464 0.65490
 H520 H 0.85029 0.84971 0.64271
 N521 N 0.67543 0.62848 0.66226
 N522 N 0.66490 0.63034 0.67528
 C523 C 0.66800 0.61776 0.68670
 C524 C 0.68131 0.60741 0.68063
 C525 C 0.68569 0.61464 0.66502
 H526 H 0.66148 0.61670 0.69884
 H527 H 0.69582 0.61042 0.65646
 Cu528 Cu 0.64895 0.64961 0.67691
 Cu529 Cu 0.67570 0.64497 0.64343
 Cu530 Cu 0.64311 0.67591 0.64330
 N531 N 0.62887 0.66450 0.67513
 N532 N 0.62655 0.67485 0.66206
 C533 C 0.61232 0.68457 0.66483
 C534 C 0.60535 0.68005 0.68052
 C535 C 0.61622 0.66719 0.68660
 H536 H 0.60776 0.69455 0.65629
 H537 H 0.61554 0.66082 0.69884
 N538 N 0.66127 0.67471 0.62561
 N539 N 0.67365 0.66292 0.62566
 C540 C 0.68471 0.66625 0.61281
 C541 C 0.67911 0.68092 0.60422
 C542 C 0.66414 0.68586 0.61273
 H543 H 0.69637 0.65890 0.61037
 H544 H 0.65627 0.69715 0.61021
 H545 H 0.66475 0.66617 0.65554
 H546 H 0.64946 0.65004 0.64603
 N547 N 0.67503 0.12802 0.16157
 N548 N 0.66444 0.12987 0.17455
 C549 C 0.66756 0.11732 0.18601
 C550 C 0.68095 0.10702 0.18001
 C551 C 0.68533 0.11422 0.16439
 H552 H 0.66104 0.11630 0.19815
 H553 H 0.69556 0.11008 0.15590
 Cu554 Cu 0.64851 0.14919 0.17620
 Cu555 Cu 0.67551 0.14458 0.14281
 Cu556 Cu 0.64301 0.17560 0.14252
 N557 N 0.62857 0.16431 0.17428
 N558 N 0.62636 0.17465 0.16118
 C559 C 0.61228 0.18459 0.16395
 C560 C 0.60529 0.18025 0.17967
 C561 C 0.61599 0.16724 0.18577
 H562 H 0.60786 0.19465 0.15542
 H563 H 0.61530 0.16098 0.19805
 N564 N 0.66123 0.17437 0.12494
 N565 N 0.67363 0.16259 0.12507
 C566 C 0.68483 0.16600 0.11236
 C567 C 0.67930 0.18070 0.10378
 C568 C 0.66423 0.18559 0.11215
 H569 H 0.69653 0.15868 0.11002
 H570 H 0.65639 0.19689 0.10962
 H571 H 0.66450 0.16575 0.15484
 H572 H 0.64925 0.14964 0.14528
 N573 N 0.17527 0.62716 0.16088
 N574 N 0.16362 0.62820 0.17310
 C575 C 0.16692 0.61585 0.18475
 C576 C 0.18140 0.60649 0.17961
 C577 C 0.18625 0.61411 0.16436
 H578 H 0.15960 0.61411 0.19637
 H579 H 0.19738 0.61087 0.15661
 Cu580 Cu 0.14615 0.64648 0.17291
 Cu581 Cu 0.17624 0.64374 0.14225
 Cu582 Cu 0.14531 0.67634 0.14197
 N583 N 0.12868 0.66475 0.17269
 N584 N 0.12840 0.67637 0.16041
 C585 C 0.11562 0.68781 0.16351
 C586 C 0.10737 0.68327 0.17855
 C587 C 0.11610 0.66853 0.18399
 H588 H 0.11285 0.69886 0.15551
 H589 H 0.11372 0.66129 0.19553
 N590 N 0.16348 0.67417 0.12441
 N591 N 0.17519 0.66171 0.12449
 C592 C 0.18647 0.66443 0.11169
 C593 C 0.18174 0.67938 0.10309
 C594 C 0.16703 0.68514 0.11154
 H595 H 0.19774 0.65650 0.10929
 H596 H 0.15984 0.69685 0.10899
 H597 H 0.16503 0.66419 0.15514
 H598 H 0.15026 0.65011 0.14243
 N599 N 0.17518 0.12672 0.66141
 N600 N 0.16344 0.12775 0.67354
 C601 C 0.16675 0.11542 0.68525
 C602 C 0.18142 0.10626 0.68027
 C603 C 0.18633 0.11386 0.66500
 H604 H 0.15937 0.11381 0.69682
 H605 H 0.19755 0.11071 0.65731
 Cu606 Cu 0.14583 0.14588 0.67317
 Cu607 Cu 0.17617 0.14333 0.64272
 Cu608 Cu 0.14502 0.17587 0.64236
 N609 N 0.12832 0.16412 0.67300
 N610 N 0.12802 0.17578 0.66080
 C611 C 0.11534 0.18729 0.66393
 C612 C 0.10707 0.18268 0.67897
 C613 C 0.11569 0.16782 0.68430
 H614 H 0.11264 0.19846 0.65601
 H615 H 0.11344 0.16052 0.69580
 N616 N 0.16326 0.17373 0.62483
 N617 N 0.17503 0.16132 0.62492
 C618 C 0.18634 0.16412 0.61215
 C619 C 0.18153 0.17906 0.60358
 C620 C 0.16678 0.18473 0.61200
 H621 H 0.19767 0.15626 0.60977
 H622 H 0.15955 0.19644 0.60948
 H623 H 0.16477 0.16373 0.65551
 H624 H 0.15020 0.14966 0.64267
 N625 N 0.32455 0.62834 0.33997
 N626 N 0.33486 0.62939 0.32670
 C627 C 0.33108 0.61651 0.31578
 C628 C 0.31756 0.60684 0.32245
 C629 C 0.31381 0.61475 0.33790
 H630 H 0.33724 0.61481 0.30353
 H631 H 0.30365 0.61129 0.34674
 Cu632 Cu 0.35118 0.64833 0.32390
 Cu633 Cu 0.32479 0.64567 0.35803
 Cu634 Cu 0.35692 0.67685 0.35585
 N635 N 0.37069 0.66423 0.32424
 N636 N 0.37294 0.67530 0.33675
 C637 C 0.38672 0.68536 0.33322
 C638 C 0.39351 0.68039 0.31759
 C639 C 0.38296 0.66686 0.31234
 H640 H 0.39106 0.69587 0.34123
 H641 H 0.38374 0.65980 0.30047
 N642 N 0.33946 0.67627 0.37414
 N643 N 0.32723 0.66438 0.37498
 C644 C 0.31661 0.66816 0.38808
 C645 C 0.32237 0.68322 0.39590
 C646 C 0.33695 0.68792 0.38668
 H647 H 0.30512 0.66084 0.39121
 H648 H 0.34480 0.69934 0.38850
 H649 H 0.33528 0.66600 0.34442
 H650 H 0.35087 0.65068 0.35476
 N651 N 0.32419 0.12855 0.84033
 N652 N 0.33449 0.12939 0.82703
 C653 C 0.33049 0.11651 0.81619
 C654 C 0.31685 0.10708 0.82296
 C655 C 0.31324 0.11512 0.83836
 H656 H 0.33659 0.11463 0.80394
 H657 H 0.30308 0.11183 0.84726
 Cu658 Cu 0.35114 0.14803 0.82423
 Cu659 Cu 0.32478 0.14589 0.85832
 Cu660 Cu 0.35718 0.17679 0.85603
 N661 N 0.37077 0.16375 0.82447
 N662 N 0.37313 0.17495 0.83684
 C663 C 0.38700 0.18484 0.83315
 C664 C 0.39372 0.17959 0.81757
 C665 C 0.38305 0.16609 0.81252
 H666 H 0.39145 0.19543 0.84100
 H667 H 0.38374 0.15887 0.80076
 N668 N 0.33970 0.17636 0.87439
 N669 N 0.32743 0.16452 0.87526
 C670 C 0.31684 0.16830 0.88838
 C671 C 0.32263 0.18333 0.89619
 C672 C 0.33722 0.18801 0.88695
 H673 H 0.30532 0.16103 0.89149
 H674 H 0.34511 0.19941 0.88879
 H675 H 0.33559 0.16618 0.84464
 H676 H 0.35104 0.15080 0.85506
 N677 N 0.82564 0.62808 0.83660
 N678 N 0.83655 0.63001 0.82391
 C679 C 0.83348 0.61772 0.81213
 C680 C 0.81982 0.60749 0.81765
 C681 C 0.81523 0.61450 0.83331
 H682 H 0.84033 0.61672 0.80017
 H683 H 0.80481 0.61035 0.84154
 Cu684 Cu 0.85298 0.64906 0.82312
 Cu685 Cu 0.82496 0.64412 0.85577
 Cu686 Cu 0.85731 0.67512 0.85729
 N687 N 0.87241 0.66487 0.82549
 N688 N 0.87415 0.67493 0.83887
 C689 C 0.88791 0.68537 0.83655
 C690 C 0.89522 0.68173 0.82081
 C691 C 0.88502 0.66855 0.81422
 H692 H 0.89187 0.69531 0.84541
 H693 H 0.88615 0.66263 0.80180
 N694 N 0.83901 0.67330 0.87466
 N695 N 0.82660 0.66159 0.87405
 C696 C 0.81523 0.66474 0.88670
 C697 C 0.82068 0.67921 0.89571
 C698 C 0.83588 0.68420 0.88769
 H699 H 0.80345 0.65747 0.88868
 H700 H 0.84367 0.69544 0.89055
 H701 H 0.83619 0.66533 0.84409
 H702 H 0.85121 0.64914 0.85400
 N703 N 0.82637 0.12708 0.33624
 N704 N 0.83736 0.12949 0.32370
 C705 C 0.83476 0.11727 0.31174
 C706 C 0.82133 0.10661 0.31700
 C707 C 0.81639 0.11327 0.33269
 H708 H 0.84173 0.11663 0.29982
 H709 H 0.80591 0.10884 0.34070
 Cu710 Cu 0.85314 0.14911 0.32336
 Cu711 Cu 0.82468 0.14301 0.35536
 Cu712 Cu 0.85530 0.17565 0.35743
 N713 N 0.87175 0.16583 0.32613
 N714 N 0.87258 0.17620 0.33937
 C715 C 0.88602 0.18713 0.33735
 C716 C 0.89409 0.18343 0.32198
 C717 C 0.88465 0.16976 0.31527
 H718 H 0.88932 0.19732 0.34620
 H719 H 0.88655 0.16359 0.30306
 N720 N 0.83670 0.17291 0.37442
 N721 N 0.82506 0.16044 0.37364
 C722 C 0.81345 0.16270 0.38625
 C723 C 0.81791 0.17736 0.39544
 C724 C 0.83279 0.18344 0.38754
 H725 H 0.80222 0.15461 0.38818
 H726 H 0.83985 0.19510 0.39061
 H727 H 0.83514 0.16472 0.34381
 H728 H 0.85072 0.14943 0.35422
 N729 N 0.67545 0.37272 0.33972
 N730 N 0.66492 0.37112 0.32669
 C731 C 0.66849 0.38358 0.31524
 C732 C 0.68208 0.39354 0.32137
 C733 C 0.68609 0.38624 0.33701
 H734 H 0.66211 0.38483 0.30307
 H735 H 0.69641 0.39003 0.34553
 Cu736 Cu 0.64834 0.35224 0.32504
 Cu737 Cu 0.67590 0.35597 0.35816
 Cu738 Cu 0.64499 0.32353 0.35730
 N739 N 0.62983 0.33520 0.32600
 N740 N 0.62848 0.32401 0.33852
 C741 C 0.61502 0.31337 0.33539
 C742 C 0.60748 0.31813 0.32003
 C743 C 0.61728 0.33209 0.31451
 H744 H 0.61129 0.30271 0.34352
 H745 H 0.61576 0.33918 0.30275
 N746 N 0.66282 0.32529 0.37523
 N747 N 0.67444 0.33780 0.37564
 C748 C 0.68553 0.33483 0.38854
 C749 C 0.68078 0.31963 0.39667
 C750 C 0.66624 0.31401 0.38787
 H751 H 0.69672 0.34274 0.39126
 H752 H 0.65909 0.30219 0.39000
 H753 H 0.66562 0.33515 0.34496
 H754 H 0.64983 0.34983 0.35592
 N755 N 0.67579 0.87197 0.84027
 N756 N 0.66429 0.87202 0.82792
 C757 C 0.66832 0.88461 0.81676
 C758 C 0.68317 0.89298 0.82235
 C759 C 0.68752 0.88455 0.83736
 H760 H 0.66133 0.88705 0.80510
 H761 H 0.69865 0.88700 0.84536
 Cu762 Cu 0.64593 0.85480 0.82704
 Cu763 Cu 0.67543 0.85461 0.85838
 Cu764 Cu 0.64270 0.82369 0.85667
 N765 N 0.62761 0.83753 0.82604
 N766 N 0.62636 0.82542 0.83772
 C767 C 0.61330 0.81465 0.83356
 C768 C 0.60593 0.82027 0.81841
 C769 C 0.61542 0.83487 0.81406
 H770 H 0.60987 0.80324 0.84077
 H771 H 0.61393 0.84266 0.80275
 N772 N 0.66048 0.82422 0.87480
 N773 N 0.67286 0.83599 0.87546
 C774 C 0.68356 0.83220 0.88848
 C775 C 0.67777 0.81724 0.89642
 C776 C 0.66302 0.81264 0.88739
 H777 H 0.69515 0.83943 0.89146
 H778 H 0.65507 0.80131 0.88939
 H779 H 0.66341 0.83530 0.84444
 H780 H 0.64916 0.84961 0.85750
 N781 N 0.17440 0.37125 0.83766
 N782 N 0.16352 0.36930 0.82495
 C783 C 0.16640 0.38176 0.81331
 C784 C 0.17991 0.39211 0.81894
 C785 C 0.18461 0.38501 0.83452
 H786 H 0.15954 0.38278 0.80137
 H787 H 0.19499 0.38920 0.84278
 Cu788 Cu 0.14743 0.35000 0.82396
 Cu789 Cu 0.17535 0.35496 0.85661
 Cu790 Cu 0.14332 0.32366 0.85788
 N791 N 0.12805 0.33415 0.82629
 N792 N 0.12638 0.32397 0.83957
 C793 C 0.11262 0.31354 0.83724
 C794 C 0.10524 0.31734 0.82159
 C795 C 0.11538 0.33059 0.81506
 H796 H 0.10874 0.30349 0.84602
 H797 H 0.11420 0.33665 0.80272
 N798 N 0.16170 0.32538 0.87516
 N799 N 0.17400 0.33721 0.87464
 C800 C 0.18539 0.33408 0.88728
 C801 C 0.18004 0.31951 0.89618
 C802 C 0.16491 0.31443 0.88810
 H803 H 0.19706 0.34149 0.88936
 H804 H 0.15719 0.30312 0.89090
 H805 H 0.16434 0.33373 0.84479
 H806 H 0.14916 0.34970 0.85483
 N807 N 0.17517 0.87200 0.33951
 N808 N 0.16372 0.87130 0.32717
 C809 C 0.16730 0.88378 0.31571
 C810 C 0.18179 0.89286 0.32115
 C811 C 0.18639 0.88497 0.33637
 H812 H 0.16010 0.88578 0.30410
 H813 H 0.19735 0.88807 0.34437
 Cu814 Cu 0.14591 0.85343 0.32682
 Cu815 Cu 0.17545 0.85525 0.35814
 Cu816 Cu 0.14357 0.82364 0.35771
 N817 N 0.12800 0.83564 0.32670
 N818 N 0.12712 0.82414 0.33897
 C819 C 0.11424 0.81292 0.33564
 C820 C 0.10656 0.81755 0.32035
 C821 C 0.11568 0.83208 0.31506
 H822 H 0.11103 0.80198 0.34361
 H823 H 0.11385 0.83926 0.30341
 N824 N 0.16130 0.82515 0.37560
 N825 N 0.17349 0.83712 0.37578
 C826 C 0.18443 0.83379 0.38874
 C827 C 0.17893 0.81894 0.39709
 C828 C 0.16417 0.81392 0.38839
 H829 H 0.19598 0.84120 0.39138
 H830 H 0.15651 0.80245 0.39066
 H831 H 0.16401 0.83526 0.34492
 H832 H 0.14941 0.84979 0.35740
 C833 C 0.25146 1.04621 0.25282
 C834 C 0.26346 1.03716 0.24297
 C835 C 0.26338 1.01901 0.24287
 C836 C 0.25056 1.00958 0.25188
 C837 C 0.23823 1.01915 0.26141
 C838 C 0.23902 1.03726 0.26221
 C839 C 0.24997 0.99005 0.25125
 C840 C 0.24054 0.98038 0.26350
 C841 C 0.23968 0.96227 0.26255
 C842 C 0.24890 0.95344 0.24998
 C843 C 0.25864 0.96259 0.23806
 C844 C 0.25882 0.98072 0.23835
 H845 H 0.25175 1.06026 0.25313
 H846 H 0.27343 1.01255 0.23571
 H847 H 0.22782 1.01284 0.26817
 H848 H 0.23391 0.98661 0.27395
 H849 H 0.24857 0.93940 0.24953
 H850 H 0.26587 0.98722 0.22835
 C851 C 0.25046 0.54581 0.75218
 C852 C 0.25947 0.53683 0.73957
 C853 C 0.25888 0.51871 0.73906
 C854 C 0.25001 0.50921 0.75181
 C855 C 0.24134 0.51867 0.76472
 C856 C 0.24123 0.53681 0.76460
 C857 C 0.24987 0.48969 0.75166
 C858 C 0.23713 0.48019 0.76070
 C859 C 0.23737 0.46203 0.76082
 C860 C 0.24968 0.45307 0.75124
 C861 C 0.26208 0.46212 0.74190
 C862 C 0.26252 0.48023 0.74246
 H863 H 0.25061 0.55986 0.75232
 H864 H 0.26534 0.51231 0.72859
 H865 H 0.23468 0.51222 0.77503
 H866 H 0.22690 0.48664 0.76764
 H867 H 0.24963 0.43901 0.75105
 H868 H 0.27286 0.48667 0.73571
 C869 C 0.74884 -0.04563 0.25131
 C870 C 0.75890 -0.03648 0.26296
 C871 C 0.75906 -0.01834 0.26265
 C872 C 0.74986 -0.00903 0.24998
 C873 C 0.74012 -0.01874 0.23800
 C874 C 0.73929 -0.03683 0.23900
 C875 C 0.75049 0.01050 0.24919
 C876 C 0.73807 0.02005 0.23976
 C877 C 0.73900 0.03814 0.23871
 C878 C 0.75167 0.04711 0.24776
 C879 C 0.76375 0.03809 0.25752
 C880 C 0.76352 0.01995 0.25788
 H881 H 0.74853 -0.05967 0.25175
 H882 H 0.76643 -0.01184 0.27244
 H883 H 0.73319 -0.01258 0.22770
 H884 H 0.72750 0.01375 0.23324
 H885 H 0.75207 0.06115 0.24727
 H886 H 0.77362 0.01352 0.26497
 C887 C 0.74960 0.45405 0.74987
 C888 C 0.75918 0.46310 0.76199
 C889 C 0.75900 0.48122 0.76214
 C890 C 0.74996 0.49070 0.74949
 C891 C 0.74070 0.48113 0.73702
 C892 C 0.74018 0.46299 0.73754
 C893 C 0.75021 0.51026 0.74932
 C894 C 0.73785 0.51981 0.73984
 C895 C 0.73842 0.53793 0.73930
 C896 C 0.75063 0.54691 0.74893
 C897 C 0.76264 0.53789 0.75877
 C898 C 0.76279 0.51974 0.75863
 H899 H 0.74953 0.44000 0.75000
 H900 H 0.76596 0.48762 0.77226
 H901 H 0.73390 0.48745 0.72674
 H902 H 0.72762 0.51349 0.73284
 H903 H 0.75077 0.56096 0.74876
 H904 H 0.77286 0.51332 0.76580
 C905 C 0.24937 0.45472 0.25129
 C906 C 0.26154 0.46366 0.26100
 C907 C 0.26182 0.48181 0.26084
 C908 C 0.24921 0.49136 0.25165
 C909 C 0.23669 0.48190 0.24229
 C910 C 0.23712 0.46378 0.24177
 C911 C 0.24909 0.51091 0.25184
 C912 C 0.23993 0.52048 0.23934
 C913 C 0.23943 0.53861 0.23986
 C914 C 0.24880 0.54754 0.25222
 C915 C 0.25833 0.53848 0.26439
 C916 C 0.25813 0.52034 0.26452
 H917 H 0.24944 0.44067 0.25113
 H918 H 0.27200 0.48817 0.26789
 H919 H 0.22643 0.48832 0.23539
 H920 H 0.23320 0.51416 0.22902
 H921 H 0.24872 0.56160 0.25234
 H922 H 0.26502 0.51391 0.27468
 C923 C 0.74825 1.04522 0.74837
 C924 C 0.76078 1.03624 0.73912
 C925 C 0.76159 1.01814 0.73997
 C926 C 0.74917 1.00863 0.74943
 C927 C 0.73629 1.01810 0.75838
 C928 C 0.73617 1.03625 0.75816
 C929 C 0.74968 0.98911 0.74998
 C930 C 0.74109 0.97976 0.76303
 C931 C 0.74123 0.96161 0.76319
 C932 C 0.75062 0.95251 0.75094
 C933 C 0.75956 0.96137 0.73822
 C934 C 0.75875 0.97948 0.73743
 H935 H 0.74791 1.05927 0.74797
 H936 H 0.77205 1.01177 0.73329
 H937 H 0.72623 1.01166 0.76554
 H938 H 0.73428 0.98630 0.77319
 H939 H 0.75093 0.93847 0.75126
 H940 H 0.76516 0.98576 0.72688
 C941 C 0.74890 0.54535 0.24908
 C942 C 0.76172 0.53631 0.24026
 C943 C 0.76211 0.51819 0.24069
 C944 C 0.74902 0.50876 0.24925
 C945 C 0.73587 0.51824 0.25775
 C946 C 0.73613 0.53639 0.25802
 C947 C 0.74914 0.48926 0.24934
 C948 C 0.74021 0.47987 0.26209
 C949 C 0.73999 0.46174 0.26191
 C950 C 0.74934 0.45267 0.24960
 C951 C 0.75861 0.46160 0.23715
 C952 C 0.75820 0.47974 0.23672
 H953 H 0.74887 0.55941 0.24902
 H954 H 0.77272 0.51170 0.23435
 H955 H 0.72532 0.51178 0.26418
 H956 H 0.73344 0.48639 0.27230
 H957 H 0.74939 0.43862 0.24970
 H958 H 0.76489 0.48616 0.22642
 C959 C 0.25032 -0.04549 0.75139
 C960 C 0.26235 -0.03647 0.76121
 C961 C 0.26227 -0.01832 0.76132
 C962 C 0.24945 -0.00888 0.75228
 C963 C 0.23709 -0.01843 0.74282
 C964 C 0.23787 -0.03653 0.74204
 C965 C 0.24897 0.01064 0.75270
 C966 C 0.23981 0.02021 0.74018
 C967 C 0.23907 0.03833 0.74085
 C968 C 0.24816 0.04726 0.75341
 C969 C 0.25767 0.03821 0.76560
 C970 C 0.25771 0.02007 0.76557
 H971 H 0.25064 -0.05954 0.75102
 H972 H 0.27234 -0.01186 0.76844
 H973 H 0.22669 -0.01211 0.73604
 H974 H 0.23331 0.01387 0.72972
 H975 H 0.24791 0.06131 0.75364
 H976 H 0.26460 0.01359 0.77571
 C977 C 0.24942 0.24953 1.04676
 C978 C 0.24039 0.26239 1.03802
 C979 C 0.24124 0.26321 1.02022
 C980 C 0.25049 0.25056 1.01078
 C981 C 0.25918 0.23737 1.02000
 C982 C 0.25899 0.23718 1.03784
 C983 C 0.25111 0.25115 0.99158
 C984 C 0.26416 0.24221 0.98235
 C985 C 0.26439 0.24244 0.96451
 C986 C 0.25224 0.25225 0.95560
 C987 C 0.23953 0.26150 0.96435
 C988 C 0.23865 0.26064 0.98215
 H989 H 0.24906 0.24917 1.06057
 H990 H 0.23475 0.27388 1.01401
 H991 H 0.26611 0.22710 1.01358
 H992 H 0.27427 0.23507 0.98876
 H993 H 0.25263 0.25262 0.94179
 H994 H 0.22808 0.26731 0.98836
 C995 C 0.25043 0.75087 0.54651
 C996 C 0.24090 0.76327 0.53764
 C997 C 0.24147 0.76373 0.51981
 C998 C 0.25092 0.75110 0.51052
 C999 C 0.26010 0.73837 0.51986
 C1000 C 0.26018 0.73859 0.53768
 C1001 C 0.25116 0.75115 0.49135
 C1002 C 0.26442 0.74255 0.48210
 C1003 C 0.26423 0.74224 0.46426
 C1004 C 0.25145 0.75123 0.45537
 C1005 C 0.23854 0.76016 0.46417
 C1006 C 0.23806 0.75976 0.48197
 H1007 H 0.25025 0.75076 0.56032
 H1008 H 0.23456 0.77406 0.51348
 H1009 H 0.26719 0.72813 0.51355
 H1010 H 0.27501 0.73607 0.48848
 H1011 H 0.25154 0.75128 0.44155
 H1012 H 0.22734 0.76616 0.48823
 C1013 C 0.24817 0.75285 -0.04663
 C1014 C 0.26103 0.76191 -0.03794
 C1015 C 0.26205 0.76095 -0.02016
 C1016 C 0.24955 0.75160 -0.01065
 C1017 C 0.23632 0.74293 -0.01982
 C1018 C 0.23600 0.74317 -0.03765
 C1019 C 0.25035 0.75082 0.00855
 C1020 C 0.24108 0.73806 0.01778
 C1021 C 0.24145 0.73771 0.03560
 C1022 C 0.25179 0.74939 0.04452
 C1023 C 0.26140 0.76179 0.03577
 C1024 C 0.26037 0.76284 0.01799
 H1025 H 0.24771 0.75324 -0.06044
 H1026 H 0.27276 0.76745 -0.01406
 H1027 H 0.22613 0.73592 -0.01341
 H1028 H 0.23353 0.72823 0.01143
 H1029 H 0.25228 0.74889 0.05833
 H1030 H 0.26734 0.77322 0.01185
 C1031 C 0.24917 0.25124 0.45396
 C1032 C 0.26146 0.26098 0.46273
 C1033 C 0.26199 0.26059 0.48056
 C1034 C 0.24955 0.25111 0.49000
 C1035 C 0.23687 0.24173 0.48072
 C1036 C 0.23704 0.24145 0.46288
 C1037 C 0.24984 0.25096 0.50924
 C1038 C 0.24074 0.23815 0.51857
 C1039 C 0.24063 0.23829 0.53639
 C1040 C 0.25030 0.25055 0.54527
 C1041 C 0.25978 0.26302 0.53646
 C1042 C 0.25922 0.26356 0.51862
 H1043 H 0.24905 0.25128 0.44014
 H1044 H 0.27228 0.26767 0.48674
 H1045 H 0.22670 0.23460 0.48704
 H1046 H 0.23373 0.22789 0.51229
 H1047 H 0.25045 0.25039 0.55909
 H1048 H 0.26609 0.27395 0.51238
 C1049 C 0.75121 0.74960 1.04588
 C1050 C 0.74155 0.76187 1.03697
 C1051 C 0.74146 0.76177 1.01915
 C1052 C 0.75026 0.74870 1.00988
 C1053 C 0.75964 0.73611 1.01929
 C1054 C 0.76043 0.73688 1.03711
 C1055 C 0.74958 0.74820 0.99067
 C1056 C 0.76194 0.73868 0.98114
 C1057 C 0.76103 0.73793 0.96334
 C1058 C 0.74840 0.74736 0.95467
 C1059 C 0.73634 0.75722 0.96368
 C1060 C 0.73659 0.75729 0.98152
 H1061 H 0.75148 0.74992 1.05970
 H1062 H 0.73446 0.77201 1.01279
 H1063 H 0.76629 0.72555 1.01305
 H1064 H 0.77245 0.73186 0.98728
 H1065 H 0.74799 0.74707 0.94086
 H1066 H 0.72651 0.76446 0.98796
 C1067 C 0.75069 0.24883 0.54604
 C1068 C 0.73816 0.25823 0.53723
 C1069 C 0.73745 0.25748 0.51944
 C1070 C 0.74997 0.24803 0.51006
 C1071 C 0.76285 0.23893 0.51931
 C1072 C 0.76286 0.23900 0.53716
 C1073 C 0.74955 0.24770 0.49087
 C1074 C 0.75827 0.23460 0.48157
 C1075 C 0.75822 0.23465 0.46373
 C1076 C 0.74874 0.24711 0.45489
 C1077 C 0.73969 0.25988 0.46374
 C1078 C 0.74045 0.26051 0.48154
 H1079 H 0.75096 0.24914 0.55985
 H1080 H 0.72698 0.26427 0.51322
 H1081 H 0.77299 0.23178 0.51292
 H1082 H 0.76513 0.22424 0.48790
 H1083 H 0.74847 0.24691 0.44107
 H1084 H 0.73397 0.27116 0.48782
 C1085 C 0.75208 0.24707 -0.04712
 C1086 C 0.76123 0.25977 -0.03829
 C1087 C 0.76052 0.26038 -0.02048
 C1088 C 0.75136 0.24764 -0.01111
 C1089 C 0.74254 0.23462 -0.02042
 C1090 C 0.74255 0.23468 -0.03826
 C1091 C 0.75095 0.24798 0.00810
 C1092 C 0.73815 0.23880 0.01739
 C1093 C 0.73810 0.23891 0.03524
 C1094 C 0.75016 0.24885 0.04410
 C1095 C 0.76263 0.25832 0.03528
 C1096 C 0.76336 0.25755 0.01748
 H1097 H 0.75231 0.24688 -0.06094
 H1098 H 0.76708 0.27097 -0.01423
 H1099 H 0.73563 0.22432 -0.01409
 H1100 H 0.72807 0.23157 0.01104
 H1101 H 0.74988 0.24918 0.05791
 H1102 H 0.77377 0.26442 0.01126
 C1103 C 0.75171 0.74758 0.45341
 C1104 C 0.76096 0.76021 0.46223
 C1105 C 0.76024 0.76085 0.48004
 C1106 C 0.75096 0.74819 0.48942
 C1107 C 0.74202 0.73526 0.48011
 C1108 C 0.74205 0.73529 0.46227
 C1109 C 0.75063 0.74847 0.50863
 C1110 C 0.73790 0.73922 0.51796
 C1111 C 0.73799 0.73920 0.53581
 C1112 C 0.75013 0.74907 0.54465
 C1113 C 0.76251 0.75862 0.53580
 C1114 C 0.76310 0.75798 0.51800
 H1115 H 0.75197 0.74737 0.43959
 H1116 H 0.76690 0.77138 0.48628
 H1117 H 0.73499 0.72502 0.48642
 H1118 H 0.72776 0.73204 0.51165
 H1119 H 0.74996 0.74931 0.55847
 H1120 H 0.77345 0.76491 0.51176
 C1121 C 1.04586 0.24898 0.24846
 C1122 C 1.03676 0.23717 0.25845
 C1123 C 1.01863 0.23744 0.25869
 C1124 C 1.00925 0.25029 0.24968
 C1125 C 1.01885 0.26245 0.24001
 C1126 C 1.03696 0.26146 0.23907
 C1127 C 0.98972 0.25104 0.25046
 C1128 C 0.98005 0.26029 0.23811
 C1129 C 0.96195 0.26122 0.23909
 C1130 C 0.95310 0.25224 0.25179
 C1131 C 0.96227 0.24266 0.26385
 C1132 C 0.98041 0.24244 0.26351
 H1133 H 1.05992 0.24854 0.24807
 H1134 H 1.01213 0.22751 0.26595
 H1135 H 1.01256 0.27287 0.23325
 H1136 H 0.98628 0.26672 0.22754
 H1137 H 0.93905 0.25261 0.25225
 H1138 H 0.98696 0.23551 0.27357
 C1139 C 0.54635 0.25200 0.75251
 C1140 C 0.53713 0.24225 0.76436
 C1141 C 0.51900 0.24174 0.76371
 C1142 C 0.50982 0.25025 0.75051
 C1143 C 0.51958 0.25964 0.73832
 C1144 C 0.53763 0.26085 0.73964
 C1145 C 0.49034 0.24928 0.74939
 C1146 C 0.48078 0.26151 0.73974
 C1147 C 0.46273 0.26032 0.73841
 C1148 C 0.45379 0.24756 0.74737
 C1149 C 0.46282 0.23569 0.75738
 C1150 C 0.48095 0.23618 0.75802
 H1151 H 0.56039 0.25254 0.75320
 H1152 H 0.51237 0.23465 0.77362
 H1153 H 0.51345 0.26598 0.72764
 H1154 H 0.48708 0.27215 0.73331
 H1155 H 0.43976 0.24700 0.74670
 H1156 H 0.48745 0.22626 0.76531
 C1157 C -0.04639 0.25003 0.75017
 C1158 C -0.03742 0.26250 0.75949
 C1159 C -0.01927 0.26294 0.75897
 C1160 C -0.00978 0.25020 0.74983
 C1161 C -0.01925 0.23743 0.74087
 C1162 C -0.03738 0.23768 0.74072
 C1163 C 0.00975 0.25012 0.74975
 C1164 C 0.01924 0.24122 0.73697
 C1165 C 0.03741 0.24074 0.73736
 C1166 C 0.04637 0.24985 0.74990
 C1167 C 0.03733 0.25907 0.76233
 C1168 C 0.01921 0.25886 0.76257
 H1169 H -0.06044 0.24993 0.75028
 H1170 H -0.01285 0.27331 0.76572
 H1171 H -0.01284 0.22711 0.73401
 H1172 H 0.01279 0.23468 0.72659
 H1173 H 0.06042 0.24976 0.74998
 H1174 H 0.01276 0.26549 0.77291
 C1175 C 0.45383 0.25129 0.24844
 C1176 C 0.46274 0.26098 0.26056
 C1177 C 0.48086 0.26045 0.26121
 C1178 C 0.49054 0.25080 0.24913
 C1179 C 0.48109 0.24139 0.23666
 C1180 C 0.46292 0.24132 0.23664
 C1181 C 0.51016 0.25049 0.24961
 C1182 C 0.51972 0.23829 0.23990
 C1183 C 0.53786 0.23830 0.24000
 C1184 C 0.54686 0.24979 0.25041
 C1185 C 0.53786 0.26165 0.26046
 C1186 C 0.51971 0.26235 0.25977
 H1187 H 0.43977 0.25145 0.24824
 H1188 H 0.48702 0.26756 0.27135
 H1189 H 0.48746 0.23404 0.22678
 H1190 H 0.51345 0.22858 0.23220
 H1191 H 0.56092 0.24951 0.25067
 H1192 H 0.51345 0.27232 0.26717
 C1193 C 1.04690 0.74874 0.74807
 C1194 C 1.03787 0.73643 0.75754
 C1195 C 1.01971 0.73648 0.75765
 C1196 C 1.01026 0.74957 0.74904
 C1197 C 1.01980 0.76221 0.73993
 C1198 C 1.03791 0.76145 0.73909
 C1199 C 0.99074 0.75008 0.74962
 C1200 C 0.98109 0.75963 0.73746
 C1201 C 0.96297 0.76040 0.73832
 C1202 C 0.95411 0.75095 0.75069
 C1203 C 0.96326 0.74108 0.76251
 C1204 C 0.98139 0.74099 0.76232
 H1205 H 1.06096 0.74848 0.74774
 H1206 H 1.01324 0.72623 0.76449
 H1207 H 1.01344 0.77281 0.73350
 H1208 H 0.98735 0.76643 0.72714
 H1209 H 0.94006 0.75122 0.75107
 H1210 H 0.98791 0.73381 0.77222
 C1211 C 0.54635 0.75126 0.25048
 C1212 C 0.53724 0.74197 0.26277
 C1213 C 0.51909 0.74201 0.26270
 C1214 C 0.50973 0.75067 0.24970
 C1215 C 0.51936 0.75966 0.23711
 C1216 C 0.53749 0.76028 0.23781
 C1217 C 0.49019 0.75030 0.24927
 C1218 C 0.48063 0.76285 0.24003
 C1219 C 0.46248 0.76223 0.23944
 C1220 C 0.45355 0.74969 0.24871
 C1221 C 0.46261 0.73745 0.25823
 C1222 C 0.48076 0.73742 0.25818
 H1223 H 0.56041 0.75145 0.25076
 H1224 H 0.51256 0.73528 0.27291
 H1225 H 0.51305 0.76614 0.22662
 H1226 H 0.48703 0.77326 0.23333
 H1227 H 0.43949 0.74947 0.24855
 H1228 H 0.48726 0.72723 0.26511
 C1229 C -0.04646 0.75103 0.24932
 C1230 C -0.03742 0.76318 0.25897
 C1231 C -0.01926 0.76351 0.25853
 C1232 C -0.00979 0.75098 0.24908
 C1233 C -0.01937 0.73850 0.23979
 C1234 C -0.03750 0.73887 0.23957
 C1235 C 0.00978 0.75088 0.24896
 C1236 C 0.01925 0.74169 0.23633
 C1237 C 0.03741 0.74126 0.23663
 C1238 C 0.04644 0.75068 0.24886
 C1239 C 0.03750 0.76019 0.26112
 C1240 C 0.01936 0.75995 0.26151
 H1241 H -0.06052 0.75103 0.24938
 H1242 H -0.01285 0.77367 0.26556
 H1243 H -0.01304 0.72831 0.23270
 H1244 H 0.01283 0.73489 0.22611
 H1245 H 0.06050 0.75061 0.24885
 H1246 H 0.01304 0.76680 0.27177
 C1247 C 0.45345 0.74896 0.75082
 C1248 C 0.46254 0.75885 0.76267
 C1249 C 0.48067 0.75890 0.76259
 C1250 C 0.49007 0.74974 0.74997
 C1251 C 0.48049 0.74018 0.73775
 C1252 C 0.46236 0.73945 0.73850
 C1253 C 0.50961 0.75015 0.74959
 C1254 C 0.51914 0.73743 0.74057
 C1255 C 0.53724 0.73806 0.73987
 C1256 C 0.54624 0.75071 0.74891
 C1257 C 0.53725 0.76309 0.75834
 C1258 C 0.51908 0.76318 0.75831
 H1259 H 0.43940 0.74875 0.75113
 H1260 H 0.48714 0.76612 0.77249
 H1261 H 0.48681 0.73333 0.72748
 H1262 H 0.51278 0.72686 0.73408
 H1263 H 0.56030 0.75088 0.74868
 H1264 H 0.51264 0.77349 0.76512
 C1265 C 0.43320 0.29109 0.29185
 C1266 C 0.42735 0.30711 0.28584
 C1267 C 0.41514 0.31657 0.29514
 C1268 C 0.40852 0.31007 0.31058
 C1269 C 0.41495 0.29421 0.31679
 C1270 C 0.42716 0.28477 0.30744
 C1271 C 0.44435 0.28059 0.28142
 C1272 C 0.45307 0.27166 0.27220
 H1273 H 0.43191 0.31210 0.27375
 H1274 H 0.41070 0.32881 0.29004
 H1275 H 0.41021 0.28873 0.32857
 H1276 H 0.43156 0.27233 0.31216
 C1277 C 0.43316 0.78980 0.79327
 C1278 C 0.42551 0.80422 0.78559
 C1279 C 0.41326 0.81405 0.79443
 C1280 C 0.40830 0.80954 0.81116
 C1281 C 0.41669 0.79534 0.81898
 C1282 C 0.42895 0.78552 0.81005
 C1283 C 0.44433 0.77878 0.78338
 C1284 C 0.45301 0.76960 0.77435
 H1285 H 0.42868 0.80762 0.77257
 H1286 H 0.40748 0.82489 0.78785
 H1287 H 0.41362 0.79140 0.83183
 H1288 H 0.43483 0.77436 0.81611
 C1289 C -0.06772 0.29352 0.78933
 C1290 C -0.07457 0.30914 0.78332
 C1291 C -0.08712 0.31800 0.79279
 C1292 C -0.09313 0.31130 0.80842
 C1293 C -0.08577 0.29581 0.81455
 C1294 C -0.07320 0.28700 0.80505
 C1295 C -0.05615 0.28345 0.77884
 C1296 C -0.04715 0.27433 0.77000
 H1297 H -0.07050 0.31426 0.77111
 H1298 H -0.09229 0.32991 0.78764
 H1299 H -0.08996 0.29018 0.82647
 H1300 H -0.06806 0.27485 0.80976
 C1301 C -0.06771 0.79381 0.28922
 C1302 C -0.07449 0.80952 0.28337
 C1303 C -0.08707 0.81830 0.29290
 C1304 C -0.09317 0.81143 0.30841
 C1305 C -0.08589 0.79583 0.31438
 C1306 C -0.07330 0.78710 0.30483
 C1307 C -0.05609 0.78387 0.27866
 C1308 C -0.04710 0.77487 0.26971
 H1309 H -0.07034 0.81481 0.27126
 H1310 H -0.09216 0.83031 0.28790
 H1311 H -0.09016 0.79006 0.32620
 H1312 H -0.06822 0.77487 0.30943
 C1313 C 0.56706 0.71262 0.29447
 C1314 C 0.57211 0.69631 0.28850
 C1315 C 0.58455 0.68669 0.29730
 C1316 C 0.59225 0.69330 0.31221
 C1317 C 0.58669 0.70951 0.31840
 C1318 C 0.57421 0.71913 0.30954
 C1319 C 0.55566 0.72314 0.28429
 C1320 C 0.54682 0.73182 0.27494
 H1321 H 0.56672 0.69119 0.27680
 H1322 H 0.58827 0.67420 0.29222
 H1323 H 0.59227 0.71506 0.32979
 H1324 H 0.57047 0.73180 0.31420
 C1325 C 0.56679 0.21237 0.79567
 C1326 C 0.57182 0.19618 0.78936
 C1327 C 0.58430 0.18638 0.79791
 C1328 C 0.59205 0.19269 0.81291
 C1329 C 0.58650 0.20878 0.81945
 C1330 C 0.57399 0.21857 0.81083
 C1331 C 0.55542 0.22311 0.78570
 C1332 C 0.54662 0.23195 0.77647
 H1333 H 0.56641 0.19132 0.77756
 H1334 H 0.58801 0.17400 0.79258
 H1335 H 0.59213 0.21412 0.83091
 H1336 H 0.57028 0.23116 0.81574
 C1337 C 1.06743 0.70499 0.78748
 C1338 C 1.07506 0.68974 0.78142
 C1339 C 1.08736 0.68102 0.79131
 C1340 C 1.09230 0.68750 0.80737
 C1341 C 1.08408 0.70255 0.81354
 C1342 C 1.07179 0.71122 0.80364
 C1343 C 1.05624 0.71509 0.77670
 C1344 C 1.04749 0.72436 0.76783
 H1345 H 1.07183 0.68482 0.76889
 H1346 H 1.09321 0.66942 0.78614
 H1347 H 1.08739 0.70796 0.82581
 H1348 H 1.06602 0.72307 0.80842
 C1349 C 1.06620 0.20631 0.28908
 C1350 C 1.07273 0.19037 0.28357
 C1351 C 1.08511 0.18164 0.29333
 C1352 C 1.09123 0.18879 0.30870
 C1353 C 1.08407 0.20453 0.31441
 C1354 C 1.07168 0.21323 0.30463
 C1355 C 1.05499 0.21630 0.27822
 C1356 C 1.04629 0.22539 0.26913
 H1357 H 1.06861 0.18491 0.27153
 H1358 H 1.09010 0.16946 0.28860
 H1359 H 1.08840 0.21048 0.32612
 H1360 H 1.06676 0.22561 0.30897
 C1361 C 0.56797 0.29030 0.70855
 C1362 C 0.57510 0.30549 0.71525
 C1363 C 0.58746 0.31477 0.70600
 C1364 C 0.59297 0.30893 0.68988
 C1365 C 0.58537 0.29383 0.68308
 C1366 C 0.57300 0.28458 0.69238
 C1367 C 0.55648 0.28001 0.71880
 C1368 C 0.54749 0.27128 0.72796
 H1369 H 0.57137 0.30998 0.72781
 H1370 H 0.59283 0.32633 0.71169
 H1371 H 0.58913 0.28892 0.67072
 H1372 H 0.56761 0.27278 0.68713
 C1373 C 0.56818 0.78916 0.20651
 C1374 C 0.57456 0.78271 0.19108
 C1375 C 0.58719 0.79192 0.18205
 C1376 C 0.59370 0.80772 0.18841
 C1377 C 0.58684 0.81425 0.20375
 C1378 C 0.57425 0.80500 0.21273
 C1379 C 0.55644 0.77901 0.21666
 C1380 C 0.54733 0.77047 0.22588
 H1381 H 0.57004 0.77037 0.18623
 H1382 H 0.59204 0.78642 0.17031
 H1383 H 0.59129 0.82638 0.20906
 H1384 H 0.56951 0.81004 0.22475
 C1385 C 1.06706 0.29219 0.20892
 C1386 C 1.07273 0.30843 0.21449
 C1387 C 1.08525 0.31748 0.20520
 C1388 C 1.09237 0.31035 0.19023
 C1389 C 1.08616 0.29424 0.18446
 C1390 C 1.07364 0.28522 0.19378
 C1391 C 1.05560 0.28205 0.21938
 C1392 C 1.04668 0.27301 0.22832
 H1393 H 1.06777 0.31393 0.22622
 H1394 H 1.08951 0.32992 0.20996
 H1395 H 1.09131 0.28829 0.17305
 H1396 H 1.06942 0.27259 0.18941
 C1397 C 1.06734 0.79304 0.70922
 C1398 C 1.07350 0.80899 0.71508
 C1399 C 1.08582 0.81812 0.70562
 C1400 C 1.09229 0.81134 0.69020
 C1401 C 1.08550 0.79559 0.68413
 C1402 C 1.07316 0.78650 0.69361
 C1403 C 1.05618 0.78269 0.71977
 C1404 C 1.04748 0.77338 0.72864
 H1405 H 1.06911 0.81417 0.72717
 H1406 H 1.09048 0.83030 0.71063
 H1407 H 1.09008 0.78992 0.67237
 H1408 H 1.06852 0.77412 0.68900
 C1409 C 0.43209 0.70935 0.70779
 C1410 C 0.42634 0.71524 0.69192
 C1411 C 0.41387 0.70587 0.68286
 C1412 C 0.40684 0.69048 0.68959
 C1413 C 0.41309 0.68444 0.70536
 C1414 C 0.42558 0.69383 0.71438
 C1415 C 0.44363 0.71981 0.71790
 C1416 C 0.45260 0.72873 0.72693
 H1417 H 0.43122 0.72728 0.68672
 H1418 H 0.40954 0.71095 0.67076
 H1419 H 0.40819 0.67263 0.71096
 H1420 H 0.42988 0.68916 0.72669
 C1421 C 0.43306 0.21107 0.20573
 C1422 C 0.42607 0.21748 0.19055
 C1423 C 0.41357 0.20793 0.18169
 C1424 C 0.40780 0.19184 0.18797
 C1425 C 0.41535 0.18529 0.20297
 C1426 C 0.42784 0.19485 0.21178
 C1427 C 0.44447 0.22167 0.21583
 C1428 C 0.45332 0.23062 0.22493
 H1429 H 0.42993 0.23007 0.18579
 H1430 H 0.40809 0.21345 0.17024
 H1431 H 0.41145 0.17289 0.20811
 H1432 H 0.43312 0.18977 0.22355
 C1433 C -0.06745 0.70785 0.20960
 C1434 C -0.07358 0.71459 0.19421
 C1435 C -0.08602 0.70556 0.18480
 C1436 C -0.09259 0.68967 0.19073
 C1437 C -0.08588 0.68274 0.20597
 C1438 C -0.07346 0.69181 0.21535
 C1439 C -0.05605 0.71803 0.22008
 C1440 C -0.04719 0.72716 0.22897
 H1441 H -0.06906 0.72705 0.18969
 H1442 H -0.09083 0.71135 0.17319
 H1443 H -0.09040 0.67046 0.21086
 H1444 H -0.06883 0.68648 0.22727
 C1445 C -0.06682 0.20607 0.71097
 C1446 C -0.07335 0.19032 0.71690
 C1447 C -0.08569 0.18130 0.70735
 C1448 C -0.09174 0.18802 0.69176
 C1449 C -0.08459 0.20360 0.68566
 C1450 C -0.07225 0.21256 0.69523
 C1451 C -0.05566 0.21636 0.72155
 C1452 C -0.04696 0.22569 0.73037
 H1453 H -0.06925 0.18523 0.72910
 H1454 H -0.09066 0.16926 0.71238
 H1455 H -0.08886 0.20923 0.67378
 H1456 H -0.06733 0.22482 0.69060
 C1457 C 0.29257 0.43343 0.29075
 C1458 C 0.28586 0.42750 0.30624
 C1459 C 0.29474 0.41490 0.31559
 C1460 C 0.31046 0.40796 0.30952
 C1461 C 0.31735 0.41444 0.29417
 C1462 C 0.30843 0.42703 0.28484
 C1463 C 0.28245 0.44497 0.28033
 C1464 C 0.27332 0.45393 0.27152
 H1465 H 0.27352 0.43229 0.31087
 H1466 H 0.28897 0.41030 0.32729
 H1467 H 0.32949 0.40963 0.28916
 H1468 H 0.31372 0.43148 0.27283
 C1469 C 0.29389 -0.06685 0.79030
 C1470 C 0.28841 -0.07135 0.80668
 C1471 C 0.29722 -0.08413 0.81588
 C1472 C 0.31164 -0.09279 0.80878
 C1473 C 0.31735 -0.08764 0.79245
 C1474 C 0.30850 -0.07485 0.78331
 C1475 C 0.28362 -0.05519 0.78015
 C1476 C 0.27434 -0.04618 0.77153
 H1477 H 0.27704 -0.06528 0.81219
 H1478 H 0.29233 -0.08737 0.82837
 H1479 H 0.32842 -0.09364 0.78641
 H1480 H 0.31281 -0.07153 0.77059
 C1481 C 0.78931 0.43347 0.79310
 C1482 C 0.78432 0.42881 0.80958
 C1483 C 0.79386 0.41645 0.81864
 C1484 C 0.80853 0.40842 0.81128
 C1485 C 0.81373 0.41380 0.79487
 C1486 C 0.80416 0.42614 0.78589
 C1487 C 0.77862 0.44474 0.78300
 C1488 C 0.76969 0.45350 0.77382
 H1489 H 0.77280 0.43441 0.81528
 H1490 H 0.78936 0.41303 0.83124
 H1491 H 0.82494 0.40830 0.78864
 H1492 H 0.80810 0.42964 0.77311
 C1493 C 0.78936 -0.06612 0.29378
 C1494 C 0.78440 -0.07088 0.31024
 C1495 C 0.79391 -0.08336 0.31919
 C1496 C 0.80852 -0.09142 0.31173
 C1497 C 0.81369 -0.08594 0.29534
 C1498 C 0.80415 -0.07348 0.28647
 C1499 C 0.77863 -0.05477 0.28379
 C1500 C 0.76959 -0.04599 0.27471
 H1501 H 0.77292 -0.06528 0.31598
 H1502 H 0.78942 -0.08683 0.33177
 H1503 H 0.82489 -0.09142 0.28905
 H1504 H 0.80805 -0.06991 0.27370
 C1505 C 0.28894 0.56663 0.70796
 C1506 C 0.30482 0.57262 0.71420
 C1507 C 0.31427 0.58498 0.70511
 C1508 C 0.30793 0.59162 0.68962
 C1509 C 0.29216 0.58511 0.68322
 C1510 C 0.28272 0.57276 0.69236
 C1511 C 0.27850 0.55529 0.71826
 C1512 C 0.26976 0.54647 0.72757
 H1513 H 0.30973 0.56802 0.72631
 H1514 H 0.32639 0.58947 0.71041
 H1515 H 0.28682 0.58977 0.67134
 H1516 H 0.27038 0.56828 0.68745
 C1517 C 0.29446 1.06679 0.21258
 C1518 C 0.28799 1.07162 0.19663
 C1519 C 0.29674 1.08389 0.18677
 C1520 C 0.31211 1.09161 0.19276
 C1521 C 0.31880 1.08621 0.20860
 C1522 C 0.31000 1.07394 0.21844
 C1523 C 0.28441 1.05554 0.22337
 C1524 C 0.27529 1.04677 0.23238
 H1525 H 0.27591 1.06624 0.19200
 H1526 H 0.29114 1.08760 0.17469
 H1527 H 0.33065 1.09164 0.21361
 H1528 H 0.31511 1.07034 0.23080
 C1529 C 0.79364 0.56578 0.21085
 C1530 C 0.80949 0.57225 0.21666
 C1531 C 0.81844 0.58461 0.20706
 C1532 C 0.81157 0.59074 0.19156
 C1533 C 0.79590 0.58367 0.18560
 C1534 C 0.78701 0.57133 0.19521
 C1535 C 0.78339 0.55459 0.22144
 C1536 C 0.77396 0.54587 0.23015
 H1537 H 0.81472 0.56809 0.22879
 H1538 H 0.83055 0.58954 0.21199
 H1539 H 0.79015 0.58802 0.17381
 H1540 H 0.77468 0.56647 0.19067
 C1541 C 0.79169 1.06617 0.70900
 C1542 C 0.80790 1.07192 0.71455
 C1543 C 0.81684 1.08455 0.70530
 C1544 C 0.80962 1.09169 0.69039
 C1545 C 0.79357 1.08534 0.68461
 C1546 C 0.78467 1.07271 0.69389
 C1547 C 0.78157 1.05473 0.71949
 C1548 C 0.77247 1.04587 0.72843
 H1549 H 0.81343 1.06698 0.72627
 H1550 H 0.82926 1.08888 0.71004
 H1551 H 0.78755 1.09048 0.67325
 H1552 H 0.77206 1.06841 0.68955
 C1553 C 0.70452 0.56644 0.28737
 C1554 C 0.71095 0.57129 0.30332
 C1555 C 0.70232 0.58376 0.31304
 C1556 C 0.68711 0.59170 0.30692
 C1557 C 0.68046 0.58632 0.29105
 C1558 C 0.68915 0.57383 0.28133
 C1559 C 0.71458 0.55500 0.27677
 C1560 C 0.72390 0.54608 0.26809
 H1561 H 0.72291 0.56574 0.30805
 H1562 H 0.70789 0.58744 0.32513
 H1563 H 0.66874 0.59195 0.28592
 H1564 H 0.68409 0.57024 0.26895
 C1565 C 0.70469 1.06656 0.78747
 C1566 C 0.69047 1.07528 0.78052
 C1567 C 0.68178 1.08794 0.79002
 C1568 C 0.68731 1.09227 0.80664
 C1569 C 0.70134 1.08290 0.81364
 C1570 C 0.70994 1.07023 0.80410
 C1571 C 0.71487 1.05498 0.77711
 C1572 C 0.72414 1.04599 0.76845
 H1573 H 0.68637 1.07260 0.76760
 H1574 H 0.67103 1.09452 0.78403
 H1575 H 0.70605 1.08542 0.82636
 H1576 H 0.72100 1.06361 0.80958
 C1577 C 0.21201 0.56678 0.79629
 C1578 C 0.21866 0.57413 0.81121
 C1579 C 0.20910 0.58667 0.82003
 C1580 C 0.19279 0.59210 0.81395
 C1581 C 0.18603 0.58419 0.79923
 C1582 C 0.19560 0.57167 0.79046
 C1583 C 0.22248 0.55535 0.78610
 C1584 C 0.23113 0.54647 0.77675
 H1585 H 0.23143 0.57052 0.81575
 H1586 H 0.21477 0.59245 0.83127
 H1587 H 0.17346 0.58781 0.79426
 H1588 H 0.19038 0.56613 0.77887
 C1589 C 0.20799 1.06713 0.29237
 C1590 C 0.21500 1.07378 0.30744
 C1591 C 0.20599 1.08633 0.31675
 C1592 C 0.18984 1.09250 0.31103
 C1593 C 0.18263 1.08524 0.29618
 C1594 C 0.19167 1.07269 0.28690
 C1595 C 0.21819 1.05574 0.28186
 C1596 C 0.22733 1.04691 0.27291
 H1597 H 0.22768 1.06963 0.31173
 H1598 H 0.21199 1.09160 0.32807
 H1599 H 0.17014 1.08945 0.29151
 H1600 H 0.18612 1.06765 0.27524
 C1601 C 0.71073 0.43261 0.70640
 C1602 C 0.71715 0.42625 0.69096
 C1603 C 0.70791 0.41364 0.68194
 C1604 C 0.69212 0.40713 0.68831
 C1605 C 0.68558 0.41401 0.70364
 C1606 C 0.69484 0.42660 0.71262
 C1607 C 0.72101 0.44424 0.71658
 C1608 C 0.72973 0.45325 0.72574
 H1609 H 0.72949 0.43076 0.68608
 H1610 H 0.71342 0.40877 0.67020
 H1611 H 0.67344 0.40953 0.70895
 H1612 H 0.68978 0.43136 0.72462
 C1613 C 0.70933 -0.06706 0.20825
 C1614 C 0.69406 -0.07410 0.21487
 C1615 C 0.68482 -0.08649 0.20561
 C1616 C 0.69081 -0.09214 0.18959
 C1617 C 0.70597 -0.08459 0.18287
 C1618 C 0.71517 -0.07218 0.19217
 C1619 C 0.71966 -0.05558 0.21850
 C1620 C 0.72854 -0.04663 0.22754
 H1621 H 0.68951 -0.07029 0.22738
 H1622 H 0.67319 -0.09180 0.21122
 H1623 H 0.71103 -0.08842 0.17059
 H1624 H 0.72705 -0.06686 0.18700
 C1625 C 0.20623 0.43426 0.21127
 C1626 C 0.19047 0.42756 0.21708
 C1627 C 0.18162 0.41518 0.20744
 C1628 C 0.18848 0.40923 0.19186
 C1629 C 0.20405 0.41653 0.18587
 C1630 C 0.21286 0.42891 0.19554
 C1631 C 0.21632 0.44549 0.22200
 C1632 C 0.22541 0.45422 0.23104
 H1633 H 0.18524 0.43158 0.22927
 H1634 H 0.16959 0.41009 0.21240
 H1635 H 0.20977 0.41235 0.17398
 H1636 H 0.22511 0.43394 0.19096
 C1637 C 0.20732 -0.06623 0.71141
 C1638 C 0.19130 -0.07254 0.71695
 C1639 C 0.18246 -0.08491 0.70729
 C1640 C 0.18959 -0.09124 0.69198
 C1641 C 0.20546 -0.08437 0.68627
 C1642 C 0.21426 -0.07200 0.69596
 C1643 C 0.21730 -0.05494 0.72216
 C1644 C 0.22629 -0.04615 0.73125
 H1645 H 0.18584 -0.06821 0.72893
 H1646 H 0.17020 -0.08967 0.71202
 H1647 H 0.21141 -0.08890 0.67461
 H1648 H 0.22673 -0.06728 0.69161
 C1649 C 0.29256 0.29127 0.43322
 C1650 C 0.28553 0.30657 0.42664
 C1651 C 0.29471 0.31618 0.41456
 C1652 C 0.31108 0.31057 0.40881
 C1653 C 0.31821 0.29537 0.41588
 C1654 C 0.30898 0.28578 0.42794
 C1655 C 0.28236 0.28065 0.44442
 C1656 C 0.27321 0.27168 0.45317
 H1657 H 0.27277 0.31087 0.43056
 H1658 H 0.28873 0.32776 0.40953
 H1659 H 0.33076 0.29062 0.41193
 H1660 H 0.31450 0.27389 0.43289
 C1661 C 0.29248 0.79194 -0.06737
 C1662 C 0.28562 0.80734 -0.07388
 C1663 C 0.29492 0.81692 -0.08589
 C1664 C 0.31123 0.81117 -0.09166
 C1665 C 0.31821 0.79588 -0.08463
 C1666 C 0.30886 0.78632 -0.07262
 C1667 C 0.28216 0.78137 -0.05622
 C1668 C 0.27290 0.77247 -0.04750
 H1669 H 0.27289 0.81177 -0.06996
 H1670 H 0.28908 0.82859 -0.09087
 H1671 H 0.33072 0.79102 -0.08858
 H1672 H 0.31427 0.77436 -0.06773
 C1673 C 0.79106 0.29187 -0.06732
 C1674 C 0.78542 0.30833 -0.07229
 C1675 C 0.79493 0.31785 -0.08423
 C1676 C 0.81018 0.31098 -0.09147
 C1677 C 0.81598 0.29461 -0.08594
 C1678 C 0.80646 0.28514 -0.07401
 C1679 C 0.78052 0.28132 -0.05631
 C1680 C 0.77168 0.27187 -0.04773
 H1681 H 0.77348 0.31366 -0.06724
 H1682 H 0.79008 0.33044 -0.08792
 H1683 H 0.82766 0.28886 -0.09104
 H1684 H 0.81093 0.27237 -0.07030
 C1685 C 0.79106 0.79194 0.43305
 C1686 C 0.78564 0.80851 0.42822
 C1687 C 0.79514 0.81793 0.41620
 C1688 C 0.81017 0.81084 0.40872
 C1689 C 0.81577 0.79435 0.41409
 C1690 C 0.80626 0.78498 0.42611
 C1691 C 0.78047 0.78151 0.44412
 C1692 C 0.77155 0.77217 0.45276
 H1693 H 0.77386 0.81402 0.43346
 H1694 H 0.79046 0.83062 0.41263
 H1695 H 0.82726 0.78842 0.40879
 H1696 H 0.81055 0.77211 0.42969
 C1697 C 0.70687 0.28914 0.56599
 C1698 C 0.69079 0.28343 0.57194
 C1699 C 0.68156 0.29334 0.58378
 C1700 C 0.68837 0.30907 0.58995
 C1701 C 0.70432 0.31494 0.58342
 C1702 C 0.71350 0.30500 0.57157
 C1703 C 0.71717 0.27823 0.55513
 C1704 C 0.72638 0.26906 0.54663
 H1705 H 0.68557 0.27113 0.56771
 H1706 H 0.66931 0.28838 0.58833
 H1707 H 0.70999 0.32698 0.58768
 H1708 H 0.72598 0.30951 0.56706
 C1709 C 0.71121 0.79386 1.06564
 C1710 C 0.71711 0.80978 1.07183
 C1711 C 0.70722 0.81903 1.08368
 C1712 C 0.69130 0.81241 1.08961
 C1713 C 0.68525 0.79665 1.08283
 C1714 C 0.69516 0.78745 1.07099
 C1715 C 0.72207 0.78344 1.05481
 C1716 C 0.73107 0.77401 1.04634
 H1717 H 0.72956 0.81485 1.06782
 H1718 H 0.71232 0.83115 1.08840
 H1719 H 0.67303 0.79117 1.08685
 H1720 H 0.69048 0.77510 1.06631
 C1721 C 0.21056 0.29410 1.06759
 C1722 C 0.19439 0.28794 1.07287
 C1723 C 0.18473 0.29710 1.08496
 C1724 C 0.19114 0.31259 1.09205
 C1725 C 0.20727 0.31888 1.08631
 C1726 C 0.21691 0.30967 1.07421
 C1727 C 0.22110 0.28375 1.05637
 C1728 C 0.22993 0.27441 1.04760
 H1729 H 0.18940 0.27583 1.06790
 H1730 H 0.17239 0.29183 1.08888
 H1731 H 0.21271 0.33071 1.09136
 H1732 H 0.22947 0.31451 1.07030
 C1733 C 0.21045 0.79453 0.56703
 C1734 C 0.21640 0.81043 0.57321
 C1735 C 0.20676 0.81951 0.58539
 C1736 C 0.19104 0.81275 0.59168
 C1737 C 0.18498 0.79694 0.58500
 C1738 C 0.19464 0.78791 0.57282
 C1739 C 0.22113 0.78432 0.55582
 C1740 C 0.23015 0.77513 0.54711
 H1741 H 0.22867 0.81563 0.56890
 H1742 H 0.21189 0.83164 0.59006
 H1743 H 0.17296 0.79128 0.58936
 H1744 H 0.18996 0.77554 0.56819
 C1745 C 0.29022 0.70679 0.56670
 C1746 C 0.30597 0.71334 0.57269
 C1747 C 0.31563 0.70401 0.58460
 C1748 C 0.30963 0.68797 0.59078
 C1749 C 0.29397 0.68130 0.58428
 C1750 C 0.28432 0.69068 0.57237
 C1751 C 0.27960 0.71723 0.55573
 C1752 C 0.27069 0.72661 0.54714
 H1753 H 0.31061 0.72587 0.56846
 H1754 H 0.32760 0.70960 0.58916
 H1755 H 0.28891 0.66900 0.58857
 H1756 H 0.27208 0.68554 0.56788
 C1757 C 0.28848 0.20504 1.06717
 C1758 C 0.30484 0.21104 1.07203
 C1759 C 0.31455 0.20198 1.08412
 C1760 C 0.30800 0.18678 1.09166
 C1761 C 0.29169 0.18061 1.08633
 C1762 C 0.28199 0.18972 1.07420
 C1763 C 0.27793 0.21541 1.05600
 C1764 C 0.26921 0.22488 1.04729
 H1765 H 0.30995 0.22295 1.06675
 H1766 H 0.32705 0.20714 1.08771
 H1767 H 0.28615 0.16899 1.09174
 H1768 H 0.26928 0.18501 1.07061
 C1769 C 0.79037 0.70551 1.06690
 C1770 C 0.80591 0.71232 1.07313
 C1771 C 0.81548 0.70326 1.08534
 C1772 C 0.80961 0.68722 1.09162
 C1773 C 0.79415 0.68027 1.08492
 C1774 C 0.78459 0.68938 1.07270
 C1775 C 0.77982 0.71570 1.05554
 C1776 C 0.77097 0.72493 1.04670
 H1777 H 0.81047 0.72485 1.06881
 H1778 H 0.82729 0.70909 1.09002
 H1779 H 0.78921 0.66795 1.08927
 H1780 H 0.77253 0.68401 1.06805
 C1781 C 0.79431 0.20914 0.56678
 C1782 C 0.80999 0.21533 0.57329
 C1783 C 0.81897 0.20581 0.58562
 C1784 C 0.81231 0.18997 0.59170
 C1785 C 0.79674 0.18368 0.58468
 C1786 C 0.78781 0.19323 0.57237
 C1787 C 0.78413 0.21967 0.55546
 C1788 C 0.77487 0.22851 0.54667
 H1789 H 0.81509 0.22771 0.56916
 H1790 H 0.83091 0.21112 0.59055
 H1791 H 0.79120 0.17155 0.58884
 H1792 H 0.77561 0.18837 0.56751
 C1793 C 0.71184 0.70380 0.43305
 C1794 C 0.71797 0.68829 0.42607
 C1795 C 0.70808 0.67940 0.41396
 C1796 C 0.69192 0.68598 0.40860
 C1797 C 0.68570 0.70133 0.41613
 C1798 C 0.69561 0.71017 0.42821
 C1799 C 0.72264 0.71395 0.44415
 C1800 C 0.73159 0.72324 0.45280
 H1801 H 0.73058 0.68328 0.42967
 H1802 H 0.71334 0.66762 0.40860
 H1803 H 0.67332 0.70679 0.41255
 H1804 H 0.69077 0.72222 0.43348
 C1805 C 0.71238 0.20306 -0.06739
 C1806 C 0.71876 0.18787 -0.07482
 C1807 C 0.70882 0.17896 -0.08686
 C1808 C 0.69238 0.18520 -0.09174
 C1809 C 0.68591 0.20023 -0.08377
 C1810 C 0.69587 0.20910 -0.07175
 C1811 C 0.72318 0.21327 -0.05635
 C1812 C 0.73212 0.22259 -0.04772
 H1813 H 0.73158 0.18313 -0.07161
 H1814 H 0.71427 0.16743 -0.09256
 H1815 H 0.67329 0.20540 -0.08696
 H1816 H 0.69084 0.22091 -0.06614
 C1817 C 0.20413 0.71302 -0.06649
 C1818 C 0.18892 0.71938 -0.07389
 C1819 C 0.17997 0.70941 -0.08588
 C1820 C 0.18618 0.69294 -0.09072
 C1821 C 0.20122 0.68650 -0.08278
 C1822 C 0.21013 0.69649 -0.07081
 C1823 C 0.21440 0.72384 -0.05554
 C1824 C 0.22380 0.73278 -0.04699
 H1825 H 0.18422 0.73222 -0.07071
 H1826 H 0.16845 0.71486 -0.09161
 H1827 H 0.20639 0.67388 -0.08596
 H1828 H 0.22195 0.69148 -0.06521
 C1829 C 0.20583 0.21111 0.43342
 C1830 C 0.18990 0.21704 0.42725
 C1831 C 0.18081 0.20738 0.41511
 C1832 C 0.18759 0.19165 0.40886
 C1833 C 0.20342 0.18560 0.41554
 C1834 C 0.21246 0.19528 0.42767
 C1835 C 0.21601 0.22175 0.44467
 C1836 C 0.22518 0.23074 0.45341
 H1837 H 0.18470 0.22933 0.43154
 H1838 H 0.16869 0.21251 0.41041
 H1839 H 0.20911 0.17358 0.41119
 H1840 H 0.22485 0.19062 0.43229
 C1841 C 0.29332 0.43297 0.71135
 C1842 C 0.28666 0.42765 0.69563
 C1843 C 0.29556 0.41542 0.68583
 C1844 C 0.31125 0.40825 0.69168
 C1845 C 0.31816 0.41421 0.70723
 C1846 C 0.30921 0.42644 0.71701
 C1847 C 0.28313 0.44401 0.72219
 C1848 C 0.27392 0.45261 0.73125
 H1849 H 0.27431 0.43259 0.69118
 H1850 H 0.28979 0.41123 0.67398
 H1851 H 0.33030 0.40924 0.71208
 H1852 H 0.31445 0.43044 0.72919
 C1853 C 0.28865 0.93353 0.20622
 C1854 C 0.28272 0.92763 0.19043
 C1855 C 0.29241 0.91548 0.18122
 C1856 C 0.30813 0.90900 0.18776
 C1857 C 0.31424 0.91552 0.20339
 C1858 C 0.30454 0.92765 0.21255
 C1859 C 0.27794 0.94455 0.21661
 C1860 C 0.26904 0.95313 0.22600
 H1861 H 0.27039 0.93205 0.18545
 H1862 H 0.28725 0.91085 0.16926
 H1863 H 0.32634 0.91108 0.20878
 H1864 H 0.30923 0.93211 0.22480
 C1865 C 0.78801 0.43137 0.20576
 C1866 C 0.80375 0.42516 0.21215
 C1867 C 0.81318 0.41274 0.20310
 C1868 C 0.80697 0.40622 0.18749
 C1869 C 0.79132 0.41291 0.18097
 C1870 C 0.78190 0.42535 0.19007
 C1871 C 0.77762 0.44288 0.21598
 C1872 C 0.76893 0.45185 0.22522
 H1873 H 0.80856 0.42965 0.22434
 H1874 H 0.82519 0.40811 0.20855
 H1875 H 0.78606 0.40831 0.16903
 H1876 H 0.76967 0.42999 0.18506
 C1877 C 0.78876 0.93113 0.70665
 C1878 C 0.80484 0.92536 0.71261
 C1879 C 0.81420 0.91293 0.70348
 C1880 C 0.80756 0.90598 0.68824
 C1881 C 0.79156 0.91223 0.68212
 C1882 C 0.78222 0.92466 0.69131
 C1883 C 0.77848 0.94264 0.71698
 C1884 C 0.76984 0.95160 0.72628
 H1885 H 0.80999 0.93020 0.72453
 H1886 H 0.82650 0.90866 0.70857
 H1887 H 0.78600 0.90731 0.67045
 H1888 H 0.76972 0.92895 0.68663
 C1889 C 0.70784 0.56775 0.70880
 C1890 C 0.71496 0.57409 0.69365
 C1891 C 0.70610 0.58658 0.68415
 C1892 C 0.68999 0.59298 0.68975
 C1893 C 0.68269 0.58607 0.70472
 C1894 C 0.69158 0.57359 0.71419
 C1895 C 0.71786 0.55638 0.71945
 C1896 C 0.72685 0.54756 0.72850
 H1897 H 0.72759 0.56972 0.68942
 H1898 H 0.71217 0.59157 0.67276
 H1899 H 0.67023 0.59047 0.70934
 H1900 H 0.68596 0.56880 0.72592
 C1901 C 0.70798 0.06780 0.20841
 C1902 C 0.69171 0.07358 0.21385
 C1903 C 0.68266 0.08591 0.20432
 C1904 C 0.68983 0.09276 0.18925
 C1905 C 0.70598 0.08644 0.18363
 C1906 C 0.71499 0.07408 0.19317
 C1907 C 0.71814 0.05654 0.21906
 C1908 C 0.72727 0.04777 0.22804
 H1909 H 0.68619 0.06887 0.22566
 H1910 H 0.67017 0.09023 0.20896
 H1911 H 0.71196 0.09136 0.17215
 H1912 H 0.72765 0.06977 0.18892
 C1913 C 0.20969 0.56825 0.20826
 C1914 C 0.21529 0.57296 0.19197
 C1915 C 0.20585 0.58502 0.18245
 C1916 C 0.19068 0.59263 0.18912
 C1917 C 0.18492 0.58738 0.20534
 C1918 C 0.19439 0.57532 0.21483
 C1919 C 0.22018 0.55706 0.21871
 C1920 C 0.22899 0.54829 0.22801
 H1921 H 0.22713 0.56757 0.18677
 H1922 H 0.21072 0.58855 0.17002
 H1923 H 0.17332 0.59281 0.21093
 H1924 H 0.18996 0.57179 0.22746
 C1925 C 0.20960 0.06804 0.70907
 C1926 C 0.19423 0.07507 0.71554
 C1927 C 0.18482 0.08716 0.70604
 C1928 C 0.19070 0.09249 0.68989
 C1929 C 0.20596 0.08495 0.68332
 C1930 C 0.21533 0.07287 0.69286
 C1931 C 0.22001 0.05684 0.71957
 C1932 C 0.22874 0.04803 0.72892
 H1933 H 0.18972 0.07148 0.72813
 H1934 H 0.17314 0.09252 0.71158
 H1935 H 0.21089 0.08854 0.67093
 H1936 H 0.22725 0.06755 0.68774
 C1937 C 0.28841 0.56782 0.29586
 C1938 C 0.30457 0.57312 0.28969
 C1939 C 0.31431 0.58534 0.29864
 C1940 C 0.30798 0.59258 0.31389
 C1941 C 0.29199 0.58668 0.32032
 C1942 C 0.28225 0.57443 0.31132
 C1943 C 0.27769 0.55670 0.28560
 C1944 C 0.26878 0.54803 0.27632
 H1945 H 0.30944 0.56812 0.27771
 H1946 H 0.32664 0.58931 0.29337
 H1947 H 0.28667 0.59188 0.33199
 H1948 H 0.26972 0.57047 0.31618
 C1949 C 0.28750 0.06784 0.79698
 C1950 C 0.28105 0.07520 0.81199
 C1951 C 0.29082 0.08757 0.82078
 C1952 C 0.30714 0.09282 0.81460
 C1953 C 0.31371 0.08490 0.79979
 C1954 C 0.30393 0.07254 0.79104
 C1955 C 0.27682 0.05658 0.78684
 C1956 C 0.26799 0.04781 0.77759
 H1957 H 0.26828 0.07174 0.81664
 H1958 H 0.28530 0.09337 0.83210
 H1959 H 0.32628 0.08840 0.79473
 H1960 H 0.30901 0.06698 0.77939
 C1961 C 0.79337 0.56805 0.78889
 C1962 C 0.80920 0.57461 0.78312
 C1963 C 0.81804 0.58707 0.79269
 C1964 C 0.81109 0.59329 0.80814
 C1965 C 0.79535 0.58624 0.81401
 C1966 C 0.78657 0.57375 0.80443
 C1967 C 0.78339 0.55653 0.77831
 C1968 C 0.77435 0.54758 0.76940
 H1969 H 0.81454 0.57037 0.77105
 H1970 H 0.83018 0.59197 0.78779
 H1971 H 0.78952 0.59063 0.82577
 H1972 H 0.77423 0.56885 0.80894
 C1973 C 0.79519 0.06768 0.28740
 C1974 C 0.78889 0.07230 0.30347
 C1975 C 0.79764 0.08457 0.31332
 C1976 C 0.81284 0.09250 0.30718
 C1977 C 0.81936 0.08732 0.29120
 C1978 C 0.81056 0.07504 0.28137
 C1979 C 0.78505 0.05647 0.27668
 C1980 C 0.77578 0.04771 0.26784
 H1981 H 0.77693 0.06676 0.30822
 H1982 H 0.79219 0.08807 0.32552
 H1983 H 0.83108 0.09294 0.28608
 H1984 H 0.81552 0.07160 0.26891
 C1985 C 0.71049 0.43230 0.29374
 C1986 C 0.69473 0.42612 0.28741
 C1987 C 0.68524 0.41390 0.29662
 C1988 C 0.69143 0.40760 0.31231
 C1989 C 0.70705 0.41435 0.31882
 C1990 C 0.71653 0.42656 0.30955
 C1991 C 0.72097 0.44349 0.28336
 C1992 C 0.72971 0.45220 0.27397
 H1993 H 0.68997 0.43043 0.27514
 H1994 H 0.67322 0.40923 0.29124
 H1995 H 0.71226 0.40990 0.33083
 H1996 H 0.72878 0.43121 0.31452
 C1997 C 0.71220 0.93175 0.79517
 C1998 C 0.71880 0.92474 0.81026
 C1999 C 0.70922 0.91244 0.81935
 C2000 C 0.69289 0.90692 0.81343
 C2001 C 0.68619 0.91448 0.79849
 C2002 C 0.69579 0.92674 0.78944
 C2003 C 0.72261 0.94310 0.78483
 C2004 C 0.73118 0.95198 0.77541
 H2005 H 0.73152 0.92849 0.81478
 H2006 H 0.71486 0.90698 0.83075
 H2007 H 0.67366 0.91078 0.79354
 H2008 H 0.69056 0.93205 0.77775
 C2009 C 0.20622 0.43184 0.79048
 C2010 C 0.19053 0.42511 0.78453
 C2011 C 0.18170 0.41256 0.79401
 C2012 C 0.18851 0.40647 0.80955
 C2013 C 0.20405 0.41374 0.81562
 C2014 C 0.21284 0.42628 0.80613
 C2015 C 0.21630 0.44335 0.78000
 C2016 C 0.22548 0.45230 0.77122
 H2017 H 0.18530 0.42926 0.77239
 H2018 H 0.16971 0.40747 0.78895
 H2019 H 0.20976 0.40947 0.82747
 H2020 H 0.22504 0.43133 0.81081
 C2021 C 0.20994 0.93197 0.29352
 C2022 C 0.21556 0.92681 0.30967
 C2023 C 0.20620 0.91442 0.31887
 C2024 C 0.19109 0.90695 0.31199
 C2025 C 0.18532 0.91263 0.29592
 C2026 C 0.19470 0.92499 0.28676
 C2027 C 0.22035 0.94348 0.28335
 C2028 C 0.22915 0.95247 0.27423
 H2029 H 0.22738 0.93210 0.31500
 H2030 H 0.21107 0.91053 0.33119
 H2031 H 0.17377 0.90732 0.29015
 H2032 H 0.19027 0.92884 0.27423
 C2033 C 0.43294 0.29136 0.70828
 C2034 C 0.42641 0.28441 0.69313
 C2035 C 0.41389 0.29345 0.68380
 C2036 C 0.40767 0.30957 0.68959
 C2037 C 0.41481 0.31671 0.70453
 C2038 C 0.42731 0.30763 0.71383
 C2039 C 0.44429 0.28114 0.71878
 C2040 C 0.45310 0.27200 0.72772
 H2041 H 0.43063 0.27175 0.68878
 H2042 H 0.40874 0.28748 0.67241
 H2043 H 0.41058 0.32918 0.70927
 H2044 H 0.43225 0.31310 0.72558
 C2045 C 0.43207 0.79323 0.20985
 C2046 C 0.42544 0.80899 0.21578
 C2047 C 0.41282 0.81781 0.20638
 C2048 C 0.40655 0.81093 0.19093
 C2049 C 0.41369 0.79529 0.18489
 C2050 C 0.42630 0.78652 0.19431
 C2051 C 0.44368 0.78319 0.22026
 C2052 C 0.45271 0.77406 0.22902
 H2053 H 0.42973 0.81427 0.22785
 H2054 H 0.40783 0.82986 0.21140
 H2055 H 0.40927 0.78952 0.17313
 H2056 H 0.43124 0.77424 0.18966
 C2057 C 0.93212 0.29061 0.20740
 C2058 C 0.92671 0.28445 0.19152
 C2059 C 0.91448 0.29373 0.18206
 C2060 C 0.90740 0.30929 0.18840
 C2061 C 0.91337 0.31561 0.20417
 C2062 C 0.92559 0.30631 0.21359
 C2063 C 0.94339 0.28030 0.21790
 C2064 C 0.95221 0.27159 0.22723
 H2065 H 0.93165 0.27228 0.18663
 H2066 H 0.91033 0.28842 0.16999
 H2067 H 0.90844 0.32757 0.20946
 H2068 H 0.92966 0.31118 0.22590
 C2069 C 0.93291 0.79031 0.70732
 C2070 C 0.92783 0.78455 0.69120
 C2071 C 0.91547 0.79382 0.68189
 C2072 C 0.90790 0.80897 0.68864
 C2073 C 0.91352 0.81489 0.70469
 C2074 C 0.92588 0.80560 0.71395
 C2075 C 0.94431 0.77992 0.71761
 C2076 C 0.95321 0.77105 0.72673
 H2077 H 0.93314 0.77268 0.68599
 H2078 H 0.91167 0.78886 0.66957
 H2079 H 0.90819 0.82652 0.71032
 H2080 H 0.92968 0.81014 0.72646
 C2081 C 0.56783 0.29162 0.29159
 C2082 C 0.57389 0.28466 0.30693
 C2083 C 0.58640 0.29349 0.31647
 C2084 C 0.59314 0.30940 0.31072
 C2085 C 0.58651 0.31653 0.29554
 C2086 C 0.57401 0.30768 0.28604
 C2087 C 0.55638 0.28168 0.28089
 C2088 C 0.54751 0.27287 0.27166
 H2089 H 0.56926 0.27218 0.31130
 H2090 H 0.59107 0.28758 0.32808
 H2091 H 0.59113 0.32883 0.29077
 H2092 H 0.56946 0.31319 0.27417
 C2093 C 0.56718 0.79424 0.78833
 C2094 C 0.57170 0.78789 0.80441
 C2095 C 0.58396 0.79656 0.81435
 C2096 C 0.59197 0.81175 0.80835
 C2097 C 0.58691 0.81834 0.79236
 C2098 C 0.57464 0.80961 0.78242
 C2099 C 0.55584 0.78424 0.77756
 C2100 C 0.54695 0.77508 0.76869
 H2101 H 0.56602 0.77598 0.80910
 H2102 H 0.58735 0.79107 0.82657
 H2103 H 0.59265 0.83000 0.78726
 H2104 H 0.57126 0.81465 0.76998
 C2105 C 0.06655 0.28859 0.79430
 C2106 C 0.07225 0.30458 0.78811
 C2107 C 0.08438 0.31421 0.79728
 C2108 C 0.09110 0.30792 0.81275
 C2109 C 0.08480 0.29208 0.81915
 C2110 C 0.07264 0.28246 0.80995
 C2111 C 0.05552 0.27800 0.78387
 C2112 C 0.04689 0.26925 0.77443
 H2113 H 0.06764 0.30941 0.77598
 H2114 H 0.08869 0.32642 0.79201
 H2115 H 0.08960 0.28679 0.83099
 H2116 H 0.06836 0.27004 0.81481
 C2117 C 0.06763 0.78948 0.29251
 C2118 C 0.07373 0.80535 0.28638
 C2119 C 0.08608 0.81469 0.29561
 C2120 C 0.09258 0.80823 0.31111
 C2121 C 0.08600 0.79242 0.31735
 C2122 C 0.07365 0.78312 0.30809
 C2123 C 0.05620 0.77920 0.28220
 C2124 C 0.04725 0.77052 0.27296
 H2125 H 0.06923 0.81033 0.27426
 H2126 H 0.09069 0.82680 0.29039
 H2127 H 0.09061 0.78695 0.32918
 H2128 H 0.06909 0.77079 0.31290
 C2129 C 0.56628 0.70659 0.70949
 C2130 C 0.57247 0.69051 0.71498
 C2131 C 0.58468 0.68153 0.70522
 C2132 C 0.59097 0.68859 0.68987
 C2133 C 0.58410 0.70444 0.68415
 C2134 C 0.57189 0.71338 0.69393
 C2135 C 0.55532 0.71684 0.72034
 C2136 C 0.54676 0.72612 0.72935
 H2137 H 0.56822 0.68514 0.72702
 H2138 H 0.58942 0.66925 0.70994
 H2139 H 0.58855 0.71031 0.67245
 H2140 H 0.56722 0.72586 0.68960
 C2141 C 0.56684 0.20752 0.20881
 C2142 C 0.57282 0.19135 0.21428
 C2143 C 0.58483 0.18217 0.20447
 C2144 C 0.59115 0.18912 0.18909
 C2145 C 0.58456 0.20512 0.18341
 C2146 C 0.57251 0.21426 0.19324
 C2147 C 0.55597 0.21778 0.21975
 C2148 C 0.54742 0.22684 0.22901
 H2149 H 0.56854 0.18603 0.22633
 H2150 H 0.58934 0.16979 0.20917
 H2151 H 0.58906 0.21089 0.17167
 H2152 H 0.56799 0.22682 0.18894
 C2153 C 0.06787 0.71173 0.20553
 C2154 C 0.07460 0.71820 0.19027
 C2155 C 0.08715 0.70880 0.18129
 C2156 C 0.09322 0.69277 0.18748
 C2157 C 0.08604 0.68622 0.20266
 C2158 C 0.07350 0.69565 0.21162
 C2159 C 0.05620 0.72209 0.21564
 C2160 C 0.04714 0.73082 0.22477
 H2161 H 0.07042 0.73069 0.18548
 H2162 H 0.09230 0.71436 0.16972
 H2163 H 0.09025 0.67394 0.20783
 H2164 H 0.06845 0.69058 0.22349
 C2165 C 0.06775 0.21127 0.70607
 C2166 C 0.07404 0.19563 0.71263
 C2167 C 0.08652 0.18614 0.70368
 C2168 C 0.09300 0.19219 0.68800
 C2169 C 0.08623 0.20774 0.68132
 C2170 C 0.07375 0.21721 0.69031
 C2171 C 0.05620 0.22174 0.71619
 C2172 C 0.04718 0.23046 0.72540
 H2173 H 0.06958 0.19098 0.72489
 H2174 H 0.09125 0.17424 0.70927
 H2175 H 0.09075 0.21283 0.66929
 H2176 H 0.06906 0.22935 0.68514
 C2177 C 0.43279 0.70631 0.28820
 C2178 C 0.42552 0.69087 0.28223
 C2179 C 0.41312 0.68214 0.29199
 C2180 C 0.40771 0.68882 0.30784
 C2181 C 0.41552 0.70411 0.31391
 C2182 C 0.42791 0.71278 0.30414
 C2183 C 0.44415 0.71632 0.27752
 C2184 C 0.45299 0.72550 0.26865
 H2185 H 0.42913 0.68578 0.26986
 H2186 H 0.40759 0.67037 0.28690
 H2187 H 0.41180 0.70971 0.32599
 H2188 H 0.43337 0.72479 0.30883
 C2189 C 0.43301 0.20480 0.78759
 C2190 C 0.42532 0.18955 0.78169
 C2191 C 0.41293 0.18104 0.79164
 C2192 C 0.40796 0.18775 0.80762
 C2193 C 0.41622 0.20281 0.81363
 C2194 C 0.42861 0.21127 0.80366
 C2195 C 0.44433 0.21467 0.77674
 C2196 C 0.45316 0.22377 0.76779
 H2197 H 0.42857 0.18446 0.76922
 H2198 H 0.40705 0.16942 0.78659
 H2199 H 0.41289 0.20840 0.82582
 H2200 H 0.43442 0.22314 0.80831
 C2201 C 0.93400 0.71075 0.79377
 C2202 C 0.92812 0.71654 0.80962
 C2203 C 0.91591 0.70686 0.81872
 C2204 C 0.90935 0.69125 0.81200
 C2205 C 0.91583 0.68529 0.79628
 C2206 C 0.92800 0.69501 0.78723
 C2207 C 0.94511 0.72149 0.78355
 C2208 C 0.95376 0.73048 0.77434
 H2209 H 0.93262 0.72878 0.81474
 H2210 H 0.91132 0.71194 0.83073
 H2211 H 0.91134 0.67328 0.79074
 H2212 H 0.93241 0.69045 0.77492
 C2213 C 0.93310 0.21280 0.29566
 C2214 C 0.92602 0.21914 0.31084
 C2215 C 0.91376 0.20935 0.31976
 C2216 C 0.90833 0.19312 0.31353
 C2217 C 0.91603 0.18662 0.29857
 C2218 C 0.92828 0.19642 0.28970
 C2219 C 0.94418 0.22354 0.28537
 C2220 C 0.95280 0.23239 0.27598
 H2221 H 0.92961 0.23185 0.31552
 H2222 H 0.90818 0.21480 0.33121
 H2223 H 0.91243 0.17411 0.29348
 H2224 H 0.93365 0.19140 0.27794
 C2225 C 0.28979 0.29415 0.56637
 C2226 C 0.30578 0.28770 0.57189
 C2227 C 0.31532 0.29663 0.58422
 C2228 C 0.30895 0.31215 0.59133
 C2229 C 0.29302 0.31873 0.58534
 C2230 C 0.28351 0.30975 0.57300
 C2231 C 0.27929 0.28403 0.55492
 C2232 C 0.27041 0.27487 0.54604
 H2233 H 0.31071 0.27556 0.56693
 H2234 H 0.32751 0.29114 0.58833
 H2235 H 0.28765 0.33061 0.59037
 H2236 H 0.27108 0.31480 0.56892
 C2237 C 0.29209 0.79259 0.06525
 C2238 C 0.30751 0.78577 0.07180
 C2239 C 0.31693 0.79501 0.08400
 C2240 C 0.31100 0.81120 0.08991
 C2241 C 0.29571 0.81813 0.08283
 C2242 C 0.28632 0.80886 0.07065
 C2243 C 0.28153 0.78233 0.05403
 C2244 C 0.27242 0.77327 0.04530
 H2245 H 0.31205 0.77313 0.06777
 H2246 H 0.32863 0.78922 0.08900
 H2247 H 0.29070 0.83054 0.08687
 H2248 H 0.27434 0.81421 0.06573
 C2249 C 0.79355 0.28923 0.06437
 C2250 C 0.80980 0.28371 0.07008
 C2251 C 0.81891 0.29355 0.08204
 C2252 C 0.81184 0.30903 0.08856
 C2253 C 0.79568 0.31468 0.08233
 C2254 C 0.78661 0.30482 0.07036
 C2255 C 0.78340 0.27836 0.05334
 C2256 C 0.77430 0.26919 0.04473
 H2257 H 0.81525 0.27160 0.06557
 H2258 H 0.83132 0.28875 0.08636
 H2259 H 0.78976 0.32649 0.08691
 H2260 H 0.77398 0.30917 0.06608
 C2261 C 0.79377 0.78949 0.56457
 C2262 C 0.80996 0.78385 0.57031
 C2263 C 0.81916 0.79365 0.58223
 C2264 C 0.81222 0.80922 0.58870
 C2265 C 0.79616 0.81504 0.58237
 C2266 C 0.78700 0.80521 0.57045
 C2267 C 0.78347 0.77862 0.55369
 C2268 C 0.77426 0.76947 0.54519
 H2269 H 0.81530 0.77166 0.56588
 H2270 H 0.83150 0.78874 0.58661
 H2271 H 0.79037 0.82695 0.58687
 H2272 H 0.77442 0.80967 0.56613
 C2273 C 0.29611 0.71269 0.43470
 C2274 C 0.31156 0.71889 0.42767
 C2275 C 0.32038 0.70913 0.41538
 C2276 C 0.31378 0.69305 0.40986
 C2277 C 0.29846 0.68678 0.41740
 C2278 C 0.28970 0.69655 0.42967
 C2279 C 0.28597 0.72334 0.44600
 C2280 C 0.27657 0.73207 0.45478
 H2281 H 0.31659 0.73144 0.43140
 H2282 H 0.33214 0.71444 0.41002
 H2283 H 0.29295 0.67449 0.41366
 H2284 H 0.27766 0.69168 0.43494
 C2285 C 0.29613 0.21266 0.93497
 C2286 C 0.31142 0.21907 0.92777
 C2287 C 0.32033 0.20936 0.91549
 C2288 C 0.31399 0.19311 0.91017
 C2289 C 0.29885 0.18662 0.91790
 C2290 C 0.28999 0.19635 0.93013
 C2291 C 0.28592 0.22326 0.94626
 C2292 C 0.27656 0.23206 0.95503
 H2293 H 0.31624 0.23174 0.93134
 H2294 H 0.33194 0.21482 0.90996
 H2295 H 0.29356 0.17418 0.91433
 H2296 H 0.27809 0.19130 0.93554
 C2297 C 0.79242 0.70767 0.93388
 C2298 C 0.80892 0.71316 0.92888
 C2299 C 0.81832 0.70366 0.91684
 C2300 C 0.81130 0.68855 0.90951
 C2301 C 0.79488 0.68289 0.91504
 C2302 C 0.78552 0.69241 0.92709
 C2303 C 0.78203 0.71826 0.94501
 C2304 C 0.77280 0.72723 0.95372
 H2305 H 0.81438 0.72500 0.93399
 H2306 H 0.83094 0.70843 0.91312
 H2307 H 0.78901 0.67133 0.90985
 H2308 H 0.77271 0.68805 0.93079
 C2309 C 0.78818 0.20319 0.43426
 C2310 C 0.80465 0.20928 0.42987
 C2311 C 0.81450 0.20063 0.41760
 C2312 C 0.80799 0.18576 0.40942
 C2313 C 0.79157 0.17947 0.41430
 C2314 C 0.78174 0.18816 0.42660
 C2315 C 0.77744 0.21326 0.44549
 C2316 C 0.76857 0.22253 0.45423
 H2317 H 0.80969 0.22098 0.43565
 H2318 H 0.82708 0.20584 0.41437
 H2319 H 0.78605 0.16810 0.40839
 H2320 H 0.76894 0.18342 0.42983
 C2321 C 0.70974 0.29175 0.43464
 C2322 C 0.69409 0.28508 0.42852
 C2323 C 0.68444 0.29434 0.41653
 C2324 C 0.69035 0.31042 0.41039
 C2325 C 0.70590 0.31722 0.41702
 C2326 C 0.71553 0.30792 0.42901
 C2327 C 0.72036 0.28137 0.44570
 C2328 C 0.72924 0.27198 0.45432
 H2329 H 0.68953 0.27251 0.43271
 H2330 H 0.67255 0.28865 0.41189
 H2331 H 0.71090 0.32956 0.41276
 H2332 H 0.72769 0.31317 0.43359
 C2333 C 0.70457 0.78758 0.93472
 C2334 C 0.68906 0.78138 0.92780
 C2335 C 0.68006 0.79122 0.91570
 C2336 C 0.68650 0.80738 0.91028
 C2337 C 0.70184 0.81369 0.91776
 C2338 C 0.71079 0.80384 0.92983
 C2339 C 0.71487 0.77679 0.94576
 C2340 C 0.72423 0.76780 0.95434
 H2341 H 0.68414 0.76876 0.93142
 H2342 H 0.66830 0.78591 0.91036
 H2343 H 0.70719 0.82607 0.91409
 H2344 H 0.72283 0.80876 0.93504
 C2345 C 0.20810 0.29143 0.93471
 C2346 C 0.21490 0.30678 0.92802
 C2347 C 0.20561 0.31616 0.91582
 C2348 C 0.18936 0.31026 0.91006
 C2349 C 0.18246 0.29503 0.91725
 C2350 C 0.19179 0.28568 0.92943
 C2351 C 0.21844 0.28100 0.94600
 C2352 C 0.22768 0.27213 0.95479
 H2353 H 0.22757 0.31130 0.93194
 H2354 H 0.21139 0.32780 0.91073
 H2355 H 0.17000 0.29006 0.91331
 H2356 H 0.18644 0.27376 0.93446
 C2357 C 0.20644 0.78979 0.43511
 C2358 C 0.19029 0.78405 0.42937
 C2359 C 0.18107 0.79378 0.41740
 C2360 C 0.18796 0.80935 0.41089
 C2361 C 0.20400 0.81521 0.41720
 C2362 C 0.21316 0.80547 0.42917
 C2363 C 0.21679 0.77912 0.44611
 C2364 C 0.22627 0.77033 0.45470
 H2365 H 0.18501 0.77188 0.43386
 H2366 H 0.16874 0.78884 0.41305
 H2367 H 0.20976 0.82710 0.41267
 H2368 H 0.22571 0.80996 0.43350
 C2369 C 0.70653 0.70932 0.56545
 C2370 C 0.69042 0.71520 0.57124
 C2371 C 0.68128 0.70576 0.58351
 C2372 C 0.68817 0.69031 0.59026
 C2373 C 0.70420 0.68431 0.58398
 C2374 C 0.71329 0.69376 0.57171
 C2375 C 0.71679 0.71981 0.55415
 C2376 C 0.72605 0.72866 0.54536
 H2377 H 0.68510 0.72729 0.56656
 H2378 H 0.66899 0.71082 0.58787
 H2379 H 0.70998 0.67250 0.58871
 H2380 H 0.72581 0.68914 0.56740
 C2381 C 0.70675 0.20913 0.06506
 C2382 C 0.69043 0.21476 0.07051
 C2383 C 0.68130 0.20531 0.08279
 C2384 C 0.68843 0.19013 0.08989
 C2385 C 0.70471 0.18442 0.08400
 C2386 C 0.71378 0.19387 0.07172
 C2387 C 0.71691 0.21959 0.05365
 C2388 C 0.72614 0.22840 0.04479
 H2389 H 0.68491 0.22663 0.06552
 H2390 H 0.66881 0.21014 0.08687
 H2391 H 0.71069 0.17285 0.08905
 H2392 H 0.72648 0.18947 0.06768
 C2393 C 0.21090 0.70646 0.06472
 C2394 C 0.21694 0.69066 0.07105
 C2395 C 0.20724 0.68159 0.08317
 C2396 C 0.19138 0.68828 0.08922
 C2397 C 0.18521 0.70396 0.08233
 C2398 C 0.19493 0.71299 0.07022
 C2399 C 0.22164 0.71669 0.05364
 C2400 C 0.23070 0.72589 0.04502
 H2401 H 0.22933 0.68554 0.06694
 H2402 H 0.21244 0.66955 0.08799
 H2403 H 0.17305 0.70951 0.08646
 H2404 H 0.19018 0.72527 0.06545
 C2405 C 0.21057 0.20651 0.56543
 C2406 C 0.21674 0.19074 0.57173
 C2407 C 0.20708 0.18153 0.58377
 C2408 C 0.19114 0.18805 0.58976
 C2409 C 0.18484 0.20370 0.58290
 C2410 C 0.19452 0.21286 0.57088
 C2411 C 0.22121 0.21689 0.55440
 C2412 C 0.23012 0.22626 0.54581
 H2413 H 0.22919 0.18574 0.56763
 H2414 H 0.21238 0.16953 0.58858
 H2415 H 0.17261 0.20913 0.58700
 H2416 H 0.18965 0.22510 0.56612
   
