data_POSCAR
  _audit_creation_date              2014-09-24
  _audit_creation_method            'ToBaCCo'
  _symmetry_space_group_name_H-M    'P1'
  _symmetry_Int_Tables_number       1
  _symmetry_cell_setting            triclinic
  loop_
  _symmetry_equiv_pos_as_xyz
 x,y,z
_cell_length_a 43.8437
_cell_length_b 44.6534
_cell_length_c 43.1160
_cell_angle_alpha 90.169900
_cell_angle_beta 89.997100
_cell_angle_gamma 89.840400
loop_
  _atom_site_label
  _atom_site_type_symbol
  _atom_site_fract_x
  _atom_site_fract_y
  _atom_site_fract_z
C1 C 0.31236 0.31208 -0.01504
 C2 C 0.31247 0.31129 0.01665
 C3 C 0.29149 0.33030 0.03561
 C4 C 0.33516 0.29300 0.03385
 C5 C 0.33176 0.29153 -0.03402
 C6 C 0.29442 0.33493 -0.03218
 C7 C 0.30335 0.34805 0.05968
 C8 C 0.28445 0.36769 0.07611
 C9 C 0.25342 0.37011 0.06867
 C10 C 0.24120 0.35156 0.04550
 C11 C 0.26002 0.33154 0.02934
 C12 C 0.36648 0.29590 0.02768
 C13 C 0.38765 0.27800 0.04316
 C14 C 0.37790 0.25735 0.06548
 C15 C 0.34677 0.25533 0.07263
 C16 C 0.32551 0.27300 0.05686
 C17 C 0.33229 0.26052 -0.02854
 C18 C 0.35252 0.24193 -0.04476
 C19 C 0.37222 0.25393 -0.06728
 C20 C 0.37025 0.28467 -0.07402
 C21 C 0.35041 0.30327 -0.05746
 C22 C 0.27471 0.32614 -0.05615
 C23 C 0.25747 0.34752 -0.07204
 C24 C 0.25961 0.37791 -0.06406
 C25 C 0.27991 0.38681 -0.04069
 C26 C 0.29744 0.36552 -0.02511
 H27 H 0.32745 0.34739 0.06514
 H28 H 0.29421 0.38164 0.09413
 H29 H 0.21723 0.35269 0.03966
 H30 H 0.25018 0.31751 0.01145
 H31 H 0.37447 0.31189 0.01071
 H32 H 0.41161 0.28052 0.03781
 H33 H 0.30150 0.27081 0.06229
 H34 H 0.31743 0.25078 -0.01125
 H35 H 0.35263 0.21829 -0.03947
 H36 H 0.38471 0.29448 -0.09164
 H37 H 0.35021 0.32704 -0.06241
 H38 H 0.27242 0.30271 -0.06226
 H39 H 0.24223 0.34035 -0.09036
 H40 H 0.28247 0.41018 -0.03461
 H41 H 0.31326 0.37286 -0.00737
 H42 H 0.33894 0.23987 0.09020
 C43 C 0.68799 0.68716 -0.01452
 C44 C 0.68614 0.68656 0.01709
 C45 C 0.70643 0.66708 0.03594
 C46 C 0.66287 0.70416 0.03433
 C47 C 0.66858 0.70747 -0.03364
 C48 C 0.70808 0.66599 -0.03172
 C49 C 0.69362 0.64502 0.05499
 C50 C 0.71235 0.62538 0.07149
 C51 C 0.74418 0.62792 0.06982
 C52 C 0.75707 0.65044 0.05137
 C53 C 0.73831 0.66988 0.03449
 C54 C 0.63178 0.70207 0.02673
 C55 C 0.61027 0.71967 0.04227
 C56 C 0.61943 0.73910 0.06611
 C57 C 0.65026 0.74023 0.07464
 C58 C 0.67185 0.72293 0.05882
 C59 C 0.66661 0.73835 -0.02737
 C60 C 0.64665 0.75653 -0.04435
 C61 C 0.62898 0.74431 -0.06836
 C62 C 0.63175 0.71371 -0.07533
 C63 C 0.65136 0.69549 -0.05815
 C64 C 0.72835 0.67683 -0.05422
 C65 C 0.74658 0.65701 -0.07125
 C66 C 0.74478 0.62608 -0.06598
 C67 C 0.72461 0.61523 -0.04348
 C68 C 0.70605 0.63497 -0.02682
 H69 H 0.66910 0.64248 0.05636
 H70 H 0.70201 0.60802 0.08545
 H71 H 0.78156 0.65269 0.04954
 H72 H 0.74858 0.68690 0.02004
 H73 H 0.62424 0.68703 0.00856
 H74 H 0.58654 0.71793 0.03569
 H75 H 0.69565 0.72454 0.06533
 H76 H 0.68010 0.74824 -0.00899
 H77 H 0.64480 0.78009 -0.03862
 H78 H 0.61824 0.70361 -0.09353
 H79 H 0.65249 0.67180 -0.06348
 H80 H 0.73002 0.70065 -0.05857
 H81 H 0.76203 0.66591 -0.08845
 H82 H 0.72283 0.59140 -0.03923
 H83 H 0.68991 0.62600 -0.01029
 H84 H 0.65764 0.75482 0.09328
 C85 C 0.68449 0.31985 1.01644
 C86 C 0.68401 0.31987 0.98475
 C87 C 0.70490 0.33901 0.96612
 C88 C 0.66152 0.30168 0.96718
 C89 C 0.66478 0.29948 1.03499
 C90 C 0.70358 0.34116 1.03441
 C91 C 0.69287 0.35731 0.94265
 C92 C 0.71180 0.37654 0.92600
 C93 C 0.74305 0.37802 0.93266
 C94 C 0.75538 0.35907 0.95537
 C95 C 0.73650 0.33945 0.97173
 C96 C 0.63016 0.30403 0.97349
 C97 C 0.60934 0.28582 0.95788
 C98 C 0.61950 0.26550 0.93525
 C99 C 0.65062 0.26412 0.92791
 C100 C 0.67152 0.28203 0.94383
 C101 C 0.66427 0.26844 1.02944
 C102 C 0.64457 0.24999 1.04625
 C103 C 0.62573 0.26216 1.06941
 C104 C 0.62683 0.29300 1.07551
 C105 C 0.64619 0.31147 1.05847
 C106 C 0.72263 0.33041 1.05805
 C107 C 0.74022 0.35017 1.07563
 C108 C 0.73900 0.38109 1.06987
 C109 C 0.71993 0.39186 1.04620
 C110 C 0.70201 0.37212 1.02894
 H111 H 0.66865 0.35721 0.93769
 H112 H 0.70195 0.39079 0.90833
 H113 H 0.77951 0.35945 0.96056
 H114 H 0.74646 0.32495 0.98910
 H115 H 0.62187 0.31972 0.99075
 H116 H 0.58536 0.28780 0.96344
 H117 H 0.69556 0.28022 0.93832
 H118 H 0.67883 0.25858 1.01185
 H119 H 0.64396 0.22624 1.04118
 H120 H 0.61232 0.30302 1.09300
 H121 H 0.64621 0.33531 1.06320
 H122 H 0.72400 0.30662 1.06275
 H123 H 0.75492 0.34110 1.09345
 H124 H 0.71868 0.41561 1.04127
 H125 H 0.68690 0.38099 1.01133
 H126 H 0.65876 0.24887 0.91015
 C127 C 0.31533 0.68195 1.01593
 C128 C 0.31635 0.68303 0.98427
 C129 C 0.29629 0.66397 0.96451
 C130 C 0.33884 0.70212 0.96781
 C131 C 0.33411 0.70227 1.03562
 C132 C 0.29668 0.65930 1.03249
 C133 C 0.30927 0.64632 0.94093
 C134 C 0.29119 0.62696 0.92335
 C135 C 0.25976 0.62490 0.92900
 C136 C 0.24656 0.64303 0.95202
 C137 C 0.26459 0.66273 0.96937
 C138 C 0.37011 0.70022 0.97471
 C139 C 0.39096 0.71882 0.95976
 C140 C 0.38096 0.73912 0.93716
 C141 C 0.34993 0.74023 0.92935
 C142 C 0.32899 0.72192 0.94463
 C143 C 0.33388 0.73344 1.03116
 C144 C 0.35327 0.75189 1.04845
 C145 C 0.37260 0.73960 1.07111
 C146 C 0.37215 0.70853 1.07615
 C147 C 0.35302 0.69010 1.05865
 C148 C 0.27656 0.66838 1.05603
 C149 C 0.25875 0.64731 1.07156
 C150 C 0.26060 0.61683 1.06365
 C151 C 0.28135 0.60764 1.04066
 C152 C 0.29946 0.62867 1.02546
 H153 H 0.33361 0.64691 0.93669
 H154 H 0.30203 0.61309 0.90593
 H155 H 0.22233 0.64173 0.95671
 H156 H 0.25394 0.67655 0.98699
 H157 H 0.37834 0.68442 0.99181
 H158 H 0.41486 0.71706 0.96569
 H159 H 0.30504 0.72341 0.93864
 H160 H 0.31913 0.74340 1.01386
 H161 H 0.35336 0.77573 1.04391
 H162 H 0.38709 0.69824 1.09303
 H163 H 0.35362 0.66614 1.06249
 H164 H 0.27444 0.69184 1.06214
 H165 H 0.24333 0.65487 1.08960
 H166 H 0.28393 0.58425 1.03458
 H167 H 0.31559 0.62106 1.00810
 H168 H 0.34191 0.75547 0.91163
 C169 C -0.01733 0.31475 0.31428
 C170 C 0.01381 0.31625 0.31413
 C171 C 0.03298 0.29626 0.33381
 C172 C 0.03035 0.33900 0.29550
 C173 C -0.03639 0.33363 0.29337
 C174 C -0.03384 0.29540 0.33666
 C175 C 0.05523 0.30883 0.35327
 C176 C 0.07262 0.29068 0.37281
 C177 C 0.06816 0.25959 0.37320
 C178 C 0.04627 0.24687 0.35346
 C179 C 0.02908 0.26501 0.33360
 C180 C 0.02312 0.36959 0.29803
 C181 C 0.03853 0.39068 0.28008
 C182 C 0.06189 0.38158 0.25989
 C183 C 0.06986 0.35119 0.25816
 C184 C 0.05415 0.33004 0.27576
 C185 C -0.03068 0.33496 0.26131
 C186 C -0.04690 0.35494 0.24254
 C187 C -0.06959 0.37348 0.25541
 C188 C -0.07648 0.37085 0.28710
 C189 C -0.05999 0.35120 0.30590
 C190 C -0.05579 0.27503 0.32597
 C191 C -0.07088 0.25626 0.34679
 C192 C -0.06410 0.25743 0.37862
 C193 C -0.04285 0.27852 0.38940
 C194 C -0.02806 0.29750 0.36863
 H195 H 0.05866 0.33284 0.35385
 H196 H 0.08907 0.30111 0.38807
 H197 H 0.04243 0.22293 0.35354
 H198 H 0.01245 0.25473 0.31839
 H199 H 0.00549 0.37711 0.31385
 H200 H 0.03240 0.41407 0.28230
 H201 H 0.06038 0.30662 0.27381
 H202 H -0.01314 0.32103 0.25096
 H203 H -0.04140 0.35598 0.21812
 H204 H -0.09412 0.38464 0.29750
 H205 H -0.06502 0.35039 0.33048
 H206 H -0.06092 0.27341 0.30145
 H207 H -0.08767 0.24064 0.33799
 H208 H -0.03779 0.28065 0.41387
 H209 H -0.01194 0.31375 0.37747
 H210 H 0.08813 0.34385 0.24300
 C211 C -0.01473 0.68572 0.68590
 C212 C 0.01634 0.68404 0.68482
 C213 C 0.03456 0.70468 0.66532
 C214 C 0.03369 0.66101 0.70228
 C215 C -0.03309 0.66620 0.70671
 C216 C -0.03203 0.70596 0.66496
 C217 C 0.05344 0.69296 0.64196
 C218 C 0.06975 0.71210 0.62257
 C219 C 0.06799 0.74321 0.62668
 C220 C 0.04963 0.75499 0.65046
 C221 C 0.03297 0.73583 0.66965
 C222 C 0.02642 0.63048 0.69964
 C223 C 0.04206 0.60922 0.71726
 C224 C 0.06565 0.61812 0.73720
 C225 C 0.07385 0.64840 0.73877
 C226 C 0.05792 0.66972 0.72152
 C227 C -0.02652 0.66389 0.73853
 C228 C -0.04255 0.64373 0.75716
 C229 C -0.06586 0.62600 0.74440
 C230 C -0.07342 0.62948 0.71297
 C231 C -0.05713 0.64929 0.69430
 C232 C -0.05419 0.72538 0.67721
 C233 C -0.07130 0.74379 0.65762
 C234 C -0.06650 0.74301 0.62540
 C235 C -0.04422 0.72365 0.61319
 C236 C -0.02747 0.70497 0.63273
 H237 H 0.05493 0.66899 0.63828
 H238 H 0.08365 0.70265 0.60420
 H239 H 0.04773 0.77893 0.65391
 H240 H 0.01867 0.74524 0.68772
 H241 H 0.00844 0.62317 0.68418
 H242 H 0.03577 0.58590 0.71515
 H243 H 0.06416 0.69310 0.72356
 H244 H -0.00860 0.67729 0.74880
 H245 H -0.03652 0.64201 0.78142
 H246 H -0.09154 0.61633 0.70268
 H247 H -0.06281 0.65086 0.66991
 H248 H -0.05821 0.72628 0.70198
 H249 H -0.08817 0.75855 0.66779
 H250 H -0.04016 0.72261 0.58842
 H251 H -0.01114 0.68952 0.62266
 H252 H 0.09231 0.65556 0.75373
 C253 C 1.01924 0.68840 0.31165
 C254 C 0.98814 0.68653 0.31249
 C255 C 0.96919 0.70596 0.33308
 C256 C 0.97146 0.66372 0.29400
 C257 C 1.03786 0.66940 0.29031
 C258 C 1.03638 0.70791 0.33346
 C259 C 0.94741 0.69275 0.35258
 C260 C 0.92989 0.71031 0.37266
 C261 C 0.93373 0.74146 0.37362
 C262 C 0.95524 0.75483 0.35397
 C263 C 0.97258 0.73727 0.33355
 C264 C 0.97881 0.63316 0.29638
 C265 C 0.96340 0.61200 0.27841
 C266 C 0.93996 0.62102 0.25834
 C267 C 0.93187 0.65137 0.25678
 C268 C 0.94757 0.67260 0.27441
 C269 C 1.03153 0.66784 0.25838
 C270 C 1.04738 0.64769 0.23934
 C271 C 1.07031 0.62926 0.25181
 C272 C 1.07781 0.63214 0.28334
 C273 C 1.06167 0.65191 0.30241
 C274 C 1.05851 0.72763 0.32200
 C275 C 1.07522 0.74571 0.34226
 C276 C 1.07007 0.74429 0.37439
 C277 C 1.04796 0.72450 0.38584
 C278 C 1.03161 0.70612 0.36562
 H279 H 0.94438 0.66868 0.35267
 H280 H 0.91376 0.69936 0.38782
 H281 H 0.95860 0.77884 0.35447
 H282 H 0.98883 0.74805 0.31835
 H283 H 0.99655 0.62573 0.31208
 H284 H 0.96958 0.58863 0.28055
 H285 H 0.94128 0.69600 0.27260
 H286 H 1.01379 0.68169 0.24836
 H287 H 1.04142 0.64643 0.21503
 H288 H 1.09564 0.61843 0.29343
 H289 H 1.06718 0.65288 0.32689
 H290 H 1.06270 0.72913 0.29729
 H291 H 1.09191 0.76086 0.33265
 H292 H 1.04359 0.72302 0.41053
 H293 H 1.01524 0.69048 0.37505
 H294 H 0.91349 0.65862 0.24176
 C295 C 1.01533 0.31111 0.68763
 C296 C 0.98416 0.31100 0.68817
 C297 C 0.96595 0.28979 0.66888
 C298 C 0.96660 0.33331 0.70664
 C299 C 1.03365 0.33175 0.70740
 C300 C 1.03292 0.29181 0.66587
 C301 C 0.94257 0.30093 0.64983
 C302 C 0.92644 0.28178 0.63017
 C303 C 0.93354 0.25117 0.62896
 C304 C 0.95613 0.23971 0.64874
 C305 C 0.97195 0.25882 0.66885
 C306 C 0.97195 0.36416 0.70341
 C307 C 0.95541 0.38483 0.72106
 C308 C 0.93263 0.37507 0.74144
 C309 C 0.92680 0.34433 0.74423
 C310 C 0.94367 0.32360 0.72694
 C311 C 1.02908 0.33376 0.73963
 C312 C 1.04595 0.35412 0.75741
 C313 C 1.06814 0.37218 0.74340
 C314 C 1.07313 0.36970 0.71136
 C315 C 1.05608 0.34968 0.69357
 C316 C 1.05644 0.27355 0.67727
 C317 C 1.07372 0.25585 0.65706
 C318 C 1.06776 0.25619 0.62505
 C319 C 1.04421 0.27447 0.61366
 C320 C 1.02723 0.29247 0.63383
 H321 H 0.93730 0.32464 0.64958
 H322 H 0.90888 0.29097 0.61528
 H323 H 0.96168 0.21609 0.64858
 H324 H 0.98929 0.24954 0.68393
 H325 H 0.98896 0.37222 0.68727
 H326 H 0.96015 0.40850 0.71858
 H327 H 0.93902 0.29993 0.72955
 H328 H 1.01228 0.31980 0.75093
 H329 H 1.04172 0.35579 0.78211
 H330 H 1.08980 0.38359 0.69986
 H331 H 1.06003 0.34857 0.66879
 H332 H 1.06133 0.27293 0.70189
 H333 H 1.09155 0.24189 0.66665
 H334 H 1.03920 0.27511 0.58906
 H335 H 1.00968 0.30696 0.62444
 H336 H 0.90944 0.33624 0.75991
 C337 C 0.30839 -0.01478 0.30789
 C338 C 0.31135 0.01559 0.30864
 C339 C 0.33486 0.03173 0.29033
 C340 C 0.29167 0.03408 0.32906
 C341 C 0.28804 -0.03040 0.33005
 C342 C 0.32706 -0.03394 0.28698
 C343 C 0.36577 0.02340 0.29175
 C344 C 0.38748 0.03840 0.27389
 C345 C 0.37874 0.06240 0.25491
 C346 C 0.34809 0.07141 0.25432
 C347 C 0.32630 0.05616 0.27182
 C348 C 0.30482 0.05068 0.35321
 C349 C 0.28637 0.06692 0.37362
 C350 C 0.25461 0.06727 0.36975
 C351 C 0.24147 0.05115 0.34520
 C352 C 0.25991 0.03457 0.32500
 C353 C 0.26365 -0.04771 0.31910
 C354 C 0.24487 -0.06298 0.33994
 C355 C 0.25058 -0.06147 0.37194
 C356 C 0.27518 -0.04440 0.38282
 C357 C 0.29373 -0.02890 0.36205
 C358 C 0.32941 -0.02783 0.25511
 C359 C 0.34976 -0.04405 0.23655
 C360 C 0.36755 -0.06707 0.24948
 C361 C 0.36371 -0.07438 0.28087
 C362 C 0.34374 -0.05791 0.29947
 H363 H 0.37307 0.00524 0.30662
 H364 H 0.41109 0.03142 0.27527
 H365 H 0.34102 0.09017 0.24013
 H366 H 0.30268 0.06323 0.27069
 H367 H 0.32928 0.05044 0.35668
 H368 H 0.29684 0.07912 0.39256
 H369 H 0.24947 0.02193 0.30635
 H370 H 0.25915 -0.04930 0.29445
 H371 H 0.22626 -0.07629 0.33097
 H372 H 0.28010 -0.04325 0.40741
 H373 H 0.31279 -0.01604 0.37084
 H374 H 0.31615 -0.00993 0.24484
 H375 H 0.35177 -0.03825 0.21229
 H376 H 0.37691 -0.09229 0.29125
 H377 H 0.34214 -0.06322 0.32391
 H378 H 0.21702 0.05094 0.34191
 C379 C 0.68554 -0.01502 0.68864
 C380 C 0.68739 0.01553 0.68802
 C381 C 0.66868 0.03482 0.70898
 C382 C 0.70686 0.03126 0.66504
 C383 C 0.70513 -0.03436 0.66859
 C384 C 0.66265 -0.03072 0.70813
 C385 C 0.65104 0.05809 0.69636
 C386 C 0.63173 0.07508 0.71525
 C387 C 0.62953 0.06902 0.74705
 C388 C 0.64799 0.04659 0.76000
 C389 C 0.66770 0.02984 0.74116
 C390 C 0.70408 0.02528 0.63315
 C391 C 0.72277 0.03989 0.61182
 C392 C 0.74410 0.06111 0.62198
 C393 C 0.74615 0.06789 0.65369
 C394 C 0.72772 0.05300 0.67509
 C395 C 0.73699 -0.03086 0.66766
 C396 C 0.75467 -0.04818 0.64735
 C397 C 0.74091 -0.06981 0.62832
 C398 C 0.70925 -0.07394 0.62993
 C399 C 0.69154 -0.05640 0.64988
 C400 C 0.67200 -0.05384 0.72796
 C401 C 0.65070 -0.06894 0.74618
 C402 C 0.61970 -0.06103 0.74506
 C403 C 0.61024 -0.03829 0.72472
 C404 C 0.63150 -0.02349 0.70619
 H405 H 0.65156 0.06254 0.67169
 H406 H 0.61784 0.09249 0.70491
 H407 H 0.64703 0.04179 0.78456
 H408 H 0.68168 0.01255 0.75157
 H409 H 0.68745 0.00928 0.62481
 H410 H 0.72023 0.03487 0.58739
 H411 H 0.72988 0.05827 0.69953
 H412 H 0.74807 -0.01442 0.68229
 H413 H 0.77907 -0.04465 0.64638
 H414 H 0.69800 -0.09023 0.61531
 H415 H 0.66706 -0.05955 0.65020
 H416 H 0.69585 -0.06008 0.72942
 H417 H 0.65847 -0.08679 0.76123
 H418 H 0.58643 -0.03220 0.72268
 H419 H 0.62365 -0.00640 0.69028
 H420 H 0.76209 0.08462 0.66187
 C421 C 0.31100 1.01600 0.69112
 C422 C 0.30913 0.98551 0.69244
 C423 C 0.32849 0.96723 0.71366
 C424 C 0.28941 0.96879 0.67057
 C425 C 0.29095 1.03395 0.67023
 C426 C 0.33436 1.03279 0.70898
 C427 C 0.34542 0.94311 0.70159
 C428 C 0.36535 0.92699 0.72053
 C429 C 0.36890 0.93473 0.75185
 C430 C 0.35122 0.95807 0.76434
 C431 C 0.33090 0.97400 0.74546
 C432 C 0.29463 0.97040 0.63851
 C433 C 0.27586 0.95483 0.61794
 C434 C 0.25154 0.93764 0.62911
 C435 C 0.24653 0.93573 0.66118
 C436 C 0.26554 0.95103 0.68182
 C437 C 0.25909 1.03028 0.67022
 C438 C 0.24087 1.04608 0.64921
 C439 C 0.25413 1.06633 0.62840
 C440 C 0.28572 1.07099 0.62932
 C441 C 0.30399 1.05487 0.64993
 C442 C 0.32551 1.05692 0.72789
 C443 C 0.34727 1.07271 0.74497
 C444 C 0.37812 1.06450 0.74351
 C445 C 0.38711 1.04085 0.72406
 C446 C 0.36543 1.02533 0.70664
 H447 H 0.34390 0.93728 0.67725
 H448 H 0.37864 0.90889 0.71055
 H449 H 0.35326 0.96421 0.78854
 H450 H 0.31754 0.99201 0.75549
 H451 H 0.31326 0.98367 0.62950
 H452 H 0.28027 0.95621 0.59326
 H453 H 0.26143 0.94940 0.70653
 H454 H 0.24837 1.01497 0.68628
 H455 H 0.21648 1.04249 0.64933
 H456 H 0.29631 1.08677 0.61364
 H457 H 0.32843 1.05830 0.64964
 H458 H 0.30172 1.06331 0.72964
 H459 H 0.34002 1.09120 0.75955
 H460 H 0.41086 1.03451 0.72204
 H461 H 0.37286 1.00740 0.69143
 H462 H 0.22818 0.92223 0.67033
 C463 C 0.69074 1.01345 0.30924
 C464 C 0.68917 0.98292 0.30973
 C465 C 0.66768 0.96603 0.28934
 C466 C 0.70751 0.96492 0.33187
 C467 C 0.71214 1.03080 0.32924
 C468 C 0.66925 1.03128 0.29028
 C469 C 0.64806 0.94471 0.30245
 C470 C 0.62718 0.92924 0.28397
 C471 C 0.62529 0.93493 0.25206
 C472 C 0.64529 0.95571 0.23869
 C473 C 0.66656 0.97088 0.25713
 C474 C 0.70648 0.97079 0.36388
 C475 C 0.72420 0.95394 0.38434
 C476 C 0.74251 0.93046 0.37324
 C477 C 0.74301 0.92411 0.34137
 C478 C 0.72561 0.94122 0.32083
 C479 C 0.74346 1.02400 0.33061
 C480 C 0.76267 1.03965 0.35090
 C481 C 0.75098 1.06281 0.36964
 C482 C 0.72000 1.07042 0.36720
 C483 C 0.70079 1.05453 0.34735
 C484 C 0.68039 1.04999 0.26684
 C485 C 0.66022 1.06672 0.24874
 C486 C 0.62873 1.06529 0.25426
 C487 C 0.61767 1.04714 0.27822
 C488 C 0.63779 1.03014 0.29607
 H489 H 0.64860 0.94036 0.32715
 H490 H 0.61213 0.91307 0.29465
 H491 H 0.64461 0.96012 0.21405
 H492 H 0.68203 0.98654 0.24628
 H493 H 0.69206 0.98848 0.37298
 H494 H 0.72346 0.95905 0.40891
 H495 H 0.72648 0.93618 0.29626
 H496 H 0.75294 1.00634 0.31627
 H497 H 0.78654 1.03354 0.35187
 H498 H 0.71049 1.08837 0.38118
 H499 H 0.67681 1.06041 0.34662
 H500 H 0.70466 1.05129 0.26237
 H501 H 0.66929 1.08086 0.23064
 H502 H 0.59344 1.04604 0.28295
 H503 H 0.62891 1.01617 0.31445
 H504 H 0.75700 0.90615 0.33223
 O505 O 0.87836 0.83582 0.47004
 O506 O 0.83673 0.87636 0.53160
 O507 O 0.87865 0.83467 0.53029
 O508 O 0.83553 0.87664 0.47129
 O509 O 0.80101 0.84065 0.47011
 O510 O 0.84221 0.80056 0.53132
 O511 O 0.80050 0.84205 0.53024
 O512 O 0.84364 0.80003 0.47119
 Cu513 Cu 0.86091 0.85944 0.50081
 Cu514 Cu 0.81827 0.81729 0.50070
 C515 C 0.86824 0.81082 0.46054
 C516 C 0.81136 0.86625 0.54101
 C517 C 0.86758 0.81053 0.54087
 C518 C 0.81101 0.86561 0.46063
 O519 O 0.16148 0.12188 0.52999
 O520 O 0.12093 0.16344 0.46862
 O521 O 0.16199 0.12097 0.46956
 O522 O 0.12062 0.16451 0.52880
 O523 O 0.15814 0.19748 0.52980
 O524 O 0.19769 0.15583 0.46818
 O525 O 0.15683 0.19811 0.46971
 O526 O 0.19889 0.15493 0.52839
 Cu527 Cu 0.13758 0.13922 0.49927
 Cu528 Cu 0.18160 0.17998 0.49901
 C529 C 0.18726 0.13119 0.53928
 C530 C 0.13183 0.18809 0.45916
 C531 C 0.18677 0.13118 0.45871
 C532 C 0.13246 0.18834 0.53936
 O533 O 0.11860 0.83855 0.53026
 O534 O 0.15842 0.88194 0.47020
 O535 O 0.11936 0.83793 0.47034
 O536 O 0.15836 0.88188 0.53083
 O537 O 0.19625 0.84909 0.53075
 O538 O 0.15750 0.80542 0.47042
 O539 O 0.19642 0.84929 0.47081
 O540 O 0.15657 0.80586 0.53078
 Cu541 Cu 0.13491 0.86348 0.50037
 Cu542 Cu 0.18048 0.82408 0.50073
 C543 C 0.13074 0.81473 0.54051
 C544 C 0.18418 0.87299 0.46039
 C545 C 0.13183 0.81413 0.46029
 C546 C 0.18398 0.87288 0.54095
 O547 O 0.88178 0.15778 0.53018
 O548 O 0.84312 0.11739 0.46668
 O549 O 0.88371 0.16016 0.46999
 O550 O 0.84050 0.11582 0.52690
 O551 O 0.80475 0.15084 0.52786
 O552 O 0.84634 0.19349 0.46884
 O553 O 0.80582 0.15079 0.46777
 O554 O 0.84600 0.19273 0.52887
 Cu555 Cu 0.86598 0.13433 0.49842
 Cu556 Cu 0.82204 0.17538 0.49830
 C557 C 0.87070 0.18237 0.53989
 C558 C 0.81760 0.12697 0.45690
 C559 C 0.87231 0.18440 0.45988
 C560 C 0.81529 0.12592 0.53703
 O561 O 0.53177 0.83974 0.88210
 O562 O 0.46868 0.88020 0.84375
 O563 O 0.47266 0.83710 0.88443
 O564 O 0.52792 0.88258 0.84095
 O565 O 0.52889 0.84826 0.80390
 O566 O 0.47162 0.80430 0.84593
 O567 O 0.46975 0.84734 0.80532
 O568 O 0.53068 0.80554 0.84494
 Cu569 Cu 0.50027 0.86332 0.86661
 Cu570 Cu 0.50025 0.82300 0.82121
 C571 C 0.54151 0.81547 0.87024
 C572 C 0.45884 0.87081 0.81780
 C573 C 0.46283 0.81297 0.87251
 C574 C 0.53776 0.87306 0.81505
 O575 O 0.53247 0.16431 0.11955
 O576 O 0.47414 0.11983 0.16016
 O577 O 0.47329 0.16292 0.11886
 O578 O 0.53329 0.12157 0.16017
 O579 O 0.53148 0.15484 0.19823
 O580 O 0.47185 0.19643 0.15669
 O581 O 0.47245 0.15374 0.19760
 O582 O 0.53090 0.19785 0.15736
 Cu583 Cu 0.50331 0.13874 0.13585
 Cu584 Cu 0.50154 0.17910 0.18128
 C585 C 0.54146 0.18870 0.13161
 C586 C 0.46367 0.12914 0.18592
 C587 C 0.46272 0.18688 0.13058
 C588 C 0.54241 0.13113 0.18628
 O589 O 0.53206 0.12467 0.84043
 O590 O 0.46918 0.16409 0.88014
 O591 O 0.47292 0.12183 0.83840
 O592 O 0.52826 0.16742 0.88176
 O593 O 0.52870 0.20043 0.84363
 O594 O 0.47086 0.15661 0.80205
 O595 O 0.46964 0.19892 0.84380
 O596 O 0.53002 0.15764 0.80234
 Cu597 Cu 0.50071 0.14106 0.86395
 Cu598 Cu 0.49974 0.18181 0.81918
 C599 C 0.54130 0.13419 0.81437
 C600 C 0.45915 0.18847 0.86898
 C601 C 0.46245 0.13160 0.81292
 C602 C 0.53782 0.19166 0.87001
 O603 O 0.46638 0.83560 0.11972
 O604 O 0.52653 0.87898 0.15945
 O605 O 0.52538 0.83534 0.11873
 O606 O 0.46672 0.87901 0.15990
 O607 O 0.46716 0.84585 0.19788
 O608 O 0.52658 0.80283 0.15730
 O609 O 0.52636 0.84632 0.19786
 O610 O 0.46754 0.80236 0.15763
 Cu611 Cu 0.49631 0.86069 0.13568
 Cu612 Cu 0.49702 0.82108 0.18155
 C613 C 0.45703 0.81145 0.13188
 C614 C 0.53645 0.87007 0.18552
 C615 C 0.53560 0.81149 0.13086
 C616 C 0.45682 0.86964 0.18575
 O617 O 0.83754 0.47172 0.87731
 O618 O 0.87953 0.53091 0.83614
 O619 O 0.83698 0.52996 0.87837
 O620 O 0.87950 0.47260 0.83443
 O621 O 0.84297 0.47201 0.79908
 O622 O 0.80260 0.53183 0.84091
 O623 O 0.84498 0.53020 0.79880
 O624 O 0.80115 0.47375 0.84188
 Cu625 Cu 0.86200 0.50122 0.86024
 Cu626 Cu 0.81937 0.50200 0.81648
 C627 C 0.81199 0.46306 0.86682
 C628 C 0.86953 0.54032 0.81032
 C629 C 0.81269 0.54076 0.86689
 C630 C 0.86822 0.46241 0.80944
 O631 O 0.12191 0.53138 0.16012
 O632 O 0.16124 0.46870 0.12090
 O633 O 0.11874 0.47331 0.16308
 O634 O 0.16441 0.52674 0.11799
 O635 O 0.19876 0.52785 0.15552
 O636 O 0.15478 0.47194 0.19891
 O637 O 0.19729 0.46981 0.15672
 O638 O 0.15624 0.53002 0.19764
 Cu639 Cu 0.13800 0.50004 0.13681
 Cu640 Cu 0.18031 0.49989 0.18091
 C641 C 0.13219 0.54099 0.18580
 C642 C 0.18622 0.45900 0.13192
 C643 C 0.12911 0.46350 0.18859
 C644 C 0.18928 0.53641 0.12919
 O645 O 0.83721 0.53015 0.12215
 O646 O 0.87746 0.46948 0.16326
 O647 O 0.83398 0.47223 0.12225
 O648 O 0.88075 0.52764 0.16374
 O649 O 0.84597 0.53019 0.20080
 O650 O 0.80018 0.47360 0.16030
 O651 O 0.84374 0.47221 0.20129
 O652 O 0.80279 0.53188 0.15959
 Cu653 Cu 0.86085 0.49974 0.13906
 Cu654 Cu 0.81968 0.50217 0.18424
 C655 C 0.81299 0.54105 0.13377
 C656 C 0.86754 0.46074 0.18936
 C657 C 0.80921 0.46346 0.13435
 C658 C 0.87128 0.53821 0.18936
 O659 O 0.16335 0.52987 0.87777
 O660 O 0.12205 0.46866 0.83840
 O661 O 0.16480 0.47172 0.88043
 O662 O 0.12091 0.52668 0.83528
 O663 O 0.15692 0.52659 0.79937
 O664 O 0.19932 0.46965 0.84308
 O665 O 0.15671 0.46861 0.80114
 O666 O 0.19922 0.52771 0.84178
 Cu667 Cu 0.13922 0.49937 0.86170
 Cu668 Cu 0.18161 0.49805 0.81766
 C669 C 0.18852 0.53883 0.86663
 C670 C 0.13223 0.45860 0.81284
 C671 C 0.18946 0.46133 0.86931
 C672 C 0.13150 0.53588 0.80964
 C673 C 0.23605 0.42525 0.12293
 C674 C 0.22636 0.39208 0.11980
 C675 C 0.23413 0.39314 0.08503
 C676 C 0.24396 0.42611 0.08799
 C677 C 0.20126 0.40282 0.07719
 C678 C 0.19328 0.40205 0.11221
 C679 C 0.20324 0.43491 0.11513
 C680 C 0.21098 0.43602 0.08038
 H681 H 0.25032 0.43464 0.14185
 H682 H 0.23281 0.37377 0.13589
 H683 H 0.26494 0.43592 0.07785
 H684 H 0.18671 0.39379 0.05833
 H685 H 0.17225 0.39240 0.12241
 H686 H 0.20454 0.45437 0.06432
 C687 C 0.80157 0.57428 0.08290
 C688 C 0.76681 0.57285 0.07670
 C689 C 0.76385 0.60579 0.08689
 C690 C 0.79844 0.60749 0.09293
 C691 C 0.75816 0.59614 0.12066
 C692 C 0.76126 0.56299 0.11057
 C693 C 0.79577 0.56468 0.11661
 C694 C 0.79290 0.59755 0.12690
 H695 H 0.81956 0.56506 0.06745
 H696 H 0.75593 0.56286 0.05587
 H697 H 0.81394 0.62585 0.08583
 H698 H 0.74018 0.60533 0.13615
 H699 H 0.74611 0.54445 0.11795
 H700 H 0.80383 0.60746 0.14775
 C701 C 0.76103 0.43150 0.87719
 C702 C 0.76977 0.39809 0.88079
 C703 C 0.76260 0.40019 0.91566
 C704 C 0.75370 0.43341 0.91224
 C705 C 0.79585 0.40891 0.92279
 C706 C 0.80324 0.40706 0.88769
 C707 C 0.79422 0.44017 0.88430
 C708 C 0.78708 0.44235 0.91914
 H709 H 0.74677 0.44096 0.85832
 H710 H 0.76253 0.37965 0.86515
 H711 H 0.73319 0.44417 0.92253
 H712 H 0.81043 0.39982 0.94159
 H713 H 0.82380 0.39646 0.87733
 H714 H 0.79432 0.46083 0.93474
 C715 C 0.23783 0.55588 0.89761
 C716 C 0.25026 0.58478 0.88259
 C717 C 0.24054 0.60254 0.91168
 C718 C 0.22825 0.57383 0.92682
 C719 C 0.20907 0.60900 0.89726
 C720 C 0.21860 0.59099 0.86803
 C721 C 0.20643 0.56231 0.88322
 C722 C 0.19659 0.57998 0.91223
 H723 H 0.24946 0.53376 0.89769
 H724 H 0.27217 0.58651 0.86987
 H725 H 0.23244 0.56692 0.95116
 H726 H 0.19740 0.63109 0.89718
 H727 H 0.21437 0.59786 0.84368
 H728 H 0.17434 0.57782 0.92429
 C729 C 0.12871 0.21790 0.40542
 C730 C 0.09911 0.20910 0.38806
 C731 C 0.08568 0.24021 0.39548
 C732 C 0.11514 0.24920 0.41259
 C733 C 0.07183 0.22832 0.42582
 C734 C 0.08543 0.19701 0.41871
 C735 C 0.11482 0.20613 0.43573
 C736 C 0.10141 0.23717 0.44313
 H737 H 0.15229 0.21336 0.39723
 H738 H 0.09811 0.19769 0.36517
 H739 H 0.12782 0.27054 0.41019
 H740 H 0.04826 0.23282 0.43406
 H741 H 0.07335 0.17536 0.42142
 H742 H 0.10245 0.24851 0.46605
 C743 C 0.12399 0.79249 0.59794
 C744 C 0.09043 0.79728 0.60824
 C745 C 0.08489 0.76338 0.60482
 C746 C 0.11825 0.75841 0.59482
 C747 C 0.07515 0.76749 0.57082
 C748 C 0.08084 0.80157 0.57397
 C749 C 0.11415 0.79652 0.56400
 C750 C 0.10861 0.76270 0.56059
 H751 H 0.14428 0.80298 0.60882
 H752 H 0.08313 0.81172 0.62788
 H753 H 0.13356 0.74052 0.60362
 H754 H 0.05487 0.75706 0.55984
 H755 H 0.06553 0.81946 0.56516
 H756 H 0.11623 0.74866 0.54074
 C757 C 0.87204 0.78104 0.40665
 C758 C 0.90116 0.79085 0.38908
 C759 C 0.91579 0.76025 0.39623
 C760 C 0.88681 0.75025 0.41355
 C761 C 0.92944 0.77266 0.42651
 C762 C 0.91463 0.80346 0.41968
 C763 C 0.88573 0.79333 0.43691
 C764 C 0.90034 0.76280 0.44403
 H765 H 0.84825 0.78472 0.39868
 H766 H 0.90155 0.80226 0.36625
 H767 H 0.87486 0.72849 0.41120
 H768 H 0.95322 0.76902 0.43452
 H769 H 0.92592 0.82553 0.42239
 H770 H 0.89990 0.75145 0.46691
 C771 C 0.89050 0.19117 0.59846
 C772 C 0.92493 0.19886 0.59701
 C773 C 0.91732 0.23147 0.60595
 C774 C 0.88312 0.22400 0.60768
 C775 C 0.91415 0.23997 0.57151
 C776 C 0.92154 0.20725 0.56233
 C777 C 0.88737 0.19981 0.56413
 C778 C 0.87979 0.23237 0.57305
 H779 H 0.88054 0.17091 0.60930
 H780 H 0.94356 0.18486 0.60669
 H781 H 0.86744 0.23103 0.62658
 H782 H 0.92405 0.26017 0.56048
 H783 H 0.93719 0.20024 0.54340
 H784 H 0.86112 0.24611 0.56302
 C785 C 0.44556 0.10184 0.23743
 C786 C 0.41215 0.11112 0.24411
 C787 C 0.40187 0.07913 0.23600
 C788 C 0.43508 0.06967 0.22947
 C789 C 0.39745 0.08799 0.20178
 C790 C 0.40799 0.12019 0.20976
 C791 C 0.44111 0.11072 0.20330
 C792 C 0.43090 0.07877 0.19507
 H793 H 0.46560 0.10773 0.25194
 H794 H 0.40429 0.12428 0.26449
 H795 H 0.44654 0.04885 0.23734
 H796 H 0.37746 0.08209 0.18722
 H797 H 0.39706 0.14113 0.20142
 H798 H 0.43878 0.06561 0.17469
 C799 C 0.59888 0.11404 0.80699
 C800 C 0.59732 0.07997 0.80019
 C801 C 0.60675 0.08605 0.76636
 C802 C 0.60858 0.11988 0.77294
 C803 C 0.57306 0.08915 0.75675
 C804 C 0.56341 0.08328 0.79068
 C805 C 0.56530 0.11708 0.79723
 C806 C 0.57469 0.12315 0.76347
 H807 H 0.60925 0.12452 0.82783
 H808 H 0.60643 0.06218 0.81556
 H809 H 0.62741 0.13481 0.76552
 H810 H 0.56252 0.07872 0.73596
 H811 H 0.54456 0.06838 0.79808
 H812 H 0.56521 0.14102 0.74841
 C813 C 0.40117 0.89137 0.81201
 C814 C 0.40263 0.92526 0.80443
 C815 C 0.39219 0.91835 0.77104
 C816 C 0.39044 0.88470 0.77842
 C817 C 0.42558 0.91486 0.76048
 C818 C 0.43626 0.92155 0.79397
 C819 C 0.43444 0.88793 0.80129
 C820 C 0.42401 0.88106 0.76797
 H821 H 0.39138 0.88146 0.83337
 H822 H 0.39399 0.94348 0.81965
 H823 H 0.37136 0.86966 0.77190
 H824 H 0.43553 0.92470 0.73915
 H825 H 0.45538 0.93655 0.80047
 H826 H 0.43294 0.86278 0.75298
 C827 C 0.56945 0.88208 0.23616
 C828 C 0.60338 0.88462 0.22677
 C829 C 0.60196 0.91856 0.23288
 C830 C 0.56819 0.91619 0.24238
 C831 C 0.59275 0.92434 0.19892
 C832 C 0.59391 0.89016 0.19262
 C833 C 0.56024 0.88781 0.20225
 C834 C 0.55871 0.92173 0.20830
 H835 H 0.55973 0.86460 0.25148
 H836 H 0.62197 0.86945 0.23448
 H837 H 0.55770 0.92706 0.26298
 H838 H 0.60218 0.94180 0.18339
 H839 H 0.60426 0.87923 0.17198
 H840 H 0.54008 0.93684 0.20057
 C841 C 0.42535 0.23799 0.87887
 C842 C 0.39164 0.22900 0.88350
 C843 C 0.39430 0.23578 0.91680
 C844 C 0.42630 0.24536 0.91388
 C845 C 0.40295 0.20477 0.92462
 C846 C 0.40147 0.19624 0.88985
 C847 C 0.43514 0.20552 0.88613
 C848 C 0.43697 0.21314 0.92101
 H849 H 0.43413 0.25256 0.86008
 H850 H 0.37205 0.23622 0.86897
 H851 H 0.43564 0.26607 0.92455
 H852 H 0.39362 0.19128 0.94397
 H853 H 0.39037 0.17599 0.88009
 H854 H 0.45553 0.20697 0.93732
 C855 C 0.58270 0.80654 0.91627
 C856 C 0.57659 0.77497 0.92960
 C857 C 0.60632 0.76360 0.91460
 C858 C 0.61275 0.79499 0.90144
 C859 C 0.58897 0.75484 0.88484
 C860 C 0.55906 0.76633 0.89974
 C861 C 0.56546 0.79764 0.88658
 C862 C 0.59515 0.78641 0.87154
 H863 H 0.57994 0.82798 0.92907
 H864 H 0.56908 0.77005 0.95364
 H865 H 0.63507 0.80663 0.90220
 H866 H 0.59127 0.73376 0.87136
 H867 H 0.53670 0.75473 0.89897
 H868 H 0.60260 0.79137 0.84749
 C869 C 0.41731 0.80092 0.08510
 C870 C 0.42374 0.76885 0.07291
 C871 C 0.39360 0.75825 0.08743
 C872 C 0.38684 0.79011 0.09944
 C873 C 0.41007 0.75036 0.11793
 C874 C 0.44043 0.76114 0.10353
 C875 C 0.43372 0.79293 0.11551
 C876 C 0.40361 0.78243 0.13006
 H877 H 0.42047 0.82188 0.07173
 H878 H 0.43190 0.76308 0.04925
 H879 H 0.36461 0.80195 0.09780
 H880 H 0.40725 0.72978 0.13200
 H881 H 0.46274 0.74944 0.10530
 H882 H 0.39555 0.78829 0.15373
 C883 C 0.55681 0.23853 0.10201
 C884 C 0.58652 0.25077 0.11656
 C885 C 0.60379 0.24243 0.08661
 C886 C 0.57428 0.23034 0.07193
 C887 C 0.61137 0.21123 0.09970
 C888 C 0.59385 0.21938 0.12978
 C889 C 0.56438 0.20741 0.11506
 C890 C 0.58157 0.19894 0.08519
 H891 H 0.53409 0.24954 0.10305
 H892 H 0.58838 0.27194 0.12996
 H893 H 0.56639 0.23507 0.04797
 H894 H 0.63405 0.20015 0.09869
 H895 H 0.60170 0.21461 0.15375
 H896 H 0.57934 0.17744 0.07242
 C897 C 0.21003 0.07983 0.56165
 C898 C 0.24378 0.08516 0.57051
 C899 C 0.23512 0.08300 0.60505
 C900 C 0.20149 0.07744 0.59644
 C901 C 0.22944 0.11699 0.60649
 C902 C 0.23796 0.11933 0.57177
 C903 C 0.20439 0.11379 0.56318
 C904 C 0.19562 0.11166 0.59761
 H905 H 0.20192 0.06470 0.54294
 H906 H 0.26371 0.07407 0.55945
 H907 H 0.18625 0.06016 0.60639
 H908 H 0.23756 0.13216 0.62517
 H909 H 0.25292 0.13666 0.56144
 H910 H 0.17563 0.12280 0.60852
 C911 C 0.76756 0.11614 0.42328
 C912 C 0.77669 0.11213 0.38884
 C913 C 0.76965 0.07848 0.39136
 C914 C 0.76040 0.08233 0.42561
 C915 C 0.80287 0.07180 0.40086
 C916 C 0.81011 0.10572 0.39867
 C917 C 0.80070 0.10955 0.43280
 C918 C 0.79372 0.07593 0.43536
 H919 H 0.75307 0.13449 0.43263
 H920 H 0.76957 0.12693 0.36949
 H921 H 0.73986 0.07255 0.43667
 H922 H 0.81773 0.05356 0.39195
 H923 H 0.83072 0.11559 0.38785
 H924 H 0.80085 0.06121 0.45478
 C925 C 0.80390 0.91142 0.58236
 C926 C 0.77262 0.92616 0.57554
 C927 C 0.75983 0.91254 0.60558
 C928 C 0.79092 0.89798 0.61272
 C929 C 0.74955 0.88430 0.58785
 C930 C 0.76248 0.89779 0.55760
 C931 C 0.79349 0.88325 0.56472
 C932 C 0.78083 0.86960 0.59474
 H933 H 0.82643 0.92244 0.57992
 H934 H 0.76903 0.94960 0.56780
 H935 H 0.80247 0.89812 0.63563
 H936 H 0.72733 0.87265 0.58991
 H937 H 0.75099 0.89762 0.53465
 H938 H 0.78445 0.84615 0.60243
 C939 C 0.23066 0.90739 0.44289
 C940 C 0.24411 0.89420 0.41262
 C941 C 0.23152 0.92126 0.39463
 C942 C 0.21822 0.93465 0.42469
 C943 C 0.20148 0.90455 0.38819
 C944 C 0.21392 0.87730 0.40642
 C945 C 0.20070 0.89070 0.43643
 C946 C 0.18800 0.91774 0.41856
 H947 H 0.24247 0.90840 0.46564
 H948 H 0.26735 0.88462 0.40996
 H949 H 0.22009 0.95843 0.43202
 H950 H 0.18914 0.90329 0.36576
 H951 H 0.21199 0.85351 0.39915
 H952 H 0.16475 0.92731 0.42122
 C953 C 0.10077 0.44091 0.76360
 C954 C 0.11465 0.41114 0.75178
 C955 C 0.08563 0.39466 0.76236
 C956 C 0.07162 0.42424 0.77406
 C957 C 0.09984 0.38882 0.79445
 C958 C 0.12900 0.40554 0.78403
 C959 C 0.11498 0.43509 0.79561
 C960 C 0.08603 0.41873 0.80635
 H961 H 0.10124 0.46261 0.75110
 H962 H 0.12700 0.40825 0.72950
 H963 H 0.04786 0.43179 0.76974
 H964 H 0.09940 0.36715 0.80699
 H965 H 0.15278 0.39804 0.78839
 H966 H 0.07442 0.42205 0.82897
 C967 C 0.08118 0.56424 0.21005
 C968 C 0.08819 0.57430 0.24365
 C969 C 0.08557 0.60723 0.23342
 C970 C 0.07829 0.59741 0.19992
 C971 C 0.11988 0.60815 0.22603
 C972 C 0.12268 0.57502 0.23612
 C973 C 0.11546 0.56521 0.20270
 C974 C 0.11286 0.59802 0.19234
 H975 H 0.06542 0.54590 0.20336
 H976 H 0.07788 0.56457 0.26486
 H977 H 0.06004 0.60627 0.18463
 H978 H 0.13571 0.62643 0.23270
 H979 H 0.14103 0.56565 0.25096
 H980 H 0.12325 0.60751 0.17105
 C981 C 0.88695 0.40394 0.19642
 C982 C 0.92160 0.40471 0.20353
 C983 C 0.91478 0.39531 0.23720
 C984 C 0.88037 0.39424 0.23029
 C985 C 0.91222 0.42838 0.24720
 C986 C 0.91878 0.43800 0.21342
 C987 C 0.88441 0.43688 0.20654
 C988 C 0.87763 0.42752 0.24013
 H989 H 0.87631 0.39414 0.17536
 H990 H 0.93965 0.39572 0.18802
 H991 H 0.86466 0.37603 0.23732
 H992 H 0.92279 0.43840 0.26819
 H993 H 0.93442 0.45628 0.20637
 H994 H 0.85944 0.43707 0.25512
 C995 C 0.87993 0.57378 0.75984
 C996 C 0.88409 0.60673 0.77023
 C997 C 0.91828 0.60438 0.76253
 C998 C 0.91431 0.57163 0.75198
 C999 C 0.92546 0.59413 0.79586
 C1000 C 0.89102 0.59619 0.80374
 C1001 C 0.88706 0.56356 0.79310
 C1002 C 0.92122 0.56115 0.78544
 H1003 H 0.86109 0.56523 0.74510
 H1004 H 0.86892 0.62569 0.76389
 H1005 H 0.92407 0.56158 0.73058
 H1006 H 0.94415 0.60213 0.81109
 H1007 H 0.88119 0.60604 0.82521
 H1008 H 0.93629 0.54212 0.79180
 C1009 C 0.80910 0.59182 0.90001
 C1010 C 0.78284 0.61104 0.88647
 C1011 C 0.76363 0.60434 0.91553
 C1012 C 0.78966 0.58540 0.92928
 C1013 C 0.74996 0.57643 0.89981
 C1014 C 0.76931 0.58289 0.87062
 C1015 C 0.79533 0.56400 0.88441
 C1016 C 0.77618 0.55727 0.91339
 H1017 H 0.83364 0.59787 0.89991
 H1018 H 0.78572 0.63308 0.87504
 H1019 H 0.79787 0.58668 0.95361
 H1020 H 0.72545 0.57027 0.89980
 H1021 H 0.76105 0.58167 0.84632
 H1022 H 0.77363 0.53491 0.92424
 C1023 C 0.21275 0.40649 0.87782
 C1024 C 0.24706 0.41005 0.88537
 C1025 C 0.24066 0.40058 0.91901
 C1026 C 0.20652 0.39676 0.91168
 C1027 C 0.23532 0.43343 0.92864
 C1028 C 0.24156 0.44311 0.89481
 C1029 C 0.20750 0.43924 0.88748
 C1030 C 0.20100 0.42982 0.92108
 H1031 H 0.20322 0.39568 0.85675
 H1032 H 0.26623 0.40174 0.87087
 H1033 H 0.19223 0.37749 0.91883
 H1034 H 0.24434 0.44483 0.94960
 H1035 H 0.25576 0.46245 0.88766
 H1036 H 0.18185 0.43813 0.93561
 C1037 C 0.20197 0.56724 0.07728
 C1038 C 0.20794 0.60026 0.08647
 C1039 C 0.24210 0.59564 0.07953
 C1040 C 0.23630 0.56284 0.07007
 C1041 C 0.24802 0.58629 0.11330
 C1042 C 0.21369 0.59064 0.12047
 C1043 C 0.20797 0.55794 0.11103
 C1044 C 0.24203 0.55327 0.10406
 H1045 H 0.18282 0.55925 0.06263
 H1046 H 0.19397 0.61973 0.07904
 H1047 H 0.24521 0.55095 0.04931
 H1048 H 0.26716 0.59426 0.12798
 H1049 H 0.20413 0.60183 0.14136
 H1050 H 0.25585 0.53370 0.11151
 C1051 C 0.76240 0.42496 0.13123
 C1052 C 0.74479 0.43119 0.10080
 C1053 C 0.75704 0.40152 0.08735
 C1054 C 0.77444 0.39502 0.11767
 C1055 C 0.78496 0.41764 0.07379
 C1056 C 0.77296 0.44754 0.08742
 C1057 C 0.79030 0.44101 0.11763
 C1058 C 0.80258 0.41140 0.10428
 H1059 H 0.75326 0.42820 0.15502
 H1060 H 0.72084 0.43920 0.09934
 H1061 H 0.77525 0.37364 0.13069
 H1062 H 0.79411 0.41442 0.05000
 H1063 H 0.77256 0.46940 0.07523
 H1064 H 0.82656 0.40354 0.10590
 C1065 C 0.90085 0.80606 0.59319
 C1066 C 0.88760 0.78014 0.61282
 C1067 C 0.91591 0.76106 0.60490
 C1068 C 0.92938 0.78676 0.58560
 C1069 C 0.89989 0.74821 0.57603
 C1070 C 0.87147 0.76744 0.58366
 C1071 C 0.88496 0.79311 0.56439
 C1072 C 0.91318 0.77410 0.55650
 H1073 H 0.90106 0.83006 0.59995
 H1074 H 0.87654 0.78289 0.63580
 H1075 H 0.95338 0.79456 0.58661
 H1076 H 0.89951 0.72425 0.56909
 H1077 H 0.84747 0.75963 0.58267
 H1078 H 0.92346 0.77180 0.53308
 C1079 C 0.88015 0.21030 0.40433
 C1080 C 0.88746 0.24373 0.41027
 C1081 C 0.92047 0.23813 0.39966
 C1082 C 0.91341 0.20487 0.39343
 C1083 C 0.93029 0.23086 0.43313
 C1084 C 0.89708 0.23630 0.44394
 C1085 C 0.88996 0.20314 0.43771
 C1086 C 0.92295 0.19743 0.42715
 H1087 H 0.85938 0.20157 0.39273
 H1088 H 0.87298 0.26298 0.40322
 H1089 H 0.92031 0.19197 0.37251
 H1090 H 0.95097 0.23893 0.44538
 H1091 H 0.89018 0.24903 0.46497
 H1092 H 0.93739 0.17818 0.43424
 C1093 C 0.08636 0.22398 0.55592
 C1094 C 0.07193 0.21165 0.58605
 C1095 C 0.08521 0.23841 0.60405
 C1096 C 0.09945 0.25095 0.57416
 C1097 C 0.11456 0.22062 0.61113
 C1098 C 0.10147 0.19365 0.59282
 C1099 C 0.11561 0.20625 0.56301
 C1100 C 0.12892 0.23298 0.58095
 H1101 H 0.07499 0.22517 0.53294
 H1102 H 0.04832 0.20302 0.58835
 H1103 H 0.09857 0.27468 0.56660
 H1104 H 0.12675 0.21897 0.63361
 H1105 H 0.10250 0.16988 0.60021
 H1106 H 0.15252 0.24162 0.57865
 C1107 C 0.13028 0.76970 0.41838
 C1108 C 0.10176 0.75048 0.42517
 C1109 C 0.08678 0.76260 0.39543
 C1110 C 0.11520 0.78163 0.38834
 C1111 C 0.07230 0.78866 0.41368
 C1112 C 0.08744 0.77676 0.44365
 C1113 C 0.11576 0.79573 0.43656
 C1114 C 0.10089 0.80791 0.40689
 H1115 H 0.15430 0.76204 0.42051
 H1116 H 0.10210 0.72669 0.43257
 H1117 H 0.12716 0.78387 0.36579
 H1118 H 0.04828 0.79632 0.41154
 H1119 H 0.07625 0.77496 0.46667
 H1120 H 0.10071 0.83175 0.39966
 C1121 C 0.55469 0.90005 0.76289
 C1122 C 0.56501 0.93238 0.77048
 C1123 C 0.59820 0.92311 0.76350
 C1124 C 0.58809 0.89100 0.75573
 C1125 C 0.60324 0.91453 0.79770
 C1126 C 0.56982 0.92352 0.80486
 C1127 C 0.55977 0.89143 0.79698
 C1128 C 0.59286 0.88219 0.79008
 H1129 H 0.53447 0.89389 0.74876
 H1130 H 0.55314 0.95305 0.76281
 H1131 H 0.59572 0.87775 0.73532
 H1132 H 0.62335 0.92067 0.81198
 H1133 H 0.56213 0.93672 0.82528
 H1134 H 0.60407 0.86138 0.79839
 C1135 C 0.42186 0.88032 0.23544
 C1136 C 0.42323 0.91423 0.24276
 C1137 C 0.38997 0.91741 0.23172
 C1138 C 0.38840 0.88369 0.22455
 C1139 C 0.40076 0.92406 0.19843
 C1140 C 0.43427 0.92060 0.20935
 C1141 C 0.43263 0.88691 0.20224
 C1142 C 0.39950 0.89008 0.19108
 H1143 H 0.43074 0.86224 0.25059
 H1144 H 0.43291 0.92435 0.26414
 H1145 H 0.36930 0.86864 0.23089
 H1146 H 0.39241 0.94200 0.18281
 H1147 H 0.45344 0.93556 0.20298
 H1148 H 0.39005 0.87989 0.16964
 C1149 C 0.55910 0.09650 0.23344
 C1150 C 0.57774 0.06973 0.22059
 C1151 C 0.60671 0.08313 0.23516
 C1152 C 0.58829 0.10971 0.24818
 C1153 C 0.61352 0.10057 0.20519
 C1154 C 0.58427 0.08734 0.19047
 C1155 C 0.56593 0.11389 0.20356
 C1156 C 0.59484 0.12735 0.21803
 H1157 H 0.53644 0.09502 0.24481
 H1158 H 0.57091 0.04584 0.22176
 H1159 H 0.59020 0.11875 0.27211
 H1160 H 0.63584 0.10234 0.19322
 H1161 H 0.58239 0.07827 0.16655
 H1162 H 0.60158 0.15126 0.21677
 C1163 C 0.40675 0.12215 0.78949
 C1164 C 0.41053 0.11386 0.75483
 C1165 C 0.40115 0.08151 0.76225
 C1166 C 0.39711 0.08957 0.79676
 C1167 C 0.43467 0.07266 0.76792
 C1168 C 0.44427 0.10522 0.76066
 C1169 C 0.44017 0.11329 0.79508
 C1170 C 0.43085 0.08096 0.80261
 H1171 H 0.39552 0.14268 0.79860
 H1172 H 0.40200 0.12722 0.73495
 H1173 H 0.37751 0.08293 0.81149
 H1174 H 0.44649 0.05227 0.75930
 H1175 H 0.46392 0.11186 0.74600
 H1176 H 0.43938 0.06759 0.82248
 C1177 C 0.59124 0.78720 0.12319
 C1178 C 0.58687 0.75339 0.11654
 C1179 C 0.59667 0.75850 0.08272
 C1180 C 0.60130 0.79213 0.08914
 C1181 C 0.56334 0.76421 0.07302
 C1182 C 0.55333 0.75927 0.10703
 C1183 C 0.55802 0.79281 0.11345
 C1184 C 0.56777 0.79800 0.07966
 H1185 H 0.60246 0.79692 0.14397
 H1186 H 0.59489 0.73480 0.13153
 H1187 H 0.62124 0.80552 0.08156
 H1188 H 0.55148 0.75502 0.05237
 H1189 H 0.53333 0.74595 0.11459
 H1190 H 0.55977 0.81657 0.06462
 C1191 C 0.40692 0.21095 0.12351
 C1192 C 0.41132 0.24443 0.11551
 C1193 C 0.40056 0.23805 0.08220
 C1194 C 0.39588 0.20474 0.08997
 C1195 C 0.43357 0.23172 0.07178
 C1196 C 0.44453 0.23796 0.10526
 C1197 C 0.43983 0.20474 0.11305
 C1198 C 0.42912 0.19825 0.07977
 H1199 H 0.39623 0.20215 0.14496
 H1200 H 0.40382 0.26366 0.13003
 H1201 H 0.37567 0.19118 0.08346
 H1202 H 0.44482 0.23998 0.05042
 H1203 H 0.46482 0.25144 0.11174
 H1204 H 0.43661 0.17904 0.06522
 C1205 C 0.59275 0.21685 0.87805
 C1206 C 0.58755 0.25056 0.88474
 C1207 C 0.59739 0.24556 0.91857
 C1208 C 0.60285 0.21204 0.91211
 C1209 C 0.56419 0.23924 0.92818
 C1210 C 0.55413 0.24408 0.89417
 C1211 C 0.55964 0.21064 0.88769
 C1212 C 0.56944 0.20554 0.92149
 H1213 H 0.60425 0.20738 0.85728
 H1214 H 0.59516 0.26931 0.86980
 H1215 H 0.62308 0.19898 0.91970
 H1216 H 0.55212 0.24819 0.94886
 H1217 H 0.53384 0.25705 0.88659
 H1218 H 0.56183 0.18681 0.93646
 C1219 C 0.40787 0.78794 0.88052
 C1220 C 0.41297 0.75421 0.88689
 C1221 C 0.40317 0.75913 0.92078
 C1222 C 0.39781 0.79269 0.91463
 C1223 C 0.43640 0.76531 0.93041
 C1224 C 0.44642 0.76055 0.89634
 C1225 C 0.44101 0.79403 0.89017
 C1226 C 0.43126 0.79906 0.92403
 H1227 H 0.39638 0.79750 0.85985
 H1228 H 0.40530 0.73553 0.87178
 H1229 H 0.37762 0.80578 0.92236
 H1230 H 0.44847 0.75627 0.95099
 H1231 H 0.46666 0.74754 0.88862
 H1232 H 0.43894 0.81772 0.93917
 C1233 C 0.80649 0.89591 0.40707
 C1234 C 0.77893 0.88336 0.38876
 C1235 C 0.76121 0.91248 0.39563
 C1236 C 0.78856 0.92522 0.41366
 C1237 C 0.74809 0.89893 0.42556
 C1238 C 0.76595 0.86968 0.41895
 C1239 C 0.79328 0.88246 0.43692
 C1240 C 0.77564 0.91149 0.44382
 H1241 H 0.83073 0.89451 0.39975
 H1242 H 0.78043 0.87139 0.36623
 H1243 H 0.79769 0.94826 0.41123
 H1244 H 0.72388 0.90025 0.43298
 H1245 H 0.75675 0.84666 0.42131
 H1246 H 0.77448 0.92285 0.46673
 C1247 C 0.23051 0.90695 0.55830
 C1248 C 0.21852 0.93430 0.57680
 C1249 C 0.23199 0.92070 0.60660
 C1250 C 0.24410 0.89356 0.58830
 C1251 C 0.20182 0.90432 0.61325
 C1252 C 0.18818 0.91771 0.58312
 C1253 C 0.20044 0.89059 0.56493
 C1254 C 0.21380 0.87698 0.59469
 H1255 H 0.24209 0.90788 0.53542
 H1256 H 0.22061 0.95807 0.56966
 H1257 H 0.26728 0.88375 0.59065
 H1258 H 0.18974 0.90318 0.63583
 H1259 H 0.16500 0.92748 0.58073
 H1260 H 0.21166 0.85321 0.60179
 C1261 C 0.20769 0.12397 0.40087
 C1262 C 0.24209 0.11644 0.40309
 C1263 C 0.23521 0.08422 0.39248
 C1264 C 0.20095 0.09156 0.38995
 C1265 C 0.23115 0.07421 0.42633
 C1266 C 0.23788 0.10655 0.43717
 C1267 C 0.20370 0.11388 0.43465
 C1268 C 0.19671 0.08172 0.42410
 H1269 H 0.19783 0.14465 0.39070
 H1270 H 0.26090 0.13064 0.39422
 H1271 H 0.18555 0.08558 0.37049
 H1272 H 0.24097 0.05354 0.43658
 H1273 H 0.25288 0.11286 0.45686
 H1274 H 0.17789 0.06756 0.43301
 C1275 C 0.76374 0.09964 0.55440
 C1276 C 0.77085 0.06750 0.56566
 C1277 C 0.76373 0.07747 0.59913
 C1278 C 0.75647 0.10941 0.58808
 C1279 C 0.79738 0.08590 0.60439
 C1280 C 0.80468 0.07618 0.57068
 C1281 C 0.79729 0.10810 0.55970
 C1282 C 0.79027 0.11807 0.59308
 H1283 H 0.75008 0.10547 0.53358
 H1284 H 0.76307 0.04659 0.55419
 H1285 H 0.73643 0.12293 0.59540
 H1286 H 0.81114 0.08006 0.62513
 H1287 H 0.82472 0.06266 0.56334
 H1288 H 0.79850 0.13904 0.60411
 C1289 C 0.89882 0.55605 0.24106
 C1290 C 0.93185 0.56563 0.23344
 C1291 C 0.92275 0.59848 0.23941
 C1292 C 0.88991 0.58911 0.24719
 C1293 C 0.91422 0.60251 0.20503
 C1294 C 0.92307 0.56941 0.19886
 C1295 C 0.89026 0.56012 0.20677
 C1296 C 0.88115 0.59289 0.21267
 H1297 H 0.89227 0.53669 0.25570
 H1298 H 0.95277 0.55413 0.24175
 H1299 H 0.87645 0.59737 0.26728
 H1300 H 0.92077 0.62182 0.19034
 H1301 H 0.93652 0.56113 0.17877
 H1302 H 0.86012 0.60385 0.20387
 C1303 C 0.87149 0.42094 0.76456
 C1304 C 0.90110 0.42635 0.74593
 C1305 C 0.91480 0.39763 0.75994
 C1306 C 0.88531 0.39198 0.77842
 C1307 C 0.92829 0.41564 0.78712
 C1308 C 0.91442 0.44459 0.77332
 C1309 C 0.88501 0.43889 0.79174
 C1310 C 0.89862 0.41025 0.80581
 H1311 H 0.84795 0.42331 0.75539
 H1312 H 0.90218 0.43280 0.72111
 H1313 H 0.87295 0.37044 0.78063
 H1314 H 0.95185 0.41321 0.79624
 H1315 H 0.92618 0.46650 0.77142
 H1316 H 0.89743 0.40390 0.83066
 C1317 C 0.08064 0.56751 0.79760
 C1318 C 0.08994 0.60032 0.79117
 C1319 C 0.08240 0.59565 0.75661
 C1320 C 0.07287 0.56305 0.76286
 C1321 C 0.11539 0.58573 0.75001
 C1322 C 0.12315 0.59014 0.78474
 C1323 C 0.11360 0.55763 0.79090
 C1324 C 0.10605 0.55290 0.75643
 H1325 H 0.06650 0.55985 0.81739
 H1326 H 0.08310 0.62001 0.80534
 H1327 H 0.05214 0.55162 0.75409
 H1328 H 0.12950 0.59339 0.73020
 H1329 H 0.14399 0.60102 0.79400
 H1330 H 0.11289 0.53313 0.74237
 C1331 C 0.07761 0.43286 0.20020
 C1332 C 0.08634 0.39974 0.20604
 C1333 C 0.07890 0.40399 0.24068
 C1334 C 0.06994 0.43690 0.23503
 C1335 C 0.11206 0.41310 0.24741
 C1336 C 0.11972 0.40909 0.21261
 C1337 C 0.11074 0.44191 0.20703
 C1338 C 0.10330 0.44623 0.24158
 H1339 H 0.06358 0.44115 0.18057
 H1340 H 0.07916 0.38043 0.19154
 H1341 H 0.04941 0.44865 0.24401
 H1342 H 0.12607 0.40480 0.26705
 H1343 H 0.14037 0.39789 0.20314
 H1344 H 0.11048 0.46560 0.25601
   
