data_POSCAR
  _audit_creation_date              2014-09-24
  _audit_creation_method            'ToBaCCo'
  _symmetry_space_group_name_H-M    'P1'
  _symmetry_Int_Tables_number       1
  _symmetry_cell_setting            triclinic
  loop_
  _symmetry_equiv_pos_as_xyz
 x,y,z
_cell_length_a 47.2919
_cell_length_b 48.2321
_cell_length_c 47.1914
_cell_angle_alpha 90.000200
_cell_angle_beta 90.330300
_cell_angle_gamma 90.375100
loop_
  _atom_site_label
  _atom_site_type_symbol
  _atom_site_fract_x
  _atom_site_fract_y
  _atom_site_fract_z
C1 C 0.36622 0.33198 0.33043
 N2 N 0.35439 0.31958 0.35340
 C3 C 0.33079 0.33019 0.36538
 N4 N 0.31890 0.35334 0.35415
 C5 C 0.33053 0.36590 0.33121
 N6 N 0.35419 0.35511 0.31940
 C7 C 0.36520 0.83080 -0.17331
 N8 N 0.35281 0.81951 -0.15015
 C9 C 0.32988 0.83146 -0.13826
 N10 N 0.31907 0.85496 -0.14982
 C11 C 0.33123 0.86651 -0.17316
 N12 N 0.35429 0.85433 -0.18476
 C13 C 0.86488 0.33621 -0.16870
 N14 N 0.85316 0.35922 -0.18036
 C15 C 0.83009 0.37110 -0.16841
 N16 N 0.81882 0.35970 -0.14467
 C17 C 0.83029 0.33667 -0.13287
 N18 N 0.85330 0.32495 -0.14499
 C19 C 0.86930 0.83020 0.32901
 N20 N 0.85713 0.82027 0.35298
 C21 C 0.83457 0.83331 0.36457
 N22 N 0.82414 0.85640 0.35195
 C23 C 0.83615 0.86657 0.32796
 N24 N 0.85866 0.85338 0.31658
 C25 C 0.63062 0.66810 0.33326
 N26 N 0.64369 0.68080 0.35548
 C27 C 0.66748 0.66993 0.36709
 N28 N 0.67842 0.64623 0.35617
 C29 C 0.66545 0.63340 0.33389
 N30 N 0.64159 0.64443 0.32259
 C31 C 0.63314 0.16825 -0.17003
 N32 N 0.64460 0.14529 -0.18184
 C33 C 0.66775 0.13322 -0.17019
 N34 N 0.67953 0.14436 -0.14638
 C35 C 0.66828 0.16732 -0.13431
 N36 N 0.64510 0.17924 -0.14623
 C37 C 0.13456 0.66448 -0.16931
 N38 N 0.14658 0.64128 -0.18003
 C39 C 0.17042 0.63068 -0.16804
 N40 N 0.18221 0.64358 -0.14521
 C41 C 0.17033 0.66683 -0.13434
 N42 N 0.14659 0.67719 -0.14651
 C43 C 0.13032 0.16731 0.32888
 N44 N 0.14227 0.17919 0.35219
 C45 C 0.16526 0.16773 0.36478
 N46 N 0.17656 0.14422 0.35381
 C47 C 0.16477 0.13214 0.33045
 N48 N 0.14167 0.14379 0.31818
 C49 C 0.63650 0.32912 0.66707
 N50 N 0.64761 0.35303 0.67777
 C51 C 0.67091 0.36476 0.66576
 N52 N 0.68305 0.35237 0.64305
 C53 C 0.67205 0.32849 0.63227
 N54 N 0.64887 0.31698 0.64442
 C55 C 0.63117 0.83528 1.16863
 N56 N 0.64213 0.82270 1.14538
 C57 C 0.66570 0.83296 1.13278
 N58 N 0.67847 0.85596 1.14362
 C59 C 0.66775 0.86875 1.16678
 N60 N 0.64411 0.85830 1.17924
 C61 C 0.13478 0.33541 1.16669
 N62 N 0.14657 0.35867 1.17804
 C63 C 0.17069 0.36966 1.16709
 N64 N 0.18296 0.35720 1.14454
 C65 C 0.17141 0.33397 1.13294
 N66 N 0.14735 0.32307 1.14412
 C67 C 0.13329 0.82938 0.67012
 N68 N 0.14497 0.81774 0.64682
 C69 C 0.16776 0.82948 0.63421
 N70 N 0.17911 0.85311 0.64516
 C71 C 0.16776 0.86506 0.66852
 N72 N 0.14477 0.85312 0.68098
 C73 C 0.36514 0.66471 0.66639
 N74 N 0.35359 0.64136 0.67763
 C75 C 0.33028 0.62953 0.66564
 N76 N 0.31849 0.64127 0.64231
 C77 C 0.32979 0.66464 0.63090
 N78 N 0.35311 0.67637 0.64305
 C79 C 0.37040 0.16302 1.16951
 N80 N 0.35839 0.13989 1.18072
 C81 C 0.33442 0.12888 1.16926
 N82 N 0.32245 0.14120 1.14622
 C83 C 0.33439 0.16427 1.13474
 N84 N 0.35824 0.17512 1.14651
 C85 C 0.86460 0.66431 1.16622
 N86 N 0.85268 0.67578 1.14269
 C87 C 0.82914 0.66422 1.13079
 N88 N 0.81751 0.64121 1.14259
 C89 C 0.82912 0.62963 1.16609
 N90 N 0.85268 0.64129 1.17780
 C91 C 0.86923 0.16516 0.66798
 N92 N 0.85669 0.14220 0.67895
 C93 C 0.83333 0.13095 0.66637
 N94 N 0.82260 0.14294 0.64263
 C95 C 0.83502 0.16593 0.63146
 N96 N 0.85825 0.17699 0.64426
 C97 C 0.33153 0.36673 0.66935
 N98 N 0.35524 0.35485 0.68009
 C99 C 0.36642 0.33207 0.66757
 N100 N 0.35365 0.32114 0.64425
 C101 C 0.32990 0.33284 0.63334
 N102 N 0.31890 0.35559 0.64600
 C103 C 0.33181 0.87270 0.16701
 N104 N 0.35458 0.86100 0.17986
 C105 C 0.36670 0.83804 0.16873
 N106 N 0.35577 0.82660 0.14467
 C107 C 0.33301 0.83819 0.13167
 N108 N 0.32116 0.86121 0.14293
 C109 C 0.83196 0.37236 0.16869
 N110 N 0.81918 0.36042 0.14584
 C111 C 0.83053 0.33767 0.13348
 N112 N 0.85473 0.32670 0.14426
 C113 C 0.86765 0.33853 0.16711
 N114 N 0.85616 0.36132 0.17919
 C115 C 0.83374 0.87023 0.67029
 N116 N 0.85683 0.85824 0.68212
 C117 C 0.86826 0.83521 0.67045
 N118 N 0.85636 0.82406 0.64671
 C119 C 0.83325 0.83595 0.63464
 N120 N 0.82199 0.85897 0.64656
 C121 C 0.66900 0.63551 0.66797
 N122 N 0.64575 0.64735 0.67954
 C123 C 0.63500 0.67109 0.66847
 N124 N 0.64773 0.68298 0.64583
 C125 C 0.67089 0.67139 0.63403
 N126 N 0.68156 0.64762 0.64517
 C127 C 0.66903 0.13185 0.16805
 N128 N 0.68105 0.14478 0.14545
 C129 C 0.66952 0.16839 0.13480
 N130 N 0.64604 0.17905 0.14699
 C131 C 0.63390 0.16626 0.16955
 N132 N 0.64550 0.14269 0.17995
 C133 C 0.16938 0.63239 0.16720
 N134 N 0.14567 0.64410 0.17786
 C135 C 0.13447 0.66707 0.16560
 N136 N 0.14720 0.67834 0.14259
 C137 C 0.17091 0.66680 0.13171
 N138 N 0.18197 0.64386 0.14412
 C139 C 0.16690 0.13259 0.66911
 N140 N 0.14401 0.14353 0.68225
 C141 C 0.13181 0.16698 0.67215
 N142 N 0.14271 0.17954 0.64881
 C143 C 0.16553 0.16881 0.63552
 N144 N 0.17759 0.14534 0.64581
 C145 C 0.33606 0.62974 0.33553
 N146 N 0.35940 0.64181 0.32422
 C147 C 0.37013 0.66563 0.33533
 N148 N 0.35732 0.67744 0.35800
 C149 C 0.33402 0.66541 0.36960
 N150 N 0.32343 0.64164 0.35823
 C151 C 0.33264 0.13100 0.82968
 N152 N 0.35577 0.14378 0.81866
 C153 C 0.36678 0.16687 0.83117
 N154 N 0.35440 0.17718 0.85476
 C155 C 0.33123 0.16459 0.86598
 N156 N 0.32040 0.14154 0.85333
 C157 C 0.83136 0.63097 0.83356
 N158 N 0.85405 0.64359 0.82137
 C159 C 0.86515 0.66719 0.83285
 N160 N 0.85327 0.67819 0.85640
 C161 C 0.83064 0.66568 0.86870
 N162 N 0.81983 0.64210 0.85720
 C163 C 0.83956 0.12925 0.33177
 N164 N 0.82686 0.14118 0.35442
 C165 C 0.83729 0.16511 0.36564
 N166 N 0.86046 0.17726 0.35389
 C167 C 0.87330 0.16541 0.33125
 N168 N 0.86277 0.14144 0.32034
 C169 C 0.66436 0.37265 0.33860
 N170 N 0.67601 0.36045 0.36174
 C171 C 0.66501 0.33654 0.37222
 N172 N 0.64209 0.32479 0.35940
 C173 C 0.63012 0.33696 0.33632
 N174 N 0.64141 0.36080 0.32593
 C175 C 0.66540 0.87172 0.83329
 N176 N 0.67625 0.85995 0.85704
 C177 C 0.66467 0.83644 0.86783
 N178 N 0.64197 0.82462 0.85465
 C179 C 0.63082 0.83632 0.83089
 N180 N 0.64268 0.85980 0.82025
 C181 C 0.16675 0.36954 0.83853
 N182 N 0.14409 0.35708 0.82585
 C183 C 0.13289 0.33344 0.83694
 N184 N 0.14462 0.32221 0.86057
 C185 C 0.16720 0.33454 0.87336
 N186 N 0.17815 0.35819 0.86226
 C187 C 0.16227 0.86995 0.33171
 N188 N 0.17498 0.85815 0.35457
 C189 C 0.16456 0.83430 0.36583
 N190 N 0.14135 0.82210 0.35391
 C191 C 0.12851 0.83382 0.33105
 N192 N 0.13907 0.85771 0.32009
 O193 O 0.24303 1.02828 0.28653
 O194 O 0.28193 0.97396 0.24812
 O195 O 0.28326 1.02798 0.24921
 O196 O 0.24226 0.97412 0.28613
 O197 O 0.21023 0.97485 0.25191
 O198 O 0.25129 1.02884 0.21492
 O199 O 0.24979 0.97493 0.21400
 O200 O 0.21108 1.02888 0.25222
 Cu201 Cu 0.26584 1.00099 0.27096
 Cu202 Cu 0.22736 1.00197 0.22986
 C203 C 0.22046 1.03793 0.27572
 C204 C 0.27237 0.96517 0.22450
 C205 C 0.27427 1.03765 0.22586
 C206 C 0.21934 0.96517 0.27522
 O207 O 0.24878 0.52617 0.78809
 O208 O 0.28696 0.47212 0.74940
 O209 O 0.28568 0.52610 0.74752
 O210 O 0.24854 0.47212 0.78858
 O211 O 0.21437 0.47121 0.75650
 O212 O 0.25178 0.52447 0.71518
 O213 O 0.25283 0.47043 0.71730
 O214 O 0.21485 0.52534 0.75574
 Cu215 Cu 0.27089 0.49924 0.77163
 Cu216 Cu 0.23004 0.49773 0.73295
 C217 C 0.22550 0.53518 0.77845
 C218 C 0.27641 0.46192 0.72691
 C219 C 0.27493 0.53454 0.72435
 C220 C 0.22516 0.46242 0.77948
 O221 O 0.75005 -0.02605 0.21018
 O222 O 0.79071 0.02693 0.24927
 O223 O 0.79040 -0.02716 0.24787
 O224 O 0.75041 0.02800 0.21166
 O225 O 0.71875 0.02694 0.24587
 O226 O 0.75871 -0.02799 0.28205
 O227 O 0.75906 0.02605 0.28350
 O228 O 0.71843 -0.02715 0.24441
 Cu229 Cu 0.77358 0.00050 0.22632
 Cu230 Cu 0.73555 -0.00063 0.26738
 C231 C 0.72742 -0.03576 0.22068
 C232 C 0.78175 0.03567 0.27292
 C233 C 0.78130 -0.03706 0.27105
 C234 C 0.72781 0.03697 0.22275
 O235 O 0.71189 0.52674 0.74405
 O236 O 0.75066 0.47342 0.78371
 O237 O 0.75041 0.52744 0.78357
 O238 O 0.71322 0.47261 0.74332
 O239 O 0.74673 0.47404 0.71096
 O240 O 0.78442 0.52807 0.75171
 O241 O 0.78434 0.47387 0.75150
 O242 O 0.74587 0.52836 0.71219
 Cu243 Cu 0.72816 0.49998 0.76685
 Cu244 Cu 0.76870 0.50116 0.72833
 C245 C 0.72234 0.53692 0.72162
 C246 C 0.77392 0.46435 0.77433
 C247 C 0.77369 0.53714 0.77449
 C248 C 0.72380 0.46385 0.72032
 O249 O 0.24830 0.47438 0.21335
 O250 O 0.28808 0.52680 0.25369
 O251 O 0.28613 0.47268 0.25350
 O252 O 0.24845 0.52837 0.21529
 O253 O 0.21525 0.52766 0.24801
 O254 O 0.25321 0.47304 0.28649
 O255 O 0.25492 0.52708 0.28645
 O256 O 0.21537 0.47355 0.24634
 Cu257 Cu 0.27107 0.50059 0.23069
 Cu258 Cu 0.23136 0.50033 0.27010
 C259 C 0.22526 0.46482 0.22299
 C260 C 0.27829 0.53607 0.27675
 C261 C 0.27593 0.46335 0.27653
 C262 C 0.22537 0.53749 0.22527
 O263 O 0.75226 1.02791 0.71276
 O264 O 0.71396 0.97441 0.75309
 O265 O 0.71337 1.02845 0.75153
 O266 O 0.75339 0.97390 0.71495
 O267 O 0.78616 0.97588 0.74844
 O268 O 0.74617 1.03028 0.78498
 O269 O 0.74671 0.97623 0.78658
 O270 O 0.78501 1.02982 0.74627
 Cu271 Cu 0.72995 1.00099 0.72972
 Cu272 Cu 0.76929 1.00323 0.76994
 C273 C 0.77508 1.03807 0.72267
 C274 C 0.72389 0.96608 0.77664
 C275 C 0.72302 1.03875 0.77441
 C276 C 0.77658 0.96553 0.72558
 O277 O 0.74521 0.53011 0.28764
 O278 O 0.78405 0.47516 0.25060
 O279 O 0.78328 0.52912 0.24815
 O280 O 0.74552 0.47609 0.28968
 O281 O 0.71205 0.47428 0.25691
 O282 O 0.74984 0.52710 0.21533
 O283 O 0.75058 0.47321 0.21781
 O284 O 0.71181 0.52826 0.25478
 Cu285 Cu 0.76788 0.50280 0.27232
 Cu286 Cu 0.72769 0.50051 0.23293
 C287 C 0.72194 0.53866 0.27740
 C288 C 0.77395 0.46479 0.22796
 C289 C 0.77290 0.53721 0.22468
 C290 C 0.72240 0.46609 0.28032
 O291 O 0.24613 -0.02853 0.71047
 O292 O 0.28629 0.02550 0.74871
 O293 O 0.28610 -0.02856 0.74847
 O294 O 0.24655 0.02552 0.71048
 O295 O 0.21435 0.02547 0.74417
 O296 O 0.25398 -0.02883 0.78224
 O297 O 0.25414 0.02543 0.78245
 O298 O 0.21397 -0.02890 0.74421
 Cu299 Cu 0.26947 -0.00151 0.72616
 Cu300 Cu 0.23087 -0.00172 0.76665
 C301 C 0.22340 -0.03812 0.72089
 C302 C 0.27698 0.03484 0.77198
 C303 C 0.27673 -0.03807 0.77168
 C304 C 0.22388 0.03490 0.72092
 O305 O 0.25081 0.28270 0.97414
 O306 O 0.28927 0.24275 1.02795
 O307 O 0.28690 0.24246 0.97287
 O308 O 0.25213 0.28226 1.02928
 O309 O 0.21728 0.25157 1.03013
 O310 O 0.25225 0.21158 0.97394
 O311 O 0.25447 0.21202 1.02933
 O312 O 0.21599 0.25197 0.97491
 Cu313 Cu 0.27326 0.26561 1.00100
 Cu314 Cu 0.23151 0.22866 1.00217
 C315 C 0.22696 0.27414 0.96523
 C316 C 0.27845 0.22072 1.03794
 C317 C 0.27542 0.22029 0.96368
 C318 C 0.22879 0.27371 1.03932
 O319 O 0.24626 0.78553 0.47129
 O320 O 0.28303 0.74571 0.52687
 O321 O 0.28380 0.74626 0.47160
 O322 O 0.24530 0.78470 0.52667
 O323 O 0.21109 0.75334 0.52509
 O324 O 0.24966 0.71480 0.47057
 O325 O 0.24879 0.71436 0.52576
 O326 O 0.21226 0.75396 0.46994
 Cu327 Cu 0.26801 0.76874 0.49921
 Cu328 Cu 0.22704 0.73096 0.49773
 C329 C 0.22311 0.77647 0.46103
 C330 C 0.27206 0.72329 0.53589
 C331 C 0.27319 0.72398 0.46167
 C332 C 0.22166 0.77543 0.53533
 O333 O 0.28799 0.75643 -0.02849
 O334 O 0.25114 0.71617 0.02621
 O335 O 0.25017 0.71693 -0.02908
 O336 O 0.28775 0.75663 0.02672
 O337 O 0.25353 0.78757 0.02623
 O338 O 0.21568 0.74757 -0.02841
 O339 O 0.21694 0.74712 0.02674
 O340 O 0.25342 0.78699 -0.02915
 Cu341 Cu 0.27272 0.73346 -0.00120
 Cu342 Cu 0.23146 0.77042 -0.00113
 C343 C 0.27700 0.77835 -0.03834
 C344 C 0.22790 0.72484 0.03598
 C345 C 0.22645 0.72558 -0.03820
 C346 C 0.27688 0.77887 0.03602
 O347 O 0.28293 0.25182 0.47265
 O348 O 0.24303 0.21535 0.52825
 O349 O 0.24333 0.21416 0.47284
 O350 O 0.28189 0.25376 0.52789
 O351 O 0.24933 0.28633 0.52603
 O352 O 0.21049 0.24650 0.47188
 O353 O 0.21049 0.24795 0.52708
 O354 O 0.25011 0.28413 0.47083
 Cu355 Cu 0.26607 0.23050 0.50057
 Cu356 Cu 0.22683 0.26947 0.49879
 C357 C 0.27328 0.27407 0.46213
 C358 C 0.22008 0.22553 0.53732
 C359 C 0.22032 0.22374 0.46293
 C360 C 0.27209 0.27679 0.53636
 O361 O 0.74488 0.78521 0.97213
 O362 O 0.78169 0.74523 1.02733
 O363 O 0.78197 0.74564 0.97211
 O364 O 0.74379 0.78408 1.02741
 O365 O 0.70956 0.75274 1.02610
 O366 O 0.74761 0.71442 0.97104
 O367 O 0.74744 0.71391 1.02628
 O368 O 0.71056 0.75396 0.97094
 Cu369 Cu 0.76651 0.76821 0.99986
 Cu370 Cu 0.72537 0.73060 0.99849
 C371 C 0.72158 0.77640 0.96202
 C372 C 0.77078 0.72278 1.03630
 C373 C 0.77116 0.72349 0.96208
 C374 C 0.72019 0.77485 1.03624
 O375 O 0.75062 0.28391 0.47047
 O376 O 0.78988 0.24496 0.52452
 O377 O 0.78859 0.24516 0.46930
 O378 O 0.75103 0.28283 0.52573
 O379 O 0.71756 0.25068 0.52525
 O380 O 0.75511 0.21303 0.46942
 O381 O 0.75639 0.21282 0.52474
 O382 O 0.71708 0.25182 0.47021
 Cu383 Cu 0.77339 0.26744 0.49750
 Cu384 Cu 0.73321 0.22882 0.49737
 C385 C 0.72725 0.27457 0.46109
 C386 C 0.77979 0.22240 0.53401
 C387 C 0.77812 0.22266 0.45972
 C388 C 0.72786 0.27305 0.53509
 O389 O 0.78471 0.25674 -0.02714
 O390 O 0.74734 0.21714 0.02839
 O391 O 0.74792 0.21636 -0.02701
 O392 O 0.78437 0.25727 0.02825
 O393 O 0.74967 0.28767 0.02744
 O394 O 0.71339 0.24695 -0.02809
 O395 O 0.71264 0.24753 0.02711
 O396 O 0.75007 0.28722 -0.02780
 Cu397 Cu 0.76956 0.23381 0.00071
 Cu398 Cu 0.72799 0.27039 -0.00040
 C399 C 0.77362 0.27868 -0.03702
 C400 C 0.72361 0.22571 0.03725
 C401 C 0.72457 0.22478 -0.03713
 C402 C 0.77314 0.27937 0.03739
 O403 O 0.75386 0.78904 0.52706
 O404 O 0.71539 0.74987 0.47221
 O405 O 0.71605 0.74972 0.52717
 O406 O 0.75377 0.78860 0.47183
 O407 O 0.78739 0.75704 0.47198
 O408 O 0.74956 0.71804 0.52745
 O409 O 0.74889 0.71818 0.47204
 O410 O 0.78744 0.75743 0.52748
 Cu411 Cu 0.73145 0.77249 0.49957
 Cu412 Cu 0.77174 0.73452 0.49973
 C413 C 0.77703 0.77987 0.53682
 C414 C 0.72552 0.72746 0.46269
 C415 C 0.72634 0.72735 0.53679
 C416 C 0.77690 0.77934 0.46230
 O417 O 0.97406 0.24883 0.28236
 O418 O 1.02940 0.28849 0.24536
 O419 O 0.97418 0.28890 0.24551
 O420 O 1.02902 0.24817 0.28186
 O421 O 1.02821 0.21776 0.24688
 O422 O 0.97333 0.25855 0.21047
 O423 O 1.02859 0.25809 0.21037
 O424 O 0.97311 0.21848 0.24732
 Cu425 Cu 1.00175 0.27170 0.26724
 Cu426 Cu 1.00071 0.23519 0.22522
 C427 C 0.96412 0.22690 0.27109
 C428 C 1.03862 0.27995 0.22173
 C429 C 0.96425 0.28058 0.22193
 C430 C 1.03802 0.22604 0.27053
 O431 O 0.52891 0.28504 0.74584
 O432 O 0.47347 0.24757 0.78527
 O433 O 0.52871 0.24672 0.78464
 O434 O 0.47357 0.28534 0.74583
 O435 O 0.47277 0.25282 0.71288
 O436 O 0.52728 0.21419 0.75173
 O437 O 0.47224 0.21519 0.75220
 O438 O 0.52780 0.25248 0.71294
 Cu439 Cu 0.50125 0.26945 0.76871
 Cu440 Cu 0.49995 0.23043 0.72914
 C441 C 0.53792 0.27500 0.72272
 C442 C 0.46330 0.22512 0.77541
 C443 C 0.53743 0.22386 0.77465
 C444 C 0.46370 0.27551 0.72278
 O445 O 0.02775 0.24613 0.71937
 O446 O -0.02793 0.28648 0.75415
 O447 O 0.02727 0.28596 0.75647
 O448 O -0.02735 0.24596 0.71773
 O449 O -0.02844 0.21529 0.75246
 O450 O 0.02539 0.25548 0.79135
 O451 O -0.02966 0.25574 0.78878
 O452 O 0.02668 0.21560 0.75420
 Cu453 Cu 0.00007 0.26921 0.73344
 Cu454 Cu -0.00162 0.23247 0.77519
 C455 C 0.03682 0.22408 0.73087
 C456 C -0.03844 0.27792 0.77726
 C457 C 0.03566 0.27740 0.78055
 C458 C -0.03722 0.22382 0.72858
 O459 O 0.47377 0.21313 0.25031
 O460 O 0.52785 0.25468 0.28753
 O461 O 0.47270 0.25389 0.28628
 O462 O 0.52892 0.21448 0.25086
 O463 O 0.52880 0.24472 0.21573
 O464 O 0.47273 0.28409 0.25112
 O465 O 0.52789 0.28491 0.25239
 O466 O 0.47371 0.24332 0.21513
 Cu467 Cu 0.50082 0.23101 0.27228
 Cu468 Cu 0.50078 0.26730 0.23007
 C469 C 0.46440 0.22120 0.22647
 C470 C 0.53720 0.27679 0.27624
 C471 C 0.46303 0.27564 0.27463
 C472 C 0.53852 0.22297 0.22731
 O473 O 1.02647 0.71227 0.75175
 O474 O 0.97137 0.75321 0.71594
 O475 O 1.02641 0.75234 0.71478
 O476 O 0.97125 0.71393 0.75363
 O477 O 0.97366 0.74496 0.78798
 O478 O 1.02876 0.78336 0.74915
 O479 O 0.97363 0.78431 0.75023
 O480 O 1.02874 0.74339 0.78602
 Cu481 Cu 0.99868 0.72980 0.73060
 Cu482 Cu 1.00139 0.76710 0.77180
 C483 C 1.03714 0.72093 0.77487
 C484 C 0.96305 0.77570 0.72703
 C485 C 1.03706 0.77430 0.72535
 C486 C 0.96294 0.72306 0.77742
 O487 O 0.52621 0.71826 0.25214
 O488 O 0.47105 0.75845 0.21570
 O489 O 0.52615 0.75849 0.21559
 O490 O 0.47111 0.71848 0.25259
 O491 O 0.47172 0.74896 0.28751
 O492 O 0.52688 0.78904 0.25044
 O493 O 0.47167 0.78902 0.25053
 O494 O 0.52683 0.74875 0.28705
 Cu495 Cu 0.49855 0.73536 0.23050
 Cu496 Cu 0.49932 0.77203 0.27238
 C497 C 0.53602 0.72670 0.27572
 C498 C 0.46186 0.78053 0.22696
 C499 C 0.53604 0.78050 0.22679
 C500 C 0.46196 0.72692 0.27628
 O501 O -0.02908 0.78090 0.24937
 O502 O 0.02548 0.74346 0.20966
 O503 O -0.02968 0.74237 0.21091
 O504 O 0.02596 0.78198 0.24820
 O505 O 0.02724 0.75022 0.28189
 O506 O -0.02798 0.71028 0.24424
 O507 O 0.02725 0.71171 0.24332
 O508 O -0.02781 0.74887 0.28278
 Cu509 Cu -0.00196 0.76537 0.22616
 Cu510 Cu -0.00020 0.72703 0.26639
 C511 C -0.03783 0.77121 0.27279
 C512 C 0.03585 0.72137 0.21982
 C513 C -0.03842 0.71961 0.22133
 C514 C 0.03608 0.77289 0.27135
 O515 O 0.47192 0.71432 0.74609
 O516 O 0.52706 0.75508 0.78286
 O517 O 0.47198 0.75378 0.78370
 O518 O 0.52714 0.71568 0.74534
 O519 O 0.52552 0.74683 0.71109
 O520 O 0.47047 0.78499 0.74950
 O521 O 0.52566 0.78634 0.74871
 O522 O 0.47037 0.74561 0.71197
 Cu523 Cu 0.49964 0.73157 0.76792
 Cu524 Cu 0.49790 0.76907 0.72688
 C525 C 0.46161 0.72308 0.72289
 C526 C 0.53585 0.77761 0.77198
 C527 C 0.46174 0.77576 0.77312
 C528 C 0.53583 0.72490 0.72171
 C529 C 0.39141 0.32025 0.31672
 C530 C 0.40374 0.29693 0.32600
 C531 C 0.42810 0.28322 0.31237
 C532 C 0.43999 0.29129 0.28795
 H533 H 0.39545 0.28671 0.34465
 H534 H 0.43598 0.26486 0.32293
 H535 H 0.39936 0.33112 0.29839
 H536 H 0.43248 0.30931 0.27669
 C537 C 0.38849 0.81750 0.81486
 C538 C 0.40199 0.82680 0.79172
 C539 C 0.42587 0.81238 0.77792
 C540 C 0.43921 0.79017 0.78857
 H541 H 0.39484 0.84559 0.78141
 H542 H 0.43251 0.82065 0.75766
 H543 H 0.39512 0.79855 0.82504
 H544 H 0.43351 0.78166 0.80892
 C545 C -0.11049 0.32344 0.81754
 C546 C -0.09822 0.30040 0.82761
 C547 C -0.07424 0.28588 0.81414
 C548 C -0.06130 0.29406 0.79030
 H549 H -0.10637 0.29097 0.84675
 H550 H -0.06731 0.26706 0.82452
 H551 H -0.10293 0.33334 0.79849
 H552 H -0.06762 0.31271 0.77940
 C553 C -0.10795 0.81596 0.31724
 C554 C -0.09518 0.82409 0.29323
 C555 C -0.07191 0.80908 0.27915
 C556 C -0.06007 0.78562 0.28868
 H557 H -0.10230 0.84266 0.28250
 H558 H -0.06454 0.81797 0.25942
 H559 H -0.10110 0.79750 0.32819
 H560 H -0.06677 0.77618 0.30828
 C561 C 0.60534 0.68016 0.31980
 C562 C 0.59446 0.70443 0.32814
 C563 C 0.57033 0.71848 0.31425
 C564 C 0.55864 0.71070 0.28950
 H565 H 0.60380 0.71514 0.34610
 H566 H 0.56269 0.73697 0.32468
 H567 H 0.59612 0.66871 0.30235
 H568 H 0.56614 0.69273 0.27824
 C569 C 0.60974 0.18041 0.81686
 C570 C 0.59725 0.20348 0.82657
 C571 C 0.57338 0.21771 0.81226
 C572 C 0.55980 0.20814 0.78916
 H573 H 0.60525 0.21332 0.84567
 H574 H 0.56711 0.23738 0.82124
 H575 H 0.60221 0.17054 0.79770
 H576 H 0.56526 0.18850 0.77980
 C577 C 1.10927 0.67611 0.81678
 C578 C 1.09691 0.69933 0.82613
 C579 C 1.07266 0.71326 0.81233
 C580 C 1.05986 0.70479 0.78838
 H581 H 1.10529 0.70950 0.84487
 H582 H 1.06560 0.73215 0.82242
 H583 H 1.10138 0.66539 0.79824
 H584 H 1.06636 0.68610 0.77771
 C585 C 1.10709 0.17925 0.31520
 C586 C 1.09522 0.20296 0.32404
 C587 C 1.07165 0.21732 0.30949
 C588 C 1.06034 0.20976 0.28449
 H589 H 1.10323 0.21308 0.34297
 H590 H 1.06389 0.23575 0.31991
 H591 H 1.09906 0.16870 0.29661
 H592 H 1.06773 0.19168 0.27334
 C593 C 0.61177 0.31543 0.67996
 C594 C 0.59811 0.32575 0.70242
 C595 C 0.57405 0.31176 0.71672
 C596 C 0.56062 0.28907 0.70688
 H597 H 0.60534 0.34510 0.71166
 H598 H 0.56736 0.32076 0.73660
 H599 H 0.60541 0.29589 0.67069
 H600 H 0.56639 0.27987 0.68690
 C601 C 0.60737 0.82448 0.18231
 C602 C 0.59392 0.80140 0.17341
 C603 C 0.56976 0.78798 0.18795
 C604 C 0.55876 0.79623 0.21267
 H605 H 0.60109 0.79095 0.15447
 H606 H 0.56126 0.76957 0.17777
 H607 H 0.60025 0.83532 0.20096
 H608 H 0.56679 0.81436 0.22355
 C609 C 1.11047 0.32425 0.17907
 C610 C 1.09791 0.30082 0.16986
 C611 C 1.07326 0.28732 0.18356
 C612 C 1.06161 0.29557 0.20799
 H613 H 1.10620 0.29026 0.15146
 H614 H 1.06509 0.26888 0.17319
 H615 H 1.10217 0.33525 0.19710
 H616 H 1.06942 0.31362 0.21914
 C617 C 1.11013 0.81615 0.68261
 C618 C 1.09712 0.82556 0.70591
 C619 C 1.07334 0.81103 0.72016
 C620 C 1.05949 0.78888 0.70962
 H621 H 1.10463 0.84445 0.71596
 H622 H 1.06722 0.81917 0.74061
 H623 H 1.10317 0.79707 0.67276
 H624 H 1.06462 0.78055 0.68907
 C625 C 0.39000 0.67738 0.68038
 C626 C 0.40208 0.70091 0.67109
 C627 C 0.42611 0.71536 0.68516
 C628 C 0.43894 0.70684 0.70904
 H629 H 0.39369 0.71082 0.65226
 H630 H 0.43306 0.73450 0.67532
 H631 H 0.39786 0.66699 0.69905
 H632 H 0.43256 0.68791 0.71948
 C633 C 0.39441 0.17449 0.18247
 C634 C 0.40685 0.19791 0.17320
 C635 C 0.43089 0.21215 0.18738
 C636 C 0.44209 0.20473 0.21241
 H637 H 0.39881 0.20803 0.15433
 H638 H 0.43893 0.23050 0.17683
 H639 H 0.40248 0.16390 0.20096
 H640 H 0.43442 0.18675 0.22370
 C641 C -0.11158 0.67605 0.17928
 C642 C -0.09872 0.69912 0.16972
 C643 C -0.07444 0.71308 0.18388
 C644 C -0.06122 0.70378 0.20724
 H645 H -0.10667 0.70919 0.15078
 H646 H -0.06757 0.73248 0.17454
 H647 H -0.10399 0.66586 0.19819
 H648 H -0.06732 0.68445 0.21707
 C649 C -0.10614 0.17746 0.68267
 C650 C -0.09381 0.20109 0.67394
 C651 C -0.07023 0.21545 0.68880
 C652 C -0.05943 0.20772 0.71390
 H653 H -0.10157 0.21111 0.65492
 H654 H -0.06207 0.23397 0.67865
 H655 H -0.09872 0.16678 0.70136
 H656 H -0.06726 0.18956 0.72477
 C657 C 0.31671 0.39055 0.31905
 C658 C 0.32673 0.40384 0.29617
 C659 C 0.31286 0.42775 0.28217
 C660 C 0.28996 0.44075 0.29207
 H661 H 0.34587 0.39646 0.28629
 H662 H 0.32206 0.43463 0.26239
 H663 H 0.29746 0.39712 0.32915
 H664 H 0.28046 0.43464 0.31187
 C665 C 0.32004 -0.10981 0.81399
 C666 C 0.29685 -0.09687 0.82354
 C667 C 0.28315 -0.07288 0.80950
 C668 C 0.29248 -0.06045 0.78585
 H669 H 0.28641 -0.10454 0.84238
 H670 H 0.26379 -0.06565 0.81908
 H671 H 0.33068 -0.10243 0.79524
 H672 H 0.31171 -0.06704 0.77573
 C673 C 0.81716 0.39435 0.81959
 C674 C 0.82626 0.40657 0.79565
 C675 C 0.81211 0.43021 0.78137
 C676 C 0.78823 0.44220 0.79030
 H677 H 0.84488 0.39867 0.78518
 H678 H 0.82175 0.43749 0.76195
 H679 H 0.79874 0.40206 0.83037
 H680 H 0.77795 0.43541 0.80946
 C681 C 0.82456 -0.10885 0.31350
 C682 C 0.80192 -0.09528 0.32325
 C683 C 0.78817 -0.07154 0.30893
 C684 C 0.79712 -0.05960 0.28487
 H685 H 0.79205 -0.10224 0.34267
 H686 H 0.76917 -0.06389 0.31888
 H687 H 0.83479 -0.10253 0.29413
 H688 H 0.81608 -0.06654 0.27445
 C689 C 0.31682 0.60479 0.67814
 C690 C 0.32646 0.59285 0.70197
 C691 C 0.31264 0.56923 0.71662
 C692 C 0.28883 0.55656 0.70781
 H693 H 0.34528 0.60117 0.71212
 H694 H 0.32251 0.56256 0.73621
 H695 H 0.29811 0.59704 0.66751
 H696 H 0.27842 0.56265 0.68839
 C697 C 0.32207 1.10572 0.18207
 C698 C 0.29769 1.09423 0.17296
 C699 C 0.28289 1.07091 0.18712
 C700 C 0.29082 1.05961 0.21188
 H701 H 0.28729 1.10247 0.15428
 H702 H 0.26384 1.06337 0.17675
 H703 H 0.33289 1.09748 0.20040
 H704 H 0.30950 1.06676 0.22299
 C705 C 0.81600 0.60655 0.17826
 C706 C 0.82553 0.59441 0.20209
 C707 C 0.81116 0.57122 0.21686
 C708 C 0.78721 0.55884 0.20800
 H709 H 0.84459 0.60221 0.21224
 H710 H 0.82078 0.56456 0.23659
 H711 H 0.79704 0.59903 0.16789
 H712 H 0.77706 0.56479 0.18841
 C713 C 0.81958 1.10788 0.67791
 C714 C 0.82836 1.09539 0.70184
 C715 C 0.81352 1.07210 0.71599
 C716 C 0.78967 1.05995 0.70652
 H717 H 0.84722 1.10291 0.71256
 H718 H 0.82274 1.06514 0.73579
 H719 H 0.80083 1.10062 0.66695
 H720 H 0.77991 1.06623 0.68683
 C721 C 0.67729 0.60828 0.32092
 C722 C 0.70216 0.59751 0.32893
 C723 C 0.71586 0.57354 0.31508
 C724 C 0.70642 0.56118 0.29132
 H725 H 0.71370 0.60693 0.34638
 H726 H 0.73540 0.56650 0.32468
 H727 H 0.66513 0.59917 0.30384
 H728 H 0.68727 0.56791 0.28093
 C729 C 0.67936 1.11004 0.81656
 C730 C 0.70263 1.09719 0.82623
 C731 C 0.71659 1.07360 0.81198
 C732 C 0.70712 1.06103 0.78835
 H733 H 0.71291 1.10461 0.84539
 H734 H 0.73617 1.06665 0.82157
 H735 H 0.66897 1.10297 0.79743
 H736 H 0.68759 1.06722 0.77830
 C737 C 0.18353 0.60722 0.82081
 C738 C 0.17362 0.59358 0.79790
 C739 C 0.18769 0.56967 0.78431
 C740 C 0.21135 0.55761 0.79393
 H741 H 0.15440 0.60057 0.78762
 H742 H 0.17805 0.56210 0.76489
 H743 H 0.20271 0.60060 0.83123
 H744 H 0.22145 0.56448 0.81328
 C745 C 0.17635 1.10850 0.31811
 C746 C 0.19982 1.09606 0.32790
 C747 C 0.21373 1.07216 0.31403
 C748 C 0.20480 1.06021 0.28987
 H749 H 0.21020 1.10402 0.34677
 H750 H 0.23289 1.06470 0.32407
 H751 H 0.16568 1.10075 0.29942
 H752 H 0.18588 1.06712 0.27920
 C753 C 0.68398 0.39015 0.67750
 C754 C 0.67361 0.40337 0.70017
 C755 C 0.68708 0.42775 0.71402
 C756 C 0.71000 0.44122 0.70433
 H757 H 0.65460 0.39546 0.71009
 H758 H 0.67764 0.43445 0.73371
 H759 H 0.70308 0.39731 0.66736
 H760 H 0.71978 0.43530 0.68464
 C761 C 0.68266 -0.10691 0.17855
 C762 C 0.67372 -0.09352 0.20173
 C763 C 0.68897 -0.07018 0.21553
 C764 C 0.71201 -0.05757 0.20504
 H765 H 0.65459 -0.10052 0.21210
 H766 H 0.68073 -0.06346 0.23575
 H767 H 0.70189 -0.10073 0.16800
 H768 H 0.72054 -0.06345 0.18475
 C769 C 0.18365 0.39300 0.17910
 C770 C 0.17335 0.40620 0.20190
 C771 C 0.18756 0.42976 0.21645
 C772 C 0.21053 0.44303 0.20671
 H773 H 0.15394 0.39887 0.21152
 H774 H 0.17865 0.43602 0.23653
 H775 H 0.20321 0.39978 0.16956
 H776 H 0.21967 0.43764 0.18656
 C777 C 0.18061 -0.11106 0.67960
 C778 C 0.17152 -0.09803 0.70301
 C779 C 0.18588 -0.07380 0.71633
 C780 C 0.20850 -0.06057 0.70562
 H781 H 0.15305 -0.10589 0.71395
 H782 H 0.17749 -0.06706 0.73648
 H783 H 0.19912 -0.10361 0.66862
 H784 H 0.21731 -0.06655 0.68551
 C785 C 0.31809 0.31590 0.38989
 C786 C 0.29447 0.32490 0.40247
 C787 C 0.28002 0.31079 0.42633
 C788 C 0.28931 0.28782 0.43936
 H789 H 0.28443 0.34352 0.39463
 H790 H 0.26034 0.31994 0.43316
 H791 H 0.32851 0.29731 0.39707
 H792 H 0.30891 0.27824 0.43323
 C793 C 0.31689 0.81799 -0.11351
 C794 C 0.29472 0.82846 -0.09960
 C795 C 0.28076 0.81444 -0.07538
 C796 C 0.29209 0.79324 -0.06092
 H797 H 0.28544 0.84770 -0.10682
 H798 H 0.26013 0.82205 -0.06943
 H799 H 0.32587 0.79836 -0.10733
 H800 H 0.31297 0.78578 -0.06585
 C801 C 0.81684 0.32438 -0.10766
 C802 C 0.82578 0.30068 -0.09578
 C803 C 0.81193 0.28656 -0.07155
 C804 C 0.78753 0.29453 -0.05977
 H805 H 0.84416 0.29047 -0.10441
 H806 H 0.82216 0.26800 -0.06378
 H807 H 0.79879 0.33522 -0.09936
 H808 H 0.77655 0.31268 -0.06726
 C809 C 0.82056 0.82221 0.39003
 C810 C 0.82919 0.79891 0.40293
 C811 C 0.81498 0.78564 0.42739
 C812 C 0.79111 0.79470 0.43940
 H813 H 0.84755 0.78823 0.39489
 H814 H 0.82455 0.76677 0.43522
 H815 H 0.80244 0.83346 0.39760
 H816 H 0.78089 0.81332 0.43204
 C817 C 0.68514 0.31430 0.60807
 C818 C 0.70808 0.32418 0.59471
 C819 C 0.72244 0.30994 0.57097
 C820 C 0.71240 0.28725 0.55779
 H821 H 0.71757 0.34346 0.60184
 H822 H 0.74240 0.31880 0.56423
 H823 H 0.67554 0.29486 0.60183
 H824 H 0.69234 0.27818 0.56363
 C825 C 0.67754 0.81834 1.10818
 C826 C 0.70125 0.82688 1.09521
 C827 C 0.71506 0.81221 1.07147
 C828 C 0.70476 0.78940 1.05873
 H829 H 0.71194 0.84541 1.10274
 H830 H 0.73510 0.82073 1.06453
 H831 H 0.66652 0.79981 1.10139
 H832 H 0.68473 0.78048 1.06492
 C833 C 0.18575 0.32068 1.10888
 C834 C 0.17652 0.29691 1.09719
 C835 C 0.19069 0.28215 1.07371
 C836 C 0.21535 0.28983 1.06203
 H837 H 0.15746 0.28725 1.10526
 H838 H 0.18017 0.26355 1.06611
 H839 H 0.20456 0.33093 1.10119
 H840 H 0.22656 0.30812 1.06920
 C841 C 0.18020 0.81572 0.60941
 C842 C 0.20273 0.82593 0.59565
 C843 C 0.21679 0.81188 0.57165
 C844 C 0.20610 0.78986 0.55779
 H845 H 0.21234 0.84513 0.60286
 H846 H 0.23713 0.82022 0.56538
 H847 H 0.17066 0.79625 0.60317
 H848 H 0.18557 0.78147 0.56308
 C849 C 0.31584 0.67726 0.60608
 C850 C 0.32455 0.70129 0.59466
 C851 C 0.31034 0.71560 0.57073
 C852 C 0.28595 0.70734 0.55860
 H853 H 0.34304 0.71160 0.60340
 H854 H 0.32042 0.73448 0.56337
 H855 H 0.29764 0.66634 0.59769
 H856 H 0.27514 0.68881 0.56559
 C857 C 0.32145 0.17847 1.11035
 C858 C 0.29787 0.16923 1.09741
 C859 C 0.28343 0.18380 1.07382
 C860 C 0.29421 0.20572 1.06001
 H861 H 0.28776 0.15045 1.10499
 H862 H 0.26269 0.17601 1.06786
 H863 H 0.33164 0.19746 1.10372
 H864 H 0.31503 0.21367 1.06503
 C865 C 0.81521 0.67670 1.10592
 C866 C 0.82387 0.70069 1.09441
 C867 C 0.80946 0.71494 1.07059
 C868 C 0.78485 0.70678 1.05883
 H869 H 0.84241 0.71102 1.10303
 H870 H 0.81954 0.73375 1.06304
 H871 H 0.79697 0.66577 1.09764
 H872 H 0.77402 0.68833 1.06600
 C873 C 0.82307 0.17982 0.60637
 C874 C 0.79964 0.17064 0.59309
 C875 C 0.78560 0.18493 0.56908
 C876 C 0.79559 0.20781 0.55636
 H877 H 0.78928 0.15199 0.60067
 H878 H 0.76560 0.17619 0.56206
 H879 H 0.83373 0.19849 0.59956
 H880 H 0.81556 0.21695 0.56263
 C881 C 0.68126 0.68462 0.39084
 C882 C 0.70463 0.67532 0.40391
 C883 C 0.71952 0.69007 0.42728
 C884 C 0.70962 0.71267 0.44040
 H885 H 0.71405 0.65614 0.39681
 H886 H 0.73974 0.68171 0.43380
 H887 H 0.67169 0.70393 0.39706
 H888 H 0.68934 0.72126 0.43477
 C889 C 0.68209 0.17941 -0.10905
 C890 C 0.67279 0.20266 -0.09667
 C891 C 0.68672 0.21679 -0.07238
 C892 C 0.71086 0.20862 -0.05993
 H893 H 0.65403 0.21260 -0.10501
 H894 H 0.67661 0.23552 -0.06501
 H895 H 0.70064 0.16892 -0.10118
 H896 H 0.72161 0.19015 -0.06680
 C897 C 0.18316 0.68163 -0.11011
 C898 C 0.20692 0.67311 -0.09715
 C899 C 0.22127 0.68810 -0.07360
 C900 C 0.21090 0.71053 -0.06057
 H901 H 0.21716 0.65446 -0.10453
 H902 H 0.24162 0.68012 -0.06696
 H903 H 0.17270 0.70037 -0.10358
 H904 H 0.19052 0.71880 -0.06639
 C905 C 0.17794 0.18174 0.38955
 C906 C 0.20059 0.17195 0.40348
 C907 C 0.21476 0.18634 0.42752
 C908 C 0.20465 0.20893 0.44049
 H909 H 0.21012 0.15280 0.39647
 H910 H 0.23477 0.17784 0.43449
 H911 H 0.16833 0.20105 0.39566
 H912 H 0.18455 0.21766 0.43439
 C913 C 0.31943 0.39095 0.68384
 C914 C 0.29566 0.40333 0.67483
 C915 C 0.28169 0.42675 0.68937
 C916 C 0.29192 0.43973 0.71242
 H917 H 0.28508 0.39557 0.65600
 H918 H 0.26159 0.43324 0.68056
 H919 H 0.33034 0.39798 0.70269
 H920 H 0.31199 0.43397 0.72162
 C921 C 0.31772 0.89703 0.17925
 C922 C 0.32552 0.90816 0.20420
 C923 C 0.31089 0.93142 0.21836
 C924 C 0.28701 0.94317 0.20886
 H925 H 0.34344 0.89958 0.21549
 H926 H 0.32009 0.93857 0.23814
 H927 H 0.30009 0.90521 0.16735
 H928 H 0.27710 0.93640 0.18938
 C929 C 0.81957 0.39654 0.18298
 C930 C 0.79465 0.40735 0.17516
 C931 C 0.78049 0.43063 0.18972
 C932 C 0.78969 0.44255 0.21379
 H933 H 0.78346 0.39859 0.15715
 H934 H 0.76093 0.43770 0.18019
 H935 H 0.83138 0.40496 0.20066
 H936 H 0.80892 0.43585 0.22406
 C937 C 0.82130 0.89466 0.68408
 C938 C 0.79786 0.90701 0.67425
 C939 C 0.78347 0.93052 0.68820
 C940 C 0.79269 0.94333 0.71178
 H941 H 0.78787 0.89914 0.65514
 H942 H 0.76384 0.93717 0.67849
 H943 H 0.83165 0.90185 0.70318
 H944 H 0.81224 0.93739 0.72193
 C945 C 0.68070 0.61029 0.68114
 C946 C 0.70388 0.59757 0.67140
 C947 C 0.71757 0.57339 0.68513
 C948 C 0.70684 0.55929 0.70715
 H949 H 0.71437 0.60583 0.65285
 H950 H 0.73791 0.56739 0.67675
 H951 H 0.67006 0.60286 0.69986
 H952 H 0.68647 0.56450 0.71578
 C953 C 0.68149 0.10675 0.18065
 C954 C 0.70600 0.09596 0.17187
 C955 C 0.72023 0.07190 0.18522
 C956 C 0.71182 0.05958 0.20928
 H957 H 0.71679 0.10538 0.15408
 H958 H 0.73928 0.06476 0.17497
 H959 H 0.67004 0.09761 0.19807
 H960 H 0.69323 0.06646 0.22033
 C961 C 0.18148 0.60795 0.18148
 C962 C 0.20553 0.59596 0.17293
 C963 C 0.21945 0.57231 0.18734
 C964 C 0.20992 0.55996 0.21093
 H965 H 0.21627 0.60410 0.15448
 H966 H 0.23901 0.56522 0.17806
 H967 H 0.17023 0.60035 0.19976
 H968 H 0.19055 0.56653 0.22080
 C969 C 0.18102 0.10762 0.68021
 C970 C 0.17198 0.09411 0.70336
 C971 C 0.18639 0.07004 0.71650
 C972 C 0.20914 0.05736 0.70581
 H973 H 0.15334 0.10145 0.71418
 H974 H 0.17784 0.06289 0.73647
 H975 H 0.19970 0.10101 0.66911
 H976 H 0.21808 0.06379 0.68584
 C977 C 0.32413 0.60470 0.32203
 C978 C 0.29959 0.59316 0.33023
 C979 C 0.28536 0.56957 0.31575
 C980 C 0.29437 0.55788 0.29167
 H981 H 0.28857 0.60179 0.34821
 H982 H 0.26578 0.56232 0.32507
 H983 H 0.33576 0.59649 0.30434
 H984 H 0.31362 0.56477 0.28164
 C985 C 0.32069 0.10643 0.81518
 C986 C 0.29758 0.09307 0.82458
 C987 C 0.28360 0.06933 0.81011
 C988 C 0.29290 0.05718 0.78636
 H989 H 0.28750 0.10023 0.84377
 H990 H 0.26414 0.06193 0.81955
 H991 H 0.33114 0.09994 0.79604
 H992 H 0.31228 0.06393 0.77644
 C993 C 0.81815 0.60597 0.82115
 C994 C 0.82624 0.59512 0.79635
 C995 C 0.81214 0.57127 0.78213
 C996 C 0.78781 0.55948 0.79061
 H997 H 0.84399 0.60431 0.78530
 H998 H 0.82205 0.56388 0.76294
 H999 H 0.80080 0.59700 0.83284
 H1000 H 0.77706 0.56667 0.80932
 C1001 C 0.82789 0.10401 0.31843
 C1002 C 0.80347 0.09233 0.32666
 C1003 C 0.78952 0.06853 0.31229
 C1004 C 0.79786 0.05765 0.28757
 H1005 H 0.79240 0.10088 0.34465
 H1006 H 0.77055 0.06054 0.32223
 H1007 H 0.83965 0.09570 0.30087
 H1008 H 0.81636 0.06545 0.27681
 C1009 C 0.67784 0.39768 0.32682
 C1010 C 0.66921 0.40927 0.30246
 C1011 C 0.68359 0.43274 0.28817
 C1012 C 0.70800 0.44438 0.29683
 H1013 H 0.65090 0.40075 0.29157
 H1014 H 0.67379 0.43996 0.26875
 H1015 H 0.69588 0.40580 0.33830
 H1016 H 0.71849 0.43760 0.31596
 C1017 C 0.67932 0.89655 0.82151
 C1018 C 0.67103 0.90825 0.79708
 C1019 C 0.68556 0.93185 0.78313
 C1020 C 0.70935 0.94408 0.79266
 H1021 H 0.65285 0.89979 0.78592
 H1022 H 0.67634 0.93881 0.76332
 H1023 H 0.69728 0.90454 0.83319
 H1024 H 0.71923 0.93764 0.81224
 C1025 C 0.18014 0.39447 0.82637
 C1026 C 0.17207 0.40534 0.80147
 C1027 C 0.18635 0.42895 0.78728
 C1028 C 0.21094 0.44039 0.79577
 H1029 H 0.15421 0.39628 0.79028
 H1030 H 0.17637 0.43640 0.76804
 H1031 H 0.19758 0.40332 0.83822
 H1032 H 0.22176 0.43315 0.81454
 C1033 C 0.17392 0.89516 0.31842
 C1034 C 0.19794 0.90727 0.32743
 C1035 C 0.21188 0.93120 0.31348
 C1036 C 0.20316 0.94293 0.28919
 H1037 H 0.20875 0.89893 0.34581
 H1038 H 0.23108 0.93877 0.32354
 H1039 H 0.16251 0.90310 0.30031
 H1040 H 0.18427 0.93579 0.27843
 C1041 C 0.39159 0.31831 0.67940
 C1042 C 0.40475 0.32720 0.70302
 C1043 C 0.42892 0.31305 0.71687
 C1044 C 0.44112 0.28991 0.70716
 H1045 H 0.39708 0.34558 0.71360
 H1046 H 0.43645 0.32205 0.73656
 H1047 H 0.39861 0.30002 0.66839
 H1048 H 0.43420 0.28038 0.68760
 C1049 C 0.39102 0.82552 0.18347
 C1050 C 0.40368 0.80253 0.17402
 C1051 C 0.42735 0.78829 0.18853
 C1052 C 0.43933 0.79652 0.21300
 H1053 H 0.39614 0.79295 0.15461
 H1054 H 0.43483 0.76958 0.17842
 H1055 H 0.39802 0.83559 0.20272
 H1056 H 0.43243 0.81504 0.22370
 C1057 C 0.89330 0.32650 0.17984
 C1058 C 0.90475 0.30282 0.17054
 C1059 C 0.92919 0.28876 0.18397
 C1060 C 0.94154 0.29668 0.20837
 H1061 H 0.89550 0.29252 0.15228
 H1062 H 0.93653 0.27020 0.17348
 H1063 H 0.90223 0.33743 0.19777
 H1064 H 0.93451 0.31483 0.21963
 C1065 C 0.89280 0.82228 0.68441
 C1066 C 0.90440 0.79872 0.67502
 C1067 C 0.92804 0.78402 0.68912
 C1068 C 0.94064 0.79208 0.71335
 H1069 H 0.89591 0.78902 0.65607
 H1070 H 0.93488 0.76508 0.67898
 H1071 H 0.90079 0.83249 0.70320
 H1072 H 0.93435 0.81079 0.72410
 C1073 C 0.60568 0.32423 0.32171
 C1074 C 0.59425 0.30009 0.33008
 C1075 C 0.57067 0.28556 0.31544
 C1076 C 0.55943 0.29323 0.29049
 H1077 H 0.60265 0.28987 0.34872
 H1078 H 0.56293 0.26690 0.32564
 H1079 H 0.59749 0.33515 0.30348
 H1080 H 0.56694 0.31145 0.27950
 C1081 C 0.60657 0.82354 0.81595
 C1082 C 0.59425 0.80001 0.82492
 C1083 C 0.57065 0.78548 0.81025
 C1084 C 0.55837 0.79388 0.78604
 H1085 H 0.60203 0.79020 0.84405
 H1086 H 0.56346 0.76640 0.82004
 H1087 H 0.59932 0.83385 0.79697
 H1088 H 0.56498 0.81277 0.77567
 C1089 C 0.10878 0.31908 0.82342
 C1090 C 0.09547 0.32882 0.80032
 C1091 C 0.07193 0.31418 0.78563
 C1092 C 0.05778 0.29246 0.79643
 H1093 H 0.10268 0.34803 0.79084
 H1094 H 0.06619 0.32186 0.76482
 H1095 H 0.10259 0.29956 0.83279
 H1096 H 0.06250 0.28480 0.81743
 C1097 C 0.10388 0.82068 0.31717
 C1098 C 0.09383 0.79571 0.32478
 C1099 C 0.07023 0.78102 0.31027
 C1100 C 0.05856 0.78900 0.28560
 H1101 H 0.10341 0.78503 0.34256
 H1102 H 0.06287 0.76208 0.32020
 H1103 H 0.09443 0.83204 0.29987
 H1104 H 0.06580 0.80744 0.27481
 C1105 C 0.61027 0.68482 0.68093
 C1106 C 0.59612 0.67453 0.70317
 C1107 C 0.57209 0.68861 0.71704
 C1108 C 0.55843 0.71057 0.70627
 H1109 H 0.60301 0.65525 0.71264
 H1110 H 0.56556 0.68027 0.73731
 H1111 H 0.60434 0.70439 0.67159
 H1112 H 0.56394 0.71893 0.68579
 C1113 C 0.60887 0.17799 0.18353
 C1114 C 0.59712 0.20187 0.17510
 C1115 C 0.57292 0.21547 0.18910
 C1116 C 0.56148 0.20739 0.21374
 H1117 H 0.60567 0.21257 0.15685
 H1118 H 0.56485 0.23382 0.17867
 H1119 H 0.60051 0.16660 0.20134
 H1120 H 0.56933 0.18949 0.22497
 C1121 C 0.10932 0.68066 0.17740
 C1122 C 0.09590 0.67108 0.20042
 C1123 C 0.07175 0.68496 0.21427
 C1124 C 0.05843 0.70736 0.20407
 H1125 H 0.10348 0.65242 0.21063
 H1126 H 0.06503 0.67621 0.23428
 H1127 H 0.10254 0.69944 0.16699
 H1128 H 0.06432 0.71639 0.18400
 C1129 C 0.10743 0.17890 0.68714
 C1130 C 0.09498 0.20235 0.67841
 C1131 C 0.07125 0.21628 0.69284
 C1132 C 0.05959 0.20815 0.71736
 H1133 H 0.10265 0.21255 0.65948
 H1134 H 0.06347 0.23485 0.68257
 H1135 H 0.10013 0.16811 0.70580
 H1136 H 0.06691 0.18985 0.72828
 C1137 C 0.39485 0.67866 0.32177
 C1138 C 0.40508 0.70351 0.32968
 C1139 C 0.42873 0.71815 0.31546
 C1140 C 0.43953 0.71081 0.29034
 H1141 H 0.39570 0.71408 0.34752
 H1142 H 0.43674 0.73659 0.32594
 H1143 H 0.40424 0.66735 0.30451
 H1144 H 0.43146 0.69298 0.27897
 C1145 C 0.39143 0.18151 0.81914
 C1146 C 0.40429 0.17300 0.79543
 C1147 C 0.42817 0.18760 0.78153
 C1148 C 0.44061 0.21090 0.79115
 H1149 H 0.39667 0.15444 0.78488
 H1150 H 0.43545 0.17859 0.76188
 H1151 H 0.39844 0.19998 0.83010
 H1152 H 0.43399 0.22043 0.81070
 C1153 C 0.88943 0.68161 0.81990
 C1154 C 0.90271 0.67208 0.79685
 C1155 C 0.92647 0.68654 0.78257
 C1156 C 0.94038 0.70863 0.79313
 H1157 H 0.89539 0.65300 0.78709
 H1158 H 0.93262 0.67833 0.76217
 H1159 H 0.89585 0.70090 0.82968
 H1160 H 0.93518 0.71697 0.81367
 C1161 C 0.89785 0.17853 0.31751
 C1162 C 0.90777 0.20360 0.32502
 C1163 C 0.93126 0.21820 0.31056
 C1164 C 0.94168 0.21091 0.28525
 H1165 H 0.89832 0.21431 0.34274
 H1166 H 0.93949 0.23658 0.32102
 H1167 H 0.90741 0.16708 0.30043
 H1168 H 0.93331 0.19321 0.27388
 C1169 C 0.31528 0.32063 0.60861
 C1170 C 0.32467 0.29775 0.59557
 C1171 C 0.31002 0.28347 0.57181
 C1172 C 0.28670 0.29276 0.55871
 H1173 H 0.34388 0.28806 0.60313
 H1174 H 0.31901 0.26393 0.56518
 H1175 H 0.29602 0.33059 0.60183
 H1176 H 0.27736 0.31230 0.56455
 C1177 C 0.32014 0.82567 0.10615
 C1178 C 0.32886 0.80152 0.09521
 C1179 C 0.31519 0.78711 0.07090
 C1180 C 0.29079 0.79492 0.05874
 H1181 H 0.34681 0.79116 0.10473
 H1182 H 0.32543 0.76846 0.06353
 H1183 H 0.30258 0.83671 0.09690
 H1184 H 0.27975 0.81311 0.06591
 C1185 C 0.81587 0.32485 0.10908
 C1186 C 0.82561 0.30210 0.09610
 C1187 C 0.81123 0.28756 0.07233
 C1188 C 0.78698 0.29563 0.06003
 H1189 H 0.84514 0.29292 0.10350
 H1190 H 0.82131 0.26880 0.06498
 H1191 H 0.79641 0.33445 0.10229
 H1192 H 0.77639 0.31426 0.06672
 C1193 C 0.81950 0.82380 0.60939
 C1194 C 0.82883 0.80060 0.59690
 C1195 C 0.81480 0.78658 0.57257
 C1196 C 0.79129 0.79560 0.55957
 H1197 H 0.84753 0.79058 0.60526
 H1198 H 0.82423 0.76736 0.56560
 H1199 H 0.80090 0.83427 0.60166
 H1200 H 0.78132 0.81465 0.56595
 C1201 C 0.31942 0.67806 0.39381
 C1202 C 0.32743 0.70245 0.40508
 C1203 C 0.31261 0.71663 0.42852
 C1204 C 0.28775 0.70841 0.43933
 H1205 H 0.34584 0.71303 0.39672
 H1206 H 0.32257 0.73534 0.43659
 H1207 H 0.30145 0.66678 0.40198
 H1208 H 0.27699 0.69016 0.43143
 C1209 C 0.31714 0.17613 0.89114
 C1210 C 0.32657 0.19922 0.90409
 C1211 C 0.31279 0.21293 0.92841
 C1212 C 0.28866 0.20450 0.94060
 H1213 H 0.34546 0.20938 0.89626
 H1214 H 0.32314 0.23158 0.93615
 H1215 H 0.29845 0.16542 0.89849
 H1216 H 0.27771 0.18606 0.93340
 C1217 C 0.81687 0.67775 0.89371
 C1218 C 0.82477 0.70224 0.90482
 C1219 C 0.81040 0.71610 0.92873
 C1220 C 0.78549 0.70801 0.93951
 H1221 H 0.84270 0.71319 0.89590
 H1222 H 0.82058 0.73462 0.93698
 H1223 H 0.79947 0.66607 0.90254
 H1224 H 0.77446 0.69004 0.93131
 C1225 C 0.82273 0.17776 0.38990
 C1226 C 0.83096 0.20199 0.40139
 C1227 C 0.81647 0.21607 0.42512
 C1228 C 0.79226 0.20731 0.43692
 H1229 H 0.84937 0.21254 0.39297
 H1230 H 0.82621 0.23507 0.43271
 H1231 H 0.80466 0.16657 0.39798
 H1232 H 0.78179 0.18865 0.42967
 C1233 C 0.67903 0.32327 0.39655
 C1234 C 0.67194 0.29787 0.40580
 C1235 C 0.68697 0.28298 0.42879
 C1236 C 0.71232 0.29057 0.43918
 H1237 H 0.65427 0.28703 0.39605
 H1238 H 0.67697 0.26424 0.43658
 H1239 H 0.69608 0.33483 0.40639
 H1240 H 0.72320 0.30870 0.43123
 C1241 C 0.67776 0.82371 0.89301
 C1242 C 0.66939 0.79912 0.90338
 C1243 C 0.68321 0.78463 0.92741
 C1244 C 0.70778 0.79251 0.93941
 H1245 H 0.65155 0.78851 0.89368
 H1246 H 0.67290 0.76586 0.93473
 H1247 H 0.69515 0.83501 0.90256
 H1248 H 0.71894 0.81078 0.93224
 C1249 C 0.18084 0.32205 0.89836
 C1250 C 0.17278 0.29739 0.90887
 C1251 C 0.18716 0.28292 0.93252
 C1252 C 0.21251 0.29025 0.94308
 H1253 H 0.15474 0.28674 0.89959
 H1254 H 0.17670 0.26453 0.94061
 H1255 H 0.19827 0.33348 0.90765
 H1256 H 0.22382 0.30804 0.93494
 C1257 C 0.17917 0.82175 0.39030
 C1258 C 0.17061 0.79781 0.40204
 C1259 C 0.18507 0.78364 0.42589
 C1260 C 0.20917 0.79234 0.43828
 H1261 H 0.15197 0.78746 0.39365
 H1262 H 0.17531 0.76454 0.43309
 H1263 H 0.19756 0.83267 0.39827
 H1264 H 0.21961 0.81117 0.43155
 C1265 C 0.68422 0.68554 0.60986
 C1266 C 0.70685 0.67567 0.59625
 C1267 C 0.72117 0.69022 0.57256
 C1268 C 0.71085 0.71260 0.55923
 H1269 H 0.71612 0.65634 0.60320
 H1270 H 0.74133 0.68190 0.56600
 H1271 H 0.67499 0.70510 0.60384
 H1272 H 0.69055 0.72104 0.56480
 C1273 C 0.68230 0.18316 0.11066
 C1274 C 0.70526 0.17399 0.09705
 C1275 C 0.71928 0.18884 0.07337
 C1276 C 0.70835 0.21076 0.05975
 H1277 H 0.71512 0.15494 0.10401
 H1278 H 0.73972 0.18107 0.06701
 H1279 H 0.67245 0.20244 0.10463
 H1280 H 0.68774 0.21861 0.06515
 C1281 C 0.18532 0.67931 0.10717
 C1282 C 0.17581 0.70239 0.09446
 C1283 C 0.18996 0.71688 0.07071
 C1284 C 0.21406 0.70872 0.05855
 H1285 H 0.15663 0.71192 0.10211
 H1286 H 0.17993 0.73570 0.06333
 H1287 H 0.20437 0.66928 0.10011
 H1288 H 0.22463 0.69007 0.06534
 C1289 C 0.17730 0.18333 0.61068
 C1290 C 0.20010 0.17412 0.59684
 C1291 C 0.21387 0.18846 0.57275
 C1292 C 0.20437 0.21164 0.56025
 H1293 H 0.21010 0.15516 0.60387
 H1294 H 0.23327 0.17925 0.56525
 H1295 H 0.16702 0.20230 0.60437
 H1296 H 0.18497 0.22124 0.56698
   
