data_POSCAR
  _audit_creation_date              2014-09-24
  _audit_creation_method            'ToBaCCo'
  _symmetry_space_group_name_H-M    'P1'
  _symmetry_Int_Tables_number       1
  _symmetry_cell_setting            triclinic
  loop_
  _symmetry_equiv_pos_as_xyz
 x,y,z
_cell_length_a 72.9360
_cell_length_b 75.0192
_cell_length_c 75.9687
_cell_angle_alpha 90.870700
_cell_angle_beta 89.576800
_cell_angle_gamma 90.835400
loop_
  _atom_site_label
  _atom_site_type_symbol
  _atom_site_fract_x
  _atom_site_fract_y
  _atom_site_fract_z
C1 C 0.19930 0.22068 0.21338
 C2 C 0.21003 0.22549 0.19875
 C3 C 0.22556 0.21596 0.19451
 C4 C 0.23063 0.20153 0.20483
 C5 C 0.22005 0.19676 0.21922
 C6 C 0.20429 0.20644 0.22355
 C7 C 0.18345 0.22747 0.22057
 N8 N 0.17868 0.21770 0.23488
 C9 C 0.19139 0.20480 0.23675
 C10 C 0.22810 0.18219 0.22660
 N11 N 0.24332 0.17802 0.21703
 C12 C 0.24493 0.18982 0.20368
 C13 C 0.23314 0.22339 0.17966
 N14 N 0.22259 0.23723 0.17472
 C15 C 0.20842 0.23859 0.18639
 H16 H 0.17609 0.23884 0.21582
 H17 H 0.19117 0.19473 0.24682
 H18 H 0.22329 0.17526 0.23818
 H19 H 0.25554 0.18972 0.19364
 H20 H 0.24555 0.21910 0.17304
 H21 H 0.19750 0.24817 0.18577
 C22 C 0.69388 0.71734 0.70088
 C23 C 0.70473 0.72398 0.68712
 C24 C 0.72056 0.71533 0.68207
 C25 C 0.72580 0.69990 0.69084
 C26 C 0.71510 0.69336 0.70448
 C27 C 0.69902 0.70218 0.70957
 C28 C 0.67790 0.72317 0.70853
 N29 N 0.67313 0.71194 0.72172
 C30 C 0.68602 0.69905 0.72246
 C31 C 0.72357 0.67844 0.71062
 N32 N 0.73916 0.67574 0.70107
 C33 C 0.74059 0.68885 0.68894
 C34 C 0.72833 0.72488 0.66850
 N35 N 0.71760 0.73913 0.66528
 C36 C 0.70312 0.73862 0.67663
 H37 H 0.67048 0.73495 0.70495
 H38 H 0.68590 0.68811 0.73159
 H39 H 0.71887 0.67036 0.72149
 H40 H 0.75150 0.69019 0.67929
 H41 H 0.74103 0.72184 0.66171
 H42 H 0.69209 0.74811 0.67714
 C43 C 0.30926 0.78774 0.70970
 C44 C 0.30055 0.78406 0.69361
 C45 C 0.28616 0.79446 0.68835
 C46 C 0.28024 0.80865 0.69908
 C47 C 0.28872 0.81222 0.71490
 C48 C 0.30336 0.80172 0.72026
 C49 C 0.32350 0.77984 0.71827
 N50 N 0.32640 0.78868 0.73380
 C51 C 0.31409 0.80209 0.73507
 C52 C 0.27999 0.82649 0.72260
 N53 N 0.26627 0.83187 0.71182
 C54 C 0.26651 0.82084 0.69734
 C55 C 0.28025 0.78780 0.67238
 N56 N 0.29068 0.77357 0.66778
 C57 C 0.30315 0.77121 0.68074
 H58 H 0.33098 0.76831 0.71364
 H59 H 0.31311 0.81160 0.74588
 H60 H 0.28385 0.83254 0.73505
 H61 H 0.25718 0.82111 0.68637
 H62 H 0.26891 0.79276 0.66487
 H63 H 0.31348 0.76100 0.68078
 C64 C 0.80713 0.27125 0.21929
 C65 C 0.79603 0.26717 0.20473
 C66 C 0.78121 0.27773 0.20103
 C67 C 0.77725 0.29250 0.21188
 C68 C 0.78814 0.29643 0.22628
 C69 C 0.80314 0.28567 0.23003
 C70 C 0.82250 0.26344 0.22593
 N71 N 0.82804 0.27269 0.24062
 C72 C 0.81607 0.28635 0.24310
 C73 C 0.78120 0.31146 0.23432
 N74 N 0.76637 0.31681 0.22514
 C75 C 0.76388 0.30522 0.21139
 C76 C 0.77288 0.27057 0.18629
 N77 N 0.78224 0.25586 0.18099
 C78 C 0.79646 0.25375 0.19221
 H79 H 0.82874 0.25157 0.22051
 H80 H 0.81680 0.29655 0.25329
 H81 H 0.78654 0.31791 0.24609
 H82 H 0.75336 0.30613 0.20148
 H83 H 0.76065 0.27550 0.18014
 H84 H 0.80648 0.24327 0.19132
 C85 C 0.80587 0.72315 0.28734
 C86 C 0.79629 0.72718 0.30293
 C87 C 0.78117 0.71701 0.30769
 C88 C 0.77537 0.70275 0.29689
 C89 C 0.78471 0.69883 0.28145
 C90 C 0.80011 0.70918 0.27662
 C91 C 0.82116 0.73063 0.27963
 N92 N 0.82503 0.72164 0.26432
 C93 C 0.81200 0.70847 0.26248
 C94 C 0.77598 0.68431 0.27376
 N95 N 0.76158 0.67933 0.28420
 C96 C 0.76121 0.69060 0.29838
 C97 C 0.77454 0.72396 0.32328
 N98 N 0.78523 0.73817 0.32811
 C99 C 0.79861 0.74020 0.31571
 H100 H 0.82852 0.74212 0.28485
 H101 H 0.81131 0.69860 0.25198
 H102 H 0.77977 0.67801 0.26139
 H103 H 0.75157 0.68987 0.30925
 H104 H 0.76254 0.71923 0.33037
 H105 H 0.80933 0.75033 0.31598
 C106 C 0.30538 0.22942 -0.21112
 C107 C 0.29418 0.23485 -0.19700
 C108 C 0.27945 0.22427 -0.19184
 C109 C 0.27567 0.20816 -0.20082
 C110 C 0.28674 0.20287 -0.21468
 C111 C 0.30159 0.21364 -0.21996
 C112 C 0.32073 0.23685 -0.21886
 N113 N 0.32639 0.22603 -0.23240
 C114 C 0.31456 0.21176 -0.23302
 C115 C 0.28019 0.18667 -0.22069
 N116 N 0.26522 0.18181 -0.21090
 C117 C 0.26242 0.19510 -0.19872
 C118 C 0.27126 0.23271 -0.17767
 N119 N 0.28061 0.24816 -0.17419
 C120 C 0.29465 0.24955 -0.18598
 H121 H 0.32688 0.24951 -0.21502
 H122 H 0.31546 0.20039 -0.24189
 H123 H 0.28587 0.17933 -0.23175
 H124 H 0.25196 0.19520 -0.18856
 H125 H 0.25928 0.22800 -0.17053
 H126 H 0.30469 0.26030 -0.18632
 C127 C 0.69659 0.28084 -0.21621
 C128 C 0.70694 0.27747 -0.20116
 C129 C 0.72155 0.28855 -0.19669
 C130 C 0.72604 0.30320 -0.20730
 C131 C 0.71573 0.30651 -0.22201
 C132 C 0.70098 0.29521 -0.22654
 C133 C 0.68160 0.27242 -0.22363
 N134 N 0.67662 0.28129 -0.23840
 C135 C 0.68863 0.29533 -0.24010
 C136 C 0.72280 0.32164 -0.22958
 N137 N 0.73735 0.32780 -0.21994
 C138 C 0.73935 0.31639 -0.20624
 C139 C 0.72875 0.28221 -0.18131
 N140 N 0.71886 0.26757 -0.17637
 C141 C 0.70549 0.26463 -0.18850
 H142 H 0.67516 0.26051 -0.21850
 H143 H 0.68847 0.30535 -0.25016
 H144 H 0.71774 0.32731 -0.24157
 H145 H 0.74933 0.31768 -0.19583
 H146 H 0.74037 0.28785 -0.17429
 H147 H 0.69512 0.25418 -0.18797
 C148 C 0.18388 0.77336 0.28553
 C149 C 0.19419 0.76756 0.29983
 C150 C 0.21006 0.77665 0.30453
 C151 C 0.21590 0.79158 0.29503
 C152 C 0.20574 0.79740 0.28108
 C153 C 0.18963 0.78817 0.27622
 C154 C 0.16794 0.76712 0.27787
 N155 N 0.16386 0.77773 0.26412
 C156 C 0.17708 0.79066 0.26307
 C157 C 0.21460 0.81227 0.27457
 N158 N 0.23008 0.81562 0.28416
 C159 C 0.23081 0.80284 0.29672
 C160 C 0.21716 0.76833 0.31889
 N161 N 0.20598 0.75437 0.32314
 C162 C 0.19190 0.75376 0.31148
 H163 H 0.16010 0.75549 0.28187
 H164 H 0.17750 0.80126 0.25356
 H165 H 0.21013 0.81967 0.26331
 H166 H 0.24105 0.80188 0.30686
 H167 H 0.22966 0.77212 0.32565
 H168 H 0.18063 0.74423 0.31163
 C169 C 0.47819 0.44503 0.46548
 C170 C 0.48436 0.45618 0.45198
 C171 C 0.47445 0.47102 0.44763
 C172 C 0.45817 0.47493 0.45678
 C173 C 0.45211 0.46393 0.47014
 C174 C 0.46221 0.44889 0.47455
 C175 C 0.48494 0.42958 0.47224
 N176 N 0.47347 0.42392 0.48525
 C177 C 0.45952 0.43570 0.48675
 C178 C 0.43588 0.47070 0.47644
 N179 N 0.43186 0.48554 0.46724
 C180 C 0.44548 0.48821 0.45519
 C181 C 0.48357 0.47911 0.43388
 N182 N 0.49877 0.46951 0.42981
 C183 C 0.49927 0.45545 0.44086
 H184 H 0.49741 0.42304 0.46808
 H185 H 0.44806 0.43460 0.49583
 H186 H 0.42769 0.46523 0.48705
 H187 H 0.44598 0.49879 0.44567
 H188 H 0.47945 0.49115 0.42742
 H189 H 0.50949 0.44513 0.44061
 C190 C -0.04633 -0.04401 0.97168
 C191 C -0.04005 -0.03408 0.95728
 C192 C -0.04864 -0.01845 0.95310
 C193 C -0.06357 -0.01254 0.96314
 C194 C -0.06990 -0.02234 0.97720
 C195 C -0.06105 -0.03817 0.98163
 C196 C -0.04052 -0.05960 0.97889
 N197 N -0.05121 -0.06352 0.99319
 C198 C -0.06386 -0.05032 0.99481
 C199 C -0.08490 -0.01360 0.98406
 N200 N -0.08780 0.00140 0.97453
 C201 C -0.07460 0.00200 0.96173
 C202 C -0.03994 -0.01169 0.93851
 N203 N -0.02626 -0.02287 0.93360
 C204 C -0.02621 -0.03661 0.94510
 H205 H -0.02882 -0.06702 0.97420
 H206 H -0.07464 -0.04951 1.00462
 H207 H -0.09280 -0.01788 0.99537
 H208 H -0.07336 0.01180 0.95149
 H209 H -0.04332 0.00058 0.93205
 H210 H -0.01708 -0.04784 0.94446
 C211 C 1.03167 0.56120 0.95916
 C212 C 1.02742 0.55238 0.94323
 C213 C 1.03647 0.53692 0.93856
 C214 C 1.04973 0.53000 0.94971
 C215 C 1.05394 0.53870 0.96528
 C216 C 1.04476 0.55435 0.97009
 C217 C 1.02527 0.57651 0.96716
 N218 N 1.03409 0.57919 0.98282
 C219 C 1.04607 0.56551 0.98453
 C220 C 1.06748 0.52917 0.97322
 N221 N 1.07163 0.51471 0.96288
 C222 C 1.06063 0.51525 0.94844
 C223 C 1.02991 0.53131 0.92249
 N224 N 1.01703 0.54294 0.91720
 C225 C 1.01536 0.55586 0.92985
 H226 H 1.01461 0.58470 0.96190
 H227 H 1.05556 0.56376 0.99520
 H228 H 1.07341 0.53252 0.98586
 H229 H 1.06077 0.50603 0.93737
 H230 H 1.03407 0.51947 0.91528
 H231 H 1.00626 0.56710 0.92925
 C232 C 0.52151 0.04853 0.46992
 C233 C 0.51536 0.03876 0.45516
 C234 C 0.52477 0.02385 0.44946
 C235 C 0.54044 0.01847 0.45846
 C236 C 0.54650 0.02812 0.47292
 C237 C 0.53694 0.04319 0.47876
 C238 C 0.51518 0.06359 0.47843
 N239 N 0.52637 0.06746 0.49226
 C240 C 0.53972 0.05502 0.49251
 C241 C 0.56205 0.02007 0.47882
 N242 N 0.56575 0.00560 0.46833
 C243 C 0.55236 0.00462 0.45585
 C244 C 0.51585 0.01714 0.43485
 N245 N 0.50124 0.02759 0.43151
 C246 C 0.50085 0.04085 0.44392
 H247 H 0.50316 0.07103 0.47495
 H248 H 0.55082 0.05471 0.50188
 H249 H 0.56970 0.02446 0.49025
 H250 H 0.55143 -0.00504 0.44519
 H251 H 0.51965 0.00537 0.42734
 H252 H 0.49095 0.05145 0.44458
 C253 C -0.01697 0.05525 0.54675
 C254 C -0.01137 0.04521 0.56112
 C255 C -0.02090 0.02984 0.56556
 C256 C -0.03620 0.02430 0.55570
 C257 C -0.04174 0.03423 0.54157
 C258 C -0.03203 0.04977 0.53703
 C259 C -0.01032 0.07072 0.53939
 N260 N -0.02096 0.07474 0.52541
 C261 C -0.03430 0.06196 0.52393
 C262 C -0.05701 0.02590 0.53460
 N263 N -0.06092 0.01114 0.54416
 C264 C -0.04821 0.01005 0.55709
 C265 C -0.01251 0.02294 0.58006
 N266 N 0.00188 0.03376 0.58460
 C267 C 0.00264 0.04742 0.57302
 H268 H 0.00158 0.07831 0.54375
 H269 H -0.04504 0.06164 0.51417
 H270 H -0.06460 0.03022 0.52329
 H271 H -0.04789 -0.00015 0.56701
 H272 H -0.01655 0.01081 0.58667
 H273 H 0.01242 0.05840 0.57337
 C274 C 0.48622 0.54706 0.02625
 C275 C 0.49227 0.53695 0.04038
 C276 C 0.48317 0.52132 0.04467
 C277 C 0.46798 0.51553 0.03484
 C278 C 0.46209 0.52543 0.02081
 C279 C 0.47135 0.54133 0.01646
 C280 C 0.49200 0.56313 0.01963
 N281 N 0.48106 0.56749 0.00589
 C282 C 0.46840 0.55402 0.00392
 C283 C 0.44673 0.51693 0.01415
 N284 N 0.44312 0.50214 0.02384
 C285 C 0.45614 0.50125 0.03651
 C286 C 0.49165 0.51459 0.05920
 N287 N 0.50573 0.52574 0.06380
 C288 C 0.50618 0.53947 0.05233
 H289 H 0.50362 0.57077 0.02451
 H290 H 0.45728 0.55358 -0.00541
 H291 H 0.43877 0.52130 0.00310
 H292 H 0.45666 0.49129 0.04664
 H293 H 0.48789 0.50239 0.06584
 H294 H 0.51566 0.55070 0.05285
 C295 C 0.52242 -0.06895 0.03687
 C296 C 0.51730 -0.05895 0.05181
 C297 C 0.52639 -0.04313 0.05585
 C298 C 0.54082 -0.03713 0.04505
 C299 C 0.54592 -0.04704 0.03037
 C300 C 0.53662 -0.06304 0.02622
 C301 C 0.51605 -0.08484 0.02979
 N302 N 0.52603 -0.08873 0.01506
 C303 C 0.53866 -0.07542 0.01283
 C304 C 0.56044 -0.03824 0.02256
 N305 N 0.56432 -0.02321 0.03213
 C306 C 0.55233 -0.02243 0.04591
 C307 C 0.51864 -0.03641 0.07110
 N308 N 0.50513 -0.04782 0.07644
 C309 C 0.50424 -0.06165 0.06469
 H310 H 0.50480 -0.09282 0.03490
 H311 H 0.54882 -0.07487 0.00239
 H312 H 0.56758 -0.04246 0.01070
 H313 H 0.55221 -0.01216 0.05606
 H314 H 0.52279 -0.02428 0.07797
 H315 H 0.49470 -0.07281 0.06537
 C316 C 1.03801 0.44058 0.53325
 C317 C 1.03225 0.45109 0.54764
 C318 C 1.04266 0.46573 0.55304
 C319 C 1.05902 0.47008 0.54407
 C320 C 1.06467 0.45962 0.53002
 C321 C 1.05409 0.44489 0.52451
 C322 C 1.03054 0.42581 0.52483
 N323 N 1.04170 0.42118 0.51113
 C324 C 1.05616 0.43279 0.51092
 C325 C 1.08082 0.46676 0.52381
 N326 N 1.08537 0.48152 0.53363
 C327 C 1.07189 0.48359 0.54608
 C328 C 1.03367 0.47340 0.56719
 N329 N 1.01808 0.46378 0.57050
 C330 C 1.01718 0.45011 0.55855
 H331 H 1.01771 0.41921 0.52818
 H332 H 1.06745 0.43245 0.50160
 H333 H 1.08821 0.46167 0.51247
 H334 H 1.07147 0.49385 0.55621
 H335 H 1.03806 0.48526 0.57437
 H336 H 1.00647 0.43998 0.55796
 C337 C 0.39711 0.00337 0.22948
 H338 H 0.39837 0.01476 0.23831
 C339 C 0.40906 0.00164 0.21513
 H340 H 0.41960 0.01172 0.21311
 C341 C 0.38215 -0.02387 0.22182
 H342 H 0.37182 -0.03391 0.22458
 C343 C 0.39375 -0.02609 0.20727
 H344 H 0.39187 -0.03767 0.19877
 N345 N 0.38384 -0.00917 0.23243
 C346 C 0.34121 0.01848 0.26218
 H347 H 0.34014 0.01009 0.27360
 C348 C 0.32969 0.03306 0.26060
 H349 H 0.31993 0.03596 0.27103
 C350 C 0.35531 0.02482 0.23473
 H351 H 0.36505 0.02137 0.22450
 C352 C 0.34406 0.03953 0.23262
 H353 H 0.34528 0.04724 0.22073
 Zn354 Zn 0.36831 -0.00572 0.25227
 N355 N 0.35381 0.01474 0.24941
 C356 C 0.38335 0.01221 0.28225
 N357 N 0.38357 -0.00297 0.27222
 C358 C 0.39540 -0.01630 0.27564
 C359 C 0.40746 -0.01480 0.28980
 C360 C 0.39517 0.01427 0.29654
 C361 C 0.33971 -0.02870 0.24186
 C362 C 0.32711 -0.04281 0.24316
 C363 C 0.33938 -0.04935 0.27176
 C364 C 0.35185 -0.03520 0.26984
 N365 N 0.35194 -0.02534 0.25496
 H366 H 0.37422 0.02287 0.27906
 H367 H 0.39546 -0.02812 0.26730
 H368 H 0.41660 -0.02567 0.29243
 H369 H 0.39498 0.02655 0.30420
 H370 H 0.33986 -0.02044 0.23031
 H371 H 0.31782 -0.04550 0.23237
 H372 H 0.33938 -0.05685 0.28382
 H373 H 0.36128 -0.03198 0.28035
 C374 C 0.33103 0.04381 0.24566
 C375 C 0.40741 -0.01321 0.20372
 C376 C 0.32684 -0.05341 0.25826
 C377 C 0.40746 0.00066 0.30047
 C378 C 0.10412 -0.01138 0.74006
 H379 H 0.10618 -0.02414 0.74614
 C380 C 0.09298 -0.01025 0.72526
 H381 H 0.08659 -0.02224 0.71990
 C382 C 0.11006 0.01977 0.73967
 H383 H 0.11654 0.03146 0.74549
 C384 C 0.09914 0.02149 0.72479
 H385 H 0.09726 0.03456 0.71929
 N386 N 0.11229 0.00352 0.74699
 C387 C 0.14445 -0.03138 0.77530
 H388 H 0.13634 -0.03119 0.78721
 C389 C 0.15642 -0.04547 0.77222
 H390 H 0.15736 -0.05588 0.78187
 C391 C 0.15251 -0.01871 0.74791
 H392 H 0.15057 -0.00852 0.73824
 C393 C 0.16460 -0.03257 0.74428
 H394 H 0.17230 -0.03257 0.73204
 Zn395 Zn 0.12678 0.00119 0.76734
 N396 N 0.14294 -0.01816 0.76335
 C397 C 0.11865 -0.00502 0.80333
 N398 N 0.11124 -0.00342 0.78705
 C399 C 0.09280 -0.00476 0.78465
 C400 C 0.08108 -0.00795 0.79888
 C401 C 0.10741 -0.00811 0.81797
 C402 C 0.15288 0.02798 0.75890
 C403 C 0.16325 0.04359 0.76134
 C404 C 0.14789 0.04828 0.78924
 C405 C 0.13769 0.03265 0.78618
 N406 N 0.14050 0.02268 0.77131
 H407 H 0.13333 -0.00369 0.80498
 H408 H 0.08709 -0.00331 0.77169
 H409 H 0.06649 -0.00923 0.79658
 H410 H 0.11357 -0.00900 0.83084
 H411 H 0.15458 0.02025 0.74693
 H412 H 0.17279 0.04764 0.75112
 H413 H 0.14569 0.05575 0.80135
 H414 H 0.12747 0.02863 0.79571
 C415 C 0.16677 -0.04612 0.75659
 C416 C 0.09035 0.00637 0.71747
 C417 C 0.16096 0.05392 0.77676
 C418 C 0.08833 -0.00958 0.81585
 C419 C 0.60365 0.48452 0.22275
 H420 H 0.60285 0.47276 0.23081
 C421 C 0.59248 0.48577 0.20801
 H422 H 0.58320 0.47484 0.20476
 C423 C 0.61710 0.51280 0.21703
 H424 H 0.62678 0.52327 0.22050
 C425 C 0.60614 0.51462 0.20218
 H426 H 0.60730 0.52668 0.19458
 N427 N 0.61547 0.49804 0.22714
 C428 C 0.65193 0.46752 0.26013
 H429 H 0.65116 0.47442 0.27267
 C430 C 0.66190 0.45179 0.25866
 H431 H 0.66853 0.44661 0.27018
 C432 C 0.64444 0.46581 0.22986
 H433 H 0.63806 0.47152 0.21852
 C434 C 0.65411 0.45001 0.22785
 H435 H 0.65495 0.44367 0.21497
 Zn436 Zn 0.62978 0.49563 0.24779
 N437 N 0.64329 0.47414 0.24587
 C438 C 0.62185 0.49692 0.28420
 N439 N 0.61415 0.49530 0.26798
 C440 C 0.59562 0.49428 0.26614
 C441 C 0.58414 0.49417 0.28090
 C442 C 0.61085 0.49695 0.29935
 C443 C 0.66455 0.51286 0.24898
 C444 C 0.67663 0.52737 0.25091
 C445 C 0.65060 0.54653 0.25531
 C446 C 0.63904 0.53163 0.25349
 N447 N 0.64614 0.51525 0.25024
 H448 H 0.63654 0.49853 0.28539
 H449 H 0.58957 0.49357 0.25325
 H450 H 0.56948 0.49287 0.27906
 H451 H 0.61726 0.49841 0.31211
 H452 H 0.66991 0.49970 0.24649
 H453 H 0.69124 0.52511 0.25015
 H454 H 0.64459 0.55950 0.25744
 H455 H 0.62434 0.53312 0.25449
 C456 C 0.66295 0.44277 0.24237
 C457 C 0.59350 0.50105 0.19760
 C458 C 0.66971 0.54453 0.25406
 C459 C 0.59171 0.49545 0.29781
 C460 C 0.90616 0.51377 0.72124
 H461 H 0.90533 0.52631 0.72841
 C462 C 0.91899 0.51175 0.70765
 H463 H 0.92786 0.52291 0.70426
 C464 C 0.89555 0.48403 0.71700
 H465 H 0.88667 0.47312 0.72090
 C466 C 0.90812 0.48146 0.70326
 H467 H 0.90873 0.46856 0.69670
 N468 N 0.89463 0.50007 0.72553
 C469 C 0.84726 0.52496 0.75066
 H470 H 0.84675 0.51769 0.76285
 C471 C 0.83421 0.53790 0.74737
 H472 H 0.82379 0.54067 0.75722
 C473 C 0.86171 0.53029 0.72316
 H474 H 0.87229 0.52712 0.71365
 C475 C 0.84896 0.54337 0.71935
 H476 H 0.84986 0.55015 0.70688
 Zn477 Zn 0.87799 0.50394 0.74446
 N478 N 0.86081 0.52158 0.73873
 C479 C 0.88892 0.52733 0.77251
 N480 N 0.89198 0.51145 0.76419
 C481 C 0.90555 0.50054 0.76946
 C482 C 0.91636 0.50522 0.78394
 C483 C 0.89941 0.53253 0.78706
 C484 C 0.85338 0.47568 0.73714
 C485 C 0.84283 0.46042 0.74056
 C486 C 0.85498 0.46041 0.77004
 C487 C 0.86539 0.47560 0.76602
 N488 N 0.86455 0.48282 0.74973
 H489 H 0.87840 0.53604 0.76786
 H490 H 0.90782 0.48808 0.76248
 H491 H 0.92680 0.49614 0.78816
 H492 H 0.89683 0.54525 0.79348
 H493 H 0.85272 0.48186 0.72439
 H494 H 0.83432 0.45476 0.73021
 H495 H 0.85562 0.45509 0.78319
 H496 H 0.87387 0.48175 0.77605
 C497 C 0.83503 0.54739 0.73159
 C498 C 0.92004 0.49544 0.69841
 C499 C 0.84351 0.45257 0.75723
 C500 C 0.91330 0.52138 0.79300
 C501 C 0.22149 0.40465 0.01651
 H502 H 0.22870 0.40403 0.02888
 C503 C 0.20690 0.41630 0.01480
 H504 H 0.20277 0.42434 0.02606
 C505 C 0.21817 0.39479 -0.01308
 H506 H 0.22280 0.38656 -0.02399
 C507 C 0.20362 0.40639 -0.01543
 H508 H 0.19729 0.40702 -0.02824
 N509 N 0.22686 0.39420 0.00267
 C510 C 0.25840 0.35491 0.03125
 H511 H 0.27135 0.35509 0.02434
 C512 C 0.25623 0.34420 0.04603
 H513 H 0.26771 0.33653 0.05051
 C514 C 0.22766 0.36437 0.03378
 H515 H 0.21632 0.37173 0.02868
 C516 C 0.22491 0.35391 0.04863
 H517 H 0.21152 0.35354 0.05487
 Zn518 Zn 0.24749 0.37934 0.00526
 N519 N 0.24431 0.36497 0.02556
 C520 C 0.28591 0.38634 0.00659
 N521 N 0.26908 0.39396 0.00713
 C522 C 0.26743 0.41200 0.00813
 C523 C 0.28297 0.42305 0.00879
 C524 C 0.30184 0.39692 0.00703
 C525 C 0.23717 0.35022 -0.01603
 C526 C 0.23811 0.33827 -0.03027
 C527 C 0.26396 0.35514 -0.04160
 C528 C 0.26248 0.36681 -0.02719
 N529 N 0.24936 0.36404 -0.01467
 H530 H 0.28705 0.37207 0.00508
 H531 H 0.25409 0.41798 0.00824
 H532 H 0.28123 0.43733 0.00984
 H533 H 0.31504 0.39057 0.00606
 H534 H 0.22675 0.34845 -0.00598
 H535 H 0.22820 0.32741 -0.03117
 H536 H 0.27478 0.35736 -0.05119
 H537 H 0.27181 0.37807 -0.02605
 C538 C 0.23933 0.34371 0.05499
 C539 C 0.19785 0.41743 -0.00139
 C540 C 0.25172 0.34058 -0.04326
 C541 C 0.30049 0.41557 0.00810
 C542 C 0.70323 0.10663 -0.00838
 H543 H 0.71154 0.10547 -0.02019
 C544 C 0.68841 0.09497 -0.00580
 H545 H 0.68520 0.08506 -0.01586
 C546 C 0.69756 0.12088 0.01912
 H547 H 0.70146 0.13067 0.02902
 C548 C 0.68262 0.10947 0.02226
 H549 H 0.67514 0.11066 0.03458
 N550 N 0.70748 0.11930 0.00396
 C551 C 0.74076 0.15815 -0.02499
 H552 H 0.75285 0.15874 -0.01682
 C553 C 0.73995 0.16848 -0.04010
 H554 H 0.75159 0.17685 -0.04361
 C555 C 0.71103 0.14626 -0.03041
 H556 H 0.69968 0.13779 -0.02646
 C557 C 0.70965 0.15633 -0.04564
 H558 H 0.69717 0.15548 -0.05327
 Zn559 Zn 0.72891 0.13325 -0.00010
 N560 N 0.72655 0.14711 -0.02059
 C561 C 0.75885 0.11625 -0.01761
 N562 N 0.74841 0.11701 -0.00272
 C563 C 0.75123 0.10574 0.01081
 C564 C 0.76545 0.09351 0.00998
 C565 C 0.77318 0.10416 -0.01904
 C566 C 0.72098 0.16155 0.02345
 C567 C 0.72395 0.17323 0.03770
 C568 C 0.75318 0.15939 0.04233
 C569 C 0.74965 0.14800 0.02805
 N570 N 0.73361 0.14903 0.01913
 H571 H 0.75606 0.12495 -0.02844
 H572 H 0.74254 0.10646 0.02239
 H573 H 0.76778 0.08504 0.02113
 H574 H 0.78127 0.10369 -0.03103
 H575 H 0.70847 0.16230 0.01595
 H576 H 0.71355 0.18282 0.04123
 H577 H 0.76608 0.15838 0.04919
 H578 H 0.75984 0.13843 0.02407
 C579 C 0.72429 0.16752 -0.05075
 C580 C 0.67795 0.09620 0.00976
 C581 C 0.74017 0.17210 0.04746
 C582 C 0.77676 0.09269 -0.00504
 C583 C 0.23120 0.60182 0.49226
 H584 H 0.23781 0.60109 0.47948
 C585 C 0.21644 0.59045 0.49612
 H586 H 0.21159 0.58116 0.48608
 C587 C 0.22948 0.61500 0.52075
 H588 H 0.23480 0.62435 0.53045
 C589 C 0.21472 0.60384 0.52519
 H590 H 0.20886 0.60475 0.53830
 N591 N 0.23726 0.61395 0.50445
 C592 C 0.26455 0.65584 0.47427
 H593 H 0.27763 0.65650 0.48089
 C594 C 0.26099 0.66747 0.46058
 H595 H 0.27154 0.67690 0.45657
 C596 C 0.23497 0.64267 0.47151
 H597 H 0.22472 0.63325 0.47604
 C598 C 0.23083 0.65405 0.45776
 H599 H 0.21738 0.65323 0.45184
 Zn600 Zn 0.25754 0.62876 0.49839
 N601 N 0.25169 0.64362 0.47933
 C602 C 0.28624 0.61500 0.47666
 N603 N 0.27737 0.61373 0.49242
 C604 C 0.28229 0.60146 0.50443
 C605 C 0.29705 0.59023 0.50106
 C606 C 0.30112 0.60407 0.47276
 C607 C 0.25145 0.65623 0.52291
 C608 C 0.25516 0.66761 0.53719
 C609 C 0.28460 0.65365 0.54018
 C610 C 0.28034 0.64256 0.52581
 N611 N 0.26386 0.64384 0.51768
 H612 H 0.28186 0.62450 0.46708
 H613 H 0.27486 0.60059 0.51677
 H614 H 0.30103 0.58086 0.51098
 H615 H 0.30804 0.60529 0.46017
 H616 H 0.23854 0.65710 0.51608
 H617 H 0.24492 0.67709 0.54142
 H618 H 0.29778 0.65245 0.54649
 H619 H 0.29023 0.63297 0.52119
 C620 C 0.24394 0.66666 0.45211
 C621 C 0.20797 0.59138 0.51278
 C622 C 0.27187 0.66630 0.54611
 C623 C 0.30679 0.59157 0.48510
 C624 C 0.72760 0.90636 0.50976
 H625 H 0.73538 0.90597 0.52181
 C626 C 0.71254 0.91754 0.50861
 H627 H 0.70863 0.92549 0.52000
 C628 C 0.72333 0.89632 0.48033
 H629 H 0.72781 0.88832 0.46922
 C630 C 0.70824 0.90740 0.47857
 H631 H 0.70129 0.90777 0.46605
 N632 N 0.73257 0.89590 0.49580
 C633 C 0.76403 0.85326 0.51898
 H634 H 0.77638 0.85413 0.51104
 C635 C 0.76239 0.84030 0.53190
 H636 H 0.77367 0.83137 0.53401
 C637 C 0.73438 0.86397 0.52586
 H638 H 0.72335 0.87297 0.52323
 C639 C 0.73216 0.85122 0.53893
 H640 H 0.71939 0.85058 0.54626
 Zn641 Zn 0.75362 0.88170 0.49824
 N642 N 0.75024 0.86491 0.51635
 C643 C 0.78320 0.89578 0.51860
 N644 N 0.77351 0.89730 0.50349
 C645 C 0.77732 0.91051 0.49190
 C646 C 0.79170 0.92258 0.49508
 C647 C 0.79769 0.90758 0.52231
 C648 C 0.74550 0.85620 0.47227
 C649 C 0.74842 0.84544 0.45740
 C650 C 0.77776 0.86020 0.45318
 C651 C 0.77428 0.87067 0.46816
 N652 N 0.75830 0.86857 0.47729
 H653 H 0.77964 0.88553 0.52791
 H654 H 0.76921 0.91156 0.48010
 H655 H 0.79474 0.93278 0.48551
 H656 H 0.80515 0.90626 0.53448
 H657 H 0.73303 0.85465 0.47993
 H658 H 0.73798 0.83579 0.45352
 H659 H 0.79068 0.86185 0.44624
 H660 H 0.78451 0.88022 0.47262
 C661 C 0.74631 0.83920 0.54213
 C662 C 0.70264 0.91820 0.49284
 C663 C 0.76476 0.84733 0.44767
 C664 C 0.80215 0.92117 0.51043
 C665 C 0.01181 0.21682 0.40553
 H666 H 0.02432 0.22472 0.40616
 C667 C 0.00931 0.20240 0.41672
 H668 H 0.02011 0.19912 0.42577
 C669 C -0.01740 0.21156 0.39287
 H670 H -0.02795 0.21540 0.38385
 C671 C -0.02047 0.19701 0.40382
 H672 H -0.03339 0.18976 0.40305
 N673 N -0.00135 0.22099 0.39376
 C674 C 0.02883 0.25050 0.35348
 H675 H 0.02107 0.26268 0.35328
 C676 C 0.04396 0.24841 0.34230
 H677 H 0.04793 0.25917 0.33366
 C678 C 0.03312 0.22176 0.36516
 H679 H 0.02868 0.21126 0.37384
 C680 C 0.04835 0.21913 0.35425
 H681 H 0.05549 0.20659 0.35468
 Zn682 Zn 0.00327 0.24116 0.37964
 N683 N 0.02387 0.23737 0.36479
 C684 C 0.02355 0.27014 0.39511
 N685 N 0.00757 0.26058 0.39532
 C686 C -0.00583 0.26414 0.40735
 C687 C -0.00365 0.27808 0.41954
 C688 C 0.02632 0.28422 0.40709
 C689 C -0.02265 0.23317 0.35332
 C690 C -0.03773 0.23609 0.34256
 C691 C -0.04048 0.26546 0.35568
 C692 C -0.02547 0.26193 0.36629
 N693 N -0.01707 0.24588 0.36514
 H694 H 0.03425 0.26680 0.38577
 H695 H -0.01831 0.25616 0.40735
 H696 H -0.01465 0.28092 0.42877
 H697 H 0.03919 0.29159 0.40683
 H698 H -0.01551 0.22065 0.35245
 H699 H -0.04229 0.22557 0.33364
 H700 H -0.04683 0.27840 0.35671
 H701 H -0.02047 0.27210 0.37531
 C702 C 0.05403 0.23260 0.34269
 C703 C -0.00700 0.19226 0.41594
 C704 C -0.04696 0.25239 0.34374
 C705 C 0.01258 0.28838 0.41949
 C706 C -0.01553 0.73322 0.08780
 H707 H -0.02817 0.74060 0.08806
 C708 C -0.01315 0.71938 0.07555
 H709 H -0.02418 0.71602 0.06657
 C710 C 0.01406 0.72862 0.09941
 H711 H 0.02476 0.73248 0.10852
 C712 C 0.01705 0.71471 0.08733
 H713 H 0.03008 0.70800 0.08730
 N714 N -0.00211 0.73742 0.09955
 C715 C -0.03232 0.76383 0.14201
 H716 H -0.02511 0.77652 0.14266
 C717 C -0.04706 0.76048 0.15338
 H718 H -0.05129 0.77083 0.16256
 C719 C -0.03556 0.73503 0.12907
 H720 H -0.03080 0.72500 0.11985
 C721 C -0.05029 0.73108 0.14026
 H722 H -0.05670 0.71798 0.13948
 Zn723 Zn -0.00661 0.75661 0.11539
 N724 N -0.02702 0.75125 0.13002
 C725 C -0.02773 0.78499 0.10197
 N726 N -0.01121 0.77680 0.10149
 C727 C 0.00225 0.78210 0.09018
 C728 C -0.00047 0.79640 0.07900
 C729 C -0.03109 0.79930 0.09093
 C730 C 0.01837 0.74748 0.14137
 C731 C 0.03309 0.74969 0.15288
 C732 C 0.03794 0.77939 0.14174
 C733 C 0.02309 0.77662 0.13046
 N734 N 0.01380 0.76076 0.13031
 H735 H -0.03848 0.78024 0.11062
 H736 H 0.01515 0.77515 0.08983
 H737 H 0.01057 0.80057 0.07033
 H738 H -0.04446 0.80539 0.09127
 H739 H 0.01058 0.73509 0.14115
 H740 H 0.03671 0.73883 0.16134
 H741 H 0.04509 0.79214 0.14176
 H742 H 0.01894 0.78722 0.12197
 C743 C -0.05627 0.74390 0.15261
 C744 C 0.00330 0.70988 0.07522
 C745 C 0.04314 0.76580 0.15313
 C746 C -0.01736 0.80518 0.07922
 C747 C 0.48996 0.22804 0.59383
 H748 H 0.47849 0.23698 0.59316
 C749 C 0.49134 0.21380 0.58188
 H750 H 0.48072 0.21176 0.57214
 C751 C 0.51748 0.21971 0.60769
 H752 H 0.52757 0.22202 0.61785
 C753 C 0.51942 0.20531 0.59597
 H754 H 0.53123 0.19683 0.59705
 N755 N 0.50293 0.23072 0.60639
 C756 C 0.47405 0.25906 0.64842
 H757 H 0.48123 0.27178 0.64861
 C758 C 0.45915 0.25625 0.65970
 H759 H 0.45476 0.26708 0.66825
 C760 C 0.47097 0.22973 0.63673
 H761 H 0.47575 0.21935 0.62789
 C762 C 0.45613 0.22627 0.64795
 H763 H 0.44974 0.21316 0.64765
 Zn764 Zn 0.49990 0.25041 0.62188
 N765 N 0.47954 0.24595 0.63707
 C766 C 0.47927 0.27968 0.60955
 N767 N 0.49537 0.27080 0.60790
 C768 C 0.50814 0.27578 0.59571
 C769 C 0.50538 0.29064 0.58525
 C770 C 0.47595 0.29460 0.59936
 C771 C 0.52004 0.25312 0.65365
 C772 C 0.53540 0.25605 0.66420
 C773 C 0.55365 0.26022 0.63793
 C774 C 0.53792 0.25723 0.62787
 N775 N 0.52142 0.25403 0.63580
 H776 H 0.46878 0.27512 0.61854
 H777 H 0.52040 0.26812 0.59387
 H778 H 0.51592 0.29456 0.57592
 H779 H 0.46301 0.30138 0.60085
 H780 H 0.50704 0.25009 0.65984
 H781 H 0.53384 0.25567 0.67837
 H782 H 0.56664 0.26262 0.63133
 H783 H 0.53903 0.25718 0.61372
 C784 C 0.44995 0.23966 0.65960
 C785 C 0.50624 0.20221 0.58282
 C786 C 0.55249 0.25978 0.65637
 C787 C 0.48916 0.30036 0.58711
 C788 C 0.50858 0.71648 0.89543
 H789 H 0.52135 0.72396 0.89624
 C790 C 0.50553 0.70191 0.90632
 H791 H 0.51621 0.69812 0.91528
 C792 C 0.47944 0.71220 0.88233
 H793 H 0.46922 0.71638 0.87311
 C794 C 0.47574 0.69762 0.89309
 H795 H 0.46262 0.69078 0.89203
 N796 N 0.49577 0.72111 0.88350
 C797 C 0.52725 0.74824 0.84265
 H798 H 0.51977 0.76056 0.84192
 C799 C 0.54211 0.74522 0.83137
 H800 H 0.54618 0.75543 0.82214
 C801 C 0.53093 0.71999 0.85560
 H802 H 0.52629 0.70999 0.86474
 C803 C 0.54589 0.71643 0.84459
 H804 H 0.55264 0.70372 0.84545
 Zn805 Zn 0.50133 0.74070 0.86891
 N806 N 0.52208 0.73578 0.85459
 C807 C 0.52202 0.77000 0.88301
 N808 N 0.50584 0.76078 0.88376
 C809 C 0.49253 0.76535 0.89554
 C810 C 0.49501 0.78000 0.90687
 C811 C 0.52506 0.78479 0.89405
 C812 C 0.47758 0.73223 0.84128
 C813 C 0.46375 0.73488 0.82902
 C814 C 0.45862 0.76395 0.84211
 C815 C 0.47258 0.76076 0.85409
 N816 N 0.48165 0.74505 0.85354
 H817 H 0.53265 0.76590 0.87392
 H818 H 0.47988 0.75764 0.89601
 H819 H 0.48410 0.78364 0.91591
 H820 H 0.53804 0.79193 0.89331
 H821 H 0.48518 0.71996 0.84099
 H822 H 0.46060 0.72445 0.81946
 H823 H 0.45172 0.77664 0.84258
 H824 H 0.47632 0.77098 0.86362
 C825 C 0.55166 0.72914 0.83227
 C826 C 0.48895 0.69218 0.90519
 C827 C 0.45408 0.75094 0.82933
 C828 C 0.51142 0.79000 0.90614
 C829 C 0.13164 0.23081 0.25021
 C830 C 0.13165 0.22601 0.26818
 C831 C 0.14780 0.21829 0.27478
 C832 C 0.16315 0.21567 0.26382
 C833 C 0.16289 0.22052 0.24608
 C834 C 0.14698 0.22811 0.23944
 C835 C 0.14863 0.21320 0.29231
 C836 C 0.13374 0.21544 0.30354
 C837 C 0.11727 0.22299 0.29771
 C838 C 0.11626 0.22852 0.27977
 C839 C 0.09992 0.23641 0.27403
 C840 C 0.08505 0.23871 0.28530
 C841 C 0.08573 0.23323 0.30271
 C842 C 0.10178 0.22525 0.30922
 C843 C 0.10157 0.21980 0.32701
 C844 C 0.08615 0.22223 0.33771
 C845 C 0.07038 0.23015 0.33119
 C846 C 0.07031 0.23565 0.31365
 H847 H 0.12000 0.23657 0.24394
 H848 H 0.17545 0.21002 0.26921
 H849 H 0.14625 0.23173 0.22573
 H850 H 0.16096 0.20734 0.29743
 H851 H 0.13569 0.21114 0.31683
 H852 H 0.09813 0.24108 0.26085
 H853 H 0.07282 0.24484 0.28026
 H854 H 0.11303 0.21357 0.33314
 H855 H 0.08666 0.21804 0.35128
 H856 H 0.05808 0.24159 0.30839
 C857 C 0.62610 0.72387 0.73771
 C858 C 0.62633 0.71862 0.75554
 C859 C 0.64248 0.71055 0.76173
 C860 C 0.65768 0.70810 0.75050
 C861 C 0.65727 0.71370 0.73300
 C862 C 0.64130 0.72146 0.72674
 C863 C 0.64352 0.70512 0.77914
 C864 C 0.62897 0.70767 0.79074
 C865 C 0.61263 0.71583 0.78538
 C866 C 0.61122 0.72124 0.76743
 C867 C 0.59480 0.72917 0.76200
 C868 C 0.58036 0.73196 0.77363
 C869 C 0.58159 0.72701 0.79117
 C870 C 0.59767 0.71882 0.79736
 C871 C 0.59806 0.71408 0.81535
 C872 C 0.58317 0.71740 0.82654
 C873 C 0.56741 0.72556 0.82030
 C874 C 0.56673 0.73028 0.80256
 H875 H 0.61447 0.72998 0.73175
 H876 H 0.67003 0.70224 0.75554
 H877 H 0.64049 0.72563 0.71319
 H878 H 0.65581 0.69889 0.78393
 H879 H 0.63105 0.70308 0.80391
 H880 H 0.59257 0.73348 0.74875
 H881 H 0.56806 0.73817 0.76883
 H882 H 0.60965 0.70789 0.82130
 H883 H 0.58414 0.71378 0.84024
 H884 H 0.55447 0.73636 0.79752
 C885 C 0.35046 0.78500 0.77705
 C886 C 0.36728 0.77704 0.77215
 C887 C 0.37001 0.77274 0.75408
 C888 C 0.35655 0.77654 0.74160
 C889 C 0.34008 0.78459 0.74668
 C890 C 0.33719 0.78869 0.76452
 C891 C 0.38619 0.76474 0.74848
 C892 C 0.39985 0.76084 0.76037
 C893 C 0.39794 0.76489 0.77851
 C894 C 0.38142 0.77322 0.78449
 C895 C 0.37966 0.77759 0.80257
 C896 C 0.39346 0.77399 0.81441
 C897 C 0.40956 0.76582 0.80884
 C898 C 0.41206 0.76102 0.79086
 C899 C 0.42865 0.75256 0.78605
 C900 C 0.44210 0.74925 0.79852
 C901 C 0.43958 0.75422 0.81620
 C902 C 0.42322 0.76246 0.82125
 H903 H 0.34698 0.78849 0.79044
 H904 H 0.35906 0.77347 0.72782
 H905 H 0.32447 0.79459 0.76891
 H906 H 0.38835 0.76144 0.73468
 H907 H 0.41186 0.75472 0.75480
 H908 H 0.36779 0.78400 0.80809
 H909 H 0.39148 0.77767 0.82814
 H910 H 0.43176 0.74829 0.77279
 H911 H 0.45469 0.74301 0.79422
 H912 H 0.42101 0.76612 0.83496
 C913 C -0.12812 0.25376 0.25530
 C914 C -0.12579 0.26185 0.27209
 C915 C -0.13977 0.27331 0.27826
 C916 C -0.15499 0.27693 0.26774
 C917 C -0.15708 0.26904 0.25091
 C918 C -0.14342 0.25724 0.24502
 C919 C -0.13860 0.28112 0.29499
 C920 C -0.12392 0.27771 0.30588
 C921 C -0.10954 0.26648 0.30037
 C922 C -0.11021 0.25884 0.28299
 C923 C -0.09516 0.24874 0.27699
 C924 C -0.08012 0.24592 0.28764
 C925 C -0.07955 0.25274 0.30480
 C926 C -0.09433 0.26291 0.31154
 C927 C -0.09331 0.26892 0.32927
 C928 C -0.07807 0.26540 0.33957
 C929 C -0.06326 0.25580 0.33268
 C930 C -0.06418 0.24944 0.31525
 H931 H -0.11849 0.24447 0.24973
 H932 H -0.16543 0.28557 0.27310
 H933 H -0.14408 0.25088 0.23220
 H934 H -0.14922 0.28996 0.29978
 H935 H -0.12409 0.28447 0.31848
 H936 H -0.09434 0.24308 0.26391
 H937 H -0.06882 0.23820 0.28238
 H938 H -0.10417 0.27611 0.33574
 H939 H -0.07803 0.27004 0.35314
 H940 H -0.05280 0.24207 0.30967
 C941 C -0.13127 0.74008 0.24680
 C942 C -0.13040 0.73239 0.22972
 C943 C -0.14520 0.72118 0.22440
 C944 C -0.15989 0.71753 0.23596
 C945 C -0.16057 0.72514 0.25303
 C946 C -0.14598 0.73655 0.25811
 C947 C -0.14539 0.71370 0.20748
 C948 C -0.13130 0.71723 0.19559
 C949 C -0.11618 0.72826 0.20022
 C950 C -0.11549 0.73558 0.21773
 C951 C -0.09982 0.74566 0.22274
 C952 C -0.08550 0.74880 0.21103
 C953 C -0.08623 0.74228 0.19379
 C954 C -0.10160 0.73204 0.18802
 C955 C -0.10173 0.72615 0.17021
 C956 C -0.08713 0.73004 0.15885
 C957 C -0.07185 0.73991 0.16474
 C958 C -0.07156 0.74598 0.18227
 H959 H -0.12090 0.74909 0.25188
 H960 H -0.17100 0.70909 0.23125
 H961 H -0.14545 0.74263 0.27107
 H962 H -0.15664 0.70507 0.20331
 H963 H -0.13256 0.71080 0.18289
 H964 H -0.09797 0.75111 0.23580
 H965 H -0.07373 0.75655 0.21554
 H966 H -0.11302 0.71874 0.16450
 H967 H -0.08794 0.72550 0.14527
 H968 H -0.05974 0.75346 0.18708
 C969 C 0.37022 0.24420 0.75014
 C970 C 0.37244 0.23435 0.73426
 C971 C 0.35836 0.22203 0.72957
 C972 C 0.34321 0.21922 0.74075
 C973 C 0.34124 0.22886 0.75669
 C974 C 0.35495 0.24155 0.76102
 C975 C 0.35936 0.21257 0.71366
 C976 C 0.37391 0.21523 0.70209
 C977 C 0.38838 0.22727 0.70615
 C978 C 0.38797 0.23649 0.72279
 C979 C 0.40323 0.24726 0.72755
 C980 C 0.41817 0.24933 0.71631
 C981 C 0.41838 0.24113 0.69973
 C982 C 0.40342 0.23017 0.69427
 C983 C 0.40407 0.22277 0.67701
 C984 C 0.41907 0.22588 0.66591
 C985 C 0.43403 0.23637 0.67154
 C986 C 0.43354 0.24391 0.68855
 H987 H 0.37989 0.25430 0.75445
 H988 H 0.33267 0.20984 0.73653
 H989 H 0.35433 0.24928 0.77312
 H990 H 0.34866 0.20305 0.71002
 H991 H 0.37363 0.20725 0.69020
 H992 H 0.40430 0.25398 0.74014
 H993 H 0.42963 0.25764 0.72060
 H994 H 0.39302 0.21488 0.67148
 H995 H 0.41877 0.22027 0.65270
 H996 H 0.44506 0.25191 0.69320
 C997 C 0.63473 0.25915 0.74384
 C998 C 0.63207 0.26818 0.72788
 C999 C 0.64490 0.28177 0.72350
 C1000 C 0.65967 0.28598 0.73465
 C1001 C 0.66223 0.27697 0.75060
 C1002 C 0.64943 0.26344 0.75487
 C1003 C 0.64298 0.29121 0.70797
 C1004 C 0.62845 0.28767 0.69671
 C1005 C 0.61513 0.27440 0.70049
 C1006 C 0.61710 0.26431 0.71622
 C1007 C 0.60406 0.25070 0.71975
 C1008 C 0.58945 0.24723 0.70855
 C1009 C 0.58711 0.25717 0.69341
 C1010 C 0.59989 0.27087 0.68907
 C1011 C 0.59672 0.28055 0.67353
 C1012 C 0.58153 0.27680 0.66296
 C1013 C 0.56893 0.26331 0.66740
 C1014 C 0.57192 0.25348 0.68263
 H1015 H 0.62563 0.24875 0.74839
 H1016 H 0.66922 0.29625 0.73052
 H1017 H 0.65031 0.25613 0.76695
 H1018 H 0.65281 0.30157 0.70448
 H1019 H 0.62813 0.29564 0.68506
 H1020 H 0.60472 0.24234 0.73110
 H1021 H 0.57977 0.23668 0.71188
 H1022 H 0.60553 0.29127 0.66921
 H1023 H 0.57943 0.28478 0.65140
 H1024 H 0.56242 0.24282 0.68608
 C1025 C 0.11701 0.76526 0.24739
 C1026 C 0.11772 0.77101 0.22970
 C1027 C 0.13424 0.77923 0.22380
 C1028 C 0.14927 0.78140 0.23514
 C1029 C 0.14834 0.77555 0.25256
 C1030 C 0.13204 0.76750 0.25853
 C1031 C 0.13576 0.78525 0.20658
 C1032 C 0.12124 0.78337 0.19497
 C1033 C 0.10447 0.77526 0.20008
 C1034 C 0.10271 0.76889 0.21772
 C1035 C 0.08603 0.76055 0.22275
 C1036 C 0.07159 0.75850 0.21108
 C1037 C 0.07304 0.76468 0.19392
 C1038 C 0.08943 0.77322 0.18813
 C1039 C 0.08999 0.77937 0.17057
 C1040 C 0.07502 0.77699 0.15938
 C1041 C 0.05895 0.76842 0.16518
 C1042 C 0.05808 0.76233 0.18251
 H1043 H 0.10505 0.75905 0.25314
 H1044 H 0.16186 0.78743 0.23025
 H1045 H 0.13078 0.76311 0.27199
 H1046 H 0.14836 0.79154 0.20200
 H1047 H 0.12372 0.78839 0.18196
 H1048 H 0.08364 0.75531 0.23569
 H1049 H 0.05909 0.75196 0.21557
 H1050 H 0.10176 0.78607 0.16498
 H1051 H 0.07615 0.78168 0.14600
 H1052 H 0.04561 0.75592 0.18724
 C1053 C 0.28589 0.15063 0.21831
 C1054 C 0.27954 0.13458 0.22602
 C1055 C 0.26074 0.13344 0.23085
 C1056 C 0.24899 0.14778 0.22802
 C1057 C 0.25551 0.16349 0.22026
 C1058 C 0.27406 0.16475 0.21550
 C1059 C 0.25367 0.11797 0.23839
 C1060 C 0.26475 0.10342 0.24116
 C1061 C 0.28353 0.10372 0.23650
 C1062 C 0.29111 0.11964 0.22897
 C1063 C 0.30997 0.12007 0.22463
 C1064 C 0.32103 0.10548 0.22730
 C1065 C 0.31383 0.08982 0.23435
 C1066 C 0.29501 0.08865 0.23911
 C1067 C 0.28851 0.07233 0.24616
 C1068 C 0.30019 0.05796 0.24832
 C1069 C 0.31874 0.05925 0.24356
 C1070 C 0.32545 0.07528 0.23662
 H1071 H 0.29989 0.15278 0.21420
 H1072 H 0.23461 0.14654 0.23154
 H1073 H 0.27953 0.17681 0.20970
 H1074 H 0.23932 0.11705 0.24216
 H1075 H 0.25806 0.09208 0.24706
 H1076 H 0.31676 0.13155 0.21911
 H1077 H 0.33542 0.10647 0.22370
 H1078 H 0.27445 0.07009 0.25003
 H1079 H 0.29457 0.04565 0.25348
 H1080 H 0.33984 0.07651 0.23310
 C1081 C 0.78319 0.65048 0.70175
 C1082 C 0.77759 0.63376 0.70856
 C1083 C 0.75876 0.63137 0.71282
 C1084 C 0.74624 0.64514 0.71026
 C1085 C 0.75205 0.66159 0.70352
 C1086 C 0.77062 0.66406 0.69929
 C1087 C 0.75244 0.61526 0.71964
 C1088 C 0.76438 0.60141 0.72254
 C1089 C 0.78329 0.60304 0.71867
 C1090 C 0.78999 0.61943 0.71139
 C1091 C 0.80884 0.62094 0.70717
 C1092 C 0.82079 0.60710 0.71013
 C1093 C 0.81457 0.59119 0.71743
 C1094 C 0.79576 0.58885 0.72183
 C1095 C 0.79030 0.57240 0.72933
 C1096 C 0.80299 0.55905 0.73235
 C1097 C 0.82153 0.56150 0.72801
 C1098 C 0.82718 0.57762 0.72047
 H1099 H 0.79718 0.65364 0.69830
 H1100 H 0.73187 0.64295 0.71336
 H1101 H 0.77557 0.67670 0.69433
 H1102 H 0.73804 0.61335 0.72285
 H1103 H 0.75823 0.58950 0.72784
 H1104 H 0.81490 0.63268 0.70146
 H1105 H 0.83514 0.60894 0.70670
 H1106 H 0.77637 0.56937 0.73313
 H1107 H 0.79821 0.54664 0.73801
 H1108 H 0.84155 0.57977 0.71728
 C1109 C 0.75260 0.37061 0.76082
 C1110 C 0.76964 0.37384 0.76910
 C1111 C 0.77574 0.36094 0.78108
 C1112 C 0.76488 0.34580 0.78487
 C1113 C 0.74787 0.34274 0.77659
 C1114 C 0.74205 0.35545 0.76446
 C1115 C 0.79275 0.36311 0.78915
 C1116 C 0.80403 0.37767 0.78545
 C1117 C 0.79861 0.39094 0.77364
 C1118 C 0.78089 0.38925 0.76574
 C1119 C 0.77491 0.40314 0.75492
 C1120 C 0.78594 0.41795 0.75160
 C1121 C 0.80347 0.41948 0.75866
 C1122 C 0.81019 0.40597 0.76965
 C1123 C 0.82831 0.40806 0.77604
 C1124 C 0.83901 0.42304 0.77193
 C1125 C 0.83214 0.43651 0.76134
 C1126 C 0.81431 0.43456 0.75475
 H1127 H 0.74704 0.37942 0.75122
 H1128 H 0.77016 0.33618 0.79392
 H1129 H 0.72903 0.35413 0.75786
 H1130 H 0.79750 0.35334 0.79838
 H1131 H 0.81686 0.37827 0.79236
 H1132 H 0.76155 0.40319 0.74901
 H1133 H 0.78069 0.42829 0.74327
 H1134 H 0.83479 0.39825 0.78401
 H1135 H 0.85288 0.42395 0.77689
 H1136 H 0.80870 0.44494 0.74670
 C1137 C 0.27265 -0.15711 0.28750
 C1138 C 0.26866 -0.14224 0.27706
 C1139 C 0.25113 -0.14178 0.26920
 C1140 C 0.23847 -0.15592 0.27134
 C1141 C 0.24258 -0.17072 0.28175
 C1142 C 0.25991 -0.17094 0.28980
 C1143 C 0.24618 -0.12710 0.25934
 C1144 C 0.25810 -0.11265 0.25735
 C1145 C 0.27573 -0.11243 0.26491
 C1146 C 0.28133 -0.12775 0.27440
 C1147 C 0.29948 -0.12816 0.28072
 C1148 C 0.31159 -0.11396 0.27832
 C1149 C 0.30609 -0.09863 0.26982
 C1150 C 0.28806 -0.09751 0.26311
 C1151 C 0.28310 -0.08136 0.25510
 C1152 C 0.29562 -0.06719 0.25360
 C1153 C 0.31353 -0.06853 0.25995
 C1154 C 0.31863 -0.08437 0.26803
 H1155 H 0.28541 -0.15842 0.29436
 H1156 H 0.22515 -0.15491 0.26531
 H1157 H 0.26407 -0.18201 0.29769
 H1158 H 0.23282 -0.12667 0.25320
 H1159 H 0.25315 -0.10196 0.24946
 H1160 H 0.30497 -0.13948 0.28732
 H1161 H 0.32541 -0.11494 0.28335
 H1162 H 0.26955 -0.07906 0.25018
 H1163 H 0.29111 -0.05499 0.24768
 H1164 H 0.33248 -0.08570 0.27286
 C1165 C 0.23069 -0.13423 0.70485
 C1166 C 0.22962 -0.12561 0.72150
 C1167 C 0.24124 -0.13174 0.73490
 C1168 C 0.25340 -0.14577 0.73161
 C1169 C 0.25440 -0.15431 0.71498
 C1170 C 0.24276 -0.14822 0.70171
 C1171 C 0.24069 -0.12390 0.75164
 C1172 C 0.22880 -0.11009 0.75549
 C1173 C 0.21691 -0.10342 0.74266
 C1174 C 0.21741 -0.11122 0.72532
 C1175 C 0.20573 -0.10435 0.71240
 C1176 C 0.19393 -0.09046 0.71621
 C1177 C 0.19316 -0.08283 0.73303
 C1178 C 0.20455 -0.08919 0.74655
 C1179 C 0.20300 -0.08100 0.76342
 C1180 C 0.19078 -0.06715 0.76658
 C1181 C 0.17967 -0.06091 0.75312
 C1182 C 0.18095 -0.06885 0.73636
 H1183 H 0.22241 -0.13057 0.69385
 H1184 H 0.26172 -0.15017 0.74237
 H1185 H 0.24301 -0.15389 0.68857
 H1186 H 0.24956 -0.12851 0.76196
 H1187 H 0.22940 -0.10489 0.76876
 H1188 H 0.20537 -0.10934 0.69905
 H1189 H 0.18525 -0.08565 0.70583
 H1190 H 0.21097 -0.08492 0.77454
 H1191 H 0.19020 -0.06112 0.77962
 H1192 H 0.17220 -0.06431 0.72591
 C1193 C 0.75259 0.36211 0.24173
 C1194 C 0.73404 0.36303 0.23645
 C1195 C 0.72650 0.34809 0.22724
 C1196 C 0.73709 0.33293 0.22379
 C1197 C 0.75543 0.33227 0.22909
 C1198 C 0.76301 0.34702 0.23809
 C1199 C 0.70845 0.34834 0.22141
 C1200 C 0.69771 0.36326 0.22411
 C1201 C 0.70457 0.37860 0.23299
 C1202 C 0.72285 0.37828 0.23974
 C1203 C 0.72928 0.39318 0.24961
 C1204 C 0.71851 0.40808 0.25236
 C1205 C 0.70099 0.40890 0.24526
 C1206 C 0.69373 0.39424 0.23542
 C1207 C 0.67602 0.39603 0.22816
 C1208 C 0.66611 0.41165 0.23060
 C1209 C 0.67336 0.42602 0.24038
 C1210 C 0.69077 0.42448 0.24780
 H1211 H 0.75964 0.37293 0.24840
 H1212 H 0.73095 0.32155 0.21700
 H1213 H 0.77723 0.34709 0.24206
 H1214 H 0.70257 0.33690 0.21449
 H1215 H 0.68394 0.36221 0.21919
 H1216 H 0.74259 0.39372 0.25562
 H1217 H 0.72408 0.41919 0.26000
 H1218 H 0.66950 0.38577 0.22026
 H1219 H 0.65262 0.41248 0.22481
 H1220 H 0.69660 0.43565 0.25518
 C1221 C 0.71949 0.65005 0.28650
 C1222 C 0.72463 0.63488 0.27644
 C1223 C 0.74207 0.63528 0.26808
 C1224 C 0.75411 0.64990 0.27057
 C1225 C 0.74901 0.66457 0.28109
 C1226 C 0.73146 0.66456 0.28874
 C1227 C 0.74750 0.62104 0.25735
 C1228 C 0.73594 0.60641 0.25455
 C1229 C 0.71853 0.60521 0.26275
 C1230 C 0.71303 0.61944 0.27431
 C1231 C 0.69635 0.61758 0.28370
 C1232 C 0.68523 0.60255 0.28164
 C1233 C 0.69002 0.58891 0.26992
 C1234 C 0.70659 0.59009 0.26010
 C1235 C 0.71038 0.57611 0.24793
 C1236 C 0.69843 0.56151 0.24598
 C1237 C 0.68232 0.56020 0.25608
 C1238 C 0.67825 0.57403 0.26804
 H1239 H 0.70619 0.65133 0.29260
 H1240 H 0.76760 0.64965 0.26454
 H1241 H 0.72681 0.67590 0.29641
 H1242 H 0.76083 0.62123 0.25095
 H1243 H 0.74132 0.59598 0.24619
 H1244 H 0.69166 0.62733 0.29318
 H1245 H 0.67263 0.60167 0.28927
 H1246 H 0.72225 0.57619 0.23942
 H1247 H 0.70173 0.55131 0.23628
 H1248 H 0.66595 0.57317 0.27609
 C1249 C 0.25143 0.13618 0.77492
 C1250 C 0.23394 0.13412 0.78283
 C1251 C 0.22700 0.14876 0.79266
 C1252 C 0.23753 0.16447 0.79492
 C1253 C 0.25501 0.16636 0.78708
 C1254 C 0.26164 0.15192 0.77697
 C1255 C 0.20948 0.14776 0.80009
 C1256 C 0.19850 0.13265 0.79774
 C1257 C 0.20477 0.11766 0.78810
 C1258 C 0.22303 0.11817 0.78108
 C1259 C 0.22989 0.10265 0.77277
 C1260 C 0.21915 0.08734 0.77090
 C1261 C 0.20107 0.08690 0.77691
 C1262 C 0.19349 0.10207 0.78545
 C1263 C 0.17485 0.10100 0.79075
 C1264 C 0.16441 0.08548 0.78791
 C1265 C 0.17210 0.07044 0.77977
 C1266 C 0.19051 0.07130 0.77436
 H1267 H 0.25757 0.12600 0.76677
 H1268 H 0.23163 0.17541 0.80234
 H1269 H 0.27503 0.15237 0.77083
 H1270 H 0.20410 0.15887 0.80770
 H1271 H 0.18522 0.13301 0.80402
 H1272 H 0.24373 0.10171 0.76786
 H1273 H 0.22506 0.07573 0.76450
 H1274 H 0.16775 0.11204 0.79677
 H1275 H 0.15011 0.08540 0.79186
 H1276 H 0.19674 0.05971 0.76822
 C1277 C 0.23818 0.25237 0.13013
 C1278 C 0.23225 0.27027 0.12986
 C1279 C 0.22283 0.27686 0.14494
 C1280 C 0.21975 0.26599 0.15960
 C1281 C 0.22580 0.24835 0.15965
 C1282 C 0.23500 0.24169 0.14476
 C1283 C 0.21650 0.29429 0.14539
 C1284 C 0.21911 0.30540 0.13113
 C1285 C 0.22834 0.29955 0.11573
 C1286 C 0.23524 0.28176 0.11517
 C1287 C 0.24496 0.27609 0.09999
 C1288 C 0.24767 0.28722 0.08577
 C1289 C 0.24077 0.30444 0.08596
 C1290 C 0.23097 0.31090 0.10088
 C1291 C 0.22410 0.32846 0.10020
 C1292 C 0.22690 0.33898 0.08540
 C1293 C 0.23664 0.33250 0.07076
 C1294 C 0.24359 0.31520 0.07118
 H1295 H 0.24516 0.24606 0.11923
 H1296 H 0.21280 0.27139 0.17111
 H1297 H 0.23953 0.22802 0.14426
 H1298 H 0.20934 0.29942 0.15691
 H1299 H 0.21377 0.31863 0.13270
 H1300 H 0.25084 0.26306 0.09865
 H1301 H 0.25522 0.28224 0.07442
 H1302 H 0.21641 0.33451 0.11079
 H1303 H 0.22153 0.35237 0.08548
 H1304 H 0.25091 0.30996 0.05981
 C1305 C 0.71758 0.78303 0.64239
 C1306 C 0.72639 0.77902 0.62615
 C1307 C 0.73256 0.76134 0.62340
 C1308 C 0.72987 0.74838 0.63637
 C1309 C 0.72090 0.75257 0.65223
 C1310 C 0.71490 0.77002 0.65510
 C1311 C 0.74125 0.75660 0.60766
 C1312 C 0.74386 0.76893 0.59441
 C1313 C 0.73786 0.78668 0.59635
 C1314 C 0.72915 0.79186 0.61256
 C1315 C 0.72344 0.80969 0.61464
 C1316 C 0.72592 0.82198 0.60136
 C1317 C 0.73412 0.81711 0.58543
 C1318 C 0.74025 0.79943 0.58262
 C1319 C 0.74844 0.79530 0.56610
 C1320 C 0.75039 0.80817 0.55310
 C1321 C 0.74428 0.82558 0.55601
 C1322 C 0.73617 0.82993 0.57226
 H1323 H 0.71246 0.79603 0.64574
 H1324 H 0.73440 0.73487 0.63393
 H1325 H 0.70820 0.77370 0.66735
 H1326 H 0.74605 0.74312 0.60551
 H1327 H 0.75070 0.76404 0.58274
 H1328 H 0.71697 0.81470 0.62645
 H1329 H 0.72127 0.83550 0.60359
 H1330 H 0.75338 0.78225 0.56266
 H1331 H 0.75648 0.80437 0.54058
 H1332 H 0.73161 0.84343 0.57475
 C1333 C 0.77155 0.75317 0.37358
 C1334 C 0.77644 0.77152 0.37366
 C1335 C 0.78463 0.77845 0.35817
 C1336 C 0.78764 0.76742 0.34336
 C1337 C 0.78254 0.74934 0.34349
 C1338 C 0.77454 0.74236 0.35875
 C1339 C 0.78970 0.79640 0.35743
 C1340 C 0.78677 0.80779 0.37170
 C1341 C 0.77858 0.80167 0.38744
 C1342 C 0.77342 0.78320 0.38848
 C1343 C 0.76538 0.77705 0.40426
 C1344 C 0.76235 0.78844 0.41849
 C1345 C 0.76715 0.80645 0.41766
 C1346 C 0.77536 0.81339 0.40218
 C1347 C 0.77993 0.83183 0.40217
 C1348 C 0.77650 0.84272 0.41687
 C1349 C 0.76837 0.83572 0.43206
 C1350 C 0.76376 0.81754 0.43234
 H1351 H 0.76533 0.74665 0.38469
 H1352 H 0.79361 0.77303 0.33154
 H1353 H 0.77071 0.72839 0.35931
 H1354 H 0.79600 0.80175 0.34563
 H1355 H 0.79114 0.82140 0.36989
 H1356 H 0.76120 0.76339 0.40615
 H1357 H 0.75611 0.78307 0.43032
 H1358 H 0.78611 0.83836 0.39105
 H1359 H 0.78001 0.85677 0.41623
 H1360 H 0.75772 0.81192 0.44414
 C1361 C 0.27680 0.29128 -0.14894
 C1362 C 0.26957 0.28575 -0.13251
 C1363 C 0.26602 0.26727 -0.13034
 C1364 C 0.26936 0.25505 -0.14416
 C1365 C 0.27660 0.26079 -0.16027
 C1366 C 0.28026 0.27898 -0.16249
 C1367 C 0.25935 0.26099 -0.11432
 C1368 C 0.25647 0.27256 -0.10017
 C1369 C 0.25996 0.29106 -0.10153
 C1370 C 0.26606 0.29783 -0.11813
 C1371 C 0.26835 0.31645 -0.11983
 C1372 C 0.26540 0.32803 -0.10572
 C1373 C 0.26026 0.32160 -0.08927
 C1374 C 0.25748 0.30304 -0.08686
 C1375 C 0.25264 0.29729 -0.06974
 C1376 C 0.25064 0.30945 -0.05578
 C1377 C 0.25334 0.32776 -0.05830
 C1378 C 0.25802 0.33371 -0.07517
 H1379 H 0.28027 0.30495 -0.15173
 H1380 H 0.26677 0.24096 -0.14221
 H1381 H 0.28575 0.28377 -0.17485
 H1382 H 0.25650 0.24689 -0.11262
 H1383 H 0.25126 0.26652 -0.08835
 H1384 H 0.27224 0.32263 -0.13202
 H1385 H 0.26738 0.34222 -0.10767
 H1386 H 0.25067 0.28346 -0.06653
 H1387 H 0.24737 0.30440 -0.04284
 H1388 H 0.25993 0.34787 -0.07737
 C1389 C 0.73105 0.25512 -0.13024
 C1390 C 0.72550 0.23694 -0.12959
 C1391 C 0.71809 0.22912 -0.14514
 C1392 C 0.71630 0.23915 -0.16047
 C1393 C 0.72159 0.25718 -0.16079
 C1394 C 0.72910 0.26498 -0.14556
 C1395 C 0.71236 0.21133 -0.14536
 C1396 C 0.71347 0.20106 -0.13039
 C1397 C 0.72046 0.20818 -0.11445
 C1398 C 0.72684 0.22635 -0.11410
 C1399 C 0.73430 0.23330 -0.09828
 C1400 C 0.73529 0.22304 -0.08327
 C1401 C 0.72884 0.20546 -0.08329
 C1402 C 0.72129 0.19773 -0.09883
 C1403 C 0.71475 0.17988 -0.09798
 C1404 C 0.71576 0.17025 -0.08245
 C1405 C 0.72329 0.17795 -0.06719
 C1406 C 0.72985 0.19559 -0.06774
 H1407 H 0.73673 0.26225 -0.11911
 H1408 H 0.71077 0.23284 -0.17224
 H1409 H 0.73313 0.27892 -0.14532
 H1410 H 0.70680 0.20526 -0.15726
 H1411 H 0.70872 0.18748 -0.13186
 H1412 H 0.73961 0.24671 -0.09700
 H1413 H 0.74113 0.22900 -0.07144
 H1414 H 0.70868 0.17289 -0.10901
 H1415 H 0.71078 0.15657 -0.08247
 H1416 H 0.73548 0.20177 -0.05594
 C1417 C 0.20546 0.71314 0.35057
 C1418 C 0.21485 0.71891 0.36598
 C1419 C 0.22082 0.73697 0.36686
 C1420 C 0.21768 0.74851 0.35286
 C1421 C 0.20862 0.74251 0.33764
 C1422 C 0.20243 0.72477 0.33672
 C1423 C 0.22999 0.74351 0.38167
 C1424 C 0.23362 0.73252 0.39569
 C1425 C 0.22821 0.71436 0.39550
 C1426 C 0.21858 0.70745 0.38043
 C1427 C 0.21312 0.68931 0.38028
 C1428 C 0.21698 0.67826 0.39423
 C1429 C 0.22642 0.68474 0.40892
 C1430 C 0.23216 0.70287 0.40985
 C1431 C 0.24171 0.70867 0.42513
 C1432 C 0.24542 0.69695 0.43870
 C1433 C 0.23979 0.67905 0.43764
 C1434 C 0.23022 0.67307 0.42269
 H1435 H 0.20036 0.69972 0.34869
 H1436 H 0.22220 0.76230 0.35390
 H1437 H 0.19552 0.71973 0.32507
 H1438 H 0.23452 0.75733 0.38242
 H1439 H 0.24081 0.73877 0.40651
 H1440 H 0.20582 0.68311 0.36950
 H1441 H 0.21254 0.66441 0.39346
 H1442 H 0.24655 0.72216 0.42711
 H1443 H 0.25259 0.70202 0.45021
 H1444 H 0.22596 0.65919 0.42163
 C1445 C 0.27889 0.75947 0.62160
 C1446 C 0.28339 0.74115 0.62126
 C1447 C 0.29089 0.73399 0.63677
 C1448 C 0.29339 0.74471 0.65190
 C1449 C 0.28857 0.76273 0.65206
 C1450 C 0.28144 0.76997 0.63673
 C1451 C 0.29574 0.71612 0.63719
 C1452 C 0.29327 0.70502 0.62260
 C1453 C 0.28567 0.71135 0.60687
 C1454 C 0.28063 0.72972 0.60619
 C1455 C 0.27282 0.73600 0.59053
 C1456 C 0.26991 0.72480 0.57610
 C1457 C 0.27469 0.70691 0.57655
 C1458 C 0.28278 0.69989 0.59184
 C1459 C 0.28754 0.68163 0.59140
 C1460 C 0.28413 0.67092 0.57657
 C1461 C 0.27590 0.67791 0.56165
 C1462 C 0.27131 0.69598 0.56172
 H1463 H 0.27340 0.76619 0.61044
 H1464 H 0.29875 0.73888 0.66373
 H1465 H 0.27793 0.78393 0.63633
 H1466 H 0.30151 0.71058 0.64900
 H1467 H 0.29736 0.69143 0.62421
 H1468 H 0.26860 0.74956 0.58897
 H1469 H 0.26376 0.73024 0.56443
 H1470 H 0.29386 0.67512 0.60227
 H1471 H 0.28768 0.65696 0.57692
 H1472 H 0.26519 0.70159 0.55012
 C1473 C 0.77765 0.21487 0.15240
 C1474 C 0.76877 0.22132 0.13728
 C1475 C 0.76447 0.23969 0.13710
 C1476 C 0.76887 0.25093 0.15147
 C1477 C 0.77768 0.24429 0.16628
 C1478 C 0.78199 0.22618 0.16656
 C1479 C 0.75584 0.24683 0.12255
 C1480 C 0.75143 0.23620 0.10803
 C1481 C 0.75545 0.21784 0.10745
 C1482 C 0.76414 0.21024 0.12239
 C1483 C 0.76792 0.19183 0.12193
 C1484 C 0.76365 0.18123 0.10739
 C1485 C 0.75545 0.18844 0.09266
 C1486 C 0.75113 0.20681 0.09241
 C1487 C 0.74277 0.21330 0.07703
 C1488 C 0.73909 0.20205 0.06261
 C1489 C 0.74359 0.18398 0.06295
 C1490 C 0.75164 0.17728 0.07812
 H1491 H 0.78150 0.20118 0.15379
 H1492 H 0.76568 0.26498 0.15099
 H1493 H 0.78856 0.22061 0.17792
 H1494 H 0.75249 0.26085 0.12235
 H1495 H 0.74482 0.24289 0.09743
 H1496 H 0.77422 0.18506 0.13265
 H1497 H 0.76690 0.16718 0.10766
 H1498 H 0.73901 0.22701 0.07557
 H1499 H 0.73300 0.20762 0.05099
 H1500 H 0.75489 0.16324 0.07866
 C1501 C 0.48687 0.37792 0.49822
 C1502 C 0.48073 0.37706 0.51593
 C1503 C 0.47199 0.39229 0.52318
 C1504 C 0.46948 0.40754 0.51300
 C1505 C 0.47572 0.40813 0.49554
 C1506 C 0.48440 0.39318 0.48829
 C1507 C 0.46587 0.39232 0.54059
 C1508 C 0.46835 0.37764 0.55115
 C1509 C 0.47704 0.36214 0.54468
 C1510 C 0.48309 0.36174 0.52669
 C1511 C 0.49124 0.34603 0.52005
 C1512 C 0.49366 0.33132 0.53059
 C1513 C 0.48820 0.33161 0.54819
 C1514 C 0.47983 0.34699 0.55557
 C1515 C 0.47474 0.34652 0.57360
 C1516 C 0.47775 0.33145 0.58368
 C1517 C 0.48594 0.31631 0.57626
 C1518 C 0.49110 0.31652 0.55846
 H1519 H 0.49376 0.36712 0.49159
 H1520 H 0.46298 0.41913 0.51883
 H1521 H 0.48917 0.39319 0.47477
 H1522 H 0.45912 0.40391 0.54618
 H1523 H 0.46313 0.37889 0.56439
 H1524 H 0.49586 0.34453 0.50664
 H1525 H 0.49999 0.31957 0.52487
 H1526 H 0.46857 0.35760 0.58044
 H1527 H 0.47389 0.33178 0.59747
 H1528 H 0.49724 0.30479 0.55250
 C1529 C -0.05579 0.90715 0.03185
 C1530 C -0.04418 0.89284 0.02724
 C1531 C -0.03563 0.89324 0.01046
 C1532 C -0.03810 0.90768 -0.00079
 C1533 C -0.04928 0.92213 0.00407
 C1534 C -0.05829 0.92140 0.02051
 C1535 C -0.02455 0.87923 0.00489
 C1536 C -0.02172 0.86473 0.01559
 C1537 C -0.02972 0.86371 0.03254
 C1538 C -0.04084 0.87817 0.03861
 C1539 C -0.04795 0.87763 0.05594
 C1540 C -0.04450 0.86345 0.06691
 C1541 C -0.03407 0.84909 0.06106
 C1542 C -0.02670 0.84885 0.04374
 C1543 C -0.01666 0.83366 0.03836
 C1544 C -0.01377 0.81964 0.04982
 C1545 C -0.02071 0.82014 0.06706
 C1546 C -0.03095 0.83494 0.07254
 H1547 H -0.06327 0.90777 0.04410
 H1548 H -0.03147 0.90726 -0.01356
 H1549 H -0.06699 0.93205 0.02511
 H1550 H -0.01795 0.87945 -0.00794
 H1551 H -0.01282 0.85466 0.01024
 H1552 H -0.05601 0.88818 0.06164
 H1553 H -0.05014 0.86373 0.08016
 H1554 H -0.01106 0.83199 0.02530
 H1555 H -0.00625 0.80819 0.04503
 H1556 H -0.03632 0.83558 0.08587
 C1557 C 0.03628 0.60645 0.02384
 C1558 C 0.02618 0.62168 0.01947
 C1559 C 0.01889 0.62234 0.00227
 C1560 C 0.02141 0.60816 -0.00980
 C1561 C 0.03147 0.59300 -0.00532
 C1562 C 0.03885 0.59252 0.01174
 C1563 C 0.00914 0.63720 -0.00292
 C1564 C 0.00655 0.65156 0.00852
 C1565 C 0.01350 0.65161 0.02583
 C1566 C 0.02319 0.63628 0.03150
 C1567 C 0.02944 0.63599 0.04905
 C1568 C 0.02656 0.65019 0.06060
 C1569 C 0.01751 0.66535 0.05519
 C1570 C 0.01092 0.66641 0.03772
 C1571 C 0.00211 0.68231 0.03292
 C1572 C -0.00024 0.69630 0.04503
 C1573 C 0.00607 0.69503 0.06233
 C1574 C 0.01499 0.67949 0.06727
 H1575 H 0.04255 0.60482 0.03648
 H1576 H 0.01584 0.60938 -0.02286
 H1577 H 0.04641 0.58120 0.01621
 H1578 H 0.00348 0.63778 -0.01605
 H1579 H -0.00121 0.66237 0.00337
 H1580 H 0.03647 0.62484 0.05446
 H1581 H 0.03156 0.64929 0.07396
 H1582 H -0.00297 0.68453 0.01988
 H1583 H -0.00685 0.70829 0.04072
 H1584 H 0.01978 0.67825 0.08066
 C1585 C 0.52845 0.09472 0.53400
 C1586 C 0.52108 0.11121 0.52888
 C1587 C 0.51554 0.11278 0.51111
 C1588 C 0.51714 0.09834 0.49922
 C1589 C 0.52447 0.08215 0.50456
 C1590 C 0.53011 0.08053 0.52203
 C1591 C 0.50851 0.12877 0.50521
 C1592 C 0.50696 0.14341 0.51648
 C1593 C 0.51228 0.14264 0.53429
 C1594 C 0.51914 0.12617 0.54068
 C1595 C 0.52371 0.12517 0.55867
 C1596 C 0.52188 0.13972 0.57000
 C1597 C 0.51560 0.15594 0.56392
 C1598 C 0.51080 0.15774 0.54598
 C1599 C 0.50482 0.17467 0.54054
 C1600 C 0.50344 0.18895 0.55245
 C1601 C 0.50796 0.18698 0.57019
 C1602 C 0.51409 0.17040 0.57579
 H1603 H 0.53325 0.09231 0.54710
 H1604 H 0.51301 0.09982 0.48566
 H1605 H 0.53566 0.06812 0.52654
 H1606 H 0.50421 0.13002 0.49166
 H1607 H 0.50130 0.15514 0.51077
 H1608 H 0.52858 0.11320 0.56457
 H1609 H 0.52550 0.13825 0.58371
 H1610 H 0.50127 0.17746 0.52714
 H1611 H 0.49902 0.20170 0.54765
 H1612 H 0.51746 0.16864 0.58953
 C1613 C -0.00816 0.12040 0.50951
 C1614 C -0.01369 0.11969 0.49166
 C1615 C -0.02173 0.10353 0.48533
 C1616 C -0.02405 0.08888 0.49645
 C1617 C -0.01850 0.08984 0.51406
 C1618 C -0.01053 0.10573 0.52043
 C1619 C -0.02741 0.10198 0.46790
 C1620 C -0.02534 0.11612 0.45647
 C1621 C -0.01742 0.13254 0.46202
 C1622 C -0.01151 0.13437 0.47992
 C1623 C -0.00360 0.15079 0.48547
 C1624 C -0.00145 0.16490 0.47402
 C1625 C -0.00706 0.16332 0.45657
 C1626 C -0.01518 0.14719 0.45026
 C1627 C -0.02067 0.14646 0.43240
 C1628 C -0.01808 0.16105 0.42141
 C1629 C -0.00995 0.17687 0.42774
 C1630 C -0.00453 0.17790 0.44539
 H1631 H -0.00198 0.13206 0.51555
 H1632 H -0.02997 0.07657 0.49127
 H1633 H -0.00633 0.10695 0.53404
 H1634 H -0.03356 0.08965 0.46300
 H1635 H -0.03012 0.11366 0.44329
 H1636 H 0.00116 0.15326 0.49867
 H1637 H 0.00474 0.17722 0.47891
 H1638 H -0.02694 0.13483 0.42638
 H1639 H -0.02222 0.15982 0.40778
 H1640 H 0.00151 0.19019 0.45051
 C1641 C 0.49456 0.61295 0.99205
 C1642 C 0.48531 0.61456 0.97589
 C1643 C 0.47481 0.59970 0.96983
 C1644 C 0.47324 0.58419 0.97994
 C1645 C 0.48242 0.58274 0.99610
 C1646 C 0.49317 0.59741 1.00185
 C1647 C 0.46604 0.60027 0.95361
 C1648 C 0.46775 0.61513 0.94302
 C1649 C 0.47809 0.63029 0.94840
 C1650 C 0.48641 0.63026 0.96541
 C1651 C 0.49537 0.64597 0.97147
 C1652 C 0.49680 0.66097 0.96106
 C1653 C 0.48965 0.66088 0.94411
 C1654 C 0.48026 0.64556 0.93744
 C1655 C 0.47376 0.64610 0.91993
 C1656 C 0.47645 0.66121 0.90965
 C1657 C 0.48560 0.67635 0.91639
 C1658 C 0.49201 0.67609 0.93373
 H1659 H 0.50329 0.62333 0.99744
 H1660 H 0.46529 0.57307 0.97472
 H1661 H 0.50035 0.59731 1.01423
 H1662 H 0.45789 0.58899 0.94892
 H1663 H 0.46047 0.61442 0.93075
 H1664 H 0.50120 0.64729 0.98441
 H1665 H 0.50381 0.67271 0.96629
 H1666 H 0.46697 0.63493 0.91358
 H1667 H 0.47169 0.66083 0.89618
 H1668 H 0.49891 0.68777 0.93923
 C1669 C 0.51390 0.86481 0.99968
 C1670 C 0.51856 0.86516 0.98154
 C1671 C 0.52603 0.88128 0.97488
 C1672 C 0.52842 0.89632 0.98591
 C1673 C 0.52360 0.89576 1.00380
 C1674 C 0.51639 0.87983 1.01052
 C1675 C 0.53108 0.88239 0.95720
 C1676 C 0.52901 0.86783 0.94588
 C1677 C 0.52163 0.85144 0.95176
 C1678 C 0.51612 0.85014 0.96985
 C1679 C 0.50824 0.83391 0.97560
 C1680 C 0.50589 0.81944 0.96421
 C1681 C 0.51136 0.82041 0.94664
 C1682 C 0.51942 0.83635 0.94012
 C1683 C 0.52497 0.83641 0.92220
 C1684 C 0.52241 0.82141 0.91133
 C1685 C 0.51426 0.80582 0.91784
 C1686 C 0.50880 0.80544 0.93555
 H1687 H 0.50845 0.85313 1.00602
 H1688 H 0.53381 0.90860 0.98046
 H1689 H 0.51286 0.87886 1.02434
 H1690 H 0.53676 0.89470 0.95203
 H1691 H 0.53323 0.86999 0.93247
 H1692 H 0.50352 0.83192 0.98889
 H1693 H 0.49970 0.80730 0.96925
 H1694 H 0.53138 0.84777 0.91608
 H1695 H 0.52663 0.82213 0.89766
 H1696 H 0.50274 0.79333 0.94080
 C1697 C 0.04246 0.39410 0.46929
 C1698 C 0.03347 0.37805 0.47421
 C1699 C 0.02709 0.37678 0.49185
 C1700 C 0.02963 0.39104 0.50385
 C1701 C 0.03868 0.40673 0.49873
 C1702 C 0.04500 0.40810 0.48135
 C1703 C 0.01832 0.36125 0.49750
 C1704 C 0.01581 0.34678 0.48612
 C1705 C 0.02195 0.34726 0.46845
 C1706 C 0.03072 0.36324 0.46233
 C1707 C 0.03640 0.36391 0.44453
 C1708 C 0.03381 0.34950 0.43313
 C1709 C 0.02557 0.33377 0.43893
 C1710 C 0.01954 0.33232 0.45665
 C1711 C 0.01141 0.31590 0.46177
 C1712 C 0.00926 0.30177 0.44976
 C1713 C 0.01512 0.30339 0.43226
 C1714 C 0.02330 0.31946 0.42697
 H1715 H 0.04784 0.39633 0.45627
 H1716 H 0.02488 0.38976 0.51732
 H1717 H 0.05181 0.42017 0.47697
 H1718 H 0.01337 0.36022 0.51095
 H1719 H 0.00886 0.33540 0.49166
 H1720 H 0.04285 0.37547 0.43884
 H1721 H 0.03839 0.35069 0.41959
 H1722 H 0.00667 0.31342 0.47497
 H1723 H 0.00316 0.28940 0.45429
 H1724 H 0.02770 0.32095 0.41340
 C1725 C 0.38398 0.49935 0.47897
 C1726 C 0.38417 0.51773 0.47497
 C1727 C 0.40065 0.52510 0.46799
 C1728 C 0.41621 0.51450 0.46549
 C1729 C 0.41581 0.49637 0.46971
 C1730 C 0.39951 0.48895 0.47638
 C1731 C 0.40161 0.54305 0.46359
 C1732 C 0.38656 0.55398 0.46588
 C1733 C 0.36982 0.54740 0.47285
 C1734 C 0.36865 0.52900 0.47762
 C1735 C 0.35207 0.52254 0.48503
 C1736 C 0.33716 0.53356 0.48770
 C1737 C 0.33801 0.55143 0.48303
 C1738 C 0.35425 0.55864 0.47540
 C1739 C 0.35416 0.57685 0.47067
 C1740 C 0.33877 0.58735 0.47369
 C1741 C 0.32291 0.58018 0.48149
 C1742 C 0.32263 0.56215 0.48604
 H1743 H 0.37205 0.49246 0.48400
 H1744 H 0.42877 0.52048 0.46048
 H1745 H 0.39862 0.47492 0.47942
 H1746 H 0.41418 0.54877 0.45827
 H1747 H 0.38863 0.56765 0.46218
 H1748 H 0.35014 0.50898 0.48915
 H1749 H 0.32478 0.52798 0.49354
 H1750 H 0.36572 0.58347 0.46462
 H1751 H 0.33942 0.60128 0.47016
 H1752 H 0.31032 0.55638 0.49182
 C1753 C 0.88505 0.04239 -0.02929
 C1754 C 0.86912 0.03832 -0.01935
 C1755 C 0.86812 0.02143 -0.01126
 C1756 C 0.88268 0.00940 -0.01289
 C1757 C 0.89837 0.01348 -0.02308
 C1758 C 0.89924 0.03026 -0.03112
 C1759 C 0.85247 0.01648 -0.00178
 C1760 C 0.83753 0.02772 -0.00048
 C1761 C 0.83776 0.04463 -0.00841
 C1762 C 0.85407 0.05027 -0.01746
 C1763 C 0.85485 0.06771 -0.02421
 C1764 C 0.84007 0.07906 -0.02269
 C1765 C 0.82381 0.07349 -0.01463
 C1766 C 0.82229 0.05619 -0.00745
 C1767 C 0.80524 0.05115 0.00016
 C1768 C 0.79057 0.06291 0.00084
 C1769 C 0.79230 0.08010 -0.00602
 C1770 C 0.80902 0.08525 -0.01373
 H1771 H 0.88693 0.05473 -0.03617
 H1772 H 0.88124 -0.00348 -0.00678
 H1773 H 0.91109 0.03442 -0.03870
 H1774 H 0.85163 0.00363 0.00454
 H1775 H 0.82606 0.02281 0.00712
 H1776 H 0.86686 0.07320 -0.03054
 H1777 H 0.84136 0.09233 -0.02806
 H1778 H 0.80261 0.03811 0.00544
 H1779 H 0.77770 0.05841 0.00655
 H1780 H 0.81064 0.09857 -0.01891
 C1781 C 0.60920 -0.00386 0.01662
 C1782 C 0.60775 0.01439 0.02145
 C1783 C 0.59130 0.01985 0.02987
 C1784 C 0.57713 0.00747 0.03334
 C1785 C 0.57886 -0.01053 0.02850
 C1786 C 0.59501 -0.01601 0.02009
 C1787 C 0.58901 0.03765 0.03479
 C1788 C 0.60267 0.05028 0.03159
 C1789 C 0.61937 0.04562 0.02331
 C1790 C 0.62198 0.02734 0.01823
 C1791 C 0.63877 0.02262 0.01016
 C1792 C 0.65250 0.03519 0.00712
 C1793 C 0.65015 0.05302 0.01189
 C1794 C 0.63358 0.05858 0.02001
 C1795 C 0.63202 0.07692 0.02447
 C1796 C 0.64633 0.08902 0.02111
 C1797 C 0.66266 0.08336 0.01315
 C1798 C 0.66443 0.06530 0.00859
 H1799 H 0.62108 -0.00929 0.01014
 H1800 H 0.56458 0.01193 0.03962
 H1801 H 0.59683 -0.02986 0.01640
 H1802 H 0.57646 0.04190 0.04123
 H1803 H 0.59968 0.06367 0.03589
 H1804 H 0.64187 0.00920 0.00606
 H1805 H 0.66516 0.03088 0.00093
 H1806 H 0.61995 0.08245 0.03053
 H1807 H 0.64449 0.10294 0.02457
 H1808 H 0.67711 0.06069 0.00268
 C1809 C 0.13056 0.49752 0.51746
 C1810 C 0.13199 0.51477 0.52509
 C1811 C 0.11726 0.52058 0.53590
 C1812 C 0.10197 0.50937 0.53903
 C1813 C 0.10059 0.49227 0.53117
 C1814 C 0.11526 0.48661 0.52041
 C1815 C 0.11771 0.53767 0.54338
 C1816 C 0.13227 0.54932 0.54011
 C1817 C 0.14723 0.54426 0.52932
 C1818 C 0.14734 0.52650 0.52213
 C1819 C 0.16283 0.52104 0.51228
 C1820 C 0.17744 0.53259 0.50908
 C1821 C 0.17722 0.55012 0.51537
 C1822 C 0.16215 0.55629 0.52555
 C1823 C 0.16261 0.57435 0.53131
 C1824 C 0.17742 0.58559 0.52719
 C1825 C 0.19229 0.57933 0.51723
 C1826 C 0.19208 0.56152 0.51144
 H1827 H 0.14091 0.49202 0.50887
 H1828 H 0.09088 0.51444 0.54711
 H1829 H 0.11535 0.47350 0.51436
 H1830 H 0.10655 0.54219 0.55175
 H1831 H 0.13145 0.56221 0.54645
 H1832 H 0.16427 0.50775 0.50695
 H1833 H 0.18900 0.52776 0.50143
 H1834 H 0.15164 0.58035 0.53875
 H1835 H 0.17705 0.59939 0.53159
 H1836 H 0.20361 0.55642 0.50392
 C1837 C 0.09808 0.47302 -0.04003
 C1838 C 0.11171 0.47588 -0.02712
 C1839 C 0.11162 0.49233 -0.01772
 C1840 C 0.09810 0.50503 -0.02087
 C1841 C 0.08457 0.50207 -0.03377
 C1842 C 0.08490 0.48583 -0.04329
 C1843 C 0.12515 0.49618 -0.00531
 C1844 C 0.13909 0.48425 -0.00226
 C1845 C 0.13990 0.46771 -0.01133
 C1846 C 0.12557 0.46316 -0.02345
 C1847 C 0.12548 0.44598 -0.03133
 C1848 C 0.13919 0.43388 -0.02797
 C1849 C 0.15373 0.43845 -0.01692
 C1850 C 0.15444 0.45547 -0.00855
 C1851 C 0.16988 0.45961 0.00202
 C1852 C 0.18377 0.44729 0.00430
 C1853 C 0.18283 0.43037 -0.00374
 C1854 C 0.16767 0.42606 -0.01431
 H1855 H 0.09735 0.46113 -0.04814
 H1856 H 0.09874 0.51751 -0.01359
 H1857 H 0.07475 0.48260 -0.05315
 H1858 H 0.12510 0.50869 0.00202
 H1859 H 0.14887 0.48829 0.00762
 H1860 H 0.11476 0.44128 -0.03996
 H1861 H 0.13849 0.42083 -0.03429
 H1862 H 0.17194 0.47242 0.00835
 H1863 H 0.19553 0.45122 0.01215
 H1864 H 0.16666 0.41298 -0.02051
 C1865 C 0.59544 0.96625 0.46244
 C1866 C 0.61039 0.97049 0.47357
 C1867 C 0.61008 0.98710 0.48267
 C1868 C 0.59520 0.99860 0.48098
 C1869 C 0.58026 0.99423 0.46999
 C1870 C 0.58079 0.97786 0.46069
 C1871 C 0.62469 0.99227 0.49342
 C1872 C 0.63978 0.98144 0.49523
 C1873 C 0.64083 0.96474 0.48648
 C1874 C 0.62568 0.95897 0.47583
 C1875 C 0.62623 0.94179 0.46799
 C1876 C 0.64113 0.93076 0.47017
 C1877 C 0.65623 0.93641 0.48001
 C1878 C 0.65643 0.95353 0.48820
 C1879 C 0.67237 0.95873 0.49763
 C1880 C 0.68720 0.94730 0.49906
 C1881 C 0.68677 0.93028 0.49122
 C1882 C 0.67118 0.92496 0.48169
 H1883 H 0.59464 0.95413 0.45471
 H1884 H 0.59574 1.01125 0.48797
 H1885 H 0.56970 0.97357 0.45221
 H1886 H 0.62450 1.00494 0.50049
 H1887 H 0.65031 0.98649 0.50390
 H1888 H 0.61516 0.93626 0.46025
 H1889 H 0.64086 0.91765 0.46395
 H1890 H 0.67404 0.97165 0.50382
 H1891 H 0.69922 0.95197 0.50614
 H1892 H 0.67058 0.91178 0.47566
 C1893 C 0.91082 0.96896 0.54246
 C1894 C 0.89418 0.97467 0.53499
 C1895 C 0.89284 0.99297 0.53084
 C1896 C 0.90759 1.00482 0.53391
 C1897 C 0.92396 0.99890 0.54119
 C1898 C 0.92537 0.98089 0.54549
 C1899 C 0.87679 0.99943 0.52363
 C1900 C 0.86191 0.98818 0.52037
 C1901 C 0.86247 0.96982 0.52415
 C1902 C 0.87891 0.96293 0.53152
 C1903 C 0.87955 0.94452 0.53508
 C1904 C 0.86474 0.93323 0.53161
 C1905 C 0.84864 0.93972 0.52453
 C1906 C 0.84717 0.95810 0.52073
 C1907 C 0.83040 0.96391 0.51364
 C1908 C 0.81593 0.95196 0.51038
 C1909 C 0.81756 0.93382 0.51406
 C1910 C 0.83398 0.92783 0.52119
 H1911 H 0.91313 0.95539 0.54614
 H1912 H 0.90620 1.01878 0.53082
 H1913 H 0.93792 0.97592 0.55098
 H1914 H 0.87570 1.01342 0.52045
 H1915 H 0.85016 0.99438 0.51474
 H1916 H 0.89139 0.93828 0.54050
 H1917 H 0.86593 0.91919 0.53454
 H1918 H 0.82788 0.97759 0.51050
 H1919 H 0.80329 0.95701 0.50514
 H1920 H 0.83548 0.91378 0.52390
 C1921 C 0.41360 0.46086 0.02669
 C1922 C 0.39683 0.46640 0.01941
 C1923 C 0.39621 0.48387 0.01261
 C1924 C 0.41146 0.49546 0.01392
 C1925 C 0.42775 0.48996 0.02173
 C1926 C 0.42870 0.47245 0.02781
 C1927 C 0.38031 0.48981 0.00467
 C1928 C 0.36493 0.47880 0.00323
 C1929 C 0.36468 0.46138 0.01003
 C1930 C 0.38075 0.45523 0.01864
 C1931 C 0.38004 0.43834 0.02660
 C1932 C 0.36430 0.42774 0.02607
 C1933 C 0.34871 0.43331 0.01732
 C1934 C 0.34873 0.45005 0.00890
 C1935 C 0.33276 0.45470 -0.00036
 C1936 C 0.31735 0.44347 -0.00069
 C1937 C 0.31719 0.42722 0.00818
 C1938 C 0.33304 0.42220 0.01706
 H1939 H 0.41563 0.44760 0.03147
 H1940 H 0.41044 0.50895 0.00919
 H1941 H 0.44124 0.46758 0.03340
 H1942 H 0.37974 0.50317 -0.00054
 H1943 H 0.35322 0.48460 -0.00291
 H1944 H 0.39133 0.43304 0.03381
 H1945 H 0.36435 0.41497 0.03256
 H1946 H 0.33177 0.46677 -0.00776
 H1947 H 0.30554 0.44748 -0.00814
 H1948 H 0.33312 0.40970 0.02403
 C1949 C 0.54239 0.46974 0.40331
 C1950 C 0.53727 0.47852 0.38776
 C1951 C 0.51920 0.48519 0.38699
 C1952 C 0.50671 0.48242 0.40089
 C1953 C 0.51185 0.47315 0.41592
 C1954 C 0.52988 0.46712 0.41704
 C1955 C 0.51356 0.49442 0.37225
 C1956 C 0.52537 0.49712 0.35810
 C1957 C 0.54338 0.49043 0.35799
 C1958 C 0.54936 0.48080 0.37299
 C1959 C 0.56705 0.47338 0.37253
 C1960 C 0.57847 0.47516 0.35796
 C1961 C 0.57293 0.48460 0.34332
 C1962 C 0.55546 0.49266 0.34319
 C1963 C 0.55082 0.50252 0.32814
 C1964 C 0.56269 0.50364 0.31370
 C1965 C 0.57963 0.49507 0.31366
 C1966 C 0.58474 0.48578 0.32868
 H1967 H 0.55597 0.46479 0.40539
 H1968 H 0.49281 0.48714 0.39978
 H1969 H 0.53445 0.46038 0.42868
 H1970 H 0.49978 0.49958 0.37159
 H1971 H 0.51973 0.50421 0.34724
 H1972 H 0.57243 0.46568 0.38310
 H1973 H 0.59182 0.46899 0.35814
 H1974 H 0.53817 0.50962 0.32707
 H1975 H 0.55858 0.51134 0.30249
 H1976 H 0.59777 0.47902 0.32881
 C1977 C -0.00818 -0.00812 0.88975
 C1978 C 0.00979 -0.01501 0.88942
 C1979 C 0.01527 -0.02528 0.90394
 C1980 C 0.00341 -0.02785 0.91838
 C1981 C -0.01418 -0.02054 0.91865
 C1982 C -0.01986 -0.01086 0.90410
 C1983 C 0.03257 -0.03291 0.90403
 C1984 C 0.04460 -0.03076 0.88994
 C1985 C 0.03992 -0.02054 0.87521
 C1986 C 0.02239 -0.01217 0.87516
 C1987 C 0.01817 -0.00098 0.86102
 C1988 C 0.03039 0.00167 0.84722
 C1989 C 0.04723 -0.00684 0.84676
 C1990 C 0.05226 -0.01818 0.86063
 C1991 C 0.06941 -0.02676 0.85920
 C1992 C 0.08101 -0.02395 0.84476
 C1993 C 0.07601 -0.01254 0.83124
 C1994 C 0.05907 -0.00400 0.83241
 H1995 H -0.01382 -0.00079 0.87905
 H1996 H 0.00802 -0.03535 0.92954
 H1997 H -0.03354 -0.00551 0.90364
 H1998 H 0.03686 -0.04075 0.91510
 H1999 H 0.05769 -0.03705 0.89120
 H2000 H 0.00559 0.00629 0.86032
 H2001 H 0.02654 0.01045 0.83670
 H2002 H 0.07419 -0.03595 0.86883
 H2003 H 0.09385 -0.03100 0.84405
 H2004 H 0.05512 0.00506 0.82217
 C2005 C 0.04367 0.03645 0.61315
 C2006 C 0.03799 0.02705 0.62833
 C2007 C 0.02006 0.01949 0.62837
 C2008 C 0.00830 0.02177 0.61404
 C2009 C 0.01407 0.03133 0.59923
 C2010 C 0.03191 0.03851 0.59893
 C2011 C 0.01385 0.00971 0.64273
 C2012 C 0.02507 0.00707 0.65710
 C2013 C 0.04301 0.01437 0.65783
 C2014 C 0.04944 0.02485 0.64336
 C2015 C 0.06697 0.03301 0.64454
 C2016 C 0.07793 0.03091 0.65919
 C2017 C 0.07206 0.02044 0.67319
 C2018 C 0.05464 0.01180 0.67267
 C2019 C 0.04967 0.00088 0.68705
 C2020 C 0.06132 -0.00095 0.70139
 C2021 C 0.07828 0.00799 0.70197
 C2022 C 0.08359 0.01861 0.68776
 H2023 H 0.05720 0.04218 0.61166
 H2024 H -0.00549 0.01627 0.61458
 H2025 H 0.03695 0.04559 0.58754
 H2026 H 0.00013 0.00395 0.64286
 H2027 H 0.01906 -0.00054 0.66762
 H2028 H 0.07259 0.04145 0.63446
 H2029 H 0.09123 0.03757 0.65954
 H2030 H 0.03696 -0.00657 0.68764
 H2031 H 0.05688 -0.00921 0.71224
 H2032 H 0.09686 0.02532 0.68796
 C2033 C 0.54777 0.52792 0.09192
 C2034 C 0.54183 0.51929 0.10747
 C2035 C 0.52342 0.51296 0.10812
 C2036 C 0.51172 0.51504 0.09373
 C2037 C 0.51786 0.52355 0.07846
 C2038 C 0.53596 0.52999 0.07774
 C2039 C 0.51669 0.50461 0.12313
 C2040 C 0.52773 0.50248 0.13770
 C2041 C 0.54614 0.50856 0.13785
 C2042 C 0.55341 0.51685 0.12237
 C2043 C 0.57203 0.52231 0.12227
 C2044 C 0.58312 0.52001 0.13680
 C2045 C 0.57617 0.51232 0.15208
 C2046 C 0.55758 0.50653 0.15291
 C2047 C 0.55124 0.49906 0.16890
 C2048 C 0.56290 0.49731 0.18322
 C2049 C 0.58127 0.50290 0.18223
 C2050 C 0.58779 0.51042 0.16657
 H2051 H 0.56139 0.53336 0.09024
 H2052 H 0.49764 0.51030 0.09456
 H2053 H 0.54110 0.53650 0.06604
 H2054 H 0.50264 0.49970 0.12366
 H2055 H 0.52135 0.49581 0.14864
 H2056 H 0.57861 0.52832 0.11107
 H2057 H 0.59733 0.52439 0.13607
 H2058 H 0.53731 0.49461 0.17094
 H2059 H 0.55739 0.49178 0.19527
 H2060 H 0.60203 0.51465 0.16559
 C2061 C 0.47658 -0.05884 0.11616
 C2062 C 0.47156 -0.04178 0.12267
 C2063 C 0.47785 -0.02671 0.11320
 C2064 C 0.48898 -0.02878 0.09815
 C2065 C 0.49386 -0.04576 0.09198
 C2066 C 0.48749 -0.06072 0.10110
 C2067 C 0.47295 -0.00962 0.11870
 C2068 C 0.46170 -0.00705 0.13330
 C2069 C 0.45500 -0.02155 0.14322
 C2070 C 0.46039 -0.03918 0.13808
 C2071 C 0.45460 -0.05359 0.14861
 C2072 C 0.44362 -0.05100 0.16339
 C2073 C 0.43773 -0.03402 0.16822
 C2074 C 0.44321 -0.01903 0.15821
 C2075 C 0.43646 -0.00217 0.16357
 C2076 C 0.42498 -0.00037 0.17826
 C2077 C 0.41979 -0.01521 0.18819
 C2078 C 0.42631 -0.03201 0.18307
 H2079 H 0.47217 -0.07106 0.12223
 H2080 H 0.49357 -0.01713 0.09100
 H2081 H 0.49115 -0.07399 0.09667
 H2082 H 0.47779 0.00196 0.11155
 H2083 H 0.45872 0.00661 0.13660
 H2084 H 0.45853 -0.06715 0.14596
 H2085 H 0.43956 -0.06249 0.17106
 H2086 H 0.43947 0.00990 0.15655
 H2087 H 0.41986 0.01273 0.18166
 H2088 H 0.42259 -0.04360 0.19074
 C2089 C 0.97362 0.46482 0.59565
 C2090 C 0.97869 0.47315 0.61179
 C2091 C 0.99722 0.47885 0.61363
 C2092 C 1.01004 0.47587 0.60002
 C2093 C 1.00482 0.46728 0.58428
 C2094 C 0.98646 0.46195 0.58224
 C2095 C 1.00294 0.48741 0.62909
 C2096 C 0.99073 0.49051 0.64286
 C2097 C 0.97216 0.48500 0.64183
 C2098 C 0.96608 0.47601 0.62609
 C2099 C 0.94766 0.46999 0.62527
 C2100 C 0.93556 0.47268 0.63920
 C2101 C 0.94118 0.48155 0.65451
 C2102 C 0.95949 0.48799 0.65607
 C2103 C 0.96428 0.49718 0.67186
 C2104 C 0.95149 0.49961 0.68544
 C2105 C 0.93353 0.49298 0.68386
 C2106 C 0.92849 0.48400 0.66830
 H2107 H 0.95983 0.46042 0.59284
 H2108 H 1.02421 0.47995 0.60185
 H2109 H 0.98190 0.45567 0.57010
 H2110 H 1.01709 0.49179 0.63058
 H2111 H 0.99642 0.49713 0.65428
 H2112 H 0.94210 0.46290 0.61406
 H2113 H 0.92159 0.46771 0.63795
 H2114 H 0.97774 0.50275 0.67419
 H2115 H 0.95579 0.50651 0.69737
 H2116 H 0.91452 0.47907 0.66682
 C2117 C 1.00523 0.53172 0.87041
 C2118 C 0.98665 0.53681 0.86937
 C2119 C 0.97855 0.54461 0.88462
 C2120 C 0.98872 0.54706 0.90015
 C2121 C 1.00695 0.54154 0.90099
 C2122 C 1.01510 0.53402 0.88594
 C2123 C 0.96025 0.54968 0.88443
 C2124 C 0.94955 0.54677 0.86959
 C2125 C 0.95679 0.53873 0.85416
 C2126 C 0.97578 0.53410 0.85389
 C2127 C 0.98325 0.52682 0.83820
 C2128 C 0.97250 0.52357 0.82349
 C2129 C 0.95386 0.52733 0.82375
 C2130 C 0.94568 0.53506 0.83900
 C2131 C 0.92663 0.53848 0.83846
 C2132 C 0.91629 0.53424 0.82352
 C2133 C 0.92447 0.52647 0.80860
 C2134 C 0.94333 0.52322 0.80880
 H2135 H 1.01256 0.52563 0.85960
 H2136 H 0.98225 0.55272 0.91179
 H2137 H 1.02925 0.52989 0.88617
 H2138 H 0.95402 0.55577 0.89600
 H2139 H 0.93557 0.55107 0.87068
 H2140 H 0.99748 0.52348 0.83674
 H2141 H 0.97885 0.51784 0.81181
 H2142 H 0.91916 0.54412 0.84942
 H2143 H 0.90169 0.53670 0.82382
 H2144 H 0.94988 0.51746 0.79723
 C2145 C 0.45793 0.02848 0.40516
 C2146 C 0.46327 0.02036 0.38899
 C2147 C 0.48167 0.01468 0.38735
 C2148 C 0.49401 0.01707 0.40133
 C2149 C 0.48848 0.02513 0.41722
 C2150 C 0.47034 0.03080 0.41895
 C2151 C 0.48777 0.00667 0.37176
 C2152 C 0.47606 0.00414 0.35761
 C2153 C 0.45760 0.00954 0.35845
 C2154 C 0.45106 0.01772 0.37443
 C2155 C 0.43256 0.02300 0.37530
 C2156 C 0.42086 0.02050 0.36113
 C2157 C 0.42702 0.01267 0.34547
 C2158 C 0.44544 0.00704 0.34384
 C2159 C 0.45087 -0.00082 0.32757
 C2160 C 0.43856 -0.00291 0.31368
 C2161 C 0.42041 0.00273 0.31540
 C2162 C 0.41475 0.01049 0.33140
 H2163 H 0.44429 0.03321 0.40768
 H2164 H 0.50808 0.01287 0.39971
 H2165 H 0.46560 0.03687 0.43114
 H2166 H 0.50183 0.00230 0.37045
 H2167 H 0.48201 -0.00216 0.34615
 H2168 H 0.42657 0.02915 0.38682
 H2169 H 0.40678 0.02480 0.36246
 H2170 H 0.46455 -0.00544 0.32501
 H2171 H 0.44339 -0.00872 0.30139
 H2172 H 0.40067 0.01470 0.33297
   
