data_POSCAR
  _audit_creation_date              2014-09-24
  _audit_creation_method            'ToBaCCo'
  _symmetry_space_group_name_H-M    'P1'
  _symmetry_Int_Tables_number       1
  _symmetry_cell_setting            triclinic
  loop_
  _symmetry_equiv_pos_as_xyz
 x,y,z
_cell_length_a 42.4851
_cell_length_b 44.9788
_cell_length_c 50.9845
_cell_angle_alpha 89.931100
_cell_angle_beta 89.969200
_cell_angle_gamma 90.042500
loop_
  _atom_site_label
  _atom_site_type_symbol
  _atom_site_fract_x
  _atom_site_fract_y
  _atom_site_fract_z
Zr1 Zr 0.24917 0.24890 0.29603
 O2 O 0.27388 0.27183 0.32588
 O3 O 0.21841 0.22209 0.31801
 O4 O 0.21930 0.27732 0.31751
 O5 O 0.30689 0.19567 0.28617
 O6 O 0.19407 0.30457 0.28606
 O7 O 0.27902 0.22052 0.31761
 O8 O 0.18896 0.19877 0.28671
 O9 O 0.20776 0.25099 0.27384
 O10 O 0.24803 0.21011 0.27349
 O11 O 0.25276 0.28825 0.27387
 O12 O 0.29139 0.24897 0.27413
 Zr13 Zr 0.25155 0.25113 0.20455
 Zr14 Zr 0.21242 0.28895 0.25027
 Zr15 Zr 0.28840 0.21105 0.25026
 Zr16 Zr 0.20783 0.21299 0.25045
 O17 O 0.33817 0.21283 0.24935
 O18 O 0.15892 0.22232 0.24978
 O19 O 0.24808 0.21135 0.22643
 O20 O 0.20975 0.25095 0.22668
 O21 O 0.25282 0.29020 0.22677
 O22 O 0.29263 0.24903 0.22705
 C23 C 0.19637 0.20440 0.31066
 C24 C 0.30008 0.20178 0.31015
 C25 C 0.19980 0.29749 0.31001
 O26 O 0.16273 0.28704 0.24808
 O27 O 0.19769 0.30785 0.21447
 O28 O 0.22426 0.28183 0.18302
 C29 C 0.20482 0.30206 0.19050
 O30 O 0.31444 0.30222 0.28530
 Zr31 Zr 0.29294 0.28702 0.25014
 O32 O 0.28208 0.27808 0.18258
 O33 O 0.21845 0.33558 0.25247
 O34 O 0.28725 0.33384 0.25116
 O35 O 0.34220 0.27958 0.24854
 O36 O 0.30899 0.30399 0.21389
 C37 C 0.30226 0.29762 0.18995
 O38 O 0.22524 0.22965 0.17481
 O39 O 0.28242 0.16435 0.25113
 O40 O 0.27931 0.22100 0.18292
 O41 O 0.30327 0.19265 0.21433
 O42 O 0.21163 0.16599 0.25174
 O43 O 0.18974 0.19419 0.21532
 C44 C 0.29750 0.19974 0.19036
 H45 H 0.24761 0.19175 0.28422
 H46 H 0.19102 0.25146 0.21515
 H47 H 0.31201 0.24804 0.21630
 H48 H 0.25385 0.30592 0.28539
 H49 H 0.14769 0.20370 0.25433
 H50 H 0.15506 0.30782 0.24897
 H51 H 0.19716 0.34451 0.25158
 H52 H 0.30783 0.34287 0.24661
 H53 H 0.19047 0.15795 0.25589
 H54 H 0.30378 0.15555 0.25181
 H55 H 0.34571 0.19200 0.24868
 H56 H 0.35237 0.29885 0.24435
 H57 H 0.17119 0.18170 0.21947
 H58 H 0.23349 0.23675 0.15769
 H59 H 0.26574 0.26455 0.34298
 H60 H 0.32936 0.31850 0.28115
 Zr61 Zr 0.75098 0.75136 0.29577
 O62 O 0.72644 0.72850 0.32584
 O63 O 0.78168 0.77840 0.31751
 O64 O 0.78097 0.72314 0.31735
 O65 O 0.69291 0.80423 0.28569
 O66 O 0.80627 0.69583 0.28601
 O67 O 0.72098 0.77970 0.31723
 O68 O 0.81095 0.80168 0.28600
 O69 O 0.79234 0.74932 0.27350
 O70 O 0.75187 0.79003 0.27300
 O71 O 0.74753 0.71187 0.27385
 O72 O 0.70871 0.75096 0.27396
 Zr73 Zr 0.74842 0.74859 0.20429
 Zr74 Zr 0.78784 0.71122 0.25017
 Zr75 Zr 0.71146 0.78876 0.24985
 Zr76 Zr 0.79204 0.78720 0.24988
 O77 O 0.66170 0.78676 0.24903
 O78 O 0.84100 0.77810 0.24912
 O79 O 0.75173 0.78850 0.22593
 O80 O 0.79026 0.74911 0.22634
 O81 O 0.74740 0.70963 0.22676
 O82 O 0.70738 0.75064 0.22688
 C83 C 0.80365 0.79613 0.31000
 C84 C 0.69979 0.79827 0.30970
 C85 C 0.80052 0.70299 0.30994
 O86 O 0.83752 0.71336 0.24792
 O87 O 0.80269 0.69225 0.21446
 O88 O 0.77588 0.71794 0.18290
 C89 C 0.79550 0.69788 0.19046
 O90 O 0.68597 0.69762 0.28550
 Zr91 Zr 0.70730 0.71277 0.25021
 O92 O 0.71796 0.72137 0.18257
 O93 O 0.78204 0.66457 0.25262
 O94 O 0.71326 0.66599 0.25149
 O95 O 0.65801 0.72001 0.24870
 O96 O 0.69121 0.69555 0.21411
 C97 C 0.69786 0.70181 0.19011
 O98 O 0.77453 0.77002 0.17433
 O99 O 0.71721 0.83549 0.25045
 O100 O 0.72049 0.77850 0.18255
 O101 O 0.69649 0.80693 0.21385
 O102 O 0.78797 0.83418 0.25089
 O103 O 0.80994 0.80591 0.21458
 C104 C 0.70224 0.79974 0.18991
 H105 H 0.75222 0.80844 0.28362
 H106 H 0.80898 0.74863 0.21478
 H107 H 0.68797 0.75149 0.21617
 H108 H 0.74655 0.69425 0.28548
 H109 H 0.85214 0.79681 0.25352
 H110 H 0.84530 0.69262 0.24892
 H111 H 0.80338 0.65573 0.25175
 H112 H 0.69272 0.65683 0.24704
 H113 H 0.80908 0.84236 0.25495
 H114 H 0.69581 0.84419 0.25111
 H115 H 0.65406 0.80755 0.24824
 H116 H 0.64792 0.70067 0.24466
 H117 H 0.82841 0.81854 0.21862
 H118 H 0.76629 0.76279 0.15729
 H119 H 0.73458 0.73592 0.34287
 H120 H 0.67113 0.68126 0.28149
 Zr121 Zr 0.75092 0.24842 -0.29589
 O122 O 0.72638 0.27108 -0.32603
 O123 O 0.78163 0.22131 -0.31756
 O124 O 0.78090 0.27656 -0.31762
 O125 O 0.69288 0.19552 -0.28552
 O126 O 0.80619 0.30408 -0.28643
 O127 O 0.72093 0.21993 -0.31719
 O128 O 0.81094 0.19827 -0.28598
 O129 O 0.79230 0.25067 -0.27368
 O130 O 0.75186 0.20988 -0.27296
 O131 O 0.74746 0.28802 -0.27413
 O132 O 0.70867 0.24887 -0.27404
 Zr133 Zr 0.74841 0.25169 -0.20443
 Zr134 Zr 0.78777 0.28889 -0.25050
 Zr135 Zr 0.71146 0.21121 -0.24978
 Zr136 Zr 0.79204 0.21291 -0.24990
 O137 O 0.66170 0.21310 -0.24888
 O138 O 0.84099 0.22213 -0.24925
 O139 O 0.75174 0.21167 -0.22590
 O140 O 0.79024 0.25113 -0.22652
 O141 O 0.74735 0.29053 -0.22706
 O142 O 0.70736 0.24943 -0.22695
 C143 C 0.80361 0.20366 -0.31000
 C144 C 0.69974 0.20137 -0.30956
 C145 C 0.80044 0.29677 -0.31031
 O146 O 0.83745 0.28688 -0.24828
 O147 O 0.80259 0.30812 -0.21490
 O148 O 0.77583 0.28255 -0.18321
 C149 C 0.79540 0.30262 -0.19087
 O150 O 0.68588 0.30210 -0.28577
 Zr151 Zr 0.70724 0.28718 -0.25044
 O152 O 0.71793 0.27895 -0.18278
 O153 O 0.78195 0.33551 -0.25318
 O154 O 0.71316 0.33397 -0.25192
 O155 O 0.65795 0.27984 -0.24885
 O156 O 0.69114 0.30455 -0.21438
 C157 C 0.69780 0.29843 -0.19038
 O158 O 0.77457 0.23050 -0.17442
 O159 O 0.71723 0.16448 -0.25019
 O160 O 0.72054 0.22185 -0.18253
 O161 O 0.69655 0.19320 -0.21368
 O162 O 0.78800 0.16592 -0.25070
 O163 O 0.80998 0.19444 -0.21455
 C164 C 0.70231 0.20053 -0.18978
 H165 H 0.75221 0.19141 -0.28350
 H166 H 0.80896 0.25173 -0.21498
 H167 H 0.68796 0.24860 -0.21622
 H168 H 0.74647 0.30558 -0.28584
 H169 H 0.85215 0.20343 -0.25358
 H170 H 0.84522 0.30762 -0.24939
 H171 H 0.80328 0.34439 -0.25238
 H172 H 0.69262 0.34311 -0.24748
 H173 H 0.80912 0.15777 -0.25475
 H174 H 0.69583 0.15573 -0.25079
 H175 H 0.65408 0.19230 -0.24799
 H176 H 0.64784 0.29917 -0.24487
 H177 H 0.82846 0.18184 -0.21855
 H178 H 0.76633 0.23781 -0.15739
 H179 H 0.73450 0.26358 -0.34303
 H180 H 0.67103 0.31845 -0.28180
 Zr181 Zr 0.24810 0.75275 -0.29599
 O182 O 0.27258 0.73022 -0.32621
 O183 O 0.21743 0.78004 -0.31758
 O184 O 0.21806 0.72468 -0.31773
 O185 O 0.30626 0.80552 -0.28560
 O186 O 0.19272 0.69709 -0.28652
 O187 O 0.27820 0.78134 -0.31728
 O188 O 0.18823 0.80301 -0.28596
 O189 O 0.20671 0.75049 -0.27374
 O190 O 0.24726 0.79119 -0.27300
 O191 O 0.25145 0.71306 -0.27426
 O192 O 0.29034 0.75209 -0.27416
 Zr193 Zr 0.25059 0.74904 -0.20448
 Zr194 Zr 0.21113 0.71217 -0.25059
 Zr195 Zr 0.28765 0.78966 -0.24985
 Zr196 Zr 0.20708 0.78814 -0.24991
 O197 O 0.33741 0.78761 -0.24902
 O198 O 0.15811 0.77902 -0.24925
 O199 O 0.24737 0.78916 -0.22593
 O200 O 0.20877 0.74982 -0.22656
 O201 O 0.25155 0.71031 -0.22717
 O202 O 0.29164 0.75132 -0.22705
 C203 C 0.19549 0.79774 -0.31002
 C204 C 0.29944 0.79986 -0.30968
 C205 C 0.19849 0.70445 -0.31042
 O206 O 0.16145 0.71431 -0.24838
 O207 O 0.19615 0.69285 -0.21498
 O208 O 0.22297 0.71817 -0.18328
 C209 C 0.20328 0.69819 -0.19092
 O210 O 0.31298 0.69883 -0.28595
 Zr211 Zr 0.29166 0.71368 -0.25059
 O212 O 0.28102 0.72159 -0.18290
 O213 O 0.21685 0.66554 -0.25327
 O214 O 0.28560 0.66692 -0.25212
 O215 O 0.34096 0.72092 -0.24905
 O216 O 0.30775 0.69611 -0.21458
 C217 C 0.30112 0.70211 -0.19055
 O218 O 0.22453 0.77016 -0.17438
 O219 O 0.28200 0.83639 -0.25016
 O220 O 0.27857 0.77879 -0.18258
 O221 O 0.30264 0.80748 -0.21373
 O222 O 0.21126 0.83512 -0.25062
 O223 O 0.18916 0.80650 -0.21453
 C224 C 0.29686 0.80009 -0.18983
 H225 H 0.24696 0.80970 -0.28351
 H226 H 0.19004 0.74923 -0.21501
 H227 H 0.31105 0.75206 -0.21633
 H228 H 0.25241 0.69554 -0.28598
 H229 H 0.14700 0.79777 -0.25356
 H230 H 0.15363 0.69359 -0.24949
 H231 H 0.19550 0.65670 -0.25246
 H232 H 0.30611 0.65770 -0.24771
 H233 H 0.19018 0.84335 -0.25467
 H234 H 0.30342 0.84510 -0.25079
 H235 H 0.34510 0.80839 -0.24811
 H236 H 0.35104 0.70156 -0.24510
 H237 H 0.17070 0.81915 -0.21852
 H238 H 0.23277 0.76273 -0.15739
 H239 H 0.26446 0.73783 -0.34319
 H240 H 0.32781 0.68246 -0.28200
 Zr241 Zr 1.25234 1.25207 0.79542
 O242 O 1.22747 1.22935 0.82537
 O243 O 1.28330 1.27872 0.81716
 O244 O 1.28235 1.22389 0.81706
 O245 O 1.19516 1.30573 0.78540
 O246 O 1.30739 1.19635 0.78575
 O247 O 1.22300 1.28093 0.81692
 O248 O 1.31289 1.30169 0.78567
 O249 O 1.29366 1.24968 0.77315
 O250 O 1.25369 1.29074 0.77265
 O251 O 1.24845 1.21261 0.77356
 O252 O 1.21005 1.25215 0.77366
 Zr253 Zr 1.24964 1.24943 0.70398
 Zr254 Zr 1.28874 1.21163 0.74989
 Zr255 Zr 1.21324 1.28992 0.74954
 Zr256 Zr 1.29379 1.28755 0.74953
 O257 O 1.16347 1.28832 0.74873
 O258 O 1.34264 1.27796 0.74868
 O259 O 1.25349 1.28928 0.72562
 O260 O 1.29151 1.24950 0.72604
 O261 O 1.24827 1.21046 0.72646
 O262 O 1.20864 1.25187 0.72655
 C263 C 1.30549 1.29617 0.80966
 C264 C 1.20217 1.29985 0.80938
 C265 C 1.30193 1.20375 0.80968
 O266 O 1.33844 1.21317 0.74751
 O267 O 1.30346 1.19273 0.71417
 O268 O 1.27696 1.21875 0.68263
 C269 C 1.29645 1.19862 0.69019
 O270 O 1.18668 1.19914 0.78521
 Zr271 Zr 1.20821 1.21397 0.74989
 O272 O 1.21890 1.22241 0.68225
 O273 O 1.28237 1.16506 0.75241
 O274 O 1.21362 1.16713 0.75125
 O275 O 1.15900 1.22165 0.74831
 O276 O 1.19199 1.19679 0.71381
 C277 C 1.19868 1.20294 0.68981
 O278 O 1.27591 1.27053 0.67392
 O279 O 1.21939 1.33661 0.75020
 O280 O 1.22231 1.27988 0.68227
 O281 O 1.19871 1.30853 0.71360
 O282 O 1.29027 1.33457 0.75063
 O283 O 1.31187 1.30612 0.71424
 C284 C 1.20452 1.30145 0.68965
 H285 H 1.25431 1.30915 0.78324
 H286 H 1.31023 1.24889 0.71448
 H287 H 1.18927 1.25295 0.71580
 H288 H 1.24736 1.19502 0.78522
 H289 H 1.35400 1.29653 0.75313
 H290 H 1.34597 1.19235 0.74854
 H291 H 1.30361 1.15601 0.75153
 H292 H 1.19297 1.15817 0.74685
 H293 H 1.31148 1.34250 0.75473
 H294 H 1.19807 1.34551 0.75086
 H295 H 1.15604 1.30918 0.74796
 H296 H 1.14871 1.20240 0.74432
 H297 H 1.33044 1.31861 0.71828
 H298 H 1.26753 1.26338 0.65689
 H299 H 1.23565 1.23663 0.84242
 H300 H 1.17166 1.18292 0.78123
 Zr301 Zr 0.74773 0.74834 0.79561
 O302 O 0.77269 0.77129 0.82530
 O303 O 0.71678 0.72193 0.81766
 O304 O 0.71778 0.77672 0.81708
 O305 O 0.80482 0.69453 0.78593
 O306 O 0.69269 0.80401 0.78559
 O307 O 0.77708 0.71964 0.81730
 O308 O 0.68708 0.69875 0.78643
 O309 O 0.70637 0.75056 0.77342
 O310 O 0.74630 0.70947 0.77319
 O311 O 0.75161 0.78761 0.77341
 O312 O 0.78998 0.74802 0.77376
 Zr313 Zr 0.75025 0.75016 0.70416
 Zr314 Zr 0.71128 0.78841 0.74982
 Zr315 Zr 0.78670 0.71004 0.74998
 Zr316 Zr 0.70616 0.71249 0.75013
 O317 O 0.83647 0.71158 0.74907
 O318 O 0.65731 0.72210 0.74926
 O319 O 0.74641 0.71050 0.72614
 O320 O 0.70843 0.75034 0.72630
 O321 O 0.75170 0.78933 0.72629
 O322 O 0.79129 0.74789 0.72666
 C323 C 0.69454 0.70447 0.81035
 C324 C 0.79787 0.70064 0.80988
 C325 C 0.69819 0.79680 0.80958
 O326 O 0.66157 0.78690 0.74757
 O327 O 0.69652 0.80700 0.71396
 O328 O 0.72292 0.78067 0.68260
 C329 C 0.70347 0.80088 0.69002
 O330 O 0.81340 0.80110 0.78481
 Zr331 Zr 0.79180 0.78599 0.74967
 O332 O 0.78097 0.77695 0.68213
 O333 O 0.71770 0.83499 0.75191
 O334 O 0.78645 0.83284 0.75060
 O335 O 0.84101 0.77827 0.74807
 O336 O 0.80798 0.80281 0.71341
 C337 C 0.80124 0.79645 0.68948
 O338 O 0.72391 0.72881 0.67436
 O339 O 0.78049 0.66336 0.75105
 O340 O 0.77757 0.71955 0.68265
 O341 O 0.80120 0.69114 0.71417
 O342 O 0.70961 0.66548 0.75168
 O343 O 0.68804 0.69362 0.71504
 C344 C 0.79539 0.69805 0.69017
 H345 H 0.74567 0.69115 0.78395
 H346 H 0.68969 0.75086 0.71478
 H347 H 0.81064 0.74670 0.71589
 H348 H 0.75273 0.80529 0.78491
 H349 H 0.64595 0.70357 0.75390
 H350 H 0.65407 0.80774 0.74841
 H351 H 0.69647 0.84405 0.75100
 H352 H 0.80710 0.84174 0.74608
 H353 H 0.68840 0.65762 0.75589
 H354 H 0.80180 0.65445 0.75175
 H355 H 0.84388 0.69070 0.74847
 H356 H 0.85130 0.79748 0.74388
 H357 H 0.66947 0.68117 0.71922
 H358 H 0.73226 0.73580 0.65725
 H359 H 0.76453 0.76417 0.84244
 H360 H 0.82840 0.81730 0.78066
 Zr361 Zr 1.25236 0.74802 0.20454
 O362 O 1.22753 0.77086 0.17468
 O363 O 1.28326 0.72142 0.18269
 O364 O 1.28243 0.77621 0.18293
 O365 O 1.19508 0.69436 0.21448
 O366 O 1.30755 0.80365 0.21426
 O367 O 1.22298 0.71925 0.18300
 O368 O 1.31282 0.69834 0.21409
 O369 O 1.29370 0.75032 0.22676
 O370 O 1.25364 0.70928 0.22721
 O371 O 1.24858 0.78743 0.22649
 O372 O 1.21007 0.74791 0.22634
 Zr373 Zr 1.24971 0.75040 0.29596
 Zr374 Zr 1.28888 0.78831 0.25012
 Zr375 Zr 1.21320 0.71006 0.25035
 Zr376 Zr 1.29376 0.71237 0.25029
 O377 O 1.16343 0.71169 0.25123
 O378 O 1.34263 0.72193 0.25110
 O379 O 1.25345 0.71061 0.27423
 O380 O 1.29158 0.75036 0.27387
 O381 O 1.24842 0.78944 0.27359
 O382 O 1.20869 0.74805 0.27344
 C383 C 1.30542 0.70394 0.19013
 C384 C 1.20211 0.70032 0.19050
 C385 C 1.30206 0.79630 0.19033
 O386 O 1.33858 0.78675 0.25243
 O387 O 1.30365 0.80709 0.28587
 O388 O 1.27709 0.78099 0.31736
 C389 C 1.29663 0.80112 0.30984
 O390 O 1.18684 0.80099 0.21494
 Zr391 Zr 1.20834 0.78602 0.25019
 O392 O 1.21903 0.77736 0.31780
 O393 O 1.28262 0.83489 0.24770
 O394 O 1.21386 0.83286 0.24896
 O395 O 1.15911 0.77837 0.25180
 O396 O 1.19215 0.80309 0.28634
 C397 C 1.19884 0.79685 0.31032
 O398 O 1.27595 0.72919 0.32593
 O399 O 1.21922 0.66337 0.24958
 O400 O 1.22233 0.71993 0.31763
 O401 O 1.19866 0.69136 0.28628
 O402 O 1.29014 0.66536 0.24909
 O403 O 1.31178 0.69369 0.28552
 C404 C 1.20450 0.69839 0.31023
 H405 H 1.25421 0.69090 0.21657
 H406 H 1.31030 0.75093 0.28541
 H407 H 1.18933 0.74695 0.28421
 H408 H 1.24753 0.80505 0.21487
 H409 H 1.35394 0.70336 0.24661
 H410 H 1.34615 0.80756 0.25144
 H411 H 1.30387 0.84392 0.24857
 H412 H 1.19323 0.84182 0.25340
 H413 H 1.31133 0.65744 0.24495
 H414 H 1.19788 0.65449 0.24893
 H415 H 1.15595 0.69083 0.25197
 H416 H 1.14887 0.79761 0.25585
 H417 H 1.33034 0.68122 0.28144
 H418 H 1.26760 0.73629 0.34299
 H419 H 1.23568 0.76362 0.15760
 H420 H 1.17186 0.81721 0.21898
 Zr421 Zr 0.74815 1.25194 0.20430
 O422 O 0.77290 1.22936 0.17426
 O423 O 0.71727 1.27882 0.18263
 O424 O 0.71803 1.22390 0.18260
 O425 O 0.80563 1.30539 0.21447
 O426 O 0.69289 1.19624 0.21386
 O427 O 0.77768 1.28087 0.18288
 O428 O 0.68781 1.30167 0.21420
 O429 O 0.70682 1.24952 0.22658
 O430 O 0.74700 1.29047 0.22717
 O431 O 0.75185 1.21234 0.22609
 O432 O 0.79044 1.25175 0.22608
 Zr433 Zr 0.75083 1.24871 0.29578
 Zr434 Zr 0.71155 1.21132 0.24977
 Zr435 Zr 0.78743 1.28939 0.25028
 Zr436 Zr 0.70688 1.28726 0.25030
 O437 O 0.83719 1.28763 0.25110
 O438 O 0.65798 1.27780 0.25113
 O439 O 0.74719 1.28870 0.27422
 O440 O 0.70898 1.24906 0.27371
 O441 O 0.75201 1.20988 0.27321
 O442 O 0.79184 1.25119 0.27320
 C443 C 0.69516 1.29628 0.19019
 C444 C 0.79863 1.29968 0.19045
 C445 C 0.69839 1.20374 0.18994
 O446 O 0.66186 1.21301 0.25208
 O447 O 0.69664 1.19227 0.28545
 O448 O 0.72328 1.21798 0.31706
 C449 C 0.70365 1.19799 0.30945
 O450 O 0.81352 1.19868 0.21442
 Zr451 Zr 0.79209 1.21343 0.24977
 O452 O 0.78149 1.22148 0.31743
 O453 O 0.71772 1.16474 0.24719
 O454 O 0.78644 1.16661 0.24834
 O455 O 0.84134 1.22100 0.25131
 O456 O 0.80832 1.19602 0.28580
 C457 C 0.80168 1.20205 0.30983
 O458 O 0.72469 1.26969 0.32592
 O459 O 0.78149 1.33610 0.24976
 O460 O 0.77832 1.27899 0.31756
 O461 O 0.80205 1.30775 0.28628
 O462 O 0.71066 1.33427 0.24933
 O463 O 0.68890 1.30567 0.28563
 C464 C 0.79622 1.30056 0.31022
 H465 H 0.74646 1.30895 0.21662
 H466 H 0.69025 1.24844 0.28526
 H467 H 0.81121 1.25216 0.28395
 H468 H 0.75286 1.19482 0.21440
 H469 H 0.64671 1.29644 0.24675
 H470 H 0.65422 1.19222 0.25100
 H471 H 0.69645 1.15575 0.24802
 H472 H 0.80704 1.15756 0.25272
 H473 H 0.68950 1.34230 0.24524
 H474 H 0.80285 1.34495 0.24912
 H475 H 0.84473 1.30846 0.25194
 H476 H 0.85156 1.20171 0.25526
 H477 H 0.67039 1.31825 0.28162
 H478 H 0.73306 1.26241 0.34292
 H479 H 0.76474 1.23678 0.15724
 H480 H 0.82847 1.18240 0.21838
 N481 N 0.55585 1.03131 0.02830
 N482 N 0.57776 1.05123 0.03379
 N483 N 0.53387 0.96882 0.04646
 N484 N 0.54051 0.94923 0.06495
 N485 N 0.55578 0.96880 0.02827
 N486 N 0.57791 0.94921 0.03390
 N487 N 0.53385 1.03131 0.04643
 N488 N 0.54017 1.05122 0.06469
 C489 C 0.56731 1.06372 0.05630
 C490 C 0.56770 0.93689 0.05656
 N491 N 0.44398 0.96879 0.02833
 N492 N 0.42219 0.94873 0.03377
 N493 N 0.46592 1.03126 0.04646
 N494 N 0.45921 1.05074 0.06498
 N495 N 0.44400 1.03128 0.02829
 N496 N 0.42179 1.05076 0.03399
 N497 N 0.46598 0.96878 0.04644
 N498 N 0.45977 0.94874 0.06465
 Mn499 Mn 0.49990 1.00005 0.04666
 C500 C 0.43271 0.93617 0.05623
 C501 C 0.43196 1.06302 0.05665
 N502 N 0.55576 0.96877 -0.02839
 N503 N 0.57765 0.94888 -0.03394
 N504 N 0.53391 1.03127 -0.04651
 N505 N 0.54053 1.05098 -0.06492
 N506 N 0.55582 1.03126 -0.02833
 N507 N 0.57792 1.05094 -0.03389
 N508 N 0.53376 0.96879 -0.04650
 N509 N 0.54007 0.94894 -0.06481
 Mn510 Mn 0.55609 1.00003 -0.00004
 C511 C 0.56719 0.93644 -0.05645
 C512 C 0.56770 1.06333 -0.05649
 N513 N 0.44402 1.03139 -0.02837
 N514 N 0.42220 1.05137 -0.03386
 N515 N 0.46583 0.96888 -0.04650
 N516 N 0.45909 0.94936 -0.06499
 N517 N 0.44391 0.96888 -0.02831
 N518 N 0.42168 0.94937 -0.03396
 N519 N 0.46602 1.03137 -0.04650
 N520 N 0.45978 1.05133 -0.06477
 Mn521 Mn 0.44369 1.00009 -0.00001
 Mn522 Mn 0.49988 1.00008 -0.04672
 Cl523 Cl 0.49989 1.00006 -0.00003
 C524 C 0.43270 1.06388 -0.05637
 C525 C 0.43183 0.93708 -0.05661
 N526 N 1.03299 0.46808 0.45339
 N527 N 1.05309 0.46135 0.43455
 N528 N 0.96702 0.44714 0.47174
 N529 N 0.94655 0.42599 0.46607
 N530 N 0.96685 0.46784 0.45353
 N531 N 0.94627 0.46131 0.43501
 N532 N 1.03313 0.44746 0.47167
 N533 N 1.05332 0.42621 0.46575
 C534 C 1.06597 0.43553 0.44286
 C535 C 0.93346 0.43547 0.44340
 N536 N 0.96717 0.46769 0.54657
 N537 N 0.94691 0.46085 0.56528
 N538 N 1.03332 0.44745 0.52823
 N539 N 1.05406 0.42654 0.53385
 N540 N 1.03329 0.46810 0.54644
 N541 N 1.05400 0.46178 0.56491
 N542 N 0.96723 0.44712 0.52828
 N543 N 0.94703 0.42579 0.53406
 Mn544 Mn 1.00018 0.44707 0.49999
 C545 C 0.93418 0.43501 0.55687
 C546 C 1.06710 0.43612 0.55649
 N547 N 0.96664 0.53206 0.45354
 N548 N 0.94649 0.53886 0.43476
 N549 N 1.03268 0.55291 0.47167
 N550 N 1.05344 0.57386 0.46612
 N551 N 1.03275 0.53226 0.45347
 N552 N 1.05357 0.53860 0.43506
 N553 N 0.96658 0.55264 0.47182
 N554 N 0.94641 0.57393 0.46595
 Mn555 Mn 0.99980 0.50007 0.45326
 C556 C 0.93367 0.56467 0.44311
 C557 C 1.06658 0.56428 0.44351
 N558 N 1.03289 0.53233 0.54650
 N559 N 1.05293 0.53934 0.56531
 N560 N 0.96662 0.55257 0.52838
 N561 N 0.94592 0.57348 0.53410
 N562 N 0.96676 0.53187 0.54659
 N563 N 0.94615 0.53816 0.56517
 N564 N 1.03273 0.55295 0.52822
 N565 N 1.05264 0.57447 0.53410
 Mn566 Mn 1.00003 0.49999 0.54675
 Mn567 Mn 0.99965 0.55299 0.50002
 Cl568 Cl 0.99992 0.50003 0.50000
 C569 C 1.06545 0.56533 0.55696
 C570 C 0.93301 0.56383 0.55682
 N571 N 1.03371 0.44769 0.02782
 N572 N 1.05412 0.42652 0.03363
 N573 N 0.96766 0.46850 0.04610
 N574 N 0.94755 0.46174 0.06495
 N575 N 0.96755 0.44786 0.02787
 N576 N 0.94738 0.42656 0.03386
 N577 N 1.03383 0.46839 0.04599
 N578 N 1.05431 0.46185 0.06459
 C579 C 1.06713 0.43601 0.05633
 C580 C 0.93470 0.43587 0.05674
 N581 N 0.96797 0.55351 0.02788
 N582 N 0.94752 0.57463 0.03370
 N583 N 1.03402 0.53260 0.04591
 N584 N 1.05437 0.53917 0.06459
 N585 N 1.03411 0.55327 0.02766
 N586 N 1.05449 0.57442 0.03347
 N587 N 0.96787 0.53275 0.04604
 N588 N 0.94738 0.53921 0.06467
 Mn589 Mn 1.00085 0.50057 0.04621
 C590 C 0.93453 0.56507 0.05642
 C591 C 1.06731 0.56496 0.05624
 N592 N 0.96744 0.44795 -0.02881
 N593 N 0.94688 0.42690 -0.03461
 N594 N 1.03366 0.46848 -0.04706
 N595 N 1.05401 0.46183 -0.06573
 N596 N 1.03358 0.44781 -0.02881
 N597 N 1.05386 0.42658 -0.03460
 N598 N 0.96751 0.46868 -0.04700
 N599 N 0.94700 0.46227 -0.06562
 Mn600 Mn 1.00057 0.44760 -0.00049
 C601 C 0.93398 0.43648 -0.05734
 C602 C 1.06678 0.43599 -0.05737
 N603 N 1.03409 0.55346 -0.02904
 N604 N 1.05431 0.57474 -0.03513
 N605 N 0.96782 0.53289 -0.04699
 N606 N 0.94731 0.53950 -0.06554
 N607 N 0.96794 0.55352 -0.02876
 N608 N 0.94752 0.57468 -0.03443
 N609 N 1.03399 0.53275 -0.04720
 N610 N 1.05413 0.53942 -0.06608
 Mn611 Mn 1.00103 0.55367 -0.00056
 Mn612 Mn 1.00075 0.50070 -0.04726
 Cl613 Cl 1.00080 0.50063 -0.00053
 C614 C 1.06700 0.56534 -0.05800
 C615 C 0.93450 0.56528 -0.05712
 N616 N 0.55527 1.03079 0.52866
 N617 N 0.57722 1.05064 0.53421
 N618 N 0.53361 0.96819 0.54680
 N619 N 0.54043 0.94861 0.56523
 N620 N 0.55547 0.96833 0.52855
 N621 N 0.57773 0.94886 0.53409
 N622 N 0.53335 1.03065 0.54685
 N623 N 0.53978 1.05039 0.56523
 C624 C 0.56687 1.06295 0.55682
 C625 C 0.56766 0.93644 0.55674
 N626 N 0.44362 0.96782 0.52898
 N627 N 0.42143 0.94829 0.53486
 N628 N 0.46544 1.03034 0.54702
 N629 N 0.45874 1.04986 0.56551
 N630 N 0.44351 1.03030 0.52887
 N631 N 0.42129 1.04977 0.53453
 N632 N 0.46565 0.96786 0.54707
 N633 N 0.45904 0.94837 0.56567
 Mn634 Mn 0.49952 0.99926 0.54715
 C635 C 0.43173 0.93604 0.55753
 C636 C 0.43148 1.06208 0.55715
 N637 N 0.55538 0.96837 0.47195
 N638 N 0.57742 0.94868 0.46631
 N639 N 0.53327 1.03080 0.45386
 N640 N 0.54013 1.05008 0.43515
 N641 N 0.55521 1.03086 0.47201
 N642 N 0.57757 1.05016 0.46611
 N643 N 0.53335 0.96832 0.45387
 N644 N 0.53980 0.94861 0.43548
 Mn645 Mn 0.55560 0.99959 0.50030
 C646 C 0.56703 0.93626 0.44377
 C647 C 0.56747 1.06230 0.44337
 N648 N 0.44339 1.03048 0.47226
 N649 N 0.42139 1.05028 0.46678
 N650 N 0.46545 0.96815 0.45407
 N651 N 0.45872 0.94869 0.43555
 N652 N 0.44359 0.96802 0.47232
 N653 N 0.42141 0.94847 0.46668
 N654 N 0.46534 1.03061 0.45409
 N655 N 0.45888 1.05049 0.43581
 Mn656 Mn 0.44325 0.99915 0.50060
 Mn657 Mn 0.49934 0.99947 0.45376
 Cl658 Cl 0.49943 0.99937 0.50046
 C659 C 0.43173 1.06284 0.44424
 C660 C 0.43155 0.93630 0.44399
 N661 N 1.05638 1.03052 0.52880
 N662 N 1.07821 1.05051 0.53422
 N663 N 1.03406 0.96809 0.54691
 N664 N 1.04010 0.94809 0.56518
 N665 N 1.05615 0.96802 0.52887
 N666 N 1.07786 0.94795 0.53442
 N667 N 1.03433 1.03057 0.54687
 N668 N 1.04053 1.05059 0.56505
 C669 C 1.06765 1.06308 0.55663
 C670 C 1.06716 0.93546 0.55687
 N671 N 0.94436 0.96842 0.52846
 N672 N 0.92255 0.94833 0.53370
 N673 N 0.96652 1.03080 0.54666
 N674 N 0.96046 1.05094 0.56476
 N675 N 0.94461 1.03091 0.52849
 N676 N 0.92300 1.05115 0.53377
 N677 N 0.96624 0.96834 0.54666
 N678 N 0.95994 0.94819 0.56476
 Mn679 Mn 1.00028 0.99945 0.54700
 C680 C 0.93295 0.93568 0.55614
 C681 C 0.93356 1.06368 0.55621
 N682 N 1.05639 0.96812 0.47223
 N683 N 1.07819 0.94811 0.46683
 N684 N 1.03466 1.03068 0.45406
 N685 N 1.04067 1.05107 0.43611
 N686 N 1.05659 1.03061 0.47221
 N687 N 1.07817 1.05097 0.46708
 N688 N 1.03450 0.96822 0.45404
 N689 N 1.04079 0.94829 0.43580
 Mn690 Mn 1.05670 0.99931 0.50052
 C691 C 1.06777 0.93568 0.44432
 C692 C 1.06757 1.06374 0.44474
 N693 N 0.94481 1.03093 0.47187
 N694 N 0.92296 1.05082 0.46626
 N695 N 0.96669 0.96839 0.45384
 N696 N 0.96066 0.94823 0.43574
 N697 N 0.94460 0.96843 0.47188
 N698 N 0.92290 0.94829 0.46651
 N699 N 0.96686 1.03086 0.45379
 N700 N 0.96062 1.05070 0.43542
 Mn701 Mn 0.94428 0.99967 0.50018
 Mn702 Mn 1.00069 0.99954 0.45371
 Cl703 Cl 1.00049 0.99949 0.50035
 C704 C 0.93350 1.06323 0.44374
 C705 C 0.93359 0.93565 0.44415
 N706 N 0.55560 0.53111 0.02828
 N707 N 0.57735 0.55118 0.03365
 N708 N 0.53334 0.46867 0.04625
 N709 N 0.53911 0.44826 0.06422
 N710 N 0.55539 0.46866 0.02819
 N711 N 0.57683 0.44824 0.03340
 N712 N 0.53358 0.53110 0.04637
 N713 N 0.53971 0.55115 0.06453
 C714 C 0.56675 0.56373 0.05605
 C715 C 0.56599 0.43550 0.05568
 N716 N 0.44373 0.46896 0.02796
 N717 N 0.42204 0.44873 0.03311
 N718 N 0.46588 0.53127 0.04620
 N719 N 0.46019 0.55175 0.06406
 N720 N 0.44393 0.53140 0.02807
 N721 N 0.42265 0.55200 0.03312
 N722 N 0.46564 0.46885 0.04612
 N723 N 0.45951 0.44856 0.06411
 Mn724 Mn 0.49960 0.49997 0.04648
 C725 C 0.43258 0.43598 0.05546
 C726 C 0.43346 0.56468 0.05540
 N727 N 0.55557 0.46892 -0.02833
 N728 N 0.57727 0.44882 -0.03367
 N729 N 0.53372 0.53147 -0.04632
 N730 N 0.53941 0.55221 -0.06399
 N731 N 0.55568 0.53137 -0.02819
 N732 N 0.57696 0.55206 -0.03305
 N733 N 0.53367 0.46905 -0.04650
 N734 N 0.53983 0.44904 -0.06468
 Mn735 Mn 0.55590 0.50001 -0.00002
 C736 C 0.56676 0.43636 -0.05613
 C737 C 0.56614 0.56504 -0.05520
 N738 N 0.44400 0.53155 -0.02845
 N739 N 0.42220 0.55152 -0.03392
 N740 N 0.46598 0.46913 -0.04658
 N741 N 0.46031 0.44863 -0.06444
 N742 N 0.44392 0.46909 -0.02853
 N743 N 0.42257 0.44854 -0.03362
 N744 N 0.46602 0.53156 -0.04655
 N745 N 0.45983 0.55154 -0.06479
 Mn746 Mn 0.44356 0.50025 -0.00023
 Mn747 Mn 0.49986 0.50030 -0.04673
 Cl748 Cl 0.49973 0.50013 -0.00013
 C749 C 0.43276 0.56405 -0.05637
 C750 C 0.43347 0.43578 -0.05584
 C751 C 0.39165 1.14621 0.11727
 C752 C 0.36072 1.16260 0.11013
 C753 C 0.34582 1.15096 0.13562
 C754 C 0.37646 1.13488 0.14302
 C755 C 0.37934 1.11838 0.10316
 C756 C 0.36441 1.10680 0.12866
 C757 C 0.34871 1.13444 0.09570
 C758 C 0.33351 1.12313 0.12151
 C759 C 0.32767 1.16870 0.15438
 C760 C 0.31344 1.18298 0.17047
 C761 C 0.39818 1.09956 0.08574
 C762 C 0.41368 1.08332 0.07210
 H763 H 0.41575 1.15551 0.11533
 H764 H 0.35897 1.18576 0.10271
 H765 H 0.38767 1.13522 0.16268
 H766 H 0.36615 1.08366 0.13612
 H767 H 0.33753 1.13407 0.07603
 H768 H 0.30941 1.11383 0.12346
 C769 C 0.84600 0.60345 0.61842
 C770 C 0.85889 0.61854 0.64351
 C771 C 0.84195 0.64739 0.63568
 C772 C 0.82874 0.63261 0.61085
 C773 C 0.87517 0.61432 0.60337
 C774 C 0.85825 0.64317 0.59550
 C775 C 0.88830 0.62913 0.62822
 C776 C 0.87112 0.65823 0.62063
 C777 C 0.82430 0.66572 0.65434
 C778 C 0.81065 0.68061 0.67035
 C779 C 0.89464 0.59601 0.58600
 C780 C 0.91163 0.58115 0.57235
 H781 H 0.83588 0.58073 0.61732
 H782 H 0.85898 0.60860 0.66345
 H783 H 0.80404 0.63426 0.60392
 H784 H 0.85820 0.65308 0.57555
 H785 H 0.91298 0.62752 0.63520
 H786 H 0.88127 0.68094 0.62173
 C787 C 0.60799 0.86850 0.12892
 C788 C 0.62310 0.83817 0.12201
 C789 C 0.65378 0.84842 0.13517
 C790 C 0.63891 0.87846 0.14232
 C791 C 0.62022 0.88116 0.10284
 C792 C 0.65090 0.89139 0.11600
 C793 C 0.63506 0.85112 0.09562
 C794 C 0.66606 0.86106 0.10909
 C795 C 0.67197 0.83065 0.15388
 C796 C 0.68624 0.81639 0.16997
 C797 C 0.60138 0.90010 0.08551
 C798 C 0.58591 0.91645 0.07193
 H799 H 0.58392 0.87174 0.13689
 H800 H 0.61189 0.81608 0.12469
 H801 H 0.64070 0.88954 0.16171
 H802 H 0.66212 0.91348 0.11334
 H803 H 0.63323 0.84010 0.07621
 H804 H 0.69014 0.85781 0.10116
 C805 C 1.11132 0.36870 0.62657
 C806 C 1.13032 0.34081 0.61854
 C807 C 1.15811 0.35209 0.63504
 C808 C 1.13934 0.37973 0.64331
 C809 C 1.12496 0.38537 0.60281
 C810 C 1.15274 0.39667 0.61931
 C811 C 1.14370 0.35774 0.59449
 C812 C 1.17183 0.36873 0.61130
 C813 C 1.17569 0.33369 0.65369
 C814 C 1.18930 0.31880 0.66974
 C815 C 1.10551 0.40380 0.58552
 C816 C 1.08852 0.41874 0.57193
 H817 H 1.08624 0.36888 0.63269
 H818 H 1.12129 0.31765 0.61842
 H819 H 1.13771 0.38859 0.66358
 H820 H 1.16175 0.41984 0.61943
 H821 H 1.14529 0.34891 0.57421
 H822 H 1.19692 0.36851 0.60523
 C823 C 0.65633 1.11842 -0.10443
 C824 C 0.65367 1.11787 -0.13472
 C825 C 0.65388 1.15201 -0.13491
 C826 C 0.65683 1.15289 -0.10489
 C827 C 0.62024 1.11926 -0.10259
 C828 C 0.62040 1.15341 -0.10274
 C829 C 0.61735 1.11844 -0.13261
 C830 C 0.61779 1.15284 -0.13305
 C831 C 0.67208 1.16975 -0.15363
 C832 C 0.68635 1.18396 -0.16977
 C833 C 0.60137 1.10030 -0.08531
 C834 C 0.58589 1.08388 -0.07179
 H835 H 0.67196 1.10405 -0.09244
 H836 H 0.66756 1.10344 -0.14805
 H837 H 0.67330 1.16726 -0.09372
 H838 H 0.60649 1.16781 -0.08940
 H839 H 0.60090 1.10410 -0.14384
 H840 H 0.60214 1.16720 -0.14504
 C841 C 1.16086 0.61456 0.39567
 C842 C 1.15849 0.61374 0.36534
 C843 C 1.15803 0.64789 0.36492
 C844 C 1.16071 0.64906 0.39495
 C845 C 1.12475 0.61484 0.39726
 C846 C 1.12429 0.64899 0.39684
 C847 C 1.12212 0.61373 0.36723
 C848 C 1.12192 0.64811 0.36656
 C849 C 1.17565 0.66619 0.34621
 C850 C 1.18927 0.68104 0.33013
 C851 C 1.10522 0.59652 0.41458
 C852 C 1.08812 0.58164 0.42815
 H853 H 1.17663 0.60055 0.40785
 H854 H 1.17275 0.59944 0.35217
 H855 H 1.17679 0.66381 0.40613
 H856 H 1.11001 0.66329 0.41000
 H857 H 1.10606 0.59900 0.35600
 H858 H 1.10609 0.66209 0.35440
 C859 C 0.37861 0.84723 -0.10267
 C860 C 0.34221 0.84803 -0.10502
 C861 C 0.34543 0.84861 -0.13504
 C862 C 0.38150 0.84751 -0.13297
 C863 C 0.37910 0.88139 -0.10281
 C864 C 0.38226 0.88192 -0.13282
 C865 C 0.34303 0.88250 -0.10485
 C866 C 0.34596 0.88277 -0.13513
 C867 C 0.32718 0.83084 -0.15372
 C868 C 0.31288 0.81662 -0.16982
 C869 C 0.39801 0.90034 -0.08553
 C870 C 0.41353 0.91667 -0.07198
 H871 H 0.39226 0.83283 -0.08913
 H872 H 0.32551 0.83391 -0.09380
 H873 H 0.39713 0.83293 -0.14474
 H874 H 0.39893 0.89602 -0.14409
 H875 H 0.32741 0.89710 -0.09309
 H876 H 0.33233 0.89721 -0.14866
 C877 C 0.85014 0.39614 0.37867
 C878 C 0.86396 0.37698 0.35624
 C879 C 0.84279 0.35103 0.36487
 C880 C 0.82866 0.36990 0.38704
 C881 C 0.87593 0.38435 0.39706
 C882 C 0.85478 0.35841 0.40574
 C883 C 0.88998 0.36546 0.37486
 C884 C 0.86858 0.33925 0.38325
 C885 C 0.82517 0.33264 0.34622
 C886 C 0.81151 0.31779 0.33017
 C887 C 0.89531 0.40286 0.41435
 C888 C 0.91220 0.41790 0.42794
 H889 H 0.84276 0.41974 0.37697
 H890 H 0.86758 0.38444 0.33569
 H891 H 0.80323 0.37151 0.39185
 H892 H 0.85120 0.35099 0.42630
 H893 H 0.91540 0.36382 0.37001
 H894 H 0.87598 0.31566 0.38494
 C895 C 1.11079 0.36689 0.12579
 C896 C 1.13202 0.34049 0.11771
 C897 C 1.15801 0.35252 0.13578
 C898 C 1.13700 0.37867 0.14410
 C899 C 1.12473 0.38536 0.10322
 C900 C 1.15071 0.39741 0.12128
 C901 C 1.14572 0.35922 0.09484
 C902 C 1.17203 0.37097 0.11322
 C903 C 1.17572 0.33429 0.15456
 C904 C 1.18944 0.31946 0.17063
 C905 C 1.10527 0.40361 0.08569
 C906 C 1.08836 0.41849 0.07193
 H907 H 1.08540 0.36538 0.13081
 H908 H 1.12450 0.31689 0.11642
 H909 H 1.13357 0.38650 0.16454
 H910 H 1.15821 0.42101 0.12258
 H911 H 1.14912 0.35141 0.07439
 H912 H 1.19743 0.37244 0.10825
 C913 C 0.64314 0.85635 0.59436
 C914 C 0.66867 0.86868 0.61318
 C915 C 0.65503 0.84935 0.63529
 C916 C 0.62983 0.83671 0.61680
 C917 C 0.62099 0.88152 0.60293
 C918 C 0.60741 0.86219 0.62505
 C919 C 0.64621 0.89413 0.62143
 C920 C 0.63288 0.87454 0.64379
 C921 C 0.67335 0.83182 0.65402
 C922 C 0.68761 0.81762 0.67013
 C923 C 0.60185 0.90012 0.58561
 C924 C 0.58612 0.91623 0.57207
 H925 H 0.64709 0.84909 0.57382
 H926 H 0.69406 0.87114 0.60853
 H927 H 0.62333 0.81288 0.61511
 H928 H 0.58202 0.85971 0.62973
 H929 H 0.65272 0.91796 0.62314
 H930 H 0.62888 0.88185 0.66432
 C931 C 1.16030 0.61674 -0.10654
 C932 C 1.15869 0.61497 -0.13689
 C933 C 1.15745 0.64911 -0.13815
 C934 C 1.15935 0.65119 -0.10809
 C935 C 1.12414 0.61622 -0.10548
 C936 C 1.12290 0.65036 -0.10675
 C937 C 1.12228 0.61418 -0.13554
 C938 C 1.12129 0.64854 -0.13705
 C939 C 1.17525 0.66739 -0.15696
 C940 C 1.18908 0.68228 -0.17301
 C941 C 1.10474 0.59791 -0.08782
 C942 C 1.08799 0.58297 -0.07388
 H943 H 1.17618 0.60348 -0.09381
 H944 H 1.17358 0.60057 -0.14946
 H945 H 1.17479 0.66660 -0.09698
 H946 H 1.10799 0.66476 -0.09419
 H947 H 1.10686 0.59880 -0.14670
 H948 H 1.10537 0.66178 -0.14976
 C949 C 0.65703 1.11673 0.39558
 C950 C 0.65557 1.11489 0.36526
 C951 C 0.65491 1.14901 0.36397
 C952 C 0.65666 1.15117 0.39400
 C953 C 0.62087 1.11679 0.39645
 C954 C 0.62018 1.15091 0.39518
 C955 C 0.61917 1.11468 0.36641
 C956 C 0.61875 1.14904 0.36486
 C957 C 0.67329 1.16666 0.34524
 C958 C 0.68764 1.18101 0.32922
 C959 C 0.60172 1.09825 0.41393
 C960 C 0.58598 1.08228 0.42770
 H961 H 0.67256 1.10325 0.40842
 H962 H 0.67033 1.10026 0.35278
 H963 H 0.67232 1.16636 0.40514
 H964 H 0.60541 1.16552 0.40767
 H965 H 0.60354 1.09951 0.35523
 H966 H 0.60320 1.16251 0.35202
 C967 C 0.84871 0.60350 0.11959
 C968 C 0.86182 0.62010 0.14384
 C969 C 0.84287 0.64776 0.13586
 C970 C 0.82944 0.63145 0.11186
 C971 C 0.87651 0.61528 0.10331
 C972 C 0.85758 0.64293 0.09527
 C973 C 0.88986 0.63162 0.12732
 C974 C 0.87068 0.65952 0.11957
 C975 C 0.82495 0.66582 0.15462
 C976 C 0.81105 0.68055 0.17066
 C977 C 0.89616 0.59721 0.08578
 C978 C 0.91318 0.58246 0.07202
 H979 H 0.83986 0.58028 0.11942
 H980 H 0.86341 0.61088 0.16400
 H981 H 0.80438 0.63159 0.10570
 H982 H 0.85603 0.65214 0.07510
 H983 H 0.91490 0.63152 0.13353
 H984 H 0.87955 0.68274 0.11974
 C985 C 0.35558 1.10454 0.62391
 C986 C 0.36911 1.12646 0.64438
 C987 C 0.34468 1.14964 0.63571
 C988 C 0.33087 1.12798 0.61549
 C989 C 0.37851 1.11721 0.60342
 C990 C 0.35409 1.14037 0.59469
 C991 C 0.39229 1.13887 0.62365
 C992 C 0.36759 1.16235 0.61523
 C993 C 0.32646 1.16734 0.65438
 C994 C 0.31226 1.18169 0.67041
 C995 C 0.39752 1.09850 0.58611
 C996 C 0.41314 1.08233 0.57254
 H997 H 0.35087 1.08056 0.62729
 H998 H 0.37506 1.12091 0.66501
 H999 H 0.30541 1.12371 0.61236
 H1000 H 0.34818 1.14587 0.57404
 H1001 H 0.41774 1.14315 0.62681
 H1002 H 0.37228 1.18633 0.61188
 C1003 C 0.87668 0.35192 -0.10489
 C1004 C 0.84024 0.35168 -0.10649
 C1005 C 0.84255 0.35328 -0.13654
 C1006 C 0.87869 0.35324 -0.13519
 C1007 C 0.87606 0.38608 -0.10413
 C1008 C 0.87832 0.38762 -0.13419
 C1009 C 0.83991 0.38616 -0.10543
 C1010 C 0.84193 0.38743 -0.13579
 C1011 C 0.82472 0.33503 -0.15521
 C1012 C 0.81089 0.32014 -0.17117
 C1013 C 0.89563 0.40428 -0.08667
 C1014 C 0.91263 0.41909 -0.07294
 H1015 H 0.89117 0.33748 -0.09200
 H1016 H 0.82438 0.33670 -0.09528
 H1017 H 0.89449 0.33953 -0.14760
 H1018 H 0.89417 0.40258 -0.14544
 H1019 H 0.82416 0.39990 -0.09301
 H1020 H 0.82744 0.40186 -0.14869
 C1021 C 0.35401 0.89440 0.37829
 C1022 C 0.36758 0.87445 0.35633
 C1023 C 0.34483 0.84962 0.36466
 C1024 C 0.33096 0.86930 0.38637
 C1025 C 0.37856 0.88163 0.39733
 C1026 C 0.35582 0.85681 0.40573
 C1027 C 0.39239 0.86194 0.37561
 C1028 C 0.36937 0.83682 0.38369
 C1029 C 0.32666 0.83213 0.34581
 C1030 C 0.31247 0.81793 0.32967
 C1031 C 0.39755 0.90013 0.41483
 C1032 C 0.41317 0.91616 0.42852
 H1033 H 0.34792 0.91829 0.37627
 H1034 H 0.37220 0.88153 0.33581
 H1035 H 0.30550 0.87211 0.39055
 H1036 H 0.35125 0.84977 0.42625
 H1037 H 0.41785 0.85911 0.37139
 H1038 H 0.37545 0.81292 0.38568
 C1039 C 1.15261 1.12360 0.39652
 C1040 C 1.14920 1.12282 0.36630
 C1041 C 1.14758 1.15693 0.36602
 C1042 C 1.15127 1.15805 0.39598
 C1043 C 1.11659 1.12275 0.39900
 C1044 C 1.11491 1.15686 0.39877
 C1045 C 1.11297 1.12170 0.36903
 C1046 C 1.11156 1.15608 0.36850
 C1047 C 1.16487 1.17501 0.34695
 C1048 C 1.17919 1.18892 0.33064
 C1049 C 1.09924 1.10276 0.41649
 C1050 C 1.08485 1.08540 0.42992
 H1051 H 1.16930 1.11004 0.40824
 H1052 H 1.16347 1.10900 0.35275
 H1053 H 1.16722 1.17323 0.40682
 H1054 H 1.10061 1.17062 0.41235
 H1055 H 1.09704 1.10653 0.35813
 H1056 H 1.09487 1.16963 0.35676
 C1057 C 0.65058 0.62489 -0.10347
 C1058 C 0.64677 0.62405 -0.13363
 C1059 C 0.64548 0.65816 -0.13396
 C1060 C 0.64957 0.65933 -0.10405
 C1061 C 0.61459 0.62438 -0.10069
 C1062 C 0.61323 0.65849 -0.10094
 C1063 C 0.61058 0.62327 -0.13061
 C1064 C 0.60949 0.65766 -0.13119
 C1065 C 0.66277 0.67587 -0.15320
 C1066 C 0.67717 0.68942 -0.16962
 C1067 C 0.59738 0.60446 -0.08316
 C1068 C 0.58315 0.58698 -0.06980
 H1069 H 0.66725 0.61119 -0.09185
 H1070 H 0.66074 0.61009 -0.14730
 H1071 H 0.66582 0.67441 -0.09340
 H1072 H 0.59924 0.67239 -0.08725
 H1073 H 0.59436 0.60822 -0.14133
 H1074 H 0.59282 0.67134 -0.14282
 C1075 C 0.85708 1.11125 0.61978
 C1076 C 0.87173 1.12838 0.64306
 C1077 C 0.85279 1.15602 0.63505
 C1078 C 0.83788 1.13915 0.61201
 C1079 C 0.88416 1.12207 0.60221
 C1080 C 0.86525 1.14970 0.59412
 C1081 C 0.89906 1.13896 0.62526
 C1082 C 0.87987 1.16691 0.61750
 C1083 C 0.83531 1.17406 0.65401
 C1084 C 0.82088 1.18803 0.67018
 C1085 C 0.90169 1.10226 0.58471
 C1086 C 0.91620 1.08510 0.57120
 H1087 H 0.84787 1.08816 0.62054
 H1088 H 0.87422 1.11980 0.66338
 H1089 H 0.81252 1.13943 0.60677
 H1090 H 0.86279 1.15823 0.57379
 H1091 H 0.92441 1.13867 0.63052
 H1092 H 0.88903 1.19002 0.61679
 C1093 C 0.35868 0.61255 0.11943
 C1094 C 0.37381 0.62993 0.14234
 C1095 C 0.35432 0.65731 0.13460
 C1096 C 0.33893 0.64018 0.11193
 C1097 C 0.38510 0.62359 0.10129
 C1098 C 0.36563 0.65096 0.09347
 C1099 C 0.40047 0.64073 0.12396
 C1100 C 0.38073 0.66844 0.11649
 C1101 C 0.33709 0.67506 0.15382
 C1102 C 0.32274 0.68872 0.17019
 C1103 C 0.40226 0.60377 0.08367
 C1104 C 0.41646 0.58642 0.07019
 H1105 H 0.34980 0.58935 0.12044
 H1106 H 0.37698 0.62149 0.16264
 H1107 H 0.31342 0.64017 0.10723
 H1108 H 0.36250 0.65934 0.07315
 H1109 H 0.42598 0.64073 0.12869
 H1110 H 0.38956 0.69165 0.11553
 C1111 C 1.13873 0.85222 0.59540
 C1112 C 1.16329 0.86357 0.61554
 C1113 C 1.14796 0.84391 0.63666
 C1114 C 1.12368 0.83223 0.61685
 C1115 C 1.11661 0.87761 0.60353
 C1116 C 1.10129 0.85795 0.62465
 C1117 C 1.14090 0.88922 0.62336
 C1118 C 1.12583 0.86931 0.64472
 C1119 C 1.16543 0.82597 0.65575
 C1120 C 1.17985 0.81205 0.67200
 C1121 C 1.09907 0.89725 0.58583
 C1122 C 1.08456 0.91425 0.57213
 H1123 H 1.14383 0.84541 0.57492
 H1124 H 1.18898 0.86568 0.61201
 H1125 H 1.11681 0.80858 0.61440
 H1126 H 1.07561 0.85584 0.62821
 H1127 H 1.14782 0.91285 0.62586
 H1128 H 1.12069 0.87617 0.66519
 C1129 C 0.60030 0.36234 0.12620
 C1130 C 0.61722 0.33292 0.11910
 C1131 C 0.64593 0.34325 0.13496
 C1132 C 0.62926 0.37236 0.14232
 C1133 C 0.61481 0.37695 0.10177
 C1134 C 0.64353 0.38721 0.11766
 C1135 C 0.63146 0.34785 0.09433
 C1136 C 0.66047 0.35785 0.11054
 C1137 C 0.66332 0.32545 0.15408
 C1138 C 0.67777 0.31169 0.17036
 C1139 C 0.59746 0.39670 0.08416
 C1140 C 0.58312 0.41393 0.07062
 H1141 H 0.57535 0.36441 0.13243
 H1142 H 0.60661 0.31037 0.11993
 H1143 H 0.62853 0.38224 0.16225
 H1144 H 0.65417 0.40975 0.11687
 H1145 H 0.63214 0.33803 0.07437
 H1146 H 0.68542 0.35578 0.10433
 C1147 C 0.85978 0.88890 0.37822
 C1148 C 0.87483 0.86905 0.35688
 C1149 C 0.85282 0.84356 0.36508
 C1150 C 0.83751 0.86317 0.38618
 C1151 C 0.88418 0.87741 0.39801
 C1152 C 0.86219 0.85194 0.40628
 C1153 C 0.89948 0.85781 0.37690
 C1154 C 0.87721 0.83200 0.38484
 C1155 C 0.83534 0.82560 0.34607
 C1156 C 0.82091 0.81169 0.32986
 C1157 C 0.90172 0.89717 0.41555
 C1158 C 0.91622 0.91429 0.42911
 H1159 H 0.85278 0.91251 0.37569
 H1160 H 0.87985 0.87591 0.33638
 H1161 H 0.81183 0.86517 0.38978
 H1162 H 0.85720 0.84513 0.42680
 H1163 H 0.92516 0.85582 0.37329
 H1164 H 0.88417 0.80838 0.38733
 C1165 C 0.36916 0.38810 -0.12679
 C1166 C 0.38349 0.36165 -0.14201
 C1167 C 0.35443 0.34296 -0.13496
 C1168 C 0.33985 0.36918 -0.11999
 C1169 C 0.38517 0.37678 -0.10169
 C1170 C 0.35610 0.35812 -0.09459
 C1171 C 0.39978 0.35057 -0.11665
 C1172 C 0.37040 0.33154 -0.10988
 C1173 C 0.33720 0.32515 -0.15413
 C1174 C 0.32284 0.31145 -0.17046
 C1175 C 0.40231 0.39665 -0.08410
 C1176 C 0.41649 0.41403 -0.07063
 H1177 H 0.36882 0.41157 -0.13355
 H1178 H 0.39455 0.36289 -0.16171
 H1179 H 0.31502 0.37662 -0.12159
 H1180 H 0.34507 0.35691 -0.07487
 H1181 H 0.42462 0.34316 -0.11504
 H1182 H 0.37070 0.30805 -0.10319
 C1183 C 1.14309 0.39538 -0.12667
 C1184 C 1.16937 0.37342 -0.11839
 C1185 C 1.15465 0.34969 -0.13625
 C1186 C 1.12867 0.37138 -0.14478
 C1187 C 1.12258 0.38381 -0.10404
 C1188 C 1.10791 0.36007 -0.12192
 C1189 C 1.14854 0.36214 -0.09544
 C1190 C 1.13414 0.33809 -0.11362
 C1191 C 1.17199 0.33110 -0.15485
 C1192 C 1.18589 0.31641 -0.17083
 C1193 C 1.10386 0.40278 -0.08671
 C1194 C 1.08749 0.41816 -0.07302
 H1195 H 1.14659 0.41914 -0.13184
 H1196 H 1.19486 0.37867 -0.11715
 H1197 H 1.12066 0.37496 -0.16527
 H1198 H 1.08242 0.35479 -0.12319
 H1199 H 1.15651 0.35859 -0.07494
 H1200 H 1.13065 0.31433 -0.10847
 C1201 C 0.61647 0.88197 0.36722
 C1202 C 0.65281 0.88012 0.36611
 C1203 C 0.65036 0.84608 0.36454
 C1204 C 0.61425 0.84768 0.36540
 C1205 C 0.61802 0.87944 0.39725
 C1206 C 0.61552 0.84541 0.39572
 C1207 C 0.65413 0.87785 0.39640
 C1208 C 0.65196 0.84349 0.39457
 C1209 C 0.66824 0.82818 0.34567
 C1210 C 0.68275 0.81416 0.32956
 C1211 C 0.59987 0.89879 0.41477
 C1212 C 0.58489 0.91547 0.42843
 H1213 H 0.60170 0.89798 0.35613
 H1214 H 0.66832 0.89422 0.35374
 H1215 H 0.59802 0.83509 0.35246
 H1216 H 0.59999 0.83134 0.40810
 H1217 H 0.67035 0.89046 0.40934
 H1218 H 0.66677 0.82746 0.40561
 C1219 C 0.88863 0.62569 -0.13135
 C1220 C 0.85503 0.61886 -0.14137
 C1221 C 0.84569 0.65120 -0.13563
 C1222 C 0.87905 0.65829 -0.12587
 C1223 C 0.87810 0.61724 -0.10349
 C1224 C 0.86878 0.64958 -0.09772
 C1225 C 0.84474 0.61012 -0.11324
 C1226 C 0.83509 0.64278 -0.10778
 C1227 C 0.82820 0.66967 -0.15422
 C1228 C 0.81421 0.68425 -0.17024
 C1229 C 0.89702 0.59835 -0.08624
 C1230 C 0.91358 0.58303 -0.07264
 H1231 H 0.91084 0.61844 -0.14088
 H1232 H 0.84921 0.60643 -0.15953
 H1233 H 0.89296 0.67829 -0.13125
 H1234 H 0.87464 0.66197 -0.07955
 H1235 H 0.83086 0.59011 -0.10786
 H1236 H 0.81287 0.65007 -0.09830
 C1237 C 0.35427 1.14117 0.40607
 C1238 C 0.36860 1.16566 0.38823
 C1239 C 0.34902 1.15377 0.36517
 C1240 C 0.33441 1.12960 0.38270
 C1241 C 0.38103 1.12014 0.39794
 C1242 C 0.36144 1.10832 0.37487
 C1243 C 0.39564 1.14430 0.38041
 C1244 C 0.37579 1.13272 0.35710
 C1245 C 0.33135 1.17177 0.34625
 C1246 C 0.31698 1.18586 0.33007
 C1247 C 0.39901 1.10063 0.41545
 C1248 C 0.41390 1.08380 0.42905
 H1249 H 0.34562 1.14443 0.42641
 H1250 H 0.37134 1.18946 0.39351
 H1251 H 0.30904 1.12375 0.38344
 H1252 H 0.35866 1.08453 0.36954
 H1253 H 0.42102 1.15015 0.37966
 H1254 H 0.38448 1.12941 0.33677
 C1255 C 1.10805 0.64003 0.12165
 C1256 C 1.12919 0.62853 0.14418
 C1257 C 1.15476 0.65078 0.13582
 C1258 C 1.13388 0.66256 0.11354
 C1259 C 1.12291 0.61690 0.10327
 C1260 C 1.14847 0.63913 0.09486
 C1261 C 1.14380 0.60513 0.12556
 C1262 C 1.16967 0.62766 0.11747
 C1263 C 1.17199 0.66924 0.15459
 C1264 C 1.18584 0.68383 0.17067
 C1265 C 1.10430 0.59805 0.08576
 C1266 C 1.08799 0.58274 0.07196
 H1267 H 1.08251 0.64490 0.12319
 H1268 H 1.12142 0.62439 0.16465
 H1269 H 1.12999 0.68637 0.10883
 H1270 H 1.15620 0.64323 0.07437
 H1271 H 1.14768 0.58132 0.13030
 H1272 H 1.19522 0.62281 0.11596
 C1273 C 0.63847 1.14638 0.59481
 C1274 C 0.62424 1.16497 0.61752
 C1275 C 0.65024 1.15337 0.63580
 C1276 C 0.66477 1.13510 0.61341
 C1277 C 0.61784 1.11994 0.60318
 C1278 C 0.64385 1.10839 0.62148
 C1279 C 0.60333 1.13822 0.62557
 C1280 C 0.62959 1.12692 0.64410
 C1281 C 0.66814 1.17131 0.65461
 C1282 C 0.68267 1.18539 0.67067
 C1283 C 0.59969 1.10054 0.58571
 C1284 C 0.58471 1.08381 0.57210
 H1285 H 0.64191 1.15417 0.57435
 H1286 H 0.61637 1.18845 0.61610
 H1287 H 0.69023 1.13401 0.60861
 H1288 H 0.65174 1.08493 0.62293
 H1289 H 0.57787 1.13931 0.63039
 H1290 H 0.62612 1.11908 0.66455
 C1291 C 0.85358 0.36137 0.09520
 C1292 C 0.86793 0.33792 0.11403
 C1293 C 0.84668 0.34959 0.13612
 C1294 C 0.83202 0.37275 0.11761
 C1295 C 0.87899 0.38364 0.10383
 C1296 C 0.85774 0.39530 0.12593
 C1297 C 0.89360 0.36047 0.12236
 C1298 C 0.87210 0.37187 0.14470
 C1299 C 0.82915 0.33101 0.15474
 C1300 C 0.81509 0.31631 0.17069
 C1301 C 0.89778 0.40259 0.08639
 C1302 C 0.91411 0.41797 0.07258
 H1303 H 0.84615 0.35729 0.07465
 H1304 H 0.87194 0.31413 0.10934
 H1305 H 0.80649 0.37757 0.11585
 H1306 H 0.85374 0.41908 0.13064
 H1307 H 0.91913 0.35562 0.12416
 H1308 H 0.87957 0.37599 0.16524
 C1309 C 0.35456 0.85756 0.59625
 C1310 C 0.36871 0.83426 0.61537
 C1311 C 0.34759 0.84646 0.63734
 C1312 C 0.33316 0.86945 0.61854
 C1313 C 0.38023 0.87973 0.60456
 C1314 C 0.35910 0.89187 0.62656
 C1315 C 0.39465 0.85674 0.62337
 C1316 C 0.37327 0.86865 0.64559
 C1317 C 0.32958 0.82855 0.65624
 C1318 C 0.31499 0.81447 0.67236
 C1319 C 0.39855 0.89896 0.58692
 C1320 C 0.41367 0.91548 0.57311
 H1321 H 0.34704 0.85318 0.57577
 H1322 H 0.37247 0.81036 0.61095
 H1323 H 0.30768 0.87450 0.61674
 H1324 H 0.35530 0.91576 0.63101
 H1325 H 0.42013 0.85169 0.62518
 H1326 H 0.38081 0.87307 0.66607
 C1327 C 0.35644 1.14339 -0.09435
 C1328 C 0.37101 1.16744 -0.11254
 C1329 C 0.35084 1.15569 -0.13530
 C1330 C 0.33599 1.13198 -0.11743
 C1331 C 0.38263 1.12178 -0.10259
 C1332 C 0.36244 1.11010 -0.12537
 C1333 C 0.39748 1.14549 -0.12046
 C1334 C 0.37704 1.13405 -0.14347
 C1335 C 0.33323 1.17379 -0.15420
 C1336 C 0.31887 1.18789 -0.17037
 C1337 C 0.40042 1.10207 -0.08511
 C1338 C 0.41512 1.08506 -0.07154
 H1339 H 0.34816 1.14702 -0.07395
 H1340 H 0.37433 1.19123 -0.10747
 H1341 H 0.31051 1.12661 -0.11638
 H1342 H 0.35908 1.08633 -0.13048
 H1343 H 0.42296 1.15085 -0.12152
 H1344 H 0.38535 1.13038 -0.16386
 C1345 C 0.85355 0.63999 0.40507
 C1346 C 0.86843 0.66391 0.38697
 C1347 C 0.84769 0.65286 0.36433
 C1348 C 0.83250 0.62925 0.38211
 C1349 C 0.87906 0.61791 0.39636
 C1350 C 0.85832 0.60689 0.37371
 C1351 C 0.89421 0.64153 0.37857
 C1352 C 0.87322 0.63076 0.35568
 C1353 C 0.83063 0.67178 0.34579
 C1354 C 0.81683 0.68656 0.32981
 C1355 C 0.89734 0.59847 0.41363
 C1356 C 0.91334 0.58276 0.42733
 H1357 H 0.84565 0.64351 0.42559
 H1358 H 0.87240 0.68757 0.39220
 H1359 H 0.80691 0.62446 0.38336
 H1360 H 0.85435 0.58324 0.36845
 H1361 H 0.91980 0.64634 0.37729
 H1362 H 0.88115 0.62720 0.33517
 C1363 C 0.63696 1.14892 0.09408
 C1364 C 0.62256 1.16665 0.11725
 C1365 C 0.64940 1.15566 0.13497
 C1366 C 0.66410 1.13825 0.11212
 C1367 C 0.61755 1.12165 0.10240
 C1368 C 0.64440 1.11072 0.12015
 C1369 C 0.60287 1.13906 0.12526
 C1370 C 0.62996 1.12838 0.14323
 C1371 C 0.66705 1.17381 0.15382
 C1372 C 0.68144 1.18792 0.16997
 C1373 C 0.59970 1.10189 0.08499
 C1374 C 0.58496 1.08488 0.07145
 H1375 H 0.63965 1.15716 0.07367
 H1376 H 0.61376 1.18986 0.11626
 H1377 H 0.68947 1.13811 0.10691
 H1378 H 0.65322 1.08752 0.12118
 H1379 H 0.57750 1.13920 0.13049
 H1380 H 0.62724 1.12009 0.16362
 C1381 C 1.10463 0.64201 0.62185
 C1382 C 1.12659 0.63141 0.64418
 C1383 C 1.15126 0.65429 0.63526
 C1384 C 1.12955 0.66519 0.61318
 C1385 C 1.11985 0.61908 0.60348
 C1386 C 1.14450 0.64195 0.59450
 C1387 C 1.14156 0.60821 0.62557
 C1388 C 1.16652 0.63137 0.61690
 C1389 C 1.16836 0.67331 0.65369
 C1390 C 1.18219 0.68811 0.66965
 C1391 C 1.10159 0.59947 0.58634
 C1392 C 1.08565 0.58361 0.57271
 H1393 H 1.07897 0.64616 0.62373
 H1394 H 1.11936 0.62730 0.66479
 H1395 H 1.12480 0.68882 0.60829
 H1396 H 1.15169 0.64602 0.57387
 H1397 H 1.14631 0.58459 0.63048
 H1398 H 1.19218 0.62724 0.61506
 C1399 C 0.60567 0.86934 -0.13005
 C1400 C 0.63841 0.87691 -0.14157
 C1401 C 0.64926 0.84504 -0.13555
 C1402 C 0.61674 0.83718 -0.12428
 C1403 C 0.61743 0.87885 -0.10282
 C1404 C 0.62824 0.84698 -0.09673
 C1405 C 0.64995 0.88668 -0.11411
 C1406 C 0.66107 0.85453 -0.10833
 C1407 C 0.66689 0.82694 -0.15443
 C1408 C 0.68126 0.81280 -0.17056
 C1409 C 0.59960 0.89847 -0.08530
 C1410 C 0.58484 0.91538 -0.07169
 H1411 H 0.58270 0.87561 -0.13882
 H1412 H 0.64276 0.88906 -0.16019
 H1413 H 0.60327 0.81662 -0.12866
 H1414 H 0.62386 0.83488 -0.07809
 H1415 H 0.66344 0.90723 -0.10975
 H1416 H 0.68405 0.84824 -0.09959
 C1417 C 1.14200 0.39365 0.37374
 C1418 C 1.16755 0.37105 0.38225
 C1419 C 1.15246 0.34770 0.36421
 C1420 C 1.12721 0.37003 0.35544
 C1421 C 1.12085 0.38254 0.39614
 C1422 C 1.10581 0.35919 0.37808
 C1423 C 1.14609 0.36023 0.40496
 C1424 C 1.13131 0.33657 0.38660
 C1425 C 1.16963 0.32881 0.34574
 C1426 C 1.18349 0.31400 0.32982
 C1427 C 1.10245 0.40190 0.41337
 C1428 C 1.08636 0.41754 0.42707
 H1429 H 1.14621 0.41733 0.36864
 H1430 H 1.19315 0.37567 0.38377
 H1431 H 1.11960 0.37384 0.33488
 H1432 H 1.08021 0.35454 0.37654
 H1433 H 1.15366 0.35646 0.42554
 H1434 H 1.12710 0.31289 0.39168
 C1435 C 0.35776 0.85530 0.09414
 C1436 C 0.37252 0.83251 0.11341
 C1437 C 0.35097 0.84431 0.13525
 C1438 C 0.33593 0.86677 0.11630
 C1439 C 0.38271 0.87818 0.10244
 C1440 C 0.36114 0.88991 0.12430
 C1441 C 0.39775 0.85572 0.12139
 C1442 C 0.37592 0.86721 0.14348
 C1443 C 0.33338 0.82624 0.15419
 C1444 C 0.31902 0.81217 0.17039
 C1445 C 0.40047 0.89789 0.08494
 C1446 C 0.41515 0.91493 0.07137
 H1447 H 0.35051 0.85062 0.07364
 H1448 H 0.37700 0.80868 0.10915
 H1449 H 0.31031 0.87112 0.11441
 H1450 H 0.35662 0.91371 0.12861
 H1451 H 0.42337 0.85138 0.12329
 H1452 H 0.38322 0.87193 0.16397
 C1453 C 0.85485 0.35859 0.59439
 C1454 C 0.86974 0.33570 0.61347
 C1455 C 0.84767 0.34675 0.63523
 C1456 C 0.83246 0.36931 0.61648
 C1457 C 0.87920 0.38173 0.60330
 C1458 C 0.85713 0.39274 0.62507
 C1459 C 0.89436 0.35915 0.62207
 C1460 C 0.87204 0.36990 0.64407
 C1461 C 0.83056 0.32784 0.65374
 C1462 C 0.81673 0.31310 0.66975
 C1463 C 0.89759 0.40119 0.58613
 C1464 C 0.91371 0.41692 0.57252
 H1465 H 0.84798 0.35422 0.57375
 H1466 H 0.87473 0.31204 0.60892
 H1467 H 0.80679 0.37322 0.61439
 H1468 H 0.85214 0.41640 0.62964
 H1469 H 0.92003 0.35522 0.62419
 H1470 H 0.87895 0.37431 0.66470
 C1471 C 1.10328 1.14358 0.62122
 C1472 C 1.12480 1.13200 0.64348
 C1473 C 1.15016 1.15445 0.63509
 C1474 C 1.12891 1.16635 0.61308
 C1475 C 1.11807 1.12074 0.60255
 C1476 C 1.14342 1.14316 0.59408
 C1477 C 1.13933 1.10891 0.62457
 C1478 C 1.16495 1.13160 0.61642
 C1479 C 1.16780 1.17251 0.65389
 C1480 C 1.18205 1.18673 0.66999
 C1481 C 1.10010 1.10115 0.58519
 C1482 C 1.08527 1.08421 0.57171
 H1483 H 1.07773 1.14830 0.62300
 H1484 H 1.11733 1.12759 0.66399
 H1485 H 1.12485 1.19019 0.60858
 H1486 H 1.15085 1.14753 0.57356
 H1487 H 1.14343 1.08508 0.62912
 H1488 H 1.19051 1.12688 0.61466
 C1489 C 0.63914 0.64640 0.09394
 C1490 C 0.62462 0.66599 0.11585
 C1491 C 0.64936 0.65398 0.13510
 C1492 C 0.66418 0.63472 0.11353
 C1493 C 0.61721 0.62088 0.10219
 C1494 C 0.64196 0.60893 0.12145
 C1495 C 0.60241 0.64015 0.12376
 C1496 C 0.62741 0.62845 0.14327
 C1497 C 0.66700 0.67171 0.15407
 C1498 C 0.68125 0.68571 0.17028
 C1499 C 0.59921 0.60158 0.08469
 C1500 C 0.58436 0.58478 0.07114
 H1501 H 0.64371 0.65353 0.07344
 H1502 H 0.61773 0.68968 0.11379
 H1503 H 0.68978 0.63271 0.10956
 H1504 H 0.64888 0.58525 0.12356
 H1505 H 0.57681 0.64216 0.12775
 H1506 H 0.62280 0.62126 0.16375
 C1507 C 1.11637 0.88075 0.36811
 C1508 C 1.15270 0.87904 0.36670
 C1509 C 1.15037 0.84499 0.36533
 C1510 C 1.11426 0.84644 0.36650
 C1511 C 1.11832 0.87841 0.39814
 C1512 C 1.11594 0.84436 0.39682
 C1513 C 1.15442 0.87697 0.39698
 C1514 C 1.15238 0.84259 0.39535
 C1515 C 1.16799 0.82708 0.34640
 C1516 C 1.18223 0.81297 0.33021
 C1517 C 1.10033 0.89783 0.41562
 C1518 C 1.08547 0.91466 0.42918
 H1519 H 1.10137 0.89663 0.35709
 H1520 H 1.16799 0.89311 0.35411
 H1521 H 1.09795 0.83370 0.35375
 H1522 H 1.10062 0.83033 0.40941
 H1523 H 1.17073 0.88973 0.40972
 H1524 H 1.16740 0.82669 0.40632
 C1525 C 0.60449 0.36798 -0.12872
 C1526 C 0.63587 0.37711 -0.14188
 C1527 C 0.64931 0.34629 -0.13536
 C1528 C 0.61818 0.33687 -0.12246
 C1529 C 0.61721 0.37933 -0.10237
 C1530 C 0.63063 0.34851 -0.09578
 C1531 C 0.64835 0.38871 -0.11529
 C1532 C 0.66208 0.35761 -0.10902
 C1533 C 0.66694 0.32859 -0.15437
 C1534 C 0.68119 0.31458 -0.17057
 C1535 C 0.59923 0.39858 -0.08482
 C1536 C 0.58438 0.41535 -0.07124
 H1537 H 0.58061 0.37245 -0.13661
 H1538 H 0.63823 0.38867 -0.16103
 H1539 H 0.60600 0.31533 -0.12565
 H1540 H 0.62824 0.33700 -0.07661
 H1541 H 0.66055 0.41025 -0.11213
 H1542 H 0.68598 0.35313 -0.10117
 C1543 C 0.85659 1.14183 0.40556
 C1544 C 0.87084 1.16572 0.38706
 C1545 C 0.85047 1.15363 0.36458
 C1546 C 0.83592 1.13007 0.38276
 C1547 C 0.88278 1.12024 0.39729
 C1548 C 0.86239 1.10822 0.37478
 C1549 C 0.89732 1.14381 0.37910
 C1550 C 0.87667 1.13203 0.35636
 C1551 C 0.83270 1.17159 0.34572
 C1552 C 0.81837 1.18577 0.32962
 C1553 C 0.90088 1.10087 0.41479
 C1554 C 0.91580 1.08413 0.42842
 H1555 H 0.84855 1.14564 0.42600
 H1556 H 0.87410 1.18958 0.39189
 H1557 H 0.81048 1.12461 0.38405
 H1558 H 0.85910 1.08437 0.36991
 H1559 H 0.92276 1.14926 0.37780
 H1560 H 0.88474 1.12818 0.33593
 C1561 C 0.39390 0.63075 -0.12990
 C1562 C 0.36152 0.62241 -0.14165
 C1563 C 0.34977 0.65397 -0.13569
 C1564 C 0.38191 0.66260 -0.12418
 C1565 C 0.38205 0.62090 -0.10277
 C1566 C 0.37032 0.65246 -0.09674
 C1567 C 0.34990 0.61230 -0.11429
 C1568 C 0.33786 0.64415 -0.10857
 C1569 C 0.33205 0.67174 -0.15464
 C1570 C 0.31775 0.68584 -0.17079
 C1571 C 0.40014 0.60167 -0.08522
 C1572 C 0.41506 0.58497 -0.07159
 H1573 H 0.41715 0.62504 -0.13846
 H1574 H 0.35771 0.61025 -0.16032
 H1575 H 0.39485 0.68350 -0.12848
 H1576 H 0.37418 0.66457 -0.07806
 H1577 H 0.33694 0.59141 -0.11002
 H1578 H 0.31459 0.64987 -0.10005
 C1579 C 0.89231 0.87078 0.63006
 C1580 C 0.85833 0.87714 0.63939
 C1581 C 0.84992 0.84441 0.63442
 C1582 C 0.88367 0.83777 0.62534
 C1583 C 0.88221 0.87797 0.60183
 C1584 C 0.87384 0.84524 0.59679
 C1585 C 0.84846 0.88459 0.61093
 C1586 C 0.83976 0.85156 0.60620
 C1587 C 0.83218 0.82649 0.65330
 C1588 C 0.81788 0.81244 0.66951
 C1589 C 0.90031 0.89751 0.58450
 C1590 C 0.91523 0.91447 0.57110
 H1591 H 0.91412 0.87889 0.63968
 H1592 H 0.85177 0.89007 0.65710
 H1593 H 0.89793 0.81831 0.63149
 H1594 H 0.88044 0.83237 0.57906
 H1595 H 0.83418 0.90405 0.60479
 H1596 H 0.81793 0.84344 0.59663
 C1597 C 0.35708 0.35575 0.09334
 C1598 C 0.37171 0.33298 0.11269
 C1599 C 0.35045 0.34523 0.13452
 C1600 C 0.33553 0.36765 0.11551
 C1601 C 0.38233 0.37840 0.10141
 C1602 C 0.36106 0.39058 0.12327
 C1603 C 0.39725 0.35597 0.12043
 C1604 C 0.37572 0.36790 0.14252
 C1605 C 0.33295 0.32753 0.15364
 C1606 C 0.31880 0.31360 0.16998
 C1607 C 0.40021 0.39779 0.08387
 C1608 C 0.41500 0.41473 0.07038
 H1609 H 0.34967 0.35099 0.07289
 H1610 H 0.37584 0.30906 0.10860
 H1611 H 0.30994 0.37224 0.11374
 H1612 H 0.35688 0.41448 0.12741
 H1613 H 0.42283 0.35140 0.12222
 H1614 H 0.38316 0.37270 0.16295
   
