data_POSCAR
  _audit_creation_date              2014-09-24
  _audit_creation_method            'ToBaCCo'
  _symmetry_space_group_name_H-M    'P1'
  _symmetry_Int_Tables_number       1
  _symmetry_cell_setting            triclinic
  loop_
  _symmetry_equiv_pos_as_xyz
 x,y,z
_cell_length_a 44.0342
_cell_length_b 41.8044
_cell_length_c 40.0130
_cell_angle_alpha 89.500700
_cell_angle_beta 88.537100
_cell_angle_gamma 90.787800
loop_
  _atom_site_label
  _atom_site_type_symbol
  _atom_site_fract_x
  _atom_site_fract_y
  _atom_site_fract_z
C1 C 0.38692 0.04402 0.30981
 H2 H 0.37295 0.05798 0.29356
 C3 C 0.40022 0.05879 0.33710
 H4 H 0.39561 0.08363 0.34244
 C5 C 0.40897 -0.00556 0.32392
 H6 H 0.41189 -0.03070 0.31915
 C7 C 0.42295 0.00831 0.35116
 H8 H 0.43618 -0.00642 0.36762
 N9 N 0.39036 0.01205 0.30465
 C10 C 0.38060 -0.03950 0.21177
 H11 H 0.35686 -0.04646 0.21371
 C12 C 0.39814 -0.04834 0.18396
 H13 H 0.38774 -0.06156 0.16398
 C14 C 0.42279 -0.01228 0.23466
 H15 H 0.43209 0.00216 0.25432
 C16 C 0.44119 -0.02067 0.20728
 H17 H 0.46448 -0.01204 0.20549
 Zn18 Zn 0.36723 -0.00904 0.27186
 N19 N 0.39295 -0.02118 0.23597
 C20 C 0.34025 0.03215 0.22495
 N21 N 0.33776 0.02023 0.25669
 C22 C 0.31830 0.03320 0.27966
 C23 C 0.30218 0.06068 0.27178
 C24 C 0.32433 0.05947 0.21596
 C25 C 0.36869 -0.07263 0.29117
 C26 C 0.35797 -0.10294 0.30059
 C27 C 0.30797 -0.08102 0.30877
 C28 C 0.31968 -0.05105 0.29858
 N29 N 0.34959 -0.04745 0.28990
 H30 H 0.35629 0.02204 0.20726
 H31 H 0.31744 0.02402 0.30502
 H32 H 0.28849 0.07217 0.29095
 H33 H 0.32802 0.07001 0.19134
 H34 H 0.39229 -0.06946 0.28365
 H35 H 0.37420 -0.12214 0.30144
 H36 H 0.28368 -0.08330 0.31325
 H37 H 0.30456 -0.03106 0.29651
 C38 C 0.42866 -0.03844 0.18134
 C39 C 0.41772 0.04051 0.35852
 C40 C 0.32697 -0.10805 0.30928
 C41 C 0.30586 0.07454 0.23990
 C42 C 0.07821 0.02354 0.70543
 H43 H 0.07342 0.02766 0.73167
 C44 C 0.05689 0.03198 0.68177
 H45 H 0.03583 0.04290 0.68992
 C46 C 0.11223 0.00630 0.66270
 H47 H 0.13443 -0.00218 0.65522
 C48 C 0.09100 0.01298 0.63837
 H49 H 0.09661 0.00839 0.61235
 N50 N 0.10497 0.01020 0.69565
 C51 C 0.11682 -0.00176 0.79830
 H52 H 0.13324 0.01742 0.80072
 C53 C 0.10061 -0.01271 0.82658
 H54 H 0.10410 -0.00122 0.85037
 C55 C 0.09294 -0.04081 0.76494
 H56 H 0.09020 -0.05163 0.74072
 C57 C 0.07673 -0.05306 0.79288
 H58 H 0.06160 -0.07346 0.79022
 Zn59 Zn 0.13317 0.00056 0.72919
 N60 N 0.11207 -0.01519 0.76801
 C61 C 0.13663 0.06238 0.75304
 N62 N 0.15371 0.03933 0.73833
 C63 C 0.18254 0.04563 0.72673
 C64 C 0.19477 0.07660 0.72871
 C65 C 0.14812 0.09331 0.75610
 C66 C 0.15170 -0.05478 0.69404
 C67 C 0.16762 -0.08332 0.69152
 C68 C 0.20112 -0.06439 0.73423
 C69 C 0.18482 -0.03607 0.73565
 N70 N 0.16023 -0.03204 0.71623
 H71 H 0.11346 0.05711 0.76104
 H72 H 0.19525 0.02734 0.71386
 H73 H 0.21677 0.08211 0.71720
 H74 H 0.13363 0.11185 0.76611
 H75 H 0.13085 -0.05240 0.68069
 H76 H 0.15908 -0.10234 0.67597
 H77 H 0.21890 -0.06851 0.75192
 H78 H 0.19017 -0.01849 0.75434
 C79 C 0.07985 -0.03822 0.82394
 C80 C 0.06256 0.02518 0.64791
 C81 C 0.19160 -0.08882 0.71305
 C82 C 0.17701 0.10083 0.74272
 C83 C 0.58355 0.53936 0.18567
 H84 H 0.58463 0.56014 0.20152
 C85 C 0.57356 0.54255 0.15286
 H86 H 0.56703 0.56574 0.14342
 C87 C 0.59295 0.48424 0.17757
 H88 H 0.60141 0.46178 0.18648
 C89 C 0.58252 0.48617 0.14516
 H90 H 0.58277 0.46501 0.12971
 N91 N 0.59390 0.51073 0.19695
 C92 C 0.59275 0.52051 0.30374
 H93 H 0.61345 0.53432 0.30597
 C94 C 0.57471 0.51490 0.33214
 H95 H 0.58088 0.52643 0.35520
 C96 C 0.56162 0.48606 0.27233
 H97 H 0.55697 0.47454 0.24888
 C98 C 0.54458 0.47735 0.30116
 H99 H 0.52768 0.45840 0.29982
 Zn100 Zn 0.61425 0.51001 0.23806
 N101 N 0.58569 0.50678 0.27428
 C102 C 0.62931 0.57441 0.25677
 N103 N 0.63811 0.54858 0.23856
 C104 C 0.66298 0.55048 0.21763
 C105 C 0.68197 0.57751 0.21747
 C106 C 0.64760 0.60189 0.25738
 C107 C 0.62503 0.44400 0.24240
 C108 C 0.64156 0.41584 0.24188
 C109 C 0.68782 0.44731 0.24166
 C110 C 0.67033 0.47499 0.24280
 N111 N 0.63946 0.47301 0.24127
 H112 H 0.60769 0.57429 0.27007
 H113 H 0.66814 0.53090 0.20103
 H114 H 0.70193 0.57863 0.20109
 H115 H 0.64051 0.62222 0.27211
 H116 H 0.60056 0.44256 0.24259
 H117 H 0.62958 0.39311 0.24151
 H118 H 0.71236 0.44937 0.24143
 H119 H 0.68171 0.49785 0.24462
 C120 C 0.55111 0.49192 0.33167
 C121 C 0.57413 0.51587 0.13197
 C122 C 0.67337 0.41730 0.23997
 C123 C 0.67454 0.60317 0.23814
 C124 C 0.92909 0.50862 0.81252
 H125 H 0.93869 0.50995 0.78750
 C126 C 0.94431 0.52368 0.83835
 H127 H 0.96527 0.53644 0.83218
 C128 C 0.88914 0.49237 0.84980
 H129 H 0.86725 0.48075 0.85393
 C130 C 0.90360 0.50707 0.87641
 H131 H 0.89324 0.50483 0.90118
 N132 N 0.90178 0.49380 0.81847
 C133 C 0.90525 0.43836 0.73409
 H134 H 0.89284 0.41962 0.74744
 C135 C 0.92201 0.43070 0.70496
 H136 H 0.92153 0.40643 0.69574
 C137 C 0.91823 0.49319 0.72727
 H138 H 0.91577 0.51771 0.73521
 C139 C 0.93536 0.48656 0.69832
 H140 H 0.94544 0.50619 0.68385
 Zn141 Zn 0.87758 0.48116 0.78205
 N142 N 0.90321 0.46932 0.74443
 C143 C 0.83673 0.51798 0.74238
 N144 N 0.85358 0.51757 0.77047
 C145 C 0.85445 0.54350 0.79090
 C146 C 0.83840 0.57111 0.78336
 C147 C 0.82024 0.54528 0.73388
 C148 C 0.86538 0.41923 0.80838
 C149 C 0.84825 0.39138 0.81511
 C150 C 0.80339 0.41905 0.79805
 C151 C 0.82142 0.44637 0.79140
 N152 N 0.85201 0.44569 0.79564
 H153 H 0.83635 0.49726 0.72638
 H154 H 0.86785 0.54313 0.81308
 H155 H 0.83977 0.59159 0.79968
 H156 H 0.80721 0.54550 0.71130
 H157 H 0.88966 0.41933 0.81189
 H158 H 0.85952 0.36995 0.82338
 H159 H 0.77940 0.41939 0.79283
 H160 H 0.81108 0.46766 0.78164
 C161 C 0.93670 0.45514 0.68629
 C162 C 0.93128 0.52398 0.87089
 C163 C 0.81696 0.39089 0.80930
 C164 C 0.82139 0.57242 0.75435
 C165 C 0.20255 0.43170 0.95839
 H166 H 0.20851 0.41840 0.93625
 C167 C 0.17492 0.44774 0.95988
 H168 H 0.15986 0.44637 0.93893
 C169 C 0.21403 0.44891 1.01284
 H170 H 0.22945 0.44981 1.03330
 C171 C 0.18628 0.46457 1.01575
 H172 H 0.18014 0.47605 1.03907
 N173 N 0.22069 0.43099 0.98544
 C174 C 0.30750 0.40629 1.02087
 H175 H 0.29893 0.38622 1.03561
 C176 C 0.33783 0.41564 1.02348
 H177 H 0.35239 0.40270 1.04014
 C178 C 0.30032 0.44501 0.97819
 H179 H 0.28580 0.45536 0.95968
 C180 C 0.33071 0.45484 0.97968
 H181 H 0.33970 0.47263 0.96210
 Zn182 Zn 0.25241 0.40025 0.98770
 N183 N 0.28980 0.42017 0.99759
 C184 C 0.28202 0.38196 0.92579
 N185 N 0.25666 0.37863 0.94595
 C186 C 0.23266 0.36038 0.93648
 C187 C 0.23308 0.34555 0.90553
 C188 C 0.28290 0.36844 0.89379
 C189 C 0.23788 0.38178 1.05391
 C190 C 0.22916 0.36159 1.08035
 C191 C 0.22890 0.31728 1.04219
 C192 C 0.23785 0.33836 1.01638
 N193 N 0.24165 0.37018 1.02244
 H194 H 0.30114 0.39611 0.93381
 H195 H 0.21269 0.35814 0.95269
 H196 H 0.21333 0.33186 0.89813
 H197 H 0.30228 0.37289 0.87712
 H198 H 0.24268 0.40654 1.05894
 H199 H 0.22702 0.37133 1.10524
 H200 H 0.22616 0.29204 1.03698
 H201 H 0.24228 0.32896 0.99177
 C202 C 0.34993 0.43907 1.00159
 C203 C 0.16586 0.46318 0.98945
 C204 C 0.22432 0.32892 1.07468
 C205 C 0.25771 0.35087 0.88310
 C206 C 0.80200 0.04367 1.00172
 H207 H 0.78278 0.02890 1.00957
 C208 C 0.83047 0.02995 0.99809
 H209 H 0.83252 0.00440 1.00202
 C210 C 0.82277 0.09477 0.98765
 H211 H 0.81959 0.12024 0.98462
 C212 C 0.85171 0.08195 0.98337
 H213 H 0.87071 0.09778 0.97705
 N214 N 0.79874 0.07561 0.99697
 C215 C 0.71669 0.06759 1.05250
 H216 H 0.72370 0.08589 1.06969
 C217 C 0.68962 0.05050 1.05906
 H218 H 0.67578 0.05630 1.08088
 C219 C 0.72314 0.04171 1.00036
 H220 H 0.73532 0.03981 0.97665
 C221 C 0.69649 0.02384 1.00612
 H222 H 0.68800 0.00873 0.98646
 Zn223 Zn 0.76147 0.09492 1.00792
 N224 N 0.73199 0.06403 1.02279
 C225 C 0.71640 0.12757 0.97298
 N226 N 0.74514 0.11607 0.97027
 C227 C 0.76119 0.11805 0.94085
 C228 C 0.74903 0.13345 0.91328
 C229 C 0.70310 0.14256 0.94566
 C230 C 0.78260 0.11234 1.07031
 C231 C 0.78668 0.13181 1.09805
 C232 C 0.76590 0.17589 1.06693
 C233 C 0.76224 0.15557 1.03975
 N234 N 0.76951 0.12416 1.04242
 H235 H 0.70374 0.12493 0.99638
 H236 H 0.78342 0.10765 0.93856
 H237 H 0.76224 0.13468 0.89017
 H238 H 0.68002 0.15097 0.94805
 H239 H 0.78849 0.08732 1.07152
 H240 H 0.79490 0.12158 1.12102
 H241 H 0.75792 0.20024 1.06557
 H242 H 0.75237 0.16456 1.01714
 C243 C 0.67846 0.02981 1.03472
 C244 C 0.85610 0.04933 0.99024
 C245 C 0.77732 0.16365 1.09677
 C246 C 0.71995 0.14684 0.91564
 C247 C 0.28806 0.59226 0.47974
 H248 H 0.27545 0.60346 0.46010
 C249 C 0.31682 0.57966 0.47258
 H250 H 0.32615 0.58086 0.44729
 C251 C 0.29184 0.57751 0.53683
 H252 H 0.28220 0.57745 0.56197
 C253 C 0.32070 0.56538 0.53096
 H254 H 0.33320 0.55593 0.55173
 N255 N 0.27638 0.59117 0.51158
 C256 C 0.18342 0.59071 0.55237
 H257 H 0.18011 0.61559 0.55825
 C258 C 0.15847 0.56991 0.55431
 H259 H 0.13664 0.57910 0.56233
 C260 C 0.21383 0.55019 0.52835
 H261 H 0.23510 0.54300 0.51685
 C262 C 0.18895 0.52886 0.52869
 H263 H 0.19113 0.50575 0.51692
 Zn264 Zn 0.24071 0.61232 0.52598
 N265 N 0.21028 0.58100 0.53860
 C266 C 0.19642 0.63612 0.48174
 N267 N 0.22568 0.63926 0.49174
 C268 C 0.24496 0.66117 0.47702
 C269 C 0.23589 0.67890 0.44938
 C270 C 0.18621 0.65388 0.45462
 C271 C 0.23598 0.64185 0.59023
 C272 C 0.24674 0.66029 0.61624
 C273 C 0.29331 0.67004 0.58438
 C274 C 0.28108 0.65252 0.55828
 N275 N 0.25304 0.63845 0.56175
 H276 H 0.18127 0.61880 0.49358
 H277 H 0.26801 0.66348 0.48543
 H278 H 0.25230 0.69410 0.43600
 H279 H 0.16368 0.64940 0.44532
 H280 H 0.21435 0.62989 0.59341
 H281 H 0.23286 0.66269 0.63881
 H282 H 0.31627 0.67955 0.58201
 H283 H 0.29456 0.64906 0.53568
 C284 C 0.16056 0.53936 0.54031
 C285 C 0.33346 0.56607 0.49849
 C286 C 0.27585 0.67431 0.61364
 C287 C 0.20658 0.67437 0.43727
 C288 C 0.67912 0.92220 0.47154
 H289 H 0.68766 0.90750 0.45144
 C290 C 0.65501 0.94274 0.46577
 H291 H 0.64419 0.94270 0.44177
 C292 C 0.68184 0.93960 0.52762
 H293 H 0.69243 0.93815 0.55168
 C294 C 0.65777 0.96041 0.52295
 H295 H 0.64907 0.97419 0.54379
 N296 N 0.69128 0.92019 0.50244
 C297 C 0.77373 0.91455 0.54869
 H298 H 0.76633 0.89760 0.56781
 C299 C 0.80149 0.93072 0.55168
 H300 H 0.81589 0.92525 0.57246
 C301 C 0.76555 0.94047 0.49678
 H302 H 0.75178 0.94334 0.47498
 C303 C 0.79304 0.95713 0.49878
 H304 H 0.80084 0.97224 0.47807
 Zn305 Zn 0.72360 0.89203 0.51089
 N306 N 0.75736 0.91834 0.52056
 C307 C 0.75995 0.86975 0.45566
 N308 N 0.73249 0.86722 0.47203
 C309 C 0.71009 0.84784 0.46041
 C310 C 0.71396 0.83223 0.42985
 C311 C 0.76480 0.85449 0.42503
 C312 C 0.68732 0.86322 0.56450
 C313 C 0.68177 0.84131 0.59079
 C314 C 0.73183 0.81999 0.58076
 C315 C 0.73629 0.84198 0.55461
 N316 N 0.71436 0.86327 0.54714
 H317 H 0.77782 0.88450 0.46562
 H318 H 0.68861 0.84589 0.47405
 H319 H 0.69528 0.81857 0.41978
 H320 H 0.78605 0.85821 0.41123
 H321 H 0.66994 0.87998 0.55793
 H322 H 0.66019 0.84147 0.60438
 H323 H 0.74987 0.80373 0.58678
 H324 H 0.75750 0.84232 0.54033
 C325 C 0.81191 0.95098 0.52564
 C326 C 0.64380 0.96162 0.49190
 C327 C 0.70412 0.81911 0.59893
 C328 C 0.74128 0.83625 0.41147
 C329 C 0.01752 0.27985 0.40740
 H330 H 0.02740 0.25687 0.41260
 C331 C 0.01730 0.30317 0.43224
 H332 H 0.02575 0.29702 0.45658
 C333 C -0.00913 0.31362 0.37108
 H334 H -0.02048 0.31731 0.34778
 C335 C -0.00738 0.33863 0.39406
 H336 H -0.01684 0.36154 0.38752
 N337 N 0.00264 0.28456 0.37837
 C338 C -0.01085 0.18242 0.36480
 H339 H -0.00563 0.18026 0.33835
 C340 C -0.01511 0.15499 0.38463
 H341 H -0.01391 0.13198 0.37250
 C342 C -0.02081 0.21517 0.41149
 H343 H -0.02443 0.23856 0.42186
 C344 C -0.02338 0.18848 0.43264
 H345 H -0.02590 0.19257 0.45921
 Zn346 Zn -0.00453 0.24824 0.35033
 N347 N -0.01293 0.21186 0.37857
 C348 C 0.03213 0.24348 0.28937
 N349 N 0.03148 0.24048 0.32337
 C350 C 0.05717 0.23321 0.33983
 C351 C 0.08493 0.23032 0.32238
 C352 C 0.05965 0.24203 0.27108
 C353 C -0.06460 0.23649 0.33034
 C354 C -0.09024 0.23865 0.31068
 C355 C -0.06326 0.27690 0.27518
 C356 C -0.03856 0.27517 0.29648
 N357 N -0.03924 0.25446 0.32299
 H358 H 0.01162 0.24795 0.27617
 H359 H 0.05626 0.23037 0.36672
 H360 H 0.10520 0.22530 0.33617
 H361 H 0.05991 0.24696 0.24447
 H362 H -0.06514 0.22044 0.35165
 H363 H -0.11026 0.22447 0.31731
 H364 H -0.06167 0.29227 0.25327
 H365 H -0.01855 0.28984 0.29130
 C366 C -0.02060 0.15747 0.41955
 C367 C 0.00499 0.33337 0.42581
 C368 C -0.08990 0.25906 0.28267
 C369 C 0.08666 0.23560 0.28758
 C370 C 0.02096 0.69893 0.11966
 H371 H 0.04233 0.71190 0.12093
 C372 C 0.01968 0.66986 0.10249
 H373 H 0.04010 0.66040 0.09089
 C374 C -0.03151 0.69487 0.13375
 H375 H -0.05150 0.70443 0.14597
 C376 C -0.03383 0.66593 0.11672
 H377 H -0.05553 0.65345 0.11615
 N378 N -0.00443 0.71088 0.13499
 C379 C -0.00479 0.81538 0.13412
 H380 H -0.01446 0.81976 0.15874
 C381 C -0.00177 0.84063 0.11097
 H382 H -0.00888 0.86437 0.11808
 C383 C 0.01554 0.77923 0.09455
 H384 H 0.02209 0.75533 0.08789
 C385 C 0.01931 0.80387 0.07080
 H386 H 0.02914 0.79869 0.04639
 Zn387 Zn -0.00301 0.75118 0.15783
 N388 N 0.00371 0.78525 0.12565
 C389 C 0.03416 0.78002 0.20591
 N390 N 0.02829 0.75189 0.19024
 C391 C 0.04476 0.72534 0.19692
 C392 C 0.06975 0.72724 0.21781
 C393 C 0.05886 0.78293 0.22706
 C394 C -0.06493 0.76649 0.16204
 C395 C -0.09339 0.77090 0.17728
 C396 C -0.07211 0.75753 0.23050
 C397 C -0.04392 0.75350 0.21415
 N398 N -0.04093 0.75772 0.18047
 H399 H 0.02053 0.80070 0.20074
 H400 H 0.03937 0.70296 0.18501
 H401 H 0.08416 0.70665 0.22069
 H402 H 0.06474 0.80611 0.23711
 H403 H -0.06201 0.76965 0.13528
 H404 H -0.11210 0.77674 0.16136
 H405 H -0.07323 0.75566 0.25751
 H406 H -0.02441 0.74702 0.22847
 C407 C 0.01008 0.83495 0.07868
 C408 C -0.00795 0.65289 0.10124
 C409 C -0.09788 0.76572 0.21211
 C410 C 0.07760 0.75660 0.23219
 C411 C 0.49825 0.23717 0.59721
 H412 H 0.51361 0.25599 0.58851
 C413 C 0.49469 0.20980 0.57768
 H414 H 0.50578 0.20933 0.55329
 C415 C 0.46640 0.21510 0.63996
 H416 H 0.45540 0.21722 0.66431
 C417 C 0.46496 0.18610 0.62293
 H418 H 0.45411 0.16591 0.63563
 N419 N 0.48215 0.24042 0.62650
 C420 C 0.48880 0.34481 0.63789
 H421 H 0.48768 0.34628 0.66487
 C422 C 0.49335 0.37251 0.61864
 H423 H 0.49545 0.39537 0.63096
 C424 C 0.48517 0.31376 0.58903
 H425 H 0.47919 0.29161 0.57727
 C426 C 0.49121 0.34053 0.56885
 H427 H 0.49198 0.33793 0.54194
 Zn428 Zn 0.48306 0.27934 0.65162
 N429 N 0.48650 0.31585 0.62292
 C430 C 0.53891 0.29938 0.68033
 N431 N 0.51619 0.27694 0.68090
 C432 C 0.51704 0.25097 0.70160
 C433 C 0.54151 0.24663 0.72258
 C434 C 0.56365 0.29612 0.70117
 C435 C 0.42203 0.29252 0.65840
 C436 C 0.39361 0.29613 0.67377
 C437 C 0.41547 0.28386 0.72707
 C438 C 0.44389 0.28137 0.71068
 N439 N 0.44633 0.28445 0.67674
 H440 H 0.53846 0.31932 0.66308
 H441 H 0.49897 0.23322 0.70128
 H442 H 0.54248 0.22532 0.73808
 H443 H 0.58211 0.31352 0.69972
 H444 H 0.42464 0.29532 0.63158
 H445 H 0.37413 0.30065 0.65850
 H446 H 0.41318 0.27869 0.75359
 H447 H 0.46359 0.27572 0.72499
 C448 C 0.49658 0.37020 0.58371
 C449 C 0.47710 0.18370 0.59000
 C450 C 0.38988 0.29050 0.70826
 C451 C 0.56516 0.26936 0.72235
 C452 C 0.53260 0.80117 0.91466
 H453 H 0.54879 0.80329 0.89405
 C454 C 0.53182 0.82476 0.93912
 H455 H 0.54653 0.84565 0.93637
 C456 C 0.49190 0.77310 0.94218
 H457 H 0.47585 0.75327 0.94266
 C458 C 0.49087 0.79569 0.96765
 H459 H 0.47333 0.79387 0.98707
 N460 N 0.51170 0.77692 0.91569
 C461 C 0.48165 0.68589 0.89922
 H462 H 0.46332 0.69196 0.88301
 C463 C 0.48208 0.65568 0.91431
 H464 H 0.46469 0.63810 0.90870
 C465 C 0.52784 0.70029 0.92481
 H466 H 0.54585 0.71773 0.92820
 C467 C 0.52910 0.67049 0.94049
 H468 H 0.54856 0.66453 0.95523
 Zn469 Zn 0.50809 0.74662 0.88111
 N470 N 0.50506 0.70687 0.90356
 C471 C 0.55892 0.71948 0.84835
 N472 N 0.54278 0.74689 0.85142
 C473 C 0.55131 0.77382 0.83394
 C474 C 0.57852 0.77463 0.81492
 C475 C 0.58596 0.71916 0.82947
 C476 C 0.45412 0.77894 0.86402
 C477 C 0.42711 0.78324 0.84698
 C478 C 0.43943 0.73750 0.81297
 C479 C 0.46634 0.73423 0.83044
 N480 N 0.47276 0.75427 0.85603
 H481 H 0.55135 0.69792 0.86127
 H482 H 0.53765 0.79506 0.83586
 H483 H 0.58618 0.79671 0.80290
 H484 H 0.59942 0.69766 0.82881
 H485 H 0.45980 0.79485 0.88414
 H486 H 0.41187 0.80219 0.85432
 H487 H 0.43385 0.72058 0.79364
 H488 H 0.48167 0.71501 0.82437
 C489 C 0.50659 0.64756 0.93421
 C490 C 0.50983 0.82278 0.96505
 C491 C 0.41940 0.76204 0.82151
 C492 C 0.59646 0.74723 0.81342
 C493 C -0.20008 0.63486 0.93695
 H494 H -0.18431 0.62075 0.95077
 C495 C -0.18939 0.65247 0.90918
 H496 H -0.16573 0.65109 0.90128
 C497 C -0.24960 0.65532 0.93102
 H498 H -0.27302 0.65629 0.93973
 C499 C -0.23979 0.67357 0.90331
 H500 H -0.25579 0.68843 0.89043
 N501 N -0.22997 0.63568 0.94664
 C502 C -0.28110 0.63760 1.03739
 H503 H -0.29947 0.62173 1.03062
 C504 C -0.28437 0.65700 1.06578
 H505 H -0.30507 0.65521 1.08092
 C506 C -0.23149 0.65830 1.02661
 H507 H -0.21088 0.65866 1.01131
 C508 C -0.23390 0.67814 1.05423
 H509 H -0.21511 0.69423 1.05933
 Zn510 Zn -0.24479 0.60999 0.98321
 N511 N -0.25442 0.63775 1.01931
 C512 C -0.20539 0.57840 1.02798
 N513 N -0.21428 0.58134 0.99582
 C514 C -0.20144 0.56369 0.97104
 C515 C -0.17659 0.54460 0.97743
 C516 C -0.18162 0.55804 1.03587
 C517 C -0.29023 0.56455 0.99554
 C518 C -0.31505 0.54473 0.98909
 C519 C -0.31395 0.56423 0.93202
 C520 C -0.28907 0.58378 0.93958
 N521 N -0.27834 0.58424 0.97121
 H522 H -0.21654 0.59203 1.04747
 H523 H -0.20935 0.56604 0.94578
 H524 H -0.16492 0.53343 0.95656
 H525 H -0.17478 0.55610 1.06159
 H526 H -0.28072 0.56476 1.02021
 H527 H -0.32526 0.53028 1.00908
 H528 H -0.32331 0.56505 0.90726
 H529 H -0.27861 0.59870 0.92024
 C530 C -0.25974 0.67624 1.07574
 C531 C -0.20944 0.67190 0.89202
 C532 C -0.32735 0.54481 0.95715
 C533 C -0.16628 0.54136 1.01025
 C534 C -0.22908 0.34726 0.55916
 H535 H -0.21622 0.34219 0.53647
 C536 C -0.22261 0.33186 0.58773
 H537 H -0.20458 0.31451 0.58763
 C538 C -0.26715 0.37859 0.58596
 H539 H -0.28341 0.39762 0.58598
 C540 C -0.26096 0.36229 0.61768
 H541 H -0.27511 0.36825 0.63921
 N542 N -0.25251 0.37105 0.55861
 C543 C -0.27966 0.38501 0.45489
 H544 H -0.28416 0.41030 0.45656
 C545 C -0.28145 0.36991 0.42413
 H546 H -0.28726 0.38361 0.40216
 C547 C -0.26381 0.33700 0.48076
 H548 H -0.25645 0.32443 0.50271
 C549 C -0.26483 0.32103 0.45022
 H550 H -0.25772 0.29637 0.44867
 Zn551 Zn -0.26032 0.39504 0.51882
 N552 N -0.26977 0.36883 0.48210
 C553 C -0.20840 0.41215 0.47933
 N554 N -0.22471 0.41869 0.50775
 C555 C -0.21432 0.43979 0.53059
 C556 C -0.18544 0.45359 0.52641
 C557 C -0.17937 0.42532 0.47423
 C558 C -0.32014 0.41117 0.53673
 C559 C -0.34610 0.42979 0.53686
 C560 C -0.31681 0.47266 0.51044
 C561 C -0.29103 0.45365 0.51228
 N562 N -0.29325 0.42329 0.52469
 H563 H -0.21689 0.39497 0.46176
 H564 H -0.22770 0.44427 0.55307
 H565 H -0.17629 0.46823 0.54606
 H566 H -0.16548 0.41781 0.45305
 H567 H -0.32161 0.38661 0.54545
 H568 H -0.36703 0.41946 0.54720
 H569 H -0.31476 0.49528 0.49717
 H570 H -0.26972 0.46234 0.50142
 C571 C -0.27249 0.33805 0.42138
 C572 C -0.23887 0.34025 0.61947
 C573 C -0.34520 0.46079 0.52248
 C574 C -0.16729 0.44519 0.49866
 C575 C 0.28229 -0.17904 0.06050
 H576 H 0.28917 -0.19050 0.03743
 C577 C 0.29128 -0.19078 0.08990
 H578 H 0.30565 -0.21155 0.08994
 C579 C 0.25737 -0.13515 0.08638
 H580 H 0.24657 -0.11216 0.08496
 C581 C 0.26490 -0.14826 0.11915
 H582 H 0.25504 -0.13659 0.14079
 N583 N 0.26475 -0.15030 0.05927
 C584 C 0.26740 -0.15780 -0.04471
 H585 H 0.28801 -0.14370 -0.04694
 C586 C 0.25683 -0.17315 -0.07283
 H587 H 0.27006 -0.17144 -0.09601
 C588 C 0.22334 -0.17434 -0.01354
 H589 H 0.20999 -0.17365 0.00951
 C590 C 0.21137 -0.18926 -0.04164
 H591 H 0.18887 -0.20006 -0.04028
 Zn592 Zn 0.25930 -0.12893 0.01840
 N593 N 0.25035 -0.15799 -0.01597
 C594 C 0.32143 -0.12071 0.00116
 N595 N 0.29568 -0.10504 0.01022
 C596 C 0.29660 -0.07349 0.01834
 C597 C 0.32400 -0.05630 0.01659
 C598 C 0.34909 -0.10421 -0.00203
 C599 C 0.20095 -0.10863 0.03995
 C600 C 0.17408 -0.09176 0.03684
 C601 C 0.19777 -0.06077 -0.00814
 C602 C 0.22416 -0.07836 -0.00423
 N603 N 0.22548 -0.10145 0.01983
 H604 H 0.32065 -0.14626 -0.00283
 H605 H 0.27638 -0.06195 0.02782
 H606 H 0.32459 -0.03163 0.02463
 H607 H 0.36937 -0.11705 -0.00933
 H608 H 0.20163 -0.12852 0.05733
 H609 H 0.15478 -0.09819 0.05298
 H610 H 0.19687 -0.04384 -0.02873
 H611 H 0.24321 -0.07461 -0.02149
 C612 C 0.22779 -0.18746 -0.07198
 C613 C 0.28246 -0.17443 0.12167
 C614 C 0.17203 -0.06743 0.01244
 C615 C 0.35064 -0.07160 0.00593
 C616 C 0.22802 1.14661 0.43675
 H617 H 0.20579 1.14981 0.44827
 C618 C 0.23733 1.16571 0.40971
 H619 H 0.22182 1.18286 0.39938
 C620 C 0.27548 1.12034 0.43604
 H621 H 0.29053 1.10319 0.44689
 C622 C 0.28563 1.13881 0.40865
 H623 H 0.30793 1.13490 0.39749
 N624 N 0.24685 1.12412 0.44897
 C625 C 0.19311 1.13664 0.53163
 H626 H 0.17669 1.11789 0.52704
 C627 C 0.18579 1.16079 0.55408
 H628 H 0.16426 1.15994 0.56780
 C629 C 0.24189 1.16004 0.52105
 H630 H 0.26380 1.15925 0.50825
 C631 C 0.23550 1.18465 0.54313
 H632 H 0.25284 1.20244 0.54827
 Zn633 Zn 0.23310 1.10313 0.48820
 N634 N 0.22126 1.13606 0.51681
 C635 C 0.27767 1.08962 0.53552
 N636 N 0.26493 1.07964 0.50672
 C637 C 0.27656 1.05480 0.48904
 C638 C 0.30387 1.04114 0.49832
 C639 C 0.30501 1.07676 0.54560
 C640 C 0.18243 1.07864 0.45362
 C641 C 0.15390 1.06372 0.45274
 C642 C 0.16186 1.04237 0.50818
 C643 C 0.19013 1.05770 0.50803
 N644 N 0.19934 1.07622 0.48149
 H645 H 0.26767 1.10882 0.54969
 H646 H 0.26578 1.04722 0.46638
 H647 H 0.31429 1.02308 0.48273
 H648 H 0.31623 1.08645 0.56714
 H649 H 0.19024 1.09349 0.43283
 H650 H 0.13984 1.06697 0.43120
 H651 H 0.15396 1.02914 0.53019
 H652 H 0.20393 1.05662 0.52998
 C653 C 0.20753 1.18449 0.56051
 C654 C 0.26631 1.16165 0.39539
 C655 C 0.14321 1.04596 0.48059
 C656 C 0.31877 1.05309 0.52618
 C657 C 0.16800 0.45734 0.27512
 H658 H 0.17039 0.47666 0.29257
 C659 C 0.18649 0.43041 0.27801
 H660 H 0.20328 0.42937 0.29728
 C661 C 0.14461 0.43510 0.22783
 H662 H 0.12910 0.43673 0.20757
 C663 C 0.16216 0.40798 0.23006
 H664 H 0.15986 0.38951 0.21152
 N665 N 0.14773 0.45940 0.24994
 C666 C 0.12862 0.55576 0.21316
 H667 H 0.10493 0.55195 0.20768
 C668 C 0.14201 0.58569 0.20696
 H669 H 0.12838 0.60484 0.19719
 C670 C 0.17393 0.53679 0.23666
 H671 H 0.18598 0.51793 0.24904
 C672 C 0.18770 0.56698 0.23250
 H673 H 0.20993 0.57143 0.24261
 Zn674 Zn 0.12196 0.49514 0.24268
 N675 N 0.14443 0.53216 0.22827
 C676 C 0.11779 0.51646 0.30874
 N677 N 0.10067 0.50600 0.28307
 C678 C 0.06988 0.50357 0.28658
 C679 C 0.05559 0.50871 0.31761
 C680 C 0.10441 0.52228 0.34007
 C681 C 0.10271 0.49192 0.17676
 C682 C 0.08641 0.48055 0.15000
 C683 C 0.05518 0.44895 0.18854
 C684 C 0.07248 0.46070 0.21466
 N685 N 0.09501 0.48278 0.20854
 H686 H 0.14198 0.51998 0.30504
 H687 H 0.05620 0.49723 0.26564
 H688 H 0.03128 0.50492 0.32049
 H689 H 0.11851 0.52954 0.36054
 H690 H 0.12235 0.50711 0.17182
 H691 H 0.09284 0.48915 0.12514
 H692 H 0.03855 0.43018 0.19399
 H693 H 0.06889 0.45093 0.23957
 C694 C 0.17106 0.59212 0.21895
 C695 C 0.18384 0.40571 0.25478
 C696 C 0.06148 0.45943 0.15551
 C697 C 0.07300 0.51772 0.34493
 C698 C -0.11456 1.07804 0.25029
 H699 H -0.09023 1.07865 0.24577
 C700 C -0.13010 1.10658 0.25609
 H701 H -0.11766 1.12912 0.25602
 C702 C -0.16083 1.04852 0.25326
 H703 H -0.17327 1.02640 0.25061
 C704 C -0.17706 1.07619 0.25991
 H705 H -0.20153 1.07466 0.26320
 N706 N -0.13003 1.04965 0.24915
 C707 C -0.14107 0.96108 0.20405
 H708 H -0.12705 0.96649 0.18216
 C709 C -0.16257 0.93618 0.20308
 H710 H -0.16487 0.92242 0.18045
 C711 C -0.15350 0.97007 0.26118
 H712 H -0.14935 0.98303 0.28395
 C713 C -0.17564 0.94609 0.26107
 H714 H -0.18856 0.94062 0.28385
 Zn715 Zn -0.10881 1.01154 0.23771
 N716 N -0.13734 0.97776 0.23276
 C717 C -0.07666 0.96585 0.27322
 N718 N -0.08268 0.99774 0.27167
 C719 C -0.07355 1.01797 0.29590
 C720 C -0.05995 1.00587 0.32433
 C721 C -0.06382 0.95259 0.30172
 C722 C -0.10040 1.02511 0.16924
 C723 C -0.08369 1.03225 0.14002
 C724 C -0.03786 1.03177 0.17189
 C725 C -0.05538 1.02347 0.20023
 N726 N -0.08598 1.02008 0.19835
 H727 H -0.08415 0.95028 0.25352
 H728 H -0.07857 1.04314 0.29426
 H729 H -0.05512 1.02187 0.34475
 H730 H -0.06221 0.92687 0.30431
 H731 H -0.12488 1.02300 0.16862
 H732 H -0.09579 1.03357 0.11687
 H733 H -0.01371 1.03542 0.17476
 H734 H -0.04454 1.02043 0.22397
 C735 C -0.18044 0.92884 0.23176
 C736 C -0.16176 1.10570 0.26136
 C737 C -0.05181 1.03619 0.14083
 C738 C -0.05669 0.97265 0.32825
 C739 C 0.35911 0.54841 -0.21988
 H740 H 0.37072 0.53302 -0.20268
 C741 C 0.34491 0.57606 -0.20809
 H742 H 0.34565 0.58199 -0.18183
 C743 C 0.34536 0.56084 -0.27538
 H744 H 0.34629 0.55515 -0.30171
 C745 C 0.33087 0.58845 -0.26471
 H746 H 0.32052 0.60400 -0.28286
 N747 N 0.35907 0.54143 -0.25307
 C748 C 0.36402 0.44317 -0.28981
 H749 H 0.38807 0.43875 -0.28789
 C750 C 0.34449 0.41868 -0.29279
 H751 H 0.35309 0.39454 -0.29290
 C752 C 0.32453 0.48163 -0.29086
 H753 H 0.31645 0.50570 -0.28806
 C754 C 0.30237 0.45551 -0.29577
 H755 H 0.27886 0.46163 -0.29936
 Zn756 Zn 0.38053 0.50660 -0.27160
 N757 N 0.35308 0.47530 -0.28712
 C758 C 0.38832 0.46802 -0.21608
 N759 N 0.40419 0.48635 -0.23887
 C760 C 0.43502 0.48893 -0.23814
 C761 C 0.45084 0.47429 -0.21237
 C762 C 0.40325 0.45231 -0.19059
 C763 C 0.39921 0.51382 -0.33898
 C764 C 0.41401 0.52904 -0.36605
 C765 C 0.43981 0.56362 -0.32744
 C766 C 0.42416 0.54805 -0.30109
 N767 N 0.40449 0.52355 -0.30729
 H768 H 0.36386 0.46605 -0.21745
 H769 H 0.44729 0.50314 -0.25681
 H770 H 0.47509 0.47836 -0.21067
 H771 H 0.39009 0.43866 -0.17206
 H772 H 0.38301 0.49475 -0.34331
 H773 H 0.40974 0.52113 -0.39124
 H774 H 0.45558 0.58298 -0.32235
 H775 H 0.42721 0.55588 -0.27568
 C776 C 0.31129 0.42482 -0.29393
 C777 C 0.33068 0.59635 -0.23078
 C778 C 0.43440 0.55433 -0.36032
 C779 C 0.43482 0.45608 -0.18790
 C780 C 0.67593 -0.04625 -0.24916
 H781 H 0.68512 -0.02296 -0.25605
 C782 C 0.69406 -0.07169 -0.25021
 H783 H 0.71790 -0.06835 -0.25685
 C784 C 0.63324 -0.07770 -0.23028
 H785 H 0.60920 -0.08091 -0.22576
 C786 C 0.65254 -0.10628 -0.23046
 H787 H 0.64190 -0.12919 -0.22436
 N788 N 0.64422 -0.04997 -0.24012
 C789 C 0.65741 0.03338 -0.23842
 H790 H 0.65952 0.01989 -0.21541
 C791 C 0.66933 0.06434 -0.24079
 H792 H 0.68118 0.07418 -0.21972
 C793 C 0.63689 0.03777 -0.29243
 H794 H 0.62292 0.02785 -0.31173
 C795 C 0.64944 0.06871 -0.29635
 H796 H 0.64491 0.08235 -0.31878
 Zn797 Zn 0.61722 -0.01593 -0.25037
 N798 N 0.64037 0.02124 -0.26332
 C799 C 0.58971 0.02868 -0.20723
 N800 N 0.59197 -0.00322 -0.21377
 C801 C 0.57603 -0.02520 -0.19498
 C802 C 0.56071 -0.01586 -0.16590
 C803 C 0.57489 0.03907 -0.17821
 C804 C 0.59552 -0.05834 -0.29975
 C805 C 0.57736 -0.06678 -0.32647
 C806 C 0.54925 -0.01812 -0.31786
 C807 C 0.56776 -0.01072 -0.29129
 N808 N 0.59125 -0.02997 -0.28387
 H809 H 0.60033 0.04626 -0.22376
 H810 H 0.57618 -0.05009 -0.20154
 H811 H 0.55053 -0.03391 -0.14939
 H812 H 0.57593 0.06409 -0.17147
 H813 H 0.61428 -0.07338 -0.29342
 H814 H 0.58303 -0.08749 -0.34133
 H815 H 0.53268 -0.00090 -0.32580
 H816 H 0.56458 0.01134 -0.27780
 C817 C 0.66513 0.08275 -0.26979
 C818 C 0.68147 -0.10418 -0.24227
 C819 C 0.55540 -0.04530 -0.33703
 C820 C 0.56168 0.01634 -0.15648
 C821 C 0.04247 0.26665 0.83295
 H822 H 0.04592 0.26449 0.85954
 C823 C 0.06695 0.27334 0.81128
 H824 H 0.08959 0.27557 0.82109
 C825 C 0.00890 0.26561 0.78750
 H826 H -0.01383 0.26315 0.77834
 C827 C 0.03290 0.27181 0.76481
 H828 H 0.02880 0.27278 0.73825
 N829 N 0.01428 0.26213 0.82072
 C830 C -0.07546 0.27549 0.83380
 H831 H -0.07250 0.29411 0.85195
 C832 C -0.10215 0.27423 0.81585
 H833 H -0.11987 0.29137 0.82100
 C834 C -0.05798 0.22826 0.80758
 H835 H -0.04062 0.21035 0.80474
 C836 C -0.08453 0.22587 0.78941
 H837 H -0.08834 0.20526 0.77377
 Zn838 Zn -0.01709 0.25364 0.85239
 N839 N -0.05408 0.25259 0.82951
 C840 C -0.01913 0.31776 0.87035
 N841 N -0.01513 0.28787 0.88299
 C842 C -0.00575 0.28336 0.91484
 C843 C 0.00079 0.30969 0.93495
 C844 C -0.01406 0.34455 0.88996
 C845 C 0.01184 0.19404 0.86517
 C846 C 0.01599 0.16466 0.88143
 C847 C -0.02822 0.17505 0.91635
 C848 C -0.03165 0.20417 0.89931
 N849 N -0.01153 0.21332 0.87450
 H850 H -0.02536 0.32084 0.84456
 H851 H -0.00178 0.25946 0.92408
 H852 H 0.00947 0.30586 0.95972
 H853 H -0.01755 0.36815 0.87947
 H854 H 0.02730 0.20135 0.84504
 H855 H 0.03477 0.14966 0.87390
 H856 H -0.04419 0.16819 0.93626
 H857 H -0.05026 0.21967 0.90606
 C858 C -0.10715 0.24869 0.79414
 C859 C 0.06228 0.27528 0.77678
 C860 C -0.00399 0.15507 0.90759
 C861 C -0.00257 0.34078 0.92212
 C862 C 0.47350 0.23674 0.20252
 H863 H 0.49231 0.23183 0.21837
 C864 C 0.44390 0.23381 0.21575
 H865 H 0.44015 0.22713 0.24176
 C866 C 0.45486 0.25158 0.14961
 H867 H 0.45928 0.25777 0.12362
 C868 C 0.42497 0.24929 0.16191
 H869 H 0.40640 0.25467 0.14564
 N870 N 0.47845 0.24534 0.16989
 C871 C 0.56941 0.27440 0.17810
 H872 H 0.56775 0.29182 0.15819
 C873 C 0.59293 0.27721 0.20075
 H874 H 0.60925 0.29672 0.19777
 C875 C 0.55208 0.22639 0.20444
 H876 H 0.53679 0.20591 0.20496
 C877 C 0.57486 0.22864 0.22806
 H878 H 0.57643 0.21019 0.24706
 Zn879 Zn 0.51772 0.24456 0.14906
 N880 N 0.54927 0.24946 0.18054
 C881 C 0.51862 0.30789 0.12163
 N882 N 0.51989 0.27621 0.11429
 C883 C 0.52059 0.26621 0.08192
 C884 C 0.52062 0.28825 0.05555
 C885 C 0.51897 0.33080 0.09592
 C886 C 0.49744 0.18550 0.12482
 C887 C 0.49903 0.15917 0.10389
 C888 C 0.55205 0.17195 0.09227
 C889 C 0.54945 0.19816 0.11341
 N890 N 0.52221 0.20484 0.12836
 H891 H 0.51709 0.31532 0.14744
 H892 H 0.52019 0.24106 0.07622
 H893 H 0.52050 0.27987 0.03002
 H894 H 0.51789 0.35596 0.10204
 H895 H 0.47610 0.19111 0.13709
 H896 H 0.47908 0.14418 0.10063
 H897 H 0.57354 0.16711 0.07969
 H898 H 0.56866 0.21416 0.11660
 C899 C 0.59561 0.25443 0.22654
 C900 C 0.41935 0.24035 0.19532
 C901 C 0.52632 0.15287 0.08668
 C902 C 0.52018 0.32097 0.06242
 C903 C -0.04343 0.77257 0.64710
 H904 H -0.03671 0.79305 0.63189
 C905 C -0.07200 0.76986 0.65869
 H906 H -0.08808 0.78838 0.65292
 C907 C -0.02826 0.72580 0.67643
 H908 H -0.01167 0.70766 0.68154
 C909 C -0.05965 0.72195 0.69012
 H910 H -0.06510 0.70104 0.70539
 N911 N -0.02187 0.74813 0.65436
 C912 C 0.06824 0.71950 0.65214
 H913 H 0.06442 0.70122 0.63371
 C914 C 0.09346 0.71756 0.67270
 H915 H 0.10929 0.69815 0.66952
 C916 C 0.05286 0.76741 0.67839
 H917 H 0.03684 0.78671 0.68060
 C918 C 0.07783 0.76639 0.69942
 H919 H 0.08139 0.78535 0.71724
 Zn920 Zn 0.01398 0.74626 0.62716
 N921 N 0.04874 0.74442 0.65495
 C922 C 0.03105 0.80908 0.60220
 N923 N 0.01433 0.78193 0.59781
 C924 C -0.00614 0.77966 0.57296
 C925 C -0.01198 0.80593 0.55269
 C926 C 0.02570 0.83618 0.58254
 C927 C 0.03028 0.70950 0.57135
 C928 C 0.02851 0.68415 0.54890
 C929 C -0.01260 0.66137 0.58290
 C930 C -0.01073 0.68758 0.60396
 N931 N 0.01138 0.71027 0.59881
 H932 H 0.04713 0.81036 0.62212
 H933 H -0.01943 0.75794 0.57028
 H934 H -0.02989 0.80449 0.53467
 H935 H 0.03732 0.85852 0.58773
 H936 H 0.04702 0.72840 0.56719
 H937 H 0.04484 0.68267 0.52829
 H938 H -0.02867 0.64218 0.58887
 H939 H -0.02651 0.68909 0.62485
 C940 C 0.09849 0.74126 0.69659
 C941 C -0.08154 0.74151 0.67925
 C942 C 0.00794 0.65892 0.55583
 C943 C 0.00323 0.83481 0.55828
 C944 C 0.52947 0.77867 0.27615
 H945 H 0.50679 0.77514 0.26704
 C946 C 0.55452 0.77574 0.25405
 H947 H 0.55100 0.76984 0.22812
 C948 C 0.56202 0.78807 0.32139
 H949 H 0.56481 0.79169 0.34788
 C950 C 0.58756 0.78561 0.30020
 H951 H 0.61002 0.78759 0.31050
 N952 N 0.53370 0.78379 0.30933
 C953 C 0.44009 0.78987 0.32649
 H954 H 0.44342 0.81165 0.34030
 C955 C 0.41100 0.78182 0.31599
 H956 H 0.39212 0.79724 0.32209
 C957 C 0.45987 0.74249 0.30285
 H958 H 0.47883 0.72706 0.29786
 C959 C 0.43110 0.73353 0.29187
 H960 H 0.42800 0.71104 0.27909
 Zn961 Zn 0.50146 0.77890 0.34175
 N962 N 0.46373 0.76979 0.32078
 C963 C 0.47929 0.81362 0.39719
 N964 N 0.49628 0.81647 0.36844
 C965 C 0.50827 0.84534 0.35878
 C966 C 0.50412 0.87227 0.37900
 C967 C 0.47766 0.83878 0.41976
 C968 C 0.51651 0.71471 0.35364
 C969 C 0.51590 0.68586 0.37153
 C970 C 0.50727 0.71531 0.42228
 C971 C 0.50979 0.74363 0.40360
 N972 N 0.51102 0.74276 0.36953
 H973 H 0.46777 0.79127 0.40333
 H974 H 0.52064 0.84760 0.33516
 H975 H 0.51294 0.89509 0.36992
 H976 H 0.46752 0.83399 0.44420
 H977 H 0.52016 0.71452 0.32686
 H978 H 0.51895 0.66361 0.35828
 H979 H 0.50315 0.71649 0.44903
 H980 H 0.50945 0.76599 0.41664
 C981 C 0.40625 0.75295 0.29932
 C982 C 0.58400 0.77858 0.26628
 C983 C 0.50821 0.68587 0.40584
 C984 C 0.48928 0.86923 0.41067
 B985 B 0.00438 0.01298 1.01277
 B986 B -0.01994 0.00006 0.98386
 B987 B 0.00932 0.02615 0.97284
 B988 B 0.03978 0.01560 0.99484
 B989 B 0.02999 -0.01640 1.01874
 B990 B -0.00670 -0.02560 1.01243
 B991 B 0.02469 -0.03412 0.95343
 B992 B 0.04953 -0.02163 0.98277
 B993 B 0.02029 -0.04723 0.99371
 B994 B -0.01037 -0.03675 0.97202
 B995 B -0.00035 -0.00456 0.94761
 B996 B 0.03686 0.00447 0.95406
 B997 B 0.49083 0.55349 0.51871
 B998 B 0.46558 0.53549 0.49331
 B999 B 0.49331 0.56090 0.47699
 B1000 B 0.52529 0.55491 0.49918
 B1001 B 0.51735 0.52613 0.52790
 B1002 B 0.48081 0.51480 0.52464
 B1003 B 0.51101 0.49986 0.46589
 B1004 B 0.53615 0.51669 0.49225
 B1005 B 0.50841 0.49227 0.50800
 B1006 B 0.47692 0.49827 0.48597
 B1007 B 0.48470 0.52705 0.45714
 B1008 B 0.52179 0.53858 0.46069
 B1009 B 0.50342 0.99786 0.53841
 B1010 B 0.51821 1.01078 0.50165
 B1011 B 0.49028 0.98258 0.50155
 B1012 B 0.46581 0.99054 0.53317
 B1013 B 0.47764 1.02392 0.55289
 B1014 B 0.51013 1.03702 0.53327
 B1015 B 0.46521 1.03995 0.48804
 B1016 B 0.44969 1.02577 0.52451
 B1017 B 0.47700 1.05440 0.52540
 B1018 B 0.50258 1.04679 0.49345
 B1019 B 0.49048 1.01318 0.47368
 B1020 B 0.45771 1.00043 0.49320
 B1021 B 0.00842 0.46685 1.03806
 B1022 B 0.03335 0.48786 1.01281
 B1023 B 0.00765 0.46187 0.99627
 B1024 B -0.02516 0.46414 1.01901
 B1025 B -0.01990 0.49147 1.04916
 B1026 B 0.01631 0.50574 1.04566
 B1027 B -0.01388 0.52222 0.98899
 B1028 B -0.03835 0.50123 1.01431
 B1029 B -0.01260 0.52734 1.03108
 B1030 B 0.01995 0.52519 1.00786
 B1031 B 0.01487 0.49764 0.97790
 B1032 B -0.02116 0.48331 0.98142
 B1033 B 0.01458 0.50127 0.48025
 B1034 B 0.03411 0.49626 0.51553
 B1035 B 0.00588 0.52243 0.51606
 B1036 B -0.02212 0.50718 0.49120
 B1037 B -0.01041 0.47094 0.47725
 B1038 B 0.02441 0.46423 0.49298
 B1039 B -0.01685 0.46862 0.54584
 B1040 B -0.03513 0.47269 0.50994
 B1041 B -0.00628 0.44667 0.51088
 B1042 B 0.02076 0.46236 0.53541
 B1043 B 0.00898 0.49810 0.54891
 B1044 B -0.02549 0.50541 0.53310
 B1045 B 0.52698 0.00660 -0.01481
 B1046 B 0.54614 0.00083 0.02033
 B1047 B 0.51919 0.02860 0.02067
 B1048 B 0.49062 0.01564 -0.00311
 B1049 B 0.49944 -0.02092 -0.01748
 B1050 B 0.53396 -0.03086 -0.00292
 B1051 B 0.49507 -0.02468 0.05088
 B1052 B 0.47542 -0.01700 0.01614
 B1053 B 0.50186 -0.04575 0.01504
 B1054 B 0.53135 -0.03301 0.03908
 B1055 B 0.52221 0.00353 0.05395
 B1056 B 0.48779 0.01355 0.03933
 B1057 B 0.49879 0.45302 -0.06136
 B1058 B 0.48275 0.45855 -0.02334
 B1059 B 0.51257 0.43327 -0.02690
 B1060 B 0.53678 0.44917 -0.05658
 B1061 B 0.52221 0.48400 -0.07027
 B1062 B 0.48902 0.49029 -0.04928
 B1063 B 0.53398 0.48953 -0.00348
 B1064 B 0.55001 0.48438 -0.04173
 B1065 B 0.52063 0.50911 -0.03778
 B1066 B 0.49612 0.49372 -0.00830
 B1067 B 0.51025 0.45873 0.00551
 B1068 B 0.54392 0.45283 -0.01525
 B1069 B -0.03574 0.97958 0.46919
 B1070 B -0.05769 0.98652 0.50315
 B1071 B -0.02889 0.96119 0.50712
 B1072 B 0.00021 0.97446 0.48254
 B1073 B -0.00978 1.00896 0.46428
 B1074 B -0.04609 1.01717 0.47699
 B1075 B -0.01068 1.01848 0.53188
 B1076 B 0.01224 1.00915 0.49842
 B1077 B -0.01655 1.03606 0.49441
 B1078 B -0.04657 1.02268 0.51861
 B1079 B -0.03594 0.98812 0.53701
 B1080 B 0.00000 0.98049 0.52499
 B1081 B 0.75909 0.23813 0.22198
 B1082 B 0.77012 0.22698 0.26091
 B1083 B 0.78775 0.25825 0.24080
 B1084 B 0.76164 0.27841 0.21896
 B1085 B 0.72765 0.25975 0.22633
 B1086 B 0.73331 0.22770 0.25196
 B1087 B 0.74725 0.28163 0.28641
 B1088 B 0.73647 0.29308 0.24720
 B1089 B 0.71857 0.26203 0.26724
 B1090 B 0.74477 0.24130 0.28905
 B1091 B 0.77893 0.26033 0.28196
 B1092 B 0.77317 0.29214 0.25635
 B1093 B 0.73070 0.74699 0.71473
 B1094 B 0.74442 0.77335 0.74288
 B1095 B 0.72276 0.74127 0.75609
 B1096 B 0.73154 0.70965 0.73158
 B1097 B 0.75904 0.72221 0.70372
 B1098 B 0.76653 0.76155 0.71058
 B1099 B 0.78180 0.72807 0.76639
 B1100 B 0.76864 0.70153 0.73774
 B1101 B 0.79010 0.73363 0.72494
 B1102 B 0.78114 0.76518 0.74915
 B1103 B 0.75361 0.75279 0.77693
 B1104 B 0.74607 0.71315 0.77022
 B1105 B 0.23161 0.29267 0.75170
 B1106 B 0.23511 0.30942 0.71291
 B1107 B 0.25661 0.27753 0.72250
 B1108 B 0.23558 0.25272 0.74785
 B1109 B 0.20078 0.26861 0.75311
 B1110 B 0.20080 0.30407 0.73137
 B1111 B 0.20910 0.25682 0.68635
 B1112 B 0.20586 0.23960 0.72451
 B1113 B 0.18429 0.27185 0.71558
 B1114 B 0.20590 0.29677 0.69014
 B1115 B 0.24045 0.28003 0.68489
 B1116 B 0.24008 0.24502 0.70699
 B1117 B 0.21930 0.72729 0.30306
 B1118 B 0.21991 0.71754 0.26226
 B1119 B 0.20504 0.75333 0.27314
 B1120 B 0.22519 0.76753 0.30544
 B1121 B 0.25360 0.74137 0.31331
 B1122 B 0.25055 0.71030 0.28619
 B1123 B 0.26226 0.76488 0.24982
 B1124 B 0.26124 0.77437 0.29099
 B1125 B 0.27631 0.73931 0.27885
 B1126 B 0.25604 0.72456 0.24712
 B1127 B 0.22814 0.75053 0.23932
 B1128 B 0.23134 0.78196 0.26645
 B1129 B 0.27841 0.73795 0.73778
 B1130 B 0.27372 0.72179 0.77634
 B1131 B 0.29264 0.75734 0.77141
 B1132 B 0.27520 0.77805 0.74093
 B1133 B 0.24600 0.75551 0.72751
 B1134 B 0.24468 0.72063 0.74938
 B1135 B 0.23542 0.76971 0.79380
 B1136 B 0.23919 0.78531 0.75496
 B1137 B 0.22072 0.75014 0.75961
 B1138 B 0.23795 0.72927 0.79001
 B1139 B 0.26783 0.75158 0.80367
 B1140 B 0.26877 0.78672 0.78174
 B1141 B 0.23598 0.25970 0.20152
 B1142 B 0.23902 0.27966 0.23774
 B1143 B 0.21451 0.24757 0.23510
 B1144 B 0.23168 0.22037 0.21003
 B1145 B 0.26663 0.23531 0.19821
 B1146 B 0.27052 0.27172 0.21546
 B1147 B 0.26526 0.22758 0.26596
 B1148 B 0.26355 0.20841 0.22908
 B1149 B 0.28726 0.24072 0.23291
 B1150 B 0.26953 0.26712 0.25792
 B1151 B 0.23541 0.25203 0.26960
 B1152 B 0.23115 0.21549 0.25172
 B1153 B 0.74424 0.78663 0.27138
 B1154 B 0.75195 0.80574 0.23489
 B1155 B 0.77560 0.77661 0.24756
 B1156 B 0.75400 0.74767 0.26668
 B1157 B 0.71730 0.75845 0.26513
 B1158 B 0.71589 0.79456 0.24534
 B1159 B 0.73940 0.75147 0.20057
 B1160 B 0.73164 0.73198 0.23701
 B1161 B 0.70786 0.76112 0.22438
 B1162 B 0.72936 0.79014 0.20531
 B1163 B 0.76591 0.77944 0.20709
 B1164 B 0.76729 0.74309 0.22702
 B1165 B 0.70805 0.22095 0.79471
 B1166 B 0.70868 0.21304 0.75308
 B1167 B 0.69020 0.24583 0.76788
 B1168 B 0.71085 0.26096 0.79944
 B1169 B 0.74145 0.23784 0.80414
 B1170 B 0.74001 0.20804 0.77511
 B1171 B 0.74490 0.26558 0.74188
 B1172 B 0.74513 0.27260 0.78340
 B1173 B 0.76272 0.23973 0.76876
 B1174 B 0.74281 0.22520 0.73679
 B1175 B 0.71147 0.24831 0.73213
 B1176 B 0.71289 0.27795 0.76100
 C1177 C 0.45083 1.07177 0.39838
 C1178 C 0.42531 1.05220 0.39192
 C1179 C 0.40793 1.03962 0.41852
 C1180 C 0.41825 1.04131 0.45075
 C1181 C 0.44633 1.05618 0.45795
 C1182 C 0.46062 1.07506 0.43198
 C1183 C 0.46713 1.08758 0.37223
 C1184 C 0.49167 1.10769 0.37912
 C1185 C 0.50013 1.11250 0.41202
 C1186 C 0.48469 1.09653 0.43822
 H1187 H 0.46070 1.08492 0.34646
 H1188 H 0.50386 1.12002 0.35889
 H1189 H 0.51868 1.12879 0.41729
 H1190 H 0.49108 1.10195 0.46335
 H1191 H 0.38780 1.02526 0.41391
 H1192 H 0.40589 1.02659 0.46888
 C1193 C -0.06956 0.55276 0.92539
 C1194 C -0.05372 0.53890 0.89781
 C1195 C -0.02178 0.53906 0.89883
 C1196 C -0.00719 0.54434 0.92882
 C1197 C -0.02424 0.54611 0.95905
 C1198 C -0.05446 0.55673 0.95621
 C1199 C -0.09888 0.56550 0.92200
 C1200 C -0.11269 0.58219 0.94811
 C1201 C -0.09764 0.58657 0.97789
 C1202 C -0.06882 0.57389 0.98196
 H1203 H -0.11055 0.56434 0.89856
 H1204 H -0.13486 0.59244 0.94491
 H1205 H -0.10828 0.60001 0.99789
 H1206 H -0.05762 0.57847 1.00498
 H1207 H -0.00786 0.53135 0.87783
 H1208 H 0.01713 0.54085 0.92889
 C1209 C 0.03024 -0.04684 0.85750
 C1210 C 0.06226 -0.04891 0.85426
 C1211 C 0.07863 -0.05834 0.88199
 C1212 C 0.06477 -0.06049 0.91352
 C1213 C 0.03411 -0.05281 0.91886
 C1214 C 0.01588 -0.05107 0.88973
 C1215 C 0.01217 -0.03968 0.82983
 C1216 C -0.01941 -0.03970 0.83305
 C1217 C -0.03354 -0.04684 0.86371
 C1218 C -0.01620 -0.05256 0.89172
 H1219 H 0.02202 -0.03423 0.80544
 H1220 H -0.03299 -0.03465 0.81151
 H1221 H -0.05809 -0.04772 0.86587
 H1222 H -0.02830 -0.05871 0.91465
 H1223 H 0.10297 -0.06161 0.87970
 H1224 H 0.07930 -0.06553 0.93366
 C1225 C 0.50653 0.47809 0.37300
 C1226 C 0.53793 0.48053 0.36442
 C1227 C 0.55873 0.47501 0.38943
 C1228 C 0.54985 0.47606 0.42268
 C1229 C 0.51917 0.47791 0.43303
 C1230 C 0.49744 0.47315 0.40735
 C1231 C 0.48389 0.48125 0.34894
 C1232 C 0.45337 0.47589 0.35765
 C1233 C 0.44490 0.46729 0.39029
 C1234 C 0.46666 0.46585 0.41493
 H1235 H 0.48934 0.48779 0.32333
 H1236 H 0.43624 0.47786 0.33884
 H1237 H 0.42129 0.46216 0.39665
 H1238 H 0.45924 0.45861 0.43978
 H1239 H 0.58291 0.47485 0.38348
 H1240 H 0.56826 0.48037 0.43859
 C1241 C 0.59033 0.50656 0.07243
 C1242 C 0.56879 0.51848 0.09562
 C1243 C 0.54031 0.52720 0.08472
 C1244 C 0.53179 0.52089 0.05213
 C1245 C 0.55061 0.50371 0.02963
 C1246 C 0.58096 0.49629 0.04033
 C1247 C 0.62093 0.50334 0.08167
 C1248 C 0.64174 0.48787 0.06108
 C1249 C 0.63228 0.47466 0.03146
 C1250 C 0.60241 0.47825 0.02150
 H1251 H 0.62890 0.51273 0.10507
 H1252 H 0.66505 0.48541 0.06854
 H1253 H 0.64822 0.46157 0.01592
 H1254 H 0.59753 0.46634 -0.00111
 H1255 H 0.52376 0.53703 0.10215
 H1256 H 0.50886 0.52708 0.04599
 C1257 C 0.00905 1.01857 0.62517
 C1258 C 0.03929 1.03070 0.62221
 C1259 C 0.04780 1.04861 0.59360
 C1260 C 0.02870 1.05052 0.56644
 C1261 C 0.00072 1.03432 0.56665
 C1262 C -0.01115 1.02365 0.59845
 C1263 C -0.00167 1.00084 0.65344
 C1264 C -0.03235 0.99259 0.65734
 C1265 C -0.05286 1.00193 0.63340
 C1266 C -0.04247 1.01755 0.60434
 H1267 H 0.01329 0.99301 0.67272
 H1268 H -0.04034 0.97948 0.67937
 H1269 H -0.07684 0.99657 0.63708
 H1270 H -0.05913 1.02490 0.58657
 H1271 H 0.07006 1.05994 0.59159
 H1272 H 0.03659 1.06366 0.54484
 C1273 C -0.07539 0.46104 0.62611
 C1274 C -0.05504 0.45062 0.65031
 C1275 C -0.02563 0.44217 0.64024
 C1276 C -0.01579 0.44545 0.60673
 C1277 C -0.03389 0.46008 0.58243
 C1278 C -0.06448 0.46934 0.59320
 C1279 C -0.10637 0.46535 0.63525
 C1280 C -0.12608 0.48006 0.61373
 C1281 C -0.11506 0.49207 0.58350
 C1282 C -0.08482 0.48762 0.57381
 H1283 H -0.11562 0.45761 0.65933
 H1284 H -0.14965 0.48330 0.62112
 H1285 H -0.13000 0.50514 0.56738
 H1286 H -0.07895 0.49956 0.55104
 H1287 H -0.00983 0.43392 0.65862
 H1288 H 0.00723 0.43849 0.60045
 C1289 C 0.47284 -0.05725 0.14415
 C1290 C 0.44528 -0.04075 0.14892
 C1291 C 0.43382 -0.02308 0.12280
 C1292 C 0.44963 -0.02002 0.09282
 C1293 C 0.47766 -0.03529 0.08626
 C1294 C 0.48933 -0.05478 0.11271
 C1295 C 0.48419 -0.07625 0.17019
 C1296 C 0.51133 -0.09250 0.16595
 C1297 C 0.52758 -0.09016 0.13582
 C1298 C 0.51684 -0.07162 0.10962
 H1299 H 0.47203 -0.07888 0.19393
 H1300 H 0.51979 -0.10702 0.18613
 H1301 H 0.54869 -0.10289 0.13266
 H1302 H 0.53061 -0.07128 0.08739
 H1303 H 0.41290 -0.00996 0.12620
 H1304 H 0.43952 -0.00401 0.07512
 C1305 C 0.39873 0.41871 -0.02360
 C1306 C 0.38315 0.44136 -0.00383
 C1307 C 0.39924 0.46596 0.01114
 C1308 C 0.43045 0.46930 0.00590
 C1309 C 0.44718 0.44821 -0.01472
 C1310 C 0.43093 0.42130 -0.02852
 C1311 C 0.38250 0.39354 -0.03896
 C1312 C 0.39745 0.37063 -0.05784
 C1313 C 0.42875 0.37215 -0.06176
 C1314 C 0.44520 0.39688 -0.04734
 H1315 H 0.35804 0.39126 -0.03664
 H1316 H 0.38470 0.35153 -0.06933
 H1317 H 0.44044 0.35415 -0.07629
 H1318 H 0.46912 0.39612 -0.05189
 H1319 H 0.38741 0.48310 0.02671
 H1320 H 0.44119 0.48940 0.01789
 C1321 C -0.13649 0.93564 0.50427
 C1322 C -0.15529 0.95763 0.52122
 C1323 C -0.14329 0.98663 0.53182
 C1324 C -0.11283 0.99441 0.52579
 C1325 C -0.09295 0.97372 0.50840
 C1326 C -0.10528 0.94346 0.49730
 C1327 C -0.14867 0.90597 0.49357
 C1328 C -0.13091 0.88436 0.47606
 C1329 C -0.10083 0.89180 0.46860
 C1330 C -0.08832 0.92073 0.47883
 H1331 H -0.17211 0.89905 0.49848
 H1332 H -0.14062 0.86186 0.46802
 H1333 H -0.08701 0.87511 0.45458
 H1334 H -0.06533 0.92428 0.47115
 H1335 H -0.15776 1.00361 0.54463
 H1336 H -0.10511 1.01736 0.53477
 C1337 C -0.10496 0.01470 1.01489
 C1338 C -0.11451 0.03631 0.98978
 C1339 C -0.09484 0.04301 0.96243
 C1340 C -0.06642 0.02900 0.95976
 C1341 C -0.05614 0.00780 0.98432
 C1342 C -0.07755 -0.00249 1.01002
 C1343 C -0.12144 0.01067 1.04554
 C1344 C -0.11438 -0.01367 1.06783
 C1345 C -0.09131 -0.03469 1.05969
 C1346 C -0.07346 -0.02957 1.03084
 H1347 H -0.13988 0.02628 1.05256
 H1348 H -0.12761 -0.01698 1.09080
 H1349 H -0.08724 -0.05509 1.07573
 H1350 H -0.05811 -0.04838 1.02428
 H1351 H -0.10165 0.05887 0.94250
 H1352 H -0.05220 0.03555 0.93846
 C1353 C 0.37403 0.52411 0.50511
 C1354 C 0.36483 0.55410 0.49274
 C1355 C 0.38655 0.57478 0.47847
 C1356 C 0.41722 0.56760 0.47895
 C1357 C 0.42829 0.53978 0.49405
 C1358 C 0.40573 0.51690 0.50718
 C1359 C 0.35180 0.50099 0.51515
 C1360 C 0.35992 0.47198 0.52908
 C1361 C 0.39026 0.46525 0.53311
 C1362 C 0.41274 0.48704 0.52239
 H1363 H 0.32783 0.50501 0.51193
 H1364 H 0.34259 0.45468 0.53688
 H1365 H 0.39653 0.44270 0.54435
 H1366 H 0.43503 0.47888 0.52687
 H1367 H 0.37995 0.59784 0.46865
 H1368 H 0.43237 0.58580 0.46938
 C1369 C 0.11620 0.54043 0.50298
 C1370 C 0.13216 0.52456 0.52815
 C1371 C 0.11849 0.49866 0.54505
 C1372 C 0.08861 0.48943 0.53849
 C1373 C 0.07019 0.50742 0.51698
 C1374 C 0.08452 0.53439 0.49943
 C1375 C 0.13133 0.56370 0.48242
 C1376 C 0.11536 0.58305 0.46095
 C1377 C 0.08409 0.58019 0.46024
 C1378 C 0.06896 0.55674 0.47947
 H1379 H 0.15570 0.56720 0.48294
 H1380 H 0.12719 0.60091 0.44559
 H1381 H 0.07136 0.59616 0.44459
 H1382 H 0.04500 0.55732 0.47788
 H1383 H 0.13067 0.48611 0.56422
 H1384 H 0.07936 0.46910 0.55243
 C1385 C 0.62803 0.04654 0.01376
 C1386 C 0.64523 0.02487 0.03253
 C1387 C 0.63108 -0.00180 0.04748
 C1388 C 0.60011 -0.00777 0.04362
 C1389 C 0.58196 0.01222 0.02394
 C1390 C 0.59655 0.04026 0.00849
 C1391 C 0.64212 0.07448 -0.00031
 C1392 C 0.62625 0.09550 -0.02004
 C1393 C 0.59613 0.08927 -0.02636
 C1394 C 0.58165 0.06234 -0.01252
 H1395 H 0.66562 0.08059 0.00372
 H1396 H 0.63741 0.11662 -0.03058
 H1397 H 0.58372 0.10552 -0.04202
 H1398 H 0.55863 0.06023 -0.01918
 H1399 H 0.64420 -0.01838 0.06200
 H1400 H 0.59056 -0.02893 0.05582
 C1401 C 0.60732 1.00602 0.47557
 C1402 C 0.61338 0.97570 0.48969
 C1403 C 0.58963 0.95695 0.50246
 C1404 C 0.56045 0.96821 0.50351
 C1405 C 0.55287 0.99911 0.49184
 C1406 C 0.57674 1.01769 0.47574
 C1407 C 0.63110 1.02491 0.46137
 C1408 C 0.62516 1.05440 0.44667
 C1409 C 0.59551 1.06533 0.44552
 C1410 C 0.57155 1.04722 0.45963
 H1411 H 0.65438 1.01689 0.46134
 H1412 H 0.64360 1.06865 0.43567
 H1413 H 0.59099 1.08793 0.43333
 H1414 H 0.54921 1.05640 0.45641
 H1415 H 0.59385 0.93336 0.51272
 H1416 H 0.54384 0.95211 0.51499
 C1417 C 0.12456 0.50232 1.00840
 C1418 C 0.13361 0.47267 0.99483
 C1419 C 0.11154 0.44932 0.98939
 C1420 C 0.08120 0.45470 0.99659
 C1421 C 0.07056 0.48346 1.01023
 C1422 C 0.09325 0.50743 1.01780
 C1423 C 0.14616 0.52714 1.01256
 C1424 C 0.13809 0.55557 1.02795
 C1425 C 0.10852 0.55974 1.03968
 C1426 C 0.08646 0.53611 1.03492
 H1427 H 0.16946 0.52487 1.00379
 H1428 H 0.15498 0.57425 1.03127
 H1429 H 0.10257 0.58152 1.05261
 H1430 H 0.06467 0.54092 1.04600
 H1431 H 0.11790 0.42600 0.98010
 H1432 H 0.06631 0.43475 0.99266
 C1433 C 0.02418 0.36536 0.47678
 C1434 C 0.00182 0.35823 0.45266
 C1435 C -0.02562 0.37471 0.45470
 C1436 C -0.02965 0.40007 0.47641
 C1437 C -0.00763 0.40885 0.49974
 C1438 C 0.01775 0.38816 0.50252
 C1439 C 0.05322 0.35143 0.47557
 C1440 C 0.07334 0.35576 0.50154
 C1441 C 0.06506 0.37412 0.52902
 C1442 C 0.03755 0.39020 0.52957
 H1443 H 0.06095 0.33753 0.45448
 H1444 H 0.09527 0.34436 0.50060
 H1445 H 0.08024 0.37638 0.54975
 H1446 H 0.03160 0.40349 0.55172
 H1447 H -0.04377 0.36931 0.43778
 H1448 H -0.04930 0.41440 0.47224
 C1449 C 0.47934 -0.12734 -0.03222
 C1450 C 0.50106 -0.14744 -0.01789
 C1451 C 0.51763 -0.13682 0.00908
 C1452 C 0.51445 -0.10578 0.02089
 C1453 C 0.49553 -0.08341 0.00542
 C1454 C 0.47702 -0.09481 -0.02185
 C1455 C 0.46096 -0.13892 -0.05826
 C1456 C 0.44073 -0.11930 -0.07425
 C1457 C 0.43897 -0.08754 -0.06556
 C1458 C 0.45703 -0.07540 -0.04049
 H1459 H 0.46189 -0.16328 -0.06683
 H1460 H 0.42680 -0.12867 -0.09393
 H1461 H 0.42366 -0.07197 -0.07857
 H1462 H 0.45415 -0.05054 -0.03718
 H1463 H 0.53439 -0.15218 0.02004
 H1464 H 0.52926 -0.09876 0.04062
 C1465 C 0.00063 -0.13789 1.02208
 C1466 C 0.01399 -0.13815 1.05402
 C1467 C 0.03187 -0.11204 1.06312
 C1468 C 0.03545 -0.08536 1.04239
 C1469 C 0.02161 -0.08319 1.01091
 C1470 C 0.00547 -0.11099 0.99985
 C1471 C -0.01815 -0.16353 1.01204
 C1472 C -0.03020 -0.16403 0.98022
 C1473 C -0.02376 -0.13918 0.95780
 C1474 C -0.00612 -0.11309 0.96740
 H1475 H -0.02390 -0.18335 1.02863
 H1476 H -0.04433 -0.18400 0.97280
 H1477 H -0.03254 -0.14006 0.93279
 H1478 H -0.00115 -0.09526 0.94868
 H1479 H 0.04281 -0.11198 1.08708
 H1480 H 0.04897 -0.06588 1.05197
 C1481 C 0.52801 0.42065 0.57181
 C1482 C 0.50479 0.39884 0.56290
 C1483 C 0.48827 0.40493 0.53432
 C1484 C 0.49263 0.43307 0.51618
 C1485 C 0.51194 0.45782 0.52710
 C1486 C 0.53054 0.45124 0.55560
 C1487 C 0.54916 0.41217 0.59630
 C1488 C 0.57068 0.43404 0.60710
 C1489 C 0.57179 0.46463 0.59364
 C1490 C 0.55219 0.47318 0.56840
 H1491 H 0.54967 0.38832 0.60692
 H1492 H 0.58658 0.42719 0.62598
 H1493 H 0.58856 0.48169 0.60214
 H1494 H 0.55615 0.49671 0.55873
 H1495 H 0.47100 0.38816 0.52635
 H1496 H 0.47900 0.43584 0.49426
 C1497 C 0.44832 1.13209 0.57573
 C1498 C 0.47321 1.15344 0.56996
 C1499 C 0.49647 1.14354 0.54781
 C1500 C 0.49559 1.11344 0.53286
 C1501 C 0.47341 1.09011 0.54209
 C1502 C 0.45130 1.09920 0.56735
 C1503 C 0.42085 1.14228 0.59089
 C1504 C 0.40010 1.12009 0.60453
 C1505 C 0.40688 1.08776 0.60378
 C1506 C 0.43255 1.07743 0.58602
 H1507 H 0.41576 1.16744 0.59315
 H1508 H 0.37957 1.12808 0.61716
 H1509 H 0.39193 1.07053 0.61644
 H1510 H 0.43691 1.05234 0.58744
 H1511 H 0.51612 1.15864 0.54238
 H1512 H 0.51408 1.10778 0.51568
 C1513 C -0.01846 0.59307 1.10388
 C1514 C -0.00980 0.62083 1.08535
 C1515 C -0.00437 0.61843 1.05097
 C1516 C -0.00725 0.58920 1.03475
 C1517 C -0.01700 0.56097 1.05173
 C1518 C -0.02394 0.56344 1.08715
 C1519 C -0.02144 0.59431 1.13914
 C1520 C -0.03177 0.56792 1.15765
 C1521 C -0.04004 0.54011 1.14149
 C1522 C -0.03661 0.53795 1.10689
 H1523 H -0.01563 0.61564 1.15283
 H1524 H -0.03414 0.56935 1.18459
 H1525 H -0.04954 0.52011 1.15582
 H1526 H -0.04607 0.51667 1.09657
 H1527 H 0.00247 0.63945 1.03648
 H1528 H -0.00133 0.58884 1.00834
 C1529 C 0.52912 0.59541 -0.08290
 C1530 C 0.51279 0.61363 -0.05917
 C1531 C 0.50237 0.59960 -0.02934
 C1532 C 0.50683 0.56729 -0.02306
 C1533 C 0.52188 0.54746 -0.04632
 C1534 C 0.53416 0.56220 -0.07680
 C1535 C 0.54047 0.61004 -0.11289
 C1536 C 0.55686 0.59282 -0.13646
 C1537 C 0.56240 0.56082 -0.13079
 C1538 C 0.55139 0.54575 -0.10169
 H1539 H 0.53695 0.63504 -0.11851
 H1540 H 0.56545 0.60444 -0.15914
 H1541 H 0.57552 0.54747 -0.14904
 H1542 H 0.55782 0.52141 -0.09988
 H1543 H 0.49010 0.61369 -0.01099
 H1544 H 0.49725 0.55777 0.00010
 C1545 C -0.03739 1.12562 0.47134
 C1546 C -0.02017 1.12975 0.44066
 C1547 C 0.00013 1.10558 0.43171
 C1548 C 0.00262 1.07806 0.45058
 C1549 C -0.01339 1.07318 0.48123
 C1550 C -0.03194 1.09867 0.49286
 C1551 C -0.06157 1.14605 0.48020
 C1552 C -0.07633 1.14345 0.51134
 C1553 C -0.06777 1.12017 0.53409
 C1554 C -0.04592 1.09790 0.52498
 H1555 H -0.06989 1.16371 0.46295
 H1556 H -0.09435 1.15977 0.51796
 H1557 H -0.07861 1.11889 0.55866
 H1558 H -0.03979 1.08052 0.54358
 H1559 H 0.01490 1.10773 0.40973
 H1560 H 0.01754 1.06013 0.44024
 C1561 C 0.79934 0.72339 0.85940
 C1562 C 0.80065 0.68972 0.86158
 C1563 C 0.80990 0.67255 0.83334
 C1564 C 0.81185 0.68753 0.80209
 C1565 C 0.80288 0.71941 0.79814
 C1566 C 0.80235 0.73857 0.82752
 C1567 C 0.79540 0.74225 0.88821
 C1568 C 0.79575 0.77554 0.88578
 C1569 C 0.80058 0.79050 0.85486
 C1570 C 0.80417 0.77229 0.82603
 H1571 H 0.79282 0.73147 0.91283
 H1572 H 0.79298 0.78979 0.90809
 H1573 H 0.80174 0.81635 0.85322
 H1574 H 0.80910 0.78482 0.80281
 H1575 H 0.81325 0.64695 0.83497
 H1576 H 0.81783 0.67328 0.78070
 C1577 C 0.28948 0.20637 0.35923
 C1578 C 0.27347 0.17702 0.36303
 C1579 C 0.26078 0.16265 0.33556
 C1580 C 0.26090 0.17822 0.30517
 C1581 C 0.27448 0.20887 0.30016
 C1582 C 0.29084 0.22213 0.32729
 C1583 C 0.30397 0.22039 0.38659
 C1584 C 0.32055 0.24884 0.38253
 C1585 C 0.32312 0.26353 0.35125
 C1586 C 0.30858 0.25030 0.32396
 H1587 H 0.30292 0.20922 0.41112
 H1588 H 0.33184 0.25926 0.40363
 H1589 H 0.33665 0.28521 0.34802
 H1590 H 0.31243 0.26177 0.30027
 H1591 H 0.24883 0.13986 0.33817
 H1592 H 0.24872 0.16603 0.28583
 C1593 C 0.76011 0.33508 0.36882
 C1594 C 0.73424 0.32483 0.38792
 C1595 C 0.71508 0.30136 0.37555
 C1596 C 0.72028 0.28878 0.34397
 C1597 C 0.74442 0.29965 0.32260
 C1598 C 0.76590 0.32225 0.33622
 C1599 C 0.78094 0.35727 0.38238
 C1600 C 0.80702 0.36691 0.36469
 C1601 C 0.81330 0.35427 0.33350
 C1602 C 0.79343 0.33218 0.31962
 H1603 H 0.77766 0.36708 0.40707
 H1604 H 0.82269 0.38384 0.37551
 H1605 H 0.83400 0.36133 0.32004
 H1606 H 0.80136 0.32329 0.29627
 H1607 H 0.69572 0.29275 0.39047
 H1608 H 0.70455 0.27039 0.33617
 C1609 C 0.21452 0.82772 0.87032
 C1610 C 0.21417 0.80429 0.89570
 C1611 C 0.21042 0.77234 0.88720
 C1612 C 0.21188 0.76329 0.85375
 C1613 C 0.22056 0.78534 0.82796
 C1614 C 0.22165 0.81884 0.83682
 C1615 C 0.21157 0.86026 0.87888
 C1616 C 0.21777 0.88425 0.85539
 C1617 C 0.22859 0.87616 0.82381
 C1618 C 0.23140 0.84409 0.81505
 H1619 H 0.20500 0.86713 0.90406
 H1620 H 0.21563 0.90913 0.86221
 H1621 H 0.23531 0.89481 0.80608
 H1622 H 0.24220 0.84041 0.79146
 H1623 H 0.20926 0.75401 0.90652
 H1624 H 0.21046 0.73792 0.84919
 C1625 C 0.29004 0.83193 0.18261
 C1626 C 0.28929 0.81266 0.15366
 C1627 C 0.29046 0.77949 0.15830
 C1628 C 0.28612 0.76590 0.18996
 C1629 C 0.27845 0.78447 0.21829
 C1630 C 0.28037 0.81881 0.21416
 C1631 C 0.29942 0.86438 0.18034
 C1632 C 0.29430 0.88500 0.20685
 C1633 C 0.27930 0.87370 0.23553
 C1634 C 0.27212 0.84122 0.23907
 H1635 H 0.30986 0.87403 0.15753
 H1636 H 0.30074 0.91002 0.20456
 H1637 H 0.27348 0.89008 0.25540
 H1638 H 0.26021 0.83496 0.26170
 H1639 H 0.29152 0.76336 0.13734
 H1640 H 0.28563 0.74005 0.19108
 C1641 C 0.76398 0.34138 0.68121
 C1642 C 0.76713 0.32496 0.65054
 C1643 C 0.77206 0.29195 0.65194
 C1644 C 0.76829 0.27492 0.68206
 C1645 C 0.75804 0.28970 0.71188
 C1646 C 0.75576 0.32427 0.71117
 C1647 C 0.76861 0.37494 0.68220
 C1648 C 0.76089 0.39217 0.71057
 C1649 C 0.74795 0.37639 0.73805
 C1650 C 0.74502 0.34315 0.73827
 H1651 H 0.77782 0.38802 0.66068
 H1652 H 0.76394 0.41790 0.71079
 H1653 H 0.74039 0.38990 0.75960
 H1654 H 0.73435 0.33368 0.76038
 H1655 H 0.77601 0.27849 0.62929
 H1656 H 0.77086 0.24924 0.68093
 C1657 C 0.18599 0.23063 0.59403
 C1658 C 0.20453 0.20354 0.59088
 C1659 C 0.22065 0.19271 0.61793
 C1660 C 0.22017 0.20910 0.64752
 C1661 C 0.20363 0.23761 0.65175
 C1662 C 0.18490 0.24758 0.62492
 C1663 C 0.16839 0.24100 0.56716
 C1664 C 0.14911 0.26693 0.57081
 C1665 C 0.14680 0.28258 0.60127
 C1666 C 0.16428 0.27291 0.62802
 H1667 H 0.16922 0.22895 0.54332
 H1668 H 0.13552 0.27456 0.55012
 H1669 H 0.13113 0.30213 0.60432
 H1670 H 0.16032 0.28461 0.65127
 H1671 H 0.23410 0.17122 0.61604
 H1672 H 0.23326 0.19859 0.66715
 C1673 C 0.76648 0.69415 0.12644
 C1674 C 0.74010 0.69256 0.10682
 C1675 C 0.71459 0.71000 0.11739
 C1676 C 0.71549 0.72966 0.14557
 C1677 C 0.74196 0.73332 0.16425
 C1678 C 0.76896 0.71752 0.15193
 C1679 C 0.79038 0.67210 0.12182
 C1680 C 0.81821 0.67682 0.13674
 C1681 C 0.82283 0.70366 0.15609
 C1682 C 0.79878 0.72399 0.16322
 H1683 H 0.78780 0.65117 0.10638
 H1684 H 0.83656 0.66031 0.13218
 H1685 H 0.84508 0.70869 0.16589
 H1686 H 0.80484 0.74519 0.17646
 H1687 H 0.69393 0.70922 0.10328
 H1688 H 0.69486 0.74157 0.15313
 C1689 C 0.16410 0.64123 0.25365
 C1690 C 0.17937 0.62550 0.22718
 C1691 C 0.20298 0.64125 0.20959
 C1692 C 0.21290 0.67165 0.21908
 C1693 C 0.19980 0.68765 0.24677
 C1694 C 0.17323 0.67283 0.26254
 C1695 C 0.14055 0.62538 0.27258
 C1696 C 0.12477 0.64083 0.29800
 C1697 C 0.13242 0.67201 0.30559
 C1698 C 0.15634 0.68735 0.28835
 H1699 H 0.13416 0.60074 0.26849
 H1700 H 0.10673 0.62847 0.31200
 H1701 H 0.12038 0.68418 0.32558
 H1702 H 0.16192 0.71019 0.29669
 H1703 H 0.21454 0.62945 0.18901
 H1704 H 0.23219 0.68185 0.20530
 C1705 C 0.69237 0.13079 0.70551
 C1706 C 0.67323 0.11560 0.73022
 C1707 C 0.66125 0.13421 0.75621
 C1708 C 0.66960 0.16609 0.75966
 C1709 C 0.69228 0.18048 0.73906
 C1710 C 0.70096 0.16383 0.70922
 C1711 C 0.70440 0.11366 0.67802
 C1712 C 0.72183 0.12912 0.65309
 C1713 C 0.72753 0.16181 0.65489
 C1714 C 0.71714 0.17904 0.68245
 H1715 H 0.70057 0.08824 0.67546
 H1716 H 0.73049 0.11577 0.63193
 H1717 H 0.74007 0.17395 0.63478
 H1718 H 0.72082 0.20451 0.68146
 H1719 H 0.64505 0.12391 0.77427
 H1720 H 0.65908 0.17902 0.78003
 C1721 C 0.82532 0.15764 0.29164
 C1722 C 0.82047 0.13547 0.26565
 C1723 C 0.79661 0.14044 0.24399
 C1724 C 0.77936 0.16785 0.24575
 C1725 C 0.78575 0.19249 0.26831
 C1726 C 0.80717 0.18582 0.29389
 C1727 C 0.84694 0.15160 0.31633
 C1728 C 0.85061 0.17237 0.34292
 C1729 C 0.83216 0.19886 0.34615
 C1730 C 0.81039 0.20523 0.32242
 H1731 H 0.86070 0.13040 0.31593
 H1732 H 0.86724 0.16737 0.36167
 H1733 H 0.83425 0.21420 0.36765
 H1734 H 0.79520 0.22426 0.32841
 H1735 H 0.79152 0.12308 0.22490
 H1736 H 0.76110 0.16968 0.22851
 C1737 C 0.29111 0.63084 0.79878
 C1738 C 0.31827 0.62756 0.77955
 C1739 C 0.33345 0.65485 0.76742
 C1740 C 0.32044 0.68468 0.77036
 C1741 C 0.29153 0.68879 0.78568
 C1742 C 0.27846 0.66192 0.80354
 C1743 C 0.27612 0.60385 0.81318
 C1744 C 0.25049 0.60737 0.83386
 C1745 C 0.23975 0.63773 0.84104
 C1746 C 0.25372 0.66473 0.82642
 H1747 H 0.28428 0.57989 0.80899
 H1748 H 0.23941 0.58651 0.84512
 H1749 H 0.22067 0.64044 0.85833
 H1750 H 0.24589 0.68753 0.83498
 H1751 H 0.35467 0.65280 0.75332
 H1752 H 0.33214 0.70408 0.75722
 C1753 C 0.26170 0.39931 0.72444
 C1754 C 0.29014 0.39896 0.70646
 C1755 C 0.29706 0.37202 0.68721
 C1756 C 0.27766 0.34560 0.68675
 C1757 C 0.25038 0.34452 0.70575
 C1758 C 0.24050 0.37351 0.72081
 C1759 C 0.25410 0.42378 0.74732
 C1760 C 0.22458 0.42649 0.76016
 C1761 C 0.20230 0.40484 0.75072
 C1762 C 0.21014 0.37839 0.73159
 H1763 H 0.27071 0.44104 0.75556
 H1764 H 0.21879 0.44600 0.77664
 H1765 H 0.17893 0.40816 0.75884
 H1766 H 0.19182 0.36309 0.72404
 H1767 H 0.31780 0.37118 0.67209
 H1768 H 0.28522 0.32512 0.67260
 C1769 C 0.77458 0.89637 0.21012
 C1770 C 0.79849 0.90088 0.23273
 C1771 C 0.80249 0.87837 0.25803
 C1772 C 0.78546 0.85046 0.25948
 C1773 C 0.76417 0.84279 0.23495
 C1774 C 0.75653 0.86755 0.21178
 C1775 C 0.76736 0.92058 0.18692
 C1776 C 0.74277 0.91696 0.16605
 C1777 C 0.72436 0.88977 0.16861
 C1778 C 0.73078 0.86562 0.19148
 H1779 H 0.78007 0.94288 0.18530
 H1780 H 0.73741 0.93581 0.14853
 H1781 H 0.70450 0.88771 0.15332
 H1782 H 0.71406 0.84685 0.19417
 H1783 H 0.81997 0.88178 0.27630
 H1784 H 0.79082 0.83385 0.27922
 C1785 C 0.71897 0.86320 0.72497
 C1786 C 0.69920 0.86797 0.75326
 C1787 C 0.69792 0.84429 0.77834
 C1788 C 0.71454 0.81645 0.77557
 C1789 C 0.73338 0.81031 0.74756
 C1790 C 0.73823 0.83584 0.72376
 C1791 C 0.71857 0.88363 0.69656
 C1792 C 0.73954 0.88029 0.67025
 C1793 C 0.76149 0.85690 0.67178
 C1794 C 0.76110 0.83511 0.69833
 H1795 H 0.70166 0.90187 0.69387
 H1796 H 0.73916 0.89639 0.64892
 H1797 H 0.77879 0.85541 0.65216
 H1798 H 0.77980 0.81898 0.69911
 H1799 H 0.68411 0.84741 0.80085
 H1800 H 0.71216 0.79944 0.79588
 C1801 C 0.22325 0.37373 0.22406
 C1802 C 0.20517 0.37871 0.25312
 C1803 C 0.20473 0.35587 0.27862
 C1804 C 0.21854 0.32646 0.27378
 C1805 C 0.23104 0.31767 0.24243
 C1806 C 0.23646 0.34319 0.21813
 C1807 C 0.22832 0.39911 0.20087
 C1808 C 0.24589 0.39496 0.17204
 C1809 C 0.25895 0.36565 0.16585
 C1810 C 0.25446 0.34029 0.18829
 H1811 H 0.21925 0.42269 0.20518
 H1812 H 0.24958 0.41463 0.15457
 H1813 H 0.27282 0.36248 0.14340
 H1814 H 0.26580 0.31922 0.18069
 H1815 H 0.19247 0.36024 0.30191
 H1816 H 0.21849 0.31019 0.29487
 C1817 C 0.09900 0.30098 0.73377
 C1818 C 0.08890 0.27478 0.75379
 C1819 C 0.10626 0.24757 0.75538
 C1820 C 0.13471 0.24691 0.74065
 C1821 C 0.14718 0.27252 0.72128
 C1822 C 0.12811 0.29995 0.71674
 C1823 C 0.08116 0.32863 0.73146
 C1824 C 0.09109 0.35481 0.71229
 C1825 C 0.11889 0.35396 0.69519
 C1826 C 0.13715 0.32708 0.69732
 H1827 H 0.05939 0.33024 0.74447
 H1828 H 0.07713 0.37584 0.71064
 H1829 H 0.12643 0.37435 0.68015
 H1830 H 0.15799 0.32838 0.68305
 H1831 H 0.09878 0.22734 0.77082
 H1832 H 0.14760 0.22669 0.74791
 C1833 C 0.62353 0.78886 0.21906
 C1834 C 0.61119 0.76985 0.24567
 C1835 C 0.62666 0.74262 0.25548
 C1836 C 0.65571 0.73660 0.24318
 C1837 C 0.67095 0.75752 0.22017
 C1838 C 0.65305 0.78186 0.20517
 C1839 C 0.60760 0.81526 0.20662
 C1840 C 0.61953 0.83348 0.17995
 C1841 C 0.64733 0.82566 0.16512
 C1842 C 0.66386 0.80009 0.17739
 H1843 H 0.58574 0.82188 0.21718
 H1844 H 0.60694 0.85352 0.17043
 H1845 H 0.65615 0.83948 0.14393
 H1846 H 0.68470 0.79439 0.16422
 H1847 H 0.61723 0.72730 0.27526
 H1848 H 0.66752 0.71783 0.25593
 C1849 C 0.63195 0.28508 0.26371
 C1850 C 0.62185 0.25613 0.24942
 C1851 C 0.63862 0.22857 0.25510
 C1852 C 0.66722 0.23057 0.26896
 C1853 C 0.68160 0.26049 0.27434
 C1854 C 0.66214 0.28757 0.27596
 C1855 C 0.61223 0.31124 0.26695
 C1856 C 0.62171 0.33928 0.28221
 C1857 C 0.65106 0.34199 0.29385
 C1858 C 0.67103 0.31656 0.29062
 H1859 H 0.58896 0.30971 0.25895
 H1860 H 0.60613 0.35890 0.28525
 H1861 H 0.65839 0.36390 0.30563
 H1862 H 0.69313 0.31987 0.30037
 H1863 H 0.63072 0.20550 0.24648
 H1864 H 0.67938 0.20838 0.27116
 C1865 C 0.13144 0.72757 0.74663
 C1866 C 0.12741 0.74221 0.71502
 C1867 C 0.15168 0.75844 0.69966
 C1868 C 0.17969 0.76022 0.71450
 C1869 C 0.18553 0.74595 0.74602
 C1870 C 0.16049 0.72934 0.76242
 C1871 C 0.10698 0.71122 0.76287
 C1872 C 0.11051 0.69693 0.79404
 C1873 C 0.13835 0.69869 0.80957
 C1874 C 0.16298 0.71464 0.79407
 H1875 H 0.08493 0.70945 0.75161
 H1876 H 0.09153 0.68449 0.80627
 H1877 H 0.14090 0.68761 0.83387
 H1878 H 0.18356 0.71516 0.80757
 H1879 H 0.14896 0.76994 0.67555
 H1880 H 0.19684 0.77357 0.70031
 C1881 C 0.86417 0.74005 0.66313
 C1882 C 0.88725 0.73569 0.68695
 C1883 C 0.87853 0.72661 0.71948
 C1884 C 0.84821 0.72528 0.72959
 C1885 C 0.82449 0.73271 0.70809
 C1886 C 0.83272 0.73986 0.67357
 C1887 C 0.87181 0.74232 0.62855
 C1888 C 0.84986 0.74771 0.60497
 C1889 C 0.81970 0.75002 0.61499
 C1890 C 0.81114 0.74581 0.64847
 H1891 H 0.89476 0.73903 0.61915
 H1892 H 0.85627 0.74976 0.57873
 H1893 H 0.80259 0.75415 0.59652
 H1894 H 0.78721 0.74646 0.65293
 H1895 H 0.89539 0.72254 0.73826
 H1896 H 0.84409 0.71946 0.75534
 C1897 C 0.37691 0.26555 0.22907
 C1898 C 0.38782 0.24029 0.20913
 C1899 C 0.36762 0.21708 0.19806
 C1900 C 0.33692 0.21804 0.20677
 C1901 C 0.32451 0.24213 0.22726
 C1902 C 0.34500 0.26789 0.23676
 C1903 C 0.39723 0.28976 0.23966
 C1904 C 0.38681 0.31646 0.25647
 C1905 C 0.35598 0.32034 0.26185
 C1906 C 0.33544 0.29704 0.25156
 H1907 H 0.42141 0.28873 0.23460
 H1908 H 0.40267 0.33477 0.26429
 H1909 H 0.34779 0.34193 0.27357
 H1910 H 0.31246 0.30397 0.25481
 H1911 H 0.37559 0.19836 0.18158
 H1912 H 0.32266 0.20022 0.19545
 C1913 C 0.35626 0.72942 0.32029
 C1914 C 0.37487 0.74156 0.29369
 C1915 C 0.36327 0.74323 0.26160
 C1916 C 0.33245 0.73750 0.25651
 C1917 C 0.31212 0.73109 0.28352
 C1918 C 0.32499 0.72237 0.31485
 C1919 C 0.36842 0.72346 0.35207
 C1920 C 0.35069 0.70928 0.37755
 C1921 C 0.32094 0.69997 0.37161
 C1922 C 0.30836 0.70589 0.34059
 H1923 H 0.39191 0.72894 0.35729
 H1924 H 0.36039 0.70452 0.40165
 H1925 H 0.30764 0.68760 0.39098
 H1926 H 0.28617 0.69570 0.33690
 H1927 H 0.37774 0.75095 0.24067
 H1928 H 0.32429 0.74126 0.23171
 C1929 C 0.84237 0.22510 0.81031
 C1930 C 0.86133 0.24042 0.78600
 C1931 C 0.85018 0.24749 0.75447
 C1932 C 0.81938 0.24308 0.74809
 C1933 C 0.79878 0.23255 0.77340
 C1934 C 0.81129 0.21914 0.80345
 C1935 C 0.85412 0.21516 0.84137
 C1936 C 0.83613 0.19854 0.86474
 C1937 C 0.80665 0.19021 0.85718
 C1938 C 0.79468 0.19935 0.82675
 H1939 H 0.87745 0.21962 0.84789
 H1940 H 0.84544 0.19113 0.88832
 H1941 H 0.79310 0.17614 0.87484
 H1942 H 0.77289 0.18899 0.82196
 H1943 H 0.86506 0.25801 0.73527
 H1944 H 0.81133 0.25086 0.72412
 C1945 C 0.56626 0.97651 0.60631
 C1946 C 0.54796 0.95663 0.62739
 C1947 C 0.51948 0.94645 0.61717
 C1948 C 0.50794 0.95750 0.58721
 C1949 C 0.52330 0.98120 0.56769
 C1950 C 0.55348 0.99125 0.57782
 C1951 C 0.59663 0.98385 0.61497
 C1952 C 0.61388 1.00650 0.59733
 C1953 C 0.60116 1.02293 0.57128
 C1954 C 0.57156 1.01596 0.56206
 H1955 H 0.60749 0.97231 0.63561
 H1956 H 0.63696 1.01182 0.60439
 H1957 H 0.61432 1.04131 0.55801
 H1958 H 0.56452 1.03091 0.54226
 H1959 H 0.50536 0.93124 0.63340
 H1960 H 0.48542 0.94926 0.58103
 C1961 C 0.01323 0.44601 1.12812
 C1962 C 0.04570 0.44870 1.12898
 C1963 C 0.06242 0.44029 1.09989
 C1964 C 0.04826 0.43515 1.06988
 C1965 C 0.01752 0.44137 1.06693
 C1966 C -0.00042 0.43928 1.09691
 C1967 C -0.00643 0.45311 1.15558
 C1968 C -0.03778 0.44841 1.15369
 C1969 C -0.05040 0.43761 1.12428
 C1970 C -0.03195 0.43335 1.09596
 H1971 H 0.00160 0.46314 1.17847
 H1972 H -0.05238 0.45335 1.17515
 H1973 H -0.07468 0.43365 1.12307
 H1974 H -0.04245 0.42596 1.07307
 H1975 H 0.08694 0.43820 1.10013
 H1976 H 0.06207 0.42924 1.04859
 C1977 C -0.04534 0.05806 1.08262
 C1978 C -0.03427 0.04141 1.11086
 C1979 C -0.00564 0.02736 1.10748
 C1980 C 0.00822 0.02365 1.07632
 C1981 C -0.00648 0.03208 1.04665
 C1982 C -0.03199 0.05279 1.05018
 C1983 C -0.06823 0.08127 1.08637
 C1984 C -0.07940 0.09731 1.05880
 C1985 C -0.06742 0.09130 1.02716
 C1986 C -0.04397 0.06957 1.02301
 H1987 H -0.07706 0.08788 1.11079
 H1988 H -0.09713 0.11478 1.06206
 H1989 H -0.07595 0.10393 1.00569
 H1990 H -0.03524 0.06676 0.99830
 H1991 H 0.00512 0.01582 1.12828
 H1992 H 0.02949 0.01106 1.07595
 C1993 C 0.43650 0.58419 0.58434
 C1994 C 0.45124 0.56927 0.61114
 C1995 C 0.48288 0.56674 0.60947
 C1996 C 0.49858 0.57223 0.57925
 C1997 C 0.48242 0.57722 0.54964
 C1998 C 0.45311 0.59014 0.55395
 C1999 C 0.40637 0.59487 0.58764
 C2000 C 0.39407 0.61391 0.56269
 C2001 C 0.41176 0.62285 0.53466
 C2002 C 0.44110 0.61098 0.53026
 H2003 H 0.39279 0.59001 0.61010
 H2004 H 0.37115 0.62267 0.56565
 H2005 H 0.40258 0.63863 0.51599
 H2006 H 0.45446 0.61854 0.50861
 H2007 H 0.49509 0.55760 0.63061
 H2008 H 0.52254 0.56673 0.57827
 C2009 C 0.47689 0.42959 -0.15428
 C2010 C 0.44946 0.44682 -0.15623
 C2011 C 0.43584 0.45790 -0.12687
 C2012 C 0.45027 0.45571 -0.09681
 C2013 C 0.47936 0.44215 -0.09398
 C2014 C 0.49150 0.42642 -0.12278
 C2015 C 0.48972 0.41481 -0.18276
 C2016 C 0.51604 0.39686 -0.18041
 C2017 C 0.52958 0.39275 -0.14966
 C2018 C 0.51726 0.40705 -0.12113
 H2019 H 0.47914 0.41638 -0.20682
 H2020 H 0.52557 0.38545 -0.20240
 H2021 H 0.54943 0.37792 -0.14775
 H2022 H 0.52708 0.40138 -0.09766
 H2023 H 0.41466 0.47077 -0.12745
 H2024 H 0.43902 0.46760 -0.07622
 C2025 C -0.08069 0.96493 0.38406
 C2026 C -0.05537 0.95997 0.36279
 C2027 C -0.02749 0.95303 0.37662
 C2028 C -0.02394 0.95454 0.41117
 C2029 C -0.04685 0.96726 0.43250
 C2030 C -0.07612 0.97315 0.41798
 C2031 C -0.11008 0.96584 0.37065
 C2032 C -0.13448 0.97728 0.38937
 C2033 C -0.12953 0.98985 0.42068
 C2034 C -0.10067 0.98890 0.43418
 H2035 H -0.11413 0.95823 0.34533
 H2036 H -0.15686 0.97808 0.37882
 H2037 H -0.14799 1.00107 0.43437
 H2038 H -0.09853 1.00229 0.45638
 H2039 H -0.00790 0.94855 0.36052
 H2040 H -0.00162 0.94940 0.42038
 C2041 C 0.03334 0.53740 0.38750
 C2042 C 0.05902 0.51884 0.37911
 C2043 C 0.07120 0.49913 0.40337
 C2044 C 0.05745 0.49575 0.43469
 C2045 C 0.03028 0.51159 0.44376
 C2046 C 0.01865 0.53385 0.41981
 C2047 C 0.02249 0.56011 0.36452
 C2048 C -0.00261 0.57863 0.37247
 C2049 C -0.01711 0.57521 0.40350
 C2050 C -0.00658 0.55335 0.42685
 H2051 H 0.03363 0.56423 0.34043
 H2052 H -0.01065 0.59595 0.35461
 H2053 H -0.03645 0.58992 0.40974
 H2054 H -0.01830 0.55293 0.45036
 H2055 H 0.09120 0.48516 0.39767
 H2056 H 0.06858 0.47978 0.45171
 C2057 C 0.57957 0.01423 -0.09852
 C2058 C 0.55714 0.02358 -0.12088
 C2059 C 0.52840 0.03159 -0.10890
 C2060 C 0.52101 0.02854 -0.07504
 C2061 C 0.54127 0.01501 -0.05214
 C2062 C 0.57113 0.00630 -0.06489
 C2063 C 0.60986 0.00996 -0.11023
 C2064 C 0.63117 -0.00419 -0.09013
 C2065 C 0.62231 -0.01580 -0.05887
 C2066 C 0.59266 -0.01156 -0.04690
 H2067 H 0.61720 0.01721 -0.13520
 H2068 H 0.65421 -0.00746 -0.09942
 H2069 H 0.63838 -0.02862 -0.04389
 H2070 H 0.58771 -0.02372 -0.02396
 H2071 H 0.51102 0.03852 -0.12612
 H2072 H 0.49789 0.03400 -0.06774
 C2073 C 0.63841 0.50090 -0.06616
 C2074 C 0.64283 0.52922 -0.04773
 C2075 C 0.61813 0.54371 -0.03238
 C2076 C 0.58963 0.52982 -0.03300
 C2077 C 0.58382 0.50050 -0.04921
 C2078 C 0.60856 0.48679 -0.06797
 C2079 C 0.66318 0.48626 -0.08261
 C2080 C 0.65886 0.45891 -0.10159
 C2081 C 0.62985 0.44603 -0.10494
 C2082 C 0.60498 0.45984 -0.08866
 H2083 H 0.68602 0.49595 -0.08107
 H2084 H 0.67805 0.44798 -0.11426
 H2085 H 0.62653 0.42530 -0.12053
 H2086 H 0.58324 0.44964 -0.09396
 H2087 H 0.62113 0.56567 -0.01854
 H2088 H 0.57247 0.54198 -0.01851
 C2089 C 0.10377 1.00152 0.48756
 C2090 C 0.11143 1.03410 0.48267
 C2091 C 0.08871 1.05675 0.48338
 C2092 C 0.05865 1.04790 0.48915
 C2093 C 0.04919 1.01599 0.49470
 C2094 C 0.07281 0.99200 0.49469
 C2095 C 0.12669 0.97824 0.48529
 C2096 C 0.12010 0.94615 0.49138
 C2097 C 0.09072 0.93663 0.50007
 C2098 C 0.06754 0.95895 0.50189
 H2099 H 0.14997 0.98461 0.47858
 H2100 H 0.13795 0.92864 0.48972
 H2101 H 0.08577 0.91165 0.50551
 H2102 H 0.04620 0.94882 0.50975
 H2103 H 0.09441 1.08196 0.48048
 H2104 H 0.04312 1.06727 0.49092
 C2105 C 0.13962 -0.02083 0.99738
 C2106 C 0.14363 -0.05370 1.00556
 C2107 C 0.11873 -0.07455 1.00335
 C2108 C 0.09081 -0.06395 0.99348
 C2109 C 0.08524 -0.03171 0.98595
 C2110 C 0.11086 -0.01002 0.98581
 C2111 C 0.16314 0.00192 1.00217
 C2112 C 0.16001 0.03365 0.99231
 C2113 C 0.13350 0.04343 0.97755
 C2114 C 0.10929 0.02199 0.97419
 H2115 H 0.18405 -0.00447 1.01399
 H2116 H 0.17843 0.05064 0.99571
 H2117 H 0.13155 0.06789 0.96884
 H2118 H 0.09008 0.03105 0.96141
 H2119 H 0.12112 -0.10005 1.00745
 H2120 H 0.07399 -0.08226 0.98977
 C2121 C 0.62396 0.51090 0.51587
 C2122 C 0.62732 0.47695 0.51591
 C2123 C 0.60274 0.45825 0.50560
 C2124 C 0.57584 0.47174 0.49641
 C2125 C 0.57143 0.50503 0.49550
 C2126 C 0.59697 0.52497 0.50304
 C2127 C 0.64599 0.53127 0.52994
 C2128 C 0.64399 0.56438 0.52701
 C2129 C 0.62011 0.57785 0.51005
 C2130 C 0.59691 0.55844 0.49805
 H2131 H 0.66473 0.52187 0.54373
 H2132 H 0.66139 0.57963 0.53734
 H2133 H 0.61939 0.60351 0.50642
 H2134 H 0.57990 0.57004 0.48366
 H2135 H 0.60427 0.43252 0.50340
 H2136 H 0.55831 0.45519 0.48889
 C2137 C -0.11690 0.42802 0.51953
 C2138 C -0.13407 0.44929 0.50026
 C2139 C -0.11970 0.47435 0.48280
 C2140 C -0.08859 0.47970 0.48528
 C2141 C -0.07045 0.46046 0.50575
 C2142 C -0.08496 0.43321 0.52254
 C2143 C -0.13132 0.40157 0.53610
 C2144 C -0.11504 0.38063 0.55557
 C2145 C -0.08414 0.38530 0.55880
 C2146 C -0.06936 0.41088 0.54256
 H2147 H -0.15536 0.39660 0.53416
 H2148 H -0.12646 0.36063 0.56812
 H2149 H -0.07139 0.36892 0.57396
 H2150 H -0.04564 0.41211 0.54666
 H2151 H -0.13281 0.49034 0.46755
 H2152 H -0.07906 0.50001 0.47155
 C2153 C 0.38731 -0.02459 -0.00648
 C2154 C 0.38066 -0.05515 0.00779
 C2155 C 0.40259 -0.07019 0.02658
 C2156 C 0.43109 -0.05666 0.02998
 C2157 C 0.43923 -0.02664 0.01575
 C2158 C 0.41592 -0.00917 -0.00050
 C2159 C 0.36618 -0.00911 -0.02683
 C2160 C 0.37159 0.02197 -0.03843
 C2161 C 0.39779 0.03834 -0.02958
 C2162 C 0.41956 0.02318 -0.01061
 H2163 H 0.34536 -0.02086 -0.03404
 H2164 H 0.35501 0.03370 -0.05365
 H2165 H 0.40124 0.06303 -0.03733
 H2166 H 0.43810 0.03794 -0.00277
 H2167 H 0.39779 -0.09314 0.03853
 H2168 H 0.44709 -0.07076 0.04358
 C2169 C 0.36054 1.01633 0.54515
 C2170 C 0.35088 1.04543 0.53115
 C2171 C 0.37224 1.06861 0.52116
 C2172 C 0.40293 1.06238 0.52192
 C2173 C 0.41395 1.03274 0.53319
 C2174 C 0.39233 1.01051 0.54807
 C2175 C 0.33913 0.99332 0.55717
 C2176 C 0.34854 0.96567 0.57327
 C2177 C 0.37922 0.96106 0.57866
 C2178 C 0.40081 0.98339 0.56683
 H2179 H 0.31497 0.99679 0.55472
 H2180 H 0.33190 0.94829 0.58261
 H2181 H 0.38633 0.94031 0.59268
 H2182 H 0.42360 0.97981 0.57472
 H2183 H 0.36503 1.09137 0.51112
 H2184 H 0.41810 1.08087 0.51198
 C2185 C -0.12865 0.49627 0.99906
 C2186 C -0.13742 0.52408 1.01664
 C2187 C -0.11662 0.53815 1.03794
 C2188 C -0.08670 0.52840 1.03819
 C2189 C -0.07537 0.50510 1.01625
 C2190 C -0.09743 0.48678 0.99804
 C2191 C -0.15072 0.47723 0.98327
 C2192 C -0.14252 0.45055 0.96491
 C2193 C -0.11238 0.44158 0.96287
 C2194 C -0.09026 0.45893 0.97954
 H2195 H -0.17468 0.48244 0.98558
 H2196 H -0.15970 0.43643 0.95269
 H2197 H -0.10615 0.42042 0.94902
 H2198 H -0.06824 0.44865 0.97821
 H2199 H -0.12262 0.55889 1.05258
 H2200 H -0.07207 0.54182 1.05385
 C2201 C 0.03481 0.60681 0.55429
 C2202 C 0.01249 0.62698 0.54123
 C2203 C -0.00994 0.61421 0.52111
 C2204 C -0.01065 0.58178 0.51353
 C2205 C 0.01047 0.56024 0.52648
 C2206 C 0.03270 0.57304 0.54941
 C2207 C 0.05806 0.61968 0.57440
 C2208 C 0.07802 0.60012 0.59084
 C2209 C 0.07456 0.56740 0.58896
 C2210 C 0.05201 0.55415 0.56947
 H2211 H 0.06109 0.64496 0.57825
 H2212 H 0.09555 0.61042 0.60608
 H2213 H 0.08924 0.55203 0.60306
 H2214 H 0.05057 0.52895 0.57214
 H2215 H -0.02789 0.62933 0.51226
 H2216 H -0.02942 0.57338 0.49899
 C2217 C 0.51043 0.12240 0.03537
 C2218 C 0.52806 0.12520 0.06429
 C2219 C 0.54643 0.10019 0.07376
 C2220 C 0.54504 0.07125 0.05752
 C2221 C 0.52549 0.06591 0.03053
 C2222 C 0.50977 0.09288 0.01763
 C2223 C 0.49387 0.14865 0.02347
 C2224 C 0.47737 0.14625 -0.00564
 C2225 C 0.47765 0.11805 -0.02374
 C2226 C 0.49390 0.09186 -0.01252
 H2227 H 0.49401 0.17140 0.03616
 H2228 H 0.46488 0.16660 -0.01459
 H2229 H 0.46557 0.11660 -0.04692
 H2230 H 0.49488 0.07169 -0.02866
 H2231 H 0.56053 0.10234 0.09547
 H2232 H 0.55847 0.05240 0.06800
 C2233 C 0.01104 0.12262 0.95873
 C2234 C 0.00051 0.12421 0.92564
 C2235 C -0.00485 0.09588 0.90862
 C2236 C -0.00134 0.06626 0.92404
 C2237 C 0.00751 0.06305 0.95765
 C2238 C 0.01551 0.09214 0.97468
 C2239 C 0.01801 0.15104 0.97596
 C2240 C 0.02931 0.15000 1.00806
 C2241 C 0.03443 0.12077 1.02338
 C2242 C 0.02798 0.09233 1.00694
 H2243 H 0.01512 0.17438 0.96470
 H2244 H 0.03453 0.17199 1.02092
 H2245 H 0.04372 0.12007 1.04816
 H2246 H 0.03347 0.07108 1.02025
 H2247 H -0.01215 0.09668 0.88297
 H2248 H -0.00594 0.04561 0.90882
 C2249 C 0.47952 0.63257 0.41096
 C2250 C 0.49999 0.65551 0.42401
 C2251 C 0.51264 0.64963 0.45503
 C2252 C 0.50725 0.62094 0.47204
 C2253 C 0.49024 0.59568 0.45820
 C2254 C 0.47566 0.60184 0.42682
 C2255 C 0.46207 0.64010 0.38277
 C2256 C 0.44346 0.61735 0.36828
 C2257 C 0.44099 0.58695 0.38205
 C2258 C 0.45635 0.57937 0.41097
 H2259 H 0.46197 0.66386 0.37197
 H2260 H 0.43054 0.62351 0.34654
 H2261 H 0.42606 0.56940 0.37100
 H2262 H 0.45045 0.55639 0.42114
 H2263 H 0.52760 0.66720 0.46603
 H2264 H 0.51799 0.61824 0.49591
 C2265 C 0.46483 0.90071 0.45987
 C2266 C 0.48808 0.89682 0.43483
 C2267 C 0.51217 0.91900 0.43410
 C2268 C 0.51278 0.94465 0.45583
 C2269 C 0.49232 0.94728 0.48342
 C2270 C 0.46915 0.92288 0.48659
 C2271 C 0.43676 0.88407 0.45854
 C2272 C 0.41607 0.88446 0.48544
 C2273 C 0.42296 0.90135 0.51406
 C2274 C 0.44925 0.92023 0.51475
 H2275 H 0.43034 0.87100 0.43656
 H2276 H 0.39497 0.87094 0.48438
 H2277 H 0.40764 0.90027 0.53564
 H2278 H 0.45408 0.93159 0.53799
 H2279 H 0.53047 0.91755 0.41567
 H2280 H 0.52915 0.96319 0.44942
 C2281 C 0.02483 0.39442 0.92752
 C2282 C 0.00640 0.36944 0.94161
 C2283 C -0.00490 0.37244 0.97429
 C2284 C -0.00105 0.40073 0.99175
 C2285 C 0.01311 0.42802 0.97690
 C2286 C 0.02776 0.42425 0.94456
 C2287 C 0.04109 0.38983 0.89702
 C2288 C 0.05864 0.41429 0.88243
 C2289 C 0.06111 0.44349 0.89827
 C2290 C 0.04632 0.44835 0.92894
 H2291 H 0.04106 0.36703 0.88448
 H2292 H 0.07085 0.41035 0.85904
 H2293 H 0.07539 0.46225 0.88722
 H2294 H 0.05177 0.47058 0.94045
 H2295 H -0.01815 0.35318 0.98597
 H2296 H -0.01124 0.40156 1.01662
 C2297 C 0.54112 0.34983 0.00988
 C2298 C 0.51816 0.34483 0.03489
 C2299 C 0.49237 0.36352 0.03458
 C2300 C 0.48991 0.38853 0.01205
 C2301 C 0.51268 0.39616 -0.01242
 C2302 C 0.53819 0.37494 -0.01459
 C2303 C 0.56760 0.33112 0.00957
 C2304 C 0.59021 0.33563 -0.01495
 C2305 C 0.58704 0.35887 -0.03951
 C2306 C 0.56155 0.37824 -0.03937
 H2307 H 0.57126 0.31296 0.02838
 H2308 H 0.61027 0.32095 -0.01497
 H2309 H 0.60455 0.36205 -0.05879
 H2310 H 0.56078 0.39512 -0.05943
 H2311 H 0.47446 0.35983 0.05337
 H2312 H 0.47084 0.40366 0.01669
 C2313 C -0.03064 0.88238 0.56331
 C2314 C -0.00930 0.86454 0.54456
 C2315 C -0.00114 0.87417 0.51211
 C2316 C -0.01131 0.90300 0.49921
 C2317 C -0.02976 0.92358 0.51846
 C2318 C -0.04170 0.91169 0.55013
 C2319 C -0.04124 0.87132 0.59514
 C2320 C -0.06274 0.88822 0.61351
 C2321 C -0.07443 0.91612 0.60050
 C2322 C -0.06435 0.92754 0.56930
 H2323 H -0.03329 0.84933 0.60607
 H2324 H -0.07068 0.87936 0.63774
 H2325 H -0.09166 0.92893 0.61452
 H2326 H -0.07557 0.94836 0.56077
 H2327 H 0.01419 0.85982 0.49708
 H2328 H -0.00289 0.91008 0.47455
 C2329 C 0.19800 0.31341 0.12996
 C2330 C 0.21891 0.30686 0.10358
 C2331 C 0.23821 0.28103 0.10677
 C2332 C 0.24008 0.26467 0.13683
 C2333 C 0.22396 0.27432 0.16601
 C2334 C 0.20071 0.29771 0.16169
 C2335 C 0.17451 0.33552 0.12522
 C2336 C 0.15432 0.34284 0.15122
 C2337 C 0.15736 0.32857 0.18235
 C2338 C 0.18040 0.30675 0.18761
 H2339 H 0.17125 0.34684 0.10117
 H2340 H 0.13636 0.35978 0.14726
 H2341 H 0.14188 0.33457 0.20272
 H2342 H 0.18207 0.29801 0.21240
 H2343 H 0.25372 0.27470 0.08651
 H2344 H 0.25631 0.24557 0.13697
 C2345 C 0.70609 0.76281 0.62351
 C2346 C 0.69960 0.79573 0.62705
 C2347 C 0.69082 0.80682 0.65873
 C2348 C 0.69425 0.78765 0.68711
 C2349 C 0.70829 0.75774 0.68482
 C2350 C 0.70943 0.74334 0.65261
 C2351 C 0.70872 0.74874 0.59164
 C2352 C 0.71401 0.71611 0.58842
 C2353 C 0.71595 0.69682 0.61675
 C2354 C 0.71324 0.71011 0.64849
 H2355 H 0.70583 0.76261 0.56902
 H2356 H 0.71581 0.70561 0.56383
 H2357 H 0.71911 0.67132 0.61412
 H2358 H 0.71313 0.69391 0.66962
 H2359 H 0.68354 0.83126 0.66193
 H2360 H 0.68834 0.79761 0.71113
 C2361 C 0.29778 0.72256 0.64427
 C2362 C 0.28830 0.69007 0.64338
 C2363 C 0.28719 0.67222 0.67295
 C2364 C 0.28932 0.68707 0.70346
 C2365 C 0.29470 0.72032 0.70596
 C2366 C 0.30310 0.73707 0.67583
 C2367 C 0.30120 0.74134 0.61488
 C2368 C 0.31230 0.77269 0.61625
 C2369 C 0.32018 0.78579 0.64673
 C2370 C 0.31568 0.76814 0.67618
 H2371 H 0.29559 0.73211 0.59066
 H2372 H 0.31528 0.78669 0.59349
 H2373 H 0.32968 0.80978 0.64759
 H2374 H 0.32297 0.77851 0.69908
 H2375 H 0.28089 0.64705 0.67267
 H2376 H 0.28211 0.67255 0.72465
 C2377 C 0.74331 0.17866 0.14510
 C2378 C 0.77180 0.18110 0.12825
 C2379 C 0.79432 0.20121 0.14045
 C2380 C 0.78925 0.21874 0.16946
 C2381 C 0.76139 0.21715 0.18757
 C2382 C 0.73721 0.19753 0.17409
 C2383 C 0.72049 0.15784 0.13294
 C2384 C 0.69178 0.15615 0.14791
 C2385 C 0.68493 0.17542 0.17485
 C2386 C 0.70695 0.19587 0.18756
 H2387 H 0.72445 0.14266 0.11157
 H2388 H 0.67461 0.14023 0.13817
 H2389 H 0.66223 0.17476 0.18594
 H2390 H 0.69839 0.21037 0.20721
 H2391 H 0.81605 0.20348 0.12727
 H2392 H 0.80751 0.23415 0.17718
 C2393 C 0.69466 0.19499 0.88734
 C2394 C 0.70763 0.16400 0.88605
 C2395 C 0.71069 0.14919 0.85491
 C2396 C 0.70565 0.16587 0.82544
 C2397 C 0.69573 0.19781 0.82556
 C2398 C 0.68619 0.21043 0.85698
 C2399 C 0.69083 0.21178 0.91763
 C2400 C 0.67565 0.24085 0.91851
 C2401 C 0.66403 0.25371 0.88940
 C2402 C 0.66915 0.23856 0.85896
 H2403 H 0.69964 0.20306 0.94084
 H2404 H 0.67246 0.25318 0.94199
 H2405 H 0.65137 0.27571 0.89032
 H2406 H 0.65925 0.24847 0.83696
 H2407 H 0.71954 0.12519 0.85314
 H2408 H 0.71282 0.15441 0.80250
 C2409 C 0.20846 0.66228 0.37620
 C2410 C 0.20090 0.68349 0.40226
 C2411 C 0.19186 0.71447 0.39467
 C2412 C 0.19314 0.72584 0.36179
 C2413 C 0.20498 0.70718 0.33539
 C2414 C 0.21079 0.67378 0.34253
 C2415 C 0.21510 0.62989 0.38350
 C2416 C 0.22321 0.60878 0.35839
 C2417 C 0.22545 0.61945 0.32565
 C2418 C 0.21971 0.65127 0.31790
 H2419 H 0.21401 0.62029 0.40864
 H2420 H 0.22793 0.58407 0.36441
 H2421 H 0.23190 0.60302 0.30602
 H2422 H 0.22245 0.65689 0.29213
 H2423 H 0.18551 0.73064 0.41459
 H2424 H 0.18762 0.75070 0.35782
 C2425 C 0.73377 0.84667 0.35008
 C2426 C 0.74308 0.82618 0.37601
 C2427 C 0.75143 0.79503 0.36855
 C2428 C 0.75140 0.78401 0.33580
 C2429 C 0.74311 0.80351 0.30859
 C2430 C 0.73229 0.83525 0.31644
 C2431 C 0.72491 0.87831 0.35752
 C2432 C 0.71376 0.89830 0.33299
 C2433 C 0.71045 0.88704 0.30088
 C2434 C 0.71902 0.85606 0.29282
 H2435 H 0.72625 0.88793 0.38246
 H2436 H 0.70703 0.92240 0.33913
 H2437 H 0.70092 0.90237 0.28199
 H2438 H 0.71436 0.84963 0.26781
 H2439 H 0.75759 0.77880 0.38845
 H2440 H 0.75680 0.75916 0.33240
 C2441 C 0.22822 0.35117 0.83061
 C2442 C 0.25426 0.34153 0.84762
 C2443 C 0.27262 0.31783 0.83370
 C2444 C 0.26504 0.30329 0.80359
 C2445 C 0.23805 0.31063 0.78713
 C2446 C 0.21757 0.33261 0.80362
 C2447 C 0.21105 0.37738 0.84223
 C2448 C 0.18164 0.38198 0.83164
 C2449 C 0.16869 0.36002 0.81032
 C2450 C 0.18612 0.33541 0.79694
 H2451 H 0.21991 0.39370 0.86059
 H2452 H 0.16833 0.40152 0.84145
 H2453 H 0.14499 0.36195 0.80413
 H2454 H 0.17337 0.31786 0.78371
 H2455 H 0.29235 0.30972 0.84680
 H2456 H 0.27984 0.28485 0.79407
 C2457 C 0.77444 0.35221 0.82996
 C2458 C 0.79994 0.35987 0.80893
 C2459 C 0.80936 0.33785 0.78519
 C2460 C 0.79272 0.31016 0.77983
 C2461 C 0.76610 0.30193 0.79848
 C2462 C 0.75818 0.32242 0.82590
 C2463 C 0.76526 0.37330 0.85546
 C2464 C 0.74121 0.36525 0.87732
 C2465 C 0.72650 0.33577 0.87480
 C2466 C 0.73507 0.31444 0.84980
 H2467 H 0.77690 0.39594 0.85902
 H2468 H 0.73447 0.38161 0.89689
 H2469 H 0.70861 0.32914 0.89269
 H2470 H 0.72430 0.29130 0.85102
 H2471 H 0.82875 0.34322 0.76875
 H2472 H 0.79967 0.29700 0.75827
 C2473 C 0.29008 0.85381 0.33586
 C2474 C 0.31529 0.86163 0.31394
 C2475 C 0.32713 0.83681 0.29422
 C2476 C 0.31093 0.80859 0.29000
 C2477 C 0.28301 0.80233 0.30663
 C2478 C 0.27460 0.82349 0.33309
 C2479 C 0.28207 0.87401 0.36280
 C2480 C 0.25895 0.86547 0.38563
 C2481 C 0.24437 0.83598 0.38333
 C2482 C 0.25250 0.81494 0.35795
 H2483 H 0.29450 0.89594 0.36744
 H2484 H 0.25319 0.88128 0.40605
 H2485 H 0.22738 0.82885 0.40207
 H2486 H 0.24271 0.79132 0.35990
 H2487 H 0.34648 0.84063 0.27736
 H2488 H 0.31886 0.79381 0.26997
 C2489 C 0.18216 0.85928 0.74360
 C2490 C 0.20011 0.87806 0.72095
 C2491 C 0.22718 0.86619 0.70786
 C2492 C 0.23751 0.83640 0.71777
 C2493 C 0.22149 0.81722 0.74175
 C2494 C 0.19238 0.82856 0.75401
 C2495 C 0.15442 0.87123 0.75690
 C2496 C 0.13657 0.85338 0.77941
 C2497 C 0.14599 0.82349 0.78947
 C2498 C 0.17334 0.81143 0.77726
 H2499 H 0.14612 0.89459 0.75027
 H2500 H 0.11544 0.86287 0.78923
 H2501 H 0.13216 0.80959 0.80720
 H2502 H 0.17869 0.78866 0.78717
 H2503 H 0.24091 0.88053 0.69040
 H2504 H 0.25905 0.82908 0.70698
 C2505 C 0.68560 0.36440 0.21168
 C2506 C 0.69127 0.38749 0.23662
 C2507 C 0.71433 0.38208 0.25916
 C2508 C 0.72948 0.35318 0.25974
 C2509 C 0.72178 0.32779 0.23850
 C2510 C 0.70140 0.33463 0.21187
 C2511 C 0.66540 0.37099 0.18563
 C2512 C 0.66014 0.34888 0.16066
 C2513 C 0.67605 0.32055 0.15997
 C2514 C 0.69693 0.31388 0.18453
 H2515 H 0.65405 0.39364 0.18358
 H2516 H 0.64450 0.35431 0.14102
 H2517 H 0.67298 0.30407 0.13956
 H2518 H 0.71050 0.29337 0.17975
 H2519 H 0.71979 0.39988 0.27768
 H2520 H 0.74639 0.35039 0.27848
 C2521 C 0.71756 0.63865 0.25808
 C2522 C 0.69294 0.63286 0.23690
 C2523 C 0.68496 0.65601 0.21385
 C2524 C 0.69915 0.68568 0.21331
 C2525 C 0.72188 0.69408 0.23596
 C2526 C 0.73322 0.66894 0.25669
 C2527 C 0.72716 0.61460 0.28023
 C2528 C 0.75260 0.61940 0.29958
 C2529 C 0.76922 0.64781 0.29668
 C2530 C 0.75996 0.67212 0.27531
 H2531 H 0.71538 0.59175 0.28234
 H2532 H 0.75993 0.60065 0.31624
 H2533 H 0.78972 0.65090 0.31075
 H2534 H 0.77517 0.69222 0.27258
 H2535 H 0.66656 0.65154 0.19693
 H2536 H 0.69017 0.70278 0.19621
 C2537 C 0.17028 0.15140 0.71013
 C2538 C 0.18465 0.13472 0.73598
 C2539 C 0.20333 0.15112 0.75769
 C2540 C 0.20848 0.18388 0.75388
 C2541 C 0.19454 0.20200 0.72866
 C2542 C 0.17354 0.18531 0.70745
 C2543 C 0.15208 0.13465 0.68718
 C2544 C 0.13573 0.15088 0.66333
 C2545 C 0.13661 0.18396 0.66235
 C2546 C 0.15477 0.20082 0.68427
 H2547 H 0.15020 0.10882 0.68745
 H2548 H 0.12184 0.13776 0.64605
 H2549 H 0.12322 0.19674 0.64440
 H2550 H 0.15355 0.22615 0.68220
 H2551 H 0.21396 0.13846 0.77793
 H2552 H 0.22368 0.19485 0.77134
 C2553 C 0.27233 0.11456 0.21029
 C2554 C 0.29485 0.10731 0.23362
 C2555 C 0.30946 0.13215 0.25002
 C2556 C 0.30081 0.16358 0.24553
 C2557 C 0.27652 0.17195 0.22502
 C2558 C 0.26408 0.14719 0.20455
 C2559 C 0.25808 0.08993 0.19231
 C2560 C 0.23752 0.09706 0.16759
 C2561 C 0.23142 0.12873 0.15978
 C2562 C 0.24482 0.15349 0.17759
 H2563 H 0.26295 0.06500 0.19698
 H2564 H 0.22696 0.07796 0.15374
 H2565 H 0.21656 0.13419 0.13943
 H2566 H 0.24118 0.17719 0.16819
 H2567 H 0.32773 0.12711 0.26686
 H2568 H 0.31294 0.18142 0.25954
 C2569 C 0.81508 0.62165 0.71730
 C2570 C 0.80593 0.60269 0.74535
 C2571 C 0.78219 0.61321 0.76612
 C2572 C 0.76899 0.64295 0.76105
 C2573 C 0.77925 0.66396 0.73517
 C2574 C 0.80032 0.65134 0.71083
 C2575 C 0.83889 0.61177 0.69555
 C2576 C 0.84632 0.62901 0.66652
 C2577 C 0.82978 0.65580 0.65823
 C2578 C 0.80681 0.66651 0.67977
 H2579 H 0.85189 0.59060 0.70057
 H2580 H 0.86440 0.62100 0.64992
 H2581 H 0.83467 0.66837 0.63489
 H2582 H 0.79377 0.68599 0.67082
 H2583 H 0.77454 0.59873 0.78738
 H2584 H 0.75190 0.65016 0.77924
 C2585 C 0.86100 0.75076 0.25349
 C2586 C 0.87409 0.77022 0.22695
 C2587 C 0.85682 0.79588 0.21546
 C2588 C 0.82744 0.80096 0.22693
 C2589 C 0.81272 0.78084 0.25094
 C2590 C 0.83119 0.75775 0.26688
 C2591 C 0.87486 0.72234 0.26468
 C2592 C 0.86256 0.70466 0.29154
 C2593 C 0.83590 0.71432 0.30743
 C2594 C 0.82030 0.74043 0.29510
 H2595 H 0.89473 0.71268 0.25234
 H2596 H 0.87384 0.68338 0.30013
 H2597 H 0.82682 0.70104 0.32887
 H2598 H 0.79992 0.74725 0.30818
 H2599 H 0.86594 0.81253 0.19673
 H2600 H 0.81538 0.81906 0.21348
 C2601 C 0.34475 0.25479 0.70935
 C2602 C 0.35877 0.28279 0.72107
 C2603 C 0.34088 0.30657 0.73547
 C2604 C 0.30923 0.30313 0.73729
 C2605 C 0.29404 0.27768 0.72146
 C2606 C 0.31285 0.25416 0.70467
 C2607 C 0.36275 0.22888 0.69846
 C2608 C 0.35037 0.20443 0.67970
 C2609 C 0.32058 0.20652 0.66976
 C2610 C 0.30247 0.23154 0.68099
 H2611 H 0.38674 0.22794 0.70361
 H2612 H 0.36447 0.18504 0.67096
 H2613 H 0.31167 0.18925 0.65240
 H2614 H 0.28180 0.23389 0.66785
 H2615 H 0.35135 0.32847 0.74413
 H2616 H 0.29651 0.32221 0.74883
 C2617 C 0.38070 0.78495 0.78175
 C2618 C 0.38882 0.76302 0.80696
 C2619 C 0.36666 0.74296 0.82129
 C2620 C 0.33714 0.74316 0.81022
 C2621 C 0.32810 0.76239 0.78302
 C2622 C 0.34991 0.78588 0.77064
 C2623 C 0.40257 0.80665 0.76809
 C2624 C 0.39437 0.83007 0.74527
 C2625 C 0.36425 0.83280 0.73636
 C2626 C 0.34224 0.81143 0.74921
 H2627 H 0.42608 0.80593 0.77529
 H2628 H 0.41132 0.84673 0.73515
 H2629 H 0.35778 0.85186 0.71960
 H2630 H 0.31939 0.81639 0.74269
 H2631 H 0.37219 0.72708 0.84175
 H2632 H 0.32132 0.72747 0.82362
 C2633 C 0.86857 0.29015 0.25291
 C2634 C 0.88256 0.26093 0.26170
 C2635 C 0.86937 0.23216 0.25083
 C2636 C 0.84089 0.23169 0.23628
 C2637 C 0.82434 0.25986 0.23266
 C2638 C 0.84089 0.28928 0.23518
 C2639 C 0.88054 0.32027 0.26212
 C2640 C 0.86804 0.34851 0.25023
 C2641 C 0.84345 0.34736 0.22913
 C2642 C 0.83000 0.31805 0.22155
 H2643 H 0.89938 0.32256 0.27867
 H2644 H 0.87776 0.37139 0.25705
 H2645 H 0.83437 0.36929 0.21916
 H2646 H 0.81092 0.31802 0.20510
 H2647 H 0.88036 0.20958 0.25549
 H2648 H 0.83094 0.20880 0.23029
 C2649 C 0.12550 0.22391 0.23952
 C2650 C 0.11708 0.23892 0.27010
 C2651 C 0.13817 0.25911 0.28487
 C2652 C 0.16739 0.26280 0.27183
 C2653 C 0.17748 0.24762 0.24235
 C2654 C 0.15523 0.22970 0.22459
 C2655 C 0.10535 0.20272 0.22370
 C2656 C 0.11284 0.18974 0.19268
 C2657 C 0.14038 0.19768 0.17676
 C2658 C 0.16130 0.21749 0.19237
 H2659 H 0.08373 0.19581 0.23516
 H2660 H 0.09697 0.17383 0.18067
 H2661 H 0.14561 0.18836 0.15216
 H2662 H 0.18156 0.22389 0.17819
 H2663 H 0.13228 0.27165 0.30768
 H2664 H 0.18237 0.27675 0.28664
 C2665 C 0.65273 0.74951 0.82242
 C2666 C 0.62826 0.74874 0.80031
 C2667 C 0.63407 0.74510 0.76618
 C2668 C 0.66372 0.74244 0.75356
 C2669 C 0.68903 0.74284 0.77445
 C2670 C 0.68307 0.74438 0.81017
 C2671 C 0.64718 0.75455 0.85697
 C2672 C 0.67044 0.75275 0.87962
 C2673 C 0.69943 0.74503 0.86857
 C2674 C 0.70563 0.74037 0.83466
 H2675 H 0.62473 0.75990 0.86685
 H2676 H 0.66578 0.75650 0.90597
 H2677 H 0.71730 0.74234 0.88645
 H2678 H 0.72810 0.73234 0.82934
 H2679 H 0.61537 0.74364 0.74915
 H2680 H 0.66643 0.73898 0.72701
 C2681 C 0.60534 0.28204 0.76514
 C2682 C 0.59366 0.26259 0.73967
 C2683 C 0.61122 0.23825 0.72662
 C2684 C 0.64047 0.23366 0.73704
 C2685 C 0.65377 0.25186 0.76253
 C2686 C 0.63568 0.27733 0.77656
 C2687 C 0.58734 0.30653 0.77896
 C2688 C 0.59879 0.32690 0.80296
 C2689 C 0.62835 0.32345 0.81343
 C2690 C 0.64659 0.29934 0.80038
 H2691 H 0.56421 0.31010 0.77131
 H2692 H 0.58476 0.34564 0.81325
 H2693 H 0.63729 0.33965 0.83185
 H2694 H 0.66899 0.29896 0.80982
 H2695 H 0.60296 0.22395 0.70617
 H2696 H 0.65313 0.21711 0.72215
 C2697 C 0.13219 0.77059 0.21952
 C2698 C 0.10917 0.76197 0.24323
 C2699 C 0.11624 0.76078 0.27719
 C2700 C 0.14653 0.76340 0.28719
 C2701 C 0.17056 0.76529 0.26335
 C2702 C 0.16252 0.77534 0.23009
 C2703 C 0.12529 0.77588 0.18552
 C2704 C 0.14691 0.78867 0.16312
 C2705 C 0.17528 0.79756 0.17432
 C2706 C 0.18276 0.79175 0.20741
 H2707 H 0.10293 0.77110 0.17601
 H2708 H 0.14116 0.79307 0.13735
 H2709 H 0.19148 0.80947 0.15744
 H2710 H 0.20400 0.80201 0.21479
 H2711 H 0.09844 0.75638 0.29590
 H2712 H 0.15125 0.76030 0.31342
   
