data_POSCAR
  _audit_creation_date              2014-09-24
  _audit_creation_method            'ToBaCCo'
  _symmetry_space_group_name_H-M    'P1'
  _symmetry_Int_Tables_number       1
  _symmetry_cell_setting            triclinic
  loop_
  _symmetry_equiv_pos_as_xyz
 x,y,z
_cell_length_a 37.5999
_cell_length_b 38.3460
_cell_length_c 38.6795
_cell_angle_alpha 91.033300
_cell_angle_beta 90.396000
_cell_angle_gamma 90.431500
loop_
  _atom_site_label
  _atom_site_type_symbol
  _atom_site_fract_x
  _atom_site_fract_y
  _atom_site_fract_z
C1 C 0.79767 0.65284 1.00641
 C2 C 0.80188 0.62072 0.98230
 C3 C 0.77161 0.60165 0.97703
 C4 C 0.73930 0.61633 0.99629
 C5 C 0.76752 0.67288 0.98853
 C6 C 0.73666 0.65424 0.98395
 C7 C 0.78143 0.63833 1.03938
 C8 C 0.75098 0.61973 1.03441
 H9 H 0.82394 0.61730 0.96482
 H10 H 0.71485 0.60039 0.99194
 H11 H 0.77089 0.69915 0.97919
 H12 H 0.79246 0.64367 1.06491
 C13 C 0.78901 0.37591 0.46142
 C14 C 0.80200 0.40113 0.48998
 C15 C 0.77602 0.41973 0.50594
 C16 C 0.73850 0.41154 0.49163
 C17 C 0.76068 0.35316 0.47931
 C18 C 0.73446 0.37171 0.49529
 C19 C 0.76663 0.39770 0.43686
 C20 C 0.74092 0.41698 0.45230
 H21 H 0.82940 0.40180 0.49886
 H22 H 0.71708 0.42674 0.50436
 H23 H 0.75884 0.32511 0.47707
 H24 H 0.77089 0.39784 0.40918
 C25 C 0.31312 -0.13030 -0.03533
 C26 C 0.31950 -0.10984 -0.00397
 C27 C 0.28843 -0.09443 0.01056
 C28 C 0.25634 -0.10101 -0.01030
 C29 C 0.28487 -0.15527 -0.02639
 C30 C 0.25349 -0.13924 -0.01245
 C31 C 0.29518 -0.10730 -0.05924
 C32 C 0.26409 -0.09050 -0.04592
 H33 H 0.34498 -0.10918 0.00938
 H34 H 0.23297 -0.08750 0.00088
 H35 H 0.28639 -0.18321 -0.02986
 H36 H 0.30167 -0.10680 -0.08651
 C37 C 0.27550 0.15580 0.50082
 C38 C 0.27686 0.12721 0.47232
 C39 C 0.24646 0.10798 0.46817
 C40 C 0.21679 0.11913 0.49326
 C41 C 0.24310 0.17719 0.48974
 C42 C 0.21211 0.15852 0.48654
 C43 C 0.26395 0.13654 0.53319
 C44 C 0.23336 0.11794 0.52967
 H45 H 0.29758 0.12515 0.45322
 H46 H 0.19230 0.10297 0.49054
 H47 H 0.24509 0.20453 0.48341
 H48 H 0.27772 0.13941 0.55780
 C49 C 0.14949 0.50485 0.28891
 C50 C 0.11753 0.48010 0.28981
 C51 C 0.10175 0.47369 0.25870
 C52 C 0.11931 0.49318 0.22874
 C53 C 0.17396 0.48683 0.26184
 C54 C 0.15848 0.48172 0.22990
 C55 C 0.13678 0.53771 0.27070
 C56 C 0.12061 0.53166 0.23988
 H57 H 0.11133 0.46487 0.31237
 H58 H 0.10549 0.48921 0.20354
 H59 H 0.19963 0.47592 0.26752
 H60 H 0.14137 0.56386 0.28098
 C61 C -0.13259 -0.03569 0.28816
 C62 C -0.10998 -0.00235 0.28859
 C63 C -0.09378 0.00476 0.25817
 C64 C -0.10185 -0.02260 0.22942
 C65 C -0.15895 -0.03063 0.25771
 C66 C -0.14293 -0.02375 0.22699
 C67 C -0.10957 -0.06325 0.27559
 C68 C -0.09273 -0.05650 0.24351
 H69 H -0.10788 0.01484 0.31107
 H70 H -0.08865 -0.01671 0.20459
 H71 H -0.18749 -0.03322 0.25917
 H72 H -0.10655 -0.08779 0.28873
 C73 C 0.36293 0.46753 0.80263
 C74 C 0.38432 0.50154 0.80721
 C75 C 0.39768 0.51432 0.77750
 C76 C 0.38940 0.49165 0.74537
 C77 C 0.33503 0.47443 0.77416
 C78 C 0.34853 0.48820 0.74467
 C79 C 0.38870 0.44251 0.78411
 C80 C 0.40248 0.45488 0.75421
 H81 H 0.38792 0.51480 0.83197
 H82 H 0.40090 0.50225 0.72133
 H83 H 0.30722 0.46750 0.77680
 H84 H 0.39179 0.41539 0.79042
 C85 C 0.64004 1.02013 0.78720
 C86 C 0.61363 0.98954 0.78510
 C87 C 0.59995 0.98229 0.75299
 C88 C 0.61403 1.00754 0.72542
 C89 C 0.66847 1.01076 0.75983
 C90 C 0.65473 1.00300 0.72784
 C91 C 0.62207 1.04947 0.77212
 C92 C 0.60832 1.04320 0.73817
 H93 H 0.60883 0.97290 0.80697
 H94 H 0.60247 1.00304 0.69926
 H95 H 0.69688 1.01143 0.76404
 H96 H 0.62206 1.07518 0.78424
 C97 C -0.03521 0.29118 -0.14380
 C98 C -0.00302 0.29783 -0.11993
 C99 C 0.00820 0.26919 -0.10288
 C100 C -0.01514 0.23655 -0.10931
 C101 C -0.02488 0.25959 -0.16658
 C102 C -0.01483 0.23089 -0.14872
 C103 C -0.06331 0.27697 -0.11868
 C104 C -0.05327 0.24800 -0.10167
 H105 H 0.01112 0.32252 -0.11819
 H106 H -0.00673 0.21352 -0.09438
 H107 H -0.02324 0.26086 -0.19447
 H108 H -0.08904 0.28833 -0.11392
 C109 C 0.50875 0.28929 0.16552
 C110 C 0.47686 0.28995 0.14050
 C111 C 0.46960 0.25899 0.12395
 C112 C 0.49639 0.23019 0.13271
 C113 C 0.50157 0.25851 0.18931
 C114 C 0.49531 0.22764 0.17238
 C115 C 0.53911 0.27706 0.14172
 C116 C 0.53306 0.24610 0.12506
 H117 H 0.46194 0.31335 0.13534
 H118 H 0.49127 0.20507 0.11880
 H119 H 0.49986 0.26138 0.21716
 H120 H 0.56336 0.29164 0.13747
 C121 C 1.01532 0.78749 0.66397
 C122 C 0.98699 0.79810 0.64055
 C123 C 0.97615 0.77200 0.61587
 C124 C 0.99726 0.73975 0.61822
 C125 C 1.00325 0.75481 0.67885
 C126 C 0.99257 0.72801 0.65390
 C127 C 1.04381 0.77748 0.64043
 C128 C 1.03482 0.75045 0.61599
 H129 H 0.97414 0.82328 0.64174
 H130 H 0.99121 0.71950 0.59850
 H131 H 0.99906 0.75253 0.70639
 H132 H 1.06903 0.79109 0.63855
 C133 C 0.46515 0.79982 0.37637
 C134 C 0.49203 0.80910 0.40529
 C135 C 0.50533 0.78109 0.42214
 C136 C 0.48933 0.74601 0.40982
 C137 C 0.48366 0.77233 0.35349
 C138 C 0.49641 0.74459 0.37094
 C139 C 0.43643 0.77892 0.39566
 C140 C 0.44899 0.75070 0.41243
 H141 H 0.50173 0.83540 0.41027
 H142 H 0.49958 0.72314 0.42393
 H143 H 0.48577 0.77436 0.32567
 H144 H 0.40867 0.78553 0.39747
 C145 C 0.39189 -0.02051 0.30068
 H146 H 0.38905 0.00444 0.31384
 C147 C 0.40950 -0.04765 0.31703
 H148 H 0.42046 -0.04362 0.34278
 C149 C 0.37947 -0.05696 0.25180
 H150 H 0.36704 -0.06077 0.22675
 C151 C 0.39660 -0.08486 0.26734
 H152 H 0.39751 -0.10997 0.25412
 N153 N 0.37738 -0.02555 0.26862
 C154 C 0.36592 0.07581 0.22104
 H155 H 0.33855 0.07388 0.21238
 C156 C 0.38670 0.10444 0.21187
 H157 H 0.37519 0.12469 0.19629
 C158 C 0.41457 0.05135 0.25118
 H159 H 0.42559 0.03038 0.26597
 C160 C 0.43623 0.07967 0.24278
 H161 H 0.46365 0.08057 0.25154
 Zn162 Zn 0.35037 0.01102 0.24947
 N163 N 0.38002 0.05001 0.24041
 C164 C 0.30957 0.05723 0.29089
 N165 N 0.31534 0.02313 0.28256
 C166 C 0.30089 -0.00291 0.30155
 C167 C 0.28122 0.00496 0.33123
 C168 C 0.28958 0.06621 0.31991
 C169 C 0.35386 -0.00764 0.18032
 C170 C 0.34280 -0.02099 0.14827
 C171 C 0.28301 -0.02592 0.17036
 C172 C 0.29526 -0.01224 0.20219
 N173 N 0.33035 -0.00420 0.20669
 H174 H 0.32182 0.07758 0.27608
 H175 H 0.30645 -0.02982 0.29482
 H176 H 0.27136 -0.01589 0.34716
 H177 H 0.28641 0.09346 0.32705
 H178 H 0.38157 -0.00097 0.18462
 H179 H 0.36209 -0.02490 0.12792
 H180 H 0.25543 -0.03377 0.16729
 H181 H 0.27708 -0.00917 0.22356
 C182 C 0.42241 0.10628 0.22238
 C183 C 0.41168 -0.08024 0.30031
 C184 C 0.30721 -0.03098 0.14331
 C185 C 0.27591 0.03992 0.34086
 C186 C 0.05928 1.04869 0.77707
 H187 H 0.04762 1.02287 0.77593
 C188 C 0.03898 1.07694 0.78863
 H189 H 0.01180 1.07272 0.79674
 C190 C 0.10913 1.08588 0.76902
 H191 H 0.13665 1.08899 0.76161
 C192 C 0.08977 1.11478 0.78005
 H193 H 0.10240 1.14026 0.78115
 N194 N 0.09383 1.05363 0.76803
 C195 C 0.09692 0.96158 0.71203
 H196 H 0.11028 0.97491 0.69147
 C197 C 0.08041 0.92965 0.70486
 H198 H 0.08081 0.91891 0.67876
 C199 C 0.08159 0.95796 0.77123
 H200 H 0.08296 0.96891 0.79719
 C201 C 0.06488 0.92563 0.76518
 H202 H 0.05317 0.91167 0.78642
 Zn203 Zn 0.12357 1.01669 0.75393
 N204 N 0.09721 0.97518 0.74475
 C205 C 0.17690 0.97845 0.78696
 N206 N 0.15612 1.00719 0.79011
 C207 C 0.15469 1.02586 0.82038
 C208 C 0.17356 1.01496 0.84943
 C209 C 0.19606 0.96656 0.81543
 C210 C 0.12428 1.04331 0.68798
 C211 C 0.13801 1.05562 0.65712
 C212 C 0.19711 1.04229 0.67776
 C213 C 0.18219 1.03010 0.70840
 N214 N 0.14632 1.03093 0.71288
 H215 H 0.17702 0.96371 0.76285
 H216 H 0.13751 1.04820 0.82266
 H217 H 0.17107 1.02908 0.87379
 H218 H 0.21122 0.94273 0.81315
 H219 H 0.09590 1.04391 0.69237
 H220 H 0.12025 1.06611 0.63780
 H221 H 0.22571 1.04239 0.67458
 H222 H 0.19921 1.02051 0.72870
 C223 C 0.06432 0.91132 0.73158
 C224 C 0.05431 1.11043 0.79008
 C225 C 0.17480 1.05548 0.65198
 C226 C 0.19360 0.98441 0.84726
 C227 C 0.57192 0.56351 0.29927
 H228 H 0.57539 0.53924 0.31263
 C229 C 0.55798 0.59229 0.31699
 H230 H 0.55030 0.58984 0.34378
 C231 C 0.58017 0.59710 0.24910
 H232 H 0.58986 0.59950 0.22311
 C233 C 0.56545 0.62622 0.26556
 H234 H 0.56311 0.65040 0.25170
 N235 N 0.58351 0.56654 0.26618
 C236 C 0.58398 0.47634 0.20167
 H237 H 0.60217 0.48766 0.18354
 C238 C 0.56690 0.44512 0.19271
 H239 H 0.57161 0.43323 0.16755
 C240 C 0.55822 0.47578 0.25741
 H241 H 0.55599 0.48721 0.28302
 C242 C 0.54110 0.44401 0.24968
 H243 H 0.52576 0.43113 0.26938
 Zn244 Zn 0.61009 0.52880 0.24736
 N245 N 0.57988 0.49085 0.23374
 C246 C 0.64254 0.47826 0.28861
 N247 N 0.64033 0.51313 0.28323
 C248 C 0.65505 0.53672 0.30598
 C249 C 0.67088 0.52550 0.33664
 C250 C 0.65816 0.46597 0.31877
 C251 C 0.61900 0.55421 0.18004
 C252 C 0.63737 0.56542 0.15103
 C253 C 0.69267 0.55407 0.18081
 C254 C 0.67319 0.54306 0.20940
 N255 N 0.63699 0.54364 0.20864
 H256 H 0.63105 0.45993 0.27008
 H257 H 0.65282 0.56432 0.30117
 H258 H 0.68138 0.54446 0.35520
 H259 H 0.65898 0.43817 0.32313
 H260 H 0.59022 0.55391 0.17981
 H261 H 0.62277 0.57442 0.12870
 H262 H 0.72146 0.55428 0.18182
 H263 H 0.68697 0.53436 0.23226
 C264 C 0.54586 0.42820 0.21708
 C265 C 0.55560 0.62439 0.30038
 C266 C 0.67457 0.56562 0.15142
 C267 C 0.67134 0.48978 0.34373
 C268 C 0.90411 0.47753 0.78983
 H269 H 0.90648 0.50238 0.80338
 C270 C 0.92096 0.44817 0.80286
 H271 H 0.93641 0.45029 0.82655
 C272 C 0.87954 0.44383 0.74333
 H273 H 0.86264 0.44203 0.72068
 C274 C 0.89569 0.41385 0.75559
 H275 H 0.89139 0.38909 0.74221
 N276 N 0.88386 0.47482 0.76060
 C277 C 0.87351 0.58028 0.72417
 H278 H 0.84478 0.58167 0.72354
 C279 C 0.89375 0.60757 0.71147
 H280 H 0.88054 0.63028 0.70136
 C281 C 0.92564 0.54817 0.73655
 H282 H 0.93777 0.52446 0.74538
 C283 C 0.94704 0.57486 0.72350
 H284 H 0.97562 0.57180 0.72254
 Zn285 Zn 0.85830 0.51414 0.74622
 N286 N 0.88955 0.55125 0.73615
 C287 C 0.83298 0.55822 0.79937
 N288 N 0.82750 0.52693 0.78297
 C289 C 0.80449 0.50289 0.79584
 C290 C 0.78697 0.50950 0.82715
 C291 C 0.81597 0.56590 0.83042
 C292 C 0.85754 0.49915 0.67718
 C293 C 0.84507 0.48946 0.64448
 C294 C 0.78522 0.48891 0.66690
 C295 C 0.79893 0.49895 0.69948
 N296 N 0.83467 0.50316 0.70401
 H297 H 0.85218 0.57656 0.78966
 H298 H 0.80127 0.47785 0.78282
 H299 H 0.77002 0.48968 0.83812
 H300 H 0.82184 0.59029 0.84394
 H301 H 0.88580 0.50270 0.68150
 H302 H 0.86379 0.48540 0.62365
 H303 H 0.75695 0.48426 0.66356
 H304 H 0.78125 0.50246 0.72118
 C305 C 0.93083 0.60446 0.70992
 C306 C 0.91645 0.41594 0.78573
 C307 C 0.80865 0.48379 0.63915
 C308 C 0.79352 0.54104 0.84506
 C309 C 0.29650 0.38659 -0.01737
 H310 H 0.31003 0.38352 0.00715
 C311 C 0.31263 0.40566 -0.04346
 H312 H 0.33853 0.41750 -0.03899
 C313 C 0.24698 0.37359 -0.05381
 H314 H 0.22185 0.36034 -0.05809
 C315 C 0.26204 0.39266 -0.08051
 H316 H 0.24835 0.39421 -0.10515
 N317 N 0.26435 0.37085 -0.02299
 C318 C 0.21673 0.35293 0.07756
 H319 H 0.20867 0.32595 0.07422
 C320 C 0.20797 0.37101 0.10784
 H321 H 0.19380 0.35759 0.12800
 C322 C 0.24317 0.40369 0.05457
 H323 H 0.25632 0.41650 0.03353
 C324 C 0.23402 0.42305 0.08413
 H325 H 0.23988 0.45074 0.08544
 Zn326 Zn 0.24605 0.34192 0.01213
 N327 N 0.23490 0.36910 0.05205
 C328 C 0.28431 0.29666 0.05583
 N329 N 0.28178 0.30884 0.02309
 C330 C 0.30777 0.30227 -0.00048
 C331 C 0.33881 0.28501 0.00929
 C332 C 0.31474 0.27935 0.06662
 C333 C 0.17491 0.34156 -0.00672
 C334 C 0.14291 0.32868 -0.02031
 C335 C 0.16958 0.27167 -0.02566
 C336 C 0.20125 0.28569 -0.01187
 N337 N 0.20345 0.32026 -0.00347
 H338 H 0.26382 0.30204 0.07439
 H339 H 0.30534 0.31213 -0.02639
 H340 H 0.36011 0.28167 -0.00915
 H341 H 0.31721 0.27203 0.09344
 H342 H 0.17744 0.36890 0.00032
 H343 H 0.12080 0.34620 -0.02403
 H344 H 0.16828 0.24446 -0.03359
 H345 H 0.22431 0.26930 -0.00887
 C346 C 0.21684 0.40648 0.11152
 C347 C 0.29530 0.40871 -0.07542
 C348 C 0.14032 0.29359 -0.03063
 C349 C 0.34286 0.27415 0.04351
 C350 C 0.76132 0.04443 1.05388
 H351 H 0.74795 0.03232 1.03194
 C352 C 0.77439 0.02370 1.08043
 H353 H 0.77050 -0.00430 1.07910
 C354 C 0.78252 0.09556 1.08293
 H355 H 0.78535 0.12366 1.08372
 C356 C 0.79644 0.07588 1.10959
 H357 H 0.81001 0.08894 1.13095
 N358 N 0.76537 0.07971 1.05584
 C359 C 0.74415 0.09594 0.95066
 H360 H 0.76558 0.11470 0.94885
 C361 C 0.72848 0.08266 0.92043
 H362 H 0.73831 0.09088 0.89558
 C363 C 0.70345 0.06425 0.98484
 H364 H 0.69309 0.05821 1.01008
 C365 C 0.68736 0.04982 0.95516
 H366 H 0.66508 0.03198 0.95756
 Zn367 Zn 0.74885 0.11045 1.02197
 N368 N 0.73133 0.08683 0.98207
 C369 C 0.78713 0.17402 1.00912
 N370 N 0.78816 0.13857 1.00955
 C371 C 0.81743 0.12081 0.99891
 C372 C 0.84623 0.13853 0.98479
 C373 C 0.81538 0.19281 0.99501
 C374 C 0.69715 0.12872 1.07128
 C375 C 0.66679 0.14536 1.08356
 C376 C 0.66462 0.17854 1.03108
 C377 C 0.69480 0.16088 1.01954
 N378 N 0.71060 0.13675 1.03982
 H379 H 0.76387 0.18765 1.01820
 H380 H 0.81754 0.09263 0.99974
 H381 H 0.86842 0.12400 0.97437
 H382 H 0.81353 0.22084 0.99264
 H383 H 0.70942 0.10878 1.08661
 H384 H 0.65627 0.13859 1.10859
 H385 H 0.65264 0.19818 1.01504
 H386 H 0.70548 0.16613 0.99425
 C387 C 0.69928 0.05994 0.92253
 C388 C 0.79271 0.03950 1.10839
 C389 C 0.65002 0.17039 1.06326
 C390 C 0.84479 0.17479 0.98187
 C391 C 0.26552 0.54122 0.56036
 H392 H 0.25973 0.52717 0.53651
 C393 C 0.27583 0.52287 0.58974
 H394 H 0.27754 0.49470 0.58849
 C395 C 0.27096 0.59498 0.59126
 H396 H 0.26909 0.62312 0.59155
 C397 C 0.28177 0.57781 0.62091
 H398 H 0.28850 0.59289 0.64402
 N399 N 0.26287 0.57663 0.56185
 C400 C 0.25042 0.58477 0.45353
 H401 H 0.27076 0.60462 0.45221
 C402 C 0.23773 0.56957 0.42284
 H403 H 0.24801 0.57828 0.39834
 C404 C 0.21135 0.54994 0.48635
 H405 H 0.20112 0.54230 0.51112
 C406 C 0.19824 0.53365 0.45620
 H407 H 0.17756 0.51395 0.45784
 Zn408 Zn 0.24831 0.60402 0.52418
 N409 N 0.23598 0.57607 0.48445
 C410 C 0.27991 0.66115 0.49065
 N411 N 0.28665 0.63392 0.51176
 C412 C 0.32060 0.62511 0.52023
 C413 C 0.34942 0.64307 0.50608
 C414 C 0.30784 0.67995 0.47629
 C415 C 0.17570 0.61489 0.54152
 C416 C 0.14573 0.63397 0.55133
 C417 C 0.18264 0.68561 0.55554
 C418 C 0.21191 0.66556 0.54580
 N419 N 0.20797 0.63089 0.53834
 H420 H 0.25280 0.66707 0.48346
 H421 H 0.32541 0.60298 0.53650
 H422 H 0.37632 0.63491 0.51173
 H423 H 0.30211 0.70083 0.45865
 H424 H 0.17304 0.58723 0.53677
 H425 H 0.12035 0.62081 0.55408
 H426 H 0.18626 0.71313 0.56146
 H427 H 0.23786 0.67772 0.54478
 C428 C 0.21030 0.54481 0.42397
 C429 C 0.28351 0.54126 0.62063
 C430 C 0.14899 0.66987 0.55801
 C431 C 0.34302 0.67006 0.48296
 C432 C 0.79361 0.91706 0.47847
 H433 H 0.80289 0.92321 0.50441
 C434 C 0.81042 0.93198 0.45027
 H435 H 0.83193 0.95054 0.45457
 C436 C 0.75511 0.88447 0.44110
 H437 H 0.73412 0.86530 0.43767
 C438 C 0.77197 0.89786 0.41219
 H439 H 0.76358 0.88922 0.38657
 N440 N 0.76631 0.89404 0.47343
 C441 C 0.71707 0.88607 0.57378
 H442 H 0.71219 0.85824 0.57221
 C443 C 0.70763 0.90476 0.60334
 H444 H 0.69499 0.89117 0.62428
 C445 C 0.73937 0.93737 0.54807
 H446 H 0.75130 0.95005 0.52629
 C447 C 0.73090 0.95710 0.57768
 H448 H 0.73672 0.98480 0.57865
 Zn449 Zn 0.74761 0.87093 0.51176
 N450 N 0.73338 0.90228 0.54723
 C451 C 0.80073 0.85447 0.55899
 N452 N 0.78483 0.84295 0.52920
 C453 C 0.79844 0.81568 0.51061
 C454 C 0.82879 0.79833 0.52250
 C455 C 0.83103 0.83827 0.57148
 C456 C 0.67940 0.86644 0.48710
 C457 C 0.64610 0.85239 0.47897
 C458 C 0.66764 0.79561 0.49481
 C459 C 0.70088 0.81084 0.50260
 N460 N 0.70596 0.84575 0.49869
 H461 H 0.79074 0.87710 0.57266
 H462 H 0.78611 0.80782 0.48631
 H463 H 0.83936 0.77652 0.50779
 H464 H 0.84351 0.84812 0.59507
 H465 H 0.68412 0.89413 0.48453
 H466 H 0.62535 0.86929 0.46954
 H467 H 0.66359 0.76790 0.49818
 H468 H 0.72225 0.79499 0.51236
 C469 C 0.71578 0.94047 0.60615
 C470 C 0.80046 0.92133 0.41668
 C471 C 0.63965 0.81673 0.48344
 C472 C 0.84513 0.80955 0.55352
 C473 C -0.03213 0.29449 0.38063
 H474 H -0.00489 0.30346 0.38340
 C475 C -0.05931 0.31280 0.39698
 H476 H -0.05287 0.33546 0.41300
 C477 C -0.07377 0.25441 0.35585
 H478 H -0.07935 0.23213 0.33916
 C479 C -0.10189 0.27241 0.37121
 H480 H -0.12898 0.26361 0.36664
 N481 N -0.03966 0.26562 0.36092
 C482 C 0.06163 0.21198 0.35499
 H483 H 0.06179 0.20671 0.32742
 C484 C 0.08923 0.19993 0.37570
 H485 H 0.11066 0.18525 0.36402
 C486 C 0.03325 0.23728 0.40381
 H487 H 0.01114 0.25128 0.41482
 C488 C 0.06079 0.22637 0.42539
 H489 H 0.06009 0.23276 0.45277
 Zn490 Zn -0.00109 0.24452 0.33774
 N491 N 0.03445 0.23036 0.36921
 C492 C 0.04926 0.29397 0.31768
 N493 N 0.01754 0.27906 0.30866
 C494 C -0.00348 0.29287 0.28366
 C495 C 0.00667 0.32379 0.26756
 C496 C 0.06012 0.32494 0.30263
 C497 C -0.03102 0.17898 0.33351
 C498 C -0.04068 0.14669 0.31927
 C499 C -0.01684 0.16481 0.26450
 C500 C -0.00829 0.19729 0.27969
 N501 N -0.01570 0.20368 0.31361
 H502 H 0.06513 0.28321 0.33820
 H503 H -0.02895 0.28090 0.27756
 H504 H -0.01062 0.33524 0.24842
 H505 H 0.08466 0.33738 0.31127
 H506 H -0.03554 0.18444 0.36066
 H507 H -0.05333 0.12748 0.33540
 H508 H -0.01042 0.15960 0.23767
 H509 H 0.00505 0.21695 0.26473
 C510 C 0.08891 0.20701 0.41136
 C511 C -0.09474 0.30225 0.39165
 C512 C -0.03377 0.13933 0.28436
 C513 C 0.03818 0.34078 0.27814
 C514 C 1.07095 0.79321 0.05772
 H515 H 1.04595 0.80666 0.05650
 C516 C 1.10018 0.80670 0.04029
 H517 H 1.09756 0.83057 0.02597
 C518 C 1.10549 0.74626 0.07804
 H519 H 1.10762 0.72281 0.09290
 C520 C 1.13540 0.75880 0.06085
 H521 H 1.16043 0.74515 0.06272
 N522 N 1.07431 0.76412 0.07709
 C523 C 0.96577 0.73362 0.10085
 H524 H 0.96803 0.73620 0.12868
 C525 C 0.93334 0.72436 0.08578
 H526 H 0.91066 0.71933 0.10213
 C527 C 0.99316 0.73583 0.04584
 H528 H 1.01675 0.74015 0.03061
 C529 C 0.96094 0.72667 0.02957
 H530 H 0.95970 0.72377 0.00168
 Zn531 Zn 1.03626 0.75077 0.10627
 N532 N 0.99487 0.73884 0.08092
 C533 C 1.00455 0.81455 0.11834
 N534 N 1.02320 0.78936 0.13474
 C535 C 1.02807 0.79060 0.16967
 C536 C 1.01328 0.81769 0.18943
 C537 C 0.98947 0.84196 0.13699
 C538 C 1.03265 0.68053 0.12661
 C539 C 1.04334 0.65048 0.14346
 C540 C 1.08910 0.68443 0.17288
 C541 C 1.07753 0.71392 0.15545
 N542 N 1.04981 0.71149 0.13268
 H543 H 0.99925 0.81218 0.09095
 H544 H 1.04191 0.76991 0.18250
 H545 H 1.01577 0.81771 0.21734
 H546 H 0.97319 0.86080 0.12376
 H547 H 1.01126 0.67872 0.10791
 H548 H 1.02991 0.62590 0.13791
 H549 H 1.11150 0.68648 0.19056
 H550 H 1.09132 0.73855 0.15932
 C551 C 0.93056 0.72106 0.04974
 C552 C 1.13290 0.78975 0.04243
 C553 C 1.07222 0.65220 0.16641
 C554 C 0.99313 0.84321 0.17293
 C555 C 0.54486 0.29983 0.55653
 H556 H 0.51848 0.31065 0.55418
 C557 C 0.57362 0.31607 0.54051
 H558 H 0.56947 0.33938 0.52566
 C559 C 0.58318 0.25787 0.58096
 H560 H 0.58711 0.23606 0.59779
 C561 C 0.61258 0.27324 0.56542
 H562 H 0.63893 0.26303 0.57010
 N563 N 0.55017 0.27149 0.57657
 C564 C 0.44786 0.22257 0.59432
 H565 H 0.45155 0.21938 0.62184
 C566 C 0.41615 0.21209 0.57866
 H567 H 0.39547 0.20035 0.59408
 C568 C 0.47021 0.24246 0.54086
 H569 H 0.49135 0.25462 0.52648
 C570 C 0.43853 0.23241 0.52403
 H571 H 0.43524 0.23672 0.49661
 Zn572 Zn 0.51190 0.25459 0.60308
 N573 N 0.47376 0.23805 0.57556
 C574 C 0.46310 0.30656 0.62110
 N575 N 0.49495 0.29274 0.63036
 C576 C 0.51494 0.30754 0.65627
 C577 C 0.50220 0.33645 0.67496
 C578 C 0.44977 0.33567 0.63857
 C579 C 0.53649 0.18717 0.61106
 C580 C 0.54888 0.15760 0.62772
 C581 C 0.53944 0.18713 0.68257
 C582 C 0.52721 0.21623 0.66483
 N583 N 0.52684 0.21604 0.62964
 H584 H 0.44806 0.29545 0.59968
 H585 H 0.54066 0.29681 0.66254
 H586 H 0.51772 0.34725 0.69633
 H587 H 0.42429 0.34614 0.63087
 H588 H 0.53527 0.18748 0.58311
 H589 H 0.55765 0.13527 0.61260
 H590 H 0.54069 0.18780 0.71056
 H591 H 0.51842 0.23895 0.67917
 C592 C 0.41086 0.21793 0.54339
 C593 C 0.60789 0.30296 0.54550
 C594 C 0.55114 0.15773 0.66384
 C595 C 0.46927 0.35095 0.66593
 C596 C 0.49635 0.79824 0.88452
 H597 H 0.52319 0.80858 0.88428
 C598 C 0.47006 0.81577 0.90305
 H599 H 0.47697 0.83901 0.91802
 C600 C 0.45438 0.75585 0.86468
 H601 H 0.44812 0.73300 0.84902
 C602 C 0.42708 0.77323 0.88184
 H603 H 0.40008 0.76333 0.87967
 N604 N 0.48824 0.76860 0.86619
 C605 C 0.58871 0.71526 0.84811
 H606 H 0.58569 0.70899 0.82086
 C607 C 0.61704 0.70140 0.86684
 H608 H 0.63592 0.68450 0.85394
 C609 C 0.56674 0.74338 0.89859
 H610 H 0.54658 0.75862 0.91133
 C611 C 0.59508 0.73083 0.91804
 H612 H 0.59691 0.73737 0.94536
 Zn613 Zn 0.52353 0.74819 0.83795
 N614 N 0.56400 0.73543 0.86425
 C615 C 0.56905 0.79472 0.80316
 N616 N 0.53510 0.78255 0.80542
 C617 C 0.50754 0.79939 0.79018
 C618 C 0.51335 0.83087 0.77335
 C619 C 0.57608 0.82582 0.78619
 C620 C 0.49814 0.68133 0.84110
 C621 C 0.48244 0.64993 0.83048
 C622 C 0.48276 0.67015 0.77163
 C623 C 0.49832 0.70154 0.78349
 N624 N 0.50502 0.70662 0.81785
 H625 H 0.59039 0.78154 0.81629
 H626 H 0.48070 0.78961 0.79320
 H627 H 0.49105 0.84500 0.76282
 H628 H 0.60299 0.83611 0.78587
 H629 H 0.50404 0.68606 0.86821
 H630 H 0.47612 0.63048 0.84950
 H631 H 0.47679 0.66636 0.74439
 H632 H 0.50441 0.72196 0.76549
 C633 C 0.61988 0.70853 0.90243
 C634 C 0.43471 0.80392 0.90078
 C635 C 0.47392 0.64436 0.79554
 C636 C 0.54791 0.84464 0.77184
 C637 C 0.47738 -0.14461 0.33995
 C638 C 0.45287 -0.16871 0.35510
 C639 C 0.41628 -0.16386 0.34859
 C640 C 0.40384 -0.13523 0.33088
 C641 C 0.42721 -0.11022 0.31835
 C642 C 0.46425 -0.11480 0.32233
 C643 C 0.51465 -0.14957 0.34109
 C644 C 0.53800 -0.12543 0.32685
 C645 C 0.52500 -0.09601 0.31074
 C646 C 0.48850 -0.09073 0.30823
 H647 H 0.52649 -0.17220 0.35235
 H648 H 0.56640 -0.12973 0.32817
 H649 H 0.54329 -0.07741 0.29969
 H650 H 0.47945 -0.06788 0.29482
 H651 H 0.39633 -0.18236 0.35627
 H652 H 0.37543 -0.13250 0.32694
 C653 C 0.97866 0.34386 0.81631
 C654 C 0.95370 0.32262 0.83443
 C655 C 0.91731 0.33056 0.83096
 C656 C 0.90610 0.36066 0.81499
 C657 C 0.93054 0.38384 0.80099
 C658 C 0.96702 0.37532 0.80070
 C659 C 1.01467 0.33433 0.81236
 C660 C 1.03879 0.35602 0.79574
 C661 C 1.02758 0.38738 0.78204
 C662 C 0.99199 0.39692 0.78415
 H663 H 1.02459 0.30977 0.82115
 H664 H 1.06630 0.34828 0.79324
 H665 H 1.04643 0.40407 0.76910
 H666 H 0.98412 0.42101 0.77223
 H667 H 0.89666 0.31348 0.84009
 H668 H 0.87787 0.36614 0.81384
 C669 C -0.01547 1.18171 0.80525
 C670 C 0.00004 1.19895 0.83465
 C671 C 0.03165 1.18595 0.84865
 C672 C 0.04852 1.15740 0.83379
 C673 C 0.03447 1.14060 0.80431
 C674 C 0.00235 1.15277 0.78956
 C675 C -0.04853 1.19197 0.79135
 C676 C -0.06275 1.17546 0.76192
 C677 C -0.04447 1.14844 0.74570
 C678 C -0.01222 1.13713 0.75926
 H679 H -0.06397 1.21250 0.80303
 H680 H -0.08805 1.18381 0.75155
 H681 H -0.05545 1.13602 0.72260
 H682 H 0.00116 1.11618 0.74568
 H683 H 0.04399 1.19836 0.87110
 H684 H 0.07297 1.14831 0.84545
 C685 C 0.54736 0.71759 0.33756
 C686 C 0.51373 0.71472 0.35358
 C687 C 0.49608 0.68251 0.35360
 C688 C 0.51015 0.65366 0.33640
 C689 C 0.54288 0.65584 0.31942
 C690 C 0.56247 0.68772 0.32100
 C691 C 0.56684 0.74922 0.33866
 C692 C 0.60064 0.75131 0.32429
 C693 C 0.61587 0.72196 0.30900
 C694 C 0.59722 0.69039 0.30755
 H695 H 0.55651 0.77237 0.35122
 H696 H 0.61533 0.77569 0.32553
 H697 H 0.64242 0.72357 0.29848
 H698 H 0.61067 0.66810 0.29644
 H699 H 0.47078 0.67978 0.36648
 H700 H 0.49508 0.62946 0.33596
 C701 C 0.48891 0.34618 0.19823
 C702 C 0.51617 0.32356 0.18575
 C703 C 0.55170 0.33377 0.19194
 C704 C 0.56030 0.36734 0.20309
 C705 C 0.53386 0.39193 0.20961
 C706 C 0.49773 0.38122 0.20854
 C707 C 0.45325 0.33488 0.20125
 C708 C 0.42664 0.35813 0.21099
 C709 C 0.43496 0.39292 0.21829
 C710 C 0.47017 0.40447 0.21722
 H711 H 0.44564 0.30793 0.19685
 H712 H 0.39938 0.34910 0.21282
 H713 H 0.41410 0.41091 0.22541
 H714 H 0.47554 0.43158 0.22355
 H715 H 0.57347 0.31605 0.18754
 H716 H 0.58814 0.37451 0.20580
 C717 C 0.00041 0.83690 0.70676
 C718 C 0.02539 0.81398 0.69035
 C719 C 0.06158 0.81903 0.69946
 C720 C 0.07341 0.84998 0.71492
 C721 C 0.04949 0.87623 0.72380
 C722 C 0.01259 0.86912 0.72189
 C723 C -0.03622 0.82875 0.70861
 C724 C -0.06040 0.85272 0.72204
 C725 C -0.04865 0.88516 0.73431
 C726 C -0.01247 0.89339 0.73438
 H727 H -0.04640 0.80367 0.70015
 H728 H -0.08842 0.84610 0.72285
 H729 H -0.06758 0.90380 0.74440
 H730 H -0.00434 0.91856 0.74486
 H731 H 0.08155 0.79992 0.69288
 H732 H 0.10176 0.85426 0.71827
 C733 C 0.95361 0.67339 0.64442
 C734 C 0.97824 0.69500 0.66427
 C735 C 0.98936 0.68250 0.69681
 C736 C 0.97559 0.65205 0.71058
 C737 C 0.95148 0.63148 0.69178
 C738 C 0.94282 0.64038 0.65752
 C739 C 0.93648 0.68398 0.61369
 C740 C 0.91502 0.66136 0.59397
 C741 C 0.90869 0.62770 0.60490
 C742 C 0.92195 0.61736 0.63666
 H743 H 0.93742 0.70996 0.60490
 H744 H 0.90290 0.67022 0.57026
 H745 H 0.89231 0.61002 0.58941
 H746 H 0.91542 0.59129 0.64500
 H747 H 1.00907 0.69635 0.71237
 H748 H 0.98302 0.64506 0.73666
 C749 C 0.49501 0.16210 0.18077
 C750 C 0.48262 0.19581 0.18997
 C751 C 0.45323 0.19899 0.21188
 C752 C 0.43476 0.16962 0.22272
 C753 C 0.44494 0.13612 0.21196
 C754 C 0.47545 0.13203 0.19088
 C755 C 0.52646 0.15763 0.16159
 C756 C 0.53722 0.12457 0.15065
 C757 C 0.51701 0.09534 0.15879
 C758 C 0.48642 0.09888 0.17871
 H759 H 0.54319 0.17958 0.15541
 H760 H 0.56129 0.12164 0.13569
 H761 H 0.52522 0.06975 0.14984
 H762 H 0.47149 0.07546 0.18418
 H763 H 0.44309 0.22449 0.21896
 H764 H 0.41156 0.17313 0.23884
 C765 C 0.31813 0.47357 -0.14644
 C766 C 0.34661 0.45536 -0.16307
 C767 C 0.35980 0.42537 -0.14692
 C768 C 0.34320 0.41129 -0.11833
 C769 C 0.31297 0.42665 -0.10424
 C770 C 0.30058 0.45843 -0.11762
 C771 C 0.30698 0.50681 -0.15718
 C772 C 0.27832 0.52357 -0.14160
 C773 C 0.26051 0.50807 -0.11445
 C774 C 0.27166 0.47597 -0.10225
 H775 H 0.32070 0.52082 -0.17697
 H776 H 0.27012 0.54892 -0.15045
 H777 H 0.23838 0.52129 -0.10234
 H778 H 0.25778 0.46534 -0.08036
 H779 H 0.38333 0.41222 -0.15582
 H780 H 0.35373 0.38762 -0.10744
 C781 C 0.87354 0.94452 0.35194
 C782 C 0.85198 0.95684 0.32407
 C783 C 0.81541 0.96128 0.33006
 C784 C 0.79970 0.95025 0.36036
 C785 C 0.81968 0.93425 0.38609
 C786 C 0.85698 0.93109 0.38205
 C787 C 0.91119 0.94470 0.35054
 C788 C 0.93154 0.92939 0.37630
 C789 C 0.91508 0.91350 0.40397
 C790 C 0.87820 0.91417 0.40689
 H791 H 0.92557 0.95666 0.32977
 H792 H 0.96026 0.92944 0.37451
 H793 H 0.93097 0.90085 0.42346
 H794 H 0.86671 0.90106 0.42866
 H795 H 0.79821 0.97361 0.31163
 H796 H 0.77135 0.95389 0.36360
 C797 C 0.84624 -0.02557 1.16180
 C798 C 0.83665 -0.01416 1.19553
 C799 C 0.81042 0.01137 1.19933
 C800 C 0.79573 0.02730 1.17068
 C801 C 0.80707 0.01873 1.13719
 C802 C 0.83253 -0.00805 1.13242
 C803 C 0.86903 -0.05413 1.15659
 C804 C 0.88050 -0.06353 1.12356
 C805 C 0.86929 -0.04475 1.09509
 C806 C 0.84552 -0.01727 1.09933
 H807 H 0.87745 -0.06983 1.17786
 H808 H 0.89827 -0.08538 1.12008
 H809 H 0.87873 -0.05175 1.06954
 H810 H 0.83773 -0.00338 1.07648
 H811 H 0.80270 0.02064 1.22479
 H812 H 0.77619 0.04757 1.17477
 C813 C 0.29523 0.51877 0.71595
 C814 C 0.32684 0.49840 0.71396
 C815 C 0.34012 0.48928 0.68121
 C816 C 0.32459 0.50166 0.65108
 C817 C 0.29462 0.52300 0.65248
 C818 C 0.27839 0.52982 0.68486
 C819 C 0.28053 0.52990 0.74778
 C820 C 0.24897 0.54867 0.74907
 C821 C 0.23134 0.55712 0.71873
 C822 C 0.24586 0.54794 0.68688
 H823 H 0.29329 0.52513 0.77202
 H824 H 0.23812 0.55665 0.77381
 H825 H 0.20657 0.57128 0.71987
 H826 H 0.23128 0.55502 0.66386
 H827 H 0.36367 0.47332 0.67886
 H828 H 0.33712 0.49583 0.62652
 C829 C 0.14195 0.53109 0.35086
 C830 C 0.16366 0.51374 0.32549
 C831 C 0.19910 0.50620 0.33450
 C832 C 0.21317 0.51551 0.36672
 C833 C 0.19273 0.53302 0.39138
 C834 C 0.15696 0.54133 0.38356
 C835 C 0.10580 0.53943 0.34439
 C836 C 0.08567 0.55768 0.36867
 C837 C 0.10082 0.56855 0.39986
 C838 C 0.13609 0.56074 0.40725
 H839 H 0.09222 0.53248 0.32064
 H840 H 0.05819 0.56381 0.36304
 H841 H 0.08521 0.58324 0.41839
 H842 H 0.14672 0.57049 0.43159
 H843 H 0.21695 0.49347 0.31679
 H844 H 0.24071 0.50947 0.37231
 C845 C 0.63030 0.04267 0.85041
 C846 C 0.65281 0.02732 0.82463
 C847 C 0.68784 0.01894 0.83434
 C848 C 0.70178 0.02898 0.86634
 C849 C 0.68139 0.04747 0.89033
 C850 C 0.64522 0.05434 0.88270
 C851 C 0.59333 0.04708 0.84492
 C852 C 0.57245 0.06460 0.86914
 C853 C 0.58768 0.07817 0.89935
 C854 C 0.62368 0.07322 0.90616
 H855 H 0.57983 0.03694 0.82215
 H856 H 0.54430 0.06795 0.86428
 H857 H 0.57146 0.09236 0.91776
 H858 H 0.63428 0.08447 0.92990
 H859 H 0.70517 0.00430 0.81755
 H860 H 0.72917 0.02264 0.87229
 C861 C 0.69887 0.96006 0.70158
 C862 C 0.67635 0.98958 0.69866
 C863 C 0.67111 1.00443 0.66621
 C864 C 0.68591 0.98956 0.63657
 C865 C 0.70729 0.95991 0.63860
 C866 C 0.71605 0.94658 0.67155
 C867 C 0.70341 0.94229 0.73305
 C868 C 0.72706 0.91462 0.73556
 C869 C 0.74637 0.90375 0.70688
 C870 C 0.74093 0.91942 0.67511
 H871 H 0.68854 0.94886 0.75596
 H872 H 0.73051 0.90163 0.75996
 H873 H 0.76518 0.88266 0.70911
 H874 H 0.75635 0.91009 0.65336
 H875 H 0.65387 1.02676 0.66353
 H876 H 0.67907 1.00023 0.61167
 C877 C 0.21258 0.46867 0.19085
 C878 C 0.17599 0.46432 0.19956
 C879 C 0.15465 0.44253 0.17835
 C880 C 0.16855 0.42434 0.15040
 C881 C 0.20464 0.42657 0.14239
 C882 C 0.22724 0.44841 0.16302
 C883 C 0.23487 0.49330 0.20813
 C884 C 0.27099 0.49562 0.20054
 C885 C 0.28570 0.47378 0.17549
 C886 C 0.26415 0.45041 0.15680
 H887 H 0.22484 0.51162 0.22708
 H888 H 0.28769 0.51442 0.21429
 H889 H 0.31389 0.47529 0.17016
 H890 H 0.27675 0.43392 0.13760
 H891 H 0.12664 0.43900 0.18325
 H892 H 0.15069 0.40827 0.13468
 C893 C -0.15521 0.37683 0.42195
 C894 C -0.17963 0.35794 0.44312
 C895 C -0.17408 0.32194 0.44711
 C896 C -0.14699 0.30458 0.42984
 C897 C -0.12416 0.32220 0.40772
 C898 C -0.12861 0.35846 0.40293
 C899 C -0.15636 0.41363 0.41908
 C900 C -0.13414 0.43118 0.39646
 C901 C -0.11017 0.41279 0.37617
 C902 C -0.10735 0.37682 0.37924
 H903 H -0.17406 0.42963 0.43420
 H904 H -0.13577 0.45925 0.39445
 H905 H -0.09347 0.42650 0.35816
 H906 H -0.08853 0.36362 0.36264
 H907 H -0.18991 0.30657 0.46431
 H908 H -0.14345 0.27699 0.43425
 C909 C 0.37147 0.87597 0.93206
 C910 C 0.34640 0.85539 0.95107
 C911 C 0.35556 0.82039 0.95728
 C912 C 0.38426 0.80471 0.94105
 C913 C 0.40557 0.82312 0.91817
 C914 C 0.39927 0.85912 0.91333
 C915 C 0.36987 0.91289 0.93117
 C916 C 0.39175 0.93188 0.90938
 C917 C 0.41591 0.91479 0.88817
 C918 C 0.41975 0.87879 0.89004
 H919 H 0.35203 0.92770 0.94740
 H920 H 0.38964 0.96000 0.90866
 H921 H 0.43221 0.92955 0.87061
 H922 H 0.43885 0.86671 0.87297
 H923 H 0.34101 0.80453 0.97519
 H924 H 0.38979 0.77761 0.94633
 C925 C 1.20848 0.81271 -0.01911
 C926 C 1.22388 0.84170 -0.00052
 C927 C 1.20825 0.85269 0.03068
 C928 C 1.17928 0.83512 0.04422
 C929 C 1.16479 0.80583 0.02724
 C930 C 1.17933 0.79416 -0.00448
 C931 C 1.21894 0.80357 -0.05316
 C932 C 1.20358 0.77511 -0.07071
 C933 C 1.17675 0.75577 -0.05537
 C934 C 1.16432 0.76538 -0.02276
 H935 H 1.23803 0.81886 -0.06720
 H936 H 1.21221 0.76833 -0.09660
 H937 H 1.16486 0.73378 -0.06919
 H938 H 1.14250 0.75046 -0.01227
 H939 H 1.21911 0.87459 0.04547
 H940 H 1.16804 0.84441 0.06839
 C941 C 0.68966 0.36241 0.54375
 C942 C 0.70243 0.35462 0.51003
 C943 C 0.68346 0.33069 0.48890
 C944 C 0.65245 0.31474 0.50045
 C945 C 0.63935 0.32232 0.53342
 C946 C 0.65763 0.34651 0.55530
 C947 C 0.70852 0.38474 0.56677
 C948 C 0.69555 0.39257 0.59965
 C949 C 0.66369 0.37788 0.61050
 C950 C 0.64491 0.35487 0.58871
 H951 H 0.73370 0.39572 0.55990
 H952 H 0.71042 0.40994 0.61684
 H953 H 0.65368 0.38402 0.63605
 H954 H 0.62044 0.34370 0.59829
 H955 H 0.69251 0.32464 0.46296
 H956 H 0.63867 0.29615 0.48362
 C957 C 0.31082 0.20634 0.53209
 C958 C 0.30980 0.17717 0.50824
 C959 C 0.34243 0.16569 0.49430
 C960 C 0.37469 0.18111 0.50378
 C961 C 0.37603 0.20863 0.52768
 C962 C 0.34404 0.22269 0.54065
 C963 C 0.28006 0.21915 0.54881
 C964 C 0.28157 0.24806 0.57115
 C965 C 0.31373 0.26493 0.57777
 C966 C 0.34475 0.25241 0.56282
 H967 H 0.25443 0.20723 0.54549
 H968 H 0.25756 0.25742 0.58337
 H969 H 0.31472 0.28758 0.59487
 H970 H 0.36932 0.26624 0.56871
 H971 H 0.34428 0.14304 0.47762
 H972 H 0.39910 0.16986 0.49404
 C973 C 0.83103 0.70714 0.03322
 C974 C 0.83164 0.67436 0.01473
 C975 C 0.86519 0.66012 0.00673
 C976 C 0.89672 0.67696 0.01601
 C977 C 0.89654 0.70869 0.03408
 C978 C 0.86367 0.72481 0.04157
 C979 C 0.79902 0.72256 0.04471
 C980 C 0.79894 0.75503 0.06149
 C981 C 0.83063 0.77299 0.06752
 C982 C 0.86275 0.75810 0.05778
 H983 H 0.77364 0.70996 0.04148
 H984 H 0.77405 0.76636 0.06978
 H985 H 0.83037 0.79839 0.08018
 H986 H 0.88686 0.77293 0.06296
 H987 H 0.86801 0.63461 -0.00499
 H988 H 0.92165 0.66392 0.01080
 C989 C 0.66964 0.66272 0.97540
 C990 C 0.70538 0.66797 0.96471
 C991 C 0.71170 0.68537 0.93370
 C992 C 0.68378 0.69775 0.91368
 C993 C 0.64840 0.69252 0.92347
 C994 C 0.64104 0.67364 0.95386
 C995 C 0.66143 0.64759 1.00735
 C996 C 0.62640 0.64061 1.01663
 C997 C 0.59869 0.64869 0.99429
 C998 C 0.60579 0.66503 0.96319
 H999 H 0.68180 0.64144 1.02567
 H1000 H 0.62079 0.62866 1.04116
 H1001 H 0.57154 0.64260 1.00125
 H1002 H 0.58341 0.67053 0.94651
 H1003 H 0.73861 0.68927 0.92464
 H1004 H 0.68988 0.71188 0.89042
 C1005 C 0.14434 0.16445 0.48275
 C1006 C 0.17909 0.17378 0.47172
 C1007 C 0.18271 0.19485 0.44264
 C1008 C 0.15320 0.20567 0.42408
 C1009 C 0.11885 0.19535 0.43334
 C1010 C 0.11411 0.17424 0.46274
 C1011 C 0.13882 0.14564 0.51324
 C1012 C 0.10489 0.13475 0.52272
 C1013 C 0.07571 0.14234 0.50200
 C1014 C 0.08014 0.16182 0.47224
 H1015 H 0.16050 0.13945 0.53017
 H1016 H 0.10128 0.12010 0.54612
 H1017 H 0.04948 0.13328 0.50912
 H1018 H 0.05674 0.16669 0.45675
 H1019 H 0.20877 0.20189 0.43313
 H1020 H 0.15730 0.22176 0.40168
 C1021 C 0.61704 0.10294 0.71520
 C1022 C 0.59768 0.07080 0.71679
 C1023 C 0.56596 0.06714 0.69768
 C1024 C 0.55135 0.09548 0.68060
 C1025 C 0.56814 0.12823 0.68171
 C1026 C 0.60175 0.13196 0.69818
 C1027 C 0.65241 0.10621 0.72777
 C1028 C 0.67091 0.13774 0.72616
 C1029 C 0.65522 0.16645 0.71108
 C1030 C 0.62121 0.16360 0.69678
 H1031 H 0.66671 0.08426 0.73786
 H1032 H 0.69782 0.13973 0.73617
 H1033 H 0.66983 0.19080 0.70962
 H1034 H 0.61080 0.18621 0.68396
 H1035 H 0.55116 0.04278 0.69768
 H1036 H 0.52616 0.09209 0.66714
 C1037 C 1.13155 0.57687 0.19418
 C1038 C 1.10867 0.56057 0.21809
 C1039 C 1.07447 0.57362 0.22336
 C1040 C 1.06292 0.60298 0.20593
 C1041 C 1.08530 0.62012 0.18280
 C1042 C 1.11959 0.60660 0.17601
 C1043 C 1.16617 0.56441 0.18806
 C1044 C 1.18815 0.58012 0.16391
 C1045 C 1.17611 0.60856 0.14543
 C1046 C 1.14219 0.62176 0.15130
 H1047 H 1.17651 0.54251 0.20180
 H1048 H 1.21458 0.57007 0.15941
 H1049 H 1.19317 0.62048 0.12648
 H1050 H 1.13382 0.64367 0.13611
 H1051 H 1.05689 0.56143 0.24173
 H1052 H 1.03654 0.61290 0.21110
 C1053 C 0.91533 0.88231 0.22249
 C1054 C 0.92680 0.91789 0.22537
 C1055 C 0.95875 0.92781 0.20962
 C1056 C 0.98051 0.90313 0.19373
 C1057 C 0.97101 0.86780 0.19296
 C1058 C 0.93815 0.85706 0.20707
 C1059 C 0.88043 0.87169 0.23143
 C1060 C 0.86977 0.83689 0.22850
 C1061 C 0.89299 0.81198 0.21554
 C1062 C 0.92666 0.82189 0.20444
 H1063 H 0.86043 0.89013 0.23942
 H1064 H 0.84310 0.82931 0.23580
 H1065 H 0.88451 0.78500 0.21312
 H1066 H 0.94318 0.80179 0.19318
 H1067 H 0.96775 0.95473 0.21072
 H1068 H 1.00505 0.91166 0.18191
 C1069 C 0.45449 0.43798 0.71516
 C1070 C 0.42051 0.43105 0.72929
 C1071 C 0.40325 0.39951 0.72077
 C1072 C 0.41946 0.37442 0.70010
 C1073 C 0.45341 0.38000 0.68652
 C1074 C 0.47086 0.41247 0.69315
 C1075 C 0.47290 0.46937 0.72283
 C1076 C 0.50591 0.47622 0.70812
 C1077 C 0.52120 0.45202 0.68559
 C1078 C 0.50393 0.42045 0.67805
 H1079 H 0.46203 0.48883 0.74014
 H1080 H 0.51960 0.50055 0.71408
 H1081 H 0.54664 0.45771 0.67393
 H1082 H 0.51657 0.40263 0.66007
 H1083 H 0.37701 0.39390 0.73078
 H1084 H 0.40550 0.34999 0.69515
 C1085 C 0.39982 0.57984 0.76955
 C1086 C 0.41709 0.54802 0.77684
 C1087 C 0.45277 0.54859 0.78729
 C1088 C 0.47129 0.58001 0.79122
 C1089 C 0.45462 0.61194 0.78514
 C1090 C 0.41863 0.61209 0.77385
 C1091 C 0.36377 0.58042 0.75942
 C1092 C 0.34654 0.61178 0.75339
 C1093 C 0.36473 0.64326 0.75789
 C1094 C 0.40031 0.64358 0.76829
 H1095 H 0.34856 0.55675 0.75641
 H1096 H 0.31883 0.61165 0.74557
 H1097 H 0.35111 0.66759 0.75360
 H1098 H 0.41303 0.66871 0.77215
 H1099 H 0.46608 0.52454 0.79360
 H1100 H 0.49858 0.57954 0.80038
 C1101 C -0.08345 0.06599 0.23512
 C1102 C -0.07209 0.03716 0.25487
 C1103 C -0.04432 0.04209 0.27882
 C1104 C -0.03036 0.07514 0.28592
 C1105 C -0.04408 0.10462 0.26977
 C1106 C -0.07020 0.10017 0.24339
 C1107 C -0.10874 0.06203 0.20832
 C1108 C -0.12180 0.09076 0.19092
 C1109 C -0.11023 0.12418 0.20010
 C1110 C -0.08481 0.12900 0.22616
 H1111 H -0.11795 0.03683 0.19989
 H1112 H -0.14110 0.08704 0.17032
 H1113 H -0.12090 0.14647 0.18686
 H1114 H -0.07702 0.15549 0.23257
 H1115 H -0.03514 0.02044 0.29406
 H1116 H -0.01024 0.07806 0.30598
 C1117 C 0.04511 0.43975 0.26840
 C1118 C 0.07970 0.44183 0.25443
 C1119 C 0.09706 0.41115 0.24445
 C1120 C 0.08144 0.37870 0.24935
 C1121 C 0.04838 0.37570 0.26546
 C1122 C 0.02935 0.40645 0.27441
 C1123 C 0.02663 0.47023 0.27810
 C1124 C -0.00663 0.46804 0.29363
 C1125 C -0.02178 0.43561 0.30017
 C1126 C -0.00398 0.40506 0.29098
 H1127 H 0.03777 0.49588 0.27367
 H1128 H -0.02058 0.49162 0.30091
 H1129 H -0.04743 0.43410 0.31257
 H1130 H -0.01660 0.38060 0.29719
 H1131 H 0.12434 0.41197 0.23586
 H1132 H 0.09660 0.35554 0.24302
 C1133 C 0.59010 0.92122 0.72473
 C1134 C 0.57901 0.94917 0.74704
 C1135 C 0.55214 0.94234 0.77114
 C1136 C 0.54014 0.90850 0.77686
 C1137 C 0.55461 0.88018 0.75871
 C1138 C 0.57828 0.88645 0.73126
 C1139 C 0.61284 0.92632 0.69645
 C1140 C 0.62450 0.89846 0.67600
 C1141 C 0.61362 0.86466 0.68300
 C1142 C 0.59051 0.85859 0.71022
 H1143 H 0.62072 0.95159 0.68848
 H1144 H 0.64163 0.90329 0.65425
 H1145 H 0.62262 0.84314 0.66691
 H1146 H 0.58183 0.83201 0.71427
 H1147 H 0.54259 0.96311 0.78796
 H1148 H 0.52153 0.90414 0.79764
 C1149 C 0.71513 0.63052 0.08890
 C1150 C 0.72978 0.60716 0.06395
 C1151 C 0.72559 0.57118 0.06803
 C1152 C 0.70806 0.55804 0.09679
 C1153 C 0.69418 0.58058 0.12212
 C1154 C 0.69763 0.61710 0.11839
 C1155 C 0.71658 0.66701 0.08471
 C1156 C 0.70255 0.68967 0.10956
 C1157 C 0.68650 0.67653 0.13893
 C1158 C 0.68387 0.64062 0.14337
 H1159 H 0.72765 0.67829 0.06181
 H1160 H 0.70397 0.71757 0.10591
 H1161 H 0.67571 0.69424 0.15821
 H1162 H 0.67093 0.63151 0.16646
 H1163 H 0.73652 0.55312 0.04911
 H1164 H 0.70522 0.53007 0.09929
 C1165 C 0.20305 1.12461 0.58773
 C1166 C 0.21564 1.10303 0.56024
 C1167 C 0.21421 1.06674 0.56334
 C1168 C 0.20136 1.05163 0.59344
 C1169 C 0.18970 1.07245 0.62120
 C1170 C 0.19058 1.10923 0.61860
 C1171 C 0.20195 1.16124 0.58493
 C1172 C 0.19041 1.18226 0.61232
 C1173 C 0.17945 1.16726 0.64297
 C1174 C 0.17936 1.13111 0.64617
 H1175 H 0.20894 1.17382 0.56123
 H1176 H 0.18983 1.21030 0.60968
 H1177 H 0.17065 1.18368 0.66424
 H1178 H 0.17049 1.12056 0.67043
 H1179 H 0.22380 1.05002 0.54260
 H1180 H 0.20051 1.02346 0.59513
 C1181 C 0.20520 0.92989 0.92863
 C1182 C 0.24330 0.93088 0.93198
 C1183 C 0.26247 0.95225 0.90917
 C1184 C 0.24587 0.97048 0.88300
 C1185 C 0.20914 0.96894 0.87868
 C1186 C 0.18830 0.94963 0.90207
 C1187 C 0.18331 0.90769 0.94824
 C1188 C 0.14649 0.90682 0.94403
 C1189 C 0.13028 0.92723 0.91936
 C1190 C 0.15088 0.94808 0.89821
 H1191 H 0.19368 0.88978 0.96622
 H1192 H 0.13050 0.88970 0.95968
 H1193 H 0.10168 0.92627 0.91601
 H1194 H 0.13714 0.96258 0.87855
 H1195 H 0.29117 0.95455 0.91115
 H1196 H 0.26203 0.98530 0.86531
 C1197 C 0.68214 0.43741 0.42633
 C1198 C 0.71937 0.44134 0.43147
 C1199 C 0.73814 0.46537 0.41142
 C1200 C 0.72160 0.48276 0.38453
 C1201 C 0.68567 0.47680 0.37688
 C1202 C 0.66513 0.45560 0.39901
 C1203 C 0.66151 0.41500 0.44673
 C1204 C 0.62499 0.41132 0.44121
 C1205 C 0.60826 0.42981 0.41519
 C1206 C 0.62802 0.45178 0.39423
 H1207 H 0.67309 0.40044 0.46730
 H1208 H 0.60957 0.39416 0.45733
 H1209 H 0.57985 0.42709 0.41120
 H1210 H 0.61395 0.46597 0.37451
 H1211 H 0.76654 0.46895 0.41516
 H1212 H 0.73755 0.49924 0.36815
 C1213 C 0.77047 0.47245 0.54716
 C1214 C 0.78296 0.43839 0.53938
 C1215 C 0.80171 0.42029 0.56482
 C1216 C 0.80837 0.43514 0.59717
 C1217 C 0.79661 0.46872 0.60552
 C1218 C 0.77723 0.48768 0.58062
 C1219 C 0.75263 0.49226 0.52215
 C1220 C 0.74089 0.52586 0.53009
 C1221 C 0.74712 0.54052 0.56280
 C1222 C 0.76534 0.52180 0.58784
 H1223 H 0.74811 0.48230 0.49616
 H1224 H 0.72715 0.54073 0.51066
 H1225 H 0.73810 0.56669 0.56869
 H1226 H 0.77012 0.53430 0.61276
 H1227 H 0.81091 0.39398 0.55979
 H1228 H 0.82332 0.42037 0.61589
 C1229 C 0.30373 -0.10155 0.07265
 C1230 C 0.28770 -0.08255 0.04532
 C1231 C 0.27276 -0.04988 0.05295
 C1232 C 0.27778 -0.03396 0.08544
 C1233 C 0.29714 -0.05061 0.11136
 C1234 C 0.30898 -0.08516 0.10562
 C1235 C 0.31290 -0.13713 0.06862
 C1236 C 0.32900 -0.15515 0.09542
 C1237 C 0.33562 -0.13853 0.12705
 C1238 C 0.32547 -0.10400 0.13235
 H1239 H 0.30683 -0.15178 0.04519
 H1240 H 0.33601 -0.18228 0.09173
 H1241 H 0.34799 -0.15268 0.14784
 H1242 H 0.32998 -0.09251 0.15777
 H1243 H 0.25956 -0.03533 0.03288
 H1244 H 0.26808 -0.00773 0.08984
 C1245 C 0.22061 0.08654 0.40978
 C1246 C 0.24355 0.08214 0.43883
 C1247 C 0.27114 0.05777 0.43611
 C1248 C 0.27918 0.04166 0.40461
 C1249 C 0.26008 0.04960 0.37465
 C1250 C 0.22951 0.07072 0.37730
 C1251 C 0.18960 0.10680 0.41166
 C1252 C 0.16853 0.11235 0.38251
 C1253 C 0.17772 0.09754 0.35077
 C1254 C 0.20782 0.07670 0.34810
 H1255 H 0.18039 0.11731 0.43566
 H1256 H 0.14473 0.12794 0.38467
 H1257 H 0.16121 0.10181 0.32824
 H1258 H 0.21370 0.06496 0.32315
 H1259 H 0.28872 0.05359 0.45795
 H1260 H 0.30249 0.02527 0.40305
 C1261 C 0.79337 0.54932 0.94306
 C1262 C 0.76922 0.57725 0.94693
 C1263 C 0.74842 0.58705 0.91857
 C1264 C 0.75433 0.57252 0.88582
 C1265 C 0.78075 0.54743 0.88070
 C1266 C 0.79940 0.53440 0.90966
 C1267 C 0.81265 0.53684 0.97165
 C1268 C 0.83760 0.51042 0.96737
 C1269 C 0.84395 0.49619 0.93464
 C1270 C 0.82523 0.50808 0.90596
 H1271 H 0.80835 0.54728 0.99748
 H1272 H 0.85217 0.50104 0.98952
 H1273 H 0.86352 0.47584 0.93144
 H1274 H 0.83109 0.49637 0.88102
 H1275 H 0.72991 0.60842 0.92100
 H1276 H 0.74008 0.58286 0.86386
 C1277 C 0.05880 0.71689 0.56456
 C1278 C 0.06198 0.73138 0.59871
 C1279 C 0.09403 0.72607 0.61699
 C1280 C 0.12133 0.70619 0.60327
 C1281 C 0.11821 0.69051 0.57058
 C1282 C 0.08686 0.69582 0.55074
 C1283 C 0.03005 0.72520 0.54259
 C1284 C 0.02736 0.71101 0.50924
 C1285 C 0.05380 0.68922 0.49652
 C1286 C 0.08356 0.68206 0.51676
 H1287 H 0.01009 0.74368 0.55038
 H1288 H 0.00492 0.71748 0.49295
 H1289 H 0.05170 0.67857 0.47047
 H1290 H 0.10419 0.66628 0.50523
 H1291 H 0.09776 0.73615 0.64313
 H1292 H 0.14510 0.70250 0.61875
 C1293 C 0.55712 0.21062 1.07372
 C1294 C 0.56189 0.22754 1.10636
 C1295 C 0.59492 0.22539 1.12323
 C1296 C 0.62278 0.20688 1.10870
 C1297 C 0.61868 0.18931 1.07692
 C1298 C 0.58543 0.19052 1.05932
 C1299 C 0.52518 0.21367 1.05469
 C1300 C 0.52029 0.19558 1.02341
 C1301 C 0.54710 0.17436 1.01039
 C1302 C 0.57941 0.17180 1.02804
 H1303 H 0.50395 0.23034 1.06347
 H1304 H 0.49552 0.19797 1.00926
 H1305 H 0.54295 0.16002 0.98631
 H1306 H 0.59939 0.15486 1.01705
 H1307 H 0.59910 0.23771 1.14837
 H1308 H 0.64792 0.20620 1.12255
 C1309 C 0.88974 0.21277 0.90282
 C1310 C 0.92101 0.22725 0.91837
 C1311 C 0.92710 0.22313 0.95381
 C1312 C 0.90215 0.20613 0.97424
 C1313 C 0.87062 0.19270 0.95964
 C1314 C 0.86432 0.19553 0.92368
 C1315 C 0.88335 0.21455 0.86684
 C1316 C 0.85258 0.20022 0.85195
 C1317 C 0.82755 0.18377 0.87245
 C1318 C 0.83323 0.18135 0.90796
 H1319 H 0.90204 0.22676 0.84981
 H1320 H 0.84819 0.20184 0.82434
 H1321 H 0.80367 0.17270 0.86078
 H1322 H 0.81312 0.16815 0.92285
 H1323 H 0.95097 0.23387 0.96586
 H1324 H 0.90731 0.20365 1.00167
 C1325 C 0.39988 0.70546 0.40975
 C1326 C 0.42472 0.72587 0.42923
 C1327 C 0.42452 0.72470 0.46536
 C1328 C 0.39865 0.70542 0.48248
 C1329 C 0.37258 0.68652 0.46386
 C1330 C 0.37402 0.68514 0.42720
 C1331 C 0.40031 0.70466 0.37321
 C1332 C 0.37634 0.68377 0.35439
 C1333 C 0.35165 0.66323 0.37145
 C1334 C 0.35046 0.66372 0.40747
 H1335 H 0.41941 0.71970 0.35882
 H1336 H 0.37717 0.68327 0.32641
 H1337 H 0.33339 0.64673 0.35671
 H1338 H 0.33128 0.64682 0.41961
 H1339 H 0.44350 0.74015 0.48042
 H1340 H 0.39810 0.70632 0.51048
 C1341 C 0.53878 0.80783 0.47334
 C1342 C 0.53729 0.78445 0.44461
 C1343 C 0.56833 0.76743 0.43404
 C1344 C 0.60122 0.77633 0.44870
 C1345 C 0.60390 0.80210 0.47474
 C1346 C 0.57230 0.81650 0.48874
 C1347 C 0.50761 0.82270 0.48713
 C1348 C 0.50942 0.84556 0.51555
 C1349 C 0.54212 0.85382 0.53083
 C1350 C 0.57331 0.83940 0.51773
 H1351 H 0.48164 0.81631 0.47645
 H1352 H 0.48529 0.85668 0.52596
 H1353 H 0.54330 0.87131 0.55310
 H1354 H 0.59808 0.84590 0.53081
 H1355 H 0.56753 0.74896 0.41257
 H1356 H 0.62499 0.76471 0.43798
 C1357 C 0.07543 0.27060 -0.10401
 C1358 C 0.04319 0.26898 -0.08517
 C1359 C 0.04415 0.27172 -0.04908
 C1360 C 0.07621 0.27798 -0.03157
 C1361 C 0.10818 0.28137 -0.04970
 C1362 C 0.10812 0.27712 -0.08617
 C1363 C 0.07580 0.26655 -0.14036
 C1364 C 0.10739 0.26942 -0.15874
 C1365 C 0.13920 0.27653 -0.14139
 C1366 C 0.13970 0.28047 -0.10549
 H1367 H 0.05184 0.26083 -0.15490
 H1368 H 0.10714 0.26623 -0.18660
 H1369 H 0.16363 0.27901 -0.15581
 H1370 H 0.16503 0.28623 -0.09320
 H1371 H 0.01967 0.27073 -0.03449
 H1372 H 0.07593 0.28154 -0.00372
 C1373 C 0.41217 0.23030 0.10013
 C1374 C 0.43990 0.25570 0.09830
 C1375 C 0.43745 0.28171 0.07335
 C1376 C 0.40693 0.28534 0.05328
 C1377 C 0.37787 0.26274 0.05708
 C1378 C 0.38131 0.23358 0.07877
 C1379 C 0.41339 0.20251 0.12345
 C1380 C 0.38615 0.17771 0.12455
 C1381 C 0.35678 0.18026 0.10274
 C1382 C 0.35421 0.20797 0.08009
 H1383 H 0.43515 0.19938 0.14096
 H1384 H 0.38793 0.15634 0.14235
 H1385 H 0.33581 0.16080 0.10352
 H1386 H 0.33103 0.20906 0.06340
 H1387 H 0.45857 0.30087 0.07086
 H1388 H 0.40501 0.30765 0.03660
 C1389 C 0.91015 0.77277 0.61899
 C1390 C 0.94248 0.77459 0.59984
 C1391 C 0.94085 0.78292 0.56471
 C1392 C 0.90860 0.79187 0.54911
 C1393 C 0.87692 0.79209 0.56801
 C1394 C 0.87723 0.78038 0.60249
 C1395 C 0.90945 0.76267 0.65396
 C1396 C 0.87759 0.75953 0.67182
 C1397 C 0.84551 0.76606 0.65530
 C1398 C 0.84518 0.77626 0.62095
 H1399 H 0.93319 0.75648 0.66788
 H1400 H 0.87780 0.75155 0.69852
 H1401 H 0.82075 0.76312 0.66911
 H1402 H 0.81956 0.78043 0.60887
 H1403 H 0.96497 0.78504 0.54976
 H1404 H 0.90873 0.80074 0.52268
   
