data_POSCAR
  _audit_creation_date              2014-09-24
  _audit_creation_method            'ToBaCCo'
  _symmetry_space_group_name_H-M    'P1'
  _symmetry_Int_Tables_number       1
  _symmetry_cell_setting            triclinic
  loop_
  _symmetry_equiv_pos_as_xyz
 x,y,z
_cell_length_a 34.8569
_cell_length_b 35.0278
_cell_length_c 38.4136
_cell_angle_alpha 89.579500
_cell_angle_beta 88.923300
_cell_angle_gamma 90.219600
loop_
  _atom_site_label
  _atom_site_type_symbol
  _atom_site_fract_x
  _atom_site_fract_y
  _atom_site_fract_z
C1 C 0.41182 -0.00858 0.25120
 C2 C 0.09953 0.01052 0.74446
 C3 C 0.59185 0.50207 0.24943
 C4 C 0.90612 0.50070 0.75206
 C5 C 0.24387 0.34217 1.00388
 C6 C 0.76098 0.15108 0.99520
 C7 C 0.25654 0.66115 0.50023
 C8 C 0.75019 0.84540 0.49976
 C9 C 0.00212 0.25190 0.37330
 C10 C 0.00209 0.74201 0.12558
 C11 C 0.49449 0.24484 0.61878
 C12 C 0.50167 0.73721 0.87569
 C13 C -0.25894 0.66482 0.99953
 C14 C -0.24666 0.34585 0.49359
 C15 C 0.25958 -0.16139 0.00518
 C16 C 0.25080 1.16034 0.50225
 C17 C 0.08872 0.49466 0.24763
 C18 C -0.08997 1.00396 0.25302
 C19 C 0.40729 0.50799 -0.24610
 C20 C 0.59111 0.00126 -0.25690
 C21 C -0.00773 0.24348 0.87552
 C22 C 0.50422 0.24573 0.11484
 C23 C 0.00799 0.75186 0.61764
 C24 C 0.49384 0.74724 0.37395
 Zr25 Zr 0.03792 -0.03472 1.04920
 O26 O 0.07899 -0.01802 1.08596
 O27 O 0.02490 -0.08990 1.06585
 O28 O 0.01238 -0.02860 1.10029
 O29 O 0.10737 -0.05431 0.98566
 O30 O -0.04102 0.00701 1.09064
 O31 O 0.09142 -0.06465 1.04245
 O32 O -0.01909 -0.11021 1.02670
 O33 O -0.02137 -0.03942 1.04067
 O34 O 0.03127 -0.06322 1.00189
 O35 O 0.01726 0.02158 1.04799
 O36 O 0.06824 -0.00191 1.01146
 Zr37 Zr -0.02109 0.02131 0.95156
 Zr38 Zr -0.04114 0.01669 1.03698
 Zr39 Zr 0.05847 -0.02958 0.96430
 Zr40 Zr -0.02729 -0.06539 0.99216
 O41 O 0.11017 -0.00473 0.94486
 O42 O -0.08220 -0.07929 1.01311
 O43 O 0.00028 -0.03480 0.95200
 O44 O -0.05070 -0.01095 0.98963
 O45 O -0.01426 0.05054 0.99866
 O46 O 0.03801 0.02573 0.96068
 C47 C 0.00201 -0.11474 1.05327
 C48 C 0.11482 -0.06797 1.01583
 C49 C -0.01818 -0.01063 1.11095
 O50 O -0.09376 -0.00970 1.05175
 O51 O -0.08625 0.04914 1.01794
 O52 O -0.07272 0.05432 0.95965
 C53 C -0.09357 0.06147 0.98737
 O54 O 0.08565 0.06069 1.04776
 Zr55 Zr 0.04453 0.05277 1.00824
 O56 O -0.00791 0.07583 0.93518
 O57 O -0.04538 0.06915 1.06385
 O58 O 0.02668 0.10004 1.03862
 O59 O 0.09855 0.06706 0.98523
 O60 O 0.03518 0.09836 0.97435
 C61 C 0.01440 0.10125 0.94734
 O62 O -0.06397 0.00706 0.91559
 O63 O 0.06220 -0.08394 0.94068
 O64 O 0.00185 0.01141 0.89953
 O65 O 0.05606 -0.02163 0.91071
 O66 O -0.01128 -0.11358 0.96228
 O67 O -0.06772 -0.07683 0.95290
 C68 C 0.03293 -0.00624 0.88935
 H69 H 0.04275 -0.08903 1.00185
 H70 H -0.07836 -0.01282 0.98448
 H71 H 0.05233 0.03939 0.94187
 H72 H 0.02153 0.03474 1.07031
 H73 H -0.08734 -0.10633 1.00724
 H74 H -0.10725 0.00801 1.06780
 H75 H -0.07010 0.06890 1.07706
 H76 H 0.04352 0.12198 1.03232
 H77 H -0.02996 -0.13421 0.96802
 H78 H 0.08967 -0.08919 0.93587
 H79 H 0.12325 -0.02407 0.93019
 H80 H 0.10230 0.09496 0.98778
 H81 H -0.05652 -0.06736 0.93058
 H82 H -0.06661 0.02943 0.89982
 H83 H 0.08099 -0.03938 1.10291
 H84 H 0.09545 0.08726 1.04671
 Zr85 Zr 0.53880 0.47345 0.55430
 O86 O 0.58210 0.48932 0.58929
 O87 O 0.52542 0.41830 0.57199
 O88 O 0.51608 0.48125 0.60592
 O89 O 0.60015 0.44457 0.48712
 O90 O 0.46514 0.52142 0.59903
 O91 O 0.59040 0.44086 0.54595
 O92 O 0.47989 0.39869 0.53439
 O93 O 0.47881 0.47158 0.54912
 O94 O 0.52776 0.44523 0.50759
 O95 O 0.52040 0.53067 0.55335
 O96 O 0.56846 0.50436 0.51467
 Zr97 Zr 0.47623 0.53084 0.45965
 Zr98 Zr 0.46099 0.52866 0.54540
 Zr99 Zr 0.55435 0.47678 0.46830
 Zr100 Zr 0.46868 0.44482 0.50170
 O101 O 0.60711 0.50044 0.45022
 O102 O 0.41673 0.43344 0.52950
 O103 O 0.49501 0.47377 0.45967
 O104 O 0.44753 0.50021 0.49944
 O105 O 0.48720 0.56080 0.50557
 O106 O 0.53601 0.53283 0.46552
 C107 C 0.50350 0.39281 0.55907
 C108 C 0.60888 0.43199 0.51747
 C109 C 0.48785 0.50177 0.61775
 O110 O 0.40900 0.50471 0.56496
 O111 O 0.41437 0.56077 0.52742
 O112 O 0.42504 0.56437 0.46864
 C113 C 0.40519 0.57212 0.49683
 O114 O 0.59053 0.56590 0.54960
 Zr115 Zr 0.54675 0.56013 0.51216
 O116 O 0.49003 0.58513 0.44281
 O117 O 0.46035 0.58255 0.56999
 O118 O 0.53270 0.60854 0.54264
 O119 O 0.60004 0.57261 0.48692
 O120 O 0.53828 0.60555 0.47775
 C121 C 0.51537 0.60920 0.45229
 O122 O 0.43199 0.51659 0.42507
 O123 O 0.55430 0.42455 0.44099
 O124 O 0.49807 0.52175 0.40745
 O125 O 0.55115 0.48478 0.41459
 O126 O 0.47917 0.39569 0.47104
 O127 O 0.42664 0.43808 0.46280
 C128 C 0.52780 0.50319 0.39542
 H129 H 0.53782 0.41895 0.50653
 H130 H 0.41951 0.49912 0.49578
 H131 H 0.54989 0.54590 0.44611
 H132 H 0.52682 0.54403 0.57510
 H133 H 0.41131 0.40578 0.52737
 H134 H 0.39733 0.52370 0.58093
 H135 H 0.43651 0.58374 0.58443
 H136 H 0.55006 0.62964 0.53516
 H137 H 0.46057 0.37566 0.47861
 H138 H 0.57942 0.42270 0.42858
 H139 H 0.61873 0.48175 0.43392
 H140 H 0.60545 0.60016 0.49011
 H141 H 0.40990 0.41604 0.46891
 H142 H 0.42932 0.53864 0.40894
 H143 H 0.58558 0.46731 0.60531
 H144 H 0.60053 0.59240 0.54905
 Zr145 Zr 0.46025 1.02212 0.54531
 O146 O 0.41561 1.00894 0.58151
 O147 O 0.47447 1.07676 0.56052
 O148 O 0.48124 1.01958 0.59739
 O149 O 0.40123 1.04753 0.47532
 O150 O 0.53509 0.98291 0.59260
 O151 O 0.40889 1.05345 0.53380
 O152 O 0.52510 1.09450 0.52520
 O153 O 0.52024 1.02471 0.53966
 O154 O 0.47306 1.04862 0.49748
 O155 O 0.47968 0.96556 0.54889
 O156 O 0.43244 0.98885 0.50789
 Zr157 Zr 0.52749 0.96035 0.45529
 Zr158 Zr 0.53926 0.96836 0.54046
 Zr159 Zr 0.44844 1.01421 0.46006
 Zr160 Zr 0.53238 1.04919 0.49099
 O161 O 0.39792 0.98740 0.44257
 O162 O 0.58605 1.06192 0.51344
 O163 O 0.50812 1.01713 0.45133
 O164 O 0.55425 0.99412 0.49269
 O165 O 0.51502 0.93386 0.50322
 O166 O 0.46752 0.95763 0.46076
 C167 C 0.50113 1.09969 0.55033
 C168 C 0.39136 1.06144 0.50495
 C169 C 0.51161 1.00361 0.61001
 O170 O 0.59166 0.99259 0.55673
 O171 O 0.58537 0.93385 0.52497
 O172 O 0.58073 0.93211 0.46587
 C173 C 0.59817 0.92449 0.49472
 O174 O 0.40637 0.93476 0.54343
 Zr175 Zr 0.45524 0.93351 0.50954
 O176 O 0.51672 0.90321 0.44508
 O177 O 0.53766 0.91725 0.57019
 O178 O 0.46022 0.88991 0.54783
 O179 O 0.40860 0.91336 0.47998
 O180 O 0.47451 0.88280 0.48733
 C181 C 0.49803 0.87713 0.46194
 O182 O 0.57132 0.97069 0.41745
 O183 O 0.44700 1.06613 0.43139
 O184 O 0.50850 0.96644 0.40283
 O185 O 0.45672 1.00603 0.40703
 O186 O 0.51952 1.09805 0.46050
 O187 O 0.57258 1.05381 0.44885
 C188 C 0.48104 0.98644 0.38958
 H189 H 0.46321 1.07502 0.49587
 H190 H 0.58237 0.99571 0.48895
 H191 H 0.45591 0.94245 0.44200
 H192 H 0.47276 0.95421 0.57184
 H193 H 0.59195 1.08911 0.50832
 H194 H 0.60262 0.97493 0.57418
 H195 H 0.56084 0.91723 0.58475
 H196 H 0.44182 0.86934 0.54211
 H197 H 0.53801 1.11835 0.46669
 H198 H 0.42349 1.06591 0.41721
 H199 H 0.38704 1.00446 0.42461
 H200 H 0.40439 0.88625 0.48661
 H201 H 0.58711 1.07802 0.45077
 H202 H 0.57517 0.94658 0.40441
 H203 H 0.41133 1.03224 0.59556
 H204 H 0.39166 0.91069 0.54126
 Zr205 Zr -0.05647 0.51871 1.05336
 O206 O -0.10018 0.50148 1.08901
 O207 O -0.04554 0.57305 1.07109
 O208 O -0.03297 0.51527 1.10534
 O209 O -0.11803 0.54054 0.98441
 O210 O 0.02107 0.47918 1.09846
 O211 O -0.10869 0.54955 1.04255
 O212 O 0.00273 0.59175 1.03381
 O213 O 0.00332 0.52405 1.04627
 O214 O -0.04610 0.54609 1.00511
 O215 O -0.03460 0.46291 1.05515
 O216 O -0.08310 0.48490 1.01531
 Zr217 Zr 0.01154 0.46030 0.96050
 Zr218 Zr 0.02455 0.46850 1.04552
 Zr219 Zr -0.06932 0.51111 0.96722
 Zr220 Zr 0.01271 0.54907 0.99733
 O221 O -0.11909 0.48309 0.94944
 O222 O 0.06800 0.56335 1.01505
 O223 O -0.01010 0.51633 0.95762
 O224 O 0.03737 0.49499 0.99758
 O225 O 0.00120 0.43252 1.00824
 O226 O -0.04828 0.45566 0.96704
 C227 C -0.01942 0.59623 1.06055
 C228 C -0.12784 0.55467 1.01395
 C229 C -0.00227 0.49857 1.11712
 O230 O 0.07449 0.49770 1.06155
 O231 O 0.07341 0.43912 1.02977
 O232 O 0.06392 0.43040 0.97180
 C233 C 0.08354 0.42620 1.00007
 O234 O -0.10264 0.42643 1.05462
 Zr235 Zr -0.05847 0.43040 1.01574
 O236 O -0.00148 0.40507 0.94529
 O237 O 0.02771 0.41625 1.07340
 O238 O -0.04286 0.38428 1.04860
 O239 O -0.11076 0.41366 0.99312
 O240 O -0.04622 0.38306 0.98478
 C241 C -0.02363 0.37914 0.95834
 O242 O 0.05726 0.46949 0.92429
 O243 O -0.07348 0.56356 0.93977
 O244 O -0.00469 0.47181 0.90800
 O245 O -0.06121 0.50351 0.91345
 O246 O -0.00343 0.59762 0.96789
 O247 O 0.05038 0.56449 0.95559
 C248 C -0.03402 0.48890 0.89485
 H249 H -0.05700 0.57211 1.00400
 H250 H 0.06531 0.49749 0.99307
 H251 H -0.06067 0.44130 0.94816
 H252 H -0.04020 0.45048 1.07792
 H253 H 0.07193 0.59085 1.00983
 H254 H 0.08778 0.48100 1.07841
 H255 H 0.05119 0.41718 1.08755
 H256 H -0.05995 0.36243 1.04345
 H257 H 0.01197 0.61952 0.97614
 H258 H -0.09719 0.56244 0.92594
 H259 H -0.13051 0.50006 0.93171
 H260 H -0.11673 0.38757 1.00181
 H261 H 0.05902 0.54038 0.94480
 H262 H 0.06006 0.44577 0.91048
 H263 H -0.10508 0.52374 1.10423
 H264 H -0.10984 0.39937 1.05863
 Zr265 Zr -0.02578 0.47551 0.45479
 O266 O -0.06933 0.49431 0.42116
 O267 O -0.01315 0.42275 0.43316
 O268 O -0.00445 0.48914 0.40238
 O269 O -0.08847 0.44376 0.52230
 O270 O 0.04910 0.52358 0.41292
 O271 O -0.07938 0.44540 0.46311
 O272 O 0.03511 0.39897 0.46650
 O273 O 0.03389 0.46980 0.45978
 O274 O -0.01574 0.44215 0.49953
 O275 O -0.00452 0.53151 0.45918
 O276 O -0.05317 0.50331 0.49717
 Zr277 Zr 0.04174 0.52146 0.55193
 Zr278 Zr 0.05456 0.52500 0.46635
 Zr279 Zr -0.03964 0.47120 0.54172
 Zr280 Zr 0.04331 0.43857 0.50559
 O281 O -0.09053 0.49507 0.56303
 O282 O 0.09745 0.42613 0.48232
 O283 O 0.01960 0.46524 0.54951
 O284 O 0.06783 0.49253 0.51028
 O285 O 0.03067 0.55488 0.50773
 O286 O -0.01821 0.52634 0.54737
 C287 C 0.01193 0.39767 0.44114
 C288 C -0.09910 0.43639 0.49119
 C289 C 0.02565 0.50876 0.39187
 O290 O 0.10185 0.49536 0.44465
 O291 O 0.10288 0.55381 0.48390
 O292 O 0.09562 0.55212 0.54301
 C293 C 0.11487 0.56111 0.51449
 O294 O -0.07477 0.56554 0.46758
 Zr295 Zr -0.02897 0.55752 0.50265
 O296 O 0.03385 0.57567 0.57137
 O297 O 0.06545 0.58013 0.44571
 O298 O -0.01989 0.60857 0.47359
 O299 O -0.07870 0.57040 0.53294
 O300 O -0.01187 0.60073 0.53586
 C301 C 0.01297 0.60268 0.55995
 O302 O 0.08467 0.50068 0.58522
 O303 O -0.04252 0.41588 0.56413
 O304 O 0.01984 0.51159 0.60380
 O305 O -0.03393 0.47592 0.59581
 O306 O 0.02637 0.38662 0.53024
 O307 O 0.08211 0.42624 0.54618
 C308 C -0.01028 0.49342 0.61560
 H309 H -0.02706 0.41626 0.49805
 H310 H 0.09581 0.48970 0.51332
 H311 H -0.03038 0.53926 0.56754
 H312 H -0.01063 0.54723 0.43853
 H313 H 0.10129 0.39815 0.48393
 H314 H 0.11640 0.51404 0.43004
 H315 H 0.04032 0.59102 0.43964
 H316 H -0.03729 0.62824 0.48340
 H317 H 0.04366 0.36633 0.52140
 H318 H -0.06644 0.41478 0.57847
 H319 H -0.10217 0.47559 0.57888
 H320 H -0.08175 0.59851 0.53234
 H321 H 0.09381 0.40086 0.54236
 H322 H 0.09053 0.52163 0.60154
 H323 H -0.07349 0.47351 0.40423
 H324 H -0.08852 0.58946 0.47323
 Zr325 Zr 0.48354 -0.04227 -0.04643
 O326 O 0.44126 -0.02786 -0.08312
 O327 O 0.50063 -0.09556 -0.06378
 O328 O 0.50601 -0.03506 -0.09823
 O329 O 0.41741 -0.06664 0.01923
 O330 O 0.56115 -0.00156 -0.09037
 O331 O 0.43012 -0.07227 -0.03900
 O332 O 0.54807 -0.11595 -0.02845
 O333 O 0.54274 -0.04617 -0.03904
 O334 O 0.49176 -0.07164 0.00051
 O335 O 0.50405 0.01424 -0.04680
 O336 O 0.45421 -0.01013 -0.00833
 Zr337 Zr 0.54566 0.01449 0.04809
 Zr338 Zr 0.56276 0.00970 -0.03723
 Zr339 Zr 0.46562 -0.03832 0.03866
 Zr340 Zr 0.55062 -0.07311 0.00904
 O341 O 0.41399 -0.01278 0.05654
 O342 O 0.60691 -0.08540 -0.00932
 O343 O 0.52441 -0.04228 0.04938
 O344 O 0.57393 -0.01818 0.00989
 O345 O 0.53722 0.04374 0.00101
 O346 O 0.48615 0.01756 0.04054
 C347 C 0.52683 -0.11933 -0.05511
 C348 C 0.40852 -0.07743 -0.01145
 C349 C 0.53710 -0.01858 -0.10979
 O350 O 0.61320 -0.01816 -0.05459
 O351 O 0.60899 0.04161 -0.01940
 O352 O 0.59958 0.04476 0.03938
 C353 C 0.61972 0.05162 0.01097
 O354 O 0.43526 0.05134 -0.04507
 Zr355 Zr 0.47800 0.04490 -0.00673
 O356 O 0.53586 0.07059 0.06261
 O357 O 0.56708 0.06182 -0.06530
 O358 O 0.49515 0.09236 -0.03797
 O359 O 0.42469 0.06006 0.01675
 O360 O 0.48770 0.09006 0.02725
 C361 C 0.51101 0.09480 0.05233
 O362 O 0.58714 -0.00169 0.08477
 O363 O 0.46150 -0.09178 0.06453
 O364 O 0.52017 0.00899 0.09938
 O365 O 0.46857 -0.03017 0.09221
 O366 O 0.53309 -0.12408 0.03507
 O367 O 0.58501 -0.07961 0.05383
 C368 C 0.49000 -0.00933 0.11120
 H369 H 0.48078 -0.09775 0.00024
 H370 H 0.60174 -0.02005 0.01432
 H371 H 0.47223 0.03167 0.05903
 H372 H 0.49911 0.02741 -0.06915
 H373 H 0.61315 -0.11156 -0.00138
 H374 H 0.62630 -0.00074 -0.07148
 H375 H 0.59160 0.06121 -0.07879
 H376 H 0.47864 0.11416 -0.03123
 H377 H 0.55222 -0.14398 0.02918
 H378 H 0.43652 -0.09218 0.07730
 H379 H 0.40087 -0.03149 0.07222
 H380 H 0.42081 0.08773 0.01257
 H381 H 0.59666 -0.10533 0.05410
 H382 H 0.59149 0.02096 0.09954
 H383 H 0.43819 -0.05016 -0.09866
 H384 H 0.42722 0.07839 -0.04622
 Zr385 Zr 0.51874 0.54135 -0.03902
 O386 O 0.55986 0.53759 -0.08004
 O387 O 0.49895 0.59682 -0.04632
 O388 O 0.49480 0.54115 -0.09028
 O389 O 0.58767 0.55534 0.02503
 O390 O 0.44209 0.50335 -0.08351
 O391 O 0.57145 0.57178 -0.03028
 O392 O 0.45381 0.60861 -0.00373
 O393 O 0.45990 0.54218 -0.02663
 O394 O 0.51258 0.56041 0.01226
 O395 O 0.49928 0.48499 -0.04574
 O396 O 0.55078 0.50271 -0.00892
 Zr397 Zr 0.46238 0.46491 0.05050
 Zr398 Zr 0.44098 0.48621 -0.03155
 Zr399 Zr 0.54159 0.52066 0.04235
 Zr400 Zr 0.45436 0.55872 0.02561
 O401 O 0.59414 0.49235 0.05101
 O402 O 0.39727 0.57369 0.01306
 O403 O 0.48331 0.52104 0.05801
 O404 O 0.43192 0.50412 0.01998
 O405 O 0.46887 0.44588 -0.00091
 O406 O 0.52156 0.46436 0.03851
 C407 C 0.47282 0.61710 -0.03136
 C408 C 0.59425 0.57303 -0.00389
 C409 C 0.46500 0.52371 -0.10245
 O410 O 0.39064 0.51714 -0.04283
 O411 O 0.39370 0.45371 -0.01559
 O412 O 0.40725 0.43798 0.04059
 C413 C 0.38503 0.43763 0.01349
 O414 O 0.57046 0.45137 -0.05318
 Zr415 Zr 0.52770 0.44750 -0.01309
 O416 O 0.47459 0.40656 0.05452
 O417 O 0.43525 0.43765 -0.06358
 O418 O 0.51277 0.40815 -0.05241
 O419 O 0.58038 0.42757 0.00688
 O420 O 0.51658 0.39436 0.00957
 C421 C 0.49546 0.38436 0.03565
 O422 O 0.42263 0.46645 0.09275
 O423 O 0.54704 0.56818 0.07572
 O424 O 0.48693 0.46847 0.10189
 O425 O 0.54181 0.50360 0.09391
 O426 O 0.47298 0.60308 0.05867
 O427 O 0.42170 0.55547 0.07283
 C428 C 0.51771 0.48538 0.11324
 H429 H 0.52290 0.58652 0.01533
 H430 H 0.40443 0.50519 0.02677
 H431 H 0.53565 0.44705 0.05421
 H432 H 0.50386 0.47593 -0.06978
 H433 H 0.39177 0.59896 0.02342
 H434 H 0.37615 0.50202 -0.05995
 H435 H 0.41117 0.44068 -0.07665
 H436 H 0.53094 0.38648 -0.05135
 H437 H 0.45355 0.62363 0.05779
 H438 H 0.57266 0.56663 0.08644
 H439 H 0.60782 0.50702 0.06896
 H440 H 0.58453 0.40142 -0.00208
 H441 H 0.40858 0.58010 0.07688
 H442 H 0.42202 0.44038 0.10309
 H443 H 0.56198 0.56335 -0.09090
 H444 H 0.58179 0.42587 -0.05721
 Zr445 Zr 0.02766 1.04047 0.45768
 O446 O 0.06907 1.03188 0.41753
 O447 O 0.01248 1.09675 0.44703
 O448 O 0.00382 1.03736 0.40633
 O449 O 0.09580 1.05478 0.52262
 O450 O -0.05093 1.00198 0.41429
 O451 O 0.08178 1.06917 0.46619
 O452 O -0.03372 1.11241 0.48751
 O453 O -0.03185 1.04290 0.46780
 O454 O 0.01984 1.06329 0.50754
 O455 O 0.00742 0.98396 0.45392
 O456 O 0.05773 1.00409 0.49164
 Zr457 Zr -0.03328 0.97281 0.55024
 Zr458 Zr -0.05130 0.98632 0.46642
 Zr459 Zr 0.04681 1.02585 0.54148
 Zr460 Zr -0.03901 1.06377 0.51849
 O461 O 0.09701 0.99664 0.55649
 O462 O -0.09403 1.08044 0.50144
 O463 O -0.01190 1.02899 0.55468
 O464 O -0.06231 1.00899 0.51586
 O465 O -0.02495 0.94916 0.50067
 O466 O 0.02624 0.97002 0.54041
 C467 C -0.01198 1.11949 0.46113
 C468 C 0.10409 1.07033 0.49306
 C469 C -0.02710 1.02089 0.39518
 O470 O -0.10562 1.00765 0.45261
 O471 O -0.09689 0.95147 0.48335
 O472 O -0.08502 0.94095 0.54076
 C473 C -0.10538 0.93634 0.51303
 O474 O 0.07889 0.94979 0.45172
 Zr475 Zr 0.03415 0.94918 0.49011
 O476 O -0.02087 0.91616 0.56047
 O477 O -0.05110 0.93592 0.43637
 O478 O 0.02263 0.90659 0.45268
 O479 O 0.08486 0.92967 0.51409
 O480 O 0.01882 0.89866 0.51521
 C481 C -0.00138 0.89208 0.54267
 O482 O -0.07620 0.98280 0.58875
 O483 O 0.05495 1.07712 0.56921
 O484 O -0.01278 0.97824 0.60252
 O485 O 0.04131 1.01447 0.59471
 O486 O -0.02149 1.10840 0.55169
 O487 O -0.07643 1.06433 0.56283
 C488 C 0.01625 0.99729 0.61421
 H489 H 0.03103 1.08919 0.50949
 H490 H -0.09015 1.00990 0.52138
 H491 H 0.03930 0.95402 0.55790
 H492 H 0.01254 0.97333 0.43050
 H493 H -0.09862 1.10692 0.50939
 H494 H -0.10264 1.03565 0.45024
 H495 H -0.07523 0.93583 0.42312
 H496 H 0.04050 0.88512 0.45668
 H497 H -0.03979 1.12971 0.54875
 H498 H 0.07904 1.07426 0.58229
 H499 H 0.10969 1.01264 0.57412
 H500 H 0.08804 0.90244 0.50787
 H501 H -0.08846 1.08977 0.56505
 H502 H -0.07975 0.95859 0.60204
 H503 H 0.07151 1.05635 0.40447
 H504 H 0.09183 0.92467 0.45133
 Zr505 Zr 0.72342 0.28621 0.19503
 O506 O 0.73569 0.32856 0.15687
 O507 O 0.66808 0.27206 0.18093
 O508 O 0.73225 0.26456 0.14213
 O509 O 0.70052 0.34978 0.26309
 O510 O 0.76507 0.20935 0.15125
 O511 O 0.69389 0.33975 0.20490
 O512 O 0.64711 0.22738 0.22079
 O513 O 0.71835 0.22697 0.20383
 O514 O 0.69645 0.27775 0.24402
 O515 O 0.77976 0.26480 0.19356
 O516 O 0.75755 0.31440 0.23188
 Zr517 Zr 0.78335 0.22311 0.28920
 Zr518 Zr 0.77443 0.20614 0.20472
 Zr519 Zr 0.73158 0.30276 0.28075
 Zr520 Zr 0.69347 0.21938 0.25356
 O521 O 0.75694 0.35561 0.29355
 O522 O 0.67946 0.16560 0.23203
 O523 O 0.72662 0.24437 0.29246
 O524 O 0.74814 0.19561 0.25325
 O525 O 0.81083 0.23129 0.24071
 O526 O 0.78737 0.28229 0.28033
 C527 C 0.64332 0.24855 0.19382
 C528 C 0.68818 0.35980 0.23313
 C529 C 0.75034 0.23425 0.13077
 O530 O 0.74710 0.15594 0.18709
 O531 O 0.80241 0.15704 0.22245
 O532 O 0.81321 0.17021 0.27945
 C533 C 0.81729 0.14904 0.25182
 O534 O 0.82267 0.33153 0.19153
 Zr535 Zr 0.81256 0.29033 0.23155
 O536 O 0.84051 0.23323 0.30030
 O537 O 0.82934 0.20213 0.18093
 O538 O 0.85895 0.27317 0.19898
 O539 O 0.82844 0.34399 0.25208
 O540 O 0.85930 0.28168 0.26400
 C541 C 0.86496 0.25811 0.28901
 O542 O 0.76773 0.18153 0.32713
 O543 O 0.68014 0.30575 0.31073
 O544 O 0.78243 0.24673 0.34083
 O545 O 0.74484 0.29949 0.33405
 O546 O 0.64573 0.23608 0.28489
 O547 O 0.68573 0.18088 0.29618
 C548 C 0.76612 0.27748 0.35261
 H549 H 0.67038 0.28882 0.24547
 H550 H 0.74558 0.16801 0.25851
 H551 H 0.80256 0.29614 0.29770
 H552 H 0.79306 0.26988 0.17103
 H553 H 0.65172 0.16099 0.23643
 H554 H 0.76518 0.14307 0.17078
 H555 H 0.83067 0.17688 0.16959
 H556 H 0.87827 0.29397 0.19889
 H557 H 0.62409 0.21870 0.27975
 H558 H 0.68112 0.32997 0.32387
 H559 H 0.74019 0.36735 0.31163
 H560 H 0.85581 0.34836 0.24565
 H561 H 0.66090 0.16735 0.29403
 H562 H 0.79103 0.17643 0.34082
 H563 H 0.71213 0.33153 0.14301
 H564 H 0.79959 0.34783 0.19044
 Zr565 Zr 0.78142 0.71810 0.69988
 O566 O 0.76649 0.67315 0.66613
 O567 O 0.83502 0.73256 0.67972
 O568 O 0.77481 0.73709 0.64704
 O569 O 0.80679 0.65928 0.76982
 O570 O 0.73589 0.78931 0.65138
 O571 O 0.81079 0.66532 0.71064
 O572 O 0.85306 0.78429 0.71112
 O573 O 0.78299 0.77795 0.70296
 O574 O 0.81070 0.73189 0.74545
 O575 O 0.72416 0.73637 0.69951
 O576 O 0.75103 0.69143 0.74129
 Zr577 Zr 0.72184 0.78569 0.79202
 Zr578 Zr 0.72595 0.79589 0.70530
 Zr579 Zr 0.77867 0.70875 0.78689
 Zr580 Zr 0.80994 0.79111 0.74950
 O581 O 0.75507 0.66004 0.81244
 O582 O 0.82013 0.84521 0.72603
 O583 O 0.78005 0.76820 0.79286
 O584 O 0.75369 0.81163 0.75100
 O585 O 0.69301 0.77187 0.74610
 O586 O 0.72182 0.72609 0.78797
 C587 C 0.85787 0.76020 0.68631
 C588 C 0.81615 0.64654 0.73955
 C589 C 0.75567 0.76514 0.63358
 O590 O 0.75010 0.84695 0.68465
 O591 O 0.69311 0.84278 0.72238
 O592 O 0.68914 0.83680 0.78159
 C593 C 0.68133 0.85430 0.75252
 O594 O 0.69184 0.66637 0.70603
 Zr595 Zr 0.69502 0.71224 0.74181
 O596 O 0.66626 0.77140 0.80938
 O597 O 0.67311 0.79440 0.67915
 O598 O 0.64651 0.72368 0.71093
 O599 O 0.68246 0.66031 0.76851
 O600 O 0.64900 0.72101 0.77535
 C601 C 0.64343 0.74465 0.79997
 O602 O 0.73627 0.83117 0.82532
 O603 O 0.83350 0.70974 0.80959
 O604 O 0.72806 0.76609 0.84499
 O605 O 0.77169 0.71768 0.84088
 O606 O 0.86161 0.77901 0.77564
 O607 O 0.81662 0.83111 0.79035
 C608 C 0.74927 0.73956 0.85864
 H609 H 0.83721 0.72182 0.74511
 H610 H 0.75464 0.83968 0.75379
 H611 H 0.70872 0.71328 0.80780
 H612 H 0.71119 0.72876 0.67791
 H613 H 0.84716 0.85211 0.73050
 H614 H 0.73123 0.85769 0.66829
 H615 H 0.67206 0.81785 0.66460
 H616 H 0.62584 0.70575 0.71840
 H617 H 0.88126 0.79742 0.76691
 H618 H 0.83510 0.68657 0.82444
 H619 H 0.77520 0.64946 0.82762
 H620 H 0.65520 0.65384 0.76446
 H621 H 0.84171 0.84427 0.78778
 H622 H 0.71394 0.83492 0.84132
 H623 H 0.78899 0.66878 0.65047
 H624 H 0.66516 0.65663 0.70550
 Zr625 Zr 0.21737 0.23214 0.79068
 O626 O 0.23739 0.18726 0.82276
 O627 O 0.16342 0.24494 0.81258
 O628 O 0.22822 0.24985 0.84197
 O629 O 0.18926 0.17136 0.72503
 O630 O 0.26357 0.30389 0.83518
 O631 O 0.18773 0.17943 0.78378
 O632 O 0.14231 0.29518 0.78042
 O633 O 0.21241 0.29162 0.78692
 O634 O 0.18490 0.24410 0.74679
 O635 O 0.27397 0.25300 0.78747
 O636 O 0.24780 0.20691 0.74913
 Zr637 Zr 0.26727 0.30231 0.69483
 Zr638 Zr 0.26826 0.31195 0.78151
 Zr639 Zr 0.21576 0.22134 0.70551
 Zr640 Zr 0.18300 0.30333 0.74108
 O641 O 0.23796 0.16945 0.68622
 O642 O 0.17168 0.35647 0.76531
 O643 O 0.21063 0.28058 0.69715
 O644 O 0.23763 0.32695 0.73698
 O645 O 0.29985 0.29077 0.73918
 O646 O 0.27135 0.24293 0.70046
 C647 C 0.13857 0.27080 0.80509
 C648 C 0.18094 0.15999 0.75608
 C649 C 0.24773 0.27786 0.85418
 O650 O 0.24197 0.36094 0.80315
 O651 O 0.29787 0.35987 0.76469
 O652 O 0.30065 0.35333 0.70546
 C653 C 0.30912 0.37061 0.73446
 O654 O 0.31378 0.18532 0.77846
 Zr655 Zr 0.30277 0.23166 0.74407
 O656 O 0.32106 0.29565 0.67310
 O657 O 0.32308 0.31438 0.80431
 O658 O 0.35175 0.24643 0.77307
 O659 O 0.31795 0.18196 0.71579
 O660 O 0.34551 0.24845 0.70757
 C661 C 0.34735 0.27280 0.68229
 O662 O 0.24623 0.34619 0.66252
 O663 O 0.16051 0.21969 0.68363
 O664 O 0.26156 0.27857 0.64302
 O665 O 0.22117 0.22753 0.65184
 O666 O 0.13168 0.28793 0.71587
 O667 O 0.17263 0.34391 0.70092
 C668 C 0.24301 0.24840 0.63239
 H669 H 0.15881 0.23288 0.74827
 H670 H 0.23546 0.35495 0.73402
 H671 H 0.28509 0.23095 0.68104
 H672 H 0.28898 0.24588 0.80813
 H673 H 0.14414 0.36228 0.76259
 H674 H 0.26066 0.37249 0.81916
 H675 H 0.32359 0.33708 0.81958
 H676 H 0.37389 0.23252 0.76282
 H677 H 0.11177 0.30656 0.72280
 H678 H 0.15881 0.19549 0.67053
 H679 H 0.21948 0.15961 0.66906
 H680 H 0.34630 0.17995 0.71589
 H681 H 0.14752 0.35636 0.70501
 H682 H 0.26740 0.35229 0.64579
 H683 H 0.21596 0.17915 0.83849
 H684 H 0.34100 0.17765 0.77595
 Zr685 Zr 0.26737 0.78177 0.29492
 O686 O 0.23922 0.82496 0.32361
 O687 O 0.31747 0.77814 0.32139
 O688 O 0.25776 0.76024 0.34672
 O689 O 0.30222 0.84012 0.22600
 O690 O 0.22560 0.70380 0.33943
 O691 O 0.29849 0.83477 0.28523
 O692 O 0.34628 0.72829 0.29326
 O693 O 0.27544 0.72213 0.29412
 O694 O 0.30494 0.76931 0.25359
 O695 O 0.21299 0.75684 0.28981
 O696 O 0.24204 0.80450 0.25028
 Zr697 Zr 0.23242 0.70634 0.19832
 Zr698 Zr 0.22170 0.69772 0.28532
 Zr699 Zr 0.27871 0.78879 0.20898
 Zr700 Zr 0.31128 0.71068 0.25189
 O701 O 0.25572 0.83638 0.18224
 O702 O 0.32117 0.66064 0.28157
 O703 O 0.28780 0.72972 0.20470
 O704 O 0.25852 0.68414 0.24330
 O705 O 0.19486 0.71756 0.24070
 O706 O 0.22471 0.76580 0.20066
 C707 C 0.34473 0.75479 0.31644
 C708 C 0.30970 0.85207 0.25648
 C709 C 0.24164 0.72905 0.35842
 O710 O 0.24466 0.64733 0.30732
 O711 O 0.19323 0.64921 0.26654
 O712 O 0.20018 0.65418 0.20737
 C713 C 0.18753 0.63701 0.23559
 O714 O 0.17181 0.82416 0.27434
 Zr715 Zr 0.18947 0.77681 0.24389
 O716 O 0.18115 0.71631 0.17253
 O717 O 0.16518 0.69659 0.30641
 O718 O 0.13752 0.76925 0.27279
 O719 O 0.17399 0.82151 0.20954
 O720 O 0.14900 0.75095 0.21343
 C721 C 0.15113 0.73280 0.18476
 O722 O 0.25447 0.66005 0.16922
 O723 O 0.33676 0.79054 0.19189
 O724 O 0.25119 0.72316 0.14602
 O725 O 0.28205 0.77904 0.15603
 O726 O 0.36441 0.72484 0.22734
 O727 O 0.33553 0.66574 0.22236
 C728 C 0.27076 0.75303 0.13540
 H729 H 0.33027 0.78133 0.25585
 H730 H 0.26229 0.65623 0.24138
 H731 H 0.21396 0.77647 0.17900
 H732 H 0.19612 0.76316 0.30996
 H733 H 0.34918 0.65923 0.28543
 H734 H 0.22438 0.63593 0.32262
 H735 H 0.16339 0.67389 0.32192
 H736 H 0.11717 0.78366 0.26068
 H737 H 0.38482 0.71300 0.24140
 H738 H 0.34142 0.81582 0.18088
 H739 H 0.27649 0.84726 0.16716
 H740 H 0.14638 0.82639 0.21405
 H741 H 0.32276 0.66645 0.19957
 H742 H 0.23543 0.65442 0.15106
 H743 H 0.25763 0.83325 0.34141
 H744 H 0.18968 0.84555 0.26899
 Zr745 Zr 0.22723 0.79288 0.70166
 O746 O 0.24933 0.83291 0.66492
 O747 O 0.17100 0.78639 0.68608
 O748 O 0.23048 0.76778 0.65029
 O749 O 0.20264 0.85714 0.76678
 O750 O 0.26883 0.71643 0.65838
 O751 O 0.20097 0.84744 0.70802
 O752 O 0.14655 0.73992 0.72246
 O753 O 0.21916 0.73397 0.70835
 O754 O 0.19632 0.78460 0.74871
 O755 O 0.28267 0.76989 0.70281
 O756 O 0.25945 0.81911 0.74115
 Zr757 Zr 0.27580 0.72429 0.79727
 Zr758 Zr 0.27433 0.71153 0.71176
 Zr759 Zr 0.22894 0.80774 0.78779
 Zr760 Zr 0.19024 0.72599 0.75612
 O761 O 0.25781 0.85642 0.80659
 O762 O 0.17357 0.67516 0.73072
 O763 O 0.22060 0.74893 0.79734
 O764 O 0.24353 0.69955 0.75788
 O765 O 0.30792 0.73342 0.75123
 O766 O 0.28333 0.78368 0.79097
 C767 C 0.14422 0.76430 0.69764
 C768 C 0.19374 0.86748 0.73558
 C769 C 0.24897 0.73798 0.63879
 O770 O 0.24389 0.66383 0.69311
 O771 O 0.30288 0.66314 0.72923
 O772 O 0.30448 0.67033 0.78806
 C773 C 0.31161 0.65120 0.75960
 O774 O 0.32374 0.83707 0.70739
 Zr775 Zr 0.31311 0.79247 0.74418
 O776 O 0.33114 0.73168 0.81444
 O777 O 0.32823 0.70522 0.68604
 O778 O 0.36064 0.77548 0.71275
 O779 O 0.33081 0.84262 0.77012
 O780 O 0.35708 0.77688 0.77758
 C781 C 0.35827 0.75354 0.80339
 O782 O 0.25617 0.68105 0.83204
 O783 O 0.17488 0.81516 0.81285
 O784 O 0.26611 0.74479 0.84918
 O785 O 0.23317 0.80070 0.84201
 O786 O 0.14190 0.74179 0.78696
 O787 O 0.17957 0.68498 0.79628
 C788 C 0.24903 0.77508 0.86108
 H789 H 0.17102 0.79730 0.74940
 H790 H 0.23977 0.67179 0.76160
 H791 H 0.29728 0.79540 0.81041
 H792 H 0.29688 0.77509 0.68072
 H793 H 0.14545 0.67221 0.73413
 H794 H 0.26178 0.64990 0.67747
 H795 H 0.32705 0.68176 0.67176
 H796 H 0.38328 0.79029 0.72024
 H797 H 0.12024 0.72513 0.78027
 H798 H 0.17602 0.83973 0.82545
 H799 H 0.23943 0.86965 0.82232
 H800 H 0.35903 0.84486 0.76701
 H801 H 0.15497 0.67171 0.79214
 H802 H 0.27768 0.67537 0.84779
 H803 H 0.22801 0.83931 0.64920
 H804 H 0.35112 0.84466 0.70798
 Zr805 Zr 0.28620 0.21006 0.20842
 O806 O 0.27619 0.16556 0.17266
 O807 O 0.34069 0.22649 0.19253
 O808 O 0.28375 0.22930 0.15594
 O809 O 0.30778 0.15102 0.27906
 O810 O 0.24444 0.28129 0.15931
 O811 O 0.31576 0.15769 0.22038
 O812 O 0.35572 0.27854 0.22488
 O813 O 0.28568 0.26995 0.21189
 O814 O 0.31146 0.22447 0.25556
 O815 O 0.22876 0.22716 0.20400
 O816 O 0.25318 0.18173 0.24691
 Zr817 Zr 0.21654 0.27561 0.29529
 Zr818 Zr 0.22820 0.28669 0.21074
 Zr819 Zr 0.27643 0.19992 0.29396
 Zr820 Zr 0.30862 0.28373 0.25989
 O821 O 0.25161 0.15104 0.31819
 O822 O 0.31920 0.33794 0.23671
 O823 O 0.27504 0.25948 0.30025
 O824 O 0.25175 0.30303 0.25788
 O825 O 0.19204 0.26089 0.24796
 O826 O 0.21907 0.21583 0.29141
 C827 C 0.36271 0.25431 0.20057
 C828 C 0.31973 0.13858 0.24931
 C829 C 0.26582 0.25798 0.14273
 O830 O 0.25267 0.33867 0.19228
 O831 O 0.19320 0.33375 0.22236
 O832 O 0.18342 0.32583 0.28070
 C833 C 0.17820 0.34440 0.25135
 O834 O 0.20091 0.15537 0.20768
 Zr835 Zr 0.19686 0.20118 0.24358
 O836 O 0.16055 0.25824 0.30875
 O837 O 0.17757 0.28349 0.18131
 O838 O 0.15163 0.20919 0.20821
 O839 O 0.18302 0.14933 0.26993
 O840 O 0.14753 0.20761 0.27353
 C841 C 0.13913 0.23103 0.29772
 O842 O 0.22367 0.32136 0.33025
 O843 O 0.32880 0.20156 0.32090
 O844 O 0.21989 0.25720 0.34830
 O845 O 0.26467 0.20956 0.34649
 O846 O 0.35729 0.27256 0.29060
 O847 O 0.31102 0.32376 0.30114
 C848 C 0.24058 0.23094 0.36260
 H849 H 0.33810 0.21494 0.25710
 H850 H 0.25145 0.33106 0.26090
 H851 H 0.20453 0.20254 0.31028
 H852 H 0.21795 0.21956 0.18143
 H853 H 0.34588 0.34527 0.24220
 H854 H 0.23641 0.34834 0.17324
 H855 H 0.17806 0.30549 0.16491
 H856 H 0.13240 0.18885 0.21310
 H857 H 0.37753 0.29107 0.28334
 H858 H 0.32932 0.17845 0.33592
 H859 H 0.27019 0.14155 0.33544
 H860 H 0.15731 0.14099 0.26230
 H861 H 0.33536 0.33838 0.29941
 H862 H 0.19890 0.32419 0.34312
 H863 H 0.30030 0.16198 0.15893
 H864 H 0.17557 0.14286 0.20556
 Zr865 Zr 0.71817 0.72056 0.29507
 O866 O 0.73452 0.67891 0.33201
 O867 O 0.66090 0.72806 0.30727
 O868 O 0.71813 0.74363 0.34738
 O869 O 0.69884 0.65679 0.22771
 O870 O 0.75449 0.79764 0.34112
 O871 O 0.68954 0.66723 0.28596
 O872 O 0.63993 0.77477 0.27049
 O873 O 0.71198 0.77991 0.28897
 O874 O 0.69239 0.73007 0.24675
 O875 O 0.77406 0.74306 0.29690
 O876 O 0.75338 0.69365 0.25719
 Zr877 Zr 0.77852 0.78806 0.20256
 Zr878 Zr 0.76789 0.80172 0.28811
 Zr879 Zr 0.72805 0.70624 0.20923
 Zr880 Zr 0.68836 0.78889 0.23986
 O881 O 0.75782 0.65759 0.19095
 O882 O 0.67081 0.83916 0.26602
 O883 O 0.72243 0.76533 0.20010
 O884 O 0.74279 0.81388 0.24020
 O885 O 0.80488 0.77855 0.25052
 O886 O 0.78359 0.72860 0.20872
 C887 C 0.63495 0.74967 0.29469
 C888 C 0.68509 0.64721 0.25792
 C889 C 0.73414 0.77432 0.35967
 O890 O 0.73860 0.85243 0.30145
 O891 O 0.80126 0.84885 0.27286
 O892 O 0.80961 0.84000 0.21440
 C893 C 0.81502 0.85895 0.24307
 O894 O 0.81010 0.67345 0.29361
 Zr895 Zr 0.80778 0.71937 0.25722
 O896 O 0.83448 0.77595 0.18633
 O897 O 0.81601 0.80815 0.32024
 O898 O 0.85289 0.72752 0.29272
 O899 O 0.82817 0.67179 0.22858
 O900 O 0.85673 0.73993 0.23106
 C901 C 0.86136 0.75932 0.20283
 O902 O 0.76624 0.83306 0.16754
 O903 O 0.67604 0.69982 0.18214
 O904 O 0.77071 0.76929 0.14982
 O905 O 0.73585 0.71404 0.15541
 O906 O 0.64356 0.77574 0.20542
 O907 O 0.68335 0.83119 0.20018
 C908 C 0.75293 0.73993 0.13702
 H909 H 0.66691 0.71796 0.24443
 H910 H 0.74075 0.84173 0.23607
 H911 H 0.79900 0.71696 0.18969
 H912 H 0.78580 0.73767 0.31968
 H913 H 0.64320 0.84293 0.26140
 H914 H 0.75459 0.86567 0.31872
 H915 H 0.83827 0.79817 0.30683
 H916 H 0.87426 0.71051 0.28560
 H917 H 0.62212 0.79341 0.21073
 H918 H 0.67773 0.67553 0.16911
 H919 H 0.74091 0.64503 0.17399
 H920 H 0.85589 0.66946 0.23335
 H921 H 0.65979 0.84631 0.20431
 H922 H 0.78978 0.83723 0.15305
 H923 H 0.71141 0.67323 0.34663
 H924 H 0.83389 0.65862 0.28962
 Zr925 Zr 0.77009 0.28876 0.79474
 O926 O 0.75215 0.32928 0.83219
 O927 O 0.82632 0.27945 0.80978
 O928 O 0.76560 0.26511 0.84647
 O929 O 0.79048 0.35470 0.72791
 O930 O 0.73093 0.21010 0.84032
 O931 O 0.79589 0.34408 0.78623
 O932 O 0.84823 0.23300 0.77303
 O933 O 0.77693 0.22966 0.78766
 O934 O 0.79897 0.28139 0.74688
 O935 O 0.71458 0.26511 0.79589
 O936 O 0.73639 0.31590 0.75691
 Zr937 Zr 0.71589 0.22359 0.70045
 Zr938 Zr 0.72146 0.20656 0.78628
 Zr939 Zr 0.76435 0.30526 0.70905
 Zr940 Zr 0.80373 0.22288 0.73892
 O941 O 0.73467 0.35363 0.69039
 O942 O 0.81928 0.16981 0.76146
 O943 O 0.77176 0.24692 0.69881
 O944 O 0.74980 0.19714 0.73839
 O945 O 0.68661 0.23063 0.74827
 O946 O 0.70924 0.28236 0.70791
 C947 C 0.85186 0.25623 0.79831
 C948 C 0.80053 0.36516 0.75839
 C949 C 0.74923 0.23434 0.85890
 O950 O 0.75013 0.15664 0.80271
 O951 O 0.69226 0.15814 0.76736
 O952 O 0.68721 0.16975 0.70897
 C953 C 0.68128 0.14888 0.73671
 O954 O 0.67650 0.33352 0.79396
 Zr955 Zr 0.68252 0.28951 0.75645
 O956 O 0.65930 0.23414 0.68669
 O957 O 0.66836 0.20064 0.81341
 O958 O 0.63707 0.27297 0.79092
 O959 O 0.66410 0.33997 0.73098
 O960 O 0.63530 0.27442 0.72746
 C961 C 0.63175 0.25326 0.70089
 O962 O 0.73073 0.18110 0.66372
 O963 O 0.81792 0.31292 0.68295
 O964 O 0.72558 0.24489 0.64803
 O965 O 0.75837 0.30035 0.65519
 O966 O 0.85231 0.24076 0.70886
 O967 O 0.81314 0.18455 0.69699
 C968 C 0.74290 0.27525 0.63567
 H969 H 0.82450 0.29389 0.74602
 H970 H 0.75314 0.16960 0.73367
 H971 H 0.69446 0.29459 0.68912
 H972 H 0.70141 0.26983 0.81849
 H973 H 0.84726 0.16649 0.75754
 H974 H 0.73238 0.14295 0.81899
 H975 H 0.66961 0.17651 0.82697
 H976 H 0.61520 0.29033 0.78704
 H977 H 0.87396 0.22387 0.71497
 H978 H 0.81674 0.33753 0.67010
 H979 H 0.75208 0.36679 0.67345
 H980 H 0.63656 0.34349 0.73676
 H981 H 0.83830 0.17193 0.69960
 H982 H 0.70823 0.17755 0.64859
 H983 H 0.77461 0.33462 0.84692
 H984 H 0.64982 0.34310 0.79419
 C985 C 0.45288 0.95569 0.33975
 C986 C 0.43306 0.95836 0.30889
 C987 C 0.43497 0.99088 0.28638
 C988 C 0.45785 1.02236 0.29852
 C989 C 0.47615 1.02007 0.33151
 C990 C 0.47381 0.98629 0.35191
 C991 C 0.49688 1.05182 0.34325
 N992 N 0.50080 1.08324 0.32276
 N993 N 0.48568 1.08483 0.29126
 C994 C 0.46487 1.05553 0.27842
 H995 H 0.44861 0.93056 0.35606
 H996 H 0.41419 0.93468 0.30484
 H997 H 0.51071 1.05159 0.36824
 H998 H 0.45590 1.05798 0.25203
 C999 C -0.05940 0.52560 0.84501
 C1000 C -0.07317 0.52898 0.81141
 C1001 C -0.06870 0.49979 0.78647
 C1002 C -0.04196 0.46982 0.79556
 C1003 C -0.02620 0.46761 0.82993
 C1004 C -0.03830 0.49385 0.85595
 C1005 C 0.00046 0.43857 0.83702
 N1006 N 0.01032 0.41311 0.81217
 N1007 N -0.00587 0.41353 0.78117
 C1008 C -0.03213 0.44015 0.77248
 H1009 H -0.06673 0.54800 0.86324
 H1010 H -0.08904 0.55463 0.80601
 H1011 H 0.01446 0.43587 0.86154
 H1012 H -0.04552 0.43660 0.74806
 C1013 C 0.02419 0.00510 0.82339
 C1014 C 0.03985 0.00714 0.78904
 C1015 C 0.08009 0.00439 0.78220
 C1016 C 0.10272 -0.00717 0.81158
 C1017 C 0.08413 -0.02056 0.84244
 C1018 C 0.04630 -0.00805 0.85125
 C1019 C 0.10403 -0.04757 0.86258
 N1020 N 0.14223 -0.05233 0.85805
 N1021 N 0.16148 -0.03328 0.83336
 C1022 C 0.14315 -0.01088 0.81019
 H1023 H -0.00566 0.01234 0.82787
 H1024 H 0.02009 0.01216 0.76822
 H1025 H 0.08936 -0.06629 0.88064
 H1026 H 0.16046 0.00077 0.78979
 C1027 C 0.57818 0.50751 0.34931
 C1028 C 0.59242 0.50556 0.31534
 C1029 C 0.56881 0.50103 0.28608
 C1030 C 0.52746 0.49929 0.29382
 C1031 C 0.51363 0.49851 0.32955
 C1032 C 0.53904 0.50386 0.35735
 C1033 C 0.47441 0.49199 0.33660
 N1034 N 0.44941 0.48998 0.31029
 N1035 N 0.46101 0.49436 0.27741
 C1036 C 0.49846 0.49944 0.26841
 H1037 H 0.59861 0.51149 0.36990
 H1038 H 0.62326 0.50768 0.31191
 H1039 H 0.46319 0.48830 0.36277
 H1040 H 0.50347 0.50550 0.24159
 C1041 C 0.54087 0.52341 0.16213
 C1042 C 0.56067 0.52773 0.19292
 C1043 C 0.56516 0.49744 0.21686
 C1044 C 0.54744 0.46153 0.20754
 C1045 C 0.53131 0.45633 0.17384
 C1046 C 0.52750 0.48774 0.15099
 C1047 C 0.52053 0.41945 0.16389
 N1048 N 0.52218 0.39025 0.18712
 N1049 N 0.53324 0.39565 0.21965
 C1050 C 0.54515 0.43027 0.23073
 H1051 H 0.53877 0.54819 0.14523
 H1052 H 0.57401 0.55512 0.19647
 H1053 H 0.51061 0.41355 0.13800
 H1054 H 0.55187 0.43303 0.25777
 C1055 C 0.02714 0.97317 0.67583
 C1056 C 0.04809 0.97837 0.70655
 C1057 C 0.07100 1.01155 0.71231
 C1058 C 0.06711 1.04182 0.68637
 C1059 C 0.03721 1.03932 0.66190
 C1060 C 0.02270 1.00337 0.65234
 C1061 C 0.02576 1.07239 0.64396
 N1062 N 0.04747 1.10434 0.64519
 N1063 N 0.08007 1.10467 0.66253
 C1064 C 0.09137 1.07421 0.68174
 H1065 H 0.01569 0.94521 0.66994
 H1066 H 0.04877 0.95463 0.72456
 H1067 H 0.00083 1.07216 0.62753
 H1068 H 0.11939 1.07652 0.69230
 C1069 C -0.04894 0.46530 0.66416
 C1070 C -0.06990 0.46755 0.69513
 C1071 C -0.06519 0.49749 0.71919
 C1072 C -0.03347 0.52323 0.71162
 C1073 C -0.01199 0.52098 0.67918
 C1074 C -0.02173 0.49301 0.65397
 C1075 C 0.01801 0.54746 0.67319
 N1076 N 0.02567 0.57456 0.69700
 N1077 N 0.00527 0.57746 0.72639
 C1078 C -0.02384 0.55306 0.73435
 H1079 H -0.05575 0.44187 0.64705
 H1080 H -0.09010 0.44462 0.69971
 H1081 H 0.03632 0.54691 0.65044
 H1082 H -0.03989 0.55861 0.75776
 C1083 C 0.43542 -0.00844 0.15308
 C1084 C 0.41802 -0.01048 0.18574
 C1085 C 0.43868 -0.00871 0.21687
 C1086 C 0.48055 -0.00756 0.21270
 C1087 C 0.49808 -0.00379 0.17843
 C1088 C 0.47532 -0.00555 0.14827
 C1089 C 0.53827 -0.00044 0.17538
 N1090 N 0.56022 -0.00291 0.20386
 N1091 N 0.54484 -0.00979 0.23511
 C1092 C 0.50646 -0.01314 0.24027
 H1093 H 0.41673 -0.00932 0.13091
 H1094 H 0.38697 -0.01219 0.18663
 H1095 H 0.55294 0.00362 0.15084
 H1096 H 0.49802 -0.02339 0.26542
 C1097 C 0.34707 0.37792 0.02041
 C1098 C 0.31583 0.35477 0.01204
 C1099 C 0.27972 0.37016 0.00299
 C1100 C 0.28179 0.40800 -0.01068
 C1101 C 0.31377 0.43215 -0.00277
 C1102 C 0.34697 0.41697 0.01373
 C1103 C 0.31199 0.47059 -0.01322
 N1104 N 0.28374 0.48244 -0.03452
 N1105 N 0.25711 0.45843 -0.04589
 C1106 C 0.25573 0.42143 -0.03528
 H1107 H 0.37224 0.36498 0.03092
 H1108 H 0.31920 0.32427 0.01549
 H1109 H 0.33305 0.49116 -0.00496
 H1110 H 0.23425 0.40280 -0.04603
 C1111 C -0.14711 0.88813 0.48480
 C1112 C -0.18128 0.86772 0.48054
 C1113 C -0.21226 0.87018 0.50462
 C1114 C -0.20549 0.89227 0.53570
 C1115 C -0.17082 0.91403 0.53923
 C1116 C -0.14115 0.91192 0.51355
 C1117 C -0.16757 0.93811 0.56817
 N1118 N -0.19546 0.93857 0.59314
 N1119 N -0.22667 0.91687 0.59103
 C1120 C -0.23260 0.89390 0.56343
 H1121 H -0.12487 0.88549 0.46489
 H1122 H -0.18299 0.84973 0.45790
 H1123 H -0.14342 0.95691 0.57122
 H1124 H -0.25835 0.87691 0.56402
 C1125 C -0.16442 0.06728 0.99019
 C1126 C -0.19845 0.08783 0.99513
 C1127 C -0.19941 0.12840 0.99493
 C1128 C -0.16220 0.14732 0.99377
 C1129 C -0.12760 0.12572 0.98896
 C1130 C -0.12889 0.08551 0.98576
 C1131 C -0.09226 0.14521 0.98736
 N1132 N -0.09121 0.18372 0.98971
 N1133 N -0.12312 0.20409 0.99329
 C1134 C -0.15828 0.18746 0.99509
 H1135 H -0.16578 0.03636 0.99090
 H1136 H -0.22385 0.07099 1.00009
 H1137 H -0.06541 0.13016 0.98401
 H1138 H -0.18264 0.20619 0.99676
 C1139 C 0.33390 0.57846 0.50514
 C1140 C 0.29968 0.59948 0.50835
 C1141 C 0.29762 0.63924 0.50103
 C1142 C 0.33471 0.65770 0.49583
 C1143 C 0.36938 0.63581 0.49160
 C1144 C 0.36892 0.59561 0.49533
 C1145 C 0.40418 0.65514 0.48464
 N1146 N 0.40489 0.69370 0.48247
 N1147 N 0.37318 0.71419 0.48689
 C1148 C 0.33859 0.69761 0.49357
 H1149 H 0.33304 0.54815 0.51097
 H1150 H 0.27466 0.58371 0.51713
 H1151 H 0.43092 0.63999 0.48105
 H1152 H 0.31459 0.71597 0.49652
 C1153 C 0.15972 0.61239 0.53636
 C1154 C 0.19221 0.63610 0.53209
 C1155 C 0.22068 0.63162 0.50490
 C1156 C 0.21404 0.59966 0.48237
 C1157 C 0.18279 0.57351 0.48915
 C1158 C 0.15372 0.58118 0.51483
 C1159 C 0.18189 0.53937 0.47012
 N1160 N 0.20720 0.53348 0.44361
 N1161 N 0.23413 0.55907 0.43530
 C1162 C 0.23837 0.59166 0.45361
 H1163 H 0.13823 0.61961 0.55594
 H1164 H 0.19278 0.65989 0.54970
 H1165 H 0.16191 0.51677 0.47680
 H1166 H 0.26181 0.60989 0.44609
 C1167 C 0.66547 0.10237 0.03344
 C1168 C 0.69821 0.12580 0.02878
 C1169 C 0.72384 0.12350 -0.00090
 C1170 C 0.71453 0.09366 -0.02491
 C1171 C 0.68599 0.06568 -0.01593
 C1172 C 0.65822 0.07221 0.01098
 C1173 C 0.68655 0.03102 -0.03407
 N1174 N 0.70847 0.02729 -0.06326
 N1175 N 0.73050 0.05583 -0.07497
 C1176 C 0.73391 0.08878 -0.05701
 H1177 H 0.64563 0.10809 0.05480
 H1178 H 0.70201 0.14624 0.04919
 H1179 H 0.67026 0.00667 -0.02467
 H1180 H 0.75160 0.11037 -0.06825
 C1181 C 0.64300 0.87537 0.51707
 C1182 C 0.67971 0.86064 0.52261
 C1183 C 0.71284 0.87322 0.50390
 C1184 C 0.70777 0.91108 0.48837
 C1185 C 0.66994 0.92490 0.48076
 C1186 C 0.63697 0.90592 0.49427
 C1187 C 0.66614 0.95976 0.46265
 N1188 N 0.69720 0.98191 0.45600
 N1189 N 0.73173 0.97167 0.46648
 C1190 C 0.73783 0.93804 0.48306
 H1191 H 0.61903 0.86352 0.53200
 H1192 H 0.68151 0.84082 0.54379
 H1193 H 0.63867 0.97051 0.45479
 H1194 H 0.76661 0.93350 0.49058
 C1195 C 0.15467 0.42357 1.00731
 C1196 C 0.19041 0.40516 1.01158
 C1197 C 0.19514 0.36587 1.00619
 C1198 C 0.15307 0.34433 1.00542
 C1199 C 0.11885 0.36400 1.00168
 C1200 C 0.11990 0.40414 1.00018
 C1201 C 0.08428 0.34257 0.99999
 N1202 N 0.08373 0.30342 1.00039
 N1203 N 0.11516 0.28191 1.00250
 C1204 C 0.14956 0.29905 1.00560
 H1205 H 0.15392 0.45428 1.01043
 H1206 H 0.21438 0.42241 1.01940
 H1207 H 0.05702 0.35701 0.99814
 H1208 H 0.22466 0.28455 1.00344
 C1209 C -0.02018 0.34153 0.42318
 C1210 C -0.02063 0.30621 0.40858
 C1211 C 0.01042 0.29208 0.38822
 C1212 C 0.04478 0.31565 0.38540
 C1213 C 0.04595 0.35053 0.40387
 C1214 C 0.01267 0.36342 0.42118
 C1215 C 0.08028 0.37202 0.40423
 N1216 N 0.11195 0.35917 0.38738
 N1217 N 0.11072 0.32772 0.36841
 C1218 C 0.07811 0.30679 0.36586
 H1219 H -0.04515 0.35092 0.43807
 H1220 H -0.04601 0.28942 0.41408
 H1221 H 0.08234 0.39894 0.41757
 H1222 H 0.07784 0.28711 0.34513
 C1223 C 0.50336 -0.15679 -0.10303
 C1224 C 0.49807 -0.19044 -0.11945
 C1225 C 0.51526 -0.22450 -0.10761
 C1226 C 0.54816 -0.22005 -0.08586
 C1227 C 0.55659 -0.18358 -0.07192
 C1228 C 0.53039 -0.15333 -0.07710
 C1229 C 0.59120 -0.17866 -0.05423
 N1230 N 0.61420 -0.20893 -0.04813
 N1231 N 0.60490 -0.24377 -0.05862
 C1232 C 0.57282 -0.25029 -0.07708
 H1233 H 0.48420 -0.13387 -0.11006
 H1234 H 0.47803 -0.18911 -0.14051
 H1235 H 0.60133 -0.15093 -0.04685
 H1236 H 0.56651 -0.27923 -0.08345
 C1237 C 0.03659 -0.16801 1.07746
 C1238 C 0.03795 -0.20385 1.09215
 C1239 C 0.00437 -0.22631 1.09683
 C1240 C -0.02966 -0.21335 1.07953
 C1241 C -0.03217 -0.17457 1.07020
 C1242 C 0.00152 -0.15234 1.06866
 C1243 C -0.06874 -0.15872 1.06494
 N1244 N -0.09982 -0.18173 1.06294
 N1245 N -0.09654 -0.21934 1.06614
 C1246 C -0.06265 -0.23580 1.07405
 H1247 H 0.06301 -0.15174 1.07446
 H1248 H 0.06573 -0.21248 1.10105
 H1249 H -0.07303 -0.12829 1.06352
 H1250 H -0.06190 -0.26597 1.07320
 C1251 C 0.47435 0.32985 0.56403
 C1252 C 0.47450 0.29159 0.57207
 C1253 C 0.50506 0.27601 0.59080
 C1254 C 0.54074 0.29543 0.58753
 C1255 C 0.54102 0.33526 0.58121
 C1256 C 0.50624 0.35303 0.57092
 C1257 C 0.57663 0.35436 0.58312
 N1258 N 0.60953 0.33408 0.58537
 N1259 N 0.60921 0.29614 0.58527
 C1260 C 0.57584 0.27624 0.58538
 H1261 H 0.44821 0.34151 0.55351
 H1262 H 0.44806 0.27574 0.56884
 H1263 H 0.57943 0.38473 0.58246
 H1264 H 0.57700 0.24602 0.58095
 C1265 C 0.50118 1.16816 0.54838
 C1266 C 0.49665 1.20278 0.56429
 C1267 C 0.49252 1.20547 0.60092
 C1268 C 0.49122 1.17075 0.62112
 C1269 C 0.50026 1.13635 0.60478
 C1270 C 0.50309 1.13523 0.56834
 C1271 C 0.50695 1.10392 0.62536
 N1272 N 0.50041 1.10480 0.66017
 N1273 N 0.48800 1.13639 0.67558
 C1274 C 0.48305 1.16919 0.65729
 H1275 H 0.50263 1.16702 0.52018
 H1276 H 0.49673 1.22706 0.54692
 H1277 H 0.51838 1.07851 0.61383
 H1278 H 0.47283 1.19343 0.67131
 C1279 C -0.04470 0.64870 1.09595
 C1280 C -0.04009 0.68455 1.11003
 C1281 C -0.00550 0.70536 1.10478
 C1282 C 0.02471 0.68797 1.08425
 C1283 C 0.02241 0.64882 1.07813
 C1284 C -0.01355 0.63082 1.07996
 C1285 C 0.05651 0.62836 1.07160
 N1286 N 0.08962 0.64730 1.06459
 N1287 N 0.09068 0.68519 1.06459
 C1288 C 0.05947 0.70601 1.07386
 H1289 H -0.07259 0.63496 1.09761
 H1290 H -0.06474 0.69666 1.12321
 H1291 H 0.05699 0.59752 1.07260
 H1292 H 0.06292 0.73585 1.07295
 C1293 C 0.48157 0.68414 -0.03790
 C1294 C 0.49378 0.71116 -0.06181
 C1295 C 0.49030 0.70536 -0.09810
 C1296 C 0.46908 0.67220 -0.10906
 C1297 C 0.45253 0.64784 -0.08388
 C1298 C 0.46340 0.65159 -0.04923
 C1299 C 0.42939 0.61713 -0.09432
 N1300 N 0.42552 0.60975 -0.12860
 N1301 N 0.44443 0.63020 -0.15270
 C1302 C 0.46681 0.66029 -0.14404
 H1303 H 0.48920 0.68718 -0.01082
 H1304 H 0.50572 0.73652 -0.05078
 H1305 H 0.41520 0.59864 -0.07534
 H1306 H 0.48430 0.67300 -0.16430
 C1307 C -0.02788 1.15622 0.41137
 C1308 C -0.02301 1.18777 0.39084
 C1309 C -0.00606 1.22184 0.40283
 C1310 C 0.00764 1.22200 0.43839
 C1311 C 0.00099 1.18917 0.45965
 C1312 C -0.01526 1.15637 0.44507
 C1313 C 0.01337 1.18877 0.49436
 N1314 N 0.03267 1.21890 0.50706
 N1315 N 0.04127 1.24885 0.48704
 C1316 C 0.03032 1.25109 0.45342
 H1317 H -0.03947 1.13052 0.40001
 H1318 H -0.03178 1.18459 0.36440
 H1319 H 0.00842 1.16459 0.51141
 H1320 H 0.04191 1.27482 0.43953
 C1321 C 0.71298 0.71387 0.91025
 C1322 C 0.71172 0.69539 0.94273
 C1323 C 0.74420 0.69153 0.96479
 C1324 C 0.77736 0.71350 0.95322
 C1325 C 0.77860 0.73160 0.91931
 C1326 C 0.74656 0.73058 0.89711
 C1327 C 0.81218 0.75092 0.90848
 N1328 N 0.84245 0.75305 0.92992
 N1329 N 0.84146 0.73691 0.96135
 C1330 C 0.81023 0.71751 0.97358
 H1331 H 0.68766 0.71319 0.89433
 H1332 H 0.68409 0.68333 0.94968
 H1333 H 0.81435 0.76502 0.88335
 H1334 H 0.81227 0.70461 0.99864
 C1335 C 0.22113 0.18521 0.40718
 C1336 C 0.22801 0.16667 0.43848
 C1337 C 0.24839 0.18372 0.46614
 C1338 C 0.26653 0.21986 0.45729
 C1339 C 0.25872 0.23902 0.42512
 C1340 C 0.23620 0.22129 0.39991
 C1341 C 0.27576 0.27475 0.41797
 N1342 N 0.30062 0.28995 0.44067
 N1343 N 0.30984 0.27138 0.46959
 C1344 C 0.29407 0.23702 0.47805
 H1345 H 0.20620 0.16973 0.38713
 H1346 H 0.21748 0.13765 0.44009
 H1347 H 0.26972 0.29053 0.39438
 H1348 H 0.30415 0.22304 0.50008
 C1349 C 0.76986 0.26942 0.41912
 C1350 C 0.76647 0.28635 0.45251
 C1351 C 0.75985 0.32625 0.45664
 C1352 C 0.76429 0.34887 0.42529
 C1353 C 0.77641 0.33198 0.39358
 C1354 C 0.77323 0.29215 0.38890
 C1355 C 0.78999 0.35595 0.36651
 N1356 N 0.78495 0.39416 0.36858
 N1357 N 0.76713 0.40957 0.39593
 C1358 C 0.75588 0.38802 0.42378
 H1359 H 0.76929 0.23863 0.41696
 H1360 H 0.76685 0.26754 0.47489
 H1361 H 0.80403 0.34437 0.34360
 H1362 H 0.73938 0.40134 0.44376
 C1363 C 0.27733 0.81337 0.90649
 C1364 C 0.27881 0.82937 0.93926
 C1365 C 0.25515 0.81742 0.96818
 C1366 C 0.22474 0.79128 0.95902
 C1367 C 0.22386 0.77443 0.92484
 C1368 C 0.25137 0.78483 0.89879
 C1369 C 0.19405 0.74907 0.91707
 N1370 N 0.16596 0.74173 0.94103
 N1371 N 0.16566 0.75815 0.97216
 C1372 C 0.19358 0.78279 0.98176
 H1373 H 0.29582 0.82523 0.88609
 H1374 H 0.29809 0.85340 0.93994
 H1375 H 0.19259 0.73547 0.89192
 H1376 H 0.19137 0.79460 1.00749
 C1377 C 0.25978 0.74899 0.06895
 C1378 C 0.25883 0.77056 0.03739
 C1379 C 0.26960 0.81014 0.03630
 C1380 C 0.29052 0.82266 0.06618
 C1381 C 0.30310 0.79558 0.09063
 C1382 C 0.28030 0.76268 0.09741
 C1383 C 0.33489 0.80494 0.11079
 N1384 N 0.34622 0.84188 0.11300
 N1385 N 0.32759 0.86934 0.09625
 C1386 C 0.29906 0.86098 0.07395
 H1387 H 0.24404 0.72236 0.07115
 H1388 H 0.24689 0.75650 0.01544
 H1389 H 0.34907 0.78333 0.12608
 H1390 H 0.28322 0.88416 0.06294
 C1391 C 0.77785 0.30773 0.58650
 C1392 C 0.78125 0.32411 0.55336
 C1393 C 0.75499 0.31689 0.52646
 C1394 C 0.72552 0.28880 0.53533
 C1395 C 0.72107 0.27340 0.57028
 C1396 C 0.74703 0.28393 0.59674
 C1397 C 0.68992 0.24867 0.57753
 N1398 N 0.66597 0.23837 0.55194
 N1399 N 0.67064 0.25137 0.51958
 C1400 C 0.69924 0.27599 0.51064
 H1401 H 0.79914 0.31598 0.60524
 H1402 H 0.80389 0.34495 0.55067
 H1403 H 0.68388 0.23719 0.60306
 H1404 H 0.70155 0.28420 0.48400
 C1405 C 0.23540 0.24601 0.56668
 C1406 C 0.23371 0.22381 0.53609
 C1407 C 0.24384 0.18454 0.53614
 C1408 C 0.24995 0.16749 0.56933
 C1409 C 0.25958 0.19106 0.59759
 C1410 C 0.24984 0.23043 0.59756
 C1411 C 0.28185 0.17501 0.62394
 N1412 N 0.28545 0.13678 0.62674
 N1413 N 0.26897 0.11343 0.60280
 C1414 C 0.25257 0.12766 0.57273
 H1415 H 0.22527 0.27518 0.56623
 H1416 H 0.22387 0.23748 0.51263
 H1417 H 0.29671 0.19248 0.64202
 H1418 H 0.25847 0.10475 0.59032
 C1419 C 0.78166 0.70839 0.08602
 C1420 C 0.77791 0.68957 0.05445
 C1421 C 0.74484 0.69239 0.03297
 C1422 C 0.71799 0.72146 0.04377
 C1423 C 0.72174 0.74012 0.07692
 C1424 C 0.75325 0.73243 0.09868
 C1425 C 0.69351 0.76623 0.08753
 N1426 N 0.66407 0.77451 0.06630
 N1427 N 0.66081 0.75811 0.03535
 C1428 C 0.68661 0.73217 0.02347
 H1429 H 0.80634 0.70214 0.10183
 H1430 H 0.80212 0.67182 0.04789
 H1431 H 0.69507 0.78068 0.11228
 H1432 H 0.68145 0.71959 -0.00126
 C1433 C 0.17810 0.56537 0.23163
 C1434 C 0.15555 0.53195 0.23584
 C1435 C 0.11511 0.53281 0.24182
 C1436 C 0.09849 0.57096 0.24253
 C1437 C 0.12211 0.60458 0.23989
 C1438 C 0.16213 0.60200 0.23366
 C1439 C 0.10474 0.64068 0.24338
 N1440 N 0.06626 0.64354 0.24729
 N1441 N 0.04388 0.61279 0.24790
 C1442 C 0.05843 0.57709 0.24538
 H1443 H 0.20888 0.56250 0.22834
 H1444 H 0.17116 0.50557 0.23612
 H1445 H 0.12126 0.66686 0.24217
 H1446 H 0.03795 0.55427 0.24478
 C1447 C 0.67633 0.07683 0.73336
 C1448 C 0.65546 0.04221 0.73604
 C1449 C 0.61518 0.04109 0.74229
 C1450 C 0.59653 0.07825 0.74338
 C1451 C 0.61787 0.11302 0.73853
 C1452 C 0.65814 0.11253 0.73447
 C1453 C 0.59812 0.14807 0.73852
 N1454 N 0.55971 0.14883 0.74388
 N1455 N 0.53980 0.11695 0.74970
 C1456 C 0.55679 0.08223 0.74992
 H1457 H 0.70725 0.07566 0.73023
 H1458 H 0.67160 0.01629 0.73260
 H1459 H 0.61284 0.17498 0.73425
 H1460 H 0.53897 0.05843 0.75633
 C1461 C 0.82853 0.08035 0.23547
 C1462 C 0.85120 0.04722 0.23235
 C1463 C 0.88802 0.04433 0.24721
 C1464 C 0.90380 0.08068 0.25827
 C1465 C 0.88037 0.11403 0.26215
 C1466 C 0.84163 0.11345 0.25219
 C1467 C 0.89723 0.14785 0.27450
 N1468 N 0.93478 0.14868 0.28232
 N1469 N 0.95687 0.11826 0.27810
 C1470 C 0.94266 0.08499 0.26608
 H1471 H 0.80015 0.08007 0.22444
 H1472 H 0.83890 0.02386 0.21826
 H1473 H 0.88147 0.17402 0.27740
 H1474 H 0.96190 0.06247 0.26256
 C1475 C 0.36212 0.60724 0.78254
 C1476 C 0.38571 0.57511 0.77964
 C1477 C 0.38187 0.54657 0.75323
 C1478 C 0.35348 0.55506 0.72772
 C1479 C 0.32641 0.58518 0.73355
 C1480 C 0.33201 0.61311 0.75995
 C1481 C 0.29342 0.58569 0.71311
 N1482 N 0.29052 0.56235 0.68536
 N1483 N 0.31796 0.53752 0.67730
 C1484 C 0.34919 0.53312 0.69739
 H1485 H 0.36828 0.62827 0.80224
 H1486 H 0.40846 0.57437 0.79824
 H1487 H 0.26933 0.60354 0.71978
 H1488 H 0.36905 0.51124 0.69009
 C1489 C 0.31914 0.44028 0.74008
 C1490 C 0.34089 0.47165 0.75089
 C1491 C 0.38121 0.46986 0.75462
 C1492 C 0.39660 0.43149 0.75668
 C1493 C 0.37356 0.39925 0.74748
 C1494 C 0.33543 0.40414 0.73608
 C1495 C 0.38930 0.36237 0.75046
 N1496 N 0.42607 0.35781 0.76015
 N1497 N 0.44819 0.38761 0.76719
 C1498 C 0.43492 0.42387 0.76553
 H1499 H 0.28857 0.44390 0.73671
 H1500 H 0.32520 0.49745 0.75599
 H1501 H 0.37290 0.33701 0.74462
 H1502 H 0.45491 0.44579 0.77108
 C1503 C 0.82312 0.92966 0.25062
 C1504 C 0.84520 0.96280 0.25582
 C1505 C 0.88586 0.96399 0.25194
 C1506 C 0.90337 0.92652 0.24610
 C1507 C 0.88024 0.89241 0.24407
 C1508 C 0.83987 0.89433 0.24347
 C1509 C 0.89826 0.85652 0.24361
 N1510 N 0.93686 0.85413 0.24173
 N1511 N 0.95857 0.88529 0.24040
 C1512 C 0.94335 0.92077 0.24208
 H1513 H 0.79218 0.93152 0.25332
 H1514 H 0.82870 0.98731 0.26278
 H1515 H 0.88202 0.83015 0.24419
 H1516 H 0.96350 0.94331 0.23997
 C1517 C 0.66464 0.92242 0.77091
 C1518 C 0.64503 0.95721 0.76565
 C1519 C 0.61752 0.96319 0.73904
 C1520 C 0.61069 0.92955 0.71738
 C1521 C 0.62728 0.89319 0.72639
 C1522 C 0.65625 0.88982 0.75157
 C1523 C 0.61377 0.85985 0.71020
 N1524 N 0.58931 0.86222 0.68356
 N1525 N 0.57706 0.89576 0.67226
 C1526 C 0.58697 0.92887 0.68775
 H1527 H 0.68655 0.92103 0.79049
 H1528 H 0.65107 0.98011 0.78354
 H1529 H 0.62218 0.83169 0.71878
 H1530 H 0.57559 0.95309 0.67568
 C1531 C 0.16045 0.41002 0.22541
 C1532 C 0.13785 0.44369 0.22427
 C1533 C 0.11079 0.45356 0.25081
 C1534 C 0.10292 0.42207 0.27591
 C1535 C 0.12069 0.38523 0.27131
 C1536 C 0.15343 0.38060 0.25006
 C1537 C 0.10314 0.35273 0.28613
 N1538 N 0.07298 0.35663 0.30807
 N1539 N 0.06126 0.39069 0.31828
 C1540 C 0.07662 0.42307 0.30466
 H1541 H 0.18301 0.40653 0.20596
 H1542 H 0.14264 0.46300 0.20250
 H1543 H 0.11216 0.32411 0.27961
 H1544 H 0.06676 0.44766 0.31731
 C1545 C 0.09975 0.24858 0.85474
 C1546 C 0.06468 0.23872 0.86927
 C1547 C 0.02984 0.24835 0.85300
 C1548 C 0.03280 0.26406 0.81841
 C1549 C 0.06732 0.28212 0.80831
 C1550 C 0.10178 0.27035 0.82428
 C1551 C 0.06579 0.30936 0.78119
 N1552 N 0.03527 0.31014 0.75995
 N1553 N 0.00626 0.28582 0.76456
 C1554 C 0.00448 0.26205 0.79252
 H1555 H 0.12550 0.23931 0.86770
 H1556 H 0.06501 0.22508 0.89463
 H1557 H 0.08786 0.33050 0.77701
 H1558 H -0.01924 0.24243 0.79374
 C1559 C 0.59632 0.73627 0.34515
 C1560 C 0.56249 0.73504 0.36293
 C1561 C 0.52711 0.74357 0.34700
 C1562 C 0.52682 0.74610 0.30940
 C1563 C 0.56271 0.74646 0.29114
 C1564 C 0.59709 0.74462 0.30997
 C1565 C 0.56329 0.74646 0.25451
 N1566 N 0.53017 0.74776 0.23689
 N1567 N 0.49645 0.74792 0.25349
 C1568 C 0.49358 0.74663 0.28869
 H1569 H 0.62240 0.73316 0.35989
 H1570 H 0.56489 0.73167 0.39084
 H1571 H 0.58953 0.74336 0.23967
 H1572 H 0.46510 0.74347 0.29874
 C1573 C 0.57557 0.26062 0.18867
 C1574 C 0.54291 0.26239 0.16909
 C1575 C 0.54264 0.24888 0.13452
 C1576 C 0.57835 0.23515 0.11946
 C1577 C 0.61030 0.23061 0.14075
 C1578 C 0.60872 0.24468 0.17477
 C1579 C 0.64354 0.21273 0.12721
 N1580 N 0.64551 0.20280 0.09328
 N1581 N 0.61682 0.21024 0.07204
 C1582 C 0.58388 0.22657 0.08373
 H1583 H 0.57504 0.27194 0.21488
 H1584 H 0.51769 0.27302 0.18227
 H1585 H 0.66797 0.20666 0.14327
 H1586 H 0.56323 0.23390 0.06451
 C1587 C 0.11111 0.75858 0.64483
 C1588 C 0.07862 0.75186 0.62681
 C1589 C 0.04186 0.75268 0.64305
 C1590 C 0.03992 0.75303 0.68042
 C1591 C 0.07314 0.76367 0.69832
 C1592 C 0.10857 0.76525 0.68010
 C1593 C 0.07025 0.77130 0.73417
 N1594 N 0.03720 0.76343 0.75187
 N1595 N 0.00725 0.74830 0.73598
 C1596 C 0.00771 0.74211 0.70116
 H1597 H 0.13860 0.75780 0.63109
 H1598 H 0.08245 0.74851 0.59919
 H1599 H 0.09406 0.78316 0.74819
 H1600 H -0.01654 0.72726 0.69099
 C1601 C 0.90439 0.72958 0.64740
 C1602 C 0.94016 0.72696 0.63213
 C1603 C 0.96811 0.75585 0.63598
 C1604 C 0.95633 0.79031 0.65353
 C1605 C 0.91764 0.79462 0.66437
 C1606 C 0.89313 0.76250 0.66488
 C1607 C 0.90469 0.83113 0.67389
 N1608 N 0.93008 0.86002 0.67770
 N1609 N 0.96744 0.85471 0.67233
 C1610 C 0.98138 0.82092 0.66082
 H1611 H 0.88560 0.70497 0.64571
 H1612 H 0.94492 0.70143 0.61731
 H1613 H 0.87457 0.83726 0.67707
 H1614 H 1.01187 0.81857 0.65836
 C1615 C 0.41233 0.22149 0.16816
 C1616 C 0.44322 0.21974 0.14599
 C1617 C 0.46765 0.25136 0.13916
 C1618 C 0.45434 0.28770 0.15211
 C1619 C 0.41844 0.29007 0.17044
 C1620 C 0.39894 0.25620 0.18046
 C1621 C 0.40255 0.32628 0.17662
 N1622 N 0.42265 0.35812 0.16792
 N1623 N 0.45773 0.35605 0.15397
 C1624 C 0.47452 0.32217 0.14660
 H1625 H 0.39732 0.19493 0.17397
 H1626 H 0.44618 0.19236 0.13396
 H1627 H 0.37392 0.32977 0.18703
 H1628 H 0.50365 0.32290 0.13716
 C1629 C 0.38839 0.72639 0.35579
 C1630 C 0.42478 0.72382 0.36807
 C1631 C 0.45305 0.75191 0.35977
 C1632 C 0.44035 0.78703 0.34435
 C1633 C 0.40147 0.79110 0.33594
 C1634 C 0.37737 0.75882 0.33818
 C1635 C 0.38836 0.82701 0.32482
 N1636 N 0.41339 0.85636 0.32048
 N1637 N 0.45072 0.85174 0.32531
 C1638 C 0.46502 0.81795 0.33629
 H1639 H 0.36897 0.70229 0.35906
 H1640 H 0.43004 0.69843 0.38320
 H1641 H 0.35858 0.83245 0.32018
 H1642 H 0.49540 0.81568 0.33812
 C1643 C 0.89995 0.21999 0.82766
 C1644 C 0.93203 0.21695 0.84753
 C1645 C 0.95601 0.24867 0.85345
 C1646 C 0.94429 0.28547 0.84000
 C1647 C 0.90999 0.28830 0.82122
 C1648 C 0.88800 0.25531 0.81579
 C1649 C 0.89961 0.32374 0.80675
 N1650 N 0.92179 0.35487 0.81167
 N1651 N 0.95416 0.35262 0.82919
 C1652 C 0.96646 0.31924 0.84285
 H1653 H 0.88307 0.19455 0.82291
 H1654 H 0.93702 0.18913 0.85860
 H1655 H 0.87462 0.32687 0.79085
 H1656 H 0.99439 0.31964 0.85403
 C1657 C 0.56248 1.02238 0.64896
 C1658 C 0.58118 1.02010 0.68029
 C1659 C 0.56270 1.00743 0.71162
 C1660 C 0.52112 1.00324 0.71002
 C1661 C 0.50301 1.00235 0.67668
 C1662 C 0.52435 1.01087 0.64606
 C1663 C 0.46387 0.99312 0.67494
 N1664 N 0.44273 0.98873 0.70455
 N1665 N 0.45819 0.99320 0.73561
 C1666 C 0.49605 1.00084 0.73932
 H1667 H 0.57925 1.03009 0.62588
 H1668 H 0.61184 1.02493 0.67893
 H1669 H 0.44962 0.99017 0.65037
 H1670 H 0.50486 1.00650 0.76523
 C1671 C 0.04457 0.52345 1.15744
 C1672 C 0.06918 0.51780 1.18518
 C1673 C 0.06063 0.49347 1.21437
 C1674 C 0.02729 0.46943 1.20968
 C1675 C 0.00293 0.47418 1.17987
 C1676 C 0.01111 0.50214 1.15385
 C1677 C -0.02852 0.44950 1.17609
 N1678 N -0.03552 0.42159 1.19994
 N1679 N -0.01306 0.41668 1.22719
 C1680 C 0.01788 0.43932 1.23258
 H1681 H 0.05392 0.54248 1.13651
 H1682 H 0.09588 0.53328 1.18245
 H1683 H -0.04761 0.45223 1.15432
 H1684 H 0.03423 0.43386 1.25502
 C1685 C -0.06932 -0.01198 1.15572
 C1686 C -0.08494 -0.00524 1.18842
 C1687 C -0.06307 0.00265 1.21837
 C1688 C -0.02157 0.00599 1.21168
 C1689 C -0.00603 0.00068 1.17671
 C1690 C -0.03013 -0.00917 1.14879
 C1691 C 0.03345 0.00628 1.17034
 N1692 N 0.05702 0.01436 1.19675
 N1693 N 0.04367 0.01769 1.22912
 C1694 C 0.00590 0.01375 1.23734
 H1695 H -0.08886 -0.01880 1.13500
 H1696 H -0.11572 -0.00817 1.19019
 H1697 H 0.04605 0.00464 1.14462
 H1698 H -0.00086 0.01797 1.26386
 C1699 C 0.45502 0.47218 0.66685
 C1700 C 0.43258 0.47547 0.69672
 C1701 C 0.43392 0.50742 0.71962
 C1702 C 0.45859 0.53831 0.70791
 C1703 C 0.47952 0.53565 0.67549
 C1704 C 0.47783 0.50208 0.65523
 C1705 C 0.50189 0.56692 0.66407
 N1706 N 0.50451 0.59841 0.68410
 N1707 N 0.48644 0.60057 0.71481
 C1708 C 0.46396 0.57174 0.72736
 H1709 H 0.45109 0.44739 0.65050
 H1710 H 0.41189 0.45291 0.69900
 H1711 H 0.51784 0.56628 0.63965
 H1712 H 0.45215 0.57486 0.75302
 C1713 C 0.41660 0.51463 -0.14761
 C1714 C 0.40448 0.50580 -0.18066
 C1715 C 0.42910 0.50769 -0.21017
 C1716 C 0.46941 0.51353 -0.20343
 C1717 C 0.48152 0.52436 -0.16920
 C1718 C 0.45492 0.52389 -0.14057
 C1719 C 0.52033 0.53394 -0.16480
 N1720 N 0.54609 0.52929 -0.19116
 N1721 N 0.53582 0.51509 -0.22156
 C1722 C 0.49883 0.50643 -0.22828
 H1723 H 0.39502 0.51388 -0.12694
 H1724 H 0.37406 0.50059 -0.18355
 H1725 H 0.53075 0.54546 -0.14106
 H1726 H 0.49380 0.49197 -0.25225
 C1727 C -0.02359 0.99518 0.33526
 C1728 C -0.04163 0.98640 0.30383
 C1729 C -0.07467 1.00582 0.29236
 C1730 C -0.09427 1.02705 0.31975
 C1731 C -0.07444 1.03852 0.35011
 C1732 C -0.03858 1.02250 0.35809
 C1733 C -0.09255 1.06376 0.37358
 N1734 N -0.12954 1.07376 0.36916
 N1735 N -0.14963 1.05989 0.34306
 C1736 C -0.13362 1.03643 0.31901
 H1737 H 0.00165 0.97920 0.34246
 H1738 H -0.02735 0.96553 0.28832
 H1739 H -0.07789 1.07465 0.39601
 H1740 H -0.15215 1.02552 0.29979
 C1741 C 0.01403 0.50352 0.32598
 C1742 C 0.02900 0.50183 0.29142
 C1743 C 0.06936 0.50338 0.28420
 C1744 C 0.09280 0.51378 0.31309
 C1745 C 0.07554 0.52661 0.34440
 C1746 C 0.03743 0.51435 0.35367
 C1747 C 0.09818 0.55026 0.36544
 N1748 N 0.13678 0.55128 0.36086
 N1749 N 0.15395 0.53094 0.33607
 C1750 C 0.13325 0.51152 0.31249
 H1751 H -0.01588 0.49663 0.33093
 H1752 H 0.00878 0.49707 0.27113
 H1753 H 0.08565 0.56867 0.38478
 H1754 H 0.14874 0.49488 0.29358
 C1755 C 0.56574 0.01712 -0.15904
 C1756 C 0.57935 0.02169 -0.19282
 C1757 C 0.57165 -0.00478 -0.21951
 C1758 C 0.55106 -0.03895 -0.20850
 C1759 C 0.54022 -0.04490 -0.17267
 C1760 C 0.54654 -0.01595 -0.14791
 C1761 C 0.52433 -0.08024 -0.16267
 N1762 N 0.51641 -0.10682 -0.18691
 N1763 N 0.52329 -0.10024 -0.22057
 C1764 C 0.53989 -0.06733 -0.23203
 H1765 H 0.57185 0.03977 -0.14087
 H1766 H 0.59685 0.04675 -0.19675
 H1767 H 0.51865 -0.08716 -0.13583
 H1768 H 0.54240 -0.06304 -0.25952
 C1769 C 0.63743 0.62293 0.02078
 C1770 C 0.67173 0.64395 0.02232
 C1771 C 0.70201 0.64023 -0.00259
 C1772 C 0.69506 0.61289 -0.03011
 C1773 C 0.66003 0.59110 -0.03101
 C1774 C 0.63059 0.59663 -0.00574
 C1775 C 0.65581 0.56345 -0.05707
 N1776 N 0.68337 0.55905 -0.08192
 N1777 N 0.71494 0.58039 -0.08246
 C1778 C 0.72156 0.60692 -0.05778
 H1779 H 0.61589 0.62702 0.04110
 H1780 H 0.67440 0.66227 0.04450
 H1781 H 0.63100 0.54500 -0.05789
 H1782 H 0.74700 0.62369 -0.06115
 C1783 C 0.14352 1.13026 0.49345
 C1784 C 0.17782 1.15007 0.49955
 C1785 C 0.21405 1.13182 0.50345
 C1786 C 0.21241 1.09046 0.50511
 C1787 C 0.17722 1.07057 0.49746
 C1788 C 0.14248 1.09051 0.49154
 C1789 C 0.17730 1.03040 0.49681
 N1790 N 0.20904 1.01089 0.50572
 N1791 N 0.24058 1.02883 0.51566
 C1792 C 0.24308 1.06744 0.51620
 H1793 H 0.11721 1.14634 0.49098
 H1794 H 0.17627 1.18093 0.49951
 H1795 H 0.15221 1.01425 0.48952
 H1796 H 0.26868 1.07897 0.52692
 C1797 C 0.17293 -0.09590 0.98613
 C1798 C 0.20582 -0.11834 0.98393
 C1799 C 0.22016 -0.13918 1.01251
 C1800 C 0.19745 -0.13610 1.04484
 C1801 C 0.16700 -0.10836 1.04774
 C1802 C 0.15239 -0.09021 1.01761
 C1803 C 0.15213 -0.09982 1.08109
 N1804 N 0.16147 -0.12148 1.10883
 N1805 N 0.18448 -0.15130 1.10534
 C1806 C 0.20189 -0.15969 1.07455
 H1807 H 0.16397 -0.08231 0.96224
 H1808 H 0.22077 -0.11863 0.95900
 H1809 H 0.13410 -0.07561 1.08586
 H1810 H 0.21603 -0.18631 1.07410
 C1811 C 0.67226 0.40519 0.53864
 C1812 C 0.70578 0.38423 0.53114
 C1813 C 0.71180 0.36444 0.49904
 C1814 C 0.67743 0.35902 0.47839
 C1815 C 0.64201 0.37580 0.48990
 C1816 C 0.64076 0.40300 0.51693
 C1817 C 0.60751 0.36465 0.47435
 N1818 N 0.60799 0.34210 0.44611
 N1819 N 0.64077 0.32919 0.43288
 C1820 C 0.67494 0.33678 0.44761
 H1821 H 0.67164 0.42425 0.56070
 H1822 H 0.72926 0.38710 0.54901
 H1823 H 0.57998 0.37345 0.48477
 H1824 H 0.69814 0.32301 0.43498
 C1825 C -0.13913 0.37733 0.48606
 C1826 C -0.17400 0.35743 0.48892
 C1827 C -0.21045 0.37532 0.49387
 C1828 C -0.20902 0.41708 0.49520
 C1829 C -0.17243 0.43673 0.49438
 C1830 C -0.13753 0.41689 0.48880
 C1831 C -0.17141 0.47668 0.49832
 N1832 N -0.20431 0.49666 0.50096
 N1833 N -0.23818 0.47950 0.49920
 C1834 C -0.24161 0.44117 0.49583
 H1835 H -0.11281 0.36128 0.48283
 H1836 H -0.17239 0.32662 0.48737
 H1837 H -0.14470 0.49246 0.49874
 H1838 H -0.27000 0.43161 0.49136
 C1839 C 0.36758 -0.13576 -0.01054
 C1840 C 0.33247 -0.15408 -0.00382
 C1841 C 0.29702 -0.13423 0.00084
 C1842 C 0.29992 -0.09281 -0.00026
 C1843 C 0.33585 -0.07475 -0.00969
 C1844 C 0.36998 -0.09620 -0.01381
 C1845 C 0.33736 -0.03476 -0.01331
 N1846 N 0.30623 -0.01349 -0.00535
 N1847 N 0.27406 -0.02951 0.00683
 C1848 C 0.27021 -0.06787 0.01037
 H1849 H 0.39342 -0.15279 -0.01235
 H1850 H 0.33284 -0.18499 -0.00283
 H1851 H 0.36325 -0.02019 -0.02211
 H1852 H 0.24514 -0.07723 0.02428
 C1853 C 0.33071 1.08724 0.47878
 C1854 C 0.29990 1.11288 0.47682
 C1855 C 0.29284 1.14098 0.50240
 C1856 C 0.32555 1.14866 0.52517
 C1857 C 0.35803 1.12320 0.52540
 C1858 C 0.35881 1.09011 0.50444
 C1859 C 0.39050 1.13294 0.54500
 N1860 N 0.39065 1.16445 0.56478
 N1861 N 0.36089 1.18772 0.56570
 C1862 C 0.32932 1.18135 0.54666
 H1863 H 0.33201 1.06418 0.46016
 H1864 H 0.27884 1.10769 0.45707
 H1865 H 0.41680 1.11723 0.54371
 H1866 H 0.30877 1.20340 0.54890
 C1867 C -0.16495 0.60503 0.98347
 C1868 C -0.19607 0.62943 0.97868
 C1869 C -0.22657 0.63249 1.00323
 C1870 C -0.22489 0.60615 1.03275
 C1871 C -0.19332 0.58017 1.03662
 C1872 C -0.16228 0.58063 1.01250
 C1873 C -0.19403 0.55404 1.06459
 N1874 N -0.22287 0.55498 1.08858
 N1875 N -0.25092 0.58041 1.08656
 C1876 C -0.25268 0.60592 1.05995
 H1877 H -0.14230 0.60536 0.96377
 H1878 H -0.19544 0.64598 0.95497
 H1879 H -0.17210 0.53267 1.06761
 H1880 H -0.27506 0.62651 1.06154
 C1881 C 0.01277 0.64483 0.60874
 C1882 C 0.01156 0.68111 0.62149
 C1883 C 0.01501 0.71335 0.59923
 C1884 C 0.02998 0.70749 0.56419
 C1885 C 0.03059 0.66989 0.55141
 C1886 C 0.01935 0.63965 0.57361
 C1887 C 0.04391 0.66297 0.51708
 N1888 N 0.05696 0.69209 0.49690
 N1889 N 0.05832 0.72742 0.50901
 C1890 C 0.04608 0.73601 0.54170
 H1891 H 0.00627 0.62090 0.62596
 H1892 H 0.00487 0.68410 0.64892
 H1893 H 0.04532 0.63453 0.50644
 H1894 H 0.05188 0.76462 0.54930
 C1895 C 0.50355 0.16313 0.04949
 C1896 C 0.50112 0.19867 0.06395
 C1897 C 0.50480 0.20431 0.10006
 C1898 C 0.51108 0.17101 0.12183
 C1899 C 0.51162 0.13437 0.10669
 C1900 C 0.50892 0.13106 0.07021
 C1901 C 0.51299 0.10203 0.12876
 N1902 N 0.51610 0.10607 0.16354
 N1903 N 0.51673 0.14033 0.17798
 C1904 C 0.51395 0.17259 0.15861
 H1905 H 0.50177 0.16080 0.02143
 H1906 H 0.49855 0.22182 0.04556
 H1907 H 0.51027 0.07357 0.11916
 H1908 H 0.51136 0.19855 0.17288
 C1909 C 0.00544 0.16851 0.94743
 C1910 C -0.00397 0.20135 0.93033
 C1911 C -0.00444 0.20366 0.89336
 C1912 C 0.00595 0.17003 0.87417
 C1913 C 0.01710 0.13697 0.89224
 C1914 C 0.01511 0.13649 0.92870
 C1915 C 0.02975 0.10484 0.87340
 N1916 N 0.02835 0.10499 0.83834
 N1917 N 0.01624 0.13551 0.82114
 C1918 C 0.00589 0.16797 0.83758
 H1919 H 0.00355 0.16768 0.97566
 H1920 H -0.01032 0.22478 0.94745
 H1921 H 0.04076 0.07970 0.88620
 H1922 H -0.00307 0.19118 0.82164
 C1923 C 0.51468 0.67755 0.44919
 C1924 C 0.50576 0.71013 0.43119
 C1925 C 0.49685 0.70926 0.39527
 C1926 C 0.49918 0.67308 0.37772
 C1927 C 0.51312 0.64127 0.39564
 C1928 C 0.51749 0.64333 0.43179
 C1929 C 0.52158 0.60768 0.37711
 N1930 N 0.51238 0.60491 0.34320
 N1931 N 0.49581 0.63376 0.32672
 C1932 C 0.48897 0.66748 0.34270
 H1933 H 0.51847 0.67894 0.47712
 H1934 H 0.50741 0.73571 0.44636
 H1935 H 0.53559 0.58384 0.38942
 H1936 H 0.47497 0.68900 0.32790
 C1937 C 0.47026 0.81614 0.44748
 C1938 C 0.46894 0.78774 0.42311
 C1939 C 0.49925 0.78223 0.39834
 C1940 C 0.53210 0.80747 0.40004
 C1941 C 0.53594 0.82961 0.42998
 C1942 C 0.50297 0.83845 0.44971
 C1943 C 0.57157 0.84629 0.43718
 N1944 N 0.59944 0.84743 0.41225
 N1945 N 0.59326 0.83324 0.38085
 C1946 C 0.56016 0.81465 0.37353
 H1947 H 0.44480 0.82205 0.46312
 H1948 H 0.44359 0.76979 0.42359
 H1949 H 0.57654 0.85930 0.46205
 H1950 H 0.55652 0.80680 0.34687
 C1951 C 0.01509 0.33058 0.93125
 C1952 C 0.02009 0.29780 0.91256
 C1953 C -0.01136 0.27431 0.90441
 C1954 C -0.04754 0.28214 0.92151
 C1955 C -0.05334 0.31802 0.93696
 C1956 C -0.02139 0.34209 0.94190
 C1957 C -0.09113 0.32888 0.94555
 N1958 N -0.12017 0.30323 0.94369
 N1959 N -0.11393 0.26765 0.93326
 C1960 C -0.07866 0.25617 0.92238
 H1961 H 0.04007 0.34829 0.93575
 H1962 H 0.04880 0.29350 0.90307
 H1963 H -0.09810 0.35761 0.95268
 H1964 H -0.07546 0.22687 0.91461
 C1965 C 0.53252 0.33524 0.06188
 C1966 C 0.53500 0.30209 0.08076
 C1967 C 0.50303 0.27712 0.08580
 C1968 C 0.46925 0.28516 0.06618
 C1969 C 0.46769 0.31915 0.04611
 C1970 C 0.49842 0.34510 0.04673
 C1971 C 0.43574 0.32599 0.02544
 N1972 N 0.40630 0.30063 0.02553
 N1973 N 0.40676 0.26922 0.04517
 C1974 C 0.43690 0.26079 0.06561
 H1975 H 0.55667 0.35491 0.06152
 H1976 H 0.56173 0.29924 0.09402
 H1977 H 0.43433 0.35099 0.00879
 H1978 H 0.43564 0.23428 0.07981
 C1979 C 0.03153 0.84937 0.57853
 C1980 C 0.03469 0.81584 0.59620
 C1981 C 0.00790 0.78577 0.59205
 C1982 C -0.02114 0.79024 0.56610
 C1983 C -0.02495 0.82583 0.54927
 C1984 C 0.00126 0.85486 0.55663
 C1985 C -0.05478 0.83143 0.52562
 N1986 N -0.07876 0.80221 0.51834
 N1987 N -0.07460 0.76801 0.53302
 C1988 C -0.04667 0.76098 0.55632
 H1989 H 0.05185 0.87219 0.58353
 H1990 H 0.05702 0.81597 0.61511
 H1991 H -0.05897 0.85860 0.51268
 H1992 H -0.04449 0.73232 0.56593
 C1993 C 0.28536 0.30242 0.09845
 C1994 C 0.27505 0.32566 0.07060
 C1995 C 0.25116 0.31274 0.04420
 C1996 C 0.22846 0.27379 0.05579
 C1997 C 0.23846 0.25278 0.08474
 C1998 C 0.26775 0.26696 0.10591
 C1999 C 0.21689 0.21935 0.09284
 N2000 N 0.18692 0.20743 0.07288
 N2001 N 0.17517 0.22593 0.04447
 C2002 C 0.19320 0.25841 0.03452
 H2003 H 0.30445 0.31474 0.11738
 H2004 H 0.28591 0.35456 0.07054
 H2005 H 0.22397 0.20224 0.11536
 H2006 H 0.19578 0.31146 -0.01565
 C2007 C 0.78947 0.78873 0.58019
 C2008 C 0.78815 0.80676 0.54766
 C2009 C 0.75310 0.81228 0.52938
 C2010 C 0.72333 0.78578 0.53991
 C2011 C 0.72433 0.76785 0.57365
 C2012 C 0.75679 0.77203 0.59504
 C2013 C 0.69294 0.74541 0.58472
 N2014 N 0.66348 0.73917 0.56293
 N2015 N 0.66313 0.75425 0.53102
 C2016 C 0.69200 0.77698 0.51870
 H2017 H 0.81575 0.79006 0.59479
 H2018 H 0.81514 0.81859 0.53843
 H2019 H 0.69223 0.73178 0.61011
 H2020 H 0.68920 0.78923 0.49306
 C2021 C 0.25654 0.68512 0.59702
 C2022 C 0.26199 0.66858 0.56483
 C2023 C 0.25710 0.68855 0.53333
 C2024 C 0.25151 0.72965 0.53656
 C2025 C 0.24582 0.74666 0.57059
 C2026 C 0.24849 0.72411 0.60137
 C2027 C 0.23912 0.78613 0.57266
 N2028 N 0.23948 0.80794 0.54351
 N2029 N 0.24692 0.79315 0.51241
 C2030 C 0.25348 0.75539 0.50806
 H2031 H 0.25884 0.66614 0.61917
 H2032 H 0.26721 0.63813 0.56479
 H2033 H 0.23394 0.80027 0.59700
 H2034 H 0.26236 0.74721 0.48245
 C2035 C 0.73112 0.23030 0.06550
 C2036 C 0.73472 0.20981 0.03351
 C2037 C 0.76071 0.17838 0.02914
 C2038 C 0.78429 0.17168 0.05900
 C2039 C 0.78881 0.20060 0.08400
 C2040 C 0.75772 0.22504 0.09223
 C2041 C 0.82276 0.20085 0.10298
 N2042 N 0.84459 0.16893 0.10412
 N2043 N 0.83375 0.13727 0.08799
 C2044 C 0.80297 0.13717 0.06688
 H2045 H 0.70718 0.24946 0.06946
 H2046 H 0.71408 0.21641 0.01402
 H2047 H 0.83057 0.22540 0.11829
 H2048 H 0.79326 0.11027 0.05699
 C2049 C 0.72273 0.21628 0.91870
 C2050 C 0.72559 0.19437 0.94970
 C2051 C 0.75940 0.17433 0.95850
 C2052 C 0.78911 0.17542 0.93090
 C2053 C 0.78916 0.20494 0.90519
 C2054 C 0.75465 0.22276 0.89638
 C2055 C 0.82261 0.21142 0.88500
 N2056 N 0.85094 0.18527 0.88489
 N2057 N 0.84705 0.15279 0.90256
 C2058 C 0.81625 0.14620 0.92377
 H2059 H 0.69501 0.22755 0.91169
 H2060 H 0.69978 0.19055 0.96535
 H2061 H 0.82570 0.23619 0.86835
 H2062 H 0.81364 0.11778 0.93395
 C2063 C 0.27719 0.69841 0.40504
 C2064 C 0.27959 0.67991 0.43704
 C2065 C 0.25072 0.68223 0.46366
 C2066 C 0.21646 0.70268 0.45392
 C2067 C 0.21346 0.71966 0.41990
 C2068 C 0.24458 0.71837 0.39581
 C2069 C 0.17924 0.73802 0.41096
 N2070 N 0.15022 0.74083 0.43469
 N2071 N 0.15337 0.72686 0.46678
 C2072 C 0.18535 0.70839 0.47717
 H2073 H 0.30038 0.69479 0.38615
 H2074 H 0.30441 0.66209 0.43919
 H2075 H 0.17554 0.75065 0.38545
 H2076 H 0.18654 0.70026 0.50394
 C2077 C 0.74567 0.76740 0.42486
 C2078 C 0.75345 0.78572 0.45692
 C2079 C 0.74818 0.82578 0.46188
 C2080 C 0.73760 0.84597 0.43094
 C2081 C 0.72149 0.82654 0.40232
 C2082 C 0.72910 0.78734 0.39700
 C2083 C 0.70274 0.84833 0.37690
 N2084 N 0.70748 0.88672 0.37607
 N2085 N 0.73025 0.90399 0.39853
 C2086 C 0.74668 0.88436 0.42490
 H2087 H 0.75369 0.73779 0.42156
 H2088 H 0.76474 0.76814 0.47753
 H2089 H 0.68649 0.83482 0.35660
 H2090 H 0.76835 0.89821 0.43960
 C2091 C 0.27740 0.31158 0.90352
 C2092 C 0.27674 0.32709 0.93693
 C2093 C 0.25037 0.31478 0.96242
 C2094 C 0.22562 0.27752 0.95001
 C2095 C 0.22940 0.26198 0.91721
 C2096 C 0.25243 0.28203 0.89244
 C2097 C 0.20804 0.22822 0.91035
 N2098 N 0.18073 0.21382 0.93296
 N2099 N 0.17189 0.22965 0.96347
 C2100 C 0.19192 0.26038 0.97354
 H2101 H 0.29707 0.32505 0.88500
 H2102 H 0.29591 0.35069 0.94139
 H2103 H 0.21357 0.21170 0.88758
 H2104 H 0.19596 0.31001 1.02535
 C2105 C 0.84923 0.40868 0.78452
 C2106 C 0.87529 0.43902 0.78180
 C2107 C 0.87587 0.46588 0.75359
 C2108 C 0.84507 0.46167 0.72934
 C2109 C 0.81672 0.43224 0.73415
 C2110 C 0.82102 0.40322 0.75993
 C2111 C 0.78392 0.43344 0.71341
 N2112 N 0.78159 0.45895 0.68693
 N2113 N 0.80973 0.48371 0.68000
 C2114 C 0.84122 0.48580 0.70003
 H2115 H 0.85152 0.38897 0.80616
 H2116 H 0.89415 0.44108 0.80345
 H2117 H 0.75951 0.41519 0.71879
 H2118 H 0.86302 0.50595 0.69218
 C2119 C 0.32105 0.92301 0.25525
 C2120 C 0.34463 0.95530 0.24975
 C2121 C 0.38541 0.95339 0.24883
 C2122 C 0.40067 0.91509 0.24575
 C2123 C 0.37600 0.88228 0.24844
 C2124 C 0.33623 0.88615 0.25648
 C2125 C 0.39219 0.84595 0.24305
 N2126 N 0.43033 0.84200 0.23745
 N2127 N 0.45366 0.87200 0.23716
 C2128 C 0.44024 0.90788 0.24155
 H2129 H 0.29025 0.92683 0.25706
 H2130 H 0.32984 0.98195 0.24647
 H2131 H 0.37522 0.82046 0.24396
 H2132 H 0.46108 0.92980 0.24279
 C2133 C 0.13735 0.90552 0.75325
 C2134 C 0.11473 0.93817 0.75406
 C2135 C 0.12520 0.97300 0.73678
 C2136 C 0.15557 0.96890 0.71115
 C2137 C 0.17896 0.93498 0.71018
 C2138 C 0.17052 0.90350 0.73261
 C2139 C 0.21005 0.93370 0.68647
 N2140 N 0.21603 0.96279 0.66355
 N2141 N 0.19309 0.99305 0.66288
 C2142 C 0.16309 0.99680 0.68557
 H2143 H 0.12844 0.88115 0.76903
 H2144 H 0.08882 0.93574 0.76980
 H2145 H 0.22941 0.90970 0.68563
 H2146 H 0.14550 1.02150 0.68335
 C2147 C 0.64351 0.40379 0.26467
 C2148 C 0.62314 0.43762 0.27009
 C2149 C 0.62121 0.46695 0.24468
 C2150 C 0.64377 0.46044 0.21311
 C2151 C 0.66505 0.42553 0.20794
 C2152 C 0.66459 0.39638 0.23385
 C2153 C 0.68719 0.42162 0.17722
 N2154 N 0.68780 0.44971 0.15287
 N2155 N 0.66825 0.48185 0.15731
 C2156 C 0.64668 0.48819 0.18637
 H2157 H 0.64232 0.38260 0.28535
 H2158 H 0.60689 0.43895 0.29418
 H2159 H 0.70456 0.39686 0.17230
 H2160 H 0.63324 0.51559 0.18844
 C2161 C 0.67780 0.57597 0.25482
 C2162 C 0.65600 0.54237 0.25174
 C2163 C 0.61513 0.54208 0.25063
 C2164 C 0.59730 0.57892 0.25603
 C2165 C 0.61997 0.61296 0.26017
 C2166 C 0.66057 0.61161 0.25918
 C2167 C 0.60109 0.64806 0.26461
 N2168 N 0.56234 0.64959 0.26496
 N2169 N 0.54115 0.61835 0.26114
 C2170 C 0.55717 0.58348 0.25700
 H2171 H 0.70881 0.57399 0.25398
 H2172 H 0.67234 0.51635 0.25060
 H2173 H 0.61675 0.67439 0.26775
 H2174 H 0.53812 0.56010 0.25311
 C2175 C 0.18012 0.08906 0.75269
 C2176 C 0.16109 0.05419 0.74818
 C2177 C 0.12054 0.05061 0.74990
 C2178 C 0.09970 0.08596 0.75640
 C2179 C 0.11971 0.12142 0.76054
 C2180 C 0.16008 0.12283 0.75902
 C2181 C 0.09863 0.15559 0.76301
 N2182 N 0.06030 0.15519 0.75885
 N2183 N 0.04143 0.12272 0.75412
 C2184 C 0.05938 0.08852 0.75404
 H2185 H 0.21112 0.08987 0.75001
 H2186 H 0.17923 0.03003 0.74304
 H2187 H 0.11237 0.18292 0.76677
 H2188 H 0.04181 0.06460 0.74857
 C2189 C 0.36899 0.09261 0.22472
 C2190 C 0.39055 0.05878 0.22549
 C2191 C 0.38588 0.02978 0.25170
 C2192 C 0.35710 0.03809 0.27806
 C2193 C 0.33246 0.07079 0.27481
 C2194 C 0.33986 0.09986 0.24922
 C2195 C 0.29967 0.07239 0.29663
 N2196 N 0.29456 0.04698 0.32299
 N2197 N 0.31942 0.01901 0.32836
 C2198 C 0.35016 0.01367 0.30692
 H2199 H 0.37585 0.11380 0.20485
 H2200 H 0.41282 0.05726 0.20573
 H2201 H 0.27704 0.09242 0.29197
 H2202 H 0.36725 -0.01096 0.31194
 C2203 C 0.86637 0.60022 0.71819
 C2204 C 0.88784 0.56666 0.72195
 C2205 C 0.88103 0.53922 0.74918
 C2206 C 0.84776 0.54675 0.77101
 C2207 C 0.82349 0.57877 0.76413
 C2208 C 0.83458 0.60753 0.73955
 C2209 C 0.78788 0.58077 0.78187
 N2210 N 0.77910 0.55574 0.80781
 N2211 N 0.80344 0.52854 0.81700
 C2212 C 0.83730 0.52342 0.79980
 H2213 H 0.87499 0.62082 0.69834
 H2214 H 0.90947 0.56286 0.70209
 H2215 H 0.76654 0.60153 0.77476
 H2216 H 0.85575 0.50161 0.80957
 C2217 C 0.92374 0.72951 0.19450
 C2218 C 0.95897 0.72653 0.17800
 C2219 C 0.97104 0.75390 0.15334
 C2220 C 0.95335 0.79093 0.15651
 C2221 C 0.91561 0.79314 0.17033
 C2222 C 0.90022 0.76094 0.18818
 C2223 C 0.89603 0.82824 0.16776
 N2224 N 0.91496 0.86007 0.15700
 N2225 N 0.95201 0.85911 0.14853
 C2226 C 0.97188 0.82599 0.14869
 H2227 H 0.91399 0.70573 0.21058
 H2228 H 0.97472 0.70089 0.18246
 H2229 H 0.86682 0.83188 0.17611
 H2230 H 1.00160 0.82813 0.14215
 C2231 C 0.38811 0.23748 0.64442
 C2232 C 0.42328 0.23035 0.62979
 C2233 C 0.45435 0.25607 0.63347
 C2234 C 0.44581 0.29364 0.64685
 C2235 C 0.40836 0.30152 0.65929
 C2236 C 0.38129 0.27176 0.66078
 C2237 C 0.39953 0.33847 0.67085
 N2238 N 0.42721 0.36564 0.67142
 N2239 N 0.46314 0.35800 0.66171
 C2240 C 0.47344 0.32306 0.64993
 H2241 H 0.36622 0.21538 0.64390
 H2242 H 0.42542 0.20329 0.61688
 H2243 H 0.37091 0.34611 0.67923
 H2244 H 0.50333 0.31867 0.64414
 C2245 C 0.42611 0.74251 0.80380
 C2246 C 0.46011 0.73828 0.82067
 C2247 C 0.46294 0.74446 0.85691
 C2248 C 0.42884 0.75646 0.87584
 C2249 C 0.39399 0.75967 0.85816
 C2250 C 0.39326 0.75221 0.82229
 C2251 C 0.36082 0.77139 0.87663
 N2252 N 0.36249 0.77954 0.91089
 N2253 N 0.39528 0.77738 0.92776
 C2254 C 0.42825 0.76659 0.91153
 H2255 H 0.42511 0.73663 0.77614
 H2256 H 0.48358 0.72803 0.80470
 H2257 H 0.33373 0.77486 0.86406
 H2258 H 0.45344 0.76791 0.92681
 C2259 C 0.89784 0.24938 0.34338
 C2260 C 0.92949 0.24880 0.36388
 C2261 C 0.96591 0.25993 0.35085
 C2262 C 0.96693 0.28021 0.31823
 C2263 C 0.93529 0.27746 0.29571
 C2264 C 0.90051 0.26109 0.30861
 C2265 C 0.94053 0.28990 0.26094
 N2266 N 0.97327 0.30802 0.25079
 N2267 N 1.00161 0.31360 0.27281
 C2268 C 0.99946 0.30022 0.30593
 H2269 H 0.87094 0.23972 0.35508
 H2270 H 0.92487 0.23859 0.39024
 H2271 H 0.91996 0.28455 0.24126
 H2272 H 1.02360 0.30433 0.32175
 C2273 C 0.10296 0.21978 0.35124
 C2274 C 0.06891 0.22342 0.36994
 C2275 C 0.03465 0.23187 0.35235
 C2276 C 0.03365 0.22120 0.31643
 C2277 C 0.06815 0.22296 0.29707
 C2278 C 0.10283 0.22489 0.31519
 C2279 C 0.06647 0.22296 0.26049
 N2280 N 0.03307 0.21437 0.24486
 N2281 N 0.00143 0.20663 0.26350
 C2282 C 0.00076 0.20912 0.29871
 H2283 H 0.12971 0.21788 0.36511
 H2284 H 0.07091 0.22575 0.39781
 H2285 H 0.09113 0.22933 0.24419
 H2286 H -0.02587 0.20282 0.31194
 C2287 C 0.57891 0.76356 0.81125
 C2288 C 0.54346 0.75786 0.82607
 C2289 C 0.53564 0.72784 0.85030
 C2290 C 0.56489 0.69900 0.85455
 C2291 C 0.60173 0.70594 0.83945
 C2292 C 0.60821 0.73899 0.81899
 C2293 C 0.63172 0.68000 0.84571
 N2294 N 0.62520 0.64817 0.86491
 N2295 N 0.59066 0.64058 0.87831
 C2296 C 0.56067 0.66446 0.87384
 H2297 H 0.58363 0.78778 0.79389
 H2298 H 0.52269 0.77990 0.82082
 H2299 H 0.66041 0.68475 0.83578
 H2300 H 0.53481 0.65486 0.88561
 C2301 C 0.59143 0.22408 0.65782
 C2302 C 0.55846 0.22022 0.63965
 C2303 C 0.52539 0.24149 0.64784
 C2304 C 0.52398 0.25727 0.68223
 C2305 C 0.55903 0.26677 0.69826
 C2306 C 0.59365 0.24974 0.68530
 C2307 C 0.55693 0.29135 0.72725
 N2308 N 0.52277 0.29815 0.74329
 N2309 N 0.49061 0.28233 0.73221
 C2310 C 0.49023 0.26134 0.70280
 H2311 H 0.61591 0.20780 0.64858
 H2312 H 0.56041 0.20172 0.61732
 H2313 H 0.58117 0.30584 0.73756
 H2314 H 0.46350 0.24796 0.69658
 C2315 C 0.09511 0.76590 0.16758
 C2316 C 0.05671 0.76658 0.16119
 C2317 C 0.03864 0.73472 0.14743
 C2318 C 0.05656 0.69812 0.15413
 C2319 C 0.09641 0.69720 0.15998
 C2320 C 0.11551 0.73172 0.16647
 C2321 C 0.11522 0.66170 0.16111
 N2322 N 0.09465 0.62893 0.16035
 N2323 N 0.05664 0.62945 0.15884
 C2324 C 0.03697 0.66263 0.15646
 H2325 H 0.10873 0.79236 0.17504
 H2326 H 0.04276 0.79356 0.16343
 H2327 H 0.14586 0.65940 0.16310
 H2328 H 0.00648 0.66005 0.15562
   
