data_POSCAR
  _audit_creation_date              2014-09-24
  _audit_creation_method            'ToBaCCo'
  _symmetry_space_group_name_H-M    'P1'
  _symmetry_Int_Tables_number       1
  _symmetry_cell_setting            triclinic
  loop_
  _symmetry_equiv_pos_as_xyz
 x,y,z
_cell_length_a 50.9699
_cell_length_b 50.9873
_cell_length_c 51.0536
_cell_angle_alpha 89.276000
_cell_angle_beta 88.909800
_cell_angle_gamma 88.900200
loop_
  _atom_site_label
  _atom_site_type_symbol
  _atom_site_fract_x
  _atom_site_fract_y
  _atom_site_fract_z
C1 C 0.74630 0.61155 1.03461
 C2 C 0.75945 0.62367 1.01359
 C3 C 0.78357 0.63559 1.01750
 C4 C 0.79463 0.63610 1.04263
 C5 C 0.78117 0.62317 1.06342
 C6 C 0.75700 0.61071 1.05983
 C7 C 0.74756 0.62393 0.98744
 C8 C 0.72230 0.63469 0.98400
 C9 C 0.71027 0.63379 0.95953
 C10 C 0.72378 0.62169 0.93852
 C11 C 0.74903 0.61069 0.94173
 C12 C 0.76091 0.61219 0.96626
 H13 H 0.72729 0.60334 1.03103
 H14 H 0.79267 0.64569 1.00103
 H15 H 0.71193 0.64349 1.00050
 H16 H 0.78040 0.60387 0.96904
 H17 H 0.79067 0.62092 1.08205
 H18 H 0.71453 0.62070 0.91964
 C19 C 0.74209 0.39207 0.46684
 C20 C 0.75533 0.38026 0.48784
 C21 C 0.78016 0.36853 0.48358
 C22 C 0.79163 0.36817 0.45833
 C23 C 0.77828 0.38052 0.43756
 C24 C 0.75354 0.39256 0.44163
 C25 C 0.74304 0.38007 0.51424
 C26 C 0.71844 0.36870 0.51845
 C27 C 0.70673 0.36825 0.54358
 C28 C 0.71965 0.38009 0.56433
 C29 C 0.74416 0.39180 0.56032
 C30 C 0.75586 0.39139 0.53520
 H31 H 0.72282 0.40088 0.47022
 H32 H 0.79004 0.35890 0.49976
 H33 H 0.70888 0.35948 0.50227
 H34 H 0.77494 0.39998 0.53185
 H35 H 0.78740 0.38114 0.41823
 H36 H 0.71033 0.38068 0.58357
 C37 C 0.24323 -0.10794 -0.03415
 C38 C 0.25602 -0.11987 -0.01301
 C39 C 0.28140 -0.13054 -0.01661
 C40 C 0.29430 -0.12968 -0.04137
 C41 C 0.28096 -0.11718 -0.06230
 C42 C 0.25561 -0.10629 -0.05883
 C43 C 0.24300 -0.12056 0.01311
 C44 C 0.21784 -0.13099 0.01633
 C45 C 0.20486 -0.13122 0.04105
 C46 C 0.21789 -0.12010 0.06237
 C47 C 0.24301 -0.10949 0.05930
 C48 C 0.25548 -0.11002 0.03461
 H49 H 0.22360 -0.09981 -0.03129
 H50 H 0.29109 -0.13886 0.00032
 H51 H 0.20836 -0.13822 -0.00085
 H52 H 0.27464 -0.10143 0.03187
 H53 H 0.28971 -0.11646 -0.08174
 H54 H 0.20937 -0.12088 0.08192
 C55 C 0.24644 0.11018 0.53411
 C56 C 0.25896 0.12244 0.51273
 C57 C 0.28289 0.13497 0.51621
 C58 C 0.29403 0.13579 0.54115
 C59 C 0.28139 0.12308 0.56236
 C60 C 0.25767 0.11008 0.55898
 C61 C 0.24674 0.12215 0.48679
 C62 C 0.22132 0.13256 0.48359
 C63 C 0.20904 0.13139 0.45928
 C64 C 0.22240 0.11923 0.43823
 C65 C 0.24779 0.10848 0.44122
 C66 C 0.25997 0.11037 0.46557
 H67 H 0.22788 0.10067 0.53129
 H68 H 0.29230 0.14479 0.49971
 H69 H 0.21107 0.14142 0.50015
 H70 H 0.27934 0.10177 0.46837
 H71 H 0.29034 0.12284 0.58144
 H72 H 0.21326 0.11864 0.41927
 C73 C 0.11369 0.53280 0.24584
 C74 C 0.12559 0.51165 0.25911
 C75 C 0.13754 0.51567 0.28315
 C76 C 0.13814 0.54087 0.29377
 C77 C 0.12582 0.56190 0.28045
 C78 C 0.11319 0.55828 0.25638
 C79 C 0.12571 0.48532 0.24748
 C80 C 0.13720 0.48123 0.22265
 C81 C 0.13712 0.45631 0.21127
 C82 C 0.12476 0.43564 0.22480
 C83 C 0.11288 0.43954 0.24956
 C84 C 0.11378 0.46445 0.26091
 H85 H 0.10548 0.52911 0.22688
 H86 H 0.14711 0.49931 0.29309
 H87 H 0.14672 0.49736 0.21252
 H88 H 0.10497 0.46774 0.28011
 H89 H 0.12508 0.58080 0.28983
 H90 H 0.12374 0.41662 0.21569
 C91 C -0.10683 -0.03327 0.24159
 C92 C -0.11832 -0.01193 0.25471
 C93 C -0.12903 -0.01547 0.28001
 C94 C -0.12864 -0.04038 0.29250
 C95 C -0.11653 -0.06151 0.27886
 C96 C -0.10560 -0.05810 0.25359
 C97 C -0.11840 0.01432 0.24212
 C98 C -0.12979 0.01827 0.21754
 C99 C -0.13026 0.04332 0.20531
 C100 C -0.11796 0.06402 0.21826
 C101 C -0.10630 0.06019 0.24276
 C102 C -0.10691 0.03531 0.25468
 H103 H -0.09811 -0.03026 0.22228
 H104 H -0.13701 0.00160 0.28995
 H105 H -0.13949 0.00187 0.20895
 H106 H -0.09826 0.03215 0.27371
 H107 H -0.11681 -0.08119 0.28699
 H108 H -0.11611 0.08304 0.20888
 C109 C 0.39326 0.46755 0.74252
 C110 C 0.38180 0.48886 0.75571
 C111 C 0.37123 0.48528 0.78105
 C112 C 0.37169 0.46037 0.79353
 C113 C 0.38380 0.43927 0.77984
 C114 C 0.39462 0.44271 0.75453
 C115 C 0.38145 0.51513 0.74317
 C116 C 0.37004 0.51904 0.71860
 C117 C 0.36935 0.54410 0.70681
 C118 C 0.38101 0.56506 0.71961
 C119 C 0.39272 0.56134 0.74410
 C120 C 0.39263 0.53630 0.75584
 H121 H 0.40187 0.47058 0.72317
 H122 H 0.36326 0.50234 0.79103
 H123 H 0.36091 0.50274 0.70915
 H124 H 0.40187 0.53304 0.77457
 H125 H 0.38361 0.41960 0.78798
 H126 H 0.38076 0.58441 0.71058
 C127 C 0.61518 1.03278 0.74468
 C128 C 0.62714 1.01181 0.75805
 C129 C 0.63871 1.01596 0.78234
 C130 C 0.63897 1.04126 0.79336
 C131 C 0.62621 1.06197 0.77961
 C132 C 0.61427 1.05789 0.75548
 C133 C 0.62739 0.98544 0.74648
 C134 C 0.63870 0.98132 0.72156
 C135 C 0.63860 0.95637 0.71024
 C136 C 0.62635 0.93570 0.72391
 C137 C 0.61463 0.93964 0.74872
 C138 C 0.61558 0.96456 0.76002
 H139 H 0.60638 1.02943 0.72588
 H140 H 0.64869 0.99951 0.79164
 H141 H 0.64808 0.99746 0.71131
 H142 H 0.60686 0.96788 0.77925
 H143 H 0.62415 1.08121 0.78816
 H144 H 0.62527 0.91667 0.71484
 C145 C -0.03447 0.24229 -0.10772
 C146 C -0.01374 0.25582 -0.11962
 C147 C -0.01830 0.28080 -0.13066
 C148 C -0.04370 0.29248 -0.13038
 C149 C -0.06415 0.27852 -0.11767
 C150 C -0.05970 0.25361 -0.10635
 C151 C 0.01286 0.24378 -0.12040
 C152 C 0.01713 0.21891 -0.13136
 C153 C 0.04252 0.20725 -0.13254
 C154 C 0.06327 0.22106 -0.12133
 C155 C 0.05912 0.24582 -0.11006
 C156 C 0.03389 0.25718 -0.11002
 H157 H -0.03070 0.22321 -0.09882
 H158 H -0.00206 0.29015 -0.14073
 H159 H 0.00064 0.20964 -0.14023
 H160 H 0.03036 0.27615 -0.10113
 H161 H -0.08367 0.28706 -0.11592
 H162 H 0.08280 0.21248 -0.12065
 C163 C 0.53122 0.24567 0.11248
 C164 C 0.50966 0.25899 0.12383
 C165 C 0.51296 0.28393 0.13446
 C166 C 0.53775 0.29554 0.13397
 C167 C 0.55914 0.28203 0.12223
 C168 C 0.55602 0.25717 0.11127
 C169 C 0.48354 0.24706 0.12384
 C170 C 0.47964 0.22234 0.13552
 C171 C 0.45486 0.21079 0.13526
 C172 C 0.43418 0.22395 0.12242
 C173 C 0.43794 0.24852 0.11031
 C174 C 0.46265 0.26010 0.11145
 H175 H 0.52854 0.22639 0.10435
 H176 H 0.49620 0.29426 0.14307
 H177 H 0.49576 0.21248 0.14537
 H178 H 0.46599 0.27887 0.10189
 H179 H 0.57828 0.29092 0.12159
 H180 H 0.41509 0.21502 0.12186
 C181 C 1.03045 0.74700 0.61385
 C182 C 1.00911 0.76058 0.62515
 C183 C 1.01255 0.78570 0.63532
 C184 C 1.03741 0.79755 0.63448
 C185 C 1.05856 0.78343 0.62262
 C186 C 1.05523 0.75836 0.61225
 C187 C 0.98294 0.74869 0.62544
 C188 C 0.97916 0.72404 0.63729
 C189 C 0.95447 0.71232 0.63709
 C190 C 0.93372 0.72529 0.62419
 C191 C 0.93734 0.74980 0.61190
 C192 C 0.96199 0.76153 0.61296
 H193 H 1.02749 0.72786 0.60551
 H194 H 0.99549 0.79604 0.64320
 H195 H 0.99536 0.71431 0.64716
 H196 H 0.96524 0.78023 0.60321
 H197 H 1.07821 0.79106 0.62263
 H198 H 0.91469 0.71622 0.62366
 C199 C 0.46486 0.74280 0.39362
 C200 C 0.48569 0.75576 0.38109
 C201 C 0.48133 0.78061 0.36968
 C202 C 0.45616 0.79237 0.37031
 C203 C 0.43556 0.77926 0.38333
 C204 C 0.43973 0.75448 0.39504
 C205 C 0.51198 0.74312 0.37980
 C206 C 0.51522 0.71785 0.36951
 C207 C 0.54010 0.70553 0.36849
 C208 C 0.56171 0.71867 0.37846
 C209 C 0.55870 0.74389 0.38904
 C210 C 0.53375 0.75608 0.38934
 H211 H 0.46845 0.72381 0.40279
 H212 H 0.49735 0.79026 0.35944
 H213 H 0.49831 0.70784 0.36226
 H214 H 0.53101 0.77534 0.39782
 H215 H 0.41613 0.78822 0.38406
 H216 H 0.58106 0.70956 0.37732
 C217 C 0.40945 -0.02343 0.28174
 H218 H 0.41034 -0.00347 0.28857
 C219 C 0.42212 -0.04374 0.29559
 H220 H 0.43296 -0.03941 0.31301
 C221 C 0.39259 -0.05390 0.25196
 H222 H 0.38030 -0.05808 0.23562
 C223 C 0.40501 -0.07465 0.26509
 H224 H 0.40241 -0.09455 0.25856
 N225 N 0.39472 -0.02888 0.26057
 C226 C 0.37777 0.04130 0.21374
 H227 H 0.35695 0.03820 0.21194
 C228 C 0.38922 0.06287 0.20148
 H229 H 0.37720 0.07642 0.19015
 C230 C 0.41866 0.02781 0.23141
 H231 H 0.42991 0.01416 0.24330
 C232 C 0.43096 0.04935 0.21946
 H233 H 0.45171 0.05234 0.22218
 Zn234 Zn 0.37305 -0.00216 0.24572
 N235 N 0.39241 0.02452 0.22866
 C236 C 0.35401 0.03913 0.27766
 N237 N 0.35270 0.01290 0.27331
 C238 C 0.33821 -0.00297 0.28935
 C239 C 0.32401 0.00756 0.31058
 C240 C 0.34014 0.05041 0.29860
 C241 C 0.36348 -0.02520 0.19781
 C242 C 0.34907 -0.03657 0.17813
 C243 C 0.30968 -0.02984 0.20450
 C244 C 0.32486 -0.01855 0.22375
 N245 N 0.35133 -0.01682 0.22023
 H246 H 0.36609 0.05137 0.26518
 H247 H 0.33791 -0.02382 0.28575
 H248 H 0.31258 -0.00517 0.32332
 H249 H 0.34140 0.07129 0.30196
 H250 H 0.38450 -0.02326 0.19541
 H251 H 0.35898 -0.04346 0.16049
 H252 H 0.28867 -0.03142 0.20749
 H253 H 0.31550 -0.01132 0.24146
 C254 C 0.41595 0.06716 0.20459
 C255 C 0.41950 -0.06963 0.28737
 C256 C 0.32196 -0.03905 0.18157
 C257 C 0.32505 0.03450 0.31522
 C258 C 0.08755 1.02218 0.78484
 H259 H 0.08586 1.00224 0.79210
 C260 C 0.07479 1.04277 0.79818
 H261 H 0.06314 1.03869 0.81567
 C262 C 0.10632 1.05225 0.75437
 H263 H 0.11935 1.05614 0.73796
 C264 C 0.09386 1.07326 0.76697
 H265 H 0.09719 1.09309 0.75997
 N266 N 0.10323 1.02729 0.76356
 C267 C 0.11926 0.95583 0.71953
 H268 H 0.14040 0.95730 0.71857
 C269 C 0.10709 0.93548 0.70686
 H270 H 0.11889 0.92118 0.69613
 C271 C 0.07809 0.97276 0.73468
 H272 H 0.06698 0.98747 0.74546
 C273 C 0.06505 0.95256 0.72222
 H274 H 0.04386 0.95162 0.72348
 Zn275 Zn 0.12456 1.00004 0.74908
 N276 N 0.10477 0.97380 0.73329
 C277 C 0.14325 0.95889 0.78205
 N278 N 0.14458 0.98504 0.77654
 C279 C 0.15944 1.00108 0.79107
 C280 C 0.17427 0.99080 0.81167
 C281 C 0.15775 0.94784 0.80246
 C282 C 0.13497 1.02283 0.70027
 C283 C 0.14980 1.03395 0.67991
 C284 C 0.18887 1.02597 0.70513
 C285 C 0.17329 1.01497 0.72507
 N286 N 0.14678 1.01403 0.72247
 H287 H 0.13085 0.94655 0.77079
 H288 H 0.15977 1.02187 0.78658
 H289 H 0.18615 1.00366 0.82307
 H290 H 0.15664 0.92700 0.80665
 H291 H 0.11391 1.02150 0.69860
 H292 H 0.14017 1.04126 0.66247
 H293 H 0.20991 1.02699 0.70742
 H294 H 0.18239 1.00735 0.74258
 C295 C 0.07979 0.93373 0.70826
 C296 C 0.07834 1.06857 0.78931
 C297 C 0.17695 1.03571 0.68246
 C298 C 0.17346 0.96391 0.81733
 C299 C 0.58727 0.52071 0.28462
 H300 H 0.58566 0.50062 0.29142
 C301 C 0.57437 0.54093 0.29836
 H302 H 0.56262 0.53641 0.31567
 C303 C 0.60599 0.55153 0.25489
 H304 H 0.61906 0.55583 0.23860
 C305 C 0.59341 0.57221 0.26793
 H306 H 0.59662 0.59220 0.26137
 N307 N 0.60296 0.52636 0.26349
 C308 C 0.61954 0.45545 0.21867
 H309 H 0.64065 0.45720 0.21761
 C310 C 0.60757 0.43495 0.20603
 H311 H 0.61949 0.42082 0.19520
 C312 C 0.57825 0.47178 0.23415
 H313 H 0.56700 0.48628 0.24506
 C314 C 0.56542 0.45142 0.22173
 H315 H 0.54425 0.45016 0.22316
 Zn316 Zn 0.62445 0.49948 0.24861
 N317 N 0.60489 0.47317 0.23259
 C318 C 0.64319 0.45824 0.28137
 N319 N 0.64456 0.48439 0.27592
 C320 C 0.65928 0.50042 0.29062
 C321 C 0.67380 0.49012 0.31143
 C322 C 0.65739 0.44718 0.30197
 C323 C 0.63444 0.52301 0.20012
 C324 C 0.64909 0.53438 0.17977
 C325 C 0.68839 0.52618 0.20460
 C326 C 0.67298 0.51494 0.22454
 N327 N 0.64646 0.51395 0.22211
 H328 H 0.63088 0.44591 0.26997
 H329 H 0.65962 0.52121 0.28618
 H330 H 0.68551 0.50297 0.32302
 H331 H 0.65618 0.42635 0.30616
 H332 H 0.61337 0.52165 0.19859
 H333 H 0.63931 0.54185 0.16247
 H334 H 0.70945 0.52720 0.20673
 H335 H 0.68222 0.50713 0.24190
 C336 C 0.58031 0.43280 0.20764
 C337 C 0.57782 0.56694 0.29010
 C338 C 0.67627 0.53614 0.18211
 C339 C 0.67284 0.46325 0.31710
 C340 C 0.91048 0.47711 0.78313
 H341 H 0.91143 0.49704 0.79003
 C342 C 0.92298 0.45669 0.79697
 H343 H 0.93376 0.46090 0.81446
 C344 C 0.89360 0.44682 0.75317
 H345 H 0.88136 0.44276 0.73677
 C346 C 0.90585 0.42597 0.76629
 H347 H 0.90317 0.40610 0.75969
 N348 N 0.89581 0.47180 0.76187
 C349 C 0.87903 0.54197 0.71500
 H350 H 0.85826 0.53870 0.71301
 C351 C 0.89039 0.56365 0.70284
 H352 H 0.87834 0.57707 0.69138
 C353 C 0.91986 0.52889 0.73308
 H354 H 0.93110 0.51538 0.74512
 C355 C 0.93206 0.55057 0.72125
 H356 H 0.95273 0.55378 0.72419
 Zn357 Zn 0.87426 0.49864 0.74702
 N358 N 0.89368 0.52535 0.73007
 C359 C 0.85528 0.53997 0.77889
 N360 N 0.85385 0.51375 0.77455
 C361 C 0.83917 0.49799 0.79052
 C362 C 0.82489 0.50863 0.81166
 C363 C 0.84135 0.55136 0.79972
 C364 C 0.86487 0.47585 0.69897
 C365 C 0.85051 0.46480 0.67907
 C366 C 0.81100 0.47159 0.70524
 C367 C 0.82613 0.48255 0.72471
 N368 N 0.85262 0.48413 0.72138
 H369 H 0.86750 0.55213 0.76646
 H370 H 0.83875 0.47713 0.78695
 H371 H 0.81330 0.49600 0.82435
 H372 H 0.84270 0.57224 0.80304
 H373 H 0.88591 0.47767 0.69672
 H374 H 0.86048 0.45803 0.66141
 H375 H 0.78995 0.47016 0.70805
 H376 H 0.81671 0.48971 0.74242
 C377 C 0.91702 0.56821 0.70622
 C378 C 0.92026 0.43084 0.78866
 C379 C 0.82336 0.46253 0.68229
 C380 C 0.82606 0.53558 0.81626
 C381 C 0.28342 0.41150 -0.02358
 H382 H 0.28971 0.41222 -0.00348
 C383 C 0.29782 0.42434 -0.04337
 H384 H 0.31511 0.43517 -0.03850
 C385 C 0.25440 0.39500 -0.05490
 H386 H 0.23812 0.38281 -0.05959
 C387 C 0.26812 0.40757 -0.07516
 H388 H 0.26208 0.40522 -0.09522
 N389 N 0.26232 0.39693 -0.02969
 C390 C 0.21361 0.38031 0.03941
 H391 H 0.21131 0.35963 0.03577
 C392 C 0.20131 0.39165 0.06116
 H393 H 0.18944 0.37969 0.07427
 C394 C 0.23267 0.42089 0.02723
 H395 H 0.24514 0.43204 0.01405
 C396 C 0.22072 0.43305 0.04898
 H397 H 0.22401 0.45360 0.05259
 Zn398 Zn 0.24648 0.37539 -0.00353
 N399 N 0.22925 0.39483 0.02322
 C400 C 0.27723 0.35555 0.03792
 N401 N 0.27337 0.35437 0.01165
 C402 C 0.28942 0.33953 -0.00409
 C403 C 0.31018 0.32487 0.00662
 C404 C 0.29767 0.34123 0.04937
 C405 C 0.19882 0.36710 -0.02744
 C406 C 0.17879 0.35315 -0.03878
 C407 C 0.20390 0.31309 -0.03152
 C408 C 0.22352 0.32783 -0.02028
 N409 N 0.22076 0.35438 -0.01875
 H410 H 0.26475 0.36789 0.05007
 H411 H 0.28623 0.33931 -0.02497
 H412 H 0.32297 0.31320 -0.00600
 H413 H 0.30065 0.34243 0.07028
 H414 H 0.19701 0.38818 -0.02563
 H415 H 0.16148 0.36347 -0.04581
 H416 H 0.20624 0.29199 -0.03284
 H417 H 0.24084 0.31804 -0.01279
 C418 C 0.20514 0.41813 0.06623
 C419 C 0.29025 0.42201 -0.06944
 C420 C 0.18140 0.32592 -0.04092
 C421 C 0.31431 0.32581 0.03361
 C422 C 0.78428 0.08706 1.02244
 H423 H 0.79170 0.08602 1.00248
 C424 C 0.79800 0.07442 1.04265
 H425 H 0.81593 0.06348 1.03825
 C426 C 0.75307 0.10428 1.05302
 H427 H 0.73622 0.11672 1.05728
 C428 C 0.76604 0.09189 1.07367
 H429 H 0.75889 0.09468 1.09359
 N430 N 0.76248 0.10198 1.02800
 C431 C 0.71780 0.11926 0.95767
 H432 H 0.71588 0.14021 0.96043
 C433 C 0.70600 0.10772 0.93645
 H434 H 0.69495 0.11983 0.92280
 C435 C 0.73495 0.07800 0.97190
 H436 H 0.74635 0.06662 0.98579
 C437 C 0.72344 0.06560 0.95073
 H438 H 0.72602 0.04464 0.94824
 Zn439 Zn 0.74781 0.12372 1.00144
 N440 N 0.73220 0.10445 0.97467
 C441 C 0.78067 0.14299 0.96053
 N442 N 0.77527 0.14403 0.98672
 C443 C 0.79007 0.15849 1.00288
 C444 C 0.81094 0.17308 0.99270
 C445 C 0.80132 0.15726 0.94958
 C446 C 0.69878 0.13362 1.02460
 C447 C 0.67828 0.14823 1.03604
 C448 C 0.70361 0.18740 1.02919
 C449 C 0.72369 0.17203 1.01785
 N450 N 0.72108 0.14559 1.01616
 H451 H 0.76919 0.13091 0.94806
 H452 H 0.78567 0.15858 1.02370
 H453 H 0.82263 0.18457 1.00565
 H454 H 0.80546 0.15630 0.92871
 H455 H 0.69710 0.11262 1.02268
 H456 H 0.66072 0.13849 1.04299
 H457 H 0.70589 0.20840 1.03074
 H458 H 0.74130 0.18126 1.01053
 C459 C 0.70899 0.08073 0.93277
 C460 C 0.78897 0.07727 1.06855
 C461 C 0.68080 0.17533 1.03850
 C462 C 0.81656 0.17244 0.96578
 C463 C 0.28359 0.58845 0.52329
 H464 H 0.29109 0.58748 0.50335
 C465 C 0.29732 0.57587 0.54354
 H466 H 0.31532 0.56502 0.53918
 C467 C 0.25217 0.60543 0.55378
 H468 H 0.23522 0.61775 0.55800
 C469 C 0.26514 0.59310 0.57446
 H470 H 0.25788 0.59579 0.59436
 N471 N 0.26167 0.60322 0.52879
 C472 C 0.21708 0.62015 0.45830
 H473 H 0.21500 0.64110 0.46104
 C474 C 0.20543 0.60850 0.43706
 H475 H 0.19432 0.62051 0.42337
 C476 C 0.23449 0.57903 0.47262
 H477 H 0.24592 0.56775 0.48656
 C478 C 0.22313 0.56653 0.45144
 H479 H 0.22587 0.54558 0.44899
 Zn480 Zn 0.24688 0.62485 0.50220
 N481 N 0.23154 0.60547 0.47536
 C482 C 0.27963 0.64458 0.46145
 N483 N 0.27416 0.64547 0.48763
 C484 C 0.28875 0.66002 0.50389
 C485 C 0.30952 0.67485 0.49383
 C486 C 0.30017 0.65908 0.45062
 C487 C 0.19769 0.63421 0.52524
 C488 C 0.17705 0.64860 0.53669
 C489 C 0.20201 0.68803 0.52993
 C490 C 0.22224 0.67288 0.51858
 N491 N 0.21989 0.64641 0.51685
 H492 H 0.26832 0.63243 0.44890
 H493 H 0.28429 0.66000 0.52470
 H494 H 0.32106 0.68638 0.50687
 H495 H 0.30441 0.65821 0.42976
 H496 H 0.19623 0.61319 0.52329
 H497 H 0.15960 0.63868 0.54364
 H498 H 0.20408 0.70905 0.53154
 H499 H 0.23976 0.68229 0.51130
 C500 C 0.20862 0.58153 0.43343
 C501 C 0.28816 0.57861 0.56940
 C502 C 0.17932 0.67572 0.53921
 C503 C 0.31522 0.67435 0.46693
 C504 C 0.78282 0.91013 0.47505
 H505 H 0.78904 0.91091 0.49516
 C506 C 0.79717 0.92308 0.45530
 H507 H 0.81435 0.93404 0.46021
 C508 C 0.75400 0.89341 0.44366
 H509 H 0.73781 0.88113 0.43894
 C510 C 0.76767 0.90609 0.42343
 H511 H 0.76170 0.90370 0.40336
 N512 N 0.76183 0.89543 0.46890
 C513 C 0.71243 0.87930 0.53766
 H514 H 0.70992 0.85865 0.53406
 C515 C 0.70022 0.89081 0.55938
 H516 H 0.68817 0.87901 0.57248
 C517 C 0.73209 0.91960 0.52555
 H518 H 0.74481 0.93057 0.51246
 C519 C 0.72025 0.93192 0.54727
 H520 H 0.72386 0.95241 0.55091
 Zn521 Zn 0.74591 0.87396 0.49510
 N522 N 0.72836 0.89359 0.52154
 C523 C 0.77628 0.85466 0.53706
 N524 N 0.77282 0.85330 0.51074
 C525 C 0.78926 0.83856 0.49530
 C526 C 0.81004 0.82421 0.50637
 C527 C 0.79673 0.84066 0.54887
 C528 C 0.69854 0.86498 0.47083
 C529 C 0.67886 0.85074 0.45923
 C530 C 0.70441 0.81103 0.46681
 C531 C 0.72367 0.82605 0.47829
 N532 N 0.72054 0.85257 0.47978
 H533 H 0.76348 0.86691 0.54898
 H534 H 0.78638 0.83818 0.47437
 H535 H 0.82314 0.81262 0.49399
 H536 H 0.79939 0.84201 0.56982
 H537 H 0.69642 0.88605 0.47258
 H538 H 0.66151 0.86083 0.45198
 H539 H 0.70705 0.78995 0.46552
 H540 H 0.74104 0.81650 0.48596
 C541 C 0.70444 0.91722 0.56448
 C542 C 0.78967 0.92072 0.42921
 C543 C 0.68187 0.82355 0.45710
 C544 C 0.81378 0.82536 0.53342
 C545 C -0.02247 0.28161 0.41121
 H546 H -0.00256 0.28826 0.41295
 C547 C -0.04313 0.29505 0.42404
 H548 H -0.03912 0.31198 0.43581
 C549 C -0.05243 0.25264 0.39230
 H550 H -0.05626 0.23678 0.37922
 C551 C -0.07351 0.26537 0.40483
 H552 H -0.09332 0.25900 0.40149
 N553 N -0.02750 0.26101 0.39546
 C554 C 0.04374 0.21484 0.37939
 H555 H 0.04174 0.21406 0.35836
 C556 C 0.06464 0.20177 0.39130
 H557 H 0.07879 0.19085 0.37943
 C558 C 0.02787 0.23037 0.42047
 H559 H 0.01347 0.24160 0.43164
 C560 C 0.04867 0.21754 0.43325
 H561 H 0.05034 0.21893 0.45430
 Zn562 Zn -0.00017 0.24636 0.37421
 N563 N 0.02609 0.22905 0.39394
 C564 C 0.04124 0.27866 0.35678
 N565 N 0.01516 0.27406 0.35453
 C566 C -0.00038 0.28980 0.33936
 C567 C 0.01039 0.31085 0.32530
 C568 C 0.05275 0.29943 0.34309
 C569 C -0.02265 0.19849 0.36390
 C570 C -0.03343 0.17865 0.34920
 C571 C -0.02573 0.20475 0.31004
 C572 C -0.01505 0.22416 0.32551
 N573 N -0.01408 0.22084 0.35198
 H574 H 0.05319 0.26646 0.36943
 H575 H -0.02114 0.28604 0.33831
 H576 H -0.00205 0.32329 0.31323
 H577 H 0.07353 0.30291 0.34502
 H578 H -0.02131 0.19624 0.38493
 H579 H -0.04047 0.16105 0.35891
 H580 H -0.02671 0.20756 0.28902
 H581 H -0.00765 0.24181 0.31636
 C582 C 0.06728 0.20326 0.41841
 C583 C -0.06891 0.28700 0.42048
 C584 C -0.03512 0.18187 0.32207
 C585 C 0.03722 0.31565 0.32720
 C586 C 1.02197 0.78392 0.08748
 H587 H 1.00181 0.79083 0.08645
 C588 C 1.04189 0.79786 0.07457
 H589 H 1.03706 0.81544 0.06339
 C590 C 1.05329 0.75376 0.10487
 H591 H 1.05791 0.73723 0.11744
 C592 C 1.07368 0.76700 0.09223
 H593 H 1.09378 0.76036 0.09494
 N594 N 1.02802 0.76250 0.10255
 C595 C 0.95812 0.71695 0.11989
 H596 H 0.96081 0.71516 0.14081
 C597 C 0.93702 0.70490 0.10840
 H598 H 0.92341 0.69377 0.12049
 C599 C 0.97237 0.73404 0.07869
 H600 H 0.98622 0.74550 0.06731
 C601 C 0.95134 0.72228 0.06634
 H602 H 0.94891 0.72474 0.04541
 Zn603 Zn 1.00162 0.74745 0.12431
 N604 N 0.97506 0.73145 0.10510
 C605 C 0.96020 0.77986 0.14395
 N606 N 0.98649 0.77473 0.14481
 C607 C 1.00252 0.78972 0.15922
 C608 C 0.99211 0.81055 0.17389
 C609 C 0.94903 0.80046 0.15831
 C610 C 1.02575 0.69889 0.13383
 C611 C 1.03739 0.67857 0.14831
 C612 C 1.02953 0.70367 0.18763
 C613 C 1.01801 0.72357 0.17239
 N614 N 1.01670 0.72099 0.14594
 H615 H 0.94785 0.76822 0.13191
 H616 H 1.02341 0.78552 0.15917
 H617 H 1.00497 0.82241 0.18531
 H618 H 0.92810 0.80443 0.15745
 H619 H 1.02412 0.69723 0.11282
 H620 H 1.04481 0.66117 0.13846
 H621 H 1.03074 0.70591 0.20864
 H622 H 1.01020 0.74101 0.18173
 C623 C 0.93342 0.70774 0.08145
 C624 C 1.06802 0.78950 0.07734
 C625 C 1.03943 0.68106 0.17542
 C626 C 0.96511 0.81593 0.17341
 C627 C 0.52207 0.28415 0.58859
 H628 H 0.50212 0.29166 0.58748
 C629 C 0.54252 0.29770 0.57608
 H630 H 0.53832 0.31558 0.56514
 C631 C 0.55236 0.25287 0.60584
 H632 H 0.55641 0.23604 0.61822
 C633 C 0.57323 0.26566 0.59358
 H634 H 0.59311 0.25839 0.59639
 N635 N 0.52737 0.26238 0.60344
 C636 C 0.45647 0.21809 0.61988
 H637 H 0.45885 0.21627 0.64084
 C638 C 0.43543 0.20626 0.60808
 H639 H 0.42153 0.19529 0.61997
 C640 C 0.47157 0.23495 0.57888
 H641 H 0.48574 0.24620 0.56770
 C642 C 0.45061 0.22339 0.56621
 H643 H 0.44855 0.22581 0.54523
 Zn644 Zn 0.50046 0.24776 0.62488
 N645 N 0.47382 0.23235 0.60533
 C646 C 0.45945 0.28075 0.64436
 N647 N 0.48564 0.27517 0.64543
 C648 C 0.50179 0.28979 0.66009
 C649 C 0.49159 0.31070 0.67480
 C650 C 0.44849 0.30144 0.65874
 C651 C 0.52331 0.19860 0.63413
 C652 C 0.53483 0.17806 0.64839
 C653 C 0.52802 0.20320 0.68785
 C654 C 0.51660 0.22332 0.67283
 N655 N 0.51489 0.22085 0.64639
 H656 H 0.44701 0.26941 0.63213
 H657 H 0.52261 0.28526 0.66020
 H658 H 0.50454 0.32227 0.68641
 H659 H 0.42763 0.30576 0.65772
 H660 H 0.52140 0.19705 0.61314
 H661 H 0.54185 0.16059 0.63839
 H662 H 0.52967 0.20540 0.70883
 H663 H 0.50931 0.24090 0.68229
 C664 C 0.43232 0.20906 0.58106
 C665 C 0.56838 0.28853 0.57898
 C666 C 0.53739 0.18048 0.67544
 C667 C 0.46468 0.31653 0.67410
 C668 C 0.47911 0.78376 0.91087
 H669 H 0.49920 0.78995 0.91243
 C670 C 0.45885 0.79778 0.92366
 H671 H 0.46333 0.81470 0.93527
 C672 C 0.44836 0.75532 0.89241
 H673 H 0.44409 0.73943 0.87951
 C674 C 0.42764 0.76868 0.90490
 H675 H 0.40765 0.76274 0.90176
 N676 N 0.47352 0.76312 0.89538
 C677 C 0.54393 0.71551 0.87956
 H678 H 0.54163 0.71425 0.85860
 C679 C 0.56491 0.70256 0.89148
 H680 H 0.57880 0.69125 0.87968
 C681 C 0.52884 0.73222 0.92044
 H682 H 0.51474 0.74390 0.93153
 C683 C 0.54974 0.71955 0.93321
 H684 H 0.55177 0.72149 0.95417
 Zn685 Zn 0.50047 0.74768 0.87420
 N686 N 0.52664 0.73026 0.89400
 C687 C 0.54229 0.77911 0.85609
 N688 N 0.51611 0.77489 0.85407
 C689 C 0.50069 0.79075 0.83892
 C690 C 0.51164 0.81159 0.82469
 C691 C 0.55399 0.79967 0.84222
 C692 C 0.47693 0.70016 0.86463
 C693 C 0.46569 0.68037 0.85022
 C694 C 0.47388 0.70576 0.81070
 C695 C 0.48501 0.72514 0.82588
 N696 N 0.48597 0.72215 0.85239
 H697 H 0.55416 0.76682 0.86872
 H698 H 0.47985 0.78728 0.83805
 H699 H 0.49927 0.82416 0.81268
 H700 H 0.57483 0.80289 0.84401
 H701 H 0.47826 0.69817 0.88568
 H702 H 0.45829 0.66306 0.86018
 H703 H 0.47292 0.70831 0.78964
 H704 H 0.49277 0.74250 0.81648
 C705 C 0.56802 0.70476 0.91847
 C706 C 0.43284 0.79033 0.92032
 C707 C 0.46402 0.68326 0.82305
 C708 C 0.53856 0.81604 0.82640
 C709 C 0.44108 -0.13479 0.32935
 C710 C 0.46403 -0.13806 0.34378
 C711 C 0.46902 -0.16171 0.35723
 C712 C 0.45103 -0.18231 0.35643
 C713 C 0.42808 -0.17875 0.34183
 C714 C 0.42318 -0.15519 0.32844
 C715 C 0.43549 -0.11076 0.31522
 C716 C 0.42916 -0.09145 0.30280
 H717 H 0.47803 -0.12238 0.34464
 H718 H 0.48676 -0.16381 0.36845
 H719 H 0.41410 -0.19436 0.34039
 H720 H 0.40541 -0.15293 0.31724
 C721 C 0.94130 0.36556 0.83078
 C722 C 0.96638 0.35961 0.83998
 C723 C 0.97138 0.33572 0.85296
 C724 C 0.95130 0.31716 0.85705
 C725 C 0.92604 0.32381 0.84768
 C726 C 0.92120 0.34765 0.83476
 C727 C 0.93587 0.38957 0.81655
 C728 C 0.92971 0.40892 0.80410
 H729 H 0.98210 0.37343 0.83712
 H730 H 0.99088 0.33242 0.86044
 H731 H 0.91001 0.31025 0.84898
 H732 H 0.90174 0.35192 0.82743
 C733 C 0.05687 1.13425 0.82963
 C734 C 0.07691 1.15232 0.83173
 C735 C 0.07224 1.17618 0.84421
 C736 C 0.04723 1.18268 0.85505
 C737 C 0.02714 1.16405 0.85271
 C738 C 0.03198 1.14011 0.84016
 C739 C 0.06225 1.11008 0.81609
 C740 C 0.06856 1.09061 0.80417
 H741 H 0.09621 1.14813 0.82334
 H742 H 0.08819 1.18985 0.84410
 H743 H 0.00782 1.16729 0.86131
 H744 H 0.01631 1.12617 0.83875
 C745 C 0.55315 0.63093 0.33162
 C746 C 0.53578 0.64942 0.32067
 C747 C 0.53103 0.67344 0.33300
 C748 C 0.54372 0.67932 0.35640
 C749 C 0.56065 0.66034 0.36757
 C750 C 0.56535 0.63633 0.35523
 C751 C 0.56025 0.60748 0.31753
 C752 C 0.56747 0.58853 0.30526
 H753 H 0.52646 0.64558 0.30225
 H754 H 0.51815 0.68775 0.32374
 H755 H 0.57044 0.66415 0.38574
 H756 H 0.57895 0.62222 0.36380
 C757 C 0.55201 0.36930 0.17040
 C758 C 0.56265 0.36395 0.14552
 C759 C 0.55744 0.34027 0.13336
 C760 C 0.54152 0.32154 0.14596
 C761 C 0.53023 0.32741 0.17062
 C762 C 0.53554 0.35112 0.18281
 C763 C 0.55996 0.39238 0.18390
 C764 C 0.56827 0.41118 0.19493
 H765 H 0.57551 0.37783 0.13578
 H766 H 0.56609 0.33647 0.11422
 H767 H 0.51811 0.31326 0.18090
 H768 H 0.52740 0.35494 0.20217
 C769 C 0.05183 0.87068 0.67015
 C770 C 0.03079 0.85554 0.67896
 C771 C 0.02543 0.83184 0.66675
 C772 C 0.04134 0.82258 0.64563
 C773 C 0.06192 0.83876 0.63652
 C774 C 0.06706 0.86242 0.64868
 C775 C 0.05934 0.89366 0.68406
 C776 C 0.06758 0.91234 0.69535
 H777 H 0.01900 0.86165 0.69576
 H778 H 0.00980 0.82020 0.67514
 H779 H 0.07395 0.83361 0.61962
 H780 H 0.08331 0.87410 0.64156
 C781 C 0.94087 0.63771 0.67459
 C782 C 0.96409 0.64162 0.66009
 C783 C 0.96876 0.66600 0.64812
 C784 C 0.95016 0.68667 0.65042
 C785 C 0.92711 0.68259 0.66534
 C786 C 0.92252 0.65830 0.67731
 C787 C 0.93489 0.61244 0.68584
 C788 C 0.92791 0.59183 0.69521
 H789 H 0.97835 0.62576 0.65772
 H790 H 0.98660 0.66852 0.63657
 H791 H 0.91263 0.69823 0.66781
 H792 H 0.90447 0.65549 0.68847
 C793 C 0.44047 0.13633 0.17275
 C794 C 0.46373 0.13999 0.15824
 C795 C 0.46868 0.16432 0.14628
 C796 C 0.45031 0.18519 0.14859
 C797 C 0.42722 0.18136 0.16354
 C798 C 0.42236 0.15712 0.17549
 C799 C 0.43421 0.11114 0.18402
 C800 C 0.42702 0.09064 0.19346
 H801 H 0.47783 0.12398 0.15587
 H802 H 0.48654 0.16665 0.13473
 H803 H 0.41291 0.19715 0.16603
 H804 H 0.40429 0.15452 0.18666
 C805 C 0.33391 0.44643 -0.13265
 C806 C 0.35518 0.43065 -0.14068
 C807 C 0.36803 0.43556 -0.16462
 C808 C 0.35980 0.45643 -0.18127
 C809 C 0.33876 0.47272 -0.17229
 C810 C 0.32593 0.46764 -0.14833
 C811 C 0.31902 0.43943 -0.10942
 C812 C 0.30612 0.43227 -0.09070
 H813 H 0.36162 0.41420 -0.12862
 H814 H 0.38476 0.42312 -0.16960
 H815 H 0.33087 0.48851 -0.18427
 H816 H 0.30924 0.47982 -0.14246
 C817 C 0.83335 0.94555 0.36618
 C818 C 0.85469 0.92984 0.35820
 C819 C 0.86762 0.93481 0.33433
 C820 C 0.85941 0.95568 0.31767
 C821 C 0.83833 0.97195 0.32661
 C822 C 0.82541 0.96680 0.35050
 C823 C 0.81839 0.93844 0.38933
 C824 C 0.80548 0.93115 0.40799
 H825 H 0.86111 0.91338 0.37026
 H826 H 0.88439 0.92241 0.32940
 H827 H 0.83049 0.98775 0.31462
 H828 H 0.80867 0.97894 0.35634
 C829 C 0.83074 0.05683 1.13318
 C830 C 0.83421 0.07737 1.15052
 C831 C 0.84713 0.07298 1.17407
 C832 C 0.85702 0.04775 1.18098
 C833 C 0.85338 0.02719 1.16305
 C834 C 0.84039 0.03175 1.13943
 C835 C 0.81664 0.06189 1.10942
 C836 C 0.80429 0.06789 1.09026
 H837 H 0.82652 0.09684 1.14603
 H838 H 0.84809 0.08936 1.18722
 H839 H 0.86123 0.00765 1.16657
 H840 H 0.83792 0.01569 1.12605
 C841 C 0.32918 0.55780 0.63441
 C842 C 0.34488 0.53518 0.63757
 C843 C 0.35801 0.53061 0.66111
 C844 C 0.35563 0.54869 0.68170
 C845 C 0.33973 0.57128 0.67827
 C846 C 0.32666 0.57577 0.65482
 C847 C 0.31549 0.56305 0.61044
 C848 C 0.30336 0.56916 0.59117
 H849 H 0.34700 0.52114 0.62188
 H850 H 0.37027 0.51314 0.66311
 H851 H 0.33710 0.58532 0.69388
 H852 H 0.31448 0.59328 0.65264
 C853 C 0.17671 0.55581 0.36610
 C854 C 0.16147 0.53341 0.36385
 C855 C 0.14917 0.52823 0.34020
 C856 C 0.15186 0.54552 0.31864
 C857 C 0.16756 0.56771 0.32104
 C858 C 0.17985 0.57279 0.34458
 C859 C 0.18815 0.56251 0.39064
 C860 C 0.19761 0.57006 0.41058
 H861 H 0.15876 0.52022 0.38044
 H862 H 0.13705 0.51109 0.33897
 H863 H 0.17033 0.58115 0.30467
 H864 H 0.19157 0.59020 0.34610
 C865 C 0.67637 0.05609 0.86541
 C866 C 0.67341 0.07601 0.84665
 C867 C 0.66131 0.07109 0.82299
 C868 C 0.65170 0.04595 0.81741
 C869 C 0.65527 0.02587 0.83654
 C870 C 0.66738 0.03098 0.86031
 C871 C 0.68815 0.06217 0.88997
 C872 C 0.69782 0.06942 0.90993
 H873 H 0.68054 0.09550 0.85029
 H874 H 0.66048 0.08702 0.80883
 H875 H 0.64773 0.00642 0.83392
 H876 H 0.66941 0.01542 0.87482
 C877 C 0.67410 0.94163 0.63464
 C878 C 0.65953 0.96482 0.63877
 C879 C 0.64821 0.96988 0.66346
 C880 C 0.65125 0.95170 0.68423
 C881 C 0.66623 0.92867 0.67991
 C882 C 0.67753 0.92369 0.65531
 C883 C 0.68477 0.93531 0.60913
 C884 C 0.69375 0.92816 0.58834
 H885 H 0.65662 0.97878 0.62287
 H886 H 0.63659 0.98768 0.66615
 H887 H 0.66925 0.91450 0.69560
 H888 H 0.68877 0.90568 0.65235
 C889 C 0.17369 0.44203 0.13608
 C890 C 0.17677 0.42392 0.15666
 C891 C 0.16505 0.42870 0.18111
 C892 C 0.15003 0.45172 0.18536
 C893 C 0.14731 0.47004 0.16467
 C894 C 0.15903 0.46517 0.14013
 C895 C 0.18482 0.43593 0.11070
 C896 C 0.19414 0.42894 0.09000
 H897 H 0.18805 0.40593 0.15374
 H898 H 0.16783 0.41443 0.19675
 H899 H 0.13566 0.48783 0.16731
 H900 H 0.15639 0.47925 0.12429
 C901 C -0.13497 0.32761 0.44312
 C902 C -0.13819 0.34262 0.46578
 C903 C -0.16208 0.35584 0.47089
 C904 C -0.18294 0.35422 0.45331
 C905 C -0.17946 0.33894 0.43072
 C906 C -0.15568 0.32579 0.42569
 C907 C -0.11061 0.31397 0.43722
 C908 C -0.09103 0.30196 0.43056
 H909 H -0.12228 0.34420 0.47939
 H910 H -0.16412 0.36760 0.48834
 H911 H -0.19526 0.33691 0.41705
 H912 H -0.15345 0.31414 0.40815
 C913 C 0.36867 0.83305 0.94481
 C914 C 0.36088 0.85460 0.92950
 C915 C 0.33675 0.86726 0.93437
 C916 C 0.31965 0.85856 0.95473
 C917 C 0.32837 0.83722 0.97055
 C918 C 0.35252 0.82459 0.96552
 C919 C 0.39219 0.81844 0.93782
 C920 C 0.41120 0.80582 0.93064
 H921 H 0.37330 0.86142 0.91345
 H922 H 0.33200 0.88423 0.92234
 H923 H 0.31606 0.82898 0.98591
 H924 H 0.35821 0.80768 0.97732
 C925 C 1.13129 0.83212 0.05372
 C926 C 1.14761 0.82449 0.03278
 C927 C 1.17150 0.83695 0.02813
 C928 C 1.17978 0.85725 0.04459
 C929 C 1.16250 0.86515 0.06518
 C930 C 1.13864 0.85268 0.06966
 C931 C 1.10809 0.81757 0.06031
 C932 C 1.08935 0.80498 0.06723
 H933 H 1.14227 0.80834 0.02049
 H934 H 1.18399 0.82934 0.01254
 H935 H 1.16693 0.88135 0.07771
 H936 H 1.12608 0.85884 0.08589
 C937 C 0.63383 0.32894 0.55794
 C938 C 0.63719 0.34422 0.53519
 C939 C 0.66088 0.35710 0.53042
 C940 C 0.68143 0.35485 0.54842
 C941 C 0.67780 0.33940 0.57116
 C942 C 0.65420 0.32658 0.57586
 C943 C 0.60972 0.31546 0.56334
 C944 C 0.59032 0.30352 0.56951
 H945 H 0.62153 0.34622 0.52120
 H946 H 0.66302 0.36904 0.51285
 H947 H 0.69337 0.33690 0.58517
 H948 H 0.65186 0.31471 0.59348
 C949 C 0.36556 0.17617 0.55522
 C950 C 0.36346 0.16100 0.53270
 C951 C 0.34002 0.14818 0.52774
 C952 C 0.31855 0.15026 0.54541
 C953 C 0.32076 0.16596 0.56767
 C954 C 0.34408 0.17878 0.57251
 C955 C 0.38994 0.18800 0.56182
 C956 C 0.40973 0.19776 0.56942
 H957 H 0.38003 0.15872 0.51926
 H958 H 0.33891 0.13609 0.51053
 H959 H 0.30444 0.16827 0.58139
 H960 H 0.34548 0.19044 0.59002
 C961 C 0.86632 0.67445 0.05699
 C962 C 0.86135 0.66522 0.03194
 C963 C 0.83767 0.65283 0.02697
 C964 C 0.81854 0.64919 0.04713
 C965 C 0.82395 0.65910 0.07218
 C966 C 0.84750 0.67149 0.07696
 C967 C 0.89080 0.68646 0.06298
 C968 C 0.91069 0.69632 0.07019
 H969 H 0.87590 0.66727 0.01634
 H970 H 0.83515 0.64511 0.00757
 H971 H 0.80973 0.65824 0.08814
 H972 H 0.85103 0.67881 0.09640
 C973 C 0.63427 0.66879 0.94596
 C974 C 0.64059 0.64392 0.93612
 C975 C 0.66508 0.63228 0.94102
 C976 C 0.68365 0.64541 0.95580
 C977 C 0.67687 0.67010 0.96624
 C978 C 0.65235 0.68175 0.96125
 C979 C 0.61019 0.68173 0.93834
 C980 C 0.59056 0.69237 0.93028
 H981 H 0.62680 0.63375 0.92415
 H982 H 0.66958 0.61310 0.93306
 H983 H 0.69085 0.68078 0.97750
 H984 H 0.64777 0.70113 0.96875
 C985 C 0.13313 0.16666 0.44596
 C986 C 0.13931 0.14177 0.43609
 C987 C 0.16377 0.13003 0.44092
 C988 C 0.18242 0.14307 0.45568
 C989 C 0.17577 0.16778 0.46615
 C990 C 0.15129 0.17953 0.46123
 C991 C 0.10916 0.17977 0.43834
 C992 C 0.08964 0.19061 0.43026
 H993 H 0.12546 0.13169 0.42412
 H994 H 0.16819 0.11085 0.43291
 H995 H 0.18982 0.17841 0.47735
 H996 H 0.14682 0.19892 0.46873
 C997 C 0.57406 0.12129 0.71593
 C998 C 0.59815 0.12557 0.72770
 C999 C 0.61125 0.10497 0.74059
 C1000 C 0.60041 0.07980 0.74181
 C1001 C 0.57614 0.07573 0.72996
 C1002 C 0.56307 0.09636 0.71710
 C1003 C 0.56088 0.14232 0.70215
 C1004 C 0.55001 0.15980 0.69022
 H1005 H 0.60689 0.14477 0.72678
 H1006 H 0.63003 0.10861 0.74928
 H1007 H 0.56713 0.05668 0.73089
 H1008 H 0.54443 0.09285 0.70805
 C1009 C 1.07485 0.62165 0.21670
 C1010 C 1.09533 0.62655 0.23365
 C1011 C 1.10792 0.60580 0.24680
 C1012 C 1.10034 0.57953 0.24320
 C1013 C 1.07944 0.57512 0.22600
 C1014 C 1.06692 0.59594 0.21296
 C1015 C 1.06226 0.64289 0.20268
 C1016 C 1.05177 0.66043 0.19050
 H1017 H 1.10180 0.64641 0.23647
 H1018 H 1.12434 0.61056 0.25884
 H1019 H 1.07184 0.55574 0.22317
 H1020 H 1.05093 0.59196 0.19999
 C1021 C 0.93155 0.87726 0.21320
 C1022 C 0.93566 0.88061 0.23997
 C1023 C 0.92350 0.90157 0.25315
 C1024 C 0.90707 0.91945 0.23969
 C1025 C 0.90304 0.91586 0.21279
 C1026 C 0.91520 0.89490 0.19967
 C1027 C 0.94387 0.85564 0.19959
 C1028 C 0.95382 0.83753 0.18785
 H1029 H 0.94829 0.86708 0.25063
 H1030 H 0.92722 0.90401 0.27378
 H1031 H 0.89025 0.92910 0.20198
 H1032 H 0.91180 0.89241 0.17897
 C1033 C 0.43160 0.37806 0.71399
 C1034 C 0.43584 0.38143 0.74073
 C1035 C 0.42376 0.40240 0.75395
 C1036 C 0.40727 0.42028 0.74056
 C1037 C 0.40312 0.41669 0.71369
 C1038 C 0.41521 0.39571 0.70052
 C1039 C 0.44379 0.35638 0.70035
 C1040 C 0.45360 0.33822 0.68859
 H1041 H 0.44851 0.36789 0.75134
 H1042 H 0.42757 0.40485 0.77456
 H1043 H 0.39028 0.42992 0.70292
 H1044 H 0.41169 0.39320 0.67985
 C1045 C 0.42908 0.62507 0.78301
 C1046 C 0.43256 0.62210 0.75595
 C1047 C 0.42060 0.60148 0.74321
 C1048 C 0.40504 0.58355 0.75744
 C1049 C 0.40156 0.58682 0.78461
 C1050 C 0.41351 0.60744 0.79728
 C1051 C 0.44164 0.64596 0.79633
 C1052 C 0.45198 0.66316 0.80813
 H1053 H 0.44464 0.63560 0.74473
 H1054 H 0.42389 0.59928 0.72233
 H1055 H 0.38942 0.57355 0.79603
 H1056 H 0.41064 0.60961 0.81823
 C1057 C -0.06869 0.12361 0.28095
 C1058 C -0.05699 0.09857 0.28085
 C1059 C -0.06914 0.07796 0.26833
 C1060 C -0.09322 0.08216 0.25576
 C1061 C -0.10474 0.10746 0.25580
 C1062 C -0.09255 0.12804 0.26835
 C1063 C -0.05663 0.14451 0.29474
 C1064 C -0.04669 0.16173 0.30684
 H1065 H -0.03853 0.09493 0.29056
 H1066 H -0.05962 0.05879 0.26832
 H1067 H -0.12340 0.11122 0.24654
 H1068 H -0.10185 0.14733 0.26846
 C1069 C 0.07274 0.37632 0.28858
 C1070 C 0.06183 0.40171 0.28886
 C1071 C 0.07493 0.42231 0.27628
 C1072 C 0.09914 0.41775 0.26324
 C1073 C 0.10994 0.39215 0.26310
 C1074 C 0.09682 0.37160 0.27570
 C1075 C 0.05953 0.35515 0.30187
 C1076 C 0.04899 0.33725 0.31323
 H1077 H 0.04320 0.40558 0.29878
 H1078 H 0.06595 0.44172 0.27642
 H1079 H 0.12869 0.38809 0.25351
 H1080 H 0.10551 0.35204 0.27550
 C1081 C 0.57439 0.87651 0.78778
 C1082 C 0.59846 0.87173 0.77490
 C1083 C 0.61163 0.89226 0.76230
 C1084 C 0.60089 0.91789 0.76247
 C1085 C 0.57671 0.92250 0.77553
 C1086 C 0.56356 0.90193 0.78810
 C1087 C 0.56112 0.85538 0.80105
 C1088 C 0.55048 0.83753 0.81241
 H1089 H 0.60710 0.85215 0.77467
 H1090 H 0.63035 0.88816 0.75268
 H1091 H 0.56777 0.94194 0.77569
 H1092 H 0.54495 0.90584 0.79803
 C1093 C 0.71768 0.57160 0.12288
 C1094 C 0.71390 0.56387 0.09712
 C1095 C 0.72683 0.57663 0.07638
 C1096 C 0.74396 0.59756 0.08096
 C1097 C 0.74761 0.60494 0.10727
 C1098 C 0.73456 0.59211 0.12792
 C1099 C 0.70368 0.55889 0.14403
 C1100 C 0.69147 0.54838 0.16153
 H1101 H 0.70096 0.54787 0.09302
 H1102 H 0.72397 0.56921 0.05692
 H1103 H 0.75959 0.62139 0.11213
 H1104 H 0.73740 0.59845 0.14783
 C1105 C 0.21885 1.07082 0.62333
 C1106 C 0.22043 1.05911 0.59871
 C1107 C 0.23324 1.07178 0.57784
 C1108 C 0.24462 1.09639 0.58133
 C1109 C 0.24316 1.10789 0.60624
 C1110 C 0.23031 1.09517 0.62710
 C1111 C 0.20470 1.05821 0.64446
 C1112 C 0.19234 1.04781 0.66191
 H1113 H 0.21162 1.04026 0.59560
 H1114 H 0.23437 1.06228 0.55899
 H1115 H 0.25148 1.12694 0.60945
 H1116 H 0.22906 1.10447 0.64606
 C1117 C 0.21504 0.93099 0.87728
 C1118 C 0.22907 0.90746 0.87329
 C1119 C 0.24244 0.89539 0.89399
 C1120 C 0.24190 0.90671 0.91899
 C1121 C 0.22787 0.93046 0.92275
 C1122 C 0.21454 0.94249 0.90202
 C1123 C 0.20069 0.94299 0.85615
 C1124 C 0.18841 0.95274 0.83847
 H1125 H 0.22948 0.89832 0.85424
 H1126 H 0.25278 0.87696 0.89059
 H1127 H 0.22736 0.93979 0.94170
 H1128 H 0.20375 0.96071 0.90532
 C1129 C 0.71319 0.43004 0.37773
 C1130 C 0.71315 0.44184 0.40232
 C1131 C 0.72630 0.42969 0.42312
 C1132 C 0.73966 0.40555 0.41954
 C1133 C 0.73964 0.39389 0.39471
 C1134 C 0.72647 0.40607 0.37396
 C1135 C 0.69923 0.44224 0.35645
 C1136 C 0.68733 0.45207 0.33855
 H1137 H 0.70294 0.46040 0.40544
 H1138 H 0.72625 0.43929 0.44191
 H1139 H 0.74946 0.37517 0.39144
 H1140 H 0.72650 0.39671 0.35503
 C1141 C 0.78282 0.42879 0.62377
 C1142 C 0.78272 0.44061 0.59889
 C1143 C 0.77011 0.42862 0.57827
 C1144 C 0.75742 0.40459 0.58228
 C1145 C 0.75751 0.39292 0.60740
 C1146 C 0.77017 0.40495 0.62800
 C1147 C 0.79650 0.44082 0.64473
 C1148 C 0.80844 0.45081 0.66202
 H1149 H 0.79247 0.45907 0.59540
 H1150 H 0.77007 0.43826 0.55925
 H1151 H 0.74818 0.37429 0.61102
 H1152 H 0.77026 0.39556 0.64716
 C1153 C 0.28182 -0.07420 0.12365
 C1154 C 0.29592 -0.09056 0.10641
 C1155 C 0.28326 -0.10227 0.08566
 C1156 C 0.25627 -0.09776 0.08187
 C1157 C 0.24218 -0.08151 0.09948
 C1158 C 0.25491 -0.06979 0.12022
 C1159 C 0.29520 -0.06165 0.14449
 C1160 C 0.30704 -0.05123 0.16159
 H1161 H 0.31674 -0.09415 0.10892
 H1162 H 0.29455 -0.11495 0.07265
 H1163 H 0.22146 -0.07744 0.09688
 H1164 H 0.24383 -0.05709 0.13341
 C1165 C 0.28695 0.06901 0.37720
 C1166 C 0.30099 0.08556 0.39326
 C1167 C 0.28829 0.09842 0.41409
 C1168 C 0.26134 0.09492 0.41908
 C1169 C 0.24742 0.07819 0.40284
 C1170 C 0.26016 0.06533 0.38204
 C1171 C 0.30000 0.05621 0.35550
 C1172 C 0.31121 0.04596 0.33720
 H1173 H 0.32171 0.08864 0.38960
 H1174 H 0.29946 0.11139 0.42605
 H1175 H 0.22675 0.07480 0.40642
 H1176 H 0.24912 0.05255 0.36974
 C1177 C 0.78766 0.57080 0.87766
 C1178 C 0.78873 0.56017 0.90303
 C1179 C 0.77631 0.57322 0.92390
 C1180 C 0.76265 0.59710 0.91965
 C1181 C 0.76173 0.60764 0.89407
 C1182 C 0.77418 0.59456 0.87324
 C1183 C 0.80081 0.55767 0.85622
 C1184 C 0.81210 0.54720 0.83809
 H1185 H 0.79914 0.54179 0.90667
 H1186 H 0.77705 0.56443 0.94330
 H1187 H 0.75164 0.62613 0.89023
 H1188 H 0.77337 0.60305 0.85370
 C1189 C 0.11960 0.71687 0.57498
 C1190 C 0.10231 0.70350 0.59180
 C1191 C 0.08146 0.71699 0.60406
 C1192 C 0.07765 0.74408 0.59964
 C1193 C 0.09524 0.75737 0.58280
 C1194 C 0.11607 0.74383 0.57055
 C1195 C 0.14083 0.70281 0.56218
 C1196 C 0.15847 0.69068 0.55159
 H1197 H 0.10493 0.68264 0.59541
 H1198 H 0.06845 0.70630 0.61717
 H1199 H 0.09261 0.77815 0.57878
 H1200 H 0.12932 0.75434 0.55751
 C1201 C 0.62087 0.21693 1.07343
 C1202 C 0.62462 0.23004 1.09696
 C1203 C 0.60357 0.24322 1.10928
 C1204 C 0.57849 0.24337 1.09823
 C1205 C 0.57498 0.23024 1.07451
 C1206 C 0.59604 0.21711 1.06222
 C1207 C 0.64230 0.20279 1.06104
 C1208 C 0.65999 0.19053 1.05069
 H1209 H 0.64375 0.22991 1.10586
 H1210 H 0.60680 0.25291 1.12766
 H1211 H 0.55600 0.23033 1.06533
 H1212 H 0.59294 0.20703 1.04401
 C1213 C 0.87741 0.21250 0.93233
 C1214 C 0.88033 0.23937 0.93639
 C1215 C 0.90079 0.25277 0.92385
 C1216 C 0.91859 0.23943 0.90706
 C1217 C 0.91553 0.21240 0.90320
 C1218 C 0.89506 0.19905 0.91575
 C1219 C 0.85606 0.19874 0.94475
 C1220 C 0.83810 0.18693 0.95466
 H1221 H 0.86679 0.24996 0.94921
 H1222 H 0.90287 0.27349 0.92749
 H1223 H 0.92875 0.20167 0.89018
 H1224 H 0.89290 0.17827 0.91238
 C1225 C 0.37625 0.71426 0.43369
 C1226 C 0.37909 0.74123 0.43717
 C1227 C 0.39974 0.75436 0.42463
 C1228 C 0.41781 0.74063 0.40845
 C1229 C 0.41477 0.71352 0.40512
 C1230 C 0.39413 0.70045 0.41766
 C1231 C 0.35476 0.70071 0.44609
 C1232 C 0.33675 0.68893 0.45594
 H1233 H 0.36535 0.75210 0.44954
 H1234 H 0.40176 0.77518 0.42780
 H1235 H 0.42813 0.70248 0.39251
 H1236 H 0.39201 0.67959 0.41472
 C1237 C 0.62357 0.78331 0.42265
 C1238 C 0.62055 0.75636 0.42687
 C1239 C 0.59965 0.74344 0.41565
 C1240 C 0.58147 0.75737 0.40012
 C1241 C 0.58486 0.78441 0.39577
 C1242 C 0.60577 0.79727 0.40698
 C1243 C 0.64454 0.79686 0.43482
 C1244 C 0.66176 0.80872 0.44502
 H1245 H 0.63417 0.74539 0.43905
 H1246 H 0.59737 0.72269 0.41962
 H1247 H 0.57139 0.79559 0.38363
 H1248 H 0.60796 0.81813 0.40355
 C1249 C 0.12256 0.28602 -0.07481
 C1250 C 0.11965 0.25907 -0.07050
 C1251 C 0.09906 0.24596 -0.08202
 C1252 C 0.08112 0.25967 -0.09800
 C1253 C 0.08423 0.28675 -0.10223
 C1254 C 0.10484 0.29982 -0.09070
 C1255 C 0.14356 0.29962 -0.06277
 C1256 C 0.16095 0.31136 -0.05275
 H1257 H 0.13319 0.24823 -0.05813
 H1258 H 0.09693 0.22518 -0.07809
 H1259 H 0.07089 0.29776 -0.11465
 H1260 H 0.10694 0.32069 -0.09419
 C1261 C 0.37515 0.28731 0.06913
 C1262 C 0.39155 0.30172 0.08499
 C1263 C 0.41195 0.28913 0.09841
 C1264 C 0.41620 0.26191 0.09616
 C1265 C 0.39963 0.24759 0.08012
 C1266 C 0.37923 0.26023 0.06670
 C1267 C 0.35384 0.30033 0.05584
 C1268 C 0.33589 0.31166 0.04528
 H1269 H 0.38846 0.32268 0.08712
 H1270 H 0.42418 0.30063 0.11083
 H1271 H 0.40263 0.22667 0.07770
 H1272 H 0.36665 0.24889 0.05448
 C1273 C 0.87456 0.78773 0.56993
 C1274 C 0.87881 0.76064 0.56787
 C1275 C 0.89918 0.74828 0.58156
 C1276 C 0.91557 0.76289 0.59752
 C1277 C 0.91116 0.79013 0.59942
 C1278 C 0.89077 0.80243 0.58573
 C1279 C 0.85329 0.80046 0.55632
 C1280 C 0.83535 0.81153 0.54547
 H1281 H 0.86637 0.74907 0.55570
 H1282 H 0.90233 0.72735 0.57940
 H1283 H 0.92325 0.80185 0.61176
 H1284 H 0.88755 0.82340 0.58758
   
