data_POSCAR
  _audit_creation_date              2014-09-24
  _audit_creation_method            'ToBaCCo'
  _symmetry_space_group_name_H-M    'P1'
  _symmetry_Int_Tables_number       1
  _symmetry_cell_setting            triclinic
  loop_
  _symmetry_equiv_pos_as_xyz
 x,y,z
_cell_length_a 64.0163
_cell_length_b 64.0776
_cell_length_c 64.0409
_cell_angle_alpha 89.977800
_cell_angle_beta 90.046600
_cell_angle_gamma 89.987700
loop_
  _atom_site_label
  _atom_site_type_symbol
  _atom_site_fract_x
  _atom_site_fract_y
  _atom_site_fract_z
C1 C 0.13256 -0.02928 0.25270
 C2 C 0.12413 -0.00956 0.25732
 C3 C 0.11570 -0.00582 0.27722
 C4 C 0.11553 -0.02168 0.29228
 C5 C 0.12413 -0.04122 0.28765
 C6 C 0.13274 -0.04502 0.26791
 C7 C 0.12419 0.00714 0.24138
 C8 C 0.11583 0.00346 0.22142
 C9 C 0.11576 0.01937 0.20638
 C10 C 0.12440 0.03888 0.21113
 C11 C 0.13293 0.04259 0.23091
 C12 C 0.13265 0.02683 0.24607
 H13 H 0.13929 -0.03218 0.23744
 H14 H 0.10900 0.00928 0.28086
 H15 H 0.10910 -0.01164 0.21777
 H16 H 0.13934 0.02974 0.26136
 H17 H 0.12412 -0.05342 0.29941
 H18 H 0.12452 0.05118 0.19947
 C19 C 0.36676 -0.02688 0.74484
 C20 C 0.37503 -0.00701 0.74066
 C21 C 0.38339 -0.00275 0.72083
 C22 C 0.38365 -0.01826 0.70544
 C23 C 0.37521 -0.03796 0.70966
 C24 C 0.36669 -0.04225 0.72931
 C25 C 0.37499 0.00924 0.75702
 C26 C 0.38333 0.00496 0.77686
 C27 C 0.38337 0.02038 0.79236
 C28 C 0.37474 0.04003 0.78819
 C29 C 0.36625 0.04434 0.76851
 C30 C 0.36654 0.02906 0.75289
 H31 H 0.36008 -0.03024 0.76003
 H32 H 0.39002 0.01247 0.71754
 H33 H 0.39006 -0.01025 0.78007
 H34 H 0.35986 0.03242 0.73770
 H35 H 0.37529 -0.04993 0.69769
 H36 H 0.37460 0.05196 0.80022
 C37 C 0.86630 0.47214 0.24669
 C38 C 0.87452 0.49211 0.24283
 C39 C 0.88309 0.49664 0.22315
 C40 C 0.88358 0.48132 0.20757
 C41 C 0.87519 0.46154 0.21146
 C42 C 0.86646 0.45696 0.23095
 C43 C 0.87410 0.50828 0.25928
 C44 C 0.88234 0.50407 0.27919
 C45 C 0.88229 0.51958 0.29463
 C46 C 0.87364 0.53919 0.29033
 C47 C 0.86523 0.54341 0.27060
 C48 C 0.86561 0.52806 0.25506
 H49 H 0.85945 0.46857 0.26175
 H50 H 0.88965 0.51193 0.22009
 H51 H 0.88915 0.48891 0.28247
 H52 H 0.85906 0.53139 0.23979
 H53 H 0.87542 0.44974 0.19932
 H54 H 0.87348 0.55120 0.30228
 C55 C 0.63376 0.47157 0.75382
 C56 C 0.62547 0.49133 0.75850
 C57 C 0.61700 0.49503 0.77840
 C58 C 0.61666 0.47910 0.79337
 C59 C 0.62514 0.45953 0.78866
 C60 C 0.63377 0.45577 0.76895
 C61 C 0.62565 0.50809 0.74264
 C62 C 0.61727 0.50453 0.72266
 C63 C 0.61724 0.52049 0.70771
 C64 C 0.62594 0.53994 0.71252
 C65 C 0.63449 0.54355 0.73231
 C66 C 0.63417 0.52773 0.74741
 H67 H 0.64053 0.46864 0.73859
 H68 H 0.61037 0.51016 0.78209
 H69 H 0.61046 0.48950 0.71890
 H70 H 0.64086 0.53056 0.76271
 H71 H 0.62502 0.44724 0.80032
 H72 H 0.62605 0.55225 0.70089
 C73 C 0.24515 0.13233 1.02927
 C74 C 0.24055 0.12389 1.00955
 C75 C 0.22056 0.11565 1.00571
 C76 C 0.20542 0.11567 1.02152
 C77 C 0.21009 0.12429 1.04107
 C78 C 0.22989 0.13269 1.04492
 C79 C 0.25661 0.12372 0.99299
 C80 C 0.27645 0.11520 0.99693
 C81 C 0.29168 0.11501 0.98123
 C82 C 0.28724 0.12368 0.96164
 C83 C 0.26756 0.13236 0.95767
 C84 C 0.25221 0.13220 0.97324
 H85 H 0.26045 0.13892 1.03230
 H86 H 0.21698 0.10893 0.99058
 H87 H 0.27988 0.10847 1.01210
 H88 H 0.23702 0.13903 0.97014
 H89 H 0.19835 0.12446 1.05329
 H90 H 0.29906 0.12374 0.94950
 C91 C 0.75314 0.36654 1.02789
 C92 C 0.75709 0.37474 1.00791
 C93 C 0.77674 0.38347 1.00353
 C94 C 0.79220 0.38417 1.01900
 C95 C 0.78824 0.37580 1.03879
 C96 C 0.76877 0.36689 1.04324
 C97 C 0.74074 0.37413 0.99160
 C98 C 0.72075 0.38226 0.99560
 C99 C 0.70538 0.38197 0.98000
 C100 C 0.70983 0.37318 0.96047
 C101 C 0.72964 0.36487 0.95645
 C102 C 0.74512 0.36551 0.97190
 H103 H 0.73808 0.35957 1.03129
 H104 H 0.77985 0.39001 0.98823
 H105 H 0.71735 0.38915 1.01069
 H106 H 0.76044 0.35904 0.96874
 H107 H 0.80033 0.37622 1.05068
 H108 H 0.69793 0.37281 0.94840
 C109 C 0.25448 0.86729 0.52588
 C110 C 0.25870 0.87558 0.50601
 C111 C 0.27851 0.88405 0.50185
 C112 C 0.29388 0.88438 0.51745
 C113 C 0.28961 0.87590 0.53715
 C114 C 0.26997 0.86727 0.54134
 C115 C 0.24243 0.87536 0.48962
 C116 C 0.22248 0.88355 0.49369
 C117 C 0.20711 0.88345 0.47811
 C118 C 0.21150 0.87483 0.45852
 C119 C 0.23127 0.86647 0.45440
 C120 C 0.24677 0.86691 0.46985
 H121 H 0.23932 0.86052 0.52916
 H122 H 0.28180 0.89066 0.48660
 H123 H 0.21904 0.89029 0.50883
 H124 H 0.26204 0.86035 0.46663
 H125 H 0.30152 0.87597 0.54922
 H126 H 0.19954 0.87461 0.44651
 C127 C 0.74719 0.63302 0.53026
 C128 C 0.74256 0.62481 0.51044
 C129 C 0.72262 0.61646 0.50661
 C130 C 0.70756 0.61617 0.52246
 C131 C 0.71224 0.62455 0.54210
 C132 C 0.73199 0.63306 0.54598
 C133 C 0.75850 0.62498 0.49376
 C134 C 0.77847 0.61664 0.49745
 C135 C 0.79351 0.61663 0.48155
 C136 C 0.78875 0.62530 0.46204
 C137 C 0.76895 0.63380 0.45833
 C138 C 0.75380 0.63348 0.47408
 H139 H 0.76245 0.63971 0.53330
 H140 H 0.71896 0.60991 0.49144
 H141 H 0.78213 0.60986 0.51254
 H142 H 0.73850 0.64014 0.47116
 H143 H 0.70051 0.62446 0.55432
 H144 H 0.80040 0.62545 0.44974
 C145 C -0.02789 0.25400 0.13151
 C146 C -0.00798 0.25806 0.12324
 C147 C -0.00364 0.27783 0.11478
 C148 C -0.01911 0.29331 0.11443
 C149 C -0.03885 0.28919 0.12290
 C150 C -0.04322 0.26961 0.13152
 C151 C 0.00833 0.24174 0.12361
 C152 C 0.00429 0.22186 0.11525
 C153 C 0.01984 0.20645 0.11549
 C154 C 0.03934 0.21075 0.12445
 C155 C 0.04339 0.23045 0.13298
 C156 C 0.02800 0.24596 0.13239
 H157 H -0.03130 0.23888 0.13831
 H158 H 0.01165 0.28100 0.10821
 H159 H -0.01081 0.21857 0.10828
 H160 H 0.03117 0.26118 0.13907
 H161 H -0.05081 0.30121 0.12284
 H162 H 0.05136 0.19881 0.12480
 C163 C -0.02788 0.74657 0.36790
 C164 C -0.00808 0.74179 0.37610
 C165 C -0.00437 0.72181 0.38439
 C166 C -0.02035 0.70688 0.38465
 C167 C -0.03996 0.71172 0.37629
 C168 C -0.04371 0.73150 0.36783
 C169 C 0.00870 0.75762 0.37595
 C170 C 0.00514 0.77756 0.38437
 C171 C 0.02106 0.79255 0.38426
 C172 C 0.04047 0.78782 0.37541
 C173 C 0.04407 0.76806 0.36683
 C174 C 0.02830 0.75292 0.36727
 H175 H -0.03082 0.76186 0.36126
 H176 H 0.01080 0.71803 0.39093
 H177 H -0.00987 0.78128 0.39126
 H178 H 0.03111 0.73766 0.36052
 H179 H -0.05228 0.70009 0.37634
 H180 H 0.05273 0.79949 0.37517
 C181 C 0.47151 0.24679 0.86804
 C182 C 0.49141 0.24222 0.87611
 C183 C 0.49539 0.22232 0.88444
 C184 C 0.47958 0.20720 0.88484
 C185 C 0.45984 0.21181 0.87658
 C186 C 0.45584 0.23155 0.86810
 C187 C 0.50807 0.25819 0.87578
 C188 C 0.50443 0.27814 0.88414
 C189 C 0.52032 0.29318 0.88403
 C190 C 0.53977 0.28846 0.87521
 C191 C 0.54342 0.26869 0.86670
 C192 C 0.52768 0.25352 0.86714
 H193 H 0.46838 0.26203 0.86137
 H194 H 0.51066 0.21876 0.89087
 H195 H 0.48939 0.28177 0.89103
 H196 H 0.53056 0.23824 0.86047
 H197 H 0.44762 0.20009 0.87670
 H198 H 0.55206 0.30012 0.87498
 C199 C 0.47362 0.75407 0.63333
 C200 C 0.49359 0.75825 0.62525
 C201 C 0.49780 0.77794 0.61655
 C202 C 0.48215 0.79319 0.61575
 C203 C 0.46235 0.78898 0.62400
 C204 C 0.45810 0.76947 0.63287
 C205 C 0.51002 0.74205 0.62586
 C206 C 0.50608 0.72203 0.61781
 C207 C 0.52171 0.70675 0.61818
 C208 C 0.54122 0.71127 0.62696
 C209 C 0.54520 0.73110 0.63518
 C210 C 0.52971 0.74653 0.63447
 H211 H 0.47029 0.73900 0.64027
 H212 H 0.51309 0.78123 0.61008
 H213 H 0.49101 0.71850 0.61093
 H214 H 0.53284 0.76186 0.64091
 H215 H 0.45028 0.80085 0.62352
 H216 H 0.55327 0.69938 0.62737
 C217 C 0.86840 1.02729 0.75358
 C218 C 0.87710 1.00771 0.75818
 C219 C 0.88541 1.00399 0.77814
 C220 C 0.88521 1.01976 0.79329
 C221 C 0.87631 1.03921 0.78865
 C222 C 0.86782 1.04294 0.76882
 C223 C 0.87746 0.99111 0.74218
 C224 C 0.88593 0.99506 0.72234
 C225 C 0.88644 0.97926 0.70722
 C226 C 0.87811 0.95954 0.71177
 C227 C 0.86946 0.95559 0.73146
 C228 C 0.86933 0.97127 0.74668
 H229 H 0.86174 1.03021 0.73828
 H230 H 0.89234 0.98895 0.78170
 H231 H 0.89242 1.01031 0.71885
 H232 H 0.86255 0.96817 0.76188
 H233 H 0.87596 1.05141 0.80039
 H234 H 0.87831 0.94732 0.70005
 C235 C 0.36656 0.52768 0.25349
 C236 C 0.37488 0.50799 0.25840
 C237 C 0.38324 0.50448 0.27838
 C238 C 0.38348 0.52054 0.29321
 C239 C 0.37498 0.54007 0.28827
 C240 C 0.36643 0.54362 0.26844
 C241 C 0.37501 0.49118 0.24262
 C242 C 0.38351 0.49481 0.22274
 C243 C 0.38385 0.47885 0.20781
 C244 C 0.37534 0.45929 0.21256
 C245 C 0.36667 0.45561 0.23230
 C246 C 0.36669 0.47146 0.24736
 H247 H 0.35990 0.53046 0.23817
 H248 H 0.38993 0.48941 0.28221
 H249 H 0.39017 0.50992 0.21902
 H250 H 0.35991 0.46860 0.26260
 H251 H 0.37505 0.55247 0.29979
 H252 H 0.37546 0.44697 0.20095
 C253 C 0.63246 1.02807 0.24425
 C254 C 0.62398 1.00821 0.24051
 C255 C 0.61561 1.00359 0.22077
 C256 C 0.61557 1.01871 0.20499
 C257 C 0.62423 1.03843 0.20875
 C258 C 0.63277 1.04307 0.22835
 C259 C 0.62400 0.99225 0.25715
 C260 C 0.61572 0.99683 0.27693
 C261 C 0.61558 0.98158 0.29263
 C262 C 0.62410 0.96181 0.28872
 C263 C 0.63256 0.95724 0.26908
 C264 C 0.63233 0.97235 0.25330
 H265 H 0.63917 1.03168 0.25937
 H266 H 0.60886 0.98835 0.21782
 H267 H 0.60907 1.01211 0.27991
 H268 H 0.63896 0.96877 0.23814
 H269 H 0.62436 1.05009 0.19647
 H270 H 0.62416 0.95001 0.30087
 C271 C 0.13271 0.52930 0.74660
 C272 C 0.12436 0.50950 0.74230
 C273 C 0.11589 0.50544 0.72248
 C274 C 0.11560 0.52107 0.70719
 C275 C 0.12412 0.54073 0.71152
 C276 C 0.13276 0.54481 0.73120
 C277 C 0.12437 0.49310 0.75851
 C278 C 0.11625 0.49727 0.77844
 C279 C 0.11600 0.48167 0.79374
 C280 C 0.12420 0.46190 0.78931
 C281 C 0.13249 0.45768 0.76952
 C282 C 0.13241 0.47319 0.75411
 H283 H 0.13947 0.53250 0.76179
 H284 H 0.10918 0.49028 0.71910
 H285 H 0.10979 0.51253 0.78189
 H286 H 0.13890 0.46989 0.73883
 H287 H 0.12402 0.55279 0.69963
 H288 H 0.12412 0.44984 0.80120
 C289 C 0.74604 0.86804 -0.02613
 C290 C 0.74146 0.87654 -0.00646
 C291 C 0.72150 0.88482 -0.00268
 C292 C 0.70635 0.88477 -0.01846
 C293 C 0.71096 0.87609 -0.03800
 C294 C 0.73078 0.86763 -0.04181
 C295 C 0.75748 0.87673 0.01016
 C296 C 0.77736 0.88514 0.00627
 C297 C 0.79251 0.88546 0.02208
 C298 C 0.78794 0.87700 0.04174
 C299 C 0.76820 0.86842 0.04564
 C300 C 0.75296 0.86846 0.02995
 H301 H 0.76133 0.86141 -0.02911
 H302 H 0.71791 0.89159 0.01241
 H303 H 0.78086 0.89172 -0.00894
 H304 H 0.73773 0.86173 0.03301
 H305 H 0.69918 0.87592 -0.05018
 H306 H 0.79968 0.87706 0.05397
 C307 C 0.24610 0.36675 0.47362
 C308 C 0.24150 0.37536 0.49324
 C309 C 0.22154 0.38363 0.49697
 C310 C 0.20639 0.38347 0.48119
 C311 C 0.21101 0.37468 0.46172
 C312 C 0.23083 0.36623 0.45795
 C313 C 0.25755 0.37579 0.50982
 C314 C 0.27735 0.38432 0.50582
 C315 C 0.29249 0.38496 0.52160
 C316 C 0.28804 0.37671 0.54136
 C317 C 0.26838 0.36800 0.54539
 C318 C 0.25312 0.36772 0.52972
 H319 H 0.26141 0.36015 0.47067
 H320 H 0.21793 0.39052 0.51201
 H321 H 0.28082 0.39079 0.49056
 H322 H 0.23794 0.36091 0.53287
 H323 H 0.19923 0.37443 0.44954
 H324 H 0.29982 0.37706 0.55353
 C325 C 0.25351 0.63226 -0.03021
 C326 C 0.25765 0.62377 -0.01041
 C327 C 0.27742 0.61522 -0.00624
 C328 C 0.29282 0.61498 -0.02176
 C329 C 0.28865 0.62365 -0.04141
 C330 C 0.26903 0.63237 -0.04561
 C331 C 0.24134 0.62386 0.00589
 C332 C 0.22144 0.61567 0.00167
 C333 C 0.20601 0.61559 0.01718
 C334 C 0.21033 0.62407 0.03689
 C335 C 0.23010 0.63244 0.04113
 C336 C 0.24561 0.63215 0.02574
 H337 H 0.23836 0.63909 -0.03349
 H338 H 0.28068 0.60846 0.00893
 H339 H 0.21813 0.60905 -0.01357
 H340 H 0.26087 0.63870 0.02906
 H341 H 0.30062 0.62360 -0.05338
 H342 H 0.19838 0.62418 0.04890
 C343 C 0.75487 0.13280 0.47086
 C344 C 0.75896 0.12425 0.49065
 C345 C 0.77870 0.11565 0.49483
 C346 C 0.79414 0.11541 0.47933
 C347 C 0.79001 0.12415 0.45969
 C348 C 0.77041 0.13292 0.45549
 C349 C 0.74262 0.12432 0.50694
 C350 C 0.72270 0.11622 0.50265
 C351 C 0.70728 0.11608 0.51815
 C352 C 0.71160 0.12441 0.53791
 C353 C 0.73138 0.13270 0.54223
 C354 C 0.74691 0.13247 0.52684
 H355 H 0.73973 0.13966 0.46758
 H356 H 0.78188 0.10884 0.51002
 H357 H 0.71933 0.10969 0.48740
 H358 H 0.76218 0.13896 0.53021
 H359 H 0.80197 0.12414 0.44769
 H360 H 0.69962 0.12444 0.54988
 C361 C 1.03002 0.75428 0.86850
 C362 C 1.01040 0.75851 0.87732
 C363 C 1.00646 0.77831 0.88585
 C364 C 1.02203 0.79367 0.88573
 C365 C 1.04152 0.78940 0.87671
 C366 C 1.04547 0.76973 0.86801
 C367 C 0.99399 0.74231 0.87756
 C368 C 0.99820 0.72244 0.88582
 C369 C 0.98256 0.70715 0.88624
 C370 C 0.96274 0.71156 0.87801
 C371 C 0.95852 0.73129 0.86956
 C372 C 0.97405 0.74667 0.86952
 H373 H 1.03310 0.73910 0.86168
 H374 H 0.99139 0.78159 0.89286
 H375 H 1.01352 0.71907 0.89224
 H376 H 0.97075 0.76190 0.86291
 H377 H 1.05357 0.80131 0.87642
 H378 H 0.95063 0.69971 0.87815
 C379 C 0.52817 0.25496 0.36648
 C380 C 0.50849 0.25905 0.37523
 C381 C 0.50441 0.27880 0.38383
 C382 C 0.51991 0.29421 0.38384
 C383 C 0.53945 0.29009 0.37491
 C384 C 0.54355 0.27050 0.36615
 C385 C 0.49221 0.24272 0.37538
 C386 C 0.49665 0.22277 0.38331
 C387 C 0.48118 0.20733 0.38356
 C388 C 0.46128 0.21165 0.37554
 C389 C 0.45680 0.23146 0.36743
 C390 C 0.47217 0.24700 0.36753
 H391 H 0.53138 0.23983 0.35961
 H392 H 0.48933 0.28202 0.39081
 H393 H 0.51202 0.21940 0.38959
 H394 H 0.46867 0.26229 0.36116
 H395 H 0.55140 0.30208 0.37479
 H396 H 0.44934 0.19964 0.37558
 C397 C 1.02770 0.24613 0.63230
 C398 C 1.00810 0.24150 0.62358
 C399 C 1.00453 0.22165 0.61501
 C400 C 1.02044 0.20663 0.61497
 C401 C 1.03990 0.21130 0.62388
 C402 C 1.04349 0.23101 0.63263
 C403 C 0.99138 0.25738 0.62345
 C404 C 0.99515 0.27730 0.61509
 C405 C 0.97924 0.29232 0.61481
 C406 C 0.95961 0.28760 0.62326
 C407 C 0.95583 0.26783 0.63179
 C408 C 0.97161 0.25270 0.63170
 H409 H 1.03050 0.26135 0.63914
 H410 H 0.98948 0.21807 0.60809
 H411 H 1.01033 0.28092 0.60852
 H412 H 0.96866 0.23743 0.63838
 H413 H 1.05222 0.19966 0.62404
 H414 H 0.94730 0.29925 0.62323
 C415 C 0.52805 0.74624 0.13227
 C416 C 0.50835 0.74175 0.12372
 C417 C 0.50449 0.72185 0.11540
 C418 C 0.52022 0.70666 0.11544
 C419 C 0.53978 0.71118 0.12416
 C420 C 0.54367 0.73094 0.13265
 C421 C 0.49183 0.75785 0.12346
 C422 C 0.49592 0.77772 0.11516
 C423 C 0.48024 0.79295 0.11476
 C424 C 0.46048 0.78850 0.12301
 C425 C 0.45634 0.76878 0.13149
 C426 C 0.47193 0.75344 0.13153
 H427 H 0.53110 0.76150 0.13892
 H428 H 0.48939 0.71832 0.10857
 H429 H 0.51118 0.78120 0.10870
 H430 H 0.46870 0.73821 0.13818
 H431 H 0.55192 0.69937 0.12433
 H432 H 0.44837 0.80035 0.12285
 O433 O -0.01695 0.99209 0.94154
 O434 O 0.01579 1.00664 0.93838
 O435 O -0.00794 0.94106 0.98423
 O436 O 0.00522 0.93839 1.01975
 O437 O -0.05956 0.98338 0.99334
 O438 O -0.06241 1.01778 1.00695
 O439 O 0.04558 0.99710 1.04069
 O440 O 0.04948 0.96658 1.02286
 O441 O 0.03981 1.04566 0.99861
 O442 O 0.01987 1.04874 0.96524
 O443 O -0.00333 1.04097 1.04555
 O444 O -0.03444 1.01890 1.05222
 O445 O 0.01675 1.00853 1.05816
 O446 O -0.01885 0.99367 1.06211
 O447 O 0.00763 1.05852 1.01661
 O448 O -0.00828 1.06105 0.98167
 O449 O 0.05746 1.01676 1.00940
 O450 O 0.05898 0.98318 0.98993
 O451 O -0.04572 1.00378 0.95899
 O452 O -0.05195 1.03370 0.98072
 O453 O -0.04206 0.95462 1.00477
 O454 O -0.02052 0.94915 1.03479
 O455 O 0.00319 0.95846 0.95531
 O456 O 0.03504 0.98045 0.95219
 Zr457 Zr 0.00591 0.98974 0.96503
 O458 O 0.02550 1.00920 0.98293
 Zr459 Zr -0.01077 0.96443 1.00720
 O460 O 0.00849 0.98256 1.02667
 Zr461 Zr -0.03622 1.00635 0.99044
 O462 O -0.01826 1.02623 1.00949
 Zr463 Zr 0.03463 0.99321 1.01003
 O464 O 0.01671 0.97277 0.99114
 Zr465 Zr 0.00894 1.03532 0.99351
 O466 O -0.01019 1.01715 0.97364
 Zr467 Zr -0.00731 1.00981 1.03568
 O468 O -0.02756 0.99055 1.01796
 O469 O -0.02089 0.97962 0.98040
 O470 O 0.01934 1.02004 1.02026
 C471 C -0.03601 0.99834 0.94230
 C472 C -0.00192 0.94178 0.96513
 C473 C -0.05878 0.96434 0.99951
 C474 C 0.03609 1.00326 1.05723
 C475 C 0.05642 1.03615 1.00456
 C476 C 0.00253 1.05758 1.03595
 H477 H 0.03771 1.01346 0.97445
 H478 H -0.02686 1.03834 1.01361
 H479 H -0.02985 0.97067 0.97152
 H480 H 0.01285 0.97403 1.03879
 H481 H 0.04760 0.95510 1.01271
 H482 H 0.01813 0.93660 1.01148
 H483 H -0.02055 1.06331 0.99076
 H484 H -0.04265 1.04076 0.97059
 H485 H 0.07231 0.98410 0.99777
 H486 H 0.03254 0.97324 0.93870
 H487 H -0.04090 1.03068 1.04460
 H488 H -0.06196 1.01120 1.02093
 H489 H 0.00977 1.02081 0.93959
 H490 H 0.02672 1.06226 0.96842
 H491 H -0.03036 0.95872 1.04189
 H492 H -0.01018 0.98105 1.06408
 O493 O 0.49194 0.44197 0.48413
 O494 O 0.50656 0.43851 0.51684
 O495 O 0.44094 0.48458 0.49339
 O496 O 0.43830 0.51994 0.50691
 O497 O 0.48323 0.49407 0.44195
 O498 O 0.51768 0.50776 0.43921
 O499 O 0.49716 0.54046 0.54743
 O500 O 0.46655 0.52264 0.55116
 O501 O 0.54568 0.49848 0.54132
 O502 O 0.54870 0.46527 0.52114
 O503 O 0.54097 0.54575 0.49858
 O504 O 0.51889 0.55272 0.46753
 O505 O 0.50858 0.55817 0.51874
 O506 O 0.49363 0.56246 0.48318
 O507 O 0.55853 0.51672 0.50932
 O508 O 0.56103 0.48193 0.49314
 O509 O 0.51678 0.50910 0.55905
 O510 O 0.48315 0.48963 0.56041
 O511 O 0.50363 0.45967 0.45550
 O512 O 0.53362 0.48141 0.44945
 O513 O 0.45447 0.50538 0.45953
 O514 O 0.44908 0.53524 0.48128
 O515 O 0.45834 0.45555 0.50430
 O516 O 0.48032 0.45214 0.53616
 Zr517 Zr 0.48965 0.46524 0.50716
 O518 O 0.50916 0.48292 0.52690
 Zr519 Zr 0.46434 0.50756 0.49081
 O520 O 0.48251 0.52682 0.51023
 Zr521 Zr 0.50626 0.49100 0.46525
 O522 O 0.52620 0.50986 0.48336
 Zr523 Zr 0.49318 0.50994 0.53623
 O524 O 0.47269 0.49124 0.51816
 Zr525 Zr 0.53530 0.49362 0.51043
 O526 O 0.51707 0.47396 0.49114
 Zr527 Zr 0.50979 0.53594 0.49451
 O528 O 0.49048 0.51844 0.47411
 O529 O 0.47952 0.48086 0.48050
 O530 O 0.52002 0.52027 0.52102
 C531 C 0.49815 0.44291 0.46508
 C532 C 0.44165 0.46542 0.49921
 C533 C 0.46417 0.50021 0.44278
 C534 C 0.50335 0.55706 0.53808
 C535 C 0.53619 0.50430 0.55797
 C536 C 0.55759 0.53610 0.50439
 H537 H 0.51342 0.47434 0.53904
 H538 H 0.53832 0.51405 0.47480
 H539 H 0.47056 0.47207 0.47147
 H540 H 0.47400 0.53890 0.51469
 H541 H 0.45504 0.51253 0.54918
 H542 H 0.43648 0.51151 0.51972
 H543 H 0.56330 0.49114 0.48095
 H544 H 0.54068 0.47120 0.45867
 H545 H 0.48409 0.49735 0.57380
 H546 H 0.47311 0.43869 0.53354
 H547 H 0.53064 0.54513 0.46100
 H548 H 0.51105 0.52171 0.43974
 H549 H 0.52072 0.43974 0.51080
 H550 H 0.56224 0.46838 0.52803
 H551 H 0.45865 0.54239 0.47147
 H552 H 0.48103 0.56439 0.49189
 O553 O 0.45438 0.00388 0.53911
 O554 O 0.44960 0.03390 0.51907
 O555 O 0.45933 -0.04543 0.49454
 O556 O 0.48193 -0.05145 0.46419
 O557 O 0.50423 -0.04104 0.54376
 O558 O 0.53418 -0.01980 0.54955
 O559 O 0.51645 0.00889 0.43968
 O560 O 0.48538 -0.00740 0.43615
 O561 O 0.50936 0.05836 0.48140
 O562 O 0.49093 0.06087 0.51453
 O563 O 0.55843 0.01744 0.49033
 O564 O 0.56214 -0.01813 0.50440
 O565 O 0.54534 -0.00240 0.45721
 O566 O 0.55211 -0.03344 0.47911
 O567 O 0.54095 0.04625 0.50173
 O568 O 0.52251 0.04965 0.53239
 O569 O 0.49756 0.04097 0.45271
 O570 O 0.46451 0.02056 0.45080
 O571 O 0.48337 -0.00721 0.55664
 O572 O 0.51927 0.00643 0.55973
 O573 O 0.49310 -0.05853 0.51488
 O574 O 0.50762 -0.06133 0.48060
 O575 O 0.44182 -0.01667 0.50595
 O576 O 0.44047 0.01802 0.48872
 Zr577 Zr 0.46487 0.00669 0.50814
 O578 O 0.48302 0.02653 0.48928
 Zr579 Zr 0.49055 -0.03536 0.49172
 O580 O 0.50942 -0.01712 0.47203
 Zr581 Zr 0.50693 -0.00983 0.53376
 O582 O 0.52661 0.00932 0.51575
 Zr583 Zr 0.49349 0.01006 0.46303
 O584 O 0.47344 -0.00948 0.48073
 Zr585 Zr 0.51016 0.03558 0.50511
 O586 O 0.49094 0.01760 0.52520
 Zr587 Zr 0.53568 -0.00633 0.48844
 O588 O 0.51795 -0.02660 0.50771
 O589 O 0.48034 -0.01999 0.51831
 O590 O 0.52039 0.02042 0.47822
 C591 C 0.46411 -0.00156 0.55579
 C592 C 0.44265 -0.03583 0.50017
 C593 C 0.49879 -0.05771 0.53408
 C594 C 0.53571 0.00339 0.44057
 C595 C 0.50365 0.05752 0.46220
 C596 C 0.55757 0.03667 0.49597
 H597 H 0.47454 0.03881 0.48525
 H598 H 0.53871 0.01349 0.52440
 H599 H 0.47146 -0.02893 0.52725
 H600 H 0.51329 -0.02553 0.45968
 H601 H 0.47232 -0.01493 0.43948
 H602 H 0.46967 -0.04414 0.45828
 H603 H 0.51183 0.04813 0.54344
 H604 H 0.51021 0.01871 0.56212
 H605 H 0.46703 0.02599 0.43651
 H606 H 0.42688 0.01549 0.49573
 H607 H 0.56363 -0.01015 0.51754
 H608 H 0.54148 -0.02950 0.54000
 H609 H 0.45957 0.04121 0.52835
 H610 H 0.49950 0.07376 0.51425
 H611 H 0.52127 -0.06109 0.48788
 H612 H 0.54419 -0.03997 0.46757
 O613 O 0.00335 0.45935 1.04598
 O614 O 0.03353 0.47915 1.05085
 O615 O -0.04574 0.50435 1.04134
 O616 O -0.05177 0.53473 1.01889
 O617 O -0.04166 0.45534 0.99616
 O618 O -0.02047 0.44970 0.96615
 O619 O 0.00873 0.55923 0.98461
 O620 O -0.00749 0.56255 1.01576
 O621 O 0.05810 0.51722 0.99134
 O622 O 0.06049 0.48396 1.00961
 O623 O 0.01707 0.50892 0.94232
 O624 O -0.01852 0.49508 0.93845
 O625 O -0.00267 0.54200 0.95562
 O626 O -0.03385 0.52024 0.94875
 O627 O 0.04586 0.49720 0.95971
 O628 O 0.04916 0.46640 0.97792
 O629 O 0.04084 0.54590 1.00328
 O630 O 0.02057 0.54762 1.03641
 O631 O -0.00783 0.44212 1.01688
 O632 O 0.00576 0.43926 0.98097
 O633 O -0.05901 0.48421 1.00751
 O634 O -0.06166 0.51858 0.99312
 O635 O -0.01700 0.49262 1.05876
 O636 O 0.01783 0.50950 1.06022
 Zr637 Zr 0.00633 0.49039 1.03569
 O638 O 0.02625 0.50929 1.01767
 Zr639 Zr -0.03572 0.50723 1.01013
 O640 O -0.01739 0.52697 0.99141
 Zr641 Zr -0.01039 0.46521 0.99349
 O642 O 0.00884 0.48327 0.97394
 Zr643 Zr 0.00987 0.53569 1.00739
 O644 O -0.00975 0.51793 1.02731
 Zr645 Zr 0.03520 0.49363 0.99045
 O646 O 0.01714 0.47349 1.00951
 Zr647 Zr -0.00670 0.51071 0.96506
 O648 O -0.02706 0.49141 0.98264
 O649 O -0.02045 0.48049 1.02018
 O650 O 0.02014 0.52067 0.98040
 C651 C -0.00216 0.44278 1.03613
 C652 C -0.03613 0.49859 1.05797
 C653 C -0.05830 0.46506 1.00169
 C654 C 0.00320 0.55852 0.96535
 C655 C 0.05735 0.53639 0.99710
 C656 C 0.03629 0.50318 0.94315
 H657 H 0.03858 0.51320 1.02616
 H658 H 0.01298 0.47470 0.96178
 H659 H -0.02943 0.47155 1.02902
 H660 H -0.02577 0.53939 0.98764
 H661 H -0.01491 0.55917 1.02887
 H662 H -0.04432 0.54064 1.03106
 H663 H 0.04760 0.45528 0.98853
 H664 H 0.01806 0.43676 0.98998
 H665 H 0.02602 0.56190 1.03397
 H666 H 0.01529 0.50239 1.07375
 H667 H -0.01069 0.48186 0.93694
 H668 H -0.03015 0.45935 0.95892
 H669 H 0.04076 0.46989 1.04082
 H670 H 0.07338 0.48425 1.00104
 H671 H -0.06150 0.51133 0.97947
 H672 H -0.04030 0.53180 0.95670
 O673 O 0.05776 0.48276 0.50799
 O674 O 0.06100 0.51547 0.49333
 O675 O 0.01551 0.49189 0.55925
 O676 O -0.01990 0.50524 0.56219
 O677 O 0.00582 0.44048 0.51693
 O678 O -0.00813 0.43775 0.48260
 O679 O -0.04104 0.54581 0.50355
 O680 O -0.02301 0.54956 0.53399
 O681 O 0.00067 0.53987 0.45475
 O682 O 0.03389 0.51969 0.45144
 O683 O -0.04655 0.49694 0.45971
 O684 O -0.05328 0.46595 0.48183
 O685 O -0.05878 0.51710 0.49223
 O686 O -0.06284 0.48154 0.50715
 O687 O -0.01768 0.50779 0.44196
 O688 O 0.01711 0.49179 0.43914
 O689 O -0.00975 0.55753 0.48376
 O690 O 0.00992 0.55884 0.51728
 O691 O 0.04004 0.45412 0.49637
 O692 O 0.01807 0.44810 0.46650
 O693 O -0.00530 0.45797 0.54580
 O694 O -0.03524 0.47965 0.55144
 O695 O 0.04438 0.50290 0.54166
 O696 O 0.04755 0.53473 0.51969
 Zr697 Zr 0.03442 0.50573 0.51043
 O698 O 0.01651 0.52543 0.49109
 Zr699 Zr -0.00767 0.48925 0.53602
 O700 O -0.02715 0.50864 0.51803
 Zr701 Zr 0.00864 0.46380 0.49395
 O702 O -0.01047 0.48188 0.47420
 Zr703 Zr -0.01043 0.53467 0.50728
 O704 O 0.00851 0.51664 0.52760
 Zr705 Zr 0.00562 0.50898 0.46502
 O706 O 0.02552 0.48972 0.48306
 Zr707 Zr -0.03647 0.49294 0.49082
 O708 O -0.01872 0.47257 0.50994
 O709 O 0.01896 0.47903 0.52064
 O710 O -0.02096 0.51949 0.48049
 C711 C 0.05683 0.46372 0.50177
 C712 C 0.03465 0.49778 0.55840
 C713 C -0.00017 0.44126 0.53604
 C714 C -0.05769 0.53642 0.49748
 C715 C -0.00506 0.55649 0.46433
 C716 C -0.03704 0.50275 0.44303
 H717 H 0.02504 0.53758 0.48680
 H718 H -0.01474 0.47331 0.46211
 H719 H 0.02786 0.47003 0.52953
 H720 H -0.03918 0.51306 0.52665
 H721 H -0.01284 0.54754 0.54545
 H722 H -0.01154 0.51809 0.56394
 H723 H 0.00801 0.47950 0.43703
 H724 H 0.02825 0.45732 0.45942
 H725 H 0.00218 0.57222 0.51639
 H726 H 0.06109 0.53213 0.52678
 H727 H -0.04573 0.45940 0.47007
 H728 H -0.02204 0.43822 0.48933
 H729 H 0.05971 0.50937 0.47920
 H730 H 0.03067 0.52665 0.43797
 H731 H -0.04241 0.46980 0.54192
 H732 H -0.06469 0.49023 0.51978
 O733 O 0.45764 1.04566 0.00294
 O734 O 0.47771 1.05026 0.03304
 O735 O 0.50220 1.04121 -0.04644
 O736 O 0.53263 1.01874 -0.05268
 O737 O 0.45314 0.99616 -0.04225
 O738 O 0.44755 0.96605 -0.02118
 O739 O 0.55744 0.98398 0.00739
 O740 O 0.56076 1.01517 -0.00870
 O741 O 0.51579 0.99056 0.05704
 O742 O 0.48256 1.00887 0.05972
 O743 O 0.50701 0.94181 0.01583
 O744 O 0.49284 0.93826 -0.01973
 O745 O 0.54001 0.95513 -0.00404
 O746 O 0.51803 0.94849 -0.03507
 O747 O 0.49557 0.95904 0.04478
 O748 O 0.46482 0.97731 0.04836
 O749 O 0.54440 1.00253 0.03965
 O750 O 0.54610 1.03572 0.01950
 O751 O 0.44022 1.01670 -0.00830
 O752 O 0.43734 0.98074 0.00520
 O753 O 0.48194 1.00752 -0.05971
 O754 O 0.51627 0.99312 -0.06269
 O755 O 0.49076 1.05846 -0.01754
 O756 O 0.50799 1.05965 0.01716
 Zr757 Zr 0.48868 1.03526 0.00569
 O758 O 0.50770 1.01707 0.02538
 Zr759 Zr 0.50516 1.00995 -0.03657
 O760 O 0.52498 0.99104 -0.01849
 Zr761 Zr 0.46323 0.99326 -0.01107
 O762 O 0.48138 0.97354 0.00794
 Zr763 Zr 0.53397 1.00681 0.00878
 O764 O 0.51612 1.02692 -0.01060
 Zr765 Zr 0.49201 0.98985 0.03429
 O766 O 0.47177 1.00908 0.01647
 Zr767 Zr 0.50871 0.96468 -0.00782
 O768 O 0.48931 0.98246 -0.02796
 O769 O 0.47854 1.01995 -0.02108
 O770 O 0.51892 0.97982 0.01901
 C771 C 0.44099 1.03591 -0.00256
 C772 C 0.49653 1.05778 -0.03671
 C773 C 0.46277 1.00177 -0.05890
 C774 C 0.55663 0.96476 0.00178
 C775 C 0.53498 0.99630 0.05618
 C776 C 0.50141 0.94253 0.03509
 H777 H 0.51173 1.02547 0.03772
 H778 H 0.47280 0.96139 0.01207
 H779 H 0.46955 1.02886 -0.02996
 H780 H 0.53733 0.98729 -0.02696
 H781 H 0.55735 1.02830 -0.01608
 H782 H 0.53852 1.03095 -0.04530
 H783 H 0.45370 0.98793 0.04691
 H784 H 0.43493 0.98972 0.01752
 H785 H 0.56042 1.03321 0.02485
 H786 H 0.50089 1.07321 0.01475
 H787 H 0.47972 0.93667 -0.01174
 H788 H 0.45711 0.95886 -0.03095
 H789 H 0.46842 1.04024 0.04025
 H790 H 0.48292 1.00023 0.07257
 H791 H 0.50904 0.97946 -0.06253
 H792 H 0.52952 0.95648 -0.04159
 O793 O 0.44096 0.51523 0.00796
 O794 O 0.43775 0.48251 -0.00655
 O795 O 0.48340 0.50620 0.05926
 O796 O 0.51884 0.49288 0.06214
 O797 O 0.49284 0.55763 0.01693
 O798 O 0.50670 0.56043 -0.01740
 O799 O 0.53993 0.45243 0.00349
 O800 O 0.52195 0.44864 0.03398
 O801 O 0.49812 0.45833 -0.04527
 O802 O 0.46482 0.47833 -0.04855
 O803 O 0.54520 0.50129 -0.04036
 O804 O 0.55191 0.53233 -0.01827
 O805 O 0.55757 0.48117 -0.00787
 O806 O 0.56158 0.51674 0.00706
 O807 O 0.51629 0.49042 -0.05807
 O808 O 0.48140 0.50641 -0.06079
 O809 O 0.50868 0.44067 -0.01629
 O810 O 0.48904 0.43923 0.01722
 O811 O 0.45859 0.54391 -0.00367
 O812 O 0.48052 0.55004 -0.03350
 O813 O 0.50411 0.54015 0.04577
 O814 O 0.53408 0.51854 0.05140
 O815 O 0.45449 0.49515 0.04172
 O816 O 0.45138 0.46328 0.01976
 Zr817 Zr 0.46437 0.49233 0.01048
 O818 O 0.48229 0.47268 -0.00889
 Zr819 Zr 0.50650 0.50888 0.03600
 O820 O 0.52599 0.48955 0.01799
 Zr821 Zr 0.49002 0.53432 -0.00605
 O822 O 0.50912 0.51630 -0.02583
 Zr823 Zr 0.50930 0.46349 0.00726
 O824 O 0.49037 0.48146 0.02760
 Zr825 Zr 0.49306 0.48918 -0.03498
 O826 O 0.47316 0.50837 -0.01692
 Zr827 Zr 0.53519 0.50529 -0.00924
 O828 O 0.51745 0.52561 0.00990
 O829 O 0.47980 0.51906 0.02065
 O830 O 0.51971 0.47872 -0.01953
 C831 C 0.44182 0.53427 0.00170
 C832 C 0.46426 0.50029 0.05845
 C833 C 0.49891 0.55685 0.03602
 C834 C 0.55654 0.46184 -0.00262
 C835 C 0.50396 0.44172 -0.03572
 C836 C 0.53565 0.49546 -0.05702
 H837 H 0.47378 0.46051 -0.01318
 H838 H 0.51333 0.52488 -0.03793
 H839 H 0.47090 0.52804 0.02954
 H840 H 0.53805 0.48516 0.02658
 H841 H 0.51176 0.45057 0.04542
 H842 H 0.51048 0.48002 0.06391
 H843 H 0.49057 0.51863 -0.06302
 H844 H 0.47036 0.54080 -0.04060
 H845 H 0.49685 0.42589 0.01635
 H846 H 0.43787 0.46583 0.02691
 H847 H 0.54433 0.53884 -0.03005
 H848 H 0.52064 0.55996 -0.01072
 H849 H 0.43906 0.48848 -0.02074
 H850 H 0.46805 0.47147 -0.06206
 H851 H 0.54124 0.52837 0.04186
 H852 H 0.56350 0.50803 0.01967
 O853 O -0.05858 0.01623 0.50816
 O854 O -0.06186 -0.01657 0.49382
 O855 O -0.01562 0.00753 0.55907
 O856 O 0.01989 -0.00570 0.56165
 O857 O -0.00667 0.05878 0.51637
 O858 O 0.00683 0.06140 0.48186
 O859 O 0.04047 -0.04639 0.50305
 O860 O 0.02277 -0.05005 0.53374
 O861 O -0.00182 -0.04086 0.45464
 O862 O -0.03521 -0.02097 0.45160
 O863 O 0.04520 0.00217 0.45885
 O864 O 0.05203 0.03342 0.48069
 O865 O 0.05793 -0.01767 0.49135
 O866 O 0.06203 0.01798 0.50599
 O867 O 0.01614 -0.00884 0.44149
 O868 O -0.01882 0.00710 0.43904
 O869 O 0.00909 -0.05833 0.48362
 O870 O -0.01025 -0.05965 0.51729
 O871 O -0.04112 0.04488 0.49620
 O872 O -0.01952 0.05090 0.46612
 O873 O 0.00490 0.04146 0.54520
 O874 O 0.03495 0.01995 0.55064
 O875 O -0.04467 -0.00367 0.54187
 O876 O -0.04795 -0.03564 0.52010
 Zr877 Zr -0.03510 -0.00662 0.51054
 O878 O -0.01734 -0.02634 0.49111
 Zr879 Zr 0.00725 0.01015 0.53556
 O880 O 0.02659 -0.00923 0.51745
 Zr881 Zr -0.00969 0.03534 0.49354
 O882 O 0.00923 0.01724 0.47366
 Zr883 Zr 0.00985 -0.03539 0.50704
 O884 O -0.00892 -0.01734 0.52747
 Zr885 Zr -0.00686 -0.00997 0.46482
 O886 O -0.02661 0.00928 0.48298
 Zr887 Zr 0.03549 0.00638 0.49004
 O888 O 0.01790 0.02676 0.50927
 O889 O -0.01962 0.02019 0.52042
 O890 O 0.01996 -0.02028 0.48006
 C891 C -0.05781 0.03523 0.50179
 C892 C -0.03475 0.00156 0.55848
 C893 C -0.00042 0.05811 0.53540
 C894 C 0.05699 -0.03697 0.49673
 C895 C 0.00419 -0.05740 0.46423
 C896 C 0.03551 -0.00379 0.44232
 H897 H -0.02586 -0.03856 0.48697
 H898 H 0.01330 0.02576 0.46146
 H899 H -0.02845 0.02920 0.52935
 H900 H 0.03875 -0.01354 0.52595
 H901 H 0.01266 -0.04812 0.54525
 H902 H 0.01158 -0.01856 0.56358
 H903 H -0.00968 0.01930 0.43662
 H904 H -0.02970 0.04158 0.45915
 H905 H -0.00241 -0.07297 0.51644
 H906 H -0.06140 -0.03308 0.52736
 H907 H 0.04436 0.03978 0.46888
 H908 H 0.02083 0.06098 0.48841
 H909 H -0.06071 -0.01065 0.47960
 H910 H -0.03210 -0.02789 0.43809
 H911 H 0.04200 0.02974 0.54097
 H912 H 0.06406 0.00939 0.51866
 O913 O 0.74241 0.23305 0.30747
 O914 O 0.75715 0.26572 0.31082
 O915 O 0.69111 0.24250 0.26522
 O916 O 0.68822 0.25614 0.22987
 O917 O 0.73320 0.19101 0.25538
 O918 O 0.76753 0.18816 0.24145
 O919 O 0.74699 0.29644 0.20891
 O920 O 0.71659 0.30028 0.22692
 O921 O 0.79581 0.29013 0.25072
 O922 O 0.79908 0.26977 0.28380
 O923 O 0.79066 0.24742 0.20328
 O924 O 0.76844 0.21656 0.19641
 O925 O 0.75816 0.26775 0.19108
 O926 O 0.74313 0.23224 0.18692
 O927 O 0.80847 0.25809 0.23220
 O928 O 0.81126 0.24189 0.26690
 O929 O 0.76687 0.30796 0.24031
 O930 O 0.73333 0.30935 0.25989
 O931 O 0.75390 0.20442 0.28967
 O932 O 0.78371 0.19833 0.26768
 O933 O 0.70440 0.20869 0.24427
 O934 O 0.69880 0.23050 0.21446
 O935 O 0.70876 0.25332 0.29414
 O936 O 0.73082 0.28510 0.29741
 Zr937 Zr 0.74000 0.25611 0.28422
 O938 O 0.75941 0.27579 0.26639
 Zr939 Zr 0.71431 0.23992 0.24205
 O940 O 0.73238 0.25930 0.22266
 Zr941 Zr 0.75630 0.21420 0.25830
 O942 O 0.77612 0.23227 0.23929
 Zr943 Zr 0.74324 0.28522 0.23948
 O944 O 0.72286 0.26721 0.25833
 Zr945 Zr 0.78543 0.25926 0.25548
 O946 O 0.76732 0.24001 0.27529
 Zr947 Zr 0.75954 0.24351 0.21332
 O948 O 0.74033 0.22316 0.23096
 O949 O 0.72968 0.22952 0.26865
 O950 O 0.76998 0.26996 0.22892
 C951 C 0.74857 0.21399 0.30649
 C952 C 0.69199 0.24828 0.28439
 C953 C 0.71409 0.19191 0.24937
 C954 C 0.75297 0.28708 0.19223
 C955 C 0.78629 0.30683 0.24506
 C956 C 0.80737 0.25313 0.21282
 H957 H 0.76376 0.28788 0.27497
 H958 H 0.78818 0.22367 0.23500
 H959 H 0.72077 0.22052 0.27750
 H960 H 0.72377 0.26379 0.21064
 H961 H 0.70510 0.29823 0.23703
 H962 H 0.68645 0.26888 0.23839
 H963 H 0.81333 0.22965 0.25774
 H964 H 0.79086 0.20749 0.27787
 H965 H 0.73427 0.32276 0.25220
 H966 H 0.72372 0.28248 0.31093
 H967 H 0.78016 0.20991 0.20397
 H968 H 0.76079 0.18873 0.22754
 H969 H 0.77126 0.25956 0.30953
 H970 H 0.81259 0.27667 0.28063
 H971 H 0.70828 0.22066 0.20724
 H972 H 0.73053 0.24100 0.18508
 O973 O 0.75576 0.70359 0.71239
 O974 O 0.78570 0.69884 0.73270
 O975 O 0.70616 0.70927 0.75654
 O976 O 0.70004 0.73216 0.78665
 O977 O 0.71124 0.75371 0.70699
 O978 O 0.73279 0.78341 0.70113
 O979 O 0.76037 0.76642 0.81141
 O980 O 0.74392 0.73548 0.81501
 O981 O 0.81027 0.75864 0.77015
 O982 O 0.81290 0.73990 0.73718
 O983 O 0.76975 0.80785 0.76049
 O984 O 0.73429 0.81171 0.74605
 O985 O 0.74944 0.79521 0.79354
 O986 O 0.71869 0.80204 0.77127
 O987 O 0.79854 0.79009 0.74943
 O988 O 0.80208 0.77139 0.71899
 O989 O 0.79255 0.74728 0.79880
 O990 O 0.77194 0.71439 0.80079
 O991 O 0.74500 0.73249 0.69455
 O992 O 0.75901 0.76820 0.69129
 O993 O 0.69344 0.74293 0.73581
 O994 O 0.69046 0.75773 0.76994
 O995 O 0.73491 0.69148 0.74552
 O996 O 0.76949 0.69003 0.76299
 Zr997 Zr 0.75846 0.71433 0.74331
 O998 O 0.77829 0.73248 0.76221
 Zr999 Zr 0.71642 0.74042 0.75918
 O1000 O 0.73465 0.75931 0.77887
 Zr1001 Zr 0.74242 0.75625 0.71723
 O1002 O 0.76158 0.77592 0.73524
 Zr1003 Zr 0.76167 0.74329 0.78823
 O1004 O 0.74212 0.72324 0.77052
 Zr1005 Zr 0.78767 0.75939 0.74623
 O1006 O 0.76970 0.74016 0.72614
 Zr1007 Zr 0.74577 0.78533 0.76233
 O1008 O 0.72550 0.76760 0.74305
 O1009 O 0.73195 0.72989 0.73280
 O1010 O 0.77236 0.76996 0.77292
 C1011 C 0.75049 0.71321 0.69559
 C1012 C 0.71570 0.69249 0.75115
 C1013 C 0.69444 0.74847 0.71659
 C1014 C 0.75497 0.78569 0.81032
 C1015 C 0.80923 0.75315 0.78940
 C1016 C 0.78903 0.80681 0.75499
 H1017 H 0.79049 0.72397 0.76641
 H1018 H 0.76592 0.78790 0.72653
 H1019 H 0.72299 0.72100 0.72387
 H1020 H 0.72615 0.76333 0.79111
 H1021 H 0.73637 0.72242 0.81171
 H1022 H 0.70723 0.71993 0.79273
 H1023 H 0.80054 0.76066 0.70800
 H1024 H 0.77123 0.75902 0.68907
 H1025 H 0.77725 0.71700 0.81510
 H1026 H 0.76695 0.67642 0.75604
 H1027 H 0.74242 0.81305 0.73299
 H1028 H 0.72306 0.79087 0.71054
 H1029 H 0.79309 0.70864 0.72333
 H1030 H 0.82587 0.74836 0.73752
 H1031 H 0.69084 0.77130 0.76254
 H1032 H 0.71194 0.79423 0.78276
 O1033 O 0.28905 0.25472 0.79793
 O1034 O 0.26874 0.28456 0.80278
 O1035 O 0.24485 0.20514 0.79214
 O1036 O 0.21472 0.19907 0.76924
 O1037 O 0.29438 0.21036 0.74769
 O1038 O 0.30025 0.23194 0.71805
 O1039 O 0.18995 0.25950 0.73506
 O1040 O 0.18635 0.24295 0.76600
 O1041 O 0.23126 0.30927 0.74289
 O1042 O 0.26424 0.31188 0.76168
 O1043 O 0.24079 0.26890 0.69364
 O1044 O 0.25522 0.23352 0.68969
 O1045 O 0.20778 0.24863 0.70624
 O1046 O 0.23003 0.21784 0.69941
 O1047 O 0.25190 0.29762 0.71144
 O1048 O 0.28243 0.30109 0.73017
 O1049 O 0.20260 0.29155 0.75424
 O1050 O 0.20062 0.27091 0.78714
 O1051 O 0.30686 0.24404 0.76900
 O1052 O 0.31008 0.25812 0.73328
 O1053 O 0.26555 0.19253 0.75843
 O1054 O 0.23137 0.18960 0.74361
 O1055 O 0.25591 0.23381 0.81000
 O1056 O 0.23843 0.26837 0.81151
 Zr1057 Zr 0.25811 0.25741 0.78719
 O1058 O 0.23921 0.27727 0.76905
 Zr1059 Zr 0.24218 0.21548 0.76100
 O1060 O 0.22247 0.23374 0.74213
 Zr1061 Zr 0.28415 0.24150 0.74522
 O1062 O 0.26612 0.26068 0.72556
 Zr1063 Zr 0.21315 0.26070 0.75821
 O1064 O 0.23087 0.24111 0.77824
 Zr1065 Zr 0.25516 0.28670 0.74215
 O1066 O 0.27527 0.26871 0.76137
 Zr1067 Zr 0.23899 0.24489 0.71613
 O1068 O 0.25830 0.22462 0.73383
 O1069 O 0.26859 0.23097 0.77157
 O1070 O 0.22845 0.27142 0.73156
 C1071 C 0.30584 0.24949 0.78829
 C1072 C 0.25027 0.21462 0.80894
 C1073 C 0.28478 0.19356 0.75288
 C1074 C 0.19102 0.25418 0.71577
 C1075 C 0.21201 0.30822 0.74836
 C1076 C 0.24628 0.28816 0.69471
 H1077 H 0.23501 0.28945 0.77759
 H1078 H 0.27482 0.26504 0.71357
 H1079 H 0.27754 0.22200 0.78045
 H1080 H 0.21021 0.22526 0.73810
 H1081 H 0.18965 0.23539 0.77906
 H1082 H 0.20862 0.20626 0.78146
 H1083 H 0.29342 0.29957 0.74093
 H1084 H 0.31233 0.27029 0.74250
 H1085 H 0.18631 0.27622 0.78453
 H1086 H 0.24536 0.26576 0.82513
 H1087 H 0.26830 0.24162 0.68837
 H1088 H 0.29080 0.22229 0.71053
 H1089 H 0.27804 0.29203 0.79297
 H1090 H 0.26392 0.32485 0.75321
 H1091 H 0.23877 0.19000 0.73005
 H1092 H 0.21846 0.21116 0.70714
 O1093 O 0.20928 0.74552 0.29376
 O1094 O 0.22956 0.71566 0.29845
 O1095 O 0.25353 0.79512 0.28826
 O1096 O 0.28358 0.80135 0.26537
 O1097 O 0.20387 0.79026 0.24387
 O1098 O 0.19799 0.76892 0.21401
 O1099 O 0.30825 0.74104 0.23087
 O1100 O 0.31195 0.75742 0.26184
 O1101 O 0.26690 0.69127 0.23852
 O1102 O 0.23390 0.68862 0.25718
 O1103 O 0.25733 0.73201 0.18938
 O1104 O 0.24297 0.76739 0.18562
 O1105 O 0.29040 0.75217 0.20212
 O1106 O 0.26814 0.78303 0.19548
 O1107 O 0.24628 0.70317 0.20703
 O1108 O 0.21576 0.69961 0.22568
 O1109 O 0.29559 0.70890 0.24999
 O1110 O 0.29765 0.72945 0.28293
 O1111 O 0.19140 0.75639 0.26490
 O1112 O 0.18811 0.74264 0.22907
 O1113 O 0.23274 0.80798 0.25470
 O1114 O 0.26687 0.81097 0.23979
 O1115 O 0.24246 0.76634 0.30595
 O1116 O 0.25989 0.73176 0.30726
 Zr1117 Zr 0.24019 0.74290 0.28300
 O1118 O 0.25904 0.72314 0.26476
 Zr1119 Zr 0.25610 0.78499 0.25706
 O1120 O 0.27577 0.76683 0.23809
 Zr1121 Zr 0.21408 0.75913 0.24114
 O1122 O 0.23207 0.74005 0.22137
 Zr1123 Zr 0.28510 0.73976 0.25402
 O1124 O 0.26742 0.75924 0.27415
 Zr1125 Zr 0.24303 0.71390 0.23780
 O1126 O 0.22298 0.73179 0.25712
 Zr1127 Zr 0.25920 0.75586 0.21202
 O1128 O 0.23993 0.77605 0.22984
 O1129 O 0.22970 0.76946 0.26755
 O1130 O 0.26975 0.72922 0.22730
 C1131 C 0.19247 0.75080 0.28416
 C1132 C 0.24813 0.78553 0.30501
 C1133 C 0.21348 0.80702 0.24920
 C1134 C 0.30717 0.74651 0.21161
 C1135 C 0.28615 0.69226 0.24407
 C1136 C 0.25186 0.71274 0.19035
 H1137 H 0.26322 0.71091 0.27324
 H1138 H 0.22335 0.73577 0.20936
 H1139 H 0.22078 0.77836 0.27649
 H1140 H 0.28803 0.77533 0.23411
 H1141 H 0.30867 0.76498 0.27489
 H1142 H 0.28972 0.79407 0.27754
 H1143 H 0.20476 0.70110 0.23641
 H1144 H 0.18588 0.73038 0.23818
 H1145 H 0.31195 0.72411 0.28031
 H1146 H 0.25299 0.73428 0.32090
 H1147 H 0.22981 0.75941 0.18434
 H1148 H 0.20741 0.77868 0.20661
 H1149 H 0.22024 0.70826 0.28859
 H1150 H 0.23420 0.67570 0.24865
 H1151 H 0.25940 0.81068 0.22625
 H1152 H 0.27974 0.78964 0.20324
 O1153 O 0.29093 0.74675 0.70232
 O1154 O 0.27064 0.71679 0.69764
 O1155 O 0.24673 0.79632 0.70770
 O1156 O 0.21652 0.80248 0.73048
 O1157 O 0.29618 0.79136 0.75230
 O1158 O 0.30200 0.76994 0.78212
 O1159 O 0.19176 0.74231 0.76498
 O1160 O 0.18820 0.75871 0.73394
 O1161 O 0.23307 0.69248 0.75750
 O1162 O 0.26609 0.68977 0.73880
 O1163 O 0.24258 0.73311 0.80657
 O1164 O 0.25703 0.76855 0.81032
 O1165 O 0.20957 0.75332 0.79378
 O1166 O 0.23178 0.78411 0.80052
 O1167 O 0.25369 0.70428 0.78894
 O1168 O 0.28422 0.70069 0.77032
 O1169 O 0.20442 0.71016 0.74599
 O1170 O 0.20247 0.73061 0.71298
 O1171 O 0.30870 0.75759 0.73123
 O1172 O 0.31190 0.74367 0.76703
 O1173 O 0.26735 0.80911 0.74137
 O1174 O 0.23318 0.81216 0.75607
 O1175 O 0.25781 0.76752 0.69003
 O1176 O 0.24035 0.73298 0.68866
 Zr1177 Zr 0.25998 0.74407 0.71300
 O1178 O 0.24105 0.72433 0.73119
 Zr1179 Zr 0.24400 0.78615 0.73889
 O1180 O 0.22428 0.76802 0.75783
 Zr1181 Zr 0.28597 0.76023 0.75494
 O1182 O 0.26792 0.74115 0.77466
 Zr1183 Zr 0.21497 0.74098 0.74188
 O1184 O 0.23272 0.76042 0.72177
 Zr1185 Zr 0.25698 0.71505 0.75819
 O1186 O 0.27711 0.73292 0.73892
 Zr1187 Zr 0.24079 0.75699 0.78394
 O1188 O 0.26010 0.77717 0.76616
 O1189 O 0.27043 0.77060 0.72849
 O1190 O 0.23026 0.73039 0.76863
 C1191 C 0.30770 0.75207 0.71196
 C1192 C 0.25219 0.78673 0.69096
 C1193 C 0.28658 0.80812 0.74695
 C1194 C 0.19281 0.74773 0.78425
 C1195 C 0.21382 0.69351 0.75199
 C1196 C 0.24805 0.71383 0.80561
 H1197 H 0.23686 0.71211 0.72271
 H1198 H 0.27661 0.73685 0.78669
 H1199 H 0.27937 0.77951 0.71959
 H1200 H 0.21202 0.77653 0.76179
 H1201 H 0.19151 0.76619 0.72084
 H1202 H 0.21050 0.79527 0.71822
 H1203 H 0.29524 0.70218 0.75960
 H1204 H 0.31415 0.73145 0.75788
 H1205 H 0.18815 0.72533 0.71558
 H1206 H 0.24734 0.73546 0.67506
 H1207 H 0.27007 0.76039 0.81176
 H1208 H 0.29256 0.77967 0.78952
 H1209 H 0.28004 0.70947 0.70748
 H1210 H 0.26574 0.67684 0.74732
 H1211 H 0.24053 0.81181 0.76968
 H1212 H 0.22027 0.79080 0.79268
 O1213 O 0.25359 0.20349 0.21100
 O1214 O 0.28358 0.19873 0.23116
 O1215 O 0.20407 0.20849 0.25536
 O1216 O 0.19786 0.23111 0.28562
 O1217 O 0.20873 0.25331 0.20611
 O1218 O 0.23002 0.28323 0.20044
 O1219 O 0.25824 0.26554 0.31045
 O1220 O 0.24187 0.23451 0.31390
 O1221 O 0.30791 0.25843 0.26900
 O1222 O 0.31057 0.24000 0.23585
 O1223 O 0.26702 0.30746 0.25990
 O1224 O 0.23151 0.31120 0.24562
 O1225 O 0.24701 0.29440 0.29288
 O1226 O 0.21602 0.30116 0.27080
 O1227 O 0.29590 0.28998 0.24864
 O1228 O 0.29944 0.27158 0.21797
 O1229 O 0.29037 0.24667 0.29759
 O1230 O 0.26994 0.21365 0.29939
 O1231 O 0.24260 0.23246 0.19341
 O1232 O 0.25634 0.26832 0.19040
 O1233 O 0.19107 0.24219 0.23489
 O1234 O 0.18812 0.25679 0.26916
 O1235 O 0.23290 0.19098 0.24410
 O1236 O 0.26757 0.18962 0.26145
 Zr1237 Zr 0.25630 0.21400 0.24199
 O1238 O 0.27609 0.23213 0.26094
 Zr1239 Zr 0.21414 0.23969 0.25819
 O1240 O 0.23232 0.25853 0.27798
 Zr1241 Zr 0.23991 0.25601 0.21628
 O1242 O 0.25899 0.27568 0.23440
 Zr1243 Zr 0.25948 0.24260 0.28711
 O1244 O 0.23999 0.22258 0.26931
 Zr1245 Zr 0.28523 0.25923 0.24516
 O1246 O 0.26732 0.24003 0.22498
 Zr1247 Zr 0.24321 0.28475 0.26162
 O1248 O 0.22300 0.26705 0.24225
 O1249 O 0.22966 0.22946 0.23168
 O1250 O 0.26993 0.26946 0.27197
 C1251 C 0.24822 0.21321 0.19430
 C1252 C 0.21370 0.19182 0.24980
 C1253 C 0.19199 0.24786 0.21570
 C1254 C 0.25276 0.28480 0.30953
 C1255 C 0.30698 0.25276 0.28820
 C1256 C 0.28630 0.30659 0.25439
 H1257 H 0.28836 0.22366 0.26504
 H1258 H 0.26323 0.28777 0.22578
 H1259 H 0.22074 0.22058 0.22271
 H1260 H 0.22385 0.26239 0.29029
 H1261 H 0.23438 0.22144 0.31054
 H1262 H 0.20519 0.21892 0.29164
 H1263 H 0.29795 0.26092 0.20690
 H1264 H 0.26860 0.25923 0.18806
 H1265 H 0.27529 0.21617 0.31371
 H1266 H 0.26505 0.17604 0.25443
 H1267 H 0.23954 0.31268 0.23252
 H1268 H 0.22027 0.29054 0.20994
 H1269 H 0.29093 0.20868 0.22191
 H1270 H 0.32348 0.24856 0.23621
 H1271 H 0.18838 0.27039 0.26182
 H1272 H 0.20944 0.29327 0.28233
 O1273 O 0.79521 0.71010 0.24783
 O1274 O 0.80007 0.73024 0.21787
 O1275 O 0.78973 0.75451 0.29726
 O1276 O 0.76688 0.78460 0.30337
 O1277 O 0.74507 0.70507 0.29230
 O1278 O 0.71527 0.69933 0.27078
 O1279 O 0.73277 0.80932 0.24284
 O1280 O 0.76375 0.81284 0.25936
 O1281 O 0.74036 0.76792 0.19313
 O1282 O 0.75897 0.73485 0.19061
 O1283 O 0.69107 0.75867 0.23363
 O1284 O 0.68713 0.74435 0.26907
 O1285 O 0.70388 0.79165 0.25382
 O1286 O 0.69698 0.76953 0.28467
 O1287 O 0.70880 0.74747 0.20489
 O1288 O 0.72735 0.71689 0.20145
 O1289 O 0.75186 0.79655 0.21079
 O1290 O 0.78480 0.79842 0.23139
 O1291 O 0.76620 0.69244 0.25858
 O1292 O 0.73043 0.68930 0.24461
 O1293 O 0.75601 0.73388 0.31002
 O1294 O 0.74123 0.76805 0.31289
 O1295 O 0.80748 0.74329 0.26858
 O1296 O 0.80900 0.76053 0.23393
 Zr1297 Zr 0.78459 0.74104 0.24503
 O1298 O 0.76651 0.75995 0.22514
 Zr1299 Zr 0.75855 0.75716 0.28699
 O1300 O 0.73973 0.77688 0.26870
 Zr1301 Zr 0.74253 0.71523 0.26111
 O1302 O 0.72292 0.73327 0.24188
 Zr1303 Zr 0.75582 0.78606 0.24168
 O1304 O 0.77580 0.76832 0.26129
 Zr1305 Zr 0.73951 0.74409 0.21579
 O1306 O 0.75866 0.72397 0.23383
 Zr1307 Zr 0.71362 0.76044 0.25761
 O1308 O 0.73128 0.74114 0.27794
 O1309 O 0.76899 0.73070 0.27156
 O1310 O 0.72906 0.77085 0.23102
 C1311 C 0.78549 0.69337 0.25311
 C1312 C 0.80649 0.74904 0.28774
 C1313 C 0.75039 0.71468 0.30907
 C1314 C 0.71347 0.80834 0.24820
 C1315 C 0.74593 0.78714 0.19413
 C1316 C 0.69210 0.75316 0.21437
 H1317 H 0.77505 0.76407 0.21294
 H1318 H 0.71088 0.72461 0.23755
 H1319 H 0.77787 0.72177 0.28053
 H1320 H 0.73576 0.78916 0.27716
 H1321 H 0.77683 0.80952 0.26689
 H1322 H 0.77907 0.79070 0.29611
 H1323 H 0.73804 0.70585 0.20303
 H1324 H 0.73956 0.68703 0.23238
 H1325 H 0.78226 0.81273 0.22606
 H1326 H 0.82260 0.75355 0.23653
 H1327 H 0.68575 0.73126 0.26101
 H1328 H 0.70787 0.70880 0.28049
 H1329 H 0.79020 0.72093 0.21048
 H1330 H 0.75050 0.73520 0.17764
 H1331 H 0.72765 0.76066 0.31254
 H1332 H 0.70480 0.78104 0.29134
 O1333 O 0.70385 0.28925 0.74553
 O1334 O 0.69902 0.26922 0.71549
 O1335 O 0.70904 0.24461 0.79486
 O1336 O 0.73174 0.21440 0.80094
 O1337 O 0.75378 0.29393 0.79031
 O1338 O 0.78373 0.29966 0.76899
 O1339 O 0.76602 0.18984 0.74047
 O1340 O 0.73498 0.18633 0.75683
 O1341 O 0.75865 0.23153 0.69089
 O1342 O 0.74021 0.26469 0.68844
 O1343 O 0.80787 0.24038 0.73169
 O1344 O 0.81179 0.25453 0.76715
 O1345 O 0.79491 0.20737 0.75170
 O1346 O 0.80173 0.22938 0.78270
 O1347 O 0.79028 0.25176 0.70290
 O1348 O 0.77188 0.28245 0.69951
 O1349 O 0.74702 0.20285 0.70837
 O1350 O 0.71403 0.20095 0.72886
 O1351 O 0.73287 0.30678 0.75649
 O1352 O 0.76872 0.30985 0.74277
 O1353 O 0.74273 0.26506 0.80786
 O1354 O 0.75745 0.23083 0.81065
 O1355 O 0.69141 0.25604 0.76613
 O1356 O 0.68994 0.23890 0.73143
 Zr1357 Zr 0.71437 0.25828 0.74270
 O1358 O 0.73247 0.23941 0.72282
 Zr1359 Zr 0.74023 0.24188 0.78472
 O1360 O 0.75904 0.22219 0.76644
 Zr1361 Zr 0.75646 0.28390 0.75909
 O1362 O 0.77608 0.26588 0.73989
 Zr1363 Zr 0.74303 0.21318 0.73930
 O1364 O 0.72304 0.23089 0.75889
 Zr1365 Zr 0.75955 0.25523 0.71367
 O1366 O 0.74039 0.27533 0.73169
 Zr1367 Zr 0.78524 0.23860 0.75556
 O1368 O 0.76757 0.25787 0.77587
 O1369 O 0.72992 0.26845 0.76933
 O1370 O 0.76986 0.22836 0.72884
 C1371 C 0.71359 0.30593 0.75091
 C1372 C 0.69232 0.25022 0.78529
 C1373 C 0.74836 0.28426 0.80701
 C1374 C 0.78530 0.19074 0.74595
 C1375 C 0.75301 0.21233 0.69177
 C1376 C 0.80693 0.24596 0.71243
 H1377 H 0.72395 0.23538 0.71056
 H1378 H 0.78816 0.27451 0.73565
 H1379 H 0.72104 0.27738 0.77829
 H1380 H 0.76295 0.20986 0.77487
 H1381 H 0.72192 0.18966 0.76435
 H1382 H 0.71955 0.20839 0.79361
 H1383 H 0.76124 0.29353 0.70108
 H1384 H 0.75964 0.31222 0.73049
 H1385 H 0.71655 0.18667 0.72346
 H1386 H 0.67636 0.24592 0.73399
 H1387 H 0.81316 0.26770 0.75922
 H1388 H 0.79105 0.29012 0.77872
 H1389 H 0.70893 0.27855 0.70819
 H1390 H 0.74872 0.26438 0.67551
 H1391 H 0.77103 0.23822 0.81042
 H1392 H 0.79389 0.21782 0.78925
 C1393 C 0.10695 1.01609 1.18729
 C1394 C 0.09896 1.01356 1.17042
 C1395 C 0.08916 1.01097 1.15035
 C1396 C 0.07539 0.99434 1.14690
 C1397 C 0.06520 0.99236 1.12767
 C1398 C 0.06874 1.00701 1.11181
 C1399 C 0.08267 1.02353 1.11519
 C1400 C 0.09286 1.02551 1.13442
 C1401 C 0.05758 1.00549 1.09236
 C1402 C 0.04793 1.00438 1.07622
 H1403 H 0.07236 0.98305 1.15914
 H1404 H 0.05440 0.97957 1.12525
 H1405 H 0.08547 1.03499 1.10307
 H1406 H 0.10342 1.03848 1.13695
 C1407 C 0.60787 0.51717 0.68755
 C1408 C 0.59980 0.51477 0.67071
 C1409 C 0.58988 0.51231 0.65069
 C1410 C 0.59197 0.52788 0.63546
 C1411 C 0.58166 0.52594 0.61630
 C1412 C 0.56920 0.50842 0.61229
 C1413 C 0.56727 0.49275 0.62743
 C1414 C 0.57759 0.49469 0.64660
 C1415 C 0.55791 0.50683 0.59292
 C1416 C 0.54815 0.50562 0.57686
 H1417 H 0.60138 0.54161 0.63849
 H1418 H 0.58321 0.53818 0.60473
 H1419 H 0.55763 0.47917 0.62452
 H1420 H 0.57581 0.48260 0.65829
 C1421 C 0.39303 -0.01422 0.68544
 C1422 C 0.40112 -0.01125 0.66872
 C1423 C 0.41106 -0.00821 0.64882
 C1424 C 0.40377 -0.01894 0.63121
 C1425 C 0.41407 -0.01683 0.61208
 C1426 C 0.43170 -0.00399 0.61049
 C1427 C 0.43885 0.00694 0.62804
 C1428 C 0.42854 0.00484 0.64717
 C1429 C 0.44291 -0.00268 0.59107
 C1430 C 0.45250 -0.00196 0.57491
 H1431 H 0.39031 -0.02913 0.63234
 H1432 H 0.40846 -0.02542 0.59862
 H1433 H 0.45252 0.01685 0.62699
 H1434 H 0.43436 0.01314 0.66072
 C1435 C -0.10697 0.48566 1.18768
 C1436 C -0.09886 0.48881 1.17099
 C1437 C -0.08896 0.49199 1.15110
 C1438 C -0.09711 0.48245 1.13319
 C1439 C -0.08686 0.48458 1.11403
 C1440 C -0.06842 0.49627 1.11273
 C1441 C -0.06041 0.50605 1.13059
 C1442 C -0.07066 0.50391 1.14975
 C1443 C -0.05729 0.49753 1.09327
 C1444 C -0.04774 0.49821 1.07708
 H1445 H -0.11120 0.47312 1.13409
 H1446 H -0.09314 0.47689 1.10033
 H1447 H -0.04611 0.51505 1.12976
 H1448 H -0.06418 0.51128 1.16353
 C1449 C -0.10884 0.51589 0.31361
 C1450 C -0.10077 0.51308 0.33040
 C1451 C -0.09084 0.51026 0.35036
 C1452 C -0.09586 0.52352 0.36701
 C1453 C -0.08549 0.52150 0.38613
 C1454 C -0.07004 0.50621 0.38867
 C1455 C -0.06519 0.49280 0.37209
 C1456 C -0.07557 0.49482 0.35297
 C1457 C -0.05871 0.50475 0.40802
 C1458 C -0.04895 0.50374 0.42410
 H1459 H -0.10759 0.53557 0.36513
 H1460 H -0.08931 0.53199 0.39883
 H1461 H -0.05322 0.48097 0.37387
 H1462 H -0.07150 0.48455 0.34016
 C1463 C 0.39214 1.01646 -0.18866
 C1464 C 0.40011 1.01328 -0.17190
 C1465 C 0.40990 1.00990 -0.15197
 C1466 C 0.40310 1.02105 -0.13443
 C1467 C 0.41329 1.01857 -0.11527
 C1468 C 0.43031 1.00493 -0.11357
 C1469 C 0.43695 0.99358 -0.13105
 C1470 C 0.42676 0.99606 -0.15021
 C1471 C 0.44149 1.00327 -0.09415
 C1472 C 0.45109 1.00233 -0.07799
 H1473 H 0.39014 1.03186 -0.13564
 H1474 H 0.40810 1.02749 -0.10187
 H1475 H 0.45016 0.98306 -0.12992
 H1476 H 0.43219 0.98743 -0.16370
 C1477 C 0.60724 0.48260 -0.18654
 C1478 C 0.59913 0.48515 -0.16975
 C1479 C 0.58919 0.48776 -0.14978
 C1480 C 0.57533 0.50437 -0.14650
 C1481 C 0.56501 0.50638 -0.12736
 C1482 C 0.56850 0.49179 -0.11143
 C1483 C 0.58252 0.47530 -0.11463
 C1484 C 0.59284 0.47330 -0.13377
 C1485 C 0.55723 0.49334 -0.09206
 C1486 C 0.54752 0.49442 -0.07597
 H1487 H 0.57234 0.51560 -0.15879
 H1488 H 0.55415 0.51914 -0.12507
 H1489 H 0.58528 0.46390 -0.10245
 H1490 H 0.60347 0.46036 -0.13616
 C1491 C 0.10619 -0.01809 0.31240
 C1492 C 0.09816 -0.01542 0.32922
 C1493 C 0.08833 -0.01261 0.34922
 C1494 C 0.09179 -0.02710 0.36525
 C1495 C 0.08161 -0.02486 0.38444
 C1496 C 0.06792 -0.00811 0.38768
 C1497 C 0.06460 0.00649 0.37172
 C1498 C 0.07478 0.00425 0.35253
 C1499 C 0.05679 -0.00630 0.40712
 C1500 C 0.04721 -0.00502 0.42327
 H1501 H 0.10218 -0.04023 0.36284
 H1502 H 0.08424 -0.03628 0.39664
 H1503 H 0.05399 0.01946 0.37404
 H1504 H 0.07194 0.01550 0.34023
 C1505 C 0.18632 1.10695 1.01812
 C1506 C 0.16943 1.09903 1.01554
 C1507 C 0.14935 1.08930 1.01292
 C1508 C 0.14550 1.07652 0.99559
 C1509 C 0.12628 1.06635 0.99356
 C1510 C 0.11084 1.06891 1.00884
 C1511 C 0.11461 1.08186 1.02606
 C1512 C 0.13383 1.09203 1.02809
 C1513 C 0.09142 1.05773 1.00721
 C1514 C 0.07533 1.04805 1.00596
 H1515 H 0.15742 1.07425 0.98381
 H1516 H 0.12354 1.05631 0.98022
 H1517 H 0.10281 1.08389 1.03800
 H1518 H 0.13668 1.10182 1.04159
 C1519 C 0.68742 0.60689 0.51879
 C1520 C 0.67060 0.59890 0.51606
 C1521 C 0.65058 0.58909 0.51319
 C1522 C 0.63447 0.59271 0.52754
 C1523 C 0.61529 0.58252 0.52527
 C1524 C 0.61214 0.56866 0.50865
 C1525 C 0.62817 0.56520 0.49418
 C1526 C 0.64736 0.57540 0.49645
 C1527 C 0.59272 0.55749 0.50685
 C1528 C 0.57659 0.54787 0.50559
 H1529 H 0.63682 0.60322 0.54058
 H1530 H 0.60302 0.58525 0.53659
 H1531 H 0.62593 0.55446 0.48131
 H1532 H 0.65974 0.57243 0.48530
 C1533 C 0.68629 0.39070 -0.01647
 C1534 C 0.66944 0.39864 -0.01371
 C1535 C 0.64940 0.40843 -0.01088
 C1536 C 0.63318 0.40452 -0.02506
 C1537 C 0.61401 0.41475 -0.02291
 C1538 C 0.61095 0.42895 -0.00656
 C1539 C 0.62709 0.43270 0.00776
 C1540 C 0.64627 0.42246 0.00560
 C1541 C 0.59156 0.44020 -0.00491
 C1542 C 0.57547 0.44992 -0.00375
 H1543 H 0.63546 0.39376 -0.03791
 H1544 H 0.60167 0.41179 -0.03411
 H1545 H 0.62492 0.44371 0.02041
 H1546 H 0.65872 0.42567 0.01661
 C1547 C 0.18694 -0.10743 0.48198
 C1548 C 0.17008 -0.09956 0.48483
 C1549 C 0.15001 -0.08990 0.48781
 C1550 C 0.13375 -0.09385 0.47370
 C1551 C 0.11452 -0.08374 0.47600
 C1552 C 0.11148 -0.06964 0.49243
 C1553 C 0.12767 -0.06586 0.50668
 C1554 C 0.14689 -0.07597 0.50438
 C1555 C 0.09205 -0.05849 0.49422
 C1556 C 0.07594 -0.04884 0.49548
 H1557 H 0.13602 -0.10453 0.46078
 H1558 H 0.10214 -0.08672 0.46485
 H1559 H 0.12550 -0.05492 0.51940
 H1560 H 0.15939 -0.07274 0.51533
 C1561 C 0.31283 -0.10672 0.51366
 C1562 C 0.32958 -0.09865 0.51066
 C1563 C 0.34951 -0.08876 0.50753
 C1564 C 0.36705 -0.09569 0.51866
 C1565 C 0.38621 -0.08546 0.51641
 C1566 C 0.38792 -0.06826 0.50301
 C1567 C 0.37045 -0.06148 0.49169
 C1568 C 0.35128 -0.07171 0.49394
 C1569 C 0.40737 -0.05709 0.50152
 C1570 C 0.42355 -0.04750 0.50068
 H1571 H 0.36583 -0.10881 0.52927
 H1572 H 0.39960 -0.09078 0.52530
 H1573 H 0.37158 -0.04814 0.48135
 H1574 H 0.33781 -0.06618 0.48532
 C1575 C -0.18795 0.39382 1.01477
 C1576 C -0.17132 0.40207 1.01167
 C1577 C -0.15149 0.41215 1.00848
 C1578 C -0.13337 0.40375 1.01745
 C1579 C -0.11425 0.41408 1.01525
 C1580 C -0.11317 0.43285 1.00406
 C1581 C -0.13124 0.44111 0.99488
 C1582 C -0.15036 0.43078 0.99708
 C1583 C -0.09371 0.44401 1.00273
 C1584 C -0.07749 0.45353 1.00202
 H1585 H -0.13407 0.38940 1.02637
 H1586 H -0.10039 0.40760 1.02249
 H1587 H -0.13060 0.45566 0.98627
 H1588 H -0.16429 0.43745 0.99015
 C1589 C -0.18740 0.60780 0.48482
 C1590 C -0.17055 0.59979 0.48736
 C1591 C -0.15051 0.58995 0.48994
 C1592 C -0.14701 0.57636 0.50673
 C1593 C -0.12782 0.56609 0.50869
 C1594 C -0.11206 0.56938 0.49388
 C1595 C -0.11548 0.58314 0.47722
 C1596 C -0.13467 0.59341 0.47526
 C1597 C -0.09267 0.55811 0.49537
 C1598 C -0.07660 0.54837 0.49643
 H1599 H -0.15918 0.57352 0.51813
 H1600 H -0.12537 0.55542 0.52159
 H1601 H -0.10343 0.58574 0.46564
 H1602 H -0.13723 0.60383 0.46218
 C1603 C 0.31069 1.10614 -0.01518
 C1604 C 0.32749 1.09811 -0.01232
 C1605 C 0.34749 1.08830 -0.00935
 C1606 C 0.34946 1.07127 0.00423
 C1607 C 0.36870 1.06113 0.00637
 C1608 C 0.38604 1.06799 -0.00508
 C1609 C 0.38412 1.08518 -0.01848
 C1610 C 0.36488 1.09531 -0.02061
 C1611 C 0.40556 1.05693 -0.00371
 C1612 C 0.42180 1.04745 -0.00296
 H1613 H 0.33609 1.06567 0.01295
 H1614 H 0.36999 1.04780 0.01671
 H1615 H 0.39740 1.09056 -0.02746
 H1616 H 0.36351 1.10842 -0.03121
 C1617 C 0.01624 1.18744 1.10666
 C1618 C 0.01345 1.17063 1.09867
 C1619 C 0.01059 1.15062 1.08888
 C1620 C 0.02408 1.13408 1.09371
 C1621 C 0.02192 1.11489 1.08353
 C1622 C 0.00627 1.11216 1.06848
 C1623 C -0.00736 1.12863 1.06380
 C1624 C -0.00520 1.14783 1.07398
 C1625 C 0.00466 1.09272 1.05733
 C1626 C 0.00356 1.07658 1.04772
 H1627 H 0.03639 1.13610 1.10515
 H1628 H 0.03259 1.10229 1.08722
 H1629 H -0.01947 1.12671 1.05213
 H1630 H -0.01567 1.16053 1.07007
 C1631 C 0.51798 0.68655 0.60911
 C1632 C 0.51521 0.66969 0.60125
 C1633 C 0.51229 0.64965 0.59154
 C1634 C 0.52694 0.63372 0.59477
 C1635 C 0.52466 0.61456 0.58457
 C1636 C 0.50772 0.61125 0.57111
 C1637 C 0.49294 0.62710 0.56806
 C1638 C 0.49522 0.64627 0.57826
 C1639 C 0.50592 0.59192 0.55984
 C1640 C 0.50464 0.57589 0.55008
 H1641 H 0.54024 0.63621 0.60494
 H1642 H 0.53622 0.60244 0.58697
 H1643 H 0.47983 0.62474 0.55762
 H1644 H 0.48385 0.65851 0.57560
 C1645 C -0.01690 0.68669 0.39387
 C1646 C -0.01452 0.66978 0.40178
 C1647 C -0.01219 0.64966 0.41147
 C1648 C -0.02757 0.63436 0.40862
 C1649 C -0.02583 0.61509 0.41874
 C1650 C -0.00869 0.61105 0.43175
 C1651 C 0.00680 0.62626 0.43443
 C1652 C 0.00505 0.64554 0.42431
 C1653 C -0.00734 0.59157 0.44285
 C1654 C -0.00628 0.57544 0.45248
 H1655 H -0.04101 0.63741 0.39878
 H1656 H -0.03793 0.60346 0.41661
 H1657 H 0.02007 0.62332 0.44451
 H1658 H 0.01699 0.65728 0.42668
 C1659 C 0.48321 1.18815 -0.10645
 C1660 C 0.48612 1.17132 -0.09855
 C1661 C 0.48916 1.15129 -0.08886
 C1662 C 0.47740 1.13407 -0.09547
 C1663 C 0.47962 1.11482 -0.08542
 C1664 C 0.49361 1.11270 -0.06872
 C1665 C 0.50554 1.12986 -0.06226
 C1666 C 0.50332 1.14911 -0.07231
 C1667 C 0.49510 1.09318 -0.05771
 C1668 C 0.49597 1.07694 -0.04825
 H1669 H 0.46634 1.13560 -0.10820
 H1670 H 0.47025 1.10168 -0.09049
 H1671 H 0.51634 1.12841 -0.04930
 H1672 H 0.51243 1.16235 -0.06702
 C1673 C 0.51712 0.31224 -0.10712
 C1674 C 0.51467 0.32907 -0.09909
 C1675 C 0.51218 0.34908 -0.08922
 C1676 C 0.49448 0.35320 -0.07705
 C1677 C 0.49251 0.37235 -0.06676
 C1678 C 0.50824 0.38744 -0.06861
 C1679 C 0.52584 0.38340 -0.08095
 C1680 C 0.52781 0.36425 -0.09123
 C1681 C 0.50662 0.40679 -0.05735
 C1682 C 0.50537 0.42284 -0.04762
 H1683 H 0.48234 0.34154 -0.07534
 H1684 H 0.47887 0.37529 -0.05721
 H1685 H 0.53812 0.39493 -0.08242
 H1686 H 0.54159 0.36119 -0.10055
 C1687 C 0.01769 -0.18728 0.39355
 C1688 C 0.01525 -0.17042 0.40152
 C1689 C 0.01271 -0.15037 0.41129
 C1690 C 0.02836 -0.13521 0.40932
 C1691 C 0.02631 -0.11600 0.41948
 C1692 C 0.00861 -0.11187 0.43164
 C1693 C -0.00713 -0.12695 0.43345
 C1694 C -0.00509 -0.14617 0.42329
 C1695 C 0.00691 -0.09245 0.44278
 C1696 C 0.00561 -0.07634 0.45241
 H1697 H 0.04221 -0.13832 0.40013
 H1698 H 0.03861 -0.10447 0.41803
 H1699 H -0.02085 -0.12394 0.44287
 H1700 H -0.01725 -0.15780 0.42497
 C1701 C 0.48617 -0.18695 0.60606
 C1702 C 0.48913 -0.17034 0.59773
 C1703 C 0.49219 -0.15056 0.58753
 C1704 C 0.50371 -0.14946 0.56897
 C1705 C 0.50582 -0.13040 0.55852
 C1706 C 0.49643 -0.11238 0.56659
 C1707 C 0.48512 -0.11344 0.58528
 C1708 C 0.48300 -0.13249 0.59573
 C1709 C 0.49773 -0.09299 0.55533
 C1710 C 0.49843 -0.07683 0.54571
 H1711 H 0.51080 -0.16335 0.56244
 H1712 H 0.51453 -0.12977 0.54403
 H1713 H 0.47772 -0.09962 0.59162
 H1714 H 0.47399 -0.13319 0.61003
 C1715 C -0.01517 0.31225 1.10562
 C1716 C -0.01210 0.32903 1.09767
 C1717 C -0.00898 0.34905 1.08797
 C1718 C -0.01897 0.36676 1.09601
 C1719 C -0.01681 0.38603 1.08598
 C1720 C -0.00466 0.38767 1.06787
 C1721 C 0.00554 0.37001 1.05997
 C1722 C 0.00339 0.35073 1.07000
 C1723 C -0.00334 0.40726 1.05696
 C1724 C -0.00260 0.42355 1.04758
 H1725 H -0.02863 0.36561 1.10984
 H1726 H -0.02484 0.39957 1.09218
 H1727 H 0.01491 0.37109 1.04593
 H1728 H 0.01111 0.33712 1.06360
 C1729 C 0.76531 0.35814 0.06233
 C1730 C 0.76271 0.35021 0.07920
 C1731 C 0.76011 0.34046 0.09929
 C1732 C 0.77438 0.34458 0.11537
 C1733 C 0.77249 0.33437 0.13459
 C1734 C 0.75631 0.32001 0.13781
 C1735 C 0.74190 0.31606 0.12181
 C1736 C 0.74380 0.32626 0.10258
 C1737 C 0.75493 0.30878 0.15724
 C1738 C 0.75396 0.29906 0.17333
 H1739 H 0.78710 0.35546 0.11296
 H1740 H 0.78376 0.33749 0.14683
 H1741 H 0.72938 0.30493 0.12410
 H1742 H 0.73272 0.32290 0.09023
 C1743 C 0.26593 0.85795 0.56138
 C1744 C 0.26291 0.84989 0.57813
 C1745 C 0.25973 0.83999 0.59804
 C1746 C 0.24584 0.82319 0.59985
 C1747 C 0.24354 0.81291 0.61898
 C1748 C 0.25512 0.81939 0.63639
 C1749 C 0.26883 0.83634 0.63464
 C1750 C 0.27113 0.84662 0.61551
 C1751 C 0.25359 0.80814 0.65578
 C1752 C 0.25272 0.79848 0.67191
 H1753 H 0.23702 0.81788 0.58642
 H1754 H 0.23297 0.79976 0.62013
 H1755 H 0.27792 0.84143 0.64798
 H1756 H 0.28197 0.85954 0.61427
 C1757 C 0.73640 0.64231 0.56598
 C1758 C 0.73966 0.65029 0.58271
 C1759 C 0.74303 0.66011 0.60263
 C1760 C 0.75607 0.67760 0.60418
 C1761 C 0.75843 0.68783 0.62333
 C1762 C 0.74776 0.68060 0.64101
 C1763 C 0.73494 0.66294 0.63952
 C1764 C 0.73258 0.65272 0.62037
 C1765 C 0.74923 0.69181 0.66042
 C1766 C 0.75004 0.70145 0.67655
 H1767 H 0.76415 0.68350 0.59054
 H1768 H 0.76831 0.70152 0.62428
 H1769 H 0.72655 0.65728 0.65307
 H1770 H 0.72239 0.63926 0.61933
 C1771 C 0.23431 0.14211 0.06482
 C1772 C 0.23757 0.15022 0.08148
 C1773 C 0.24094 0.16017 0.10133
 C1774 C 0.25305 0.17833 0.10257
 C1775 C 0.25538 0.18863 0.12169
 C1776 C 0.24560 0.18080 0.13962
 C1777 C 0.23371 0.16248 0.13842
 C1778 C 0.23138 0.15219 0.11931
 C1779 C 0.24703 0.19200 0.15903
 C1780 C 0.24780 0.20158 0.17519
 H1781 H 0.26043 0.18468 0.08874
 H1782 H 0.26453 0.20283 0.12243
 H1783 H 0.22601 0.15634 0.15217
 H1784 H 0.22190 0.13820 0.11850
 C1785 C 0.26341 0.14195 0.93778
 C1786 C 0.26036 0.15024 0.92115
 C1787 C 0.25721 0.16042 0.90137
 C1788 C 0.26761 0.15315 0.88355
 C1789 C 0.26543 0.16369 0.86454
 C1790 C 0.25284 0.18153 0.86327
 C1791 C 0.24223 0.18865 0.88103
 C1792 C 0.24442 0.17812 0.90004
 C1793 C 0.25147 0.19297 0.84398
 C1794 C 0.25071 0.20276 0.82792
 H1795 H 0.27761 0.13954 0.88443
 H1796 H 0.27376 0.15810 0.85093
 H1797 H 0.23253 0.20249 0.88024
 H1798 H 0.23638 0.18392 0.91374
 C1799 C 0.76444 0.64328 0.43845
 C1800 C 0.76111 0.65142 0.42181
 C1801 C 0.75768 0.66140 0.40198
 C1802 C 0.76692 0.65327 0.38390
 C1803 C 0.76455 0.66359 0.36480
 C1804 C 0.75293 0.68209 0.36370
 C1805 C 0.74345 0.69008 0.38172
 C1806 C 0.74582 0.67975 0.40082
 C1807 C 0.75149 0.69333 0.34429
 C1808 C 0.75074 0.70296 0.32814
 H1809 H 0.77620 0.63915 0.38463
 H1810 H 0.77202 0.65733 0.35098
 H1811 H 0.73451 0.70442 0.38106
 H1812 H 0.73869 0.68622 0.41472
 C1813 C 0.23540 0.85701 0.43446
 C1814 C 0.23843 0.84886 0.41777
 C1815 C 0.24152 0.83887 0.39790
 C1816 C 0.25420 0.82111 0.39642
 C1817 C 0.25632 0.81076 0.37731
 C1818 C 0.24578 0.81814 0.35961
 C1819 C 0.23331 0.83605 0.36103
 C1820 C 0.23118 0.84640 0.38013
 C1821 C 0.24707 0.80689 0.34021
 C1822 C 0.24777 0.79724 0.32407
 H1823 H 0.26219 0.81510 0.41008
 H1824 H 0.26594 0.79687 0.37641
 H1825 H 0.22501 0.84184 0.34745
 H1826 H 0.22127 0.86006 0.38112
 C1827 C 0.73391 0.35537 0.93654
 C1828 C 0.73711 0.34721 0.91988
 C1829 C 0.74048 0.33724 0.90004
 C1830 C 0.73063 0.34497 0.88208
 C1831 C 0.73308 0.33470 0.86297
 C1832 C 0.74539 0.31667 0.86172
 C1833 C 0.75545 0.30908 0.87963
 C1834 C 0.75300 0.31935 0.89874
 C1835 C 0.74699 0.30549 0.84230
 C1836 C 0.74787 0.29591 0.82612
 H1837 H 0.72085 0.35874 0.88292
 H1838 H 0.72515 0.34065 0.84924
 H1839 H 0.76494 0.29510 0.87886
 H1840 H 0.76063 0.31320 0.91254
 C1841 C 0.85721 0.43681 0.23446
 C1842 C 0.84926 0.41992 0.23681
 C1843 C 0.83951 0.39982 0.23903
 C1844 C 0.82552 0.39613 0.25542
 C1845 C 0.81531 0.37689 0.25696
 C1846 C 0.81905 0.36129 0.24210
 C1847 C 0.83321 0.36490 0.22583
 C1848 C 0.84341 0.38414 0.22430
 C1849 C 0.80788 0.34184 0.24319
 C1850 C 0.79820 0.32574 0.24404
 H1851 H 0.82232 0.40818 0.26684
 H1852 H 0.80434 0.37428 0.26957
 H1853 H 0.83616 0.35297 0.21422
 H1854 H 0.85414 0.38686 0.21150
 C1855 C 0.35746 0.93769 0.73334
 C1856 C 0.34949 0.92093 0.73639
 C1857 C 0.33968 0.90100 0.73960
 C1858 C 0.34649 0.88353 0.72835
 C1859 C 0.33627 0.86439 0.73067
 C1860 C 0.31920 0.86264 0.74424
 C1861 C 0.31256 0.88005 0.75569
 C1862 C 0.32279 0.89919 0.75338
 C1863 C 0.30798 0.84326 0.74572
 C1864 C 0.29833 0.82714 0.74653
 H1865 H 0.35948 0.88479 0.71760
 H1866 H 0.34147 0.85105 0.72167
 H1867 H 0.29932 0.87889 0.76616
 H1868 H 0.31735 0.91263 0.76209
 C1869 C 0.14172 0.93615 0.26375
 C1870 C 0.14988 0.91952 0.26045
 C1871 C 0.15991 0.89971 0.25701
 C1872 C 0.15230 0.88175 0.26690
 C1873 C 0.16268 0.86269 0.26446
 C1874 C 0.18071 0.86152 0.25213
 C1875 C 0.18817 0.87943 0.24203
 C1876 C 0.17779 0.89849 0.24446
 C1877 C 0.19202 0.84217 0.25057
 C1878 C 0.20171 0.82606 0.24970
 H1879 H 0.13854 0.88253 0.27671
 H1880 H 0.15683 0.84896 0.27242
 H1881 H 0.20215 0.87872 0.23253
 H1882 H 0.18386 0.91230 0.23682
 C1883 C 0.64308 0.43582 0.76451
 C1884 C 0.65109 0.41910 0.76128
 C1885 C 0.66091 0.39917 0.75798
 C1886 C 0.65296 0.38132 0.76780
 C1887 C 0.66315 0.36214 0.76554
 C1888 C 0.68133 0.36074 0.75346
 C1889 C 0.68913 0.37854 0.74342
 C1890 C 0.67894 0.39772 0.74567
 C1891 C 0.69243 0.34126 0.75208
 C1892 C 0.70197 0.32506 0.75133
 H1893 H 0.63909 0.38229 0.77743
 H1894 H 0.65703 0.34850 0.77344
 H1895 H 0.70322 0.37764 0.73411
 H1896 H 0.68527 0.41144 0.73809
 C1897 C 0.64399 0.56338 0.73687
 C1898 C 0.65216 0.58000 0.74022
 C1899 C 0.66216 0.59981 0.74367
 C1900 C 0.65422 0.61784 0.73417
 C1901 C 0.66458 0.63691 0.73655
 C1902 C 0.68292 0.63802 0.74845
 C1903 C 0.69071 0.62004 0.75818
 C1904 C 0.68035 0.60097 0.75580
 C1905 C 0.69421 0.65738 0.74991
 C1906 C 0.70390 0.67349 0.75071
 H1907 H 0.64022 0.61710 0.72468
 H1908 H 0.65847 0.65070 0.72888
 H1909 H 0.70494 0.62070 0.76734
 H1910 H 0.68668 0.58710 0.76313
 C1911 C 0.14240 0.06246 0.23540
 C1912 C 0.15054 0.07909 0.23870
 C1913 C 0.16051 0.09893 0.24211
 C1914 C 0.17856 0.10018 0.25443
 C1915 C 0.18888 0.11928 0.25682
 C1916 C 0.18118 0.13719 0.24689
 C1917 C 0.16298 0.13599 0.23479
 C1918 C 0.15267 0.11690 0.23240
 C1919 C 0.19240 0.15659 0.24841
 C1920 C 0.20202 0.17274 0.24927
 H1921 H 0.18481 0.08637 0.26194
 H1922 H 0.20299 0.12001 0.26615
 H1923 H 0.15695 0.14973 0.22697
 H1924 H 0.13878 0.11609 0.22276
 C1925 C 0.35675 0.06431 0.76460
 C1926 C 0.34855 0.08100 0.76174
 C1927 C 0.33848 0.10085 0.75881
 C1928 C 0.32089 0.10246 0.74588
 C1929 C 0.31046 0.12154 0.74390
 C1930 C 0.31758 0.13908 0.75485
 C1931 C 0.33533 0.13753 0.76758
 C1932 C 0.34576 0.11846 0.76956
 C1933 C 0.30624 0.15842 0.75369
 C1934 C 0.29654 0.17453 0.75311
 H1935 H 0.31509 0.08892 0.73757
 H1936 H 0.29670 0.12254 0.73409
 H1937 H 0.34091 0.15098 0.77618
 H1938 H 0.35929 0.11736 0.77967
 C1939 C 0.85591 0.56342 0.26649
 C1940 C 0.84792 0.58018 0.26344
 C1941 C 0.83814 0.60015 0.26028
 C1942 C 0.82087 0.60195 0.24695
 C1943 C 0.81072 0.62115 0.24470
 C1944 C 0.81782 0.63863 0.25577
 C1945 C 0.83525 0.63689 0.26889
 C1946 C 0.84539 0.61769 0.27114
 C1947 C 0.80672 0.65810 0.25435
 C1948 C 0.79716 0.67428 0.25356
 H1949 H 0.81509 0.58846 0.23853
 H1950 H 0.79720 0.62231 0.23457
 H1951 H 0.84081 0.65028 0.27759
 H1952 H 0.85868 0.61645 0.28155
 C1953 C 0.93673 0.26583 0.14092
 C1954 C 0.91996 0.26312 0.14904
 C1955 C 0.90002 0.26040 0.15903
 C1956 C 0.88330 0.27354 0.15384
 C1957 C 0.86420 0.27158 0.16424
 C1958 C 0.86174 0.25648 0.17987
 C1959 C 0.87839 0.24319 0.18490
 C1960 C 0.89749 0.24515 0.17450
 C1961 C 0.84239 0.25507 0.19120
 C1962 C 0.82632 0.25409 0.20094
 H1963 H 0.88512 0.28544 0.14196
 H1964 H 0.85145 0.28198 0.16028
 H1965 H 0.87667 0.23150 0.19701
 H1966 H 0.91035 0.23496 0.17869
 C1967 C 0.43792 0.76551 0.64192
 C1968 C 0.42103 0.76261 0.64971
 C1969 C 0.40091 0.75965 0.65927
 C1970 C 0.38499 0.77428 0.65591
 C1971 C 0.36575 0.77202 0.66597
 C1972 C 0.36233 0.75513 0.67944
 C1973 C 0.37817 0.74036 0.68261
 C1974 C 0.39743 0.74261 0.67254
 C1975 C 0.34291 0.75349 0.69061
 C1976 C 0.32676 0.75258 0.70022
 H1977 H 0.38755 0.78756 0.64575
 H1978 H 0.35365 0.78359 0.66349
 H1979 H 0.37572 0.72728 0.69306
 H1980 H 0.40966 0.73125 0.67530
 C1981 C 0.43576 0.23589 0.85896
 C1982 C 0.41897 0.23908 0.85105
 C1983 C 0.39898 0.24235 0.84130
 C1984 C 0.38140 0.23148 0.84846
 C1985 C 0.36221 0.23375 0.83827
 C1986 C 0.36051 0.24691 0.82088
 C1987 C 0.37802 0.25801 0.81388
 C1988 C 0.39722 0.25573 0.82408
 C1989 C 0.34106 0.24831 0.80968
 C1990 C 0.32490 0.24907 0.80005
 H1991 H 0.38262 0.22102 0.86171
 H1992 H 0.34879 0.22503 0.84375
 H1993 H 0.37690 0.26815 0.80039
 H1994 H 0.41073 0.26414 0.81835
 C1995 C 0.93631 0.73603 0.35860
 C1996 C 0.91956 0.73929 0.35063
 C1997 C 0.89960 0.74257 0.34084
 C1998 C 0.88180 0.73259 0.34870
 C1999 C 0.86261 0.73474 0.33848
 C2000 C 0.86116 0.74689 0.32034
 C2001 C 0.87890 0.75711 0.31264
 C2002 C 0.89809 0.75496 0.32287
 C2003 C 0.84171 0.74811 0.30914
 C2004 C 0.82554 0.74873 0.29951
 H2005 H 0.88282 0.72289 0.36253
 H2006 H 0.84901 0.72669 0.34451
 H2007 H 0.87796 0.76647 0.29857
 H2008 H 0.91178 0.76266 0.31660
 C2009 C 0.06381 0.76363 0.35706
 C2010 C 0.08034 0.76043 0.34865
 C2011 C 0.10004 0.75719 0.33836
 C2012 C 0.11832 0.76584 0.34674
 C2013 C 0.13729 0.76371 0.33614
 C2014 C 0.13806 0.75294 0.31713
 C2015 C 0.11984 0.74406 0.30888
 C2016 C 0.10086 0.74619 0.31948
 C2017 C 0.15736 0.75172 0.30569
 C2018 C 0.17344 0.75109 0.29594
 H2019 H 0.11784 0.77446 0.36128
 H2020 H 0.15128 0.77071 0.34261
 H2021 H 0.12025 0.73578 0.29414
 H2022 H 0.08680 0.73953 0.31281
 C2023 C 0.56323 0.26420 0.85711
 C2024 C 0.57982 0.26089 0.84888
 C2025 C 0.59960 0.25749 0.83881
 C2026 C 0.61776 0.26655 0.84700
 C2027 C 0.63681 0.26422 0.83660
 C2028 C 0.63779 0.25283 0.81797
 C2029 C 0.61968 0.24353 0.80991
 C2030 C 0.60062 0.24586 0.82032
 C2031 C 0.65715 0.25141 0.80668
 C2032 C 0.67327 0.25065 0.79701
 H2033 H 0.61712 0.27566 0.86124
 H2034 H 0.65070 0.27155 0.84292
 H2035 H 0.62025 0.23476 0.79546
 H2036 H 0.58666 0.23887 0.81380
 C2037 C 0.56509 0.73539 0.64475
 C2038 C 0.58174 0.73853 0.65296
 C2039 C 0.60159 0.74174 0.66301
 C2040 C 0.60290 0.75405 0.68105
 C2041 C 0.62200 0.75625 0.69144
 C2042 C 0.63986 0.74615 0.68384
 C2043 C 0.63860 0.73406 0.66566
 C2044 C 0.61950 0.73186 0.65527
 C2045 C 0.65924 0.74748 0.69514
 C2046 C 0.67538 0.74816 0.70482
 H2047 H 0.58912 0.76168 0.68722
 H2048 H 0.62278 0.76556 0.70554
 H2049 H 0.65229 0.72611 0.65970
 H2050 H 0.61864 0.72223 0.64139
 C2051 C 0.06321 0.23451 0.14277
 C2052 C 0.07978 0.23754 0.15120
 C2053 C 0.09950 0.24070 0.16151
 C2054 C 0.10060 0.25300 0.17957
 C2055 C 0.11958 0.25524 0.19016
 C2056 C 0.13754 0.24519 0.18274
 C2057 C 0.13650 0.23309 0.16455
 C2058 C 0.11751 0.23085 0.15396
 C2059 C 0.15684 0.24663 0.19418
 C2060 C 0.17293 0.24743 0.20393
 H2061 H 0.08674 0.26061 0.18559
 H2062 H 0.12020 0.26456 0.20426
 H2063 H 0.15027 0.22519 0.15872
 H2064 H 0.11682 0.22124 0.14006
 C2065 C -0.10601 1.01626 0.81236
 C2066 C -0.09797 1.01315 0.82911
 C2067 C -0.08805 1.00952 0.84896
 C2068 C -0.09415 1.02101 0.86654
 C2069 C -0.08401 1.01798 0.88565
 C2070 C -0.06773 1.00345 0.88728
 C2071 C -0.06176 0.99181 0.86975
 C2072 C -0.07190 0.99484 0.85063
 C2073 C -0.05670 1.00104 0.90673
 C2074 C -0.04731 0.99950 0.92299
 H2075 H -0.10658 1.03244 0.86541
 H2076 H -0.08869 1.02712 0.89909
 H2077 H -0.04914 0.98059 0.87081
 H2078 H -0.06703 0.98591 0.83713
 C2079 C 0.39295 0.51707 0.31331
 C2080 C 0.40118 0.51419 0.33000
 C2081 C 0.41134 0.51086 0.34978
 C2082 C 0.40613 0.52327 0.36702
 C2083 C 0.41651 0.52049 0.38605
 C2084 C 0.43213 0.50528 0.38793
 C2085 C 0.43721 0.49274 0.37075
 C2086 C 0.42683 0.49552 0.35172
 C2087 C 0.44332 0.50299 0.40730
 C2088 C 0.45280 0.50147 0.42350
 H2089 H 0.39422 0.53521 0.36568
 H2090 H 0.41250 0.53031 0.39921
 H2091 H 0.44931 0.48098 0.37201
 H2092 H 0.43102 0.48587 0.33847
 C2093 C 0.60674 -0.01415 0.31150
 C2094 C 0.59865 -0.01049 0.32809
 C2095 C 0.58865 -0.00638 0.34779
 C2096 C 0.59712 -0.01443 0.36629
 C2097 C 0.58685 -0.01128 0.38529
 C2098 C 0.56806 -0.00006 0.38588
 C2099 C 0.55974 0.00823 0.36742
 C2100 C 0.57002 0.00509 0.34841
 C2101 C 0.55683 0.00199 0.40523
 C2102 C 0.54726 0.00304 0.42139
 H2103 H 0.61148 -0.02337 0.36598
 H2104 H 0.59336 -0.01786 0.39946
 H2105 H 0.54517 0.01683 0.36767
 H2106 H 0.56330 0.01133 0.33418
 C2107 C 0.10682 0.48585 0.81380
 C2108 C 0.09880 0.48933 0.83046
 C2109 C 0.08885 0.49333 0.85019
 C2110 C 0.07022 0.50478 0.85090
 C2111 C 0.06002 0.50791 0.86995
 C2112 C 0.06843 0.49961 0.88837
 C2113 C 0.08721 0.48839 0.88770
 C2114 C 0.09741 0.48526 0.86865
 C2115 C 0.05729 0.50167 0.90776
 C2116 C 0.04778 0.50276 0.92395
 H2117 H 0.06344 0.51104 0.83671
 H2118 H 0.04545 0.51651 0.87027
 H2119 H 0.09379 0.48180 0.90183
 H2120 H 0.11178 0.47633 0.86826
 C2121 C 0.10609 0.51701 0.68724
 C2122 C 0.09782 0.51359 0.67068
 C2123 C 0.08762 0.50962 0.65105
 C2124 C 0.09493 0.51912 0.63276
 C2125 C 0.08453 0.51583 0.61383
 C2126 C 0.06680 0.50303 0.61311
 C2127 C 0.05962 0.49336 0.63137
 C2128 C 0.07001 0.49664 0.65030
 C2129 C 0.05556 0.50050 0.59381
 C2130 C 0.04604 0.49892 0.57765
 H2131 H 0.10849 0.52921 0.63318
 H2132 H 0.09017 0.52345 0.59982
 H2133 H 0.04587 0.48351 0.63100
 H2134 H 0.06421 0.48926 0.66437
 C2135 C 0.60625 1.01409 0.18507
 C2136 C 0.59816 1.01029 0.16850
 C2137 C 0.58815 1.00600 0.14884
 C2138 C 0.59690 1.01343 0.13023
 C2139 C 0.58662 1.01015 0.11123
 C2140 C 0.56756 0.99941 0.11078
 C2141 C 0.55896 0.99171 0.12936
 C2142 C 0.56925 0.99498 0.14835
 C2143 C 0.55628 0.99738 0.09144
 C2144 C 0.54663 0.99642 0.07530
 H2145 H 0.61147 1.02202 0.13044
 H2146 H 0.59333 1.01629 0.09697
 H2147 H 0.54417 0.98350 0.12920
 H2148 H 0.56232 0.98922 0.16266
 C2149 C 0.39333 0.48250 0.18777
 C2150 C 0.40155 0.48558 0.17112
 C2151 C 0.41167 0.48917 0.15138
 C2152 C 0.40574 0.47764 0.13376
 C2153 C 0.41605 0.48066 0.11475
 C2154 C 0.43232 0.49522 0.11327
 C2155 C 0.43812 0.50688 0.13085
 C2156 C 0.42781 0.50386 0.14986
 C2157 C 0.44347 0.49764 0.09392
 C2158 C 0.45292 0.49916 0.07772
 H2159 H 0.39332 0.46621 0.13478
 H2160 H 0.41149 0.47151 0.10128
 H2161 H 0.45072 0.51812 0.12990
 H2162 H 0.43254 0.51282 0.16341
 C2163 C -0.10463 -0.01701 0.68827
 C2164 C -0.09649 -0.01371 0.67162
 C2165 C -0.08649 -0.00989 0.65186
 C2166 C -0.09398 -0.01955 0.63372
 C2167 C -0.08383 -0.01638 0.61465
 C2168 C -0.06615 -0.00353 0.61363
 C2169 C -0.05877 0.00629 0.63173
 C2170 C -0.06893 0.00312 0.65081
 C2171 C -0.05517 -0.00107 0.59417
 C2172 C -0.04588 0.00046 0.57788
 H2173 H -0.10752 -0.02968 0.63436
 H2174 H -0.08961 -0.02412 0.60076
 H2175 H -0.04507 0.01619 0.63114
 H2176 H -0.06298 0.01063 0.66475
 C2177 C -0.18850 0.89432 1.01840
 C2178 C -0.17181 0.90241 1.01514
 C2179 C -0.15201 0.91235 1.01136
 C2180 C -0.13426 0.90609 1.02253
 C2181 C -0.11518 0.91624 1.01936
 C2182 C -0.11377 0.93270 1.00501
 C2183 C -0.13149 0.93884 0.99370
 C2184 C -0.15057 0.92868 0.99687
 C2185 C -0.09435 0.94372 1.00246
 C2186 C -0.07810 0.95308 1.00081
 H2187 H -0.13521 0.89352 1.03381
 H2188 H -0.10160 0.91142 1.02824
 H2189 H -0.13060 0.95159 0.98263
 H2190 H -0.16421 0.93368 0.98819
 C2191 C 0.31243 0.39450 0.51759
 C2192 C 0.32901 0.40277 0.51426
 C2193 C 0.34867 0.41294 0.51043
 C2194 C 0.36700 0.40524 0.51958
 C2195 C 0.38599 0.41556 0.51644
 C2196 C 0.38672 0.43363 0.50412
 C2197 C 0.36843 0.44122 0.49480
 C2198 C 0.34945 0.43089 0.49794
 C2199 C 0.40609 0.44476 0.50174
 C2200 C 0.42232 0.45418 0.50026
 H2201 H 0.36657 0.39140 0.52930
 H2202 H 0.40002 0.40961 0.52379
 H2203 H 0.36881 0.45522 0.48531
 H2204 H 0.33536 0.43700 0.49082
 C2205 C 0.31276 0.60544 -0.01761
 C2206 C 0.32933 0.59718 -0.01418
 C2207 C 0.34900 0.58702 -0.01025
 C2208 C 0.34990 0.56963 0.00301
 C2209 C 0.36888 0.55929 0.00625
 C2210 C 0.38703 0.56630 -0.00373
 C2211 C 0.38617 0.58382 -0.01682
 C2212 C 0.36720 0.59416 -0.02007
 C2213 C 0.40638 0.55512 -0.00119
 C2214 C 0.42257 0.54564 0.00044
 H2215 H 0.33591 0.56396 0.01064
 H2216 H 0.36935 0.54572 0.01633
 H2217 H 0.40010 0.58932 -0.02468
 H2218 H 0.36668 0.60755 -0.03038
 C2219 C -0.18700 0.10635 0.48324
 C2220 C -0.17040 0.09810 0.48660
 C2221 C -0.15068 0.08799 0.49040
 C2222 C -0.14931 0.07171 0.50496
 C2223 C -0.13032 0.06136 0.50808
 C2224 C -0.11262 0.06727 0.49666
 C2225 C -0.11394 0.08368 0.48226
 C2226 C -0.13293 0.09402 0.47914
 C2227 C -0.09328 0.05606 0.49912
 C2228 C -0.07709 0.04658 0.50067
 H2229 H -0.16296 0.06689 0.51372
 H2230 H -0.12948 0.04864 0.51920
 H2231 H -0.10038 0.08832 0.47328
 H2232 H -0.13383 0.10655 0.46780
 C2233 C 0.68718 0.10693 0.51388
 C2234 C 0.67049 0.09895 0.51035
 C2235 C 0.65069 0.08909 0.50632
 C2236 C 0.63243 0.09696 0.51544
 C2237 C 0.61334 0.08682 0.51225
 C2238 C 0.61242 0.06877 0.49992
 C2239 C 0.63064 0.06105 0.49059
 C2240 C 0.64973 0.07120 0.49377
 C2241 C 0.59301 0.05765 0.49773
 C2242 C 0.57679 0.04815 0.49652
 H2243 H 0.63299 0.11075 0.52521
 H2244 H 0.59937 0.09286 0.51963
 H2245 H 0.63014 0.04705 0.48113
 H2246 H 0.66377 0.06495 0.48669
 C2247 C 0.18700 0.60687 1.01322
 C2248 C 0.17029 0.59888 1.00979
 C2249 C 0.15047 0.58901 1.00592
 C2250 C 0.13222 0.59714 1.01482
 C2251 C 0.11311 0.58697 1.01187
 C2252 C 0.11217 0.56863 0.99999
 C2253 C 0.13037 0.56065 0.99085
 C2254 C 0.14948 0.57082 0.99380
 C2255 C 0.09275 0.55747 0.99812
 C2256 C 0.07654 0.54793 0.99723
 H2257 H 0.13282 0.61115 1.02427
 H2258 H 0.09916 0.59322 1.01911
 H2259 H 0.12984 0.54642 0.98174
 H2260 H 0.16351 0.56436 0.98689
 C2261 C 0.18628 0.39279 0.48486
 C2262 C 0.16957 0.40091 0.48789
 C2263 C 0.14976 0.41094 0.49137
 C2264 C 0.13226 0.40507 0.47961
 C2265 C 0.11321 0.41537 0.48244
 C2266 C 0.11158 0.43158 0.49704
 C2267 C 0.12903 0.43730 0.50894
 C2268 C 0.14808 0.42700 0.50612
 C2269 C 0.09222 0.44276 0.49925
 C2270 C 0.07604 0.45227 0.50067
 H2271 H 0.13340 0.39271 0.46813
 H2272 H 0.09983 0.41087 0.47310
 H2273 H 0.12796 0.44986 0.52022
 H2274 H 0.16154 0.43169 0.51525
 C2275 C 0.68623 0.89406 -0.01467
 C2276 C 0.66952 0.90214 -0.01148
 C2277 C 0.64972 0.91212 -0.00779
 C2278 C 0.63163 0.90466 -0.01758
 C2279 C 0.61255 0.91488 -0.01463
 C2280 C 0.61148 0.93261 -0.00186
 C2281 C 0.62952 0.93993 0.00813
 C2282 C 0.64860 0.92970 0.00518
 C2283 C 0.59208 0.94378 0.00020
 C2284 C 0.57587 0.95330 0.00131
 H2285 H 0.63232 0.89111 -0.02768
 H2286 H 0.59872 0.90915 -0.02251
 H2287 H 0.62890 0.95368 0.01796
 H2288 H 0.66251 0.93563 0.01279
 C2289 C 0.01828 0.81258 0.89470
 C2290 C 0.01487 0.82918 0.90290
 C2291 C 0.01084 0.84884 0.91299
 C2292 C -0.00257 0.84972 0.93026
 C2293 C -0.00601 0.86870 0.94050
 C2294 C 0.00393 0.88687 0.93349
 C2295 C 0.01719 0.88602 0.91610
 C2296 C 0.02063 0.86705 0.90587
 C2297 C 0.00118 0.90623 0.94455
 C2298 C -0.00059 0.92245 0.95392
 H2299 H -0.01019 0.83572 0.93592
 H2300 H -0.01621 0.86915 0.95397
 H2301 H 0.02502 0.89996 0.91060
 H2302 H 0.03105 0.86654 0.89256
 C2303 C 0.51589 0.31412 0.39342
 C2304 C 0.51261 0.33068 0.40171
 C2305 C 0.50889 0.35034 0.41191
 C2306 C 0.49564 0.35132 0.42929
 C2307 C 0.49265 0.37027 0.43971
 C2308 C 0.50288 0.38831 0.43277
 C2309 C 0.51595 0.38737 0.41525
 C2310 C 0.51895 0.36842 0.40484
 C2311 C 0.50061 0.40760 0.44403
 C2312 C 0.49919 0.42374 0.45359
 H2313 H 0.48783 0.33742 0.43492
 H2314 H 0.48257 0.37081 0.45328
 H2315 H 0.52400 0.40120 0.40980
 H2316 H 0.52926 0.36782 0.39145
 C2317 C -0.01724 0.31135 0.60599
 C2318 C -0.01420 0.32808 0.59794
 C2319 C -0.01073 0.34794 0.58804
 C2320 C -0.02248 0.36538 0.59404
 C2321 C -0.01964 0.38450 0.58389
 C2322 C -0.00503 0.38626 0.56771
 C2323 C 0.00687 0.36888 0.56184
 C2324 C 0.00403 0.34975 0.57199
 C2325 C -0.00278 0.40571 0.55669
 C2326 C -0.00133 0.42197 0.54732
 H2327 H -0.03397 0.36414 0.60639
 H2328 H -0.02897 0.39782 0.58850
 H2329 H 0.01816 0.37005 0.54929
 H2330 H 0.01316 0.33635 0.56719
 C2331 C 0.48435 0.81299 0.10548
 C2332 C 0.48776 0.82965 0.09741
 C2333 C 0.49167 0.84941 0.08747
 C2334 C 0.48298 0.86772 0.09566
 C2335 C 0.48605 0.88679 0.08548
 C2336 C 0.49784 0.88763 0.06707
 C2337 C 0.50675 0.86935 0.05901
 C2338 C 0.50368 0.85029 0.06920
 C2339 C 0.49991 0.90704 0.05595
 C2340 C 0.50100 0.92327 0.04649
 H2341 H 0.47362 0.86721 0.10974
 H2342 H 0.47900 0.90080 0.09179
 H2343 H 0.51580 0.86981 0.04473
 H2344 H 0.51042 0.83621 0.06270
 C2345 C 0.51641 0.68658 0.10613
 C2346 C 0.51328 0.66988 0.09805
 C2347 C 0.50971 0.65007 0.08810
 C2348 C 0.52093 0.63241 0.09452
 C2349 C 0.51801 0.61333 0.08435
 C2350 C 0.50386 0.61181 0.06771
 C2351 C 0.49249 0.62941 0.06142
 C2352 C 0.49541 0.64850 0.07160
 C2353 C 0.50156 0.59238 0.05668
 C2354 C 0.50008 0.57614 0.04730
 H2355 H 0.53206 0.63346 0.10723
 H2356 H 0.52693 0.59983 0.08929
 H2357 H 0.48157 0.62843 0.04852
 H2358 H 0.48670 0.66207 0.06647
 C2359 C 0.01708 0.18768 0.60594
 C2360 C 0.01410 0.17102 0.59770
 C2361 C 0.01063 0.15127 0.58758
 C2362 C 0.02193 0.13362 0.59385
 C2363 C 0.01901 0.11458 0.58358
 C2364 C 0.00478 0.11311 0.56700
 C2365 C -0.00665 0.13073 0.56085
 C2366 C -0.00373 0.14977 0.57112
 C2367 C 0.00240 0.09370 0.55595
 C2368 C 0.00084 0.07745 0.54660
 H2369 H 0.03310 0.13462 0.60652
 H2370 H 0.02797 0.10107 0.58842
 H2371 H -0.01764 0.12978 0.54801
 H2372 H -0.01251 0.16334 0.56612
 C2373 C 0.48566 0.18720 0.39249
 C2374 C 0.48936 0.17047 0.40028
 C2375 C 0.49359 0.15064 0.40995
 C2376 C 0.48473 0.13237 0.40182
 C2377 C 0.48802 0.11325 0.41184
 C2378 C 0.50020 0.11230 0.43001
 C2379 C 0.50931 0.13052 0.43797
 C2380 C 0.50602 0.14965 0.42795
 C2381 C 0.50233 0.09288 0.44110
 C2382 C 0.50339 0.07668 0.45062
 H2383 H 0.47505 0.13297 0.38795
 H2384 H 0.48080 0.09928 0.40562
 H2385 H 0.51864 0.12999 0.45208
 H2386 H 0.51290 0.16369 0.43440
 C2387 C -0.01349 0.68818 0.89503
 C2388 C -0.01006 0.67151 0.90307
 C2389 C -0.00617 0.65172 0.91299
 C2390 C -0.01478 0.63342 0.90468
 C2391 C -0.01176 0.61433 0.91485
 C2392 C -0.00012 0.61346 0.93337
 C2393 C 0.00871 0.63172 0.94155
 C2394 C 0.00570 0.65081 0.93137
 C2395 C 0.00187 0.59403 0.94448
 C2396 C 0.00288 0.57779 0.95395
 H2397 H -0.02403 0.63395 0.89052
 H2398 H -0.01876 0.60033 0.90846
 H2399 H 0.01765 0.63125 0.95591
 H2400 H 0.01238 0.66488 0.93797
 C2401 C 0.26492 0.64190 0.93444
 C2402 C 0.26155 0.65017 0.91787
 C2403 C 0.25771 0.66038 0.89821
 C2404 C 0.26633 0.65233 0.87980
 C2405 C 0.26332 0.66275 0.86083
 C2406 C 0.25167 0.68126 0.86020
 C2407 C 0.24284 0.68918 0.87857
 C2408 C 0.24584 0.67875 0.89754
 C2409 C 0.24963 0.69259 0.84089
 C2410 C 0.24852 0.70223 0.82476
 H2411 H 0.27558 0.63817 0.88014
 H2412 H 0.27031 0.65655 0.84674
 H2413 H 0.23389 0.70353 0.87828
 H2414 H 0.23915 0.68514 0.91169
 C2415 C 0.76637 0.14248 0.43554
 C2416 C 0.76310 0.15075 0.41895
 C2417 C 0.75940 0.16092 0.39924
 C2418 C 0.76933 0.15371 0.38114
 C2419 C 0.76635 0.16409 0.36215
 C2420 C 0.75342 0.18172 0.36118
 C2421 C 0.74333 0.18880 0.37924
 C2422 C 0.74631 0.17842 0.39823
 C2423 C 0.75115 0.19294 0.34183
 C2424 C 0.74969 0.20249 0.32567
 H2425 H 0.77953 0.14023 0.38176
 H2426 H 0.77429 0.15852 0.34830
 H2427 H 0.73336 0.20246 0.37868
 H2428 H 0.73860 0.18417 0.41215
 C2429 C 0.23538 0.35664 0.43816
 C2430 C 0.23904 0.34833 0.42168
 C2431 C 0.24312 0.33813 0.40209
 C2432 C 0.23604 0.34702 0.38339
 C2433 C 0.23915 0.33660 0.36446
 C2434 C 0.24937 0.31726 0.36415
 C2435 C 0.25669 0.30850 0.38282
 C2436 C 0.25358 0.31892 0.40175
 C2437 C 0.25137 0.30596 0.34484
 C2438 C 0.25240 0.29636 0.32869
 H2439 H 0.22788 0.36183 0.38349
 H2440 H 0.23332 0.34346 0.35013
 H2441 H 0.26451 0.29350 0.38277
 H2442 H 0.25906 0.31187 0.41613
 C2443 C 0.73535 0.85807 0.93838
 C2444 C 0.73916 0.84975 0.92193
 C2445 C 0.74354 0.83948 0.90243
 C2446 C 0.73592 0.84778 0.88367
 C2447 C 0.73943 0.83730 0.86484
 C2448 C 0.75058 0.81848 0.86468
 C2449 C 0.75842 0.81031 0.88341
 C2450 C 0.75492 0.82079 0.90224
 C2451 C 0.75300 0.80706 0.84548
 C2452 C 0.75435 0.79736 0.82941
 H2453 H 0.72706 0.86219 0.88365
 H2454 H 0.73318 0.84370 0.85047
 H2455 H 0.76696 0.79570 0.88349
 H2456 H 0.76084 0.81420 0.91666
 C2457 C 0.76371 0.85906 0.06558
 C2458 C 0.76001 0.85090 0.08213
 C2459 C 0.75581 0.84078 0.10175
 C2460 C 0.74431 0.82218 0.10222
 C2461 C 0.74107 0.81178 0.12115
 C2462 C 0.74930 0.81996 0.13970
 C2463 C 0.76055 0.83872 0.13927
 C2464 C 0.76379 0.84911 0.12034
 C2465 C 0.74722 0.80858 0.15897
 C2466 C 0.74618 0.79886 0.17506
 H2467 H 0.73812 0.81557 0.08793
 H2468 H 0.73246 0.79723 0.12128
 H2469 H 0.76709 0.84512 0.15351
 H2470 H 0.77276 0.86345 0.12015
 C2471 C 0.26400 0.35889 0.56546
 C2472 C 0.26042 0.35094 0.58214
 C2473 C 0.25637 0.34109 0.60192
 C2474 C 0.24355 0.32340 0.60290
 C2475 C 0.24040 0.31320 0.62196
 C2476 C 0.25006 0.32067 0.64012
 C2477 C 0.26266 0.33853 0.63919
 C2478 C 0.26580 0.34872 0.62013
 C2479 C 0.24794 0.30945 0.65947
 C2480 C 0.24679 0.29982 0.67561
 H2481 H 0.23623 0.31733 0.58891
 H2482 H 0.23073 0.29934 0.62248
 H2483 H 0.27029 0.34437 0.65311
 H2484 H 0.27580 0.36235 0.61954
 C2485 C 0.73567 0.14186 0.56231
 C2486 C 0.73921 0.14983 0.57899
 C2487 C 0.74325 0.15970 0.59878
 C2488 C 0.75551 0.17779 0.59969
 C2489 C 0.75867 0.18794 0.61877
 C2490 C 0.74960 0.18002 0.63704
 C2491 C 0.73757 0.16177 0.63617
 C2492 C 0.73441 0.15162 0.61709
 C2493 C 0.75167 0.19118 0.65644
 C2494 C 0.75272 0.20074 0.67262
 H2495 H 0.76237 0.18421 0.58562
 H2496 H 0.76789 0.20211 0.61924
 H2497 H 0.73038 0.15557 0.65017
 H2498 H 0.72486 0.13768 0.61656
 C2499 C 0.23435 0.64176 0.06114
 C2500 C 0.23783 0.64986 0.07777
 C2501 C 0.24179 0.65986 0.09750
 C2502 C 0.23283 0.65194 0.11582
 C2503 C 0.23593 0.66219 0.13485
 C2504 C 0.24801 0.68041 0.13565
 C2505 C 0.25718 0.68819 0.11738
 C2506 C 0.25408 0.67794 0.09835
 C2507 C 0.25014 0.69161 0.15501
 C2508 C 0.25131 0.70118 0.17118
 H2509 H 0.22325 0.63801 0.11533
 H2510 H 0.22868 0.65609 0.14886
 H2511 H 0.26646 0.70233 0.11780
 H2512 H 0.26103 0.68423 0.08427
 C2513 C 0.14209 0.56479 0.73549
 C2514 C 0.15021 0.58139 0.73902
 C2515 C 0.16025 0.60107 0.74301
 C2516 C 0.15202 0.61949 0.73455
 C2517 C 0.16236 0.63847 0.73759
 C2518 C 0.18097 0.63912 0.74912
 C2519 C 0.18904 0.62075 0.75783
 C2520 C 0.17870 0.60177 0.75479
 C2521 C 0.19232 0.65840 0.75100
 C2522 C 0.20205 0.67448 0.75188
 H2523 H 0.13780 0.61912 0.72537
 H2524 H 0.15605 0.65257 0.73069
 H2525 H 0.20348 0.62105 0.76666
 H2526 H 0.18523 0.58761 0.76135
 C2527 C 0.64233 0.06305 0.23203
 C2528 C 0.65065 0.07965 0.23506
 C2529 C 0.66090 0.09932 0.23856
 C2530 C 0.67727 0.10073 0.25303
 C2531 C 0.68774 0.11967 0.25591
 C2532 C 0.68186 0.13728 0.24433
 C2533 C 0.66536 0.13592 0.23000
 C2534 C 0.65490 0.11698 0.22712
 C2535 C 0.69314 0.15656 0.24664
 C2536 C 0.70268 0.17271 0.24815
 H2537 H 0.68207 0.08715 0.26191
 H2538 H 0.70052 0.12054 0.26697
 H2539 H 0.66074 0.14942 0.22092
 H2540 H 0.64230 0.11605 0.21586
 C2541 C 0.85805 0.06266 0.76425
 C2542 C 0.84958 0.07905 0.76051
 C2543 C 0.83917 0.09851 0.75628
 C2544 C 0.81970 0.09858 0.74625
 C2545 C 0.80912 0.11741 0.74296
 C2546 C 0.81798 0.13624 0.74968
 C2547 C 0.83756 0.13619 0.75947
 C2548 C 0.84814 0.11737 0.76276
 C2549 C 0.80655 0.15547 0.74751
 C2550 C 0.79688 0.17158 0.74637
 H2551 H 0.81259 0.08408 0.74123
 H2552 H 0.79394 0.11725 0.73548
 H2553 H 0.84450 0.15065 0.76484
 H2554 H 0.86315 0.11749 0.77059
 C2555 C 0.35716 0.56350 0.26352
 C2556 C 0.34912 0.58003 0.25948
 C2557 C 0.33919 0.59967 0.25492
 C2558 C 0.32038 0.60011 0.24372
 C2559 C 0.31016 0.61909 0.24018
 C2560 C 0.31872 0.63771 0.24781
 C2561 C 0.33769 0.63730 0.25873
 C2562 C 0.34791 0.61832 0.26228
 C2563 C 0.30748 0.65704 0.24553
 C2564 C 0.29784 0.67317 0.24438
 H2565 H 0.31346 0.58577 0.23801
 H2566 H 0.29543 0.61920 0.23183
 H2567 H 0.34439 0.65159 0.26482
 H2568 H 0.36241 0.61816 0.27101
 C2569 C 0.35729 0.43572 0.23695
 C2570 C 0.34916 0.41916 0.24065
 C2571 C 0.33914 0.39947 0.24475
 C2572 C 0.34798 0.38091 0.23730
 C2573 C 0.33771 0.36189 0.24040
 C2574 C 0.31856 0.36135 0.25097
 C2575 C 0.30986 0.37987 0.25867
 C2576 C 0.32013 0.39889 0.25558
 C2577 C 0.30737 0.34196 0.25297
 C2578 C 0.29783 0.32577 0.25400
 H2579 H 0.36263 0.38118 0.22885
 H2580 H 0.34452 0.34768 0.23427
 H2581 H 0.29501 0.37965 0.26677
 H2582 H 0.31312 0.41316 0.26135
 C2583 C 0.86024 0.93560 0.73595
 C2584 C 0.85218 0.91900 0.73966
 C2585 C 0.84219 0.89933 0.74392
 C2586 C 0.85003 0.88091 0.73513
 C2587 C 0.83974 0.86195 0.73851
 C2588 C 0.82158 0.86133 0.75069
 C2589 C 0.81389 0.87970 0.75970
 C2590 C 0.82418 0.89866 0.75633
 C2591 C 0.81030 0.84204 0.75304
 C2592 C 0.80066 0.82593 0.75435
 H2593 H 0.86390 0.88126 0.72546
 H2594 H 0.84576 0.84785 0.73137
 H2595 H 0.79980 0.87942 0.76906
 H2596 H 0.81795 0.91283 0.76316
 C2597 C 0.64191 0.93720 0.26518
 C2598 C 0.65007 0.92057 0.26188
 C2599 C 0.66016 0.90088 0.25803
 C2600 C 0.67784 0.89998 0.24517
 C2601 C 0.68819 0.88101 0.24210
 C2602 C 0.68089 0.86286 0.25187
 C2603 C 0.66306 0.86371 0.26452
 C2604 C 0.65271 0.88269 0.26759
 C2605 C 0.69221 0.84358 0.24975
 C2606 C 0.70186 0.82746 0.24863
 H2607 H 0.68376 0.91398 0.23775
 H2608 H 0.70203 0.88054 0.23238
 H2609 H 0.65735 0.84979 0.27223
 H2610 H 0.63909 0.88322 0.27761
 C2611 C 0.14151 0.43759 0.76513
 C2612 C 0.14937 0.42087 0.76156
 C2613 C 0.15911 0.40104 0.75753
 C2614 C 0.15134 0.38290 0.76695
 C2615 C 0.16146 0.36380 0.76388
 C2616 C 0.17939 0.36276 0.75138
 C2617 C 0.18698 0.38085 0.74172
 C2618 C 0.17686 0.39995 0.74478
 C2619 C 0.19061 0.34340 0.74946
 C2620 C 0.20026 0.32727 0.74853
 H2621 H 0.13767 0.38358 0.77689
 H2622 H 0.15553 0.34993 0.77153
 H2623 H 0.20090 0.38025 0.73213
 H2624 H 0.18303 0.41389 0.73748
 C2625 C 0.06519 0.76552 0.85808
 C2626 C 0.08156 0.76201 0.84946
 C2627 C 0.10095 0.75798 0.83883
 C2628 C 0.11988 0.76469 0.84754
 C2629 C 0.13862 0.76150 0.83680
 C2630 C 0.13853 0.75157 0.81730
 C2631 C 0.11964 0.74464 0.80870
 C2632 C 0.10089 0.74783 0.81945
 C2633 C 0.15768 0.74940 0.80573
 C2634 C 0.17372 0.74823 0.79594
 H2635 H 0.12011 0.77260 0.86249
 H2636 H 0.15313 0.76701 0.84354
 H2637 H 0.11937 0.73705 0.79359
 H2638 H 0.08634 0.74263 0.81254
 C2639 C 0.56338 0.26643 0.35641
 C2640 C 0.57987 0.26309 0.34798
 C2641 C 0.59944 0.25927 0.33764
 C2642 C 0.61791 0.26793 0.34554
 C2643 C 0.63682 0.26484 0.33505
 C2644 C 0.63732 0.25307 0.31662
 C2645 C 0.61888 0.24422 0.30883
 C2646 C 0.59998 0.24731 0.31932
 C2647 C 0.65660 0.25075 0.30533
 C2648 C 0.67276 0.24931 0.29579
 H2649 H 0.61767 0.27724 0.35966
 H2650 H 0.65097 0.27181 0.34116
 H2651 H 0.61908 0.23517 0.29455
 H2652 H 0.58577 0.24059 0.31305
 C2653 C 0.56353 0.73539 0.14220
 C2654 C 0.58005 0.73903 0.15049
 C2655 C 0.59965 0.74312 0.16070
 C2656 C 0.60008 0.75436 0.17946
 C2657 C 0.61901 0.75753 0.18991
 C2658 C 0.63759 0.74948 0.18163
 C2659 C 0.63720 0.73848 0.16272
 C2660 C 0.61827 0.73531 0.15228
 C2661 C 0.65687 0.75158 0.19300
 C2662 C 0.67298 0.75270 0.20269
 H2663 H 0.58576 0.76041 0.18615
 H2664 H 0.61912 0.76595 0.20458
 H2665 H 0.65146 0.73210 0.15624
 H2666 H 0.61810 0.72655 0.13781
 C2667 C 0.06321 0.23560 0.64242
 C2668 C 0.07959 0.23937 0.65092
 C2669 C 0.09903 0.24364 0.66139
 C2670 C 0.09904 0.25403 0.68064
 C2671 C 0.11783 0.25736 0.69130
 C2672 C 0.13669 0.25032 0.68274
 C2673 C 0.13670 0.24017 0.66336
 C2674 C 0.11792 0.23684 0.65270
 C2675 C 0.15587 0.25254 0.69427
 C2676 C 0.17192 0.25371 0.70405
 H2677 H 0.08451 0.25931 0.68753
 H2678 H 0.11762 0.26513 0.70632
 H2679 H 0.15119 0.23455 0.65665
 H2680 H 0.11808 0.22873 0.63786
 C2681 C 0.93591 0.26323 0.64112
 C2682 C 0.91933 0.25956 0.64924
 C2683 C 0.89964 0.25549 0.65926
 C2684 C 0.89899 0.24388 0.67779
 C2685 C 0.87998 0.24081 0.68812
 C2686 C 0.86156 0.24934 0.67994
 C2687 C 0.86216 0.26070 0.66125
 C2688 C 0.88116 0.26377 0.65093
 C2689 C 0.84222 0.24736 0.69122
 C2690 C 0.82608 0.24633 0.70084
 H2691 H 0.91319 0.23747 0.68441
 H2692 H 0.87971 0.23210 0.70262
 H2693 H 0.84803 0.26746 0.65485
 H2694 H 0.88150 0.27284 0.63665
 C2695 C 0.43628 0.76440 0.14062
 C2696 C 0.41960 0.76083 0.14858
 C2697 C 0.39981 0.75680 0.15844
 C2698 C 0.39857 0.74275 0.17517
 C2699 C 0.37954 0.73958 0.18541
 C2700 C 0.36167 0.75044 0.17896
 C2701 C 0.36285 0.76429 0.16206
 C2702 C 0.38188 0.76746 0.15182
 C2703 C 0.34237 0.74822 0.19027
 C2704 C 0.32626 0.74703 0.19993
 H2705 H 0.41236 0.73447 0.18046
 H2706 H 0.37882 0.72892 0.19853
 H2707 H 0.34915 0.77286 0.15701
 H2708 H 0.38267 0.77842 0.13895
 C2709 C 0.43661 0.23573 0.35851
 C2710 C 0.41984 0.23928 0.35069
 C2711 C 0.39998 0.24332 0.34096
 C2712 C 0.38186 0.23374 0.34859
 C2713 C 0.36273 0.23685 0.33849
 C2714 C 0.36164 0.24957 0.32071
 C2715 C 0.37971 0.25939 0.31325
 C2716 C 0.39884 0.25628 0.32336
 C2717 C 0.34225 0.25157 0.30950
 C2718 C 0.32609 0.25255 0.29988
 H2719 H 0.38257 0.22364 0.36215
 H2720 H 0.34888 0.22909 0.34431
 H2721 H 0.37907 0.26915 0.29944
 H2722 H 0.41277 0.26371 0.31728
 C2723 C 0.93842 0.73565 0.86046
 C2724 C 0.92173 0.73926 0.85251
 C2725 C 0.90195 0.74338 0.84263
 C2726 C 0.88366 0.73428 0.85043
 C2727 C 0.86461 0.73747 0.84021
 C2728 C 0.86376 0.74980 0.82214
 C2729 C 0.88201 0.75914 0.81450
 C2730 C 0.90106 0.75595 0.82473
 C2731 C 0.84443 0.75187 0.81084
 C2732 C 0.82831 0.75290 0.80116
 H2733 H 0.88418 0.72448 0.86421
 H2734 H 0.85062 0.73007 0.84618
 H2735 H 0.88156 0.76859 0.80048
 H2736 H 0.91512 0.76301 0.81853
   
