data_POSCAR
  _audit_creation_date              2014-09-24
  _audit_creation_method            'ToBaCCo'
  _symmetry_space_group_name_H-M    'P1'
  _symmetry_Int_Tables_number       1
  _symmetry_cell_setting            triclinic
  loop_
  _symmetry_equiv_pos_as_xyz
 x,y,z
_cell_length_a 64.8159
_cell_length_b 64.8922
_cell_length_c 64.7908
_cell_angle_alpha 89.999900
_cell_angle_beta 90.000000
_cell_angle_gamma 90.000100
loop_
  _atom_site_label
  _atom_site_type_symbol
  _atom_site_fract_x
  _atom_site_fract_y
  _atom_site_fract_z
N1 N 0.32939 0.32968 0.32948
 N2 N 0.32955 0.82966 -0.17061
 N3 N 0.82948 0.32961 -0.17038
 N4 N 0.82954 0.82965 0.32951
 N5 N 0.67052 0.67037 0.32952
 N6 N 0.67031 0.17051 -0.17041
 N7 N 0.17042 0.67050 -0.17069
 N8 N 0.17055 0.17025 0.32939
 N9 N 0.67045 0.32953 0.67047
 N10 N 0.67068 0.82963 1.17049
 N11 N 0.17057 0.32974 1.17046
 N12 N 0.17041 0.82963 0.67039
 N13 N 0.32966 0.67042 0.67052
 N14 N 0.32947 0.17028 1.17050
 N15 N 0.82952 0.67017 1.17060
 N16 N 0.82954 0.17043 0.67068
 N17 N 0.32939 0.32968 0.67045
 N18 N 0.32960 0.82956 0.17038
 N19 N 0.82950 0.32957 0.17065
 N20 N 0.82936 0.82980 0.67058
 N21 N 0.67054 0.67033 0.67056
 N22 N 0.67039 0.17036 0.17065
 N23 N 0.17046 0.67042 0.17042
 N24 N 0.17039 0.17037 0.67052
 N25 N 0.32966 0.67043 0.32941
 N26 N 0.32942 0.17035 0.82939
 N27 N 0.82953 0.67025 0.82941
 N28 N 0.82969 0.17035 0.32949
 N29 N 0.67041 0.32951 0.32959
 N30 N 0.67058 0.82967 0.82962
 N31 N 0.17054 0.32977 0.82951
 N32 N 0.17052 0.82951 0.32944
 O33 O 0.27626 0.97973 0.24785
 O34 O 0.24793 1.02001 0.27616
 O35 O 0.24794 0.97973 0.27616
 O36 O 0.27625 1.02002 0.24785
 O37 O 0.25213 1.02001 0.22370
 O38 O 0.22382 0.97973 0.25202
 O39 O 0.22381 1.02001 0.25202
 O40 O 0.25214 0.97973 0.22370
 Cu41 Cu 0.26453 0.99987 0.26444
 Cu42 Cu 0.23554 0.99987 0.23543
 C43 C 0.26887 0.97279 0.23110
 C44 C 0.23120 1.02695 0.26876
 C45 C 0.23120 0.97278 0.26876
 C46 C 0.26886 1.02696 0.23110
 O47 O 0.24792 0.52025 0.77618
 O48 O 0.27624 0.47995 0.74790
 O49 O 0.27626 0.52023 0.74789
 O50 O 0.24791 0.47997 0.77620
 O51 O 0.22380 0.47997 0.75204
 O52 O 0.25215 0.52024 0.72373
 O53 O 0.25213 0.47995 0.72374
 O54 O 0.22381 0.52026 0.75203
 Cu55 Cu 0.26451 0.50010 0.76448
 Cu56 Cu 0.23554 0.50011 0.73545
 C57 C 0.23120 0.52720 0.76877
 C58 C 0.26886 0.47300 0.73115
 C59 C 0.26888 0.52717 0.73114
 C60 C 0.23118 0.47303 0.76880
 O61 O 0.75225 -0.02013 0.27618
 O62 O 0.72390 0.02015 0.24790
 O63 O 0.72392 -0.02013 0.24788
 O64 O 0.75223 0.02015 0.27619
 O65 O 0.77634 0.02017 0.25204
 O66 O 0.74802 -0.02011 0.22372
 O67 O 0.74800 0.02017 0.22374
 O68 O 0.77635 -0.02011 0.25203
 Cu69 Cu 0.73564 0.00001 0.26448
 Cu70 Cu 0.76461 0.00003 0.23545
 C71 C 0.76898 -0.02706 0.26877
 C72 C 0.73127 0.02711 0.23115
 C73 C 0.73130 -0.02706 0.23113
 C74 C 0.76896 0.02711 0.26879
 O75 O 0.74789 0.47975 0.72369
 O76 O 0.77623 0.52003 0.75199
 O77 O 0.77621 0.47975 0.75201
 O78 O 0.74791 0.52003 0.72368
 O79 O 0.72379 0.52005 0.74782
 O80 O 0.75209 0.47977 0.77616
 O81 O 0.75210 0.52005 0.77614
 O82 O 0.72377 0.47977 0.74784
 Cu83 Cu 0.76449 0.49989 0.73541
 Cu84 Cu 0.73550 0.49991 0.76442
 C85 C 0.73116 0.47282 0.73110
 C86 C 0.76884 0.52698 0.76874
 C87 C 0.76882 0.47282 0.76876
 C88 C 0.73118 0.52699 0.73108
 O89 O 0.27629 0.52023 0.25203
 O90 O 0.24795 0.47996 0.22372
 O91 O 0.24797 0.52024 0.22371
 O92 O 0.27627 0.47994 0.25204
 O93 O 0.25214 0.47996 0.27618
 O94 O 0.22385 0.52025 0.24785
 O95 O 0.22383 0.47997 0.24786
 O96 O 0.25217 0.52025 0.27617
 Cu97 Cu 0.26455 0.50009 0.23544
 Cu98 Cu 0.23556 0.50011 0.26445
 C99 C 0.26891 0.52718 0.26877
 C100 C 0.23122 0.47302 0.23112
 C101 C 0.23124 0.52719 0.23110
 C102 C 0.26887 0.47301 0.26878
 O103 O 0.72370 0.97999 0.75231
 O104 O 0.75202 1.02027 0.72399
 O105 O 0.75201 0.97999 0.72399
 O106 O 0.72370 1.02027 0.75230
 O107 O 0.74782 1.02028 0.77645
 O108 O 0.77613 0.97999 0.74814
 O109 O 0.77614 1.02027 0.74813
 O110 O 0.74782 0.97999 0.77645
 Cu111 Cu 0.73542 1.00013 0.73572
 Cu112 Cu 0.76441 1.00013 0.76473
 C113 C 0.73109 0.97305 0.76906
 C114 C 0.76875 1.02721 0.73139
 C115 C 0.76874 0.97304 0.73139
 C116 C 0.73108 1.02722 0.76905
 O117 O 0.75204 0.52003 0.22396
 O118 O 0.72369 0.47977 0.25228
 O119 O 0.72371 0.52005 0.25226
 O120 O 0.75202 0.47975 0.22397
 O121 O 0.77614 0.47975 0.24812
 O122 O 0.74782 0.52005 0.27642
 O123 O 0.74781 0.47977 0.27643
 O124 O 0.77615 0.52003 0.24811
 Cu125 Cu 0.73543 0.49990 0.23568
 Cu126 Cu 0.76441 0.49990 0.26471
 C127 C 0.76877 0.52697 0.23136
 C128 C 0.73107 0.47283 0.26902
 C129 C 0.73109 0.52700 0.26901
 C130 C 0.76875 0.47280 0.23138
 O131 O 0.24784 -0.02015 0.72365
 O132 O 0.27616 0.02013 0.75197
 O133 O 0.27617 -0.02015 0.75195
 O134 O 0.24782 0.02013 0.72367
 O135 O 0.22371 0.02011 0.74783
 O136 O 0.25206 -0.02017 0.77610
 O137 O 0.25205 0.02011 0.77613
 O138 O 0.22373 -0.02017 0.74780
 Cu139 Cu 0.26443 -0.00001 0.73537
 Cu140 Cu 0.23546 -0.00003 0.76440
 C141 C 0.23111 -0.02710 0.73105
 C142 C 0.26878 0.02706 0.76872
 C143 C 0.26879 -0.02711 0.76869
 C144 C 0.23109 0.02707 0.73108
 O145 O 0.22387 0.25218 1.02014
 O146 O 0.25210 0.22382 0.97979
 O147 O 0.25211 0.22382 1.02014
 O148 O 0.22387 0.25219 0.97980
 O149 O 0.24807 0.27621 0.97980
 O150 O 0.27630 0.24785 1.02014
 O151 O 0.27630 0.24785 0.97979
 O152 O 0.24807 0.27621 1.02015
 Cu153 Cu 0.23555 0.23558 0.99997
 Cu154 Cu 0.26463 0.26445 0.99997
 C155 C 0.23131 0.26887 1.02710
 C156 C 0.26885 0.23116 0.97284
 C157 C 0.26886 0.23115 1.02709
 C158 C 0.23131 0.26888 0.97285
 O159 O 0.24806 0.77617 0.47979
 O160 O 0.27636 0.74788 0.52014
 O161 O 0.27637 0.74788 0.47979
 O162 O 0.24806 0.77617 0.52013
 O163 O 0.22392 0.75208 0.52013
 O164 O 0.25223 0.72379 0.47979
 O165 O 0.25223 0.72379 0.52014
 O166 O 0.22393 0.75207 0.47979
 Cu167 Cu 0.26465 0.76446 0.49996
 Cu168 Cu 0.23564 0.73550 0.49996
 C169 C 0.23132 0.76879 0.47283
 C170 C 0.26897 0.73117 0.52709
 C171 C 0.26897 0.73116 0.47284
 C172 C 0.23132 0.76879 0.52708
 O173 O 0.27612 0.75217 -0.02030
 O174 O 0.24783 0.72386 0.02003
 O175 O 0.24782 0.72388 -0.02031
 O176 O 0.27613 0.75215 0.02004
 O177 O 0.25199 0.77624 0.02006
 O178 O 0.22368 0.74797 -0.02029
 O179 O 0.22369 0.74795 0.02005
 O180 O 0.25198 0.77626 -0.02028
 Cu181 Cu 0.26441 0.73559 -0.00014
 Cu182 Cu 0.23540 0.76453 -0.00011
 C183 C 0.26872 0.76889 -0.02724
 C184 C 0.23109 0.73123 0.02700
 C185 C 0.23108 0.73126 -0.02726
 C186 C 0.26873 0.76886 0.02700
 O187 O 0.22360 0.24785 0.47978
 O188 O 0.25183 0.27621 0.52013
 O189 O 0.25184 0.27620 0.47978
 O190 O 0.22359 0.24787 0.52013
 O191 O 0.24777 0.22383 0.52014
 O192 O 0.27603 0.25216 0.47980
 O193 O 0.27602 0.25218 0.52014
 O194 O 0.24779 0.22381 0.47980
 Cu195 Cu 0.23527 0.26446 0.49995
 Cu196 Cu 0.26434 0.23557 0.49997
 C197 C 0.23104 0.23115 0.47284
 C198 C 0.26858 0.26888 0.52709
 C199 C 0.26860 0.26886 0.47284
 C200 C 0.23102 0.23117 0.52709
 O201 O 0.74817 0.77604 0.97986
 O202 O 0.77641 0.74767 1.02019
 O203 O 0.77640 0.74768 0.97985
 O204 O 0.74818 0.77603 1.02020
 O205 O 0.72398 0.75200 1.02020
 O206 O 0.75221 0.72365 0.97984
 O207 O 0.75221 0.72364 1.02019
 O208 O 0.72397 0.75200 0.97986
 Cu209 Cu 0.76473 0.76428 1.00002
 Cu210 Cu 0.73565 0.73540 1.00002
 C211 C 0.73141 0.76870 0.97291
 C212 C 0.76897 0.73097 1.02714
 C213 C 0.76896 0.73099 0.97289
 C214 C 0.73142 0.76869 1.02715
 O215 O 0.72391 0.25197 0.52020
 O216 O 0.75222 0.22368 0.47987
 O217 O 0.75221 0.22369 0.52021
 O218 O 0.72391 0.25196 0.47986
 O219 O 0.74805 0.27606 0.47986
 O220 O 0.77634 0.24778 0.52021
 O221 O 0.77635 0.24777 0.47987
 O222 O 0.74804 0.27607 0.52020
 Cu223 Cu 0.73563 0.23540 0.50003
 Cu224 Cu 0.76463 0.26435 0.50003
 C225 C 0.73130 0.26869 0.52715
 C226 C 0.76896 0.23106 0.47291
 C227 C 0.76894 0.23107 0.52717
 C228 C 0.73131 0.26868 0.47290
 O229 O 0.77603 0.25220 -0.02005
 O230 O 0.74775 0.22389 0.02029
 O231 O 0.74773 0.22391 -0.02005
 O232 O 0.77605 0.25218 0.02029
 O233 O 0.75191 0.27627 0.02031
 O234 O 0.72359 0.24800 -0.02003
 O235 O 0.72361 0.24798 0.02031
 O236 O 0.75189 0.27629 -0.02003
 Cu237 Cu 0.76432 0.23562 0.00012
 Cu238 Cu 0.73532 0.26456 0.00014
 C239 C 0.76863 0.26891 -0.02699
 C240 C 0.73101 0.23126 0.02726
 C241 C 0.73099 0.23129 -0.02699
 C242 C 0.76865 0.26890 0.02726
 O243 O 0.77613 0.75229 0.47988
 O244 O 0.74788 0.72396 0.52023
 O245 O 0.74789 0.72394 0.47988
 O246 O 0.77611 0.75231 0.52022
 O247 O 0.75192 0.77635 0.52020
 O248 O 0.72370 0.74798 0.47986
 O249 O 0.72369 0.74799 0.52021
 O250 O 0.75194 0.77632 0.47986
 Cu251 Cu 0.76444 0.73570 0.50006
 Cu252 Cu 0.73537 0.76459 0.50003
 C253 C 0.76870 0.76898 0.47291
 C254 C 0.73112 0.73130 0.52717
 C255 C 0.73113 0.73128 0.47292
 C256 C 0.76867 0.76901 0.52717
 O257 O 0.97993 0.25218 0.22369
 O258 O 1.02027 0.22381 0.25190
 O259 O 0.97994 0.22382 0.25193
 O260 O 1.02026 0.25218 0.22366
 O261 O 1.02027 0.27621 0.24787
 O262 O 0.97996 0.24785 0.27614
 O263 O 1.02029 0.24784 0.27611
 O264 O 0.97994 0.27621 0.24789
 Cu265 Cu 1.00010 0.23557 0.23535
 Cu266 Cu 1.00012 0.26445 0.26444
 C267 C 0.97298 0.26887 0.23113
 C268 C 1.02723 0.23115 0.26866
 C269 C 0.97301 0.23115 0.26870
 C270 C 1.02721 0.26887 0.23110
 O271 O 0.47973 0.25214 0.72362
 O272 O 0.52004 0.22383 0.75193
 O273 O 0.47972 0.22382 0.75190
 O274 O 0.52006 0.25215 0.72364
 O275 O 0.52004 0.27621 0.74782
 O276 O 0.47970 0.24789 0.77608
 O277 O 0.52003 0.24789 0.77610
 O278 O 0.47971 0.27621 0.74780
 Cu279 Cu 0.49989 0.23556 0.73534
 Cu280 Cu 0.49987 0.26448 0.76438
 C281 C 0.47277 0.26885 0.73104
 C282 C 0.52698 0.23119 0.76869
 C283 C 0.47276 0.23118 0.76865
 C284 C 0.52700 0.26885 0.73107
 O285 O 0.02020 0.25221 0.77642
 O286 O -0.02015 0.22386 0.74819
 O287 O 0.02018 0.22387 0.74816
 O288 O -0.02013 0.25220 0.77645
 O289 O -0.02016 0.27624 0.75226
 O290 O 0.02016 0.24792 0.72397
 O291 O -0.02017 0.24791 0.72400
 O292 O 0.02017 0.27626 0.75223
 Cu293 Cu 0.00003 0.23561 0.76474
 Cu294 Cu -0.00000 0.26451 0.73567
 C295 C 0.02714 0.26891 0.76898
 C296 C -0.02711 0.23120 0.73143
 C297 C 0.02712 0.23122 0.73139
 C298 C -0.02710 0.26889 0.76902
 O299 O 0.52004 0.25207 0.27638
 O300 O 0.47971 0.22374 0.24810
 O301 O 0.52004 0.22373 0.24812
 O302 O 0.47971 0.25209 0.27636
 O303 O 0.47973 0.27613 0.25217
 O304 O 0.52006 0.24777 0.22393
 O305 O 0.47974 0.24779 0.22391
 O306 O 0.52006 0.27611 0.25219
 Cu307 Cu 0.49987 0.23548 0.26468
 Cu308 Cu 0.49990 0.26438 0.23561
 C309 C 0.52700 0.26876 0.26895
 C310 C 0.47277 0.23109 0.23134
 C311 C 0.52700 0.23107 0.23137
 C312 C 0.47277 0.26879 0.26893
 O313 O 1.02006 0.77625 0.74779
 O314 O 0.97975 0.74789 0.77606
 O315 O 1.02008 0.74789 0.77604
 O316 O 0.97973 0.77625 0.74782
 O317 O 0.97972 0.75222 0.72361
 O318 O 1.02006 0.72386 0.75183
 O319 O 0.97974 0.72386 0.75186
 O320 O 1.02005 0.75221 0.72358
 Cu321 Cu 0.99991 0.76449 0.76437
 Cu322 Cu 0.99989 0.73561 0.73528
 C323 C 1.02700 0.76891 0.73102
 C324 C 0.97280 0.73119 0.76862
 C325 C 1.02703 0.73120 0.76859
 C326 C 0.97277 0.76891 0.73106
 O327 O 0.47995 0.74791 0.27608
 O328 O 0.52029 0.77624 0.24782
 O329 O 0.47996 0.77624 0.24780
 O330 O 0.52028 0.74792 0.27609
 O331 O 0.52030 0.72386 0.25192
 O332 O 0.47998 0.75217 0.22362
 O333 O 0.52031 0.75218 0.22364
 O334 O 0.47997 0.72385 0.25190
 Cu335 Cu 0.50012 0.76450 0.26438
 Cu336 Cu 0.50014 0.73559 0.23533
 C337 C 0.47301 0.73121 0.26865
 C338 C 0.52725 0.76889 0.23107
 C339 C 0.47302 0.76888 0.23104
 C340 C 0.52724 0.73121 0.26868
 O341 O 0.02017 0.75204 0.27628
 O342 O -0.02017 0.72369 0.24804
 O343 O 0.02016 0.72371 0.24801
 O344 O -0.02016 0.75203 0.27631
 O345 O -0.02018 0.77608 0.25212
 O346 O 0.02013 0.74776 0.22383
 O347 O -0.02020 0.74774 0.22386
 O348 O 0.02014 0.77609 0.25209
 Cu349 Cu -0.00000 0.73544 0.26460
 Cu350 Cu -0.00003 0.76434 0.23553
 C351 C 0.02711 0.76874 0.26885
 C352 C -0.02714 0.73104 0.23129
 C353 C 0.02709 0.73106 0.23125
 C354 C -0.02712 0.76873 0.26888
 O355 O 0.47994 0.72384 0.74808
 O356 O 0.52026 0.75216 0.77636
 O357 O 0.47993 0.75218 0.77634
 O358 O 0.52026 0.72382 0.74810
 O359 O 0.52029 0.74786 0.72391
 O360 O 0.47996 0.77622 0.75215
 O361 O 0.52029 0.77620 0.75217
 O362 O 0.47996 0.74788 0.72389
 Cu363 Cu 0.50010 0.73557 0.76466
 Cu364 Cu 0.50012 0.76447 0.73559
 C365 C 0.47300 0.73118 0.73132
 C366 C 0.52723 0.76886 0.76893
 C367 C 0.47299 0.76888 0.76890
 C368 C 0.52722 0.73116 0.73134
 C369 C 0.34936 0.32424 0.32407
 C370 C 0.36651 0.31911 0.31897
 C371 C 0.38655 0.31235 0.31225
 C372 C 0.39599 0.32174 0.29522
 C373 C 0.41454 0.31392 0.28745
 C374 C 0.42373 0.29668 0.29667
 C375 C 0.41454 0.28759 0.31400
 C376 C 0.39599 0.29541 0.32178
 C377 C 0.44167 0.28741 0.28746
 C378 C 0.45618 0.27916 0.27925
 H379 H 0.38876 0.33475 0.28764
 H380 H 0.42143 0.32097 0.27395
 H381 H 0.42142 0.27416 0.32117
 H382 H 0.38875 0.28794 0.33486
 C383 C 0.34952 0.82423 0.82399
 C384 C 0.36668 0.81912 0.81890
 C385 C 0.38674 0.81239 0.81219
 C386 C 0.39617 0.82177 0.79515
 C387 C 0.41472 0.81397 0.78739
 C388 C 0.42393 0.79675 0.79663
 C389 C 0.41475 0.78767 0.81397
 C390 C 0.39619 0.79547 0.82174
 C391 C 0.44188 0.78749 0.78742
 C392 C 0.45639 0.77925 0.77922
 H393 H 0.38891 0.83476 0.78756
 H394 H 0.42160 0.82102 0.77388
 H395 H 0.42165 0.77425 0.82115
 H396 H 0.38896 0.78800 0.83483
 C397 C -0.15055 0.32418 0.82422
 C398 C -0.13340 0.31907 0.81912
 C399 C -0.11334 0.31234 0.81241
 C400 C -0.10388 0.32179 0.79542
 C401 C -0.08532 0.31399 0.78764
 C402 C -0.07615 0.29672 0.79682
 C403 C -0.08536 0.28757 0.81410
 C404 C -0.10392 0.29536 0.82188
 C405 C -0.05820 0.28747 0.78758
 C406 C -0.04369 0.27924 0.77936
 H407 H -0.11110 0.33483 0.78788
 H408 H -0.07841 0.32109 0.77417
 H409 H -0.07849 0.27411 0.82122
 H410 H -0.11118 0.28784 0.83493
 C411 C -0.15049 0.82419 0.32410
 C412 C -0.13335 0.81904 0.31900
 C413 C -0.11331 0.81227 0.31228
 C414 C -0.10383 0.82172 0.29530
 C415 C -0.08529 0.81389 0.28752
 C416 C -0.07615 0.79659 0.29668
 C417 C -0.08538 0.78745 0.31396
 C418 C -0.10392 0.79527 0.32174
 C419 C -0.05821 0.78733 0.28745
 C420 C -0.04371 0.77909 0.27922
 H421 H -0.11103 0.83478 0.28777
 H422 H -0.07837 0.82099 0.27406
 H423 H -0.07853 0.77397 0.32107
 H424 H -0.11120 0.78775 0.33478
 C425 C 0.65056 0.67582 0.32407
 C426 C 0.63343 0.68095 0.31893
 C427 C 0.61340 0.68771 0.31217
 C428 C 0.60399 0.67830 0.29513
 C429 C 0.58545 0.68611 0.28732
 C430 C 0.57625 0.70337 0.29651
 C431 C 0.58542 0.71248 0.31384
 C432 C 0.60395 0.70466 0.32166
 C433 C 0.55832 0.71262 0.28725
 C434 C 0.54382 0.72086 0.27902
 H435 H 0.61123 0.66528 0.28758
 H436 H 0.57858 0.67904 0.27381
 H437 H 0.57852 0.72592 0.32098
 H438 H 0.61117 0.71215 0.33474
 C439 C 0.65034 0.17592 0.82413
 C440 C 0.63320 0.18103 0.81898
 C441 C 0.61316 0.18775 0.81221
 C442 C 0.60380 0.17837 0.79513
 C443 C 0.58526 0.18616 0.78731
 C444 C 0.57601 0.20336 0.79654
 C445 C 0.58512 0.21245 0.81391
 C446 C 0.60366 0.20466 0.82173
 C447 C 0.55807 0.21261 0.78727
 C448 C 0.54357 0.22084 0.77904
 H449 H 0.61109 0.16539 0.78755
 H450 H 0.57843 0.17912 0.77377
 H451 H 0.57818 0.22585 0.82107
 H452 H 0.61084 0.21212 0.83485
 C453 C 1.15045 0.67591 0.82385
 C454 C 1.13331 0.68101 0.81872
 C455 C 1.11326 0.68773 0.81197
 C456 C 1.10373 0.70458 0.82156
 C457 C 1.08518 0.71237 0.81376
 C458 C 1.07608 0.70334 0.79635
 C459 C 1.08537 0.68619 0.78705
 C460 C 1.10392 0.67840 0.79485
 C461 C 1.05814 0.71260 0.78712
 C462 C 1.04363 0.72083 0.77891
 H463 H 1.11089 0.71201 0.83471
 H464 H 1.07821 0.72574 0.82097
 H465 H 1.07855 0.67919 0.77349
 H466 H 1.11123 0.66546 0.78723
 C467 C 1.15059 0.17569 0.32393
 C468 C 1.13346 0.18082 0.31879
 C469 C 1.11342 0.18757 0.31202
 C470 C 1.10388 0.20439 0.32166
 C471 C 1.08534 0.21221 0.31386
 C472 C 1.07627 0.20324 0.29640
 C473 C 1.08557 0.18612 0.28706
 C474 C 1.10411 0.17830 0.29486
 C475 C 1.05833 0.21252 0.28718
 C476 C 1.04383 0.22077 0.27898
 H477 H 1.11102 0.21177 0.33484
 H478 H 1.07836 0.22555 0.32111
 H479 H 1.07878 0.17917 0.27346
 H480 H 1.11143 0.16539 0.28720
 C481 C 0.65047 0.32412 0.67589
 C482 C 0.63332 0.31901 0.68099
 C483 C 0.61326 0.31229 0.68771
 C484 C 0.60379 0.29537 0.67818
 C485 C 0.58523 0.28758 0.68596
 C486 C 0.57607 0.29668 0.70330
 C487 C 0.58529 0.31390 0.71254
 C488 C 0.60385 0.32169 0.70476
 C489 C 0.55812 0.28743 0.71253
 C490 C 0.54360 0.27920 0.72074
 H491 H 0.61101 0.28790 0.66509
 H492 H 0.57832 0.27417 0.67880
 H493 H 0.57842 0.32095 0.72604
 H494 H 0.61112 0.33468 0.71234
 C495 C 0.65071 0.82420 0.17590
 C496 C 0.63356 0.81909 0.18101
 C497 C 0.61350 0.81235 0.18773
 C498 C 0.60404 0.79543 0.17820
 C499 C 0.58549 0.78763 0.18598
 C500 C 0.57631 0.79673 0.20331
 C501 C 0.58552 0.81396 0.21254
 C502 C 0.60408 0.82175 0.20476
 C503 C 0.55836 0.78748 0.21253
 C504 C 0.54385 0.77924 0.22074
 H505 H 0.61127 0.78795 0.16511
 H506 H 0.57859 0.77421 0.17882
 H507 H 0.57865 0.82102 0.22604
 H508 H 0.61133 0.83475 0.21234
 C509 C 1.15060 0.32429 0.17588
 C510 C 1.13346 0.31917 0.18099
 C511 C 1.11341 0.31241 0.18772
 C512 C 1.10398 0.32180 0.20476
 C513 C 1.08544 0.31399 0.21254
 C514 C 1.07624 0.29675 0.20332
 C515 C 1.08542 0.28766 0.18598
 C516 C 1.10397 0.29547 0.17820
 C517 C 1.05831 0.28748 0.21255
 C518 C 1.04380 0.27924 0.22077
 H519 H 1.11123 0.33481 0.21233
 H520 H 1.07856 0.32104 0.22605
 H521 H 1.07853 0.27423 0.17883
 H522 H 1.11120 0.28800 0.16511
 C523 C 1.15044 0.82421 0.67581
 C524 C 1.13329 0.81911 0.68091
 C525 C 1.11323 0.81238 0.68764
 C526 C 1.10376 0.79546 0.67811
 C527 C 1.08521 0.78766 0.68590
 C528 C 1.07605 0.79676 0.70324
 C529 C 1.08527 0.81398 0.71247
 C530 C 1.10382 0.82177 0.70468
 C531 C 1.05810 0.78750 0.71247
 C532 C 1.04360 0.77927 0.72069
 H533 H 1.11098 0.78798 0.66502
 H534 H 1.07830 0.77425 0.67873
 H535 H 1.07840 0.82103 0.72598
 H536 H 1.11109 0.83477 0.71226
 C537 C 0.34963 0.67585 0.67597
 C538 C 0.36677 0.68097 0.68110
 C539 C 0.38681 0.68771 0.68786
 C540 C 0.39619 0.67832 0.70492
 C541 C 0.41473 0.68613 0.71273
 C542 C 0.42397 0.70334 0.70350
 C543 C 0.41483 0.71243 0.68614
 C544 C 0.39629 0.70462 0.67833
 C545 C 0.44190 0.71260 0.71275
 C546 C 0.45640 0.72083 0.72098
 H547 H 0.38892 0.66533 0.71250
 H548 H 0.42158 0.67908 0.72625
 H549 H 0.42175 0.72584 0.67898
 H550 H 0.38909 0.71209 0.66523
 C551 C 0.34943 0.17573 0.17596
 C552 C 0.36657 0.18085 0.18110
 C553 C 0.38660 0.18760 0.18786
 C554 C 0.39600 0.17821 0.20492
 C555 C 0.41453 0.18601 0.21273
 C556 C 0.42375 0.20324 0.20352
 C557 C 0.41461 0.21234 0.18616
 C558 C 0.39607 0.20453 0.17835
 C559 C 0.44168 0.21250 0.21277
 C560 C 0.45618 0.22074 0.22100
 H561 H 0.38873 0.16520 0.21248
 H562 H 0.42138 0.17896 0.22625
 H563 H 0.42152 0.22576 0.17901
 H564 H 0.38887 0.21200 0.16525
 C565 C -0.15051 0.67561 0.17605
 C566 C -0.13338 0.68074 0.18117
 C567 C -0.11333 0.68749 0.18792
 C568 C -0.10395 0.67814 0.20500
 C569 C -0.08540 0.68595 0.21279
 C570 C -0.07617 0.70315 0.20353
 C571 C -0.08531 0.71220 0.18615
 C572 C -0.10385 0.70439 0.17836
 C573 C -0.05824 0.71242 0.21276
 C574 C -0.04373 0.72067 0.22097
 H575 H -0.11122 0.66516 0.21260
 H576 H -0.07855 0.67893 0.22632
 H577 H -0.07839 0.72560 0.17896
 H578 H -0.11106 0.71183 0.16524
 C579 C -0.15050 0.17585 0.67613
 C580 C -0.13336 0.18097 0.68127
 C581 C -0.11332 0.18770 0.68803
 C582 C -0.10396 0.17836 0.70514
 C583 C -0.08542 0.18617 0.71294
 C584 C -0.07615 0.20334 0.70366
 C585 C -0.08526 0.21238 0.68626
 C586 C -0.10380 0.20458 0.67846
 C587 C -0.05822 0.21260 0.71290
 C588 C -0.04371 0.22084 0.72111
 H589 H -0.11126 0.16541 0.71275
 H590 H -0.07860 0.17915 0.72649
 H591 H -0.07831 0.22576 0.67907
 H592 H -0.11098 0.21201 0.66532
 C593 C 0.32400 0.34964 0.32406
 C594 C 0.31891 0.36678 0.31896
 C595 C 0.31221 0.38682 0.31223
 C596 C 0.32169 0.39625 0.29524
 C597 C 0.31392 0.41479 0.28744
 C598 C 0.29664 0.42399 0.29661
 C599 C 0.28746 0.41482 0.31390
 C600 C 0.29523 0.39627 0.32170
 C601 C 0.28742 0.44192 0.28736
 C602 C 0.27921 0.45642 0.27913
 H603 H 0.33473 0.38900 0.28770
 H604 H 0.32104 0.42166 0.27397
 H605 H 0.27400 0.42171 0.32102
 H606 H 0.28769 0.38905 0.33475
 C607 C 0.32412 -0.15040 0.82396
 C608 C 0.31901 -0.13327 0.81884
 C609 C 0.31228 -0.11324 0.81210
 C610 C 0.32169 -0.10385 0.79506
 C611 C 0.31389 -0.08532 0.78726
 C612 C 0.29665 -0.07611 0.79648
 C613 C 0.28753 -0.08525 0.81383
 C614 C 0.29533 -0.10378 0.82162
 C615 C 0.28739 -0.05818 0.78725
 C616 C 0.27915 -0.04369 0.77903
 H617 H 0.33470 -0.11111 0.78749
 H618 H 0.32096 -0.07847 0.77375
 H619 H 0.27410 -0.07834 0.82098
 H620 H 0.28784 -0.11099 0.83471
 C621 C 0.82406 0.34956 0.82417
 C622 C 0.81895 0.36668 0.81905
 C623 C 0.81223 0.38671 0.81229
 C624 C 0.82169 0.39611 0.79527
 C625 C 0.81390 0.41463 0.78746
 C626 C 0.79663 0.42384 0.79663
 C627 C 0.78746 0.41469 0.81394
 C628 C 0.79525 0.39616 0.82175
 C629 C 0.78739 0.44176 0.78736
 C630 C 0.77916 0.45624 0.77912
 H631 H 0.83473 0.38886 0.78774
 H632 H 0.82101 0.42149 0.77397
 H633 H 0.77401 0.42158 0.82105
 H634 H 0.78772 0.38895 0.83482
 C635 C 0.82416 -0.15039 0.32407
 C636 C 0.81908 -0.13326 0.31895
 C637 C 0.81238 -0.11322 0.31220
 C638 C 0.82177 -0.10388 0.29512
 C639 C 0.81400 -0.08534 0.28732
 C640 C 0.79680 -0.07607 0.29657
 C641 C 0.78771 -0.08516 0.31395
 C642 C 0.79549 -0.10370 0.32175
 C643 C 0.78756 -0.05814 0.28733
 C644 C 0.77933 -0.04364 0.27911
 H645 H 0.83475 -0.11118 0.28753
 H646 H 0.82105 -0.07852 0.27378
 H647 H 0.77432 -0.07821 0.32113
 H648 H 0.78801 -0.11087 0.33488
 C649 C 0.32424 0.65047 0.67593
 C650 C 0.31913 0.63334 0.68102
 C651 C 0.31239 0.61330 0.68774
 C652 C 0.32184 0.60386 0.70474
 C653 C 0.31403 0.58533 0.71252
 C654 C 0.29675 0.57616 0.70333
 C655 C 0.28759 0.58535 0.68604
 C656 C 0.29540 0.60388 0.67826
 C657 C 0.28748 0.55824 0.71257
 C658 C 0.27924 0.54375 0.72079
 H659 H 0.33488 0.61109 0.71228
 H660 H 0.32113 0.57844 0.72599
 H661 H 0.27413 0.57848 0.67891
 H662 H 0.28788 0.61113 0.66520
 C663 C 0.32407 1.15032 0.17590
 C664 C 0.31897 1.13319 0.18100
 C665 C 0.31225 1.11314 0.18771
 C666 C 0.32173 1.10370 0.20470
 C667 C 0.31395 1.08516 0.21248
 C668 C 0.29666 1.07598 0.20330
 C669 C 0.28749 1.08517 0.18601
 C670 C 0.29527 1.10371 0.17823
 C671 C 0.28742 1.05804 0.21254
 C672 C 0.27920 1.04354 0.22076
 H673 H 0.33477 1.11094 0.21223
 H674 H 0.32106 1.07827 0.22594
 H675 H 0.27402 1.07829 0.17890
 H676 H 0.28773 1.11095 0.16519
 C677 C 0.82410 0.65023 0.17603
 C678 C 0.81899 0.63310 0.18115
 C679 C 0.81225 0.61307 0.18789
 C680 C 0.79529 0.60363 0.17840
 C681 C 0.78749 0.58510 0.18620
 C682 C 0.79662 0.57594 0.20352
 C683 C 0.81389 0.58514 0.21272
 C684 C 0.82169 0.60366 0.20491
 C685 C 0.78737 0.55803 0.21278
 C686 C 0.77913 0.54354 0.22101
 H687 H 0.78778 0.61084 0.16533
 H688 H 0.77403 0.57821 0.17907
 H689 H 0.82098 0.57828 0.22621
 H690 H 0.83473 0.61091 0.21246
 C691 C 0.82411 1.15048 0.67611
 C692 C 0.81899 1.13335 0.68122
 C693 C 0.81224 1.11333 0.68795
 C694 C 0.82170 1.10389 0.70495
 C695 C 0.81389 1.08536 0.71274
 C696 C 0.79660 1.07620 0.70357
 C697 C 0.78744 1.08538 0.68627
 C698 C 0.79524 1.10391 0.67848
 C699 C 0.78734 1.05828 0.71281
 C700 C 0.77911 1.04379 0.72104
 H701 H 0.83475 1.11111 0.71248
 H702 H 0.82100 1.07848 0.72621
 H703 H 0.77397 1.07851 0.67916
 H704 H 0.78772 1.11115 0.66543
 C705 C 0.67592 0.65041 0.32413
 C706 C 0.68101 0.63327 0.31905
 C707 C 0.68772 0.61322 0.31235
 C708 C 0.67824 0.60377 0.29537
 C709 C 0.68601 0.58521 0.28761
 C710 C 0.70330 0.57604 0.29678
 C711 C 0.71248 0.58524 0.31406
 C712 C 0.70471 0.60379 0.32183
 C713 C 0.71253 0.55810 0.28756
 C714 C 0.72075 0.54359 0.27934
 H715 H 0.66519 0.61100 0.28783
 H716 H 0.67889 0.57832 0.27415
 H717 H 0.72595 0.57836 0.32118
 H718 H 0.71225 0.61104 0.33486
 C719 C 0.67574 1.15055 0.82419
 C720 C 0.68086 1.13342 0.81911
 C721 C 0.68761 1.11338 0.81240
 C722 C 0.67812 1.10390 0.79546
 C723 C 0.68592 1.08536 0.78769
 C724 C 0.70325 1.07623 0.79684
 C725 C 0.71244 1.08547 0.81408
 C726 C 0.70464 1.10401 0.82185
 C727 C 0.71250 1.05830 0.78761
 C728 C 0.72073 1.04380 0.77939
 H729 H 0.66504 1.11109 0.78794
 H730 H 0.67879 1.07843 0.77425
 H731 H 0.72594 1.07863 0.82118
 H732 H 0.71219 1.11128 0.83487
 C733 C 0.17586 0.65054 0.82391
 C734 C 0.18098 0.63341 0.81882
 C735 C 0.18773 0.61337 0.81211
 C736 C 0.20474 0.60399 0.82157
 C737 C 0.21255 0.58545 0.81381
 C738 C 0.20336 0.57622 0.79655
 C739 C 0.18605 0.58536 0.78739
 C740 C 0.17824 0.60390 0.79516
 C741 C 0.21262 0.55829 0.78732
 C742 C 0.22085 0.54379 0.77911
 H743 H 0.21229 0.61126 0.83460
 H744 H 0.22604 0.57860 0.82091
 H745 H 0.17892 0.57844 0.77394
 H746 H 0.16517 0.61109 0.78763
 C747 C 0.17596 1.15029 0.32399
 C748 C 0.18106 1.13315 0.31889
 C749 C 0.18778 1.11311 0.31217
 C750 C 0.20477 1.10368 0.32165
 C751 C 0.21255 1.08514 0.31386
 C752 C 0.20338 1.07596 0.29658
 C753 C 0.18610 1.08514 0.28740
 C754 C 0.17831 1.10368 0.29519
 C755 C 0.21262 1.05803 0.28734
 C756 C 0.22085 1.04353 0.27911
 H757 H 0.21230 1.11092 0.33470
 H758 H 0.22602 1.07827 0.32098
 H759 H 0.17898 1.07825 0.27393
 H760 H 0.16526 1.11091 0.28765
 C761 C 0.67587 0.34949 0.67588
 C762 C 0.68098 0.36662 0.68098
 C763 C 0.68771 0.38666 0.68770
 C764 C 0.70471 0.39608 0.67823
 C765 C 0.71250 0.41461 0.68601
 C766 C 0.70333 0.42381 0.70329
 C767 C 0.68603 0.41464 0.71246
 C768 C 0.67824 0.39610 0.70468
 C769 C 0.71258 0.44174 0.71253
 C770 C 0.72081 0.45624 0.72075
 H771 H 0.71224 0.38883 0.66518
 H772 H 0.72597 0.42148 0.67890
 H773 H 0.67892 0.42154 0.72593
 H774 H 0.66519 0.38888 0.71222
 C775 C 0.67609 -0.15041 0.17589
 C776 C 0.68119 -0.13327 0.18099
 C777 C 0.68790 -0.11323 0.18771
 C778 C 0.70488 -0.10379 0.17823
 C779 C 0.71266 -0.08525 0.18602
 C780 C 0.70349 -0.07608 0.20332
 C781 C 0.68622 -0.08527 0.21250
 C782 C 0.67844 -0.10381 0.20471
 C783 C 0.71273 -0.05814 0.21256
 C784 C 0.72095 -0.04365 0.22078
 H785 H 0.71241 -0.11102 0.16518
 H786 H 0.72612 -0.07836 0.17890
 H787 H 0.67911 -0.07839 0.22597
 H788 H 0.66540 -0.11105 0.21225
 C789 C 0.17597 0.34969 0.17587
 C790 C 0.18107 0.36683 0.18098
 C791 C 0.18779 0.38687 0.18770
 C792 C 0.17833 0.39629 0.20471
 C793 C 0.18612 0.41483 0.21249
 C794 C 0.20339 0.42402 0.20331
 C795 C 0.21254 0.41485 0.18600
 C796 C 0.20476 0.39631 0.17821
 C797 C 0.21263 0.44195 0.21255
 C798 C 0.22086 0.45644 0.22077
 H799 H 0.16530 0.38904 0.21226
 H800 H 0.17902 0.42170 0.22598
 H801 H 0.22600 0.42174 0.17887
 H802 H 0.21228 0.38908 0.16515
 C803 C 0.17583 -0.15041 0.67580
 C804 C 0.18094 -0.13328 0.68090
 C805 C 0.18767 -0.11324 0.68762
 C806 C 0.20467 -0.10383 0.67816
 C807 C 0.21247 -0.08530 0.68595
 C808 C 0.20329 -0.07610 0.70323
 C809 C 0.18599 -0.08526 0.71239
 C810 C 0.17819 -0.10380 0.70460
 C811 C 0.21253 -0.05817 0.71247
 C812 C 0.22076 -0.04368 0.72070
 H813 H 0.21222 -0.11108 0.66512
 H814 H 0.22595 -0.07843 0.67884
 H815 H 0.17886 -0.07837 0.72585
 H816 H 0.16513 -0.11102 0.71213
 C817 C 0.32393 0.32424 0.34944
 C818 C 0.31879 0.31912 0.36658
 C819 C 0.31203 0.31237 0.38663
 C820 C 0.32156 0.29546 0.39611
 C821 C 0.31375 0.28765 0.41466
 C822 C 0.29639 0.29672 0.42379
 C823 C 0.28716 0.31393 0.41456
 C824 C 0.29496 0.32174 0.39601
 C825 C 0.28715 0.28746 0.44173
 C826 C 0.27893 0.27922 0.45624
 H827 H 0.33467 0.28800 0.38891
 H828 H 0.32092 0.27424 0.42158
 H829 H 0.27363 0.32097 0.42141
 H830 H 0.28739 0.33473 0.38874
 C831 C 0.32409 0.82422 -0.15064
 C832 C 0.31895 0.81911 -0.13350
 C833 C 0.31219 0.81236 -0.11345
 C834 C 0.32169 0.79544 -0.10397
 C835 C 0.31388 0.78764 -0.08543
 C836 C 0.29654 0.79673 -0.07628
 C837 C 0.28732 0.81396 -0.08551
 C838 C 0.29514 0.82176 -0.10406
 C839 C 0.28729 0.78748 -0.05834
 C840 C 0.27906 0.77924 -0.04384
 H841 H 0.33479 0.78796 -0.11118
 H842 H 0.32103 0.77422 -0.07851
 H843 H 0.27381 0.82101 -0.07866
 H844 H 0.28757 0.83476 -0.11133
 C845 C 0.82402 0.32419 -0.15041
 C846 C 0.81888 0.31908 -0.13327
 C847 C 0.81211 0.31235 -0.11322
 C848 C 0.82163 0.29545 -0.10371
 C849 C 0.81382 0.28766 -0.08517
 C850 C 0.79645 0.29674 -0.07604
 C851 C 0.78723 0.31394 -0.08530
 C852 C 0.79504 0.32174 -0.10384
 C853 C 0.78720 0.28749 -0.05810
 C854 C 0.77897 0.27926 -0.04359
 H855 H 0.83474 0.28798 -0.11090
 H856 H 0.82098 0.27425 -0.07823
 H857 H 0.77370 0.32099 -0.07846
 H858 H 0.78747 0.33472 -0.11113
 C859 C 0.82408 0.82424 0.34948
 C860 C 0.81893 0.81914 0.36663
 C861 C 0.81216 0.81241 0.38668
 C862 C 0.82170 0.79553 0.39620
 C863 C 0.81388 0.78774 0.41475
 C864 C 0.79650 0.79681 0.42386
 C865 C 0.78726 0.81399 0.41458
 C866 C 0.79508 0.82178 0.39603
 C867 C 0.78725 0.78756 0.44180
 C868 C 0.77903 0.77934 0.45631
 H869 H 0.83482 0.78807 0.38903
 H870 H 0.82106 0.77435 0.42170
 H871 H 0.77372 0.82103 0.42141
 H872 H 0.78749 0.83475 0.38873
 C873 C 0.67590 0.32408 0.65051
 C874 C 0.68104 0.31894 0.63337
 C875 C 0.68780 0.31218 0.61333
 C876 C 0.67834 0.29520 0.60390
 C877 C 0.68615 0.28739 0.58536
 C878 C 0.70346 0.29653 0.57618
 C879 C 0.71262 0.31380 0.58536
 C880 C 0.70481 0.32162 0.60390
 C881 C 0.71271 0.28727 0.55824
 C882 C 0.72095 0.27904 0.54374
 H883 H 0.66528 0.28770 0.61114
 H884 H 0.67904 0.27393 0.57848
 H885 H 0.72610 0.32089 0.57848
 H886 H 0.71233 0.33466 0.61114
 C887 C 0.67614 0.82418 1.15053
 C888 C 0.68127 0.81904 1.13339
 C889 C 0.68802 0.81227 1.11335
 C890 C 0.67850 0.79535 1.10388
 C891 C 0.68629 0.78752 1.08534
 C892 C 0.70365 0.79659 1.07619
 C893 C 0.71289 0.81381 1.08541
 C894 C 0.70509 0.82163 1.10395
 C895 C 0.71289 0.78731 1.05825
 C896 C 0.72110 0.77906 1.04375
 H897 H 0.66539 0.78790 1.11110
 H898 H 0.67913 0.77411 1.07843
 H899 H 0.72641 0.82084 1.07855
 H900 H 0.71267 0.83463 1.11121
 C901 C 0.17602 0.32429 1.15049
 C902 C 0.18115 0.31917 1.13335
 C903 C 0.18791 0.31242 1.11331
 C904 C 0.17836 0.29552 1.10382
 C905 C 0.18617 0.28770 1.08527
 C906 C 0.20354 0.29676 1.07614
 C907 C 0.21279 0.31396 1.08538
 C908 C 0.20499 0.32177 1.10393
 C909 C 0.21278 0.28749 1.05820
 C910 C 0.22099 0.27924 1.04370
 H911 H 0.16524 0.28807 1.11101
 H912 H 0.17899 0.27430 1.07834
 H913 H 0.22632 0.32098 1.07854
 H914 H 0.21258 0.33475 1.11121
 C915 C 0.17587 0.82418 0.65043
 C916 C 0.18102 0.81904 0.63330
 C917 C 0.18779 0.81228 0.61326
 C918 C 0.20480 0.82171 0.60384
 C919 C 0.21263 0.81390 0.58530
 C920 C 0.20346 0.79663 0.57611
 C921 C 0.18615 0.78749 0.58528
 C922 C 0.17833 0.79531 0.60382
 C923 C 0.21273 0.78737 0.55818
 C924 C 0.22096 0.77914 0.54367
 H925 H 0.21233 0.83475 0.61108
 H926 H 0.22611 0.82098 0.57843
 H927 H 0.17904 0.77404 0.57839
 H928 H 0.16526 0.78780 0.61105
 C929 C 0.32424 0.67586 0.65054
 C930 C 0.31913 0.68099 0.63339
 C931 C 0.31240 0.68773 0.61334
 C932 C 0.32185 0.70472 0.60392
 C933 C 0.31406 0.71252 0.58537
 C934 C 0.29678 0.70336 0.57615
 C935 C 0.28763 0.68607 0.58532
 C936 C 0.29542 0.67827 0.60388
 C937 C 0.28754 0.71261 0.55821
 C938 C 0.27931 0.72083 0.54369
 H939 H 0.33489 0.71225 0.61118
 H940 H 0.32116 0.72599 0.57850
 H941 H 0.27417 0.67897 0.57842
 H942 H 0.28791 0.66522 0.61110
 C943 C 0.32405 0.17573 1.15053
 C944 C 0.31894 0.18086 1.13338
 C945 C 0.31222 0.18761 1.11333
 C946 C 0.32173 0.20454 1.10387
 C947 C 0.31395 0.21236 1.08532
 C948 C 0.29662 0.20327 1.07614
 C949 C 0.28740 0.18603 1.08535
 C950 C 0.29518 0.17822 1.10390
 C951 C 0.28739 0.21254 1.05820
 C952 C 0.27919 0.22078 1.04369
 H953 H 0.33482 0.21202 1.11111
 H954 H 0.32111 0.22578 1.07842
 H955 H 0.27390 0.17898 1.07847
 H956 H 0.28761 0.16521 1.11115
 C957 C 0.82410 0.67560 1.15062
 C958 C 0.81900 0.68071 1.13347
 C959 C 0.81228 0.68745 1.11341
 C960 C 0.79522 0.67809 1.10400
 C961 C 0.78744 0.68589 1.08544
 C962 C 0.79670 0.70309 1.07621
 C963 C 0.81406 0.71215 1.08536
 C964 C 0.82184 0.70434 1.10392
 C965 C 0.78749 0.71236 1.05826
 C966 C 0.77929 0.72060 1.04375
 H967 H 0.78762 0.66511 1.11128
 H968 H 0.77392 0.67887 1.07858
 H969 H 0.82125 0.72555 1.07844
 H970 H 0.83495 0.71179 1.11114
 C971 C 0.82413 0.17585 0.65069
 C972 C 0.81904 0.18096 0.63354
 C973 C 0.81232 0.18768 0.61347
 C974 C 0.82178 0.20466 0.60404
 C975 C 0.81400 0.21245 0.58548
 C976 C 0.79673 0.20328 0.57626
 C977 C 0.78757 0.18601 0.58544
 C978 C 0.79535 0.17822 0.60401
 C979 C 0.78750 0.21252 0.55830
 C980 C 0.77928 0.22073 0.54378
 H981 H 0.83482 0.21219 0.61130
 H982 H 0.82112 0.22591 0.57860
 H983 H 0.77411 0.17890 0.57853
 H984 H 0.78782 0.16518 0.61124
 C985 C 0.67594 0.67582 0.34950
 C986 C 0.68105 0.68096 0.36664
 C987 C 0.68778 0.68772 0.38669
 C988 C 0.67827 0.70466 0.39613
 C989 C 0.68606 0.71248 0.41468
 C990 C 0.70338 0.70338 0.42387
 C991 C 0.71259 0.68614 0.41468
 C992 C 0.70481 0.67832 0.39613
 C993 C 0.71261 0.71266 0.44181
 C994 C 0.72081 0.72090 0.45632
 H995 H 0.66520 0.71214 0.38889
 H996 H 0.67891 0.72592 0.42157
 H997 H 0.72608 0.67908 0.42157
 H998 H 0.71237 0.66530 0.38889
 C999 C 0.67572 0.17596 -0.15044
 C1000 C 0.68082 0.18109 -0.13329
 C1001 C 0.68754 0.18785 -0.11323
 C1002 C 0.67814 0.20490 -0.10386
 C1003 C 0.68593 0.21270 -0.08531
 C1004 C 0.70315 0.20348 -0.07605
 C1005 C 0.71225 0.18614 -0.08517
 C1006 C 0.70446 0.17834 -0.10372
 C1007 C 0.71240 0.21273 -0.05810
 C1008 C 0.72064 0.22095 -0.04359
 H1009 H 0.66515 0.21246 -0.11116
 H1010 H 0.67888 0.22621 -0.07848
 H1011 H 0.72567 0.17899 -0.07822
 H1012 H 0.71194 0.16524 -0.11091
 C1013 C 0.17583 0.67595 -0.15072
 C1014 C 0.18094 0.68108 -0.13357
 C1015 C 0.18766 0.68783 -0.11352
 C1016 C 0.17825 0.70487 -0.10414
 C1017 C 0.18604 0.71267 -0.08558
 C1018 C 0.20326 0.70347 -0.07633
 C1019 C 0.21237 0.68613 -0.08545
 C1020 C 0.20459 0.67833 -0.10401
 C1021 C 0.21251 0.71271 -0.05838
 C1022 C 0.22073 0.72093 -0.04386
 H1023 H 0.16525 0.71243 -0.11143
 H1024 H 0.17897 0.72617 -0.07875
 H1025 H 0.22579 0.67899 -0.07851
 H1026 H 0.21208 0.66524 -0.11120
 C1027 C 0.17596 0.17569 0.34937
 C1028 C 0.18105 0.18082 0.36652
 C1029 C 0.18776 0.18758 0.38658
 C1030 C 0.17822 0.20451 0.39602
 C1031 C 0.18599 0.21233 0.41458
 C1032 C 0.20332 0.20325 0.42377
 C1033 C 0.21256 0.18603 0.41457
 C1034 C 0.20480 0.17820 0.39602
 C1035 C 0.21253 0.21253 0.44172
 C1036 C 0.22073 0.22078 0.45623
 H1037 H 0.16514 0.21197 0.38879
 H1038 H 0.17882 0.22575 0.42147
 H1039 H 0.22607 0.17899 0.42146
 H1040 H 0.21239 0.16520 0.38877
 C1041 C 0.32400 0.34964 0.67587
 C1042 C 0.31892 0.36678 0.68099
 C1043 C 0.31222 0.38682 0.68773
 C1044 C 0.32164 0.39619 0.70478
 C1045 C 0.31387 0.41473 0.71257
 C1046 C 0.29665 0.42398 0.70335
 C1047 C 0.28753 0.41486 0.68600
 C1048 C 0.29530 0.39631 0.67821
 C1049 C 0.28742 0.44191 0.71259
 C1050 C 0.27920 0.45642 0.72081
 H1051 H 0.33464 0.38890 0.71235
 H1052 H 0.32095 0.42157 0.72609
 H1053 H 0.27411 0.42179 0.67884
 H1054 H 0.28780 0.38913 0.66511
 C1055 C 0.32418 0.84950 0.17581
 C1056 C 0.31907 0.86663 0.18092
 C1057 C 0.31233 0.88666 0.18766
 C1058 C 0.32177 0.89608 0.20468
 C1059 C 0.31398 0.91461 0.21247
 C1060 C 0.29671 0.92380 0.20328
 C1061 C 0.28757 0.91464 0.18596
 C1062 C 0.29536 0.89611 0.17817
 C1063 C 0.28746 0.94172 0.21253
 C1064 C 0.27922 0.95621 0.22075
 H1065 H 0.33481 0.88883 0.21223
 H1066 H 0.32107 0.92147 0.22596
 H1067 H 0.27411 0.92153 0.17883
 H1068 H 0.28785 0.88888 0.16510
 C1069 C 0.82406 0.34952 0.17609
 C1070 C 0.81895 0.36664 0.18121
 C1071 C 0.81221 0.38667 0.18795
 C1072 C 0.82163 0.39607 0.20499
 C1073 C 0.81384 0.41460 0.21278
 C1074 C 0.79658 0.42380 0.20357
 C1075 C 0.78746 0.41465 0.18624
 C1076 C 0.79526 0.39612 0.17845
 C1077 C 0.78733 0.44173 0.21282
 C1078 C 0.77910 0.45622 0.22104
 H1079 H 0.83466 0.38881 0.21255
 H1080 H 0.82092 0.42145 0.22628
 H1081 H 0.77402 0.42155 0.17910
 H1082 H 0.78776 0.38891 0.16536
 C1083 C 0.82395 0.84975 0.67603
 C1084 C 0.81886 0.86688 0.68115
 C1085 C 0.81214 0.88691 0.68791
 C1086 C 0.82157 0.89628 0.70495
 C1087 C 0.81379 0.91481 0.71276
 C1088 C 0.79655 0.92405 0.70356
 C1089 C 0.78742 0.91492 0.68622
 C1090 C 0.79520 0.89639 0.67841
 C1091 C 0.78731 0.94197 0.71281
 C1092 C 0.77909 0.95647 0.72104
 H1093 H 0.83458 0.88901 0.71251
 H1094 H 0.82088 0.92165 0.72627
 H1095 H 0.77399 0.92184 0.67907
 H1096 H 0.78770 0.88919 0.66531
 C1097 C 0.67595 0.65037 0.67594
 C1098 C 0.68105 0.63322 0.68101
 C1099 C 0.68778 0.61318 0.68770
 C1100 C 0.67826 0.60368 0.70463
 C1101 C 0.68604 0.58514 0.71240
 C1102 C 0.70338 0.57601 0.70327
 C1103 C 0.71260 0.58525 0.68604
 C1104 C 0.70482 0.60380 0.67827
 C1105 C 0.71262 0.55807 0.71251
 C1106 C 0.72084 0.54357 0.72073
 H1107 H 0.66517 0.61088 0.71214
 H1108 H 0.67889 0.57821 0.72583
 H1109 H 0.72611 0.57841 0.67896
 H1110 H 0.71239 0.61108 0.66527
 C1111 C 0.67583 0.15041 0.17605
 C1112 C 0.68096 0.13328 0.18113
 C1113 C 0.68772 0.11325 0.18783
 C1114 C 0.67826 0.10377 0.20479
 C1115 C 0.68608 0.08523 0.21256
 C1116 C 0.70339 0.07610 0.20339
 C1117 C 0.71255 0.08533 0.18612
 C1118 C 0.70474 0.10387 0.17835
 C1119 C 0.71266 0.05818 0.21261
 C1120 C 0.72091 0.04368 0.22082
 H1121 H 0.66519 0.11096 0.21233
 H1122 H 0.67897 0.07831 0.22601
 H1123 H 0.72604 0.07849 0.17900
 H1124 H 0.71226 0.11114 0.16532
 C1125 C 0.17590 0.65047 0.17583
 C1126 C 0.18103 0.63335 0.18094
 C1127 C 0.18778 0.61332 0.18766
 C1128 C 0.17829 0.60385 0.20462
 C1129 C 0.18609 0.58532 0.21241
 C1130 C 0.20342 0.57618 0.20327
 C1131 C 0.21262 0.58541 0.18602
 C1132 C 0.20482 0.60394 0.17823
 C1133 C 0.21267 0.55826 0.21252
 C1134 C 0.22090 0.54377 0.22075
 H1135 H 0.16520 0.61104 0.21212
 H1136 H 0.17895 0.57840 0.22585
 H1137 H 0.22613 0.57856 0.17893
 H1138 H 0.21237 0.61120 0.16521
 C1139 C 0.17580 0.15042 0.67593
 C1140 C 0.18090 0.13328 0.68102
 C1141 C 0.18763 0.11324 0.68774
 C1142 C 0.17819 0.10381 0.70474
 C1143 C 0.18598 0.08527 0.71252
 C1144 C 0.20325 0.07608 0.70331
 C1145 C 0.21239 0.08526 0.68600
 C1146 C 0.20460 0.10380 0.67823
 C1147 C 0.21250 0.05815 0.71254
 C1148 C 0.22073 0.04365 0.72075
 H1149 H 0.16516 0.11105 0.71230
 H1150 H 0.17889 0.07839 0.72600
 H1151 H 0.22584 0.07838 0.67886
 H1152 H 0.21211 0.11104 0.66517
 C1153 C 0.32424 0.65048 0.32400
 C1154 C 0.31913 0.63335 0.31889
 C1155 C 0.31239 0.61331 0.31217
 C1156 C 0.32184 0.60388 0.29517
 C1157 C 0.31404 0.58535 0.28738
 C1158 C 0.29676 0.57617 0.29657
 C1159 C 0.28761 0.58535 0.31387
 C1160 C 0.29541 0.60389 0.32166
 C1161 C 0.28750 0.55825 0.28733
 C1162 C 0.27926 0.54375 0.27911
 H1163 H 0.33488 0.61111 0.28762
 H1164 H 0.32113 0.57846 0.27390
 H1165 H 0.27415 0.57848 0.32100
 H1166 H 0.28789 0.61112 0.33472
 C1167 C 0.32401 0.15039 0.82397
 C1168 C 0.31891 0.13325 0.81887
 C1169 C 0.31219 0.11322 0.81215
 C1170 C 0.32165 0.10380 0.79514
 C1171 C 0.31386 0.08526 0.78735
 C1172 C 0.29659 0.07606 0.79654
 C1173 C 0.28744 0.08523 0.81385
 C1174 C 0.29522 0.10377 0.82163
 C1175 C 0.28735 0.05813 0.78730
 C1176 C 0.27912 0.04364 0.77907
 H1177 H 0.33468 0.11104 0.78759
 H1178 H 0.32096 0.07838 0.77387
 H1179 H 0.27398 0.07834 0.82098
 H1180 H 0.28770 0.11100 0.83470
 C1181 C 0.82412 0.65030 0.82398
 C1182 C 0.81902 0.63317 0.81887
 C1183 C 0.81229 0.61313 0.81214
 C1184 C 0.82172 0.60373 0.79511
 C1185 C 0.81393 0.58520 0.78732
 C1186 C 0.79668 0.57598 0.79654
 C1187 C 0.78756 0.58513 0.81387
 C1188 C 0.79535 0.60367 0.82166
 C1189 C 0.78743 0.55806 0.78730
 C1190 C 0.77920 0.54356 0.77908
 H1191 H 0.83473 0.61099 0.78754
 H1192 H 0.82100 0.57834 0.77381
 H1193 H 0.77412 0.57823 0.82102
 H1194 H 0.78785 0.61088 0.83474
 C1195 C 0.82427 0.15040 0.32407
 C1196 C 0.81916 0.13327 0.31896
 C1197 C 0.81242 0.11324 0.31223
 C1198 C 0.82189 0.10380 0.29523
 C1199 C 0.81409 0.08527 0.28744
 C1200 C 0.79680 0.07610 0.29661
 C1201 C 0.78763 0.08528 0.31390
 C1202 C 0.79543 0.10381 0.32170
 C1203 C 0.78754 0.05817 0.28736
 C1204 C 0.77931 0.04368 0.27914
 H1205 H 0.83494 0.11103 0.28770
 H1206 H 0.82120 0.07839 0.27397
 H1207 H 0.77416 0.07841 0.32102
 H1208 H 0.78790 0.11105 0.33475
 C1209 C 0.67581 0.34947 0.32419
 C1210 C 0.68091 0.36661 0.31910
 C1211 C 0.68763 0.38666 0.31239
 C1212 C 0.70461 0.39609 0.32188
 C1213 C 0.71240 0.41463 0.31411
 C1214 C 0.70324 0.42382 0.29682
 C1215 C 0.68596 0.41464 0.28763
 C1216 C 0.67817 0.39610 0.29540
 C1217 C 0.71249 0.44175 0.28759
 C1218 C 0.72072 0.45625 0.27937
 H1219 H 0.71214 0.38884 0.33493
 H1220 H 0.72586 0.42151 0.32124
 H1221 H 0.67885 0.42153 0.27416
 H1222 H 0.66513 0.38887 0.28786
 C1223 C 0.67596 0.84964 0.82423
 C1224 C 0.68104 0.86679 0.81915
 C1225 C 0.68774 0.88684 0.81244
 C1226 C 0.70471 0.89629 0.82192
 C1227 C 0.71248 0.91484 0.81415
 C1228 C 0.70330 0.92402 0.79686
 C1229 C 0.68602 0.91483 0.78768
 C1230 C 0.67826 0.89628 0.79546
 C1231 C 0.71253 0.94196 0.78762
 C1232 C 0.72074 0.95646 0.77940
 H1233 H 0.71225 0.88905 0.83497
 H1234 H 0.72594 0.92173 0.82127
 H1235 H 0.67890 0.92171 0.77421
 H1236 H 0.66522 0.88903 0.78791
 C1237 C 0.17595 0.34972 0.82409
 C1238 C 0.18104 0.36686 0.81898
 C1239 C 0.18775 0.38689 0.81224
 C1240 C 0.20470 0.39636 0.82175
 C1241 C 0.21248 0.41490 0.81395
 C1242 C 0.20334 0.42404 0.79662
 C1243 C 0.18610 0.41482 0.78742
 C1244 C 0.17831 0.39629 0.79521
 C1245 C 0.21259 0.44197 0.78737
 C1246 C 0.22082 0.45646 0.77914
 H1247 H 0.21220 0.38916 0.83483
 H1248 H 0.22592 0.42181 0.82109
 H1249 H 0.17901 0.42168 0.77391
 H1250 H 0.16530 0.38902 0.78765
 C1251 C 0.17594 0.84946 0.32402
 C1252 C 0.18105 0.86659 0.31891
 C1253 C 0.18778 0.88663 0.31218
 C1254 C 0.20476 0.89606 0.32166
 C1255 C 0.21255 0.91460 0.31387
 C1256 C 0.20339 0.92378 0.29657
 C1257 C 0.18610 0.91460 0.28740
 C1258 C 0.17831 0.89606 0.29519
 C1259 C 0.21263 0.94171 0.28733
 C1260 C 0.22086 0.95620 0.27911
 H1261 H 0.21229 0.88882 0.33471
 H1262 H 0.22602 0.92148 0.32099
 H1263 H 0.17899 0.92148 0.27392
 H1264 H 0.16527 0.88882 0.28765
 C1265 C 0.34936 0.32423 0.67585
 C1266 C 0.36650 0.31910 0.68094
 C1267 C 0.38655 0.31234 0.68766
 C1268 C 0.39605 0.32181 0.70461
 C1269 C 0.41460 0.31400 0.71239
 C1270 C 0.42373 0.29669 0.70324
 C1271 C 0.41448 0.28751 0.68599
 C1272 C 0.39593 0.29533 0.67821
 C1273 C 0.44167 0.28743 0.71248
 C1274 C 0.45618 0.27920 0.72070
 H1275 H 0.38885 0.33488 0.71213
 H1276 H 0.42153 0.32112 0.72583
 H1277 H 0.42132 0.27403 0.67889
 H1278 H 0.38865 0.28779 0.66519
 C1279 C 0.34958 0.82414 0.17580
 C1280 C 0.36673 0.81903 0.18090
 C1281 C 0.38678 0.81230 0.18763
 C1282 C 0.39621 0.82173 0.20464
 C1283 C 0.41477 0.81395 0.21243
 C1284 C 0.42397 0.79670 0.20323
 C1285 C 0.41479 0.78756 0.18592
 C1286 C 0.39623 0.79535 0.17813
 C1287 C 0.44191 0.78745 0.21248
 C1288 C 0.45642 0.77923 0.22070
 H1289 H 0.38897 0.83475 0.21219
 H1290 H 0.42165 0.82103 0.22592
 H1291 H 0.42168 0.77413 0.17879
 H1292 H 0.38900 0.78785 0.16507
 C1293 C 0.84948 0.32416 0.17606
 C1294 C 0.86663 0.31906 0.18115
 C1295 C 0.88669 0.31233 0.18786
 C1296 C 0.89610 0.32170 0.20492
 C1297 C 0.91466 0.31391 0.21269
 C1298 C 0.92390 0.29672 0.20342
 C1299 C 0.91474 0.28765 0.18606
 C1300 C 0.89618 0.29544 0.17830
 C1301 C 0.94185 0.28747 0.21263
 C1302 C 0.95637 0.27923 0.22083
 H1303 H 0.88882 0.33467 0.21253
 H1304 H 0.92152 0.32095 0.22621
 H1305 H 0.92166 0.27425 0.17887
 H1306 H 0.88896 0.28798 0.16519
 C1307 C 0.84933 0.82435 0.67599
 C1308 C 0.86647 0.81922 0.68108
 C1309 C 0.88653 0.81247 0.68779
 C1310 C 0.89597 0.82185 0.70482
 C1311 C 0.91453 0.81403 0.71258
 C1312 C 0.92371 0.79680 0.70334
 C1313 C 0.91451 0.78771 0.68602
 C1314 C 0.89596 0.79553 0.67826
 C1315 C 0.94166 0.78753 0.71255
 C1316 C 0.95617 0.77928 0.72075
 H1317 H 0.88874 0.83486 0.71240
 H1318 H 0.92142 0.82109 0.72608
 H1319 H 0.92139 0.77428 0.67885
 H1320 H 0.88871 0.78806 0.66518
 C1321 C 0.65043 0.32408 0.32417
 C1322 C 0.63329 0.31897 0.31907
 C1323 C 0.61323 0.31223 0.31234
 C1324 C 0.60380 0.29527 0.32184
 C1325 C 0.58524 0.28747 0.31405
 C1326 C 0.57605 0.29660 0.29674
 C1327 C 0.58524 0.31385 0.28755
 C1328 C 0.60379 0.32165 0.29533
 C1329 C 0.55811 0.28735 0.28751
 C1330 C 0.54360 0.27912 0.27929
 H1331 H 0.61104 0.28777 0.33490
 H1332 H 0.57836 0.27403 0.32119
 H1333 H 0.57835 0.32094 0.27406
 H1334 H 0.61103 0.33468 0.28778
 C1335 C 0.65061 0.82423 0.82420
 C1336 C 0.63347 0.81910 0.81909
 C1337 C 0.61343 0.81234 0.81235
 C1338 C 0.60401 0.79536 0.82183
 C1339 C 0.58546 0.78756 0.81403
 C1340 C 0.57626 0.79670 0.79674
 C1341 C 0.58543 0.81397 0.78756
 C1342 C 0.60398 0.82178 0.79536
 C1343 C 0.55832 0.78744 0.78749
 C1344 C 0.54382 0.77921 0.77927
 H1345 H 0.61126 0.78785 0.83488
 H1346 H 0.57859 0.77410 0.82115
 H1347 H 0.57853 0.82106 0.77409
 H1348 H 0.61120 0.83482 0.78782
 C1349 C 0.15057 0.32432 0.82409
 C1350 C 0.13343 0.31920 0.81900
 C1351 C 0.11338 0.31244 0.81228
 C1352 C 0.10393 0.29551 0.82181
 C1353 C 0.08538 0.28770 0.81404
 C1354 C 0.07620 0.29679 0.79671
 C1355 C 0.08539 0.31402 0.78748
 C1356 C 0.10394 0.32183 0.79525
 C1357 C 0.05825 0.28752 0.78750
 C1358 C 0.04374 0.27928 0.77930
 H1359 H 0.11117 0.28804 0.83490
 H1360 H 0.07849 0.27427 0.82121
 H1361 H 0.07850 0.32107 0.77398
 H1362 H 0.11118 0.33484 0.78766
 C1363 C 0.15055 0.82408 0.32402
 C1364 C 0.13340 0.81897 0.31891
 C1365 C 0.11335 0.81223 0.31218
 C1366 C 0.10388 0.79532 0.32172
 C1367 C 0.08533 0.78752 0.31394
 C1368 C 0.07617 0.79660 0.29659
 C1369 C 0.08539 0.81381 0.28735
 C1370 C 0.10394 0.82161 0.29513
 C1371 C 0.05822 0.78734 0.28737
 C1372 C 0.04371 0.77910 0.27917
 H1373 H 0.11110 0.78785 0.33482
 H1374 H 0.07842 0.77411 0.32112
 H1375 H 0.07852 0.82086 0.27383
 H1376 H 0.11121 0.83460 0.28754
 C1377 C 0.65058 0.67576 0.67602
 C1378 C 0.63344 0.68088 0.68116
 C1379 C 0.61340 0.68763 0.68792
 C1380 C 0.60405 0.67829 0.70503
 C1381 C 0.58551 0.68610 0.71283
 C1382 C 0.57625 0.70328 0.70356
 C1383 C 0.58536 0.71231 0.68616
 C1384 C 0.60390 0.70450 0.67835
 C1385 C 0.55832 0.71254 0.71280
 C1386 C 0.54381 0.72079 0.72101
 H1387 H 0.61134 0.66533 0.71263
 H1388 H 0.57868 0.67909 0.72638
 H1389 H 0.57842 0.72570 0.67896
 H1390 H 0.61107 0.71194 0.66521
 C1391 C 0.65042 0.17577 0.17610
 C1392 C 0.63327 0.18086 0.18123
 C1393 C 0.61322 0.18759 0.18798
 C1394 C 0.60369 0.20444 0.17839
 C1395 C 0.58514 0.21223 0.18619
 C1396 C 0.57604 0.20320 0.20360
 C1397 C 0.58533 0.18605 0.21289
 C1398 C 0.60388 0.17825 0.20509
 C1399 C 0.55810 0.21246 0.21283
 C1400 C 0.54360 0.22070 0.22105
 H1401 H 0.61086 0.21187 0.16524
 H1402 H 0.57818 0.22560 0.17898
 H1403 H 0.57851 0.17904 0.22645
 H1404 H 0.61119 0.16531 0.21272
 C1405 C 0.15049 0.67583 0.17587
 C1406 C 0.13335 0.68093 0.18101
 C1407 C 0.11330 0.68765 0.18777
 C1408 C 0.10381 0.70456 0.17825
 C1409 C 0.08526 0.71234 0.18606
 C1410 C 0.07613 0.70325 0.20342
 C1411 C 0.08538 0.68604 0.21264
 C1412 C 0.10393 0.67825 0.20483
 C1413 C 0.05819 0.71249 0.21268
 C1414 C 0.04369 0.72071 0.22091
 H1415 H 0.11100 0.71203 0.16514
 H1416 H 0.07832 0.72575 0.17890
 H1417 H 0.07854 0.67898 0.22617
 H1418 H 0.11122 0.66527 0.21241
 C1419 C 0.15043 0.17582 0.67598
 C1420 C 0.13330 0.18095 0.68112
 C1421 C 0.11326 0.18770 0.68789
 C1422 C 0.10386 0.17830 0.70494
 C1423 C 0.08533 0.18611 0.71275
 C1424 C 0.07612 0.20336 0.70355
 C1425 C 0.08527 0.21245 0.68621
 C1426 C 0.10381 0.20464 0.67839
 C1427 C 0.05820 0.21262 0.71281
 C1428 C 0.04370 0.22086 0.72104
 H1429 H 0.11112 0.16529 0.71249
 H1430 H 0.07847 0.17905 0.72627
 H1431 H 0.07837 0.22589 0.67906
 H1432 H 0.11102 0.21212 0.66529
 C1433 C 0.34963 0.67586 0.32396
 C1434 C 0.36677 0.68098 0.31884
 C1435 C 0.38681 0.68772 0.31208
 C1436 C 0.39628 0.70464 0.32160
 C1437 C 0.41483 0.71245 0.31380
 C1438 C 0.42397 0.70336 0.29645
 C1439 C 0.41475 0.68613 0.28723
 C1440 C 0.39621 0.67833 0.29503
 C1441 C 0.44191 0.71261 0.28721
 C1442 C 0.45642 0.72085 0.27898
 H1443 H 0.38907 0.71212 0.33470
 H1444 H 0.42174 0.72586 0.32096
 H1445 H 0.42161 0.67908 0.27371
 H1446 H 0.38894 0.66533 0.28746
 C1447 C 0.34938 0.17579 0.82394
 C1448 C 0.36652 0.18092 0.81881
 C1449 C 0.38656 0.18767 0.81207
 C1450 C 0.39598 0.17827 0.79503
 C1451 C 0.41452 0.18608 0.78723
 C1452 C 0.42372 0.20332 0.79644
 C1453 C 0.41455 0.21243 0.81378
 C1454 C 0.39600 0.20462 0.82157
 C1455 C 0.44166 0.21258 0.78720
 C1456 C 0.45616 0.22082 0.77899
 H1457 H 0.38873 0.16526 0.78747
 H1458 H 0.42139 0.17902 0.77373
 H1459 H 0.42144 0.22586 0.82092
 H1460 H 0.38878 0.21210 0.83466
 C1461 C 0.84948 0.67571 0.82395
 C1462 C 0.86661 0.68085 0.81882
 C1463 C 0.88665 0.68761 0.81206
 C1464 C 0.89609 0.70456 0.82158
 C1465 C 0.91463 0.71238 0.81377
 C1466 C 0.92379 0.70330 0.79643
 C1467 C 0.91460 0.68606 0.78721
 C1468 C 0.89606 0.67823 0.79502
 C1469 C 0.94172 0.71257 0.78718
 C1470 C 0.95621 0.72082 0.77896
 H1471 H 0.88887 0.71203 0.83467
 H1472 H 0.92152 0.72582 0.82092
 H1473 H 0.92146 0.67900 0.77370
 H1474 H 0.88882 0.66522 0.78745
 C1475 C 0.84965 0.17578 0.32404
 C1476 C 0.86679 0.18090 0.31892
 C1477 C 0.88683 0.18765 0.31216
 C1478 C 0.89624 0.17825 0.29511
 C1479 C 0.91478 0.18605 0.28731
 C1480 C 0.92399 0.20329 0.29652
 C1481 C 0.91483 0.21239 0.31386
 C1482 C 0.89629 0.20458 0.32167
 C1483 C 0.94192 0.21255 0.28726
 C1484 C 0.95642 0.22079 0.27904
 H1485 H 0.88898 0.16524 0.28755
 H1486 H 0.92164 0.17899 0.27380
 H1487 H 0.92174 0.22582 0.32101
 H1488 H 0.88908 0.21206 0.33476
 C1489 C 0.32392 0.32425 0.65048
 C1490 C 0.31877 0.31914 0.63334
 C1491 C 0.31200 0.31240 0.61330
 C1492 C 0.29487 0.32171 0.60397
 C1493 C 0.28707 0.31391 0.58542
 C1494 C 0.29636 0.29676 0.57613
 C1495 C 0.31378 0.28774 0.58521
 C1496 C 0.32158 0.29555 0.60376
 C1497 C 0.28712 0.28749 0.55819
 C1498 C 0.27890 0.27925 0.54368
 H1499 H 0.28725 0.33465 0.61128
 H1500 H 0.27350 0.32090 0.57862
 H1501 H 0.32099 0.27438 0.57825
 H1502 H 0.33474 0.28813 0.61092
 C1503 C 0.32415 0.82412 0.15042
 C1504 C 0.31901 0.81900 0.13327
 C1505 C 0.31225 0.81226 0.11323
 C1506 C 0.32169 0.79528 0.10378
 C1507 C 0.31388 0.78749 0.08524
 C1508 C 0.29659 0.79665 0.07605
 C1509 C 0.28744 0.81393 0.08525
 C1510 C 0.29526 0.82172 0.10379
 C1511 C 0.28732 0.78741 0.05811
 C1512 C 0.27908 0.77920 0.04360
 H1513 H 0.33475 0.78776 0.11102
 H1514 H 0.32098 0.77403 0.07835
 H1515 H 0.27397 0.82104 0.07836
 H1516 H 0.28774 0.83476 0.11104
 C1517 C 0.82404 0.32414 0.15068
 C1518 C 0.81891 0.31903 0.13354
 C1519 C 0.81215 0.31230 0.11349
 C1520 C 0.82161 0.29534 0.10403
 C1521 C 0.81380 0.28755 0.08548
 C1522 C 0.79649 0.29669 0.07631
 C1523 C 0.78732 0.31395 0.08552
 C1524 C 0.79514 0.32174 0.10407
 C1525 C 0.78724 0.28745 0.05837
 C1526 C 0.77900 0.27923 0.04386
 H1527 H 0.83468 0.28783 0.11126
 H1528 H 0.82092 0.27410 0.07858
 H1529 H 0.77384 0.32104 0.07865
 H1530 H 0.78761 0.33476 0.11132
 C1531 C 0.82390 0.82438 0.65061
 C1532 C 0.81877 0.81928 0.63346
 C1533 C 0.81202 0.81255 0.61341
 C1534 C 0.79488 0.82184 0.60408
 C1535 C 0.78709 0.81403 0.58552
 C1536 C 0.79641 0.79691 0.57622
 C1537 C 0.81385 0.78792 0.58530
 C1538 C 0.82164 0.79572 0.60386
 C1539 C 0.78719 0.78764 0.55828
 C1540 C 0.77899 0.77939 0.54377
 H1541 H 0.78723 0.83476 0.61141
 H1542 H 0.77351 0.82101 0.57872
 H1543 H 0.82108 0.77457 0.57833
 H1544 H 0.83481 0.78833 0.61101
 C1545 C 0.32424 0.67587 0.34939
 C1546 C 0.31913 0.68099 0.36654
 C1547 C 0.31240 0.68773 0.38659
 C1548 C 0.32185 0.70472 0.39601
 C1549 C 0.31406 0.71252 0.41456
 C1550 C 0.29679 0.70336 0.42378
 C1551 C 0.28763 0.68607 0.41461
 C1552 C 0.29543 0.67827 0.39606
 C1553 C 0.28754 0.71260 0.44173
 C1554 C 0.27932 0.72082 0.45624
 H1555 H 0.33489 0.71225 0.38875
 H1556 H 0.32116 0.72599 0.42143
 H1557 H 0.27418 0.67896 0.42152
 H1558 H 0.28791 0.66522 0.38883
 C1559 C 0.32400 0.17578 0.84936
 C1560 C 0.31889 0.18090 0.86652
 C1561 C 0.31217 0.18764 0.88657
 C1562 C 0.32171 0.20456 0.89604
 C1563 C 0.31393 0.21237 0.91460
 C1564 C 0.29659 0.20329 0.92377
 C1565 C 0.28735 0.18607 0.91455
 C1566 C 0.29512 0.17826 0.89599
 C1567 C 0.28737 0.21255 0.94172
 C1568 C 0.27917 0.22079 0.95623
 H1569 H 0.33480 0.21202 0.88881
 H1570 H 0.32110 0.22578 0.92151
 H1571 H 0.27384 0.17903 0.92142
 H1572 H 0.28754 0.16527 0.88873
 C1573 C 0.82411 0.67567 0.84939
 C1574 C 0.81901 0.68078 0.86654
 C1575 C 0.81229 0.68751 0.88661
 C1576 C 0.82182 0.70443 0.89608
 C1577 C 0.81404 0.71222 0.91464
 C1578 C 0.79671 0.70314 0.92381
 C1579 C 0.78747 0.68592 0.91459
 C1580 C 0.79525 0.67812 0.89602
 C1581 C 0.78748 0.71239 0.94176
 C1582 C 0.77928 0.72063 0.95628
 H1583 H 0.83491 0.71190 0.88886
 H1584 H 0.82121 0.72564 0.92156
 H1585 H 0.77396 0.67887 0.92146
 H1586 H 0.78766 0.66513 0.88876
 C1587 C 0.82427 0.17577 0.34947
 C1588 C 0.81916 0.18089 0.36662
 C1589 C 0.81242 0.18762 0.38668
 C1590 C 0.82188 0.20460 0.39611
 C1591 C 0.81408 0.21240 0.41466
 C1592 C 0.79679 0.20325 0.42386
 C1593 C 0.78763 0.18597 0.41468
 C1594 C 0.79543 0.17817 0.39612
 C1595 C 0.78754 0.21249 0.44181
 C1596 C 0.77931 0.22071 0.45632
 H1597 H 0.83492 0.21212 0.38886
 H1598 H 0.82118 0.22586 0.42155
 H1599 H 0.77416 0.17886 0.42157
 H1600 H 0.78791 0.16513 0.38889
 C1601 C 0.67587 0.32405 0.34954
 C1602 C 0.68101 0.31891 0.36668
 C1603 C 0.68778 0.31215 0.38672
 C1604 C 0.67834 0.29516 0.39614
 C1605 C 0.68616 0.28735 0.41468
 C1606 C 0.70346 0.29650 0.42387
 C1607 C 0.71260 0.31379 0.41469
 C1608 C 0.70478 0.32160 0.39615
 C1609 C 0.71272 0.28725 0.44180
 C1610 C 0.72096 0.27902 0.45631
 H1611 H 0.66529 0.28764 0.38890
 H1612 H 0.67907 0.27388 0.42156
 H1613 H 0.72607 0.32089 0.42158
 H1614 H 0.71229 0.33465 0.38892
 C1615 C 0.67604 0.82421 0.84958
 C1616 C 0.68118 0.81907 0.86671
 C1617 C 0.68795 0.81230 0.88675
 C1618 C 0.67843 0.79537 0.89622
 C1619 C 0.68625 0.78754 0.91475
 C1620 C 0.70361 0.79661 0.92389
 C1621 C 0.71283 0.81383 0.91467
 C1622 C 0.70502 0.82166 0.89614
 C1623 C 0.71286 0.78733 0.94182
 C1624 C 0.72108 0.77908 0.95632
 H1625 H 0.66532 0.78792 0.88901
 H1626 H 0.67909 0.77413 0.92166
 H1627 H 0.72636 0.82087 0.92152
 H1628 H 0.71259 0.83466 0.88887
 C1629 C 0.17600 0.32433 0.84947
 C1630 C 0.18114 0.31920 0.86661
 C1631 C 0.18790 0.31244 0.88665
 C1632 C 0.20499 0.32179 0.89603
 C1633 C 0.21279 0.31397 0.91457
 C1634 C 0.20353 0.29678 0.92382
 C1635 C 0.18615 0.28773 0.91469
 C1636 C 0.17835 0.29555 0.89615
 C1637 C 0.21277 0.28750 0.94175
 C1638 C 0.22098 0.27925 0.95626
 H1639 H 0.21258 0.33477 0.88875
 H1640 H 0.22633 0.32099 0.92141
 H1641 H 0.17897 0.27434 0.92162
 H1642 H 0.16522 0.28811 0.88896
 C1643 C 0.17597 0.82407 0.34941
 C1644 C 0.18110 0.81895 0.36655
 C1645 C 0.18785 0.81221 0.38660
 C1646 C 0.20486 0.82165 0.39603
 C1647 C 0.21266 0.81386 0.41458
 C1648 C 0.20350 0.79659 0.42378
 C1649 C 0.18619 0.78745 0.41459
 C1650 C 0.17839 0.79524 0.39604
 C1651 C 0.21275 0.78735 0.44172
 C1652 C 0.22098 0.77913 0.45623
 H1653 H 0.21239 0.83468 0.38878
 H1654 H 0.22614 0.82095 0.42146
 H1655 H 0.17908 0.77400 0.42149
 H1656 H 0.16533 0.78773 0.38881
 C1657 C 0.67596 0.67580 0.65059
 C1658 C 0.68106 0.68095 0.63345
 C1659 C 0.68778 0.68773 0.61340
 C1660 C 0.67831 0.70472 0.60401
 C1661 C 0.68608 0.71255 0.58546
 C1662 C 0.70336 0.70342 0.57623
 C1663 C 0.71254 0.68613 0.58537
 C1664 C 0.70476 0.67830 0.60392
 C1665 C 0.71258 0.71269 0.55828
 C1666 C 0.72079 0.72094 0.54377
 H1667 H 0.66526 0.71222 0.61128
 H1668 H 0.67896 0.72602 0.57861
 H1669 H 0.72600 0.67904 0.57845
 H1670 H 0.71230 0.66525 0.61112
 C1671 C 0.67581 0.17583 0.15068
 C1672 C 0.68091 0.18097 0.13354
 C1673 C 0.68763 0.18774 0.11349
 C1674 C 0.67818 0.20475 0.10410
 C1675 C 0.68596 0.21257 0.08555
 C1676 C 0.70323 0.20341 0.07631
 C1677 C 0.71238 0.18611 0.08545
 C1678 C 0.70460 0.17829 0.10400
 C1679 C 0.71246 0.21268 0.05837
 C1680 C 0.72068 0.22091 0.04386
 H1681 H 0.66514 0.21226 0.11137
 H1682 H 0.67885 0.22604 0.07870
 H1683 H 0.72583 0.17901 0.07853
 H1684 H 0.71212 0.16523 0.11121
 C1685 C 0.17587 0.67586 0.15044
 C1686 C 0.18098 0.68099 0.13329
 C1687 C 0.18770 0.68774 0.11324
 C1688 C 0.17823 0.70472 0.10382
 C1689 C 0.18601 0.71253 0.08526
 C1690 C 0.20330 0.70339 0.07605
 C1691 C 0.21247 0.68611 0.08522
 C1692 C 0.20469 0.67830 0.10377
 C1693 C 0.21253 0.71264 0.05811
 C1694 C 0.22075 0.72088 0.04360
 H1695 H 0.16518 0.71223 0.11108
 H1696 H 0.17889 0.72598 0.07839
 H1697 H 0.22594 0.67902 0.07831
 H1698 H 0.21222 0.66526 0.11100
 C1699 C 0.17581 0.17581 0.65055
 C1700 C 0.18091 0.18094 0.63339
 C1701 C 0.18764 0.18768 0.61334
 C1702 C 0.20464 0.17826 0.60389
 C1703 C 0.21243 0.18607 0.58534
 C1704 C 0.20324 0.20332 0.57615
 C1705 C 0.18594 0.21245 0.58535
 C1706 C 0.17815 0.20464 0.60390
 C1707 C 0.21247 0.21258 0.55820
 C1708 C 0.22069 0.22082 0.54369
 H1709 H 0.21219 0.16523 0.61113
 H1710 H 0.22591 0.17898 0.57845
 H1711 H 0.17881 0.22590 0.57846
 H1712 H 0.16509 0.21214 0.61115
   
