data_POSCAR
  _audit_creation_date              2014-09-24
  _audit_creation_method            'ToBaCCo'
  _symmetry_space_group_name_H-M    'P1'
  _symmetry_Int_Tables_number       1
  _symmetry_cell_setting            triclinic
  loop_
  _symmetry_equiv_pos_as_xyz
 x,y,z
_cell_length_a 88.3987
_cell_length_b 88.3637
_cell_length_c 88.3133
_cell_angle_alpha 90.005100
_cell_angle_beta 90.032100
_cell_angle_gamma 90.021400
loop_
  _atom_site_label
  _atom_site_type_symbol
  _atom_site_fract_x
  _atom_site_fract_y
  _atom_site_fract_z
N1 N 0.31419 0.43523 0.93550
 N2 N 0.43564 0.81441 0.43548
 N3 N 0.93465 0.93503 0.81530
 N4 N 0.43489 -0.06544 0.31496
 N5 N 0.81398 0.31311 0.31352
 N6 N -0.18548 0.81510 0.81434
 N7 N 0.93701 0.31277 0.43640
 N8 N 0.43464 0.43483 0.81408
 N9 N 0.81467 0.93571 0.93547
 N10 N 0.31463 0.81489 0.31399
 N11 N 0.81217 0.43819 0.43808
 N12 N 0.93573 0.81454 -0.06440
 N13 N 0.31499 0.31578 0.81545
 N14 N 0.18539 0.56477 0.56433
 N15 N 0.56445 0.68536 0.06384
 N16 N 0.68653 0.18730 0.68668
 N17 N 1.06273 0.06221 0.18784
 N18 N 0.06255 0.18768 1.06230
 N19 N 0.18629 0.68689 0.68587
 N20 N 1.18794 0.18824 0.18786
 N21 N 0.68748 1.06370 0.56282
 N22 N 0.56492 0.56422 0.18523
 N23 N 0.68547 0.68497 0.18539
 N24 N 0.18802 0.06172 1.06203
 N25 N 0.56375 0.18652 0.56273
 N26 N 0.06244 0.56338 0.68650
 N27 N 0.68480 0.56508 0.06526
 N28 N 0.06415 0.68545 0.56415
 N29 N 0.56235 1.06231 0.68798
 N30 N 0.43541 0.31399 0.93499
 N31 N 0.93695 0.43613 0.31304
 N32 N 0.31560 0.93557 0.43520
 O33 O 0.24869 0.54049 0.73020
 O34 O 0.27444 0.53538 0.73237
 O35 O 0.22959 0.50103 0.71023
 O36 O 0.22895 0.47613 0.71488
 O37 O 0.20909 0.52064 0.74957
 O38 O 0.21463 0.51973 0.77593
 O39 O 0.26835 0.46066 0.75152
 O40 O 0.26548 0.46466 0.72584
 O41 O 0.28854 0.49884 0.77014
 O42 O 0.28395 0.52616 0.76874
 O43 O 0.25006 0.48131 0.79021
 O44 O 0.22308 0.48237 0.78520
 O45 O 0.25038 0.46117 0.77000
 O46 O 0.22224 0.46704 0.76826
 O47 O 0.26823 0.49953 0.79032
 O48 O 0.26708 0.52734 0.78404
 O49 O 0.28836 0.48045 0.75211
 O50 O 0.28331 0.48519 0.72468
 O51 O 0.23104 0.54129 0.74901
 O52 O 0.23211 0.53579 0.77597
 O53 O 0.20848 0.50191 0.73188
 O54 O 0.21443 0.47455 0.73437
 O55 O 0.24807 0.51898 0.70982
 O56 O 0.27529 0.51543 0.71594
 Zr57 Zr 0.25748 0.51845 0.73176
 O58 O 0.27183 0.50528 0.74551
 Zr59 Zr 0.23033 0.49237 0.73240
 O60 O 0.24383 0.47785 0.74560
 Zr61 Zr 0.23108 0.51938 0.75858
 O62 O 0.24410 0.50581 0.77326
 Zr63 Zr 0.26688 0.48234 0.74197
 O64 O 0.25338 0.49541 0.72709
 Zr65 Zr 0.26713 0.50910 0.76850
 O66 O 0.25413 0.52381 0.75479
 Zr67 Zr 0.24031 0.48277 0.76858
 O68 O 0.22560 0.49639 0.75539
 O69 O 0.23453 0.51522 0.73573
 O70 O 0.26330 0.48614 0.76498
 C71 C 0.23853 0.54732 0.73806
 C72 C 0.23736 0.51137 0.70357
 C73 C 0.20235 0.51280 0.73933
 C74 C 0.26105 0.45463 0.76255
 C75 C 0.29470 0.48784 0.76292
 C76 C 0.26083 0.48869 0.79658
 H77 H 0.28250 0.50750 0.74299
 H78 H 0.24162 0.50837 0.78386
 H79 H 0.22812 0.52168 0.72920
 H80 H 0.24142 0.46720 0.74315
 H81 H 0.26221 0.46936 0.71620
 H82 H 0.23659 0.46829 0.71715
 H83 H 0.25854 0.52579 0.79112
 H84 H 0.24204 0.54088 0.77500
 H85 H 0.29040 0.47651 0.72520
 H86 H 0.27445 0.52333 0.70800
 H87 H 0.22350 0.49208 0.79074
 H88 H 0.20980 0.50962 0.77590
 H89 H 0.27437 0.53966 0.74273
 H90 H 0.28994 0.52518 0.75934
 H91 H 0.20851 0.47648 0.74368
 H92 H 0.22429 0.45957 0.76018
 O93 O 0.21035 0.02077 0.24936
 O94 O 0.21545 0.01890 0.27516
 O95 O 0.24967 0.04088 0.23015
 O96 O 0.27456 0.03640 0.22946
 O97 O 0.23032 0.00115 0.20995
 O98 O 0.23146 -0.02511 0.21574
 O99 O 0.29022 0.00014 0.26942
 O100 O 0.28609 0.02589 0.26618
 O101 O 0.25205 -0.01820 0.28982
 O102 O 0.22497 -0.01742 0.28503
 O103 O 0.27007 -0.03866 0.25139
 O104 O 0.26886 -0.03402 0.22432
 O105 O 0.29012 -0.01812 0.25121
 O106 O 0.28396 -0.01698 0.22317
 O107 O 0.25185 -0.03875 0.26956
 O108 O 0.22391 -0.03274 0.26820
 O109 O 0.27073 -0.00049 0.28918
 O110 O 0.26561 0.02692 0.28414
 O111 O 0.20969 0.00175 0.23191
 O112 O 0.21543 -0.02513 0.23323
 O113 O 0.24888 0.01899 0.20918
 O114 O 0.27628 0.01684 0.21517
 O115 O 0.23174 0.04133 0.24865
 O116 O 0.23529 0.03546 0.27593
 Zr117 Zr 0.23239 0.01947 0.25821
 O118 O 0.24567 0.00598 0.27271
 Zr119 Zr 0.25845 0.01879 0.23105
 O120 O 0.27309 0.00585 0.24469
 Zr121 Zr 0.23168 -0.00760 0.23205
 O122 O 0.24537 -0.02202 0.24521
 Zr123 Zr 0.26856 0.00963 0.26772
 O124 O 0.25538 0.02427 0.25408
 Zr125 Zr 0.24203 -0.01706 0.26823
 O126 O 0.22721 -0.00362 0.25507
 Zr127 Zr 0.26836 -0.01718 0.24135
 O128 O 0.25462 -0.00427 0.22652
 O129 O 0.23564 0.01531 0.23527
 O130 O 0.26496 -0.01343 0.26434
 C131 C 0.20357 0.01272 0.23929
 C132 C 0.23933 0.04755 0.23790
 C133 C 0.23808 0.01137 0.20310
 C134 C 0.29647 -0.01070 0.26202
 C135 C 0.26324 -0.01106 0.29577
 C136 C 0.26272 -0.04499 0.26221
 H137 H 0.24343 0.00859 0.28337
 H138 H 0.24290 -0.03266 0.24284
 H139 H 0.22913 0.02174 0.22880
 H140 H 0.28371 0.00839 0.24226
 H141 H 0.28127 0.03548 0.26294
 H142 H 0.28230 0.03439 0.23728
 H143 H 0.22564 -0.04000 0.25985
 H144 H 0.21033 -0.02410 0.24315
 H145 H 0.27432 0.02650 0.29120
 H146 H 0.22733 0.04333 0.27502
 H147 H 0.25920 -0.03965 0.22484
 H148 H 0.24158 -0.02507 0.21094
 H149 H 0.21113 0.00857 0.27507
 H150 H 0.22553 -0.00775 0.29064
 H151 H 0.27438 0.00751 0.20926
 H152 H 0.29123 -0.00865 0.22497
 O153 O 0.53998 0.72973 0.24905
 O154 O 0.53515 0.73190 0.27486
 O155 O 0.50049 0.70933 0.23046
 O156 O 0.47557 0.71376 0.22996
 O157 O 0.51958 0.74876 0.20958
 O158 O 0.51847 0.77509 0.21498
 O159 O 0.46040 0.75062 0.26977
 O160 O 0.46435 0.72487 0.26673
 O161 O 0.49850 0.76944 0.28920
 O162 O 0.52569 0.76833 0.28434
 O163 O 0.48022 0.78910 0.25087
 O164 O 0.48102 0.78416 0.22393
 O165 O 0.46020 0.76851 0.25119
 O166 O 0.46608 0.76693 0.22305
 O167 O 0.49874 0.78949 0.26874
 O168 O 0.52662 0.78344 0.26726
 O169 O 0.48036 0.75117 0.28939
 O170 O 0.48517 0.72379 0.28429
 O171 O 0.54042 0.74846 0.23129
 O172 O 0.53467 0.77540 0.23236
 O173 O 0.50106 0.73085 0.20921
 O174 O 0.47367 0.73318 0.21546
 O175 O 0.51868 0.70914 0.24873
 O176 O 0.51535 0.71532 0.27600
 Zr177 Zr 0.51804 0.73110 0.25808
 O178 O 0.50495 0.74479 0.27253
 Zr179 Zr 0.49168 0.73140 0.23117
 O180 O 0.47719 0.74449 0.24483
 Zr181 Zr 0.51844 0.75783 0.23155
 O182 O 0.50487 0.77241 0.24463
 Zr183 Zr 0.48200 0.74103 0.26787
 O184 O 0.49501 0.72622 0.25425
 Zr185 Zr 0.50849 0.76778 0.26766
 O186 O 0.52317 0.75416 0.25457
 Zr187 Zr 0.48184 0.76748 0.24111
 O188 O 0.49543 0.75441 0.22629
 O189 O 0.51453 0.73496 0.23513
 O190 O 0.48552 0.76405 0.26411
 C191 C 0.54663 0.73760 0.23877
 C192 C 0.51099 0.70279 0.23812
 C193 C 0.51182 0.73839 0.20295
 C194 C 0.45402 0.76129 0.26223
 C195 C 0.48769 0.76211 0.29556
 C196 C 0.48773 0.79560 0.26148
 H197 H 0.50733 0.74234 0.28320
 H198 H 0.50729 0.78302 0.24207
 H199 H 0.52098 0.72847 0.22868
 H200 H 0.46654 0.74191 0.24256
 H201 H 0.46904 0.71524 0.26345
 H202 H 0.46790 0.71587 0.23782
 H203 H 0.52485 0.79053 0.25878
 H204 H 0.53995 0.77443 0.24219
 H205 H 0.47658 0.72424 0.29150
 H206 H 0.52329 0.70744 0.27510
 H207 H 0.49077 0.78964 0.22410
 H208 H 0.50830 0.77498 0.21028
 H209 H 0.53932 0.74229 0.27473
 H210 H 0.52497 0.75889 0.29031
 H211 H 0.47558 0.74235 0.20932
 H212 H 0.45878 0.75870 0.22511
 O213 O 0.00054 0.71008 0.72995
 O214 O -0.02520 0.71494 0.73206
 O215 O 0.01919 0.74957 0.70954
 O216 O 0.01974 0.77449 0.71399
 O217 O 0.04004 0.73044 0.74899
 O218 O 0.03464 0.73158 0.77533
 O219 O -0.02007 0.78971 0.75078
 O220 O -0.01701 0.78575 0.72503
 O221 O -0.03951 0.75165 0.76961
 O222 O -0.03466 0.72442 0.76851
 O223 O -0.00121 0.76991 0.78934
 O224 O 0.02567 0.76910 0.78444
 O225 O -0.00154 0.78992 0.76872
 O226 O 0.02661 0.78399 0.76715
 O227 O -0.01907 0.75139 0.78971
 O228 O -0.01764 0.72351 0.78367
 O229 O -0.03967 0.76978 0.75131
 O230 O -0.03457 0.76492 0.72393
 O231 O 0.01828 0.70960 0.74871
 O232 O 0.01726 0.71542 0.77566
 O233 O 0.04041 0.74898 0.73110
 O234 O 0.03419 0.77639 0.73342
 O235 O 0.00093 0.73138 0.70933
 O236 O -0.02632 0.73475 0.71549
 Zr237 Zr -0.00842 0.73204 0.73130
 O238 O -0.02285 0.74516 0.74498
 Zr239 Zr 0.01849 0.75838 0.73163
 O240 O 0.00485 0.77290 0.74470
 Zr241 Zr 0.01808 0.73162 0.75806
 O242 O 0.00501 0.74523 0.77263
 Zr243 Zr -0.01817 0.76810 0.74121
 O244 O -0.00457 0.75506 0.72640
 Zr245 Zr -0.01800 0.74163 0.76798
 O246 O -0.00492 0.72692 0.75437
 Zr247 Zr 0.00854 0.76827 0.76771
 O248 O 0.02334 0.75463 0.75465
 O249 O 0.01452 0.73553 0.73518
 O250 O -0.01444 0.76459 0.76424
 C251 C 0.01078 0.70340 0.73785
 C252 C 0.01153 0.73908 0.70299
 C253 C 0.04666 0.73821 0.73864
 C254 C -0.01256 0.79610 0.76147
 C255 C -0.04585 0.76247 0.76226
 C256 C -0.01181 0.76240 0.79583
 H257 H -0.03351 0.74278 0.74251
 H258 H 0.00756 0.74280 0.78325
 H259 H 0.02095 0.72906 0.72868
 H260 H 0.00712 0.78355 0.74212
 H261 H -0.01374 0.78104 0.71540
 H262 H 0.01187 0.78215 0.71606
 H263 H -0.00914 0.72526 0.79075
 H264 H 0.00742 0.71015 0.77470
 H265 H -0.04176 0.77353 0.72437
 H266 H -0.02542 0.72681 0.70760
 H267 H 0.02557 0.75931 0.78985
 H268 H 0.03935 0.74175 0.77522
 H269 H -0.02512 0.71081 0.74248
 H270 H -0.04067 0.72519 0.75909
 H271 H 0.04033 0.77447 0.74261
 H272 H 0.02453 0.79134 0.75896
 O273 O 0.00111 0.04018 0.02030
 O274 O -0.02465 0.03542 0.01827
 O275 O 0.01967 0.00058 0.04060
 O276 O 0.02012 -0.02432 0.03611
 O277 O 0.04041 0.01968 0.00105
 O278 O 0.03488 0.01864 -0.02524
 O279 O -0.01992 -0.03938 -0.00057
 O280 O -0.01677 -0.03544 0.02517
 O281 O -0.03930 -0.00121 -0.01931
 O282 O -0.03435 0.02599 -0.01819
 O283 O -0.00118 -0.01959 -0.03915
 O284 O 0.02575 -0.01884 -0.03434
 O285 O -0.00145 -0.03961 -0.01855
 O286 O 0.02670 -0.03377 -0.01711
 O287 O -0.01897 -0.00101 -0.03945
 O288 O -0.01735 0.02688 -0.03338
 O289 O -0.03946 -0.01937 -0.00105
 O290 O -0.03424 -0.01456 0.02633
 O291 O 0.01874 0.04061 0.00146
 O292 O 0.01756 0.03484 -0.02548
 O293 O 0.04081 0.00112 0.01891
 O294 O 0.03444 -0.02626 0.01663
 O295 O 0.00146 0.01879 0.04090
 O296 O -0.02582 0.01559 0.03479
 Zr297 Zr -0.00796 0.01824 0.01895
 O298 O -0.02251 0.00520 0.00529
 Zr299 Zr 0.01883 -0.00818 0.01849
 O300 O 0.00507 -0.02264 0.00545
 Zr301 Zr 0.01841 0.01861 -0.00791
 O302 O 0.00523 0.00506 -0.02245
 Zr303 Zr -0.01791 -0.01777 0.00901
 O304 O -0.00419 -0.00480 0.02379
 Zr305 Zr -0.01775 0.00874 -0.01772
 O306 O -0.00456 0.02338 -0.00413
 Zr307 Zr 0.00869 -0.01799 -0.01757
 O308 O 0.02360 -0.00442 -0.00454
 O309 O 0.01495 0.01469 0.01499
 O310 O -0.01426 -0.01425 -0.01402
 C311 C 0.01133 0.04684 0.01236
 C312 C 0.01204 0.01105 0.04721
 C313 C 0.04707 0.01186 0.01134
 C314 C -0.01245 -0.04578 -0.01128
 C315 C -0.04565 -0.01202 -0.01197
 C316 C -0.01179 -0.01205 -0.04560
 H317 H -0.03315 0.00760 0.00779
 H318 H 0.00774 0.00749 -0.03308
 H319 H 0.02144 0.02112 0.02147
 H320 H 0.00732 -0.03329 0.00801
 H321 H -0.01344 -0.03075 0.03480
 H322 H 0.01215 -0.03190 0.03410
 H323 H -0.00894 0.02508 -0.04053
 H324 H 0.00775 0.04015 -0.02447
 H325 H -0.04147 -0.02314 0.02590
 H326 H -0.02485 0.02350 0.04270
 H327 H 0.02560 -0.00908 -0.03982
 H328 H 0.03950 0.00844 -0.02521
 H329 H -0.02462 0.03955 0.00786
 H330 H -0.04029 0.02526 -0.00873
 H331 H 0.04054 -0.02436 0.00743
 H332 H 0.02465 -0.04109 -0.00888
 O333 O -0.03997 0.49873 0.47980
 O334 O -0.03522 0.52448 0.48184
 O335 O -0.00037 0.48021 0.45947
 O336 O 0.02453 0.47976 0.46398
 O337 O -0.01949 0.45936 0.49892
 O338 O -0.01839 0.46480 0.52525
 O339 O 0.03952 0.51978 0.50069
 O340 O 0.03559 0.51665 0.47496
 O341 O 0.00137 0.53907 0.51946
 O342 O -0.02581 0.53411 0.51833
 O343 O 0.01975 0.50089 0.53929
 O344 O 0.01912 0.47404 0.53445
 O345 O 0.03980 0.50128 0.51866
 O346 O 0.03397 0.47308 0.51714
 O347 O 0.00115 0.51866 0.53960
 O348 O -0.02670 0.51709 0.53348
 O349 O 0.01951 0.53929 0.50119
 O350 O 0.01470 0.53410 0.47380
 O351 O -0.04040 0.48105 0.49861
 O352 O -0.03459 0.48212 0.52555
 O353 O -0.00093 0.45902 0.48107
 O354 O 0.02645 0.46538 0.48345
 O355 O -0.01862 0.49839 0.45920
 O356 O -0.01539 0.52568 0.46533
 Zr357 Zr -0.01805 0.50779 0.48115
 O358 O -0.00502 0.52233 0.49483
 Zr359 Zr 0.00838 0.48100 0.48158
 O360 O 0.02283 0.49476 0.49465
 Zr361 Zr -0.01839 0.48134 0.50796
 O362 O -0.00486 0.49452 0.52253
 Zr363 Zr 0.01793 0.51775 0.49111
 O364 O 0.00498 0.50404 0.47631
 Zr365 Zr -0.00855 0.51751 0.51784
 O366 O -0.02318 0.50432 0.50422
 Zr367 Zr 0.01819 0.49110 0.51766
 O368 O 0.00464 0.47619 0.50461
 O369 O -0.01448 0.48487 0.48508
 O370 O 0.01443 0.51406 0.51415
 C371 C -0.04663 0.48851 0.48774
 C372 C -0.01086 0.48782 0.45288
 C373 C -0.01168 0.45274 0.48860
 C374 C 0.04594 0.51231 0.51139
 C375 C 0.01216 0.54546 0.51211
 C376 C 0.01217 0.51146 0.54576
 H377 H -0.00744 0.53297 0.49235
 H378 H -0.00728 0.49198 0.53316
 H379 H -0.02092 0.47840 0.47858
 H380 H 0.03348 0.49253 0.49208
 H381 H 0.03091 0.51332 0.46532
 H382 H 0.03212 0.48771 0.46603
 H383 H -0.02492 0.50862 0.54058
 H384 H -0.03991 0.49192 0.52458
 H385 H 0.02327 0.54134 0.47424
 H386 H -0.02331 0.52472 0.45741
 H387 H 0.00928 0.47401 0.53976
 H388 H -0.00821 0.46014 0.52516
 H389 H -0.03933 0.52445 0.49226
 H390 H -0.02507 0.54008 0.50889
 H391 H 0.02453 0.45924 0.49262
 H392 H 0.04132 0.47519 0.50897
 O393 O 0.54139 0.01914 0.50020
 O394 O 0.53621 0.01677 0.47442
 O395 O 0.50192 0.04008 0.51866
 O396 O 0.47708 0.03552 0.51974
 O397 O 0.52114 0.00064 0.54011
 O398 O 0.51990 -0.02577 0.53489
 O399 O 0.46134 -0.00141 0.48061
 O400 O 0.46563 0.02426 0.48316
 O401 O 0.49934 -0.02068 0.46077
 O402 O 0.52672 -0.01946 0.46548
 O403 O 0.48151 -0.04007 0.49946
 O404 O 0.48264 -0.03464 0.52650
 O405 O 0.46161 -0.01963 0.49886
 O406 O 0.46738 -0.01768 0.52695
 O407 O 0.49980 -0.04057 0.48137
 O408 O 0.52759 -0.03465 0.48246
 O409 O 0.48117 -0.00244 0.46065
 O410 O 0.48620 0.02496 0.46535
 O411 O 0.54188 0.00066 0.51822
 O412 O 0.53608 -0.02619 0.51753
 O413 O 0.50273 0.01864 0.54036
 O414 O 0.47533 0.01632 0.53437
 O415 O 0.52036 0.03974 0.50067
 O416 O 0.51652 0.03354 0.47347
 Zr417 Zr 0.51934 0.01780 0.49141
 O418 O 0.50602 0.00407 0.47718
 Zr419 Zr 0.49319 0.01790 0.51848
 O420 O 0.47855 0.00466 0.50512
 Zr421 Zr 0.51986 -0.00862 0.51821
 O422 O 0.50618 -0.02330 0.50531
 Zr423 Zr 0.48312 0.00793 0.48202
 O424 O 0.49636 0.02283 0.49534
 Zr425 Zr 0.50958 -0.01887 0.48220
 O426 O 0.52442 -0.00521 0.49511
 Zr427 Zr 0.48320 -0.01833 0.50897
 O428 O 0.49691 -0.00508 0.52355
 O429 O 0.51600 0.01422 0.51444
 O430 O 0.48665 -0.01506 0.48591
 C431 C 0.54808 0.01138 0.51054
 C432 C 0.51259 0.04637 0.51102
 C433 C 0.51344 0.01107 0.54667
 C434 C 0.45517 -0.01227 0.48806
 C435 C 0.48844 -0.01341 0.45448
 C436 C 0.48889 -0.04664 0.48880
 H437 H 0.50830 0.00644 0.46648
 H438 H 0.50862 -0.03390 0.50794
 H439 H 0.52252 0.02076 0.52078
 H440 H 0.46793 0.00726 0.50746
 H441 H 0.47045 0.03389 0.48628
 H442 H 0.46937 0.03339 0.51192
 H443 H 0.52604 -0.04150 0.49118
 H444 H 0.54116 -0.02546 0.50757
 H445 H 0.47752 0.02446 0.45824
 H446 H 0.52457 0.04133 0.47421
 H447 H 0.49218 -0.04047 0.52601
 H448 H 0.50978 -0.02555 0.53968
 H449 H 0.54041 0.00639 0.47467
 H450 H 0.52571 -0.01023 0.45922
 H451 H 0.47715 0.00707 0.54042
 H452 H 0.46013 -0.00941 0.52486
 O453 O 0.48027 0.45949 -0.00123
 O454 O 0.48244 0.46427 0.02457
 O455 O 0.45980 0.49900 -0.01972
 O456 O 0.46423 0.52393 -0.02021
 O457 O 0.49921 0.47997 -0.04067
 O458 O 0.52554 0.48117 -0.03528
 O459 O 0.50101 0.53911 0.01965
 O460 O 0.47529 0.53509 0.01661
 O461 O 0.51992 0.50101 0.03900
 O462 O 0.51883 0.47378 0.03406
 O463 O 0.53953 0.51941 0.00075
 O464 O 0.53462 0.51864 -0.02617
 O465 O 0.51889 0.53939 0.00107
 O466 O 0.51733 0.53350 -0.02710
 O467 O 0.53995 0.50084 0.01856
 O468 O 0.53396 0.47295 0.01701
 O469 O 0.50163 0.51912 0.03923
 O470 O 0.47426 0.51423 0.03413
 O471 O 0.49899 0.45910 -0.01900
 O472 O 0.52590 0.46493 -0.01793
 O473 O 0.48129 0.49846 -0.04098
 O474 O 0.48362 0.52587 -0.03469
 O475 O 0.45965 0.48076 -0.00151
 O476 O 0.46585 0.48405 0.02577
 Zr477 Zr 0.48161 0.48142 0.00784
 O478 O 0.49528 0.49452 0.02233
 Zr479 Zr 0.48187 0.50783 -0.01901
 O480 O 0.49493 0.52233 -0.00532
 Zr481 Zr 0.50831 0.48112 -0.01870
 O482 O 0.52287 0.49471 -0.00558
 Zr483 Zr 0.49148 0.51748 0.01771
 O484 O 0.47669 0.50445 0.00406
 Zr485 Zr 0.51826 0.49104 0.01745
 O486 O 0.50466 0.47634 0.00431
 Zr487 Zr 0.51792 0.51775 -0.00904
 O488 O 0.50486 0.50414 -0.02390
 O489 O 0.48545 0.48498 -0.01510
 O490 O 0.51449 0.51401 0.01395
 C491 C 0.48814 0.45286 -0.01152
 C492 C 0.45328 0.48847 -0.01208
 C493 C 0.48882 0.48771 -0.04726
 C494 C 0.51165 0.54554 0.01211
 C495 C 0.51258 0.51180 0.04539
 C496 C 0.54603 0.51190 0.01135
 H497 H 0.49284 0.49212 0.03299
 H498 H 0.53348 0.49231 -0.00814
 H499 H 0.47895 0.47852 -0.02155
 H500 H 0.49233 0.53298 -0.00757
 H501 H 0.46567 0.53038 0.01332
 H502 H 0.46631 0.53157 -0.01231
 H503 H 0.54103 0.47475 0.00852
 H504 H 0.52496 0.45963 -0.00810
 H505 H 0.47471 0.52281 0.04136
 H506 H 0.45798 0.47609 0.02486
 H507 H 0.54006 0.50887 -0.02609
 H508 H 0.52540 0.49135 -0.03996
 H509 H 0.49284 0.46014 0.02446
 H510 H 0.50942 0.47452 0.04008
 H511 H 0.49277 0.52396 -0.04086
 H512 H 0.50910 0.54079 -0.02502
 O513 O 0.75108 0.27064 0.46030
 O514 O 0.72527 0.26870 0.46520
 O515 O 0.76994 0.29083 0.49979
 O516 O 0.77059 0.28633 0.52471
 O517 O 0.79032 0.25113 0.48056
 O518 O 0.78459 0.22485 0.48173
 O519 O 0.73056 0.25010 0.54013
 O520 O 0.73375 0.27581 0.53596
 O521 O 0.71044 0.23164 0.50177
 O522 O 0.71538 0.23235 0.47474
 O523 O 0.74877 0.21125 0.52013
 O524 O 0.77572 0.21589 0.51921
 O525 O 0.74879 0.23189 0.54022
 O526 O 0.77687 0.23306 0.53418
 O527 O 0.73075 0.21111 0.50174
 O528 O 0.73226 0.21712 0.47378
 O529 O 0.71091 0.24938 0.52043
 O530 O 0.71598 0.27679 0.51532
 O531 O 0.76854 0.25165 0.45979
 O532 O 0.76719 0.22475 0.46558
 O533 O 0.79097 0.26903 0.49908
 O534 O 0.78484 0.26679 0.52651
 O535 O 0.75158 0.29122 0.48170
 O536 O 0.72433 0.28528 0.48502
 Zr537 Zr 0.74208 0.26933 0.48229
 O538 O 0.72754 0.25583 0.49549
 Zr539 Zr 0.76907 0.26873 0.50857
 O540 O 0.75535 0.25580 0.52314
 Zr541 Zr 0.76826 0.24231 0.48181
 O542 O 0.75505 0.22790 0.49545
 Zr543 Zr 0.73237 0.25952 0.51844
 O544 O 0.74607 0.27416 0.50532
 Zr545 Zr 0.73208 0.23279 0.49192
 O546 O 0.74529 0.24624 0.47716
 Zr547 Zr 0.75875 0.23276 0.51849
 O548 O 0.77365 0.24567 0.50481
 O549 O 0.76498 0.26523 0.48572
 O550 O 0.73579 0.23646 0.51490
 C551 C 0.76120 0.26261 0.45360
 C552 C 0.76224 0.29747 0.48938
 C553 C 0.79709 0.26141 0.48830
 C554 C 0.73796 0.23932 0.54648
 C555 C 0.70440 0.23880 0.51288
 C556 C 0.73805 0.20488 0.51267
 H557 H 0.71690 0.25841 0.49316
 H558 H 0.75747 0.21726 0.49301
 H559 H 0.77146 0.27167 0.47924
 H560 H 0.75772 0.25836 0.53379
 H561 H 0.73704 0.28539 0.53116
 H562 H 0.76267 0.28437 0.53235
 H563 H 0.74060 0.20989 0.47558
 H564 H 0.75734 0.22580 0.46035
 H565 H 0.70884 0.27636 0.52397
 H566 H 0.72527 0.29314 0.47704
 H567 H 0.77545 0.21042 0.50945
 H568 H 0.78937 0.22494 0.49188
 H569 H 0.72543 0.25836 0.46086
 H570 H 0.70982 0.24205 0.47517
 H571 H 0.79083 0.25752 0.52460
 H572 H 0.77500 0.24137 0.54145
 O573 O 0.76990 0.79013 -0.00086
 O574 O 0.76779 0.78534 0.02494
 O575 O 0.79032 0.75064 -0.01942
 O576 O 0.78590 0.72572 -0.01992
 O577 O 0.75084 0.76965 -0.04028
 O578 O 0.72453 0.76850 -0.03485
 O579 O 0.74920 0.71051 0.02000
 O580 O 0.77492 0.71452 0.01691
 O581 O 0.73034 0.74856 0.03939
 O582 O 0.73137 0.77576 0.03451
 O583 O 0.71064 0.73021 0.00109
 O584 O 0.71552 0.73097 -0.02581
 O585 O 0.73127 0.71024 0.00145
 O586 O 0.73281 0.71611 -0.02673
 O587 O 0.71024 0.74876 0.01894
 O588 O 0.71626 0.77666 0.01743
 O589 O 0.74864 0.73047 0.03957
 O590 O 0.77599 0.73537 0.03444
 O591 O 0.75114 0.79053 -0.01861
 O592 O 0.72422 0.78470 -0.01748
 O593 O 0.76876 0.75118 -0.04064
 O594 O 0.76647 0.72376 -0.03436
 O595 O 0.79051 0.76886 -0.00118
 O596 O 0.78437 0.76555 0.02611
 Zr597 Zr 0.76857 0.76819 0.00820
 O598 O 0.75493 0.75508 0.02268
 Zr599 Zr 0.76826 0.74180 -0.01868
 O600 O 0.75524 0.72728 -0.00498
 Zr601 Zr 0.74181 0.76851 -0.01830
 O602 O 0.72728 0.75490 -0.00518
 Zr603 Zr 0.75873 0.73213 0.01804
 O604 O 0.77349 0.74517 0.00439
 Zr605 Zr 0.73194 0.75855 0.01784
 O606 O 0.74551 0.77327 0.00471
 Zr607 Zr 0.73224 0.73187 -0.00867
 O608 O 0.74525 0.74550 -0.02353
 O609 O 0.76468 0.76465 -0.01475
 O610 O 0.73571 0.73559 0.01432
 C611 C 0.76201 0.79676 -0.01115
 C612 C 0.79685 0.76116 -0.01177
 C613 C 0.76120 0.76192 -0.04690
 C614 C 0.73852 0.70409 0.01249
 C615 C 0.73770 0.73777 0.04575
 C616 C 0.70414 0.73772 0.01169
 H617 H 0.75740 0.75747 0.03334
 H618 H 0.71666 0.75730 -0.00774
 H619 H 0.77116 0.77111 -0.02120
 H620 H 0.75783 0.71663 -0.00724
 H621 H 0.78453 0.71923 0.01362
 H622 H 0.78385 0.71807 -0.01202
 H623 H 0.70917 0.77487 0.00895
 H624 H 0.72521 0.79002 -0.00766
 H625 H 0.77557 0.72678 0.04166
 H626 H 0.79224 0.77351 0.02519
 H627 H 0.71008 0.74074 -0.02572
 H628 H 0.72465 0.75832 -0.03954
 H629 H 0.75738 0.78946 0.02484
 H630 H 0.74084 0.77508 0.04045
 H631 H 0.75730 0.72566 -0.04051
 H632 H 0.74101 0.70879 -0.02464
 O633 O 1.00107 0.20955 0.22986
 O634 O 0.97531 0.21426 0.23193
 O635 O 1.01953 0.24918 0.20951
 O636 O 1.02000 0.27407 0.21399
 O637 O 1.04040 0.23011 0.24903
 O638 O 1.03494 0.23119 0.27534
 O639 O 0.98002 0.28910 0.25067
 O640 O 0.98310 0.28512 0.22495
 O641 O 0.96072 0.25090 0.26950
 O642 O 0.96568 0.22373 0.26841
 O643 O 0.99890 0.26935 0.28928
 O644 O 1.02575 0.26871 0.28446
 O645 O 0.99855 0.28939 0.26861
 O646 O 1.02671 0.28354 0.26715
 O647 O 0.98114 0.25072 0.28964
 O648 O 0.98273 0.22285 0.28354
 O649 O 0.96049 0.26903 0.25121
 O650 O 0.96566 0.26421 0.22383
 O651 O 1.01875 0.20916 0.24868
 O652 O 1.01764 0.21496 0.27562
 O653 O 1.04074 0.24866 0.23115
 O654 O 1.03435 0.27604 0.23344
 O655 O 1.00135 0.23092 0.20924
 O656 O 0.97408 0.23408 0.21539
 Zr657 Zr 0.99198 0.23147 0.23121
 O658 O 0.97745 0.24450 0.24488
 Zr659 Zr 1.01876 0.25794 0.23161
 O660 O 1.00501 0.27238 0.24465
 Zr661 Zr 1.01842 0.23117 0.25803
 O662 O 1.00527 0.24471 0.27258
 Zr663 Zr 0.98202 0.26747 0.24113
 O664 O 0.99572 0.25452 0.22635
 Zr665 Zr 0.98228 0.24099 0.26789
 O666 O 0.99545 0.22636 0.25429
 Zr667 Zr 1.00868 0.26777 0.26767
 O668 O 1.02358 0.25421 0.25464
 O669 O 1.01490 0.23506 0.23513
 O670 O 0.98573 0.26399 0.26417
 C671 C 1.01131 0.20292 0.23780
 C672 C 1.01190 0.23869 0.20292
 C673 C 1.04703 0.23794 0.23872
 C674 C 0.98754 0.29554 0.26133
 C675 C 0.95432 0.26168 0.26214
 C676 C 0.98834 0.26177 0.29577
 H677 H 0.96682 0.24207 0.24240
 H678 H 1.00781 0.24229 0.28320
 H679 H 1.02137 0.22864 0.22864
 H680 H 1.00724 0.28304 0.24207
 H681 H 0.98641 0.28043 0.21532
 H682 H 1.01201 0.28163 0.21599
 H683 H 0.99118 0.22465 0.29066
 H684 H 1.00784 0.20962 0.27462
 H685 H 0.95842 0.27277 0.22426
 H686 H 0.97504 0.22616 0.20749
 H687 H 1.02574 0.25889 0.28983
 H688 H 1.03959 0.24138 0.27526
 H689 H 0.97538 0.21014 0.24235
 H690 H 0.95975 0.22441 0.25894
 H691 H 1.04050 0.27414 0.24262
 H692 H 1.02463 0.29087 0.25894
 O693 O 0.73001 1.00167 0.70994
 O694 O 0.73208 0.97589 0.71466
 O695 O 0.70967 1.02010 0.74960
 O696 O 0.71418 1.02061 0.77451
 O697 O 0.74916 1.04098 0.73051
 O698 O 0.77546 1.03552 0.73162
 O699 O 0.75083 0.98058 0.78954
 O700 O 0.72511 0.98370 0.78557
 O701 O 0.76959 0.96127 0.75135
 O702 O 0.76848 0.96625 0.72413
 O703 O 0.78937 0.99943 0.76981
 O704 O 0.78456 1.02634 0.76911
 O705 O 0.76877 0.99909 0.78983
 O706 O 0.76730 1.02726 0.78401
 O707 O 0.78970 0.98164 0.75120
 O708 O 0.78366 0.98326 0.72330
 O709 O 0.75132 0.96106 0.76949
 O710 O 0.72397 0.96625 0.76466
 O711 O 0.74882 1.01934 0.70957
 O712 O 0.77573 1.01821 0.71537
 O713 O 0.73128 1.04132 0.74904
 O714 O 0.73362 1.03497 0.77645
 O715 O 0.70942 1.00191 0.73134
 O716 O 0.71557 0.97464 0.73447
 Zr717 Zr 0.73136 0.99256 0.73188
 O718 O 0.74501 0.97802 0.74493
 Zr719 Zr 0.73177 1.01935 0.75836
 O720 O 0.74480 1.00559 0.77282
 Zr721 Zr 0.75816 1.01900 0.73159
 O722 O 0.77270 1.00583 0.74514
 Zr723 Zr 0.74126 0.98260 0.76792
 O724 O 0.72651 0.99631 0.75494
 Zr725 Zr 0.76800 0.98284 0.74143
 O726 O 0.75442 0.99602 0.72677
 Zr727 Zr 0.76780 1.00926 0.76820
 O728 O 0.75478 1.02416 0.75463
 O729 O 0.73529 1.01548 0.73547
 O730 O 0.76428 0.98630 0.76442
 C731 C 0.73794 1.01191 0.70331
 C732 C 0.70309 1.01246 0.73912
 C733 C 0.73883 1.04760 0.73830
 C734 C 0.76151 0.98806 0.79597
 C735 C 0.76224 0.95489 0.76214
 C736 C 0.79582 0.98882 0.76226
 H737 H 0.74252 0.96738 0.74251
 H738 H 0.78332 1.00836 0.74273
 H739 H 0.72879 1.02195 0.72904
 H740 H 0.74223 1.00783 0.78348
 H741 H 0.71549 0.98703 0.78088
 H742 H 0.71619 1.01263 0.78209
 H743 H 0.79078 0.99172 0.72512
 H744 H 0.77475 1.00840 0.71005
 H745 H 0.72440 0.95901 0.77323
 H746 H 0.70767 0.97560 0.72654
 H747 H 0.78998 1.02625 0.75933
 H748 H 0.77537 1.04016 0.74182
 H749 H 0.74249 0.97596 0.71054
 H750 H 0.75905 0.96029 0.72485
 H751 H 0.74280 1.04111 0.77454
 H752 H 0.75909 1.02519 0.79133
 O753 O 0.79033 0.49873 0.27005
 O754 O 0.78558 0.52450 0.26793
 O755 O 0.75079 0.48022 0.29046
 O756 O 0.72590 0.47965 0.28598
 O757 O 0.76985 0.45937 0.25091
 O758 O 0.76870 0.46483 0.22459
 O759 O 0.71075 0.51963 0.24928
 O760 O 0.71475 0.51652 0.27502
 O761 O 0.74883 0.53902 0.23045
 O762 O 0.77603 0.53412 0.23151
 O763 O 0.73044 0.50081 0.21069
 O764 O 0.73121 0.47389 0.21554
 O765 O 0.71048 0.50111 0.23133
 O766 O 0.71634 0.47295 0.23283
 O767 O 0.74899 0.51864 0.21033
 O768 O 0.77689 0.51709 0.21634
 O769 O 0.73073 0.53920 0.24875
 O770 O 0.73560 0.53403 0.27613
 O771 O 0.79073 0.48104 0.25123
 O772 O 0.78490 0.48218 0.22429
 O773 O 0.75137 0.45899 0.26884
 O774 O 0.72397 0.46528 0.26653
 O775 O 0.76899 0.49846 0.29068
 O776 O 0.76580 0.52572 0.28450
 Zr777 Zr 0.76841 0.50780 0.26870
 O778 O 0.75531 0.52230 0.25505
 Zr779 Zr 0.74201 0.48094 0.26835
 O780 O 0.72751 0.49466 0.25531
 Zr781 Zr 0.76872 0.48135 0.24190
 O782 O 0.75513 0.49448 0.22735
 Zr783 Zr 0.73236 0.51766 0.25883
 O784 O 0.74538 0.50399 0.27360
 Zr785 Zr 0.75880 0.51748 0.23204
 O786 O 0.77349 0.50434 0.24562
 Zr787 Zr 0.73210 0.49099 0.23229
 O788 O 0.74571 0.47613 0.24532
 O789 O 0.76486 0.48487 0.26479
 O790 O 0.73583 0.51396 0.23579
 C791 C 0.79697 0.48848 0.26212
 C792 C 0.76126 0.48789 0.29703
 C793 C 0.76210 0.45273 0.26126
 C794 C 0.70433 0.51213 0.23859
 C795 C 0.73804 0.54538 0.23781
 C796 C 0.73795 0.51143 0.20421
 H797 H 0.75771 0.53295 0.25753
 H798 H 0.75753 0.49195 0.21672
 H799 H 0.77130 0.47841 0.27129
 H800 H 0.71686 0.49240 0.25790
 H801 H 0.71945 0.51321 0.28465
 H802 H 0.71831 0.48760 0.28397
 H803 H 0.77508 0.50863 0.20922
 H804 H 0.79020 0.49200 0.22528
 H805 H 0.72703 0.54125 0.27571
 H806 H 0.77374 0.52478 0.29239
 H807 H 0.74097 0.47402 0.21008
 H808 H 0.75852 0.46016 0.22468
 H809 H 0.78969 0.52442 0.25751
 H810 H 0.77533 0.54006 0.24097
 H811 H 0.72587 0.45914 0.25735
 H812 H 0.70904 0.47502 0.24105
 O813 O 0.49972 0.20933 0.72957
 O814 O 0.47390 0.21439 0.73161
 O815 O 0.51817 0.24879 0.70852
 O816 O 0.51918 0.27365 0.71292
 O817 O 0.53926 0.22989 0.74836
 O818 O 0.53378 0.23139 0.77473
 O819 O 0.47947 0.28938 0.74940
 O820 O 0.48247 0.28495 0.72364
 O821 O 0.45955 0.25131 0.76841
 O822 O 0.46454 0.22413 0.76777
 O823 O 0.49803 0.26977 0.78828
 O824 O 0.52507 0.26869 0.78330
 O825 O 0.49787 0.28961 0.76747
 O826 O 0.52587 0.28367 0.76614
 O827 O 0.48002 0.25139 0.78872
 O828 O 0.48139 0.22348 0.78307
 O829 O 0.45988 0.26976 0.75045
 O830 O 0.46461 0.26435 0.72305
 O831 O 0.51748 0.20907 0.74831
 O832 O 0.51649 0.21513 0.77512
 O833 O 0.53964 0.24815 0.73018
 O834 O 0.53356 0.27558 0.73225
 O835 O 0.50029 0.23024 0.70879
 O836 O 0.47304 0.23396 0.71467
 Zr837 Zr 0.49081 0.23135 0.73064
 O838 O 0.47639 0.24471 0.74409
 Zr839 Zr 0.51776 0.25765 0.73064
 O840 O 0.50421 0.27235 0.74360
 Zr841 Zr 0.51729 0.23119 0.75739
 O842 O 0.50418 0.24494 0.77180
 Zr843 Zr 0.48120 0.26761 0.74013
 O844 O 0.49471 0.25432 0.72548
 Zr845 Zr 0.48115 0.24137 0.76713
 O846 O 0.49427 0.22648 0.75375
 Zr847 Zr 0.50783 0.26791 0.76667
 O848 O 0.52259 0.25414 0.75371
 O849 O 0.51376 0.23484 0.73446
 O850 O 0.48485 0.26429 0.76320
 C851 C 0.50997 0.20274 0.73754
 C852 C 0.51066 0.23803 0.70221
 C853 C 0.54589 0.23751 0.73789
 C854 C 0.48695 0.29580 0.76010
 C855 C 0.45346 0.26237 0.76120
 C856 C 0.48734 0.26238 0.79479
 H857 H 0.46573 0.24237 0.74162
 H858 H 0.50669 0.24260 0.78245
 H859 H 0.52018 0.22829 0.72804
 H860 H 0.50654 0.28296 0.74092
 H861 H 0.48558 0.28003 0.71406
 H862 H 0.51121 0.28126 0.71481
 H863 H 0.48993 0.22524 0.79010
 H864 H 0.50657 0.20999 0.77433
 H865 H 0.45752 0.27303 0.72343
 H866 H 0.47389 0.22585 0.70694
 H867 H 0.52461 0.25913 0.78911
 H868 H 0.53854 0.24152 0.77445
 H869 H 0.47416 0.21016 0.74198
 H870 H 0.45862 0.22474 0.75828
 H871 H 0.53961 0.27379 0.74152
 H872 H 0.52400 0.29075 0.75766
 O873 O 0.25021 0.76964 0.45902
 O874 O 0.22440 0.76740 0.46384
 O875 O 0.26820 0.79092 0.49859
 O876 O 0.26901 0.78660 0.52349
 O877 O 0.28975 0.75127 0.47997
 O878 O 0.28452 0.72491 0.48140
 O879 O 0.22930 0.74969 0.53887
 O880 O 0.23218 0.77541 0.53459
 O881 O 0.21023 0.73025 0.50088
 O882 O 0.21525 0.73110 0.47362
 O883 O 0.24853 0.71109 0.51962
 O884 O 0.27545 0.71625 0.51886
 O885 O 0.24801 0.73197 0.53939
 O886 O 0.27611 0.73362 0.53362
 O887 O 0.23082 0.71035 0.50096
 O888 O 0.23234 0.71603 0.47305
 O889 O 0.20981 0.74876 0.51878
 O890 O 0.21471 0.77609 0.51364
 O891 O 0.26822 0.75115 0.45894
 O892 O 0.26729 0.72429 0.46503
 O893 O 0.28982 0.76951 0.49818
 O894 O 0.28348 0.76737 0.52563
 O895 O 0.25049 0.79045 0.47986
 O896 O 0.22322 0.78433 0.48340
 Zr897 Zr 0.24115 0.76854 0.48096
 O898 O 0.22673 0.75493 0.49418
 Zr899 Zr 0.26786 0.76884 0.50751
 O900 O 0.25425 0.75580 0.52210
 Zr901 Zr 0.26786 0.74205 0.48107
 O902 O 0.25480 0.72754 0.49476
 Zr903 Zr 0.23124 0.75902 0.51713
 O904 O 0.24478 0.77377 0.50397
 Zr905 Zr 0.23178 0.73195 0.49096
 O906 O 0.24486 0.74546 0.47615
 Zr907 Zr 0.25815 0.73277 0.51777
 O908 O 0.27293 0.74582 0.50408
 O909 O 0.26409 0.76493 0.48467
 O910 O 0.23517 0.73599 0.51391
 C911 C 0.26064 0.76183 0.45254
 C912 C 0.26077 0.79712 0.48772
 C913 C 0.29622 0.76183 0.48760
 C914 C 0.23690 0.73918 0.54544
 C915 C 0.20376 0.73768 0.51156
 C916 C 0.23803 0.70442 0.51210
 H917 H 0.21607 0.75728 0.49171
 H918 H 0.25745 0.71692 0.49248
 H919 H 0.27051 0.77140 0.47817
 H920 H 0.25645 0.75853 0.53274
 H921 H 0.23537 0.78502 0.52978
 H922 H 0.26096 0.78468 0.53101
 H923 H 0.24095 0.70912 0.47487
 H924 H 0.25748 0.72509 0.45969
 H925 H 0.20749 0.77571 0.52223
 H926 H 0.22411 0.79206 0.47531
 H927 H 0.27530 0.71057 0.50922
 H928 H 0.28915 0.72519 0.49161
 H929 H 0.22464 0.75696 0.45976
 H930 H 0.20911 0.74042 0.47430
 H931 H 0.28972 0.75825 0.52382
 H932 H 0.27401 0.74199 0.54076
 O933 O 0.24927 0.20947 1.02044
 O934 O 0.27504 0.21428 1.01850
 O935 O 0.23055 0.24925 1.04026
 O936 O 0.23007 0.27411 1.03548
 O937 O 0.21002 0.22964 1.00085
 O938 O 0.21565 0.23051 0.97451
 O939 O 0.27020 0.28887 0.99889
 O940 O 0.26690 0.28519 1.02467
 O941 O 0.28984 0.25048 0.98080
 O942 O 0.28477 0.22324 0.98212
 O943 O 0.25146 0.26837 0.96024
 O944 O 0.22471 0.26791 0.96509
 O945 O 0.25191 0.28883 0.98070
 O946 O 0.22371 0.28299 0.98217
 O947 O 0.26983 0.25038 0.96060
 O948 O 0.26800 0.22245 0.96660
 O949 O 0.28981 0.26894 0.99875
 O950 O 0.28446 0.26441 1.02615
 O951 O 0.23178 0.20880 1.00145
 O952 O 0.23298 0.21433 0.97452
 O953 O 0.20950 0.24842 1.01848
 O954 O 0.21579 0.27578 1.01591
 O955 O 0.24881 0.23109 1.04083
 O956 O 0.27608 0.23426 1.03486
 Zr957 Zr 0.25831 0.23142 1.01893
 O958 O 0.27290 0.24438 1.00526
 Zr959 Zr 0.23145 0.25778 1.01805
 O960 O 0.24523 0.27213 1.00492
 Zr961 Zr 0.23205 0.23072 0.99193
 O962 O 0.24530 0.24413 0.97733
 Zr963 Zr 0.26821 0.26737 1.00870
 O964 O 0.25445 0.25451 1.02351
 Zr965 Zr 0.26826 0.24059 0.98226
 O966 O 0.25501 0.22605 0.99589
 Zr967 Zr 0.24174 0.26722 0.98192
 O968 O 0.22679 0.25377 0.99503
 O969 O 0.23541 0.23488 1.01481
 O970 O 0.26468 0.26360 0.98567
 C971 C 0.23915 0.20270 1.01246
 C972 C 0.23819 0.23888 1.04701
 C973 C 0.20331 0.23756 1.01102
 C974 C 0.26282 0.29512 0.98803
 C975 C 0.29610 0.26143 0.98801
 C976 C 0.26241 0.26106 0.95412
 H977 H 0.28353 0.24202 1.00785
 H978 H 0.24285 0.24158 0.96671
 H979 H 0.22892 0.22849 1.02132
 H980 H 0.24294 0.28281 1.00735
 H981 H 0.26355 0.28059 1.03432
 H982 H 0.23795 0.28175 1.03337
 H983 H 0.25971 0.22430 0.95929
 H984 H 0.24290 0.20922 0.97547
 H985 H 0.29165 0.27301 1.02568
 H986 H 0.27510 0.22640 1.04282
 H987 H 0.22463 0.25795 0.95998
 H988 H 0.21080 0.24061 0.97461
 H989 H 0.27501 0.20999 1.00815
 H990 H 0.29075 0.22415 0.99154
 H991 H 0.20976 0.27377 1.00667
 H992 H 0.22578 0.29046 0.99025
 C993 C 0.29614 0.35536 0.79818
 N994 N 0.30460 0.34620 0.78922
 N995 N 0.31048 0.33344 0.79469
 C996 C 0.30820 0.32936 0.80936
 N997 N 0.29967 0.33855 0.81827
 N998 N 0.29373 0.35127 0.81279
 C999 C 0.29004 0.36967 0.79231
 N1000 N 0.28057 0.37819 0.80089
 N1001 N 0.27539 0.39139 0.79577
 C1002 C 0.27955 0.39659 0.78191
 N1003 N 0.28899 0.38804 0.77332
 N1004 N 0.29412 0.37481 0.77841
 C1005 C 0.27430 0.41141 0.77654
 N1006 N 0.28003 0.41756 0.76367
 N1007 N 0.27568 0.43125 0.75911
 C1008 C 0.26538 0.43927 0.76721
 N1009 N 0.25957 0.43308 0.78001
 N1010 N 0.26397 0.41941 0.78461
 C1011 C 0.29762 -0.14504 0.29592
 N1012 N 0.31223 -0.14910 0.29354
 N1013 N 0.31762 -0.16199 0.29920
 C1014 C 0.30862 -0.17138 0.30740
 N1015 N 0.29394 -0.16734 0.30963
 N1016 N 0.28856 -0.15441 0.30404
 C1017 C 0.29187 -0.13054 0.29017
 N1018 N 0.27804 -0.12537 0.29441
 N1019 N 0.27305 -0.11197 0.28959
 C1020 C 0.28169 -0.10331 0.28030
 N1021 N 0.29547 -0.10853 0.27598
 N1022 N 0.30048 -0.12188 0.28086
 C1023 C 0.27643 -0.08836 0.27528
 N1024 N 0.28446 -0.08038 0.26490
 N1025 N 0.27996 -0.06666 0.26061
 C1026 C 0.26730 -0.06036 0.26659
 N1027 N 0.25924 -0.06834 0.27696
 N1028 N 0.26371 -0.08211 0.28120
 C1029 C 0.79739 0.85506 0.79615
 N1030 N 0.81202 0.85106 0.79381
 N1031 N 0.81746 0.83821 0.79952
 C1032 C 0.80847 0.82880 0.80773
 N1033 N 0.79378 0.83279 0.80992
 N1034 N 0.78836 0.84568 0.80429
 C1035 C 0.79160 0.86951 0.79034
 N1036 N 0.77774 0.87464 0.79452
 N1037 N 0.77272 0.88800 0.78964
 C1038 C 0.78136 0.89667 0.78034
 N1039 N 0.79517 0.89148 0.77608
 N1040 N 0.80021 0.87817 0.78102
 C1041 C 0.77607 0.91158 0.77527
 N1042 N 0.78411 0.91958 0.76491
 N1043 N 0.77957 0.93329 0.76060
 C1044 C 0.76687 0.93954 0.76653
 N1045 N 0.75880 0.93154 0.77688
 N1046 N 0.76330 0.91779 0.78115
 C1047 C 0.45234 0.89506 0.29613
 N1048 N 0.46123 0.90425 0.30464
 N1049 N 0.45571 0.91700 0.31049
 C1050 C 0.44105 0.92102 0.30814
 N1051 N 0.43220 0.91180 0.29957
 N1052 N 0.43774 0.89910 0.29365
 C1053 C 0.45823 0.88075 0.29010
 N1054 N 0.44971 0.87221 0.28058
 N1055 N 0.45484 0.85898 0.27547
 C1056 C 0.46864 0.85378 0.27976
 N1057 N 0.47718 0.86234 0.28924
 N1058 N 0.47209 0.87560 0.29430
 C1059 C 0.47398 0.83892 0.27458
 N1060 N 0.48677 0.83273 0.28041
 N1061 N 0.49127 0.81899 0.27612
 C1062 C 0.48318 0.81098 0.26578
 N1063 N 0.47045 0.81724 0.25988
 N1064 N 0.46592 0.83094 0.26422
 C1065 C -0.04796 0.89541 0.79663
 N1066 N -0.06256 0.89946 0.79415
 N1067 N -0.06808 0.91219 0.80002
 C1068 C -0.05922 0.92144 0.80856
 N1069 N -0.04456 0.91740 0.81091
 N1070 N -0.03905 0.90462 0.80511
 C1071 C -0.04208 0.88109 0.79060
 N1072 N -0.02823 0.87593 0.79478
 N1073 N -0.02313 0.86267 0.78969
 C1074 C -0.03168 0.85415 0.78017
 N1075 N -0.04548 0.85937 0.77591
 N1076 N -0.05060 0.87258 0.78105
 C1077 C -0.02634 0.83932 0.77491
 N1078 N -0.03439 0.83141 0.76449
 N1079 N -0.02985 0.81774 0.76004
 C1080 C -0.01712 0.81145 0.76591
 N1081 N -0.00903 0.81938 0.77631
 N1082 N -0.01354 0.83308 0.78071
 C1083 C -0.04728 -0.14552 -0.04600
 N1084 N -0.03830 -0.15467 -0.05445
 N1085 N -0.04368 -0.16755 -0.06017
 C1086 C -0.05827 -0.17175 -0.05775
 N1087 N -0.06721 -0.16257 -0.04924
 N1088 N -0.06182 -0.14974 -0.04346
 C1089 C -0.04153 -0.13110 -0.04006
 N1090 N -0.05012 -0.12261 -0.03057
 N1091 N -0.04511 -0.10932 -0.02550
 C1092 C -0.03136 -0.10400 -0.02979
 N1093 N -0.02275 -0.11250 -0.03925
 N1094 N -0.02773 -0.12583 -0.04427
 C1095 C -0.02611 -0.08910 -0.02460
 N1096 N -0.01334 -0.08283 -0.03040
 N1097 N -0.00889 -0.06908 -0.02605
 C1098 C -0.01700 -0.06115 -0.01568
 N1099 N -0.02971 -0.06748 -0.00981
 N1100 N -0.03420 -0.08118 -0.01421
 C1101 C -0.04559 0.35234 0.45520
 N1102 N -0.03672 0.34325 0.44657
 N1103 N -0.04223 0.33047 0.44073
 C1104 C -0.05683 0.32633 0.44321
 N1105 N -0.06564 0.33545 0.45191
 N1106 N -0.06013 0.34818 0.45781
 C1107 C -0.03975 0.36670 0.46121
 N1108 N -0.04826 0.37514 0.47081
 N1109 N -0.04325 0.38844 0.47585
 C1110 C -0.02957 0.39383 0.47141
 N1111 N -0.02102 0.38537 0.46185
 N1112 N -0.02601 0.37203 0.45687
 C1113 C -0.02443 0.40882 0.47643
 N1114 N -0.01182 0.41522 0.47041
 N1115 N -0.00760 0.42913 0.47446
 C1116 C -0.01580 0.43711 0.48472
 N1117 N -0.02832 0.43065 0.49082
 N1118 N -0.03257 0.41677 0.48674
 C1119 C 0.45320 -0.14607 0.45425
 N1120 N 0.46204 -0.15525 0.44569
 N1121 N 0.45648 -0.16800 0.43985
 C1122 C 0.44183 -0.17203 0.44225
 N1123 N 0.43303 -0.16282 0.45086
 N1124 N 0.43861 -0.15012 0.45677
 C1125 C 0.45914 -0.13178 0.46030
 N1126 N 0.45067 -0.12325 0.46987
 N1127 N 0.45583 -0.11005 0.47500
 C1128 C 0.46962 -0.10485 0.47070
 N1129 N 0.47812 -0.11339 0.46117
 N1130 N 0.47299 -0.12664 0.45609
 C1131 C 0.47501 -0.09000 0.47588
 N1132 N 0.48779 -0.08382 0.46999
 N1133 N 0.49233 -0.07008 0.47425
 C1134 C 0.48430 -0.06205 0.48460
 N1135 N 0.47159 -0.06829 0.49057
 N1136 N 0.46702 -0.08199 0.48627
 C1137 C 0.45331 0.35315 -0.04584
 N1138 N 0.43868 0.34921 -0.04337
 N1139 N 0.43300 0.33663 -0.04941
 C1140 C 0.44173 0.32742 -0.05811
 N1141 N 0.45641 0.33134 -0.06046
 N1142 N 0.46208 0.34398 -0.05449
 C1143 C 0.45933 0.36736 -0.03966
 N1144 N 0.47317 0.37253 -0.04389
 N1145 N 0.47831 0.38575 -0.03874
 C1146 C 0.46984 0.39422 -0.02913
 N1147 N 0.45607 0.38898 -0.02481
 N1148 N 0.45089 0.37581 -0.03001
 C1149 C 0.47513 0.40910 -0.02396
 N1150 N 0.46702 0.41706 -0.01363
 N1151 N 0.47137 0.43087 -0.00944
 C1152 C 0.48397 0.43726 -0.01546
 N1153 N 0.49214 0.42928 -0.02574
 N1154 N 0.48782 0.41543 -0.02989
 C1155 C 0.79522 0.39843 0.45686
 N1156 N 0.78617 0.40758 0.44849
 N1157 N 0.79152 0.42042 0.44267
 C1158 C 0.80616 0.42458 0.44491
 N1159 N 0.81517 0.41540 0.45335
 N1160 N 0.80980 0.40261 0.45924
 C1161 C 0.78956 0.38398 0.46279
 N1162 N 0.79826 0.37548 0.47218
 N1163 N 0.79340 0.36208 0.47711
 C1164 C 0.77970 0.35666 0.47277
 N1165 N 0.77096 0.36519 0.46343
 N1166 N 0.77579 0.37862 0.45856
 C1167 C 0.77471 0.34157 0.47763
 N1168 N 0.76212 0.33516 0.47160
 N1169 N 0.75801 0.32118 0.47550
 C1170 C 0.76631 0.31314 0.48563
 N1171 N 0.77882 0.31961 0.49177
 N1172 N 0.78296 0.33356 0.48782
 C1173 C 0.79683 0.89649 -0.04542
 N1174 N 0.81147 0.90041 -0.04299
 N1175 N 0.81713 0.91302 -0.04901
 C1176 C 0.80837 0.92225 -0.05765
 N1177 N 0.79367 0.91835 -0.05995
 N1178 N 0.78802 0.90570 -0.05400
 C1179 C 0.79082 0.88227 -0.03926
 N1180 N 0.77696 0.87712 -0.04346
 N1181 N 0.77182 0.86390 -0.03832
 C1182 C 0.78033 0.85540 -0.02875
 N1183 N 0.79412 0.86062 -0.02447
 N1184 N 0.79929 0.87379 -0.02965
 C1185 C 0.77503 0.84051 -0.02359
 N1186 N 0.78317 0.83254 -0.01328
 N1187 N 0.77881 0.81874 -0.00909
 C1188 C 0.76619 0.81236 -0.01509
 N1189 N 0.75800 0.82036 -0.02535
 N1190 N 0.76232 0.83420 -0.02950
 C1191 C 0.79514 0.29602 0.35321
 N1192 N 0.80372 0.28706 0.34416
 N1193 N 0.80959 0.29246 0.33136
 C1194 C 0.80720 0.30707 0.32714
 N1195 N 0.79857 0.31598 0.33623
 N1196 N 0.79263 0.31057 0.34898
 C1197 C 0.78905 0.29029 0.36757
 N1198 N 0.77955 0.29894 0.37599
 N1199 N 0.77442 0.29401 0.38928
 C1200 C 0.77864 0.28027 0.39468
 N1201 N 0.78810 0.27158 0.38625
 N1202 N 0.79318 0.27648 0.37291
 C1203 C 0.77354 0.27520 0.40967
 N1204 N 0.77929 0.26246 0.41604
 N1205 N 0.77518 0.25829 0.42995
 C1206 C 0.76511 0.26669 0.43796
 N1207 N 0.75925 0.27935 0.43153
 N1208 N 0.76341 0.28354 0.41765
 C1209 C 0.79531 0.79706 -0.14659
 N1210 N 0.79282 0.81169 -0.15049
 N1211 N 0.79887 0.81742 -0.16305
 C1212 C 0.80759 0.80873 -0.17227
 N1213 N 0.80994 0.79403 -0.16839
 N1214 N 0.80397 0.78831 -0.15578
 C1215 C 0.78915 0.79099 -0.13240
 N1216 N 0.79342 0.77715 -0.12725
 N1217 N 0.78831 0.77196 -0.11404
 C1218 C 0.77867 0.78039 -0.10554
 N1219 N 0.77429 0.79416 -0.11077
 N1220 N 0.77946 0.79937 -0.12393
 C1221 C 0.77354 0.77505 -0.09066
 N1222 N 0.76315 0.78308 -0.08271
 N1223 N 0.75899 0.77869 -0.06890
 C1224 C 0.76511 0.76613 -0.06250
 N1225 N 0.77544 0.75804 -0.07049
 N1226 N 0.77955 0.76240 -0.08434
 C1227 C 0.29545 0.45293 0.89602
 N1228 N 0.30376 0.46182 0.90539
 N1229 N 0.30957 0.45622 0.91813
 C1230 C 0.30739 0.44147 0.92197
 N1231 N 0.29901 0.43263 0.91257
 N1232 N 0.29312 0.43825 0.89988
 C1233 C 0.28945 0.45892 0.88171
 N1234 N 0.27995 0.45044 0.87311
 N1235 N 0.27486 0.45565 0.85990
 C1236 C 0.27914 0.46948 0.85477
 N1237 N 0.28862 0.47798 0.86339
 N1238 N 0.29365 0.47281 0.87664
 C1239 C 0.27397 0.47489 0.83992
 N1240 N 0.27990 0.48762 0.83368
 N1241 N 0.27560 0.49215 0.81994
 C1242 C 0.26514 0.48416 0.81199
 N1243 N 0.25914 0.47150 0.81829
 N1244 N 0.26349 0.46693 0.83198
 C1245 C 0.29866 -0.04586 0.39531
 N1246 N 0.31333 -0.04376 0.39930
 N1247 N 0.31871 -0.04960 0.41211
 C1248 C 0.30963 -0.05772 0.42151
 N1249 N 0.29490 -0.05969 0.41753
 N1250 N 0.28953 -0.05392 0.40467
 C1251 C 0.29289 -0.03988 0.38090
 N1252 N 0.27889 -0.04372 0.37587
 N1253 N 0.27387 -0.03869 0.36256
 C1254 C 0.28264 -0.02957 0.35384
 N1255 N 0.29660 -0.02564 0.35893
 N1256 N 0.30165 -0.03074 0.37220
 C1257 C 0.27731 -0.02437 0.33897
 N1258 N 0.28553 -0.01425 0.33084
 N1259 N 0.28093 -0.00985 0.31716
 C1260 C 0.26797 -0.01546 0.31109
 N1261 N 0.25974 -0.02557 0.31923
 N1262 N 0.26431 -0.02991 0.33294
 C1263 C -0.04671 -0.04753 -0.14506
 N1264 N -0.04428 -0.06215 -0.14908
 N1265 N -0.05014 -0.06768 -0.16182
 C1266 C -0.05862 -0.05882 -0.17110
 N1267 N -0.06092 -0.04414 -0.16710
 N1268 N -0.05512 -0.03861 -0.15431
 C1269 C -0.04070 -0.04163 -0.13072
 N1270 N -0.04485 -0.02775 -0.12559
 N1271 N -0.03979 -0.02265 -0.11232
 C1272 C -0.03033 -0.03120 -0.10374
 N1273 N -0.02610 -0.04503 -0.10893
 N1274 N -0.03122 -0.05016 -0.12216
 C1275 C -0.02511 -0.02585 -0.08889
 N1276 N -0.01475 -0.03392 -0.08093
 N1277 N -0.01034 -0.02937 -0.06724
 C1278 C -0.01618 -0.01661 -0.06098
 N1279 N -0.02652 -0.00851 -0.06896
 N1280 N -0.03088 -0.01303 -0.08268
 C1281 C -0.04400 0.45367 0.35245
 N1282 N -0.04162 0.43904 0.34845
 N1283 N -0.04759 0.43348 0.33577
 C1284 C -0.05613 0.44233 0.32653
 N1285 N -0.05836 0.45703 0.33050
 N1286 N -0.05246 0.46258 0.34323
 C1287 C -0.03796 0.45956 0.36678
 N1288 N -0.04225 0.47336 0.37202
 N1289 N -0.03728 0.47839 0.38536
 C1290 C -0.02778 0.46984 0.39389
 N1291 N -0.02339 0.45611 0.38858
 N1292 N -0.02842 0.45105 0.37529
 C1293 C -0.02281 0.47502 0.40889
 N1294 N -0.01246 0.46695 0.41687
 N1295 N -0.00843 0.47123 0.43076
 C1296 C -0.01465 0.48370 0.43722
 N1297 N -0.02495 0.49183 0.42921
 N1298 N -0.02893 0.48759 0.41528
 C1299 C 0.45330 -0.04855 0.35495
 N1300 N 0.45566 -0.06314 0.35081
 N1301 N 0.44987 -0.06850 0.33796
 C1302 C 0.44155 -0.05948 0.32869
 N1303 N 0.43932 -0.04482 0.33281
 N1304 N 0.44505 -0.03947 0.34571
 C1305 C 0.45924 -0.04282 0.36938
 N1306 N 0.45512 -0.02897 0.37461
 N1307 N 0.46014 -0.02400 0.38794
 C1308 C 0.46952 -0.03267 0.39649
 N1309 N 0.47372 -0.04647 0.39121
 N1310 N 0.46864 -0.05147 0.37792
 C1311 C 0.47475 -0.02739 0.41137
 N1312 N 0.48518 -0.03544 0.41927
 N1313 N 0.48967 -0.03088 0.43292
 C1314 C 0.48384 -0.01813 0.43921
 N1315 N 0.47342 -0.01007 0.43131
 N1316 N 0.46898 -0.01459 0.41761
 C1317 C 0.45409 0.45269 -0.14685
 N1318 N 0.45659 0.43808 -0.15086
 N1319 N 0.45047 0.43242 -0.16343
 C1320 C 0.44166 0.44113 -0.17253
 N1321 N 0.43928 0.45581 -0.16854
 N1322 N 0.44534 0.46146 -0.15593
 C1323 C 0.46034 0.45871 -0.13266
 N1324 N 0.45610 0.47253 -0.12746
 N1325 N 0.46130 0.47769 -0.11426
 C1326 C 0.47099 0.46924 -0.10583
 N1327 N 0.47532 0.45549 -0.11111
 N1328 N 0.47007 0.45030 -0.12426
 C1329 C 0.47621 0.47457 -0.09097
 N1330 N 0.48663 0.46652 -0.08306
 N1331 N 0.49088 0.47092 -0.06927
 C1332 C 0.48483 0.48349 -0.06285
 N1333 N 0.47446 0.49160 -0.07080
 N1334 N 0.47026 0.48724 -0.08462
 C1335 C 0.45374 0.79733 0.39546
 N1336 N 0.45623 0.81191 0.39957
 N1337 N 0.45056 0.81733 0.41244
 C1338 C 0.44223 0.80837 0.42177
 N1339 N 0.43988 0.79372 0.41767
 N1340 N 0.44549 0.78832 0.40476
 C1341 C 0.45952 0.79155 0.38098
 N1342 N 0.45524 0.77773 0.37579
 N1343 N 0.46010 0.77272 0.36241
 C1344 C 0.46946 0.78132 0.35378
 N1345 N 0.47381 0.79509 0.35902
 N1346 N 0.46890 0.80013 0.37236
 C1347 C 0.47451 0.77602 0.33885
 N1348 N 0.48491 0.78403 0.33088
 N1349 N 0.48923 0.77948 0.31717
 C1350 C 0.48327 0.76678 0.31090
 N1351 N 0.47288 0.75874 0.31888
 N1352 N 0.46860 0.76327 0.33263
 C1353 C -0.04587 0.79741 0.89573
 N1354 N -0.05404 0.78836 0.90508
 N1355 N -0.05975 0.79379 0.91794
 C1356 C -0.05760 0.80849 0.92193
 N1357 N -0.04936 0.81749 0.91256
 N1358 N -0.04358 0.81205 0.89975
 C1359 C -0.03998 0.79161 0.88131
 N1360 N -0.03069 0.80026 0.87266
 N1361 N -0.02569 0.79521 0.85936
 C1362 C -0.02986 0.78136 0.85418
 N1363 N -0.03913 0.77268 0.86284
 N1364 N -0.04406 0.77770 0.87619
 C1365 C -0.02478 0.77608 0.83926
 N1366 N -0.03056 0.76324 0.83307
 N1367 N -0.02632 0.75878 0.81930
 C1368 C -0.01609 0.76694 0.81124
 N1369 N -0.01024 0.77971 0.81748
 N1370 N -0.01453 0.78421 0.83122
 C1371 C 0.35449 0.79646 0.29697
 N1372 N 0.34541 0.80502 0.28801
 N1373 N 0.33256 0.81077 0.29340
 C1374 C 0.32832 0.80826 0.30798
 N1375 N 0.33743 0.79965 0.31689
 N1376 N 0.35024 0.79384 0.31149
 C1377 C 0.36887 0.79046 0.29121
 N1378 N 0.37728 0.78088 0.29979
 N1379 N 0.39053 0.77574 0.29479
 C1380 C 0.39590 0.78004 0.28104
 N1381 N 0.38747 0.78959 0.27244
 N1382 N 0.37418 0.79468 0.27742
 C1383 C 0.41076 0.77477 0.27580
 N1384 N 0.41707 0.78054 0.26303
 N1385 N 0.43078 0.77613 0.25860
 C1386 C 0.43866 0.76574 0.26674
 N1387 N 0.43230 0.75990 0.27945
 N1388 N 0.41861 0.76436 0.28392
 C1389 C -0.14553 0.79691 0.79728
 N1390 N -0.14975 0.79425 0.81181
 N1391 N -0.16260 0.79997 0.81722
 C1392 C -0.17178 0.80851 0.80831
 N1393 N -0.16757 0.81103 0.79372
 N1394 N -0.15468 0.80538 0.78832
 C1395 C -0.13109 0.79105 0.79152
 N1396 N -0.12581 0.79539 0.77776
 N1397 N -0.11247 0.79046 0.77277
 C1398 C -0.10396 0.78094 0.78133
 N1399 N -0.10930 0.77653 0.79505
 N1400 N -0.12260 0.78152 0.80007
 C1401 C -0.08907 0.77581 0.77607
 N1402 N -0.08118 0.76535 0.78408
 N1403 N -0.06750 0.76096 0.77955
 C1404 C -0.06116 0.76693 0.76689
 N1405 N -0.06906 0.77739 0.75886
 N1406 N -0.08279 0.78172 0.76335
 C1407 C 0.89752 0.29397 0.45392
 N1408 N 0.90146 0.29164 0.43925
 N1409 N 0.91416 0.29753 0.43370
 C1410 C 0.92349 0.30594 0.44259
 N1411 N 0.91958 0.30812 0.45732
 N1412 N 0.90683 0.30230 0.46286
 C1413 C 0.88317 0.28803 0.45981
 N1414 N 0.87805 0.29221 0.47368
 N1415 N 0.86470 0.28733 0.47872
 C1416 C 0.85604 0.27801 0.47010
 N1417 N 0.86122 0.27372 0.45628
 N1418 N 0.87452 0.27866 0.45122
 C1419 C 0.84104 0.27313 0.47531
 N1420 N 0.83289 0.26299 0.46713
 N1421 N 0.81901 0.25904 0.47146
 C1422 C 0.81273 0.26513 0.48409
 N1423 N 0.82090 0.27522 0.49232
 N1424 N 0.83482 0.27912 0.48802
 C1425 C 0.89660 0.79530 -0.04654
 N1426 N 0.90059 0.79277 -0.06115
 N1427 N 0.91316 0.79883 -0.06682
 C1428 C 0.92232 0.80759 -0.05809
 N1429 N 0.91836 0.80998 -0.04341
 N1430 N 0.90573 0.80400 -0.03775
 C1431 C 0.88239 0.78913 -0.04053
 N1432 N 0.87717 0.79346 -0.02673
 N1433 N 0.86395 0.78834 -0.02160
 C1434 C 0.85552 0.77863 -0.03003
 N1435 N 0.86082 0.77420 -0.04376
 N1436 N 0.87399 0.77938 -0.04892
 C1437 C 0.84063 0.77350 -0.02474
 N1438 N 0.83275 0.76301 -0.03274
 N1439 N 0.81894 0.75885 -0.02840
 C1440 C 0.81246 0.76506 -0.01592
 N1441 N 0.82038 0.77549 -0.00786
 N1442 N 0.83423 0.77960 -0.01217
 C1443 C -0.14541 -0.04608 -0.04733
 N1444 N -0.15476 -0.05428 -0.03832
 N1445 N -0.16764 -0.05992 -0.04376
 C1446 C -0.17165 -0.05767 -0.05846
 N1447 N -0.16229 -0.04938 -0.06742
 N1448 N -0.14945 -0.04367 -0.06196
 C1449 C -0.13097 -0.04026 -0.04150
 N1450 N -0.12234 -0.03090 -0.05008
 N1451 N -0.10903 -0.02595 -0.04501
 C1452 C -0.10383 -0.03027 -0.03120
 N1453 N -0.11247 -0.03962 -0.02260
 N1454 N -0.12582 -0.04450 -0.02765
 C1455 C -0.08892 -0.02520 -0.02588
 N1456 N -0.08271 -0.03110 -0.01311
 N1457 N -0.06897 -0.02682 -0.00858
 C1458 C -0.06099 -0.01643 -0.01662
 N1459 N -0.06726 -0.01046 -0.02932
 N1460 N -0.08095 -0.01479 -0.03389
 C1461 C -0.14786 0.45662 0.45491
 N1462 N -0.15710 0.44841 0.46403
 N1463 N -0.17002 0.44273 0.45871
 C1464 C -0.17417 0.44494 0.44404
 N1465 N -0.16491 0.45323 0.43499
 N1466 N -0.15204 0.45899 0.44032
 C1467 C -0.13333 0.46238 0.46054
 N1468 N -0.12472 0.47160 0.45178
 N1469 N -0.11127 0.47639 0.45661
 C1470 C -0.10589 0.47206 0.47035
 N1471 N -0.11452 0.46288 0.47914
 N1472 N -0.12801 0.45815 0.47434
 C1473 C -0.09076 0.47682 0.47531
 N1474 N -0.08440 0.47087 0.48798
 N1475 N -0.07041 0.47472 0.49208
 C1476 C -0.06229 0.48472 0.48368
 N1477 N -0.06871 0.49076 0.47109
 N1478 N -0.08267 0.48685 0.46696
 C1479 C 0.35538 -0.04732 0.45381
 N1480 N 0.35115 -0.06185 0.45643
 N1481 N 0.33835 -0.06728 0.45059
 C1482 C 0.32923 -0.05839 0.44196
 N1483 N 0.33345 -0.04380 0.43948
 N1484 N 0.34628 -0.03838 0.44526
 C1485 C 0.36978 -0.04153 0.45976
 N1486 N 0.37506 -0.02775 0.45544
 N1487 N 0.38838 -0.02274 0.46041
 C1488 C 0.39688 -0.03128 0.46995
 N1489 N 0.39155 -0.04500 0.47436
 N1490 N 0.37827 -0.05005 0.46932
 C1491 C 0.41179 -0.02599 0.47506
 N1492 N 0.41972 -0.03398 0.48552
 N1493 N 0.43345 -0.02946 0.48982
 C1494 C 0.43977 -0.01683 0.48379
 N1495 N 0.43182 -0.00881 0.47335
 N1496 N 0.41806 -0.01329 0.46910
 C1497 C 0.35344 0.45431 -0.04669
 N1498 N 0.34436 0.44556 -0.03792
 N1499 N 0.33170 0.43961 -0.04356
 C1500 C 0.32765 0.44210 -0.05821
 N1501 N 0.33677 0.45091 -0.06692
 N1502 N 0.34938 0.45692 -0.06127
 C1503 C 0.36767 0.46046 -0.04070
 N1504 N 0.37602 0.47026 -0.04909
 N1505 N 0.38921 0.47543 -0.04394
 C1506 C 0.39458 0.47096 -0.03025
 N1507 N 0.38620 0.46121 -0.02183
 N1508 N 0.37297 0.45608 -0.02695
 C1509 C 0.40948 0.47610 -0.02499
 N1510 N 0.41593 0.46998 -0.01244
 N1511 N 0.42979 0.47411 -0.00815
 C1512 C 0.43766 0.48457 -0.01621
 N1513 N 0.43114 0.49079 -0.02865
 N1514 N 0.41732 0.48662 -0.03298
 C1515 C 0.39448 0.45302 0.79743
 N1516 N 0.40360 0.44464 0.78835
 N1517 N 0.41655 0.43900 0.79362
 C1518 C 0.42086 0.44142 0.80820
 N1519 N 0.41172 0.44986 0.81723
 N1520 N 0.39881 0.45558 0.81195
 C1521 C 0.37999 0.45888 0.79180
 N1522 N 0.37157 0.46840 0.80042
 N1523 N 0.35824 0.47341 0.79550
 C1524 C 0.35279 0.46903 0.78181
 N1525 N 0.36122 0.45953 0.77317
 N1526 N 0.37460 0.45457 0.77806
 C1527 C 0.33788 0.47421 0.77662
 N1528 N 0.33148 0.46828 0.76396
 N1529 N 0.31776 0.47269 0.75952
 C1530 C 0.30998 0.48325 0.76753
 N1531 N 0.31644 0.48923 0.78014
 N1532 N 0.33011 0.48477 0.78462
 C1533 C 0.39554 -0.04639 0.29739
 N1534 N 0.40469 -0.05494 0.28851
 N1535 N 0.41738 -0.06088 0.29408
 C1536 C 0.42139 -0.05858 0.30877
 N1537 N 0.41221 -0.04996 0.31760
 N1538 N 0.39957 -0.04396 0.31202
 C1539 C 0.38131 -0.04021 0.29145
 N1540 N 0.37293 -0.03052 0.29993
 N1541 N 0.35978 -0.02526 0.29477
 C1542 C 0.35449 -0.02955 0.28099
 N1543 N 0.36289 -0.03920 0.27249
 N1544 N 0.37609 -0.04441 0.27761
 C1545 C 0.33970 -0.02420 0.27564
 N1546 N 0.33333 -0.03009 0.26295
 N1547 N 0.31963 -0.02566 0.25847
 C1548 C 0.31184 -0.01511 0.26649
 N1549 N 0.31828 -0.00914 0.27911
 N1550 N 0.33194 -0.01363 0.28362
 C1551 C 0.10203 0.54635 0.70554
 N1552 N 0.09296 0.53734 0.69701
 N1553 N 0.08019 0.54273 0.69108
 C1554 C 0.07601 0.55736 0.69337
 N1555 N 0.08511 0.56632 0.70196
 N1556 N 0.09784 0.56092 0.70795
 C1557 C 0.11638 0.54063 0.71165
 N1558 N 0.12484 0.54932 0.72109
 N1559 N 0.13813 0.54440 0.72621
 C1560 C 0.14349 0.53063 0.72202
 N1561 N 0.13501 0.52190 0.71263
 N1562 N 0.12168 0.52680 0.70756
 C1563 C 0.15848 0.52555 0.72710
 N1564 N 0.16478 0.51280 0.72130
 N1565 N 0.17868 0.50860 0.72537
 C1566 C 0.18674 0.51696 0.73544
 N1567 N 0.18038 0.52964 0.74134
 N1568 N 0.16651 0.53387 0.73722
 C1569 C 0.10263 0.04548 0.20651
 N1570 N 0.09842 0.06006 0.20883
 N1571 N 0.08560 0.06536 0.20297
 C1572 C 0.07640 0.05629 0.19460
 N1573 N 0.08058 0.04164 0.19242
 N1574 N 0.09346 0.03635 0.19822
 C1575 C 0.11710 0.03987 0.21246
 N1576 N 0.12240 0.02603 0.20841
 N1577 N 0.13583 0.02124 0.21332
 C1578 C 0.14440 0.03008 0.22252
 N1579 N 0.13904 0.04387 0.22666
 N1580 N 0.12565 0.04868 0.22170
 C1581 C 0.15948 0.02513 0.22744
 N1582 N 0.16759 0.03357 0.23739
 N1583 N 0.18153 0.02945 0.24138
 C1584 C 0.18790 0.01676 0.23552
 N1585 N 0.17976 0.00826 0.22562
 N1586 N 0.16579 0.01235 0.22168
 C1587 C 0.64631 0.70280 0.20456
 N1588 N 0.65549 0.71161 0.19595
 N1589 N 0.66812 0.70596 0.18998
 C1590 C 0.67204 0.69127 0.19230
 N1591 N 0.66284 0.68251 0.20097
 N1592 N 0.65025 0.68817 0.20701
 C1593 C 0.63211 0.70880 0.21073
 N1594 N 0.62364 0.70033 0.22035
 N1595 N 0.61047 0.70549 0.22553
 C1596 C 0.60525 0.71928 0.22124
 N1597 N 0.61374 0.72779 0.21166
 N1598 N 0.62695 0.72266 0.20653
 C1599 C 0.59037 0.72457 0.22639
 N1600 N 0.58407 0.73728 0.22048
 N1601 N 0.57023 0.74161 0.22461
 C1602 C 0.56222 0.73341 0.23485
 N1603 N 0.56859 0.72079 0.24086
 N1604 N 0.58239 0.71643 0.23669
 C1605 C 0.14683 0.70420 0.70490
 N1606 N 0.15100 0.68964 0.70743
 N1607 N 0.16369 0.68415 0.70146
 C1608 C 0.17277 0.69301 0.69276
 N1609 N 0.16863 0.70763 0.69036
 N1610 N 0.15589 0.71310 0.69627
 C1611 C 0.13250 0.71002 0.71097
 N1612 N 0.12720 0.72380 0.70671
 N1613 N 0.11390 0.72878 0.71175
 C1614 C 0.10545 0.72020 0.72129
 N1615 N 0.11081 0.70648 0.72565
 N1616 N 0.12407 0.70147 0.72055
 C1617 C 0.09049 0.72536 0.72635
 N1618 N 0.08253 0.71719 0.73665
 N1619 N 0.06869 0.72147 0.74078
 C1620 C 0.06226 0.73405 0.73472
 N1621 N 0.07025 0.74226 0.72448
 N1622 N 0.08413 0.73801 0.72040
 C1623 C 0.60409 0.20467 0.54651
 N1624 N 0.59493 0.19650 0.53726
 N1625 N 0.58192 0.19086 0.54239
 C1626 C 0.57760 0.19308 0.55699
 N1627 N 0.58678 0.20132 0.56619
 N1628 N 0.59975 0.20703 0.56105
 C1629 C 0.61864 0.21051 0.54102
 N1630 N 0.62719 0.21971 0.54989
 N1631 N 0.64059 0.22468 0.54511
 C1632 C 0.64597 0.22058 0.53131
 N1633 N 0.63741 0.21141 0.52242
 N1634 N 0.62397 0.20649 0.52718
 C1635 C 0.66096 0.22567 0.52627
 N1636 N 0.66720 0.22003 0.51340
 N1637 N 0.68099 0.22431 0.50907
 C1638 C 0.68902 0.23442 0.51741
 N1639 N 0.68274 0.24012 0.53023
 N1640 N 0.66898 0.23580 0.53459
 C1641 C 0.60428 0.70258 0.04551
 N1642 N 0.60029 0.68794 0.04317
 N1643 N 0.58747 0.68248 0.04892
 C1644 C 0.57810 0.69144 0.05718
 N1645 N 0.58208 0.70614 0.05937
 N1646 N 0.59493 0.71160 0.05370
 C1647 C 0.61870 0.70841 0.03966
 N1648 N 0.62381 0.72230 0.04380
 N1649 N 0.63715 0.72734 0.03891
 C1650 C 0.64583 0.71870 0.02964
 N1651 N 0.64067 0.70485 0.02542
 N1652 N 0.62737 0.69979 0.03037
 C1653 C 0.66075 0.72399 0.02460
 N1654 N 0.66881 0.71587 0.01435
 N1655 N 0.68253 0.72039 0.01009
 C1656 C 0.68875 0.73316 0.01597
 N1657 N 0.68068 0.74131 0.02620
 N1658 N 0.66691 0.73682 0.03041
 C1659 C 0.14822 0.04476 0.04335
 N1660 N 0.15738 0.03572 0.05173
 N1661 N 0.17024 0.04108 0.05749
 C1662 C 0.17441 0.05571 0.05520
 N1663 N 0.16524 0.06469 0.04672
 N1664 N 0.15242 0.05932 0.04089
 C1665 C 0.13373 0.03909 0.03751
 N1666 N 0.12519 0.04778 0.02815
 N1667 N 0.11176 0.04292 0.02332
 C1668 C 0.10634 0.02924 0.02773
 N1669 N 0.11491 0.02052 0.03704
 N1670 N 0.12838 0.02535 0.04182
 C1671 C 0.09122 0.02426 0.02295
 N1672 N 0.08483 0.01167 0.02901
 N1673 N 0.07083 0.00757 0.02517
 C1674 C 0.06275 0.01589 0.01507
 N1675 N 0.06921 0.02841 0.00893
 N1676 N 0.08317 0.03253 0.01282
 C1677 C 0.14562 0.54757 0.54577
 N1678 N 0.14963 0.56221 0.54346
 N1679 N 0.16242 0.56767 0.54928
 C1680 C 0.17176 0.55869 0.55758
 N1681 N 0.16778 0.54399 0.55973
 N1682 N 0.15494 0.53854 0.55398
 C1683 C 0.13122 0.54174 0.53985
 N1684 N 0.12611 0.52784 0.54396
 N1685 N 0.11278 0.52280 0.53901
 C1686 C 0.10413 0.53144 0.52970
 N1687 N 0.10930 0.54529 0.52550
 N1688 N 0.12258 0.55036 0.53052
 C1689 C 0.08924 0.52613 0.52457
 N1690 N 0.08123 0.53422 0.51426
 N1691 N 0.06753 0.52968 0.50991
 C1692 C 0.06130 0.51691 0.51577
 N1693 N 0.06933 0.50879 0.52606
 N1694 N 0.08307 0.51330 0.53036
 C1695 C 0.64829 0.04589 0.54361
 N1696 N 0.65756 0.03703 0.55206
 N1697 N 0.67022 0.04266 0.55802
 C1698 C 0.67407 0.05740 0.55585
 N1699 N 0.66478 0.06621 0.54732
 N1700 N 0.65217 0.06056 0.54130
 C1701 C 0.63403 0.03991 0.53754
 N1702 N 0.62546 0.04843 0.52804
 N1703 N 0.61221 0.04331 0.52299
 C1704 C 0.60701 0.02951 0.52731
 N1705 N 0.61560 0.02096 0.53675
 N1706 N 0.62889 0.02605 0.54175
 C1707 C 0.59204 0.02427 0.52235
 N1708 N 0.58575 0.01162 0.52839
 N1709 N 0.57184 0.00734 0.52445
 C1710 C 0.56374 0.01553 0.51426
 N1711 N 0.57010 0.02809 0.50811
 N1712 N 0.58397 0.03240 0.51211
 C1713 C 0.64526 0.54759 0.04648
 N1714 N 0.65449 0.53868 0.05493
 N1715 N 0.66724 0.54423 0.06078
 C1716 C 0.67123 0.55891 0.05849
 N1717 N 0.66197 0.56777 0.04998
 N1718 N 0.64926 0.56222 0.04406
 C1719 C 0.63097 0.54166 0.04040
 N1720 N 0.62242 0.55020 0.03091
 N1721 N 0.60923 0.54504 0.02573
 C1722 C 0.60407 0.53119 0.02993
 N1723 N 0.61263 0.52263 0.03940
 N1724 N 0.62586 0.52776 0.04451
 C1725 C 0.58926 0.52580 0.02467
 N1726 N 0.58309 0.51294 0.03041
 N1727 N 0.56939 0.50840 0.02604
 C1728 C 0.56139 0.51650 0.01571
 N1729 N 0.56761 0.52929 0.00989
 N1730 N 0.58128 0.53387 0.01431
 C1731 C 0.04555 0.04339 0.14815
 N1732 N 0.06011 0.04090 0.15233
 N1733 N 0.06555 0.04678 0.16510
 C1734 C 0.05664 0.05534 0.17427
 N1735 N 0.04201 0.05767 0.17013
 N1736 N 0.03658 0.05186 0.15730
 C1737 C 0.03979 0.03750 0.13370
 N1738 N 0.02606 0.04187 0.12836
 N1739 N 0.02115 0.03703 0.11494
 C1740 C 0.02976 0.02760 0.10640
 N1741 N 0.04343 0.02313 0.11180
 N1742 N 0.04837 0.02802 0.12519
 C1743 C 0.02468 0.02276 0.09132
 N1744 N 0.03280 0.01247 0.08331
 N1745 N 0.02859 0.00854 0.06937
 C1746 C 0.01614 0.01479 0.06289
 N1747 N 0.00797 0.02503 0.07093
 N1748 N 0.01215 0.02892 0.08490
 C1749 C 0.04588 0.54511 0.64631
 N1750 N 0.03675 0.55336 0.65548
 N1751 N 0.04198 0.55902 0.66845
 C1752 C 0.05658 0.55673 0.67273
 N1753 N 0.06566 0.54839 0.66354
 N1754 N 0.06042 0.54267 0.65061
 C1755 C 0.04030 0.53930 0.63176
 N1756 N 0.04905 0.53001 0.62320
 N1757 N 0.04421 0.52510 0.60979
 C1758 C 0.03047 0.52935 0.60440
 N1759 N 0.02169 0.53860 0.61297
 N1760 N 0.02651 0.54346 0.62642
 C1761 C 0.02539 0.52434 0.58937
 N1762 N 0.01263 0.53012 0.58306
 N1763 N 0.00832 0.52592 0.56922
 C1764 C 0.01659 0.51574 0.56121
 N1765 N 0.02929 0.50989 0.56757
 N1766 N 0.03363 0.51414 0.58138
 C1767 C 0.54592 0.04378 0.64786
 N1768 N 0.53671 0.05197 0.65702
 N1769 N 0.54190 0.05771 0.66997
 C1770 C 0.55653 0.05557 0.67424
 N1771 N 0.56568 0.04729 0.66506
 N1772 N 0.56047 0.04148 0.65215
 C1773 C 0.54041 0.03792 0.63330
 N1774 N 0.54923 0.02867 0.62479
 N1775 N 0.54449 0.02378 0.61133
 C1776 C 0.53079 0.02802 0.60585
 N1777 N 0.52193 0.03723 0.61438
 N1778 N 0.52664 0.04207 0.62788
 C1779 C 0.52589 0.02314 0.59073
 N1780 N 0.51326 0.02907 0.58429
 N1781 N 0.50918 0.02509 0.57031
 C1782 C 0.51754 0.01500 0.56230
 N1783 N 0.53010 0.00899 0.56880
 N1784 N 0.53421 0.01301 0.58274
 C1785 C 0.54787 0.54598 0.14522
 N1786 N 0.56250 0.54368 0.14925
 N1787 N 0.56791 0.54940 0.16212
 C1788 C 0.55890 0.55759 0.17151
 N1789 N 0.54420 0.55974 0.16750
 N1790 N 0.53880 0.55409 0.15459
 C1791 C 0.54208 0.54015 0.13076
 N1792 N 0.52821 0.54429 0.12562
 N1793 N 0.52319 0.53939 0.11226
 C1794 C 0.53184 0.53012 0.10358
 N1795 N 0.54567 0.52591 0.10877
 N1796 N 0.55072 0.53087 0.12209
 C1797 C 0.52653 0.52504 0.08867
 N1798 N 0.53457 0.51469 0.08066
 N1799 N 0.53000 0.51034 0.06696
 C1800 C 0.51726 0.51623 0.06072
 N1801 N 0.50919 0.52657 0.06873
 N1802 N 0.51372 0.53086 0.08248
 C1803 C 0.20300 0.54553 0.60360
 N1804 N 0.21185 0.55417 0.59450
 N1805 N 0.20627 0.56017 0.58183
 C1806 C 0.19160 0.55785 0.57781
 N1807 N 0.18280 0.54916 0.58695
 N1808 N 0.18839 0.54309 0.59957
 C1809 C 0.20893 0.53932 0.61784
 N1810 N 0.20042 0.52969 0.62625
 N1811 N 0.20552 0.52447 0.63945
 C1812 C 0.21929 0.52875 0.64476
 N1813 N 0.22783 0.53834 0.63632
 N1814 N 0.22276 0.54350 0.62308
 C1815 C 0.22451 0.52360 0.65969
 N1816 N 0.23717 0.52955 0.66605
 N1817 N 0.24144 0.52545 0.67993
 C1818 C 0.23324 0.51520 0.68792
 N1819 N 0.22066 0.50914 0.68149
 N1820 N 0.21637 0.51329 0.66764
 C1821 C 0.20490 0.04306 0.10189
 N1822 N 0.21399 0.05134 0.09268
 N1823 N 0.20865 0.05711 0.07980
 C1824 C 0.19400 0.05491 0.07566
 N1825 N 0.18497 0.04655 0.08489
 N1826 N 0.19032 0.04071 0.09772
 C1827 C 0.21056 0.03722 0.11638
 N1828 N 0.20181 0.02800 0.12502
 N1829 N 0.20667 0.02318 0.13845
 C1830 C 0.22043 0.02745 0.14379
 N1831 N 0.22921 0.03661 0.13513
 N1832 N 0.22438 0.04138 0.12165
 C1833 C 0.22543 0.02272 0.15892
 N1834 N 0.23814 0.02868 0.16518
 N1835 N 0.24229 0.02491 0.17919
 C1836 C 0.23393 0.01498 0.18741
 N1837 N 0.22130 0.00892 0.18110
 N1838 N 0.21711 0.01274 0.16712
 C1839 C 0.70352 0.20565 0.64672
 N1840 N 0.71256 0.19740 0.65600
 N1841 N 0.70719 0.19173 0.66890
 C1842 C 0.69254 0.19399 0.67299
 N1843 N 0.68355 0.20232 0.66369
 N1844 N 0.68894 0.20807 0.65084
 C1845 C 0.70925 0.21147 0.63224
 N1846 N 0.70063 0.22085 0.62366
 N1847 N 0.70561 0.22578 0.61030
 C1848 C 0.71935 0.22143 0.60500
 N1849 N 0.72799 0.21208 0.61359
 N1850 N 0.72305 0.20722 0.62699
 C1851 C 0.72454 0.22645 0.59002
 N1852 N 0.73721 0.22050 0.58370
 N1853 N 0.74160 0.22469 0.56989
 C1854 C 0.73350 0.23505 0.56192
 N1855 N 0.72089 0.24107 0.56829
 N1856 N 0.71647 0.23682 0.58206
 C1857 C 0.70258 0.70329 0.14548
 N1858 N 0.71152 0.69481 0.15465
 N1859 N 0.70611 0.68913 0.16753
 C1860 C 0.69152 0.69162 0.17171
 N1861 N 0.68263 0.70016 0.16252
 N1862 N 0.68806 0.70592 0.14968
 C1863 C 0.70837 0.70917 0.13105
 N1864 N 0.69984 0.71870 0.12254
 N1865 N 0.70487 0.72370 0.10923
 C1866 C 0.71859 0.71930 0.10392
 N1867 N 0.72714 0.70979 0.11244
 N1868 N 0.72213 0.70484 0.12578
 C1869 C 0.72387 0.72444 0.08902
 N1870 N 0.73659 0.71854 0.08274
 N1871 N 0.74109 0.72287 0.06901
 C1872 C 0.73307 0.73332 0.06109
 N1873 N 0.72041 0.73928 0.06741
 N1874 N 0.71587 0.73490 0.08110
 C1875 C 0.54662 0.70446 0.10307
 N1876 N 0.56123 0.70695 0.09912
 N1877 N 0.56689 0.70095 0.08650
 C1878 C 0.55815 0.69226 0.07728
 N1879 N 0.54347 0.68990 0.08122
 N1880 N 0.53782 0.69584 0.09388
 C1881 C 0.54062 0.71057 0.11732
 N1882 N 0.52680 0.70629 0.12249
 N1883 N 0.52168 0.71136 0.13574
 C1884 C 0.53015 0.72096 0.14425
 N1885 N 0.54390 0.72534 0.13901
 N1886 N 0.54906 0.72021 0.12580
 C1887 C 0.52486 0.72606 0.15916
 N1888 N 0.53293 0.73642 0.16714
 N1889 N 0.52858 0.74057 0.18096
 C1890 C 0.51601 0.73447 0.18735
 N1891 N 0.50789 0.72416 0.17935
 N1892 N 0.51221 0.72006 0.16549
 C1893 C 0.04622 0.70478 0.60322
 N1894 N 0.06081 0.70735 0.59922
 N1895 N 0.06650 0.70127 0.58666
 C1896 C 0.05782 0.69242 0.57754
 N1897 N 0.04316 0.68998 0.58152
 N1898 N 0.03748 0.69599 0.59413
 C1899 C 0.04020 0.71100 0.61741
 N1900 N 0.02643 0.70664 0.62267
 N1901 N 0.02129 0.71180 0.63588
 C1902 C 0.02970 0.72156 0.64427
 N1903 N 0.04340 0.72602 0.63894
 N1904 N 0.04856 0.72080 0.62577
 C1905 C 0.02442 0.72672 0.65916
 N1906 N 0.03242 0.73722 0.66703
 N1907 N 0.02810 0.74139 0.68086
 C1908 C 0.01565 0.73518 0.68736
 N1909 N 0.00759 0.72474 0.67946
 N1910 N 0.01188 0.72062 0.66559
 C1911 C 0.54556 0.60324 0.20319
 N1912 N 0.55425 0.59412 0.21196
 N1913 N 0.56029 0.58152 0.20627
 C1914 C 0.55795 0.57760 0.19156
 N1915 N 0.54920 0.58677 0.18284
 N1916 N 0.54309 0.59931 0.18854
 C1917 C 0.53930 0.61740 0.20924
 N1918 N 0.52954 0.62578 0.20084
 N1919 N 0.52428 0.63891 0.20604
 C1920 C 0.52865 0.64419 0.21980
 N1921 N 0.53837 0.63579 0.22823
 N1922 N 0.54357 0.62261 0.22306
 C1923 C 0.52344 0.65905 0.22512
 N1924 N 0.52949 0.66545 0.23772
 N1925 N 0.52533 0.67929 0.24205
 C1926 C 0.51490 0.68718 0.23397
 N1927 N 0.50874 0.68070 0.22147
 N1928 N 0.51295 0.66690 0.21711
 C1929 C 0.04348 0.60285 0.70390
 N1930 N 0.05179 0.59357 0.71289
 N1931 N 0.05765 0.58082 0.70739
 C1932 C 0.05552 0.57688 0.69266
 N1933 N 0.04712 0.58617 0.68372
 N1934 N 0.04119 0.59887 0.68924
 C1935 C 0.03752 0.61722 0.70974
 N1936 N 0.02818 0.62583 0.70111
 N1937 N 0.02324 0.63915 0.70613
 C1938 C 0.02751 0.64439 0.71993
 N1939 N 0.03681 0.63575 0.72860
 N1940 N 0.04169 0.62239 0.72361
 C1941 C 0.02262 0.65941 0.72508
 N1942 N 0.02857 0.66570 0.73779
 N1943 N 0.02464 0.67963 0.74202
 C1944 C 0.01456 0.68775 0.73372
 N1945 N 0.00852 0.68140 0.72109
 N1946 N 0.01250 0.66750 0.71683
 C1947 C 0.04401 0.14778 0.04540
 N1948 N 0.04162 0.15196 0.05999
 N1949 N 0.04743 0.16480 0.06534
 C1950 C 0.05581 0.17402 0.05631
 N1951 N 0.05805 0.16986 0.04166
 N1952 N 0.05231 0.15697 0.03632
 C1953 C 0.03813 0.13329 0.03974
 N1954 N 0.04231 0.12797 0.02594
 N1955 N 0.03745 0.11453 0.02110
 C1956 C 0.02819 0.10596 0.02987
 N1957 N 0.02392 0.11134 0.04361
 N1958 N 0.02883 0.12474 0.04847
 C1959 C 0.02330 0.09088 0.02487
 N1960 N 0.01322 0.08283 0.03321
 N1961 N 0.00922 0.06891 0.02905
 C1962 C 0.01518 0.06249 0.01643
 N1963 N 0.02521 0.07056 0.00804
 N1964 N 0.02918 0.08452 0.01217
 C1965 C 0.04599 0.64544 0.54710
 N1966 N 0.05441 0.65463 0.53813
 N1967 N 0.06004 0.66754 0.54353
 C1968 C 0.05754 0.67175 0.55813
 N1969 N 0.04904 0.66253 0.56704
 N1970 N 0.04335 0.64966 0.56163
 C1971 C 0.04020 0.63097 0.54134
 N1972 N 0.03073 0.62242 0.54989
 N1973 N 0.02582 0.60907 0.54488
 C1974 C 0.03027 0.60375 0.53116
 N1975 N 0.03972 0.61231 0.52259
 N1976 N 0.04457 0.62569 0.52758
 C1977 C 0.02524 0.58881 0.52590
 N1978 N 0.03119 0.58254 0.51320
 N1979 N 0.02695 0.56878 0.50871
 C1980 C 0.01654 0.56082 0.51674
 N1981 N 0.01052 0.56713 0.52939
 N1982 N 0.01481 0.58086 0.53390
 C1983 C 0.54638 0.14701 0.54375
 N1984 N 0.53741 0.15626 0.55210
 N1985 N 0.54291 0.16902 0.55797
 C1986 C 0.55761 0.17301 0.55581
 N1987 N 0.56652 0.16374 0.54737
 N1988 N 0.56102 0.15103 0.54143
 C1989 C 0.54055 0.13264 0.53778
 N1990 N 0.54914 0.12407 0.52836
 N1991 N 0.54413 0.11074 0.52339
 C1992 C 0.53038 0.10545 0.52773
 N1993 N 0.52176 0.11404 0.53711
 N1994 N 0.52674 0.12741 0.54201
 C1995 C 0.52524 0.09042 0.52283
 N1996 N 0.51263 0.08406 0.52888
 N1997 N 0.50844 0.07011 0.52496
 C1998 C 0.51665 0.06205 0.51477
 N1999 N 0.52917 0.06848 0.50862
 N2000 N 0.53341 0.08239 0.51259
 C2001 C 0.54614 0.64539 0.04682
 N2002 N 0.54357 0.64961 0.06137
 N2003 N 0.54933 0.66245 0.06677
 C2004 C 0.55783 0.67164 0.05783
 N2005 N 0.56027 0.66744 0.04322
 N2006 N 0.55458 0.65455 0.03784
 C2007 C 0.54023 0.63096 0.04107
 N2008 N 0.54445 0.62568 0.02727
 N2009 N 0.53947 0.61234 0.02230
 C2010 C 0.53002 0.60383 0.03092
 N2011 N 0.52572 0.60916 0.04468
 N2012 N 0.53076 0.62246 0.04968
 C2013 C 0.52487 0.58891 0.02569
 N2014 N 0.51453 0.58098 0.03382
 N2015 N 0.51017 0.56725 0.02936
 C2016 C 0.51603 0.56093 0.01664
 N2017 N 0.52635 0.56888 0.00848
 N2018 N 0.53066 0.58264 0.01291
 C2019 C 0.70524 0.10411 0.54632
 N2020 N 0.69718 0.09480 0.53713
 N2021 N 0.69170 0.08176 0.54234
 C2022 C 0.69398 0.07754 0.55698
 N2023 N 0.70212 0.08687 0.56611
 N2024 N 0.70767 0.09987 0.56089
 C2025 C 0.71084 0.11874 0.54077
 N2026 N 0.72003 0.12738 0.54954
 N2027 N 0.72478 0.14085 0.54472
 C2028 C 0.72043 0.14622 0.53099
 N2029 N 0.71126 0.13756 0.52219
 N2030 N 0.70658 0.12405 0.52699
 C2031 C 0.72530 0.16128 0.52593
 N2032 N 0.71939 0.16759 0.51322
 N2033 N 0.72351 0.18145 0.50891
 C2034 C 0.73375 0.18946 0.51713
 N2035 N 0.73971 0.18310 0.52979
 N2036 N 0.73554 0.16929 0.53413
 C2037 C 0.70343 0.60474 0.04791
 N2038 N 0.69501 0.59551 0.03897
 N2039 N 0.68921 0.58272 0.04446
 C2040 C 0.69152 0.57869 0.05914
 N2041 N 0.70000 0.58794 0.06804
 N2042 N 0.70587 0.60069 0.06253
 C2043 C 0.70946 0.61906 0.04204
 N2044 N 0.71896 0.62759 0.05059
 N2045 N 0.72411 0.64080 0.04548
 C2046 C 0.71989 0.64602 0.03165
 N2047 N 0.71041 0.63747 0.02307
 N2048 N 0.70533 0.62422 0.02816
 C2049 C 0.72514 0.66085 0.02630
 N2050 N 0.71937 0.66707 0.01348
 N2051 N 0.72375 0.68077 0.00896
 C2052 C 0.73412 0.68873 0.01707
 N2053 N 0.73995 0.68246 0.02983
 N2054 N 0.73552 0.66879 0.03438
 C2055 C 0.20537 0.64750 0.70337
 N2056 N 0.20761 0.65144 0.68869
 N2057 N 0.20163 0.66411 0.68314
 C2058 C 0.19321 0.67340 0.69205
 N2059 N 0.19112 0.66949 0.70679
 N2060 N 0.19703 0.65678 0.71234
 C2061 C 0.21142 0.63319 0.70928
 N2062 N 0.20739 0.62812 0.72322
 N2063 N 0.21238 0.61482 0.72829
 C2064 C 0.22164 0.60615 0.71963
 N2065 N 0.22577 0.61128 0.70575
 N2066 N 0.22073 0.62454 0.70065
 C2067 C 0.22662 0.59119 0.72489
 N2068 N 0.23666 0.58300 0.71665
 N2069 N 0.24069 0.56915 0.72103
 C2070 C 0.23477 0.56294 0.73379
 N2071 N 0.22478 0.57116 0.74208
 N2072 N 0.22081 0.58505 0.73773
 C2073 C 0.20665 0.14842 0.20476
 N2074 N 0.20907 0.15264 0.19019
 N2075 N 0.20320 0.16545 0.18484
 C2076 C 0.19474 0.17461 0.19384
 N2077 N 0.19246 0.17041 0.20848
 N2078 N 0.19826 0.15755 0.21382
 C2079 C 0.21257 0.13396 0.21042
 N2080 N 0.20836 0.12861 0.22420
 N2081 N 0.21324 0.11519 0.22904
 C2082 C 0.22257 0.10666 0.22030
 N2083 N 0.22688 0.11208 0.20658
 N2084 N 0.22194 0.12546 0.20171
 C2085 C 0.22746 0.09159 0.22531
 N2086 N 0.23761 0.08356 0.21704
 N2087 N 0.24159 0.06964 0.22122
 C2088 C 0.23553 0.06320 0.23379
 N2089 N 0.22543 0.07126 0.24211
 N2090 N 0.22150 0.08521 0.23796
 C2091 C 0.70552 1.14790 0.70421
 N2092 N 0.70792 1.15191 0.68958
 N2093 N 0.70195 1.16458 0.68402
 C2094 C 0.69342 1.17381 0.69288
 N2095 N 0.69117 1.16983 0.70758
 N2096 N 0.69706 1.15710 0.71313
 C2097 C 0.71156 1.13358 0.71010
 N2098 N 0.70732 1.12836 0.72392
 N2099 N 0.71231 1.11503 0.72894
 C2100 C 0.72177 1.10651 0.72035
 N2101 N 0.72610 1.11180 0.70660
 N2102 N 0.72106 1.12508 0.70155
 C2103 C 0.72676 1.09153 0.72553
 N2104 N 0.73702 1.08354 0.71736
 N2105 N 0.74108 1.06966 0.72163
 C2106 C 0.73499 1.06324 0.73418
 N2107 N 0.72478 1.07125 0.74240
 N2108 N 0.72077 1.08517 0.73817
 C2109 C 0.70375 0.64508 0.20256
 N2110 N 0.69558 0.65442 0.21159
 N2111 N 0.68992 0.66729 0.20616
 C2112 C 0.69211 0.67129 0.19146
 N2113 N 0.70035 0.66192 0.18247
 N2114 N 0.70609 0.64909 0.18792
 C2115 C 0.70961 0.63065 0.20837
 N2116 N 0.71895 0.62203 0.19975
 N2117 N 0.72393 0.60873 0.20481
 C2118 C 0.71969 0.60353 0.21864
 N2119 N 0.71037 0.61217 0.22727
 N2120 N 0.70545 0.62551 0.22224
 C2121 C 0.72480 0.58864 0.22395
 N2122 N 0.71895 0.58242 0.23673
 N2123 N 0.72326 0.56868 0.24124
 C2124 C 0.73362 0.56071 0.23317
 N2125 N 0.73952 0.56698 0.22045
 N2126 N 0.73517 0.58067 0.21590
 C2127 C 0.54330 0.10196 0.70489
 N2128 N 0.55172 0.09288 0.71397
 N2129 N 0.55763 0.08007 0.70863
 C2130 C 0.55544 0.07589 0.69397
 N2131 N 0.54695 0.08501 0.68494
 N2132 N 0.54097 0.09776 0.69030
 C2133 C 0.53724 0.11637 0.71054
 N2134 N 0.52782 0.12478 0.70180
 N2135 N 0.52277 0.13813 0.70665
 C2136 C 0.52700 0.14359 0.72038
 N2137 N 0.53638 0.13515 0.72915
 N2138 N 0.54138 0.12176 0.72434
 C2139 C 0.52200 0.15864 0.72533
 N2140 N 0.52789 0.16511 0.73798
 N2141 N 0.52388 0.17908 0.74202
 C2142 C 0.51378 0.18705 0.73361
 N2143 N 0.50779 0.18051 0.72105
 N2144 N 0.51185 0.16658 0.71697
 C2145 C 1.04409 0.10205 0.20474
 N2146 N 1.04170 0.09786 0.19015
 N2147 N 1.04754 0.08504 0.18480
 C2148 C 1.05595 0.07585 0.19382
 N2149 N 1.05819 0.08002 0.20847
 N2150 N 1.05242 0.09288 0.21382
 C2151 C 1.03820 0.11652 0.21040
 N2152 N 1.04238 0.12184 0.22421
 N2153 N 1.03751 0.13527 0.22905
 C2154 C 1.02822 0.14382 0.22028
 N2155 N 1.02394 0.13843 0.20654
 N2156 N 1.02887 0.12504 0.20167
 C2157 C 1.02332 0.15889 0.22529
 N2158 N 1.01321 0.16692 0.21695
 N2159 N 1.00920 0.18083 0.22111
 C2160 C 1.01518 0.18727 0.23373
 N2161 N 1.02524 0.17922 0.24211
 N2162 N 1.02921 0.16527 0.23798
 C2163 C 0.20388 0.60463 0.54729
 N2164 N 0.20636 0.60047 0.56187
 N2165 N 0.20055 0.58765 0.56728
 C2166 C 0.19208 0.57844 0.55831
 N2167 N 0.18973 0.58259 0.54367
 N2168 N 0.19548 0.59544 0.53828
 C2169 C 0.20982 0.61904 0.54151
 N2170 N 0.20571 0.62420 0.52762
 N2171 N 0.21069 0.63752 0.52261
 C2172 C 0.22001 0.64614 0.53127
 N2173 N 0.22420 0.64094 0.54512
 N2174 N 0.21917 0.62765 0.55016
 C2175 C 0.22512 0.66105 0.52597
 N2176 N 0.23530 0.66916 0.53414
 N2177 N 0.23959 0.68289 0.52959
 C2178 C 0.23380 0.68903 0.51674
 N2179 N 0.22364 0.68090 0.50855
 N2180 N 0.21941 0.66714 0.51307
 C2181 C 0.20662 0.10166 1.04532
 N2182 N 0.19834 0.09250 1.03618
 N2183 N 0.19257 0.07960 1.04146
 C2184 C 0.19479 0.07540 1.05611
 N2185 N 0.20315 0.08458 1.06519
 N2186 N 0.20898 0.09744 1.05990
 C2187 C 0.21250 0.11617 1.03973
 N2188 N 0.22172 0.12474 1.04854
 N2189 N 0.22661 0.13816 1.04374
 C2190 C 0.22242 0.14354 1.02996
 N2191 N 0.21325 0.13494 1.02111
 N2192 N 0.20841 0.12148 1.02589
 C2193 C 0.22728 0.15864 1.02500
 N2194 N 0.22150 0.16493 1.01222
 N2195 N 0.22543 0.17890 1.00810
 C2196 C 0.23533 0.18706 1.01658
 N2197 N 0.24120 0.18070 1.02928
 N2198 N 0.23723 0.16677 1.03343
 C2199 C 0.20286 0.70518 0.64571
 N2200 N 0.21201 0.69697 0.65492
 N2201 N 0.20677 0.69129 0.66787
 C2202 C 0.19214 0.69351 0.67209
 N2203 N 0.18304 0.70178 0.66285
 N2204 N 0.18830 0.70753 0.64995
 C2205 C 0.20847 0.71107 0.63121
 N2206 N 0.19969 0.72030 0.62262
 N2207 N 0.20457 0.72529 0.60925
 C2208 C 0.21838 0.72118 0.60395
 N2209 N 0.22718 0.71197 0.61255
 N2210 N 0.22232 0.70703 0.62595
 C2211 C 0.22350 0.72626 0.58897
 N2212 N 0.23636 0.72059 0.58276
 N2213 N 0.24072 0.72482 0.56895
 C2214 C 0.23242 0.73493 0.56088
 N2215 N 0.21962 0.74067 0.56713
 N2216 N 0.21523 0.73639 0.58091
 C2217 C 0.20496 0.20700 1.14811
 N2218 N 0.19037 0.20937 1.15225
 N2219 N 0.18498 0.20350 1.16504
 C2220 C 0.19397 0.19508 1.17426
 N2221 N 0.20862 0.19286 1.17015
 N2222 N 0.21400 0.19867 1.15731
 C2223 C 0.21066 0.21289 1.13365
 N2224 N 0.22444 0.20865 1.12836
 N2225 N 0.22931 0.21346 1.11492
 C2226 C 0.22060 0.22274 1.10631
 N2227 N 0.20688 0.22709 1.11166
 N2228 N 0.20198 0.22222 1.12507
 C2229 C 0.22563 0.22751 1.09120
 N2230 N 0.21741 0.23763 1.08308
 N2231 N 0.22159 0.24148 1.06911
 C2232 C 0.23410 0.23528 1.06271
 N2233 N 0.24236 0.22520 1.07086
 N2234 N 0.23822 0.22141 1.08486
 C2235 C 0.70228 0.54636 0.10484
 N2236 N 0.71118 0.55482 0.09561
 N2237 N 0.70564 0.56064 0.08284
 C2238 C 0.69096 0.55831 0.07884
 N2239 N 0.68212 0.54979 0.08810
 N2240 N 0.68767 0.54391 0.10082
 C2241 C 0.70821 0.54033 0.11916
 N2242 N 0.69969 0.53082 0.12771
 N2243 N 0.70485 0.52569 0.14092
 C2244 C 0.71867 0.52993 0.14611
 N2245 N 0.72721 0.53941 0.13754
 N2246 N 0.72208 0.54449 0.12428
 C2247 C 0.72406 0.52471 0.16094
 N2248 N 0.73689 0.53049 0.16713
 N2249 N 0.74143 0.52614 0.18085
 C2250 C 0.73335 0.51579 0.18884
 N2251 N 0.72059 0.50994 0.18260
 N2252 N 0.71601 0.51434 0.16892
 C2253 C 0.70460 1.04506 0.60259
 N2254 N 0.71352 1.05368 0.59354
 N2255 N 0.70811 1.05946 0.58070
 C2256 C 0.69354 1.05694 0.57644
 N2257 N 0.68468 1.04825 0.58552
 N2258 N 0.69010 1.04240 0.59831
 C2259 C 0.71033 1.03911 0.61702
 N2260 N 0.70174 1.02957 0.62545
 N2261 N 0.70666 1.02459 0.63881
 C2262 C 0.72032 1.02902 0.64427
 N2263 N 0.72895 1.03852 0.63581
 N2264 N 0.72406 1.04345 0.62241
 C2265 C 0.72537 1.02405 0.65931
 N2266 N 0.73800 1.03000 0.66573
 N2267 N 0.74216 1.02598 0.67967
 C2268 C 0.73386 1.01581 0.68767
 N2269 N 0.72130 1.00977 0.68119
 N2270 N 0.71712 1.01383 0.66728
 C2271 C 0.54453 0.20401 0.60205
 N2272 N 0.55319 0.21288 0.59298
 N2273 N 0.55915 0.20735 0.58028
 C2274 C 0.55679 0.19270 0.57619
 N2275 N 0.54806 0.18388 0.58528
 N2276 N 0.54203 0.18943 0.59793
 C2277 C 0.53841 0.20988 0.61634
 N2278 N 0.52879 0.20136 0.62474
 N2279 N 0.52366 0.20640 0.63800
 C2280 C 0.52803 0.22011 0.64337
 N2281 N 0.53761 0.22867 0.63494
 N2282 N 0.54268 0.22366 0.62164
 C2283 C 0.52295 0.22527 0.65833
 N2284 N 0.52893 0.23790 0.66474
 N2285 N 0.52485 0.24213 0.67864
 C2286 C 0.51457 0.23392 0.68659
 N2287 N 0.50849 0.22138 0.68011
 N2288 N 0.51263 0.21712 0.66625
 C2289 C 1.04535 0.20643 0.10197
 N2290 N 1.03639 0.19795 0.09281
 N2291 N 1.04183 0.19216 0.07999
 C2292 C 1.05646 0.19453 0.07586
 N2293 N 1.06535 0.20310 0.08504
 N2294 N 1.05990 0.20896 0.09782
 C2295 C 1.03959 0.21230 0.11642
 N2296 N 1.04814 0.22181 0.12493
 N2297 N 1.04320 0.22669 0.13832
 C2298 C 1.02955 0.22217 0.14372
 N2299 N 1.02096 0.21271 0.13518
 N2300 N 1.02587 0.20789 0.12176
 C2301 C 1.02448 0.22700 0.15880
 N2302 N 1.01198 0.22080 0.16523
 N2303 N 1.00782 0.22467 0.17921
 C2304 C 1.01597 0.23495 0.18723
 N2305 N 1.02839 0.24124 0.18074
 N2306 N 1.03258 0.23732 0.16680
 C2307 C 0.64665 0.20421 0.70519
 N2308 N 0.65574 0.21322 0.69671
 N2309 N 0.66861 0.20787 0.69096
 C2310 C 0.67286 0.19328 0.69338
 N2311 N 0.66373 0.18433 0.70193
 N2312 N 0.65091 0.18968 0.70775
 C2313 C 0.63219 0.20988 0.71108
 N2314 N 0.62373 0.20124 0.72056
 N2315 N 0.61036 0.20613 0.72550
 C2316 C 0.60492 0.21980 0.72108
 N2317 N 0.61340 0.22846 0.71164
 N2318 N 0.62681 0.22361 0.70676
 C2319 C 0.58987 0.22483 0.72597
 N2320 N 0.58347 0.23742 0.71991
 N2321 N 0.56953 0.24159 0.72386
 C2322 C 0.56152 0.23337 0.73408
 N2323 N 0.56797 0.22086 0.74024
 N2324 N 0.58188 0.21666 0.73624
 C2325 C 1.14807 0.20509 0.20643
 N2326 N 1.15723 0.21416 0.19809
 N2327 N 1.17011 0.20884 0.19235
 C2328 C 1.17430 0.19421 0.19464
 N2329 N 1.16512 0.18520 0.20306
 N2330 N 1.15228 0.19053 0.20888
 C2331 C 1.13358 0.21073 0.21228
 N2332 N 1.12505 0.20203 0.22163
 N2333 N 1.11164 0.20687 0.22649
 C2334 C 1.10622 0.22056 0.22212
 N2335 N 1.11476 0.22930 0.21280
 N2336 N 1.12822 0.22449 0.20800
 C2337 C 1.09112 0.22553 0.22694
 N2338 N 1.08471 0.23814 0.22092
 N2339 N 1.07073 0.24223 0.22482
 C2340 C 1.06269 0.23391 0.23493
 N2341 N 1.06916 0.22138 0.24104
 N2342 N 1.08310 0.21726 0.23710
 C2343 C 0.10409 0.70248 0.54586
 N2344 N 0.10011 0.68782 0.54367
 N2345 N 0.08727 0.68241 0.54942
 C2346 C 0.07785 0.69146 0.55752
 N2347 N 0.08181 0.70619 0.55958
 N2348 N 0.09469 0.71159 0.55390
 C2349 C 0.11851 0.70825 0.54000
 N2350 N 0.12360 0.72219 0.54400
 N2351 N 0.13694 0.72719 0.53907
 C2352 C 0.14564 0.71847 0.52990
 N2353 N 0.14050 0.70457 0.52581
 N2354 N 0.12720 0.69954 0.53080
 C2355 C 0.16053 0.72376 0.52479
 N2356 N 0.16859 0.71560 0.51456
 N2357 N 0.18227 0.72016 0.51021
 C2358 C 0.18844 0.73300 0.51598
 N2359 N 0.18038 0.74117 0.52619
 N2360 N 0.16665 0.73665 0.53049
 C2361 C 0.10241 0.20456 1.04368
 N2362 N 0.09324 0.21364 1.05200
 N2363 N 0.08038 0.20830 1.05778
 C2364 C 0.07621 0.19366 1.05554
 N2365 N 0.08540 0.18463 1.04714
 N2366 N 0.09822 0.18998 1.04130
 C2367 C 0.11688 0.21021 1.03777
 N2368 N 0.12541 0.20147 1.02846
 N2369 N 0.13879 0.20633 1.02353
 C2370 C 0.14417 0.22008 1.02777
 N2371 N 0.13562 0.22885 1.03704
 N2372 N 0.12219 0.22402 1.04192
 C2373 C 0.15925 0.22507 1.02288
 N2374 N 0.16560 0.23778 1.02875
 N2375 N 0.17956 0.24190 1.02481
 C2376 C 0.18765 0.23350 1.01481
 N2377 N 0.18124 0.22087 1.00884
 N2378 N 0.16731 0.21672 1.01282
 C2379 C 0.60475 0.54712 0.20371
 N2380 N 0.59563 0.53818 0.19517
 N2381 N 0.58279 0.54359 0.18942
 C2382 C 0.57859 0.55818 0.19190
 N2383 N 0.58774 0.56708 0.20050
 N2384 N 0.60054 0.56165 0.20632
 C2385 C 0.61914 0.54133 0.20969
 N2386 N 0.62761 0.54989 0.21924
 N2387 N 0.64087 0.54485 0.22434
 C2388 C 0.64618 0.53110 0.22002
 N2389 N 0.63770 0.52252 0.21049
 N2390 N 0.62440 0.52753 0.20544
 C2391 C 0.66105 0.52583 0.22524
 N2392 N 0.66731 0.51305 0.21943
 N2393 N 0.68104 0.50858 0.22379
 C2394 C 0.68896 0.51668 0.23418
 N2395 N 0.68265 0.52940 0.24006
 N2396 N 0.66896 0.53390 0.23565
 C2397 C 0.60204 1.04536 0.70688
 N2398 N 0.59295 1.03634 0.69840
 N2399 N 0.58012 1.04169 0.69257
 C2400 C 0.57591 1.05631 0.69490
 N2401 N 0.58501 1.06528 0.70347
 N2402 N 0.59780 1.05991 0.70938
 C2403 C 0.61650 1.03969 0.71278
 N2404 N 0.62497 1.04833 0.72226
 N2405 N 0.63838 1.04347 0.72714
 C2406 C 0.64384 1.02983 0.72267
 N2407 N 0.63535 1.02116 0.71324
 N2408 N 0.62190 1.02599 0.70841
 C2409 C 0.65895 1.02485 0.72748
 N2410 N 0.66540 1.01235 0.72130
 N2411 N 0.67940 1.00826 0.72516
 C2412 C 0.68740 1.01648 0.73539
 N2413 N 0.68088 1.02889 0.74167
 N2414 N 0.66693 1.03302 0.73775
 C2415 C 0.89734 0.45495 0.29580
 N2416 N 0.90642 0.44638 0.28687
 N2417 N 0.91921 0.44053 0.29232
 C2418 C 0.92338 0.44294 0.30694
 N2419 N 0.91427 0.45158 0.31583
 N2420 N 0.90153 0.45749 0.31037
 C2421 C 0.88298 0.46097 0.29002
 N2422 N 0.87454 0.47050 0.29862
 N2423 N 0.86124 0.47555 0.29365
 C2424 C 0.85586 0.47122 0.27992
 N2425 N 0.86432 0.46174 0.27128
 N2426 N 0.87766 0.45673 0.27623
 C2427 C 0.84087 0.47625 0.27481
 N2428 N 0.83449 0.47035 0.26212
 N2429 N 0.82058 0.47441 0.25792
 C2430 C 0.81259 0.48458 0.26622
 N2431 N 0.81903 0.49057 0.27883
 N2432 N 0.83290 0.48647 0.28306
 C2433 C 0.89509 0.95374 0.79782
 N2434 N 0.90432 0.94530 0.78890
 N2435 N 0.91707 0.93948 0.79444
 C2436 C 0.92107 0.94178 0.80913
 N2437 N 0.91182 0.95028 0.81800
 N2438 N 0.89910 0.95616 0.81245
 C2439 C 0.88079 0.95979 0.79190
 N2440 N 0.87226 0.96928 0.80044
 N2441 N 0.85907 0.97444 0.79530
 C2442 C 0.85388 0.97023 0.78146
 N2443 N 0.86242 0.96076 0.77289
 N2444 N 0.87566 0.95566 0.77801
 C2445 C 0.83906 0.97548 0.77609
 N2446 N 0.83285 0.96973 0.76324
 N2447 N 0.81915 0.97410 0.75872
 C2448 C 0.81118 0.98444 0.76684
 N2449 N 0.81744 0.99026 0.77962
 N2450 N 0.83111 0.98584 0.78417
 C2451 C 0.35450 0.29840 0.79659
 N2452 N 0.35052 0.31305 0.79426
 N2453 N 0.33781 0.31857 0.80019
 C2454 C 0.32854 0.30965 0.80862
 N2455 N 0.33250 0.29495 0.81080
 N2456 N 0.34525 0.28944 0.80494
 C2457 C 0.36879 0.29250 0.79053
 N2458 N 0.37385 0.27857 0.79459
 N2459 N 0.38708 0.27344 0.78949
 C2460 C 0.39568 0.28202 0.78008
 N2461 N 0.39056 0.29590 0.77593
 N2462 N 0.37738 0.30106 0.78109
 C2463 C 0.41046 0.27659 0.77480
 N2464 N 0.41844 0.28462 0.76442
 N2465 N 0.43205 0.27996 0.75994
 C2466 C 0.43821 0.26713 0.76572
 N2467 N 0.43021 0.25907 0.77609
 N2468 N 0.41657 0.26370 0.78052
 C2469 C 0.85409 0.29502 0.29672
 N2470 N 0.84483 0.30324 0.28763
 N2471 N 0.83188 0.30882 0.29294
 C2472 C 0.82771 0.30650 0.30758
 N2473 N 0.83699 0.29819 0.31661
 N2474 N 0.84990 0.29254 0.31129
 C2475 C 0.86862 0.28932 0.29104
 N2476 N 0.87725 0.28000 0.29970
 N2477 N 0.89064 0.27517 0.29476
 C2478 C 0.89594 0.27954 0.28101
 N2479 N 0.88730 0.28883 0.27233
 N2480 N 0.87387 0.29360 0.27725
 C2481 C 0.91092 0.27459 0.27581
 N2482 N 0.91716 0.28053 0.26308
 N2483 N 0.93095 0.27634 0.25864
 C2484 C 0.93896 0.26602 0.26673
 N2485 N 0.93267 0.26003 0.27941
 N2486 N 0.91892 0.26426 0.28389
 C2487 C 0.39621 0.79560 0.45313
 N2488 N 0.40019 0.79312 0.43851
 N2489 N 0.41286 0.79904 0.43291
 C2490 C 0.42212 0.80761 0.44172
 N2491 N 0.41816 0.80995 0.45641
 N2492 N 0.40544 0.80410 0.46200
 C2493 C 0.38192 0.78956 0.45907
 N2494 N 0.37668 0.79390 0.47286
 N2495 N 0.36340 0.78889 0.47793
 C2496 C 0.35492 0.77928 0.46944
 N2497 N 0.36022 0.77485 0.45572
 N2498 N 0.37346 0.77992 0.45061
 C2499 C 0.33999 0.77422 0.47467
 N2500 N 0.33211 0.76375 0.46665
 N2501 N 0.31829 0.75960 0.47097
 C2502 C 0.31180 0.76580 0.48343
 N2503 N 0.31971 0.77623 0.49151
 N2504 N 0.33357 0.78033 0.48723
 C2505 C 0.39570 0.29558 0.95243
 N2506 N 0.40505 0.30385 0.96137
 N2507 N 0.41787 0.30954 0.95585
 C2508 C 0.42181 0.30728 0.94115
 N2509 N 0.41243 0.29893 0.93225
 N2510 N 0.39966 0.29316 0.93778
 C2511 C 0.38131 0.28972 0.95832
 N2512 N 0.37270 0.28024 0.94983
 N2513 N 0.35944 0.27527 0.95496
 C2514 C 0.35424 0.27967 0.96874
 N2515 N 0.36286 0.28914 0.97725
 N2516 N 0.37617 0.29404 0.97215
 C2517 C 0.33936 0.27459 0.97411
 N2518 N 0.33309 0.28063 0.98678
 N2519 N 0.31936 0.27635 0.99131
 C2520 C 0.31145 0.26582 0.98339
 N2521 N 0.31777 0.25972 0.97079
 N2522 N 0.33146 0.26405 0.96621
 C2523 C 0.79353 0.45511 0.39821
 N2524 N 0.80201 0.46413 0.40731
 N2525 N 0.80777 0.45878 0.42019
 C2526 C 0.80537 0.44419 0.42444
 N2527 N 0.79680 0.43523 0.41532
 N2528 N 0.79097 0.44059 0.40249
 C2529 C 0.78766 0.46076 0.38372
 N2530 N 0.77817 0.45213 0.37526
 N2531 N 0.77329 0.45698 0.36184
 C2532 C 0.77779 0.47060 0.35633
 N2533 N 0.78724 0.47926 0.36481
 N2534 N 0.79206 0.47445 0.37828
 C2535 C 0.77297 0.47556 0.34121
 N2536 N 0.77913 0.48805 0.33472
 N2537 N 0.77525 0.49212 0.32071
 C2538 C 0.76501 0.48390 0.31273
 N2539 N 0.75875 0.47149 0.31928
 N2540 N 0.76268 0.46738 0.33325
 C2541 C 0.79623 0.95291 0.89563
 N2542 N 0.79362 0.93837 0.89981
 N2543 N 0.79942 0.93291 0.91261
 C2544 C 0.80800 0.94178 0.92180
 N2545 N 0.81048 0.95639 0.91764
 N2546 N 0.80475 0.96183 0.90479
 C2547 C 0.79028 0.95873 0.88123
 N2548 N 0.79454 0.97253 0.87599
 N2549 N 0.78952 0.97757 0.86268
 C2550 C 0.78000 0.96900 0.85416
 N2551 N 0.77567 0.95525 0.85946
 N2552 N 0.78074 0.95019 0.87273
 C2553 C 0.77482 0.97430 0.83928
 N2554 N 0.76442 0.96624 0.83134
 N2555 N 0.76002 0.97077 0.81764
 C2556 C 0.76591 0.98348 0.81134
 N2557 N 0.77629 0.99157 0.81929
 N2558 N 0.78064 0.98708 0.83303
 C2559 C 0.29527 0.79679 0.35297
 N2560 N 0.30394 0.78805 0.34379
 N2561 N 0.30996 0.79378 0.33121
 C2562 C 0.30765 0.80850 0.32735
 N2563 N 0.29892 0.81719 0.33657
 N2564 N 0.29282 0.81144 0.34910
 C2565 C 0.28904 0.79070 0.36713
 N2566 N 0.27928 0.79906 0.37553
 N2567 N 0.27404 0.79384 0.38866
 C2568 C 0.27842 0.78009 0.39392
 N2569 N 0.28814 0.77169 0.38550
 N2570 N 0.29332 0.77688 0.37232
 C2571 C 0.27320 0.77476 0.40878
 N2572 N 0.27924 0.76217 0.41521
 N2573 N 0.27505 0.75786 0.42905
 C2574 C 0.26462 0.76594 0.43692
 N2575 N 0.25848 0.77843 0.43042
 N2576 N 0.26271 0.78277 0.41662
 C2577 C 0.29772 0.29672 0.85494
 N2578 N 0.28876 0.30520 0.84579
 N2579 N 0.29423 0.31115 0.83306
 C2580 C 0.30891 0.30894 0.82902
 N2581 N 0.31782 0.30041 0.83820
 N2582 N 0.31234 0.29439 0.85089
 C2583 C 0.29186 0.29051 0.86920
 N2584 N 0.30045 0.28099 0.87767
 N2585 N 0.29535 0.27570 0.89084
 C2586 C 0.28150 0.27980 0.89606
 N2587 N 0.27289 0.28929 0.88757
 N2588 N 0.27797 0.29452 0.87437
 C2589 C 0.27617 0.27445 0.91086
 N2590 N 0.26334 0.28016 0.91708
 N2591 N 0.25884 0.27575 0.93078
 C2592 C 0.26697 0.26541 0.93874
 N2593 N 0.27974 0.25962 0.93247
 N2594 N 0.28427 0.26408 0.91880
 C2595 C 0.45351 0.29712 0.89487
 N2596 N 0.45609 0.31165 0.89912
 N2597 N 0.45040 0.31700 0.91201
 C2598 C 0.44196 0.30803 0.92122
 N2599 N 0.43951 0.29344 0.91699
 N2600 N 0.44514 0.28810 0.90405
 C2601 C 0.45934 0.29142 0.88038
 N2602 N 0.45509 0.27762 0.87512
 N2603 N 0.45999 0.27268 0.86173
 C2604 C 0.46936 0.28133 0.85316
 N2605 N 0.47368 0.29508 0.85848
 N2606 N 0.46873 0.30005 0.87183
 C2607 C 0.47440 0.27610 0.83821
 N2608 N 0.48471 0.28420 0.83019
 N2609 N 0.48898 0.27971 0.81644
 C2610 C 0.48306 0.26699 0.81018
 N2611 N 0.47277 0.25887 0.81820
 N2612 N 0.46855 0.26333 0.83198
 C2613 C 0.95503 0.29596 0.39622
 N2614 N 0.95750 0.31053 0.40041
 N2615 N 0.95185 0.31586 0.41333
 C2616 C 0.94357 0.30682 0.42263
 N2617 N 0.94125 0.29219 0.41846
 N2618 N 0.94683 0.28688 0.40549
 C2619 C 0.96076 0.29030 0.38168
 N2620 N 0.95655 0.27648 0.37643
 N2621 N 0.96135 0.27159 0.36299
 C2622 C 0.97060 0.28031 0.35435
 N2623 N 0.97489 0.29408 0.35965
 N2624 N 0.97003 0.29900 0.37305
 C2625 C 0.97556 0.27516 0.33934
 N2626 N 0.98576 0.28336 0.33130
 N2627 N 0.98997 0.27896 0.31751
 C2628 C 0.98409 0.26624 0.31121
 N2629 N 0.97390 0.25801 0.31926
 N2630 N 0.96974 0.26238 0.33309
 C2631 C 0.45188 0.39524 0.79520
 N2632 N 0.46091 0.40454 0.80346
 N2633 N 0.45545 0.41730 0.80933
 C2634 C 0.44072 0.42124 0.80728
 N2635 N 0.43174 0.41191 0.79896
 N2636 N 0.43721 0.39919 0.79302
 C2637 C 0.45773 0.38093 0.78910
 N2638 N 0.44909 0.37238 0.77969
 N2639 N 0.45418 0.35917 0.77450
 C2640 C 0.46805 0.35400 0.77858
 N2641 N 0.47671 0.36257 0.78796
 N2642 N 0.47165 0.37582 0.79309
 C2643 C 0.47335 0.33915 0.77332
 N2644 N 0.48617 0.33292 0.77907
 N2645 N 0.49062 0.31919 0.77472
 C2646 C 0.48246 0.31122 0.76440
 N2647 N 0.46972 0.31750 0.75858
 N2648 N 0.46523 0.33120 0.76298
 C2649 C 0.95355 0.39593 0.29490
 N2650 N 0.96270 0.40519 0.30307
 N2651 N 0.95745 0.41816 0.30868
 C2652 C 0.94283 0.42235 0.30644
 N2653 N 0.93373 0.41307 0.29819
 N2654 N 0.93899 0.40015 0.29251
 C2655 C 0.95916 0.38139 0.28913
 N2656 N 0.95041 0.37278 0.27988
 N2657 N 0.95528 0.35938 0.27499
 C2658 C 0.96904 0.35406 0.27924
 N2659 N 0.97782 0.36267 0.28846
 N2660 N 0.97297 0.37612 0.29329
 C2661 C 0.97415 0.33905 0.27424
 N2662 N 0.98693 0.33279 0.28005
 N2663 N 0.99128 0.31897 0.27585
 C2664 C 0.98305 0.31095 0.26564
 N2665 N 0.97033 0.31726 0.25977
 N2666 N 0.96594 0.33104 0.26402
 C2667 C 0.29604 0.89651 0.45290
 N2668 N 0.30474 0.90558 0.46175
 N2669 N 0.31085 0.91817 0.45614
 C2670 C 0.30859 0.92216 0.44144
 N2671 N 0.29984 0.91306 0.43265
 N2672 N 0.29366 0.90051 0.43827
 C2673 C 0.28968 0.88236 0.45888
 N2674 N 0.28002 0.87398 0.45036
 N2675 N 0.27466 0.86087 0.45551
 C2676 C 0.27880 0.85562 0.46935
 N2677 N 0.28842 0.86403 0.47791
 N2678 N 0.29373 0.87718 0.47278
 C2679 C 0.27348 0.84079 0.47465
 N2680 N 0.27924 0.83449 0.48744
 N2681 N 0.27498 0.82069 0.49178
 C2682 C 0.26474 0.81271 0.48353
 N2683 N 0.25887 0.81908 0.47084
 N2684 N 0.26317 0.83285 0.46647
 C2685 C 0.29739 0.39503 0.95349
 N2686 N 0.31191 0.39929 0.95608
 N2687 N 0.31724 0.41220 0.95042
 C2688 C 0.30825 0.42143 0.94201
 N2689 N 0.29367 0.41718 0.93956
 N2690 N 0.28835 0.40423 0.94515
 C2691 C 0.29171 0.38053 0.95931
 N2692 N 0.27794 0.37521 0.95502
 N2693 N 0.27302 0.36183 0.95995
 C2694 C 0.28164 0.35333 0.96941
 N2695 N 0.29535 0.35871 0.97378
 N2696 N 0.30031 0.37204 0.96880
 C2697 C 0.27644 0.33841 0.97457
 N2698 N 0.28448 0.33056 0.98504
 N2699 N 0.28002 0.31686 0.98946
 C2700 C 0.26737 0.31046 0.98352
 N2701 N 0.25930 0.31831 0.97305
 N2702 N 0.26373 0.33206 0.96868
 C2703 C 0.79640 0.35248 0.29450
 N2704 N 0.78748 0.34320 0.30287
 N2705 N 0.79304 0.33048 0.30877
 C2706 C 0.80776 0.32659 0.30661
 N2707 N 0.81663 0.33589 0.29816
 N2708 N 0.81106 0.34856 0.29219
 C2709 C 0.79049 0.36679 0.28847
 N2710 N 0.79904 0.37536 0.27902
 N2711 N 0.79397 0.38863 0.27399
 C2712 C 0.78019 0.39386 0.27829
 N2713 N 0.77160 0.38527 0.28770
 N2714 N 0.77665 0.37195 0.29267
 C2715 C 0.77498 0.40884 0.27331
 N2716 N 0.76232 0.41514 0.27931
 N2717 N 0.75806 0.42905 0.27531
 C2718 C 0.76626 0.43711 0.26510
 N2719 N 0.77883 0.43073 0.25901
 N2720 N 0.78312 0.41687 0.26306
   
