data_POSCAR
  _audit_creation_date              2014-09-24
  _audit_creation_method            'ToBaCCo'
  _symmetry_space_group_name_H-M    'P1'
  _symmetry_Int_Tables_number       1
  _symmetry_cell_setting            triclinic
  loop_
  _symmetry_equiv_pos_as_xyz
 x,y,z
_cell_length_a 68.2033
_cell_length_b 68.1007
_cell_length_c 68.1362
_cell_angle_alpha 90.026600
_cell_angle_beta 89.963200
_cell_angle_gamma 89.965800
loop_
  _atom_site_label
  _atom_site_type_symbol
  _atom_site_fract_x
  _atom_site_fract_y
  _atom_site_fract_z
N1 N 0.31380 0.43681 0.93645
 N2 N 0.43673 0.81365 0.43640
 N3 N 0.93606 0.93689 0.81366
 N4 N 0.43543 -0.06419 0.31437
 N5 N 0.81366 0.31354 0.31300
 N6 N -0.18797 0.81252 0.81226
 N7 N 0.93662 0.31364 0.43633
 N8 N 0.43557 0.43567 0.81447
 N9 N 0.81380 0.93692 0.93631
 N10 N 0.31376 0.81374 0.31334
 N11 N 0.81408 0.43668 0.43606
 N12 N 0.93767 0.81259 -0.06209
 N13 N 0.31384 0.31360 0.81333
 N14 N 0.18745 0.56271 0.56262
 N15 N 0.56275 0.68800 0.06214
 N16 N 0.68781 0.18769 0.68729
 N17 N 1.06148 0.06138 0.18864
 N18 N 0.06260 0.18787 1.06186
 N19 N 0.18635 0.68692 0.68643
 N20 N 1.18797 0.18801 0.18750
 N21 N 0.68787 1.06263 0.56207
 N22 N 0.56159 0.56141 0.18847
 N23 N 0.68808 0.68803 0.18757
 N24 N 0.18747 0.06259 1.06223
 N25 N 0.56270 0.18808 0.56191
 N26 N 0.06225 0.56253 0.68805
 N27 N 0.68766 0.56267 0.06209
 N28 N 0.06374 0.68686 0.56361
 N29 N 0.56144 1.06130 0.68847
 N30 N 0.43641 0.31384 0.93624
 N31 N 0.93531 0.43561 0.31460
 N32 N 0.31423 0.93651 0.43603
 O33 O 0.24866 0.55206 0.72422
 O34 O 0.28212 0.54600 0.72703
 O35 O 0.22462 0.50093 0.69800
 O36 O 0.22425 0.46853 0.70364
 O37 O 0.19785 0.52565 0.74912
 O38 O 0.20485 0.52409 0.78326
 O39 O 0.27617 0.44898 0.75130
 O40 O 0.27201 0.45402 0.71790
 O41 O 0.30097 0.49829 0.77576
 O42 O 0.29470 0.53360 0.77428
 O43 O 0.25172 0.47436 0.80119
 O44 O 0.21687 0.47534 0.79513
 O45 O 0.25202 0.44849 0.77441
 O46 O 0.21547 0.45619 0.77253
 O47 O 0.27457 0.49866 0.80175
 O48 O 0.27251 0.53487 0.79385
 O49 O 0.30135 0.47493 0.75187
 O50 O 0.29458 0.48119 0.71636
 O51 O 0.22582 0.55266 0.74869
 O52 O 0.22739 0.54512 0.78369
 O53 O 0.19730 0.50148 0.72603
 O54 O 0.20558 0.46591 0.72892
 O55 O 0.24837 0.52442 0.69760
 O56 O 0.28374 0.52027 0.70554
 Zr57 Zr 0.26054 0.52367 0.72605
 O58 O 0.27937 0.50675 0.74375
 Zr59 Zr 0.22580 0.48938 0.72657
 O60 O 0.24364 0.47060 0.74342
 Zr61 Zr 0.22629 0.52411 0.76085
 O62 O 0.24332 0.50648 0.77968
 Zr63 Zr 0.27343 0.47696 0.73883
 O64 O 0.25565 0.49379 0.71971
 Zr65 Zr 0.27310 0.51130 0.77358
 O66 O 0.25606 0.53033 0.75597
 Zr67 Zr 0.23889 0.47657 0.77326
 O68 O 0.21957 0.49422 0.75643
 O69 O 0.23086 0.51903 0.73119
 O70 O 0.26862 0.48149 0.76869
 C71 C 0.23534 0.56068 0.73445
 C72 C 0.23452 0.51453 0.68947
 C73 C 0.18924 0.51554 0.73574
 C74 C 0.26643 0.44060 0.76509
 C75 C 0.30926 0.48432 0.76618
 C76 C 0.26539 0.48420 0.80962
 H77 H 0.29317 0.50988 0.74054
 H78 H 0.24004 0.50960 0.79346
 H79 H 0.22246 0.52738 0.72279
 H80 H 0.24075 0.45677 0.74007
 H81 H 0.26769 0.46008 0.70542
 H82 H 0.23450 0.45861 0.70630
 H83 H 0.26159 0.53251 0.80311
 H84 H 0.24002 0.55213 0.78228
 H85 H 0.30398 0.47009 0.71692
 H86 H 0.28249 0.53057 0.69532
 H87 H 0.21684 0.48811 0.80203
 H88 H 0.19882 0.51087 0.78312
 H89 H 0.28199 0.55137 0.74053
 H90 H 0.30236 0.53271 0.76198
 H91 H 0.19759 0.46840 0.74080
 H92 H 0.21820 0.44662 0.76195
 O93 O 0.19794 0.02605 0.24879
 O94 O 0.20407 0.02328 0.28224
 O95 O 0.24903 0.05228 0.22459
 O96 O 0.28135 0.04661 0.22409
 O97 O 0.22427 0.00120 0.19784
 O98 O 0.22589 -0.03298 0.20481
 O99 O 0.30094 -0.00109 0.27605
 O100 O 0.29590 0.03235 0.27186
 O101 O 0.25181 -0.02552 0.30100
 O102 O 0.21653 -0.02405 0.29481
 O103 O 0.27563 -0.05096 0.25158
 O104 O 0.27460 -0.04488 0.21674
 O105 O 0.30141 -0.02422 0.25188
 O106 O 0.29368 -0.02224 0.21528
 O107 O 0.25143 -0.05154 0.27455
 O108 O 0.21525 -0.04362 0.27261
 O109 O 0.27508 -0.00160 0.30132
 O110 O 0.26880 0.03391 0.29454
 O111 O 0.19733 0.00152 0.22599
 O112 O 0.20495 -0.03345 0.22740
 O113 O 0.24840 0.02427 0.19725
 O114 O 0.28394 0.02131 0.20543
 O115 O 0.22558 0.05272 0.24840
 O116 O 0.22975 0.04473 0.28380
 Zr117 Zr 0.22634 0.02423 0.26058
 O118 O 0.24328 0.00651 0.27939
 Zr119 Zr 0.26054 0.02369 0.22572
 O120 O 0.27933 0.00684 0.24353
 Zr121 Zr 0.22587 -0.01058 0.22630
 O122 O 0.24352 -0.02943 0.24330
 Zr123 Zr 0.27301 0.01142 0.27337
 O124 O 0.25617 0.03056 0.25561
 Zr125 Zr 0.23877 -0.02335 0.27313
 O126 O 0.21972 -0.00571 0.25612
 Zr127 Zr 0.27337 -0.02301 0.23877
 O128 O 0.25570 -0.00617 0.21949
 O129 O 0.23093 0.01910 0.23086
 O130 O 0.26851 -0.01845 0.26855
 C131 C 0.18931 0.01574 0.23555
 C132 C 0.23548 0.06084 0.23453
 C133 C 0.23436 0.01459 0.18921
 C134 C 0.30929 -0.01491 0.26630
 C135 C 0.26574 -0.01591 0.30927
 C136 C 0.26585 -0.05940 0.26529
 H137 H 0.24017 0.00972 0.29320
 H138 H 0.24042 -0.04322 0.24002
 H139 H 0.22256 0.02750 0.22249
 H140 H 0.29313 0.01018 0.24061
 H141 H 0.28984 0.04484 0.26756
 H142 H 0.29125 0.04397 0.23434
 H143 H 0.21760 -0.05290 0.26168
 H144 H 0.19801 -0.03212 0.24010
 H145 H 0.27991 0.03337 0.30391
 H146 H 0.21949 0.05499 0.28257
 H147 H 0.26182 -0.05173 0.21668
 H148 H 0.23907 -0.03281 0.19872
 H149 H 0.19878 0.00976 0.28219
 H150 H 0.21742 -0.01176 0.30248
 H151 H 0.28143 0.00946 0.19741
 H152 H 0.30329 -0.01172 0.21805
 O153 O 0.50144 0.69808 0.22396
 O154 O 0.46802 0.70417 0.22677
 O155 O 0.52553 0.74928 0.19777
 O156 O 0.52592 0.78165 0.20345
 O157 O 0.55229 0.72447 0.24876
 O158 O 0.54533 0.72604 0.28293
 O159 O 0.47397 0.80116 0.25123
 O160 O 0.47816 0.79617 0.21780
 O161 O 0.44917 0.75189 0.27562
 O162 O 0.45544 0.71659 0.27413
 O163 O 0.49851 0.77579 0.30101
 O164 O 0.53330 0.77481 0.29489
 O165 O 0.49813 0.80164 0.27430
 O166 O 0.53472 0.79394 0.27227
 O167 O 0.47561 0.75154 0.30160
 O168 O 0.47764 0.71531 0.29365
 O169 O 0.44879 0.77521 0.25172
 O170 O 0.45559 0.76900 0.21622
 O171 O 0.52422 0.69745 0.24845
 O172 O 0.52280 0.70505 0.28342
 O173 O 0.55283 0.74867 0.22573
 O174 O 0.54456 0.78425 0.22872
 O175 O 0.50178 0.72578 0.19734
 O176 O 0.46640 0.72992 0.20536
 Zr177 Zr 0.48961 0.72650 0.22583
 O178 O 0.47078 0.74342 0.24358
 Zr179 Zr 0.52435 0.76078 0.22635
 O180 O 0.50651 0.77957 0.24324
 Zr181 Zr 0.52386 0.72603 0.26058
 O182 O 0.50684 0.74367 0.27945
 Zr183 Zr 0.47672 0.77320 0.23869
 O184 O 0.49450 0.75638 0.21951
 Zr185 Zr 0.47705 0.73888 0.27341
 O186 O 0.49408 0.71984 0.25574
 Zr187 Zr 0.51129 0.77357 0.27306
 O188 O 0.53059 0.75592 0.25619
 O189 O 0.51929 0.73112 0.23092
 O190 O 0.48155 0.76868 0.26854
 C191 C 0.51469 0.68943 0.23424
 C192 C 0.51562 0.73570 0.18921
 C193 C 0.56089 0.73460 0.23539
 C194 C 0.48370 0.80952 0.26503
 C195 C 0.44086 0.76583 0.26602
 C196 C 0.48484 0.76598 0.30946
 H197 H 0.45699 0.74029 0.24038
 H198 H 0.51013 0.74055 0.29323
 H199 H 0.52767 0.72275 0.22251
 H200 H 0.50940 0.79340 0.23990
 H201 H 0.48248 0.79012 0.20530
 H202 H 0.51567 0.79155 0.20612
 H203 H 0.48854 0.71768 0.30292
 H204 H 0.51014 0.69809 0.28210
 H205 H 0.44620 0.78011 0.21678
 H206 H 0.46766 0.71965 0.19510
 H207 H 0.53341 0.76200 0.30171
 H208 H 0.55138 0.73925 0.28277
 H209 H 0.46808 0.69886 0.24028
 H210 H 0.44779 0.71746 0.26184
 H211 H 0.55259 0.78173 0.24056
 H212 H 0.53192 0.80358 0.26178
 O213 O -0.00139 0.77599 0.80205
 O214 O 0.03205 0.77318 0.79594
 O215 O -0.02550 0.80225 0.75096
 O216 O -0.02585 0.79661 0.71857
 O217 O -0.05225 0.75121 0.77565
 O218 O -0.04528 0.71702 0.77405
 O219 O 0.02607 0.74887 0.69899
 O220 O 0.02188 0.78228 0.70404
 O221 O 0.05088 0.72438 0.74822
 O222 O 0.04462 0.72584 0.78350
 O223 O 0.00155 0.69896 0.72434
 O224 O -0.03320 0.70507 0.72525
 O225 O 0.00192 0.72578 0.69848
 O226 O -0.03467 0.72775 0.70622
 O227 O 0.02440 0.69836 0.74862
 O228 O 0.02243 0.70633 0.78479
 O229 O 0.05126 0.74832 0.72494
 O230 O 0.04445 0.78383 0.73119
 O231 O -0.02420 0.75152 0.80265
 O232 O -0.02275 0.71652 0.79504
 O233 O -0.05279 0.77427 0.75149
 O234 O -0.04452 0.77133 0.71594
 O235 O -0.00177 0.80263 0.77446
 O236 O 0.03361 0.79467 0.77023
 Zr237 Zr 0.01044 0.77416 0.77365
 O238 O 0.02926 0.75642 0.75672
 Zr239 Zr -0.02431 0.77367 0.73939
 O240 O -0.00647 0.75679 0.72060
 Zr241 Zr -0.02382 0.73939 0.77409
 O242 O -0.00679 0.72053 0.75644
 Zr243 Zr 0.02332 0.76135 0.72696
 O244 O 0.00554 0.78051 0.74379
 Zr245 Zr 0.02300 0.72657 0.76123
 O246 O 0.00596 0.74423 0.78028
 Zr247 Zr -0.01122 0.72695 0.72655
 O248 O -0.03054 0.74380 0.74421
 O249 O -0.01924 0.76905 0.76903
 O250 O 0.01852 0.73147 0.73144
 C251 C -0.01466 0.76573 0.81068
 C252 C -0.01563 0.81077 0.76458
 C253 C -0.06085 0.76460 0.76555
 C254 C 0.01633 0.73509 0.69060
 C255 C 0.05919 0.73401 0.73431
 C256 C 0.01517 0.69049 0.73420
 H257 H 0.04306 0.75963 0.75985
 H258 H -0.01008 0.70675 0.75955
 H259 H -0.02763 0.77746 0.77739
 H260 H -0.00936 0.76015 0.70678
 H261 H 0.01755 0.79477 0.71009
 H262 H -0.01563 0.79392 0.70864
 H263 H 0.01148 0.69710 0.78247
 H264 H -0.01011 0.71787 0.80203
 H265 H 0.05384 0.78328 0.72009
 H266 H 0.03237 0.80491 0.78053
 H267 H -0.03341 0.69833 0.73810
 H268 H -0.05136 0.71722 0.76087
 H269 H 0.03196 0.75967 0.80127
 H270 H 0.05226 0.73814 0.78264
 H271 H -0.05254 0.75948 0.71843
 H272 H -0.03189 0.73826 0.69660
 O273 O 0.05196 0.02578 0.00122
 O274 O 0.04582 0.02290 -0.03224
 O275 O 0.00101 0.05217 0.02545
 O276 O -0.03134 0.04660 0.02596
 O277 O 0.02565 0.00102 0.05222
 O278 O 0.02403 -0.03314 0.04524
 O279 O -0.05107 -0.00115 -0.02594
 O280 O -0.04599 0.03225 -0.02178
 O281 O -0.00199 -0.02577 -0.05090
 O282 O 0.03326 -0.02441 -0.04477
 O283 O -0.02577 -0.05110 -0.00141
 O284 O -0.02476 -0.04491 0.03341
 O285 O -0.05157 -0.02423 -0.00175
 O286 O -0.04381 -0.02224 0.03483
 O287 O -0.00156 -0.05178 -0.02437
 O288 O 0.03459 -0.04389 -0.02253
 O289 O -0.02520 -0.00176 -0.05123
 O290 O -0.01889 0.03373 -0.04445
 O291 O 0.05258 0.00132 0.02407
 O292 O 0.04495 -0.03367 0.02262
 O293 O 0.00154 0.02414 0.05283
 O294 O -0.03398 0.02135 0.04464
 O295 O 0.02440 0.05247 0.00157
 O296 O 0.02017 0.04444 -0.03380
 Zr297 Zr 0.02358 0.02397 -0.01056
 O298 O 0.00660 0.00626 -0.02933
 Zr299 Zr -0.01058 0.02360 0.02434
 O300 O -0.02941 0.00676 0.00656
 Zr301 Zr 0.02403 -0.01077 0.02376
 O302 O 0.00634 -0.02960 0.00679
 Zr303 Zr -0.02311 0.01127 -0.02328
 O304 O -0.00623 0.03040 -0.00556
 Zr305 Zr 0.01107 -0.02359 -0.02305
 O306 O 0.03017 -0.00597 -0.00607
 Zr307 Zr -0.02351 -0.02310 0.01133
 O308 O -0.00579 -0.00627 0.03058
 O309 O 0.01901 0.01891 0.01918
 O310 O -0.01867 -0.01861 -0.01846
 C311 C 0.06059 0.01552 0.01449
 C312 C 0.01456 0.06066 0.01546
 C313 C 0.01557 0.01441 0.06087
 C314 C -0.05945 -0.01491 -0.01616
 C315 C -0.01589 -0.01611 -0.05918
 C316 C -0.01596 -0.05960 -0.01507
 H317 H 0.00970 0.00945 -0.04315
 H318 H 0.00943 -0.04338 0.01009
 H319 H 0.02739 0.02731 0.02755
 H320 H -0.04321 0.01015 0.00950
 H321 H -0.03991 0.04474 -0.01749
 H322 H -0.04125 0.04397 0.01573
 H323 H 0.03228 -0.05310 -0.01155
 H324 H 0.05192 -0.03232 0.00994
 H325 H -0.03000 0.03321 -0.05382
 H326 H 0.03048 0.05465 -0.03260
 H327 H -0.01199 -0.05179 0.03347
 H328 H 0.01085 -0.03295 0.05134
 H329 H 0.05114 0.00938 -0.03213
 H330 H 0.03244 -0.01209 -0.05240
 H331 H -0.03153 0.00947 0.05264
 H332 H -0.05339 -0.01169 0.03208
 O333 O 0.05201 0.52585 0.50141
 O334 O 0.04591 0.52302 0.46793
 O335 O 0.00101 0.55216 0.52560
 O336 O -0.03136 0.54658 0.52597
 O337 O 0.02564 0.50108 0.55235
 O338 O 0.02404 0.46689 0.54537
 O339 O -0.05095 0.49884 0.47407
 O340 O -0.04589 0.53227 0.47825
 O341 O -0.00179 0.47429 0.44918
 O342 O 0.03351 0.47575 0.45540
 O343 O -0.02565 0.44893 0.49853
 O344 O -0.02466 0.45504 0.53339
 O345 O -0.05146 0.47574 0.49825
 O346 O -0.04375 0.47768 0.53484
 O347 O -0.00141 0.44831 0.47560
 O348 O 0.03474 0.45617 0.47758
 O349 O -0.02507 0.49823 0.44883
 O350 O -0.01878 0.53375 0.45559
 O351 O 0.05262 0.50138 0.52425
 O352 O 0.04502 0.46639 0.52278
 O353 O 0.00151 0.52418 0.55292
 O354 O -0.03399 0.52131 0.54470
 O355 O 0.02446 0.55251 0.50179
 O356 O 0.02024 0.54455 0.46639
 Zr357 Zr 0.02365 0.52404 0.48959
 O358 O 0.00672 0.50633 0.47077
 Zr359 Zr -0.01057 0.52360 0.52442
 O360 O -0.02936 0.50674 0.50660
 Zr361 Zr 0.02408 0.48927 0.52389
 O362 O 0.00645 0.47043 0.50687
 Zr363 Zr -0.02301 0.51130 0.47678
 O364 O -0.00618 0.53044 0.49454
 Zr365 Zr 0.01123 0.47648 0.47704
 O366 O 0.03027 0.49410 0.49408
 Zr367 Zr -0.02341 0.47689 0.51136
 O368 O -0.00576 0.49373 0.53066
 O369 O 0.01903 0.51894 0.51931
 O370 O -0.01852 0.48142 0.48159
 C371 C 0.06063 0.51559 0.51470
 C372 C 0.01461 0.56067 0.51569
 C373 C 0.01555 0.51448 0.56097
 C374 C -0.05933 0.48505 0.48382
 C375 C -0.01573 0.48389 0.44090
 C376 C -0.01585 0.44047 0.48483
 H377 H 0.00984 0.50953 0.45696
 H378 H 0.00955 0.45664 0.51015
 H379 H 0.02739 0.52733 0.52770
 H380 H -0.04316 0.51011 0.50952
 H381 H -0.03982 0.54475 0.48256
 H382 H -0.04131 0.54388 0.51578
 H383 H 0.03240 0.44693 0.48853
 H384 H 0.05198 0.46773 0.51011
 H385 H -0.02988 0.53320 0.44621
 H386 H 0.03054 0.55477 0.46762
 H387 H -0.01189 0.44815 0.53344
 H388 H 0.01085 0.46707 0.55143
 H389 H 0.05124 0.50950 0.46803
 H390 H 0.03257 0.48801 0.44768
 H391 H -0.03153 0.50943 0.55269
 H392 H -0.05332 0.48825 0.53209
 O393 O 0.50158 0.05215 0.52582
 O394 O 0.46813 0.04610 0.52304
 O395 O 0.52562 0.00094 0.55202
 O396 O 0.52610 -0.03143 0.54631
 O397 O 0.55238 0.02571 0.50091
 O398 O 0.54540 0.02411 0.46677
 O399 O 0.47412 -0.05095 0.49865
 O400 O 0.47828 -0.04592 0.53206
 O401 O 0.44928 -0.00161 0.47427
 O402 O 0.45555 0.03369 0.47576
 O403 O 0.49853 -0.02561 0.44882
 O404 O 0.53339 -0.02461 0.45485
 O405 O 0.49829 -0.05145 0.47555
 O406 O 0.53483 -0.04376 0.47744
 O407 O 0.47564 -0.00132 0.44828
 O408 O 0.47773 0.03492 0.45618
 O409 O 0.44890 -0.02496 0.49814
 O410 O 0.45571 -0.01873 0.53365
 O411 O 0.52435 0.05272 0.50129
 O412 O 0.52285 0.04513 0.46632
 O413 O 0.55296 0.00155 0.52397
 O414 O 0.54471 -0.03404 0.52102
 O415 O 0.50185 0.02443 0.55246
 O416 O 0.46650 0.02038 0.54447
 Zr417 Zr 0.48971 0.02375 0.52398
 O418 O 0.47089 0.00683 0.50627
 Zr419 Zr 0.52448 -0.01056 0.52342
 O420 O 0.50664 -0.02934 0.50657
 Zr421 Zr 0.52395 0.02416 0.48916
 O422 O 0.50692 0.00653 0.47033
 Zr423 Zr 0.47684 -0.02297 0.51116
 O424 O 0.49462 -0.00614 0.53029
 Zr425 Zr 0.47714 0.01136 0.47644
 O426 O 0.49418 0.03039 0.49406
 Zr427 Zr 0.51139 -0.02337 0.47673
 O428 O 0.53070 -0.00573 0.49356
 O429 O 0.51940 0.01909 0.51883
 O430 O 0.48165 -0.01845 0.48130
 C431 C 0.51484 0.06076 0.51552
 C432 C 0.51568 0.01450 0.56058
 C433 C 0.56100 0.01561 0.51427
 C434 C 0.48388 -0.05934 0.48486
 C435 C 0.44098 -0.01555 0.48385
 C436 C 0.48483 -0.01580 0.44042
 H437 H 0.45710 0.00997 0.50949
 H438 H 0.51019 0.00964 0.45654
 H439 H 0.52778 0.02744 0.52724
 H440 H 0.50954 -0.04317 0.50991
 H441 H 0.48261 -0.03986 0.54455
 H442 H 0.51580 -0.04129 0.54370
 H443 H 0.48860 0.03251 0.44686
 H444 H 0.51020 0.05212 0.46769
 H445 H 0.44630 -0.02982 0.53309
 H446 H 0.46775 0.03066 0.55472
 H447 H 0.53340 -0.01185 0.44795
 H448 H 0.55143 0.01088 0.46690
 H449 H 0.46823 0.05145 0.50953
 H450 H 0.44790 0.03282 0.48806
 H451 H 0.55272 -0.03153 0.50917
 H452 H 0.53210 -0.05333 0.48801
 O453 O 0.50136 0.55216 0.02603
 O454 O 0.46791 0.54613 0.02325
 O455 O 0.52540 0.50094 0.05218
 O456 O 0.52584 0.46857 0.04647
 O457 O 0.55214 0.52572 0.00108
 O458 O 0.54515 0.52415 -0.03306
 O459 O 0.47387 0.44909 -0.00122
 O460 O 0.47803 0.45410 0.03220
 O461 O 0.44902 0.49847 -0.02555
 O462 O 0.45530 0.53374 -0.02407
 O463 O 0.49831 0.47446 -0.05102
 O464 O 0.53317 0.47545 -0.04496
 O465 O 0.49804 0.44861 -0.02432
 O466 O 0.53457 0.45627 -0.02241
 O467 O 0.47540 0.49873 -0.05155
 O468 O 0.47751 0.53498 -0.04363
 O469 O 0.44865 0.47510 -0.00169
 O470 O 0.45547 0.48129 0.03382
 O471 O 0.52412 0.55275 0.00149
 O472 O 0.52262 0.54518 -0.03348
 O473 O 0.55272 0.50154 0.02413
 O474 O 0.54445 0.46596 0.02117
 O475 O 0.50164 0.52444 0.05264
 O476 O 0.46627 0.52039 0.04466
 Zr477 Zr 0.48948 0.52377 0.02417
 O478 O 0.47065 0.50686 0.00645
 Zr479 Zr 0.52424 0.48945 0.02358
 O480 O 0.50639 0.47069 0.00672
 Zr481 Zr 0.52371 0.52419 -0.01065
 O482 O 0.50668 0.50658 -0.02950
 Zr483 Zr 0.47659 0.47706 0.01132
 O484 O 0.49438 0.49387 0.03046
 Zr485 Zr 0.47690 0.51141 -0.02339
 O486 O 0.49394 0.53043 -0.00575
 Zr487 Zr 0.51115 0.47668 -0.02311
 O488 O 0.53046 0.49430 -0.00627
 O489 O 0.51916 0.51911 0.01902
 O490 O 0.48141 0.48160 -0.01853
 C491 C 0.51462 0.56078 0.01574
 C492 C 0.51547 0.51450 0.06076
 C493 C 0.56076 0.51560 0.01444
 C494 C 0.48363 0.44072 -0.01502
 C495 C 0.44072 0.48452 -0.01597
 C496 C 0.48460 0.48426 -0.05942
 H497 H 0.45686 0.51001 0.00967
 H498 H 0.50996 0.50970 -0.04328
 H499 H 0.52755 0.52745 0.02742
 H500 H 0.50929 0.45685 0.01005
 H501 H 0.48237 0.46013 0.04469
 H502 H 0.51555 0.45871 0.04385
 H503 H 0.48836 0.53255 -0.05296
 H504 H 0.50996 0.55217 -0.03211
 H505 H 0.44606 0.47020 0.03325
 H506 H 0.46753 0.53066 0.05492
 H507 H 0.53315 0.48820 -0.05190
 H508 H 0.55118 0.51093 -0.03294
 H509 H 0.46802 0.55149 0.00975
 H510 H 0.44770 0.53290 -0.01173
 H511 H 0.55247 0.46847 0.00932
 H512 H 0.53185 0.44670 -0.01184
 O513 O 0.77592 0.30208 0.49873
 O514 O 0.77297 0.29600 0.53224
 O515 O 0.80217 0.25097 0.47467
 O516 O 0.79656 0.21856 0.47427
 O517 O 0.75124 0.27569 0.44780
 O518 O 0.71708 0.27412 0.45472
 O519 O 0.74877 0.19898 0.52609
 O520 O 0.78212 0.20401 0.52201
 O521 O 0.72428 0.24833 0.55096
 O522 O 0.72566 0.28355 0.54473
 O523 O 0.69899 0.22439 0.50147
 O524 O 0.70515 0.22530 0.46672
 O525 O 0.72581 0.19848 0.50182
 O526 O 0.72781 0.20628 0.46524
 O527 O 0.69833 0.24868 0.52438
 O528 O 0.70629 0.28490 0.52242
 O529 O 0.74819 0.22503 0.55138
 O530 O 0.78364 0.23118 0.54460
 O531 O 0.75154 0.30268 0.47582
 O532 O 0.71657 0.29514 0.47731
 O533 O 0.77432 0.25153 0.44729
 O534 O 0.77136 0.21595 0.45550
 O535 O 0.80249 0.27447 0.49845
 O536 O 0.79446 0.27028 0.53384
 Zr537 Zr 0.77403 0.27369 0.51060
 O538 O 0.75629 0.25676 0.52938
 Zr539 Zr 0.77364 0.23940 0.47578
 O540 O 0.75675 0.22062 0.49358
 Zr541 Zr 0.73939 0.27414 0.47624
 O542 O 0.72053 0.25650 0.49322
 Zr543 Zr 0.76122 0.22697 0.52342
 O544 O 0.78039 0.24380 0.50568
 Zr545 Zr 0.72649 0.26129 0.52305
 O546 O 0.74415 0.28034 0.50606
 Zr547 Zr 0.72696 0.22659 0.48875
 O548 O 0.74383 0.24425 0.46948
 O549 O 0.76900 0.26905 0.48088
 O550 O 0.73139 0.23148 0.51855
 C551 C 0.76574 0.31069 0.48537
 C552 C 0.81065 0.26459 0.48458
 C553 C 0.76466 0.26560 0.43922
 C554 C 0.73508 0.19058 0.51625
 C555 C 0.73390 0.23444 0.55931
 C556 C 0.69050 0.23426 0.51510
 H557 H 0.75945 0.25990 0.54319
 H558 H 0.70677 0.25962 0.48989
 H559 H 0.77741 0.27740 0.47250
 H560 H 0.76012 0.20679 0.49067
 H561 H 0.79459 0.21004 0.51768
 H562 H 0.79383 0.20860 0.48446
 H563 H 0.69707 0.28255 0.51147
 H564 H 0.71795 0.30217 0.48995
 H565 H 0.78308 0.22009 0.55400
 H566 H 0.80466 0.28059 0.53263
 H567 H 0.69842 0.23816 0.46650
 H568 H 0.71730 0.26093 0.44861
 H569 H 0.75951 0.30143 0.53202
 H570 H 0.73802 0.28283 0.55227
 H571 H 0.75955 0.21847 0.44744
 H572 H 0.73834 0.19667 0.46800
 O573 O 0.80197 0.75136 -0.02583
 O574 O 0.79590 0.71787 -0.02301
 O575 O 0.75087 0.77546 -0.05207
 O576 O 0.71854 0.77595 -0.04638
 O577 O 0.77562 0.80229 -0.00105
 O578 O 0.77396 0.79536 0.03313
 O579 O 0.69898 0.72399 0.00127
 O580 O 0.70404 0.72810 -0.03209
 O581 O 0.74823 0.69906 0.02573
 O582 O 0.78341 0.70530 0.02434
 O583 O 0.72431 0.74854 0.05117
 O584 O 0.72520 0.78328 0.04513
 O585 O 0.69846 0.74824 0.02432
 O586 O 0.70628 0.78486 0.02240
 O587 O 0.74857 0.72562 0.05177
 O588 O 0.78473 0.72757 0.04379
 O589 O 0.72498 0.69868 0.00180
 O590 O 0.73118 0.70550 -0.03367
 O591 O 0.80255 0.77420 -0.00133
 O592 O 0.79493 0.77277 0.03364
 O593 O 0.75151 0.80284 -0.02414
 O594 O 0.71596 0.79465 -0.02112
 O595 O 0.77435 0.75167 -0.05248
 O596 O 0.77023 0.71626 -0.04447
 Zr597 Zr 0.77361 0.73951 -0.02399
 O598 O 0.75668 0.72070 -0.00627
 Zr599 Zr 0.73937 0.77435 -0.02349
 O600 O 0.72059 0.75652 -0.00663
 Zr601 Zr 0.77402 0.77384 0.01077
 O602 O 0.75639 0.75682 0.02962
 Zr603 Zr 0.72694 0.72667 -0.01118
 O604 O 0.74377 0.74444 -0.03033
 Zr605 Zr 0.76118 0.72698 0.02357
 O606 O 0.78021 0.74401 0.00593
 Zr607 Zr 0.72653 0.76130 0.02320
 O608 O 0.74418 0.78062 0.00636
 O609 O 0.76897 0.76924 -0.01888
 O610 O 0.73141 0.73150 0.01869
 C611 C 0.81058 0.76465 -0.01555
 C612 C 0.76444 0.76553 -0.06061
 C613 C 0.76557 0.81089 -0.01447
 C614 C 0.69057 0.73382 0.01500
 C615 C 0.73437 0.69073 0.01609
 C616 C 0.73416 0.73489 0.05964
 H617 H 0.75982 0.70688 -0.00947
 H618 H 0.75949 0.76013 0.04340
 H619 H 0.77733 0.77761 -0.02730
 H620 H 0.70680 0.75944 -0.00999
 H621 H 0.71009 0.73246 -0.04457
 H622 H 0.70865 0.76568 -0.04374
 H623 H 0.78237 0.73851 0.05306
 H624 H 0.80193 0.76010 0.03228
 H625 H 0.72010 0.69609 -0.03312
 H626 H 0.78051 0.71749 -0.05471
 H627 H 0.73809 0.78358 0.05176
 H628 H 0.76081 0.80151 0.03289
 H629 H 0.80125 0.71800 -0.00951
 H630 H 0.78266 0.69773 0.01197
 H631 H 0.71851 0.80273 -0.00931
 H632 H 0.69667 0.78210 0.01188
 O633 O 1.05209 0.22417 0.24856
 O634 O 1.04597 0.22701 0.28204
 O635 O 1.00105 0.19790 0.22444
 O636 O 0.96872 0.20358 0.22394
 O637 O 1.02580 0.24901 0.19766
 O638 O 1.02417 0.28317 0.20464
 O639 O 0.94906 0.25136 0.27590
 O640 O 0.95411 0.21793 0.27176
 O641 O 0.99827 0.27579 0.30083
 O642 O 1.03351 0.27435 0.29458
 O643 O 0.97438 0.30117 0.25146
 O644 O 0.97549 0.29506 0.21656
 O645 O 0.94861 0.27441 0.25168
 O646 O 0.95639 0.27247 0.21513
 O647 O 0.99856 0.30177 0.27442
 O648 O 1.03477 0.29390 0.27237
 O649 O 0.97497 0.25189 0.30119
 O650 O 0.98120 0.21637 0.29439
 O651 O 1.05271 0.24867 0.22576
 O652 O 1.04511 0.28366 0.22723
 O653 O 1.00168 0.22592 0.19707
 O654 O 0.96613 0.22884 0.20529
 O655 O 1.02444 0.19751 0.24827
 O656 O 1.02029 0.20556 0.28365
 Zr657 Zr 1.02370 0.22602 0.26041
 O658 O 1.00675 0.24376 0.27921
 Zr659 Zr 0.98953 0.22650 0.22556
 O660 O 0.97073 0.24338 0.24338
 Zr661 Zr 1.02418 0.26079 0.22612
 O662 O 1.00652 0.27966 0.24312
 Zr663 Zr 0.97701 0.23885 0.27322
 O664 O 0.99387 0.21968 0.25546
 Zr665 Zr 1.01127 0.27361 0.27294
 O666 O 1.03033 0.25595 0.25593
 Zr667 Zr 0.97668 0.27323 0.23861
 O668 O 0.99436 0.25636 0.21932
 O669 O 1.01913 0.23111 0.23068
 O670 O 0.98152 0.26871 0.26839
 C671 C 1.06072 0.23445 0.23530
 C672 C 1.01457 0.18935 0.23442
 C673 C 1.01572 0.23562 0.18903
 C674 C 0.94070 0.26513 0.26610
 C675 C 0.98435 0.26620 0.30913
 C676 C 0.98412 0.30960 0.26519
 H677 H 1.00985 0.24056 0.29302
 H678 H 1.00962 0.29345 0.23984
 H679 H 1.02749 0.22269 0.22230
 H680 H 0.95693 0.24003 0.24046
 H681 H 0.96016 0.20543 0.26744
 H682 H 0.95884 0.20620 0.23423
 H683 H 1.03237 0.30320 0.26148
 H684 H 1.05205 0.28232 0.23991
 H685 H 0.97010 0.21694 0.30378
 H686 H 1.03057 0.19531 0.28242
 H687 H 0.98822 0.30202 0.21660
 H688 H 1.01098 0.28303 0.19859
 H689 H 1.05131 0.24052 0.28192
 H690 H 1.03266 0.26203 0.30222
 H691 H 0.96864 0.24069 0.19727
 H692 H 0.94684 0.26188 0.21784
 O693 O 0.69783 1.02584 0.74866
 O694 O 0.70390 1.02306 0.78211
 O695 O 0.74895 1.05206 0.72453
 O696 O 0.78128 1.04638 0.72408
 O697 O 0.72422 1.00100 0.69774
 O698 O 0.72584 0.96681 0.70471
 O699 O 0.80079 0.99873 0.77605
 O700 O 0.79574 1.03214 0.77187
 O701 O 0.75163 0.97426 0.80095
 O702 O 0.71636 0.97572 0.79472
 O703 O 0.77548 0.94879 0.75154
 O704 O 0.77458 0.95484 0.71678
 O705 O 0.80131 0.97561 0.75188
 O706 O 0.79357 0.97754 0.71525
 O707 O 0.75122 0.94821 0.77444
 O708 O 0.71508 0.95618 0.77252
 O709 O 0.77487 0.99820 0.80130
 O710 O 0.76861 1.03370 0.79450
 O711 O 0.69724 1.00131 0.72586
 O712 O 0.70486 0.96633 0.72727
 O713 O 0.74837 1.02405 0.69719
 O714 O 0.78389 1.02109 0.70542
 O715 O 0.72548 1.05249 0.74831
 O716 O 0.72958 1.04451 0.78372
 Zr717 Zr 0.72620 1.02401 0.76049
 O718 O 0.74311 1.00629 0.77932
 Zr719 Zr 0.76046 1.02346 0.72568
 O720 O 0.77922 1.00661 0.74352
 Zr721 Zr 0.72579 0.98920 0.72620
 O722 O 0.74341 0.97035 0.74323
 Zr723 Zr 0.77285 1.01120 0.77334
 O724 O 0.75604 1.03034 0.75556
 Zr725 Zr 0.73861 0.97643 0.77306
 O726 O 0.71959 0.99407 0.75601
 Zr727 Zr 0.77327 0.97676 0.73876
 O728 O 0.75563 0.99360 0.71944
 O729 O 0.73084 1.01888 0.73077
 O730 O 0.76837 0.98132 0.76854
 C731 C 0.68921 1.01553 0.73541
 C732 C 0.73539 1.06061 0.73445
 C733 C 0.73433 1.01438 0.68913
 C734 C 0.80918 0.98494 0.76629
 C735 C 0.76553 0.98389 0.80924
 C736 C 0.76564 0.94033 0.76519
 H737 H 0.73998 1.00950 0.79313
 H738 H 0.74030 0.95657 0.73994
 H739 H 0.72248 1.02728 0.72239
 H740 H 0.79302 1.00996 0.74061
 H741 H 0.78968 1.04463 0.76756
 H742 H 0.79116 1.04374 0.73434
 H743 H 0.71740 0.94694 0.76156
 H744 H 0.69789 0.96767 0.73995
 H745 H 0.77970 1.03316 0.80389
 H746 H 0.71931 1.05476 0.78247
 H747 H 0.76172 0.94814 0.71654
 H748 H 0.73900 0.96702 0.69859
 H749 H 0.69861 1.00953 0.78205
 H750 H 0.71723 0.98803 0.80238
 H751 H 0.78138 1.00924 0.69738
 H752 H 0.80319 0.98804 0.71804
 O753 O 0.69800 0.52596 0.24864
 O754 O 0.70410 0.52315 0.28209
 O755 O 0.74908 0.55223 0.22449
 O756 O 0.78141 0.54657 0.22401
 O757 O 0.72436 0.50117 0.19768
 O758 O 0.72598 0.46698 0.20462
 O759 O 0.80097 0.49880 0.27594
 O760 O 0.79595 0.53224 0.27177
 O761 O 0.75185 0.47434 0.30083
 O762 O 0.71658 0.47578 0.29462
 O763 O 0.77570 0.44896 0.25136
 O764 O 0.77469 0.45509 0.21653
 O765 O 0.80147 0.47570 0.25174
 O766 O 0.79378 0.47774 0.21513
 O767 O 0.75150 0.44834 0.27433
 O768 O 0.71531 0.45626 0.27238
 O769 O 0.77509 0.49829 0.30119
 O770 O 0.76883 0.53380 0.29442
 O771 O 0.69740 0.50145 0.22582
 O772 O 0.70503 0.46648 0.22719
 O773 O 0.74849 0.52425 0.19712
 O774 O 0.78402 0.52129 0.20533
 O775 O 0.72563 0.55263 0.24830
 O776 O 0.72978 0.54460 0.28370
 Zr777 Zr 0.72638 0.52413 0.26045
 O778 O 0.74332 0.50639 0.27924
 Zr779 Zr 0.76060 0.52364 0.22561
 O780 O 0.77939 0.50677 0.24341
 Zr781 Zr 0.72595 0.48935 0.22612
 O782 O 0.74359 0.47049 0.24311
 Zr783 Zr 0.77305 0.51132 0.27324
 O784 O 0.75621 0.53048 0.25550
 Zr785 Zr 0.73882 0.47653 0.27295
 O786 O 0.71978 0.49419 0.25595
 Zr787 Zr 0.77344 0.47693 0.23861
 O788 O 0.75578 0.49378 0.21933
 O789 O 0.73099 0.51903 0.23072
 O790 O 0.76857 0.48145 0.26839
 C791 C 0.68937 0.51566 0.23539
 C792 C 0.73552 0.56077 0.23444
 C793 C 0.73445 0.51457 0.18907
 C794 C 0.80933 0.48498 0.26619
 C795 C 0.76575 0.48397 0.30912
 C796 C 0.76592 0.44050 0.26505
 H797 H 0.74020 0.50958 0.29305
 H798 H 0.74049 0.45671 0.23981
 H799 H 0.72263 0.52744 0.22235
 H800 H 0.79319 0.51012 0.24050
 H801 H 0.78989 0.54474 0.26748
 H802 H 0.79130 0.54392 0.23426
 H803 H 0.71768 0.44699 0.26145
 H804 H 0.69808 0.46779 0.23989
 H805 H 0.77993 0.53325 0.30380
 H806 H 0.71951 0.55486 0.28246
 H807 H 0.76192 0.44824 0.21646
 H808 H 0.73916 0.46717 0.19852
 H809 H 0.69881 0.50962 0.28202
 H810 H 0.71744 0.48809 0.30228
 H811 H 0.78152 0.50944 0.19729
 H812 H 0.80339 0.48824 0.21794
 O813 O 0.55213 0.22402 0.74865
 O814 O 0.54603 0.22683 0.78213
 O815 O 0.50106 0.19778 0.72454
 O816 O 0.46874 0.20347 0.72407
 O817 O 0.52580 0.24891 0.69779
 O818 O 0.52421 0.28306 0.70479
 O819 O 0.44913 0.25123 0.77608
 O820 O 0.45417 0.21780 0.77193
 O821 O 0.49836 0.27565 0.80098
 O822 O 0.53359 0.27417 0.79473
 O823 O 0.47446 0.30104 0.75165
 O824 O 0.47554 0.29494 0.71673
 O825 O 0.44867 0.27430 0.75188
 O826 O 0.45641 0.27237 0.71532
 O827 O 0.49867 0.30163 0.77458
 O828 O 0.53487 0.29372 0.77250
 O829 O 0.47505 0.25176 0.80135
 O830 O 0.48127 0.21623 0.79453
 O831 O 0.55273 0.24853 0.72586
 O832 O 0.54516 0.28352 0.72737
 O833 O 0.50169 0.22583 0.69719
 O834 O 0.46614 0.22875 0.70545
 O835 O 0.52448 0.19736 0.74835
 O836 O 0.52034 0.20539 0.78375
 Zr837 Zr 0.52375 0.22587 0.76052
 O838 O 0.50682 0.24361 0.77935
 Zr839 Zr 0.48956 0.22639 0.72570
 O840 O 0.47077 0.24326 0.74354
 Zr841 Zr 0.52421 0.26067 0.72626
 O842 O 0.50658 0.27953 0.74328
 Zr843 Zr 0.47708 0.23871 0.77338
 O844 O 0.49391 0.21955 0.75559
 Zr845 Zr 0.51135 0.27345 0.77309
 O846 O 0.53038 0.25580 0.75605
 Zr847 Zr 0.47673 0.27311 0.73879
 O848 O 0.49439 0.25625 0.71947
 O849 O 0.51916 0.23098 0.73080
 O850 O 0.48159 0.26857 0.76856
 C851 C 0.56075 0.23430 0.73538
 C852 C 0.51459 0.18922 0.73449
 C853 C 0.51572 0.23553 0.68915
 C854 C 0.44077 0.26502 0.76630
 C855 C 0.48443 0.26606 0.80928
 C856 C 0.48422 0.30947 0.76536
 H857 H 0.50993 0.24040 0.79316
 H858 H 0.50968 0.29332 0.74000
 H859 H 0.52751 0.22257 0.72241
 H860 H 0.45697 0.23991 0.74063
 H861 H 0.46021 0.20530 0.76759
 H862 H 0.45887 0.20609 0.73438
 H863 H 0.53247 0.30304 0.76163
 H864 H 0.55212 0.28216 0.74004
 H865 H 0.47018 0.21680 0.80394
 H866 H 0.53061 0.19513 0.78250
 H867 H 0.48825 0.30191 0.71679
 H868 H 0.51101 0.28295 0.69876
 H869 H 0.55137 0.24034 0.78203
 H870 H 0.53275 0.26185 0.80235
 H871 H 0.46865 0.24061 0.69743
 H872 H 0.44686 0.26178 0.71804
 O873 O 0.30208 0.75106 0.47410
 O874 O 0.29597 0.71753 0.47700
 O875 O 0.25107 0.77515 0.44780
 O876 O 0.21870 0.77557 0.45342
 O877 O 0.27572 0.80203 0.49879
 O878 O 0.27406 0.79515 0.53299
 O879 O 0.19908 0.72376 0.50129
 O880 O 0.20412 0.72784 0.46787
 O881 O 0.24829 0.69887 0.52575
 O882 O 0.28349 0.70509 0.52435
 O883 O 0.22436 0.74841 0.55104
 O884 O 0.22538 0.78324 0.54487
 O885 O 0.19859 0.74806 0.52428
 O886 O 0.20633 0.78465 0.52224
 O887 O 0.24858 0.72544 0.55171
 O888 O 0.28478 0.72741 0.54379
 O889 O 0.22504 0.69845 0.50182
 O890 O 0.23124 0.70521 0.46632
 O891 O 0.30265 0.77398 0.49852
 O892 O 0.29506 0.77255 0.53351
 O893 O 0.25164 0.80255 0.47568
 O894 O 0.21608 0.79437 0.47866
 O895 O 0.27455 0.75136 0.44747
 O896 O 0.27031 0.71595 0.45549
 Zr897 Zr 0.27371 0.73921 0.47596
 O898 O 0.25677 0.72044 0.49371
 Zr899 Zr 0.23949 0.77406 0.47636
 O900 O 0.22070 0.75628 0.49325
 Zr901 Zr 0.27412 0.77360 0.51065
 O902 O 0.25648 0.75664 0.52953
 Zr903 Zr 0.22703 0.72642 0.48877
 O904 O 0.24388 0.74414 0.46959
 Zr905 Zr 0.26126 0.72678 0.52354
 O906 O 0.28031 0.74376 0.50587
 Zr907 Zr 0.22663 0.76114 0.52307
 O908 O 0.24430 0.78039 0.50620
 O909 O 0.26908 0.76895 0.48101
 O910 O 0.23151 0.73132 0.51862
 C911 C 0.31067 0.76441 0.48431
 C912 C 0.26469 0.76524 0.43931
 C913 C 0.26569 0.81061 0.48534
 C914 C 0.19070 0.73360 0.51503
 C915 C 0.23442 0.69053 0.51612
 C916 C 0.23415 0.73473 0.55952
 H917 H 0.25989 0.70661 0.49053
 H918 H 0.25957 0.75996 0.54330
 H919 H 0.27745 0.77731 0.47260
 H920 H 0.20690 0.75919 0.48989
 H921 H 0.21016 0.73215 0.45538
 H922 H 0.20875 0.76539 0.45614
 H923 H 0.28239 0.73835 0.55305
 H924 H 0.30204 0.75987 0.53216
 H925 H 0.22015 0.69581 0.46689
 H926 H 0.28062 0.71715 0.44527
 H927 H 0.23815 0.78333 0.55172
 H928 H 0.26090 0.80127 0.53276
 H929 H 0.30136 0.71774 0.49048
 H930 H 0.28274 0.69751 0.51199
 H931 H 0.21860 0.80245 0.49048
 H932 H 0.19675 0.78187 0.51169
 O933 O 0.30190 0.25117 0.97410
 O934 O 0.29582 0.21764 0.97697
 O935 O 0.25092 0.27528 0.94781
 O936 O 0.21854 0.27567 0.95341
 O937 O 0.27551 0.30210 0.99886
 O938 O 0.27384 0.29517 1.03304
 O939 O 0.19889 0.22381 1.00111
 O940 O 0.20400 0.22788 0.96775
 O941 O 0.24812 0.19889 1.02566
 O942 O 0.28329 0.20510 1.02430
 O943 O 0.22417 0.24838 1.05103
 O944 O 0.22508 0.28315 1.04493
 O945 O 0.19835 0.24806 1.02415
 O946 O 0.20614 0.28467 1.02223
 O947 O 0.24844 0.22548 1.05167
 O948 O 0.28461 0.22742 1.04372
 O949 O 0.22489 0.19849 1.00171
 O950 O 0.23113 0.20528 0.96623
 O951 O 0.30245 0.27406 0.99855
 O952 O 0.29483 0.27257 1.03355
 O953 O 0.25144 0.30264 0.97574
 O954 O 0.21589 0.29444 0.97867
 O955 O 0.27439 0.25148 0.94747
 O956 O 0.27018 0.21606 0.95544
 Zr957 Zr 0.27355 0.23930 0.97593
 O958 O 0.25661 0.22050 0.99365
 Zr959 Zr 0.23931 0.27414 0.97636
 O960 O 0.22052 0.25632 0.99322
 Zr961 Zr 0.27392 0.27365 1.01068
 O962 O 0.25627 0.25665 1.02951
 Zr963 Zr 0.22687 0.22647 0.98870
 O964 O 0.24372 0.24423 0.96955
 Zr965 Zr 0.26107 0.22681 1.02349
 O966 O 0.28013 0.24382 1.00586
 Zr967 Zr 0.22642 0.26113 1.02305
 O968 O 0.24409 0.28043 1.00622
 O969 O 0.26890 0.26903 0.98102
 O970 O 0.23131 0.23132 1.01856
 C971 C 0.31048 0.26452 0.98433
 C972 C 0.26454 0.26537 0.93932
 C973 C 0.26547 0.31070 0.98542
 C974 C 0.19047 0.23365 1.01483
 C975 C 0.23426 0.19055 1.01601
 C976 C 0.23402 0.23475 1.05952
 H977 H 0.25974 0.20668 0.99046
 H978 H 0.25935 0.25997 1.04329
 H979 H 0.27726 0.27742 0.97263
 H980 H 0.20672 0.25924 0.98984
 H981 H 0.21006 0.23223 0.95528
 H982 H 0.20860 0.26547 0.95611
 H983 H 0.28225 0.23837 1.05297
 H984 H 0.30186 0.25993 1.03216
 H985 H 0.22005 0.19587 0.96678
 H986 H 0.28049 0.21729 0.94523
 H987 H 0.23792 0.28338 1.05166
 H988 H 0.26068 0.30130 1.03280
 H989 H 0.30120 0.21784 0.99045
 H990 H 0.28258 0.19756 1.01192
 H991 H 0.21840 0.30250 0.99049
 H992 H 0.19658 0.28192 1.01167
 C993 C 0.29212 0.36582 0.79006
 N994 N 0.31092 0.36025 0.78666
 N995 N 0.31778 0.34345 0.79391
 C996 C 0.30611 0.33145 0.80476
 N997 N 0.28721 0.33698 0.80792
 N998 N 0.28036 0.35386 0.80079
 C999 C 0.28492 0.38483 0.78287
 N1000 N 0.26763 0.39229 0.78939
 N1001 N 0.26158 0.40997 0.78355
 C1002 C 0.27254 0.42075 0.77087
 N1003 N 0.28974 0.41319 0.76423
 N1004 N 0.29584 0.39559 0.77017
 C1005 C 0.29175 -0.13413 0.29015
 N1006 N 0.31058 -0.13958 0.28675
 N1007 N 0.31754 -0.15636 0.29399
 C1008 C 0.30593 -0.16844 0.30480
 N1009 N 0.28699 -0.16303 0.30795
 N1010 N 0.28005 -0.14617 0.30085
 C1011 C 0.28446 -0.11515 0.28298
 N1012 N 0.26714 -0.10775 0.28950
 N1013 N 0.26104 -0.09008 0.28369
 C1014 C 0.27198 -0.07925 0.27103
 N1015 N 0.28919 -0.08675 0.26437
 N1016 N 0.29535 -0.10434 0.27029
 C1017 C 0.79070 0.86511 0.78945
 N1018 N 0.80942 0.85936 0.78589
 N1019 N 0.81615 0.84243 0.79298
 C1020 C 0.80442 0.83048 0.80381
 N1021 N 0.78559 0.83618 0.80712
 N1022 N 0.77889 0.85319 0.80015
 C1023 C 0.78367 0.88425 0.78247
 N1024 N 0.76645 0.89181 0.78907
 N1025 N 0.76056 0.90959 0.78341
 C1026 C 0.77161 0.92040 0.77084
 N1027 N 0.78873 0.91275 0.76411
 N1028 N 0.79468 0.89504 0.76986
 C1029 C 0.45759 0.88394 0.29067
 N1030 N 0.43882 0.88951 0.28712
 N1031 N 0.43182 0.90619 0.29453
 C1032 C 0.44331 0.91807 0.30569
 N1033 N 0.46218 0.91254 0.30902
 N1034 N 0.46916 0.89577 0.30173
 C1035 C 0.46493 0.86506 0.28329
 N1036 N 0.48220 0.85759 0.28982
 N1037 N 0.48835 0.84000 0.28381
 C1038 C 0.47752 0.82932 0.27094
 N1039 N 0.46035 0.83689 0.26428
 N1040 N 0.45414 0.85440 0.27038
 C1041 C -0.04110 0.88566 0.78924
 N1042 N -0.02978 0.89732 0.80073
 N1043 N -0.03696 0.91391 0.80823
 C1044 C -0.05580 0.91942 0.80470
 N1045 N -0.06703 0.90773 0.79308
 N1046 N -0.05982 0.89123 0.78546
 C1047 C -0.03366 0.86684 0.78181
 N1048 N -0.04427 0.85633 0.76864
 N1049 N -0.03819 0.83870 0.76274
 C1050 C -0.02133 0.83088 0.76987
 N1051 N -0.01064 0.84144 0.78295
 N1052 N -0.01666 0.85914 0.78876
 C1053 C -0.04102 -0.13485 -0.03923
 N1054 N -0.02921 -0.14677 -0.04997
 N1055 N -0.03591 -0.16377 -0.05695
 C1056 C -0.05473 -0.16947 -0.05361
 N1057 N -0.06645 -0.15753 -0.04273
 N1058 N -0.05973 -0.14060 -0.03563
 C1059 C -0.03400 -0.11570 -0.03226
 N1060 N -0.04500 -0.10488 -0.01965
 N1061 N -0.03905 -0.08716 -0.01392
 C1062 C -0.02194 -0.07954 -0.02068
 N1063 N -0.01090 -0.09038 -0.03326
 N1064 N -0.01679 -0.10817 -0.03889
 C1065 C -0.04153 0.36577 0.45966
 N1066 N -0.02994 0.35400 0.44852
 N1067 N -0.03682 0.33715 0.44135
 C1068 C -0.05560 0.33146 0.44489
 N1069 N -0.06711 0.34327 0.45614
 N1070 N -0.06021 0.36004 0.46343
 C1071 C -0.03431 0.38474 0.46691
 N1072 N -0.04514 0.39541 0.47980
 N1073 N -0.03904 0.41299 0.48579
 C1074 C -0.02193 0.42061 0.47903
 N1075 N -0.01105 0.40992 0.46619
 N1076 N -0.01710 0.39227 0.46029
 C1077 C 0.45835 -0.13410 0.45967
 N1078 N 0.47000 -0.14584 0.44856
 N1079 N 0.46319 -0.16273 0.44140
 C1080 C 0.44443 -0.16849 0.44494
 N1081 N 0.43287 -0.15671 0.45617
 N1082 N 0.43970 -0.13990 0.46344
 C1083 C 0.46551 -0.11510 0.46691
 N1084 N 0.45466 -0.10446 0.47980
 N1085 N 0.46072 -0.08686 0.48579
 C1086 C 0.47781 -0.07919 0.47903
 N1087 N 0.48870 -0.08985 0.46617
 N1088 N 0.48269 -0.10752 0.46027
 C1089 C 0.45808 0.36603 -0.04039
 N1090 N 0.46970 0.35433 -0.05157
 N1091 N 0.46288 0.33747 -0.05876
 C1092 C 0.44413 0.33169 -0.05520
 N1093 N 0.43259 0.34344 -0.04391
 N1094 N 0.43943 0.36023 -0.03661
 C1095 C 0.46525 0.38501 -0.03310
 N1096 N 0.45440 0.39562 -0.02017
 N1097 N 0.46047 0.41320 -0.01413
 C1098 C 0.47756 0.42088 -0.02089
 N1099 N 0.48844 0.41025 -0.03378
 N1100 N 0.48243 0.39260 -0.03972
 C1101 C 0.79131 0.38542 0.46041
 N1102 N 0.81007 0.39093 0.46408
 N1103 N 0.81726 0.40743 0.45647
 C1104 C 0.80597 0.41918 0.44498
 N1105 N 0.78710 0.41373 0.44154
 N1106 N 0.77993 0.39714 0.44903
 C1107 C 0.78388 0.36663 0.46788
 N1108 N 0.76673 0.35905 0.46117
 N1109 N 0.76068 0.34139 0.46705
 C1110 C 0.77150 0.33075 0.47997
 N1111 N 0.78851 0.33846 0.48686
 N1112 N 0.79461 0.35604 0.48089
 C1113 C 0.79107 0.88568 -0.03929
 N1114 N 0.77968 0.89739 -0.05068
 N1115 N 0.78683 0.91397 -0.05818
 C1116 C 0.80570 0.91944 -0.05474
 N1117 N 0.81699 0.90770 -0.04324
 N1118 N 0.80982 0.89120 -0.03562
 C1119 C 0.78365 0.86688 -0.03184
 N1120 N 0.79435 0.85630 -0.01880
 N1121 N 0.78827 0.83870 -0.01287
 C1122 C 0.77131 0.83096 -0.01983
 N1123 N 0.76051 0.84159 -0.03277
 N1124 N 0.76654 0.85927 -0.03862
 C1125 C 0.78941 0.29094 0.36436
 N1126 N 0.80076 0.27949 0.35266
 N1127 N 0.80822 0.28660 0.33603
 C1128 C 0.80477 0.30549 0.33053
 N1129 N 0.79330 0.31684 0.34227
 N1130 N 0.78573 0.30971 0.35880
 C1131 C 0.78199 0.28357 0.38320
 N1132 N 0.76897 0.29433 0.39376
 N1133 N 0.76306 0.28829 0.41138
 C1134 C 0.77002 0.27131 0.41915
 N1135 N 0.78295 0.26046 0.40853
 N1136 N 0.78878 0.26645 0.39084
 C1137 C 0.78825 0.79033 -0.13597
 N1138 N 0.78460 0.80908 -0.14158
 N1139 N 0.79200 0.81608 -0.15826
 C1140 C 0.80324 0.80459 -0.17009
 N1141 N 0.80663 0.78571 -0.16454
 N1142 N 0.79936 0.77874 -0.14777
 C1143 C 0.78109 0.78310 -0.11697
 N1144 N 0.78804 0.76608 -0.10926
 N1145 N 0.78245 0.76023 -0.09145
 C1146 C 0.76960 0.77112 -0.08078
 N1147 N 0.76248 0.78800 -0.08861
 N1148 N 0.76816 0.79392 -0.10635
 C1149 C 0.29055 0.45861 0.88430
 N1150 N 0.30167 0.47023 0.89603
 N1151 N 0.30882 0.46336 0.91289
 C1152 C 0.30528 0.44457 0.91862
 N1153 N 0.29405 0.43303 0.90684
 N1154 N 0.28679 0.43992 0.89006
 C1155 C 0.28330 0.46581 0.86533
 N1156 N 0.27045 0.45495 0.85470
 N1157 N 0.26446 0.46103 0.83712
 C1158 C 0.27119 0.47815 0.82946
 N1159 N 0.28401 0.48906 0.84012
 N1160 N 0.28990 0.48303 0.85777
 C1161 C 0.29109 -0.04171 0.38382
 N1162 N 0.30225 -0.03012 0.39554
 N1163 N 0.30937 -0.03697 0.41241
 C1164 C 0.30575 -0.05574 0.41818
 N1165 N 0.29448 -0.06726 0.40642
 N1166 N 0.28725 -0.06037 0.38963
 C1167 C 0.28386 -0.03450 0.36486
 N1168 N 0.27086 -0.04526 0.35430
 N1169 N 0.26483 -0.03913 0.33675
 C1170 C 0.27167 -0.02207 0.32905
 N1171 N 0.28464 -0.01128 0.33963
 N1172 N 0.29058 -0.01735 0.35725
 C1173 C -0.04098 -0.04162 -0.13393
 N1174 N -0.03720 -0.06028 -0.13978
 N1175 N -0.04437 -0.06707 -0.15664
 C1176 C -0.05550 -0.05545 -0.16842
 N1177 N -0.05906 -0.03668 -0.16261
 N1178 N -0.05201 -0.02991 -0.14567
 C1179 C -0.03383 -0.03450 -0.11490
 N1180 N -0.04052 -0.01733 -0.10726
 N1181 N -0.03465 -0.01133 -0.08960
 C1182 C -0.02178 -0.02223 -0.07898
 N1183 N -0.01497 -0.03931 -0.08670
 N1184 N -0.02094 -0.04536 -0.10430
 C1185 C -0.04128 0.45771 0.36656
 N1186 N -0.05236 0.46930 0.35475
 N1187 N -0.05956 0.46233 0.33796
 C1188 C -0.05612 0.44347 0.33237
 N1189 N -0.04493 0.43197 0.34422
 N1190 N -0.03761 0.43896 0.36093
 C1191 C -0.03397 0.46504 0.38545
 N1192 N -0.02098 0.45430 0.39604
 N1193 N -0.01490 0.46052 0.41354
 C1194 C -0.02168 0.47766 0.42115
 N1195 N -0.03463 0.48844 0.41054
 N1196 N -0.04062 0.48228 0.39296
 C1197 C 0.45920 -0.04193 0.36609
 N1198 N 0.46276 -0.06073 0.36054
 N1199 N 0.45533 -0.06777 0.34390
 C1200 C 0.44413 -0.05628 0.33205
 N1201 N 0.44078 -0.03738 0.33757
 N1202 N 0.44810 -0.03036 0.35429
 C1203 C 0.46661 -0.03456 0.38493
 N1204 N 0.46010 -0.01725 0.39239
 N1205 N 0.46611 -0.01109 0.40996
 C1206 C 0.47896 -0.02195 0.42062
 N1207 N 0.48561 -0.03916 0.41306
 N1208 N 0.47950 -0.04538 0.39557
 C1209 C 0.45915 0.45806 -0.13378
 N1210 N 0.44799 0.46957 -0.14559
 N1211 N 0.44074 0.46251 -0.16232
 C1212 C 0.44420 0.44363 -0.16783
 N1213 N 0.45546 0.43221 -0.15598
 N1214 N 0.46283 0.43929 -0.13933
 C1215 C 0.46650 0.46546 -0.11493
 N1216 N 0.47943 0.45470 -0.10429
 N1217 N 0.48549 0.46093 -0.08679
 C1218 C 0.47876 0.47810 -0.07922
 N1219 N 0.46586 0.48892 -0.08989
 N1220 N 0.45989 0.48274 -0.10746
 C1221 C 0.46001 0.79174 0.38425
 N1222 N 0.46342 0.81057 0.38978
 N1223 N 0.45617 0.81749 0.40657
 C1224 C 0.44532 0.80585 0.41859
 N1225 N 0.44215 0.78691 0.41310
 N1226 N 0.44927 0.78001 0.39623
 C1227 C 0.46717 0.78449 0.36525
 N1228 N 0.46065 0.76718 0.35782
 N1229 N 0.46646 0.76111 0.34014
 C1230 C 0.47910 0.77208 0.32932
 N1231 N 0.48575 0.78929 0.33685
 N1232 N 0.47984 0.79542 0.35446
 C1233 C -0.03863 0.79051 0.88603
 N1234 N -0.03512 0.80930 0.89162
 N1235 N -0.04249 0.81626 0.90834
 C1236 C -0.05357 0.80470 0.92022
 N1237 N -0.05684 0.78579 0.91468
 N1238 N -0.04959 0.77886 0.89788
 C1239 C -0.03147 0.78332 0.86701
 N1240 N -0.03816 0.76616 0.85939
 N1241 N -0.03254 0.76031 0.84157
 C1242 C -0.01991 0.77135 0.83082
 N1243 N -0.01305 0.78838 0.83856
 N1244 N -0.01876 0.79428 0.85630
 C1245 C 0.36616 0.79085 0.29171
 N1246 N 0.36035 0.78703 0.31037
 N1247 N 0.34350 0.79418 0.31721
 C1248 C 0.33168 0.80532 0.30564
 N1249 N 0.33745 0.80892 0.28687
 N1250 N 0.35438 0.80189 0.28007
 C1251 C 0.38518 0.78372 0.28454
 N1252 N 0.39277 0.79046 0.26740
 N1253 N 0.41043 0.78461 0.26135
 C1254 C 0.42107 0.77170 0.27218
 N1255 N 0.41339 0.76484 0.28924
 N1256 N 0.39581 0.77078 0.29534
 C1257 C -0.13610 0.78880 0.79026
 N1258 N -0.14188 0.78500 0.80893
 N1259 N -0.15858 0.79240 0.81587
 C1260 C -0.17026 0.80380 0.80441
 N1261 N -0.16453 0.80736 0.78562
 N1262 N -0.14774 0.80008 0.77871
 C1263 C -0.11711 0.78156 0.78310
 N1264 N -0.10938 0.78840 0.76605
 N1265 N -0.09160 0.78271 0.76021
 C1266 C -0.08098 0.76987 0.77115
 N1267 N -0.08883 0.76287 0.78807
 N1268 N -0.10654 0.76865 0.79396
 C1269 C 0.88540 0.28933 0.45913
 N1270 N 0.89095 0.28559 0.44038
 N1271 N 0.90743 0.29318 0.43318
 C1272 C 0.91913 0.30474 0.44445
 N1273 N 0.91364 0.30825 0.46333
 N1274 N 0.89706 0.30077 0.47050
 C1275 C 0.86662 0.28188 0.46657
 N1276 N 0.85892 0.28881 0.48360
 N1277 N 0.84125 0.28299 0.48962
 C1278 C 0.83073 0.26990 0.47889
 N1279 N 0.83856 0.26279 0.46200
 N1280 N 0.85615 0.26871 0.45592
 C1281 C 0.88581 0.78887 -0.04016
 N1282 N 0.89745 0.80013 -0.02857
 N1283 N 0.91423 0.80741 -0.03547
 C1284 C 0.91997 0.80386 -0.05426
 N1285 N 0.90831 0.79248 -0.06574
 N1286 N 0.89161 0.78509 -0.05883
 C1287 C 0.86683 0.78163 -0.03302
 N1288 N 0.85625 0.76879 -0.04395
 N1289 N 0.83854 0.76301 -0.03809
 C1290 C 0.83070 0.76994 -0.02113
 N1291 N 0.84132 0.78270 -0.01012
 N1292 N 0.85910 0.78840 -0.01593
 C1293 C -0.13411 -0.03982 -0.04186
 N1294 N -0.14608 -0.05055 -0.03012
 N1295 N -0.16292 -0.05767 -0.03699
 C1296 C -0.16840 -0.05450 -0.05592
 N1297 N -0.15639 -0.04365 -0.06757
 N1298 N -0.13963 -0.03640 -0.06067
 C1299 C -0.11514 -0.03264 -0.03463
 N1300 N -0.10438 -0.01993 -0.04555
 N1301 N -0.08681 -0.01401 -0.03944
 C1302 C -0.07928 -0.02068 -0.02225
 N1303 N -0.09005 -0.03336 -0.01129
 N1304 N -0.10770 -0.03918 -0.01734
 C1305 C -0.13388 0.45998 0.45798
 N1306 N -0.14585 0.44921 0.46969
 N1307 N -0.16267 0.44207 0.46279
 C1308 C -0.16813 0.44526 0.44386
 N1309 N -0.15613 0.45614 0.43223
 N1310 N -0.13939 0.46341 0.43916
 C1311 C -0.11494 0.46720 0.46524
 N1312 N -0.10420 0.47995 0.45435
 N1313 N -0.08665 0.48591 0.46049
 C1314 C -0.07913 0.47925 0.47770
 N1315 N -0.08990 0.46654 0.48863
 N1316 N -0.10752 0.46067 0.48254
 C1317 C 0.36641 -0.04046 0.45791
 N1318 N 0.35441 -0.05120 0.46962
 N1319 N 0.33754 -0.05825 0.46273
 C1320 C 0.33206 -0.05500 0.44382
 N1321 N 0.34409 -0.04414 0.43219
 N1322 N 0.36088 -0.03697 0.43911
 C1323 C 0.38538 -0.03334 0.46517
 N1324 N 0.39612 -0.02053 0.45435
 N1325 N 0.41367 -0.01462 0.46051
 C1326 C 0.42121 -0.02139 0.47766
 N1327 N 0.41045 -0.03418 0.48852
 N1328 N 0.39282 -0.03999 0.48241
 C1329 C 0.36604 0.45977 -0.04177
 N1330 N 0.36046 0.46333 -0.06054
 N1331 N 0.34364 0.45618 -0.06742
 C1332 C 0.33164 0.44530 -0.05579
 N1333 N 0.33718 0.44199 -0.03691
 N1334 N 0.35407 0.44901 -0.03005
 C1335 C 0.38505 0.46685 -0.03455
 N1336 N 0.39252 0.46016 -0.01734
 N1337 N 0.41018 0.46593 -0.01127
 C1338 C 0.42093 0.47872 -0.02213
 N1339 N 0.41336 0.48553 -0.03925
 N1340 N 0.39578 0.47966 -0.04538
 C1341 C 0.38362 0.45898 0.79234
 N1342 N 0.39547 0.44790 0.78077
 N1343 N 0.41227 0.44074 0.78775
 C1344 C 0.41781 0.44423 0.80660
 N1345 N 0.40592 0.45541 0.81808
 N1346 N 0.38921 0.46269 0.81108
 C1347 C 0.36473 0.46623 0.78500
 N1348 N 0.35409 0.47923 0.79572
 N1349 N 0.33658 0.48525 0.78951
 C1350 C 0.32901 0.47841 0.77240
 N1351 N 0.33967 0.46544 0.76164
 N1352 N 0.35725 0.45951 0.76780
 C1353 C 0.38363 -0.04051 0.29228
 N1354 N 0.38923 -0.03689 0.31104
 N1355 N 0.40589 -0.04430 0.31802
 C1356 C 0.41772 -0.05552 0.30651
 N1357 N 0.41216 -0.05892 0.28765
 N1358 N 0.39542 -0.05163 0.28069
 C1359 C 0.36477 -0.03313 0.28497
 N1360 N 0.35729 -0.03971 0.26771
 N1361 N 0.33972 -0.03371 0.26159
 C1362 C 0.32907 -0.02081 0.27244
 N1363 N 0.33665 -0.01410 0.28959
 N1364 N 0.35415 -0.02019 0.29577
 C1365 C 0.11400 0.54039 0.71183
 N1366 N 0.10219 0.52876 0.70081
 N1367 N 0.08543 0.53571 0.69354
 C1368 C 0.07990 0.55462 0.69683
 N1369 N 0.09174 0.56616 0.70798
 N1370 N 0.10841 0.55918 0.71538
 C1371 C 0.13297 0.53317 0.71901
 N1372 N 0.14364 0.54408 0.73180
 N1373 N 0.16135 0.53816 0.73750
 C1374 C 0.16912 0.52117 0.73054
 N1375 N 0.15840 0.51018 0.71783
 N1376 N 0.14062 0.51605 0.71222
 C1377 C 0.11372 0.03991 0.21196
 N1378 N 0.10792 0.05862 0.21556
 N1379 N 0.09110 0.06539 0.20831
 C1380 C 0.07930 0.05370 0.19728
 N1381 N 0.08505 0.03486 0.19393
 N1382 N 0.10195 0.02812 0.20105
 C1383 C 0.13283 0.03292 0.21901
 N1384 N 0.14055 0.01579 0.21230
 N1385 N 0.15841 0.01010 0.21783
 C1386 C 0.16914 0.02126 0.23037
 N1387 N 0.16132 0.03826 0.23724
 N1388 N 0.14352 0.04401 0.23162
 C1389 C 0.63619 0.70999 0.21128
 N1390 N 0.64198 0.69131 0.21506
 N1391 N 0.65869 0.68439 0.20767
 C1392 C 0.67037 0.69587 0.19630
 N1393 N 0.66462 0.71467 0.19275
 N1394 N 0.64783 0.72157 0.20002
 C1395 C 0.61719 0.71713 0.21850
 N1396 N 0.60944 0.73418 0.21167
 N1397 N 0.59165 0.73999 0.21734
 C1398 C 0.58103 0.72902 0.23014
 N1399 N 0.58889 0.71210 0.23714
 N1400 N 0.60661 0.70624 0.23138
 C1401 C 0.13396 0.70848 0.70937
 N1402 N 0.13980 0.68982 0.71320
 N1403 N 0.15666 0.68301 0.70604
 C1404 C 0.16844 0.69460 0.69488
 N1405 N 0.16264 0.71337 0.69128
 N1406 N 0.14570 0.72015 0.69832
 C1407 C 0.11492 0.71561 0.71649
 N1408 N 0.10730 0.73275 0.70974
 N1409 N 0.08962 0.73875 0.71557
 C1410 C 0.07899 0.72789 0.72846
 N1411 N 0.08670 0.71084 0.73532
 N1412 N 0.10430 0.70478 0.72940
 C1413 C 0.61526 0.20933 0.53914
 N1414 N 0.60949 0.19061 0.53554
 N1415 N 0.59256 0.18391 0.54260
 C1416 C 0.58064 0.19567 0.55346
 N1417 N 0.58636 0.21450 0.55681
 N1418 N 0.60336 0.22118 0.54986
 C1419 C 0.63441 0.21633 0.53221
 N1420 N 0.64196 0.23354 0.53885
 N1421 N 0.65974 0.23940 0.53324
 C1422 C 0.67057 0.22831 0.52069
 N1423 N 0.66293 0.21119 0.51392
 N1424 N 0.64522 0.20528 0.51963
 C1425 C 0.61538 0.70903 0.03933
 N1426 N 0.60955 0.69033 0.03576
 N1427 N 0.59260 0.68369 0.04285
 C1428 C 0.58072 0.69551 0.05370
 N1429 N 0.58651 0.71432 0.05702
 N1430 N 0.60353 0.72093 0.05005
 C1431 C 0.63454 0.71597 0.03235
 N1432 N 0.64213 0.73317 0.03895
 N1433 N 0.65991 0.73900 0.03327
 C1434 C 0.67067 0.72789 0.02069
 N1435 N 0.66298 0.71077 0.01396
 N1436 N 0.64528 0.70489 0.01973
 C1437 C 0.13577 0.04038 0.03847
 N1438 N 0.14128 0.05920 0.03499
 N1439 N 0.15793 0.06620 0.04239
 C1440 C 0.16984 0.05467 0.05346
 N1441 N 0.16439 0.03573 0.05669
 N1442 N 0.14765 0.02875 0.04942
 C1443 C 0.11681 0.03315 0.03128
 N1444 N 0.10923 0.01598 0.03798
 N1445 N 0.09145 0.01011 0.03236
 C1446 C 0.08070 0.02114 0.01971
 N1447 N 0.08841 0.03817 0.01284
 N1448 N 0.10610 0.04410 0.01856
 C1449 C 0.13575 0.54052 0.53884
 N1450 N 0.14124 0.55934 0.53540
 N1451 N 0.15789 0.56634 0.54280
 C1452 C 0.16981 0.55479 0.55386
 N1453 N 0.16437 0.53585 0.55705
 N1454 N 0.14763 0.52887 0.54977
 C1455 C 0.11680 0.53328 0.53162
 N1456 N 0.10923 0.51608 0.53828
 N1457 N 0.09147 0.51020 0.53262
 C1458 C 0.08073 0.52123 0.51997
 N1459 N 0.08843 0.53829 0.51313
 N1460 N 0.10610 0.54423 0.51889
 C1461 C 0.63621 0.04047 0.53818
 N1462 N 0.64805 0.02883 0.54916
 N1463 N 0.66478 0.03580 0.55646
 C1464 C 0.67027 0.05472 0.55323
 N1465 N 0.65841 0.06627 0.54211
 N1466 N 0.64176 0.05928 0.53468
 C1467 C 0.61725 0.03325 0.53099
 N1468 N 0.60655 0.04417 0.51823
 N1469 N 0.58885 0.03824 0.51252
 C1470 C 0.58112 0.02124 0.51947
 N1471 N 0.59186 0.01025 0.53215
 N1472 N 0.60964 0.01612 0.53776
 C1473 C 0.63598 0.54046 0.03830
 N1474 N 0.64785 0.52883 0.04926
 N1475 N 0.66458 0.53581 0.05653
 C1476 C 0.67004 0.55474 0.05330
 N1477 N 0.65814 0.56628 0.04221
 N1478 N 0.64149 0.55927 0.03481
 C1479 C 0.61702 0.53323 0.03113
 N1480 N 0.60632 0.54414 0.01837
 N1481 N 0.58861 0.53822 0.01267
 C1482 C 0.58088 0.52122 0.01962
 N1483 N 0.59163 0.51023 0.03230
 N1484 N 0.60941 0.51610 0.03790
 C1485 C 0.03988 0.03789 0.13650
 N1486 N 0.02816 0.04886 0.14830
 N1487 N 0.03494 0.05602 0.16519
 C1488 C 0.05375 0.05266 0.17088
 N1489 N 0.06538 0.04154 0.15906
 N1490 N 0.05857 0.03426 0.14225
 C1491 C 0.03285 0.03085 0.11739
 N1492 N 0.04383 0.01814 0.10667
 N1493 N 0.03804 0.01255 0.08886
 C1494 C 0.02112 0.01955 0.08105
 N1495 N 0.01007 0.03219 0.09181
 N1496 N 0.01580 0.03769 0.10969
 C1497 C 0.04025 0.53868 0.63624
 N1498 N 0.02871 0.55000 0.64789
 N1499 N 0.03563 0.55732 0.66466
 C1500 C 0.05440 0.55375 0.67037
 N1501 N 0.06584 0.54230 0.65870
 N1502 N 0.05890 0.53487 0.64201
 C1503 C 0.03308 0.53143 0.61726
 N1504 N 0.04393 0.51849 0.60667
 N1505 N 0.03805 0.51272 0.58895
 C1506 C 0.02115 0.51974 0.58111
 N1507 N 0.01022 0.53259 0.59175
 N1508 N 0.01605 0.53828 0.60954
 C1509 C 0.53985 0.03786 0.63630
 N1510 N 0.52816 0.04892 0.64805
 N1511 N 0.53493 0.05607 0.66494
 C1512 C 0.55371 0.05261 0.67069
 N1513 N 0.56530 0.04141 0.65892
 N1514 N 0.55850 0.03414 0.64211
 C1515 C 0.53284 0.03085 0.61717
 N1516 N 0.54375 0.01801 0.60652
 N1517 N 0.53799 0.01244 0.58870
 C1518 C 0.52118 0.01959 0.58079
 N1519 N 0.51020 0.03235 0.59148
 N1520 N 0.51589 0.03783 0.60938
 C1521 C 0.53983 0.53789 0.13641
 N1522 N 0.52819 0.54901 0.14815
 N1523 N 0.53502 0.55618 0.16502
 C1524 C 0.55380 0.55268 0.17073
 N1525 N 0.56534 0.54142 0.15897
 N1526 N 0.55848 0.53412 0.14219
 C1527 C 0.53276 0.53086 0.11730
 N1528 N 0.54362 0.51799 0.10665
 N1529 N 0.53781 0.51241 0.08884
 C1530 C 0.52100 0.51959 0.08096
 N1531 N 0.51007 0.53239 0.09165
 N1532 N 0.51581 0.53787 0.10953
 C1533 C 0.20968 0.53876 0.61428
 N1534 N 0.19106 0.53484 0.60849
 N1535 N 0.18406 0.54231 0.59185
 C1536 C 0.19539 0.55391 0.58024
 N1537 N 0.21413 0.55759 0.58598
 N1538 N 0.22111 0.55024 0.60270
 C1539 C 0.21691 0.53148 0.63322
 N1540 N 0.23385 0.53848 0.64101
 N1541 N 0.23971 0.53278 0.65878
 C1542 C 0.22892 0.51976 0.66933
 N1543 N 0.21213 0.51259 0.66142
 N1544 N 0.20620 0.51838 0.64372
 C1545 C 0.20958 0.03875 0.11398
 N1546 N 0.19094 0.03491 0.10821
 N1547 N 0.18397 0.04234 0.09155
 C1548 C 0.19537 0.05382 0.07988
 N1549 N 0.21413 0.05742 0.08559
 N1550 N 0.22108 0.05010 0.10234
 C1551 C 0.21677 0.03150 0.13295
 N1552 N 0.23380 0.03837 0.14066
 N1553 N 0.23964 0.03269 0.15844
 C1554 C 0.22874 0.01983 0.16908
 N1555 N 0.21185 0.01280 0.16125
 N1556 N 0.20595 0.01857 0.14354
 C1557 C 0.70888 0.21027 0.63454
 N1558 N 0.69021 0.21391 0.64037
 N1559 N 0.68356 0.20690 0.65736
 C1560 C 0.69534 0.19608 0.66928
 N1561 N 0.71412 0.19271 0.66349
 N1562 N 0.72075 0.19959 0.64643
 C1563 C 0.71585 0.21717 0.61535
 N1564 N 0.73299 0.21044 0.60774
 N1565 N 0.73886 0.21607 0.58995
 C1566 C 0.72786 0.22873 0.57919
 N1567 N 0.71081 0.23557 0.58688
 N1568 N 0.70487 0.22984 0.60460
 C1569 C 0.70926 0.71078 0.13493
 N1570 N 0.72111 0.70010 0.14683
 N1571 N 0.71446 0.69316 0.16386
 C1572 C 0.69564 0.69647 0.16960
 N1573 N 0.68387 0.70728 0.15766
 N1574 N 0.69056 0.71434 0.14071
 C1575 C 0.71624 0.71772 0.11576
 N1576 N 0.70520 0.73030 0.10497
 N1577 N 0.71110 0.73602 0.08724
 C1578 C 0.72821 0.72928 0.07958
 N1579 N 0.73930 0.71673 0.09039
 N1580 N 0.73345 0.71111 0.10819
 C1581 C 0.54050 0.71193 0.11385
 N1582 N 0.52893 0.70084 0.10203
 N1583 N 0.53593 0.69354 0.08528
 C1584 C 0.55480 0.69686 0.07975
 N1585 N 0.56626 0.70809 0.09159
 N1586 N 0.55925 0.71552 0.10826
 C1587 C 0.53326 0.71909 0.13284
 N1588 N 0.54404 0.73200 0.14349
 N1589 N 0.53811 0.73767 0.16124
 C1590 C 0.52124 0.73056 0.16905
 N1591 N 0.51037 0.71773 0.15835
 N1592 N 0.51624 0.71215 0.14053
 C1593 C 0.04200 0.71020 0.61580
 N1594 N 0.03024 0.69949 0.60383
 N1595 N 0.03709 0.69235 0.58695
 C1596 C 0.05600 0.69548 0.58143
 N1597 N 0.06767 0.70632 0.59343
 N1598 N 0.06080 0.71358 0.61024
 C1599 C 0.03480 0.71737 0.63481
 N1600 N 0.04572 0.73005 0.64559
 N1601 N 0.03962 0.73597 0.66320
 C1602 C 0.02244 0.72932 0.67075
 N1603 N 0.01147 0.71666 0.65994
 N1604 N 0.01751 0.71085 0.64226
 C1605 C 0.53830 0.61373 0.21000
 N1606 N 0.53470 0.60794 0.19129
 N1607 N 0.54194 0.59109 0.18451
 C1608 C 0.55296 0.57925 0.19617
 N1609 N 0.55631 0.58499 0.21500
 N1610 N 0.54919 0.60192 0.22176
 C1611 C 0.53126 0.63288 0.21700
 N1612 N 0.53796 0.64059 0.23412
 N1613 N 0.53243 0.65848 0.23983
 C1614 C 0.51989 0.66924 0.22870
 N1615 N 0.51302 0.66142 0.21172
 N1616 N 0.51865 0.64360 0.20595
 C1617 C 0.03945 0.61519 0.70925
 N1618 N 0.03590 0.60939 0.69054
 N1619 N 0.04299 0.59244 0.68385
 C1620 C 0.05381 0.58051 0.69562
 N1621 N 0.05711 0.58627 0.71444
 N1622 N 0.05014 0.60330 0.72111
 C1623 C 0.03246 0.63436 0.71625
 N1624 N 0.03903 0.64194 0.73347
 N1625 N 0.03337 0.65974 0.73933
 C1626 C 0.02082 0.67054 0.72825
 N1627 N 0.01412 0.66287 0.71112
 N1628 N 0.01988 0.64514 0.70520
 C1629 C 0.03871 0.13604 0.03992
 N1630 N 0.03486 0.14191 0.05856
 N1631 N 0.04230 0.15861 0.06547
 C1632 C 0.05381 0.17019 0.05402
 N1633 N 0.05742 0.16438 0.03527
 N1634 N 0.05010 0.14760 0.02838
 C1635 C 0.03147 0.11704 0.03280
 N1636 N 0.03841 0.10917 0.01585
 N1637 N 0.03274 0.09136 0.01007
 C1638 C 0.01980 0.08083 0.02098
 N1639 N 0.01268 0.08881 0.03779
 N1640 N 0.01845 0.10656 0.04362
 C1641 C 0.03933 0.63556 0.54099
 N1642 N 0.05076 0.64720 0.52957
 N1643 N 0.05826 0.66381 0.53668
 C1644 C 0.05479 0.66936 0.55555
 N1645 N 0.04325 0.65769 0.56688
 N1646 N 0.03563 0.64117 0.55974
 C1647 C 0.03189 0.61673 0.53361
 N1648 N 0.01878 0.60624 0.54431
 N1649 N 0.01286 0.58862 0.53827
 C1650 C 0.01992 0.58077 0.52137
 N1651 N 0.03295 0.59132 0.51058
 N1652 N 0.03877 0.60901 0.51656
 C1653 C 0.53904 0.13612 0.54005
 N1654 N 0.53528 0.14193 0.55872
 N1655 N 0.54266 0.15866 0.56561
 C1656 C 0.55400 0.17035 0.55410
 N1657 N 0.55754 0.16458 0.53531
 N1658 N 0.55028 0.14777 0.52844
 C1659 C 0.53182 0.11710 0.53294
 N1660 N 0.53855 0.10935 0.51584
 N1661 N 0.53286 0.09154 0.51005
 C1662 C 0.52013 0.08090 0.52109
 N1663 N 0.51324 0.08877 0.53806
 N1664 N 0.51901 0.10651 0.54390
 C1665 C 0.53897 0.63608 0.04030
 N1666 N 0.53527 0.64187 0.05898
 N1667 N 0.54269 0.65859 0.06587
 C1668 C 0.55401 0.67027 0.05434
 N1669 N 0.55749 0.66452 0.03554
 N1670 N 0.55019 0.64772 0.02867
 C1671 C 0.53170 0.61707 0.03318
 N1672 N 0.53839 0.60934 0.01606
 N1673 N 0.53266 0.59155 0.01026
 C1674 C 0.51994 0.58091 0.02131
 N1675 N 0.51309 0.58876 0.03831
 N1676 N 0.51890 0.60649 0.04415
 C1677 C 0.71067 0.11533 0.54106
 N1678 N 0.71423 0.10947 0.55975
 N1679 N 0.70714 0.09251 0.56638
 C1680 C 0.69631 0.08063 0.55457
 N1681 N 0.69300 0.08644 0.53577
 N1682 N 0.69997 0.10348 0.52916
 C1683 C 0.71768 0.13449 0.53412
 N1684 N 0.71111 0.14211 0.51691
 N1685 N 0.71681 0.15990 0.51108
 C1686 C 0.72938 0.17065 0.52219
 N1687 N 0.73606 0.16295 0.53930
 N1688 N 0.73027 0.14523 0.54518
 C1689 C 0.71019 0.61546 0.04105
 N1690 N 0.71383 0.60961 0.05972
 N1691 N 0.70683 0.59261 0.06637
 C1692 C 0.69602 0.58070 0.05458
 N1693 N 0.69264 0.58650 0.03579
 N1694 N 0.69951 0.60357 0.02917
 C1695 C 0.71708 0.63466 0.03409
 N1696 N 0.71037 0.64229 0.01696
 N1697 N 0.71600 0.66009 0.01110
 C1698 C 0.72865 0.67084 0.02211
 N1699 N 0.73548 0.66313 0.03916
 N1700 N 0.72975 0.64540 0.04508
 C1701 C 0.21055 0.63554 0.70909
 N1702 N 0.21426 0.64109 0.69034
 N1703 N 0.20670 0.65763 0.68319
 C1704 C 0.19522 0.66938 0.69451
 N1705 N 0.19173 0.66389 0.71338
 N1706 N 0.19918 0.64726 0.72051
 C1707 C 0.21796 0.61670 0.71648
 N1708 N 0.21122 0.60909 0.73362
 N1709 N 0.21706 0.59140 0.73962
 C1710 C 0.22995 0.58075 0.72875
 N1711 N 0.23686 0.58849 0.71174
 N1712 N 0.23094 0.60611 0.70570
 C1713 C 0.21177 0.13625 0.20973
 N1714 N 0.21541 0.14186 0.19098
 N1715 N 0.20802 0.15854 0.18397
 C1716 C 0.19678 0.17038 0.19544
 N1717 N 0.19340 0.16484 0.21432
 N1718 N 0.20067 0.14808 0.22131
 C1719 C 0.21890 0.11725 0.21695
 N1720 N 0.21195 0.10955 0.23397
 N1721 N 0.21750 0.09171 0.23982
 C1722 C 0.23033 0.08102 0.22894
 N1723 N 0.23746 0.08884 0.21206
 N1724 N 0.23181 0.10659 0.20615
 C1725 C 0.71165 1.13599 0.70958
 N1726 N 0.71524 1.14153 0.69080
 N1727 N 0.70783 1.15820 0.68377
 C1728 C 0.69663 1.17008 0.69525
 N1729 N 0.69331 1.16459 0.71416
 N1730 N 0.70059 1.14784 0.72116
 C1731 C 0.71881 1.11700 0.71683
 N1732 N 0.71186 1.10932 0.73386
 N1733 N 0.71743 1.09149 0.73973
 C1734 C 0.73025 1.08078 0.72885
 N1735 N 0.73737 1.08858 0.71196
 N1736 N 0.73171 1.10633 0.70603
 C1737 C 0.71183 0.63622 0.20973
 N1738 N 0.71547 0.64184 0.19098
 N1739 N 0.70809 0.65853 0.18399
 C1740 C 0.69687 0.67038 0.19549
 N1741 N 0.69349 0.66482 0.21436
 N1742 N 0.70075 0.64804 0.22132
 C1743 C 0.71896 0.61720 0.21693
 N1744 N 0.71200 0.60948 0.23393
 N1745 N 0.71755 0.59164 0.23976
 C1746 C 0.73038 0.58095 0.22887
 N1747 N 0.73751 0.58879 0.21200
 N1748 N 0.73186 0.60655 0.20611
 C1749 C 0.53802 0.11350 0.71018
 N1750 N 0.53431 0.10769 0.69150
 N1751 N 0.54157 0.09087 0.68466
 C1752 C 0.55276 0.07909 0.69624
 N1753 N 0.55621 0.08484 0.71504
 N1754 N 0.54907 0.10174 0.72185
 C1755 C 0.53099 0.13263 0.71723
 N1756 N 0.53795 0.14042 0.73420
 N1757 N 0.53246 0.15832 0.73994
 C1758 C 0.51970 0.16900 0.72897
 N1759 N 0.51258 0.16109 0.71213
 N1760 N 0.51817 0.14327 0.70634
 C1761 C 1.03802 0.11359 0.21025
 N1762 N 1.03431 0.10774 0.19159
 N1763 N 1.04159 0.09092 0.18478
 C1764 C 1.05279 0.07917 0.19638
 N1765 N 1.05624 0.08496 0.21517
 N1766 N 1.04908 0.10187 0.22195
 C1767 C 1.03098 0.13273 0.21727
 N1768 N 1.03793 0.14056 0.23423
 N1769 N 1.03243 0.15847 0.23992
 C1770 C 1.01968 0.16913 0.22893
 N1771 N 1.01257 0.16118 0.21210
 N1772 N 1.01816 0.14335 0.20635
 C1773 C 0.21004 0.61542 0.54139
 N1774 N 0.21367 0.60962 0.56008
 N1775 N 0.20665 0.59266 0.56679
 C1776 C 0.19583 0.58071 0.55504
 N1777 N 0.19244 0.58646 0.53624
 N1778 N 0.19934 0.60350 0.52956
 C1779 C 0.21698 0.63457 0.53436
 N1780 N 0.21029 0.64215 0.51719
 N1781 N 0.21597 0.65991 0.51125
 C1782 C 0.22865 0.67067 0.52221
 N1783 N 0.23546 0.66301 0.53930
 N1784 N 0.22968 0.64532 0.54529
 C1785 C 0.21001 0.11535 1.04109
 N1786 N 0.19932 0.10345 1.02924
 N1787 N 0.19244 0.08639 1.03589
 C1788 C 0.19584 0.08061 1.05469
 N1789 N 0.20666 0.09254 1.06645
 N1790 N 0.21366 0.10952 1.05978
 C1791 C 0.21692 0.13453 1.03411
 N1792 N 0.22960 0.14527 1.04507
 N1793 N 0.23534 0.16299 1.03912
 C1794 C 0.22852 0.17068 1.02206
 N1795 N 0.21586 0.15992 1.01107
 N1796 N 0.21021 0.14213 1.01695
 C1797 C 0.20833 0.71012 0.63432
 N1798 N 0.22003 0.69941 0.64635
 N1799 N 0.21311 0.69232 0.66321
 C1800 C 0.19418 0.69549 0.66863
 N1801 N 0.18256 0.70632 0.65657
 N1802 N 0.18951 0.71354 0.63979
 C1803 C 0.21560 0.71724 0.61533
 N1804 N 0.20470 0.72990 0.60449
 N1805 N 0.21083 0.73575 0.58688
 C1806 C 0.22804 0.72905 0.57939
 N1807 N 0.23898 0.71643 0.59025
 N1808 N 0.23291 0.71068 0.60793
 C1809 C 0.20913 0.21073 1.13484
 N1810 N 0.19043 0.21429 1.14062
 N1811 N 0.18375 0.20724 1.15758
 C1812 C 0.19552 0.19644 1.16953
 N1813 N 0.21434 0.19314 1.16379
 N1814 N 0.22099 0.20007 1.14675
 C1815 C 0.21611 0.21765 1.11566
 N1816 N 0.23332 0.21104 1.10810
 N1817 N 0.23916 0.21664 1.09029
 C1818 C 0.22807 0.22916 1.07946
 N1819 N 0.21095 0.23590 1.08711
 N1820 N 0.20505 0.23020 1.10485
 C1821 C 0.70973 0.53878 0.11384
 N1822 N 0.69109 0.53496 0.10806
 N1823 N 0.68413 0.54240 0.09140
 C1824 C 0.69554 0.55388 0.07975
 N1825 N 0.71431 0.55747 0.08547
 N1826 N 0.72124 0.55014 0.10222
 C1827 C 0.71691 0.53153 0.13281
 N1828 N 0.73393 0.53838 0.14054
 N1829 N 0.73976 0.53268 0.15832
 C1830 C 0.72885 0.51983 0.16894
 N1831 N 0.71197 0.51280 0.16109
 N1832 N 0.70608 0.51858 0.14338
 C1833 C 0.70976 1.03868 0.61387
 N1834 N 0.69111 1.03494 0.60807
 N1835 N 0.68421 1.04241 0.59139
 C1836 C 0.69569 1.05383 0.57975
 N1837 N 0.71446 1.05734 0.58550
 N1838 N 0.72134 1.04998 0.60226
 C1839 C 0.71689 1.03140 0.63285
 N1840 N 0.73393 1.03818 0.64059
 N1841 N 0.73973 1.03247 0.65838
 C1842 C 0.72876 1.01965 0.66899
 N1843 N 0.71185 1.01269 0.66113
 N1844 N 0.70600 1.01850 0.64341
 C1845 C 0.54055 0.21182 0.61375
 N1846 N 0.55931 0.21537 0.60817
 N1847 N 0.56630 0.20800 0.59147
 C1848 C 0.55479 0.19688 0.57957
 N1849 N 0.53590 0.19359 0.58508
 N1850 N 0.52894 0.20084 0.60188
 C1851 C 0.53334 0.21894 0.63277
 N1852 N 0.51625 0.21212 0.64039
 N1853 N 0.51039 0.21768 0.65822
 C1854 C 0.52135 0.23037 0.66899
 N1855 N 0.53831 0.23736 0.66125
 N1856 N 0.54422 0.23170 0.64349
 C1857 C 1.04052 0.21175 0.11366
 N1858 N 1.05930 0.21521 0.10810
 N1859 N 1.06627 0.20780 0.09140
 C1860 C 1.05471 0.19671 0.07951
 N1861 N 1.03581 0.19352 0.08502
 N1862 N 1.02887 0.20081 0.10180
 C1863 C 1.03333 0.21893 0.13267
 N1864 N 1.01621 0.21217 0.14030
 N1865 N 1.01036 0.21777 0.15811
 C1866 C 1.02135 0.23043 0.16888
 N1867 N 1.03834 0.23735 0.16114
 N1868 N 1.04425 0.23166 0.14340
 C1869 C 0.63597 0.20967 0.71107
 N1870 N 0.64175 0.19098 0.71483
 N1871 N 0.65845 0.18406 0.70742
 C1872 C 0.67011 0.19554 0.69603
 N1873 N 0.66438 0.21434 0.69250
 N1874 N 0.64760 0.22125 0.69980
 C1875 C 0.61699 0.21681 0.71834
 N1876 N 0.60927 0.23392 0.71160
 N1877 N 0.59149 0.23973 0.71732
 C1878 C 0.58086 0.22871 0.73008
 N1879 N 0.58870 0.21174 0.73698
 N1880 N 0.60641 0.20588 0.73118
 C1881 C 1.13603 0.20990 0.21116
 N1882 N 1.14182 0.19122 0.21491
 N1883 N 1.15855 0.18432 0.20754
 C1884 C 1.17024 0.19583 0.19621
 N1885 N 1.16449 0.21463 0.19268
 N1886 N 1.14769 0.22151 0.19994
 C1887 C 1.11702 0.21702 0.21837
 N1888 N 1.10930 0.23412 0.21163
 N1889 N 1.09150 0.23991 0.21730
 C1890 C 1.08085 0.22888 0.23002
 N1891 N 1.08868 0.21191 0.23693
 N1892 N 1.10641 0.20606 0.23117
 C1893 C 0.11600 0.70830 0.54031
 N1894 N 0.11016 0.68962 0.53661
 N1895 N 0.09335 0.68285 0.54389
 C1896 C 0.08162 0.69450 0.55507
 N1897 N 0.08741 0.71328 0.55855
 N1898 N 0.10430 0.72003 0.55138
 C1899 C 0.13499 0.71540 0.53305
 N1900 N 0.14259 0.73261 0.53961
 N1901 N 0.16024 0.73857 0.53368
 C1902 C 0.17087 0.72758 0.52088
 N1903 N 0.16318 0.71046 0.51419
 N1904 N 0.14559 0.70445 0.52021
 C1905 C 0.11526 0.20888 1.03909
 N1906 N 0.10943 0.19017 1.03554
 N1907 N 0.09248 0.18354 1.04261
 C1908 C 0.08058 0.19537 1.05342
 N1909 N 0.08636 0.21419 1.05673
 N1910 N 0.10339 0.22079 1.04978
 C1911 C 0.13441 0.21581 1.03212
 N1912 N 0.14201 0.23302 1.03871
 N1913 N 0.15979 0.23884 1.03305
 C1914 C 0.17056 0.22772 1.02049
 N1915 N 0.16289 0.21060 1.01377
 N1916 N 0.14517 0.20472 1.01953
 C1917 C 0.61379 0.53987 0.21180
 N1918 N 0.60801 0.55859 0.21541
 N1919 N 0.59119 0.56537 0.20817
 C1920 C 0.57939 0.55370 0.19711
 N1921 N 0.58513 0.53487 0.19375
 N1922 N 0.60202 0.52810 0.20088
 C1923 C 0.63290 0.53287 0.21884
 N1924 N 0.64062 0.51575 0.21212
 N1925 N 0.65848 0.51004 0.21764
 C1926 C 0.66921 0.52118 0.23021
 N1927 N 0.66138 0.53818 0.23710
 N1928 N 0.64359 0.54394 0.23148
 C1929 C 0.61365 1.03976 0.71179
 N1930 N 0.60788 1.05849 0.71537
 N1931 N 0.59106 1.06528 0.70813
 C1932 C 0.57925 1.05360 0.69710
 N1933 N 0.58497 1.03475 0.69377
 N1934 N 0.60186 1.02799 0.70089
 C1935 C 0.63276 1.03276 0.71883
 N1936 N 0.64046 1.01563 0.71212
 N1937 N 0.65832 1.00991 0.71765
 C1938 C 0.66906 1.02106 0.73021
 N1939 N 0.66124 1.03807 0.73708
 N1940 N 0.64345 1.04383 0.73145
 C1941 C 0.88356 0.45929 0.29236
 N1942 N 0.89541 0.44820 0.28079
 N1943 N 0.91213 0.44091 0.28780
 C1944 C 0.91760 0.44427 0.30670
 N1945 N 0.90572 0.45545 0.31818
 N1946 N 0.88907 0.46286 0.31115
 C1947 C 0.86474 0.46669 0.28499
 N1948 N 0.85409 0.47963 0.29578
 N1949 N 0.83663 0.48575 0.28955
 C1950 C 0.82909 0.47907 0.27236
 N1951 N 0.83976 0.46617 0.26153
 N1952 N 0.85730 0.46014 0.26769
 C1953 C 0.88389 0.96009 0.79191
 N1954 N 0.89589 0.94941 0.78014
 N1955 N 0.91276 0.94230 0.78698
 C1956 C 0.91823 0.94545 0.80592
 N1957 N 0.90620 0.95625 0.81761
 N1958 N 0.88941 0.96348 0.81073
 C1959 C 0.86490 0.96725 0.78472
 N1960 N 0.85412 0.97993 0.79567
 N1961 N 0.83653 0.98584 0.78958
 C1962 C 0.82901 0.97918 0.77238
 N1963 N 0.83981 0.96652 0.76139
 N1964 N 0.85747 0.96071 0.76742
 C1965 C 0.36609 0.29031 0.79177
 N1966 N 0.36028 0.28661 0.81045
 N1967 N 0.34347 0.29389 0.81726
 C1968 C 0.33172 0.30506 0.80566
 N1969 N 0.33750 0.30855 0.78687
 N1970 N 0.35438 0.30138 0.78008
 C1971 C 0.38508 0.28305 0.78463
 N1972 N 0.39267 0.28963 0.76742
 N1973 N 0.41032 0.28370 0.76143
 C1974 C 0.42094 0.27087 0.77236
 N1975 N 0.41326 0.26416 0.78947
 N1976 N 0.39568 0.27018 0.79552
 C1977 C 0.86596 0.29034 0.29147
 N1978 N 0.86012 0.28660 0.31013
 N1979 N 0.84329 0.29385 0.31693
 C1980 C 0.83155 0.30504 0.30533
 N1981 N 0.83736 0.30856 0.28656
 N1982 N 0.85425 0.30143 0.27979
 C1983 C 0.88496 0.28310 0.28435
 N1984 N 0.89258 0.28971 0.26716
 N1985 N 0.91024 0.28380 0.26119
 C1986 C 0.92086 0.27097 0.27213
 N1987 N 0.91315 0.26423 0.28923
 N1988 N 0.89556 0.27023 0.29525
 C1989 C 0.38540 0.78935 0.45895
 N1990 N 0.39707 0.80070 0.47041
 N1991 N 0.41368 0.80818 0.46331
 C1992 C 0.41920 0.80476 0.44443
 N1993 N 0.40749 0.79331 0.43306
 N1994 N 0.39097 0.78571 0.44019
 C1995 C 0.36660 0.78188 0.46632
 N1996 N 0.35605 0.76891 0.45552
 N1997 N 0.33846 0.76294 0.46156
 C1998 C 0.33072 0.76981 0.47860
 N1999 N 0.34132 0.78269 0.48949
 N2000 N 0.35898 0.78857 0.48350
 C2001 C 0.38516 0.28951 0.95891
 N2002 N 0.39687 0.30082 0.97036
 N2003 N 0.41346 0.30831 0.96323
 C2004 C 0.41890 0.30495 0.94431
 N2005 N 0.40715 0.29353 0.93295
 N2006 N 0.39065 0.28592 0.94011
 C2007 C 0.36637 0.28202 0.96631
 N2008 N 0.35582 0.26905 0.95551
 N2009 N 0.33825 0.26307 0.96157
 C2010 C 0.33052 0.26992 0.97862
 N2011 N 0.34113 0.28281 0.98951
 N2012 N 0.35878 0.28870 0.98350
 C2013 C 0.79098 0.45830 0.38377
 N2014 N 0.78720 0.43963 0.38958
 N2015 N 0.79441 0.43280 0.40641
 C2016 C 0.80560 0.44438 0.41818
 N2017 N 0.80915 0.46316 0.41240
 N2018 N 0.80206 0.46996 0.39550
 C2019 C 0.78378 0.46547 0.36477
 N2020 N 0.79047 0.48263 0.35716
 N2021 N 0.78456 0.48867 0.33952
 C2022 C 0.77166 0.47782 0.32891
 N2023 N 0.76485 0.46075 0.33661
 N2024 N 0.77084 0.45465 0.35418
 C2025 C 0.79071 0.95840 0.88396
 N2026 N 0.78694 0.93975 0.88982
 N2027 N 0.79415 0.93296 0.90666
 C2028 C 0.80533 0.94457 0.91841
 N2029 N 0.80888 0.96334 0.91259
 N2030 N 0.80178 0.97010 0.89567
 C2031 C 0.78352 0.96552 0.86494
 N2032 N 0.79020 0.98268 0.85730
 N2033 N 0.78431 0.98867 0.83965
 C2034 C 0.77142 0.97779 0.82905
 N2035 N 0.76461 0.96072 0.83677
 N2036 N 0.77060 0.95467 0.85437
 C2037 C 0.28945 0.79080 0.36453
 N2038 N 0.28558 0.80952 0.35897
 N2039 N 0.29317 0.81676 0.34248
 C2040 C 0.30486 0.80556 0.33081
 N2041 N 0.30849 0.78671 0.33632
 N2042 N 0.30102 0.77950 0.35289
 C2043 C 0.28201 0.78332 0.38332
 N2044 N 0.28901 0.76632 0.39103
 N2045 N 0.28317 0.76027 0.40870
 C2046 C 0.27002 0.77094 0.41922
 N2047 N 0.26285 0.78780 0.41139
 N2048 N 0.26877 0.79390 0.39379
 C2049 C 0.28938 0.29084 0.86453
 N2050 N 0.28564 0.30959 0.85897
 N2051 N 0.29328 0.31678 0.84248
 C2052 C 0.30488 0.30549 0.83080
 N2053 N 0.30839 0.28662 0.83631
 N2054 N 0.30087 0.27946 0.85289
 C2055 C 0.28192 0.28341 0.88333
 N2056 N 0.28882 0.26636 0.89102
 N2057 N 0.28297 0.26034 0.90869
 C2058 C 0.26988 0.27107 0.91923
 N2059 N 0.26279 0.28797 0.91141
 N2060 N 0.26874 0.29405 0.89381
 C2061 C 0.45952 0.29199 0.88400
 N2062 N 0.46302 0.31079 0.88957
 N2063 N 0.45583 0.31770 0.90639
 C2064 C 0.44496 0.30607 0.91840
 N2065 N 0.44171 0.28715 0.91287
 N2066 N 0.44877 0.28028 0.89597
 C2067 C 0.46664 0.28475 0.86498
 N2068 N 0.45999 0.26750 0.85751
 N2069 N 0.46580 0.26140 0.83984
 C2070 C 0.47858 0.27227 0.82909
 N2071 N 0.48534 0.28942 0.83665
 N2072 N 0.47943 0.29558 0.85424
 C2073 C 0.95955 0.29195 0.38394
 N2074 N 0.96304 0.31074 0.38955
 N2075 N 0.95590 0.31759 0.40641
 C2076 C 0.94509 0.30591 0.41843
 N2077 N 0.94185 0.28701 0.41287
 N2078 N 0.94886 0.28018 0.39593
 C2079 C 0.96662 0.28476 0.36489
 N2080 N 0.95999 0.26752 0.35740
 N2081 N 0.96577 0.26146 0.33971
 C2082 C 0.97851 0.27237 0.32895
 N2083 N 0.98526 0.28951 0.33653
 N2084 N 0.97938 0.29563 0.35414
 C2085 C 0.45797 0.38387 0.79085
 N2086 N 0.43918 0.38935 0.78729
 N2087 N 0.43210 0.40601 0.79468
 C2088 C 0.44353 0.41795 0.80582
 N2089 N 0.46243 0.41252 0.80916
 N2090 N 0.46949 0.39577 0.80189
 C2091 C 0.46538 0.36501 0.78349
 N2092 N 0.48267 0.35759 0.79003
 N2093 N 0.48886 0.34001 0.78406
 C2094 C 0.47805 0.32928 0.77121
 N2095 N 0.46087 0.33681 0.76453
 N2096 N 0.45462 0.35432 0.77060
 C2097 C 0.95777 0.38394 0.29079
 N2098 N 0.93900 0.38944 0.28718
 N2099 N 0.93190 0.40607 0.29462
 C2100 C 0.94329 0.41795 0.30588
 N2101 N 0.96217 0.41248 0.30926
 N2102 N 0.96925 0.39578 0.30194
 C2103 C 0.96521 0.36510 0.28338
 N2104 N 0.98249 0.35768 0.28995
 N2105 N 0.98870 0.34011 0.28394
 C2106 C 0.97792 0.32941 0.27105
 N2107 N 0.96075 0.33693 0.26434
 N2108 N 0.95449 0.35443 0.27044
 C2109 C 0.29136 0.88530 0.46038
 N2110 N 0.31012 0.89076 0.46405
 N2111 N 0.31735 0.90724 0.45643
 C2112 C 0.30609 0.91902 0.44494
 N2113 N 0.28720 0.91361 0.44150
 N2114 N 0.28000 0.89704 0.44899
 C2115 C 0.28388 0.86652 0.46786
 N2116 N 0.26677 0.85893 0.46108
 N2117 N 0.26070 0.84128 0.46696
 C2118 C 0.27145 0.83067 0.47995
 N2119 N 0.28843 0.83839 0.48691
 N2120 N 0.29455 0.85596 0.48094
 C2121 C 0.29102 0.38550 0.96069
 N2122 N 0.30979 0.39098 0.96434
 N2123 N 0.31698 0.40749 0.95677
 C2124 C 0.30568 0.41929 0.94533
 N2125 N 0.28680 0.41387 0.94191
 N2126 N 0.27963 0.39727 0.94936
 C2127 C 0.28358 0.36669 0.96811
 N2128 N 0.26647 0.35910 0.96131
 N2129 N 0.26043 0.34142 0.96714
 C2130 C 0.27122 0.33077 0.98008
 N2131 N 0.28818 0.33850 0.98705
 N2132 N 0.29428 0.35610 0.98114
 C2133 C 0.79172 0.36568 0.28974
 N2134 N 0.81053 0.36016 0.28629
 N2135 N 0.81746 0.34337 0.29353
 C2136 C 0.80585 0.33134 0.30440
 N2137 N 0.78693 0.33681 0.30759
 N2138 N 0.78002 0.35367 0.30048
 C2139 C 0.78446 0.38468 0.28261
 N2140 N 0.76717 0.39210 0.28917
 N2141 N 0.76109 0.40978 0.28340
 C2142 C 0.77203 0.42062 0.27075
 N2143 N 0.78922 0.41311 0.26406
 N2144 N 0.79536 0.39549 0.26993
   
