data_POSCAR
  _audit_creation_date              2014-09-24
  _audit_creation_method            'ToBaCCo'
  _symmetry_space_group_name_H-M    'P1'
  _symmetry_Int_Tables_number       1
  _symmetry_cell_setting            triclinic
  loop_
  _symmetry_equiv_pos_as_xyz
 x,y,z
_cell_length_a 63.5559
_cell_length_b 62.6132
_cell_length_c 62.5196
_cell_angle_alpha 90.595400
_cell_angle_beta 90.495200
_cell_angle_gamma 91.018500
loop_
  _atom_site_label
  _atom_site_type_symbol
  _atom_site_fract_x
  _atom_site_fract_y
  _atom_site_fract_z
C1 C 0.72037 0.66400 0.97317
 H2 H 0.73492 0.66491 0.96435
 C3 C 0.70285 0.67522 0.96602
 H4 H 0.70410 0.68492 0.95183
 C5 C 0.70048 0.64890 1.00129
 H6 H 0.69932 0.63821 1.01467
 C7 C 0.68261 0.65964 0.99460
 H8 H 0.66803 0.65740 1.00319
 N9 N 0.71887 0.65101 0.99046
 C10 C 0.78111 0.63833 1.01667
 H11 H 0.77805 0.62193 1.02107
 C12 C 0.79990 0.64830 1.02306
 H13 H 0.81137 0.63925 1.03192
 C14 C 0.76969 0.67001 1.00015
 H15 H 0.75776 0.67854 0.99153
 C16 C 0.78844 0.68064 1.00617
 H17 H 0.79074 0.69728 1.00210
 Zn18 Zn 0.74162 0.63314 0.99821
 N19 N 0.76648 0.64912 1.00527
 C20 C 0.76508 0.60267 0.97511
 N21 N 0.74715 0.61422 0.97503
 C22 C 0.73354 0.61319 0.95811
 C23 C 0.73823 0.60101 0.93999
 C24 C 0.77041 0.59032 0.95731
 C25 C 0.73237 0.62911 1.04122
 C26 C 0.72645 0.61922 1.06013
 C27 C 0.72497 0.58545 1.04114
 C28 C 0.73084 0.59614 1.02251
 N29 N 0.73416 0.61761 1.02286
 H30 H 0.77561 0.60345 0.98872
 H31 H 0.71911 0.62204 0.95848
 H32 H 0.72730 0.60062 0.92661
 H33 H 0.78520 0.58201 0.95739
 H34 H 0.73556 0.64614 1.04111
 H35 H 0.72623 0.62924 1.07429
 H36 H 0.72151 0.56856 1.03956
 H37 H 0.73236 0.58732 1.00765
 C38 C 0.80378 0.66974 1.01787
 C39 C 0.68357 0.67272 0.97655
 C40 C 0.72223 0.59691 1.06062
 C41 C 0.75710 0.58970 0.93925
 C42 C 0.74226 0.33916 0.51794
 H43 H 0.75810 0.33808 0.52426
 C44 C 0.72593 0.32717 0.52704
 H45 H 0.72940 0.31661 0.54016
 C46 C 0.71838 0.35482 0.49366
 H47 H 0.71526 0.36624 0.48127
 C48 C 0.70165 0.34312 0.50222
 H49 H 0.68589 0.34563 0.49613
 N50 N 0.73824 0.35269 0.50159
 C51 C 0.79962 0.36769 0.47419
 H52 H 0.79868 0.38492 0.47491
 C53 C 0.81744 0.35820 0.46579
 H54 H 0.83027 0.36834 0.46043
 C55 C 0.78400 0.33379 0.48081
 H56 H 0.77077 0.32440 0.48642
 C57 C 0.80153 0.32357 0.47231
 H58 H 0.80155 0.30630 0.47138
 Zn59 Zn 0.76027 0.37093 0.49199
 N60 N 0.78346 0.35550 0.48167
 C61 C 0.78844 0.38675 0.52400
 N62 N 0.76872 0.38831 0.51560
 C63 C 0.75424 0.40119 0.52475
 C64 C 0.75949 0.41342 0.54291
 C65 C 0.79434 0.39867 0.54211
 C66 C 0.74352 0.37666 0.45140
 C67 C 0.73542 0.38751 0.43390
 C68 C 0.74367 0.42092 0.45207
 C69 C 0.75126 0.40938 0.46948
 N70 N 0.75068 0.38764 0.46895
 H71 H 0.79951 0.37587 0.51702
 H72 H 0.73855 0.40183 0.51797
 H73 H 0.74782 0.42373 0.54985
 H74 H 0.80998 0.39685 0.54876
 H75 H 0.74368 0.35939 0.45125
 H76 H 0.72931 0.37853 0.42024
 H77 H 0.74385 0.43821 0.45274
 H78 H 0.75755 0.41780 0.48335
 C79 C 0.81855 0.33583 0.46458
 C80 C 0.70524 0.32926 0.51932
 C81 C 0.73528 0.40989 0.43422
 C82 C 0.77979 0.41223 0.55183
 C83 C 0.22413 -0.12628 0.02846
 H84 H 0.23327 -0.11750 0.04037
 C85 C 0.20605 -0.13755 0.03464
 H86 H 0.20130 -0.13698 0.05122
 C87 C 0.21898 -0.13744 -0.00753
 H88 H 0.22406 -0.13742 -0.02395
 C89 C 0.20077 -0.14887 -0.00207
 H90 H 0.19210 -0.15765 -0.01439
 N91 N 0.23004 -0.12608 0.00760
 C92 C 0.29258 -0.11632 -0.01894
 H93 H 0.29238 -0.09923 -0.02124
 C94 C 0.31003 -0.12794 -0.02522
 H95 H 0.32318 -0.11970 -0.03258
 C96 C 0.27548 -0.14780 -0.00669
 H97 H 0.26201 -0.15538 0.00071
 C98 C 0.29257 -0.16010 -0.01296
 H99 H 0.29218 -0.17717 -0.01030
 Zn100 Zn 0.25343 -0.10887 -0.00092
 N101 N 0.27590 -0.12630 -0.00961
 C102 C 0.28271 -0.09303 0.02974
 N103 N 0.26265 -0.09104 0.02236
 C104 C 0.24915 -0.07734 0.03197
 C105 C 0.25575 -0.06494 0.04963
 C106 C 0.28997 -0.08086 0.04715
 C107 C 0.24469 -0.10306 -0.04399
 C108 C 0.23838 -0.09280 -0.06256
 C109 C 0.23451 -0.06037 -0.04194
 C110 C 0.24099 -0.07138 -0.02372
 N111 N 0.24547 -0.09247 -0.02497
 H112 H 0.29311 -0.10435 0.02245
 H113 H 0.23311 -0.07636 0.02619
 H114 H 0.24482 -0.05418 0.05713
 H115 H 0.30589 -0.08304 0.05295
 H116 H 0.24923 -0.11960 -0.04483
 H117 H 0.23909 -0.10204 -0.07720
 H118 H 0.23003 -0.04398 -0.03955
 H119 H 0.24202 -0.06303 -0.00855
 C120 C 0.31022 -0.15010 -0.02215
 C121 C 0.19393 -0.14879 0.01922
 C122 C 0.23258 -0.07103 -0.06203
 C123 C 0.27645 -0.06661 0.05737
 C124 C 0.23760 0.17585 0.47819
 H125 H 0.25304 0.17600 0.47103
 C126 C 0.22141 0.18766 0.46909
 H127 H 0.22459 0.19718 0.45509
 C128 C 0.21449 0.16256 0.50466
 H129 H 0.21163 0.15224 0.51809
 C130 C 0.19791 0.17418 0.49617
 H131 H 0.18247 0.17262 0.50323
 N132 N 0.23381 0.16341 0.49548
 C133 C 0.29372 0.14696 0.52472
 H134 H 0.29128 0.12982 0.52465
 C135 C 0.31224 0.15581 0.53320
 H136 H 0.32410 0.14522 0.53930
 C137 C 0.28128 0.18127 0.51597
 H138 H 0.26907 0.19105 0.50928
 C139 C 0.29962 0.19088 0.52451
 H140 H 0.30130 0.20811 0.52447
 Zn141 Zn 0.25498 0.14474 0.50487
 N142 N 0.27883 0.15964 0.51606
 C143 C 0.28347 0.12942 0.47435
 N144 N 0.26320 0.12786 0.48104
 C145 C 0.24883 0.11530 0.47034
 C146 C 0.25491 0.10301 0.45267
 C147 C 0.29018 0.11751 0.45686
 C148 C 0.24197 0.13794 0.54641
 C149 C 0.23477 0.12683 0.56418
 C150 C 0.23290 0.09464 0.54252
 C151 C 0.24048 0.10634 0.52519
 N152 N 0.24458 0.12766 0.52738
 H153 H 0.29450 0.14015 0.48235
 H154 H 0.23265 0.11477 0.47558
 H155 H 0.24339 0.09278 0.44458
 H156 H 0.30635 0.11924 0.45176
 H157 H 0.24551 0.15487 0.54773
 H158 H 0.23259 0.13532 0.57916
 H159 H 0.22958 0.07770 0.54060
 H160 H 0.24305 0.09834 0.51009
 C161 C 0.31545 0.17807 0.53325
 C162 C 0.20115 0.18662 0.47790
 C163 C 0.23003 0.10493 0.56231
 C164 C 0.27593 0.10388 0.44589
 C165 C 0.14450 0.47523 0.21678
 H166 H 0.14260 0.46700 0.23179
 C167 C 0.15534 0.46555 0.20002
 H168 H 0.16177 0.44983 0.20229
 C169 C 0.13721 0.50513 0.19518
 H170 H 0.12981 0.52038 0.19319
 C171 C 0.14789 0.49606 0.17804
 H172 H 0.14892 0.50467 0.16315
 N173 N 0.13558 0.49461 0.21404
 C174 C 0.12454 0.52680 0.27482
 H175 H 0.10861 0.53178 0.27170
 C176 C 0.13470 0.53309 0.29376
 H177 H 0.12654 0.54329 0.30491
 C178 C 0.15449 0.50777 0.26369
 H179 H 0.16209 0.49784 0.25194
 C180 C 0.16523 0.51360 0.28256
 H181 H 0.18100 0.50787 0.28521
 Zn182 Zn 0.11839 0.50576 0.23590
 N183 N 0.13441 0.51418 0.26036
 C184 C 0.09697 0.47895 0.26465
 N185 N 0.09884 0.48405 0.24366
 C186 C 0.08844 0.47255 0.22815
 C187 C 0.07586 0.45487 0.23355
 C188 C 0.08448 0.46160 0.27074
 C189 C 0.11636 0.54855 0.22497
 C190 C 0.10758 0.56731 0.21746
 C191 C 0.07475 0.54804 0.21145
 C192 C 0.08411 0.52965 0.21937
 N193 N 0.10463 0.53021 0.22572
 H194 H 0.10564 0.48790 0.27675
 H195 H 0.09046 0.47672 0.21153
 H196 H 0.06798 0.44564 0.22102
 H197 H 0.08383 0.45745 0.28750
 H198 H 0.13261 0.54855 0.23024
 H199 H 0.11719 0.58175 0.21738
 H200 H 0.05858 0.54711 0.20589
 H201 H 0.07508 0.51491 0.22014
 C202 C 0.15523 0.52628 0.29800
 C203 C 0.15687 0.47586 0.18022
 C204 C 0.08656 0.56722 0.21032
 C205 C 0.07394 0.44911 0.25511
 C206 C -0.15836 0.01903 0.23801
 H207 H -0.15942 0.02692 0.25343
 C208 C -0.16961 0.02680 0.22049
 H209 H -0.17894 0.04087 0.22294
 C210 C -0.14330 -0.00771 0.21631
 H211 H -0.13285 -0.02100 0.21458
 C212 C -0.15403 -0.00040 0.19838
 H213 H -0.15212 -0.00906 0.18349
 N214 N -0.14546 0.00212 0.23562
 C215 C -0.13322 -0.02644 0.29766
 H216 H -0.11633 -0.02775 0.29632
 C217 C -0.14353 -0.03519 0.31518
 H218 H -0.13447 -0.04313 0.32740
 C219 C -0.16553 -0.01461 0.28318
 H220 H -0.17406 -0.00689 0.27050
 C221 C -0.17648 -0.02291 0.30066
 H222 H -0.19342 -0.02153 0.30131
 Zn223 Zn -0.12820 -0.00642 0.25877
 N224 N -0.14426 -0.01644 0.28209
 C225 C -0.11297 0.02496 0.28796
 N226 N -0.11159 0.01756 0.26750
 C227 C -0.09968 0.02799 0.25280
 C228 C -0.08842 0.04660 0.25854
 C229 C -0.10212 0.04354 0.29432
 C230 C -0.12174 -0.04832 0.24659
 C231 C -0.11126 -0.06596 0.23854
 C232 C -0.07930 -0.04455 0.23741
 C233 C -0.09040 -0.02728 0.24571
 N234 N -0.11136 -0.02936 0.24963
 H235 H -0.12282 0.01673 0.29932
 H236 H -0.09924 0.02205 0.23650
 H237 H -0.07927 0.05492 0.24658
 H238 H -0.10343 0.04917 0.31068
 H239 H -0.13836 -0.04957 0.25006
 H240 H -0.11992 -0.08086 0.23622
 H241 H -0.06283 -0.04238 0.23358
 H242 H -0.08237 -0.01215 0.24849
 C243 C -0.16543 -0.03352 0.31680
 C244 C -0.16723 0.01742 0.20000
 C245 C -0.08985 -0.06413 0.23336
 C246 C -0.08977 0.05470 0.27950
 C247 C 0.33361 0.51136 0.72384
 H248 H 0.32855 0.51596 0.73967
 C249 C 0.32327 0.51932 0.70582
 H250 H 0.31010 0.52987 0.70789
 C251 C 0.35770 0.49316 0.70178
 H252 H 0.37157 0.48359 0.70017
 C253 C 0.34804 0.50093 0.68344
 H254 H 0.35420 0.49669 0.66790
 N255 N 0.35020 0.49811 0.72151
 C256 C 0.35836 0.46757 0.78346
 H257 H 0.37537 0.46792 0.78323
 C258 C 0.34792 0.45830 0.80057
 H259 H 0.35699 0.45157 0.81352
 C260 C 0.32594 0.47612 0.76687
 H261 H 0.31744 0.48270 0.75353
 C262 C 0.31479 0.46730 0.78401
 H263 H 0.29775 0.46728 0.78383
 Zn264 Zn 0.36505 0.48808 0.74581
 N265 N 0.34738 0.47635 0.76711
 C266 C 0.37486 0.51951 0.77703
 N267 N 0.38046 0.51149 0.75765
 C268 C 0.39605 0.52082 0.74605
 C269 C 0.40688 0.53888 0.75403
 C270 C 0.38517 0.53754 0.78554
 C271 C 0.37438 0.44968 0.72566
 C272 C 0.38633 0.43230 0.71945
 C273 C 0.41571 0.44736 0.73957
 C274 C 0.40337 0.46496 0.74467
 N275 N 0.38312 0.46579 0.73762
 H276 H 0.36201 0.51228 0.78571
 H277 H 0.39999 0.51426 0.73055
 H278 H 0.41939 0.54597 0.74468
 H279 H 0.38004 0.54394 0.80074
 H280 H 0.35807 0.45051 0.72066
 H281 H 0.37905 0.42042 0.70898
 H282 H 0.43148 0.44679 0.74612
 H283 H 0.40977 0.47761 0.75482
 C284 C 0.32589 0.45818 0.80104
 C285 C 0.33057 0.51415 0.68532
 C286 C 0.40730 0.43065 0.72663
 C287 C 0.40142 0.54752 0.77403
 C288 C 0.65366 0.95998 0.73499
 H289 H 0.65301 0.95198 0.75023
 C290 C 0.66487 0.95100 0.71806
 H291 H 0.67309 0.93620 0.72044
 C292 C 0.64307 0.98856 0.71304
 H293 H 0.63394 1.00272 0.71076
 C294 C 0.65425 0.98031 0.69584
 H295 H 0.65369 0.98838 0.68061
 N296 N 0.64299 0.97840 0.73218
 C297 C 0.62996 1.00622 0.79487
 H298 H 0.61328 1.00863 0.79251
 C299 C 0.63957 1.01261 0.81402
 H300 H 0.62995 1.02044 0.82582
 C301 C 0.66234 0.99423 0.78127
 H302 H 0.67109 0.98699 0.76843
 C303 C 0.67279 1.00081 0.80011
 H304 H 0.68946 0.99790 0.80147
 Zn305 Zn 0.62556 0.98848 0.75449
 N306 N 0.64123 0.99675 0.77919
 C307 C 0.60393 0.95990 0.78190
 N308 N 0.60623 0.96616 0.76126
 C309 C 0.59581 0.95577 0.74500
 C310 C 0.58259 0.93823 0.74923
 C311 C 0.59050 0.94287 0.78688
 C312 C 0.62366 1.03048 0.74125
 C313 C 0.61467 1.04946 0.73465
 C314 C 0.58029 1.03285 0.73816
 C315 C 0.59001 1.01397 0.74432
 N316 N 0.61135 1.01313 0.74554
 H317 H 0.61271 0.96780 0.79461
 H318 H 0.59814 0.96086 0.72869
 H319 H 0.57462 0.92984 0.73619
 H320 H 0.58893 0.93801 0.80337
 H321 H 0.64058 1.02942 0.74264
 H322 H 0.62496 1.06270 0.73051
 H323 H 0.56328 1.03328 0.73763
 H324 H 0.58053 1.00009 0.74831
 C325 C 0.66137 1.00988 0.81715
 C326 C 0.66514 0.96118 0.69814
 C327 C 0.59266 1.05094 0.73307
 C328 C 0.57982 0.93175 0.77043
 C329 C 0.01627 0.23234 -0.15075
 H330 H 0.02459 0.24756 -0.14990
 C331 C 0.02481 0.21532 -0.16216
 H332 H 0.03959 0.21762 -0.17038
 C333 C -0.01266 0.21059 -0.14026
 H334 H -0.02688 0.20855 -0.13113
 C335 C -0.00479 0.19321 -0.15162
 H336 H -0.01311 0.17799 -0.15114
 N337 N -0.00201 0.22963 -0.13989
 C338 C -0.02697 0.29251 -0.12551
 H339 H -0.02842 0.29096 -0.10836
 C340 C -0.03354 0.31107 -0.13548
 H341 H -0.04028 0.32367 -0.12588
 C342 C -0.01696 0.27753 -0.15879
 H343 H -0.01057 0.26434 -0.16777
 C344 C -0.02341 0.29586 -0.16947
 H345 H -0.02169 0.29673 -0.18665
 Zn346 Zn -0.01056 0.25205 -0.12158
 N347 N -0.01869 0.27632 -0.13716
 C348 C 0.02164 0.27905 -0.10472
 N349 N 0.01281 0.25915 -0.10374
 C350 C 0.02183 0.24354 -0.09196
 C351 C 0.04062 0.24765 -0.08074
 C352 C 0.04043 0.28380 -0.09389
 C353 C -0.05237 0.24019 -0.11677
 C354 C -0.07058 0.23308 -0.10664
 C355 C -0.05117 0.23265 -0.07331
 C356 C -0.03333 0.23988 -0.08419
 N357 N -0.03416 0.24307 -0.10561
 H358 H 0.01460 0.29111 -0.11454
 H359 H 0.01477 0.22769 -0.09188
 H360 H 0.04795 0.23491 -0.07195
 H361 H 0.04739 0.29964 -0.09515
 H362 H -0.05271 0.24343 -0.13374
 H363 H -0.08465 0.23205 -0.11640
 H364 H -0.04905 0.22925 -0.05655
 H365 H -0.01873 0.24256 -0.07551
 C366 C -0.03173 0.31298 -0.15774
 C367 C 0.01439 0.19535 -0.16242
 C368 C -0.07045 0.22865 -0.08442
 C369 C 0.05034 0.26790 -0.08201
 C370 C 0.47771 0.23049 0.15467
 H371 H 0.46716 0.24369 0.15305
 C372 C 0.47156 0.21280 0.16669
 H373 H 0.45618 0.21256 0.17400
 C374 C 0.51007 0.21432 0.14636
 H375 H 0.52513 0.21496 0.13848
 C376 C 0.50454 0.19631 0.15819
 H377 H 0.51545 0.18327 0.15929
 N378 N 0.49645 0.23072 0.14431
 C379 C 0.51267 0.29664 0.12837
 H380 H 0.51039 0.29590 0.11121
 C381 C 0.51853 0.31593 0.13828
 H382 H 0.52104 0.32990 0.12851
 C383 C 0.51282 0.27894 0.16169
 H384 H 0.51058 0.26442 0.17068
 C385 C 0.51861 0.29796 0.17230
 H386 H 0.52056 0.29793 0.18951
 Zn387 Zn 0.50283 0.25319 0.12503
 N388 N 0.51020 0.27862 0.14009
 C389 C 0.46351 0.27062 0.11813
 N390 N 0.47853 0.25892 0.10833
 C391 C 0.47601 0.25209 0.08771
 C392 C 0.45750 0.25643 0.07642
 C393 C 0.44489 0.27540 0.10744
 C394 C 0.54400 0.25651 0.10821
 C395 C 0.56163 0.24959 0.09714
 C396 C 0.54141 0.21883 0.08468
 C397 C 0.52415 0.22635 0.09601
 N398 N 0.52574 0.24484 0.10759
 H399 H 0.46608 0.27642 0.13432
 H400 H 0.48821 0.24318 0.07997
 H401 H 0.45560 0.25046 0.06019
 H402 H 0.43333 0.28499 0.11555
 H403 H 0.54520 0.27093 0.11779
 H404 H 0.57604 0.25905 0.09798
 H405 H 0.54002 0.20372 0.07616
 H406 H 0.50969 0.21698 0.09624
 C407 C 0.52171 0.31678 0.16054
 C408 C 0.48484 0.19518 0.16814
 C409 C 0.56056 0.23036 0.08540
 C410 C 0.44156 0.26811 0.08635
 C411 C 0.97996 0.72775 0.66255
 H412 H 0.97212 0.74294 0.66237
 C413 C 0.97143 0.71074 0.67413
 H414 H 0.95694 0.71300 0.68280
 C415 C 1.00758 0.70600 0.65024
 H416 H 1.02137 0.70400 0.64052
 C417 C 0.99965 0.68864 0.66161
 H418 H 1.00778 0.67360 0.66086
 N419 N 0.99762 0.72505 0.65078
 C420 C 1.02704 0.78647 0.63692
 H421 H 1.02890 0.78404 0.61989
 C422 C 1.03515 0.80494 0.64670
 H423 H 1.04314 0.81678 0.63704
 C424 C 1.01403 0.77399 0.67005
 H425 H 1.00591 0.76177 0.67904
 C426 C 1.02175 0.79245 0.68050
 H427 H 1.01959 0.79432 0.69757
 Zn428 Zn 1.00675 0.74741 0.63279
 N429 N 1.01667 0.77149 0.64859
 C430 C 0.97690 0.77584 0.61656
 N431 N 0.98356 0.75534 0.61559
 C432 C 0.97308 0.74029 0.60356
 C433 C 0.95526 0.74574 0.59166
 C434 C 0.95924 0.78196 0.60497
 C435 C 1.04803 0.73546 0.62634
 C436 C 1.06587 0.72938 0.61517
 C437 C 1.04530 0.72921 0.58248
 C438 C 1.02783 0.73549 0.59429
 N439 N 1.02948 0.73826 0.61585
 H440 H 0.98501 0.78746 0.62665
 H441 H 0.97848 0.72400 0.60338
 H442 H 0.94718 0.73361 0.58206
 H443 H 0.95400 0.79827 0.60640
 H444 H 1.04892 0.73799 0.64347
 H445 H 1.08043 0.72695 0.62387
 H446 H 1.04380 0.72709 0.56532
 H447 H 1.01306 0.73822 0.58619
 C448 C 1.03255 0.80813 0.66875
 C449 C 0.98112 0.69075 0.67347
 C450 C 1.06463 0.72614 0.59295
 C451 C 0.94815 0.76686 0.59227
 C452 C 0.52249 0.73592 0.35126
 H453 H 0.53012 0.75151 0.35141
 C454 C 0.53102 0.71921 0.33935
 H455 H 0.54503 0.72218 0.33004
 C456 C 0.49541 0.71295 0.36389
 H457 H 0.48204 0.71026 0.37408
 C458 C 0.50339 0.69583 0.35223
 H459 H 0.49590 0.68024 0.35360
 N460 N 0.50504 0.73251 0.36329
 C461 C 0.47966 0.79498 0.37890
 H462 H 0.47799 0.79272 0.39594
 C463 C 0.47297 0.81383 0.36961
 H464 H 0.46558 0.82534 0.37997
 C465 C 0.48994 0.78134 0.34525
 H466 H 0.49651 0.76856 0.33584
 C467 C 0.48348 0.80002 0.33520
 H468 H 0.48601 0.80125 0.31819
 Zn469 Zn 0.49610 0.75464 0.38184
 N470 N 0.48810 0.77929 0.36676
 C471 C 0.52835 0.78109 0.39947
 N472 N 0.51905 0.76139 0.40034
 C473 C 0.52727 0.74571 0.41261
 C474 C 0.54573 0.74952 0.42449
 C475 C 0.54686 0.78551 0.41092
 C476 C 0.45474 0.74076 0.38506
 C477 C 0.43657 0.73268 0.39454
 C478 C 0.45408 0.73534 0.42897
 C479 C 0.47207 0.74321 0.41876
 N480 N 0.47219 0.74529 0.39711
 H481 H 0.52190 0.79319 0.38927
 H482 H 0.51982 0.73004 0.41264
 H483 H 0.55243 0.73672 0.43370
 H484 H 0.55424 0.80117 0.40975
 H485 H 0.45519 0.74295 0.36793
 H486 H 0.42296 0.72876 0.38463
 H487 H 0.45432 0.73318 0.44613
 H488 H 0.48596 0.74736 0.42808
 C489 C 0.47483 0.81690 0.34734
 C490 C 0.52160 0.69874 0.33998
 C491 C 0.43620 0.72958 0.41672
 C492 C 0.55596 0.76952 0.42335
 Si493 Si 0.37642 0.00751 0.25780
 Si494 Si 0.12588 1.01077 0.74946
 Si495 Si 0.62639 0.50853 0.25269
 Si496 Si 0.86554 0.50186 0.75292
 Si497 Si 0.24817 0.35850 -0.00202
 Si498 Si 0.74711 0.11872 1.00756
 Si499 Si 0.24567 0.62059 0.49627
 Si500 Si 0.75291 0.85743 0.50684
 Si501 Si 0.01002 0.25322 0.36354
 Si502 Si 1.00055 0.75926 0.10923
 Si503 Si 0.51698 0.24743 0.63081
 Si504 Si 0.48794 0.74492 0.87485
 C505 C 0.45170 -0.12617 0.31920
 C506 C 0.45421 -0.14465 0.30669
 C507 C 0.46216 -0.16325 0.31573
 C508 C 0.46789 -0.16392 0.33764
 C509 C 0.46604 -0.14484 0.34977
 C510 C 0.45799 -0.12638 0.34072
 C511 C 0.44180 -0.10693 0.31017
 C512 C 0.42639 -0.09613 0.32185
 C513 C 0.41667 -0.07824 0.31339
 C514 C 0.42224 -0.07064 0.29312
 C515 C 0.43781 -0.08125 0.28150
 C516 C 0.44741 -0.09933 0.28989
 C517 C 0.41148 -0.05189 0.28411
 C518 C 0.38953 -0.05027 0.28563
 C519 C 0.37930 -0.03252 0.27752
 C520 C 0.39080 -0.01603 0.26782
 C521 C 0.41272 -0.01747 0.26632
 C522 C 0.42299 -0.03538 0.27426
 H523 H 0.44928 -0.14497 0.29007
 H524 H 0.46261 -0.17728 0.30556
 H525 H 0.47127 -0.14369 0.36624
 H526 H 0.45676 -0.11215 0.35060
 H527 H 0.42161 -0.10176 0.33743
 H528 H 0.40485 -0.07026 0.32277
 H529 H 0.44228 -0.07578 0.26578
 H530 H 0.45932 -0.10729 0.28062
 H531 H 0.38024 -0.06285 0.29294
 H532 H 0.36236 -0.03164 0.27886
 H533 H 0.42196 -0.00482 0.25914
 H534 H 0.43995 -0.03613 0.27310
 C535 C 0.94529 0.37001 0.81269
 C536 C 0.94201 0.34995 0.80277
 C537 C 0.94987 0.33147 0.81208
 C538 C 0.96117 0.33266 0.83149
 C539 C 0.96497 0.35280 0.84104
 C540 C 0.95711 0.37125 0.83176
 C541 C 0.93573 0.38948 0.80367
 C542 C 0.92636 0.40452 0.81725
 C543 C 0.91672 0.42251 0.80886
 C544 C 0.91624 0.42592 0.78668
 C545 C 0.92582 0.41099 0.77309
 C546 C 0.93544 0.39295 0.78150
 C547 C 0.90514 0.44459 0.77779
 C548 C 0.89263 0.44233 0.75922
 C549 C 0.88121 0.45954 0.75152
 C550 C 0.88211 0.47936 0.76218
 C551 C 0.89480 0.48177 0.78053
 C552 C 0.90624 0.46458 0.78825
 H553 H 0.93276 0.34846 0.78819
 H554 H 0.94650 0.31617 0.80446
 H555 H 0.97399 0.35430 0.85577
 H556 H 0.96025 0.38652 0.83955
 H557 H 0.92599 0.40211 0.83436
 H558 H 0.90914 0.43347 0.81973
 H559 H 0.92597 0.41331 0.75596
 H560 H 0.94277 0.38178 0.77066
 H561 H 0.89114 0.42707 0.75100
 H562 H 0.87135 0.45708 0.73751
 H563 H 0.89552 0.49686 0.78914
 H564 H 0.91589 0.46691 0.80247
 C565 C 0.04221 1.13930 0.81013
 C566 C 0.05449 1.15406 0.82210
 C567 C 0.04554 1.17249 0.83055
 C568 C 0.02407 1.17649 0.82735
 C569 C 0.01181 1.16184 0.81520
 C570 C 0.02082 1.14348 0.80657
 C571 C 0.05174 1.11957 0.80155
 C572 C 0.04768 1.11281 0.78040
 C573 C 0.05750 1.09477 0.77206
 C574 C 0.07139 1.08302 0.78478
 C575 C 0.07499 1.08946 0.80611
 C576 C 0.06533 1.10760 0.81437
 C577 C 0.08300 1.06482 0.77556
 C578 C 0.08554 1.04587 0.78712
 C579 C 0.09772 1.02936 0.77889
 C580 C 0.10767 1.03162 0.75910
 C581 C 0.10488 1.05035 0.74740
 C582 C 0.09256 1.06675 0.75549
 H583 H 0.07107 1.15136 0.82488
 H584 H 0.05532 1.18337 0.84005
 H585 H -0.00476 1.16459 0.81241
 H586 H 0.01098 1.13232 0.79747
 H587 H 0.03734 1.12179 0.77014
 H588 H 0.05435 1.09006 0.75561
 H589 H 0.08576 1.08083 0.81621
 H590 H 0.06854 1.11232 0.83081
 H591 H 0.07824 1.04392 0.80258
 H592 H 0.09979 1.01504 0.78819
 H593 H 0.11250 1.05260 0.73218
 H594 H 0.09111 1.08127 0.74637
 C595 C 0.54995 0.64304 0.31219
 C596 C 0.52806 0.64568 0.31098
 C597 C 0.51889 0.66403 0.31944
 C598 C 0.53140 0.68017 0.32924
 C599 C 0.55334 0.67778 0.32986
 C600 C 0.56250 0.65944 0.32144
 C601 C 0.55968 0.62304 0.30438
 C602 C 0.57599 0.61371 0.31615
 C603 C 0.58549 0.59514 0.30874
 C604 C 0.57893 0.58544 0.28939
 C605 C 0.56233 0.59451 0.27780
 C606 C 0.55280 0.61313 0.28522
 C607 C 0.58992 0.56641 0.28100
 C608 C 0.57866 0.54928 0.27131
 C609 C 0.58928 0.53164 0.26306
 C610 C 0.61130 0.53102 0.26417
 C611 C 0.62250 0.54786 0.27417
 C612 C 0.61196 0.56541 0.28244
 H613 H 0.51796 0.63329 0.30405
 H614 H 0.50196 0.66550 0.31851
 H615 H 0.56342 0.68978 0.33749
 H616 H 0.57944 0.65803 0.32230
 H617 H 0.58131 0.62068 0.33121
 H618 H 0.59797 0.58831 0.31824
 H619 H 0.55710 0.58755 0.26270
 H620 H 0.54039 0.62003 0.27571
 H621 H 0.56165 0.54947 0.27026
 H622 H 0.58027 0.51865 0.25580
 H623 H 0.63952 0.54760 0.27526
 H624 H 0.62111 0.57843 0.28957
 C625 C 0.54421 0.37560 0.19000
 C626 C 0.52921 0.37593 0.17339
 C627 C 0.52155 0.35686 0.16416
 C628 C 0.52884 0.33702 0.17122
 C629 C 0.54363 0.33674 0.18807
 C630 C 0.55117 0.35579 0.19738
 C631 C 0.55312 0.39578 0.19921
 C632 C 0.55642 0.39796 0.22137
 C633 C 0.56620 0.41633 0.22992
 C634 C 0.57306 0.43290 0.21650
 C635 C 0.56915 0.43102 0.19439
 C636 C 0.55925 0.41266 0.18584
 C637 C 0.58530 0.45142 0.22547
 C638 C 0.58261 0.47222 0.21767
 C639 C 0.59473 0.48935 0.22594
 C640 C 0.60953 0.48601 0.24226
 C641 C 0.61244 0.46526 0.24980
 C642 C 0.60042 0.44819 0.24158
 H643 H 0.52336 0.39096 0.16758
 H644 H 0.50988 0.35767 0.15149
 H645 H 0.54987 0.32180 0.19366
 H646 H 0.56296 0.35504 0.20995
 H647 H 0.55153 0.38538 0.23209
 H648 H 0.56857 0.41747 0.24706
 H649 H 0.57445 0.44336 0.18359
 H650 H 0.55709 0.41134 0.16867
 H651 H 0.57110 0.47525 0.20525
 H652 H 0.59259 0.50519 0.21956
 H653 H 0.62430 0.46195 0.26173
 H654 H 0.60339 0.43232 0.24748
 C655 C 0.05635 0.86743 0.69555
 C656 C 0.03638 0.85951 0.70139
 C657 C 0.02884 0.83987 0.69328
 C658 C 0.04109 0.82787 0.67911
 C659 C 0.06130 0.83544 0.67390
 C660 C 0.06887 0.85493 0.68207
 C661 C 0.06409 0.88882 0.70294
 C662 C 0.07553 0.90200 0.68898
 C663 C 0.08390 0.92160 0.69602
 C664 C 0.08093 0.92859 0.71717
 C665 C 0.06887 0.91583 0.73098
 C666 C 0.06056 0.89610 0.72395
 C667 C 0.09128 0.94864 0.72491
 C668 C 0.08039 0.96346 0.73751
 C669 C 0.09046 0.98231 0.74472
 C670 C 0.11158 0.98639 0.73964
 C671 C 0.12243 0.97163 0.72711
 C672 C 0.11239 0.95297 0.71976
 H673 H 0.02631 0.86881 0.71164
 H674 H 0.01314 0.83443 0.69743
 H675 H 0.07123 0.82630 0.66334
 H676 H 0.08454 0.86026 0.67773
 H677 H 0.07805 0.89715 0.67254
 H678 H 0.09280 0.93130 0.68493
 H679 H 0.06648 0.92080 0.74741
 H680 H 0.05192 0.88626 0.73512
 H681 H 0.06407 0.96056 0.74158
 H682 H 0.08179 0.99352 0.75435
 H683 H 0.13880 0.97446 0.72313
 H684 H 0.12125 0.94171 0.71033
 C685 C 0.95173 0.63610 0.70315
 C686 C 0.95199 0.65613 0.71354
 C687 C 0.96173 0.67384 0.70409
 C688 C 0.97140 0.67190 0.68404
 C689 C 0.97126 0.65181 0.67376
 C690 C 0.96157 0.63414 0.68321
 C691 C 0.94063 0.61742 0.71257
 C692 C 0.94927 0.59694 0.71124
 C693 C 0.93814 0.57913 0.71874
 C694 C 0.91809 0.58140 0.72770
 C695 C 0.90969 0.60195 0.72955
 C696 C 0.92085 0.61977 0.72209
 C697 C 0.90562 0.56234 0.73430
 C698 C 0.88403 0.56078 0.72941
 C699 C 0.87230 0.54268 0.73506
 C700 C 0.88178 0.52588 0.74596
 C701 C 0.90341 0.52720 0.75056
 C702 C 0.91522 0.54530 0.74486
 H703 H 0.94473 0.65807 0.72903
 H704 H 0.96180 0.68904 0.71252
 H705 H 0.97815 0.64985 0.65811
 H706 H 0.96128 0.61904 0.67460
 H707 H 0.96459 0.59466 0.70421
 H708 H 0.94496 0.56349 0.71695
 H709 H 0.89439 0.60423 0.73661
 H710 H 0.91370 0.63531 0.72320
 H711 H 0.87631 0.57333 0.72071
 H712 H 0.85591 0.54167 0.73036
 H713 H 0.91135 0.51430 0.75838
 H714 H 0.93184 0.54602 0.74881
 C715 C 0.46157 0.13751 0.19751
 C716 C 0.47361 0.13656 0.17879
 C717 C 0.48159 0.15523 0.16960
 C718 C 0.47767 0.17531 0.17888
 C719 C 0.46601 0.17624 0.19786
 C720 C 0.45809 0.15754 0.20709
 C721 C 0.45197 0.11780 0.20653
 C722 C 0.45141 0.11473 0.22875
 C723 C 0.44133 0.09673 0.23723
 C724 C 0.43150 0.08142 0.22369
 C725 C 0.43248 0.08427 0.20144
 C726 C 0.44261 0.10224 0.19297
 C727 C 0.41938 0.06315 0.23271
 C728 C 0.41967 0.04280 0.22296
 C729 C 0.40723 0.02604 0.23086
 C730 C 0.39442 0.02929 0.24868
 C731 C 0.39423 0.04948 0.25856
 C732 C 0.40663 0.06622 0.25070
 H733 H 0.47674 0.12135 0.17116
 H734 H 0.49030 0.15398 0.15485
 H735 H 0.46289 0.19145 0.20548
 H736 H 0.44871 0.15882 0.22141
 H737 H 0.45877 0.12627 0.23959
 H738 H 0.44116 0.09482 0.25442
 H739 H 0.42479 0.07297 0.19058
 H740 H 0.44250 0.10430 0.17579
 H741 H 0.42944 0.03986 0.20918
 H742 H 0.40739 0.01061 0.22288
 H743 H 0.38419 0.05261 0.27205
 H744 H 0.40569 0.08178 0.25832
 C745 C 0.29855 0.43200 -0.14218
 C746 C 0.31242 0.41998 -0.15470
 C747 C 0.32063 0.42824 -0.17355
 C748 C 0.31495 0.44856 -0.18054
 C749 C 0.30023 0.46018 -0.16878
 C750 C 0.29216 0.45202 -0.14969
 C751 C 0.29154 0.42384 -0.12110
 C752 C 0.27092 0.42697 -0.11382
 C753 C 0.26435 0.41835 -0.09434
 C754 C 0.27823 0.40633 -0.08191
 C755 C 0.29896 0.40374 -0.08886
 C756 C 0.30558 0.41250 -0.10812
 C757 C 0.27097 0.39540 -0.06236
 C758 C 0.27541 0.37373 -0.05953
 C759 C 0.26855 0.36307 -0.04136
 C760 C 0.25730 0.37390 -0.02555
 C761 C 0.25304 0.39562 -0.02810
 C762 C 0.25966 0.40628 -0.04653
 H763 H 0.31718 0.40425 -0.14977
 H764 H 0.33176 0.41888 -0.18254
 H765 H 0.29575 0.47597 -0.17384
 H766 H 0.28159 0.46172 -0.14040
 H767 H 0.25969 0.43551 -0.12345
 H768 H 0.24824 0.42042 -0.08934
 H769 H 0.31005 0.39482 -0.07938
 H770 H 0.32175 0.41033 -0.11288
 H771 H 0.28392 0.36493 -0.07159
 H772 H 0.27192 0.34627 -0.03972
 H773 H 0.24452 0.40433 -0.01604
 H774 H 0.25619 0.42304 -0.04833
 C775 C 0.80359 0.93807 0.37066
 C776 C 0.81817 0.92649 0.35865
 C777 C 0.82806 0.93573 0.34110
 C778 C 0.82344 0.95666 0.33503
 C779 C 0.80858 0.96817 0.34678
 C780 C 0.79887 0.95901 0.36459
 C781 C 0.79382 0.92826 0.38970
 C782 C 0.79336 0.93936 0.40934
 C783 C 0.78607 0.92919 0.42776
 C784 C 0.77895 0.90779 0.42683
 C785 C 0.77853 0.89711 0.40692
 C786 C 0.78599 0.90718 0.38862
 C787 C 0.77287 0.89622 0.44656
 C788 C 0.77835 0.87472 0.44901
 C789 C 0.77244 0.86351 0.46719
 C790 C 0.76105 0.87352 0.48339
 C791 C 0.75592 0.89508 0.48140
 C792 C 0.76173 0.90636 0.46306
 H793 H 0.82223 0.91040 0.36311
 H794 H 0.83934 0.92648 0.33221
 H795 H 0.80485 0.98438 0.34245
 H796 H 0.78762 0.96821 0.37356
 H797 H 0.79945 0.95559 0.41060
 H798 H 0.78675 0.93783 0.44285
 H799 H 0.77262 0.88083 0.40551
 H800 H 0.78584 0.89841 0.37359
 H801 H 0.78737 0.86655 0.43692
 H802 H 0.77667 0.84689 0.46853
 H803 H 0.74719 0.90313 0.49378
 H804 H 0.75719 0.92287 0.46163
 C805 C 0.80449 0.04451 1.14474
 C806 C 0.82295 0.03273 1.14307
 C807 C 0.83196 0.02352 1.16110
 C808 C 0.82294 0.02603 1.18155
 C809 C 0.80420 0.03779 1.18299
 C810 C 0.79504 0.04672 1.16480
 C811 C 0.79560 0.05494 1.12562
 C812 C 0.77405 0.05304 1.12063
 C813 C 0.76590 0.06267 1.10231
 C814 C 0.77912 0.07465 1.08890
 C815 C 0.80062 0.07666 1.09401
 C816 C 0.80880 0.06681 1.11211
 C817 C 0.77063 0.08521 1.06966
 C818 C 0.77623 0.10652 1.06539
 C819 C 0.76883 0.11639 1.04697
 C820 C 0.75586 0.10513 1.03236
 C821 C 0.75021 0.08383 1.03654
 C822 C 0.75740 0.07399 1.05516
 H823 H 0.83052 0.03075 1.12773
 H824 H 0.84667 0.01541 1.15889
 H825 H 0.79611 0.03968 1.19802
 H826 H 0.78074 0.05573 1.16647
 H827 H 0.76359 0.04387 1.13076
 H828 H 0.74924 0.06101 1.09875
 H829 H 0.81116 0.08569 1.08385
 H830 H 0.82544 0.06864 1.11570
 H831 H 0.78630 0.11556 1.07637
 H832 H 0.77350 0.13281 1.04404
 H833 H 0.74039 0.07471 1.02547
 H834 H 0.75304 0.05747 1.05799
 C835 C 0.30199 0.53825 0.62793
 C836 C 0.32395 0.53914 0.63091
 C837 C 0.33312 0.53147 0.64960
 C838 C 0.32057 0.52291 0.66588
 C839 C 0.29861 0.52236 0.66320
 C840 C 0.28940 0.52986 0.64436
 C841 C 0.29243 0.54635 0.60784
 C842 C 0.27343 0.55754 0.60822
 C843 C 0.26534 0.56647 0.58953
 C844 C 0.27617 0.56457 0.57014
 C845 C 0.29475 0.55282 0.56957
 C846 C 0.30271 0.54369 0.58817
 C847 C 0.26901 0.57620 0.55098
 C848 C 0.28339 0.58890 0.53960
 C849 C 0.27652 0.60156 0.52278
 C850 C 0.25519 0.60160 0.51688
 C851 C 0.24094 0.58814 0.52754
 C852 C 0.24774 0.57572 0.54465
 H853 H 0.33410 0.54603 0.61889
 H854 H 0.35007 0.53241 0.65143
 H855 H 0.28862 0.51567 0.67548
 H856 H 0.27247 0.52874 0.64252
 H857 H 0.26521 0.56011 0.62309
 H858 H 0.25109 0.57567 0.59041
 H859 H 0.30324 0.55092 0.55474
 H860 H 0.31707 0.53470 0.58716
 H861 H 0.29984 0.58968 0.54427
 H862 H 0.28792 0.61167 0.51484
 H863 H 0.22442 0.58788 0.52315
 H864 H 0.23639 0.56592 0.55309
 C865 C 0.18568 0.54626 0.35707
 C866 C 0.16419 0.54053 0.35657
 C867 C 0.15450 0.53361 0.33755
 C868 C 0.16598 0.53241 0.31845
 C869 C 0.18758 0.53764 0.31902
 C870 C 0.19732 0.54443 0.33812
 C871 C 0.19556 0.55505 0.37704
 C872 C 0.21029 0.57202 0.37612
 C873 C 0.21851 0.58133 0.39486
 C874 C 0.21207 0.57407 0.41503
 C875 C 0.19775 0.55674 0.41597
 C876 C 0.18964 0.54731 0.39720
 C877 C 0.21977 0.58502 0.43490
 C878 C 0.22445 0.57341 0.45345
 C879 C 0.23182 0.58390 0.47200
 C880 C 0.23452 0.60618 0.47237
 C881 C 0.23001 0.61774 0.45387
 C882 C 0.22255 0.60734 0.43542
 H883 H 0.15467 0.54195 0.37077
 H884 H 0.13793 0.52932 0.33779
 H885 H 0.19686 0.53701 0.30461
 H886 H 0.21397 0.54839 0.33799
 H887 H 0.21506 0.57856 0.36092
 H888 H 0.22983 0.59437 0.39353
 H889 H 0.19237 0.55082 0.43122
 H890 H 0.17857 0.53406 0.39850
 H891 H 0.22283 0.55617 0.45349
 H892 H 0.23566 0.57450 0.48583
 H893 H 0.23278 0.63480 0.45338
 H894 H 0.21893 0.61684 0.42154
 C895 C 0.68985 0.03204 0.87544
 C896 C 0.66898 0.02435 0.87496
 C897 C 0.65980 0.01679 0.85594
 C898 C 0.67126 0.01636 0.83669
 C899 C 0.69260 0.02304 0.83753
 C900 C 0.70167 0.03095 0.85658
 C901 C 0.69882 0.04194 0.89536
 C902 C 0.72015 0.03961 0.90094
 C903 C 0.72852 0.04964 0.91931
 C904 C 0.71569 0.06200 0.93260
 C905 C 0.69436 0.06409 0.92721
 C906 C 0.68606 0.05430 0.90877
 C907 C 0.72459 0.07364 0.95145
 C908 C 0.71371 0.07396 0.97092
 C909 C 0.72106 0.08667 0.98802
 C910 C 0.73927 0.09940 0.98588
 C911 C 0.75046 0.09865 0.96664
 C912 C 0.74327 0.08577 0.94963
 H913 H 0.65962 0.02417 0.88935
 H914 H 0.64377 0.01075 0.85666
 H915 H 0.70211 0.02350 0.82327
 H916 H 0.71773 0.03697 0.85628
 H917 H 0.73036 0.02998 0.89116
 H918 H 0.74501 0.04769 0.92320
 H919 H 0.68422 0.07387 0.93693
 H920 H 0.66971 0.05691 0.90476
 H921 H 0.69932 0.06468 0.97277
 H922 H 0.71204 0.08720 1.00262
 H923 H 0.76442 0.10844 0.96439
 H924 H 0.75180 0.08602 0.93471
 C925 C 0.69310 0.93379 0.64196
 C926 C 0.69642 0.95549 0.64711
 C927 C 0.68772 0.96428 0.66560
 C928 C 0.67571 0.95151 0.67944
 C929 C 0.67285 0.92969 0.67459
 C930 C 0.68136 0.92094 0.65597
 C931 C 0.70159 0.92466 0.62189
 C932 C 0.68903 0.91104 0.60888
 C933 C 0.69707 0.90225 0.59007
 C934 C 0.71789 0.90674 0.58399
 C935 C 0.73039 0.92052 0.59689
 C936 C 0.72228 0.92947 0.61559
 C937 C 0.72686 0.89627 0.56483
 C938 C 0.74677 0.88699 0.56603
 C939 C 0.75481 0.87590 0.54853
 C940 C 0.74324 0.87414 0.52937
 C941 C 0.72355 0.88378 0.52791
 C942 C 0.71536 0.89469 0.54554
 H943 H 0.70531 0.96578 0.63654
 H944 H 0.69026 0.98112 0.66902
 H945 H 0.66349 0.91953 0.68486
 H946 H 0.67876 0.90411 0.65251
 H947 H 0.67295 0.90725 0.61324
 H948 H 0.68717 0.89153 0.58053
 H949 H 0.74646 0.92433 0.59251
 H950 H 0.73233 0.93984 0.62536
 H951 H 0.75585 0.88769 0.58077
 H952 H 0.76990 0.86840 0.55028
 H953 H 0.71432 0.88243 0.51331
 H954 H 0.70001 0.90181 0.54415
 C955 C 0.18542 0.44435 0.12640
 C956 C 0.16706 0.45623 0.12370
 C957 C 0.15794 0.46656 0.14112
 C958 C 0.16696 0.46528 0.16167
 C959 C 0.18540 0.45352 0.16437
 C960 C 0.19454 0.44319 0.14692
 C961 C 0.19478 0.43290 0.10795
 C962 C 0.20277 0.41229 0.11046
 C963 C 0.21135 0.40137 0.09310
 C964 C 0.21217 0.41079 0.07281
 C965 C 0.20415 0.43138 0.07025
 C966 C 0.19557 0.44233 0.08764
 C967 C 0.22138 0.39909 0.05445
 C968 C 0.21183 0.39946 0.03407
 C969 C 0.22016 0.38769 0.01707
 C970 C 0.23824 0.37557 0.02011
 C971 C 0.24785 0.37528 0.04037
 C972 C 0.23957 0.38699 0.05733
 H973 H 0.15944 0.45713 0.10818
 H974 H 0.14351 0.47517 0.13858
 H975 H 0.19288 0.45248 0.17994
 H976 H 0.20887 0.43443 0.14946
 H977 H 0.20203 0.40442 0.12578
 H978 H 0.21704 0.38536 0.09550
 H979 H 0.20481 0.43916 0.05488
 H980 H 0.18979 0.45830 0.08525
 H981 H 0.19762 0.40837 0.03141
 H982 H 0.21226 0.38775 0.00165
 H983 H 0.26156 0.36576 0.04335
 H984 H 0.24741 0.38654 0.07277
 C985 C -0.12615 0.30737 0.43742
 C986 C -0.13651 0.29763 0.45467
 C987 C -0.15458 0.30666 0.46339
 C988 C -0.16272 0.32560 0.45501
 C989 C -0.15253 0.33509 0.43755
 C990 C -0.13444 0.32621 0.42900
 C991 C -0.10664 0.29826 0.42828
 C992 C -0.10277 0.29962 0.40621
 C993 C -0.08387 0.29259 0.39770
 C994 C -0.06847 0.28372 0.41096
 C995 C -0.07252 0.28156 0.43288
 C996 C -0.09138 0.28889 0.44149
 C997 C -0.04821 0.27710 0.40172
 C998 C -0.04016 0.25675 0.40559
 C999 C -0.02213 0.24994 0.39496
 C1000 C -0.01185 0.26340 0.38042
 C1001 C -0.01912 0.28423 0.37771
 C1002 C -0.03723 0.29093 0.38808
 H1003 H -0.13071 0.28298 0.46140
 H1004 H -0.16193 0.29902 0.47693
 H1005 H -0.15854 0.34946 0.43041
 H1006 H -0.12675 0.33438 0.41596
 H1007 H -0.11436 0.30618 0.39545
 H1008 H -0.08128 0.29403 0.38067
 H1009 H -0.06084 0.27479 0.44341
 H1010 H -0.09371 0.28779 0.45858
 H1011 H -0.04829 0.24584 0.41617
 H1012 H -0.01662 0.23398 0.39775
 H1013 H -0.01117 0.29534 0.36730
 H1014 H -0.04285 0.30690 0.38524
 C1015 C 0.36433 0.81509 0.95697
 C1016 C 0.34385 0.80711 0.95275
 C1017 C 0.32627 0.81812 0.95996
 C1018 C 0.32878 0.83744 0.97138
 C1019 C 0.34921 0.84519 0.97600
 C1020 C 0.36677 0.83411 0.96897
 C1021 C 0.38301 0.80411 0.94818
 C1022 C 0.40023 0.81604 0.94041
 C1023 C 0.41732 0.80584 0.93113
 C1024 C 0.41753 0.78349 0.92923
 C1025 C 0.40055 0.77150 0.93733
 C1026 C 0.38352 0.78168 0.94679
 C1027 C 0.43479 0.77286 0.91765
 C1028 C 0.43010 0.75693 0.90228
 C1029 C 0.44606 0.74812 0.88999
 C1030 C 0.46706 0.75480 0.89304
 C1031 C 0.47188 0.77037 0.90869
 C1032 C 0.45588 0.77938 0.92088
 H1033 H 0.34136 0.79270 0.94328
 H1034 H 0.31069 0.81189 0.95602
 H1035 H 0.35159 0.85987 0.98510
 H1036 H 0.38229 0.84048 0.97292
 H1037 H 0.40023 0.83333 0.94085
 H1038 H 0.43004 0.81550 0.92471
 H1039 H 0.40042 0.75422 0.93627
 H1040 H 0.37072 0.77198 0.95296
 H1041 H 0.41397 0.75190 0.89916
 H1042 H 0.44174 0.73663 0.87762
 H1043 H 0.48792 0.77598 0.91113
 H1044 H 0.45993 0.79159 0.93266
 C1045 C 1.13542 0.82083 0.03740
 C1046 C 1.13695 0.83195 0.01806
 C1047 C 1.15601 0.84149 0.01200
 C1048 C 1.17396 0.84020 0.02520
 C1049 C 1.17249 0.82886 0.04443
 C1050 C 1.15345 0.81925 0.05044
 C1051 C 1.11498 0.81141 0.04430
 C1052 C 1.11414 0.79132 0.05410
 C1053 C 1.09508 0.78298 0.06164
 C1054 C 1.07644 0.79457 0.05962
 C1055 C 1.07719 0.81445 0.04939
 C1056 C 1.09624 0.82276 0.04178
 C1057 C 1.05660 0.78645 0.06926
 C1058 C 1.04361 0.80032 0.08077
 C1059 C 1.02615 0.79237 0.09178
 C1060 C 1.02140 0.77042 0.09156
 C1061 C 1.03360 0.75670 0.07912
 C1062 C 1.05111 0.76461 0.06815
 H1063 H 1.12338 0.83328 0.00759
 H1064 H 1.15658 0.85030 -0.00280
 H1065 H 1.18609 0.82741 0.05483
 H1066 H 1.15273 0.81097 0.06554
 H1067 H 1.12826 0.78209 0.05606
 H1068 H 1.09507 0.76773 0.06965
 H1069 H 1.06306 0.82367 0.04743
 H1070 H 1.09641 0.83835 0.03446
 H1071 H 1.04742 0.81721 0.08200
 H1072 H 1.01676 0.80341 0.10085
 H1073 H 1.03004 0.73977 0.07838
 H1074 H 1.06056 0.75359 0.05906
 C1075 C 0.65132 0.30101 0.55020
 C1076 C 0.65248 0.30135 0.52777
 C1077 C 0.67024 0.30993 0.51772
 C1078 C 0.68725 0.31830 0.52987
 C1079 C 0.68636 0.31731 0.55229
 C1080 C 0.66859 0.30879 0.56233
 C1081 C 0.63189 0.29335 0.56096
 C1082 C 0.62418 0.30446 0.57880
 C1083 C 0.60595 0.29740 0.58905
 C1084 C 0.59498 0.27901 0.58174
 C1085 C 0.60253 0.26800 0.56374
 C1086 C 0.62079 0.27511 0.55344
 C1087 C 0.57599 0.27122 0.59320
 C1088 C 0.55828 0.26308 0.58192
 C1089 C 0.54042 0.25597 0.59293
 C1090 C 0.54002 0.25696 0.61532
 C1091 C 0.55769 0.26481 0.62659
 C1092 C 0.57549 0.27190 0.61567
 H1093 H 0.63939 0.29558 0.51799
 H1094 H 0.67056 0.31026 0.50041
 H1095 H 0.69909 0.32381 0.56211
 H1096 H 0.66829 0.30847 0.57964
 H1097 H 0.63211 0.31883 0.58469
 H1098 H 0.60032 0.30649 0.60260
 H1099 H 0.59458 0.25364 0.55788
 H1100 H 0.62645 0.26612 0.53983
 H1101 H 0.55814 0.26245 0.56461
 H1102 H 0.52705 0.24964 0.58393
 H1103 H 0.55772 0.26544 0.64391
 H1104 H 0.58899 0.27766 0.62486
 C1105 C 0.37511 0.20263 0.55693
 C1106 C 0.36495 0.18546 0.56700
 C1107 C 0.34527 0.17810 0.55982
 C1108 C 0.33540 0.18750 0.54212
 C1109 C 0.34530 0.20518 0.53245
 C1110 C 0.36494 0.21276 0.53989
 C1111 C 0.39647 0.20944 0.56407
 C1112 C 0.40119 0.23094 0.56890
 C1113 C 0.42095 0.23688 0.57734
 C1114 C 0.43643 0.22145 0.58084
 C1115 C 0.43188 0.20009 0.57502
 C1116 C 0.41210 0.19415 0.56690
 C1117 C 0.45675 0.22726 0.59161
 C1118 C 0.46582 0.21320 0.60633
 C1119 C 0.48431 0.21886 0.61734
 C1120 C 0.49412 0.23872 0.61395
 C1121 C 0.48527 0.25283 0.59927
 C1122 C 0.46683 0.24710 0.58805
 H1123 H 0.37230 0.17768 0.58046
 H1124 H 0.33787 0.16488 0.56807
 H1125 H 0.33825 0.21269 0.51869
 H1126 H 0.37252 0.22604 0.53188
 H1127 H 0.38934 0.24299 0.56692
 H1128 H 0.42379 0.25343 0.58186
 H1129 H 0.44356 0.18787 0.57696
 H1130 H 0.40892 0.17751 0.56293
 H1131 H 0.45825 0.19806 0.60995
 H1132 H 0.49041 0.20793 0.62904
 H1133 H 0.49246 0.26840 0.59672
 H1134 H 0.46041 0.25825 0.57672
 C1135 C 0.86306 0.69804 0.03805
 C1136 C 0.85108 0.68545 0.05207
 C1137 C 0.83166 0.67677 0.04563
 C1138 C 0.82368 0.68048 0.02501
 C1139 C 0.83525 0.69370 0.01119
 C1140 C 0.85479 0.70240 0.01765
 C1141 C 0.88420 0.70620 0.04486
 C1142 C 0.89084 0.72723 0.04044
 C1143 C 0.91007 0.73523 0.04858
 C1144 C 0.92291 0.72233 0.06129
 C1145 C 0.91669 0.70104 0.06483
 C1146 C 0.89760 0.69307 0.05669
 C1147 C 0.94196 0.73127 0.07221
 C1148 C 0.94543 0.72688 0.09392
 C1149 C 0.96305 0.73530 0.10463
 C1150 C 0.97764 0.74818 0.09386
 C1151 C 0.97440 0.75264 0.07216
 C1152 C 0.95656 0.74434 0.06141
 H1153 H 0.85673 0.68228 0.06809
 H1154 H 0.82288 0.66707 0.05681
 H1155 H 0.82952 0.69673 -0.00483
 H1156 H 0.86370 0.71200 0.00649
 H1157 H 0.88082 0.73774 0.03144
 H1158 H 0.91446 0.75173 0.04572
 H1159 H 0.92649 0.69063 0.07422
 H1160 H 0.89319 0.67663 0.05988
 H1161 H 0.93429 0.71719 0.10275
 H1162 H 0.96521 0.73186 0.12144
 H1163 H 0.98549 0.76265 0.06364
 H1164 H 0.95425 0.74793 0.04465
 C1165 C 0.62676 0.70022 0.95171
 C1166 C 0.62722 0.67871 0.95794
 C1167 C 0.64562 0.66997 0.96610
 C1168 C 0.66414 0.68240 0.96801
 C1169 C 0.66391 0.70381 0.96154
 C1170 C 0.64537 0.71268 0.95358
 C1171 C 0.60699 0.70926 0.94294
 C1172 C 0.60746 0.72395 0.92605
 C1173 C 0.58874 0.73100 0.91675
 C1174 C 0.56921 0.72330 0.92399
 C1175 C 0.56867 0.70922 0.94129
 C1176 C 0.58732 0.70243 0.95078
 C1177 C 0.54948 0.72874 0.91273
 C1178 C 0.53547 0.71238 0.90608
 C1179 C 0.51709 0.71713 0.89487
 C1180 C 0.51210 0.73838 0.89050
 C1181 C 0.52603 0.75480 0.89725
 C1182 C 0.54469 0.75002 0.90813
 H1183 H 0.61343 0.66843 0.95618
 H1184 H 0.64547 0.65329 0.97054
 H1185 H 0.67799 0.71375 0.96295
 H1186 H 0.64556 0.72934 0.94914
 H1187 H 0.62228 0.72939 0.91945
 H1188 H 0.58952 0.74176 0.90332
 H1189 H 0.55377 0.70330 0.94732
 H1190 H 0.58630 0.69161 0.96413
 H1191 H 0.53899 0.69583 0.90915
 H1192 H 0.50704 0.70404 0.88958
 H1193 H 0.52267 0.77131 0.89380
 H1194 H 0.55530 0.76290 0.91307
 C1195 C 0.14691 0.21357 0.44717
 C1196 C 0.16287 0.20419 0.43501
 C1197 C 0.18076 0.19608 0.44495
 C1198 C 0.18310 0.19709 0.46731
 C1199 C 0.16739 0.20691 0.47945
 C1200 C 0.14951 0.21509 0.46950
 C1201 C 0.12732 0.22096 0.43659
 C1202 C 0.10757 0.21741 0.44605
 C1203 C 0.08907 0.22307 0.43541
 C1204 C 0.08991 0.23230 0.41505
 C1205 C 0.10965 0.23635 0.40584
 C1206 C 0.12814 0.23080 0.41650
 C1207 C 0.07031 0.23705 0.40307
 C1208 C 0.06864 0.23192 0.38118
 C1209 C 0.05039 0.23652 0.36969
 C1210 C 0.03354 0.24646 0.37980
 C1211 C 0.03494 0.25140 0.40168
 C1212 C 0.05320 0.24666 0.41328
 H1213 H 0.16122 0.20241 0.41783
 H1214 H 0.19238 0.18827 0.43518
 H1215 H 0.16889 0.20815 0.49669
 H1216 H 0.13768 0.22254 0.47929
 H1217 H 0.10636 0.20960 0.46137
 H1218 H 0.07406 0.21959 0.44280
 H1219 H 0.11080 0.24381 0.39033
 H1220 H 0.14309 0.23415 0.40896
 H1221 H 0.08141 0.22418 0.37297
 H1222 H 0.04950 0.23251 0.35281
 H1223 H 0.02211 0.25913 0.40976
 H1224 H 0.05411 0.25088 0.43010
 C1225 C 0.56628 0.10935 0.70915
 C1226 C 0.58455 0.10983 0.72201
 C1227 C 0.59259 0.09104 0.73038
 C1228 C 0.58291 0.07112 0.72574
 C1229 C 0.56435 0.07066 0.71332
 C1230 C 0.55605 0.08953 0.70530
 C1231 C 0.55854 0.12926 0.69907
 C1232 C 0.54911 0.12856 0.67864
 C1233 C 0.54271 0.14726 0.66872
 C1234 C 0.54597 0.16730 0.67870
 C1235 C 0.55519 0.16802 0.69924
 C1236 C 0.56120 0.14924 0.70936
 C1237 C 0.53991 0.18727 0.66759
 C1238 C 0.53267 0.20510 0.67913
 C1239 C 0.52648 0.22354 0.66848
 C1240 C 0.52684 0.22426 0.64610
 C1241 C 0.53465 0.20687 0.63459
 C1242 C 0.54125 0.18864 0.64518
 H1243 H 0.59307 0.12465 0.72518
 H1244 H 0.60659 0.09218 0.74033
 H1245 H 0.55649 0.05568 0.70923
 H1246 H 0.54169 0.08850 0.69590
 H1247 H 0.54704 0.11360 0.66999
 H1248 H 0.53521 0.14593 0.65314
 H1249 H 0.55816 0.18310 0.70740
 H1250 H 0.56801 0.15047 0.72526
 H1251 H 0.53136 0.20472 0.69636
 H1252 H 0.52130 0.23702 0.67783
 H1253 H 0.53545 0.20730 0.61729
 H1254 H 0.54741 0.17563 0.63573
 C1255 C 1.05976 0.62456 0.18480
 C1256 C 1.08100 0.61992 0.18143
 C1257 C 1.08959 0.60128 0.18956
 C1258 C 1.07721 0.58695 0.20151
 C1259 C 1.05593 0.59169 0.20493
 C1260 C 1.04727 0.61024 0.19653
 C1261 C 1.05067 0.64411 0.17568
 C1262 C 1.03158 0.64302 0.16421
 C1263 C 1.02363 0.66123 0.15453
 C1264 C 1.03447 0.68093 0.15639
 C1265 C 1.05327 0.68214 0.16834
 C1266 C 1.06138 0.66386 0.17776
 C1267 C 1.02653 0.69997 0.14530
 C1268 C 1.02527 0.71973 0.15603
 C1269 C 1.01760 0.73761 0.14545
 C1270 C 1.01151 0.73610 0.12386
 C1271 C 1.01288 0.71639 0.11314
 C1272 C 1.02022 0.69848 0.12377
 H1273 H 1.09086 0.63053 0.17212
 H1274 H 1.10588 0.59796 0.18615
 H1275 H 1.04601 0.58123 0.21433
 H1276 H 1.03087 0.61356 0.19946
 H1277 H 1.02311 0.62795 0.16228
 H1278 H 1.00902 0.65995 0.14553
 H1279 H 1.06196 0.69712 0.16990
 H1280 H 1.07606 0.66511 0.18666
 H1281 H 1.02988 0.72121 0.17271
 H1282 H 1.01640 0.75243 0.15427
 H1283 H 1.00795 0.71471 0.09659
 H1284 H 1.02117 0.68347 0.11509
 C1285 C 0.94097 0.88272 0.20332
 C1286 C 0.91999 0.88738 0.19833
 C1287 C 0.91017 0.90467 0.20797
 C1288 C 0.92101 0.91768 0.22302
 C1289 C 0.94211 0.91316 0.22790
 C1290 C 0.95203 0.89588 0.21806
 C1291 C 0.95110 0.86426 0.19288
 C1292 C 0.97125 0.86629 0.18399
 C1293 C 0.97978 0.84938 0.17230
 C1294 C 0.96834 0.83011 0.16940
 C1295 C 0.94861 0.82782 0.17917
 C1296 C 0.94006 0.84472 0.19071
 C1297 C 0.97630 0.81284 0.15533
 C1298 C 0.96238 0.80173 0.14142
 C1299 C 0.96962 0.78571 0.12785
 C1300 C 0.99094 0.78036 0.12789
 C1301 C 1.00498 0.79155 0.14154
 C1302 C 0.99774 0.80763 0.15520
 H1303 H 0.91124 0.87779 0.18667
 H1304 H 0.89411 0.90801 0.20337
 H1305 H 0.95086 0.92275 0.23955
 H1306 H 0.96821 0.89256 0.22224
 H1307 H 0.98002 0.88123 0.18532
 H1308 H 0.99495 0.85169 0.16483
 H1309 H 0.93962 0.81302 0.17767
 H1310 H 0.92467 0.84260 0.19775
 H1311 H 0.94588 0.80571 0.14070
 H1312 H 0.95844 0.77779 0.11719
 H1313 H 1.02159 0.78801 0.14149
 H1314 H 1.00886 0.81589 0.16572
 C1315 C 0.44389 0.37577 0.70759
 C1316 C 0.42179 0.37452 0.70862
 C1317 C 0.41016 0.39193 0.71552
 C1318 C 0.42006 0.41162 0.72070
 C1319 C 0.44218 0.41291 0.71977
 C1320 C 0.45391 0.39517 0.71371
 C1321 C 0.45619 0.35718 0.69951
 C1322 C 0.47584 0.36023 0.68967
 C1323 C 0.48671 0.34297 0.68107
 C1324 C 0.47793 0.32215 0.68116
 C1325 C 0.45844 0.31908 0.69133
 C1326 C 0.44803 0.33617 0.70077
 C1327 C 0.48855 0.30400 0.67004
 C1328 C 0.48430 0.28259 0.67568
 C1329 C 0.49287 0.26571 0.66406
 C1330 C 0.50697 0.26973 0.64747
 C1331 C 0.51164 0.29088 0.64196
 C1332 C 0.50235 0.30779 0.65288
 H1333 H 0.41316 0.36025 0.70371
 H1334 H 0.39330 0.38975 0.71665
 H1335 H 0.45060 0.42769 0.72335
 H1336 H 0.47086 0.39687 0.71378
 H1337 H 0.48279 0.37600 0.68800
 H1338 H 0.50196 0.34620 0.67416
 H1339 H 0.45071 0.30358 0.69168
 H1340 H 0.43340 0.33274 0.70882
 H1341 H 0.47419 0.27864 0.68892
 H1342 H 0.48830 0.24949 0.66798
 H1343 H 0.52181 0.29442 0.62861
 H1344 H 0.50558 0.32376 0.64724
 C1345 C 0.42935 0.60556 0.79991
 C1346 C 0.42442 0.58835 0.81331
 C1347 C 0.41597 0.56934 0.80481
 C1348 C 0.41205 0.56714 0.78272
 C1349 C 0.41754 0.58417 0.76924
 C1350 C 0.42619 0.60317 0.77775
 C1351 C 0.43714 0.62609 0.80926
 C1352 C 0.45438 0.63709 0.80041
 C1353 C 0.46208 0.65604 0.80991
 C1354 C 0.45254 0.66444 0.82832
 C1355 C 0.43490 0.65369 0.83672
 C1356 C 0.42736 0.63470 0.82737
 C1357 C 0.46122 0.68396 0.83919
 C1358 C 0.46148 0.68539 0.86165
 C1359 C 0.46942 0.70366 0.87203
 C1360 C 0.47760 0.72077 0.86027
 C1361 C 0.47735 0.71954 0.83787
 C1362 C 0.46925 0.70126 0.82740
 H1363 H 0.42709 0.58964 0.83041
 H1364 H 0.41240 0.55638 0.81559
 H1365 H 0.41452 0.58310 0.75219
 H1366 H 0.42974 0.61626 0.76710
 H1367 H 0.46225 0.63071 0.78650
 H1368 H 0.47582 0.66380 0.80316
 H1369 H 0.42684 0.65997 0.85055
 H1370 H 0.41377 0.62677 0.83424
 H1371 H 0.45573 0.67229 0.87127
 H1372 H 0.46916 0.70443 0.88934
 H1373 H 0.48325 0.73268 0.82843
 H1374 H 0.46899 0.70080 0.81009
 C1375 C -0.05801 0.11290 0.29974
 C1376 C -0.04763 0.09799 0.28677
 C1377 C -0.05801 0.07921 0.27986
 C1378 C -0.07891 0.07496 0.28588
 C1379 C -0.08939 0.09009 0.29841
 C1380 C -0.07910 0.10885 0.30520
 C1381 C -0.04685 0.13237 0.30807
 C1382 C -0.05036 0.13953 0.32909
 C1383 C -0.04025 0.15794 0.33702
 C1384 C -0.02621 0.16963 0.32420
 C1385 C -0.02255 0.16244 0.30320
 C1386 C -0.03275 0.14398 0.29522
 C1387 C -0.01577 0.18937 0.33283
 C1388 C -0.01320 0.20759 0.32005
 C1389 C -0.00482 0.22660 0.32880
 C1390 C 0.00087 0.22779 0.35051
 C1391 C -0.00076 0.20939 0.36298
 C1392 C -0.00897 0.19039 0.35427
 H1393 H -0.03133 0.10054 0.28246
 H1394 H -0.04953 0.06776 0.27031
 H1395 H -0.10564 0.08744 0.30291
 H1396 H -0.08770 0.12023 0.31473
 H1397 H -0.06087 0.13080 0.33952
 H1398 H -0.04368 0.16319 0.35315
 H1399 H -0.01169 0.17099 0.29299
 H1400 H -0.02983 0.13897 0.27890
 H1401 H -0.01826 0.20735 0.30347
 H1402 H -0.00321 0.24033 0.31862
 H1403 H 0.00426 0.20966 0.37957
 H1404 H -0.01011 0.17649 0.36438
 C1405 C 0.04611 0.39066 0.27772
 C1406 C 0.05678 0.39094 0.25813
 C1407 C 0.06487 0.41016 0.25009
 C1408 C 0.06237 0.42942 0.26149
 C1409 C 0.05046 0.42926 0.28032
 C1410 C 0.04245 0.41010 0.28836
 C1411 C 0.04055 0.37016 0.28808
 C1412 C 0.04523 0.36741 0.30986
 C1413 C 0.04097 0.34799 0.31975
 C1414 C 0.03185 0.33084 0.30814
 C1415 C 0.02686 0.33358 0.28641
 C1416 C 0.03135 0.35304 0.27640
 C1417 C 0.02748 0.31034 0.31904
 C1418 C 0.00780 0.29994 0.31686
 C1419 C 0.00293 0.28212 0.32934
 C1420 C 0.01771 0.27430 0.34399
 C1421 C 0.03768 0.28413 0.34541
 C1422 C 0.04252 0.30194 0.33305
 H1423 H 0.05992 0.37618 0.24967
 H1424 H 0.07411 0.40976 0.23563
 H1425 H 0.04791 0.44391 0.28922
 H1426 H 0.03391 0.41038 0.30327
 H1427 H 0.05259 0.38020 0.31919
 H1428 H 0.04471 0.34642 0.33659
 H1429 H 0.01983 0.32058 0.27712
 H1430 H 0.02755 0.35478 0.25960
 H1431 H -0.00416 0.30624 0.30635
 H1432 H -0.01278 0.27519 0.32838
 H1433 H 0.04937 0.27873 0.35669
 H1434 H 0.05789 0.30952 0.33487
 C1435 C 0.54497 0.87645 0.79081
 C1436 C 0.56092 0.87451 0.77545
 C1437 C 0.57151 0.89266 0.76785
 C1438 C 0.56655 0.91300 0.77570
 C1439 C 0.55011 0.91510 0.79032
 C1440 C 0.53925 0.89705 0.79758
 C1441 C 0.53527 0.85718 0.80082
 C1442 C 0.52981 0.85765 0.82259
 C1443 C 0.52119 0.83963 0.83234
 C1444 C 0.51809 0.82054 0.82072
 C1445 C 0.52367 0.81982 0.79905
 C1446 C 0.53203 0.83802 0.78914
 C1447 C 0.50939 0.80148 0.83158
 C1448 C 0.51954 0.78176 0.83028
 C1449 C 0.51260 0.76453 0.84262
 C1450 C 0.49527 0.76673 0.85616
 C1451 C 0.48454 0.78609 0.85666
 C1452 C 0.49160 0.80334 0.84457
 H1453 H 0.56593 0.85896 0.77001
 H1454 H 0.58430 0.89076 0.75669
 H1455 H 0.54599 0.93071 0.79644
 H1456 H 0.52665 0.89926 0.80888
 H1457 H 0.53263 0.87182 0.83232
 H1458 H 0.51737 0.84046 0.84918
 H1459 H 0.52132 0.80526 0.78976
 H1460 H 0.53582 0.83709 0.77231
 H1461 H 0.53337 0.77999 0.82046
 H1462 H 0.52111 0.74971 0.84210
 H1463 H 0.47099 0.78819 0.86675
 H1464 H 0.48338 0.81831 0.84564
 C1465 C 0.70202 0.56697 0.11745
 C1466 C 0.71071 0.55490 0.10081
 C1467 C 0.71736 0.56469 0.08193
 C1468 C 0.71569 0.58706 0.07902
 C1469 C 0.70671 0.59887 0.09603
 C1470 C 0.70002 0.58901 0.11473
 C1471 C 0.69454 0.55677 0.13745
 C1472 C 0.69710 0.56744 0.15723
 C1473 C 0.68823 0.55904 0.17575
 C1474 C 0.67678 0.53968 0.17498
 C1475 C 0.67508 0.52841 0.15547
 C1476 C 0.68382 0.53691 0.13686
 C1477 C 0.66543 0.53212 0.19415
 C1478 C 0.66599 0.51063 0.20037
 C1479 C 0.65468 0.50372 0.21823
 C1480 C 0.64253 0.51813 0.22992
 C1481 C 0.64185 0.53952 0.22362
 C1482 C 0.65333 0.54649 0.20602
 H1483 H 0.71277 0.53787 0.10254
 H1484 H 0.72477 0.55449 0.07028
 H1485 H 0.70350 0.61570 0.09483
 H1486 H 0.69268 0.59871 0.12691
 H1487 H 0.70572 0.58249 0.15835
 H1488 H 0.69007 0.56786 0.19066
 H1489 H 0.66618 0.51352 0.15444
 H1490 H 0.68141 0.52837 0.12187
 H1491 H 0.67521 0.49925 0.19148
 H1492 H 0.65522 0.48709 0.22276
 H1493 H 0.63226 0.55091 0.23197
 H1494 H 0.65230 0.56304 0.20133
 C1495 C 0.20474 1.07264 0.61708
 C1496 C 0.19529 1.06992 0.59675
 C1497 C 0.20385 1.07993 0.57885
 C1498 C 0.22186 1.09309 0.58093
 C1499 C 0.23154 1.09556 0.60109
 C1500 C 0.22317 1.08533 0.61893
 C1501 C 0.19502 1.06288 0.63632
 C1502 C 0.19547 1.07384 0.65611
 C1503 C 0.18567 1.06510 0.67400
 C1504 C 0.17495 1.04536 0.67245
 C1505 C 0.17464 1.03426 0.65283
 C1506 C 0.18469 1.04285 0.63499
 C1507 C 0.16349 1.03673 0.69105
 C1508 C 0.14263 1.02930 0.68864
 C1509 C 0.13151 1.02172 0.70623
 C1510 C 0.14115 1.02116 0.72646
 C1511 C 0.16204 1.02835 0.72894
 C1512 C 0.17309 1.03626 0.71137
 H1513 H 0.18090 1.06059 0.59474
 H1514 H 0.19599 1.07796 0.56350
 H1515 H 0.24561 1.10543 0.60302
 H1516 H 0.23116 1.08740 0.63420
 H1517 H 0.20290 1.08948 0.65767
 H1518 H 0.18590 1.07407 0.68891
 H1519 H 0.16667 1.01887 0.65132
 H1520 H 0.18438 1.03375 0.62017
 H1521 H 0.13480 1.02973 0.67319
 H1522 H 0.11535 1.01630 0.70404
 H1523 H 0.16981 1.02802 0.74438
 H1524 H 0.18921 1.04183 0.71359
 C1525 C 0.20987 0.95945 0.88246
 C1526 C 0.21729 0.97159 0.90000
 C1527 C 0.22489 0.96162 0.91840
 C1528 C 0.22533 0.93901 0.91995
 C1529 C 0.21760 0.92713 0.90199
 C1530 C 0.21008 0.93716 0.88374
 C1531 C 0.20134 0.96973 0.86299
 C1532 C 0.20546 0.96106 0.84266
 C1533 C 0.19553 0.96899 0.82449
 C1534 C 0.18134 0.98584 0.82619
 C1535 C 0.17808 0.99533 0.84632
 C1536 C 0.18797 0.98733 0.86458
 C1537 C 0.16877 0.99220 0.80729
 C1538 C 0.16544 1.01380 0.80264
 C1539 C 0.15297 1.01938 0.78504
 C1540 C 0.14353 1.00346 0.77204
 C1541 C 0.14679 0.98194 0.77675
 C1542 C 0.15937 0.97637 0.79411
 H1543 H 0.21757 0.98887 0.89936
 H1544 H 0.23123 0.97205 0.93080
 H1545 H 0.21600 0.90994 0.90203
 H1546 H 0.20380 0.92732 0.87075
 H1547 H 0.21606 0.94783 0.84086
 H1548 H 0.19863 0.96164 0.80910
 H1549 H 0.16710 1.00825 0.84809
 H1550 H 0.18439 0.99426 0.88004
 H1551 H 0.17252 1.02631 0.81255
 H1552 H 0.15049 1.03610 0.78174
 H1553 H 0.13954 0.96929 0.76723
 H1554 H 0.16134 0.95960 0.79754
 C1555 C 0.70768 0.44197 0.38061
 C1556 C 0.72810 0.44766 0.38783
 C1557 C 0.73698 0.43761 0.40558
 C1558 C 0.72575 0.42145 0.41618
 C1559 C 0.70535 0.41592 0.40920
 C1560 C 0.69633 0.42620 0.39180
 C1561 C 0.69815 0.45222 0.36150
 C1562 C 0.68433 0.44043 0.34796
 C1563 C 0.67423 0.45020 0.33086
 C1564 C 0.67807 0.47182 0.32655
 C1565 C 0.69245 0.48351 0.33937
 C1566 C 0.70229 0.47385 0.35682
 C1567 C 0.66617 0.48217 0.30930
 C1568 C 0.67649 0.49127 0.29175
 C1569 C 0.66481 0.49950 0.27471
 C1570 C 0.64275 0.49893 0.27527
 C1571 C 0.63253 0.49078 0.29328
 C1572 C 0.64413 0.48217 0.31002
 H1573 H 0.73743 0.45953 0.37953
 H1574 H 0.75281 0.44202 0.41068
 H1575 H 0.69630 0.40371 0.41737
 H1576 H 0.68036 0.42182 0.38721
 H1577 H 0.68121 0.42362 0.35058
 H1578 H 0.66332 0.44088 0.32097
 H1579 H 0.69550 0.50027 0.33630
 H1580 H 0.71263 0.48351 0.36697
 H1581 H 0.69351 0.49143 0.29099
 H1582 H 0.67299 0.50606 0.26110
 H1583 H 0.61551 0.49050 0.29409
 H1584 H 0.63591 0.47538 0.32353
 C1585 C 0.79805 0.44578 0.60984
 C1586 C 0.77766 0.43693 0.60750
 C1587 C 0.77156 0.42643 0.58853
 C1588 C 0.78572 0.42452 0.57149
 C1589 C 0.80593 0.43379 0.57367
 C1590 C 0.81203 0.44426 0.59261
 C1591 C 0.80512 0.45579 0.63039
 C1592 C 0.81845 0.47395 0.63052
 C1593 C 0.82660 0.48226 0.64975
 C1594 C 0.82154 0.47266 0.66930
 C1595 C 0.80759 0.45501 0.66928
 C1596 C 0.79950 0.44663 0.65002
 C1597 C 0.83168 0.48034 0.68947
 C1598 C 0.82008 0.48220 0.70845
 C1599 C 0.82999 0.48887 0.72752
 C1600 C 0.85163 0.49358 0.72787
 C1601 C 0.86322 0.49175 0.70902
 C1602 C 0.85334 0.48526 0.68997
 H1603 H 0.76646 0.43802 0.62039
 H1604 H 0.75594 0.41930 0.58742
 H1605 H 0.81712 0.43284 0.56074
 H1606 H 0.82793 0.45066 0.59395
 H1607 H 0.82274 0.48165 0.61571
 H1608 H 0.83703 0.49611 0.64932
 H1609 H 0.80359 0.44716 0.68409
 H1610 H 0.78948 0.43248 0.65047
 H1611 H 0.80336 0.47860 0.70849
 H1612 H 0.82080 0.49007 0.74195
 H1613 H 0.87998 0.49518 0.70907
 H1614 H 0.86275 0.48363 0.67571
 C1615 C 0.30043 -0.03587 0.11463
 C1616 C 0.27956 -0.04369 0.11375
 C1617 C 0.27138 -0.05286 0.09485
 C1618 C 0.28393 -0.05439 0.07652
 C1619 C 0.30439 -0.04553 0.07712
 C1620 C 0.31254 -0.03636 0.09594
 C1621 C 0.31013 -0.02874 0.13523
 C1622 C 0.33054 -0.03521 0.14059
 C1623 C 0.33964 -0.02940 0.16022
 C1624 C 0.32857 -0.01697 0.17501
 C1625 C 0.30825 -0.01020 0.16961
 C1626 C 0.29906 -0.01614 0.14993
 C1627 C 0.33835 -0.01137 0.19600
 C1628 C 0.33748 0.00951 0.20439
 C1629 C 0.34827 0.01497 0.22334
 C1630 C 0.35985 -0.00041 0.23428
 C1631 C 0.36026 -0.02136 0.22623
 C1632 C 0.34957 -0.02681 0.20733
 H1633 H 0.26990 -0.04365 0.12793
 H1634 H 0.25561 -0.05969 0.09490
 H1635 H 0.31428 -0.04608 0.06310
 H1636 H 0.32851 -0.03004 0.09600
 H1637 H 0.33937 -0.04517 0.12976
 H1638 H 0.35543 -0.03461 0.16381
 H1639 H 0.29935 -0.00066 0.18075
 H1640 H 0.28334 -0.01085 0.14617
 H1641 H 0.32912 0.02177 0.19588
 H1642 H 0.34805 0.03132 0.22916
 H1643 H 0.36925 -0.03351 0.23414
 H1644 H 0.35031 -0.04308 0.20139
 C1645 C 0.29932 0.07042 0.39076
 C1646 C 0.27886 0.07856 0.39047
 C1647 C 0.27088 0.08886 0.40860
 C1648 C 0.28320 0.09108 0.42732
 C1649 C 0.30323 0.08194 0.42783
 C1650 C 0.31122 0.07182 0.40976
 C1651 C 0.30887 0.06148 0.37115
 C1652 C 0.32942 0.06770 0.36562
 C1653 C 0.33899 0.05898 0.34765
 C1654 C 0.32834 0.04363 0.33483
 C1655 C 0.30755 0.03774 0.34006
 C1656 C 0.29787 0.04667 0.35803
 C1657 C 0.33922 0.03374 0.31634
 C1658 C 0.32853 0.02935 0.29693
 C1659 C 0.33932 0.02105 0.27934
 C1660 C 0.36093 0.01719 0.28090
 C1661 C 0.37146 0.02095 0.30036
 C1662 C 0.36073 0.02905 0.31792
 H1663 H 0.26941 0.07774 0.37598
 H1664 H 0.25543 0.09584 0.40767
 H1665 H 0.31290 0.08289 0.44217
 H1666 H 0.32687 0.06527 0.41054
 H1667 H 0.33808 0.07946 0.37519
 H1668 H 0.35477 0.06434 0.34377
 H1669 H 0.29896 0.02587 0.33058
 H1670 H 0.28201 0.04159 0.36200
 H1671 H 0.31199 0.03285 0.29516
 H1672 H 0.33083 0.01802 0.26452
 H1673 H 0.38811 0.01783 0.30192
 H1674 H 0.36933 0.03169 0.33276
 C1675 C 0.77870 0.55888 0.88171
 C1676 C 0.76743 0.57795 0.88068
 C1677 C 0.75993 0.58760 0.89929
 C1678 C 0.76348 0.57839 0.91938
 C1679 C 0.77414 0.55893 0.92034
 C1680 C 0.78166 0.54928 0.90171
 C1681 C 0.78831 0.54970 0.86216
 C1682 C 0.78859 0.52749 0.85865
 C1683 C 0.79867 0.51896 0.84077
 C1684 C 0.80868 0.53247 0.82602
 C1685 C 0.80808 0.55467 0.82937
 C1686 C 0.79803 0.56318 0.84722
 C1687 C 0.82059 0.52358 0.80773
 C1688 C 0.82012 0.53354 0.78769
 C1689 C 0.83290 0.52643 0.77110
 C1690 C 0.84651 0.50935 0.77423
 C1691 C 0.84615 0.49863 0.79382
 C1692 C 0.83339 0.50572 0.81045
 H1693 H 0.76464 0.58559 0.86549
 H1694 H 0.75197 0.60269 0.89798
 H1695 H 0.77690 0.55129 0.93554
 H1696 H 0.79041 0.53467 0.90306
 H1697 H 0.78100 0.51671 0.86973
 H1698 H 0.79864 0.50180 0.83847
 H1699 H 0.81599 0.56550 0.81856
 H1700 H 0.79846 0.58033 0.84966
 H1701 H 0.81002 0.54700 0.78492
 H1702 H 0.83224 0.53452 0.75596
 H1703 H 0.85595 0.48500 0.79658
 H1704 H 0.83413 0.49769 0.82568
 C1705 C 0.11974 0.70433 0.56029
 C1706 C 0.09977 0.69544 0.55534
 C1707 C 0.08180 0.70291 0.56552
 C1708 C 0.08342 0.71931 0.58096
 C1709 C 0.10327 0.72858 0.58551
 C1710 C 0.12121 0.72122 0.57524
 C1711 C 0.13900 0.69533 0.55066
 C1712 C 0.15732 0.69297 0.56313
 C1713 C 0.17503 0.68328 0.55458
 C1714 C 0.17484 0.67559 0.53338
 C1715 C 0.15673 0.67844 0.52072
 C1716 C 0.13902 0.68822 0.52926
 C1717 C 0.19300 0.66366 0.52485
 C1718 C 0.19944 0.66614 0.50356
 C1719 C 0.21563 0.65379 0.49526
 C1720 C 0.22553 0.63856 0.50799
 C1721 C 0.21982 0.63682 0.52953
 C1722 C 0.20364 0.64909 0.53783
 H1723 H 0.09810 0.68221 0.54414
 H1724 H 0.06672 0.69534 0.56187
 H1725 H 0.10491 0.74150 0.59709
 H1726 H 0.13628 0.72870 0.57910
 H1727 H 0.15778 0.69806 0.57973
 H1728 H 0.18883 0.68160 0.56466
 H1729 H 0.15600 0.67253 0.50439
 H1730 H 0.12527 0.69005 0.51914
 H1731 H 0.19194 0.67763 0.49330
 H1732 H 0.22023 0.65615 0.47888
 H1733 H 0.22763 0.62588 0.54006
 H1734 H 0.19908 0.64672 0.55429
 C1735 C 0.61566 0.20378 1.05635
 C1736 C 0.59612 0.20276 1.04562
 C1737 C 0.57828 0.21166 1.05486
 C1738 C 0.57961 0.22180 1.07500
 C1739 C 0.59922 0.22310 1.08555
 C1740 C 0.61702 0.21419 1.07634
 C1741 C 0.63441 0.19336 1.04717
 C1742 C 0.65448 0.20304 1.04916
 C1743 C 0.67229 0.19259 1.04174
 C1744 C 0.67042 0.17226 1.03212
 C1745 C 0.65032 0.16280 1.02969
 C1746 C 0.63252 0.17322 1.03714
 C1747 C 0.68940 0.16055 1.02540
 C1748 C 0.68934 0.14863 1.00623
 C1749 C 0.70676 0.13657 1.00058
 C1750 C 0.72447 0.13604 1.01409
 C1751 C 0.72488 0.14848 1.03285
 C1752 C 0.70749 0.16059 1.03850
 H1753 H 0.59463 0.19511 1.03006
 H1754 H 0.56345 0.21065 1.04623
 H1755 H 0.60069 0.23046 1.10125
 H1756 H 0.63173 0.21492 1.08520
 H1757 H 0.65642 0.21871 1.05649
 H1758 H 0.68754 0.20042 1.04353
 H1759 H 0.64841 0.14701 1.02263
 H1760 H 0.61734 0.16519 1.03567
 H1761 H 0.67580 0.14864 0.99559
 H1762 H 0.70627 0.12767 0.98567
 H1763 H 0.73846 0.14858 1.04338
 H1764 H 0.70798 0.16950 1.05344
 C1765 C 0.87575 0.20330 0.94640
 C1766 C 0.89217 0.21283 0.95837
 C1767 C 0.90991 0.22141 0.94827
 C1768 C 0.91196 0.22069 0.92566
 C1769 C 0.89502 0.21103 0.91392
 C1770 C 0.87735 0.20258 0.92411
 C1771 C 0.85723 0.19347 0.95704
 C1772 C 0.85986 0.18081 0.97526
 C1773 C 0.84261 0.17022 0.98430
 C1774 C 0.82237 0.17218 0.97538
 C1775 C 0.81965 0.18537 0.95757
 C1776 C 0.83690 0.19587 0.94847
 C1777 C 0.80431 0.15974 0.98399
 C1778 C 0.78442 0.16899 0.98606
 C1779 C 0.76726 0.15689 0.99332
 C1780 C 0.76974 0.13536 0.99850
 C1781 C 0.78956 0.12614 0.99667
 C1782 C 0.80672 0.13821 0.98950
 H1783 H 0.89117 0.21394 0.97563
 H1784 H 0.92139 0.22934 0.95855
 H1785 H 0.89550 0.20858 0.89682
 H1786 H 0.86516 0.19480 0.91447
 H1787 H 0.87535 0.17854 0.98212
 H1788 H 0.84513 0.16035 0.99817
 H1789 H 0.80427 0.18705 0.95025
 H1790 H 0.83438 0.20573 0.93459
 H1791 H 0.78215 0.18559 0.98209
 H1792 H 0.75208 0.16433 0.99464
 H1793 H 0.79171 0.10950 1.00056
 H1794 H 0.82176 0.13055 0.98778
 C1795 C 0.38168 0.70017 0.44510
 C1796 C 0.39102 0.71849 0.45459
 C1797 C 0.40892 0.72800 0.44556
 C1798 C 0.41751 0.71954 0.42672
 C1799 C 0.40808 0.70129 0.41724
 C1800 C 0.39042 0.69167 0.42637
 C1801 C 0.36278 0.68986 0.45441
 C1802 C 0.36163 0.66755 0.45624
 C1803 C 0.34328 0.65752 0.46341
 C1804 C 0.32556 0.66953 0.46874
 C1805 C 0.32694 0.69194 0.46756
 C1806 C 0.34542 0.70201 0.46052
 C1807 C 0.30562 0.65855 0.47485
 C1808 C 0.29288 0.66676 0.49119
 C1809 C 0.27451 0.65582 0.49723
 C1810 C 0.26860 0.63661 0.48697
 C1811 C 0.28111 0.62850 0.47058
 C1812 C 0.29934 0.63943 0.46445
 H1813 H 0.38461 0.72528 0.46908
 H1814 H 0.41587 0.74213 0.45309
 H1815 H 0.41451 0.69434 0.40283
 H1816 H 0.38341 0.67769 0.41862
 H1817 H 0.37493 0.65785 0.45199
 H1818 H 0.34295 0.64028 0.46469
 H1819 H 0.31353 0.70164 0.47141
 H1820 H 0.34589 0.71924 0.45911
 H1821 H 0.29741 0.68131 0.49967
 H1822 H 0.26520 0.66211 0.51019
 H1823 H 0.27699 0.61352 0.46267
 H1824 H 0.30855 0.63285 0.45156
 C1825 C 0.61633 0.78140 0.45332
 C1826 C 0.60010 0.77129 0.46477
 C1827 C 0.58048 0.76714 0.45504
 C1828 C 0.57670 0.77339 0.43383
 C1829 C 0.59297 0.78344 0.42245
 C1830 C 0.61255 0.78734 0.43205
 C1831 C 0.63699 0.78661 0.46347
 C1832 C 0.65562 0.78356 0.45202
 C1833 C 0.67484 0.79134 0.46007
 C1834 C 0.67586 0.80241 0.47972
 C1835 C 0.65743 0.80424 0.49185
 C1836 C 0.63815 0.79638 0.48379
 C1837 C 0.69551 0.81393 0.48631
 C1838 C 0.70238 0.81455 0.50776
 C1839 C 0.72011 0.82689 0.51380
 C1840 C 0.73109 0.83885 0.49853
 C1841 C 0.72438 0.83802 0.47713
 C1842 C 0.70686 0.82563 0.47107
 H1843 H 0.60263 0.76652 0.48118
 H1844 H 0.56816 0.75941 0.46416
 H1845 H 0.59058 0.78818 0.40601
 H1846 H 0.62466 0.79543 0.42293
 H1847 H 0.65522 0.77571 0.43650
 H1848 H 0.68886 0.78931 0.45058
 H1849 H 0.65771 0.81283 0.50697
 H1850 H 0.62400 0.79902 0.49290
 H1851 H 0.69394 0.80568 0.51985
 H1852 H 0.72494 0.82752 0.53045
 H1853 H 0.73223 0.84730 0.46501
 H1854 H 0.70171 0.82588 0.45452
 C1855 C 0.11135 0.28118 -0.05404
 C1856 C 0.10668 0.28723 -0.07510
 C1857 C 0.08691 0.28282 -0.08407
 C1858 C 0.07134 0.27217 -0.07225
 C1859 C 0.07603 0.26577 -0.05129
 C1860 C 0.09583 0.27039 -0.04219
 C1861 C 0.13213 0.28698 -0.04449
 C1862 C 0.13361 0.29629 -0.02397
 C1863 C 0.15286 0.30459 -0.01631
 C1864 C 0.17097 0.30369 -0.02904
 C1865 C 0.16970 0.29317 -0.04898
 C1866 C 0.15050 0.28493 -0.05663
 C1867 C 0.19053 0.31542 -0.02257
 C1868 C 0.20140 0.32774 -0.03770
 C1869 C 0.21894 0.34012 -0.03167
 C1870 C 0.22611 0.34033 -0.01043
 C1871 C 0.21558 0.32783 0.00472
 C1872 C 0.19787 0.31548 -0.00128
 H1873 H 0.11821 0.29582 -0.08452
 H1874 H 0.08382 0.28769 -0.10036
 H1875 H 0.06425 0.25757 -0.04184
 H1876 H 0.09906 0.26550 -0.02594
 H1877 H 0.11968 0.29819 -0.01434
 H1878 H 0.15333 0.31275 -0.00095
 H1879 H 0.18348 0.29184 -0.05894
 H1880 H 0.14988 0.27745 -0.07232
 H1881 H 0.19589 0.32841 -0.05412
 H1882 H 0.22647 0.34986 -0.04365
 H1883 H 0.22082 0.32795 0.02126
 H1884 H 0.18983 0.30610 0.01071
 C1885 C 0.38415 0.28518 0.05394
 C1886 C 0.40322 0.28432 0.04273
 C1887 C 0.42177 0.27836 0.05307
 C1888 C 0.42167 0.27303 0.07486
 C1889 C 0.40247 0.27316 0.08585
 C1890 C 0.38397 0.27923 0.07556
 C1891 C 0.36478 0.29340 0.04361
 C1892 C 0.34483 0.28481 0.04858
 C1893 C 0.32655 0.29393 0.04042
 C1894 C 0.32781 0.31177 0.02701
 C1895 C 0.34777 0.31979 0.02135
 C1896 C 0.36602 0.31079 0.02961
 C1897 C 0.30844 0.32267 0.01978
 C1898 C 0.30810 0.34509 0.01894
 C1899 C 0.28995 0.35551 0.01249
 C1900 C 0.27169 0.34380 0.00704
 C1901 C 0.27185 0.32145 0.00771
 C1902 C 0.29010 0.31094 0.01407
 H1903 H 0.40386 0.28850 0.02598
 H1904 H 0.43630 0.27856 0.04416
 H1905 H 0.40175 0.26876 0.10254
 H1906 H 0.36965 0.27992 0.08477
 H1907 H 0.34332 0.27122 0.05905
 H1908 H 0.31143 0.28742 0.04519
 H1909 H 0.34932 0.33327 0.01073
 H1910 H 0.38108 0.31795 0.02559
 H1911 H 0.32178 0.35465 0.02358
 H1912 H 0.29013 0.37280 0.01189
 H1913 H 0.25802 0.31209 0.00319
 H1914 H 0.28993 0.29365 0.01427
 C1915 C 0.89119 0.78759 0.56180
 C1916 C 0.90945 0.80054 0.56174
 C1917 C 0.92812 0.79343 0.57086
 C1918 C 0.92894 0.77324 0.58042
 C1919 C 0.91091 0.75988 0.57965
 C1920 C 0.89220 0.76698 0.57035
 C1921 C 0.87100 0.79621 0.55403
 C1922 C 0.85755 0.78416 0.54044
 C1923 C 0.83882 0.79287 0.53277
 C1924 C 0.83316 0.81372 0.53872
 C1925 C 0.84640 0.82543 0.55283
 C1926 C 0.86511 0.81682 0.56030
 C1927 C 0.81380 0.82358 0.53009
 C1928 C 0.81398 0.84537 0.52486
 C1929 C 0.79571 0.85513 0.51778
 C1930 C 0.77690 0.84332 0.51557
 C1931 C 0.77664 0.82145 0.52010
 C1932 C 0.79496 0.81164 0.52739
 H1933 H 0.90919 0.81634 0.55485
 H1934 H 0.94186 0.80389 0.57072
 H1935 H 0.91100 0.74431 0.58701
 H1936 H 0.87831 0.75673 0.57067
 H1937 H 0.86178 0.76822 0.53535
 H1938 H 0.82904 0.78350 0.52180
 H1939 H 0.84226 0.84128 0.55821
 H1940 H 0.87496 0.82627 0.57115
 H1941 H 0.82830 0.85494 0.52623
 H1942 H 0.79625 0.87201 0.51417
 H1943 H 0.76229 0.81203 0.51837
 H1944 H 0.79426 0.79486 0.53139
   
