data_POSCAR
  _audit_creation_date              2014-09-24
  _audit_creation_method            'ToBaCCo'
  _symmetry_space_group_name_H-M    'P1'
  _symmetry_Int_Tables_number       1
  _symmetry_cell_setting            triclinic
  loop_
  _symmetry_equiv_pos_as_xyz
 x,y,z
_cell_length_a 55.2086
_cell_length_b 55.6861
_cell_length_c 51.6040
_cell_angle_alpha 89.319600
_cell_angle_beta 90.484100
_cell_angle_gamma 90.009500
loop_
  _atom_site_label
  _atom_site_type_symbol
  _atom_site_fract_x
  _atom_site_fract_y
  _atom_site_fract_z
C1 C 0.30265 0.42983 0.92735
 C2 C 0.30479 0.40957 0.94401
 C3 C 0.32372 0.40830 0.96186
 C4 C 0.34076 0.42705 0.96331
 C5 C 0.33845 0.44683 0.94715
 C6 C 0.31939 0.44824 0.92925
 C7 C 0.28765 0.43566 0.90650
 N8 N 0.29515 0.45703 0.89607
 C9 C 0.31446 0.46470 0.90999
 C10 C 0.35823 0.46135 0.95108
 N11 N 0.37284 0.45083 0.96928
 C12 C 0.36216 0.42991 0.97698
 C13 C 0.32205 0.38643 0.97450
 N14 N 0.30263 0.37427 0.96507
 C15 C 0.29199 0.38828 0.94629
 H16 H 0.27319 0.42459 0.89892
 H17 H 0.32489 0.48071 0.90565
 H18 H 0.36189 0.47780 0.94050
 H19 H 0.36990 0.41717 0.99075
 H20 H 0.33436 0.37966 0.98932
 H21 H 0.27635 0.38342 0.93474
 C22 C 0.43519 0.84141 0.46877
 C23 C 0.41634 0.82455 0.46720
 C24 C 0.41573 0.80837 0.44704
 C25 C 0.43386 0.80899 0.42805
 C26 C 0.45243 0.82555 0.42975
 C27 C 0.45315 0.84175 0.45027
 C28 C 0.43950 0.86045 0.48497
 N29 N 0.45961 0.87229 0.47675
 C30 C 0.46813 0.86080 0.45553
 C31 C 0.46652 0.82317 0.40806
 N32 N 0.45700 0.80562 0.39310
 C33 C 0.43699 0.79678 0.40525
 C34 C 0.39480 0.79513 0.44961
 N35 N 0.38270 0.80284 0.47087
 C36 C 0.39570 0.82094 0.48158
 H37 H 0.42830 0.86583 0.50103
 H38 H 0.48334 0.86630 0.44381
 H39 H 0.48223 0.83389 0.40314
 H40 H 0.42511 0.78291 0.39801
 H41 H 0.38851 0.78161 0.43627
 H42 H 0.39023 0.83110 0.49830
 C43 C 0.94497 0.91473 0.78955
 C44 C 0.92700 0.93257 0.78859
 C45 C 0.92796 0.95145 0.80569
 C46 C 0.94669 0.95278 0.82400
 C47 C 0.96436 0.93520 0.82512
 C48 C 0.96352 0.91599 0.80768
 C49 C 0.94763 0.89350 0.77653
 N50 N 0.96741 0.88168 0.78628
 C51 C 0.97718 0.89540 0.80534
 C52 C 0.97878 0.94003 0.84635
 N53 N 0.97011 0.96006 0.85815
 C54 C 0.95058 0.96795 0.84441
 C55 C 0.90727 0.96480 0.80215
 N56 N 0.89363 0.95448 0.78326
 C57 C 0.90561 0.93478 0.77484
 H58 H 0.93547 0.88716 0.76158
 H59 H 0.99275 0.89046 0.81714
 H60 H 0.99373 0.92899 0.85304
 H61 H 0.93934 0.98308 0.84956
 H62 H 0.90224 0.98019 0.81347
 H63 H 0.89873 0.92240 0.76053
 C64 C 0.43798 -0.08382 0.29816
 C65 C 0.41796 -0.06826 0.29793
 C66 C 0.41667 -0.05003 0.31583
 C67 C 0.43536 -0.04707 0.33423
 C68 C 0.45499 -0.06250 0.33455
 C69 C 0.45624 -0.08110 0.31645
 C70 C 0.44330 -0.10400 0.28413
 N71 N 0.46424 -0.11381 0.29364
 C72 C 0.47221 -0.09984 0.31338
 C73 C 0.46964 -0.05615 0.35517
 N74 N 0.45941 -0.03716 0.36736
 C75 C 0.43843 -0.03160 0.35467
 C76 C 0.39477 -0.03862 0.31192
 N77 N 0.38270 -0.04943 0.29203
 C78 C 0.39680 -0.06763 0.28348
 H79 H 0.43189 -0.11144 0.26910
 H80 H 0.48810 -0.10348 0.32523
 H81 H 0.48617 -0.06518 0.36106
 H82 H 0.42600 -0.01758 0.36029
 H83 H 0.38808 -0.02399 0.32343
 H84 H 0.39181 -0.07981 0.26813
 C85 C 0.79624 0.31755 0.33091
 C86 C 0.79512 0.33415 0.31028
 C87 C 0.81088 0.33214 0.28973
 C88 C 0.82790 0.31337 0.28951
 C89 C 0.82888 0.29697 0.30983
 C90 C 0.81298 0.29910 0.33064
 C91 C 0.78454 0.31622 0.35431
 N92 N 0.79385 0.29739 0.36821
 C93 C 0.81120 0.28684 0.35381
 C94 C 0.84831 0.28208 0.30575
 N95 N 0.85925 0.28907 0.28341
 C96 C 0.84683 0.30812 0.27334
 C97 C 0.80706 0.35179 0.27374
 N98 N 0.78935 0.36559 0.28399
 C99 C 0.78196 0.35491 0.30643
 H100 H 0.77071 0.32848 0.36071
 H101 H 0.82220 0.27173 0.36010
 H102 H 0.85446 0.26796 0.31877
 H103 H 0.85190 0.31811 0.25610
 H104 H 0.81702 0.35618 0.25632
 H105 H 0.76881 0.36207 0.31968
 C106 C -0.18645 0.83137 0.78566
 C107 C -0.17163 0.81150 0.78190
 C108 C -0.17180 0.79258 0.79943
 C109 C -0.18747 0.79305 0.82065
 C110 C -0.20237 0.81271 0.82434
 C111 C -0.20156 0.83226 0.80683
 C112 C -0.18693 0.85339 0.77360
 N113 N -0.20175 0.86800 0.78696
 C114 C -0.21099 0.85519 0.80734
 C115 C -0.21386 0.80917 0.84769
 N116 N -0.20622 0.78786 0.85823
 C117 C -0.18998 0.77807 0.84182
 C118 C -0.15256 0.77800 0.79345
 N119 N -0.14084 0.78791 0.77284
 C120 C -0.15263 0.80815 0.76545
 H121 H -0.17625 0.85880 0.75700
 H122 H -0.22283 0.86202 0.82211
 H123 H -0.22601 0.82182 0.85658
 H124 H -0.18017 0.76149 0.84537
 H125 H -0.14676 0.76226 0.80432
 H126 H -0.14650 0.82063 0.75064
 C127 C 0.94754 0.34183 0.44463
 C128 C 0.94920 0.32506 0.42481
 C129 C 0.93238 0.30676 0.42299
 C130 C 0.91352 0.30511 0.44115
 C131 C 0.91194 0.32185 0.46072
 C132 C 0.92902 0.34044 0.46238
 C133 C 0.96053 0.36221 0.44966
 N134 N 0.95029 0.37358 0.47006
 C135 C 0.93097 0.36033 0.47794
 C136 C 0.89125 0.31689 0.47446
 N137 N 0.88014 0.29750 0.46381
 C138 C 0.89359 0.29029 0.44337
 C139 C 0.93783 0.29420 0.40091
 N140 N 0.95752 0.30453 0.38950
 C141 C 0.96442 0.32350 0.40395
 H142 H 0.97561 0.36855 0.43823
 H143 H 0.91880 0.36516 0.49339
 H144 H 0.88442 0.32739 0.49030
 H145 H 0.88881 0.27573 0.43057
 H146 H 0.92756 0.27928 0.39330
 H147 H 0.97918 0.33557 0.39930
 C148 C 0.45948 0.42960 0.81996
 C149 C 0.45660 0.40988 0.80375
 C150 C 0.43584 0.40757 0.78894
 C151 C 0.41763 0.42497 0.79017
 C152 C 0.42024 0.44445 0.80637
 C153 C 0.44148 0.44681 0.82142
 C154 C 0.47668 0.43470 0.83839
 N155 N 0.46971 0.45454 0.85131
 C156 C 0.44820 0.46225 0.84090
 C157 C 0.39883 0.45725 0.80492
 N158 N 0.38357 0.44592 0.78816
 C159 C 0.39499 0.42623 0.77914
 C160 C 0.43678 0.38555 0.77727
 N161 N 0.45766 0.37445 0.78483
 C162 C 0.46989 0.38927 0.80095
 H163 H 0.49250 0.42393 0.84307
 H164 H 0.43734 0.47698 0.84779
 H165 H 0.39477 0.47342 0.81545
 H166 H 0.38714 0.41346 0.76580
 H167 H 0.42266 0.37790 0.76530
 H168 H 0.48671 0.38485 0.81085
 C169 C 0.80800 0.92044 0.95650
 C170 C 0.80686 0.93820 0.93714
 C171 C 0.82586 0.95416 0.93382
 C172 C 0.84636 0.95255 0.95025
 C173 C 0.84721 0.93502 0.96951
 C174 C 0.82801 0.91882 0.97256
 C175 C 0.79353 0.90094 0.96170
 N176 N 0.80445 0.88725 0.98048
 C177 C 0.82544 0.89827 0.98738
 C178 C 0.86946 0.93636 0.98138
 N179 N 0.88243 0.95421 0.97000
 C180 C 0.86846 0.96428 0.95080
 C181 C 0.82051 0.96767 0.91186
 N182 N 0.79882 0.96013 0.90203
 C183 C 0.79050 0.94215 0.91741
 H184 H 0.77707 0.89660 0.95127
 H185 H 0.83862 0.89109 1.00109
 H186 H 0.87600 0.92473 0.99690
 H187 H 0.87388 0.97867 0.93784
 H188 H 0.83217 0.98105 0.90314
 H189 H 0.77412 0.93195 0.91383
 C190 C 0.28508 0.83111 0.29513
 C191 C 0.27955 0.81029 0.30919
 C192 C 0.29463 0.79059 0.30808
 C193 C 0.31536 0.79137 0.29284
 C194 C 0.32119 0.81201 0.27898
 C195 C 0.30575 0.83221 0.28014
 C196 C 0.27513 0.85364 0.29579
 N197 N 0.28899 0.86874 0.28133
 C198 C 0.30776 0.85578 0.27168
 C199 C 0.34441 0.80861 0.26976
 N200 N 0.35244 0.78656 0.27789
 C201 C 0.33478 0.77610 0.29203
 C202 C 0.28847 0.77540 0.32805
 N203 N 0.27032 0.78570 0.34153
 C204 C 0.26430 0.80672 0.32975
 H205 H 0.25922 0.85846 0.30663
 H206 H 0.32231 0.86314 0.26010
 H207 H 0.35518 0.82191 0.25965
 H208 H 0.33654 0.75911 0.30232
 H209 H 0.29821 0.75931 0.33381
 H210 H 0.25200 0.81987 0.33761
 C211 C 0.78641 0.43985 0.45155
 C212 C 0.78826 0.45785 0.43246
 C213 C 0.80905 0.47154 0.43070
 C214 C 0.82830 0.46738 0.44800
 C215 C 0.82654 0.44968 0.46689
 C216 C 0.80542 0.43579 0.46869
 C217 C 0.76991 0.42167 0.45519
 N218 N 0.77835 0.40665 0.47405
 C219 C 0.80009 0.41520 0.48250
 C220 C 0.84878 0.44812 0.47909
 N221 N 0.86398 0.46436 0.46800
 C222 C 0.85149 0.47621 0.44889
 C223 C 0.80720 0.48522 0.40840
 N224 N 0.78590 0.48003 0.39645
 C225 C 0.77412 0.46336 0.41118
 H226 H 0.75368 0.41866 0.44373
 H227 H 0.81213 0.40628 0.49617
 H228 H 0.85376 0.43556 0.49442
 H229 H 0.85853 0.48991 0.43600
 H230 H 0.82107 0.49688 0.40049
 H231 H 0.75720 0.45468 0.40630
 C232 C 0.94646 0.83291 -0.04823
 C233 C 0.92627 0.81774 -0.04562
 C234 C 0.92272 0.79933 -0.06299
 C235 C 0.93913 0.79584 -0.08320
 C236 C 0.95896 0.81079 -0.08571
 C237 C 0.96268 0.82943 -0.06812
 C238 C 0.95367 0.85326 -0.03545
 N239 N 0.97387 0.86222 -0.04712
 C240 C 0.97943 0.84771 -0.06712
 C241 C 0.97074 0.80450 -0.10796
 N242 N 0.95846 0.78605 -0.11923
 C243 C 0.93918 0.78062 -0.10405
 C244 C 0.90110 0.78852 -0.05697
 N245 N 0.89131 0.79981 -0.03624
 C246 C 0.90660 0.81778 -0.02927
 H247 H 0.94417 0.86123 -0.01947
 H248 H 0.99417 0.85069 -0.08049
 H249 H 0.98658 0.81347 -0.11552
 H250 H 0.92563 0.76713 -0.10836
 H251 H 0.89293 0.77403 -0.06771
 H252 H 0.90334 0.83033 -0.01382
 C253 C 0.28047 0.32261 0.78717
 C254 C 0.27851 0.30410 0.80556
 C255 C 0.29464 0.28511 0.80538
 C256 C 0.31277 0.28429 0.78649
 C257 C 0.31436 0.30249 0.76808
 C258 C 0.29827 0.32186 0.76856
 C259 C 0.27062 0.34520 0.78637
 N260 N 0.28224 0.35832 0.76789
 C261 C 0.29896 0.34407 0.75669
 C262 C 0.33550 0.29923 0.75483
 N263 N 0.34700 0.27970 0.76478
 C264 C 0.33322 0.27031 0.78416
 C265 C 0.29121 0.27225 0.82798
 N266 N 0.27350 0.28312 0.84183
 C267 C 0.26556 0.30248 0.82812
 H268 H 0.25719 0.35181 0.79963
 H269 H 0.31201 0.35007 0.74247
 H270 H 0.34286 0.31119 0.74018
 H271 H 0.33816 0.25530 0.79660
 H272 H 0.30185 0.25693 0.83426
 H273 H 0.25253 0.31543 0.83497
 C274 C 0.17111 0.56773 0.53992
 C275 C 0.19051 0.58389 0.54143
 C276 C 0.20906 0.58003 0.55915
 C277 C 0.20854 0.55978 0.57550
 C278 C 0.18943 0.54377 0.57401
 C279 C 0.17053 0.54783 0.55615
 C280 C 0.14966 0.56818 0.52612
 N281 N 0.13599 0.54916 0.53368
 C282 C 0.14869 0.53653 0.55202
 C283 C 0.19242 0.52736 0.59392
 N284 N 0.21275 0.53306 0.60747
 C285 C 0.22279 0.55288 0.59625
 C286 C 0.22410 0.59973 0.55803
 N287 N 0.21522 0.61531 0.53993
 C288 C 0.19457 0.60577 0.52977
 H289 H 0.14402 0.58184 0.51222
 H290 H 0.14254 0.52056 0.56211
 H291 H 0.17995 0.51311 0.59909
 H292 H 0.23847 0.56251 0.60330
 H293 H 0.23995 0.60287 0.57003
 H294 H 0.18258 0.61446 0.51590
 C295 C 0.59604 0.67310 0.05387
 C296 C 0.57710 0.65618 0.05578
 C297 C 0.56000 0.65833 0.07511
 C298 C 0.56148 0.67734 0.09263
 C299 C 0.58000 0.69390 0.09072
 C300 C 0.59729 0.69176 0.07128
 C301 C 0.61573 0.67563 0.03767
 N302 N 0.62865 0.69530 0.04493
 C303 C 0.61737 0.70519 0.06554
 C304 C 0.57728 0.71004 0.11045
 N305 N 0.55742 0.70381 0.12422
 C306 C 0.54770 0.68369 0.11352
 C307 C 0.54415 0.63936 0.07286
 N308 N 0.55094 0.62574 0.05256
 C309 C 0.57119 0.63585 0.04204
 H310 H 0.62047 0.66388 0.02194
 H311 H 0.62327 0.72081 0.07608
 H312 H 0.58894 0.72518 0.11460
 H313 H 0.53211 0.67393 0.12054
 H314 H 0.52881 0.63563 0.08522
 H315 H 0.58132 0.62883 0.02596
 C316 C 0.67780 0.19993 0.67886
 C317 C 0.65834 0.19788 0.69621
 C318 C 0.65864 0.18004 0.71512
 C319 C 0.67813 0.16401 0.71690
 C320 C 0.69714 0.16595 0.69980
 C321 C 0.69701 0.18401 0.68072
 C322 C 0.68203 0.21446 0.65752
 N323 N 0.70331 0.20765 0.64659
 C324 C 0.71244 0.18899 0.66063
 C325 C 0.71250 0.14696 0.70466
 N326 N 0.70315 0.13349 0.72432
 C327 C 0.68222 0.14388 0.73197
 C328 C 0.63708 0.18118 0.72813
 N329 N 0.62353 0.19921 0.71770
 C330 C 0.63640 0.20960 0.69811
 H331 H 0.66999 0.22830 0.65014
 H332 H 0.72891 0.17938 0.65616
 H333 H 0.72879 0.14303 0.69403
 H334 H 0.67033 0.13672 0.74676
 H335 H 0.63132 0.16929 0.74366
 H336 H 0.63024 0.22414 0.68566
 C337 C 1.07730 0.06164 0.21529
 C338 C 1.05888 0.07939 0.21530
 C339 C 1.03952 0.07743 0.19812
 C340 C 1.03832 0.05861 0.18059
 C341 C 1.05610 0.04134 0.18078
 C342 C 1.07546 0.04270 0.19821
 C343 C 1.09981 0.05929 0.22730
 N344 N 1.11115 0.03948 0.21771
 C345 C 1.09629 0.02944 0.19997
 C346 C 1.05294 0.02781 0.15904
 N347 N 1.03384 0.03687 0.14520
 C348 C 1.02450 0.05545 0.15859
 C349 C 1.02550 0.09750 0.20014
 N350 N 1.03543 0.11201 0.21812
 C351 C 1.05599 0.10126 0.22759
 H352 H 1.10753 0.07163 0.24113
 H353 H 1.10076 0.01400 0.18837
 H354 H 1.06534 0.01403 0.15291
 H355 H 1.01017 0.06722 0.15163
 H356 H 1.00952 0.10170 0.18863
 H357 H 1.06830 0.10894 0.24164
 C358 C 0.07003 0.16306 1.04692
 C359 C 0.08648 0.18226 1.04481
 C360 C 0.08404 0.20200 1.06056
 C361 C 0.06541 0.20297 1.07859
 C362 C 0.04922 0.18417 1.08093
 C363 C 0.05151 0.16400 1.06486
 C364 C 0.06869 0.14097 1.03511
 N365 N 0.04978 0.12848 1.04537
 C366 C 0.03929 0.14244 1.06359
 C367 C 0.03455 0.18936 1.10168
 N368 N 0.04173 0.21078 1.11192
 C369 C 0.06049 0.21915 1.09769
 C370 C 0.10342 0.21686 1.05623
 N371 N 0.11770 0.20679 1.03817
 C372 C 0.10751 0.18556 1.03098
 H373 H 0.08092 0.13450 1.02050
 H374 H 0.02404 0.13711 1.07539
 H375 H 0.02055 0.17770 1.10921
 H376 H 0.07060 0.23540 1.10167
 H377 H 0.10742 0.23338 1.06627
 H378 H 0.11531 0.17281 1.01779
 C379 C 0.16154 0.69502 0.68050
 C380 C 0.18056 0.69410 0.66258
 C381 C 0.19895 0.67736 0.66582
 C382 C 0.19865 0.66132 0.68709
 C383 C 0.17997 0.66234 0.70469
 C384 C 0.16141 0.67923 0.70139
 C385 C 0.14045 0.70835 0.68168
 N386 N 0.12775 0.70087 0.70281
 C387 C 0.14050 0.68314 0.71486
 C388 C 0.18315 0.64377 0.72218
 N389 N 0.20333 0.63140 0.71579
 C390 C 0.21299 0.64201 0.69428
 C391 C 0.21417 0.67985 0.64493
 N392 N 0.20563 0.69770 0.62916
 C393 C 0.18499 0.70647 0.63982
 H394 H 0.13470 0.72201 0.66789
 H395 H 0.13466 0.67336 0.73196
 H396 H 0.17109 0.63898 0.73786
 H397 H 0.22852 0.63559 0.68378
 H398 H 0.23015 0.66921 0.64123
 H399 H 0.17359 0.72042 0.63155
 C400 C 1.18226 0.17115 0.21008
 C401 C 1.16427 0.18871 0.20977
 C402 C 1.16179 0.20429 0.18891
 C403 C 1.17787 0.20255 0.16789
 C404 C 1.19588 0.18510 0.16812
 C405 C 1.19801 0.16902 0.18953
 C406 C 1.18692 0.15284 0.22737
 N407 N 1.20515 0.13923 0.21821
 C408 C 1.21221 0.14895 0.19500
 C409 C 1.20819 0.18746 0.14491
 N410 N 1.19819 0.20589 0.13067
 C411 C 1.17960 0.21499 0.14467
 C412 C 1.14137 0.21803 0.19357
 N413 N 1.13170 0.21090 0.21669
 C414 C 1.14574 0.19307 0.22660
 H415 H 1.17706 0.14910 0.24502
 H416 H 1.22583 0.14153 0.18245
 H417 H 1.22320 0.17635 0.13908
 H418 H 1.16804 0.22970 0.13839
 H419 H 1.13373 0.23141 0.18052
 H420 H 1.14210 0.18323 0.24437
 C421 C 0.67485 1.06229 0.56733
 C422 C 0.69427 1.06018 0.58503
 C423 C 0.71137 1.07828 0.58637
 C424 C 0.70930 1.09873 0.57042
 C425 C 0.69023 1.10087 0.55304
 C426 C 0.67289 1.08245 0.55143
 C427 C 0.65492 1.04810 0.56246
 N428 N 0.64093 1.05913 0.54399
 C429 C 0.65184 1.08010 0.53719
 C430 C 0.69219 1.12318 0.54125
 N431 N 0.71198 1.13459 0.55126
 C432 C 0.72247 1.11965 0.56905
 C433 C 0.72725 1.07236 0.60603
 N434 N 0.72028 1.05120 0.61691
 C435 C 0.70007 1.04351 0.60417
 H436 H 0.65096 1.03120 0.57203
 H437 H 0.64468 1.09297 0.52321
 H438 H 0.67964 1.13056 0.52706
 H439 H 0.73830 1.12392 0.58066
 H440 H 0.74232 1.08318 0.61269
 H441 H 0.68982 1.02750 0.60887
 C442 C 0.55473 0.54918 0.17259
 C443 C 0.57271 0.55135 0.19164
 C444 C 0.57143 0.56933 0.20987
 C445 C 0.55169 0.58544 0.20929
 C446 C 0.53388 0.58310 0.19042
 C447 C 0.53545 0.56493 0.17201
 C448 C 0.55298 0.53510 0.15092
 N449 N 0.53303 0.54207 0.13720
 C450 C 0.52219 0.56020 0.15004
 C451 C 0.51822 0.60209 0.19267
 N452 N 0.52580 0.61601 0.21249
 C453 C 0.54634 0.60602 0.22282
 C454 C 0.59254 0.56795 0.22441
 N455 N 0.60631 0.54961 0.21542
 C456 C 0.59422 0.53948 0.19528
 H457 H 0.56596 0.52170 0.14512
 H458 H 0.50646 0.57006 0.14314
 H459 H 0.50290 0.60606 0.18010
 H460 H 0.55734 0.61370 0.23807
 H461 H 0.59780 0.57980 0.23997
 H462 H 0.60069 0.52503 0.18338
 C463 C 0.65826 0.68746 0.20946
 C464 C 0.67417 0.66780 0.20847
 C465 C 0.69320 0.66791 0.19110
 C466 C 0.69665 0.68777 0.17441
 C467 C 0.68096 0.70709 0.17547
 C468 C 0.66168 0.70692 0.19302
 C469 C 0.63728 0.69167 0.22311
 N470 N 0.62796 0.71321 0.21522
 C471 C 0.64280 0.72255 0.19685
 C472 C 0.68755 0.72306 0.15629
 N473 N 0.70686 0.71410 0.14349
 C474 C 0.71262 0.69243 0.15444
 C475 C 0.70492 0.64614 0.19383
 N476 N 0.69350 0.63289 0.21243
 C477 C 0.67471 0.64604 0.22139
 H478 H 0.62899 0.67943 0.23685
 H479 H 0.63960 0.73922 0.18634
 H480 H 0.67843 0.73975 0.15140
 H481 H 0.72671 0.68050 0.14791
 H482 H 0.72046 0.64050 0.18283
 H483 H 0.66213 0.64005 0.23611
 C484 C 0.19397 0.04900 1.03076
 C485 C 0.21324 0.06537 1.02924
 C486 C 0.23141 0.06486 1.04780
 C487 C 0.23037 0.04847 1.06836
 C488 C 0.21106 0.03274 1.07045
 C489 C 0.19275 0.03279 1.05127
 C490 C 0.17256 0.04739 1.01709
 N491 N 0.15832 0.03055 1.02852
 C492 C 0.17045 0.02159 1.04961
 C493 C 0.21245 0.02265 1.09494
 N494 N 0.23199 0.03214 1.10753
 C495 C 0.24313 0.04766 1.09125
 C496 C 0.24495 0.08534 1.04483
 N497 N 0.23521 0.09863 1.02531
 C498 C 0.21601 0.08638 1.01528
 H499 H 0.16728 0.05839 1.00054
 H500 H 0.16338 0.00868 1.06342
 H501 H 0.19930 0.01051 1.10331
 H502 H 0.25822 0.05909 1.09651
 H503 H 0.25922 0.09137 1.05773
 H504 H 0.20367 0.09298 1.00046
 C505 C 0.57180 0.21796 0.54303
 C506 C 0.55321 0.21656 0.56128
 C507 C 0.53810 0.19677 0.56190
 C508 C 0.54137 0.17816 0.54422
 C509 C 0.55967 0.17955 0.52615
 C510 C 0.57497 0.19961 0.52553
 C511 C 0.59134 0.23312 0.54075
 N512 N 0.60632 0.22432 0.52237
 C513 C 0.59633 0.20398 0.51284
 C514 C 0.56078 0.15768 0.51408
 N515 N 0.54364 0.14305 0.52437
 C516 C 0.53166 0.15550 0.54285
 C517 C 0.52422 0.19845 0.58382
 N518 N 0.53061 0.21880 0.59653
 C519 C 0.54826 0.22995 0.58280
 H520 H 0.59484 0.24859 0.55268
 H521 H 0.60487 0.19230 0.49900
 H522 H 0.57394 0.15234 0.49981
 H523 H 0.51781 0.14844 0.55552
 H524 H 0.51159 0.18500 0.59063
 H525 H 0.55788 0.24589 0.58894
 C526 C 0.08029 0.56173 0.71808
 C527 C 0.06192 0.57893 0.71724
 C528 C 0.04391 0.57782 0.69850
 C529 C 0.04396 0.55913 0.68042
 C530 C 0.06215 0.54203 0.68140
 C531 C 0.08055 0.54346 0.70023
 C532 C 0.10159 0.56056 0.73195
 N533 N 0.11496 0.54220 0.72280
 C534 C 0.10216 0.53146 0.70347
 C535 C 0.05927 0.52768 0.66011
 N536 N 0.03985 0.53555 0.64614
 C537 C 0.03035 0.55486 0.65842
 C538 C 0.03063 0.59868 0.70023
 N539 N 0.04030 0.61224 0.71955
 C540 C 0.05936 0.60021 0.73001
 H541 H 0.10758 0.57302 0.74663
 H542 H 0.10832 0.51666 0.69186
 H543 H 0.07115 0.51320 0.65448
 H544 H 0.01538 0.56575 0.65146
 H545 H 0.01607 0.60404 0.68727
 H546 H 0.07137 0.60713 0.74485
 C547 C 0.67749 0.54601 0.04434
 C548 C 0.69503 0.54610 0.06431
 C549 C 0.71264 0.56378 0.06458
 C550 C 0.71288 0.58160 0.04525
 C551 C 0.69568 0.58150 0.02569
 C552 C 0.67799 0.56359 0.02516
 C553 C 0.65651 0.53303 0.04058
 N554 N 0.64446 0.54240 0.01962
 C555 C 0.65753 0.56107 0.01019
 C556 C 0.69798 0.60265 0.01197
 N557 N 0.71607 0.61565 0.02282
 C558 C 0.72540 0.60282 0.04316
 C559 C 0.72556 0.56127 0.08730
 N560 N 0.71636 0.54255 0.10102
 C561 C 0.69760 0.53310 0.08712
 H562 H 0.65005 0.51877 0.05314
 H563 H 0.65188 0.57275 -0.00567
 H564 H 0.68629 0.60888 -0.00367
 H565 H 0.73904 0.60894 0.05669
 H566 H 0.73997 0.57293 0.09396
 H567 H 0.68595 0.51860 0.09340
 C568 C 0.05102 0.71819 0.55510
 C569 C 0.07083 0.71832 0.53845
 C570 C 0.07491 0.69903 0.52250
 C571 C 0.05906 0.67934 0.52288
 C572 C 0.03953 0.67912 0.53952
 C573 C 0.03555 0.69866 0.55593
 C574 C 0.04521 0.73284 0.57525
 N575 N 0.02682 0.72269 0.58865
 C576 C 0.02060 0.70178 0.57692
 C577 C 0.02897 0.65680 0.53787
 N578 N 0.04155 0.64350 0.52052
 C579 C 0.06002 0.65717 0.51142
 C580 C 0.09734 0.70232 0.51167
 N581 N 0.10698 0.72311 0.52085
 C582 C 0.09080 0.73300 0.53713
 H583 H 0.05497 0.74881 0.58103
 H584 H 0.00741 0.68896 0.58395
 H585 H 0.01381 0.65066 0.54928
 H586 H 0.07367 0.65111 0.49803
 H587 H 0.10646 0.68949 0.49960
 H588 H 0.09405 0.74890 0.54855
 C589 C 0.56769 1.03864 0.69102
 C590 C 0.58488 1.04096 0.71101
 C591 C 0.58271 1.05911 0.72889
 C592 C 0.56330 1.07517 0.72706
 C593 C 0.54633 1.07294 0.70739
 C594 C 0.54852 1.05452 0.68926
 C595 C 0.56703 1.02473 0.66913
 N596 N 0.54801 1.03183 0.65403
 C597 C 0.53651 1.05005 0.66635
 C598 C 0.53162 1.09282 0.70818
 N599 N 0.53942 1.10714 0.72782
 C600 C 0.55867 1.09631 0.73952
 C601 C 0.60355 1.05924 0.74367
 N602 N 0.61831 1.04158 0.73527
 C603 C 0.60701 1.03032 0.71524
 H604 H 0.58020 1.01124 0.66394
 H605 H 0.52132 1.06035 0.65893
 H606 H 0.51733 1.09693 0.69439
 H607 H 0.56943 1.10396 0.75501
 H608 H 0.60825 1.07209 0.75847
 H609 H 0.61479 1.01658 0.70325
 C610 C 0.45148 0.33496 0.93737
 C611 C 0.45163 0.31715 0.91829
 C612 C 0.43483 0.29873 0.91916
 C613 C 0.41767 0.29789 0.93910
 C614 C 0.41756 0.31545 0.95781
 C615 C 0.43454 0.33408 0.95693
 C616 C 0.46447 0.35584 0.94050
 N617 N 0.45570 0.36767 0.96148
 C618 C 0.43740 0.35436 0.97156
 C619 C 0.39785 0.31137 0.97335
 N620 N 0.38593 0.29175 0.96462
 C621 C 0.39795 0.28336 0.94362
 C622 C 0.43812 0.28503 0.89741
 N623 N 0.45657 0.29464 0.88332
 C624 C 0.46486 0.31430 0.89598
 H625 H 0.47866 0.36202 0.92775
 H626 H 0.42650 0.35941 0.98798
 H627 H 0.39199 0.32246 0.98921
 H628 H 0.39229 0.26859 0.93158
 H629 H 0.42725 0.26969 0.89205
 H630 H 0.47909 0.32607 0.88907
 C631 C 0.94516 0.43437 0.33144
 C632 C 0.94506 0.41407 0.31538
 C633 C 0.92652 0.41086 0.29750
 C634 C 0.90778 0.42788 0.29539
 C635 C 0.90785 0.44777 0.31118
 C636 C 0.92663 0.45102 0.32935
 C637 C 0.96020 0.44172 0.35139
 N638 N 0.95112 0.46236 0.36155
 C639 C 0.93062 0.46807 0.34805
 C640 C 0.88710 0.46065 0.30562
 N641 N 0.87438 0.44909 0.28678
 C642 C 0.88693 0.42902 0.28049
 C643 C 0.93062 0.38930 0.28535
 N644 N 0.95121 0.37932 0.29540
 C645 C 0.96008 0.39436 0.31375
 H646 H 0.97605 0.43211 0.35830
 H647 H 0.91905 0.48328 0.35197
 H648 H 0.88166 0.47694 0.31514
 H649 H 0.88107 0.41595 0.26638
 H650 H 0.91912 0.38146 0.27065
 H651 H 0.97616 0.39101 0.32539
 C652 C 0.30715 0.93793 0.42958
 C653 C 0.30683 0.91774 0.44638
 C654 C 0.32546 0.91441 0.46426
 C655 C 0.34463 0.93088 0.46550
 C656 C 0.34483 0.95045 0.44890
 C657 C 0.32615 0.95402 0.43094
 C658 C 0.29262 0.94545 0.40915
 N659 N 0.30263 0.96558 0.39813
 C660 C 0.32315 0.97078 0.41146
 C661 C 0.36598 0.96264 0.45298
 N662 N 0.37896 0.95093 0.47179
 C663 C 0.36592 0.93149 0.47963
 C664 C 0.32138 0.89300 0.47697
 N665 N 0.30087 0.88299 0.46731
 C666 C 0.29176 0.89801 0.44857
 H667 H 0.27666 0.93612 0.40234
 H668 H 0.33542 0.98538 0.40687
 H669 H 0.37133 0.97861 0.44242
 H670 H 0.37180 0.91841 0.49406
 H671 H 0.33294 0.88487 0.49169
 H672 H 0.27569 0.89478 0.43699
 O673 O 0.25546 0.56346 0.72272
 O674 O 0.29723 0.55312 0.73101
 O675 O 0.22850 0.50362 0.68146
 O676 O 0.22742 0.46371 0.68683
 O677 O 0.18773 0.52948 0.74622
 O678 O 0.19336 0.52826 0.79226
 O679 O 0.27862 0.43387 0.75634
 O680 O 0.28120 0.44430 0.71137
 O681 O 0.31163 0.49395 0.79390
 O682 O 0.30126 0.53869 0.79264
 O683 O 0.24548 0.46340 0.81967
 O684 O 0.20270 0.46942 0.80594
 O685 O 0.24644 0.43409 0.78358
 O686 O 0.20345 0.44586 0.77654
 O687 O 0.27577 0.49062 0.82461
 O688 O 0.27573 0.53272 0.82090
 O689 O 0.31302 0.46503 0.76324
 O690 O 0.31151 0.46872 0.71774
 O691 O 0.22230 0.56328 0.74863
 O692 O 0.22052 0.55422 0.79457
 O693 O 0.19087 0.50291 0.71324
 O694 O 0.19876 0.46023 0.71606
 O695 O 0.25844 0.53134 0.68628
 O696 O 0.29971 0.52741 0.70163
 Zr697 Zr 0.26883 0.52816 0.72555
 O698 O 0.28866 0.50521 0.75053
 Zr699 Zr 0.22531 0.48762 0.71831
 O700 O 0.24319 0.46292 0.74284
 Zr701 Zr 0.22173 0.52828 0.76502
 O702 O 0.23944 0.50519 0.79182
 Zr703 Zr 0.28066 0.46926 0.74195
 O704 O 0.26305 0.49222 0.71478
 Zr705 Zr 0.27708 0.50942 0.78889
 O706 O 0.25925 0.53483 0.76433
 Zr707 Zr 0.23328 0.46932 0.78144
 O708 O 0.21320 0.49236 0.75652
 O709 O 0.23151 0.52343 0.72671
 O710 O 0.27082 0.47344 0.78050
 C711 C 0.23688 0.57361 0.73260
 C712 C 0.24227 0.52043 0.67276
 C713 C 0.17912 0.51826 0.72652
 C714 C 0.26393 0.42358 0.77215
 C715 C 0.32224 0.47666 0.78231
 C716 C 0.26263 0.47303 0.83283
 H717 H 0.30607 0.50891 0.74873
 H718 H 0.23391 0.50843 0.80960
 H719 H 0.22245 0.53414 0.71464
 H720 H 0.23913 0.44649 0.73723
 H721 H 0.27640 0.45312 0.69535
 H722 H 0.23579 0.44904 0.69313
 H723 H 0.25882 0.53832 0.82227
 H724 H 0.23632 0.56264 0.79440
 H725 H 0.31940 0.48462 0.71864
 H726 H 0.29890 0.51220 0.69191
 H727 H 0.20493 0.48228 0.81880
 H728 H 0.18573 0.51220 0.79138
 H729 H 0.29415 0.56112 0.74769
 H730 H 0.31438 0.53643 0.77996
 H731 H 0.18806 0.46206 0.73120
 H732 H 0.20691 0.43546 0.76161
 O733 O 0.18792 0.04273 0.26079
 O734 O 0.19888 0.04387 0.30383
 O735 O 0.25168 0.06697 0.22128
 O736 O 0.29214 0.05641 0.22297
 O737 O 0.21548 0.00502 0.19270
 O738 O 0.20846 -0.03207 0.20322
 O739 O 0.31320 0.00072 0.29232
 O740 O 0.30837 0.04142 0.29236
 O741 O 0.24867 -0.02535 0.32873
 O742 O 0.20835 -0.02198 0.32250
 O743 O 0.27585 -0.05983 0.26318
 O744 O 0.27323 -0.05417 0.21979
 O745 O 0.31042 -0.03004 0.26388
 O746 O 0.30022 -0.02593 0.21510
 O747 O 0.24682 -0.05764 0.29401
 O748 O 0.20158 -0.04273 0.29064
 O749 O 0.28135 -0.00056 0.32743
 O750 O 0.27898 0.04625 0.31634
 O751 O 0.18322 0.01308 0.23126
 O752 O 0.18998 -0.03259 0.23777
 O753 O 0.24810 0.02975 0.18876
 O754 O 0.29191 0.02623 0.19988
 O755 O 0.22449 0.07182 0.25369
 O756 O 0.23096 0.06408 0.30205
 Zr757 Zr 0.22359 0.03807 0.27349
 O758 O 0.24230 0.01444 0.29900
 Zr759 Zr 0.26350 0.03143 0.22650
 O760 O 0.28571 0.01023 0.25107
 Zr761 Zr 0.21673 -0.00598 0.23132
 O762 O 0.23812 -0.03042 0.25296
 Zr763 Zr 0.27918 0.01696 0.29053
 O764 O 0.26063 0.04165 0.26571
 Zr765 Zr 0.23357 -0.02181 0.29192
 O766 O 0.21120 0.00218 0.27032
 Zr767 Zr 0.27556 -0.02567 0.24638
 O768 O 0.25383 -0.00462 0.22079
 O769 O 0.22672 0.02972 0.23450
 O770 O 0.27069 -0.01912 0.28560
 C771 C 0.17534 0.03120 0.24417
 C772 C 0.23626 0.07951 0.23369
 C773 C 0.22965 0.01841 0.17946
 C774 C 0.32188 -0.01770 0.28110
 C775 C 0.26784 -0.01643 0.33868
 C776 C 0.26321 -0.06904 0.28142
 H777 H 0.23896 0.01874 0.31716
 H778 H 0.23297 -0.04700 0.24901
 H779 H 0.21684 0.03999 0.22272
 H780 H 0.30287 0.01312 0.24670
 H781 H 0.31299 0.04496 0.27424
 H782 H 0.29380 0.06418 0.24004
 H783 H 0.20485 -0.05701 0.27999
 H784 H 0.17876 -0.02631 0.25095
 H785 H 0.27009 0.04126 0.33208
 H786 H 0.24523 0.07336 0.29615
 H787 H 0.26264 -0.04847 0.20543
 H788 H 0.22262 -0.04289 0.20265
 H789 H 0.19055 0.02836 0.30683
 H790 H 0.20571 -0.00502 0.32716
 H791 H 0.28807 0.01147 0.19017
 H792 H 0.31419 -0.01561 0.21958
 O793 O 0.46573 0.81581 0.24349
 O794 O 0.47484 0.80251 0.19938
 O795 O 0.42443 0.75885 0.27401
 O796 O 0.42856 0.71811 0.27843
 O797 O 0.48445 0.78598 0.31861
 O798 O 0.52814 0.78209 0.31478
 O799 O 0.49632 0.68508 0.22775
 O800 O 0.45286 0.69389 0.22662
 O801 O 0.53100 0.73997 0.19154
 O802 O 0.52922 0.78629 0.19637
 O803 O 0.55375 0.71646 0.26388
 O804 O 0.53909 0.72506 0.30967
 O805 O 0.52047 0.68665 0.26360
 O806 O 0.51295 0.69938 0.30817
 O807 O 0.55912 0.74247 0.23016
 O808 O 0.55474 0.78443 0.22532
 O809 O 0.49975 0.71336 0.19034
 O810 O 0.45736 0.71757 0.19183
 O811 O 0.48984 0.81714 0.27945
 O812 O 0.53184 0.80715 0.28431
 O813 O 0.45318 0.75943 0.31597
 O814 O 0.45461 0.71714 0.31184
 O815 O 0.43091 0.78483 0.24037
 O816 O 0.44532 0.77838 0.19791
 Zr817 Zr 0.46745 0.77979 0.23149
 O818 O 0.48989 0.75496 0.21287
 Zr819 Zr 0.45836 0.74195 0.28070
 O820 O 0.48131 0.71572 0.26478
 Zr821 Zr 0.50332 0.78183 0.28336
 O822 O 0.52802 0.75774 0.26653
 Zr823 Zr 0.48091 0.71969 0.22440
 O824 O 0.45600 0.74438 0.24004
 Zr825 Zr 0.52561 0.75977 0.22583
 O826 O 0.50352 0.78643 0.24273
 Zr827 Zr 0.51760 0.72239 0.27564
 O828 O 0.49416 0.74657 0.29455
 O829 O 0.46760 0.77714 0.27171
 O830 O 0.51694 0.72444 0.23537
 C831 C 0.47526 0.82686 0.26279
 C832 C 0.41736 0.77512 0.25757
 C833 C 0.46540 0.77562 0.32776
 C834 C 0.51153 0.67570 0.24401
 C835 C 0.51904 0.72267 0.18108
 C836 C 0.56654 0.72570 0.24556
 H837 H 0.48842 0.75736 0.19392
 H838 H 0.54462 0.76125 0.27273
 H839 H 0.45651 0.78863 0.28001
 H840 H 0.47601 0.69943 0.27001
 H841 H 0.43769 0.70276 0.23006
 H842 H 0.43482 0.70218 0.27348
 H843 H 0.55893 0.78791 0.24356
 H844 H 0.53342 0.81358 0.26643
 H845 H 0.45904 0.73260 0.18163
 H846 H 0.43610 0.76316 0.19906
 H847 H 0.55233 0.73658 0.30614
 H848 H 0.52517 0.76721 0.32494
 H849 H 0.49003 0.81117 0.20348
 H850 H 0.51877 0.78162 0.18161
 H851 H 0.46977 0.71791 0.32217
 H852 H 0.49802 0.68994 0.30528
 O853 O 0.05841 0.71968 0.72864
 O854 O 0.05613 0.72302 0.77400
 O855 O -0.00807 0.68267 0.71008
 O856 O -0.04724 0.68878 0.71323
 O857 O 0.01494 0.74440 0.66466
 O858 O 0.01389 0.78646 0.67108
 O859 O -0.06452 0.74867 0.77949
 O860 O -0.05545 0.70826 0.77904
 O861 O 0.00060 0.78320 0.80212
 O862 O 0.04185 0.78326 0.78661
 O863 O -0.03979 0.80987 0.73924
 O864 O -0.04497 0.80051 0.69525
 O865 O -0.07024 0.77524 0.74620
 O866 O -0.06598 0.77111 0.69707
 O867 O -0.00685 0.81317 0.76567
 O868 O 0.03752 0.80554 0.75591
 O869 O -0.02830 0.75470 0.80853
 O870 O -0.02263 0.70999 0.80319
 O871 O 0.05381 0.74681 0.69567
 O872 O 0.04330 0.78927 0.69659
 O873 O -0.01218 0.71420 0.67090
 O874 O -0.05446 0.71846 0.68732
 O875 O 0.02528 0.68512 0.73613
 O876 O 0.02968 0.69729 0.78111
 Zr877 Zr 0.02570 0.72094 0.74900
 O878 O 0.00765 0.74332 0.77514
 Zr879 Zr -0.02231 0.71747 0.71000
 O880 O -0.04288 0.73858 0.73515
 Zr881 Zr 0.01853 0.76058 0.70100
 O882 O -0.00098 0.78421 0.72464
 Zr883 Zr -0.02954 0.73575 0.77338
 O884 O -0.01124 0.71171 0.74887
 Zr885 Zr 0.01044 0.77945 0.76323
 O886 O 0.03168 0.75732 0.73925
 Zr887 Zr -0.03788 0.77483 0.72489
 O888 O -0.01889 0.75355 0.69806
 O889 O 0.01466 0.72444 0.71058
 O890 O -0.02658 0.77202 0.76340
 C891 C 0.06619 0.73106 0.70855
 C892 C 0.01058 0.67352 0.72134
 C893 C 0.00226 0.72657 0.65665
 C894 C -0.07735 0.76385 0.76660
 C895 C -0.01525 0.77247 0.81609
 C896 C -0.02630 0.82155 0.75505
 H897 H 0.01443 0.74081 0.79273
 H898 H 0.00142 0.80091 0.71849
 H899 H 0.02376 0.71370 0.69902
 H900 H -0.06001 0.73353 0.73396
 H901 H -0.04938 0.69394 0.76993
 H902 H -0.05826 0.69265 0.72759
 H903 H 0.03166 0.81623 0.74176
 H904 H 0.05394 0.78893 0.71213
 H905 H -0.00881 0.71556 0.81385
 H906 H 0.01414 0.68857 0.78282
 H907 H -0.02933 0.80802 0.69065
 H908 H -0.00329 0.78550 0.66553
 H909 H 0.06268 0.73948 0.77197
 H910 H 0.04356 0.76846 0.79725
 H911 H -0.05268 0.73171 0.67452
 H912 H -0.07699 0.75828 0.70327
 O913 O 0.02591 0.05760 0.02902
 O914 O -0.01621 0.05413 0.02444
 O915 O 0.04471 -0.00794 0.07014
 O916 O 0.04519 -0.04653 0.06433
 O917 O 0.08617 0.01708 0.00325
 O918 O 0.07955 0.01426 -0.04217
 O919 O -0.01955 -0.06610 0.00084
 O920 O -0.01766 -0.05677 0.04440
 O921 O -0.04302 -0.00365 -0.03835
 O922 O -0.02992 0.03728 -0.04041
 O923 O 0.01774 -0.04188 -0.06610
 O924 O 0.05831 -0.04594 -0.05497
 O925 O 0.00995 -0.07129 -0.02908
 O926 O 0.05660 -0.06658 -0.02197
 O927 O -0.00881 -0.01086 -0.07035
 O928 O -0.00080 0.03406 -0.06367
 O929 O -0.04742 -0.03100 -0.00570
 O930 O -0.04113 -0.02519 0.04198
 O931 O 0.05556 0.05380 -0.00099
 O932 O 0.05434 0.04203 -0.04673
 O933 O 0.08177 -0.01002 0.03617
 O934 O 0.06748 -0.05305 0.03213
 O935 O 0.01959 0.02439 0.06681
 O936 O -0.02241 0.02803 0.05279
 Zr937 Zr 0.00759 0.02452 0.02790
 O938 O -0.01679 0.00529 0.00443
 Zr939 Zr 0.04553 -0.02187 0.03287
 O940 O 0.02192 -0.04361 0.01118
 Zr941 Zr 0.05175 0.01823 -0.01463
 O942 O 0.02969 -0.00265 -0.03934
 Zr943 Zr -0.01392 -0.03129 0.01399
 O944 O 0.00909 -0.01194 0.03902
 Zr945 Zr -0.00665 0.00746 -0.03473
 O946 O 0.01565 0.02991 -0.01162
 Zr947 Zr 0.03055 -0.03914 -0.02805
 O948 O 0.05569 -0.01873 -0.00611
 O949 O 0.04371 0.01470 0.02447
 O950 O -0.00563 -0.02898 -0.02528
 C951 C 0.04391 0.06587 0.01604
 C952 C 0.03357 0.01001 0.07969
 C953 C 0.09439 0.00498 0.02281
 C954 C -0.00876 -0.07844 -0.01634
 C955 C -0.05549 -0.01908 -0.02544
 C956 C 0.00202 -0.02962 -0.07892
 H957 H -0.03336 0.01150 0.00694
 H958 H 0.03511 -0.00044 -0.05741
 H959 H 0.05434 0.02426 0.03596
 H960 H 0.02336 -0.06051 0.01711
 H961 H -0.00874 -0.05033 0.05952
 H962 H 0.03109 -0.05718 0.06163
 H963 H 0.01192 0.02815 -0.07538
 H964 H 0.03973 0.05231 -0.04647
 H965 H -0.05118 -0.01143 0.03613
 H966 H -0.02349 0.01287 0.06292
 H967 H 0.06306 -0.03026 -0.06252
 H968 H 0.08574 -0.00234 -0.04007
 H969 H -0.01460 0.06035 0.00649
 H970 H -0.03832 0.04001 -0.02386
 H971 H 0.07958 -0.05059 0.01829
 H972 H 0.04979 -0.07844 -0.00960
 O973 O -0.00276 0.57035 0.52824
 O974 O -0.04445 0.56105 0.52267
 O975 O 0.02347 0.50925 0.57135
 O976 O 0.02331 0.46937 0.56663
 O977 O 0.06392 0.53549 0.50651
 O978 O 0.05911 0.53294 0.46077
 O979 O -0.03205 0.44259 0.49612
 O980 O -0.03203 0.45057 0.54125
 O981 O -0.06097 0.50370 0.45966
 O982 O -0.05083 0.54613 0.45810
 O983 O 0.00341 0.47078 0.43389
 O984 O 0.04666 0.47451 0.44744
 O985 O 0.00100 0.44127 0.47015
 O986 O 0.04476 0.45076 0.47719
 O987 O -0.02664 0.49838 0.42907
 O988 O -0.02169 0.54406 0.43457
 O989 O -0.06412 0.47531 0.49152
 O990 O -0.06026 0.47860 0.53804
 O991 O 0.02947 0.56975 0.50103
 O992 O 0.03209 0.55907 0.45603
 O993 O 0.06055 0.50772 0.53901
 O994 O 0.05108 0.46500 0.53663
 O995 O -0.00521 0.53831 0.56637
 O996 O -0.04702 0.53493 0.55203
 Zr997 Zr -0.01659 0.53529 0.52743
 O998 O -0.03741 0.51363 0.50271
 Zr999 Zr 0.02557 0.49340 0.53466
 O1000 O 0.00627 0.46949 0.51079
 Zr1001 Zr 0.03010 0.53418 0.48718
 O1002 O 0.01145 0.51183 0.46088
 Zr1003 Zr -0.03094 0.47728 0.51179
 O1004 O -0.01197 0.49907 0.53857
 Zr1005 Zr -0.02593 0.51769 0.46414
 O1006 O -0.00719 0.54197 0.48847
 Zr1007 Zr 0.01616 0.47572 0.47201
 O1008 O 0.03740 0.49791 0.49623
 O1009 O 0.02053 0.52954 0.52574
 O1010 O -0.02107 0.48151 0.47317
 C1011 C 0.01509 0.58046 0.51669
 C1012 C 0.01060 0.52665 0.57994
 C1013 C 0.07242 0.52359 0.52611
 C1014 C -0.01795 0.43188 0.48028
 C1015 C -0.07260 0.48734 0.47205
 C1016 C -0.01406 0.48053 0.42099
 H1017 H -0.05462 0.51809 0.50465
 H1018 H 0.01710 0.51487 0.44303
 H1019 H 0.02986 0.54026 0.53729
 H1020 H 0.00946 0.45276 0.51646
 H1021 H -0.02593 0.45811 0.55731
 H1022 H 0.01433 0.45503 0.56076
 H1023 H -0.00919 0.53841 0.42245
 H1024 H 0.01572 0.56611 0.45401
 H1025 H -0.06904 0.49386 0.53504
 H1026 H -0.04615 0.51980 0.56228
 H1027 H 0.04517 0.48777 0.43461
 H1028 H 0.06587 0.51651 0.46208
 H1029 H -0.04235 0.56831 0.50522
 H1030 H -0.06174 0.54634 0.47320
 H1031 H 0.06182 0.46686 0.52148
 H1032 H 0.04075 0.44032 0.49220
 O1033 O 0.57251 0.03631 0.51374
 O1034 O 0.56771 0.03266 0.46794
 O1035 O 0.50469 0.06747 0.53596
 O1036 O 0.46584 0.05847 0.53503
 O1037 O 0.53536 0.00682 0.57866
 O1038 O 0.53567 -0.03552 0.57055
 O1039 O 0.44868 -0.00094 0.46881
 O1040 O 0.45510 0.04073 0.47037
 O1041 O 0.51312 -0.03026 0.44064
 O1042 O 0.55664 -0.02576 0.45336
 O1043 O 0.48058 -0.06093 0.50428
 O1044 O 0.47882 -0.05239 0.55038
 O1045 O 0.44759 -0.02985 0.50032
 O1046 O 0.45351 -0.02614 0.54867
 O1047 O 0.51223 -0.06085 0.47639
 O1048 O 0.55604 -0.05022 0.48254
 O1049 O 0.48196 -0.00370 0.43744
 O1050 O 0.48556 0.04108 0.44302
 O1051 O 0.57168 0.00745 0.54534
 O1052 O 0.56437 -0.03521 0.54402
 O1053 O 0.50525 0.03452 0.57460
 O1054 O 0.46267 0.02810 0.56061
 O1055 O 0.53639 0.06834 0.50803
 O1056 O 0.53954 0.05761 0.46324
 Zr1057 Zr 0.53881 0.03280 0.49455
 O1058 O 0.52038 0.01013 0.46848
 Zr1059 Zr 0.49302 0.03171 0.53604
 O1060 O 0.47240 0.00961 0.51160
 Zr1061 Zr 0.53725 -0.00846 0.54154
 O1062 O 0.51833 -0.03281 0.51778
 Zr1063 Zr 0.48291 0.01467 0.47288
 O1064 O 0.50129 0.03925 0.49695
 Zr1065 Zr 0.52667 -0.02595 0.47871
 O1066 O 0.54776 -0.00329 0.50273
 Zr1067 Zr 0.48087 -0.02643 0.52018
 O1068 O 0.49971 -0.00426 0.54662
 O1069 O 0.53029 0.02753 0.53334
 O1070 O 0.48937 -0.02141 0.48129
 C1071 C 0.58210 0.02467 0.53295
 C1072 C 0.52168 0.07839 0.52381
 C1073 C 0.52166 0.02335 0.58775
 C1074 C 0.43830 -0.01823 0.48099
 C1075 C 0.49504 -0.02074 0.42846
 C1076 C 0.49397 -0.07093 0.48729
 H1077 H 0.52555 0.01362 0.45056
 H1078 H 0.52251 -0.04943 0.52303
 H1079 H 0.53922 0.03869 0.54475
 H1080 H 0.45502 0.01320 0.51391
 H1081 H 0.46140 0.05540 0.47874
 H1082 H 0.45404 0.05392 0.52143
 H1083 H 0.55285 -0.06082 0.49764
 H1084 H 0.57348 -0.03430 0.52760
 H1085 H 0.49867 0.03648 0.43112
 H1086 H 0.52286 0.06393 0.46131
 H1087 H 0.49444 -0.06106 0.55112
 H1088 H 0.51890 -0.03542 0.57721
 H1089 H 0.57533 0.01662 0.46946
 H1090 H 0.55473 -0.01198 0.44126
 H1091 H 0.46570 0.01399 0.57203
 H1092 H 0.44184 -0.01331 0.54393
 O1093 O 0.47542 0.43625 -0.01181
 O1094 O 0.47985 0.44332 0.03505
 O1095 O 0.44150 0.50187 -0.03691
 O1096 O 0.45031 0.54192 -0.03360
 O1097 O 0.50115 0.47328 -0.07828
 O1098 O 0.54534 0.47423 -0.07040
 O1099 O 0.51595 0.55999 0.02841
 O1100 O 0.47153 0.55535 0.02369
 O1101 O 0.54104 0.49612 0.05924
 O1102 O 0.53548 0.45238 0.04669
 O1103 O 0.57288 0.52620 -0.00620
 O1104 O 0.56080 0.52584 -0.05480
 O1105 O 0.54264 0.56019 -0.00490
 O1106 O 0.53953 0.55513 -0.05009
 O1107 O 0.57239 0.49574 0.02352
 O1108 O 0.56224 0.45395 0.02032
 O1109 O 0.51320 0.52607 0.06124
 O1110 O 0.47193 0.52792 0.05541
 O1111 O 0.50313 0.43751 -0.04421
 O1112 O 0.54491 0.44463 -0.04497
 O1113 O 0.47300 0.50293 -0.07495
 O1114 O 0.47910 0.54408 -0.06406
 O1115 O 0.44248 0.47039 -0.00839
 O1116 O 0.45257 0.46935 0.03619
 Zr1117 Zr 0.47812 0.47030 0.00591
 O1118 O 0.50094 0.48973 0.03089
 Zr1119 Zr 0.47740 0.51525 -0.03698
 O1120 O 0.50139 0.53616 -0.01450
 Zr1121 Zr 0.51841 0.47177 -0.04158
 O1122 O 0.54359 0.48991 -0.01809
 Zr1123 Zr 0.49703 0.52700 0.02462
 O1124 O 0.47125 0.50759 0.00247
 Zr1125 Zr 0.53701 0.48252 0.02135
 O1126 O 0.51421 0.46140 -0.00239
 Zr1127 Zr 0.53757 0.52690 -0.02239
 O1128 O 0.51361 0.50877 -0.04776
 O1129 O 0.48237 0.47841 -0.03310
 O1130 O 0.53320 0.51960 0.01697
 C1131 C 0.48672 0.42686 -0.03098
 C1132 C 0.43152 0.48408 -0.02487
 C1133 C 0.48378 0.48639 -0.08750
 C1134 C 0.53312 0.56967 0.01506
 C1135 C 0.53005 0.51302 0.07120
 C1136 C 0.58293 0.51298 0.01149
 H1137 H 0.49734 0.48507 0.04899
 H1138 H 0.56018 0.48534 -0.02311
 H1139 H 0.47114 0.46904 -0.04408
 H1140 H 0.49832 0.55346 -0.01758
 H1141 H 0.45596 0.54844 0.01767
 H1142 H 0.45784 0.55617 -0.02555
 H1143 H 0.57052 0.45481 0.00342
 H1144 H 0.54607 0.43663 -0.02777
 H1145 H 0.46819 0.51112 0.06023
 H1146 H 0.44482 0.48538 0.03642
 H1147 H 0.57306 0.51319 -0.05152
 H1148 H 0.54283 0.48974 -0.07961
 H1149 H 0.49454 0.43369 0.03166
 H1150 H 0.52316 0.45564 0.06000
 H1151 H 0.49443 0.54226 -0.07364
 H1152 H 0.52373 0.56347 -0.05012
 O1153 O 0.74992 0.30656 0.44672
 O1154 O 0.70781 0.30765 0.45349
 O1155 O 0.77754 0.33191 0.52036
 O1156 O 0.77649 0.32054 0.56167
 O1157 O 0.80957 0.27141 0.48252
 O1158 O 0.79909 0.22972 0.48143
 O1159 O 0.70743 0.26459 0.57693
 O1160 O 0.71476 0.30592 0.57430
 O1161 O 0.67843 0.24381 0.50637
 O1162 O 0.69031 0.24873 0.46059
 O1163 O 0.73627 0.20468 0.53883
 O1164 O 0.77880 0.20979 0.54254
 O1165 O 0.73445 0.23379 0.57636
 O1166 O 0.78074 0.23534 0.57024
 O1167 O 0.70862 0.20946 0.50632
 O1168 O 0.71463 0.22205 0.46023
 O1169 O 0.67797 0.26962 0.54018
 O1170 O 0.68950 0.31266 0.54163
 O1171 O 0.77662 0.27548 0.44511
 O1172 O 0.77285 0.23251 0.45173
 O1173 O 0.80978 0.29650 0.51700
 O1174 O 0.79748 0.28762 0.56277
 O1175 O 0.75102 0.33660 0.48666
 O1176 O 0.70753 0.33035 0.48533
 Zr1177 Zr 0.73394 0.30296 0.48329
 O1178 O 0.70815 0.28111 0.50175
 Zr1179 Zr 0.77400 0.29561 0.53116
 O1180 O 0.74939 0.27422 0.55239
 Zr1181 Zr 0.77379 0.25822 0.48154
 O1182 O 0.74999 0.23460 0.50087
 Zr1183 Zr 0.71358 0.28295 0.54197
 O1184 O 0.73803 0.30677 0.52362
 Zr1185 Zr 0.71412 0.24489 0.49275
 O1186 O 0.73789 0.26711 0.47127
 Zr1187 Zr 0.75348 0.23828 0.54126
 O1188 O 0.77990 0.25941 0.52185
 O1189 O 0.76977 0.29408 0.49116
 O1190 O 0.71753 0.24678 0.53289
 C1191 C 0.76581 0.29389 0.43510
 C1192 C 0.76732 0.34451 0.50236
 C1193 C 0.82013 0.28626 0.49782
 C1194 C 0.71710 0.24563 0.58679
 C1195 C 0.66778 0.25448 0.52503
 C1196 C 0.71899 0.19696 0.52430
 H1197 H 0.69177 0.28643 0.49643
 H1198 H 0.75329 0.21796 0.49545
 H1199 H 0.78099 0.30479 0.48163
 H1200 H 0.75210 0.27631 0.57118
 H1201 H 0.72451 0.32008 0.56911
 H1202 H 0.76447 0.31570 0.57483
 H1203 H 0.72763 0.21006 0.46306
 H1204 H 0.75745 0.23510 0.44212
 H1205 H 0.67940 0.31196 0.52574
 H1206 H 0.70875 0.33714 0.50294
 H1207 H 0.78116 0.20451 0.52451
 H1208 H 0.80637 0.22896 0.49902
 H1209 H 0.70687 0.29219 0.44426
 H1210 H 0.68064 0.26347 0.46308
 H1211 H 0.80688 0.27319 0.55809
 H1212 H 0.77658 0.24643 0.58436
 O1213 O 0.78707 0.81724 0.00309
 O1214 O 0.79040 0.80607 0.04731
 O1215 O 0.81823 0.75525 -0.03399
 O1216 O 0.81006 0.71691 -0.03947
 O1217 O 0.75136 0.78853 -0.06259
 O1218 O 0.71033 0.78481 -0.04950
 O1219 O 0.76089 0.68795 0.03320
 O1220 O 0.80135 0.69682 0.02781
 O1221 O 0.73150 0.74612 0.07407
 O1222 O 0.73239 0.78957 0.06846
 O1223 O 0.69499 0.71974 0.01108
 O1224 O 0.69699 0.72369 -0.03427
 O1225 O 0.72873 0.68905 0.00536
 O1226 O 0.72608 0.70260 -0.04244
 O1227 O 0.69696 0.74792 0.04256
 O1228 O 0.70602 0.79280 0.04138
 O1229 O 0.75962 0.71674 0.06948
 O1230 O 0.80425 0.72452 0.05789
 O1231 O 0.75444 0.81893 -0.02414
 O1232 O 0.71200 0.80851 -0.01812
 O1233 O 0.78070 0.76032 -0.06750
 O1234 O 0.77687 0.71554 -0.05948
 O1235 O 0.82126 0.78377 -0.00288
 O1236 O 0.81637 0.77868 0.04383
 Zr1237 Zr 0.78767 0.78144 0.01658
 O1238 O 0.76862 0.75896 0.04258
 Zr1239 Zr 0.78278 0.74227 -0.03128
 O1240 O 0.76487 0.71754 -0.00699
 Zr1241 Zr 0.74046 0.78380 -0.02396
 O1242 O 0.71982 0.76053 -0.00047
 Zr1243 Zr 0.77409 0.72310 0.03215
 O1244 O 0.79498 0.74541 0.00744
 Zr1245 Zr 0.73111 0.76426 0.03819
 O1246 O 0.75028 0.78931 0.01500
 Zr1247 Zr 0.72751 0.72453 -0.00924
 O1248 O 0.74533 0.74800 -0.03553
 O1249 O 0.77765 0.77805 -0.02208
 O1250 O 0.73680 0.72827 0.02964
 C1251 C 0.77268 0.82848 -0.01258
 C1252 C 0.82987 0.77160 -0.02180
 C1253 C 0.76743 0.77777 -0.07603
 C1254 C 0.74296 0.67817 0.02150
 C1255 C 0.74300 0.72746 0.08231
 C1256 C 0.68632 0.73063 0.03074
 H1257 H 0.77400 0.76194 0.06056
 H1258 H 0.70243 0.76423 -0.00281
 H1259 H 0.78703 0.78910 -0.03332
 H1260 H 0.76903 0.70109 -0.01245
 H1261 H 0.81445 0.70444 0.01762
 H1262 H 0.80949 0.70460 -0.02553
 H1263 H 0.69287 0.79014 0.02860
 H1264 H 0.71526 0.81630 -0.00130
 H1265 H 0.79972 0.73390 0.07326
 H1266 H 0.82451 0.76317 0.04065
 H1267 H 0.69002 0.74004 -0.03475
 H1268 H 0.71034 0.76940 -0.05887
 H1269 H 0.77387 0.81240 0.04998
 H1270 H 0.74850 0.78835 0.07689
 H1271 H 0.76218 0.72022 -0.06945
 H1272 H 0.73909 0.69045 -0.04070
 O1273 O 1.00571 0.18101 0.22958
 O1274 O 0.96109 0.18363 0.23364
 O1275 O 1.02038 0.24242 0.18190
 O1276 O 1.01246 0.28295 0.18426
 O1277 O 1.06301 0.22752 0.24910
 O1278 O 1.05592 0.23506 0.29573
 O1279 O 0.95351 0.30448 0.24916
 O1280 O 0.95759 0.29274 0.20391
 O1281 O 0.93287 0.24330 0.28927
 O1282 O 0.94951 0.19950 0.28916
 O1283 O 0.98849 0.28328 0.31653
 O1284 O 1.03413 0.28599 0.30416
 O1285 O 0.98338 0.31189 0.27856
 O1286 O 1.02628 0.31113 0.27614
 O1287 O 0.96627 0.24921 0.32172
 O1288 O 0.97332 0.20782 0.31805
 O1289 O 0.92699 0.26842 0.25476
 O1290 O 0.93172 0.26275 0.20982
 O1291 O 1.03616 0.18942 0.25806
 O1292 O 1.03592 0.20307 0.30110
 O1293 O 1.05597 0.25214 0.21433
 O1294 O 1.04092 0.29231 0.21396
 O1295 O 0.99697 0.20926 0.18854
 O1296 O 0.95666 0.20441 0.20014
 Zr1297 Zr 0.98479 0.21278 0.22656
 O1298 O 0.95916 0.23269 0.24723
 Zr1299 Zr 1.01917 0.26111 0.21743
 O1300 O 0.99573 0.28291 0.23925
 Zr1301 Zr 1.02924 0.22515 0.26822
 O1302 O 1.00508 0.24430 0.29178
 Zr1303 Zr 0.96049 0.26924 0.23630
 O1304 O 0.98344 0.24859 0.21257
 Zr1305 Zr 0.96935 0.23197 0.28635
 O1306 O 0.99406 0.21029 0.26605
 Zr1307 Zr 1.00412 0.28026 0.27917
 O1308 O 1.03000 0.26147 0.25680
 O1309 O 1.02010 0.22533 0.22913
 O1310 O 0.96864 0.26820 0.27576
 C1311 C 1.02488 0.17523 0.24273
 C1312 C 1.01071 0.22249 0.17449
 C1313 C 1.06979 0.23864 0.22830
 C1314 C 0.96416 0.31792 0.26588
 C1315 C 0.91978 0.25776 0.27546
 C1316 C 0.97429 0.26938 0.32962
 H1317 H 0.94285 0.22577 0.24463
 H1318 H 1.01031 0.24278 0.31009
 H1319 H 1.03128 0.21557 0.21871
 H1320 H 0.99647 0.29971 0.23289
 H1321 H 0.96424 0.28412 0.18887
 H1322 H 1.00334 0.29726 0.18984
 H1323 H 0.98974 0.21025 0.32536
 H1324 H 1.02132 0.19296 0.30334
 H1325 H 0.92703 0.24569 0.21153
 H1326 H 0.95282 0.21950 0.19064
 H1327 H 1.03230 0.27532 0.31948
 H1328 H 1.06230 0.25088 0.29012
 H1329 H 0.96597 0.17641 0.25051
 H1330 H 0.93502 0.20093 0.27784
 H1331 H 1.04993 0.29390 0.23051
 H1332 H 1.02538 0.31679 0.25792
 O1333 O 0.69250 1.03080 0.75797
 O1334 O 0.70489 1.03355 0.80323
 O1335 O 0.75422 1.06421 0.72049
 O1336 O 0.79438 1.05726 0.71844
 O1337 O 0.72247 0.99914 0.69201
 O1338 O 0.72882 0.95688 0.70542
 O1339 O 0.82356 1.00478 0.78771
 O1340 O 0.81453 1.04650 0.77848
 O1341 O 0.76617 0.97796 0.82941
 O1342 O 0.71974 0.98107 0.82267
 O1343 O 0.78815 0.93997 0.76614
 O1344 O 0.78384 0.94686 0.71703
 O1345 O 0.82165 0.97246 0.76125
 O1346 O 0.81285 0.96915 0.71724
 O1347 O 0.76133 0.94296 0.79913
 O1348 O 0.71920 0.95143 0.80060
 O1349 O 0.79424 1.00746 0.82433
 O1350 O 0.79021 1.04872 0.81213
 O1351 O 0.69185 0.99883 0.73087
 O1352 O 0.70239 0.95812 0.73423
 O1353 O 0.75097 1.02835 0.68762
 O1354 O 0.79463 1.02492 0.69407
 O1355 O 0.72583 1.06561 0.75217
 O1356 O 0.72971 1.06129 0.79755
 Zr1357 Zr 0.72877 1.03233 0.77145
 O1358 O 0.75231 1.01424 0.79737
 Zr1359 Zr 0.76878 1.02936 0.72374
 O1360 O 0.79371 1.01032 0.74734
 Zr1361 Zr 0.72754 0.98656 0.73057
 O1362 O 0.75003 0.96605 0.75533
 Zr1363 Zr 0.78850 1.01951 0.78617
 O1364 O 0.76510 1.04048 0.76241
 Zr1365 Zr 0.74665 0.97725 0.79399
 O1366 O 0.72140 0.99533 0.76968
 Zr1367 Zr 0.78626 0.97325 0.74611
 O1368 O 0.76362 0.99214 0.71944
 O1369 O 0.73266 1.02341 0.73280
 O1370 O 0.78298 0.98247 0.78489
 C1371 C 0.68162 1.01618 0.74258
 C1372 C 0.73744 1.07491 0.73304
 C1373 C 0.73323 1.01576 0.67891
 C1374 C 0.83291 0.98628 0.77704
 C1375 C 0.78409 0.99072 0.83755
 C1376 C 0.77698 0.93143 0.78605
 H1377 H 0.74943 1.01967 0.81523
 H1378 H 0.74578 0.94893 0.75323
 H1379 H 0.72121 1.03268 0.72174
 H1380 H 0.81042 1.01391 0.74178
 H1381 H 0.80581 1.06012 0.77012
 H1382 H 0.80957 1.05234 0.72730
 H1383 H 0.71817 0.94131 0.78501
 H1384 H 0.69602 0.95886 0.75207
 H1385 H 0.77497 1.04906 0.82202
 H1386 H 0.74593 1.06869 0.79588
 H1387 H 0.77101 0.93539 0.72215
 H1388 H 0.74287 0.95942 0.69392
 H1389 H 0.69683 1.01769 0.80420
 H1390 H 0.72517 0.99351 0.83496
 H1391 H 0.79158 1.00903 0.68626
 H1392 H 0.81818 0.98545 0.71206
 O1393 O 0.73904 0.47285 0.31949
 O1394 O 0.69765 0.47325 0.30834
 O1395 O 0.77012 0.43490 0.25527
 O1396 O 0.77201 0.43960 0.21241
 O1397 O 0.80398 0.49908 0.28398
 O1398 O 0.79580 0.54076 0.27850
 O1399 O 0.70977 0.49703 0.17977
 O1400 O 0.71277 0.45649 0.19030
 O1401 O 0.67724 0.53093 0.24230
 O1402 O 0.68495 0.53189 0.28893
 O1403 O 0.74019 0.56019 0.21023
 O1404 O 0.78289 0.55135 0.21294
 O1405 O 0.73912 0.52565 0.17818
 O1406 O 0.78398 0.52274 0.18947
 O1407 O 0.71041 0.56243 0.24024
 O1408 O 0.71210 0.55594 0.28859
 O1409 O 0.67726 0.50024 0.21362
 O1410 O 0.68529 0.45646 0.22075
 O1411 O 0.76878 0.50118 0.31868
 O1412 O 0.76751 0.54318 0.30528
 O1413 O 0.80454 0.46815 0.25558
 O1414 O 0.79618 0.47056 0.20801
 O1415 O 0.74074 0.43696 0.28583
 O1416 O 0.69778 0.44620 0.28061
 Zr1417 Zr 0.72608 0.47178 0.28123
 O1418 O 0.70352 0.49232 0.25655
 Zr1419 Zr 0.76992 0.46915 0.23768
 O1420 O 0.74869 0.48869 0.21048
 Zr1421 Zr 0.76898 0.51369 0.27991
 O1422 O 0.74868 0.53562 0.25424
 Zr1423 Zr 0.71162 0.48412 0.21802
 O1424 O 0.73273 0.46170 0.24278
 Zr1425 Zr 0.71164 0.52905 0.25991
 O1426 O 0.73190 0.50872 0.28742
 Zr1427 Zr 0.75483 0.52558 0.21566
 O1428 O 0.77791 0.50593 0.24130
 O1429 O 0.76297 0.47710 0.27610
 O1430 O 0.71780 0.52091 0.22120
 C1431 C 0.75570 0.48534 0.33037
 C1432 C 0.75764 0.42581 0.27389
 C1433 C 0.81447 0.48132 0.27306
 C1434 C 0.72179 0.51343 0.16791
 C1435 C 0.66719 0.51821 0.22464
 C1436 C 0.72290 0.57128 0.22151
 H1437 H 0.68643 0.48897 0.26076
 H1438 H 0.75292 0.55261 0.25717
 H1439 H 0.77280 0.46734 0.28842
 H1440 H 0.75256 0.48355 0.19272
 H1441 H 0.72140 0.44281 0.19862
 H1442 H 0.76190 0.44349 0.19703
 H1443 H 0.72590 0.56677 0.28501
 H1444 H 0.75155 0.54240 0.31387
 H1445 H 0.67392 0.46047 0.23475
 H1446 H 0.69991 0.43668 0.26471
 H1447 H 0.78273 0.56079 0.22904
 H1448 H 0.80379 0.53931 0.26149
 H1449 H 0.69712 0.49001 0.31450
 H1450 H 0.67487 0.51722 0.28839
 H1451 H 0.80603 0.48516 0.21088
 H1452 H 0.78066 0.50901 0.17798
 O1453 O 0.48924 0.17442 0.71311
 O1454 O 0.44682 0.18034 0.71501
 O1455 O 0.51260 0.23851 0.67288
 O1456 O 0.51103 0.27800 0.67869
 O1457 O 0.55106 0.21318 0.74098
 O1458 O 0.54331 0.21601 0.78643
 O1459 O 0.44864 0.29952 0.74179
 O1460 O 0.45181 0.29124 0.69745
 O1461 O 0.42162 0.23688 0.77705
 O1462 O 0.43407 0.19438 0.77747
 O1463 O 0.48135 0.27242 0.80891
 O1464 O 0.52479 0.27324 0.79960
 O1465 O 0.47886 0.30289 0.77173
 O1466 O 0.52360 0.29656 0.76972
 O1467 O 0.45481 0.24129 0.81111
 O1468 O 0.46058 0.19730 0.80396
 O1469 O 0.41893 0.26480 0.74466
 O1470 O 0.42592 0.26145 0.69819
 O1471 O 0.51885 0.17721 0.74388
 O1472 O 0.51837 0.18782 0.78882
 O1473 O 0.54808 0.24092 0.70839
 O1474 O 0.53575 0.28321 0.71128
 O1475 O 0.48636 0.20705 0.67503
 O1476 O 0.44391 0.20648 0.68570
 Zr1477 Zr 0.47266 0.20830 0.71294
 O1478 O 0.44851 0.22814 0.73548
 Zr1479 Zr 0.51211 0.25327 0.71013
 O1480 O 0.48936 0.27535 0.73211
 Zr1481 Zr 0.51623 0.21257 0.75752
 O1482 O 0.49401 0.23301 0.78192
 Zr1483 Zr 0.45311 0.26485 0.72724
 O1484 O 0.47551 0.24483 0.70247
 Zr1485 Zr 0.45752 0.22439 0.77496
 O1486 O 0.47990 0.20194 0.75260
 Zr1487 Zr 0.49667 0.26956 0.77177
 O1488 O 0.52138 0.24934 0.74961
 O1489 O 0.50903 0.21677 0.71816
 O1490 O 0.46018 0.26106 0.76685
 C1491 C 0.50671 0.16561 0.72670
 C1492 C 0.50150 0.22050 0.66289
 C1493 C 0.56000 0.22547 0.72204
 C1494 C 0.46062 0.31122 0.75887
 C1495 C 0.40996 0.25268 0.76362
 C1496 C 0.46522 0.25983 0.82070
 H1497 H 0.43182 0.22264 0.73190
 H1498 H 0.49870 0.23006 0.80020
 H1499 H 0.51969 0.20685 0.70727
 H1500 H 0.49174 0.29230 0.72679
 H1501 H 0.46004 0.28434 0.68227
 H1502 H 0.49997 0.29116 0.68348
 H1503 H 0.47447 0.20137 0.81531
 H1504 H 0.50273 0.17914 0.78913
 H1505 H 0.41708 0.24625 0.70126
 H1506 H 0.44378 0.22198 0.67611
 H1507 H 0.52494 0.25857 0.81059
 H1508 H 0.54952 0.23264 0.78500
 H1509 H 0.44797 0.17351 0.73278
 H1510 H 0.42337 0.19469 0.76200
 H1511 H 0.54575 0.28149 0.72721
 H1512 H 0.52021 0.30658 0.75415
 O1513 O 0.25381 0.77697 0.41990
 O1514 O 0.21167 0.77849 0.42536
 O1515 O 0.27713 0.81336 0.49059
 O1516 O 0.27336 0.80644 0.53344
 O1517 O 0.31463 0.75095 0.46390
 O1518 O 0.30672 0.70905 0.46723
 O1519 O 0.20850 0.74675 0.55232
 O1520 O 0.21274 0.78816 0.54525
 O1521 O 0.18457 0.71750 0.48256
 O1522 O 0.19866 0.71942 0.43739
 O1523 O 0.24210 0.68594 0.52292
 O1524 O 0.28623 0.69548 0.52686
 O1525 O 0.23774 0.71825 0.55701
 O1526 O 0.28222 0.72080 0.55408
 O1527 O 0.21678 0.68594 0.48795
 O1528 O 0.22446 0.69451 0.44139
 O1529 O 0.18034 0.74636 0.51301
 O1530 O 0.18897 0.79005 0.51107
 O1531 O 0.28345 0.74874 0.42406
 O1532 O 0.28261 0.70706 0.43594
 O1533 O 0.31149 0.78038 0.49389
 O1534 O 0.29784 0.77563 0.53945
 O1535 O 0.25236 0.81261 0.45515
 O1536 O 0.20955 0.80416 0.45373
 Zr1537 Zr 0.23716 0.77791 0.45617
 O1538 O 0.21186 0.75640 0.47574
 Zr1539 Zr 0.27507 0.77831 0.50631
 O1540 O 0.25086 0.75723 0.52866
 Zr1541 Zr 0.27984 0.73577 0.46221
 O1542 O 0.25649 0.71266 0.48261
 Zr1543 Zr 0.21499 0.76227 0.51573
 O1544 O 0.23878 0.78594 0.49588
 Zr1545 Zr 0.22069 0.72006 0.47117
 O1546 O 0.24417 0.74143 0.44879
 Zr1547 Zr 0.25767 0.72058 0.52235
 O1548 O 0.28363 0.74171 0.50221
 O1549 O 0.27309 0.77219 0.46671
 O1550 O 0.22173 0.72579 0.51104
 C1551 C 0.27107 0.76416 0.41088
 C1552 C 0.26733 0.82323 0.47039
 C1553 C 0.32347 0.76826 0.47717
 C1554 C 0.21910 0.72975 0.56504
 C1555 C 0.17210 0.72918 0.49896
 C1556 C 0.22644 0.67591 0.50795
 H1557 H 0.19548 0.76010 0.46896
 H1558 H 0.26106 0.69583 0.47927
 H1559 H 0.28413 0.78235 0.45626
 H1560 H 0.25243 0.76134 0.54718
 H1561 H 0.22217 0.80227 0.53925
 H1562 H 0.26212 0.80129 0.54725
 H1563 H 0.23775 0.68343 0.44638
 H1564 H 0.26757 0.70725 0.42536
 H1565 H 0.18042 0.78774 0.49438
 H1566 H 0.20941 0.81243 0.47061
 H1567 H 0.28606 0.68499 0.51153
 H1568 H 0.31238 0.71003 0.48544
 H1569 H 0.21154 0.76213 0.41806
 H1570 H 0.18729 0.73311 0.43811
 H1571 H 0.30748 0.76076 0.53767
 H1572 H 0.27953 0.73577 0.56376
 O1573 O 0.31722 0.24106 0.95937
 O1574 O 0.30875 0.19889 0.96039
 O1575 O 0.25395 0.26910 0.92050
 O1576 O 0.21403 0.27088 0.92725
 O1577 O 0.28242 0.30271 0.99016
 O1578 O 0.27818 0.29218 1.03574
 O1579 O 0.18893 0.20598 0.98678
 O1580 O 0.19716 0.21329 0.94254
 O1581 O 0.25026 0.17321 1.01807
 O1582 O 0.29540 0.18531 1.01931
 O1583 O 0.21869 0.23260 1.05615
 O1584 O 0.21988 0.27595 1.04872
 O1585 O 0.18756 0.23316 1.01927
 O1586 O 0.19608 0.27789 1.01891
 O1587 O 0.24780 0.20376 1.05580
 O1588 O 0.28960 0.20537 1.05109
 O1589 O 0.22117 0.17496 0.98662
 O1590 O 0.22565 0.18523 0.94108
 O1591 O 0.31624 0.26923 0.99093
 O1592 O 0.30589 0.26585 1.03633
 O1593 O 0.25433 0.30312 0.95764
 O1594 O 0.21118 0.29399 0.96089
 O1595 O 0.28430 0.24142 0.92189
 O1596 O 0.28315 0.19947 0.93053
 Zr1597 Zr 0.28228 0.22635 0.95911
 O1598 O 0.26046 0.20227 0.97989
 Zr1599 Zr 0.23934 0.26832 0.95820
 O1600 O 0.21557 0.24592 0.97932
 Zr1601 Zr 0.28059 0.26718 1.00537
 O1602 O 0.25871 0.24449 1.02864
 Zr1603 Zr 0.22385 0.20993 0.97201
 O1604 O 0.24575 0.23219 0.94866
 Zr1605 Zr 0.26485 0.20826 1.01971
 O1606 O 0.28908 0.23081 0.99897
 Zr1607 Zr 0.22192 0.24980 1.01939
 O1608 O 0.24374 0.27458 0.99819
 O1609 O 0.27585 0.26252 0.96581
 O1610 O 0.22817 0.21367 1.01202
 C1611 C 0.32704 0.25759 0.97297
 C1612 C 0.27140 0.25733 0.91013
 C1613 C 0.27078 0.31326 0.97145
 C1614 C 0.17818 0.21641 1.00543
 C1615 C 0.23343 0.16377 1.00406
 C1616 C 0.23022 0.21480 1.06666
 H1617 H 0.26503 0.18575 0.97514
 H1618 H 0.26207 0.24757 1.04715
 H1619 H 0.28635 0.27301 0.95512
 H1620 H 0.19860 0.24959 0.97446
 H1621 H 0.20495 0.22148 0.92764
 H1622 H 0.19973 0.26114 0.93203
 H1623 H 0.29210 0.22174 1.05780
 H1624 H 0.31447 0.25031 1.03499
 H1625 H 0.24015 0.17504 0.94367
 H1626 H 0.26742 0.20024 0.92121
 H1627 H 0.23524 0.27532 1.05870
 H1628 H 0.26218 0.30008 1.03382
 H1629 H 0.31686 0.19984 0.97753
 H1630 H 0.29291 0.17361 1.00526
 H1631 H 0.21318 0.30200 0.97780
 H1632 H 0.18541 0.27566 1.00363
 C1633 C 0.28003 0.38358 0.76272
 C1634 C 0.26660 0.39787 0.77748
 H1635 H 0.28996 0.39120 0.74655
 H1636 H 0.25642 0.39061 0.79354
 C1637 C 0.28548 -0.10729 0.27699
 C1638 C 0.26749 -0.09458 0.28796
 H1639 H 0.29781 -0.09812 0.26395
 H1640 H 0.25532 -0.10280 0.30173
 C1641 C 0.79491 0.89152 0.78045
 C1642 C 0.78149 0.90651 0.79438
 H1643 H 0.80358 0.89836 0.76307
 H1644 H 0.77262 0.90037 0.81184
 C1645 C 0.47479 0.86499 0.28697
 C1646 C 0.46712 0.85176 0.26689
 H1647 H 0.48959 0.85824 0.29893
 H1648 H 0.45324 0.85853 0.25383
 C1649 C -0.02398 0.85961 0.77961
 C1650 C -0.03442 0.84605 0.76125
 H1651 H -0.00829 0.85256 0.78995
 H1652 H -0.05014 0.85248 0.75069
 C1653 C -0.01342 -0.11586 -0.04139
 C1654 C -0.01943 -0.10213 -0.02137
 H1655 H 0.00093 -0.11005 -0.05424
 H1656 H -0.03373 -0.10777 -0.00849
 C1657 C -0.04333 0.39523 0.48012
 C1658 C -0.02371 0.40737 0.47214
 H1659 H -0.05480 0.40305 0.49476
 H1660 H -0.01145 0.39966 0.45835
 C1661 C 0.46783 -0.10687 0.48727
 C1662 C 0.48758 -0.09523 0.47865
 H1663 H 0.45742 -0.09899 0.50274
 H1664 H 0.49877 -0.10283 0.46376
 C1665 C 0.46246 0.38950 -0.02917
 C1666 C 0.48041 0.40253 -0.03954
 H1667 H 0.45262 0.39675 -0.01292
 H1668 H 0.49071 0.39570 -0.05556
 C1669 C 0.76751 0.38384 0.48010
 C1670 C 0.77598 0.36934 0.49897
 H1671 H 0.75256 0.37787 0.46802
 H1672 H 0.79049 0.37524 0.51157
 C1673 C 0.79773 0.86512 -0.01062
 C1674 C 0.77775 0.85376 -0.01904
 H1675 H 0.80968 0.85589 0.00300
 H1676 H 0.76527 0.86248 -0.03234
 C1677 C 0.78780 0.28973 0.39404
 C1678 C 0.77192 0.30157 0.40860
 H1679 H 0.79673 0.27389 0.40193
 H1680 H 0.76294 0.31745 0.40109
 C1681 C 0.78807 0.77789 -0.11833
 C1682 C 0.77153 0.78727 -0.10243
 H1683 H 0.79759 0.76174 -0.11218
 H1684 H 0.76112 0.80287 -0.10829
 C1685 C 0.28712 0.46922 0.87277
 C1686 C 0.26809 0.46217 0.85854
 H1687 H 0.29775 0.48440 0.86606
 H1688 H 0.25715 0.44715 0.86496
 C1689 C 0.29534 -0.02200 0.37648
 C1690 C 0.27450 -0.02661 0.36420
 H1691 H 0.30714 -0.00818 0.36864
 H1692 H 0.26206 -0.03967 0.37220
 C1693 C -0.02241 -0.02983 -0.11921
 C1694 C -0.00400 -0.03856 -0.10491
 H1695 H -0.03243 -0.01457 -0.11201
 H1696 H 0.00636 -0.05374 -0.11148
 C1697 C -0.04074 0.47498 0.38250
 C1698 C -0.02055 0.46925 0.39599
 H1699 H -0.05158 0.48994 0.38904
 H1700 H -0.00917 0.45463 0.38982
 C1701 C 0.46758 -0.02538 0.39063
 C1702 C 0.48843 -0.03094 0.40296
 H1703 H 0.45579 -0.01196 0.39886
 H1704 H 0.50036 -0.04438 0.39516
 C1705 C 0.48158 0.46257 -0.12724
 C1706 C 0.47400 0.48129 -0.11346
 H1707 H 0.49719 0.45248 -0.12029
 H1708 H 0.45886 0.49210 -0.12009
 C1709 C 0.46668 0.79899 0.36834
 C1710 C 0.45611 0.78254 0.35330
 H1711 H 0.48297 0.80791 0.36167
 H1712 H 0.43984 0.77357 0.35972
 C1713 C -0.03703 0.77537 0.85764
 C1714 C -0.01864 0.78200 0.84228
 H1715 H -0.04934 0.76150 0.85104
 H1716 H -0.00614 0.79586 0.84815
 C1717 C 0.37625 0.77640 0.27577
 C1718 C 0.39241 0.78447 0.25870
 H1719 H 0.38106 0.76151 0.28853
 H1720 H 0.38745 0.79881 0.24534
 C1721 C -0.11791 0.78123 0.76245
 C1722 C -0.10186 0.76825 0.77610
 H1723 H -0.11286 0.78875 0.74378
 H1724 H -0.10648 0.76106 0.79499
 C1725 C 0.85695 0.28748 0.47067
 C1726 C 0.84536 0.29346 0.49245
 H1727 H 0.84834 0.27530 0.45720
 H1728 H 0.85395 0.30530 0.50621
 C1729 C 0.86816 0.79512 -0.02443
 C1730 C 0.85453 0.77629 -0.03125
 H1731 H 0.86149 0.80751 -0.01011
 H1732 H 0.86117 0.76382 -0.04539
 C1733 C -0.09442 -0.04046 -0.02267
 C1734 C -0.08072 -0.02348 -0.03407
 H1735 H -0.08659 -0.05084 -0.00677
 H1736 H -0.08770 -0.01288 -0.05016
 C1737 C -0.11243 0.46735 0.47526
 C1738 C -0.09756 0.48289 0.46328
 H1739 H -0.10552 0.45682 0.49152
 H1740 H -0.10373 0.49343 0.44682
 C1741 C 0.40136 -0.04331 0.48108
 C1742 C 0.41403 -0.02460 0.47174
 H1743 H 0.40929 -0.05447 0.49628
 H1744 H 0.40686 -0.01338 0.45632
 C1745 C 0.39516 0.45823 -0.02253
 C1746 C 0.40612 0.47829 -0.03152
 H1747 H 0.40486 0.44683 -0.00878
 H1748 H 0.39709 0.49015 -0.04520
 C1749 C 0.35943 0.45252 0.78028
 C1750 C 0.34680 0.47010 0.79140
 H1751 H 0.35116 0.44247 0.76466
 H1752 H 0.35455 0.48007 0.80731
 C1753 C 0.35878 -0.04384 0.28202
 C1754 C 0.34672 -0.02425 0.28940
 H1755 H 0.35044 -0.05591 0.26825
 H1756 H 0.35523 -0.01206 0.30283
 C1757 C 0.13919 0.53709 0.73143
 C1758 C 0.15413 0.52310 0.71807
 H1759 H 0.14568 0.54565 0.74893
 H1760 H 0.14804 0.51478 0.70035
 C1761 C 0.13513 0.03030 0.22285
 C1762 C 0.15046 0.04024 0.23972
 H1763 H 0.14100 0.01470 0.21219
 H1764 H 0.14485 0.05575 0.25058
 C1765 C 0.60522 0.72399 0.22209
 C1766 C 0.59106 0.71574 0.24130
 H1767 H 0.59916 0.73927 0.21056
 H1768 H 0.59695 0.70081 0.25338
 C1769 C 0.10439 0.70856 0.71157
 C1770 C 0.09070 0.72509 0.69923
 H1771 H 0.09744 0.69993 0.72892
 H1772 H 0.09717 0.73397 0.68187
 C1773 C 0.63017 0.23248 0.51582
 C1774 C 0.64223 0.24870 0.52992
 H1775 H 0.63917 0.22386 0.49982
 H1776 H 0.63376 0.25715 0.54626
 C1777 C 0.65086 0.70328 0.03310
 C1778 C 0.66276 0.72293 0.04111
 H1779 H 0.65834 0.69267 0.01761
 H1780 H 0.65560 0.73362 0.05660
 C1781 C 0.13404 0.02534 0.01981
 C1782 C 0.11972 0.00899 0.03130
 H1783 H 0.12705 0.03551 0.00334
 H1784 H 0.12634 -0.00138 0.04773
 C1785 C 0.11190 0.54454 0.52409
 C1786 C 0.09731 0.52828 0.53518
 H1787 H 0.10529 0.55512 0.50774
 H1788 H 0.10352 0.51803 0.55186
 C1789 C 0.61801 0.05130 0.53350
 C1790 C 0.60638 0.03174 0.54234
 H1791 H 0.60960 0.06222 0.51841
 H1792 H 0.61427 0.02093 0.55775
 C1793 C 0.62076 0.53634 0.01002
 C1794 C 0.60810 0.51779 0.01938
 H1795 H 0.61275 0.54777 -0.00490
 H1796 H 0.61595 0.50611 0.03407
 C1797 C 0.02711 0.03138 0.12055
 C1798 C 0.03809 0.01413 0.10720
 H1799 H 0.01309 0.04206 0.11111
 H1800 H 0.05145 0.00257 0.11629
 C1801 C 0.03309 0.52586 0.62139
 C1802 C 0.01498 0.53478 0.60670
 H1803 H 0.04400 0.51133 0.61395
 H1804 H 0.00395 0.54934 0.61367
 C1805 C 0.54332 0.02294 0.62996
 C1806 C 0.52519 0.03108 0.61472
 H1807 H 0.55524 0.00920 0.62257
 H1808 H 0.51291 0.04468 0.62150
 C1809 C 0.52535 0.53437 0.11203
 C1810 C 0.53740 0.51812 0.09808
 H1811 H 0.50946 0.54305 0.10372
 H1812 H 0.55310 0.50895 0.10600
 C1813 C 0.21959 0.52163 0.63155
 C1814 C 0.23844 0.52901 0.64596
 H1815 H 0.20790 0.50755 0.63899
 H1816 H 0.25027 0.54307 0.63895
 C1817 C 0.23873 0.02956 0.13433
 C1818 C 0.22353 0.02057 0.15185
 H1819 H 0.25627 0.03621 0.14054
 H1820 H 0.20591 0.01408 0.14588
 C1821 C 0.71427 0.21672 0.62326
 C1822 C 0.70688 0.23699 0.61149
 H1823 H 0.72906 0.20661 0.61506
 H1824 H 0.69248 0.24749 0.61980
 C1825 C 0.71690 0.72556 0.12082
 C1826 C 0.73580 0.71687 0.10760
 H1827 H 0.70789 0.74163 0.11362
 H1828 H 0.74514 0.70091 0.11442
 C1829 C 0.54924 0.71630 0.14674
 C1830 C 0.52752 0.71197 0.15696
 H1831 H 0.56116 0.72937 0.15561
 H1832 H 0.51546 0.69922 0.14790
 C1833 C 0.01917 0.73160 0.61323
 C1834 C 0.00540 0.71893 0.62967
 H1835 H 0.02671 0.74859 0.61944
 H1836 H -0.00246 0.70199 0.62396
 C1837 C 0.51483 0.63871 0.21843
 C1838 C 0.52043 0.65107 0.23973
 H1839 H 0.50187 0.64619 0.20465
 H1840 H 0.53302 0.64359 0.25383
 C1841 C 0.03429 0.63641 0.72640
 C1842 C 0.01543 0.64814 0.71598
 H1843 H 0.04598 0.64551 0.74013
 H1844 H 0.00334 0.63919 0.70263
 C1845 C 0.04180 0.10447 0.03939
 C1846 C 0.05224 0.09068 0.02136
 H1847 H 0.02662 0.09731 0.05020
 H1848 H 0.06739 0.09745 0.01033
 C1849 C 0.03765 0.61883 0.51354
 C1850 C 0.01907 0.60594 0.52272
 H1851 H 0.05040 0.61048 0.50057
 H1852 H 0.00617 0.61409 0.53556
 C1853 C 0.54094 0.11812 0.51799
 C1854 C 0.52419 0.10413 0.52910
 H1855 H 0.55320 0.11049 0.50400
 H1856 H 0.51168 0.11155 0.54285
 C1857 C 0.53881 0.60392 0.04504
 C1858 C 0.54353 0.59300 0.02268
 H1859 H 0.52557 0.59613 0.05806
 H1860 H 0.55648 0.60092 0.00951
 C1861 C 0.72029 0.15722 0.54609
 C1862 C 0.71008 0.17218 0.52852
 H1863 H 0.73594 0.16345 0.55694
 H1864 H 0.69473 0.16650 0.51699
 C1865 C 0.72136 0.64003 0.01561
 C1866 C 0.73871 0.65272 0.02738
 H1867 H 0.71035 0.64846 0.00057
 H1868 H 0.75017 0.64448 0.04204
 C1869 C 0.21050 0.60926 0.72832
 C1870 C 0.23141 0.59817 0.72320
 H1871 H 0.19791 0.60089 0.74167
 H1872 H 0.24425 0.60649 0.71017
 C1873 C 0.21264 0.11718 0.23087
 C1874 C 0.23103 0.10370 0.22272
 H1875 H 0.20221 0.11093 0.24734
 H1876 H 0.24164 0.10970 0.20634
 C1877 C 0.71194 1.11101 0.73453
 C1878 C 0.73054 1.09915 0.72411
 H1879 H 0.70219 1.10294 0.75056
 H1880 H 0.74027 1.10670 0.70785
 C1881 C 0.69922 0.60901 0.22166
 C1882 C 0.71730 0.59583 0.21201
 H1883 H 0.68821 0.60147 0.23703
 H1884 H 0.72836 0.60296 0.19654
 C1885 C 0.53156 0.12948 0.73403
 C1886 C 0.51347 0.14068 0.72132
 H1887 H 0.54088 0.13883 0.74951
 H1888 H 0.50353 0.13184 0.70604
 C1889 C 1.02523 0.13514 0.22352
 C1890 C 1.03533 0.15101 0.23953
 H1891 H 1.00868 0.14006 0.21331
 H1892 H 1.05187 0.14657 0.24992
 C1893 C 0.22523 0.63862 0.53443
 C1894 C 0.21824 0.65136 0.51358
 H1895 H 0.23863 0.64592 0.54764
 H1896 H 0.20547 0.64375 0.49996
 C1897 C 0.24202 0.12308 1.02035
 C1898 C 0.22741 0.13838 1.00773
 H1899 H 0.25892 0.12954 1.02855
 H1900 H 0.21047 0.13226 0.99948
 C1901 C 0.21670 0.70469 0.60500
 C1902 C 0.20857 0.72313 0.59037
 H1903 H 0.23210 0.69441 0.59845
 H1904 H 0.19332 0.73363 0.59672
 C1905 C 0.20466 0.21453 1.10665
 C1906 C 0.22326 0.20577 1.09288
 H1907 H 0.19426 0.22925 1.09828
 H1908 H 0.23398 0.19111 1.10073
 C1909 C 0.72459 0.53618 0.12673
 C1910 C 0.71456 0.51853 0.14082
 H1911 H 0.73912 0.54670 0.13516
 H1912 H 0.70003 0.50788 0.13276
 C1913 C 0.73187 1.04117 0.63965
 C1914 C 0.72337 1.02211 0.65295
 H1915 H 0.74742 1.05075 0.64725
 H1916 H 0.70775 1.01235 0.64593
 C1917 C 0.52306 0.22636 0.62174
 C1918 C 0.50696 0.21408 0.63598
 H1919 H 0.53162 0.24216 0.62979
 H1920 H 0.49809 0.19838 0.62826
 C1921 C 1.03389 0.22182 0.13378
 C1922 C 1.01632 0.21286 0.14875
 H1923 H 1.04307 0.23805 0.13990
 H1924 H 1.00679 0.19674 0.14320
 C1925 C 0.59929 0.20450 0.72598
 C1926 C 0.58538 0.22131 0.71454
 H1927 H 0.59191 0.19387 0.74178
 H1928 H 0.59238 0.23198 0.69864
 C1929 C 1.10929 0.21796 0.22851
 C1930 C 1.09451 0.23469 0.21837
 H1931 H 1.10366 0.20823 0.24576
 H1932 H 1.09976 0.24450 0.20109
 C1933 C 0.13117 0.73204 0.51744
 C1934 C 0.14676 0.72165 0.50144
 H1935 H 0.13697 0.74732 0.52876
 H1936 H 0.14105 0.70672 0.48968
 C1937 C 0.14076 0.21653 1.03090
 C1938 C 0.15364 0.20781 1.01136
 H1939 H 0.14796 0.23133 1.04205
 H1940 H 0.14641 0.19343 0.99970
 C1941 C 0.63010 0.54332 0.22499
 C1942 C 0.64247 0.52443 0.21596
 H1943 H 0.63821 0.55444 0.23982
 H1944 H 0.63453 0.51301 0.20141
 C1945 C 0.64279 1.03809 0.74417
 C1946 C 0.65579 1.01922 0.73677
 H1947 H 0.65096 1.05151 0.75653
 H1948 H 0.64751 1.00555 0.72492
 C1949 C 0.85110 0.45550 0.27580
 C1950 C 0.83921 0.47553 0.28235
 H1951 H 0.84274 0.44325 0.26222
 H1952 H 0.84727 0.48785 0.29595
 C1953 C 0.86964 0.96119 0.77486
 C1954 C 0.85818 0.98055 0.78395
 H1955 H 0.86041 0.94965 0.76119
 H1956 H 0.86717 0.99238 0.79740
 C1957 C 0.37089 0.27282 0.75709
 C1958 C 0.38465 0.25734 0.77073
 H1959 H 0.37838 0.28173 0.74017
 H1960 H 0.37765 0.24842 0.78782
 C1961 C 0.88155 0.28033 0.27289
 C1962 C 0.89521 0.26334 0.28462
 H1963 H 0.88811 0.28902 0.25540
 H1964 H 0.88916 0.25454 0.30218
 C1965 C 0.35920 0.79518 0.47971
 C1966 C 0.34870 0.77500 0.47128
 H1967 H 0.34963 0.80648 0.49318
 H1968 H 0.35838 0.76346 0.45821
 C1969 C 0.36303 0.28377 0.97463
 C1970 C 0.35203 0.26396 0.96609
 H1971 H 0.35404 0.29487 0.98874
 H1972 H 0.36087 0.25269 0.95211
 C1973 C 0.77948 0.48852 0.37087
 C1974 C 0.76032 0.47995 0.35789
 H1975 H 0.79159 0.50105 0.36129
 H1976 H 0.74830 0.46716 0.36701
 C1977 C 0.78704 0.96714 0.87815
 C1978 C 0.79460 0.98553 0.86340
 H1979 H 0.77173 0.95653 0.87166
 H1980 H 0.80966 0.99647 0.86974
 C1981 C 0.26274 0.77943 0.36713
 C1982 C 0.27732 0.76747 0.38362
 H1983 H 0.24580 0.78683 0.37391
 H1984 H 0.29450 0.76039 0.37731
 C1985 C 0.26580 0.27762 0.86776
 C1986 C 0.27789 0.26217 0.88305
 H1987 H 0.25038 0.28721 0.87537
 H1988 H 0.29353 0.25281 0.87581
 C1989 C 0.46540 0.28699 0.85850
 C1990 C 0.45747 0.26701 0.84685
 H1991 H 0.47874 0.29814 0.84884
 H1992 H 0.44430 0.25563 0.85633
 C1993 C 0.96862 0.29813 0.36541
 C1994 C 0.96557 0.27639 0.35530
 H1995 H 0.97963 0.31134 0.35536
 H1996 H 0.95509 0.26313 0.36584
 C1997 C 0.46533 0.35047 0.77932
 C1998 C 0.45277 0.33591 0.76376
 H1999 H 0.48190 0.34405 0.78845
 H2000 H 0.43646 0.34209 0.75408
 C2001 C 0.96210 0.35654 0.28921
 C2002 C 0.95325 0.34172 0.27101
 H2003 H 0.97807 0.35114 0.30016
 H2004 H 0.93731 0.34673 0.25990
 C2005 C 0.29212 0.85978 0.47554
 C2006 C 0.27423 0.84809 0.46330
 H2007 H 0.30138 0.85100 0.49166
 H2008 H 0.26522 0.85629 0.44675
 C2009 C 0.29599 0.35034 0.97369
 C2010 C 0.27681 0.33842 0.96416
 H2011 H 0.30738 0.34156 0.98814
 H2012 H 0.26545 0.34688 0.94954
 C2013 C 0.78199 0.38855 0.27346
 C2014 C 0.76357 0.40128 0.28312
 H2015 H 0.79224 0.39591 0.25739
 H2016 H 0.75294 0.39404 0.29888
   
