data_POSCAR
  _audit_creation_date              2014-09-24
  _audit_creation_method            'ToBaCCo'
  _symmetry_space_group_name_H-M    'P1'
  _symmetry_Int_Tables_number       1
  _symmetry_cell_setting            triclinic
  loop_
  _symmetry_equiv_pos_as_xyz
 x,y,z
_cell_length_a 73.4886
_cell_length_b 73.1175
_cell_length_c 73.5713
_cell_angle_alpha 90.208500
_cell_angle_beta 89.962600
_cell_angle_gamma 89.889300
loop_
  _atom_site_label
  _atom_site_type_symbol
  _atom_site_fract_x
  _atom_site_fract_y
  _atom_site_fract_z
C1 C 0.74004 0.66358 0.97830
 H2 H 0.75399 0.66345 0.97360
 C3 C 0.72695 0.67381 0.96900
 H4 H 0.73098 0.68178 0.95730
 C5 C 0.71770 0.65277 0.99884
 H6 H 0.71397 0.64408 1.01006
 C7 C 0.70422 0.66282 0.99001
 H8 H 0.69028 0.66171 0.99463
 N9 N 0.73520 0.65322 0.99283
 C10 C 0.78452 0.63971 1.02279
 H11 H 0.78258 0.62507 1.02360
 C12 C 0.79976 0.64770 1.03076
 H13 H 0.80941 0.63911 1.03786
 C14 C 0.77402 0.66862 1.01273
 H15 H 0.76392 0.67668 1.00569
 C16 C 0.78911 0.67723 1.02059
 H17 H 0.79061 0.69190 1.01934
 Zn18 Zn 0.75272 0.63723 1.00297
 N19 N 0.77222 0.65014 1.01372
 C20 C 0.77960 0.62268 0.97939
 N21 N 0.76162 0.62236 0.98376
 C22 C 0.74953 0.61253 0.97374
 C23 C 0.75542 0.60238 0.95870
 C24 C 0.78606 0.61276 0.96449
 C25 C 0.73661 0.63197 1.03671
 C26 C 0.72868 0.62256 1.05113
 C27 C 0.73229 0.59451 1.03412
 C28 C 0.74020 0.60454 1.02005
 N29 N 0.74200 0.62295 1.02150
 H30 H 0.78897 0.63089 0.98720
 H31 H 0.73524 0.61283 0.97727
 H32 H 0.74555 0.59490 0.95069
 H33 H 0.80045 0.61312 0.96132
 H34 H 0.73827 0.64665 1.03753
 H35 H 0.72381 0.63081 1.06232
 H36 H 0.73199 0.57984 1.03240
 H37 H 0.74510 0.59752 1.00806
 C38 C 0.80234 0.66667 1.02953
 C39 C 0.70870 0.67330 0.97470
 C40 C 0.72619 0.60334 1.05024
 C41 C 0.77391 0.60253 0.95383
 C42 C 0.73788 0.34473 0.51978
 H43 H 0.75192 0.34428 0.52417
 C44 C 0.72468 0.33473 0.52914
 H45 H 0.72871 0.32636 0.54057
 C46 C 0.71549 0.35665 0.49990
 H47 H 0.71181 0.36565 0.48890
 C48 C 0.70190 0.34685 0.50880
 H49 H 0.68791 0.34845 0.50446
 N50 N 0.73308 0.35547 0.50550
 C51 C 0.78196 0.36662 0.47387
 H52 H 0.78094 0.38137 0.47344
 C53 C 0.79595 0.35773 0.46456
 H54 H 0.80582 0.36580 0.45718
 C55 C 0.77031 0.33830 0.48422
 H56 H 0.76012 0.33080 0.49170
 C57 C 0.78417 0.32882 0.47513
 H58 H 0.78454 0.31403 0.47569
 Zn59 Zn 0.75099 0.37068 0.49491
 N60 N 0.76957 0.35688 0.48353
 C61 C 0.77900 0.38470 0.51754
 N62 N 0.76088 0.38522 0.51379
 C63 C 0.74922 0.39534 0.52410
 C64 C 0.75571 0.40568 0.53872
 C65 C 0.78606 0.39484 0.53201
 C66 C 0.73408 0.37673 0.46162
 C67 C 0.72617 0.38662 0.44750
 C68 C 0.73181 0.41445 0.46438
 C69 C 0.73960 0.40400 0.47822
 N70 N 0.74038 0.38547 0.47669
 H71 H 0.78799 0.37620 0.50953
 H72 H 0.73484 0.39528 0.52100
 H73 H 0.74624 0.41379 0.54665
 H74 H 0.80047 0.39400 0.53495
 H75 H 0.73518 0.36200 0.46063
 H76 H 0.72133 0.37940 0.43558
 H77 H 0.73101 0.42916 0.46595
 H78 H 0.74501 0.41073 0.49013
 C79 C 0.79719 0.33858 0.46508
 C80 C 0.70637 0.33586 0.52376
 C81 C 0.72487 0.40575 0.44880
 C82 C 0.77437 0.40549 0.54285
 C83 C 0.24003 -0.15262 0.01539
 H84 H 0.25401 -0.15336 0.01993
 C85 C 0.22642 -0.16181 0.02500
 H86 H 0.23005 -0.16961 0.03694
 C87 C 0.21818 -0.14051 -0.00497
 H88 H 0.21488 -0.13183 -0.01633
 C89 C 0.20420 -0.14946 0.00418
 H90 H 0.19035 -0.14789 -0.00058
 N91 N 0.23568 -0.14212 0.00080
 C92 C 0.28498 -0.13263 -0.03071
 H93 H 0.28418 -0.11788 -0.03148
 C94 C 0.29888 -0.14193 -0.03974
 H95 H 0.30891 -0.13418 -0.04725
 C96 C 0.27287 -0.16053 -0.01977
 H97 H 0.26253 -0.16769 -0.01216
 C98 C 0.28664 -0.17041 -0.02857
 H99 H 0.28680 -0.18519 -0.02767
 Zn100 Zn 0.25403 -0.12756 -0.00996
 N101 N 0.27240 -0.14196 -0.02090
 C102 C 0.28214 -0.11373 0.01263
 N103 N 0.26408 -0.11285 0.00871
 C104 C 0.25256 -0.10232 0.01876
 C105 C 0.25914 -0.09196 0.03332
 C106 C 0.28930 -0.10359 0.02705
 C107 C 0.23763 -0.12188 -0.04350
 C108 C 0.22981 -0.11224 -0.05784
 C109 C 0.23549 -0.08419 -0.04145
 C110 C 0.24317 -0.09446 -0.02742
 N111 N 0.24385 -0.11297 -0.02857
 H112 H 0.29101 -0.12256 0.00483
 H113 H 0.23820 -0.10209 0.01553
 H114 H 0.24978 -0.08354 0.04106
 H115 H 0.30366 -0.10475 0.03016
 H116 H 0.23880 -0.13662 -0.04428
 H117 H 0.22588 -0.12020 -0.06958
 H118 H 0.23451 -0.06963 -0.03918
 H119 H 0.24843 -0.08757 -0.01552
 C120 C 0.29984 -0.16108 -0.03878
 C121 C 0.20817 -0.16001 0.01959
 C122 C 0.22833 -0.09290 -0.05716
 C123 C 0.27775 -0.09256 0.03766
 C124 C 0.23810 0.16207 0.47412
 H125 H 0.25204 0.16234 0.46939
 C126 C 0.22476 0.17216 0.46502
 H127 H 0.22859 0.18043 0.45346
 C128 C 0.21607 0.15041 0.49452
 H129 H 0.21256 0.14144 0.50560
 C130 C 0.20235 0.16030 0.48590
 H131 H 0.18844 0.15881 0.49053
 N132 N 0.23354 0.15137 0.48849
 C133 C 0.28329 0.13854 0.51808
 H134 H 0.28171 0.12384 0.51856
 C135 C 0.29828 0.14675 0.52629
 H136 H 0.30812 0.13825 0.53325
 C137 C 0.27205 0.16740 0.50865
 H138 H 0.26174 0.17535 0.50180
 C139 C 0.28687 0.17622 0.51678
 H140 H 0.28797 0.19095 0.51593
 Zn141 Zn 0.25144 0.13567 0.49840
 N142 N 0.27072 0.14885 0.50923
 C143 C 0.27849 0.12181 0.47460
 N144 N 0.26054 0.12111 0.47906
 C145 C 0.24860 0.11104 0.46908
 C146 C 0.25464 0.10098 0.45403
 C147 C 0.28509 0.11200 0.45969
 C148 C 0.23560 0.12994 0.53219
 C149 C 0.22794 0.12027 0.54658
 C150 C 0.23204 0.09233 0.52941
 C151 C 0.23967 0.10256 0.51532
 N152 N 0.24110 0.12105 0.51688
 H153 H 0.28772 0.13021 0.48237
 H154 H 0.23433 0.11104 0.47267
 H155 H 0.24490 0.09328 0.44608
 H156 H 0.29945 0.11265 0.45647
 H157 H 0.23707 0.14463 0.53312
 H158 H 0.22332 0.12769 0.55849
 H159 H 0.23109 0.07762 0.52801
 H160 H 0.24450 0.09569 0.50322
 C161 C 0.30033 0.16581 0.52556
 C162 C 0.20655 0.17116 0.47077
 C163 C 0.22603 0.10121 0.54530
 C164 C 0.27311 0.10149 0.44911
 C165 C 0.16120 0.47078 0.23725
 H166 H 0.16092 0.46620 0.25122
 C167 C 0.17118 0.46100 0.22426
 H168 H 0.17882 0.44904 0.22838
 C169 C 0.15100 0.49156 0.21480
 H170 H 0.14264 0.50307 0.21099
 C171 C 0.16082 0.48225 0.20142
 H172 H 0.15989 0.48682 0.18747
 N173 N 0.15127 0.48567 0.23231
 C174 C 0.13871 0.51694 0.28127
 H175 H 0.12418 0.51817 0.27930
 C176 C 0.14687 0.52499 0.29637
 H177 H 0.13852 0.53259 0.30591
 C178 C 0.16721 0.50574 0.27094
 H179 H 0.17503 0.49825 0.26094
 C180 C 0.17598 0.51368 0.28589
 H181 H 0.19055 0.51204 0.28741
 Zn182 Zn 0.13571 0.49665 0.24972
 N183 N 0.14884 0.50728 0.26911
 C184 C 0.12009 0.47410 0.27678
 N185 N 0.12025 0.47807 0.25873
 C186 C 0.11016 0.46824 0.24669
 C187 C 0.09910 0.45396 0.25272
 C188 C 0.10922 0.46000 0.28339
 C189 C 0.13141 0.53060 0.23325
 C190 C 0.12230 0.54531 0.22535
 C191 C 0.09394 0.52920 0.22952
 C192 C 0.10360 0.51478 0.23737
 N193 N 0.12203 0.51565 0.23889
 H194 H 0.12861 0.48164 0.28610
 H195 H 0.11078 0.47147 0.23236
 H196 H 0.09101 0.44642 0.24296
 H197 H 0.10951 0.45689 0.29777
 H198 H 0.14604 0.53101 0.23483
 H199 H 0.13008 0.55693 0.22064
 H200 H 0.07927 0.52835 0.22854
 H201 H 0.09634 0.50299 0.24235
 C202 C 0.16571 0.52325 0.29896
 C203 C 0.17088 0.46660 0.20602
 C204 C 0.10331 0.54472 0.22336
 C205 C 0.09852 0.44971 0.27132
 C206 C -0.15401 0.01558 0.24005
 H207 H -0.15510 0.02074 0.25381
 C208 C -0.16326 0.02439 0.22595
 H209 H -0.17108 0.03644 0.22938
 C210 C -0.14093 -0.00542 0.21930
 H211 H -0.13197 -0.01682 0.21663
 C212 C -0.14990 0.00289 0.20482
 H213 H -0.14817 -0.00316 0.19151
 N214 N -0.14297 0.00109 0.23649
 C215 C -0.13319 -0.02800 0.28722
 H216 H -0.11848 -0.02843 0.28662
 C217 C -0.14228 -0.03623 0.30165
 H218 H -0.13445 -0.04313 0.31204
 C219 C -0.16116 -0.01878 0.27407
 H220 H -0.16842 -0.01201 0.26323
 C221 C -0.17085 -0.02693 0.28828
 H222 H -0.18557 -0.02616 0.28839
 Zn223 Zn -0.12843 -0.00849 0.25548
 N224 N -0.14265 -0.01927 0.27396
 C225 C -0.11626 0.01570 0.28312
 N226 N -0.11478 0.01118 0.26523
 C227 C -0.10426 0.02116 0.25375
 C228 C -0.09440 0.03615 0.26023
 C229 C -0.10667 0.03057 0.29017
 C230 C -0.12092 -0.04266 0.24036
 C231 C -0.11046 -0.05686 0.23312
 C232 C -0.08348 -0.03886 0.23867
 C233 C -0.09448 -0.02499 0.24584
 N234 N -0.11287 -0.02701 0.24627
 H235 H -0.12500 0.00791 0.29198
 H236 H -0.10363 0.01751 0.23949
 H237 H -0.08625 0.04403 0.25085
 H238 H -0.10786 0.03377 0.30450
 H239 H -0.13557 -0.04398 0.24106
 H240 H -0.11720 -0.06900 0.22805
 H241 H -0.06886 -0.03703 0.23843
 H242 H -0.08828 -0.01265 0.25102
 C243 C -0.16136 -0.03562 0.30241
 C244 C -0.16103 0.01841 0.20778
 C245 C -0.09147 -0.05501 0.23208
 C246 C -0.09557 0.04103 0.27868
 C247 C 0.35426 0.52490 0.73377
 H248 H 0.36364 0.53326 0.74142
 C249 C 0.34439 0.53274 0.71961
 H250 H 0.34632 0.54709 0.71659
 C251 C 0.34139 0.49587 0.72752
 H252 H 0.34058 0.48142 0.73052
 C253 C 0.33128 0.50316 0.71317
 H254 H 0.32247 0.49426 0.70535
 N255 N 0.35262 0.50676 0.73746
 C256 C 0.36347 0.47929 0.78882
 H257 H 0.37815 0.48026 0.78876
 C258 C 0.35458 0.47142 0.80357
 H259 H 0.36257 0.46614 0.81475
 C260 C 0.33533 0.48476 0.77405
 H261 H 0.32790 0.49016 0.76260
 C262 C 0.32586 0.47688 0.78854
 H263 H 0.31114 0.47631 0.78813
 Zn264 Zn 0.36767 0.49586 0.75531
 N265 N 0.35382 0.48560 0.77438
 C266 C 0.37488 0.52705 0.77594
 N267 N 0.38304 0.51374 0.76587
 C268 C 0.40143 0.51316 0.76384
 C269 C 0.41232 0.52671 0.77167
 C270 C 0.38523 0.54084 0.78400
 C271 C 0.38043 0.45971 0.74928
 C272 C 0.39017 0.44599 0.74030
 C273 C 0.40180 0.46873 0.71961
 C274 C 0.39179 0.48203 0.72897
 N275 N 0.38151 0.47736 0.74361
 H276 H 0.36024 0.52706 0.77750
 H277 H 0.40772 0.50222 0.75618
 H278 H 0.42694 0.52603 0.76994
 H279 H 0.37840 0.55157 0.79157
 H280 H 0.37191 0.45617 0.76068
 H281 H 0.38930 0.43207 0.74518
 H282 H 0.40978 0.47269 0.70789
 H283 H 0.39213 0.49612 0.72453
 C284 C 0.33552 0.47008 0.80355
 C285 C 0.33283 0.52182 0.70897
 C286 C 0.40103 0.45042 0.72524
 C287 C 0.40422 0.54086 0.78182
 C288 C 0.65942 0.97587 0.73884
 H289 H 0.65939 0.97117 0.75277
 C290 C 0.66946 0.96641 0.72567
 H291 H 0.67740 0.95459 0.72962
 C292 C 0.64853 0.99660 0.71667
 H293 H 0.63988 1.00797 0.71304
 C294 C 0.65839 0.98761 0.70310
 H295 H 0.65719 0.99225 0.68920
 N296 N 0.64912 0.99059 0.73413
 C297 C 0.63646 1.02120 0.78347
 H298 H 0.62191 1.02234 0.78152
 C299 C 0.64457 1.02932 0.79857
 H300 H 0.63589 1.03712 0.80759
 C301 C 0.66499 1.01052 0.77294
 H302 H 0.67285 1.00313 0.76289
 C303 C 0.67375 1.01850 0.78787
 H304 H 0.68827 1.01646 0.78911
 Zn305 Zn 0.63351 1.00106 0.75182
 N306 N 0.64663 1.01177 0.77121
 C307 C 0.61875 0.97784 0.77881
 N308 N 0.61857 0.98203 0.76081
 C309 C 0.60865 0.97202 0.74876
 C310 C 0.59819 0.95727 0.75473
 C311 C 0.60848 0.96326 0.78536
 C312 C 0.62836 1.03510 0.73581
 C313 C 0.61891 1.04975 0.72819
 C314 C 0.59090 1.03302 0.73232
 C315 C 0.60091 1.01867 0.73990
 N316 N 0.61932 1.01989 0.74131
 H317 H 0.62712 0.98556 0.78812
 H318 H 0.60899 0.97544 0.73447
 H319 H 0.59027 0.94954 0.74497
 H320 H 0.60908 0.95997 0.79968
 H321 H 0.64299 1.03578 0.73729
 H322 H 0.62643 1.06158 0.72359
 H323 H 0.57624 1.03189 0.73142
 H324 H 0.59392 1.00666 0.74475
 C325 C 0.66355 1.02791 0.80129
 C326 C 0.66883 0.97214 0.70746
 C327 C 0.59992 1.04882 0.72633
 C328 C 0.59804 0.95272 0.77327
 C329 C 0.01628 0.23964 -0.15496
 H330 H 0.02100 0.25364 -0.15540
 C331 C 0.02566 0.22600 -0.16455
 H332 H 0.03761 0.22963 -0.17233
 C333 C -0.00430 0.21774 -0.14324
 H334 H -0.01565 0.21440 -0.13457
 C335 C 0.00460 0.20374 -0.15261
 H336 H -0.00035 0.18987 -0.15134
 N337 N 0.00171 0.23527 -0.14443
 C338 C -0.02979 0.28462 -0.13323
 H339 H -0.03036 0.28358 -0.11857
 C340 C -0.03903 0.29870 -0.14201
 H341 H -0.04649 0.30863 -0.13397
 C342 C -0.01914 0.27294 -0.16139
 H343 H -0.01153 0.26272 -0.16886
 C344 C -0.02814 0.28690 -0.17076
 H345 H -0.02741 0.28730 -0.18546
 Zn346 Zn -0.00866 0.25353 -0.12928
 N347 N -0.02003 0.27217 -0.14294
 C348 C 0.01410 0.28170 -0.11561
 N349 N 0.01041 0.26349 -0.11508
 C350 C 0.02091 0.25181 -0.10527
 C351 C 0.03570 0.25837 -0.09528
 C352 C 0.02875 0.28884 -0.10585
 C353 C -0.04213 0.23707 -0.12275
 C354 C -0.05602 0.22881 -0.11284
 C355 C -0.03850 0.23364 -0.08553
 C356 C -0.02494 0.24179 -0.09605
 N357 N -0.02683 0.24305 -0.11434
 H358 H 0.00584 0.29073 -0.12377
 H359 H 0.01790 0.23733 -0.10539
 H360 H 0.04406 0.24882 -0.08778
 H361 H 0.03136 0.30340 -0.10633
 H362 H -0.04350 0.23871 -0.13730
 H363 H -0.06807 0.22506 -0.12035
 H364 H -0.03562 0.23216 -0.07123
 H365 H -0.01277 0.24687 -0.08955
 C366 C -0.03830 0.29997 -0.16103
 C367 C 0.02003 0.20771 -0.16314
 C368 C -0.05452 0.22661 -0.09375
 C369 C 0.03982 0.27712 -0.09556
 C370 C 0.47731 0.23793 0.15812
 H371 H 0.47182 0.25167 0.15807
 C372 C 0.46812 0.22402 0.16733
 H373 H 0.45555 0.22717 0.17435
 C374 C 0.49961 0.21687 0.14780
 H375 H 0.51155 0.21394 0.13975
 C376 C 0.49094 0.20262 0.15684
 H377 H 0.49664 0.18898 0.15598
 N378 N 0.49260 0.23409 0.14837
 C379 C 0.52086 0.28504 0.13640
 H380 H 0.52198 0.28331 0.12183
 C381 C 0.52837 0.30038 0.14475
 H382 H 0.53543 0.31034 0.13651
 C383 C 0.51061 0.27377 0.16478
 H384 H 0.50372 0.26330 0.17248
 C385 C 0.51804 0.28894 0.17375
 H386 H 0.51662 0.29015 0.18836
 Zn387 Zn 0.50241 0.25236 0.13306
 N388 N 0.51198 0.27226 0.14639
 C389 C 0.47832 0.27848 0.11784
 N390 N 0.48330 0.26055 0.11784
 C391 C 0.47403 0.24794 0.10787
 C392 C 0.45927 0.25325 0.09713
 C393 C 0.46370 0.28438 0.10728
 C394 C 0.53710 0.23775 0.12844
 C395 C 0.55187 0.22996 0.11935
 C396 C 0.53522 0.23267 0.09117
 C397 C 0.52073 0.24041 0.10083
 N398 N 0.52180 0.24248 0.11918
 H399 H 0.48544 0.28823 0.12626
 H400 H 0.47806 0.23371 0.10838
 H401 H 0.45216 0.24304 0.08917
 H402 H 0.45978 0.29866 0.10772
 H403 H 0.53770 0.23986 0.14299
 H404 H 0.56390 0.22626 0.12699
 H405 H 0.53397 0.23070 0.07663
 H406 H 0.50861 0.24459 0.09366
 C407 C 0.52691 0.30257 0.16365
 C408 C 0.47472 0.20598 0.16638
 C409 C 0.55099 0.22716 0.10048
 C410 C 0.45393 0.27170 0.09676
 C411 C 0.97585 0.73719 0.65813
 H412 H 0.97076 0.75108 0.65846
 C413 C 0.96655 0.72339 0.66741
 H414 H 0.95428 0.72679 0.67486
 C415 C 0.99725 0.71568 0.64687
 H416 H 1.00887 0.71254 0.63844
 C417 C 0.98844 0.70153 0.65594
 H418 H 0.99372 0.68775 0.65471
 N419 N 0.99076 0.73308 0.64792
 C420 C 1.02004 0.78348 0.63616
 H421 H 1.02100 0.78181 0.62157
 C422 C 1.02778 0.79870 0.64450
 H423 H 1.03487 0.80863 0.63624
 C424 C 1.00983 0.77227 0.66458
 H425 H 1.00282 0.76188 0.67229
 C426 C 1.01749 0.78733 0.67354
 H427 H 1.01615 0.78854 0.68815
 Zn428 Zn 1.00077 0.75134 0.63272
 N429 N 1.01102 0.77081 0.64617
 C430 C 0.97694 0.77830 0.61872
 N431 N 0.98159 0.76030 0.61800
 C432 C 0.97187 0.74822 0.60781
 C433 C 0.95690 0.75415 0.59769
 C434 C 0.96209 0.78480 0.60885
 C435 C 1.03499 0.73598 0.62747
 C436 C 1.04951 0.72804 0.61812
 C437 C 1.03267 0.73153 0.59015
 C438 C 1.01842 0.73942 0.60006
 N439 N 1.01972 0.74120 0.61843
 H440 H 0.98449 0.78766 0.62721
 H441 H 0.97560 0.73390 0.60779
 H442 H 0.94914 0.74428 0.58991
 H443 H 0.95871 0.79921 0.60955
 H444 H 1.03577 0.73785 0.64204
 H445 H 1.06154 0.72398 0.62560
 H446 H 1.03125 0.72982 0.57559
 H447 H 1.00632 0.74396 0.59308
 C448 C 1.02640 0.80090 0.66341
 C449 C 0.97261 0.70520 0.66602
 C450 C 1.04841 0.72556 0.59922
 C451 C 0.95177 0.77266 0.59825
 C452 C 0.51716 0.74075 0.34644
 H453 H 0.52170 0.75480 0.34582
 C454 C 0.52670 0.72712 0.33701
 H455 H 0.53858 0.73080 0.32913
 C456 C 0.49690 0.71873 0.35848
 H457 H 0.48562 0.71535 0.36723
 C458 C 0.50598 0.70473 0.34929
 H459 H 0.50123 0.69080 0.35076
 N460 N 0.50266 0.73632 0.35705
 C461 C 0.47100 0.78566 0.36781
 H462 H 0.47045 0.78468 0.38247
 C463 C 0.46180 0.79973 0.35899
 H464 H 0.45486 0.80969 0.36739
 C465 C 0.48179 0.77399 0.33977
 H466 H 0.48934 0.76369 0.33235
 C467 C 0.47283 0.78793 0.33033
 H468 H 0.47351 0.78769 0.31565
 Zn469 Zn 0.49200 0.75459 0.37200
 N470 N 0.48081 0.77322 0.35819
 C471 C 0.51450 0.78276 0.38616
 N472 N 0.51079 0.76455 0.38656
 C473 C 0.52103 0.75285 0.39662
 C474 C 0.53551 0.75939 0.40705
 C475 C 0.52884 0.78989 0.39639
 C476 C 0.45851 0.73792 0.37791
 C477 C 0.44446 0.72968 0.38763
 C478 C 0.46137 0.73491 0.41531
 C479 C 0.47514 0.74305 0.40503
 N480 N 0.47360 0.74411 0.38664
 H481 H 0.50655 0.79179 0.37772
 H482 H 0.51795 0.73839 0.39648
 H483 H 0.54337 0.74989 0.41513
 H484 H 0.53175 0.80438 0.39566
 H485 H 0.45751 0.73923 0.36330
 H486 H 0.43257 0.72484 0.38040
 H487 H 0.46301 0.73380 0.42989
 H488 H 0.48706 0.74838 0.41177
 C489 C 0.46247 0.80118 0.33986
 C490 C 0.52132 0.70877 0.33867
 C491 C 0.44585 0.72794 0.40658
 C492 C 0.53959 0.77816 0.40700
 C493 C 0.35632 -0.00156 0.22031
 C494 C 0.36318 0.00765 0.23559
 C495 C 0.37089 0.02506 0.23355
 C496 C 0.37202 0.03322 0.21633
 C497 C 0.36486 0.02392 0.20119
 C498 C 0.35694 0.00654 0.20305
 C499 C 0.36249 -0.00104 0.25368
 C500 C 0.36961 -0.01867 0.25620
 C501 C 0.36911 -0.02698 0.27337
 C502 C 0.36106 -0.01753 0.28798
 C503 C 0.35372 0.00007 0.28565
 C504 C 0.35468 0.00829 0.26844
 H505 H 0.35049 -0.01506 0.22192
 H506 H 0.37657 0.03195 0.24531
 H507 H 0.37563 -0.02586 0.24477
 H508 H 0.34889 0.02176 0.26637
 H509 H 0.36511 0.03039 0.18798
 H510 H 0.36099 -0.02366 0.30137
 C511 C 0.13587 1.01237 0.72270
 C512 C 0.12851 1.00326 0.73773
 C513 C 0.12048 0.98603 0.73539
 C514 C 0.11955 0.97792 0.71808
 C515 C 0.12723 0.98709 0.70317
 C516 C 0.13550 1.00428 0.70535
 C517 C 0.12920 1.01177 0.75595
 C518 C 0.12171 1.02920 0.75888
 C519 C 0.12195 1.03717 0.77628
 C520 C 0.13031 1.02769 0.79063
 C521 C 0.13805 1.01032 0.78784
 C522 C 0.13724 1.00237 0.77046
 H523 H 0.14198 1.02572 0.72457
 H524 H 0.11448 0.97923 0.74699
 H525 H 0.11513 1.03622 0.74772
 H526 H 0.14329 0.98905 0.76805
 H527 H 0.12718 0.98061 0.68991
 H528 H 0.13068 1.03381 0.80405
 C529 C 0.63704 0.51281 0.22592
 C530 C 0.62977 0.50363 0.24096
 C531 C 0.62208 0.48624 0.23862
 C532 C 0.62145 0.47801 0.22135
 C533 C 0.62898 0.48729 0.20644
 C534 C 0.63690 0.50465 0.20860
 C535 C 0.63028 0.51217 0.25918
 C536 C 0.62291 0.52967 0.26199
 C537 C 0.62291 0.53763 0.27939
 C538 C 0.63091 0.52806 0.29389
 C539 C 0.63852 0.51062 0.29124
 C540 C 0.63798 0.50270 0.27384
 H541 H 0.64290 0.52628 0.22777
 H542 H 0.61654 0.47915 0.25028
 H543 H 0.61658 0.53676 0.25073
 H544 H 0.64394 0.48932 0.27154
 H545 H 0.62868 0.48098 0.19310
 H546 H 0.63107 0.53416 0.30733
 C547 C 0.85367 0.49903 0.72401
 C548 C 0.86084 0.50839 0.73906
 C549 C 0.86852 0.52577 0.73669
 C550 C 0.86935 0.53374 0.71935
 C551 C 0.86188 0.52428 0.70446
 C552 C 0.85399 0.50693 0.70665
 C553 C 0.86058 0.49985 0.75723
 C554 C 0.86785 0.48228 0.75971
 C555 C 0.86777 0.47408 0.77695
 C556 C 0.85997 0.48358 0.79166
 C557 C 0.85247 0.50111 0.78936
 C558 C 0.85302 0.50923 0.77209
 H559 H 0.84788 0.48554 0.72587
 H560 H 0.87445 0.53277 0.74826
 H561 H 0.87366 0.47504 0.74820
 H562 H 0.84710 0.52265 0.77004
 H563 H 0.86192 0.53059 0.69117
 H564 H 0.86021 0.47753 0.80508
 C565 C 0.22307 0.35185 -0.00318
 C566 C 0.23853 0.35819 0.00604
 C567 C 0.23681 0.36495 0.02382
 C568 C 0.21975 0.36564 0.03240
 C569 C 0.20441 0.35902 0.02308
 C570 C 0.20594 0.35203 0.00531
 C571 C 0.25653 0.35787 -0.00293
 C572 C 0.25896 0.36634 -0.01984
 C573 C 0.27624 0.36693 -0.02800
 C574 C 0.29098 0.35841 -0.01927
 C575 C 0.28874 0.34976 -0.00240
 C576 C 0.27145 0.34966 0.00573
 H577 H 0.22452 0.34634 -0.01679
 H578 H 0.24879 0.36984 0.03090
 H579 H 0.24753 0.37312 -0.02625
 H580 H 0.26958 0.34333 0.01890
 H581 H 0.19113 0.35985 0.02944
 H582 H 0.30422 0.35832 -0.02575
 C583 C 0.72785 0.13355 1.01188
 C584 C 0.74270 0.12549 1.00293
 C585 C 0.74023 0.11751 0.98574
 C586 C 0.72297 0.11730 0.97755
 C587 C 0.70827 0.12566 0.98659
 C588 C 0.71059 0.13391 1.00371
 C589 C 0.76085 0.12549 1.01154
 C590 C 0.76316 0.11842 1.02908
 C591 C 0.78038 0.11837 1.03736
 C592 C 0.79524 0.12590 1.02797
 C593 C 0.79308 0.13324 1.01047
 C594 C 0.77583 0.13277 1.00228
 H595 H 0.72990 0.14004 1.02498
 H596 H 0.75166 0.11098 0.97901
 H597 H 0.75152 0.11288 1.03623
 H598 H 0.77388 0.13860 0.98890
 H599 H 0.69495 0.12573 0.98028
 H600 H 0.80864 0.12561 1.03409
 C601 C 0.22541 0.63337 0.50938
 C602 C 0.24028 0.62553 0.50028
 C603 C 0.23783 0.61773 0.48302
 C604 C 0.22056 0.61747 0.47488
 C605 C 0.20583 0.62563 0.48403
 C606 C 0.20813 0.63372 0.50123
 C607 C 0.25845 0.62547 0.50881
 C608 C 0.26104 0.61729 0.52583
 C609 C 0.27840 0.61675 0.53379
 C610 C 0.29307 0.62501 0.52473
 C611 C 0.29062 0.63346 0.50777
 C612 C 0.27325 0.63342 0.49981
 H613 H 0.22746 0.63969 0.52257
 H614 H 0.24930 0.61135 0.47623
 H615 H 0.24962 0.61080 0.53252
 H616 H 0.27109 0.64000 0.48682
 H617 H 0.19250 0.62564 0.47776
 H618 H 0.30647 0.62480 0.53085
 C619 C 0.72153 0.85528 0.49923
 C620 C 0.73705 0.86193 0.50813
 C621 C 0.73542 0.86927 0.52570
 C622 C 0.71839 0.87021 0.53435
 C623 C 0.70299 0.86333 0.52531
 C624 C 0.70444 0.85576 0.50777
 C625 C 0.75498 0.86126 0.49904
 C626 C 0.75714 0.86851 0.48154
 C627 C 0.77417 0.86809 0.47286
 C628 C 0.78901 0.85998 0.48182
 C629 C 0.78704 0.85251 0.49928
 C630 C 0.76997 0.85336 0.50785
 H631 H 0.72282 0.84971 0.48562
 H632 H 0.74743 0.87437 0.53258
 H633 H 0.74555 0.87460 0.47474
 H634 H 0.76818 0.84746 0.52122
 H635 H 0.68982 0.86392 0.53190
 H636 H 0.80229 0.86000 0.47542
 C637 C -0.00343 0.22291 0.35792
 C638 C 0.00547 0.23849 0.36456
 C639 C 0.02311 0.23686 0.37167
 C640 C 0.03183 0.21977 0.37235
 C641 C 0.02279 0.20430 0.36547
 C642 C 0.00518 0.20574 0.35816
 C643 C -0.00360 0.25654 0.36388
 C644 C -0.02110 0.25884 0.37117
 C645 C -0.02975 0.27598 0.37070
 C646 C -0.02076 0.29079 0.36253
 C647 C -0.00329 0.28865 0.35503
 C648 C 0.00525 0.27148 0.35591
 H649 H -0.01689 0.22429 0.35206
 H650 H 0.02999 0.24894 0.37673
 H651 H -0.02794 0.24727 0.37729
 H652 H 0.01880 0.26968 0.35036
 H653 H 0.02925 0.19100 0.36627
 H654 H -0.02735 0.30403 0.36206
 C655 C 1.01492 0.72466 0.13564
 C656 C 1.00579 0.73990 0.12856
 C657 C 0.98852 0.73770 0.12075
 C658 C 0.98042 0.72033 0.11975
 C659 C 0.98965 0.70523 0.12714
 C660 C 1.00687 0.70727 0.13519
 C661 C 1.01433 0.75815 0.12932
 C662 C 1.03173 0.76087 0.12198
 C663 C 1.03992 0.77821 0.12257
 C664 C 1.03061 0.79276 0.13102
 C665 C 1.01325 0.79017 0.13861
 C666 C 1.00513 0.77283 0.13750
 H667 H 1.02829 0.72642 0.14160
 H668 H 0.98166 0.74945 0.11497
 H669 H 1.03882 0.74947 0.11572
 H670 H 0.99165 0.77068 0.14308
 H671 H 0.98321 0.69192 0.12702
 H672 H 1.03687 0.80614 0.13164
 C673 C 0.50902 0.22724 0.63755
 C674 C 0.49982 0.24214 0.62985
 C675 C 0.48269 0.23948 0.62188
 C676 C 0.47479 0.22201 0.62134
 C677 C 0.48408 0.20726 0.62932
 C678 C 0.50118 0.20974 0.63750
 C679 C 0.50823 0.26049 0.62989
 C680 C 0.52584 0.26294 0.62296
 C681 C 0.53382 0.28038 0.62263
 C682 C 0.52407 0.29535 0.62973
 C683 C 0.50648 0.29308 0.63689
 C684 C 0.49861 0.27559 0.63674
 H685 H 0.52231 0.22932 0.64359
 H686 H 0.47582 0.25093 0.61555
 H687 H 0.53325 0.25124 0.61769
 H688 H 0.48496 0.27367 0.64197
 H689 H 0.47779 0.19388 0.62950
 H690 H 0.53016 0.30883 0.62963
 C691 C 0.50007 0.72183 0.85799
 C692 C 0.50909 0.73740 0.86455
 C693 C 0.52651 0.73560 0.87214
 C694 C 0.53487 0.71836 0.87343
 C695 C 0.52573 0.70293 0.86660
 C696 C 0.50835 0.70452 0.85882
 C697 C 0.50016 0.75552 0.86377
 C698 C 0.48252 0.75787 0.87074
 C699 C 0.47398 0.77505 0.87024
 C700 C 0.48321 0.78987 0.86239
 C701 C 0.50083 0.78772 0.85525
 C702 C 0.50926 0.77049 0.85613
 H703 H 0.48656 0.72323 0.85226
 H704 H 0.53325 0.74758 0.87763
 H705 H 0.47551 0.74630 0.87664
 H706 H 0.52292 0.76867 0.85085
 H707 H 0.53233 0.68968 0.86702
 H708 H 0.47668 0.80315 0.86188
 C709 C 0.42916 -0.16118 0.33012
 C710 C 0.43533 -0.15491 0.31333
 C711 C 0.45011 -0.16353 0.30492
 C712 C 0.45889 -0.17820 0.31342
 C713 C 0.45314 -0.18448 0.33068
 C714 C 0.43788 -0.17576 0.33869
 C715 C 0.42677 -0.13921 0.30522
 C716 C 0.41943 -0.12579 0.29918
 C717 C 0.41068 -0.10980 0.29293
 C718 C 0.40313 -0.09594 0.28826
 C719 C 0.39408 -0.07917 0.28345
 C720 C 0.40265 -0.06651 0.27209
 C721 C 0.39436 -0.04968 0.26847
 C722 C 0.37740 -0.04528 0.27625
 C723 C 0.36874 -0.05825 0.28736
 C724 C 0.37704 -0.07506 0.29093
 H725 H 0.41759 -0.15473 0.33668
 H726 H 0.45509 -0.15869 0.29194
 H727 H 0.47073 -0.18387 0.30672
 H728 H 0.43213 -0.18040 0.35139
 H729 H 0.41590 -0.06950 0.26632
 H730 H 0.40146 -0.03990 0.26004
 H731 H 0.35557 -0.05534 0.29335
 H732 H 0.37029 -0.08475 0.29976
 C733 C 0.95145 0.33943 0.80712
 C734 C 0.93425 0.34494 0.81330
 C735 C 0.92574 0.33525 0.82728
 C736 C 0.93450 0.32037 0.83532
 C737 C 0.95195 0.31498 0.82951
 C738 C 0.96024 0.32450 0.81513
 C739 C 0.92563 0.36103 0.80605
 C740 C 0.91826 0.37470 0.80064
 C741 C 0.90950 0.39093 0.79504
 C742 C 0.90195 0.40494 0.79083
 C743 C 0.89293 0.42185 0.78645
 C744 C 0.87610 0.42601 0.79440
 C745 C 0.86776 0.44286 0.79107
 C746 C 0.87616 0.45581 0.77974
 C747 C 0.89292 0.45138 0.77155
 C748 C 0.90126 0.43451 0.77492
 H749 H 0.95820 0.34689 0.79636
 H750 H 0.91243 0.33938 0.83217
 H751 H 0.92766 0.31314 0.84617
 H752 H 0.97373 0.32076 0.81049
 H753 H 0.86954 0.41631 0.80335
 H754 H 0.85476 0.44579 0.79737
 H755 H 0.89983 0.46114 0.76295
 H756 H 0.91433 0.43148 0.76878
 C757 C 0.04831 1.18021 0.80307
 C758 C 0.05093 1.16392 0.81268
 C759 C 0.04353 1.16202 0.83008
 C760 C 0.03352 1.17626 0.83786
 C761 C 0.03068 1.19267 0.82834
 C762 C 0.03826 1.19454 0.81086
 C763 C 0.06113 1.14896 0.80497
 C764 C 0.06944 1.13586 0.79939
 C765 C 0.07889 1.11996 0.79387
 C766 C 0.08668 1.10596 0.78998
 C767 C 0.09562 1.08881 0.78629
 C768 C 0.09389 1.07449 0.79872
 C769 C 0.10246 1.05775 0.79545
 C770 C 0.11296 1.05507 0.77967
 C771 C 0.11460 1.06952 0.76718
 C772 C 0.10599 1.08631 0.77050
 H773 H 0.05398 1.18182 0.78957
 H774 H 0.04554 1.14951 0.83768
 H775 H 0.02820 1.17450 0.85147
 H776 H 0.03623 1.20697 0.80316
 H777 H 0.08584 1.07625 0.81096
 H778 H 0.10067 1.04681 0.80516
 H779 H 0.12271 1.06791 0.75498
 H780 H 0.10745 1.09732 0.76080
 C781 C 0.54539 0.66331 0.33244
 C782 C 0.55252 0.66497 0.31491
 C783 C 0.54960 0.68106 0.30504
 C784 C 0.53948 0.69541 0.31272
 C785 C 0.53213 0.69376 0.33031
 C786 C 0.53530 0.67757 0.34010
 C787 C 0.56270 0.64995 0.30729
 C788 C 0.57097 0.63679 0.30179
 C789 C 0.58035 0.62081 0.29637
 C790 C 0.58806 0.60674 0.29257
 C791 C 0.59689 0.58951 0.28900
 C792 C 0.60751 0.58693 0.27339
 C793 C 0.61602 0.57006 0.27020
 C794 C 0.61401 0.55561 0.28264
 C795 C 0.60326 0.55837 0.29823
 C796 C 0.59478 0.57518 0.30137
 H797 H 0.54764 0.65096 0.34024
 H798 H 0.55505 0.68248 0.29144
 H799 H 0.53719 0.70767 0.30482
 H800 H 0.53016 0.67600 0.35380
 H801 H 0.60926 0.59794 0.26374
 H802 H 0.62433 0.56838 0.25815
 H803 H 0.60118 0.54743 0.30789
 H804 H 0.58653 0.57700 0.31346
 C805 C 0.55296 0.33301 0.19649
 C806 C 0.55140 0.35003 0.18795
 C807 C 0.54118 0.35164 0.17200
 C808 C 0.53289 0.33627 0.16437
 C809 C 0.53470 0.31901 0.17258
 C810 C 0.54460 0.31757 0.18888
 C811 C 0.56082 0.36579 0.19494
 C812 C 0.56877 0.37928 0.20004
 C813 C 0.57807 0.39534 0.20520
 C814 C 0.58599 0.40926 0.20901
 C815 C 0.59536 0.42609 0.21292
 C816 C 0.61194 0.42989 0.20437
 C817 C 0.62058 0.44666 0.20730
 C818 C 0.61271 0.45988 0.21883
 C819 C 0.59618 0.45583 0.22759
 C820 C 0.58756 0.43905 0.22462
 H821 H 0.56088 0.33160 0.20881
 H822 H 0.53985 0.36474 0.16530
 H823 H 0.52512 0.33786 0.15197
 H824 H 0.54635 0.30444 0.19541
 H825 H 0.61809 0.41996 0.19527
 H826 H 0.63341 0.44928 0.20056
 H827 H 0.58968 0.46581 0.23636
 H828 H 0.57467 0.43630 0.23122
 C829 C 0.04033 0.85007 0.67161
 C830 C 0.05061 0.84859 0.68752
 C831 C 0.05238 0.83160 0.69608
 C832 C 0.04414 0.81607 0.68853
 C833 C 0.03416 0.81739 0.67227
 C834 C 0.03215 0.83461 0.66404
 C835 C 0.05986 0.86450 0.69442
 C836 C 0.06758 0.87820 0.69928
 C837 C 0.07652 0.89461 0.70399
 C838 C 0.08405 0.90889 0.70724
 C839 C 0.09285 0.92620 0.71027
 C840 C 0.10399 0.92895 0.72546
 C841 C 0.11268 0.94577 0.72807
 C842 C 0.11036 0.96003 0.71546
 C843 C 0.09909 0.95712 0.70029
 C844 C 0.09041 0.94033 0.69772
 H845 H 0.03883 0.86315 0.66489
 H846 H 0.06037 0.83029 0.70838
 H847 H 0.04601 0.80296 0.69508
 H848 H 0.02431 0.83611 0.65168
 H849 H 0.10603 0.91808 0.73522
 H850 H 0.12142 0.94754 0.73979
 H851 H 0.09681 0.96790 0.69050
 H852 H 0.08180 0.93837 0.68593
 C853 C 0.94351 0.67705 0.69829
 C854 C 0.94145 0.66085 0.68828
 C855 C 0.94956 0.65921 0.67116
 C856 C 0.95968 0.67361 0.66402
 C857 C 0.96193 0.68994 0.67394
 C858 C 0.95367 0.69155 0.69114
 C859 C 0.93107 0.64576 0.69528
 C860 C 0.92261 0.63257 0.70024
 C861 C 0.91301 0.61659 0.70503
 C862 C 0.90510 0.60256 0.70832
 C863 C 0.89603 0.58539 0.71133
 C864 C 0.89844 0.57113 0.69883
 C865 C 0.88974 0.55439 0.70145
 C866 C 0.87845 0.55165 0.71664
 C867 C 0.87613 0.56605 0.72919
 C868 C 0.88486 0.58284 0.72653
 H869 H 0.93730 0.67847 0.71158
 H870 H 0.94798 0.64678 0.66325
 H871 H 0.96552 0.67206 0.65059
 H872 H 0.95524 0.70392 0.69913
 H873 H 0.90711 0.57293 0.68705
 H874 H 0.89206 0.54349 0.69171
 H875 H 0.86739 0.56440 0.74093
 H876 H 0.88287 0.59380 0.73627
 C877 C 0.45263 0.15947 0.17122
 C878 C 0.44379 0.16113 0.18797
 C879 C 0.44508 0.17749 0.19786
 C880 C 0.45519 0.19214 0.19095
 C881 C 0.46417 0.19053 0.17411
 C882 C 0.46271 0.17403 0.16432
 C883 C 0.43340 0.14591 0.19467
 C884 C 0.42495 0.13262 0.19936
 C885 C 0.41539 0.11652 0.20382
 C886 C 0.40754 0.10239 0.20681
 C887 C 0.39854 0.08512 0.20944
 C888 C 0.38709 0.08232 0.22439
 C889 C 0.37842 0.06545 0.22668
 C890 C 0.38107 0.05121 0.21401
 C891 C 0.39263 0.05420 0.19907
 C892 C 0.40128 0.07103 0.19682
 H893 H 0.45165 0.14692 0.16340
 H894 H 0.43828 0.17891 0.21086
 H895 H 0.45614 0.20463 0.19884
 H896 H 0.46910 0.17246 0.15114
 H897 H 0.38485 0.09315 0.23422
 H898 H 0.36946 0.06360 0.23823
 H899 H 0.39519 0.04344 0.18924
 H900 H 0.41016 0.07303 0.18523
 C901 C 0.32367 0.45577 -0.14843
 C902 C 0.30966 0.44321 -0.15150
 C903 C 0.30348 0.44003 -0.16923
 C904 C 0.31155 0.44913 -0.18387
 C905 C 0.32597 0.46143 -0.18093
 C906 C 0.33176 0.46483 -0.16301
 C907 C 0.30242 0.43302 -0.13645
 C908 C 0.29717 0.42448 -0.12349
 C909 C 0.29196 0.41455 -0.10792
 C910 C 0.28832 0.40618 -0.09432
 C911 C 0.28495 0.39639 -0.07772
 C912 C 0.26938 0.38557 -0.07570
 C913 C 0.26646 0.37596 -0.05952
 C914 C 0.27914 0.37704 -0.04523
 C915 C 0.29468 0.38802 -0.04741
 C916 C 0.29755 0.39759 -0.06353
 H917 H 0.32856 0.45835 -0.13477
 H918 H 0.29270 0.43027 -0.17177
 H919 H 0.30692 0.44611 -0.19753
 H920 H 0.34265 0.47441 -0.16029
 H921 H 0.25956 0.38450 -0.08663
 H922 H 0.25444 0.36751 -0.05829
 H923 H 0.30453 0.38938 -0.03655
 H924 H 0.30962 0.40596 -0.06492
 C925 C 0.80465 0.93675 0.32987
 C926 C 0.81187 0.93848 0.34741
 C927 C 0.82734 0.94921 0.35028
 C928 C 0.83579 0.95791 0.33569
 C929 C 0.82891 0.95597 0.31795
 C930 C 0.81309 0.94550 0.31521
 C931 C 0.80400 0.92876 0.36247
 C932 C 0.79819 0.92064 0.37546
 C933 C 0.79221 0.91119 0.39105
 C934 C 0.78777 0.90321 0.40465
 C935 C 0.78322 0.89381 0.42120
 C936 C 0.77200 0.90221 0.43415
 C937 C 0.76871 0.89366 0.45081
 C938 C 0.77668 0.87661 0.45474
 C939 C 0.78763 0.86811 0.44147
 C940 C 0.79088 0.87667 0.42483
 H941 H 0.79271 0.92842 0.32749
 H942 H 0.83302 0.95068 0.36380
 H943 H 0.84777 0.96612 0.33828
 H944 H 0.80757 0.94365 0.30169
 H945 H 0.76610 0.91553 0.43154
 H946 H 0.76040 0.90066 0.46082
 H947 H 0.79377 0.85489 0.44402
 H948 H 0.79963 0.87006 0.41491
 C949 C 0.83107 0.03666 1.16083
 C950 C 0.81584 0.04776 1.16351
 C951 C 0.80796 0.04898 1.18076
 C952 C 0.81538 0.03922 1.19534
 C953 C 0.83093 0.02796 1.19295
 C954 C 0.83853 0.02689 1.17529
 C955 C 0.80869 0.05806 1.14848
 C956 C 0.80337 0.06649 1.13546
 C957 C 0.79786 0.07609 1.11978
 C958 C 0.79372 0.08406 1.10607
 C959 C 0.78938 0.09329 1.08937
 C960 C 0.77767 0.08510 1.07676
 C961 C 0.77446 0.09343 1.05998
 C962 C 0.78299 0.11005 1.05557
 C963 C 0.79448 0.11834 1.06847
 C964 C 0.79766 0.10999 1.08525
 H965 H 0.83741 0.03576 1.14755
 H966 H 0.79605 0.05746 1.18296
 H967 H 0.80846 0.04020 1.20827
 H968 H 0.85084 0.01926 1.17252
 H969 H 0.77130 0.07210 1.07975
 H970 H 0.76574 0.08659 1.05025
 H971 H 0.80105 0.13125 1.06557
 H972 H 0.80678 0.11643 1.09489
 C973 C 0.31518 0.52820 0.66096
 C974 C 0.30839 0.54608 0.66179
 C975 C 0.30858 0.55563 0.67831
 C976 C 0.31599 0.54752 0.69382
 C977 C 0.32334 0.52975 0.69301
 C978 C 0.32258 0.52006 0.67646
 C979 C 0.30237 0.55504 0.64547
 C980 C 0.29797 0.56269 0.63167
 C981 C 0.29351 0.57175 0.61536
 C982 C 0.29027 0.57952 0.60130
 C983 C 0.28704 0.58875 0.58436
 C984 C 0.27157 0.59970 0.58205
 C985 C 0.26871 0.60883 0.56560
 C986 C 0.28134 0.60714 0.55130
 C987 C 0.29680 0.59605 0.55377
 C988 C 0.29962 0.58694 0.57018
 H989 H 0.31520 0.52072 0.64822
 H990 H 0.30338 0.56948 0.67910
 H991 H 0.31617 0.55524 0.70641
 H992 H 0.32834 0.50646 0.67532
 H993 H 0.26178 0.60125 0.59296
 H994 H 0.25677 0.61740 0.56416
 H995 H 0.30661 0.59424 0.54292
 H996 H 0.31162 0.57848 0.57181
 C997 C 0.17317 0.53831 0.34768
 C998 C 0.18945 0.54809 0.34632
 C999 C 0.19844 0.54919 0.32956
 C1000 C 0.19097 0.54077 0.31415
 C1001 C 0.17437 0.53129 0.31535
 C1002 C 0.16569 0.52996 0.33233
 C1003 C 0.19635 0.55744 0.36211
 C1004 C 0.20124 0.56525 0.37570
 C1005 C 0.20600 0.57429 0.39199
 C1006 C 0.20930 0.58189 0.40617
 C1007 C 0.21239 0.59078 0.42337
 C1008 C 0.22784 0.60160 0.42616
 C1009 C 0.23055 0.61031 0.44291
 C1010 C 0.21779 0.60833 0.45704
 C1011 C 0.20235 0.59738 0.45409
 C1012 C 0.19969 0.58868 0.43738
 H1013 H 0.16612 0.53733 0.36058
 H1014 H 0.21103 0.55676 0.32836
 H1015 H 0.19789 0.54212 0.30122
 H1016 H 0.15306 0.52250 0.33374
 H1017 H 0.23774 0.60335 0.41539
 H1018 H 0.24248 0.61879 0.44473
 H1019 H 0.19245 0.59534 0.46479
 H1020 H 0.18770 0.58030 0.43538
 C1021 C 0.66977 0.04649 0.84845
 C1022 C 0.68804 0.05162 0.84820
 C1023 C 0.69843 0.04864 0.83255
 C1024 C 0.69052 0.04069 0.81712
 C1025 C 0.67191 0.03565 0.81699
 C1026 C 0.66179 0.03861 0.83312
 C1027 C 0.69579 0.06010 0.86409
 C1028 C 0.70135 0.06724 0.87779
 C1029 C 0.70681 0.07559 0.89423
 C1030 C 0.71063 0.08267 0.90855
 C1031 C 0.71419 0.09103 0.92592
 C1032 C 0.72981 0.10161 0.92870
 C1033 C 0.73280 0.11007 0.94554
 C1034 C 0.72013 0.10810 0.95976
 C1035 C 0.70457 0.09730 0.95684
 C1036 C 0.70164 0.08886 0.94005
 H1037 H 0.66163 0.04853 0.86058
 H1038 H 0.71261 0.05266 0.83219
 H1039 H 0.69894 0.03932 0.80514
 H1040 H 0.64779 0.03429 0.83438
 H1041 H 0.73959 0.10344 0.91783
 H1042 H 0.74482 0.11843 0.94734
 H1043 H 0.69473 0.09528 0.96760
 H1044 H 0.68952 0.08068 0.93807
 C1045 C 0.68412 0.93218 0.67813
 C1046 C 0.69195 0.94122 0.66334
 C1047 C 0.69328 0.96031 0.66351
 C1048 C 0.68634 0.97036 0.67816
 C1049 C 0.67794 0.96144 0.69285
 C1050 C 0.67719 0.94220 0.69282
 C1051 C 0.69748 0.93105 0.64747
 C1052 C 0.70154 0.92269 0.63390
 C1053 C 0.70569 0.91311 0.61772
 C1054 C 0.70879 0.90512 0.60369
 C1055 C 0.71199 0.89582 0.58670
 C1056 C 0.72363 0.90347 0.57374
 C1057 C 0.72594 0.89499 0.55683
 C1058 C 0.71659 0.87873 0.55263
 C1059 C 0.70513 0.87100 0.56586
 C1060 C 0.70284 0.87950 0.58276
 H1061 H 0.68292 0.91741 0.67809
 H1062 H 0.69929 0.96746 0.65212
 H1063 H 0.68731 0.98513 0.67789
 H1064 H 0.67060 0.93494 0.70379
 H1065 H 0.73069 0.91616 0.57659
 H1066 H 0.73467 0.90140 0.54686
 H1067 H 0.69793 0.85838 0.56312
 H1068 H 0.69378 0.87346 0.59268
 C1069 C 0.19556 0.45401 0.16243
 C1070 C 0.19369 0.43497 0.16227
 C1071 C 0.18546 0.42617 0.17700
 C1072 C 0.17865 0.43641 0.19159
 C1073 C 0.17992 0.45562 0.19158
 C1074 C 0.18874 0.46428 0.17699
 C1075 C 0.19905 0.42466 0.14644
 C1076 C 0.20297 0.41628 0.13285
 C1077 C 0.20700 0.40679 0.11659
 C1078 C 0.21002 0.39898 0.10245
 C1079 C 0.21320 0.39004 0.08527
 C1080 C 0.20393 0.37391 0.08090
 C1081 C 0.20623 0.36580 0.06380
 C1082 C 0.21785 0.37375 0.05084
 C1083 C 0.22729 0.38983 0.05548
 C1084 C 0.22496 0.39791 0.07257
 H1085 H 0.20189 0.46097 0.15110
 H1086 H 0.18384 0.41145 0.17696
 H1087 H 0.17172 0.42937 0.20250
 H1088 H 0.19010 0.47902 0.17670
 H1089 H 0.19476 0.36771 0.09063
 H1090 H 0.19894 0.35332 0.06071
 H1091 H 0.23612 0.39643 0.04572
 H1092 H 0.23211 0.41047 0.07576
 C1093 C -0.16785 0.32674 0.42898
 C1094 C -0.15827 0.31250 0.43730
 C1095 C -0.16373 0.30621 0.45440
 C1096 C -0.17852 0.31437 0.46330
 C1097 C -0.18794 0.32900 0.45522
 C1098 C -0.18258 0.33493 0.43785
 C1099 C -0.14231 0.30511 0.42859
 C1100 C -0.12873 0.29959 0.42117
 C1101 C -0.11261 0.29388 0.41237
 C1102 C -0.09867 0.28960 0.40481
 C1103 C -0.08184 0.28517 0.39578
 C1104 C -0.06887 0.27415 0.40436
 C1105 C -0.05206 0.27084 0.39605
 C1106 C -0.04798 0.27859 0.37905
 C1107 C -0.06125 0.28937 0.37038
 C1108 C -0.07805 0.29264 0.37870
 H1109 H -0.16375 0.33172 0.41574
 H1110 H -0.15635 0.29525 0.46101
 H1111 H -0.18223 0.30962 0.47673
 H1112 H -0.18974 0.34597 0.43116
 H1113 H -0.07162 0.26839 0.41763
 H1114 H -0.04205 0.26266 0.40315
 H1115 H -0.05860 0.29531 0.35718
 H1116 H -0.08798 0.30120 0.37193
 C1117 C 0.33488 0.82591 0.92562
 C1118 C 0.34434 0.81186 0.93436
 C1119 C 0.33871 0.80599 0.95157
 C1120 C 0.32390 0.81444 0.96016
 C1121 C 0.31463 0.82893 0.95166
 C1122 C 0.32013 0.83438 0.93418
 C1123 C 0.36040 0.80428 0.92601
 C1124 C 0.37410 0.79868 0.91886
 C1125 C 0.39037 0.79291 0.91038
 C1126 C 0.40444 0.78862 0.90309
 C1127 C 0.42144 0.78422 0.89436
 C1128 C 0.43420 0.77309 0.90312
 C1129 C 0.45117 0.76980 0.89511
 C1130 C 0.45560 0.77768 0.87826
 C1131 C 0.44255 0.78857 0.86942
 C1132 C 0.42560 0.79182 0.87743
 H1133 H 0.33911 0.83056 0.91230
 H1134 H 0.34600 0.79518 0.95850
 H1135 H 0.32007 0.81006 0.97368
 H1136 H 0.31309 0.84531 0.92718
 H1137 H 0.43117 0.76723 0.91628
 H1138 H 0.46101 0.76153 0.90235
 H1139 H 0.44547 0.79462 0.85633
 H1140 H 0.41582 0.80047 0.87054
 C1141 C 1.18072 0.80664 0.04812
 C1142 C 1.16470 0.81665 0.05099
 C1143 C 1.16296 0.83419 0.04368
 C1144 C 1.17709 0.84171 0.03349
 C1145 C 1.19323 0.83178 0.03042
 C1146 C 1.19494 0.81417 0.03791
 C1147 C 1.14990 0.80913 0.06135
 C1148 C 1.13706 0.80350 0.06985
 C1149 C 1.12158 0.79762 0.07955
 C1150 C 1.10802 0.79315 0.08761
 C1151 C 1.09148 0.78840 0.09694
 C1152 C 1.08771 0.79590 0.11407
 C1153 C 1.07108 0.79234 0.12258
 C1154 C 1.05798 0.78124 0.11404
 C1155 C 1.06204 0.77350 0.09696
 C1156 C 1.07867 0.77709 0.08848
 H1157 H 1.18220 0.79303 0.05371
 H1158 H 1.15066 0.84209 0.04588
 H1159 H 1.17548 0.85543 0.02823
 H1160 H 1.20714 0.80615 0.03567
 H1161 H 1.09751 0.80471 0.12073
 H1162 H 1.06844 0.79829 0.13582
 H1163 H 1.05215 0.76510 0.08994
 H1164 H 1.08140 0.77133 0.07516
 C1165 C 0.66242 0.31126 0.53506
 C1166 C 0.66253 0.31193 0.55407
 C1167 C 0.67747 0.31943 0.56319
 C1168 C 0.69205 0.32667 0.55335
 C1169 C 0.69181 0.32656 0.53422
 C1170 C 0.67695 0.31851 0.52519
 C1171 C 0.64681 0.30597 0.56410
 C1172 C 0.63334 0.30149 0.57229
 C1173 C 0.61723 0.29677 0.58161
 C1174 C 0.60323 0.29313 0.58932
 C1175 C 0.58623 0.28919 0.59821
 C1176 C 0.58176 0.29791 0.61458
 C1177 C 0.56482 0.29486 0.62269
 C1178 C 0.55213 0.28304 0.61450
 C1179 C 0.55687 0.27413 0.59818
 C1180 C 0.57380 0.27721 0.59009
 H1181 H 0.65091 0.30550 0.52785
 H1182 H 0.67765 0.32012 0.57791
 H1183 H 0.70317 0.33298 0.56069
 H1184 H 0.67647 0.31803 0.51048
 H1185 H 0.59127 0.30723 0.62097
 H1186 H 0.56166 0.30173 0.63537
 H1187 H 0.54731 0.26515 0.59142
 H1188 H 0.57708 0.27048 0.57736
 C1189 C 0.34897 0.17393 0.54048
 C1190 C 0.34720 0.18975 0.55107
 C1191 C 0.33018 0.19825 0.55279
 C1192 C 0.31492 0.19073 0.54418
 C1193 C 0.31654 0.17456 0.53385
 C1194 C 0.33378 0.16639 0.53193
 C1195 C 0.36285 0.19668 0.56060
 C1196 C 0.37633 0.20164 0.56853
 C1197 C 0.39248 0.20651 0.57770
 C1198 C 0.40654 0.20995 0.58540
 C1199 C 0.42362 0.21323 0.59439
 C1200 C 0.42611 0.22880 0.60523
 C1201 C 0.44274 0.23171 0.61403
 C1202 C 0.45707 0.21904 0.61211
 C1203 C 0.45441 0.20347 0.60114
 C1204 C 0.43781 0.20060 0.59236
 H1205 H 0.36207 0.16726 0.53902
 H1206 H 0.32866 0.21048 0.56100
 H1207 H 0.30180 0.19723 0.54600
 H1208 H 0.33551 0.15411 0.52383
 H1209 H 0.41519 0.23863 0.60693
 H1210 H 0.44432 0.24373 0.62252
 H1211 H 0.46526 0.19362 0.59915
 H1212 H 0.43606 0.18853 0.58397
 C1213 C 0.85143 0.67379 0.04346
 C1214 C 0.85031 0.69003 0.05350
 C1215 C 0.83357 0.69906 0.05523
 C1216 C 0.81794 0.69170 0.04715
 C1217 C 0.81891 0.67516 0.03736
 C1218 C 0.83587 0.66641 0.03544
 C1219 C 0.86636 0.69687 0.06241
 C1220 C 0.88016 0.70173 0.06981
 C1221 C 0.89669 0.70646 0.07837
 C1222 C 0.91106 0.70973 0.08555
 C1223 C 0.92848 0.71276 0.09395
 C1224 C 0.93139 0.72799 0.10516
 C1225 C 0.94830 0.73055 0.11353
 C1226 C 0.96248 0.71785 0.11081
 C1227 C 0.95942 0.70267 0.09944
 C1228 C 0.94255 0.70016 0.09109
 H1229 H 0.86431 0.66670 0.04199
 H1230 H 0.83255 0.71163 0.06302
 H1231 H 0.80505 0.69867 0.04896
 H1232 H 0.83711 0.65382 0.02772
 H1233 H 0.92057 0.73780 0.10753
 H1234 H 0.95020 0.74227 0.12236
 H1235 H 0.97014 0.69281 0.09685
 H1236 H 0.94046 0.68834 0.08241
 C1237 C 0.67944 0.68835 0.93502
 C1238 C 0.66455 0.69620 0.94402
 C1239 C 0.66470 0.69776 0.96299
 C1240 C 0.67940 0.69096 0.97296
 C1241 C 0.69415 0.68246 0.96408
 C1242 C 0.69417 0.68156 0.94497
 C1243 C 0.64853 0.70129 0.93398
 C1244 C 0.63479 0.70483 0.92575
 C1245 C 0.61839 0.70822 0.91638
 C1246 C 0.60414 0.71052 0.90860
 C1247 C 0.58686 0.71261 0.89963
 C1248 C 0.57311 0.69976 0.90266
 C1249 C 0.55626 0.70161 0.89409
 C1250 C 0.55291 0.71637 0.88233
 C1251 C 0.56681 0.72923 0.87935
 C1252 C 0.58369 0.72734 0.88795
 H1253 H 0.67940 0.68695 0.92035
 H1254 H 0.65323 0.70378 0.97010
 H1255 H 0.67909 0.69204 0.98764
 H1256 H 0.70518 0.67488 0.93774
 H1257 H 0.57539 0.68833 0.91172
 H1258 H 0.54575 0.69165 0.89688
 H1259 H 0.56470 0.74063 0.87024
 H1260 H 0.59426 0.73734 0.88548
 C1261 C 0.17687 0.18673 0.43158
 C1262 C 0.16194 0.19419 0.44083
 C1263 C 0.16214 0.19524 0.45982
 C1264 C 0.17696 0.18836 0.46957
 C1265 C 0.19178 0.18029 0.46043
 C1266 C 0.19172 0.17986 0.44130
 C1267 C 0.14591 0.19958 0.43096
 C1268 C 0.13219 0.20351 0.42287
 C1269 C 0.11585 0.20750 0.41363
 C1270 C 0.10167 0.21047 0.40593
 C1271 C 0.08451 0.21353 0.39700
 C1272 C 0.07157 0.22519 0.40486
 C1273 C 0.05453 0.22743 0.39671
 C1274 C 0.05020 0.21797 0.38059
 C1275 C 0.06339 0.20646 0.37267
 C1276 C 0.08043 0.20426 0.38084
 H1277 H 0.17681 0.18575 0.41688
 H1278 H 0.15065 0.20097 0.46713
 H1279 H 0.17670 0.18908 0.48427
 H1280 H 0.20280 0.17352 0.43387
 H1281 H 0.07454 0.23234 0.41743
 H1282 H 0.04459 0.23619 0.40327
 H1283 H 0.06054 0.19918 0.36015
 H1284 H 0.09034 0.19518 0.37466
 C1285 C 0.56583 0.07555 0.69810
 C1286 C 0.57078 0.09359 0.70212
 C1287 C 0.58503 0.09701 0.71426
 C1288 C 0.59440 0.08246 0.72224
 C1289 C 0.58965 0.06427 0.71818
 C1290 C 0.57519 0.06097 0.70608
 C1291 C 0.56141 0.10862 0.69365
 C1292 C 0.55373 0.12129 0.68653
 C1293 C 0.54485 0.13619 0.67818
 C1294 C 0.53734 0.14896 0.67106
 C1295 C 0.52840 0.16424 0.66256
 C1296 C 0.52851 0.18143 0.67098
 C1297 C 0.51975 0.19626 0.66280
 C1298 C 0.51074 0.19407 0.64606
 C1299 C 0.51077 0.17674 0.63767
 C1300 C 0.51955 0.16193 0.64588
 H1301 H 0.55485 0.07275 0.68868
 H1302 H 0.58893 0.11092 0.71752
 H1303 H 0.60529 0.08546 0.73170
 H1304 H 0.57134 0.04713 0.70252
 H1305 H 0.53529 0.18336 0.68392
 H1306 H 0.51977 0.20936 0.66970
 H1307 H 0.50416 0.17468 0.62468
 H1308 H 0.51943 0.14870 0.63921
 C1309 C 1.08931 0.59298 0.21061
 C1310 C 1.07507 0.58964 0.19845
 C1311 C 1.06987 0.57164 0.19458
 C1312 C 1.07895 0.55701 0.20277
 C1313 C 1.09339 0.56022 0.21493
 C1314 C 1.09842 0.57838 0.21880
 C1315 C 1.06591 0.60472 0.18986
 C1316 C 1.05837 0.61746 0.18272
 C1317 C 1.04968 0.63249 0.17443
 C1318 C 1.04232 0.64541 0.16744
 C1319 C 1.03358 0.66094 0.15922
 C1320 C 1.02465 0.65907 0.14253
 C1321 C 1.01604 0.67415 0.13464
 C1322 C 1.01626 0.69130 0.14336
 C1323 C 1.02534 0.69305 0.16011
 C1324 C 1.03393 0.67796 0.16798
 H1325 H 1.09340 0.60686 0.21374
 H1326 H 1.05888 0.56891 0.18515
 H1327 H 1.07491 0.54319 0.19936
 H1328 H 1.10930 0.58131 0.22829
 H1329 H 1.02434 0.64597 0.13561
 H1330 H 1.00934 0.67243 0.12164
 H1331 H 1.02554 0.70601 0.16728
 H1332 H 1.04077 0.67954 0.18093
 C1333 C 0.92606 0.89789 0.21899
 C1334 C 0.94042 0.90230 0.20731
 C1335 C 0.94466 0.92065 0.20406
 C1336 C 0.93446 0.93455 0.21231
 C1337 C 0.91984 0.93026 0.22390
 C1338 C 0.91583 0.91176 0.22723
 C1339 C 0.95054 0.88798 0.19840
 C1340 C 0.95881 0.87588 0.19087
 C1341 C 0.96829 0.86161 0.18202
 C1342 C 0.97624 0.84933 0.17446
 C1343 C 0.98560 0.83454 0.16547
 C1344 C 0.99490 0.83763 0.14916
 C1345 C 1.00389 0.82321 0.14039
 C1346 C 1.00366 0.80551 0.14782
 C1347 C 0.99427 0.80256 0.16422
 C1348 C 0.98530 0.81699 0.17297
 H1349 H 0.92269 0.88372 0.22163
 H1350 H 0.95571 0.92422 0.19500
 H1351 H 0.93773 0.94865 0.20930
 H1352 H 0.90483 0.90801 0.23627
 H1353 H 0.99516 0.85115 0.14320
 H1354 H 1.01082 0.82586 0.12768
 H1355 H 0.99405 0.78915 0.17040
 H1356 H 0.97817 0.81446 0.18561
 C1357 C 0.43906 0.42536 0.70049
 C1358 C 0.43116 0.40818 0.69761
 C1359 C 0.41335 0.40491 0.70347
 C1360 C 0.40351 0.41868 0.71232
 C1361 C 0.41137 0.43595 0.71544
 C1362 C 0.42922 0.43917 0.70933
 C1363 C 0.44138 0.39376 0.68895
 C1364 C 0.44980 0.38148 0.68190
 C1365 C 0.45952 0.36686 0.67387
 C1366 C 0.46771 0.35421 0.66721
 C1367 C 0.47740 0.33891 0.65950
 C1368 C 0.47698 0.32193 0.66820
 C1369 C 0.48639 0.30703 0.66082
 C1370 C 0.49638 0.30891 0.64461
 C1371 C 0.49671 0.32604 0.63595
 C1372 C 0.48726 0.34093 0.64335
 H1373 H 0.45286 0.42801 0.69606
 H1374 H 0.40709 0.39168 0.70127
 H1375 H 0.38971 0.41586 0.71660
 H1376 H 0.43571 0.45225 0.71170
 H1377 H 0.46942 0.32022 0.68073
 H1378 H 0.48608 0.29409 0.66793
 H1379 H 0.50409 0.32786 0.62334
 H1380 H 0.48764 0.35400 0.63648
 C1381 C 0.44009 0.57775 0.78740
 C1382 C 0.43581 0.58474 0.80462
 C1383 C 0.42149 0.57712 0.81457
 C1384 C 0.41136 0.56270 0.80727
 C1385 C 0.41541 0.55571 0.78988
 C1386 C 0.42998 0.56332 0.78007
 C1387 C 0.44582 0.59999 0.81190
 C1388 C 0.45404 0.61291 0.81794
 C1389 C 0.46348 0.62817 0.82494
 C1390 C 0.47143 0.64132 0.83085
 C1391 C 0.48078 0.65712 0.83784
 C1392 C 0.49038 0.65607 0.85423
 C1393 C 0.49936 0.67147 0.86106
 C1394 C 0.49884 0.68814 0.85158
 C1395 C 0.48916 0.68905 0.83511
 C1396 C 0.48020 0.67363 0.82830
 H1397 H 0.45111 0.58360 0.77955
 H1398 H 0.41808 0.58240 0.82792
 H1399 H 0.40039 0.55698 0.81525
 H1400 H 0.43330 0.55840 0.76657
 H1401 H 0.49086 0.64337 0.86176
 H1402 H 0.50651 0.67040 0.87389
 H1403 H 0.48871 0.70161 0.82738
 H1404 H 0.47284 0.67459 0.81558
 C1405 C -0.05794 0.07553 0.28728
 C1406 C -0.06617 0.08711 0.30006
 C1407 C -0.08404 0.08376 0.30570
 C1408 C -0.09362 0.06884 0.29869
 C1409 C -0.08544 0.05703 0.28591
 C1410 C -0.06751 0.06058 0.28023
 C1411 C -0.05633 0.10240 0.30748
 C1412 C -0.04825 0.11524 0.31385
 C1413 C -0.03896 0.13033 0.32142
 C1414 C -0.03116 0.14326 0.32794
 C1415 C -0.02197 0.15878 0.33573
 C1416 C -0.03166 0.17137 0.34637
 C1417 C -0.02282 0.18658 0.35377
 C1418 C -0.00415 0.18939 0.35062
 C1419 C 0.00549 0.17660 0.33999
 C1420 C -0.00337 0.16140 0.33260
 H1421 H -0.04410 0.07798 0.28284
 H1422 H -0.09056 0.09269 0.31553
 H1423 H -0.10749 0.06664 0.30313
 H1424 H -0.06078 0.05164 0.27057
 H1425 H -0.04605 0.16944 0.34893
 H1426 H -0.03056 0.19606 0.36208
 H1427 H 0.01982 0.17852 0.33713
 H1428 H 0.00424 0.15176 0.32434
 C1429 C 0.07620 0.40313 0.27543
 C1430 C 0.06699 0.40492 0.29200
 C1431 C 0.06764 0.42150 0.30153
 C1432 C 0.07765 0.43616 0.29466
 C1433 C 0.08718 0.43442 0.27814
 C1434 C 0.08621 0.41779 0.26851
 C1435 C 0.05732 0.38963 0.29954
 C1436 C 0.04939 0.37685 0.30612
 C1437 C 0.04027 0.36192 0.31408
 C1438 C 0.03259 0.34919 0.32104
 C1439 C 0.02352 0.33402 0.32951
 C1440 C 0.01398 0.33662 0.34579
 C1441 C 0.00527 0.32188 0.35412
 C1442 C 0.00601 0.30432 0.34626
 C1443 C 0.01566 0.30185 0.32990
 C1444 C 0.02434 0.31661 0.32159
 H1445 H 0.07584 0.39032 0.26798
 H1446 H 0.06054 0.42305 0.31436
 H1447 H 0.07793 0.44886 0.30226
 H1448 H 0.09357 0.41596 0.25588
 H1449 H 0.01332 0.35003 0.35208
 H1450 H -0.00185 0.32416 0.36682
 H1451 H 0.01628 0.28854 0.32341
 H1452 H 0.03168 0.31446 0.30898
 C1453 C 0.56891 0.92264 0.80345
 C1454 C 0.56884 0.90620 0.79366
 C1455 C 0.57785 0.90510 0.77692
 C1456 C 0.58709 0.92032 0.77011
 C1457 C 0.58748 0.93682 0.78000
 C1458 C 0.57815 0.93785 0.79669
 C1459 C 0.55988 0.89039 0.80104
 C1460 C 0.55248 0.87722 0.80749
 C1461 C 0.54390 0.86189 0.81532
 C1462 C 0.53658 0.84889 0.82218
 C1463 C 0.52780 0.83348 0.83055
 C1464 C 0.52893 0.81612 0.82253
 C1465 C 0.52028 0.80120 0.83062
 C1466 C 0.51036 0.80347 0.84684
 C1467 C 0.50940 0.82095 0.85485
 C1468 C 0.51807 0.83584 0.84674
 H1469 H 0.56194 0.92365 0.81640
 H1470 H 0.57793 0.89242 0.76925
 H1471 H 0.59432 0.91903 0.75734
 H1472 H 0.57799 0.95042 0.80450
 H1473 H 0.53642 0.81414 0.80998
 H1474 H 0.52109 0.78796 0.82403
 H1475 H 0.50208 0.82308 0.86746
 H1476 H 0.51717 0.84920 0.85310
 C1477 C 0.70859 0.59177 0.09618
 C1478 C 0.70133 0.57444 0.09313
 C1479 C 0.70251 0.56659 0.07586
 C1480 C 0.71085 0.57605 0.06163
 C1481 C 0.71824 0.59382 0.06424
 C1482 C 0.71692 0.60134 0.08205
 C1483 C 0.69262 0.56481 0.10777
 C1484 C 0.68536 0.55697 0.12019
 C1485 C 0.67693 0.54800 0.13491
 C1486 C 0.66982 0.54047 0.14761
 C1487 C 0.66145 0.53158 0.16290
 C1488 C 0.64479 0.52256 0.16085
 C1489 C 0.63673 0.51388 0.17572
 C1490 C 0.64524 0.51412 0.19285
 C1491 C 0.66195 0.52329 0.19477
 C1492 C 0.66999 0.53195 0.17989
 H1493 H 0.70796 0.59790 0.10960
 H1494 H 0.69678 0.55318 0.07331
 H1495 H 0.71044 0.56949 0.04846
 H1496 H 0.72299 0.61427 0.08570
 H1497 H 0.63803 0.52225 0.14777
 H1498 H 0.62376 0.50713 0.17386
 H1499 H 0.66895 0.52351 0.20772
 H1500 H 0.68290 0.53887 0.18163
 C1501 C 0.19724 1.06702 0.57125
 C1502 C 0.20118 1.07180 0.58927
 C1503 C 0.21353 1.08587 0.59290
 C1504 C 0.22177 1.09528 0.57861
 C1505 C 0.21776 1.09075 0.56045
 C1506 C 0.20549 1.07641 0.55692
 C1507 C 0.19235 1.06252 0.60406
 C1508 C 0.18497 1.05499 0.61660
 C1509 C 0.17638 1.04639 0.63144
 C1510 C 0.16912 1.03915 0.64421
 C1511 C 0.16055 1.03058 0.65957
 C1512 C 0.16908 1.03089 0.67657
 C1513 C 0.16087 1.02246 0.69149
 C1514 C 0.14401 1.01358 0.68959
 C1515 C 0.13550 1.01341 0.67245
 C1516 C 0.14373 1.02187 0.65755
 H1517 H 0.18766 1.05617 0.56829
 H1518 H 0.21672 1.08964 0.60680
 H1519 H 0.23135 1.10607 0.58178
 H1520 H 0.20197 1.07274 0.54309
 H1521 H 0.18212 1.03756 0.67827
 H1522 H 0.16788 1.02260 0.70443
 H1523 H 0.12242 1.00688 0.67062
 H1524 H 0.13698 1.02160 0.64447
 C1525 C 0.21516 0.94569 0.91270
 C1526 C 0.20380 0.93684 0.90031
 C1527 C 0.20059 0.91815 0.90207
 C1528 C 0.20868 0.90827 0.91613
 C1529 C 0.22036 0.91683 0.92898
 C1530 C 0.22331 0.93591 0.92683
 C1531 C 0.19540 0.94688 0.88576
 C1532 C 0.18827 0.95509 0.87350
 C1533 C 0.17984 0.96454 0.85908
 C1534 C 0.17259 0.97252 0.84673
 C1535 C 0.16392 0.98199 0.83196
 C1536 C 0.15277 0.97243 0.81981
 C1537 C 0.14435 0.98162 0.80544
 C1538 C 0.14698 1.00052 0.80308
 C1539 C 0.15822 1.01000 0.81538
 C1540 C 0.16663 1.00079 0.82972
 H1541 H 0.21789 0.96018 0.91135
 H1542 H 0.19161 0.91119 0.89264
 H1543 H 0.20478 0.89408 0.91713
 H1544 H 0.23260 0.94350 0.93535
 H1545 H 0.15055 0.95789 0.82145
 H1546 H 0.13561 0.97400 0.79633
 H1547 H 0.16070 1.02450 0.81377
 H1548 H 0.17528 1.00831 0.83902
 C1549 C 0.71608 0.44313 0.41417
 C1550 C 0.70056 0.43645 0.40537
 C1551 C 0.69287 0.41989 0.41088
 C1552 C 0.70071 0.40996 0.42507
 C1553 C 0.71638 0.41648 0.43394
 C1554 C 0.72394 0.43323 0.42838
 C1555 C 0.69258 0.44648 0.39057
 C1556 C 0.68586 0.45473 0.37810
 C1557 C 0.67793 0.46425 0.36345
 C1558 C 0.67113 0.47232 0.35091
 C1559 C 0.66298 0.48192 0.33593
 C1560 C 0.65203 0.47251 0.32347
 C1561 C 0.64408 0.48182 0.30892
 C1562 C 0.64698 0.50069 0.30666
 C1563 C 0.65804 0.51001 0.31924
 C1564 C 0.66598 0.50068 0.33377
 H1565 H 0.72216 0.45592 0.40997
 H1566 H 0.68083 0.41462 0.40420
 H1567 H 0.69443 0.39726 0.42920
 H1568 H 0.73612 0.43850 0.43480
 H1569 H 0.64958 0.45799 0.32504
 H1570 H 0.63547 0.47431 0.29959
 H1571 H 0.66072 0.52448 0.31772
 H1572 H 0.67448 0.50808 0.34330
 C1573 C 0.77893 0.42621 0.59003
 C1574 C 0.79569 0.43517 0.58867
 C1575 C 0.80535 0.43468 0.57228
 C1576 C 0.79835 0.42517 0.55733
 C1577 C 0.78158 0.41600 0.55858
 C1578 C 0.77191 0.41670 0.57509
 C1579 C 0.80310 0.44466 0.60416
 C1580 C 0.80939 0.45253 0.61713
 C1581 C 0.81685 0.46168 0.63230
 C1582 C 0.82328 0.46948 0.64525
 C1583 C 0.83102 0.47879 0.66068
 C1584 C 0.84752 0.48813 0.65892
 C1585 C 0.85503 0.49724 0.67387
 C1586 C 0.84611 0.49712 0.69080
 C1587 C 0.82955 0.48764 0.69244
 C1588 C 0.82206 0.47855 0.67747
 H1589 H 0.77137 0.42646 0.60267
 H1590 H 0.81831 0.44161 0.57106
 H1591 H 0.80601 0.42508 0.54475
 H1592 H 0.75908 0.40959 0.57657
 H1593 H 0.85461 0.48835 0.64601
 H1594 H 0.86792 0.50421 0.67224
 H1595 H 0.82225 0.48749 0.70523
 H1596 H 0.80925 0.47139 0.67897
 C1597 C 0.28227 -0.07174 0.08479
 C1598 C 0.29928 -0.06326 0.08362
 C1599 C 0.30913 -0.06407 0.06734
 C1600 C 0.30206 -0.07343 0.05234
 C1601 C 0.28503 -0.08213 0.05341
 C1602 C 0.27517 -0.08110 0.06979
 C1603 C 0.30676 -0.05398 0.09919
 C1604 C 0.31307 -0.04631 0.11227
 C1605 C 0.32050 -0.03743 0.12762
 C1606 C 0.32686 -0.02987 0.14073
 C1607 C 0.33447 -0.02086 0.15640
 C1608 C 0.35104 -0.01157 0.15499
 C1609 C 0.35840 -0.00272 0.17016
 C1610 C 0.34926 -0.00306 0.18697
 C1611 C 0.33264 -0.01249 0.18826
 C1612 C 0.32531 -0.02132 0.17307
 H1613 H 0.27456 -0.07125 0.09734
 H1614 H 0.32230 -0.05752 0.06628
 H1615 H 0.30987 -0.07378 0.03985
 H1616 H 0.26214 -0.08786 0.07114
 H1617 H 0.35828 -0.01118 0.14216
 H1618 H 0.37133 0.00422 0.16880
 H1619 H 0.32518 -0.01279 0.20095
 H1620 H 0.31245 -0.02843 0.17430
 C1621 C 0.29938 0.09004 0.40613
 C1622 C 0.29316 0.07237 0.40230
 C1623 C 0.28019 0.06426 0.41363
 C1624 C 0.27354 0.07374 0.42880
 C1625 C 0.27984 0.09146 0.43285
 C1626 C 0.29278 0.09952 0.42128
 C1627 C 0.30031 0.06257 0.38686
 C1628 C 0.30657 0.05454 0.37395
 C1629 C 0.31415 0.04529 0.35887
 C1630 C 0.32079 0.03746 0.34603
 C1631 C 0.32888 0.02814 0.33076
 C1632 C 0.32577 0.00945 0.32808
 C1633 C 0.33382 0.00033 0.31340
 C1634 C 0.34509 0.00981 0.30117
 C1635 C 0.34807 0.02862 0.30394
 C1636 C 0.34002 0.03771 0.31865
 H1637 H 0.30938 0.09647 0.39742
 H1638 H 0.27531 0.05057 0.41081
 H1639 H 0.26372 0.06711 0.43754
 H1640 H 0.29768 0.11325 0.42385
 H1641 H 0.31714 0.00192 0.33735
 H1642 H 0.33107 -0.01409 0.31149
 H1643 H 0.35685 0.03624 0.29489
 H1644 H 0.34256 0.05217 0.32063
 C1645 C 0.80001 0.59091 0.91080
 C1646 C 0.79344 0.57341 0.90680
 C1647 C 0.78030 0.56545 0.91806
 C1648 C 0.77383 0.57493 0.93332
 C1649 C 0.78048 0.59248 0.93752
 C1650 C 0.79358 0.60039 0.92602
 C1651 C 0.80039 0.56363 0.89127
 C1652 C 0.80648 0.55561 0.87827
 C1653 C 0.81387 0.54637 0.86308
 C1654 C 0.82034 0.53855 0.85015
 C1655 C 0.82823 0.52923 0.83477
 C1656 C 0.82523 0.51050 0.83225
 C1657 C 0.83308 0.50137 0.81747
 C1658 C 0.84405 0.51087 0.80499
 C1659 C 0.84692 0.52972 0.80760
 C1660 C 0.83906 0.53882 0.82241
 H1661 H 0.81013 0.59723 0.90214
 H1662 H 0.77516 0.55189 0.91511
 H1663 H 0.76388 0.56842 0.94199
 H1664 H 0.79875 0.61399 0.92871
 H1665 H 0.81683 0.50295 0.84172
 H1666 H 0.83041 0.48692 0.81569
 H1667 H 0.85546 0.53736 0.79836
 H1668 H 0.84152 0.55331 0.82427
 C1669 C 0.08713 0.69325 0.58735
 C1670 C 0.09262 0.69992 0.57042
 C1671 C 0.08355 0.71488 0.56277
 C1672 C 0.06909 0.72319 0.57205
 C1673 C 0.06356 0.71665 0.58914
 C1674 C 0.07271 0.70153 0.59665
 C1675 C 0.10764 0.69146 0.56104
 C1676 C 0.12028 0.68427 0.55337
 C1677 C 0.13513 0.67577 0.54455
 C1678 C 0.14782 0.66847 0.53706
 C1679 C 0.16296 0.65975 0.52811
 C1680 C 0.16556 0.66206 0.50943
 C1681 C 0.18024 0.65360 0.50069
 C1682 C 0.19253 0.64268 0.51055
 C1683 C 0.18982 0.64047 0.52935
 C1684 C 0.17511 0.64895 0.53806
 H1685 H 0.09401 0.68164 0.59338
 H1686 H 0.08771 0.72018 0.54968
 H1687 H 0.06245 0.73492 0.56600
 H1688 H 0.06860 0.69599 0.60965
 H1689 H 0.15628 0.67045 0.50161
 H1690 H 0.18212 0.65578 0.48626
 H1691 H 0.19893 0.63199 0.53726
 H1692 H 0.17320 0.64704 0.55253
 C1693 C 0.58641 0.21629 1.06437
 C1694 C 0.59558 0.20154 1.07229
 C1695 C 0.59015 0.19514 1.08934
 C1696 C 0.57564 0.20345 1.09847
 C1697 C 0.56635 0.21833 1.09067
 C1698 C 0.57187 0.22464 1.07348
 C1699 C 0.61059 0.19296 1.06301
 C1700 C 0.62319 0.18564 1.05540
 C1701 C 0.63796 0.17697 1.04662
 C1702 C 0.65058 0.16950 1.03919
 C1703 C 0.66563 0.16056 1.03031
 C1704 C 0.67767 0.14973 1.04035
 C1705 C 0.69230 0.14103 1.03173
 C1706 C 0.69504 0.14306 1.01291
 C1707 C 0.68285 0.15399 1.00295
 C1708 C 0.66825 0.16267 1.01160
 H1709 H 0.59053 0.22138 1.05118
 H1710 H 0.59711 0.18368 1.09556
 H1711 H 0.57155 0.19810 1.11155
 H1712 H 0.56512 0.23618 1.06721
 H1713 H 0.67574 0.14796 1.05484
 H1714 H 0.70133 0.13255 1.03972
 H1715 H 0.68476 0.15603 0.98850
 H1716 H 0.65904 0.17107 1.00371
 C1717 C 0.91724 0.21139 0.94538
 C1718 C 0.90461 0.20017 0.93667
 C1719 C 0.90556 0.19775 0.91790
 C1720 C 0.91905 0.20649 0.90779
 C1721 C 0.93214 0.21805 0.91620
 C1722 C 0.93081 0.22020 0.93537
 C1723 C 0.89058 0.19116 0.94694
 C1724 C 0.87871 0.18358 0.95532
 C1725 C 0.86466 0.17471 0.96493
 C1726 C 0.85254 0.16717 0.97299
 C1727 C 0.83791 0.15828 0.98249
 C1728 C 0.82580 0.14700 0.97300
 C1729 C 0.81132 0.13870 0.98211
 C1730 C 0.80876 0.14160 1.00086
 C1731 C 0.82110 0.15284 1.01030
 C1732 C 0.83557 0.16112 1.00116
 H1733 H 0.91650 0.21352 0.95994
 H1734 H 0.89593 0.18890 0.91103
 H1735 H 0.91946 0.20319 0.89349
 H1736 H 0.93954 0.22933 0.94292
 H1737 H 0.82751 0.14467 0.95854
 H1738 H 0.80218 0.12995 0.97451
 H1739 H 0.81935 0.15552 1.02468
 H1740 H 0.84483 0.16988 1.00862
 C1741 C 0.41172 0.71708 0.44379
 C1742 C 0.40331 0.70145 0.43671
 C1743 C 0.40888 0.69441 0.41989
 C1744 C 0.42274 0.70299 0.41014
 C1745 C 0.43124 0.71877 0.41708
 C1746 C 0.42562 0.72569 0.43406
 C1747 C 0.38886 0.69266 0.44657
 C1748 C 0.37669 0.68519 0.45462
 C1749 C 0.36236 0.67637 0.46384
 C1750 C 0.35005 0.66881 0.47159
 C1751 C 0.33528 0.65978 0.48071
 C1752 C 0.32298 0.64912 0.47076
 C1753 C 0.30850 0.64048 0.47955
 C1754 C 0.30614 0.64240 0.49844
 C1755 C 0.31861 0.65310 0.50833
 C1756 C 0.33308 0.66172 0.49951
 H1757 H 0.40747 0.72267 0.45678
 H1758 H 0.40249 0.68228 0.41431
 H1759 H 0.42695 0.69716 0.39725
 H1760 H 0.43176 0.73792 0.43967
 H1761 H 0.32459 0.64748 0.45620
 H1762 H 0.29926 0.63217 0.47161
 H1763 H 0.31701 0.65503 0.52284
 H1764 H 0.34248 0.66999 0.50733
 C1765 C 0.56856 0.80932 0.43649
 C1766 C 0.58498 0.79963 0.43709
 C1767 C 0.58651 0.78280 0.42810
 C1768 C 0.57171 0.77573 0.41844
 C1769 C 0.55517 0.78543 0.41764
 C1770 C 0.55375 0.80229 0.42683
 C1771 C 0.60034 0.80705 0.44672
 C1772 C 0.61328 0.81328 0.45466
 C1773 C 0.62852 0.82056 0.46382
 C1774 C 0.64161 0.82673 0.47155
 C1775 C 0.65733 0.83403 0.48069
 C1776 C 0.67395 0.82471 0.47980
 C1777 C 0.68927 0.83178 0.48859
 C1778 C 0.68816 0.84830 0.49841
 C1779 C 0.67137 0.85757 0.49923
 C1780 C 0.65607 0.85048 0.49041
 H1781 H 0.56722 0.82235 0.44344
 H1782 H 0.59918 0.77521 0.42842
 H1783 H 0.57333 0.76285 0.41131
 H1784 H 0.54114 0.80997 0.42667
 H1785 H 0.67507 0.81195 0.47235
 H1786 H 0.70193 0.82421 0.48791
 H1787 H 0.67015 0.87043 0.50648
 H1788 H 0.64328 0.85784 0.49113
 C1789 C 0.07513 0.28467 -0.05861
 C1790 C 0.08611 0.29811 -0.06651
 C1791 C 0.08196 0.30469 -0.08385
 C1792 C 0.06691 0.29789 -0.09328
 C1793 C 0.05577 0.28438 -0.08547
 C1794 C 0.06007 0.27783 -0.06803
 C1795 C 0.10167 0.30512 -0.05688
 C1796 C 0.11474 0.31105 -0.04893
 C1797 C 0.13008 0.31802 -0.03971
 C1798 C 0.14320 0.32399 -0.03188
 C1799 C 0.15890 0.33111 -0.02254
 C1800 C 0.16148 0.32739 -0.00408
 C1801 C 0.17675 0.33423 0.00499
 C1802 C 0.18966 0.34488 -0.00431
 C1803 C 0.18692 0.34856 -0.02288
 C1804 C 0.17164 0.34171 -0.03192
 H1805 H 0.07820 0.27951 -0.04517
 H1806 H 0.09040 0.31504 -0.09012
 H1807 H 0.06413 0.30301 -0.10679
 H1808 H 0.05165 0.26760 -0.06158
 H1809 H 0.15173 0.31915 0.00329
 H1810 H 0.17859 0.33096 0.01921
 H1811 H 0.19649 0.35690 -0.03035
 H1812 H 0.16974 0.34471 -0.04620
 C1813 C 0.40682 0.27324 0.07565
 C1814 C 0.40735 0.28998 0.06650
 C1815 C 0.42325 0.30047 0.06679
 C1816 C 0.43849 0.29439 0.07640
 C1817 C 0.43803 0.27771 0.08586
 C1818 C 0.42207 0.26712 0.08525
 C1819 C 0.39148 0.29669 0.05720
 C1820 C 0.37826 0.30266 0.04954
 C1821 C 0.36290 0.31003 0.04067
 C1822 C 0.34989 0.31662 0.03315
 C1823 C 0.33453 0.32481 0.02418
 C1824 C 0.33649 0.34167 0.01546
 C1825 C 0.32161 0.34978 0.00683
 C1826 C 0.30453 0.34112 0.00681
 C1827 C 0.30267 0.32419 0.01564
 C1828 C 0.31759 0.31609 0.02426
 H1829 H 0.39456 0.26504 0.07556
 H1830 H 0.42382 0.31343 0.05972
 H1831 H 0.45065 0.30273 0.07640
 H1832 H 0.42122 0.25433 0.09258
 H1833 H 0.34952 0.34858 0.01539
 H1834 H 0.32341 0.36294 0.00039
 H1835 H 0.28974 0.31710 0.01567
 H1836 H 0.31593 0.30302 0.03096
 C1837 C 0.90855 0.79863 0.58680
 C1838 C 0.90494 0.79235 0.56919
 C1839 C 0.91651 0.77944 0.56110
 C1840 C 0.93170 0.77291 0.57055
 C1841 C 0.93551 0.77928 0.58822
 C1842 C 0.92371 0.79215 0.59626
 C1843 C 0.88946 0.79937 0.55946
 C1844 C 0.87648 0.80554 0.55155
 C1845 C 0.86128 0.81306 0.54252
 C1846 C 0.84830 0.81967 0.53495
 C1847 C 0.83284 0.82775 0.52603
 C1848 C 0.82989 0.82467 0.50749
 C1849 C 0.81499 0.83269 0.49879
 C1850 C 0.80281 0.84391 0.50855
 C1851 C 0.80587 0.84688 0.52721
 C1852 C 0.82079 0.83885 0.53587
 H1853 H 0.89965 0.80857 0.59322
 H1854 H 0.91386 0.77451 0.54745
 H1855 H 0.94062 0.76314 0.56394
 H1856 H 0.92609 0.79709 0.60994
 H1857 H 0.83911 0.81607 0.49975
 H1858 H 0.81286 0.82996 0.48447
 H1859 H 0.79688 0.85563 0.53504
 H1860 H 0.82298 0.84138 0.55022
   
