data_POSCAR
  _audit_creation_date              2014-09-24
  _audit_creation_method            'ToBaCCo'
  _symmetry_space_group_name_H-M    'P1'
  _symmetry_Int_Tables_number       1
  _symmetry_cell_setting            triclinic
  loop_
  _symmetry_equiv_pos_as_xyz
 x,y,z
_cell_length_a 70.6448
_cell_length_b 70.6135
_cell_length_c 70.6476
_cell_angle_alpha 89.951700
_cell_angle_beta 90.019000
_cell_angle_gamma 90.033200
loop_
  _atom_site_label
  _atom_site_type_symbol
  _atom_site_fract_x
  _atom_site_fract_y
  _atom_site_fract_z
C1 C 0.09856 0.01454 0.22849
 H2 H 0.09808 0.02563 0.23904
 C3 C 0.08809 0.01632 0.21178
 H4 H 0.07940 0.02874 0.20947
 C5 C 0.11107 -0.01486 0.21816
 H6 H 0.12042 -0.02673 0.22041
 C7 C 0.10085 -0.01365 0.20131
 H8 H 0.10219 -0.02471 0.19078
 N9 N 0.10976 -0.00088 0.23136
 C10 C 0.12069 -0.00455 0.29197
 H11 H 0.13598 -0.00535 0.29154
 C12 C 0.11126 -0.00582 0.30925
 H13 H 0.11928 -0.00752 0.32222
 C14 C 0.09153 -0.00162 0.27555
 H15 H 0.08392 -0.00025 0.26235
 C16 C 0.08151 -0.00285 0.29259
 H17 H 0.06619 -0.00223 0.29252
 Zn18 Zn 0.12531 -0.00159 0.25316
 N19 N 0.11079 -0.00233 0.27560
 C20 C 0.13936 0.03333 0.26698
 N21 N 0.14055 0.02045 0.25271
 C22 C 0.15139 0.02379 0.23712
 C23 C 0.16160 0.04068 0.23548
 C24 C 0.14935 0.05035 0.26591
 C25 C 0.13040 -0.04037 0.25513
 C26 C 0.13997 -0.05762 0.25551
 C27 C 0.16952 -0.04062 0.25206
 C28 C 0.15934 -0.02363 0.25175
 N29 N 0.14012 -0.02386 0.25308
 H30 H 0.13030 0.03069 0.27900
 H31 H 0.15177 0.01349 0.22581
 H32 H 0.16999 0.04337 0.22293
 H33 H 0.14810 0.06064 0.27721
 H34 H 0.11515 -0.04007 0.25641
 H35 H 0.13199 -0.07066 0.25703
 H36 H 0.18482 -0.04033 0.25089
 H37 H 0.16680 -0.01032 0.25051
 C38 C 0.09150 -0.00495 0.30957
 C39 C 0.08936 0.00212 0.19804
 C40 C 0.15970 -0.05778 0.25391
 C41 C 0.16045 0.05411 0.24997
 C42 C 0.40099 0.01693 0.77330
 H43 H 0.40182 0.02827 0.76302
 C44 C 0.41084 0.01834 0.79041
 H45 H 0.41942 0.03073 0.79331
 C46 C 0.38819 -0.01274 0.78252
 H47 H 0.37897 -0.02459 0.77968
 C48 C 0.39780 -0.01190 0.79975
 H49 H 0.39612 -0.02323 0.80997
 N50 N 0.38994 0.00154 0.76968
 C51 C 0.38087 -0.00099 0.70870
 H52 H 0.36560 -0.00213 0.70874
 C53 C 0.39072 -0.00162 0.69163
 H54 H 0.38304 -0.00318 0.67844
 C55 C 0.40956 0.00223 0.72587
 H56 H 0.41682 0.00351 0.73927
 C57 C 0.42001 0.00166 0.70904
 H58 H 0.43530 0.00266 0.70948
 Zn59 Zn 0.37512 0.00122 0.74734
 N60 N 0.39033 0.00109 0.72534
 C61 C 0.36147 0.03631 0.73364
 N62 N 0.35976 0.02319 0.74767
 C63 C 0.34833 0.02625 0.76287
 C64 C 0.33804 0.04310 0.76437
 C65 C 0.35144 0.05329 0.73458
 C66 C 0.37037 -0.03754 0.74436
 C67 C 0.36095 -0.05486 0.74343
 C68 C 0.33120 -0.03824 0.74648
 C69 C 0.34121 -0.02114 0.74736
 N70 N 0.36046 -0.02116 0.74651
 H71 H 0.37099 0.03391 0.72195
 H72 H 0.34754 0.01576 0.77401
 H73 H 0.32918 0.04558 0.77663
 H74 H 0.35310 0.06376 0.72349
 H75 H 0.38565 -0.03708 0.74349
 H76 H 0.36899 -0.06783 0.74189
 H77 H 0.31589 -0.03820 0.74731
 H78 H 0.33360 -0.00794 0.74870
 C79 C 0.41045 -0.00025 0.69178
 C80 C 0.40912 0.00382 0.80379
 C81 C 0.34122 -0.05523 0.74456
 C82 C 0.33973 0.05678 0.75013
 C83 C 0.90058 0.51678 0.27322
 H84 H 0.90151 0.52818 0.26302
 C85 C 0.91043 0.51802 0.29036
 H86 H 0.91909 0.53034 0.29329
 C87 C 0.88755 0.48715 0.28224
 H88 H 0.87824 0.47539 0.27931
 C89 C 0.89714 0.48781 0.29949
 H90 H 0.89533 0.47640 0.30961
 N91 N 0.88943 0.50150 0.26950
 C92 C 0.88039 0.49950 0.20849
 H93 H 0.86511 0.49849 0.20852
 C94 C 0.89025 0.49895 0.19142
 H95 H 0.88256 0.49756 0.17822
 C96 C 0.90910 0.50237 0.22570
 H97 H 0.91635 0.50349 0.23912
 C98 C 0.91955 0.50187 0.20888
 H99 H 0.93485 0.50275 0.20933
 Zn100 Zn 0.87463 0.50147 0.24714
 N101 N 0.88986 0.50138 0.22515
 C102 C 0.86129 0.53677 0.23368
 N103 N 0.85945 0.52356 0.24761
 C104 C 0.84801 0.52659 0.26280
 C105 C 0.83781 0.54349 0.26438
 C106 C 0.85135 0.55380 0.23470
 C107 C 0.86950 0.46277 0.24389
 C108 C 0.85990 0.44556 0.24276
 C109 C 0.83032 0.46248 0.24579
 C110 C 0.84050 0.47945 0.24686
 N111 N 0.85976 0.47923 0.24611
 H112 H 0.87083 0.53439 0.22199
 H113 H 0.84711 0.51603 0.27387
 H114 H 0.82892 0.54593 0.27663
 H115 H 0.85310 0.56434 0.22368
 H116 H 0.88479 0.46307 0.24308
 H117 H 0.86781 0.43251 0.24115
 H118 H 0.81500 0.46267 0.24653
 H119 H 0.83303 0.49272 0.24826
 C120 C 0.90999 0.50018 0.19160
 C121 C 0.90859 0.50342 0.30366
 C122 C 0.84016 0.44540 0.24378
 C123 C 0.83961 0.55725 0.25024
 C124 C 0.59844 0.51570 0.72758
 H125 H 0.59787 0.52674 0.73818
 C126 C 0.58804 0.51752 0.71083
 H127 H 0.57931 0.52992 0.70855
 C128 C 0.61113 0.48641 0.71716
 H129 H 0.62052 0.47457 0.71938
 C130 C 0.60097 0.48767 0.70027
 H131 H 0.60240 0.47667 0.68969
 N132 N 0.60970 0.50031 0.73042
 C133 C 0.62070 0.49639 0.79101
 H134 H 0.63598 0.49553 0.79050
 C135 C 0.61135 0.49512 0.80833
 H136 H 0.61943 0.49336 0.82125
 C137 C 0.59146 0.49951 0.77475
 H138 H 0.58381 0.50097 0.76159
 C139 C 0.58153 0.49829 0.79184
 H140 H 0.56621 0.49900 0.79185
 Zn141 Zn 0.62522 0.49957 0.75225
 N142 N 0.61072 0.49871 0.77470
 C143 C 0.63916 0.53444 0.76627
 N144 N 0.64040 0.52165 0.75192
 C145 C 0.65130 0.52509 0.73640
 C146 C 0.66155 0.54196 0.73492
 C147 C 0.64917 0.55145 0.76536
 C148 C 0.63050 0.46079 0.75407
 C149 C 0.64019 0.44361 0.75452
 C150 C 0.66963 0.46079 0.75134
 C151 C 0.65936 0.47772 0.75095
 N152 N 0.64013 0.47737 0.75212
 H153 H 0.63005 0.53173 0.77823
 H154 H 0.65172 0.51485 0.72502
 H155 H 0.67001 0.54472 0.72243
 H156 H 0.64791 0.56165 0.77674
 H157 H 0.61523 0.46098 0.75524
 H158 H 0.63238 0.43048 0.75598
 H159 H 0.68493 0.46110 0.75034
 H160 H 0.66675 0.49107 0.74980
 C161 C 0.59160 0.49610 0.80876
 C162 C 0.58943 0.50341 0.69702
 C163 C 0.65991 0.44360 0.75311
 C164 C 0.66037 0.55529 0.74951
 C165 C 0.27372 0.09945 0.98317
 H166 H 0.26312 0.09902 0.97211
 C167 C 0.29043 0.08904 0.98127
 H168 H 0.29271 0.08043 0.96879
 C169 C 0.28412 0.11175 1.01263
 H170 H 0.28188 0.12099 1.02459
 C171 C 0.30098 0.10158 1.01129
 H172 H 0.31155 0.10284 1.02235
 N173 N 0.27087 0.11050 0.99869
 C174 C 0.21023 0.12089 1.00269
 H175 H 0.21057 0.13617 1.00370
 C176 C 0.19301 0.11132 1.00381
 H177 H 0.18000 0.11923 1.00562
 C178 C 0.22681 0.09187 0.99931
 H179 H 0.24005 0.08438 0.99780
 C180 C 0.20983 0.08171 1.00037
 H181 H 0.20999 0.06640 0.99952
 Zn182 Zn 0.24896 0.12586 0.99962
 N183 N 0.22665 0.11113 1.00030
 C184 C 0.23482 0.14000 0.96490
 N185 N 0.24915 0.14129 0.97772
 C186 C 0.26459 0.15235 0.97437
 C187 C 0.26601 0.16269 0.95755
 C188 C 0.23567 0.15011 0.94795
 C189 C 0.24713 0.13063 1.03843
 C190 C 0.24657 0.14008 1.05573
 C191 C 0.24951 0.16981 1.03893
 C192 C 0.25001 0.15975 1.02189
 N193 N 0.24900 0.14050 1.02199
 H194 H 0.22293 0.13075 0.96752
 H195 H 0.27596 0.15281 0.98463
 H196 H 0.27845 0.17126 0.95485
 H197 H 0.22433 0.14877 0.93770
 H198 H 0.24608 0.11535 1.03804
 H199 H 0.24516 0.13199 1.06871
 H200 H 0.25038 0.18514 1.03873
 H201 H 0.25110 0.16732 1.00864
 C202 C 0.19280 0.09157 1.00262
 C203 C 0.30421 0.09021 0.99544
 C204 C 0.24780 0.15985 1.05602
 C205 C 0.25145 0.16144 0.94418
 C206 C 0.72684 0.39982 0.98395
 H207 H 0.73713 0.40065 0.97265
 C208 C 0.70969 0.40960 0.98244
 H209 H 0.70679 0.41811 0.97001
 C210 C 0.71761 0.38712 1.01364
 H211 H 0.72046 0.37797 1.02555
 C212 C 0.70034 0.39665 1.01270
 H213 H 0.69011 0.39499 1.02400
 N214 N 0.73047 0.38887 0.99940
 C215 C 0.79152 0.38031 1.00218
 H216 H 0.79159 0.36504 1.00342
 C217 C 0.80851 0.39033 1.00275
 H218 H 0.82176 0.38276 1.00437
 C219 C 0.77413 0.40885 0.99872
 H220 H 0.76067 0.41598 0.99737
 C221 C 0.79087 0.41944 0.99923
 H222 H 0.79031 0.43473 0.99811
 Zn223 Zn 0.75291 0.37421 0.99988
 N224 N 0.77480 0.38962 1.00001
 C225 C 0.76679 0.36056 0.96490
 N226 N 0.75275 0.35875 0.97798
 C227 C 0.73764 0.34719 0.97489
 C228 C 0.73624 0.33687 0.95806
 C229 C 0.76594 0.35050 0.94793
 C230 C 0.75584 0.36966 1.03865
 C231 C 0.75683 0.36035 1.05603
 C232 C 0.75402 0.33046 1.03955
 C233 C 0.75309 0.34039 1.02241
 N234 N 0.75380 0.35966 1.02234
 H235 H 0.77841 0.37019 0.96731
 H236 H 0.72649 0.34632 0.98534
 H237 H 0.72404 0.32791 0.95556
 H238 H 0.77703 0.35226 0.93748
 H239 H 0.75661 0.38496 1.03812
 H240 H 0.75829 0.36856 1.06892
 H241 H 0.75330 0.31512 1.03950
 H242 H 0.75183 0.33271 1.00925
 C243 C 0.80820 0.41005 1.00122
 C244 C 0.69629 0.40789 0.99692
 C245 C 0.75584 0.34057 1.05652
 C246 C 0.75048 0.33866 0.94442
 C247 C 0.22675 0.90021 0.48384
 H248 H 0.23692 0.90117 0.47243
 C249 C 0.20956 0.90994 0.48260
 H250 H 0.20649 0.91855 0.47027
 C251 C 0.21787 0.88721 0.51351
 H252 H 0.22087 0.87794 0.52529
 C253 C 0.20056 0.89669 0.51284
 H254 H 0.19045 0.89487 0.52422
 N255 N 0.23057 0.88912 0.49915
 C256 C 0.29163 0.88036 0.50114
 H257 H 0.29164 0.86507 0.50222
 C258 C 0.30867 0.89029 0.50169
 H259 H 0.32189 0.88266 0.50312
 C260 C 0.27432 0.90900 0.49815
 H261 H 0.26088 0.91620 0.49700
 C262 C 0.29112 0.91952 0.49864
 H263 H 0.29061 0.93482 0.49772
 Zn264 Zn 0.25299 0.87443 0.49922
 N265 N 0.27493 0.88976 0.49922
 C266 C 0.26642 0.86095 0.46400
 N267 N 0.25253 0.85913 0.47722
 C268 C 0.23735 0.84762 0.47426
 C269 C 0.23575 0.83734 0.45742
 C270 C 0.26539 0.85092 0.44702
 C271 C 0.25636 0.86953 0.53791
 C272 C 0.25748 0.86005 0.55518
 C273 C 0.25439 0.83034 0.53848
 C274 C 0.25333 0.84041 0.52144
 N275 N 0.25411 0.85968 0.52153
 H276 H 0.27810 0.87053 0.46633
 H277 H 0.22630 0.84674 0.48483
 H278 H 0.22352 0.82840 0.45504
 H279 H 0.27638 0.85266 0.43647
 H280 H 0.25717 0.88483 0.53751
 H281 H 0.25909 0.86805 0.56817
 H282 H 0.25361 0.81502 0.53840
 H283 H 0.25190 0.83285 0.50823
 C284 C 0.30842 0.91003 0.50039
 C285 C 0.19631 0.90805 0.49720
 C286 C 0.25641 0.84030 0.55549
 C287 C 0.24987 0.83912 0.44365
 C288 C 0.77188 0.59825 0.48373
 H289 H 0.76125 0.59771 0.47272
 C290 C 0.78861 0.58785 0.48187
 H291 H 0.79086 0.57913 0.46946
 C292 C 0.78241 0.61089 0.51301
 H293 H 0.78023 0.62026 0.52487
 C294 C 0.79928 0.60072 0.51171
 H295 H 0.80990 0.60214 0.52269
 N296 N 0.76910 0.60948 0.49914
 C297 C 0.70854 0.62054 0.50310
 H298 H 0.70906 0.63583 0.50388
 C299 C 0.69122 0.61118 0.50450
 H300 H 0.67832 0.61926 0.50627
 C301 C 0.72479 0.59129 0.50010
 H302 H 0.73794 0.58363 0.49865
 C303 C 0.70770 0.58134 0.50146
 H304 H 0.70769 0.56601 0.50086
 Zn305 Zn 0.74732 0.62504 0.49993
 N306 N 0.72484 0.61056 0.50079
 C307 C 0.73331 0.63914 0.46510
 N308 N 0.74767 0.64028 0.47790
 C309 C 0.76324 0.65113 0.47452
 C310 C 0.76477 0.66144 0.45769
 C311 C 0.73427 0.64921 0.44813
 C312 C 0.74559 0.63022 0.53868
 C313 C 0.74522 0.63986 0.55588
 C314 C 0.74844 0.66936 0.53878
 C315 C 0.74876 0.65914 0.52183
 N316 N 0.74753 0.63989 0.52214
 H317 H 0.72130 0.63006 0.46777
 H318 H 0.77462 0.65148 0.48477
 H319 H 0.77731 0.66986 0.45498
 H320 H 0.72290 0.64803 0.43791
 H321 H 0.74438 0.61495 0.53846
 H322 H 0.74379 0.63201 0.56899
 H323 H 0.74950 0.68466 0.53852
 H324 H 0.74989 0.66656 0.50851
 C325 C 0.69079 0.59142 0.50366
 C326 C 0.80247 0.58922 0.49595
 C327 C 0.74670 0.65959 0.55594
 C328 C 0.75018 0.66036 0.44435
 C329 C 0.01529 0.22838 0.09819
 H330 H 0.02673 0.23854 0.09739
 C331 C 0.01648 0.21131 0.08823
 H332 H 0.02881 0.20833 0.07963
 C333 C -0.01443 0.21939 0.11100
 H334 H -0.02621 0.22229 0.12027
 C335 C -0.01381 0.20221 0.10129
 H336 H -0.02522 0.19209 0.10296
 N337 N -0.00001 0.23208 0.10929
 C338 C -0.00177 0.29304 0.11872
 H339 H -0.00275 0.29293 0.13400
 C340 C -0.00232 0.31017 0.10893
 H341 H -0.00367 0.32332 0.11673
 C342 C 0.00098 0.27596 0.08993
 H343 H 0.00202 0.26257 0.08262
 C344 C 0.00047 0.29284 0.07955
 H345 H 0.00129 0.29241 0.06424
 Zn346 Zn 0.00002 0.25430 0.12426
 N347 N 0.00003 0.27642 0.10918
 C348 C 0.03532 0.26747 0.13785
 N349 N 0.02205 0.25359 0.13950
 C350 C 0.02499 0.23823 0.15078
 C351 C 0.04187 0.23642 0.16098
 C352 C 0.05234 0.26623 0.14780
 C353 C -0.03865 0.25770 0.12922
 C354 C -0.05590 0.25868 0.13872
 C355 C -0.03916 0.25511 0.16836
 C356 C -0.02214 0.25420 0.15827
 N357 N -0.02225 0.25528 0.13903
 H358 H 0.03301 0.27930 0.12844
 H359 H 0.01438 0.22720 0.15152
 H360 H 0.04424 0.22404 0.16972
 H361 H 0.06293 0.27722 0.14618
 H362 H -0.03827 0.25874 0.11395
 H363 H -0.06890 0.26042 0.13076
 H364 H -0.03905 0.25409 0.18366
 H365 H -0.00891 0.25264 0.16580
 C366 C -0.00117 0.31010 0.08918
 C367 C 0.00183 0.19808 0.08992
 C368 C -0.05618 0.25730 0.15844
 C369 C 0.05570 0.25051 0.15935
 C370 C 0.01565 0.77215 0.40126
 H371 H 0.02661 0.76147 0.40174
 C372 C 0.01763 0.78883 0.41175
 H373 H 0.03007 0.79098 0.42045
 C374 C -0.01361 0.78287 0.38873
 H375 H -0.02551 0.78078 0.37937
 C376 C -0.01220 0.79969 0.39898
 H377 H -0.02314 0.81035 0.39765
 N378 N 0.00020 0.76949 0.39005
 C379 C -0.00421 0.70893 0.37880
 H380 H -0.00512 0.70952 0.36352
 C381 C -0.00559 0.69157 0.38809
 H382 H -0.00748 0.67870 0.37997
 C383 C -0.00087 0.72504 0.40808
 H384 H 0.00072 0.73816 0.41578
 C385 C -0.00219 0.70791 0.41796
 H386 H -0.00143 0.70782 0.43328
 Zn387 Zn -0.00079 0.74774 0.37442
 N388 N -0.00173 0.72519 0.38882
 C389 C 0.03391 0.73356 0.36027
 N390 N 0.02121 0.74800 0.35912
 C391 C 0.02471 0.76357 0.34829
 C392 C 0.04157 0.76502 0.33804
 C393 C 0.05091 0.73444 0.35025
 C394 C -0.03959 0.74622 0.36939
 C395 C -0.05686 0.74598 0.35985
 C396 C -0.03992 0.74930 0.33027
 C397 C -0.02290 0.74947 0.34042
 N398 N -0.02309 0.74813 0.35964
 H399 H 0.03116 0.72155 0.36933
 H400 H 0.01454 0.77502 0.34795
 H401 H 0.04438 0.77756 0.32965
 H402 H 0.06106 0.72300 0.35146
 H403 H -0.03927 0.74492 0.38464
 H404 H -0.06989 0.74455 0.36784
 H405 H -0.03965 0.75044 0.31497
 H406 H -0.00961 0.75060 0.33294
 C407 C -0.00455 0.69104 0.40783
 C408 C 0.00360 0.80275 0.41048
 C409 C -0.05706 0.74757 0.34011
 C410 C 0.05483 0.75035 0.33914
 C411 C 0.51687 0.27236 0.90113
 H412 H 0.52787 0.26172 0.90166
 C413 C 0.51874 0.28904 0.91163
 H414 H 0.53114 0.29123 0.92038
 C415 C 0.48762 0.28295 0.88850
 H416 H 0.47576 0.28082 0.87910
 C417 C 0.48892 0.29978 0.89875
 H418 H 0.47794 0.31040 0.89738
 N419 N 0.50147 0.26963 0.88987
 C420 C 0.49728 0.20904 0.87881
 H421 H 0.49640 0.20957 0.86353
 C422 C 0.49599 0.19170 0.88816
 H423 H 0.49419 0.17879 0.88009
 C424 C 0.50050 0.22527 0.90803
 H425 H 0.50202 0.23842 0.91569
 C426 C 0.49927 0.20817 0.91798
 H427 H 0.50001 0.20814 0.93329
 Zn428 Zn 0.50060 0.24784 0.87430
 N429 N 0.49967 0.22534 0.88878
 C430 C 0.53540 0.23369 0.86037
 N431 N 0.52267 0.24811 0.85912
 C432 C 0.52619 0.26364 0.84825
 C433 C 0.54309 0.26508 0.83805
 C434 C 0.55243 0.23456 0.85041
 C435 C 0.46183 0.24622 0.86907
 C436 C 0.44462 0.24593 0.85942
 C437 C 0.46171 0.24920 0.82995
 C438 C 0.47867 0.24943 0.84019
 N439 N 0.47838 0.24814 0.85942
 H440 H 0.53263 0.22171 0.86946
 H441 H 0.51601 0.27507 0.84781
 H442 H 0.54592 0.27759 0.82963
 H443 H 0.56258 0.22314 0.85170
 H444 H 0.46205 0.24496 0.88433
 H445 H 0.43151 0.24451 0.86725
 H446 H 0.46197 0.25031 0.81466
 H447 H 0.49200 0.25056 0.83278
 C448 C 0.49702 0.19125 0.90791
 C449 C 0.50466 0.30290 0.91032
 C450 C 0.44455 0.24747 0.83971
 C451 C 0.55636 0.25043 0.83926
 C452 C 0.51632 0.72685 0.59973
 H453 H 0.52767 0.73711 0.59891
 C454 C 0.51768 0.70976 0.58984
 H455 H 0.53004 0.70686 0.58125
 C456 C 0.48666 0.71765 0.61254
 H457 H 0.47484 0.72050 0.62178
 C458 C 0.48745 0.70044 0.60290
 H459 H 0.47612 0.69023 0.60457
 N460 N 0.50096 0.73047 0.61079
 C461 C 0.49861 0.79146 0.61984
 H462 H 0.49752 0.79141 0.63511
 C463 C 0.49801 0.80854 0.60997
 H464 H 0.49652 0.82174 0.61764
 C465 C 0.50170 0.77428 0.59115
 H466 H 0.50291 0.76086 0.58391
 C467 C 0.50116 0.79111 0.58070
 H468 H 0.50211 0.79067 0.56540
 Zn469 Zn 0.50073 0.75279 0.62561
 N470 N 0.50061 0.77481 0.61039
 C471 C 0.53587 0.76639 0.63917
 N472 N 0.52272 0.75241 0.64092
 C473 C 0.52577 0.73718 0.65236
 C474 C 0.54264 0.73563 0.66262
 C475 C 0.55287 0.76540 0.64917
 C476 C 0.46201 0.75587 0.63044
 C477 C 0.44474 0.75694 0.63990
 C478 C 0.46146 0.75393 0.66962
 C479 C 0.47850 0.75292 0.65957
 N480 N 0.47841 0.75370 0.64031
 H481 H 0.53348 0.77810 0.62963
 H482 H 0.51526 0.72607 0.65319
 H483 H 0.54510 0.72336 0.67149
 H484 H 0.56337 0.77647 0.64747
 H485 H 0.46241 0.75670 0.61516
 H486 H 0.43175 0.75851 0.63190
 H487 H 0.46155 0.75318 0.68493
 H488 H 0.49172 0.75156 0.66714
 C489 C 0.49933 0.80838 0.59024
 C490 C 0.50314 0.69641 0.59155
 C491 C 0.44445 0.75590 0.65965
 C492 C 0.55634 0.74984 0.66089
 C493 C 0.90388 0.98384 0.72750
 H494 H 0.90482 0.97247 0.73773
 C495 C 0.91379 0.98296 0.71134
 H496 H 0.92282 0.97090 0.70853
 C497 C 0.89003 1.01352 0.71903
 H498 H 0.88039 1.02507 0.72163
 C499 C 0.90072 1.01320 0.70114
 H500 H 0.89896 1.02472 0.69114
 N501 N 0.89172 0.99977 0.73124
 C502 C 0.88104 1.00372 0.79299
 H503 H 0.86588 1.00587 0.79249
 C504 C 0.89001 1.00345 0.80963
 H505 H 0.88211 1.00543 0.82262
 C506 C 0.90966 0.99863 0.77568
 H507 H 0.91717 0.99663 0.76252
 C508 C 0.92019 0.99821 0.79378
 H509 H 0.93535 0.99586 0.79366
 Zn510 Zn 0.87650 0.99997 0.75339
 N511 N 0.89134 1.00082 0.77568
 C512 C 0.86353 0.96528 0.76842
 N513 N 0.86174 0.97750 0.75360
 C514 C 0.85050 0.97329 0.73852
 C515 C 0.84035 0.95626 0.73809
 C516 C 0.85366 0.94818 0.76855
 C517 C 0.87046 1.03866 0.75585
 C518 C 0.86067 1.05577 0.75501
 C519 C 0.83172 1.03829 0.74974
 C520 C 0.84208 1.02143 0.75069
 N521 N 0.86117 1.02196 0.75336
 H522 H 0.87289 0.96854 0.78003
 H523 H 0.84962 0.98305 0.72674
 H524 H 0.83153 0.95291 0.72599
 H525 H 0.85532 0.93851 0.78034
 H526 H 0.88561 1.03864 0.75808
 H527 H 0.86828 1.06900 0.75665
 H528 H 0.81659 1.03784 0.74727
 H529 H 0.83492 1.00802 0.74901
 C530 C 0.91067 1.00029 0.81008
 C531 C 0.91206 0.99849 0.69736
 C532 C 0.84117 1.05561 0.75172
 C533 C 0.84201 0.94359 0.75325
 C534 C 0.40154 0.48454 0.22707
 H535 H 0.40251 0.47323 0.23737
 C536 C 0.41211 0.48365 0.21033
 H537 H 0.42132 0.47167 0.20775
 C538 C 0.38789 0.51367 0.21743
 H539 H 0.37813 0.52515 0.21992
 C540 C 0.39817 0.51333 0.20059
 H541 H 0.39642 0.52464 0.19036
 N542 N 0.38980 0.49948 0.23034
 C543 C 0.37964 0.50364 0.29113
 H544 H 0.36442 0.50531 0.29071
 C545 C 0.38908 0.50375 0.30846
 H546 H 0.38114 0.50554 0.32145
 C547 C 0.40855 0.49899 0.27470
 H548 H 0.41606 0.49716 0.26151
 C549 C 0.41858 0.49899 0.29179
 H550 H 0.43379 0.49708 0.29175
 Zn551 Zn 0.37455 0.49980 0.25245
 N552 N 0.38938 0.50095 0.27474
 C553 C 0.36178 0.46504 0.26757
 N554 N 0.35987 0.47728 0.25278
 C555 C 0.34861 0.47302 0.23773
 C556 C 0.33856 0.45593 0.23730
 C557 C 0.35201 0.44788 0.26770
 C558 C 0.36849 0.53848 0.25439
 C559 C 0.35867 0.55557 0.25350
 C560 C 0.32968 0.53803 0.24870
 C561 C 0.34007 0.52118 0.24969
 N562 N 0.35918 0.52175 0.25217
 H563 H 0.37118 0.46833 0.27916
 H564 H 0.34764 0.48278 0.22596
 H565 H 0.32974 0.45254 0.22522
 H566 H 0.35377 0.43820 0.27947
 H567 H 0.38366 0.53849 0.25648
 H568 H 0.36628 0.56882 0.25496
 H569 H 0.31452 0.53754 0.24643
 H570 H 0.33291 0.50774 0.24825
 C571 C 0.40869 0.50121 0.30881
 C572 C 0.41034 0.49819 0.19698
 C573 C 0.33914 0.55536 0.25045
 C574 C 0.34035 0.44325 0.25243
 C575 C 0.59822 0.98753 0.27481
 H576 H 0.59670 0.97585 0.26502
 C577 C 0.58877 0.98743 0.29127
 H578 H 0.57955 0.97567 0.29476
 C579 C 0.61300 1.01716 0.28182
 H580 H 0.62276 1.02842 0.27849
 C581 C 0.60285 1.01767 0.30001
 H582 H 0.60513 1.02950 0.30953
 N583 N 0.61057 1.00308 0.27013
 C584 C 0.61764 1.00472 0.20879
 H585 H 0.63286 1.00639 0.20832
 C586 C 0.60729 1.00409 0.19200
 H587 H 0.61452 1.00533 0.17854
 C588 C 0.58965 1.00076 0.22692
 H589 H 0.58286 0.99948 0.24055
 C590 C 0.57872 1.00004 0.21040
 H591 H 0.56354 0.99814 0.21134
 Zn592 Zn 0.62474 1.00239 0.24731
 N593 N 0.60879 1.00271 0.22577
 C594 C 0.63674 0.96709 0.23292
 N595 N 0.63929 0.97980 0.24718
 C596 C 0.65132 0.97609 0.26179
 C597 C 0.66157 0.95914 0.26224
 C598 C 0.64669 0.95004 0.23283
 C599 C 0.63104 1.04094 0.24342
 C600 C 0.64101 1.05798 0.24344
 C601 C 0.67002 1.04033 0.24779
 C602 C 0.65946 1.02356 0.24767
 N603 N 0.64027 1.02422 0.24589
 H604 H 0.62677 0.96994 0.22171
 H605 H 0.65280 0.98624 0.27316
 H606 H 0.67106 0.95623 0.27393
 H607 H 0.64447 0.94000 0.22145
 H608 H 0.61580 1.04102 0.24191
 H609 H 0.63342 1.07122 0.24189
 H610 H 0.68524 1.03974 0.24962
 H611 H 0.66655 1.01012 0.24933
 C612 C 0.58769 1.00153 0.19280
 C613 C 0.59125 1.00339 0.30461
 C614 C 0.66065 1.05770 0.24589
 C615 C 0.65919 0.94601 0.24759
 C616 C 0.09813 0.48745 0.77345
 H617 H 0.09653 0.47575 0.76370
 C618 C 0.08833 0.48739 0.79066
 H619 H 0.07906 0.47568 0.79417
 C620 C 0.11258 0.51676 0.78119
 H621 H 0.12235 0.52799 0.77776
 C622 C 0.10308 0.51726 0.79848
 H623 H 0.10542 0.52896 0.80810
 N624 N 0.10988 0.50208 0.76899
 C625 C 0.11674 0.50390 0.70760
 H626 H 0.13197 0.50553 0.70712
 C627 C 0.10637 0.50337 0.69083
 H628 H 0.11359 0.50463 0.67736
 C629 C 0.08876 0.49999 0.72575
 H630 H 0.08198 0.49869 0.73939
 C631 C 0.07781 0.49936 0.70925
 H632 H 0.06262 0.49751 0.71020
 Zn633 Zn 0.12393 0.50145 0.74609
 N634 N 0.10791 0.50187 0.72459
 C635 C 0.13593 0.46620 0.73154
 N636 N 0.13849 0.47887 0.74584
 C637 C 0.15053 0.47512 0.76042
 C638 C 0.16082 0.45819 0.76079
 C639 C 0.14591 0.44917 0.73137
 C640 C 0.13023 0.54002 0.74242
 C641 C 0.14022 0.55705 0.74258
 C642 C 0.16921 0.53935 0.74676
 C643 C 0.15864 0.52259 0.74650
 N644 N 0.13946 0.52327 0.74475
 H645 H 0.12594 0.46907 0.72035
 H646 H 0.15202 0.48523 0.77183
 H647 H 0.17033 0.45525 0.77246
 H648 H 0.14370 0.43916 0.71995
 H649 H 0.11498 0.54012 0.74094
 H650 H 0.13268 0.57033 0.74117
 H651 H 0.18442 0.53879 0.74858
 H652 H 0.16574 0.50913 0.74805
 C653 C 0.08676 0.50087 0.69164
 C654 C 0.09087 0.50246 0.80328
 C655 C 0.15984 0.55673 0.74502
 C656 C 0.15845 0.44511 0.74610
 C657 C 0.77409 0.90264 0.01401
 H658 H 0.76388 0.90383 0.02535
 C659 C 0.79090 0.91313 0.01465
 H660 H 0.79363 0.92251 0.02646
 C661 C 0.78346 0.88849 -0.01494
 H662 H 0.78083 0.87857 -0.02625
 C663 C 0.80036 0.89869 -0.01485
 H664 H 0.81051 0.89671 -0.02618
 N665 N 0.77065 0.89069 -0.00072
 C666 C 0.70979 0.88084 -0.00465
 H667 H 0.71014 0.86561 -0.00626
 C668 C 0.69250 0.89033 -0.00470
 H669 H 0.67947 0.88241 -0.00640
 C670 C 0.72634 0.90974 -0.00012
 H671 H 0.73956 0.91721 0.00167
 C672 C 0.70928 0.91981 -0.00006
 H673 H 0.70938 0.93503 0.00185
 Zn674 Zn 0.74841 0.87559 -0.00076
 N675 N 0.72622 0.89055 -0.00203
 C676 C 0.73323 0.86337 0.03412
 N677 N 0.74800 0.86119 0.02193
 C678 C 0.76290 0.84976 0.02631
 C679 C 0.76316 0.83980 0.04345
 C680 C 0.73293 0.85369 0.05132
 C681 C 0.74623 0.86906 -0.03932
 C682 C 0.74700 0.85904 -0.05628
 C683 C 0.75170 0.83021 -0.03840
 C684 C 0.75083 0.84082 -0.02169
 N685 N 0.74847 0.85994 -0.02249
 H686 H 0.72177 0.87288 0.03074
 H687 H 0.77466 0.84858 0.01658
 H688 H 0.77510 0.83083 0.04692
 H689 H 0.72116 0.85565 0.06095
 H690 H 0.74423 0.88425 -0.03951
 H691 H 0.74554 0.86650 -0.06961
 H692 H 0.75390 0.81505 -0.03774
 H693 H 0.75229 0.83380 -0.00818
 C694 C 0.69221 0.90994 -0.00216
 C695 C 0.80415 0.91107 0.00007
 C696 C 0.74996 0.83948 -0.05584
 C697 C 0.74802 0.84184 0.05606
 C698 C 0.27217 0.40143 0.51358
 H699 H 0.26183 0.40237 0.52483
 C700 C 0.28891 0.41199 0.51460
 H701 H 0.29146 0.42118 0.52661
 C702 C 0.28194 0.38784 0.48449
 H703 H 0.27948 0.37811 0.47299
 C704 C 0.29878 0.39812 0.48496
 H705 H 0.30907 0.39640 0.47371
 N706 N 0.26896 0.38972 0.49861
 C707 C 0.20817 0.37970 0.49405
 H708 H 0.20855 0.36449 0.49230
 C709 C 0.19086 0.38917 0.49399
 H710 H 0.17785 0.38126 0.49214
 C711 C 0.22466 0.40857 0.49894
 H712 H 0.23786 0.41604 0.50087
 C713 C 0.20759 0.41862 0.49899
 H714 H 0.20767 0.43382 0.50104
 Zn715 Zn 0.24681 0.37451 0.49814
 N716 N 0.22457 0.38940 0.49685
 C717 C 0.23143 0.36182 0.53278
 N718 N 0.24629 0.35986 0.52067
 C719 C 0.26128 0.34855 0.52505
 C720 C 0.26157 0.33851 0.54215
 C721 C 0.23116 0.35205 0.54994
 C722 C 0.24509 0.36835 0.45947
 C723 C 0.24598 0.35845 0.44243
 C724 C 0.25045 0.32948 0.46012
 C725 C 0.24946 0.33996 0.47691
 N726 N 0.24714 0.35909 0.47624
 H727 H 0.21990 0.37124 0.52941
 H728 H 0.27310 0.34755 0.51538
 H729 H 0.27359 0.32966 0.54563
 H730 H 0.21933 0.35386 0.55953
 H731 H 0.24311 0.38354 0.45938
 H732 H 0.24463 0.36602 0.42915
 H733 H 0.25259 0.31430 0.46069
 H734 H 0.25078 0.33283 0.49038
 C735 C 0.19055 0.40877 0.49670
 C736 C 0.30234 0.41026 0.50014
 C737 C 0.24886 0.33889 0.44274
 C738 C 0.24636 0.34035 0.55470
 C739 C 0.22549 0.59791 0.01250
 H740 H 0.23519 0.59622 0.02423
 C741 C 0.20823 0.58816 0.01243
 H742 H 0.20468 0.57884 0.02410
 C743 C 0.21789 0.61258 -0.01674
 H744 H 0.22139 0.62242 -0.02788
 C745 C 0.20056 0.60314 -0.01737
 H746 H 0.19100 0.60563 -0.02912
 N747 N 0.23003 0.60975 -0.00203
 C748 C 0.29142 0.61671 -0.00342
 H749 H 0.29189 0.63196 -0.00491
 C750 C 0.30821 0.60636 -0.00289
 H751 H 0.32167 0.61363 -0.00403
 C752 C 0.27328 0.58865 0.00017
 H753 H 0.25965 0.58183 0.00134
 C754 C 0.28980 0.57772 0.00078
 H755 H 0.28886 0.56251 0.00249
 Zn756 Zn 0.25292 0.62381 -0.00114
 N757 N 0.27443 0.60783 -0.00155
 C758 C 0.26727 0.63554 0.03429
 N759 N 0.25304 0.63819 0.02154
 C760 C 0.23843 0.65018 0.02528
 C761 C 0.23794 0.66031 0.04230
 C762 C 0.26732 0.64536 0.05140
 C763 C 0.25681 0.63042 -0.03961
 C764 C 0.25675 0.64055 -0.05655
 C765 C 0.25247 0.66941 -0.03869
 C766 C 0.25262 0.65871 -0.02200
 N767 N 0.25438 0.63953 -0.02282
 H768 H 0.27848 0.62559 0.03141
 H769 H 0.22708 0.65174 0.01511
 H770 H 0.22624 0.66978 0.04523
 H771 H 0.27867 0.64307 0.06147
 H772 H 0.25829 0.61518 -0.03981
 H773 H 0.25825 0.63311 -0.06987
 H774 H 0.25064 0.68463 -0.03802
 H775 H 0.25099 0.66571 -0.00852
 C776 C 0.30741 0.58673 -0.00057
 C777 C 0.19565 0.59084 -0.00266
 C778 C 0.25432 0.66018 -0.05611
 C779 C 0.25254 0.65784 0.05546
 C780 C 0.72632 0.09938 0.51273
 H781 H 0.73611 0.09780 0.52441
 C782 C 0.70911 0.08956 0.51284
 H783 H 0.70564 0.08029 0.52457
 C784 C 0.71848 0.11380 0.48344
 H785 H 0.72188 0.12356 0.47218
 C786 C 0.70119 0.10428 0.48299
 H787 H 0.69152 0.10660 0.47131
 N788 N 0.73073 0.11112 0.49808
 C789 C 0.79213 0.11791 0.49610
 H790 H 0.79266 0.13314 0.49450
 C791 C 0.80887 0.10748 0.49662
 H792 H 0.82236 0.11467 0.49537
 C793 C 0.77388 0.08996 0.50000
 H794 H 0.76022 0.08321 0.50129
 C795 C 0.79035 0.07896 0.50061
 H796 H 0.78934 0.06376 0.50245
 Zn797 Zn 0.75364 0.12517 0.49867
 N798 N 0.77511 0.10912 0.49814
 C799 C 0.76833 0.13695 0.53395
 N800 N 0.75401 0.13962 0.52132
 C801 C 0.73943 0.15162 0.52520
 C802 C 0.73906 0.16169 0.54226
 C803 C 0.76851 0.14671 0.55109
 C804 C 0.75721 0.13159 0.46014
 C805 C 0.75700 0.14163 0.44314
 C806 C 0.75282 0.17058 0.46089
 C807 C 0.75312 0.15997 0.47763
 N808 N 0.75490 0.14078 0.47690
 H809 H 0.77952 0.12699 0.53096
 H810 H 0.72800 0.15319 0.51513
 H811 H 0.72738 0.17113 0.54531
 H812 H 0.77993 0.14438 0.56107
 H813 H 0.75871 0.11635 0.46000
 H814 H 0.75841 0.13412 0.42985
 H815 H 0.75098 0.18580 0.46148
 H816 H 0.75158 0.16703 0.49109
 C817 C 0.80799 0.08787 0.49911
 C818 C 0.69645 0.09207 0.49781
 C819 C 0.75455 0.16126 0.44349
 C820 C 0.75376 0.15916 0.55531
 C821 C 0.98668 0.72682 0.90290
 H822 H 0.97495 0.73655 0.90442
 C823 C 0.98666 0.71033 0.91231
 H824 H 0.97493 0.70674 0.92152
 C825 C 1.01634 0.72001 0.88815
 H826 H 1.02756 0.72341 0.87839
 C827 C 1.01694 0.70178 0.89827
 H828 H 1.02881 0.69232 0.89597
 N829 N 1.00219 0.73161 0.89056
 C830 C 1.00362 0.79391 0.88248
 H831 H 1.00546 0.79419 0.86727
 C832 C 1.00294 0.81010 0.89221
 H833 H 1.00427 0.82352 0.88487
 C834 C 0.99981 0.77512 0.91039
 H835 H 0.99849 0.76156 0.91734
 C836 C 0.99896 0.79269 0.92174
 H837 H 0.99696 0.79179 0.93692
 Zn838 Zn 1.00131 0.75439 0.87627
 N839 N 1.00159 0.77603 0.89205
 C840 C 0.96599 0.76866 0.86421
 N841 N 0.97867 0.75434 0.86182
 C842 C 0.97491 0.73958 0.85002
 C843 C 0.95792 0.73901 0.83984
 C844 C 0.94891 0.76864 0.85433
 C845 C 1.03978 0.75848 0.86970
 C846 C 1.05673 0.75836 0.85961
 C847 C 1.03890 0.75356 0.83080
 C848 C 1.02221 0.75378 0.84146
 N849 N 1.02301 0.75582 0.86061
 H850 H 0.96891 0.78001 0.87400
 H851 H 0.98504 0.72817 0.84866
 H852 H 0.95496 0.72719 0.83052
 H853 H 0.93889 0.78007 0.85641
 H854 H 1.03997 0.76018 0.88492
 H855 H 1.07004 0.76003 0.86705
 H856 H 1.03826 0.75149 0.81562
 H857 H 1.00874 0.75196 0.83447
 C858 C 1.00024 0.80949 0.91293
 C859 C 1.00268 0.69706 0.90983
 C860 C 1.05631 0.75563 0.84003
 C861 C 0.94482 0.75370 0.84205
 C862 C 0.48678 0.22618 0.40068
 H863 H 0.47504 0.23588 0.40226
 C864 C 0.48685 0.20899 0.41055
 H865 H 0.47518 0.20544 0.41985
 C866 C 0.51610 0.21855 0.38623
 H867 H 0.52729 0.22203 0.37644
 C868 C 0.51672 0.20129 0.39580
 H869 H 0.52847 0.19172 0.39348
 N870 N 0.50137 0.23069 0.38890
 C871 C 0.50281 0.29209 0.38207
 H872 H 0.50430 0.29264 0.36684
 C873 C 0.50231 0.30883 0.39250
 H874 H 0.50344 0.32234 0.38530
 C875 C 0.49927 0.27381 0.41004
 H876 H 0.49812 0.26014 0.41680
 C877 C 0.49868 0.29028 0.42104
 H878 H 0.49700 0.28926 0.43624
 Zn879 Zn 0.50058 0.25359 0.37485
 N880 N 0.50095 0.27505 0.39088
 C881 C 0.46521 0.26795 0.36296
 N882 N 0.47796 0.25374 0.36035
 C883 C 0.47426 0.23913 0.34833
 C884 C 0.45727 0.23864 0.33814
 C885 C 0.44812 0.26800 0.35307
 C886 C 0.53907 0.25749 0.36852
 C887 C 0.55608 0.25745 0.35853
 C888 C 0.53839 0.25318 0.32954
 C889 C 0.52164 0.25332 0.34011
 N890 N 0.52234 0.25506 0.35929
 H891 H 0.46806 0.27916 0.37293
 H892 H 0.48444 0.22780 0.34680
 H893 H 0.45437 0.22694 0.32865
 H894 H 0.43805 0.27934 0.35534
 H895 H 0.53918 0.25896 0.38376
 H896 H 0.56935 0.25894 0.36607
 H897 H 0.53783 0.25136 0.31433
 H898 H 0.50820 0.25169 0.33302
 C899 C 0.50003 0.30793 0.41212
 C900 C 0.50198 0.19645 0.40805
 C901 C 0.55576 0.25503 0.33891
 C902 C 0.44410 0.25323 0.34057
 C903 C 0.98571 0.27315 0.59768
 H904 H 0.97443 0.26283 0.59678
 C905 C 0.98467 0.28993 0.58714
 H906 H 0.97260 0.29246 0.57802
 C907 C 1.01491 0.28284 0.61113
 H908 H 1.02647 0.28035 0.62079
 C909 C 1.01444 0.29972 0.60088
 H910 H 1.02576 0.30995 0.60259
 N911 N 1.00074 0.26989 0.60930
 C912 C 1.00523 0.20904 0.61933
 H913 H 1.00714 0.20945 0.63452
 C914 C 1.00518 0.19170 0.60991
 H915 H 1.00710 0.17870 0.61784
 C916 C 1.00005 0.22547 0.59048
 H917 H 0.99806 0.23866 0.58300
 C918 C 0.99989 0.20836 0.58048
 H919 H 0.99770 0.20840 0.56530
 Zn920 Zn 1.00129 0.24770 0.62450
 N921 N 1.00234 0.22543 0.60962
 C922 C 0.96675 0.23237 0.63755
 N923 N 0.97893 0.24722 0.63940
 C924 C 0.97473 0.26217 0.65081
 C925 C 0.95780 0.26242 0.66110
 C926 C 0.94975 0.23206 0.64756
 C927 C 1.04003 0.24588 0.63025
 C928 C 1.05720 0.24670 0.63994
 C929 C 1.03987 0.25118 0.66911
 C930 C 1.02295 0.25025 0.65882
 N931 N 1.02338 0.24797 0.63969
 H932 H 0.96996 0.22087 0.62804
 H933 H 0.98444 0.27398 0.65174
 H934 H 0.95448 0.27441 0.67006
 H935 H 0.94011 0.22024 0.64585
 H936 H 1.03993 0.24392 0.61506
 H937 H 1.07036 0.24532 0.63219
 H938 H 1.03944 0.25329 0.68430
 H939 H 1.00957 0.25159 0.66609
 C940 C 1.00228 0.19133 0.59035
 C941 C 0.99919 0.30334 0.58881
 C942 C 1.05715 0.24956 0.65953
 C943 C 0.94519 0.24721 0.65939
 C944 C 0.48495 0.77277 0.09870
 H945 H 0.47366 0.76247 0.09769
 C946 C 0.48402 0.78958 0.08822
 H947 H 0.47204 0.79222 0.07902
 C948 C 0.51409 0.78235 0.11236
 H949 H 0.52559 0.77980 0.12208
 C950 C 0.51372 0.79925 0.10216
 H951 H 0.52503 0.80948 0.10394
 N952 N 0.49991 0.76943 0.11040
 C953 C 0.50428 0.70852 0.12012
 H954 H 0.50608 0.70883 0.13533
 C955 C 0.50433 0.69125 0.11058
 H956 H 0.50620 0.67820 0.11843
 C957 C 0.49935 0.72515 0.09135
 H958 H 0.49743 0.73839 0.08394
 C959 C 0.49929 0.70812 0.08122
 H960 H 0.49724 0.70827 0.06603
 Zn961 Zn 0.50036 0.74717 0.12550
 N962 N 0.50148 0.72498 0.11051
 C963 C 0.46574 0.73182 0.13831
 N964 N 0.47792 0.74664 0.14029
 C965 C 0.47367 0.76156 0.15172
 C966 C 0.45665 0.76182 0.16187
 C967 C 0.44865 0.73151 0.14818
 C968 C 0.53907 0.74525 0.13135
 C969 C 0.55622 0.74616 0.14107
 C970 C 0.53887 0.75077 0.17018
 C971 C 0.52196 0.74976 0.15989
 N972 N 0.52241 0.74738 0.14076
 H973 H 0.46900 0.72035 0.12879
 H974 H 0.48339 0.77336 0.15275
 H975 H 0.45327 0.77379 0.17083
 H976 H 0.43901 0.71971 0.14636
 H977 H 0.53899 0.74324 0.11617
 H978 H 0.56942 0.74478 0.13337
 H979 H 0.53848 0.75299 0.18534
 H980 H 0.50857 0.75115 0.16713
 C981 C 0.50161 0.69102 0.09099
 C982 C 0.49856 0.80294 0.09002
 C983 C 0.55614 0.74913 0.16061
 C984 C 0.44403 0.74664 0.16002
 O985 O 0.04096 1.03740 1.00012
 O986 O 0.02614 1.03930 0.96979
 O987 O -0.00529 1.04488 1.03882
 O988 O -0.03299 1.03099 1.04530
 O989 O 0.03462 0.99873 1.04649
 O990 O 0.03654 0.96859 1.03302
 O991 O -0.05525 0.99284 0.99119
 O992 O -0.05558 1.02372 1.00126
 O993 O -0.01113 0.98825 0.95099
 O994 O 0.02020 0.99834 0.95021
 O995 O -0.01470 0.94849 0.99500
 O996 O -0.00679 0.94810 1.02819
 O997 O -0.04452 0.96673 1.00686
 O998 O -0.02850 0.96297 1.03846
 O999 O 0.00088 0.95890 0.96878
 O1000 O 0.03132 0.97228 0.96644
 O1001 O -0.03750 1.00338 0.96170
 O1002 O -0.03754 1.03570 0.97516
 O1003 O 0.05188 1.01113 1.01539
 O1004 O 0.05081 0.97750 1.00608
 O1005 O 0.00831 1.01390 1.05735
 O1006 O -0.02543 1.00416 1.05660
 O1007 O 0.01113 1.05526 1.01304
 O1008 O -0.00212 1.05356 0.98073
 Zr1009 Zr 0.01220 1.03140 0.99524
 O1010 O -0.00471 1.01456 0.97744
 Zr1011 Zr -0.00993 1.01584 1.03377
 O1012 O -0.02822 0.99896 1.01733
 Zr1013 Zr 0.02813 0.99318 1.01800
 O1014 O 0.01142 0.97504 1.00129
 Zr1015 Zr -0.03124 1.01032 0.99002
 O1016 O -0.01496 1.02866 1.00732
 Zr1017 Zr 0.00684 0.98741 0.97469
 O1018 O 0.02520 1.00488 0.99074
 Zr1019 Zr -0.01581 0.97229 1.01296
 O1020 O 0.00172 0.98860 1.03106
 O1021 O 0.01662 1.01993 1.02203
 O1022 O -0.02012 0.98327 0.98595
 C1023 C 0.05413 1.02752 1.00782
 C1024 C 0.00317 1.05779 1.02917
 C1025 C 0.02481 1.00658 1.05960
 C1026 C -0.05752 0.97638 0.99856
 C1027 C -0.02777 0.99518 0.94874
 C1028 C -0.00745 0.94604 0.97853
 H1029 H -0.00586 1.02086 0.96497
 H1030 H 0.01795 0.96272 1.00007
 H1031 H 0.02476 1.02809 1.02999
 H1032 H -0.04061 0.99803 1.02375
 H1033 H -0.05124 1.03580 1.00692
 H1034 H -0.04407 1.02822 1.03721
 H1035 H 0.04230 0.97934 0.97152
 H1036 H 0.06230 0.97942 1.01394
 H1037 H -0.05005 1.03414 0.96897
 H1038 H 0.00520 1.06548 0.98199
 H1039 H 0.00606 0.94484 1.02368
 H1040 H 0.02583 0.96495 1.04130
 H1041 H 0.03199 1.05197 0.97147
 H1042 H 0.03013 1.00714 0.95470
 H1043 H -0.01908 0.99217 1.06015
 H1044 H -0.03936 0.97138 1.04116
 O1045 O 0.48725 0.48822 0.45068
 O1046 O 0.51945 0.49831 0.45087
 O1047 O 0.48515 0.44731 0.49590
 O1048 O 0.49076 0.44633 0.52694
 O1049 O 0.44284 0.49215 0.49201
 O1050 O 0.44306 0.52363 0.50193
 O1051 O 0.53359 0.49842 0.54586
 O1052 O 0.53530 0.46843 0.53319
 O1053 O 0.53903 0.53692 0.50063
 O1054 O 0.52542 0.53911 0.47058
 O1055 O 0.49497 0.54373 0.53946
 O1056 O 0.46449 0.52896 0.54474
 O1057 O 0.50754 0.51394 0.55685
 O1058 O 0.47304 0.50500 0.55721
 O1059 O 0.50989 0.55437 0.51294
 O1060 O 0.49877 0.55458 0.48148
 O1061 O 0.54990 0.51110 0.51663
 O1062 O 0.54932 0.47847 0.50393
 O1063 O 0.46141 0.50429 0.46140
 O1064 O 0.45883 0.53540 0.47706
 O1065 O 0.45360 0.46624 0.50797
 O1066 O 0.46982 0.46389 0.53911
 O1067 O 0.49919 0.45799 0.46887
 O1068 O 0.53095 0.47251 0.46888
 Zr1069 Zr 0.50500 0.48665 0.47455
 O1070 O 0.52301 0.50415 0.49054
 Zr1071 Zr 0.48256 0.47155 0.51308
 O1072 O 0.50026 0.48792 0.53064
 Zr1073 Zr 0.46688 0.50962 0.49029
 O1074 O 0.48355 0.52764 0.50721
 Zr1075 Zr 0.52658 0.49253 0.51762
 O1076 O 0.50976 0.47396 0.50115
 Zr1077 Zr 0.51049 0.53061 0.49511
 O1078 O 0.49323 0.51400 0.47706
 Zr1079 Zr 0.48867 0.51514 0.53372
 O1080 O 0.46992 0.49809 0.51762
 O1081 O 0.47826 0.48279 0.48632
 O1082 O 0.51533 0.51947 0.52200
 C1083 C 0.47105 0.49611 0.44834
 C1084 C 0.49201 0.44489 0.47923
 C1085 C 0.44050 0.47594 0.49990
 C1086 C 0.52415 0.50681 0.55890
 C1087 C 0.55206 0.52752 0.50912
 C1088 C 0.50313 0.55666 0.52963
 H1089 H 0.53525 0.50546 0.48384
 H1090 H 0.47716 0.54006 0.50831
 H1091 H 0.47011 0.47462 0.47837
 H1092 H 0.50184 0.48140 0.54293
 H1093 H 0.53227 0.45725 0.52530
 H1094 H 0.50249 0.44926 0.53397
 H1095 H 0.49090 0.54974 0.47096
 H1096 H 0.44703 0.53326 0.46973
 H1097 H 0.56053 0.47906 0.51237
 H1098 H 0.52958 0.46469 0.45731
 H1099 H 0.46008 0.53810 0.53508
 H1100 H 0.44155 0.51893 0.51505
 H1101 H 0.51885 0.48923 0.44018
 H1102 H 0.51904 0.53297 0.45974
 H1103 H 0.45987 0.47339 0.54172
 H1104 H 0.47953 0.49358 0.56208
 O1105 O 0.46583 0.00537 0.54031
 O1106 O 0.46357 0.03568 0.52542
 O1107 O 0.45959 -0.03352 0.49403
 O1108 O 0.47396 -0.03994 0.46662
 O1109 O 0.50550 -0.04015 0.53456
 O1110 O 0.53533 -0.02598 0.53676
 O1111 O 0.51112 0.01486 0.44452
 O1112 O 0.48046 0.00421 0.44396
 O1113 O 0.51450 0.05544 0.48846
 O1114 O 0.50412 0.05615 0.51970
 O1115 O 0.55515 0.01223 0.48562
 O1116 O 0.55614 -0.02089 0.49363
 O1117 O 0.53743 -0.00018 0.45560
 O1118 O 0.54170 -0.03160 0.47186
 O1119 O 0.54413 0.03831 0.50099
 O1120 O 0.53035 0.04054 0.53119
 O1121 O 0.49985 0.04426 0.46200
 O1122 O 0.46784 0.03015 0.46173
 O1123 O 0.49229 -0.00929 0.55157
 O1124 O 0.52570 0.00080 0.55084
 O1125 O 0.49076 -0.05141 0.50816
 O1126 O 0.50087 -0.05059 0.47454
 O1127 O 0.44853 -0.00792 0.51024
 O1128 O 0.44977 0.02442 0.49704
 Zr1129 Zr 0.47205 0.01035 0.51160
 O1130 O 0.48869 0.02844 0.49478
 Zr1131 Zr 0.48857 -0.02793 0.48980
 O1132 O 0.50530 -0.01121 0.47162
 Zr1133 Zr 0.51052 -0.01155 0.52803
 O1134 O 0.52848 0.00550 0.51144
 Zr1135 Zr 0.49343 0.01584 0.46835
 O1136 O 0.47530 -0.00177 0.48452
 Zr1137 Zr 0.51566 0.03184 0.50659
 O1138 O 0.49834 0.01547 0.52485
 Zr1139 Zr 0.53174 -0.00622 0.48430
 O1140 O 0.51562 -0.02462 0.50173
 O1141 O 0.48398 -0.01619 0.51625
 O1142 O 0.52029 0.02055 0.47972
 C1143 C 0.47572 -0.00210 0.55361
 C1144 C 0.44640 -0.02410 0.50226
 C1145 C 0.49798 -0.05345 0.52473
 C1146 C 0.52772 0.00779 0.44244
 C1147 C 0.50767 0.05746 0.47174
 C1148 C 0.55725 0.02876 0.49287
 H1149 H 0.48216 0.04077 0.49351
 H1150 H 0.54070 0.00699 0.51811
 H1151 H 0.47588 -0.02431 0.52432
 H1152 H 0.50647 -0.01769 0.45928
 H1153 H 0.46846 -0.00167 0.44821
 H1154 H 0.47659 -0.03178 0.45555
 H1155 H 0.52332 0.03531 0.54212
 H1156 H 0.52384 -0.00707 0.56234
 H1157 H 0.46937 0.03630 0.44920
 H1158 H 0.43782 0.02296 0.50425
 H1159 H 0.55914 -0.01632 0.50651
 H1160 H 0.53922 -0.03426 0.52615
 H1161 H 0.45089 0.03376 0.53115
 H1162 H 0.49533 0.05152 0.52957
 H1163 H 0.51283 -0.05388 0.48106
 H1164 H 0.53344 -0.03455 0.46095
 O1165 O 0.00476 0.46055 1.03401
 O1166 O 0.03511 0.47532 1.03625
 O1167 O -0.03394 0.50698 1.04035
 O1168 O -0.04030 0.53446 1.02601
 O1169 O -0.04080 0.46654 0.99442
 O1170 O -0.02674 0.46438 0.96456
 O1171 O 0.01448 0.55645 0.98884
 O1172 O 0.00394 0.55698 1.01950
 O1173 O 0.05489 0.51232 0.98533
 O1174 O 0.05550 0.48104 0.99567
 O1175 O 0.01161 0.51542 0.94473
 O1176 O -0.02149 0.50760 0.94376
 O1177 O -0.00066 0.54549 0.96254
 O1178 O -0.03213 0.52932 0.95829
 O1179 O 0.03764 0.49990 0.95571
 O1180 O 0.03980 0.46968 0.96945
 O1181 O 0.04386 0.53881 1.00003
 O1182 O 0.02981 0.53905 1.03206
 O1183 O -0.00998 0.44940 1.00756
 O1184 O 0.00002 0.45017 0.97413
 O1185 O -0.05194 0.49296 1.00920
 O1186 O -0.05102 0.52663 0.99910
 O1187 O -0.00838 0.49064 1.05135
 O1188 O 0.02399 0.50373 1.05009
 Zr1189 Zr 0.00983 0.48926 1.02781
 O1190 O 0.02793 0.50605 1.01117
 Zr1191 Zr -0.02840 0.51125 1.01136
 O1192 O -0.01165 0.52941 0.99465
 Zr1193 Zr -0.01221 0.47300 0.98935
 O1194 O 0.00484 0.48958 0.97140
 Zr1195 Zr 0.01543 0.53255 1.00648
 O1196 O -0.00220 0.51640 1.02461
 Zr1197 Zr 0.03122 0.49429 0.98418
 O1198 O 0.01484 0.47605 1.00150
 Zr1199 Zr -0.00677 0.51678 0.96818
 O1200 O -0.02519 0.49937 0.98430
 O1201 O -0.01674 0.48474 1.01591
 O1202 O 0.02004 0.52123 0.97960
 C1203 C -0.00277 0.44729 1.02412
 C1204 C -0.02452 0.49868 1.05352
 C1205 C -0.05405 0.47639 1.00199
 C1206 C 0.00737 0.55861 0.97225
 C1207 C 0.05700 0.52902 0.99219
 C1208 C 0.02809 0.50809 0.94260
 H1209 H 0.04028 0.50726 1.01768
 H1210 H 0.00628 0.48292 0.95917
 H1211 H -0.02486 0.47668 1.02402
 H1212 H -0.01808 0.54179 0.99350
 H1213 H -0.00194 0.55272 1.03149
 H1214 H -0.03209 0.54549 1.02342
 H1215 H 0.03454 0.45875 0.97648
 H1216 H -0.00789 0.43869 0.97598
 H1217 H 0.03602 0.55156 1.03053
 H1218 H 0.02253 0.49649 1.06203
 H1219 H -0.01706 0.49465 0.94080
 H1220 H -0.03500 0.47502 0.96071
 H1221 H 0.03320 0.46957 1.04892
 H1222 H 0.05085 0.47117 1.00446
 H1223 H -0.05438 0.52012 0.98716
 H1224 H -0.03501 0.54025 0.96655
 O1225 O 0.04882 0.48729 0.51104
 O1226 O 0.04867 0.51949 0.50095
 O1227 O 0.00358 0.48530 0.55193
 O1228 O -0.02745 0.49088 0.55286
 O1229 O 0.00742 0.44286 0.50719
 O1230 O -0.00254 0.44305 0.47573
 O1231 O -0.04631 0.53366 0.50071
 O1232 O -0.03362 0.53543 0.53068
 O1233 O -0.00107 0.53905 0.46225
 O1234 O 0.02897 0.52540 0.46013
 O1235 O -0.03996 0.49497 0.45548
 O1236 O -0.04527 0.46449 0.47029
 O1237 O -0.05734 0.50758 0.48523
 O1238 O -0.05775 0.47310 0.49419
 O1239 O -0.01342 0.50986 0.44485
 O1240 O 0.01803 0.49873 0.44470
 O1241 O -0.01706 0.54996 0.48802
 O1242 O -0.00436 0.54943 0.52065
 O1243 O 0.03805 0.46142 0.49502
 O1244 O 0.02237 0.45877 0.46395
 O1245 O -0.00852 0.45368 0.53306
 O1246 O -0.03963 0.46992 0.53534
 O1247 O 0.03064 0.49929 0.54126
 O1248 O 0.03067 0.53104 0.52669
 Zr1249 Zr 0.02497 0.50505 0.51259
 O1250 O 0.00900 0.52306 0.49505
 Zr1251 Zr -0.01359 0.48264 0.52768
 O1252 O -0.03113 0.50034 0.51126
 Zr1253 Zr 0.00917 0.46689 0.48968
 O1254 O -0.00772 0.48355 0.47162
 Zr1255 Zr -0.01807 0.52665 0.50662
 O1256 O -0.00163 0.50985 0.52524
 Zr1257 Zr 0.00441 0.51050 0.46862
 O1258 O 0.02242 0.49323 0.48528
 Zr1259 Zr -0.03423 0.48870 0.48407
 O1260 O -0.01816 0.46996 0.50117
 O1261 O 0.01316 0.47831 0.51648
 O1262 O -0.02247 0.51537 0.47971
 C1263 C 0.05114 0.47109 0.50316
 C1264 C 0.02026 0.49216 0.55436
 C1265 C -0.00047 0.44054 0.52340
 C1266 C -0.05936 0.52420 0.49232
 C1267 C -0.00954 0.55210 0.47162
 C1268 C -0.03012 0.50311 0.44254
 H1269 H 0.01571 0.53529 0.49373
 H1270 H -0.00883 0.47714 0.45922
 H1271 H 0.02111 0.47016 0.52467
 H1272 H -0.04341 0.50193 0.51776
 H1273 H -0.02573 0.53241 0.54187
 H1274 H -0.03446 0.50263 0.54990
 H1275 H 0.02853 0.49084 0.44956
 H1276 H 0.02966 0.44695 0.46611
 H1277 H -0.01279 0.56064 0.52003
 H1278 H 0.04223 0.52968 0.53453
 H1279 H -0.03562 0.46007 0.46117
 H1280 H -0.01565 0.44154 0.48043
 H1281 H 0.05936 0.51890 0.51005
 H1282 H 0.03980 0.51902 0.46630
 H1283 H -0.04226 0.45994 0.52585
 H1284 H -0.06258 0.47958 0.50562
 O1285 O 0.50866 0.94359 0.00851
 O1286 O 0.49881 0.94408 -0.02378
 O1287 O 0.55023 0.98816 0.01110
 O1288 O 0.55182 1.01918 0.00584
 O1289 O 0.50484 0.98485 0.05305
 O1290 O 0.47355 0.99519 0.05248
 O1291 O 0.50077 1.03931 -0.03743
 O1292 O 0.53044 1.02588 -0.03899
 O1293 O 0.46126 0.99502 -0.04356
 O1294 O 0.45850 0.96478 -0.03034
 O1295 O 0.45482 1.03348 0.00063
 O1296 O 0.46928 1.03835 0.03122
 O1297 O 0.48509 1.05041 -0.01152
 O1298 O 0.49362 1.05032 0.02311
 O1299 O 0.44378 1.00720 -0.01442
 O1300 O 0.44298 0.97561 -0.00367
 O1301 O 0.48748 1.01061 -0.05403
 O1302 O 0.51977 0.99701 -0.05334
 O1303 O 0.49253 0.95449 0.03423
 O1304 O 0.46160 0.97059 0.03636
 O1305 O 0.53114 1.00035 0.04258
 O1306 O 0.53428 1.03152 0.02653
 O1307 O 0.53931 0.96138 -0.00324
 O1308 O 0.52496 0.96169 -0.03506
 Zr1309 Zr 0.51076 0.96752 -0.00918
 O1310 O 0.49375 0.98397 -0.02730
 Zr1311 Zr 0.52627 1.00569 0.01361
 O1312 O 0.51045 1.02366 -0.00416
 Zr1313 Zr 0.48767 0.98347 0.02876
 O1314 O 0.47016 1.00085 0.01202
 Zr1315 Zr 0.50589 1.01087 -0.03058
 O1316 O 0.52396 0.99394 -0.01367
 Zr1317 Zr 0.46725 0.98898 -0.01504
 O1318 O 0.48334 0.97049 0.00230
 Zr1319 Zr 0.48320 1.02717 0.00718
 O1320 O 0.49971 1.01063 0.02601
 O1321 O 0.51455 0.97909 0.01765
 O1322 O 0.47893 1.01570 -0.01959
 C1323 C 0.50062 0.94133 0.02465
 C1324 C 0.55249 0.97153 0.00411
 C1325 C 0.52114 0.99247 0.05558
 C1326 C 0.49251 1.05245 -0.02800
 C1327 C 0.47091 1.00354 -0.05639
 C1328 C 0.44175 1.02391 -0.00761
 H1329 H 0.49242 0.97740 -0.03960
 H1330 H 0.45772 1.00214 0.01829
 H1331 H 0.52251 0.97098 0.02585
 H1332 H 0.51723 1.03583 -0.00559
 H1333 H 0.54139 1.01768 -0.03593
 H1334 H 0.54922 1.02614 -0.00603
 H1335 H 0.44756 0.96486 0.00408
 H1336 H 0.46344 0.96316 0.04816
 H1337 H 0.51946 1.00556 -0.06448
 H1338 H 0.53258 0.94998 -0.03368
 H1339 H 0.45997 1.02881 0.03553
 H1340 H 0.47839 1.00825 0.05409
 H1341 H 0.50770 0.93323 -0.02314
 H1342 H 0.46441 0.95375 -0.02404
 H1343 H 0.52476 1.03424 0.03644
 H1344 H 0.50514 1.05509 0.01673
 O1345 O 0.49187 0.50774 0.05648
 O1346 O 0.52415 0.49789 0.05596
 O1347 O 0.48918 0.54928 0.01191
 O1348 O 0.49447 0.55083 -0.01911
 O1349 O 0.44722 0.50390 0.01531
 O1350 O 0.44772 0.47258 0.00501
 O1351 O 0.53755 0.49970 -0.03924
 O1352 O 0.53921 0.52939 -0.02586
 O1353 O 0.54374 0.46022 0.00511
 O1354 O 0.53058 0.45751 0.03535
 O1355 O 0.49944 0.45374 -0.03327
 O1356 O 0.46884 0.46824 -0.03812
 O1357 O 0.51159 0.48401 -0.05027
 O1358 O 0.47699 0.49253 -0.05017
 O1359 O 0.51454 0.44273 -0.00701
 O1360 O 0.50385 0.44199 0.02459
 O1361 O 0.55421 0.48642 -0.01054
 O1362 O 0.55361 0.51875 0.00299
 O1363 O 0.46609 0.49162 0.04564
 O1364 O 0.46386 0.46065 0.02961
 O1365 O 0.45768 0.53019 -0.00025
 O1366 O 0.47366 0.53329 -0.03141
 O1367 O 0.50358 0.53838 0.03866
 O1368 O 0.53541 0.52402 0.03830
 Zr1369 Zr 0.50950 0.50981 0.03254
 O1370 O 0.52755 0.49275 0.01610
 Zr1371 Zr 0.48664 0.52529 -0.00560
 O1372 O 0.50434 0.50942 -0.02356
 Zr1373 Zr 0.47148 0.48671 0.01668
 O1374 O 0.48816 0.46915 -0.00067
 Zr1375 Zr 0.53079 0.50485 -0.01080
 O1376 O 0.51395 0.52298 0.00611
 Zr1377 Zr 0.51523 0.46624 0.01116
 O1378 O 0.49797 0.48238 0.02963
 Zr1379 Zr 0.49295 0.48215 -0.02701
 O1380 O 0.47418 0.49872 -0.01049
 O1381 O 0.48265 0.51359 0.02100
 O1382 O 0.51974 0.47789 -0.01557
 C1383 C 0.47572 0.49972 0.05877
 C1384 C 0.49619 0.55155 0.02854
 C1385 C 0.44469 0.52020 0.00767
 C1386 C 0.52807 0.49143 -0.05234
 C1387 C 0.55657 0.46986 -0.00343
 C1388 C 0.50769 0.44068 -0.02370
 H1389 H 0.53987 0.49142 0.02266
 H1390 H 0.48186 0.45670 -0.00193
 H1391 H 0.47447 0.52157 0.02911
 H1392 H 0.50574 0.51618 -0.03574
 H1393 H 0.53618 0.54036 -0.01768
 H1394 H 0.50626 0.54818 -0.02614
 H1395 H 0.49614 0.44660 0.03532
 H1396 H 0.45208 0.46252 0.03704
 H1397 H 0.56473 0.51842 -0.00557
 H1398 H 0.53407 0.53167 0.04998
 H1399 H 0.46457 0.45891 -0.02858
 H1400 H 0.44607 0.47742 -0.00804
 H1401 H 0.52355 0.50680 0.06679
 H1402 H 0.52432 0.46345 0.04637
 H1403 H 0.46375 0.52375 -0.03412
 H1404 H 0.48334 0.50408 -0.05492
 O1405 O -0.05280 0.00411 0.51591
 O1406 O -0.05208 -0.02804 0.50565
 O1407 O -0.00794 0.00658 0.55713
 O1408 O 0.02313 0.00129 0.55836
 O1409 O -0.01192 0.04916 0.51250
 O1410 O -0.00192 0.04931 0.48114
 O1411 O 0.04318 -0.04076 0.50606
 O1412 O 0.03025 -0.04293 0.53596
 O1413 O -0.00150 -0.04650 0.46713
 O1414 O -0.03182 -0.03352 0.46492
 O1415 O 0.03649 -0.00166 0.46103
 O1416 O 0.04124 0.02873 0.47624
 O1417 O 0.05384 -0.01442 0.49072
 O1418 O 0.05377 0.01992 0.50003
 O1419 O 0.01026 -0.01683 0.45002
 O1420 O -0.02143 -0.00643 0.44981
 O1421 O 0.01436 -0.05738 0.49302
 O1422 O 0.00130 -0.05735 0.52551
 O1423 O -0.04223 0.03026 0.50018
 O1424 O -0.02648 0.03319 0.46916
 O1425 O 0.00402 0.03845 0.53844
 O1426 O 0.03523 0.02253 0.54108
 O1427 O -0.03467 -0.00786 0.54622
 O1428 O -0.03406 -0.03952 0.53143
 Zr1429 Zr -0.02868 -0.01334 0.51755
 O1430 O -0.01227 -0.03096 0.50003
 Zr1431 Zr 0.00943 0.00955 0.53307
 O1432 O 0.02738 -0.00775 0.51671
 Zr1433 Zr -0.01328 0.02520 0.49495
 O1434 O 0.00402 0.00897 0.47696
 Zr1435 Zr 0.01477 -0.03423 0.51179
 O1436 O -0.00209 -0.01782 0.53037
 Zr1437 Zr -0.00767 -0.01814 0.47370
 O1438 O -0.02610 -0.00131 0.49031
 Zr1439 Zr 0.03050 0.00415 0.48963
 O1440 O 0.01400 0.02249 0.50668
 O1441 O -0.01730 0.01355 0.52167
 O1442 O 0.01920 -0.02266 0.48499
 C1443 C -0.05525 0.02038 0.50816
 C1444 C -0.02452 -0.00057 0.55941
 C1445 C -0.00409 0.05153 0.52872
 C1446 C 0.05610 -0.03106 0.49774
 C1447 C 0.00712 -0.05948 0.47649
 C1448 C 0.02684 -0.00973 0.44792
 H1449 H -0.01876 -0.04330 0.49856
 H1450 H 0.00511 0.01552 0.46462
 H1451 H -0.02540 0.02155 0.52983
 H1452 H 0.03964 -0.00921 0.52330
 H1453 H 0.02218 -0.04017 0.54708
 H1454 H 0.03034 -0.01032 0.55540
 H1455 H -0.03219 0.00110 0.45467
 H1456 H -0.03399 0.04488 0.47130
 H1457 H 0.00993 -0.06841 0.52492
 H1458 H -0.04568 -0.03840 0.53921
 H1459 H 0.03170 0.03298 0.46691
 H1460 H 0.01116 0.05098 0.48588
 H1461 H -0.06283 -0.02767 0.51468
 H1462 H -0.04282 -0.02750 0.47113
 H1463 H 0.03788 0.03253 0.53161
 H1464 H 0.05863 0.01339 0.51143
 O1465 O 0.69635 0.23854 0.25814
 O1466 O 0.69686 0.24851 0.22593
 O1467 O 0.74141 0.19748 0.26073
 O1468 O 0.77246 0.19638 0.25542
 O1469 O 0.73744 0.24246 0.30296
 O1470 O 0.74737 0.27390 0.30271
 O1471 O 0.79205 0.24831 0.21274
 O1472 O 0.77918 0.21837 0.21093
 O1473 O 0.74714 0.28703 0.20675
 O1474 O 0.71689 0.28926 0.21995
 O1475 O 0.78542 0.29376 0.25124
 O1476 O 0.79038 0.27896 0.28177
 O1477 O 0.80282 0.26392 0.23884
 O1478 O 0.80287 0.25503 0.27331
 O1479 O 0.75907 0.30449 0.23610
 O1480 O 0.72747 0.30472 0.24673
 O1481 O 0.76310 0.26113 0.19611
 O1482 O 0.75015 0.22858 0.19655
 O1483 O 0.70697 0.25456 0.28406
 O1484 O 0.72266 0.28564 0.28667
 O1485 O 0.75338 0.21649 0.29238
 O1486 O 0.78455 0.21391 0.27639
 O1487 O 0.71455 0.20818 0.24640
 O1488 O 0.71490 0.22270 0.21462
 Zr1489 Zr 0.72038 0.23684 0.24062
 O1490 O 0.73663 0.25426 0.22272
 Zr1491 Zr 0.75866 0.22167 0.26345
 O1492 O 0.77645 0.23796 0.24589
 Zr1493 Zr 0.73590 0.25983 0.27883
 O1494 O 0.75303 0.27778 0.26230
 Zr1495 Zr 0.76369 0.24257 0.21945
 O1496 O 0.74698 0.22407 0.23613
 Zr1497 Zr 0.74120 0.28073 0.23522
 O1498 O 0.72293 0.26420 0.25235
 Zr1499 Zr 0.77954 0.26519 0.25747
 O1500 O 0.76320 0.24821 0.27608
 O1501 O 0.73191 0.23298 0.26748
 O1502 O 0.76809 0.26951 0.23068
 C1503 C 0.69393 0.24646 0.27431
 C1504 C 0.72481 0.19507 0.25369
 C1505 C 0.74532 0.22627 0.30541
 C1506 C 0.80501 0.25672 0.22229
 C1507 C 0.75575 0.27759 0.19385
 C1508 C 0.77569 0.30674 0.24304
 H1509 H 0.73007 0.25558 0.21041
 H1510 H 0.75412 0.29019 0.26869
 H1511 H 0.72387 0.22485 0.27559
 H1512 H 0.78873 0.23140 0.24445
 H1513 H 0.77117 0.20723 0.21386
 H1514 H 0.77959 0.19926 0.24373
 H1515 H 0.71684 0.29990 0.25448
 H1516 H 0.71524 0.28356 0.29842
 H1517 H 0.75872 0.22911 0.18545
 H1518 H 0.70331 0.21488 0.21588
 H1519 H 0.78077 0.28820 0.28602
 H1520 H 0.76047 0.26920 0.30435
 H1521 H 0.68615 0.23944 0.22643
 H1522 H 0.70595 0.28311 0.22618
 H1523 H 0.78718 0.22345 0.28631
 H1524 H 0.80774 0.24358 0.26690
 O1525 O 0.75422 0.71371 0.70767
 O1526 O 0.78461 0.71125 0.72231
 O1527 O 0.71563 0.70697 0.75411
 O1528 O 0.70944 0.72102 0.78176
 O1529 O 0.70877 0.75330 0.71414
 O1530 O 0.72290 0.78320 0.71218
 O1531 O 0.76438 0.75789 0.80386
 O1532 O 0.75372 0.72719 0.80413
 O1533 O 0.80459 0.76196 0.75973
 O1534 O 0.80514 0.75176 0.72836
 O1535 O 0.76146 0.80245 0.76326
 O1536 O 0.72832 0.80355 0.75554
 O1537 O 0.74932 0.78435 0.79316
 O1538 O 0.71774 0.78881 0.77720
 O1539 O 0.78740 0.79161 0.74753
 O1540 O 0.78945 0.77811 0.71719
 O1541 O 0.79359 0.74697 0.78609
 O1542 O 0.77959 0.71485 0.78603
 O1543 O 0.73949 0.74030 0.69681
 O1544 O 0.74960 0.77372 0.69782
 O1545 O 0.69769 0.73827 0.74047
 O1546 O 0.69873 0.74804 0.77420
 O1547 O 0.74112 0.69608 0.73761
 O1548 O 0.77354 0.69716 0.75063
 Zr1549 Zr 0.75940 0.71961 0.73640
 O1550 O 0.77761 0.73606 0.75326
 Zr1551 Zr 0.72127 0.73590 0.75865
 O1552 O 0.73812 0.75242 0.77689
 Zr1553 Zr 0.73740 0.75829 0.72055
 O1554 O 0.75455 0.77606 0.73720
 Zr1555 Zr 0.76518 0.74049 0.77982
 O1556 O 0.74745 0.72254 0.76359
 Zr1557 Zr 0.78091 0.76318 0.74172
 O1558 O 0.76443 0.74606 0.72339
 Zr1559 Zr 0.74302 0.77901 0.76446
 O1560 O 0.72451 0.76309 0.74699
 O1561 O 0.73285 0.73161 0.73207
 O1562 O 0.76980 0.76749 0.76870
 C1563 C 0.74665 0.72375 0.69454
 C1564 C 0.72498 0.69387 0.74566
 C1565 C 0.69554 0.74565 0.72397
 C1566 C 0.75738 0.77449 0.80616
 C1567 C 0.80669 0.75500 0.77639
 C1568 C 0.77793 0.80464 0.75590
 H1569 H 0.78995 0.72953 0.75438
 H1570 H 0.75599 0.78836 0.73066
 H1571 H 0.72468 0.72360 0.72398
 H1572 H 0.73174 0.75345 0.78929
 H1573 H 0.74785 0.71523 0.79978
 H1574 H 0.71769 0.72351 0.79278
 H1575 H 0.78417 0.77116 0.70623
 H1576 H 0.74166 0.77200 0.68635
 H1577 H 0.78582 0.71626 0.79854
 H1578 H 0.77201 0.68528 0.74332
 H1579 H 0.73273 0.80665 0.74262
 H1580 H 0.71468 0.78695 0.72288
 H1581 H 0.78264 0.69863 0.71647
 H1582 H 0.80046 0.74306 0.71844
 H1583 H 0.69540 0.76007 0.76782
 H1584 H 0.71491 0.78046 0.78809
 O1585 O 0.28615 0.20910 0.74624
 O1586 O 0.28805 0.22376 0.71577
 O1587 O 0.29292 0.25561 0.78469
 O1588 O 0.27874 0.28315 0.79105
 O1589 O 0.24699 0.21525 0.79211
 O1590 O 0.21698 0.21303 0.77830
 O1591 O 0.24096 0.30497 0.73650
 O1592 O 0.27175 0.30555 0.74686
 O1593 O 0.23703 0.26075 0.69636
 O1594 O 0.24729 0.22945 0.69575
 O1595 O 0.19689 0.26407 0.74002
 O1596 O 0.19626 0.25622 0.77318
 O1597 O 0.21481 0.29405 0.75195
 O1598 O 0.21092 0.27804 0.78358
 O1599 O 0.20758 0.24851 0.71392
 O1600 O 0.22117 0.21818 0.71175
 O1601 O 0.25189 0.28726 0.70716
 O1602 O 0.28407 0.28754 0.72092
 O1603 O 0.25983 0.19801 0.76127
 O1604 O 0.22630 0.19874 0.75151
 O1605 O 0.26194 0.24170 0.80301
 O1606 O 0.25190 0.27537 0.80208
 O1607 O 0.30364 0.23921 0.75907
 O1608 O 0.30209 0.25219 0.72667
 Zr1609 Zr 0.27992 0.23779 0.74109
 O1610 O 0.26312 0.25455 0.72309
 Zr1611 Zr 0.26390 0.25992 0.77940
 O1612 O 0.24704 0.27804 0.76275
 Zr1613 Zr 0.24166 0.22161 0.76354
 O1614 O 0.22355 0.23815 0.74660
 Zr1615 Zr 0.25861 0.28109 0.73555
 O1616 O 0.27689 0.26498 0.75306
 Zr1617 Zr 0.23609 0.24278 0.72009
 O1618 O 0.25354 0.22457 0.73636
 Zr1619 Zr 0.22052 0.26539 0.75817
 O1620 O 0.23679 0.24802 0.77648
 O1621 O 0.26828 0.23337 0.76778
 O1622 O 0.23168 0.26974 0.73125
 C1623 C 0.27632 0.19587 0.75393
 C1624 C 0.30598 0.24727 0.77518
 C1625 C 0.25471 0.22515 0.80525
 C1626 C 0.22443 0.30712 0.74372
 C1627 C 0.24388 0.27744 0.69414
 C1628 C 0.19459 0.25677 0.72355
 H1629 H 0.26952 0.25572 0.71068
 H1630 H 0.21129 0.23151 0.74529
 H1631 H 0.27644 0.22533 0.77586
 H1632 H 0.24597 0.29045 0.76914
 H1633 H 0.28381 0.30132 0.75263
 H1634 H 0.27602 0.29418 0.78288
 H1635 H 0.22824 0.20725 0.71695
 H1636 H 0.22822 0.18729 0.75944
 H1637 H 0.28249 0.30004 0.71470
 H1638 H 0.31403 0.24494 0.72804
 H1639 H 0.19315 0.24331 0.76871
 H1640 H 0.21322 0.22371 0.78655
 H1641 H 0.30073 0.21800 0.71758
 H1642 H 0.25609 0.21957 0.70035
 H1643 H 0.23997 0.26889 0.80556
 H1644 H 0.21920 0.28901 0.78630
 O1645 O 0.20687 0.74643 0.28517
 O1646 O 0.22139 0.71593 0.28731
 O1647 O 0.25354 0.78480 0.29167
 O1648 O 0.28112 0.79094 0.27744
 O1649 O 0.21326 0.79210 0.24570
 O1650 O 0.21095 0.77814 0.21581
 O1651 O 0.30268 0.73619 0.24008
 O1652 O 0.30325 0.74659 0.27082
 O1653 O 0.25820 0.69608 0.23633
 O1654 O 0.22694 0.69566 0.24667
 O1655 O 0.26182 0.73945 0.19597
 O1656 O 0.25412 0.77265 0.19504
 O1657 O 0.29186 0.75154 0.21383
 O1658 O 0.27591 0.78314 0.20965
 O1659 O 0.24606 0.71350 0.20683
 O1660 O 0.21572 0.71159 0.22045
 O1661 O 0.28478 0.70689 0.25104
 O1662 O 0.28513 0.72073 0.28319
 O1663 O 0.19585 0.76137 0.25875
 O1664 O 0.19655 0.75143 0.22527
 O1665 O 0.23976 0.80298 0.26056
 O1666 O 0.27340 0.80188 0.25055
 O1667 O 0.23701 0.75929 0.30258
 O1668 O 0.24987 0.72682 0.30123
 Zr1669 Zr 0.23552 0.74116 0.27898
 O1670 O 0.25217 0.72299 0.26229
 Zr1671 Zr 0.25783 0.77930 0.26269
 O1672 O 0.27586 0.76249 0.24594
 Zr1673 Zr 0.21946 0.76346 0.24056
 O1674 O 0.23591 0.74636 0.22256
 Zr1675 Zr 0.27876 0.73533 0.25769
 O1676 O 0.26276 0.75301 0.27586
 Zr1677 Zr 0.24039 0.71989 0.23528
 O1678 O 0.22228 0.73634 0.25263
 Zr1679 Zr 0.26320 0.75780 0.21944
 O1680 O 0.24593 0.77628 0.23559
 O1681 O 0.23123 0.76781 0.26715
 O1682 O 0.26740 0.73092 0.23079
 C1683 C 0.19368 0.75411 0.27529
 C1684 C 0.24514 0.77540 0.30480
 C1685 C 0.22323 0.80524 0.25333
 C1686 C 0.30490 0.74336 0.22353
 C1687 C 0.27490 0.69385 0.24313
 C1688 C 0.25442 0.72299 0.19379
 H1689 H 0.25328 0.71060 0.26876
 H1690 H 0.22927 0.74499 0.21031
 H1691 H 0.22324 0.77597 0.27526
 H1692 H 0.28828 0.76884 0.24483
 H1693 H 0.29902 0.75243 0.28283
 H1694 H 0.29209 0.78268 0.27479
 H1695 H 0.20483 0.71683 0.22753
 H1696 H 0.18514 0.75940 0.22716
 H1697 H 0.29758 0.71443 0.28163
 H1698 H 0.24265 0.72830 0.31317
 H1699 H 0.24119 0.76822 0.19199
 H1700 H 0.22170 0.78628 0.21194
 H1701 H 0.21565 0.71784 0.29998
 H1702 H 0.21710 0.70034 0.25545
 H1703 H 0.26695 0.80532 0.23859
 H1704 H 0.28686 0.78591 0.21793
 O1705 O 0.24116 0.69709 0.76240
 O1706 O 0.27338 0.69753 0.75246
 O1707 O 0.23881 0.74207 0.80357
 O1708 O 0.24423 0.77311 0.80475
 O1709 O 0.19652 0.73835 0.75858
 O1710 O 0.19679 0.74838 0.72719
 O1711 O 0.28696 0.79273 0.75295
 O1712 O 0.28873 0.77974 0.78283
 O1713 O 0.29274 0.74788 0.71411
 O1714 O 0.27942 0.71766 0.71181
 O1715 O 0.24842 0.78633 0.70744
 O1716 O 0.21790 0.79134 0.72224
 O1717 O 0.26090 0.80363 0.73734
 O1718 O 0.22644 0.80377 0.74617
 O1719 O 0.26344 0.75993 0.69667
 O1720 O 0.25267 0.72837 0.69636
 O1721 O 0.30345 0.76376 0.74005
 O1722 O 0.30299 0.75070 0.77254
 O1723 O 0.21528 0.70785 0.74640
 O1724 O 0.21273 0.72366 0.71538
 O1725 O 0.20720 0.75418 0.78459
 O1726 O 0.22328 0.78531 0.78726
 O1727 O 0.25301 0.71518 0.79281
 O1728 O 0.28478 0.71545 0.77832
 Zr1729 Zr 0.25879 0.72107 0.76419
 O1730 O 0.27675 0.73732 0.74683
 Zr1731 Zr 0.23614 0.75940 0.77943
 O1732 O 0.25375 0.77719 0.76320
 Zr1733 Zr 0.22063 0.73679 0.74122
 O1734 O 0.23722 0.75392 0.72334
 Zr1735 Zr 0.28014 0.76436 0.75859
 O1736 O 0.26340 0.74763 0.77702
 Zr1737 Zr 0.26425 0.74201 0.72038
 O1738 O 0.24705 0.72374 0.73684
 Zr1739 Zr 0.24217 0.78039 0.73599
 O1740 O 0.22351 0.76406 0.75291
 O1741 O 0.23198 0.73268 0.76805
 O1742 O 0.26891 0.76886 0.73166
 C1743 C 0.22498 0.69475 0.75447
 C1744 C 0.24579 0.72543 0.80594
 C1745 C 0.19412 0.74619 0.77478
 C1746 C 0.27746 0.80575 0.74457
 C1747 C 0.30567 0.75644 0.72358
 C1748 C 0.25657 0.77659 0.69445
 H1749 H 0.28903 0.73072 0.74550
 H1750 H 0.23084 0.75506 0.71093
 H1751 H 0.22385 0.72464 0.77616
 H1752 H 0.25524 0.78945 0.76980
 H1753 H 0.28577 0.77170 0.79393
 H1754 H 0.25594 0.78023 0.80189
 H1755 H 0.24489 0.71774 0.70115
 H1756 H 0.20095 0.71626 0.71743
 H1757 H 0.31413 0.75924 0.77204
 H1758 H 0.28347 0.70383 0.78610
 H1759 H 0.21363 0.78178 0.71295
 H1760 H 0.19521 0.76148 0.73190
 H1761 H 0.27283 0.68678 0.76149
 H1762 H 0.27314 0.70672 0.71791
 H1763 H 0.21339 0.78800 0.77770
 H1764 H 0.23284 0.80856 0.75766
 O1765 O 0.25365 0.21280 0.20637
 O1766 O 0.28399 0.21043 0.22110
 O1767 O 0.21494 0.20611 0.25275
 O1768 O 0.20860 0.22024 0.28030
 O1769 O 0.20810 0.25236 0.21260
 O1770 O 0.22219 0.28224 0.21060
 O1771 O 0.26345 0.25725 0.30248
 O1772 O 0.25285 0.22654 0.30280
 O1773 O 0.30377 0.26127 0.25844
 O1774 O 0.30444 0.25102 0.22712
 O1775 O 0.26055 0.30169 0.26178
 O1776 O 0.22743 0.30271 0.25394
 O1777 O 0.24836 0.28366 0.29167
 O1778 O 0.21682 0.28801 0.27562
 O1779 O 0.28657 0.29087 0.24616
 O1780 O 0.28872 0.27731 0.21583
 O1781 O 0.29274 0.24632 0.28481
 O1782 O 0.27878 0.21419 0.28480
 O1783 O 0.23892 0.23935 0.19539
 O1784 O 0.24896 0.27279 0.19636
 O1785 O 0.19697 0.23738 0.23893
 O1786 O 0.19791 0.24721 0.27266
 O1787 O 0.24049 0.19522 0.23635
 O1788 O 0.27288 0.19640 0.24943
 Zr1789 Zr 0.25872 0.21878 0.23510
 O1790 O 0.27686 0.23532 0.25197
 Zr1791 Zr 0.22051 0.23507 0.25719
 O1792 O 0.23727 0.25165 0.27544
 Zr1793 Zr 0.23671 0.25739 0.21908
 O1794 O 0.25377 0.27523 0.23575
 Zr1795 Zr 0.26435 0.23979 0.27849
 O1796 O 0.24670 0.22178 0.26225
 Zr1797 Zr 0.28014 0.26242 0.24037
 O1798 O 0.26375 0.24522 0.22205
 Zr1799 Zr 0.24216 0.27823 0.26297
 O1800 O 0.22373 0.26224 0.24547
 O1801 O 0.23216 0.23072 0.23066
 O1802 O 0.26895 0.26677 0.26732
 C1803 C 0.24614 0.22281 0.19318
 C1804 C 0.22434 0.19299 0.24438
 C1805 C 0.19485 0.24473 0.22243
 C1806 C 0.25641 0.27385 0.30472
 C1807 C 0.30585 0.25435 0.27512
 C1808 C 0.27704 0.30390 0.25447
 H1809 H 0.28921 0.22882 0.25314
 H1810 H 0.25521 0.28752 0.22918
 H1811 H 0.22403 0.22268 0.22256
 H1812 H 0.23085 0.25270 0.28783
 H1813 H 0.24701 0.21455 0.29847
 H1814 H 0.21685 0.22270 0.29132
 H1815 H 0.28350 0.27031 0.20488
 H1816 H 0.24107 0.27102 0.18487
 H1817 H 0.28498 0.21564 0.29732
 H1818 H 0.27139 0.18450 0.24215
 H1819 H 0.23191 0.30581 0.24104
 H1820 H 0.21396 0.28604 0.22128
 H1821 H 0.28206 0.19779 0.21530
 H1822 H 0.29980 0.24227 0.21722
 H1823 H 0.19457 0.25922 0.26624
 H1824 H 0.21398 0.27968 0.28652
 O1825 O 0.78630 0.70969 0.24703
 O1826 O 0.78833 0.72457 0.21667
 O1827 O 0.79296 0.75591 0.28585
 O1828 O 0.77877 0.78338 0.29239
 O1829 O 0.74694 0.71552 0.29275
 O1830 O 0.71700 0.71344 0.27881
 O1831 O 0.74125 0.80568 0.23782
 O1832 O 0.77199 0.80615 0.24832
 O1833 O 0.73742 0.76177 0.19733
 O1834 O 0.74763 0.73049 0.19651
 O1835 O 0.69709 0.76476 0.24089
 O1836 O 0.69635 0.75672 0.27398
 O1837 O 0.71502 0.79467 0.25308
 O1838 O 0.71099 0.77844 0.28457
 O1839 O 0.70786 0.74939 0.21470
 O1840 O 0.72147 0.71909 0.21233
 O1841 O 0.75230 0.78817 0.20839
 O1842 O 0.78440 0.78832 0.22230
 O1843 O 0.75990 0.69851 0.26186
 O1844 O 0.72642 0.69936 0.25194
 O1845 O 0.76187 0.74186 0.30393
 O1846 O 0.75188 0.77556 0.30322
 O1847 O 0.80377 0.73970 0.26014
 O1848 O 0.80235 0.75290 0.22782
 Zr1849 Zr 0.78011 0.73842 0.24206
 O1850 O 0.76340 0.75533 0.22412
 Zr1851 Zr 0.76396 0.76027 0.28047
 O1852 O 0.74719 0.77854 0.26390
 Zr1853 Zr 0.74174 0.72212 0.26422
 O1854 O 0.72372 0.73881 0.24735
 Zr1855 Zr 0.75887 0.78178 0.23677
 O1856 O 0.77706 0.76552 0.25422
 Zr1857 Zr 0.73636 0.74363 0.22092
 O1858 O 0.75373 0.72527 0.23712
 Zr1859 Zr 0.72067 0.76596 0.25911
 O1860 O 0.73684 0.74843 0.27735
 O1861 O 0.76836 0.73380 0.26867
 O1862 O 0.73194 0.77051 0.23227
 C1863 C 0.77642 0.69642 0.25458
 C1864 C 0.80605 0.74763 0.27632
 C1865 C 0.75461 0.72530 0.30600
 C1866 C 0.72469 0.80780 0.24498
 C1867 C 0.74433 0.77846 0.19526
 C1868 C 0.69484 0.75755 0.22436
 H1869 H 0.76985 0.75659 0.21174
 H1870 H 0.71146 0.73219 0.24595
 H1871 H 0.77648 0.72571 0.27672
 H1872 H 0.74612 0.79090 0.27037
 H1873 H 0.78401 0.80186 0.25411
 H1874 H 0.77612 0.79448 0.28427
 H1875 H 0.72852 0.70812 0.21746
 H1876 H 0.72829 0.68784 0.25978
 H1877 H 0.78288 0.80087 0.21617
 H1878 H 0.81427 0.74563 0.22918
 H1879 H 0.69326 0.74384 0.26943
 H1880 H 0.71322 0.72405 0.28714
 H1881 H 0.80099 0.71878 0.21849
 H1882 H 0.75643 0.72058 0.20106
 H1883 H 0.73993 0.76907 0.30660
 H1884 H 0.71927 0.78938 0.28740
 O1885 O 0.70855 0.24631 0.78561
 O1886 O 0.72317 0.21585 0.78772
 O1887 O 0.75506 0.28484 0.79217
 O1888 O 0.78265 0.29105 0.77798
 O1889 O 0.71481 0.29203 0.74616
 O1890 O 0.71256 0.27807 0.71626
 O1891 O 0.80440 0.23642 0.74053
 O1892 O 0.80495 0.24682 0.77127
 O1893 O 0.76009 0.19617 0.73675
 O1894 O 0.72883 0.19562 0.74706
 O1895 O 0.76352 0.23963 0.69641
 O1896 O 0.75572 0.27282 0.69556
 O1897 O 0.79353 0.25175 0.71428
 O1898 O 0.77752 0.28330 0.71014
 O1899 O 0.74787 0.21359 0.70723
 O1900 O 0.71755 0.21153 0.72087
 O1901 O 0.78661 0.20706 0.75151
 O1902 O 0.78691 0.22091 0.78365
 O1903 O 0.69751 0.26125 0.75920
 O1904 O 0.69823 0.25131 0.72574
 O1905 O 0.74126 0.30300 0.76105
 O1906 O 0.77491 0.30202 0.75108
 O1907 O 0.73864 0.25925 0.80304
 O1908 O 0.75161 0.22682 0.80167
 Zr1909 Zr 0.73723 0.24114 0.77943
 O1910 O 0.75394 0.22304 0.76273
 Zr1911 Zr 0.75941 0.27938 0.76319
 O1912 O 0.77749 0.26264 0.74642
 Zr1913 Zr 0.72111 0.26341 0.74102
 O1914 O 0.73761 0.24638 0.72301
 Zr1915 Zr 0.78050 0.23548 0.75814
 O1916 O 0.76442 0.25308 0.77633
 Zr1917 Zr 0.74219 0.21992 0.73570
 O1918 O 0.72401 0.23629 0.75307
 Zr1919 Zr 0.76486 0.25793 0.71991
 O1920 O 0.74753 0.27633 0.73608
 O1921 O 0.73285 0.26779 0.76762
 O1922 O 0.76916 0.23105 0.73123
 C1923 C 0.69535 0.25397 0.77574
 C1924 C 0.74670 0.27539 0.80529
 C1925 C 0.72473 0.30520 0.75379
 C1926 C 0.80659 0.24360 0.72397
 C1927 C 0.77678 0.19399 0.74359
 C1928 C 0.75617 0.22315 0.69420
 H1929 H 0.75509 0.21065 0.76919
 H1930 H 0.73097 0.24501 0.71076
 H1931 H 0.72483 0.27591 0.77573
 H1932 H 0.78990 0.26904 0.74532
 H1933 H 0.80070 0.25265 0.78328
 H1934 H 0.79367 0.28288 0.77526
 H1935 H 0.70665 0.21674 0.72794
 H1936 H 0.68679 0.25925 0.72761
 H1937 H 0.79939 0.21466 0.78209
 H1938 H 0.74438 0.22826 0.81360
 H1939 H 0.74283 0.26831 0.69246
 H1940 H 0.72326 0.28626 0.71242
 H1941 H 0.71742 0.21773 0.80039
 H1942 H 0.71898 0.20026 0.75586
 H1943 H 0.76847 0.30543 0.73911
 H1944 H 0.78844 0.28611 0.71844
 C1945 C 0.06331 1.00590 1.14619
 C1946 C 0.07093 1.02201 1.13371
 C1947 C 0.06300 1.02258 1.11613
 C1948 C 0.04823 1.00699 1.11276
 C1949 C 0.03383 1.00925 1.12888
 C1950 C 0.04176 1.00868 1.14647
 C1951 C 0.06651 0.98781 1.13461
 C1952 C 0.05859 0.98838 1.11705
 C1953 C 0.07203 1.00508 1.16501
 C1954 C 0.07965 1.00396 1.18024
 C1955 C 0.03978 1.00738 1.09380
 C1956 C 0.03293 1.00725 1.07818
 H1957 H 0.08159 1.03210 1.13830
 H1958 H 0.06686 1.03315 1.10565
 H1959 H 0.01874 1.01116 1.12667
 H1960 H 0.03348 1.01010 1.15933
 H1961 H 0.07431 0.97560 1.13976
 H1962 H 0.05961 0.97666 1.10716
 C1963 C 0.56340 0.50713 0.64515
 C1964 C 0.55814 0.48750 0.63746
 C1965 C 0.55016 0.48797 0.61993
 C1966 C 0.54820 0.50802 0.61176
 C1967 C 0.56826 0.51637 0.61240
 C1968 C 0.57624 0.51590 0.62996
 C1969 C 0.54499 0.51865 0.64429
 C1970 C 0.53699 0.51912 0.62671
 C1971 C 0.57215 0.50638 0.66396
 C1972 C 0.57976 0.50527 0.67919
 C1973 C 0.53964 0.50826 0.59285
 C1974 C 0.53261 0.50790 0.57731
 H1975 H 0.56047 0.47437 0.64513
 H1976 H 0.54566 0.47524 0.61258
 H1977 H 0.57553 0.52216 0.60016
 H1978 H 0.59036 0.52129 0.63275
 H1979 H 0.53880 0.52580 0.65638
 H1980 H 0.52395 0.52668 0.62375
 C1981 C 0.43724 -0.00164 0.64021
 C1982 C 0.45049 -0.01856 0.63702
 C1983 C 0.45843 -0.01891 0.61943
 C1984 C 0.45233 -0.00229 0.60679
 C1985 C 0.45721 0.01556 0.61819
 C1986 C 0.44928 0.01591 0.63576
 C1987 C 0.42270 -0.00273 0.62409
 C1988 C 0.43063 -0.00307 0.60653
 C1989 C 0.42845 -0.00121 0.65901
 C1990 C 0.42062 -0.00078 0.67416
 C1991 C 0.46077 -0.00255 0.58783
 C1992 C 0.46760 -0.00250 0.57220
 H1993 H 0.45338 -0.02931 0.64762
 H1994 H 0.46813 -0.02995 0.61496
 H1995 H 0.46614 0.02693 0.61292
 H1996 H 0.45141 0.02756 0.64556
 H1997 H 0.40750 -0.00320 0.62628
 H1998 H 0.42222 -0.00384 0.59369
 C1999 C -0.06319 0.49900 1.14004
 C2000 C -0.06903 0.51580 1.12754
 C2001 C -0.06108 0.51552 1.10999
 C2002 C -0.04805 0.49846 1.10663
 C2003 C -0.06033 0.48104 1.11090
 C2004 C -0.06828 0.48132 1.12847
 C2005 C -0.04147 0.49949 1.14036
 C2006 C -0.03350 0.49921 1.12278
 C2007 C -0.07199 0.49936 1.15883
 C2008 C -0.07984 0.49972 1.17397
 C2009 C -0.03958 0.49826 1.08768
 C2010 C -0.03271 0.49831 1.07207
 H2011 H -0.07858 0.52695 1.13208
 H2012 H -0.06382 0.52642 1.09949
 H2013 H -0.06255 0.46949 1.10101
 H2014 H -0.07733 0.47000 1.13362
 H2015 H -0.03310 0.50001 1.15323
 H2016 H -0.01830 0.49948 1.12059
 C2017 C -0.06734 0.50540 0.35539
 C2018 C -0.05059 0.49177 0.35771
 C2019 C -0.04307 0.49173 0.37547
 C2020 C -0.05303 0.50533 0.38918
 C2021 C -0.07396 0.49957 0.38859
 C2022 C -0.08149 0.49961 0.37084
 C2023 C -0.05976 0.52480 0.36164
 C2024 C -0.05223 0.52476 0.37942
 C2025 C -0.07560 0.50521 0.33633
 C2026 C -0.08279 0.50459 0.32086
 C2027 C -0.04494 0.50507 0.40831
 C2028 C -0.03825 0.50440 0.42399
 H2029 H -0.04510 0.48294 0.34640
 H2030 H -0.03113 0.48287 0.37937
 H2031 H -0.08217 0.49581 0.40104
 H2032 H -0.09614 0.49588 0.36808
 H2033 H -0.06026 0.53743 0.35288
 H2034 H -0.04628 0.53736 0.38590
 C2035 C 0.43363 1.00605 -0.14351
 C2036 C 0.42054 1.01473 -0.12850
 C2037 C 0.42806 1.01467 -0.11073
 C2038 C 0.44793 1.00594 -0.10971
 C2039 C 0.45975 1.01714 -0.12414
 C2040 C 0.45222 1.01720 -0.14192
 C2041 C 0.43830 0.98616 -0.13608
 C2042 C 0.44581 0.98611 -0.11833
 C2043 C 0.42540 1.00586 -0.16258
 C2044 C 0.41824 1.00519 -0.17805
 C2045 C 0.45601 1.00565 -0.09058
 C2046 C 0.46272 1.00493 -0.07491
 H2047 H 0.40661 1.02044 -0.13156
 H2048 H 0.42057 1.02033 -0.09857
 H2049 H 0.47285 1.02441 -0.12068
 H2050 H 0.45888 1.02450 -0.15370
 H2051 H 0.43593 0.97325 -0.14406
 H2052 H 0.44986 0.97315 -0.11111
 C2053 C 0.56596 0.49305 -0.13916
 C2054 C 0.55668 0.51167 -0.13293
 C2055 C 0.54899 0.51090 -0.11527
 C2056 C 0.55132 0.49158 -0.10555
 C2057 C 0.57268 0.48765 -0.10589
 C2058 C 0.58037 0.48842 -0.12355
 C2059 C 0.55041 0.47799 -0.13710
 C2060 C 0.54270 0.47722 -0.11941
 C2061 C 0.57444 0.49399 -0.15807
 C2062 C 0.58193 0.49491 -0.17337
 C2063 C 0.54309 0.49094 -0.08652
 C2064 C 0.53629 0.49089 -0.07087
 H2065 H 0.55618 0.52434 -0.14163
 H2066 H 0.54190 0.52292 -0.10884
 H2067 H 0.58102 0.48452 -0.09336
 H2068 H 0.59531 0.48595 -0.12615
 H2069 H 0.54585 0.46876 -0.14851
 H2070 H 0.53155 0.46732 -0.11567
 C2071 C 0.06539 -0.00818 0.36141
 C2072 C 0.05646 0.01057 0.36777
 C2073 C 0.04857 0.00976 0.38534
 C2074 C 0.05037 -0.00972 0.39484
 C2075 C 0.07163 -0.01413 0.39467
 C2076 C 0.07953 -0.01331 0.37710
 C2077 C 0.04948 -0.02290 0.36312
 C2078 C 0.04157 -0.02372 0.38072
 C2079 C 0.07408 -0.00718 0.34259
 C2080 C 0.08172 -0.00621 0.32737
 C2081 C 0.04194 -0.01038 0.41379
 C2082 C 0.03506 -0.01039 0.42939
 H2083 H 0.05633 0.02335 0.35922
 H2084 H 0.04168 0.02186 0.39184
 H2085 H 0.07977 -0.01760 0.40724
 H2086 H 0.09444 -0.01609 0.37463
 H2087 H 0.04484 -0.03189 0.35155
 H2088 H 0.03016 -0.03340 0.38422
 C2089 C 0.14099 1.06534 1.00551
 C2090 C 0.13759 1.05004 0.99048
 C2091 C 0.11997 1.04221 0.99127
 C2092 C 0.10749 1.05046 1.00703
 C2093 C 0.10734 1.07190 1.00345
 C2094 C 0.12494 1.07971 1.00265
 C2095 C 0.13662 1.05568 1.02449
 C2096 C 0.11899 1.04785 1.02529
 C2097 C 0.15984 1.07399 1.00457
 C2098 C 0.17505 1.08167 1.00370
 C2099 C 0.08848 1.04215 1.00774
 C2100 C 0.07280 1.03545 1.00798
 H2101 H 0.14810 1.04571 0.98014
 H2102 H 0.11538 1.03118 0.98161
 H2103 H 0.09453 1.08021 1.00171
 H2104 H 0.12721 1.09473 1.00022
 H2105 H 0.14649 1.05504 1.03625
 H2106 H 0.11375 1.04050 1.03773
 C2107 C 0.63878 0.56566 0.50725
 C2108 C 0.63499 0.55085 0.49183
 C2109 C 0.61735 0.54309 0.49274
 C2110 C 0.60522 0.55091 0.50899
 C2111 C 0.60512 0.57244 0.50608
 C2112 C 0.62276 0.58019 0.50517
 C2113 C 0.63472 0.55543 0.52601
 C2114 C 0.61706 0.54767 0.52693
 C2115 C 0.65767 0.57419 0.50614
 C2116 C 0.67294 0.58172 0.50506
 C2117 C 0.58621 0.54261 0.50973
 C2118 C 0.57058 0.53578 0.50978
 H2119 H 0.64526 0.54679 0.48115
 H2120 H 0.61251 0.53239 0.48283
 H2121 H 0.59233 0.58087 0.50486
 H2122 H 0.62506 0.59527 0.50317
 H2123 H 0.64483 0.55437 0.53755
 H2124 H 0.61203 0.53997 0.53924
 C2125 C 0.64361 0.43242 -0.00557
 C2126 C 0.62816 0.41836 -0.01160
 C2127 C 0.61041 0.42591 -0.01165
 C2128 C 0.60985 0.44679 -0.00565
 C2129 C 0.62365 0.45692 -0.01907
 C2130 C 0.64141 0.44935 -0.01903
 C2131 C 0.63724 0.43977 0.01384
 C2132 C 0.61951 0.44732 0.01380
 C2133 C 0.66266 0.42415 -0.00528
 C2134 C 0.67813 0.41698 -0.00454
 C2135 C 0.59074 0.45491 -0.00545
 C2136 C 0.57508 0.46165 -0.00479
 H2137 H 0.63092 0.40375 -0.01553
 H2138 H 0.59797 0.41779 -0.01561
 H2139 H 0.61980 0.46895 -0.02784
 H2140 H 0.65278 0.45490 -0.02776
 H2141 H 0.64591 0.43912 0.02652
 H2142 H 0.61300 0.45313 0.02644
 C2143 C 0.14341 -0.06787 0.49531
 C2144 C 0.13361 -0.06850 0.47591
 C2145 C 0.11577 -0.06112 0.47602
 C2146 C 0.10951 -0.05384 0.49551
 C2147 C 0.12487 -0.03963 0.50142
 C2148 C 0.14269 -0.04701 0.50131
 C2149 C 0.12981 -0.07812 0.50882
 C2150 C 0.11200 -0.07075 0.50892
 C2151 C 0.16253 -0.07595 0.49542
 C2152 C 0.17807 -0.08298 0.49598
 C2153 C 0.09033 -0.04589 0.49583
 C2154 C 0.07463 -0.03924 0.49650
 H2155 H 0.14011 -0.07422 0.46322
 H2156 H 0.10699 -0.06051 0.46342
 H2157 H 0.12200 -0.02504 0.50532
 H2158 H 0.15508 -0.03874 0.50512
 H2159 H 0.13382 -0.09014 0.51754
 H2160 H 0.10076 -0.07645 0.51773
 C2161 C 0.35992 -0.06297 0.50169
 C2162 C 0.36958 -0.06234 0.48224
 C2163 C 0.38712 -0.05434 0.48258
 C2164 C 0.39331 -0.04775 0.50234
 C2165 C 0.39152 -0.06534 0.51498
 C2166 C 0.37397 -0.07334 0.51464
 C2167 C 0.35995 -0.04238 0.50866
 C2168 C 0.37752 -0.03437 0.50900
 C2169 C 0.34114 -0.07182 0.50128
 C2170 C 0.32602 -0.07972 0.50088
 C2171 C 0.41224 -0.03923 0.50261
 C2172 C 0.42785 -0.03233 0.50259
 H2173 H 0.36319 -0.06770 0.46933
 H2174 H 0.39576 -0.05285 0.46996
 H2175 H 0.40302 -0.07100 0.52347
 H2176 H 0.37044 -0.08586 0.52284
 H2177 H 0.34731 -0.03478 0.51294
 H2178 H 0.37993 -0.01990 0.51358
 C2179 C -0.14043 0.43731 1.00223
 C2180 C -0.13541 0.44672 1.02116
 C2181 C -0.11788 0.45482 1.02136
 C2182 C -0.10712 0.45270 1.00261
 C2183 C -0.12038 0.46102 0.98751
 C2184 C -0.13790 0.45292 0.98732
 C2185 C -0.12429 0.42326 0.99849
 C2186 C -0.10679 0.43134 0.99868
 C2187 C -0.15916 0.42835 1.00195
 C2188 C -0.17425 0.42038 1.00164
 C2189 C -0.08821 0.46130 1.00271
 C2190 C -0.07262 0.46822 1.00253
 H2191 H -0.14479 0.44701 1.03333
 H2192 H -0.11224 0.46204 1.03370
 H2193 H -0.11637 0.47229 0.97785
 H2194 H -0.14890 0.45726 0.97749
 H2195 H -0.12643 0.40825 0.99591
 H2196 H -0.09395 0.42327 0.99628
 C2197 C -0.14565 0.56328 0.49210
 C2198 C -0.14007 0.55332 0.51058
 C2199 C -0.12252 0.54538 0.51008
 C2200 C -0.11224 0.54817 0.49115
 C2201 C -0.11215 0.56966 0.48786
 C2202 C -0.12972 0.57760 0.48836
 C2203 C -0.14341 0.54817 0.47665
 C2204 C -0.12582 0.54022 0.47615
 C2205 C -0.16447 0.57199 0.49289
 C2206 C -0.17971 0.57957 0.49403
 C2207 C -0.09331 0.53966 0.49088
 C2208 C -0.07777 0.53265 0.49124
 H2209 H -0.14912 0.55255 0.52298
 H2210 H -0.11654 0.53781 0.52206
 H2211 H -0.09942 0.57790 0.48534
 H2212 H -0.13203 0.59265 0.48626
 H2213 H -0.15462 0.54409 0.46696
 H2214 H -0.12196 0.52932 0.46603
 C2215 C 0.35583 1.06375 -0.00828
 C2216 C 0.36609 1.06620 -0.02729
 C2217 C 0.38357 1.05804 -0.02773
 C2218 C 0.38906 1.04823 -0.00911
 C2219 C 0.37296 1.03414 -0.00518
 C2220 C 0.35549 1.04231 -0.00474
 C2221 C 0.36955 1.07170 0.00658
 C2222 C 0.38700 1.06355 0.00614
 C2223 C 0.33712 1.07269 -0.00755
 C2224 C 0.32196 1.08043 -0.00644
 C2225 C 0.40788 1.03951 -0.00930
 C2226 C 0.42337 1.03239 -0.00885
 H2227 H 0.36013 1.07367 -0.03934
 H2228 H 0.39261 1.05850 -0.04015
 H2229 H 0.37510 1.01908 -0.00297
 H2230 H 0.34266 1.03424 -0.00215
 H2231 H 0.36588 1.08278 0.01657
 H2232 H 0.39827 1.06765 0.01575
 C2233 C 0.00399 1.14533 1.06555
 C2234 C 0.01650 1.13138 1.07657
 C2235 C 0.01660 1.11356 1.06918
 C2236 C 0.00418 1.11144 1.05148
 C2237 C 0.01135 1.12666 1.03769
 C2238 C 0.01125 1.14449 1.04509
 C2239 C -0.01564 1.13601 1.06496
 C2240 C -0.01554 1.11820 1.05757
 C2241 C 0.00370 1.16443 1.07367
 C2242 C 0.00306 1.17992 1.08080
 C2243 C 0.00414 1.09225 1.04356
 C2244 C 0.00383 1.07648 1.03704
 H2245 H 0.02459 1.13517 1.08908
 H2246 H 0.02477 1.10209 1.07534
 H2247 H 0.01611 1.12369 1.02338
 H2248 H 0.01591 1.15680 1.03713
 H2249 H -0.02850 1.14280 1.06991
 H2250 H -0.02831 1.10975 1.05619
 C2251 C 0.50535 0.64377 0.56692
 C2252 C 0.49931 0.62830 0.58096
 C2253 C 0.49930 0.61056 0.57342
 C2254 C 0.50533 0.61000 0.55256
 C2255 C 0.52480 0.61968 0.55205
 C2256 C 0.52481 0.63745 0.55960
 C2257 C 0.49194 0.64154 0.54998
 C2258 C 0.49193 0.62380 0.54243
 C2259 C 0.50513 0.66282 0.57519
 C2260 C 0.50447 0.67827 0.58239
 C2261 C 0.50509 0.59089 0.54446
 C2262 C 0.50443 0.57521 0.53776
 H2263 H 0.49540 0.63105 0.59556
 H2264 H 0.49539 0.59811 0.58156
 H2265 H 0.53745 0.61315 0.54626
 H2266 H 0.53747 0.64616 0.56029
 H2267 H 0.48323 0.65291 0.54438
 H2268 H 0.48321 0.61996 0.53037
 C2269 C -0.00790 0.63889 0.43347
 C2270 C -0.01841 0.63822 0.45247
 C2271 C -0.01925 0.62054 0.46022
 C2272 C -0.00950 0.60529 0.44819
 C2273 C 0.01076 0.61258 0.44523
 C2274 C 0.01160 0.63023 0.43749
 C2275 C -0.01806 0.62433 0.42091
 C2276 C -0.01890 0.60667 0.42865
 C2277 C -0.00687 0.65782 0.42495
 C2278 C -0.00586 0.67313 0.41746
 C2279 C -0.01018 0.58626 0.45648
 C2280 C -0.01021 0.57062 0.46332
 H2281 H -0.02463 0.65053 0.45924
 H2282 H -0.02620 0.61770 0.47363
 H2283 H 0.02336 0.60457 0.44890
 H2284 H 0.02491 0.63734 0.43455
 H2285 H -0.02408 0.62762 0.40715
 H2286 H -0.02563 0.59483 0.42153
 C2287 C 0.49402 1.13918 -0.06630
 C2288 C 0.49775 1.12320 -0.08054
 C2289 C 0.49701 1.10556 -0.07276
 C2290 C 0.49261 1.10562 -0.05149
 C2291 C 0.47403 1.11673 -0.04961
 C2292 C 0.47478 1.13439 -0.05740
 C2293 C 0.50852 1.13608 -0.05042
 C2294 C 0.50778 1.11843 -0.04263
 C2295 C 0.49493 1.15808 -0.07486
 C2296 C 0.49584 1.17337 -0.08240
 C2297 C 0.49201 1.08660 -0.04316
 C2298 C 0.49197 1.07097 -0.03629
 H2299 H 0.50070 1.12553 -0.09544
 H2300 H 0.49932 1.09280 -0.08099
 H2301 H 0.46142 1.11122 -0.04276
 H2302 H 0.46280 1.14402 -0.05722
 H2303 H 0.51847 1.14680 -0.04569
 H2304 H 0.51710 1.11404 -0.03123
 C2305 C 0.50835 0.35458 -0.06327
 C2306 C 0.49443 0.36867 -0.07221
 C2307 C 0.49485 0.38615 -0.06413
 C2308 C 0.50915 0.38788 -0.04787
 C2309 C 0.52819 0.38182 -0.05643
 C2310 C 0.52777 0.36430 -0.06453
 C2311 C 0.50346 0.35446 -0.04211
 C2312 C 0.50388 0.37196 -0.03401
 C2313 C 0.50764 0.33583 -0.07215
 C2314 C 0.50654 0.32065 -0.07988
 C2315 C 0.50933 0.40675 -0.03921
 C2316 C 0.50889 0.42227 -0.03214
 H2317 H 0.48506 0.36521 -0.08390
 H2318 H 0.48584 0.39766 -0.06888
 H2319 H 0.54087 0.39051 -0.05613
 H2320 H 0.54009 0.35798 -0.07117
 H2321 H 0.50000 0.34174 -0.03418
 H2322 H 0.50078 0.37425 -0.01913
 C2323 C 0.00757 -0.14555 0.43684
 C2324 C -0.00685 -0.13164 0.42842
 C2325 C -0.00636 -0.11416 0.43650
 C2326 C 0.00851 -0.11224 0.45221
 C2327 C 0.02729 -0.11805 0.44296
 C2328 C 0.02680 -0.13558 0.43487
 C2329 C 0.00346 -0.14574 0.45817
 C2330 C 0.00396 -0.12822 0.46625
 C2331 C 0.00678 -0.16431 0.42797
 C2332 C 0.00559 -0.17949 0.42026
 C2333 C 0.00875 -0.09337 0.46087
 C2334 C 0.00834 -0.07786 0.46797
 H2335 H -0.01661 -0.13522 0.41709
 H2336 H -0.01568 -0.10276 0.43208
 H2337 H 0.03986 -0.10920 0.44280
 H2338 H 0.03895 -0.14174 0.42777
 H2339 H 0.00047 -0.15850 0.46621
 H2340 H 0.00138 -0.12598 0.48124
 C2341 C 0.49811 -0.14004 0.56339
 C2342 C 0.51336 -0.13713 0.54821
 C2343 C 0.51309 -0.11955 0.54024
 C2344 C 0.49758 -0.10660 0.54825
 C2345 C 0.50096 -0.10638 0.56970
 C2346 C 0.50124 -0.12395 0.57766
 C2347 C 0.47933 -0.13526 0.55354
 C2348 C 0.47906 -0.11767 0.54557
 C2349 C 0.49846 -0.15884 0.57220
 C2350 C 0.49884 -0.17399 0.58006
 C2351 C 0.49740 -0.08764 0.53978
 C2352 C 0.49751 -0.07202 0.53291
 H2353 H 0.52347 -0.14794 0.54406
 H2354 H 0.52297 -0.11529 0.52927
 H2355 H 0.50295 -0.09355 0.57793
 H2356 H 0.50347 -0.12616 0.59271
 H2357 H 0.46733 -0.14484 0.55286
 H2358 H 0.46682 -0.11218 0.53807
 C2359 C -0.00246 0.36073 1.06283
 C2360 C -0.02234 0.36723 1.05694
 C2361 C -0.02266 0.38480 1.04892
 C2362 C -0.00307 0.39412 1.04760
 C2363 C 0.00924 0.37984 1.03679
 C2364 C 0.00956 0.36227 1.04480
 C2365 C 0.00496 0.37642 1.07591
 C2366 C 0.00464 0.39396 1.06790
 C2367 C -0.00205 0.34195 1.07169
 C2368 C -0.00165 0.32681 1.07958
 C2369 C -0.00330 0.41307 1.03910
 C2370 C -0.00322 0.42870 1.03224
 H2371 H -0.03504 0.35878 1.05887
 H2372 H -0.03563 0.39141 1.04399
 H2373 H 0.01700 0.38323 1.02396
 H2374 H 0.01759 0.35061 1.03885
 H2375 H 0.01003 0.37396 1.09021
 H2376 H 0.00943 0.40653 1.07535
 C2377 C 0.75715 0.31571 0.10705
 C2378 C 0.76860 0.29728 0.10840
 C2379 C 0.76873 0.28955 0.12609
 C2380 C 0.75741 0.30100 0.14068
 C2381 C 0.73751 0.30288 0.13213
 C2382 C 0.73738 0.31061 0.11446
 C2383 C 0.76567 0.32876 0.12220
 C2384 C 0.76580 0.32103 0.13987
 C2385 C 0.75687 0.32423 0.08811
 C2386 C 0.75644 0.33179 0.07280
 C2387 C 0.75736 0.29273 0.15973
 C2388 C 0.75688 0.28589 0.17536
 H2389 H 0.77594 0.29089 0.09652
 H2390 H 0.77621 0.27652 0.12938
 H2391 H 0.72465 0.29851 0.13933
 H2392 H 0.72441 0.31285 0.10653
 H2393 H 0.77113 0.34284 0.11929
 H2394 H 0.77139 0.32848 0.15210
 C2395 C 0.25791 0.81447 0.60757
 C2396 C 0.25015 0.82774 0.62292
 C2397 C 0.25029 0.82004 0.64059
 C2398 C 0.25818 0.79981 0.64122
 C2399 C 0.27790 0.80117 0.63218
 C2400 C 0.27775 0.80889 0.61447
 C2401 C 0.24604 0.79634 0.60925
 C2402 C 0.24618 0.78863 0.62694
 C2403 C 0.25762 0.82297 0.58863
 C2404 C 0.25716 0.83052 0.57333
 C2405 C 0.25814 0.79157 0.66027
 C2406 C 0.25767 0.78479 0.67593
 H2407 H 0.24500 0.84196 0.62014
 H2408 H 0.24527 0.82766 0.65295
 H2409 H 0.29081 0.79649 0.63906
 H2410 H 0.29055 0.81081 0.60619
 H2411 H 0.23823 0.79010 0.59758
 H2412 H 0.23849 0.77578 0.63042
 C2413 C 0.74605 0.68590 0.60772
 C2414 C 0.76583 0.68790 0.61648
 C2415 C 0.76572 0.69572 0.63409
 C2416 C 0.74584 0.70078 0.64123
 C2417 C 0.73447 0.68231 0.63987
 C2418 C 0.73458 0.67449 0.62225
 C2419 C 0.73758 0.70591 0.60827
 C2420 C 0.73747 0.71374 0.62590
 C2421 C 0.74621 0.67725 0.58888
 C2422 C 0.74642 0.66955 0.57367
 C2423 C 0.74583 0.70909 0.66023
 C2424 C 0.74606 0.71580 0.67590
 H2425 H 0.77879 0.68357 0.60945
 H2426 H 0.77859 0.69809 0.64216
 H2427 H 0.72698 0.67595 0.65168
 H2428 H 0.72717 0.66142 0.61898
 H2429 H 0.73215 0.71327 0.59590
 H2430 H 0.73195 0.72782 0.62866
 C2431 C 0.24651 0.18506 0.10630
 C2432 C 0.23148 0.20057 0.10864
 C2433 C 0.23114 0.20837 0.12629
 C2434 C 0.24587 0.19987 0.13984
 C2435 C 0.26492 0.20223 0.12965
 C2436 C 0.26526 0.19444 0.11201
 C2437 C 0.24234 0.17071 0.12209
 C2438 C 0.24200 0.17849 0.13972
 C2439 C 0.24693 0.17645 0.08743
 C2440 C 0.24734 0.16877 0.07220
 C2441 C 0.24563 0.20815 0.15886
 C2442 C 0.24570 0.21485 0.17454
 H2443 H 0.22196 0.20505 0.09743
 H2444 H 0.22133 0.21952 0.13021
 H2445 H 0.27707 0.20941 0.13574
 H2446 H 0.27769 0.19495 0.10299
 H2447 H 0.23985 0.15573 0.11964
 H2448 H 0.23922 0.17019 0.15236
 C2449 C 0.25447 0.18708 0.89206
 C2450 C 0.25012 0.20837 0.89187
 C2451 C 0.25054 0.21619 0.87423
 C2452 C 0.25526 0.20194 0.85852
 C2453 C 0.24056 0.18608 0.86067
 C2454 C 0.24014 0.17827 0.87829
 C2455 C 0.27372 0.18517 0.88216
 C2456 C 0.27414 0.19299 0.86451
 C2457 C 0.25384 0.17849 0.91095
 C2458 C 0.25294 0.17099 0.92626
 C2459 C 0.25552 0.21028 0.83950
 C2460 C 0.25535 0.21707 0.82385
 H2461 H 0.24702 0.21658 0.90448
 H2462 H 0.24779 0.23111 0.87172
 H2463 H 0.23129 0.18139 0.84935
 H2464 H 0.23051 0.16689 0.88206
 H2465 H 0.28594 0.17830 0.88846
 H2466 H 0.28671 0.19283 0.85569
 C2467 C 0.75358 0.68634 0.39241
 C2468 C 0.75767 0.67213 0.37649
 C2469 C 0.75827 0.68014 0.35896
 C2470 C 0.75472 0.70157 0.35904
 C2471 C 0.76947 0.70969 0.37280
 C2472 C 0.76887 0.70167 0.39037
 C2473 C 0.73503 0.69606 0.38664
 C2474 C 0.73563 0.70407 0.36911
 C2475 C 0.75277 0.67756 0.41121
 C2476 C 0.75176 0.66996 0.42645
 C2477 C 0.75517 0.71012 0.34013
 C2478 C 0.75513 0.71707 0.32454
 H2479 H 0.75993 0.65709 0.37880
 H2480 H 0.76103 0.67197 0.34624
 H2481 H 0.77949 0.72074 0.36908
 H2482 H 0.77837 0.70585 0.40169
 H2483 H 0.72253 0.69663 0.39556
 H2484 H 0.72363 0.71149 0.36300
 C2485 C 0.24637 0.81355 0.39154
 C2486 C 0.24170 0.79232 0.39160
 C2487 C 0.24113 0.78451 0.37396
 C2488 C 0.24529 0.79871 0.35801
 C2489 C 0.26454 0.80740 0.36307
 C2490 C 0.26511 0.81520 0.38069
 C2491 C 0.23150 0.82258 0.37849
 C2492 C 0.23093 0.81477 0.36086
 C2493 C 0.24716 0.82212 0.41043
 C2494 C 0.24819 0.82960 0.42573
 C2495 C 0.24484 0.79037 0.33901
 C2496 C 0.24481 0.78356 0.32337
 H2497 H 0.23906 0.78415 0.40435
 H2498 H 0.23800 0.76965 0.37160
 H2499 H 0.27668 0.80743 0.35365
 H2500 H 0.27774 0.82190 0.38634
 H2501 H 0.22222 0.83406 0.38273
 H2502 H 0.22117 0.81957 0.35000
 C2503 C 0.74742 0.31325 0.89219
 C2504 C 0.74314 0.29194 0.89215
 C2505 C 0.74269 0.28420 0.87447
 C2506 C 0.74658 0.29855 0.85858
 C2507 C 0.76569 0.30756 0.86368
 C2508 C 0.76613 0.31528 0.88133
 C2509 C 0.73239 0.32207 0.87919
 C2510 C 0.73195 0.31434 0.86152
 C2511 C 0.74807 0.32174 0.91113
 C2512 C 0.74897 0.32917 0.92646
 C2513 C 0.74626 0.29029 0.83954
 C2514 C 0.74631 0.28352 0.82388
 H2515 H 0.74065 0.28366 0.90486
 H2516 H 0.73983 0.26930 0.87204
 H2517 H 0.77781 0.30785 0.85425
 H2518 H 0.77864 0.32218 0.88701
 H2519 H 0.72291 0.33336 0.88349
 H2520 H 0.72210 0.31902 0.85069
 C2521 C 0.81394 0.39349 0.24204
 C2522 C 0.80168 0.38918 0.25945
 C2523 C 0.79386 0.37155 0.25921
 C2524 C 0.79905 0.35994 0.24160
 C2525 C 0.82077 0.35982 0.24115
 C2526 C 0.82859 0.37745 0.24138
 C2527 C 0.80096 0.38998 0.22497
 C2528 C 0.79312 0.37232 0.22474
 C2529 C 0.82259 0.41237 0.24243
 C2530 C 0.83025 0.42762 0.24296
 C2531 C 0.79070 0.34093 0.24155
 C2532 C 0.78388 0.32529 0.24197
 H2533 H 0.79933 0.39911 0.27093
 H2534 H 0.78480 0.36637 0.27051
 H2535 H 0.82925 0.34702 0.24066
 H2536 H 0.84379 0.37974 0.24109
 H2537 H 0.79816 0.40043 0.21404
 H2538 H 0.78361 0.36764 0.21361
 C2539 C 0.31550 0.89260 0.74331
 C2540 C 0.32151 0.88060 0.72622
 C2541 C 0.31380 0.86290 0.72610
 C2542 C 0.30085 0.85894 0.74309
 C2543 C 0.28607 0.87489 0.74273
 C2544 C 0.29378 0.89259 0.74285
 C2545 C 0.32079 0.88066 0.76069
 C2546 C 0.31309 0.86298 0.76057
 C2547 C 0.32399 0.91155 0.74355
 C2548 C 0.33150 0.92688 0.74394
 C2549 C 0.29260 0.83988 0.74313
 C2550 C 0.28577 0.82425 0.74356
 H2551 H 0.33096 0.88558 0.71517
 H2552 H 0.31665 0.85272 0.71496
 H2553 H 0.27090 0.87248 0.74240
 H2554 H 0.28522 0.90535 0.74263
 H2555 H 0.32979 0.88567 0.77210
 H2556 H 0.31550 0.85284 0.77188
 C2557 C 0.18517 0.89203 0.25430
 C2558 C 0.18631 0.88301 0.27404
 C2559 C 0.19417 0.86538 0.27406
 C2560 C 0.20012 0.85853 0.25432
 C2561 C 0.21339 0.87401 0.24673
 C2562 C 0.20553 0.89164 0.24672
 C2563 C 0.17433 0.87764 0.24216
 C2564 C 0.18218 0.86004 0.24217
 C2565 C 0.17648 0.91087 0.25423
 C2566 C 0.16872 0.92608 0.25409
 C2567 C 0.20847 0.83953 0.25424
 C2568 C 0.21522 0.82387 0.25396
 H2569 H 0.18139 0.88986 0.28688
 H2570 H 0.19599 0.85714 0.28690
 H2571 H 0.22771 0.87136 0.24182
 H2572 H 0.21309 0.90409 0.24180
 H2573 H 0.16159 0.88098 0.23423
 H2574 H 0.17617 0.84831 0.23426
 C2575 C 0.68643 0.39188 0.75405
 C2576 C 0.69082 0.38413 0.73425
 C2577 C 0.69873 0.36654 0.73445
 C2578 C 0.70147 0.35843 0.75442
 C2579 C 0.68179 0.35918 0.76357
 C2580 C 0.67389 0.37676 0.76338
 C2581 C 0.70529 0.39097 0.76480
 C2582 C 0.71321 0.37336 0.76500
 C2583 C 0.67769 0.41070 0.75378
 C2584 C 0.66993 0.42589 0.75349
 C2585 C 0.70988 0.33945 0.75452
 C2586 C 0.71668 0.32381 0.75434
 H2587 H 0.68799 0.39178 0.72122
 H2588 H 0.70267 0.35912 0.72158
 H2589 H 0.67470 0.34698 0.76968
 H2590 H 0.66001 0.37962 0.76932
 H2591 H 0.71185 0.40308 0.77165
 H2592 H 0.72656 0.37038 0.77202
 C2593 C 0.68617 0.60735 0.74638
 C2594 C 0.70294 0.60893 0.73265
 C2595 C 0.71089 0.62653 0.73216
 C2596 C 0.70129 0.64079 0.74544
 C2597 C 0.70190 0.63148 0.76508
 C2598 C 0.69395 0.61391 0.76557
 C2599 C 0.67238 0.62299 0.74024
 C2600 C 0.68032 0.64057 0.73975
 C2601 C 0.67746 0.58851 0.74708
 C2602 C 0.66991 0.57323 0.74801
 C2603 C 0.70978 0.65974 0.74509
 C2604 C 0.71671 0.67533 0.74517
 H2605 H 0.70810 0.59727 0.72407
 H2606 H 0.72287 0.62995 0.72316
 H2607 H 0.70805 0.63810 0.77751
 H2608 H 0.69330 0.60548 0.77841
 H2609 H 0.65766 0.62048 0.73657
 H2610 H 0.67242 0.65311 0.73566
 C2611 C 0.18597 0.10628 0.24615
 C2612 C 0.20267 0.10778 0.23233
 C2613 C 0.21054 0.12541 0.23159
 C2614 C 0.20091 0.13979 0.24474
 C2615 C 0.20165 0.13073 0.26448
 C2616 C 0.19380 0.11312 0.26522
 C2617 C 0.17207 0.12177 0.23988
 C2618 C 0.17992 0.13938 0.23913
 C2619 C 0.17737 0.08740 0.24712
 C2620 C 0.16990 0.07208 0.24826
 C2621 C 0.20931 0.15878 0.24413
 C2622 C 0.21616 0.17441 0.24403
 H2623 H 0.20786 0.09605 0.22388
 H2624 H 0.22246 0.12879 0.22250
 H2625 H 0.20782 0.13754 0.27680
 H2626 H 0.19325 0.10485 0.27818
 H2627 H 0.15736 0.11913 0.23631
 H2628 H 0.17194 0.15183 0.23493
 C2629 C 0.31425 0.10897 0.75333
 C2630 C 0.31003 0.11716 0.73365
 C2631 C 0.30227 0.13481 0.73410
 C2632 C 0.29949 0.14256 0.75420
 C2633 C 0.31912 0.14146 0.76344
 C2634 C 0.32688 0.12380 0.76299
 C2635 C 0.29534 0.10985 0.76398
 C2636 C 0.28757 0.12752 0.76444
 C2637 C 0.32278 0.09005 0.75265
 C2638 C 0.33023 0.07472 0.75171
 C2639 C 0.29119 0.16160 0.75451
 C2640 C 0.28442 0.17726 0.75442
 H2641 H 0.31287 0.10974 0.72050
 H2642 H 0.29847 0.14250 0.72134
 H2643 H 0.32628 0.15348 0.76981
 H2644 H 0.34069 0.12070 0.76897
 H2645 H 0.28865 0.09768 0.77059
 H2646 H 0.27422 0.13049 0.77144
 C2647 C 0.81425 0.60949 0.25363
 C2648 C 0.80187 0.61408 0.23638
 C2649 C 0.79414 0.63174 0.23690
 C2650 C 0.79954 0.64309 0.25462
 C2651 C 0.82126 0.64312 0.25492
 C2652 C 0.82899 0.62546 0.25439
 C2653 C 0.80142 0.61282 0.27085
 C2654 C 0.79368 0.63050 0.27137
 C2655 C 0.82275 0.59055 0.25289
 C2656 C 0.83016 0.57521 0.25188
 C2657 C 0.79127 0.66213 0.25501
 C2658 C 0.78451 0.67780 0.25499
 H2659 H 0.79938 0.60432 0.22478
 H2660 H 0.78502 0.63710 0.22574
 H2661 H 0.82981 0.65588 0.25550
 H2662 H 0.84417 0.62310 0.25454
 H2663 H 0.79867 0.60224 0.28166
 H2664 H 0.78429 0.63507 0.28263
 C2665 C 0.89178 0.25839 0.18430
 C2666 C 0.88651 0.27721 0.19379
 C2667 C 0.86882 0.27725 0.20151
 C2668 C 0.85817 0.25846 0.19897
 C2669 C 0.87131 0.24333 0.20740
 C2670 C 0.88899 0.24329 0.19968
 C2671 C 0.87595 0.25472 0.16987
 C2672 C 0.85829 0.25476 0.17758
 C2673 C 0.91071 0.25822 0.17579
 C2674 C 0.92599 0.25789 0.16823
 C2675 C 0.83913 0.25832 0.20722
 C2676 C 0.82350 0.25782 0.21403
 H2677 H 0.89584 0.28942 0.19441
 H2678 H 0.86298 0.28949 0.20874
 H2679 H 0.86711 0.23352 0.21847
 H2680 H 0.89993 0.23346 0.20415
 H2681 H 0.87840 0.25232 0.15489
 H2682 H 0.84561 0.25240 0.16921
 C2683 C 0.39241 0.75754 0.68549
 C2684 C 0.38696 0.77672 0.69414
 C2685 C 0.36927 0.77693 0.70188
 C2686 C 0.35881 0.75794 0.70019
 C2687 C 0.37212 0.74333 0.70927
 C2688 C 0.38978 0.74312 0.70154
 C2689 C 0.37660 0.75308 0.67126
 C2690 C 0.35894 0.75329 0.67898
 C2691 C 0.41133 0.75718 0.67696
 C2692 C 0.42661 0.75667 0.66941
 C2693 C 0.33978 0.75796 0.70847
 C2694 C 0.32416 0.75753 0.71529
 H2695 H 0.39617 0.78903 0.69419
 H2696 H 0.36333 0.78942 0.70855
 H2697 H 0.36803 0.73399 0.72078
 H2698 H 0.40082 0.73361 0.70642
 H2699 H 0.37905 0.75003 0.65640
 H2700 H 0.34628 0.75043 0.67075
 C2701 C 0.39274 0.24693 0.81333
 C2702 C 0.39238 0.23946 0.79293
 C2703 C 0.37475 0.23935 0.78507
 C2704 C 0.35924 0.24672 0.79838
 C2705 C 0.36595 0.26648 0.80444
 C2706 C 0.38356 0.26660 0.81230
 C2707 C 0.37846 0.23458 0.82411
 C2708 C 0.36085 0.23446 0.81625
 C2709 C 0.41159 0.24709 0.82202
 C2710 C 0.42681 0.24726 0.82973
 C2711 C 0.34024 0.24668 0.79002
 C2712 C 0.32459 0.24684 0.78324
 H2713 H 0.40486 0.23469 0.78535
 H2714 H 0.37212 0.23448 0.77073
 H2715 H 0.35760 0.27928 0.80270
 H2716 H 0.39030 0.27948 0.81729
 H2717 H 0.38189 0.22660 0.83680
 H2718 H 0.34920 0.22640 0.82221
 C2719 C 0.89274 0.74714 0.31463
 C2720 C 0.89233 0.73923 0.29441
 C2721 C 0.87471 0.73914 0.28651
 C2722 C 0.85926 0.74698 0.29963
 C2723 C 0.86619 0.76680 0.30526
 C2724 C 0.88379 0.76689 0.31315
 C2725 C 0.87831 0.73520 0.32566
 C2726 C 0.86071 0.73511 0.31778
 C2727 C 0.91158 0.74727 0.32335
 C2728 C 0.92678 0.74741 0.33110
 C2729 C 0.84028 0.74697 0.29124
 C2730 C 0.82464 0.74715 0.28443
 H2731 H 0.90477 0.73415 0.28695
 H2732 H 0.87205 0.73398 0.27229
 H2733 H 0.85799 0.77964 0.30323
 H2734 H 0.89067 0.77980 0.31786
 H2735 H 0.88162 0.72747 0.33853
 H2736 H 0.84895 0.72731 0.32389
 C2737 C 0.10696 0.75348 0.31354
 C2738 C 0.12274 0.74722 0.32711
 C2739 C 0.14034 0.74771 0.31927
 C2740 C 0.14046 0.75441 0.29860
 C2741 C 0.13053 0.77375 0.29885
 C2742 C 0.11290 0.77326 0.30671
 C2743 C 0.10907 0.74063 0.29615
 C2744 C 0.12668 0.74112 0.28830
 C2745 C 0.08808 0.75277 0.32215
 C2746 C 0.07278 0.75185 0.32964
 C2747 C 0.15945 0.75476 0.29021
 C2748 C 0.17509 0.75466 0.28339
 H2749 H 0.12030 0.74280 0.34163
 H2750 H 0.15297 0.74372 0.32706
 H2751 H 0.13678 0.78667 0.29334
 H2752 H 0.10405 0.78576 0.30793
 H2753 H 0.09772 0.73194 0.29049
 H2754 H 0.13041 0.73284 0.27591
 C2755 C 0.60856 0.25345 0.81381
 C2756 C 0.62388 0.24452 0.82637
 C2757 C 0.64150 0.24497 0.81858
 C2758 C 0.64210 0.25430 0.79897
 C2759 C 0.63337 0.27401 0.80180
 C2760 C 0.61572 0.27356 0.80961
 C2761 C 0.60994 0.24291 0.79488
 C2762 C 0.62757 0.24335 0.78707
 C2763 C 0.58966 0.25280 0.82237
 C2764 C 0.57434 0.25190 0.82982
 C2765 C 0.66111 0.25461 0.79063
 C2766 C 0.67676 0.25450 0.78384
 H2767 H 0.62113 0.23838 0.84020
 H2768 H 0.65384 0.23922 0.82572
 H2769 H 0.64042 0.28714 0.79800
 H2770 H 0.60765 0.28631 0.81250
 H2771 H 0.59810 0.23574 0.78818
 H2772 H 0.63084 0.23656 0.77368
 C2773 C 0.60858 0.74649 0.68624
 C2774 C 0.61719 0.76617 0.68957
 C2775 C 0.63485 0.76567 0.69728
 C2776 C 0.64220 0.74554 0.70091
 C2777 C 0.64081 0.73549 0.68171
 C2778 C 0.62313 0.73599 0.67399
 C2779 C 0.60933 0.73663 0.70559
 C2780 C 0.62702 0.73613 0.71331
 C2781 C 0.58964 0.74721 0.67776
 C2782 C 0.57430 0.74820 0.67035
 C2783 C 0.66125 0.74517 0.70915
 C2784 C 0.67693 0.74522 0.71589
 H2785 H 0.61004 0.77934 0.68618
 H2786 H 0.64283 0.77842 0.70049
 H2787 H 0.65265 0.72857 0.67479
 H2788 H 0.61983 0.72949 0.66046
 H2789 H 0.59706 0.73056 0.71260
 H2790 H 0.62991 0.72963 0.72694
 C2791 C 0.10792 0.24643 0.18464
 C2792 C 0.12124 0.23250 0.17460
 C2793 C 0.13891 0.23177 0.18232
 C2794 C 0.14153 0.24504 0.19932
 C2795 C 0.12572 0.23958 0.21322
 C2796 C 0.10804 0.24031 0.20549
 C2797 C 0.11839 0.26548 0.18427
 C2798 C 0.13604 0.26475 0.19198
 C2799 C 0.08899 0.24742 0.17617
 C2800 C 0.07366 0.24862 0.16877
 C2801 C 0.16057 0.24445 0.20758
 C2802 C 0.17624 0.24437 0.21433
 H2803 H 0.11714 0.22394 0.16252
 H2804 H 0.14995 0.22259 0.17685
 H2805 H 0.12820 0.23548 0.22782
 H2806 H 0.09538 0.23684 0.21348
 H2807 H 0.11245 0.27842 0.17847
 H2808 H 0.14522 0.27707 0.19278
 C2809 C -0.06477 0.99696 0.86151
 C2810 C -0.07809 1.00435 0.87700
 C2811 C -0.07061 1.00338 0.89474
 C2812 C -0.05053 0.99512 0.89529
 C2813 C -0.03899 1.00748 0.88161
 C2814 C -0.04648 1.00845 0.86385
 C2815 C -0.05961 0.97676 0.86771
 C2816 C -0.05211 0.97579 0.88548
 C2817 C -0.07303 0.99811 0.84249
 C2818 C -0.08037 0.99915 0.82711
 C2819 C -0.04251 0.99433 0.91443
 C2820 C -0.03586 0.99432 0.93015
 H2821 H -0.09218 1.00985 0.87427
 H2822 H -0.07829 1.00804 0.90720
 H2823 H -0.02606 1.01481 0.88552
 H2824 H -0.03997 1.01660 0.85256
 H2825 H -0.06164 0.96433 0.85891
 H2826 H -0.04773 0.96253 0.89191
 C2827 C 0.43413 0.49865 0.36106
 C2828 C 0.42087 0.50612 0.37656
 C2829 C 0.42842 0.50524 0.39427
 C2830 C 0.44849 0.49697 0.39479
 C2831 C 0.45999 0.50926 0.38101
 C2832 C 0.45244 0.51014 0.36327
 C2833 C 0.43931 0.47848 0.36734
 C2834 C 0.44686 0.47760 0.38508
 C2835 C 0.42579 0.49963 0.34207
 C2836 C 0.41835 0.50042 0.32673
 C2837 C 0.45655 0.49616 0.41391
 C2838 C 0.46313 0.49589 0.42965
 H2839 H 0.40678 0.51163 0.37385
 H2840 H 0.42079 0.50998 0.40674
 H2841 H 0.47294 0.51660 0.38484
 H2842 H 0.45891 0.51824 0.35191
 H2843 H 0.43724 0.46600 0.35861
 H2844 H 0.45126 0.46436 0.39156
 C2845 C 0.56611 0.00502 0.35583
 C2846 C 0.55788 0.02458 0.36054
 C2847 C 0.55001 0.02562 0.37813
 C2848 C 0.55115 0.00700 0.38928
 C2849 C 0.57224 0.00182 0.38949
 C2850 C 0.58010 0.00078 0.37191
 C2851 C 0.54969 -0.00890 0.35884
 C2852 C 0.54182 -0.00786 0.37642
 C2853 C 0.57474 0.00397 0.33698
 C2854 C 0.58226 0.00346 0.32166
 C2855 C 0.54274 0.00796 0.40824
 C2856 C 0.53589 0.00824 0.42387
 H2857 H 0.55819 0.03656 0.35091
 H2858 H 0.54360 0.03848 0.38356
 H2859 H 0.58031 -0.00079 0.40231
 H2860 H 0.59490 -0.00273 0.36969
 H2861 H 0.54468 -0.01869 0.34811
 H2862 H 0.53006 -0.01677 0.38075
 C2863 C 0.06577 0.50463 0.85571
 C2864 C 0.05770 0.52428 0.86037
 C2865 C 0.05003 0.52548 0.87803
 C2866 C 0.05119 0.50693 0.88930
 C2867 C 0.07226 0.50164 0.88932
 C2868 C 0.07992 0.50043 0.87167
 C2869 C 0.04932 0.49083 0.85899
 C2870 C 0.04165 0.49203 0.87665
 C2871 C 0.07419 0.50340 0.83676
 C2872 C 0.08152 0.50270 0.82137
 C2873 C 0.04297 0.50806 0.90834
 C2874 C 0.03622 0.50845 0.92401
 H2875 H 0.05798 0.53619 0.85065
 H2876 H 0.04374 0.53842 0.88344
 H2877 H 0.08044 0.49908 0.90207
 H2878 H 0.09467 0.49683 0.86931
 H2879 H 0.04414 0.48099 0.84838
 H2880 H 0.02989 0.48322 0.88116
 C2881 C 0.05886 0.49655 0.64079
 C2882 C 0.04292 0.48178 0.63985
 C2883 C 0.03471 0.48037 0.62242
 C2884 C 0.04327 0.49388 0.60768
 C2885 C 0.06454 0.48948 0.60767
 C2886 C 0.07272 0.49088 0.62506
 C2887 C 0.04983 0.51507 0.63392
 C2888 C 0.04163 0.51367 0.61651
 C2889 C 0.06798 0.49812 0.65939
 C2890 C 0.07615 0.49943 0.67431
 C2891 C 0.03465 0.49257 0.58883
 C2892 C 0.02792 0.49204 0.57316
 H2893 H 0.03847 0.47320 0.65181
 H2894 H 0.02324 0.47059 0.61944
 H2895 H 0.07247 0.48557 0.59511
 H2896 H 0.08767 0.48818 0.62738
 H2897 H 0.04983 0.52813 0.64201
 H2898 H 0.03462 0.52554 0.60970
 C2899 C 0.55984 0.99699 0.14195
 C2900 C 0.56997 1.00851 0.12656
 C2901 C 0.56179 1.00706 0.10918
 C2902 C 0.54426 0.99422 0.10884
 C2903 C 0.53102 1.00238 0.12404
 C2904 C 0.53922 1.00383 0.14146
 C2905 C 0.55921 0.97665 0.13429
 C2906 C 0.55102 0.97519 0.11688
 C2907 C 0.56895 0.99863 0.16054
 C2908 C 0.57710 1.00000 0.17547
 C2909 C 0.53563 0.99287 0.09000
 C2910 C 0.52887 0.99233 0.07434
 H2911 H 0.58249 1.01707 0.12909
 H2912 H 0.56730 1.01437 0.09683
 H2913 H 0.51649 1.00660 0.12135
 H2914 H 0.53173 1.00931 0.15370
 H2915 H 0.56470 0.96446 0.14189
 H2916 H 0.54948 0.96177 0.10956
 C2917 C 0.43704 0.49792 0.14531
 C2918 C 0.45052 0.48133 0.14144
 C2919 C 0.45857 0.48190 0.12391
 C2920 C 0.45234 0.49900 0.11198
 C2921 C 0.45693 0.51637 0.12419
 C2922 C 0.44889 0.51580 0.14172
 C2923 C 0.42261 0.49738 0.12907
 C2924 C 0.43065 0.49795 0.11156
 C2925 C 0.42816 0.49745 0.16408
 C2926 C 0.42035 0.49749 0.17925
 C2927 C 0.46088 0.49957 0.09305
 C2928 C 0.46772 0.49982 0.07742
 H2929 H 0.45349 0.47015 0.15157
 H2930 H 0.46844 0.47119 0.11902
 H2931 H 0.46573 0.52807 0.11950
 H2932 H 0.45081 0.52702 0.15204
 H2933 H 0.40740 0.49662 0.13114
 H2934 H 0.42233 0.49767 0.09864
 C2935 C -0.06232 -0.00210 0.64636
 C2936 C -0.04876 -0.01862 0.64247
 C2937 C -0.04090 -0.01812 0.62485
 C2938 C -0.04736 -0.00115 0.61286
 C2939 C -0.04276 0.01634 0.62491
 C2940 C -0.05063 0.01584 0.64252
 C2941 C -0.07690 -0.00284 0.63027
 C2942 C -0.06905 -0.00234 0.61267
 C2943 C -0.07100 -0.00248 0.66523
 C2944 C -0.07868 -0.00231 0.68047
 C2945 C -0.03902 -0.00064 0.59385
 C2946 C -0.03234 -0.00042 0.57814
 H2947 H -0.04562 -0.02971 0.65264
 H2948 H -0.03101 -0.02880 0.61993
 H2949 H -0.03409 0.02807 0.62005
 H2950 H -0.04868 0.02714 0.65274
 H2951 H -0.09209 -0.00370 0.63250
 H2952 H -0.07750 -0.00277 0.59984
 C2953 C -0.14406 0.93760 0.99979
 C2954 C -0.13029 0.92956 1.01455
 C2955 C -0.11275 0.93756 1.01391
 C2956 C -0.11068 0.95284 0.99858
 C2957 C -0.12661 0.96708 1.00262
 C2958 C -0.14416 0.95906 1.00326
 C2959 C -0.13398 0.93505 0.98070
 C2960 C -0.11644 0.94306 0.98007
 C2961 C -0.16286 0.92877 1.00039
 C2962 C -0.17806 0.92101 1.00052
 C2963 C -0.09174 0.96137 0.99801
 C2964 C -0.07612 0.96825 0.99796
 H2965 H -0.13399 0.91855 1.02463
 H2966 H -0.10143 0.93340 1.02344
 H2967 H -0.12430 0.98212 1.00478
 H2968 H -0.15689 0.96723 1.00597
 H2969 H -0.14010 0.92761 0.96873
 H2970 H -0.10753 0.94249 0.96756
 C2971 C 0.35398 0.43707 0.50087
 C2972 C 0.36018 0.44526 0.52000
 C2973 C 0.37770 0.45336 0.51962
 C2974 C 0.38730 0.45246 0.50013
 C2975 C 0.37316 0.46170 0.48645
 C2976 C 0.35564 0.45360 0.48683
 C2977 C 0.36982 0.42330 0.49525
 C2978 C 0.38732 0.43139 0.49486
 C2979 C 0.33522 0.42814 0.50115
 C2980 C 0.32006 0.42029 0.50098
 C2981 C 0.40621 0.46105 0.49975
 C2982 C 0.42184 0.46792 0.49965
 H2983 H 0.35157 0.44477 0.53272
 H2984 H 0.38410 0.45981 0.53202
 H2985 H 0.37660 0.47355 0.47727
 H2986 H 0.34407 0.45852 0.47799
 H2987 H 0.36750 0.40849 0.49186
 H2988 H 0.39998 0.42351 0.49114
 C2989 C 0.35829 0.55888 0.00360
 C2990 C 0.36192 0.54919 0.02273
 C2991 C 0.37936 0.54101 0.02407
 C2992 C 0.39142 0.54333 0.00614
 C2993 C 0.39211 0.56474 0.00251
 C2994 C 0.37472 0.57291 0.00117
 C2995 C 0.36179 0.54346 -0.01129
 C2996 C 0.37921 0.53528 -0.00995
 C2997 C 0.33968 0.56797 0.00209
 C2998 C 0.32474 0.57613 0.00082
 C2999 C 0.41028 0.53471 0.00738
 C3000 C 0.42594 0.52795 0.00785
 H3001 H 0.35170 0.54878 0.03419
 H3002 H 0.38408 0.53358 0.03668
 H3003 H 0.40514 0.57279 0.00112
 H3004 H 0.37285 0.58796 -0.00136
 H3005 H 0.35149 0.53930 -0.02191
 H3006 H 0.38383 0.52411 -0.01943
 C3007 C -0.14134 0.05969 0.50356
 C3008 C -0.13784 0.05014 0.52279
 C3009 C -0.12049 0.04180 0.52425
 C3010 C -0.10836 0.04385 0.50633
 C3011 C -0.10746 0.06522 0.50250
 C3012 C -0.12477 0.07354 0.50105
 C3013 C -0.13794 0.04410 0.48883
 C3014 C -0.12060 0.03577 0.49028
 C3015 C -0.15986 0.06893 0.50192
 C3016 C -0.17473 0.07719 0.50057
 C3017 C -0.08958 0.03508 0.50769
 C3018 C -0.07397 0.02821 0.50826
 H3019 H -0.14810 0.04992 0.53423
 H3020 H -0.11587 0.03445 0.53693
 H3021 H -0.09435 0.07314 0.50108
 H3022 H -0.12650 0.08858 0.49837
 H3023 H -0.14825 0.03994 0.47821
 H3024 H -0.11606 0.02447 0.48092
 C3025 C 0.64405 0.06681 0.49588
 C3026 C 0.64098 0.05457 0.47818
 C3027 C 0.62333 0.04682 0.47709
 C3028 C 0.61049 0.05208 0.49379
 C3029 C 0.61045 0.07381 0.49425
 C3030 C 0.62808 0.08155 0.49535
 C3031 C 0.63921 0.05383 0.51262
 C3032 C 0.62157 0.04609 0.51152
 C3033 C 0.66298 0.07530 0.49701
 C3034 C 0.67836 0.08269 0.49763
 C3035 C 0.59147 0.04378 0.49278
 C3036 C 0.57582 0.03696 0.49246
 H3037 H 0.65172 0.05219 0.46747
 H3038 H 0.61895 0.03781 0.46543
 H3039 H 0.59769 0.08236 0.49374
 H3040 H 0.63042 0.09674 0.49579
 H3041 H 0.64879 0.05096 0.52430
 H3042 H 0.61604 0.03658 0.52227
 C3043 C 0.14404 0.56646 0.99519
 C3044 C 0.14200 0.55141 0.97964
 C3045 C 0.12429 0.54381 0.97850
 C3046 C 0.11037 0.55201 0.99301
 C3047 C 0.11084 0.57350 0.98976
 C3048 C 0.12854 0.58109 0.99090
 C3049 C 0.13763 0.55661 1.01345
 C3050 C 0.11993 0.54901 1.01231
 C3051 C 0.16304 0.57480 0.99637
 C3052 C 0.17846 0.58209 0.99705
 C3053 C 0.09128 0.54387 0.99196
 C3054 C 0.07560 0.53714 0.99167
 H3055 H 0.15346 0.54709 0.97036
 H3056 H 0.12057 0.53299 0.96824
 H3057 H 0.09838 0.58200 0.98681
 H3058 H 0.13123 0.59610 0.98893
 H3059 H 0.14623 0.55566 1.02616
 H3060 H 0.11337 0.54156 1.02405
 C3061 C 0.13836 0.43421 0.49981
 C3062 C 0.13807 0.45457 0.50741
 C3063 C 0.12034 0.46213 0.50850
 C3064 C 0.10467 0.44857 0.50189
 C3065 C 0.10723 0.43066 0.51393
 C3066 C 0.12494 0.42311 0.51284
 C3067 C 0.12812 0.43518 0.48068
 C3068 C 0.11041 0.44272 0.48177
 C3069 C 0.15733 0.42587 0.49860
 C3070 C 0.17265 0.41843 0.49766
 C3071 C 0.08556 0.45662 0.50291
 C3072 C 0.06983 0.46319 0.50331
 H3073 H 0.15065 0.46236 0.51155
 H3074 H 0.11773 0.47639 0.51359
 H3075 H 0.09613 0.42446 0.52257
 H3076 H 0.12900 0.41044 0.52054
 H3077 H 0.13424 0.43038 0.46743
 H3078 H 0.10137 0.44438 0.46945
 C3079 C 0.63997 0.93525 0.00091
 C3080 C 0.63184 0.93551 0.02107
 C3081 C 0.61407 0.94295 0.02214
 C3082 C 0.60618 0.94938 0.00295
 C3083 C 0.60752 0.93189 -0.00986
 C3084 C 0.62527 0.92447 -0.01092
 C3085 C 0.63875 0.95584 -0.00595
 C3086 C 0.62098 0.96327 -0.00488
 C3087 C 0.65898 0.92701 -0.00027
 C3088 C 0.67433 0.91961 -0.00121
 C3089 C 0.58701 0.95730 0.00393
 C3090 C 0.57123 0.96376 0.00430
 H3091 H 0.63939 0.93034 0.03342
 H3092 H 0.60639 0.94414 0.03540
 H3093 H 0.59558 0.92586 -0.01742
 H3094 H 0.62853 0.91208 -0.01941
 H3095 H 0.65078 0.96386 -0.01117
 H3096 H 0.61778 0.97768 -0.00919
 C3097 C -0.00419 0.85969 0.93970
 C3098 C -0.01854 0.87279 0.92995
 C3099 C -0.01987 0.89024 0.93807
 C3100 C -0.00671 0.89288 0.95515
 C3101 C 0.01317 0.88821 0.94772
 C3102 C 0.01449 0.87079 0.93961
 C3103 C -0.01032 0.85910 0.96054
 C3104 C -0.01164 0.87657 0.96867
 C3105 C -0.00264 0.84105 0.93070
 C3106 C -0.00128 0.82604 0.92268
 C3107 C -0.00786 0.91175 0.96374
 C3108 C -0.00811 0.92738 0.97058
 H3109 H -0.02696 0.86871 0.91775
 H3110 H -0.02941 0.90110 0.93284
 H3111 H 0.02517 0.89777 0.94877
 H3112 H 0.02762 0.86541 0.93371
 H3113 H -0.01335 0.84613 0.96821
 H3114 H -0.01582 0.87856 0.98332
 C3115 C 0.49596 0.35863 0.44027
 C3116 C 0.48125 0.37166 0.43097
 C3117 C 0.47994 0.38902 0.43926
 C3118 C 0.49347 0.39167 0.45604
 C3119 C 0.51322 0.38727 0.44812
 C3120 C 0.51453 0.36992 0.43984
 C3121 C 0.49033 0.35781 0.46125
 C3122 C 0.48902 0.37520 0.46955
 C3123 C 0.49744 0.34009 0.43105
 C3124 C 0.49867 0.32521 0.42280
 C3125 C 0.49227 0.41047 0.46476
 C3126 C 0.49181 0.42612 0.47154
 H3127 H 0.47259 0.36759 0.41894
 H3128 H 0.47017 0.39981 0.43434
 H3129 H 0.52515 0.39694 0.44897
 H3130 H 0.52757 0.36472 0.43360
 H3131 H 0.48761 0.34475 0.46889
 H3132 H 0.48517 0.37704 0.48431
 C3133 C -0.00152 0.35404 0.56246
 C3134 C 0.01334 0.35601 0.54672
 C3135 C 0.01373 0.37353 0.53859
 C3136 C -0.00076 0.38735 0.54699
 C3137 C 0.00337 0.38756 0.56831
 C3138 C 0.00297 0.37007 0.57644
 C3139 C -0.02033 0.35974 0.55321
 C3140 C -0.01993 0.37726 0.54507
 C3141 C -0.00181 0.33529 0.57144
 C3142 C -0.00161 0.32014 0.57933
 C3143 C -0.00036 0.40626 0.53835
 C3144 C -0.00023 0.42189 0.53145
 H3145 H 0.02270 0.34465 0.54234
 H3146 H 0.02344 0.37716 0.52724
 H3147 H 0.00635 0.40033 0.57633
 H3148 H 0.00561 0.36787 0.59142
 H3149 H -0.03285 0.35082 0.55304
 H3150 H -0.03212 0.38333 0.53793
 C3151 C 0.49843 0.85471 0.06338
 C3152 C 0.49358 0.85474 0.04219
 C3153 C 0.49423 0.87229 0.03415
 C3154 C 0.49967 0.88808 0.04808
 C3155 C 0.51859 0.88175 0.05666
 C3156 C 0.51794 0.86422 0.06470
 C3157 C 0.48465 0.86890 0.07233
 C3158 C 0.48530 0.88644 0.06430
 C3159 C 0.49788 0.83591 0.07225
 C3160 C 0.49787 0.82071 0.08004
 C3161 C 0.50033 0.90702 0.03953
 C3162 C 0.50065 0.92266 0.03268
 H3163 H 0.48995 0.84211 0.03423
 H3164 H 0.49117 0.87469 0.01928
 H3165 H 0.53138 0.89028 0.05644
 H3166 H 0.53019 0.85773 0.07136
 H3167 H 0.47520 0.86548 0.08396
 H3168 H 0.47641 0.89803 0.06904
 C3169 C 0.49885 0.63888 0.06536
 C3170 C 0.49340 0.62349 0.07973
 C3171 C 0.49246 0.60578 0.07216
 C3172 C 0.49707 0.60517 0.05095
 C3173 C 0.51667 0.61441 0.04917
 C3174 C 0.51761 0.63213 0.05674
 C3175 C 0.48427 0.63703 0.04934
 C3176 C 0.48334 0.61930 0.04176
 C3177 C 0.49990 0.65785 0.07375
 C3178 C 0.50074 0.67316 0.08124
 C3179 C 0.49622 0.58604 0.04289
 C3180 C 0.49594 0.57028 0.03634
 H3181 H 0.49051 0.62627 0.09456
 H3182 H 0.48877 0.59340 0.08050
 H3183 H 0.52875 0.60764 0.04252
 H3184 H 0.53048 0.64053 0.05658
 H3185 H 0.47548 0.64863 0.04438
 H3186 H 0.47373 0.61570 0.03031
 C3187 C -0.00087 0.13900 0.56516
 C3188 C -0.00541 0.12362 0.57985
 C3189 C -0.00647 0.10586 0.57241
 C3190 C -0.00290 0.10520 0.55101
 C3191 C 0.01647 0.11469 0.54823
 C3192 C 0.01753 0.13246 0.55566
 C3193 C -0.01619 0.13688 0.54988
 C3194 C -0.01725 0.11909 0.54243
 C3195 C 0.00032 0.15803 0.57339
 C3196 C 0.00127 0.17340 0.58075
 C3197 C -0.00388 0.08603 0.54307
 C3198 C -0.00426 0.07025 0.53657
 H3199 H -0.00760 0.12643 0.59479
 H3200 H -0.00958 0.09347 0.58098
 H3201 H 0.02830 0.10805 0.54102
 H3202 H 0.03026 0.14104 0.55483
 H3203 H -0.02537 0.14832 0.54531
 H3204 H -0.02735 0.11530 0.53149
 C3205 C 0.50439 0.14415 0.43347
 C3206 C 0.49856 0.14348 0.45438
 C3207 C 0.49978 0.12586 0.46219
 C3208 C 0.50672 0.11064 0.44831
 C3209 C 0.52566 0.11813 0.44075
 C3210 C 0.52444 0.13575 0.43295
 C3211 C 0.49184 0.12938 0.42364
 C3212 C 0.49307 0.11178 0.43144
 C3213 C 0.50311 0.16304 0.42492
 C3214 C 0.50235 0.17840 0.41749
 C3215 C 0.50785 0.09165 0.45666
 C3216 C 0.50818 0.07602 0.46352
 H3217 H 0.49388 0.15575 0.46236
 H3218 H 0.49617 0.12304 0.47686
 H3219 H 0.53887 0.11030 0.44148
 H3220 H 0.53660 0.14302 0.42699
 H3221 H 0.48279 0.13248 0.41162
 H3222 H 0.48507 0.09979 0.42608
 C3223 C 0.00444 0.64559 0.93454
 C3224 C -0.00341 0.64442 0.95476
 C3225 C -0.00233 0.62674 0.96246
 C3226 C 0.00650 0.61197 0.94918
 C3227 C 0.02581 0.62022 0.94362
 C3228 C 0.02473 0.63790 0.93592
 C3229 C -0.00654 0.63053 0.92336
 C3230 C -0.00546 0.61287 0.93105
 C3231 C 0.00334 0.66454 0.92609
 C3232 C 0.00279 0.67993 0.91870
 C3233 C 0.00750 0.59291 0.95741
 C3234 C 0.00781 0.57723 0.96416
 H3235 H -0.00928 0.65641 0.96236
 H3236 H -0.00727 0.62359 0.97667
 H3237 H 0.03915 0.61285 0.94556
 H3238 H 0.03715 0.64566 0.93128
 H3239 H -0.01448 0.63348 0.91053
 H3240 H -0.01246 0.60069 0.92480
 C3241 C 0.25032 0.68736 0.89262
 C3242 C 0.24494 0.70841 0.89309
 C3243 C 0.24352 0.71643 0.87557
 C3244 C 0.24763 0.70258 0.85933
 C3245 C 0.23394 0.68599 0.86243
 C3246 C 0.23536 0.67799 0.87993
 C3247 C 0.26875 0.68651 0.88116
 C3248 C 0.26733 0.69451 0.86367
 C3249 C 0.25188 0.67847 0.91132
 C3250 C 0.25310 0.67051 0.92637
 C3251 C 0.24630 0.71103 0.84040
 C3252 C 0.24572 0.71771 0.82471
 H3253 H 0.24246 0.71632 0.90602
 H3254 H 0.23982 0.73120 0.87349
 H3255 H 0.22399 0.68099 0.85184
 H3256 H 0.22661 0.66612 0.88432
 H3257 H 0.28178 0.68021 0.88633
 H3258 H 0.27915 0.69505 0.85386
 C3259 C 0.75025 0.18821 0.39211
 C3260 C 0.74457 0.20920 0.39254
 C3261 C 0.74307 0.21716 0.37500
 C3262 C 0.74738 0.20335 0.35879
 C3263 C 0.73392 0.18658 0.36191
 C3264 C 0.73542 0.17863 0.37942
 C3265 C 0.76869 0.18760 0.38067
 C3266 C 0.76719 0.19555 0.36317
 C3267 C 0.75190 0.17939 0.41084
 C3268 C 0.75321 0.17150 0.42593
 C3269 C 0.74596 0.21176 0.33985
 C3270 C 0.74532 0.21846 0.32416
 H3271 H 0.74197 0.21709 0.40546
 H3272 H 0.73917 0.23188 0.37289
 H3273 H 0.72405 0.18142 0.35131
 H3274 H 0.72683 0.16665 0.38382
 H3275 H 0.78180 0.18148 0.38587
 H3276 H 0.77901 0.19623 0.35337
 C3277 C 0.25324 0.31217 0.39129
 C3278 C 0.24870 0.29092 0.39103
 C3279 C 0.24996 0.28299 0.37348
 C3280 C 0.25564 0.29710 0.35793
 C3281 C 0.27426 0.30593 0.36482
 C3282 C 0.27300 0.31385 0.38237
 C3283 C 0.23975 0.32101 0.37674
 C3284 C 0.24100 0.31310 0.35922
 C3285 C 0.25178 0.32094 0.41005
 C3286 C 0.25045 0.32875 0.42516
 C3287 C 0.25673 0.28868 0.33898
 C3288 C 0.25698 0.28189 0.32334
 H3289 H 0.24487 0.28281 0.40352
 H3290 H 0.24721 0.26808 0.37094
 H3291 H 0.28728 0.30593 0.35666
 H3292 H 0.28496 0.32065 0.38925
 H3293 H 0.23004 0.33249 0.37992
 H3294 H 0.23237 0.31781 0.34740
 C3295 C 0.75429 0.81263 0.89279
 C3296 C 0.74970 0.79139 0.89250
 C3297 C 0.75095 0.78348 0.87495
 C3298 C 0.75667 0.79761 0.85942
 C3299 C 0.77531 0.80637 0.86633
 C3300 C 0.77406 0.81428 0.88389
 C3301 C 0.74082 0.82153 0.87824
 C3302 C 0.74207 0.81364 0.86072
 C3303 C 0.75282 0.82140 0.91155
 C3304 C 0.75151 0.82925 0.92663
 C3305 C 0.75776 0.78922 0.84046
 C3306 C 0.75799 0.78247 0.82480
 H3307 H 0.74583 0.78327 0.90498
 H3308 H 0.74816 0.76858 0.87238
 H3309 H 0.78834 0.80635 0.85819
 H3310 H 0.78602 0.82103 0.89079
 H3311 H 0.73114 0.83303 0.88143
 H3312 H 0.73347 0.81838 0.84890
 C3313 C 0.74656 0.81653 0.10845
 C3314 C 0.75538 0.79671 0.10975
 C3315 C 0.75441 0.78898 0.12741
 C3316 C 0.74472 0.80181 0.14203
 C3317 C 0.72528 0.80641 0.13350
 C3318 C 0.72625 0.81414 0.11584
 C3319 C 0.75674 0.82825 0.12365
 C3320 C 0.75578 0.82052 0.14129
 C3321 C 0.74754 0.82501 0.08951
 C3322 C 0.74802 0.83241 0.07413
 C3323 C 0.74386 0.79352 0.16106
 C3324 C 0.74369 0.78669 0.17671
 H3325 H 0.76180 0.78941 0.09787
 H3326 H 0.76001 0.77503 0.13065
 H3327 H 0.71195 0.80381 0.14067
 H3328 H 0.71372 0.81817 0.10789
 H3329 H 0.76407 0.84147 0.12080
 H3330 H 0.76228 0.82712 0.15355
 C3331 C 0.24529 0.31513 0.60714
 C3332 C 0.23562 0.32795 0.62179
 C3333 C 0.23484 0.32027 0.63947
 C3334 C 0.24379 0.30053 0.64079
 C3335 C 0.26403 0.30302 0.63324
 C3336 C 0.26481 0.31069 0.61556
 C3337 C 0.23435 0.29635 0.60802
 C3338 C 0.23357 0.28867 0.62572
 C3339 C 0.24608 0.32356 0.58817
 C3340 C 0.24645 0.33093 0.57277
 C3341 C 0.24312 0.29231 0.65986
 C3342 C 0.24309 0.28556 0.67554
 H3343 H 0.22989 0.34184 0.61855
 H3344 H 0.22844 0.32758 0.65137
 H3345 H 0.27664 0.29909 0.64110
 H3346 H 0.27808 0.31333 0.60827
 H3347 H 0.22781 0.28967 0.59582
 H3348 H 0.22635 0.27542 0.62868
 C3349 C 0.75464 0.18485 0.60750
 C3350 C 0.77465 0.18543 0.61598
 C3351 C 0.77539 0.19327 0.63359
 C3352 C 0.75603 0.19976 0.64100
 C3353 C 0.74334 0.18215 0.63982
 C3354 C 0.74260 0.17432 0.62222
 C3355 C 0.74766 0.20542 0.60813
 C3356 C 0.74839 0.21326 0.62575
 C3357 C 0.75391 0.17624 0.58862
 C3358 C 0.75360 0.16873 0.57329
 C3359 C 0.75668 0.20814 0.66000
 C3360 C 0.75677 0.21498 0.67563
 H3361 H 0.78716 0.18016 0.60878
 H3362 H 0.78850 0.19471 0.64147
 H3363 H 0.73559 0.17634 0.65176
 H3364 H 0.73423 0.16181 0.61909
 H3365 H 0.74259 0.21314 0.59584
 H3366 H 0.74396 0.22771 0.62854
 C3367 C 0.25318 0.68399 0.10742
 C3368 C 0.26834 0.67536 0.12040
 C3369 C 0.26900 0.68338 0.13793
 C3370 C 0.25444 0.69923 0.14077
 C3371 C 0.23526 0.69017 0.13602
 C3372 C 0.23459 0.68216 0.11850
 C3373 C 0.25752 0.70529 0.10707
 C3374 C 0.25818 0.71331 0.12461
 C3375 C 0.25253 0.67519 0.08862
 C3376 C 0.25230 0.66754 0.07337
 C3377 C 0.25502 0.70779 0.15968
 C3378 C 0.25506 0.71474 0.17526
 H3379 H 0.27775 0.66396 0.11619
 H3380 H 0.27897 0.67885 0.14873
 H3381 H 0.22323 0.69007 0.14559
 H3382 H 0.22201 0.67521 0.11305
 H3383 H 0.25985 0.71337 0.09420
 H3384 H 0.26109 0.72825 0.12676
 C3385 C 0.18676 0.60813 0.74936
 C3386 C 0.20386 0.61107 0.73629
 C3387 C 0.21183 0.62859 0.73783
 C3388 C 0.20192 0.64144 0.75228
 C3389 C 0.20205 0.63016 0.77087
 C3390 C 0.19407 0.61264 0.76933
 C3391 C 0.17314 0.62437 0.74455
 C3392 C 0.18111 0.64186 0.74608
 C3393 C 0.17792 0.58941 0.74768
 C3394 C 0.17005 0.57432 0.74636
 C3395 C 0.21036 0.66036 0.75374
 C3396 C 0.21710 0.67603 0.75442
 H3397 H 0.20924 0.60034 0.72671
 H3398 H 0.22406 0.63286 0.72955
 H3399 H 0.20790 0.63546 0.78405
 H3400 H 0.19309 0.60292 0.78121
 H3401 H 0.15851 0.62231 0.74030
 H3402 H 0.17330 0.65478 0.74316
 C3403 C 0.68704 0.10821 0.24953
 C3404 C 0.70406 0.11106 0.23634
 C3405 C 0.71199 0.12861 0.23765
 C3406 C 0.70213 0.14158 0.25203
 C3407 C 0.70240 0.13049 0.27073
 C3408 C 0.69446 0.11293 0.26941
 C3409 C 0.67336 0.12436 0.24464
 C3410 C 0.68128 0.14189 0.24595
 C3411 C 0.67823 0.08945 0.24809
 C3412 C 0.67032 0.07436 0.24697
 C3413 C 0.71051 0.16055 0.25326
 C3414 C 0.71713 0.17628 0.25378
 H3415 H 0.70942 0.10025 0.22683
 H3416 H 0.72416 0.13284 0.22926
 H3417 H 0.70832 0.13593 0.28383
 H3418 H 0.69358 0.10333 0.28139
 H3419 H 0.65871 0.12222 0.24050
 H3420 H 0.67342 0.15475 0.24294
 C3421 C 0.81484 0.10727 0.74702
 C3422 C 0.80987 0.11305 0.72665
 C3423 C 0.80205 0.13066 0.72528
 C3424 C 0.79997 0.14073 0.74442
 C3425 C 0.81992 0.14072 0.75300
 C3426 C 0.82773 0.12315 0.75437
 C3427 C 0.79633 0.10941 0.75817
 C3428 C 0.78851 0.12700 0.75680
 C3429 C 0.82348 0.08845 0.74862
 C3430 C 0.83118 0.07328 0.75004
 C3431 C 0.79164 0.15972 0.74323
 C3432 C 0.78487 0.17538 0.74295
 H3433 H 0.81226 0.10411 0.71440
 H3434 H 0.79774 0.13680 0.71186
 H3435 H 0.82729 0.15341 0.75760
 H3436 H 0.84178 0.12080 0.76014
 H3437 H 0.78991 0.09810 0.76638
 H3438 H 0.77539 0.13075 0.76385
 C3439 C 0.31278 0.60703 0.24604
 C3440 C 0.30192 0.61047 0.22752
 C3441 C 0.29413 0.62810 0.22628
 C3442 C 0.29797 0.64053 0.24368
 C3443 C 0.31958 0.64073 0.24584
 C3444 C 0.32736 0.62313 0.24708
 C3445 C 0.29852 0.61132 0.26183
 C3446 C 0.29073 0.62893 0.26059
 C3447 C 0.32141 0.58819 0.24750
 C3448 C 0.32911 0.57302 0.24884
 C3449 C 0.28968 0.65955 0.24262
 C3450 C 0.28294 0.67523 0.24243
 H3451 H 0.30047 0.59999 0.21638
 H3452 H 0.28601 0.63273 0.21407
 H3453 H 0.32804 0.65356 0.24632
 H3454 H 0.34249 0.62090 0.24863
 H3455 H 0.29483 0.60140 0.27298
 H3456 H 0.28037 0.63408 0.27069
 C3457 C 0.31502 0.39083 0.25313
 C3458 C 0.30275 0.38735 0.27073
 C3459 C 0.29502 0.36966 0.27143
 C3460 C 0.30032 0.35720 0.25445
 C3461 C 0.32204 0.35719 0.25403
 C3462 C 0.32976 0.37486 0.25334
 C3463 C 0.30208 0.38635 0.23626
 C3464 C 0.29436 0.36867 0.23696
 C3465 C 0.32350 0.40979 0.25245
 C3466 C 0.33091 0.42518 0.25219
 C3467 C 0.29204 0.33814 0.25506
 C3468 C 0.28524 0.32248 0.25511
 H3469 H 0.30034 0.39785 0.28168
 H3470 H 0.28599 0.36502 0.28297
 H3471 H 0.33060 0.34443 0.25427
 H3472 H 0.34494 0.37722 0.25297
 H3473 H 0.29924 0.39619 0.22480
 H3474 H 0.28488 0.36338 0.22608
 C3475 C 0.81631 0.89136 0.75415
 C3476 C 0.80404 0.88806 0.77179
 C3477 C 0.79620 0.87043 0.77259
 C3478 C 0.80141 0.85784 0.75568
 C3479 C 0.82312 0.85769 0.75524
 C3480 C 0.83095 0.87530 0.75444
 C3481 C 0.80333 0.88688 0.73733
 C3482 C 0.79550 0.86925 0.73813
 C3483 C 0.82492 0.91027 0.75337
 C3484 C 0.83243 0.92560 0.75305
 C3485 C 0.79302 0.83883 0.75639
 C3486 C 0.78615 0.82320 0.75651
 H3487 H 0.80170 0.89864 0.78268
 H3488 H 0.78715 0.86590 0.78416
 H3489 H 0.83161 0.84488 0.75554
 H3490 H 0.84615 0.87757 0.75404
 H3491 H 0.80054 0.89667 0.72581
 H3492 H 0.78598 0.86396 0.72728
 C3493 C 0.68561 0.89417 0.24671
 C3494 C 0.68641 0.88410 0.26594
 C3495 C 0.69447 0.86659 0.26516
 C3496 C 0.70094 0.86086 0.24523
 C3497 C 0.71420 0.87685 0.23879
 C3498 C 0.70614 0.89438 0.23957
 C3499 C 0.67520 0.88034 0.23355
 C3500 C 0.68326 0.86284 0.23277
 C3501 C 0.67675 0.91295 0.24747
 C3502 C 0.66902 0.92816 0.24779
 C3503 C 0.70954 0.84195 0.24453
 C3504 C 0.71648 0.82636 0.24441
 H3505 H 0.68114 0.89018 0.27902
 H3506 H 0.69609 0.85768 0.27759
 H3507 H 0.72864 0.87461 0.23404
 H3508 H 0.71367 0.90715 0.23549
 H3509 H 0.66260 0.88399 0.22553
 H3510 H 0.67757 0.85150 0.22410
 C3511 C 0.18504 0.39336 0.74515
 C3512 C 0.17215 0.37807 0.73661
 C3513 C 0.18028 0.36060 0.73587
 C3514 C 0.20052 0.36010 0.74374
 C3515 C 0.19894 0.36814 0.76388
 C3516 C 0.19080 0.38562 0.76462
 C3517 C 0.20319 0.39273 0.73322
 C3518 C 0.21133 0.37524 0.73248
 C3519 C 0.17610 0.41210 0.74590
 C3520 C 0.16832 0.42729 0.74623
 C3521 C 0.20919 0.34124 0.74310
 C3522 C 0.21619 0.32567 0.74305
 H3523 H 0.15787 0.38074 0.73157
 H3524 H 0.17298 0.34832 0.73020
 H3525 H 0.20380 0.36075 0.77645
 H3526 H 0.18870 0.39320 0.77781
 H3527 H 0.20913 0.40494 0.72599
 H3528 H 0.22424 0.37246 0.72462
 C3529 C 0.10757 0.75128 0.81296
 C3530 C 0.12311 0.74550 0.82701
 C3531 C 0.14058 0.74395 0.81902
 C3532 C 0.14082 0.74835 0.79775
 C3533 C 0.13216 0.76821 0.79598
 C3534 C 0.11468 0.76975 0.80398
 C3535 C 0.10857 0.73650 0.79706
 C3536 C 0.12607 0.73496 0.78905
 C3537 C 0.08888 0.75297 0.82183
 C3538 C 0.07383 0.75429 0.82976
 C3539 C 0.15972 0.74689 0.78930
 C3540 C 0.17539 0.74622 0.78259
 H3541 H 0.12061 0.74282 0.84194
 H3542 H 0.15304 0.73996 0.82710
 H3543 H 0.13913 0.78003 0.78903
 H3544 H 0.10668 0.78288 0.80387
 H3545 H 0.09659 0.72802 0.79249
 H3546 H 0.12909 0.72514 0.77763
 C3547 C 0.60720 0.25106 0.31212
 C3548 C 0.62206 0.24236 0.32540
 C3549 C 0.63959 0.24095 0.31751
 C3550 C 0.64056 0.24836 0.29712
 C3551 C 0.63310 0.26875 0.29815
 C3552 C 0.61556 0.27017 0.30603
 C3553 C 0.60769 0.23871 0.29425
 C3554 C 0.62525 0.23729 0.28635
 C3555 C 0.58844 0.25261 0.32088
 C3556 C 0.57334 0.25382 0.32872
 C3557 C 0.65952 0.24702 0.28877
 C3558 C 0.67521 0.24643 0.28211
 H3559 H 0.61907 0.23771 0.33974
 H3560 H 0.65160 0.23508 0.32509
 H3561 H 0.64090 0.28101 0.29310
 H3562 H 0.60834 0.28363 0.30774
 H3563 H 0.59536 0.23171 0.28832
 H3564 H 0.62797 0.22907 0.27366
 C3565 C 0.60794 0.75384 0.18670
 C3566 C 0.61428 0.77432 0.19035
 C3567 C 0.63193 0.77570 0.19807
 C3568 C 0.64148 0.75646 0.20138
 C3569 C 0.64119 0.74663 0.18203
 C3570 C 0.62358 0.74525 0.17432
 C3571 C 0.60981 0.74383 0.20590
 C3572 C 0.62745 0.74521 0.21361
 C3573 C 0.58907 0.75224 0.17816
 C3574 C 0.57386 0.75082 0.17054
 C3575 C 0.66051 0.75769 0.20961
 C3576 C 0.67621 0.75803 0.21632
 H3577 H 0.60567 0.78665 0.18716
 H3578 H 0.63843 0.78921 0.20150
 H3579 H 0.65372 0.74123 0.17498
 H3580 H 0.62104 0.73866 0.16067
 H3581 H 0.59831 0.73635 0.21283
 H3582 H 0.63104 0.73890 0.22717
 C3583 C 0.10788 0.25369 0.68540
 C3584 C 0.12290 0.24194 0.67501
 C3585 C 0.14046 0.24316 0.68286
 C3586 C 0.14132 0.25600 0.70034
 C3587 C 0.12625 0.24808 0.71387
 C3588 C 0.10866 0.24686 0.70601
 C3589 C 0.11586 0.27392 0.68582
 C3590 C 0.13346 0.27514 0.69368
 C3591 C 0.08907 0.25227 0.67670
 C3592 C 0.07390 0.25099 0.66896
 C3593 C 0.16031 0.25706 0.70871
 C3594 C 0.17597 0.25731 0.71549
 H3595 H 0.11999 0.23341 0.66256
 H3596 H 0.15259 0.23567 0.67713
 H3597 H 0.12913 0.24383 0.72836
 H3598 H 0.09648 0.24157 0.71376
 H3599 H 0.10835 0.28621 0.68044
 H3600 H 0.14101 0.28846 0.69504
 C3601 C 0.89319 0.24585 0.68545
 C3602 C 0.88645 0.26472 0.69381
 C3603 C 0.86889 0.26380 0.70173
 C3604 C 0.85977 0.24409 0.70052
 C3605 C 0.87416 0.23064 0.70972
 C3606 C 0.89173 0.23157 0.70179
 C3607 C 0.87760 0.23999 0.67148
 C3608 C 0.86004 0.23907 0.67939
 C3609 C 0.91202 0.24678 0.67674
 C3610 C 0.92729 0.24724 0.66912
 C3611 C 0.84081 0.24324 0.70897
 C3612 C 0.82518 0.24305 0.71583
 H3613 H 0.89475 0.27767 0.69355
 H3614 H 0.86215 0.27596 0.70826
 H3615 H 0.87084 0.22123 0.72142
 H3616 H 0.90347 0.22295 0.70671
 H3617 H 0.88013 0.23684 0.65665
 H3618 H 0.84754 0.23512 0.67136
 C3619 C 0.39176 0.74539 0.18558
 C3620 C 0.38242 0.76483 0.18808
 C3621 C 0.36479 0.76395 0.19584
 C3622 C 0.35820 0.74371 0.20035
 C3623 C 0.37375 0.73545 0.21311
 C3624 C 0.39139 0.73633 0.20534
 C3625 C 0.37760 0.73380 0.17383
 C3626 C 0.35997 0.73292 0.18160
 C3627 C 0.41069 0.74627 0.17704
 C3628 C 0.42603 0.74669 0.16957
 C3629 C 0.33917 0.74293 0.20865
 C3630 C 0.32351 0.74277 0.21543
 H3631 H 0.38907 0.77812 0.18412
 H3632 H 0.35633 0.77651 0.19852
 H3633 H 0.37112 0.72944 0.22702
 H3634 H 0.40389 0.73108 0.21260
 H3635 H 0.38112 0.72687 0.16058
 H3636 H 0.34839 0.72525 0.17500
 C3637 C 0.39217 0.25370 0.31432
 C3638 C 0.39202 0.24780 0.29342
 C3639 C 0.37448 0.24838 0.28537
 C3640 C 0.35883 0.25479 0.29902
 C3641 C 0.36553 0.27402 0.30662
 C3642 C 0.38306 0.27344 0.31466
 C3643 C 0.37773 0.24065 0.32399
 C3644 C 0.36022 0.24122 0.31594
 C3645 C 0.41097 0.25314 0.32315
 C3646 C 0.42621 0.25295 0.33083
 C3647 C 0.33993 0.25526 0.29042
 C3648 C 0.32436 0.25517 0.28343
 H3649 H 0.40456 0.24356 0.28563
 H3650 H 0.37201 0.24462 0.27067
 H3651 H 0.35724 0.28693 0.30574
 H3652 H 0.38979 0.28588 0.32068
 H3653 H 0.38098 0.23173 0.33608
 H3654 H 0.34846 0.23279 0.32116
 C3655 C 0.89296 0.75418 0.81568
 C3656 C 0.89284 0.74828 0.79477
 C3657 C 0.87533 0.74889 0.78668
 C3658 C 0.85966 0.75533 0.80029
 C3659 C 0.86637 0.77454 0.80791
 C3660 C 0.88388 0.77393 0.81600
 C3661 C 0.87847 0.74115 0.82530
 C3662 C 0.86098 0.74175 0.81722
 C3663 C 0.91173 0.75359 0.82455
 C3664 C 0.92695 0.75339 0.83227
 C3665 C 0.84077 0.75584 0.79166
 C3666 C 0.82521 0.75578 0.78467
 H3667 H 0.90540 0.74402 0.78701
 H3668 H 0.87288 0.74515 0.77198
 H3669 H 0.85811 0.78747 0.80703
 H3670 H 0.89061 0.78636 0.82205
 H3671 H 0.88168 0.73221 0.83740
 H3672 H 0.84919 0.73334 0.82240
   
