data_POSCAR
  _audit_creation_date              2014-09-24
  _audit_creation_method            'ToBaCCo'
  _symmetry_space_group_name_H-M    'P1'
  _symmetry_Int_Tables_number       1
  _symmetry_cell_setting            triclinic
  loop_
  _symmetry_equiv_pos_as_xyz
 x,y,z
_cell_length_a 40.8602
_cell_length_b 40.7623
_cell_length_c 53.8306
_cell_angle_alpha 90.009200
_cell_angle_beta 90.146600
_cell_angle_gamma 89.778700
loop_
  _atom_site_label
  _atom_site_type_symbol
  _atom_site_fract_x
  _atom_site_fract_y
  _atom_site_fract_z
Zr1 Zr 0.25337 0.26179 0.29574
 O2 O 0.27664 0.28921 0.32412
 O3 O 0.22030 0.23382 0.31674
 O4 O 0.22078 0.29479 0.31319
 O5 O 0.31256 0.20083 0.29137
 O6 O 0.19893 0.32456 0.28128
 O7 O 0.28407 0.23309 0.31853
 O8 O 0.19024 0.20779 0.28704
 O9 O 0.21181 0.26363 0.27302
 O10 O 0.25262 0.21731 0.27635
 O11 O 0.25956 0.30346 0.27323
 O12 O 0.29845 0.25897 0.27670
 Zr13 Zr 0.26128 0.25775 0.20950
 Zr14 Zr 0.21920 0.30360 0.24919
 Zr15 Zr 0.29583 0.21543 0.25582
 Zr16 Zr 0.21232 0.21999 0.25282
 O17 O 0.34760 0.21546 0.25688
 O18 O 0.16178 0.23136 0.24977
 O19 O 0.25536 0.21537 0.23166
 O20 O 0.21665 0.26007 0.22872
 O21 O 0.26250 0.30241 0.22858
 O22 O 0.30252 0.25574 0.23257
 C23 C 0.19692 0.21475 0.30986
 C24 C 0.30553 0.21088 0.31346
 C25 C 0.20224 0.31775 0.30447
 O26 O 0.16764 0.30287 0.24551
 O27 O 0.20634 0.32181 0.21389
 O28 O 0.23428 0.28986 0.18636
 C29 C 0.21417 0.31326 0.19164
 O30 O 0.32308 0.31782 0.28602
 Zr31 Zr 0.30261 0.29924 0.25254
 O32 O 0.29491 0.28514 0.18879
 O33 O 0.22663 0.35495 0.24901
 O34 O 0.29781 0.35100 0.25082
 O35 O 0.35369 0.28990 0.25371
 O36 O 0.32248 0.31425 0.21824
 C37 C 0.31678 0.30596 0.19554
 O38 O 0.23572 0.23182 0.18146
 O39 O 0.28793 0.16429 0.25848
 O40 O 0.29186 0.22384 0.19159
 O41 O 0.31296 0.19237 0.22297
 O42 O 0.21497 0.16824 0.25651
 O43 O 0.19491 0.19717 0.21986
 C44 C 0.30972 0.20018 0.19985
 H45 H 0.25123 0.19798 0.28742
 H46 H 0.19785 0.26024 0.21708
 H47 H 0.32337 0.25349 0.22340
 H48 H 0.26045 0.32371 0.28336
 H49 H 0.14942 0.21149 0.25459
 H50 H 0.16028 0.32604 0.24480
 H51 H 0.20486 0.36533 0.24667
 H52 H 0.31967 0.36002 0.24686
 H53 H 0.19260 0.16030 0.26017
 H54 H 0.30978 0.15397 0.26047
 H55 H 0.35467 0.19220 0.25753
 H56 H 0.36495 0.31066 0.24950
 H57 H 0.17532 0.18390 0.22373
 H58 H 0.24538 0.23817 0.16527
 H59 H 0.26686 0.28245 0.34018
 H60 H 0.33857 0.33568 0.28208
 Zr61 Zr 0.75911 0.76063 0.28830
 O62 O 0.73456 0.73191 0.31519
 O63 O 0.78909 0.79011 0.31113
 O64 O 0.79076 0.72869 0.30751
 O65 O 0.69358 0.81316 0.27982
 O66 O 0.82226 0.70504 0.27738
 O67 O 0.72465 0.78785 0.30940
 O68 O 0.81773 0.82026 0.28305
 O69 O 0.80284 0.76390 0.26817
 O70 O 0.75690 0.80502 0.26905
 O71 O 0.76027 0.71893 0.26506
 O72 O 0.71619 0.75783 0.26645
 Zr73 Zr 0.75964 0.76574 0.20178
 Zr74 Zr 0.80295 0.72378 0.24381
 Zr75 Zr 0.71595 0.80159 0.24603
 Zr76 Zr 0.79936 0.80745 0.24794
 O77 O 0.66464 0.79498 0.24384
 O78 O 0.85104 0.80263 0.24692
 O79 O 0.75816 0.80776 0.22448
 O80 O 0.80237 0.76767 0.22355
 O81 O 0.76201 0.72085 0.22060
 O82 O 0.71623 0.76162 0.22188
 C83 C 0.81112 0.81133 0.30538
 C84 C 0.70034 0.80604 0.30250
 C85 C 0.81340 0.70892 0.30016
 O86 O 0.85415 0.73101 0.24279
 O87 O 0.81968 0.70673 0.20886
 O88 O 0.79181 0.73742 0.18031
 C89 C 0.81259 0.71499 0.18630
 O90 O 0.69704 0.69675 0.27329
 Zr91 Zr 0.71941 0.71806 0.24159
 O92 O 0.73435 0.73348 0.17862
 O93 O 0.80220 0.67187 0.24356
 O94 O 0.73040 0.66718 0.24092
 O95 O 0.66777 0.72144 0.23832
 O96 O 0.70736 0.70015 0.20574
 C97 C 0.71601 0.70890 0.18369
 O98 O 0.78456 0.79543 0.17575
 O99 O 0.71693 0.85329 0.24955
 O100 O 0.72669 0.79647 0.18227
 O101 O 0.69893 0.82290 0.21306
 O102 O 0.79073 0.85841 0.25273
 O103 O 0.81581 0.83327 0.21605
 C104 C 0.70497 0.81706 0.19007
 H105 H 0.75520 0.82421 0.28026
 H106 H 0.82208 0.76983 0.21303
 H107 H 0.69647 0.76130 0.21120
 H108 H 0.76047 0.69842 0.27489
 H109 H 0.86048 0.82385 0.25226
 H110 H 0.86426 0.70889 0.24234
 H111 H 0.82526 0.66440 0.24235
 H112 H 0.71039 0.65559 0.23539
 H113 H 0.81187 0.86862 0.25733
 H114 H 0.69385 0.86079 0.25009
 H115 H 0.65449 0.81710 0.24418
 H116 H 0.65980 0.69973 0.23269
 H117 H 0.83318 0.84888 0.22091
 H118 H 0.77741 0.78839 0.15895
 H119 H 0.74210 0.73929 0.33181
 H120 H 0.68331 0.67801 0.26804
 Zr121 Zr 0.74114 0.24764 -0.29893
 O122 O 0.71647 0.27174 -0.32840
 O123 O 0.77438 0.21863 -0.31844
 O124 O 0.77342 0.27817 -0.31857
 O125 O 0.68298 0.18741 -0.29030
 O126 O 0.79694 0.31016 -0.28870
 O127 O 0.71230 0.21456 -0.31977
 O128 O 0.80500 0.19469 -0.28797
 O129 O 0.78305 0.25150 -0.27666
 O130 O 0.74238 0.20548 -0.27692
 O131 O 0.73577 0.29172 -0.27907
 O132 O 0.69621 0.24741 -0.27985
 Zr133 Zr 0.73393 0.25285 -0.21258
 Zr134 Zr 0.77627 0.29385 -0.25514
 Zr135 Zr 0.69934 0.20653 -0.25625
 Zr136 Zr 0.78300 0.21014 -0.25404
 O137 O 0.64757 0.20732 -0.25776
 O138 O 0.83345 0.22175 -0.25173
 O139 O 0.74000 0.20840 -0.23239
 O140 O 0.77857 0.25252 -0.23213
 O141 O 0.73298 0.29527 -0.23450
 O142 O 0.69269 0.24910 -0.23543
 C143 C 0.79804 0.20025 -0.31105
 C144 C 0.69096 0.19310 -0.31300
 C145 C 0.79299 0.30103 -0.31141
 O146 O 0.82781 0.29301 -0.25129
 O147 O 0.78949 0.31562 -0.22096
 O148 O 0.76113 0.28717 -0.19167
 C149 C 0.78152 0.30960 -0.19824
 O150 O 0.67226 0.30506 -0.29278
 Zr151 Zr 0.69282 0.29018 -0.25824
 O152 O 0.70004 0.28312 -0.19383
 O153 O 0.76905 0.34510 -0.25829
 O154 O 0.69767 0.34190 -0.26019
 O155 O 0.64167 0.28144 -0.25823
 O156 O 0.67378 0.30990 -0.22529
 C157 C 0.67903 0.30413 -0.20216
 O158 O 0.75945 0.23050 -0.18271
 O159 O 0.70696 0.15518 -0.25509
 O160 O 0.70432 0.21974 -0.19261
 O161 O 0.68144 0.18763 -0.22264
 O162 O 0.78043 0.15820 -0.25485
 O163 O 0.80070 0.19021 -0.22006
 C164 C 0.68568 0.19611 -0.19984
 H165 H 0.74393 0.18495 -0.28668
 H166 H 0.79741 0.25368 -0.22056
 H167 H 0.67192 0.24806 -0.22605
 H168 H 0.73498 0.31082 -0.29042
 H169 H 0.84590 0.20154 -0.25578
 H170 H 0.83526 0.31608 -0.25225
 H171 H 0.79093 0.35536 -0.25690
 H172 H 0.67578 0.35162 -0.25712
 H173 H 0.80272 0.14985 -0.25847
 H174 H 0.68512 0.14486 -0.25657
 H175 H 0.64021 0.18421 -0.25696
 H176 H 0.63056 0.30279 -0.25549
 H177 H 0.82045 0.17675 -0.22334
 H178 H 0.74952 0.23869 -0.16707
 H179 H 0.72602 0.26337 -0.34412
 H180 H 0.65627 0.32298 -0.28996
 Zr181 Zr 0.24385 0.73555 -0.28928
 O182 O 0.26943 0.70722 -0.31602
 O183 O 0.21351 0.76430 -0.31263
 O184 O 0.21386 0.70240 -0.30862
 O185 O 0.30379 0.79490 -0.28214
 O186 O 0.18481 0.67646 -0.27836
 O187 O 0.27773 0.76230 -0.31012
 O188 O 0.18031 0.79013 -0.28498
 O189 O 0.19990 0.73535 -0.26951
 O190 O 0.24178 0.78039 -0.27057
 O191 O 0.24686 0.69424 -0.26600
 O192 O 0.28685 0.73739 -0.26745
 Zr193 Zr 0.24232 0.74124 -0.20292
 Zr194 Zr 0.20382 0.69567 -0.24504
 Zr195 Zr 0.28280 0.78147 -0.24751
 Zr196 Zr 0.19911 0.77913 -0.24957
 O197 O 0.33440 0.77965 -0.24439
 O198 O 0.14815 0.76950 -0.24901
 O199 O 0.23991 0.78308 -0.22602
 O200 O 0.19984 0.73944 -0.22492
 O201 O 0.24473 0.69638 -0.22163
 O202 O 0.28617 0.74177 -0.22295
 C203 C 0.18924 0.78346 -0.30736
 C204 C 0.29918 0.78413 -0.30450
 C205 C 0.19236 0.68166 -0.30120
 O206 O 0.15212 0.69783 -0.24331
 O207 O 0.18862 0.67712 -0.21061
 O208 O 0.21319 0.70909 -0.18148
 C209 C 0.19439 0.68508 -0.18785
 O210 O 0.31190 0.67847 -0.27407
 Zr211 Zr 0.28762 0.69779 -0.24238
 O212 O 0.27142 0.71232 -0.17955
 O213 O 0.20997 0.64410 -0.24541
 O214 O 0.28210 0.64611 -0.24123
 O215 O 0.33865 0.70619 -0.23922
 O216 O 0.30196 0.68175 -0.20648
 C217 C 0.29257 0.68987 -0.18445
 O218 O 0.21382 0.76787 -0.17698
 O219 O 0.27703 0.83275 -0.25199
 O220 O 0.27083 0.77589 -0.18352
 O221 O 0.29491 0.80603 -0.21423
 O222 O 0.20284 0.83064 -0.25427
 O223 O 0.17963 0.80352 -0.21796
 C224 C 0.28871 0.79979 -0.19124
 H225 H 0.24192 0.79946 -0.28195
 H226 H 0.17994 0.73979 -0.21447
 H227 H 0.30567 0.74374 -0.21210
 H228 H 0.24841 0.67380 -0.27587
 H229 H 0.13674 0.78965 -0.25470
 H230 H 0.14424 0.67486 -0.24321
 H231 H 0.18782 0.63441 -0.24419
 H232 H 0.30330 0.63665 -0.23573
 H233 H 0.18093 0.83887 -0.25927
 H234 H 0.29932 0.84225 -0.25226
 H235 H 0.34210 0.80265 -0.24490
 H236 H 0.34893 0.68531 -0.23380
 H237 H 0.16073 0.81727 -0.22305
 H238 H 0.22152 0.76145 -0.16017
 H239 H 0.26166 0.71406 -0.33275
 H240 H 0.32747 0.66113 -0.26879
 Zr241 Zr 1.26864 1.26462 0.78880
 O242 O 1.24566 1.23766 0.81750
 O243 O 1.30291 1.29271 0.80900
 O244 O 1.30035 1.23105 0.80618
 O245 O 1.20426 1.31957 0.78530
 O246 O 1.32684 1.20520 0.77437
 O247 O 1.23937 1.29404 0.81214
 O248 O 1.32832 1.32231 0.77889
 O249 O 1.30983 1.26588 0.76579
 O250 O 1.26567 1.30893 0.76949
 O251 O 1.26497 1.22271 0.76602
 O252 O 1.22301 1.26350 0.77024
 Zr253 Zr 1.25877 1.26891 0.70275
 Zr254 Zr 1.30515 1.22544 0.74201
 Zr255 Zr 1.22175 1.30717 0.74968
 Zr256 Zr 1.30540 1.30939 0.74547
 O257 O 1.17021 1.30264 0.75128
 O258 O 1.35655 1.30265 0.74099
 O259 O 1.26148 1.31120 0.72514
 O260 O 1.30390 1.26920 0.72153
 O261 O 1.26149 1.22401 0.72157
 O262 O 1.21779 1.26701 0.72585
 C263 C 1.32438 1.31362 0.80161
 C264 C 1.21471 1.31276 0.80730
 C265 C 1.32057 1.20963 0.79760
 O266 O 1.35639 1.23051 0.73830
 O267 O 1.31811 1.20832 0.70628
 O268 O 1.28815 1.23979 0.67940
 C269 C 1.30937 1.21723 0.68424
 O270 O 1.20245 1.20287 0.77870
 Zr271 Zr 1.22148 1.22347 0.74549
 O272 O 1.22866 1.23826 0.68174
 O273 O 1.30194 1.17364 0.74145
 O274 O 1.23025 1.17221 0.74387
 O275 O 1.16988 1.22916 0.74639
 O276 O 1.20344 1.20659 0.71084
 C277 C 1.20929 1.21508 0.68820
 O278 O 1.28140 1.29720 0.67466
 O279 O 1.22526 1.35879 0.75267
 O280 O 1.22536 1.30127 0.68545
 O281 O 1.20128 1.32858 0.71762
 O282 O 1.29946 1.36074 0.75018
 O283 O 1.31870 1.33382 0.71213
 C284 C 1.20508 1.32255 0.69432
 H285 H 1.26627 1.32831 0.78057
 H286 H 1.32245 1.27060 0.70978
 H287 H 1.19681 1.26751 0.71663
 H288 H 1.26528 1.20226 0.77592
 H289 H 1.36732 1.32366 0.74528
 H290 H 1.36550 1.20799 0.73730
 H291 H 1.32445 1.16513 0.73899
 H292 H 1.20919 1.16150 0.73976
 H293 H 1.32149 1.37020 0.75287
 H294 H 1.20267 1.36715 0.75498
 H295 H 1.16109 1.32517 0.75236
 H296 H 1.16017 1.20785 0.74154
 H297 H 1.33723 1.34878 0.71545
 H298 H 1.27191 1.29024 0.65852
 H299 H 1.25560 1.24453 0.83351
 H300 H 1.18764 1.18451 0.77449
 Zr301 Zr 0.75850 0.75793 0.79633
 O302 O 0.78847 0.77732 0.82486
 O303 O 0.72409 0.73144 0.81668
 O304 O 0.73147 0.79127 0.81847
 O305 O 0.80968 0.69208 0.78374
 O306 O 0.71124 0.82809 0.79037
 O307 O 0.78410 0.72033 0.81488
 O308 O 0.68895 0.71255 0.78704
 O309 O 0.71559 0.76771 0.77641
 O310 O 0.75095 0.71723 0.77337
 O311 O 0.76769 0.80183 0.77717
 O312 O 0.80144 0.75322 0.77482
 Zr313 Zr 0.75868 0.76644 0.70999
 Zr314 Zr 0.72570 0.80995 0.75569
 Zr315 Zr 0.79200 0.71388 0.75060
 Zr316 Zr 0.70929 0.72772 0.75274
 O317 O 0.84346 0.70833 0.74893
 O318 O 0.66030 0.74501 0.75370
 O319 O 0.74980 0.72187 0.72893
 O320 O 0.71636 0.77045 0.73192
 O321 O 0.76672 0.80744 0.73254
 O322 O 0.80122 0.75644 0.73042
 C323 C 0.69849 0.71566 0.80978
 C324 C 0.80307 0.69742 0.80683
 C325 C 0.71530 0.81740 0.81261
 O326 O 0.67417 0.81539 0.75563
 O327 O 0.71069 0.83428 0.72329
 O328 O 0.73266 0.80453 0.69159
 C329 C 0.71499 0.82835 0.70007
 O330 O 0.83318 0.80817 0.78724
 Zr331 Zr 0.80811 0.79622 0.75381
 O332 O 0.79358 0.79302 0.68986
 O333 O 0.73921 0.85986 0.75872
 O334 O 0.80909 0.84814 0.75597
 O335 O 0.85770 0.78085 0.75188
 O336 O 0.82742 0.81323 0.71986
 C337 C 0.81886 0.80925 0.69701
 O338 O 0.72842 0.74802 0.68124
 O339 O 0.77866 0.66382 0.74923
 O340 O 0.78365 0.73216 0.68772
 O341 O 0.80406 0.69458 0.71525
 O342 O 0.70620 0.67581 0.75180
 O343 O 0.68659 0.71226 0.71917
 C344 C 0.79975 0.70584 0.69307
 H345 H 0.74797 0.69648 0.78261
 H346 H 0.69665 0.77433 0.72158
 H347 H 0.82092 0.75327 0.72002
 H348 H 0.77178 0.82017 0.78882
 H349 H 0.64614 0.72603 0.75760
 H350 H 0.66947 0.83915 0.75738
 H351 H 0.71865 0.87284 0.75897
 H352 H 0.83147 0.85524 0.75146
 H353 H 0.68342 0.66983 0.75611
 H354 H 0.79933 0.65104 0.74912
 H355 H 0.84794 0.68452 0.74731
 H356 H 0.87115 0.80056 0.74857
 H357 H 0.66584 0.70091 0.72305
 H358 H 0.73745 0.75607 0.66528
 H359 H 0.77931 0.76965 0.84088
 H360 H 0.85035 0.82457 0.78369
 Zr361 Zr 1.24799 0.74616 0.20394
 O362 O 1.22271 0.77413 0.17682
 O363 O 1.27968 0.71834 0.18192
 O364 O 1.28038 0.77790 0.18566
 O365 O 1.19052 0.68454 0.20927
 O366 O 1.30499 0.80702 0.21670
 O367 O 1.21824 0.71607 0.18142
 O368 O 1.31171 0.69197 0.21043
 O369 O 1.29067 0.74727 0.22552
 O370 O 1.24964 0.70164 0.22309
 O371 O 1.24361 0.78789 0.22669
 O372 O 1.20367 0.74403 0.22378
 Zr373 Zr 1.24393 0.74114 0.29012
 Zr374 Zr 1.28508 0.78722 0.24972
 Zr375 Zr 1.20719 0.70037 0.24434
 Zr376 Zr 1.29102 0.70348 0.24542
 O377 O 1.15543 0.70192 0.24331
 O378 O 1.34166 0.71436 0.24752
 O379 O 1.24868 0.69912 0.26745
 O380 O 1.28787 0.74328 0.26986
 O381 O 1.24254 0.78617 0.27138
 O382 O 1.20178 0.74039 0.26808
 C383 C 1.30353 0.69931 0.18794
 C384 C 1.19777 0.69322 0.18694
 C385 C 1.30050 0.79978 0.19359
 O386 O 1.33672 0.78585 0.25253
 O387 O 1.29949 0.80471 0.28517
 O388 O 1.27274 0.77178 0.31268
 C389 C 1.29275 0.79507 0.30743
 O390 O 1.17992 0.80383 0.21558
 Zr391 Zr 1.20139 0.78413 0.24837
 O392 O 1.21178 0.76939 0.31190
 O393 O 1.27800 0.83864 0.24998
 O394 O 1.20687 0.83575 0.25060
 O395 O 1.15017 0.77588 0.24827
 O396 O 1.18289 0.79880 0.28319
 C397 C 1.18968 0.79047 0.30571
 O398 O 1.27015 0.71454 0.31757
 O399 O 1.21433 0.64899 0.24242
 O400 O 1.21437 0.70647 0.30840
 O401 O 1.18985 0.67810 0.27698
 O402 O 1.28854 0.65183 0.24116
 O403 O 1.30924 0.67981 0.27783
 C404 C 1.19498 0.68409 0.30015
 H405 H 1.25078 0.68222 0.21208
 H406 H 1.30716 0.74290 0.28102
 H407 H 1.18132 0.73840 0.27775
 H408 H 1.24260 0.80818 0.21660
 H409 H 1.35376 0.69448 0.24216
 H410 H 1.34420 0.80894 0.25297
 H411 H 1.29997 0.84860 0.25173
 H412 H 1.18528 0.84512 0.25513
 H413 H 1.31085 0.64397 0.23700
 H414 H 1.19236 0.63903 0.24066
 H415 H 1.14784 0.67887 0.24284
 H416 H 1.13932 0.79683 0.25279
 H417 H 1.32902 0.66690 0.27356
 H418 H 1.26106 0.72082 0.33399
 H419 H 1.23155 0.76763 0.16038
 H420 H 1.16478 0.82190 0.22006
 Zr421 Zr 0.73762 1.24140 0.21205
 O422 O 0.76404 1.21825 0.18304
 O423 O 0.70243 1.26851 0.19179
 O424 O 0.70975 1.20683 0.19225
 O425 O 0.79309 1.30487 0.21973
 O426 O 0.68545 1.17598 0.22229
 O427 O 0.76614 1.27384 0.19104
 O428 O 0.67009 1.29058 0.22196
 O429 O 0.69550 1.23564 0.23354
 O430 O 0.73311 1.28429 0.23302
 O431 O 0.74611 1.19877 0.23317
 O432 O 0.78189 1.24534 0.23221
 Zr433 Zr 0.74235 1.24023 0.29846
 Zr434 Zr 0.70477 1.19456 0.25579
 Zr435 Zr 0.77560 1.28729 0.25433
 Zr436 Zr 0.69246 1.27759 0.25566
 O437 O 0.82729 1.29003 0.25537
 O438 O 0.64269 1.26324 0.25751
 O439 O 0.73453 1.28343 0.27761
 O440 O 0.69862 1.23621 0.27812
 O441 O 0.74717 1.19710 0.27772
 O442 O 0.78427 1.24627 0.27672
 C443 C 0.67767 1.28569 0.19911
 C444 C 0.78671 1.29626 0.19715
 C445 C 0.69091 1.18351 0.19946
 O446 O 0.65324 1.19197 0.25903
 O447 O 0.69261 1.17259 0.28976
 O448 O 0.71734 1.20413 0.31925
 C449 C 0.69932 1.17975 0.31247
 O450 O 0.81115 1.18845 0.22201
 Zr451 Zr 0.78808 1.20408 0.25534
 O452 O 0.77641 1.21345 0.31923
 O453 O 0.71557 1.14386 0.25322
 O454 O 0.78677 1.15209 0.25519
 O455 O 0.83831 1.21699 0.25592
 O456 O 0.80762 1.18799 0.28989
 C457 C 0.79975 1.19417 0.31263
 O458 O 0.71384 1.26194 0.32688
 O459 O 0.76500 1.33809 0.25239
 O460 O 0.76905 1.27589 0.31829
 O461 O 0.78826 1.31019 0.28811
 O462 O 0.69158 1.32956 0.25378
 O463 O 0.67342 1.29708 0.28930
 C464 C 0.78441 1.30170 0.31097
 H465 H 0.73069 1.30420 0.22264
 H466 H 0.67955 1.23402 0.28929
 H467 H 0.80439 1.24935 0.28673
 H468 H 0.74873 1.17932 0.22233
 H469 H 0.62913 1.28280 0.25363
 H470 H 0.64735 1.16842 0.25829
 H471 H 0.69448 1.13209 0.25463
 H472 H 0.80901 1.14416 0.25954
 H473 H 0.66867 1.33637 0.25045
 H474 H 0.78630 1.34960 0.25169
 H475 H 0.83290 1.31366 0.25569
 H476 H 0.85094 1.19692 0.26009
 H477 H 0.65300 1.30940 0.28576
 H478 H 0.72345 1.25491 0.34298
 H479 H 0.75434 1.22549 0.16701
 H480 H 0.82814 1.17185 0.22599
 O481 O 0.47333 1.05817 0.02870
 O482 O 0.51105 0.94619 0.02862
 O483 O 0.43428 0.98830 0.02939
 O484 O 0.54799 1.01532 0.03013
 O485 O 0.45462 0.94228 0.01804
 O486 O 0.52852 1.06184 0.01900
 O487 O 0.55475 0.96148 0.01181
 O488 O 0.42882 1.04313 0.01281
 C489 C 0.44347 1.05569 0.03064
 C490 C 0.54116 0.94671 0.02896
 C491 C 0.43940 0.95892 0.03387
 C492 C 0.54294 1.04460 0.03495
 O493 O 0.51261 1.05735 -0.03152
 O494 O 0.47120 0.94662 -0.03145
 O495 O 0.43570 1.01925 -0.03359
 O496 O 0.54765 0.98669 -0.03330
 O497 O 0.52616 0.94119 -0.02180
 O498 O 0.45719 1.06396 -0.02100
 O499 O 0.55616 1.04098 -0.01502
 O500 O 0.42689 0.96451 -0.01676
 Co501 Co 0.49284 1.05512 -0.00134
 Co502 Co 0.49085 0.94949 -0.00152
 Co503 Co 0.43751 1.00369 -0.00204
 Co504 Co 0.54536 1.00135 -0.00161
 O505 O 0.49154 1.00241 -0.00162
 C506 C 0.54261 1.05549 -0.03244
 C507 C 0.44133 0.94872 -0.03318
 C508 C 0.44333 1.04811 -0.03791
 C509 C 0.54288 0.95705 -0.03720
 O510 O 0.97238 0.55912 0.52803
 O511 O 1.01083 0.44710 0.52964
 O512 O 0.93380 0.48903 0.52897
 O513 O 1.04746 0.51519 0.53090
 O514 O 0.95480 0.44291 0.51836
 O515 O 1.02794 0.56180 0.51970
 O516 O 1.05472 0.46127 0.51280
 O517 O 0.92859 0.54361 0.51134
 C518 C 0.94242 0.55685 0.52923
 C519 C 1.04094 0.44759 0.53038
 C520 C 0.93889 0.45970 0.53367
 C521 C 1.04202 0.54439 0.53574
 O522 O 1.01401 0.55695 0.46861
 O523 O 0.97207 0.44633 0.46900
 O524 O 0.93637 0.51872 0.46578
 O525 O 1.04825 0.48658 0.46751
 O526 O 1.02674 0.44121 0.47915
 O527 O 0.95839 0.56371 0.47773
 O528 O 1.05671 0.54083 0.48624
 O529 O 0.92753 0.46427 0.48321
 Co530 Co 0.99315 0.55521 0.49843
 Co531 Co 0.99123 0.44971 0.49914
 Co532 Co 0.93772 0.50376 0.49744
 Co533 Co 1.04558 0.50117 0.49923
 O534 O 0.99179 0.50248 0.49857
 C535 C 1.04398 0.55462 0.46820
 C536 C 0.94222 0.44850 0.46693
 C537 C 0.94395 0.54755 0.46124
 C538 C 1.04286 0.45710 0.46343
 O539 O 1.01134 0.44419 0.04692
 O540 O 1.01957 0.52394 -0.04564
 O541 O 1.01111 0.42300 -0.02891
 O542 O 1.02384 0.54490 0.03053
 O543 O 1.03321 0.46703 -0.04168
 O544 O 1.03678 0.49729 0.04368
 O545 O 1.03969 0.53938 -0.01135
 O546 O 1.02910 0.42575 0.01310
 C547 C 1.03331 0.42942 0.03563
 C548 C 1.04250 0.53697 -0.03407
 C549 C 1.03381 0.43680 -0.04038
 C550 C 1.04334 0.52684 0.04219
 O551 O 0.97729 0.52464 0.04918
 O552 O 0.96892 0.45262 -0.04739
 O553 O 0.96393 0.42560 0.02801
 O554 O 0.97678 0.55205 -0.02591
 O555 O 0.95526 0.50929 -0.04152
 O556 O 0.95204 0.47255 0.04277
 O557 O 0.95893 0.54617 0.01630
 O558 O 0.94787 0.43504 -0.01410
 Co559 Co 0.99434 0.48480 0.04127
 Co560 Co 0.99422 0.48800 -0.03951
 Co561 Co 0.98860 0.43311 -0.00027
 Co562 Co 0.99910 0.53977 0.00228
 O563 O 0.99401 0.48643 0.00093
 C564 C 0.95600 0.54167 0.03889
 C565 C 0.94534 0.43948 -0.03677
 C566 C 0.94543 0.44312 0.04105
 C567 C 0.95527 0.53946 -0.03939
 O568 O 0.50316 0.95600 0.55339
 O569 O 0.50657 1.00595 0.44870
 O570 O 0.53525 0.93982 0.48106
 O571 O 0.53465 1.03052 0.52354
 O572 O 0.50104 0.94563 0.45213
 O573 O 0.50196 1.01502 0.55274
 O574 O 0.53182 1.03623 0.47651
 O575 O 0.53598 0.94589 0.52395
 C576 C 0.53143 0.94851 0.54644
 C577 C 0.52910 1.02564 0.45477
 C578 C 0.52934 0.93852 0.45873
 C579 C 0.52910 1.02662 0.54605
 O580 O 0.44031 1.01383 0.53375
 O581 O 0.44080 0.95295 0.47010
 O582 O 0.47592 0.91730 0.52829
 O583 O 0.47001 1.05263 0.47940
 O584 O 0.44443 1.01292 0.46020
 O585 O 0.44205 0.95602 0.53116
 O586 O 0.47315 1.05281 0.52578
 O587 O 0.47267 0.91408 0.48271
 Co588 Co 0.47324 0.98493 0.53934
 Co589 Co 0.47460 0.97960 0.46214
 Co590 Co 0.50324 0.93385 0.50375
 Co591 Co 0.50118 1.03720 0.50155
 O592 O 0.48826 0.98450 0.50142
 C593 C 0.44598 1.04351 0.53380
 C594 C 0.44584 0.92319 0.47309
 C595 C 0.44833 0.92703 0.53514
 C596 C 0.44768 1.04268 0.46499
 O597 O 1.06882 1.04229 0.48813
 O598 O 0.95794 1.04141 0.52010
 O599 O 0.99833 1.04517 0.46062
 O600 O 1.02826 1.04050 0.54596
 O601 O 0.95257 1.03092 0.47681
 O602 O 1.07434 1.02733 0.52990
 O603 O 0.97488 1.01641 0.55159
 O604 O 1.05248 1.02183 0.45467
 C605 C 1.06609 1.04491 0.46544
 C606 C 0.96101 1.04085 0.54289
 C607 C 0.96872 1.05048 0.46358
 C608 C 1.05755 1.04668 0.54291
 O609 O 1.06934 0.96091 0.51576
 O610 O 0.95643 0.96386 0.48667
 O611 O 1.02761 0.96186 0.45864
 O612 O 0.99966 0.95734 0.54362
 O613 O 0.95338 0.97357 0.52886
 O614 O 1.07371 0.97597 0.47443
 O615 O 1.05406 0.98083 0.54948
 O616 O 0.97324 0.98599 0.45399
 Co617 Co 1.06628 1.00168 0.50213
 Co618 Co 0.96046 1.00254 0.50307
 Co619 Co 1.01302 1.00347 0.46164
 Co620 Co 1.01424 0.99905 0.54303
 O621 O 1.01349 1.00171 0.50244
 C622 C 1.06724 0.95781 0.53837
 C623 C 0.95845 0.96305 0.46394
 C624 C 1.05707 0.95594 0.46197
 C625 C 0.97002 0.95233 0.54029
 O626 O 0.57458 0.52385 -0.02748
 O627 O 0.44232 0.52248 0.02476
 O628 O 0.47767 0.55415 -0.02593
 O629 O 0.54225 0.55395 0.04105
 O630 O 0.44059 0.51910 -0.02014
 O631 O 0.57985 0.53009 0.01817
 O632 O 0.48070 0.55614 0.03560
 O633 O 0.53466 0.55656 -0.03163
 C634 C 0.56415 0.55136 -0.03391
 C635 C 0.45107 0.55024 0.03281
 C636 C 0.44839 0.54742 -0.02674
 C637 C 0.57081 0.55237 0.03295
 O638 O 0.56671 0.46796 0.02420
 O639 O 0.47126 0.45919 -0.01763
 O640 O 0.53489 0.49382 -0.05038
 O641 O 0.47801 0.49619 0.05385
 O642 O 0.46924 0.46045 0.02622
 O643 O 0.55403 0.46241 -0.02141
 O644 O 0.53844 0.49182 0.05380
 O645 O 0.47652 0.49296 -0.04731
 Co646 Co 0.56299 0.49712 -0.00145
 Co647 Co 0.46043 0.49195 0.00319
 Co648 Co 0.50620 0.52305 -0.03546
 Co649 Co 0.50972 0.52307 0.04173
 O650 O 0.51040 0.50849 0.00234
 C651 C 0.55847 0.47019 0.04647
 C652 C 0.47072 0.46440 -0.04017
 C653 C 0.54646 0.46651 -0.04356
 C654 C 0.47086 0.46748 0.04845
 C655 C 0.34703 1.20068 0.16381
 C656 C 0.36468 1.18488 0.14518
 C657 C 0.36399 1.15074 0.14310
 C658 C 0.34636 1.13222 0.16057
 C659 C 0.32940 1.14806 0.17982
 C660 C 0.32920 1.18245 0.18122
 N661 N 0.38126 1.13586 0.12292
 N662 N 0.37465 1.10742 0.11460
 C663 C 0.39260 1.09391 0.09414
 C664 C 0.37896 1.06837 0.08018
 C665 C 0.39524 1.05621 0.05924
 C666 C 0.42588 1.06884 0.05241
 C667 C 0.43982 1.09394 0.06676
 C668 C 0.42323 1.10658 0.08730
 H669 H 0.34730 1.22725 0.16468
 H670 H 0.37830 1.19934 0.13190
 H671 H 0.34581 1.10572 0.15936
 H672 H 0.31572 1.13365 0.19309
 H673 H 0.35537 1.05839 0.08523
 H674 H 0.38408 1.03669 0.04855
 H675 H 0.46325 1.10426 0.06180
 H676 H 0.43434 1.12625 0.09785
 C677 C 0.82810 0.70694 0.65217
 C678 C 0.84563 0.69159 0.63319
 C679 C 0.85066 0.65765 0.63353
 C680 C 0.83813 0.63906 0.65333
 C681 C 0.82132 0.65456 0.67278
 C682 C 0.81604 0.68866 0.67229
 N683 N 0.86932 0.64299 0.61394
 N684 N 0.86727 0.61270 0.60843
 C685 C 0.88678 0.59866 0.58903
 C686 C 0.87551 0.57076 0.57657
 C687 C 0.89344 0.55741 0.55688
 C688 C 0.92359 0.57110 0.54998
 C689 C 0.93535 0.59854 0.56296
 C690 C 0.91689 0.61250 0.58212
 H691 H 0.82481 0.73332 0.65149
 H692 H 0.85530 0.70618 0.61811
 H693 H 0.84202 0.61279 0.65404
 H694 H 0.81240 0.63998 0.68814
 H695 H 0.85241 0.55981 0.58175
 H696 H 0.88393 0.53618 0.54721
 H697 H 0.95843 0.60961 0.55790
 H698 H 0.92619 0.63393 0.59166
 C699 C 0.65614 0.85149 0.17987
 C700 C 0.63462 0.86559 0.16283
 C701 C 0.64057 0.86290 0.13743
 C702 C 0.66855 0.84601 0.12907
 C703 C 0.69003 0.83155 0.14613
 C704 C 0.68396 0.83405 0.17174
 N705 N 0.61794 0.87775 0.12055
 N706 N 0.62373 0.87921 0.09742
 C707 C 0.60157 0.89445 0.08043
 C708 C 0.61280 0.90158 0.05662
 C709 C 0.59281 0.91835 0.03995
 C710 C 0.56091 0.92771 0.04671
 C711 C 0.54907 0.91954 0.07033
 C712 C 0.56946 0.90322 0.08727
 H713 H 0.65052 0.85374 0.19945
 H714 H 0.61319 0.87863 0.16942
 H715 H 0.67362 0.84368 0.10942
 H716 H 0.71115 0.81822 0.13930
 H717 H 0.63743 0.89483 0.05121
 H718 H 0.60241 0.92411 0.02173
 H719 H 0.52454 0.92652 0.07586
 H720 H 0.56030 0.89768 0.10564
 C721 C 1.15563 0.35720 0.68527
 C722 C 1.13376 0.37169 0.66851
 C723 C 1.13941 0.36973 0.64296
 C724 C 1.16745 0.35324 0.63428
 C725 C 1.18916 0.33849 0.65098
 C726 C 1.18343 0.34014 0.67667
 N727 N 1.11650 0.38454 0.62615
 N728 N 1.12262 0.38619 0.60305
 C729 C 1.10080 0.40066 0.58537
 C730 C 1.11269 0.40662 0.56155
 C731 C 1.09292 0.42163 0.54380
 C732 C 1.06049 0.43043 0.54942
 C733 C 1.04806 0.42367 0.57317
 C734 C 1.06826 0.40908 0.59120
 H735 H 1.15034 0.35875 0.70494
 H736 H 1.11231 0.38437 0.67544
 H737 H 1.17240 0.35139 0.61459
 H738 H 1.21028 0.32555 0.64373
 H739 H 1.13765 0.40009 0.55687
 H740 H 1.10307 0.42635 0.52558
 H741 H 1.02315 0.43031 0.57789
 H742 H 1.05857 0.40443 0.60956
 C743 C 0.63920 1.15967 -0.18798
 C744 C 0.62063 1.14319 -0.17023
 C745 C 0.62952 1.14419 -0.14518
 C746 C 0.65723 1.16222 -0.13791
 C747 C 0.67561 1.17918 -0.15563
 C748 C 0.66684 1.17796 -0.18088
 N749 N 0.60990 1.12689 -0.12755
 N750 N 0.61920 1.12238 -0.10525
 C751 C 0.59944 1.10542 -0.08753
 C752 C 0.61345 1.09632 -0.06485
 C753 C 0.59499 1.07969 -0.04712
 C754 C 0.56191 1.07242 -0.05164
 C755 C 0.54775 1.08165 -0.07439
 C756 C 0.56643 1.09789 -0.09231
 H757 H 0.63158 1.15845 -0.20724
 H758 H 0.59930 1.12946 -0.17603
 H759 H 0.66447 1.16346 -0.11858
 H760 H 0.69672 1.19307 -0.14960
 H761 H 0.63882 1.10199 -0.06096
 H762 H 0.60650 1.07291 -0.02970
 H763 H 0.52243 1.07599 -0.07842
 H764 H 0.55506 1.10476 -0.10975
 C765 C 1.14829 0.64716 0.31093
 C766 C 1.12896 0.63102 0.32842
 C767 C 1.13727 0.63186 0.35360
 C768 C 1.16544 0.64888 0.36120
 C769 C 1.18459 0.66539 0.34378
 C770 C 1.17611 0.66487 0.31846
 N771 N 1.11636 0.61603 0.37116
 N772 N 1.12471 0.61263 0.39379
 C773 C 1.10387 0.59772 0.41181
 C774 C 1.11699 0.58995 0.43506
 C775 C 1.09745 0.57571 0.45327
 C776 C 1.06418 0.56955 0.44863
 C777 C 1.05089 0.57747 0.42530
 C778 C 1.07066 0.59133 0.40691
 H779 H 1.14093 0.64645 0.29160
 H780 H 1.10729 0.61802 0.32236
 H781 H 1.17232 0.64995 0.38061
 H782 H 1.20585 0.67877 0.35017
 H783 H 1.14250 0.59486 0.43903
 H784 H 1.10831 0.56986 0.47111
 H785 H 1.02542 0.57260 0.42121
 H786 H 1.06000 0.59728 0.38903
 C787 C 0.30736 0.85506 -0.17705
 C788 C 0.32218 0.87538 -0.15939
 C789 C 0.33454 0.86217 -0.13726
 C790 C 0.33083 0.82848 -0.13252
 C791 C 0.31512 0.80831 -0.14983
 C792 C 0.30370 0.82135 -0.17240
 N793 N 0.35119 0.88316 -0.12007
 N794 N 0.37278 0.87185 -0.10527
 C795 C 0.38955 0.89203 -0.08763
 C796 C 0.41995 0.88154 -0.07862
 C797 C 0.43707 0.90046 -0.06136
 C798 C 0.42350 0.92976 -0.05219
 C799 C 0.39276 0.94016 -0.06098
 C800 C 0.37605 0.92163 -0.07887
 H801 H 0.29857 0.86569 -0.19427
 H802 H 0.32482 0.90132 -0.16322
 H803 H 0.33997 0.81783 -0.11543
 H804 H 0.31265 0.78238 -0.14587
 H805 H 0.43053 0.85874 -0.08518
 H806 H 0.46065 0.89181 -0.05477
 H807 H 0.38188 0.96270 -0.05418
 H808 H 0.35243 0.93003 -0.08550
 C809 C 0.80056 0.35693 0.32678
 C810 C 0.81613 0.37679 0.34434
 C811 C 0.83179 0.36274 0.36491
 C812 C 0.83058 0.32858 0.36833
 C813 C 0.81415 0.30878 0.35118
 C814 C 0.79949 0.32276 0.33005
 N815 N 0.84911 0.38345 0.38188
 N816 N 0.87274 0.37248 0.39493
 C817 C 0.88998 0.39255 0.41237
 C818 C 0.92117 0.38271 0.42020
 C819 C 0.93855 0.40147 0.43743
 C820 C 0.92451 0.42992 0.44767
 C821 C 0.89312 0.43973 0.43991
 C822 C 0.87608 0.42138 0.42214
 H823 H 0.78929 0.36824 0.31066
 H824 H 0.81681 0.40309 0.34157
 H825 H 0.84227 0.31728 0.38426
 H826 H 0.81376 0.28247 0.35402
 H827 H 0.93207 0.36052 0.41282
 H828 H 0.96265 0.39329 0.44322
 H829 H 0.88185 0.46162 0.44752
 H830 H 0.85189 0.42929 0.41643
 C831 C 1.18165 0.36102 0.17593
 C832 C 1.16368 0.37682 0.15738
 C833 C 1.16151 0.36346 0.13354
 C834 C 1.17868 0.33440 0.12806
 C835 C 1.19698 0.31853 0.14668
 C836 C 1.19806 0.33135 0.17099
 N837 N 1.13991 0.37907 0.11616
 N838 N 1.13500 0.36943 0.09395
 C839 C 1.11115 0.38584 0.07862
 C840 C 1.10654 0.37628 0.05379
 C841 C 1.08181 0.39087 0.03925
 C842 C 1.06112 0.41491 0.04956
 C843 C 1.06631 0.42474 0.07427
 C844 C 1.09103 0.41058 0.08855
 H845 H 1.18211 0.37179 0.19432
 H846 H 1.15055 0.39920 0.16181
 H847 H 1.17727 0.32361 0.10972
 H848 H 1.20930 0.29569 0.14228
 H849 H 1.12178 0.35722 0.04584
 H850 H 1.07834 0.38283 0.02025
 H851 H 1.05091 0.44325 0.08277
 H852 H 1.09385 0.41855 0.10762
 C853 C 0.67572 0.87439 0.69160
 C854 C 0.65513 0.89195 0.67568
 C855 C 0.65516 0.88565 0.65020
 C856 C 0.67697 0.86202 0.64061
 C857 C 0.69751 0.84412 0.65660
 C858 C 0.69669 0.84969 0.68239
 N859 N 0.63157 0.90220 0.63485
 N860 N 0.63189 0.89998 0.61129
 C861 C 0.60740 0.91500 0.59587
 C862 C 0.61175 0.91432 0.57017
 C863 C 0.58747 0.92634 0.55433
 C864 C 0.55795 0.93900 0.56387
 C865 C 0.55386 0.94054 0.58976
 C866 C 0.57848 0.92871 0.60570
 H867 H 0.67433 0.87953 0.71131
 H868 H 0.63850 0.91007 0.68332
 H869 H 0.67740 0.85667 0.62091
 H870 H 0.71327 0.82532 0.64886
 H871 H 0.63385 0.90384 0.56237
 H872 H 0.59152 0.92483 0.53448
 H873 H 0.53146 0.95023 0.59763
 H874 H 0.57455 0.92943 0.62556
 C875 C 1.15976 0.63998 -0.17661
 C876 C 1.14482 0.62072 -0.15862
 C877 C 1.14907 0.62745 -0.13345
 C878 C 1.16889 0.65389 -0.12623
 C879 C 1.18422 0.67338 -0.14431
 C880 C 1.17983 0.66680 -0.16994
 N881 N 1.13197 0.60721 -0.11611
 N882 N 1.13234 0.61095 -0.09263
 C883 C 1.11308 0.58974 -0.07718
 C884 C 1.11000 0.59630 -0.05171
 C885 C 1.08829 0.57802 -0.03707
 C886 C 1.06931 0.55301 -0.04785
 C887 C 1.07384 0.54540 -0.07304
 C888 C 1.09546 0.56348 -0.08753
 H889 H 1.15538 0.63352 -0.19586
 H890 H 1.12950 0.60045 -0.16436
 H891 H 1.17241 0.65952 -0.10675
 H892 H 1.19934 0.69358 -0.13811
 H893 H 1.12347 0.61635 -0.04342
 H894 H 1.08524 0.58441 -0.01768
 H895 H 1.05982 0.52606 -0.08179
 H896 H 1.09755 0.55751 -0.10706
 C897 C 0.68925 1.16506 0.35728
 C898 C 0.67333 1.14611 0.37524
 C899 C 0.65250 1.12052 0.36816
 C900 C 0.64842 1.11342 0.34284
 C901 C 0.66428 1.13223 0.32491
 C902 C 0.68452 1.15862 0.33185
 N903 N 0.63457 1.10324 0.38685
 N904 N 0.61405 1.08084 0.38153
 C905 C 0.59501 1.06483 0.40025
 C906 C 0.57111 1.04206 0.39315
 C907 C 0.55018 1.02832 0.41088
 C908 C 0.55291 1.03725 0.43603
 C909 C 0.57780 1.05916 0.44313
 C910 C 0.59857 1.07283 0.42546
 H911 H 0.70472 1.18508 0.36329
 H912 H 0.67666 1.15183 0.39473
 H913 H 0.63251 1.09375 0.33688
 H914 H 0.66012 1.12638 0.30553
 H915 H 0.56814 1.03565 0.37376
 H916 H 0.53137 1.01143 0.40482
 H917 H 0.58077 1.06648 0.46234
 H918 H 0.61691 1.09024 0.43146
 C919 C 0.82601 0.70867 0.14106
 C920 C 0.83941 0.69082 0.12135
 C921 C 0.85532 0.66097 0.12574
 C922 C 0.85832 0.64943 0.15029
 C923 C 0.84522 0.66739 0.17005
 C924 C 0.82863 0.69708 0.16566
 N925 N 0.86863 0.64293 0.10521
 N926 N 0.87957 0.61396 0.10823
 C927 C 0.89458 0.59503 0.08897
 C928 C 0.90708 0.56428 0.09533
 C929 C 0.92555 0.54641 0.07838
 C930 C 0.93161 0.55875 0.05446
 C931 C 0.91746 0.58885 0.04743
 C932 C 0.89913 0.60708 0.06471
 H933 H 0.81340 0.73147 0.13700
 H934 H 0.83708 0.70010 0.10257
 H935 H 0.87077 0.62652 0.15424
 H936 H 0.84753 0.65767 0.18870
 H937 H 0.90369 0.55477 0.11393
 H938 H 0.93628 0.52341 0.08440
 H939 H 0.92200 0.59900 0.02918
 H940 H 0.88957 0.63088 0.05942
 C941 C 0.33468 1.16763 0.66477
 C942 C 0.34912 1.15180 0.64452
 C943 C 0.35479 1.16893 0.62227
 C944 C 0.34568 1.20198 0.62056
 C945 C 0.33039 1.21761 0.64060
 C946 C 0.32497 1.20061 0.66294
 N947 N 0.37036 1.15324 0.60159
 N948 N 0.36917 1.12224 0.59904
 C949 C 0.38593 1.10483 0.57977
 C950 C 0.37782 1.07202 0.57577
 C951 C 0.39612 1.05278 0.55948
 C952 C 0.42344 1.06589 0.54715
 C953 C 0.43072 1.09934 0.55029
 C954 C 0.41197 1.11878 0.56644
 H955 H 0.33072 1.15398 0.68176
 H956 H 0.35630 1.12632 0.64635
 H957 H 0.35007 1.21550 0.60359
 H958 H 0.32332 1.24314 0.63878
 H959 H 0.35785 1.06102 0.58595
 H960 H 0.38977 1.02713 0.55751
 H961 H 0.45165 1.11008 0.54110
 H962 H 0.41873 1.14414 0.56938
 C963 C 0.81726 0.35642 -0.18476
 C964 C 0.83390 0.37411 -0.16644
 C965 C 0.83146 0.36537 -0.14138
 C966 C 0.81138 0.33888 -0.13472
 C967 C 0.79449 0.32116 -0.15309
 C968 C 0.79755 0.32947 -0.17841
 N969 N 0.85069 0.38318 -0.12356
 N970 N 0.85153 0.37677 -0.10038
 C971 C 0.87247 0.39487 -0.08377
 C972 C 0.87480 0.38578 -0.05866
 C973 C 0.89736 0.40122 -0.04276
 C974 C 0.91806 0.42593 -0.05185
 C975 C 0.91458 0.43591 -0.07674
 C976 C 0.89211 0.42062 -0.09249
 H977 H 0.82019 0.36370 -0.20397
 H978 H 0.84930 0.39445 -0.17186
 H979 H 0.80911 0.33162 -0.11546
 H980 H 0.77958 0.30055 -0.14748
 H981 H 0.85981 0.36604 -0.05158
 H982 H 0.89953 0.39296 -0.02370
 H983 H 0.92993 0.45507 -0.08429
 H984 H 0.89076 0.42842 -0.11169
 C985 C 0.32037 0.84382 0.32666
 C986 C 0.33609 0.85892 0.34675
 C987 C 0.34215 0.84157 0.36878
 C988 C 0.33174 0.80889 0.37069
 C989 C 0.31529 0.79399 0.35083
 C990 C 0.30959 0.81124 0.32854
 N991 N 0.35823 0.85803 0.38892
 N992 N 0.37182 0.84311 0.40706
 C993 C 0.38713 0.86127 0.42677
 C994 C 0.41347 0.84760 0.44005
 C995 C 0.43159 0.86689 0.45677
 C996 C 0.42308 0.89995 0.46074
 C997 C 0.39483 0.91248 0.44898
 C998 C 0.37731 0.89352 0.43203
 H999 H 0.31623 0.85775 0.30981
 H1000 H 0.34387 0.88419 0.34509
 H1001 H 0.33594 0.79509 0.38758
 H1002 H 0.30742 0.76878 0.35277
 H1003 H 0.42116 0.82263 0.43634
 H1004 H 0.45321 0.85654 0.46546
 H1005 H 0.38729 0.93773 0.45172
 H1006 H 0.35665 0.90441 0.42241
 C1007 C 1.14866 1.18105 0.32259
 C1008 C 1.13077 1.16407 0.34046
 C1009 C 1.14047 1.16430 0.36537
 C1010 C 1.16800 1.18264 0.37248
 C1011 C 1.18596 1.19987 0.35457
 C1012 C 1.17677 1.19882 0.32932
 N1013 N 1.12277 1.14420 0.38249
 N1014 N 1.12964 1.14167 0.40551
 C1015 C 1.11172 1.11953 0.42112
 C1016 C 1.11987 1.11652 0.44636
 C1017 C 1.10434 1.09303 0.46129
 C1018 C 1.08066 1.07205 0.45102
 C1019 C 1.07188 1.07590 0.42594
 C1020 C 1.08711 1.09938 0.41118
 H1021 H 1.14069 1.17980 0.30341
 H1022 H 1.10961 1.15000 0.33477
 H1023 H 1.17596 1.18311 0.39166
 H1024 H 1.20747 1.21329 0.36040
 H1025 H 1.13877 1.13186 0.45430
 H1026 H 1.11156 1.09057 0.48058
 H1027 H 1.05353 1.06031 0.41753
 H1028 H 1.08014 1.10115 0.39181
 C1029 C 0.64677 0.69001 -0.17463
 C1030 C 0.62940 0.67353 -0.15613
 C1031 C 0.64460 0.66530 -0.13363
 C1032 C 0.67719 0.67453 -0.12944
 C1033 C 0.69437 0.69157 -0.14769
 C1034 C 0.67948 0.69913 -0.17060
 N1035 N 0.62656 0.64727 -0.11550
 N1036 N 0.64039 0.63283 -0.09729
 C1037 C 0.62171 0.61485 -0.07948
 C1038 C 0.63715 0.59084 -0.06493
 C1039 C 0.61870 0.57067 -0.04930
 C1040 C 0.58462 0.57485 -0.04769
 C1041 C 0.56956 0.60028 -0.06125
 C1042 C 0.58787 0.61990 -0.07715
 H1043 H 0.63464 0.69566 -0.19203
 H1044 H 0.60422 0.66658 -0.15949
 H1045 H 0.68933 0.66861 -0.11211
 H1046 H 0.71954 0.69824 -0.14402
 H1047 H 0.66328 0.58687 -0.06649
 H1048 H 0.63089 0.55135 -0.03897
 H1049 H 0.54335 0.60416 -0.06038
 H1050 H 0.57550 0.63861 -0.08797
 C1051 C 0.80924 1.18856 0.64403
 C1052 C 0.82743 1.17373 0.62518
 C1053 C 0.85486 1.15464 0.63090
 C1054 C 0.86405 1.15058 0.65595
 C1055 C 0.84575 1.16534 0.67495
 C1056 C 0.81802 1.18446 0.66921
 N1057 N 0.87222 1.13891 0.61103
 N1058 N 0.89816 1.12232 0.61487
 C1059 C 0.91520 1.10521 0.59554
 C1060 C 0.94248 1.08643 0.60211
 C1061 C 0.95797 1.06669 0.58456
 C1062 C 0.94665 1.06548 0.55988
 C1063 C 0.92020 1.08560 0.55285
 C1064 C 0.90439 1.10527 0.57064
 H1065 H 0.78809 1.20310 0.63879
 H1066 H 0.82000 1.17698 0.60601
 H1067 H 0.88515 1.13578 0.66087
 H1068 H 0.85325 1.16173 0.69406
 H1069 H 0.95111 1.08625 0.62115
 H1070 H 0.97843 1.05165 0.59053
 H1071 H 0.91094 1.08503 0.53399
 H1072 H 0.88332 1.11973 0.56512
 C1073 C 0.35534 0.67582 0.17089
 C1074 C 0.37307 0.66187 0.15140
 C1075 C 0.35796 0.65561 0.12855
 C1076 C 0.32496 0.66407 0.12506
 C1077 C 0.30736 0.67870 0.14436
 C1078 C 0.32235 0.68444 0.16750
 N1079 N 0.37673 0.64036 0.10938
 N1080 N 0.36389 0.62713 0.09030
 C1081 C 0.38423 0.61181 0.07205
 C1082 C 0.37213 0.58548 0.05810
 C1083 C 0.39346 0.56634 0.04374
 C1084 C 0.42701 0.57379 0.04296
 C1085 C 0.43827 0.60217 0.05509
 C1086 C 0.41716 0.62081 0.06966
 H1087 H 0.36749 0.68020 0.18848
 H1088 H 0.39856 0.65545 0.15421
 H1089 H 0.31289 0.65954 0.10747
 H1090 H 0.28189 0.68502 0.14132
 H1091 H 0.34669 0.57848 0.05967
 H1092 H 0.38406 0.54477 0.03442
 H1093 H 0.46388 0.60890 0.05461
 H1094 H 0.42686 0.64148 0.07990
 C1095 C 1.14496 0.81833 0.67959
 C1096 C 1.12847 0.83550 0.66107
 C1097 C 1.13860 0.83363 0.63644
 C1098 C 1.16507 0.81317 0.63015
 C1099 C 1.18163 0.79537 0.64876
 C1100 C 1.17231 0.79828 0.67399
 N1101 N 1.12219 0.85438 0.61893
 N1102 N 1.12939 0.85703 0.59603
 C1103 C 1.11197 0.88031 0.58084
 C1104 C 1.12016 0.88426 0.55573
 C1105 C 1.10498 0.90881 0.54138
 C1106 C 1.08168 0.92991 0.55216
 C1107 C 1.07288 0.92517 0.57707
 C1108 C 1.08770 0.90067 0.59121
 H1109 H 1.13621 0.82135 0.69844
 H1110 H 1.10804 0.85115 0.66607
 H1111 H 1.17323 0.81139 0.61108
 H1112 H 1.20228 0.78022 0.64339
 H1113 H 1.13876 0.86880 0.54743
 H1114 H 1.11214 0.91193 0.52217
 H1115 H 1.05477 0.94079 0.58583
 H1116 H 1.08064 0.89823 0.61049
 C1117 C 0.62699 0.31671 0.18761
 C1118 C 0.60939 0.33661 0.17124
 C1119 C 0.62135 0.34277 0.14744
 C1120 C 0.65051 0.32741 0.13967
 C1121 C 0.66816 0.30736 0.15604
 C1122 C 0.65700 0.30253 0.18042
 N1123 N 0.60455 0.36610 0.13212
 N1124 N 0.61529 0.37375 0.11078
 C1125 C 0.59997 0.39788 0.09535
 C1126 C 0.61270 0.40283 0.07167
 C1127 C 0.59919 0.42646 0.05606
 C1128 C 0.57260 0.44592 0.06390
 C1129 C 0.55988 0.44118 0.08786
 C1130 C 0.57342 0.41717 0.10351
 H1131 H 0.61752 0.31327 0.20620
 H1132 H 0.58691 0.34816 0.17739
 H1133 H 0.66019 0.33170 0.12126
 H1134 H 0.69117 0.29685 0.14996
 H1135 H 0.63326 0.38827 0.06530
 H1136 H 0.60977 0.42954 0.03778
 H1137 H 0.53944 0.45577 0.09437
 H1138 H 0.56334 0.41382 0.12191
 C1139 C 0.85786 0.84625 0.31879
 C1140 C 0.87661 0.86161 0.33691
 C1141 C 0.86894 0.85815 0.36198
 C1142 C 0.84223 0.83859 0.36896
 C1143 C 0.82328 0.82290 0.35069
 C1144 C 0.83079 0.82686 0.32534
 N1145 N 0.88841 0.87591 0.37945
 N1146 N 0.88417 0.87569 0.40285
 C1147 C 0.90457 0.89554 0.41849
 C1148 C 0.89908 0.89652 0.44416
 C1149 C 0.91729 0.91771 0.45932
 C1150 C 0.94110 0.93834 0.44886
 C1151 C 0.94724 0.93648 0.42327
 C1152 C 0.92926 0.91531 0.40826
 H1153 H 0.86468 0.84975 0.29955
 H1154 H 0.89714 0.87666 0.33137
 H1155 H 0.83590 0.83569 0.38835
 H1156 H 0.80266 0.80809 0.35634
 H1157 H 0.88021 0.88141 0.45233
 H1158 H 0.91212 0.91865 0.47903
 H1159 H 0.96562 0.95184 0.41473
 H1160 H 0.93426 0.91500 0.38852
 C1161 C 0.36901 0.35294 -0.18803
 C1162 C 0.38952 0.36859 -0.17117
 C1163 C 0.38807 0.36103 -0.14596
 C1164 C 0.36588 0.33717 -0.13760
 C1165 C 0.34508 0.32140 -0.15455
 C1166 C 0.34631 0.32931 -0.17997
 N1167 N 0.40819 0.37946 -0.12937
 N1168 N 0.40999 0.37382 -0.10618
 C1169 C 0.42902 0.39450 -0.09027
 C1170 C 0.42993 0.38796 -0.06479
 C1171 C 0.44502 0.40993 -0.04851
 C1172 C 0.45921 0.43896 -0.05755
 C1173 C 0.45975 0.44463 -0.08324
 C1174 C 0.44483 0.42257 -0.09950
 H1175 H 0.37081 0.35975 -0.20742
 H1176 H 0.40641 0.38706 -0.17775
 H1177 H 0.36427 0.33115 -0.11806
 H1178 H 0.32796 0.30331 -0.14775
 H1179 H 0.41791 0.36641 -0.05746
 H1180 H 0.44433 0.40489 -0.02876
 H1181 H 0.47076 0.46665 -0.09071
 H1182 H 0.44466 0.42811 -0.11916
 C1183 C 1.21424 0.33835 -0.15040
 C1184 C 1.19747 0.35339 -0.13078
 C1185 C 1.16337 0.35690 -0.13170
 C1186 C 1.14623 0.34580 -0.15272
 C1187 C 1.16305 0.33172 -0.17263
 C1188 C 1.19717 0.32769 -0.17159
 N1189 N 1.14658 0.37261 -0.11159
 N1190 N 1.11672 0.36627 -0.10704
 C1191 C 1.09838 0.38305 -0.08828
 C1192 C 1.06973 0.36864 -0.07935
 C1193 C 1.04962 0.38552 -0.06271
 C1194 C 1.05741 0.41761 -0.05528
 C1195 C 1.08652 0.43189 -0.06390
 C1196 C 1.10708 0.41459 -0.08009
 H1197 H 1.24060 0.33569 -0.14928
 H1198 H 1.21098 0.36202 -0.11475
 H1199 H 1.11992 0.34862 -0.15393
 H1200 H 1.14936 0.32363 -0.18876
 H1201 H 1.06270 0.34443 -0.08565
 H1202 H 1.02722 0.37401 -0.05652
 H1203 H 1.09302 0.45663 -0.05850
 H1204 H 1.12898 0.42631 -0.08699
 C1205 C 0.64698 0.83134 0.31411
 C1206 C 0.62635 0.84691 0.33097
 C1207 C 0.63640 0.85210 0.35542
 C1208 C 0.66734 0.84066 0.36317
 C1209 C 0.68812 0.82472 0.34625
 C1210 C 0.67826 0.82037 0.32142
 N1211 N 0.61459 0.86928 0.37164
 N1212 N 0.62187 0.87694 0.39387
 C1213 C 0.59905 0.89412 0.40938
 C1214 C 0.60744 0.90047 0.43409
 C1215 C 0.58507 0.91574 0.44997
 C1216 C 0.55383 0.92498 0.44132
 C1217 C 0.54579 0.91950 0.41629
 C1218 C 0.56817 0.90414 0.40045
 H1219 H 0.63842 0.82811 0.29521
 H1220 H 0.60250 0.85542 0.32485
 H1221 H 0.67552 0.84430 0.38211
 H1222 H 0.71207 0.81657 0.35239
 H1223 H 0.63116 0.89304 0.44118
 H1224 H 0.59202 0.91974 0.46916
 H1225 H 0.52196 0.92642 0.40911
 H1226 H 0.56114 0.89971 0.38134
 C1227 C 0.79741 0.66169 -0.15593
 C1228 C 0.81077 0.64096 -0.13783
 C1229 C 0.84440 0.63438 -0.13747
 C1230 C 0.86444 0.64775 -0.15608
 C1231 C 0.85089 0.66760 -0.17472
 C1232 C 0.81737 0.67516 -0.17449
 N1233 N 0.85781 0.61451 -0.11795
 N1234 N 0.88693 0.61889 -0.11025
 C1235 C 0.90162 0.59918 -0.09120
 C1236 C 0.92847 0.61178 -0.07828
 C1237 C 0.94466 0.59283 -0.06048
 C1238 C 0.93485 0.56041 -0.05573
 C1239 C 0.90758 0.54779 -0.06850
 C1240 C 0.89079 0.56721 -0.08593
 H1241 H 0.77143 0.66700 -0.15559
 H1242 H 0.79506 0.63072 -0.12366
 H1243 H 0.89046 0.64268 -0.15626
 H1244 H 0.86665 0.67774 -0.18890
 H1245 H 0.93707 0.63633 -0.08222
 H1246 H 0.96577 0.60317 -0.05117
 H1247 H 0.89965 0.52281 -0.06533
 H1248 H 0.87018 0.55694 -0.09588
 C1249 C 0.32994 1.21423 0.35614
 C1250 C 0.34673 1.20001 0.37617
 C1251 C 0.35614 1.16698 0.37531
 C1252 C 0.34941 1.14853 0.35381
 C1253 C 0.33346 1.16295 0.33354
 C1254 C 0.32323 1.19583 0.33461
 N1255 N 0.37244 1.15244 0.39626
 N1256 N 0.37069 1.12168 0.39994
 C1257 C 0.38751 1.10475 0.41951
 C1258 C 0.41409 1.11851 0.43248
 C1259 C 0.43280 1.09904 0.44882
 C1260 C 0.42500 1.06575 0.45231
 C1261 C 0.39702 1.05307 0.44046
 C1262 C 0.37874 1.07230 0.42415
 H1263 H 0.32254 1.23972 0.35736
 H1264 H 0.35187 1.21456 0.39254
 H1265 H 0.35677 1.12304 0.35263
 H1266 H 0.32858 1.14824 0.31719
 H1267 H 0.42133 1.14362 0.42906
 H1268 H 0.45428 1.10944 0.45758
 H1269 H 0.39008 1.02764 0.44285
 H1270 H 0.35828 1.06148 0.41433
 C1271 C 1.18217 0.68703 0.14194
 C1272 C 1.16788 0.66902 0.12262
 C1273 C 1.15415 0.63819 0.12722
 C1274 C 1.15458 0.62562 0.15151
 C1275 C 1.16836 0.64377 0.17088
 C1276 C 1.18235 0.67468 0.16634
 N1277 N 1.13858 0.62079 0.10731
 N1278 N 1.12997 0.59093 0.10948
 C1279 C 1.11225 0.57398 0.09041
 C1280 C 1.10490 0.54073 0.09371
 C1281 C 1.08409 0.52454 0.07709
 C1282 C 1.06999 0.54161 0.05703
 C1283 C 1.07880 0.57451 0.05303
 C1284 C 1.09981 0.59055 0.06953
 H1285 H 1.19277 0.71072 0.13783
 H1286 H 1.16752 0.67909 0.10400
 H1287 H 1.14387 0.60199 0.15560
 H1288 H 1.16833 0.63338 0.18939
 H1289 H 1.11433 0.52767 0.10973
 H1290 H 1.07769 0.49925 0.08068
 H1291 H 1.06844 0.58824 0.03766
 H1292 H 1.10516 0.61624 0.06653
 C1293 C 0.68270 1.17615 0.64238
 C1294 C 0.66772 1.15616 0.62452
 C1295 C 0.64482 1.13247 0.63161
 C1296 C 0.63699 1.12895 0.65684
 C1297 C 0.65182 1.14885 0.67464
 C1298 C 0.67487 1.17273 0.66769
 N1299 N 0.62915 1.11292 0.61294
 N1300 N 0.60823 1.09107 0.61853
 C1301 C 0.59128 1.07221 0.60015
 C1302 C 0.56628 1.05110 0.60773
 C1303 C 0.54686 1.03500 0.59016
 C1304 C 0.55234 1.03970 0.56465
 C1305 C 0.57861 1.05955 0.55711
 C1306 C 0.59783 1.07580 0.57470
 H1307 H 0.70040 1.19417 0.63637
 H1308 H 0.67389 1.15919 0.60511
 H1309 H 0.61930 1.11093 0.66282
 H1310 H 0.64518 1.14539 0.69393
 H1311 H 0.56110 1.04803 0.62731
 H1312 H 0.52694 1.01972 0.59652
 H1313 H 0.58350 1.06363 0.53759
 H1314 H 0.61716 1.09184 0.56839
 C1315 C 0.80758 0.29647 0.15353
 C1316 C 0.82415 0.31123 0.13384
 C1317 C 0.83714 0.34271 0.13639
 C1318 C 0.83375 0.35925 0.15921
 C1319 C 0.81766 0.34419 0.17919
 C1320 C 0.80421 0.31267 0.17648
 N1321 N 0.85436 0.35670 0.11577
 N1322 N 0.86144 0.38704 0.11457
 C1323 C 0.87975 0.40055 0.09429
 C1324 C 0.88316 0.43460 0.09263
 C1325 C 0.90295 0.44851 0.07432
 C1326 C 0.92023 0.42855 0.05748
 C1327 C 0.91574 0.39438 0.05852
 C1328 C 0.89560 0.38048 0.07672
 H1329 H 0.79779 0.27207 0.15085
 H1330 H 0.82676 0.29812 0.11645
 H1331 H 0.84388 0.38354 0.16168
 H1332 H 0.81544 0.35729 0.19661
 H1333 H 0.87099 0.45039 0.10593
 H1334 H 0.90562 0.47489 0.07393
 H1335 H 0.92871 0.37832 0.04586
 H1336 H 0.89333 0.35406 0.07758
 C1337 C 0.31604 0.78159 0.65268
 C1338 C 0.33498 0.79329 0.63308
 C1339 C 0.35494 0.82061 0.63629
 C1340 C 0.35686 0.83552 0.65979
 C1341 C 0.33897 0.82299 0.67989
 C1342 C 0.31766 0.79608 0.67660
 N1343 N 0.37228 0.83323 0.61527
 N1344 N 0.37544 0.86394 0.61200
 C1345 C 0.39232 0.87758 0.59112
 C1346 C 0.38474 0.90963 0.58401
 C1347 C 0.40147 0.92458 0.56456
 C1348 C 0.42709 0.90813 0.55223
 C1349 C 0.43426 0.87552 0.55895
 C1350 C 0.41669 0.86017 0.57811
 H1351 H 0.30049 0.76069 0.64895
 H1352 H 0.33331 0.78159 0.61506
 H1353 H 0.37242 0.85664 0.66260
 H1354 H 0.34126 0.83501 0.69776
 H1355 H 0.36593 0.92322 0.59378
 H1356 H 0.39527 0.94973 0.55999
 H1357 H 0.45398 0.86233 0.54994
 H1358 H 0.42295 0.83529 0.58338
 C1359 C 0.31557 1.17485 -0.16494
 C1360 C 0.32822 1.15276 -0.14762
 C1361 C 0.36104 1.14324 -0.14861
 C1362 C 0.38111 1.15537 -0.16772
 C1363 C 0.36811 1.17679 -0.18567
 C1364 C 0.33533 1.18708 -0.18411
 N1365 N 0.37326 1.12202 -0.12953
 N1366 N 0.40342 1.12055 -0.12373
 C1367 C 0.41456 1.10007 -0.10379
 C1368 C 0.44253 1.10929 -0.09059
 C1369 C 0.45184 1.09219 -0.06922
 C1370 C 0.43401 1.06473 -0.06125
 C1371 C 0.40686 1.05442 -0.07523
 C1372 C 0.39688 1.07229 -0.09616
 H1373 H 0.29008 1.18201 -0.16357
 H1374 H 0.31256 1.14355 -0.13302
 H1375 H 0.40657 1.14811 -0.16884
 H1376 H 0.38368 1.18577 -0.20042
 H1377 H 0.45629 1.13068 -0.09622
 H1378 H 0.47283 1.10069 -0.05877
 H1379 H 0.39273 1.03333 -0.06946
 H1380 H 0.37523 1.06468 -0.10623
 C1381 C 0.81031 0.67779 0.33979
 C1382 C 0.82367 0.65637 0.35731
 C1383 C 0.85596 0.64546 0.35503
 C1384 C 0.87484 0.65581 0.33470
 C1385 C 0.86117 0.67661 0.31671
 C1386 C 0.82884 0.68797 0.31924
 N1387 N 0.86891 0.62424 0.37381
 N1388 N 0.89949 0.62072 0.37739
 C1389 C 0.91166 0.59991 0.39672
 C1390 C 0.94142 0.60770 0.40806
 C1391 C 0.95205 0.59028 0.42890
 C1392 C 0.93364 0.56393 0.43812
 C1393 C 0.90467 0.55489 0.42588
 C1394 C 0.89345 0.57311 0.40552
 H1395 H 0.78517 0.68577 0.34201
 H1396 H 0.80893 0.64853 0.37289
 H1397 H 0.89986 0.64748 0.33257
 H1398 H 0.87585 0.68399 0.30096
 H1399 H 0.95561 0.62830 0.40145
 H1400 H 0.97445 0.59774 0.43806
 H1401 H 0.89007 0.53468 0.43270
 H1402 H 0.87045 0.56659 0.39684
 C1403 C 0.69215 1.15536 0.15842
 C1404 C 0.67727 1.13649 0.13995
 C1405 C 0.64468 1.12670 0.14241
 C1406 C 0.62727 1.13510 0.16400
 C1407 C 0.64249 1.15310 0.18289
 C1408 C 0.67491 1.16375 0.18005
 N1409 N 0.62973 1.10875 0.12260
 N1410 N 0.59897 1.10942 0.11891
 C1411 C 0.58428 1.09160 0.09892
 C1412 C 0.55569 1.10390 0.08798
 C1413 C 0.54226 1.08852 0.06716
 C1414 C 0.55651 1.05980 0.05757
 C1415 C 0.58443 1.04665 0.06922
 C1416 C 0.59854 1.06273 0.08954
 H1417 H 0.71728 1.16308 0.15596
 H1418 H 0.69091 1.13011 0.12341
 H1419 H 0.60209 1.12753 0.16630
 H1420 H 0.62878 1.15930 0.19944
 H1421 H 0.54452 1.12614 0.09505
 H1422 H 0.52087 1.09919 0.05842
 H1423 H 0.59592 1.02457 0.06213
 H1424 H 0.62054 1.05273 0.09791
 C1425 C 1.19261 0.65198 0.65842
 C1426 C 1.17692 0.63334 0.64025
 C1427 C 1.14379 0.62556 0.64267
 C1428 C 1.12656 0.63579 0.66387
 C1429 C 1.14251 0.65365 0.68244
 C1430 C 1.17555 0.66221 0.67968
 N1431 N 1.12819 0.60765 0.62320
 N1432 N 1.09740 0.60874 0.61978
 C1433 C 1.08241 0.59077 0.60006
 C1434 C 1.05341 0.60267 0.58950
 C1435 C 1.04004 0.58738 0.56862
 C1436 C 1.05498 0.55928 0.55859
 C1437 C 1.08317 0.54638 0.56998
 C1438 C 1.09707 0.56229 0.59039
 H1439 H 1.21819 0.65807 0.65602
 H1440 H 1.19039 0.62549 0.62399
 H1441 H 1.10095 0.62978 0.66612
 H1442 H 1.12892 0.66132 0.69871
 H1443 H 1.04191 0.62458 0.59686
 H1444 H 1.01821 0.59762 0.56017
 H1445 H 1.09508 0.52472 0.56257
 H1446 H 1.11936 0.55256 0.59849
 C1447 C 0.69868 0.87130 -0.16995
 C1448 C 0.68072 0.89017 -0.15319
 C1449 C 0.66305 0.87508 -0.13423
 C1450 C 0.66499 0.84079 -0.13129
 C1451 C 0.68362 0.82187 -0.14779
 C1452 C 0.69988 0.83698 -0.16763
 N1453 N 0.64253 0.89501 -0.11885
 N1454 N 0.62042 0.88269 -0.10519
 C1455 C 0.59975 0.90251 -0.08982
 C1456 C 0.57498 0.88725 -0.07632
 C1457 C 0.55542 0.90540 -0.06014
 C1458 C 0.56048 0.93928 -0.05704
 C1459 C 0.58461 0.95488 -0.07132
 C1460 C 0.60413 0.93662 -0.08763
 H1461 H 0.71116 0.88348 -0.18508
 H1462 H 0.67955 0.91654 -0.15554
 H1463 H 0.65170 0.82866 -0.11656
 H1464 H 0.68406 0.79543 -0.14577
 H1465 H 0.57124 0.86105 -0.07800
 H1466 H 0.53695 0.89268 -0.04947
 H1467 H 0.58910 0.98091 -0.06928
 H1468 H 0.62307 0.94899 -0.09802
 C1469 C 1.17465 0.37038 0.31577
 C1470 C 1.15665 0.38971 0.33226
 C1471 C 1.14665 0.37692 0.35507
 C1472 C 1.15558 0.34467 0.36159
 C1473 C 1.17418 0.32550 0.34532
 C1474 C 1.18357 0.33808 0.32215
 N1475 N 1.12750 0.39701 0.37132
 N1476 N 1.11160 0.38455 0.38922
 C1477 C 1.09292 0.40387 0.40625
 C1478 C 1.07258 0.38767 0.42298
 C1479 C 1.05536 0.40528 0.44088
 C1480 C 1.05858 0.43955 0.44262
 C1481 C 1.07843 0.45600 0.42539
 C1482 C 1.09543 0.43826 0.40721
 H1483 H 1.18183 0.38078 0.29810
 H1484 H 1.15004 0.41456 0.32710
 H1485 H 1.14833 0.33437 0.37926
 H1486 H 1.18068 0.30069 0.35065
 H1487 H 1.07044 0.36121 0.42235
 H1488 H 1.04020 0.39186 0.45383
 H1489 H 1.08133 0.48238 0.42629
 H1490 H 1.11112 0.45125 0.39440
 C1491 C 0.32559 0.80253 0.15141
 C1492 C 0.34308 0.81896 0.13303
 C1493 C 0.35471 0.85069 0.13716
 C1494 C 0.34932 0.86572 0.16032
 C1495 C 0.33222 0.84902 0.17900
 C1496 C 0.31982 0.81739 0.17458
 N1497 N 0.37157 0.86687 0.11736
 N1498 N 0.37866 0.89726 0.11766
 C1499 C 0.39528 0.91235 0.09719
 C1500 C 0.39711 0.94661 0.09591
 C1501 C 0.41168 0.96190 0.07544
 C1502 C 0.42502 0.94304 0.05603
 C1503 C 0.42397 0.90865 0.05773
 C1504 C 0.40909 0.89345 0.07801
 H1505 H 0.31668 0.77806 0.14751
 H1506 H 0.34721 0.80708 0.11530
 H1507 H 0.35827 0.89022 0.16396
 H1508 H 0.32814 0.86105 0.19667
 H1509 H 0.38668 0.96150 0.11057
 H1510 H 0.41241 0.98842 0.07476
 H1511 H 0.43412 0.89345 0.04313
 H1512 H 0.40822 0.86692 0.07860
 C1513 C 0.81782 0.30318 0.64624
 C1514 C 0.83584 0.31943 0.62804
 C1515 C 0.84802 0.35090 0.63251
 C1516 C 0.84252 0.36592 0.65560
 C1517 C 0.82490 0.34951 0.67397
 C1518 C 0.81217 0.31808 0.66938
 N1519 N 0.86577 0.36702 0.61325
 N1520 N 0.87339 0.39722 0.61438
 C1521 C 0.89124 0.41261 0.59479
 C1522 C 0.89328 0.44687 0.59403
 C1523 C 0.90911 0.46244 0.57430
 C1524 C 0.92349 0.44378 0.55524
 C1525 C 0.92230 0.40938 0.55652
 C1526 C 0.90616 0.39393 0.57602
 H1527 H 0.80854 0.27887 0.64227
 H1528 H 0.84007 0.30763 0.61031
 H1529 H 0.85188 0.39020 0.65947
 H1530 H 0.82086 0.36161 0.69162
 H1531 H 0.88199 0.46150 0.60848
 H1532 H 0.90997 0.48897 0.57388
 H1533 H 0.93324 0.39435 0.54215
 H1534 H 0.90518 0.36740 0.57632
 C1535 C 1.20785 1.19451 0.64458
 C1536 C 1.19272 1.17722 0.62538
 C1537 C 1.16220 1.16272 0.62910
 C1538 C 1.14706 1.16521 0.65247
 C1539 C 1.16248 1.18196 0.67187
 C1540 C 1.19292 1.19694 0.66803
 N1541 N 1.14753 1.14473 0.60920
 N1542 N 1.11745 1.13689 0.60962
 C1543 C 1.10272 1.11731 0.59065
 C1544 C 1.06889 1.11272 0.59120
 C1545 C 1.05399 1.09107 0.57468
 C1546 C 1.07285 1.07322 0.55748
 C1547 C 1.10670 1.07893 0.55620
 C1548 C 1.12156 1.10092 0.57265
 H1549 H 1.23150 1.20557 0.64120
 H1550 H 1.20470 1.17523 0.60752
 H1551 H 1.12358 1.15386 0.65582
 H1552 H 1.15048 1.18352 0.68975
 H1553 H 1.05416 1.12527 0.60497
 H1554 H 1.02784 1.08736 0.57606
 H1555 H 1.12180 1.06558 0.54311
 H1556 H 1.14783 1.10412 0.57191
 C1557 C 0.72681 0.68102 0.14344
 C1558 C 0.71637 0.66259 0.12304
 C1559 C 0.68363 0.65314 0.12107
 C1560 C 0.66163 0.66114 0.14023
 C1561 C 0.67228 0.67864 0.16101
 C1562 C 0.70481 0.68915 0.16254
 N1563 N 0.67284 0.63530 0.09972
 N1564 N 0.64376 0.63916 0.09181
 C1565 C 0.62983 0.62030 0.07213
 C1566 C 0.59899 0.62957 0.06339
 C1567 C 0.58107 0.60847 0.04836
 C1568 C 0.59369 0.57751 0.04194
 C1569 C 0.62591 0.56936 0.04874
 C1570 C 0.64398 0.59071 0.06389
 H1571 H 0.75214 0.68868 0.14446
 H1572 H 0.73357 0.65635 0.10850
 H1573 H 0.63629 0.65359 0.13916
 H1574 H 0.65502 0.68463 0.17558
 H1575 H 0.58795 0.65233 0.06959
 H1576 H 0.55634 0.61539 0.04319
 H1577 H 0.63599 0.54550 0.04416
 H1578 H 0.66785 0.58310 0.07053
 C1579 C 1.13946 0.81983 0.32008
 C1580 C 1.12117 0.83532 0.33853
 C1581 C 1.13335 0.83780 0.36273
 C1582 C 1.16388 0.82373 0.36856
 C1583 C 1.18209 0.80772 0.35014
 C1584 C 1.17023 0.80605 0.32562
 N1585 N 1.11474 0.85598 0.38053
 N1586 N 1.12576 0.86350 0.40191
 C1587 C 1.10690 0.88316 0.41870
 C1588 C 1.12239 0.89727 0.43928
 C1589 C 1.10577 0.92006 0.45407
 C1590 C 1.07318 0.92870 0.44862
 C1591 C 1.05706 0.91295 0.42888
 C1592 C 1.07383 0.89053 0.41394
 H1593 H 1.12949 0.81865 0.30144
 H1594 H 1.09768 0.84609 0.33385
 H1595 H 1.17375 0.82536 0.38720
 H1596 H 1.20571 0.79733 0.35494
 H1597 H 1.14782 0.89171 0.44319
 H1598 H 1.11869 0.93164 0.46930
 H1599 H 1.03193 0.91903 0.42429
 H1600 H 1.06123 0.87971 0.39826
 C1601 C 0.63947 0.34929 -0.19289
 C1602 C 0.62028 0.36738 -0.17648
 C1603 C 0.61995 0.35962 -0.15126
 C1604 C 0.63918 0.33338 -0.14244
 C1605 C 0.65865 0.31526 -0.15887
 C1606 C 0.65900 0.32307 -0.18431
 N1607 N 0.60104 0.37981 -0.13497
 N1608 N 0.59806 0.37353 -0.11197
 C1609 C 0.58071 0.39509 -0.09566
 C1610 C 0.58034 0.38793 -0.07031
 C1611 C 0.56761 0.41056 -0.05344
 C1612 C 0.55504 0.44083 -0.06175
 C1613 C 0.55351 0.44711 -0.08736
 C1614 C 0.56636 0.42444 -0.10424
 H1615 H 0.63915 0.35612 -0.21233
 H1616 H 0.60574 0.38769 -0.18341
 H1617 H 0.63944 0.32713 -0.12289
 H1618 H 0.67330 0.29517 -0.15170
 H1619 H 0.59118 0.36536 -0.06352
 H1620 H 0.56879 0.40485 -0.03381
 H1621 H 0.54372 0.47010 -0.09428
 H1622 H 0.56616 0.43039 -0.12383
 C1623 C 0.80409 1.17397 0.35630
 C1624 C 0.82169 1.15974 0.37579
 C1625 C 0.85424 1.15011 0.37245
 C1626 C 0.86897 1.15432 0.34907
 C1627 C 0.85116 1.16809 0.32935
 C1628 C 0.81860 1.17832 0.33286
 N1629 N 0.87129 1.13523 0.39284
 N1630 N 0.90211 1.13070 0.39278
 C1631 C 0.91866 1.11428 0.41276
 C1632 C 0.95277 1.11153 0.41208
 C1633 C 0.96938 1.09255 0.42972
 C1634 C 0.95201 1.07567 0.44826
 C1635 C 0.91790 1.07989 0.44971
 C1636 C 0.90135 1.09908 0.43213
 H1637 H 0.77895 1.18133 0.35953
 H1638 H 0.80999 1.15635 0.39363
 H1639 H 0.89405 1.14672 0.34600
 H1640 H 0.86296 1.17123 0.31152
 H1641 H 0.96641 1.12319 0.39732
 H1642 H 0.99566 1.08980 0.42806
 H1643 H 0.90385 1.06721 0.46375
 H1644 H 0.87495 1.10092 0.43312
 C1645 C 0.28599 0.66262 -0.14338
 C1646 C 0.29874 0.64549 -0.12303
 C1647 C 0.33221 0.63839 -0.12174
 C1648 C 0.35271 0.64766 -0.14147
 C1649 C 0.33979 0.66388 -0.16221
 C1650 C 0.30640 0.67188 -0.16314
 N1651 N 0.34501 0.62155 -0.10046
 N1652 N 0.37449 0.62587 -0.09364
 C1653 C 0.38940 0.60834 -0.07354
 C1654 C 0.41950 0.61940 -0.06464
 C1655 C 0.43736 0.60067 -0.04770
 C1656 C 0.42567 0.57005 -0.03965
 C1657 C 0.39443 0.55983 -0.04738
 C1658 C 0.37629 0.57895 -0.06421
 H1659 H 0.26007 0.66828 -0.14387
 H1660 H 0.28267 0.63829 -0.10804
 H1661 H 0.37862 0.64201 -0.14095
 H1662 H 0.35591 0.67075 -0.17727
 H1663 H 0.42977 0.64203 -0.07164
 H1664 H 0.46127 0.60934 -0.04203
 H1665 H 0.38488 0.53632 -0.04156
 H1666 H 0.35301 0.56995 -0.07094
 C1667 C 0.87118 0.83596 0.68412
 C1668 C 0.89198 0.84825 0.66588
 C1669 C 0.88231 0.84847 0.64097
 C1670 C 0.85152 0.83593 0.63433
 C1671 C 0.83073 0.82335 0.65255
 C1672 C 0.84029 0.82337 0.67769
 N1673 N 0.90364 0.86289 0.62306
 N1674 N 0.89533 0.86699 0.60049
 C1675 C 0.91640 0.88326 0.58332
 C1676 C 0.90308 0.89550 0.56122
 C1677 C 0.92133 0.91653 0.54624
 C1678 C 0.95342 0.92510 0.55301
 C1679 C 0.96770 0.91054 0.57407
 C1680 C 0.94923 0.88997 0.58926
 H1681 H 0.87946 0.83611 0.70325
 H1682 H 0.91561 0.85800 0.67118
 H1683 H 0.84350 0.83596 0.61515
 H1684 H 0.80717 0.81372 0.64695
 H1685 H 0.87786 0.89037 0.55641
 H1686 H 0.90986 0.92729 0.52999
 H1687 H 0.99240 0.91670 0.57969
 H1688 H 0.96014 0.88046 0.60614
 C1689 C 0.33372 0.31168 0.15095
 C1690 C 0.35308 0.32603 0.13257
 C1691 C 0.37615 0.34991 0.13883
 C1692 C 0.37994 0.35917 0.16381
 C1693 C 0.36067 0.34486 0.18219
 C1694 C 0.33719 0.32107 0.17598
 N1695 N 0.39437 0.36543 0.11948
 N1696 N 0.41489 0.38802 0.12412
 C1697 C 0.43202 0.40503 0.10495
 C1698 C 0.45068 0.43241 0.11140
 C1699 C 0.46445 0.45206 0.09299
 C1700 C 0.46001 0.44433 0.06777
 C1701 C 0.44280 0.41576 0.06134
 C1702 C 0.42872 0.39632 0.07980
 H1703 H 0.31601 0.29331 0.14551
 H1704 H 0.34986 0.31878 0.11337
 H1705 H 0.39756 0.37767 0.16912
 H1706 H 0.36408 0.35264 0.20126
 H1707 H 0.45344 0.43928 0.13072
 H1708 H 0.47773 0.47385 0.09847
 H1709 H 0.43904 0.40923 0.04204
 H1710 H 0.41451 0.37511 0.07440
   
