data_POSCAR
  _audit_creation_date              2014-09-24
  _audit_creation_method            'ToBaCCo'
  _symmetry_space_group_name_H-M    'P1'
  _symmetry_Int_Tables_number       1
  _symmetry_cell_setting            triclinic
  loop_
  _symmetry_equiv_pos_as_xyz
 x,y,z
_cell_length_a 51.4171
_cell_length_b 51.5147
_cell_length_c 51.6039
_cell_angle_alpha 89.988200
_cell_angle_beta 90.005200
_cell_angle_gamma 89.948100
loop_
  _atom_site_label
  _atom_site_type_symbol
  _atom_site_fract_x
  _atom_site_fract_y
  _atom_site_fract_z
C1 C 0.35224 1.33146 0.31477
 C2 C 0.34514 1.30898 0.32831
 C3 C 0.32453 1.30965 0.34546
 C4 C 0.31034 1.33268 0.34866
 C5 C 0.31811 1.35516 0.33612
 C6 C 0.33959 1.35453 0.31925
 C7 C 0.37039 1.33586 0.29588
 N8 N 0.37064 1.36161 0.28930
 C9 C 0.35130 1.37291 0.30377
 C10 C 0.30059 1.37433 0.34272
 N11 N 0.28178 1.36365 0.35790
 C12 C 0.28801 1.33835 0.36214
 C13 C 0.32457 1.28646 0.35875
 N14 N 0.34485 1.27187 0.35017
 C15 C 0.35733 1.28538 0.33132
 H16 H 0.38036 1.32019 0.28630
 H17 H 0.34510 1.39291 0.30296
 H18 H 0.30063 1.39416 0.33574
 H19 H 0.27687 1.32497 0.37393
 H20 H 0.31237 1.28157 0.37514
 H21 H 0.37557 1.27963 0.32254
 C22 C 0.36095 0.84522 0.82848
 C23 C 0.35702 0.82432 0.84532
 C24 C 0.34011 0.82681 0.86593
 C25 C 0.32641 0.85002 0.86944
 C26 C 0.33065 0.87094 0.85314
 C27 C 0.34876 0.86865 0.83274
 C28 C 0.37600 0.84775 0.80682
 N29 N 0.37529 0.87282 0.79833
 C30 C 0.35804 0.88555 0.81411
 C31 C 0.31324 0.89007 0.86039
 N32 N 0.29858 0.88114 0.88058
 C33 C 0.30686 0.85667 0.88617
 C34 C 0.34256 0.80482 0.88092
 N35 N 0.36100 0.78946 0.87007
 C36 C 0.36967 0.80094 0.84806
 H37 H 0.38516 0.83150 0.79735
 H38 H 0.35239 0.90568 0.81254
 H39 H 0.30996 0.90813 0.85015
 H40 H 0.29857 0.84412 0.90084
 H41 H 0.33336 0.80129 0.89946
 H42 H 0.38561 0.79387 0.83630
 C43 C 0.85725 1.33842 0.81970
 C44 C 0.85125 1.31626 0.83421
 C45 C 0.83020 1.31643 0.85083
 C46 C 0.81461 1.33870 0.85264
 C47 C 0.82134 1.36103 0.83920
 C48 C 0.84317 1.36087 0.82274
 C49 C 0.87539 1.34278 0.80084
 N50 N 0.87423 1.36807 0.79276
 C51 C 0.85405 1.37903 0.80636
 C52 C 0.80268 1.37947 0.84477
 N53 N 0.78429 1.36843 0.86019
 C54 C 0.79180 1.34370 0.86556
 C55 C 0.83134 1.29389 0.86519
 N56 N 0.85292 1.28051 0.85794
 C57 C 0.86491 1.29374 0.83865
 H58 H 0.88632 1.32715 0.79233
 H59 H 0.84660 1.39850 0.80414
 H60 H 0.80178 1.39900 0.83704
 H61 H 0.78125 1.33025 0.87781
 H62 H 0.81906 1.28892 0.88150
 H63 H 0.88365 1.28871 0.83050
 C64 C 0.86382 0.84695 0.32986
 C65 C 0.86067 0.82664 0.34757
 C66 C 0.84368 0.82931 0.36812
 C67 C 0.82907 0.85214 0.37069
 C68 C 0.83240 0.87237 0.35327
 C69 C 0.85062 0.86993 0.33303
 C70 C 0.87857 0.84911 0.30794
 N71 N 0.87674 0.87371 0.29816
 C72 C 0.85890 0.88627 0.31352
 C73 C 0.81403 0.89098 0.35928
 N74 N 0.79991 0.88250 0.37991
 C75 C 0.80914 0.85888 0.38707
 C76 C 0.84650 0.80763 0.38354
 N77 N 0.86521 0.79236 0.37297
 C78 C 0.87370 0.80356 0.35077
 H79 H 0.88791 0.83258 0.29919
 H80 H 0.85193 0.90589 0.31113
 H81 H 0.81007 0.90854 0.34844
 H82 H 0.80078 0.84677 0.40207
 H83 H 0.83701 0.80405 0.40193
 H84 H 0.88945 0.79628 0.33888
 C85 C 0.63522 0.65515 0.32736
 C86 C 0.63402 0.67322 0.34765
 C87 C 0.65166 0.67179 0.36789
 C88 C 0.67051 0.65211 0.36821
 C89 C 0.67176 0.63439 0.34808
 C90 C 0.65425 0.63617 0.32736
 C91 C 0.62135 0.65251 0.30472
 N92 N 0.63212 0.63301 0.29054
 C93 C 0.65204 0.62266 0.30449
 C94 C 0.69243 0.61815 0.35296
 N95 N 0.70350 0.62548 0.37567
 C96 C 0.69054 0.64644 0.38497
 C97 C 0.64740 0.69295 0.38359
 N98 N 0.62786 0.70723 0.37315
 C99 C 0.61932 0.69525 0.35137
 H100 H 0.60523 0.66456 0.29853
 H101 H 0.66382 0.60626 0.29859
 H102 H 0.69920 0.60241 0.34081
 H103 H 0.69549 0.65683 0.40253
 H104 H 0.65841 0.69825 0.40068
 H105 H 0.60440 0.70273 0.33856
 C106 C 0.62679 0.14664 0.83509
 C107 C 0.62645 0.16531 0.85492
 C108 C 0.64609 0.16559 0.87327
 C109 C 0.66668 0.14785 0.87160
 C110 C 0.66764 0.13027 0.85142
 C111 C 0.64740 0.12945 0.83322
 C112 C 0.61046 0.14172 0.81449
 N113 N 0.62045 0.12171 0.80038
 C114 C 0.64348 0.11469 0.81137
 C115 C 0.69101 0.11732 0.85326
 N116 N 0.70435 0.12680 0.87400
 C117 C 0.68926 0.14509 0.88562
 C118 C 0.64242 0.18714 0.88852
 N119 N 0.62166 0.20053 0.87927
 C120 C 0.61133 0.18704 0.85913
 H121 H 0.59300 0.15247 0.80970
 H122 H 0.65620 0.09948 0.80432
 H123 H 0.69774 0.10201 0.84053
 H124 H 0.69486 0.15649 0.90235
 H125 H 0.65510 0.19372 0.90393
 H126 H 0.59525 0.19359 0.84727
 C127 C 1.13182 0.65069 0.83217
 C128 C 1.13245 0.67060 0.85069
 C129 C 1.15141 0.67057 0.86974
 C130 C 1.16988 0.65052 0.87061
 C131 C 1.16902 0.63069 0.85259
 C132 C 1.15003 0.63089 0.83309
 C133 C 1.11597 0.64603 0.81119
 N134 N 1.12412 0.62386 0.79951
 C135 C 1.14502 0.61455 0.81259
 C136 C 1.18889 0.61375 0.85841
 N137 N 1.20173 0.62264 0.87971
 C138 C 1.19049 0.64549 0.88687
 C139 C 1.14715 0.69198 0.88515
 N140 N 1.12592 0.70471 0.87605
 C141 C 1.11697 0.69202 0.85480
 H142 H 1.09999 0.65802 0.80459
 H143 H 1.15588 0.59731 0.80737
 H144 H 1.19413 0.59664 0.84737
 H145 H 1.19646 0.65732 0.90317
 H146 H 1.15839 0.69773 0.90193
 H147 H 1.10030 0.69789 0.84338
 C148 C 1.12828 0.14813 0.33429
 C149 C 1.12859 0.16773 0.35321
 C150 C 1.14772 0.16772 0.37211
 C151 C 1.16696 0.14845 0.37212
 C152 C 1.16644 0.12895 0.35374
 C153 C 1.14711 0.12892 0.33458
 C154 C 1.11427 0.14516 0.31172
 N155 N 1.12477 0.12525 0.29785
 C156 C 1.14442 0.11482 0.31214
 C157 C 1.18890 0.11469 0.35663
 N158 N 1.20352 0.12572 0.37562
 C159 C 1.18998 0.14612 0.38551
 C160 C 1.14506 0.19023 0.38612
 N161 N 1.12528 0.20429 0.37578
 C162 C 1.11484 0.19055 0.35587
 H163 H 1.09894 0.15788 0.30493
 H164 H 1.15638 0.09850 0.30636
 H165 H 1.19505 0.09866 0.34450
 H166 H 1.19664 0.15870 0.40096
 H167 H 1.15734 0.19653 0.40197
 H168 H 1.09921 0.19728 0.34351
 C169 C 0.64459 1.33821 0.68309
 C170 C 0.64309 1.32014 0.66287
 C171 C 0.66180 1.32004 0.64358
 C172 C 0.68210 1.33814 0.64420
 C173 C 0.68359 1.35597 0.66423
 C174 C 0.66485 1.35580 0.68397
 C175 C 0.62936 1.34248 0.70453
 N176 N 0.64026 1.36173 0.71892
 C177 C 0.66183 1.37024 0.70620
 C178 C 0.70526 1.37100 0.65992
 N179 N 0.71696 1.36249 0.63796
 C180 C 0.70296 1.34250 0.62811
 C181 C 0.65621 1.29970 0.62725
 N182 N 0.63479 1.28738 0.63643
 C183 C 0.62641 1.29986 0.65799
 H184 H 0.61193 1.33185 0.70965
 H185 H 0.67400 1.38628 0.71224
 H186 H 0.71210 1.38691 0.67182
 H187 H 0.70761 1.33209 0.61048
 H188 H 0.66723 1.29378 0.61037
 H189 H 0.60990 1.29406 0.66965
 C190 C 0.62646 0.85545 1.16713
 C191 C 0.62616 0.83557 1.14849
 C192 C 0.64584 0.83406 1.13023
 C193 C 0.66603 0.85232 1.13032
 C194 C 0.66646 0.87173 1.14884
 C195 C 0.64665 0.87317 1.16746
 C196 C 0.60995 0.86187 1.18716
 N197 N 0.61957 0.88314 1.19959
 C198 C 0.64234 0.88976 1.18788
 C199 C 0.68803 0.88680 1.14409
 N200 N 0.70043 0.87714 1.12296
 C201 C 0.68738 0.85585 1.11461
 C202 C 0.64089 0.81278 1.11494
 N203 N 0.61863 0.80143 1.12333
 C204 C 0.60956 0.81506 1.14398
 H205 H 0.59271 0.85124 1.19284
 H206 H 0.65465 0.90586 1.19348
 H207 H 0.69418 0.90368 1.15498
 H208 H 0.69287 0.84408 1.09811
 H209 H 0.65275 0.80579 1.09906
 H210 H 0.59244 0.81009 1.15514
 C211 C 1.14422 1.34053 1.18030
 C212 C 1.14471 1.31997 1.16252
 C213 C 1.16199 1.32046 1.14196
 C214 C 1.17874 1.34168 1.13875
 C215 C 1.17793 1.36217 1.15601
 C216 C 1.16080 1.36146 1.17712
 C217 C 1.12989 1.34498 1.20237
 N218 N 1.13771 1.36786 1.21275
 C219 C 1.15638 1.37827 1.19737
 C220 C 1.19604 1.38008 1.14797
 N221 N 1.20779 1.37104 1.12612
 C222 C 1.19760 1.34727 1.12071
 C223 C 1.15786 1.29834 1.12761
 N224 N 1.13860 1.28448 1.13908
 C225 C 1.13029 1.29759 1.16032
 H226 H 1.11513 1.33242 1.21053
 H227 H 1.16607 1.39659 1.20084
 H228 H 1.20104 1.39788 1.15795
 H229 H 1.20320 1.33507 1.10456
 H230 H 1.16759 1.29299 1.10979
 H231 H 1.11460 1.29147 1.17290
 C232 C 1.12985 0.85215 0.66868
 C233 C 1.12817 0.83422 0.64832
 C234 C 1.14706 0.83385 0.62921
 C235 C 1.16783 0.85141 0.63018
 C236 C 1.16942 0.86924 0.65020
 C237 C 1.15031 0.86959 0.66960
 C238 C 1.11515 0.85588 0.69065
 N239 N 1.12638 0.87492 0.70492
 C240 C 1.14771 0.88366 0.69212
 C241 C 1.19220 0.88288 0.64691
 N242 N 1.20444 0.87353 0.62558
 C243 C 1.18967 0.85444 0.61507
 C244 C 1.14148 0.81344 0.61296
 N245 N 1.11954 0.80166 0.62160
 C246 C 1.11138 0.81402 0.64335
 H247 H 1.09796 0.84513 0.69624
 H248 H 1.16064 0.89873 0.69904
 H249 H 1.19971 0.89799 0.65941
 H250 H 1.19478 0.84328 0.59804
 H251 H 1.15288 0.80712 0.59649
 H252 H 1.09498 0.80815 0.65513
 C253 C 0.36838 0.65377 0.67166
 C254 C 0.36912 0.67247 0.65194
 C255 C 0.35094 0.67184 0.63216
 C256 C 0.33179 0.65248 0.63185
 C257 C 0.33079 0.63430 0.65153
 C258 C 0.34931 0.63483 0.67150
 C259 C 0.38400 0.64925 0.69283
 N260 N 0.37505 0.62782 0.70525
 C261 C 0.35365 0.61905 0.69261
 C262 C 0.31007 0.61823 0.64643
 N263 N 0.29888 0.62567 0.62369
 C264 C 0.31189 0.64693 0.61490
 C265 C 0.35629 0.69230 0.61586
 N266 N 0.37737 0.70506 0.62519
 C267 C 0.38525 0.69325 0.64735
 H268 H 0.40080 0.66047 0.69868
 H269 H 0.34239 0.60219 0.69817
 H270 H 0.30395 0.60190 0.65815
 H271 H 0.30673 0.65812 0.59789
 H272 H 0.34562 0.69763 0.59857
 H273 H 0.40135 0.69955 0.65931
 C274 C 0.35776 0.16282 1.17774
 C275 C 0.36038 0.17965 1.15660
 C276 C 0.34123 0.18064 1.13782
 C277 C 0.31906 0.16500 1.14009
 C278 C 0.31601 0.14898 1.16141
 C279 C 0.33576 0.14750 1.18016
 C280 C 0.37420 0.15657 1.19777
 N281 N 0.36305 0.13736 1.21188
 C282 C 0.33934 0.13198 1.20163
 C283 C 0.29253 0.13643 1.15856
 N284 N 0.28152 0.14423 1.13587
 C285 C 0.29790 0.16131 1.12424
 C286 C 0.34856 0.19913 1.12004
 N287 N 0.37174 0.20922 1.12756
 C288 C 0.37913 0.19748 1.14992
 H289 H 0.39334 0.16459 1.20127
 H290 H 0.32623 0.11714 1.20866
 H291 H 0.28453 0.12190 1.17147
 H292 H 0.29451 0.17054 1.10568
 H293 H 0.33748 0.20548 1.10336
 H294 H 0.39633 0.20235 1.16099
 C295 C 0.87162 0.64903 1.16853
 C296 C 0.87164 0.66867 1.14973
 C297 C 0.85245 0.66926 1.13091
 C298 C 0.83307 0.65011 1.13057
 C299 C 0.83309 0.63067 1.14912
 C300 C 0.85250 0.63012 1.16823
 C301 C 0.88734 0.64419 1.18956
 N302 N 0.87839 0.62268 1.20179
 C303 C 0.85699 0.61400 1.18907
 C304 C 0.81186 0.61511 1.14434
 N305 N 0.79925 0.62448 1.12321
 C306 C 0.81187 0.64603 1.11481
 C307 C 0.85699 0.69072 1.11566
 N308 N 0.87858 0.70286 1.12464
 C309 C 0.88760 0.68970 1.14557
 H310 H 0.90387 0.65562 1.19577
 H311 H 0.84533 0.59751 1.19489
 H312 H 0.80593 0.59827 1.15540
 H313 H 0.80587 0.65792 1.09856
 H314 H 0.84545 0.69716 1.09932
 H315 H 0.90436 0.69523 1.15700
 C316 C 0.85882 0.16167 0.67877
 C317 C 0.86094 0.17974 0.65853
 C318 C 0.84456 0.17804 0.63728
 C319 C 0.82598 0.15817 0.63593
 C320 C 0.82419 0.14015 0.65575
 C321 C 0.84080 0.14185 0.67721
 C322 C 0.87171 0.15887 0.70200
 N323 N 0.86184 0.13787 0.71467
 C324 C 0.84329 0.12707 0.69927
 C325 C 0.80400 0.12370 0.64980
 N326 N 0.79367 0.13118 0.62679
 C327 C 0.80682 0.15234 0.61820
 C328 C 0.85088 0.19806 0.62079
 N329 N 0.87089 0.21153 0.63137
 C330 C 0.87703 0.20071 0.65456
 H331 H 0.88765 0.17079 0.70879
 H332 H 0.83193 0.11004 0.70407
 H333 H 0.79690 0.10782 0.66158
 H334 H 0.80227 0.16307 0.60074
 H335 H 0.84187 0.20238 0.60232
 H336 H 0.89218 0.20757 0.66742
 C337 C 1.34925 0.36808 0.67129
 C338 C 1.33025 0.36842 0.65181
 C339 C 1.32846 0.34795 0.63454
 C340 C 1.34556 0.32687 0.63656
 C341 C 1.36475 0.32684 0.65533
 C342 C 1.36651 0.34749 0.67294
 C343 C 1.35413 0.38423 0.69197
 N344 N 1.37370 0.37372 0.70615
 C345 C 1.38162 0.35144 0.69460
 C346 C 1.37836 0.30399 0.65279
 N347 N 1.36731 0.28971 0.63355
 C348 C 1.34742 0.30379 0.62329
 C349 C 1.30789 0.35304 0.61829
 N350 N 1.29741 0.37623 0.62509
 C351 C 1.31063 0.38560 0.64585
 H352 H 1.34356 0.40170 0.69701
 H353 H 1.39642 0.33851 0.70213
 H354 H 1.39462 0.29781 0.66465
 H355 H 1.33554 0.29792 0.60698
 H356 H 1.30090 0.34076 0.60276
 H357 H 1.30608 0.40345 0.65597
 C358 C 1.33584 0.85593 1.18391
 C359 C 1.31727 0.85665 1.16406
 C360 C 1.31743 0.83783 1.14490
 C361 C 1.33619 0.81808 1.14538
 C362 C 1.35519 0.81804 1.16434
 C363 C 1.35503 0.83710 1.18371
 C364 C 1.33964 0.87093 1.20562
 N365 N 1.36066 0.86160 1.21865
 C366 C 1.37056 0.84131 1.20498
 C367 C 1.37068 0.79667 1.16015
 N368 N 1.36090 0.78313 1.13974
 C369 C 1.34012 0.79646 1.13025
 C370 C 1.29770 0.84370 1.12787
 N371 N 1.28601 0.86585 1.13603
 C372 C 1.29747 0.87369 1.15838
 H373 H 1.32827 0.88771 1.21127
 H374 H 1.38733 0.82988 1.21060
 H375 H 1.38710 0.79070 1.17188
 H376 H 1.32875 0.79087 1.11348
 H377 H 1.29267 0.83317 1.11043
 H378 H 1.29218 0.89089 1.16923
 C379 C 0.83856 0.35717 1.18314
 C380 C 0.81685 0.35472 1.16687
 C381 C 0.81555 0.33447 1.14928
 C382 C 0.83606 0.31659 1.14756
 C383 C 0.85743 0.31903 1.16361
 C384 C 0.85847 0.33917 1.18183
 C385 C 0.84563 0.37548 1.20125
 N386 N 0.86934 0.36896 1.21103
 C387 C 0.87705 0.34647 1.19954
 C388 C 0.87525 0.30058 1.15613
 N389 N 0.86542 0.28720 1.13561
 C390 C 0.84108 0.29645 1.13079
 C391 C 0.79335 0.33798 1.13480
 N392 N 0.78111 0.35970 1.14336
 C393 C 0.79543 0.37021 1.16279
 H394 H 0.83402 0.39192 1.20737
 H395 H 0.89525 0.33655 1.20326
 H396 H 0.89406 0.29721 1.16498
 H397 H 0.82854 0.29000 1.11521
 H398 H 0.78711 0.32632 1.11850
 H399 H 0.79101 0.38830 1.17254
 C400 C 0.83529 0.85558 0.68334
 C401 C 0.81721 0.85668 0.66311
 C402 C 0.81721 0.83774 0.64409
 C403 C 0.83530 0.81742 0.64514
 C404 C 0.85310 0.81622 0.66528
 C405 C 0.85310 0.83546 0.68450
 C406 C 0.83965 0.87135 0.70436
 N407 N 0.85942 0.86107 0.71843
 C408 C 0.86801 0.83930 0.70632
 C409 C 0.86806 0.79439 0.66146
 N410 N 0.85968 0.78249 0.63957
 C411 C 0.83978 0.79637 0.62935
 C412 C 0.79706 0.84329 0.62742
 N413 N 0.78481 0.86489 0.63618
 C414 C 0.79708 0.87342 0.65780
 H415 H 0.82934 0.88907 0.70906
 H416 H 0.88390 0.82721 0.71297
 H417 H 0.88396 0.78770 0.67350
 H418 H 0.82947 0.79151 0.61172
 H419 H 0.79124 0.83214 0.61062
 H420 H 0.79133 0.89018 0.66909
 C421 C 0.66514 0.65142 0.68300
 C422 C 0.68685 0.65498 0.66708
 C423 C 0.68485 0.66987 0.64493
 C424 C 0.66121 0.68203 0.63891
 C425 C 0.63956 0.67810 0.65444
 C426 C 0.64143 0.66187 0.67631
 C427 C 0.66183 0.63789 0.70555
 N428 N 0.63613 0.63761 0.71209
 C429 C 0.62369 0.65296 0.69430
 C430 C 0.62016 0.69410 0.64513
 N431 N 0.62963 0.70753 0.62449
 C432 C 0.65460 0.70002 0.62042
 C433 C 0.70775 0.66698 0.63140
 N434 N 0.72339 0.65041 0.64473
 C435 C 0.71081 0.64313 0.66666
 H436 H 0.67780 0.63032 0.71680
 H437 H 0.60313 0.65723 0.69385
 H438 H 0.60130 0.69728 0.65390
 H439 H 0.66757 0.70854 0.60625
 H440 H 0.71179 0.67439 0.61218
 H441 H 0.71768 0.62853 0.68013
 C442 C 0.66934 1.15272 1.18893
 C443 C 0.68537 1.14917 1.16729
 C444 C 0.68638 1.16795 1.14822
 C445 C 0.67147 1.19057 1.15062
 C446 C 0.65587 1.19431 1.17214
 C447 C 0.65473 1.17512 1.19148
 C448 C 0.66355 1.13697 1.20956
 N449 N 0.64599 1.14923 1.22505
 C450 C 0.64030 1.17257 1.21388
 C451 C 0.64307 1.21759 1.16863
 N452 N 0.65056 1.22801 1.14551
 C453 C 0.66772 1.21129 1.13435
 C454 C 0.70354 1.15946 1.12961
 N455 N 0.71283 1.13593 1.13697
 C456 C 0.70197 1.12951 1.16005
 H457 H 0.67156 1.11782 1.21300
 H458 H 0.62562 1.18604 1.22063
 H459 H 0.62820 1.22549 1.18124
 H460 H 0.67679 1.21393 1.11559
 H461 H 0.70941 1.16985 1.11233
 H462 H 0.70626 1.11205 1.17093
 C463 C 0.16263 0.64919 1.18372
 C464 C 0.18181 0.64770 1.16448
 C465 C 0.18007 0.66324 1.14265
 C466 C 0.15900 0.68031 1.13972
 C467 C 0.13962 0.68109 1.15826
 C468 C 0.14148 0.66546 1.18045
 C469 C 0.15946 0.63659 1.20699
 N470 N 0.13691 0.64488 1.21807
 C471 C 0.12552 0.66210 1.20158
 C472 C 0.12156 0.69911 1.15023
 N473 N 0.12948 0.70937 1.12722
 C474 C 0.15262 0.69815 1.12093
 C475 C 0.20052 0.65674 1.12669
 N476 N 0.21425 0.63746 1.13822
 C477 C 0.20321 0.63192 1.16143
 H478 H 0.17218 0.62179 1.21486
 H479 H 0.10717 0.67187 1.20495
 H480 H 0.10460 0.70526 1.16106
 H481 H 0.16396 0.70254 1.10379
 H482 H 0.20446 0.66454 1.10761
 H483 H 0.20967 0.61682 1.17453
 C484 C 0.16010 1.14443 0.68118
 C485 C 0.17724 1.14165 0.66023
 C486 C 0.17659 1.15932 0.64001
 C487 C 0.15891 1.18003 0.64054
 C488 C 0.14200 1.18273 0.66118
 C489 C 0.14226 1.16454 0.68139
 C490 C 0.15671 1.13058 0.70372
 N491 N 0.13711 1.14170 0.71754
 C492 C 0.12787 1.16221 0.70372
 C493 C 0.12842 1.20545 0.65747
 N494 N 0.13691 1.21680 0.63520
 C495 C 0.15503 1.20090 0.62436
 C496 C 0.19592 1.15248 0.62290
 N497 N 0.20794 1.13093 0.63208
 C498 C 0.19688 1.12425 0.65501
 H499 H 0.16715 1.11316 0.70925
 H500 H 0.11214 1.17484 0.70976
 H501 H 0.11343 1.21312 0.67007
 H502 H 0.16564 1.20492 0.60668
 H503 H 0.20112 1.16256 0.60523
 H504 H 0.20304 1.10822 0.66712
 C505 C 1.34293 0.64098 0.32334
 C506 C 1.32501 0.64038 0.34377
 C507 C 1.32658 0.65851 0.36348
 C508 C 1.34624 0.67730 0.36311
 C509 C 1.36416 0.67773 0.34312
 C510 C 1.36213 0.65977 0.32275
 C511 C 1.34591 0.62583 0.30164
 N512 N 1.36580 0.63553 0.28726
 C513 C 1.37611 0.65609 0.30027
 C514 C 1.38150 0.69740 0.34843
 N515 N 1.37453 0.70882 0.37120
 C516 C 1.35256 0.69701 0.37988
 C517 C 1.30672 0.65339 0.38060
 N518 N 1.29330 0.63257 0.37169
 C519 C 1.30412 0.62459 0.34910
 H520 H 1.33396 0.60937 0.29629
 H521 H 1.39291 0.66716 0.29414
 H522 H 1.39766 0.70332 0.33634
 H523 H 1.34240 0.70185 0.39762
 H524 H 1.30224 0.66398 0.39816
 H525 H 1.29723 0.60851 0.33748
 C526 C 1.34630 1.13516 0.82869
 C527 C 1.32712 1.13536 0.84798
 C528 C 1.32824 1.15344 0.86777
 C529 C 1.34867 1.17144 0.86861
 C530 C 1.36791 1.17093 0.84989
 C531 C 1.36656 1.15284 0.82959
 C532 C 1.34956 1.12038 0.80673
 N533 N 1.37105 1.12893 0.79417
 C534 C 1.38178 1.14858 0.80803
 C535 C 1.38526 1.19043 0.85576
 N536 N 1.37706 1.20273 0.87765
 C537 C 1.35436 1.19148 0.88525
 C538 C 1.30721 1.14907 0.88369
 N539 N 1.29365 1.12860 0.87414
 C540 C 1.30542 1.12031 0.85212
 H541 H 1.33695 1.10497 0.80000
 H542 H 1.39907 1.15923 0.80253
 H543 H 1.40204 1.19591 0.84432
 H544 H 1.34299 1.19721 0.90197
 H545 H 1.30219 1.15979 0.90103
 H546 H 1.29880 1.10431 0.84023
 C547 C 0.84833 0.63229 0.83109
 C548 C 0.82880 0.63255 0.85005
 C549 C 0.82945 0.65087 0.86968
 C550 C 0.84952 0.66923 0.87051
 C551 C 0.86866 0.66913 0.85166
 C552 C 0.86818 0.65041 0.83196
 C553 C 0.85150 0.61816 0.80867
 N554 N 0.87263 0.62743 0.79593
 C555 C 0.88319 0.64689 0.81020
 C556 C 0.88367 0.69092 0.85540
 N557 N 0.87391 0.70428 0.87587
 C558 C 0.85340 0.69087 0.88562
 C559 C 0.80700 0.64807 0.88392
 N560 N 0.79274 0.62870 0.87325
 C561 C 0.80597 0.61887 0.85271
 H562 H 0.83890 0.60287 0.80165
 H563 H 0.90011 0.65812 0.80468
 H564 H 0.89964 0.69735 0.84333
 H565 H 0.84141 0.69714 0.90169
 H566 H 0.80100 0.65981 0.90026
 H567 H 0.79906 0.60346 0.84023
 C568 C 0.83598 1.14665 0.31783
 C569 C 0.81808 1.14622 0.33828
 C570 C 0.81834 1.16569 0.35676
 C571 C 0.83648 1.18589 0.35495
 C572 C 0.85425 1.18628 0.33479
 C573 C 0.85399 1.16653 0.31609
 C574 C 0.84027 1.13018 0.29730
 N575 N 0.86023 1.13976 0.28306
 C576 C 0.86896 1.16183 0.29449
 C577 C 0.86967 1.20785 0.33815
 N578 N 0.86143 1.22060 0.35964
 C579 C 0.84133 1.20723 0.37021
 C580 C 0.79892 1.16024 0.37429
 N581 N 0.78716 1.13786 0.36691
 C582 C 0.79851 1.12926 0.34481
 H583 H 0.82973 1.11251 0.29299
 H584 H 0.88508 1.17345 0.28760
 H585 H 0.88574 1.21384 0.32599
 H586 H 0.83123 1.21257 0.38784
 H587 H 0.79363 1.17165 0.39110
 H588 H 0.79292 1.11192 0.33436
 C589 C 0.68256 0.33799 0.30023
 C590 C 0.70167 0.33776 0.31969
 C591 C 0.70016 0.31991 0.33972
 C592 C 0.67961 0.30203 0.34054
 C593 C 0.66063 0.30251 0.32153
 C594 C 0.66206 0.32068 0.30138
 C595 C 0.67819 0.35391 0.27919
 N596 N 0.65555 0.34664 0.26755
 C597 C 0.64543 0.32657 0.28139
 C598 C 0.64251 0.28388 0.32776
 N599 N 0.65026 0.27194 0.34986
 C600 C 0.67275 0.28303 0.35803
 C601 C 0.72001 0.32538 0.35676
 N602 N 0.73359 0.34595 0.34749
 C603 C 0.72247 0.35377 0.32492
 H604 H 0.68986 0.37053 0.27372
 H605 H 0.62717 0.31694 0.27727
 H606 H 0.62491 0.27940 0.31716
 H607 H 0.68309 0.27783 0.37557
 H608 H 0.72374 0.31577 0.37505
 H609 H 0.72842 0.37057 0.31379
 C610 C 0.67128 0.85075 0.81206
 C611 C 0.69240 0.84827 0.82902
 C612 C 0.69360 0.82753 0.84606
 C613 C 0.67362 0.80903 0.84634
 C614 C 0.65277 0.81145 0.82952
 C615 C 0.65159 0.83245 0.81227
 C616 C 0.66460 0.86942 0.79420
 N617 N 0.64127 0.86297 0.78377
 C618 C 0.63325 0.84027 0.79447
 C619 C 0.63561 0.79177 0.83515
 N620 N 0.64567 0.77739 0.85478
 C621 C 0.66876 0.78792 0.86195
 C622 C 0.71524 0.83108 0.86137
 N623 N 0.72704 0.85338 0.85389
 C624 C 0.71323 0.86414 0.83428
 H625 H 0.67572 0.88655 0.78926
 H626 H 0.61536 0.83030 0.78967
 H627 H 0.61686 0.78852 0.82618
 H628 H 0.68068 0.78116 0.87789
 H629 H 0.72137 0.81902 0.87744
 H630 H 0.71751 0.88264 0.82527
 C631 C 0.15210 0.37041 0.82978
 C632 C 0.17230 0.36874 0.84794
 C633 C 0.17300 0.34835 0.86540
 C634 C 0.15349 0.32935 0.86487
 C635 C 0.13336 0.33118 0.84711
 C636 C 0.13255 0.35201 0.82959
 C637 C 0.14712 0.38751 0.80995
 N638 N 0.12456 0.38047 0.79810
 C639 C 0.11570 0.35853 0.80988
 C640 C 0.11762 0.30985 0.85068
 N641 N 0.12795 0.29511 0.86989
 C642 C 0.14967 0.30699 0.87893
 C643 C 0.19466 0.35176 0.88073
 N644 N 0.20675 0.37390 0.87316
 C645 C 0.19345 0.38429 0.85297
 H646 H 0.15897 0.40405 0.80465
 H647 H 0.09892 0.34740 0.80379
 H648 H 0.10024 0.30510 0.83984
 H649 H 0.16193 0.29963 0.89434
 H650 H 0.20101 0.33934 0.89644
 H651 H 0.19870 0.40199 0.84293
 C652 C 0.16482 0.85626 0.31713
 C653 C 0.18615 0.85402 0.33385
 C654 C 0.18889 0.83222 0.34936
 C655 C 0.17020 0.81241 0.34834
 C656 C 0.14929 0.81457 0.33158
 C657 C 0.14672 0.83653 0.31577
 C658 C 0.15701 0.87539 0.30021
 N659 N 0.13452 0.86774 0.28859
 C660 C 0.12840 0.84375 0.29777
 C661 C 0.13335 0.79360 0.33586
 N662 N 0.14414 0.77871 0.35469
 C663 C 0.16664 0.79004 0.36254
 C664 C 0.21088 0.83577 0.36416
 N665 N 0.22150 0.85901 0.35776
 C666 C 0.20643 0.87044 0.33947
 H667 H 0.16755 0.89306 0.29588
 H668 H 0.11158 0.83248 0.29204
 H669 H 0.11470 0.78997 0.32681
 H670 H 0.17877 0.78314 0.37825
 H671 H 0.21843 0.82270 0.37878
 H672 H 0.20987 0.88943 0.33116
 O673 O 0.97374 0.90714 0.87176
 O674 O 0.97356 0.87683 0.84158
 C675 C 0.96445 0.89776 0.85098
 C676 C 0.94233 0.91092 0.83808
 C677 C 0.92999 0.89930 0.81677
 H678 H 0.93701 0.88092 0.80931
 O679 O 1.02328 1.09696 0.87133
 O680 O 1.02299 1.12741 0.84129
 C681 C 1.03245 1.10661 0.85061
 C682 C 1.05489 1.09400 0.83771
 C683 C 1.06732 1.10620 0.81677
 H684 H 1.06018 1.12469 0.80971
 O685 O 0.87148 0.97453 0.90719
 O686 O 0.84082 0.97398 0.87729
 C687 C 0.85084 0.96475 0.89783
 C688 C 0.83903 0.94163 0.91017
 C689 C 0.81842 0.92868 0.89789
 H690 H 0.81029 0.93616 0.88000
 O691 O 1.12669 1.02820 0.90548
 O692 O 1.15721 1.02851 0.87544
 C693 C 1.14779 1.03729 0.89647
 C694 C 1.16115 1.05866 0.91028
 C695 C 1.18547 1.06765 0.90178
 H696 H 1.19504 1.05848 0.88545
 O697 O 0.90868 0.86983 0.97727
 O698 O 0.87903 0.83890 0.97750
 C699 C 0.90007 0.84836 0.96874
 C700 C 0.91388 0.83490 0.94748
 C701 C 0.90465 0.81106 0.93815
 H702 H 0.88868 0.80137 0.94787
 O703 O 1.09059 1.13244 0.97447
 O704 O 1.12070 1.16289 0.97430
 C705 C 1.09956 1.15364 0.96559
 C706 C 1.08578 1.16718 0.94430
 C707 C 1.09578 1.19031 0.93390
 H708 H 1.11306 1.19906 0.94215
 O709 O 0.90427 1.02747 0.87211
 O710 O 0.87336 1.02716 0.84249
 C711 C 0.89431 1.03661 0.85149
 C712 C 0.90685 1.05886 0.83827
 C713 C 0.89496 1.07068 0.81676
 H714 H 0.87667 1.06324 0.80945
 O715 O 1.09175 0.97715 0.86995
 O716 O 1.12208 0.97742 0.83974
 C717 C 1.10104 0.96832 0.84893
 C718 C 1.08766 0.94668 0.83554
 C719 C 1.09734 0.93686 0.81207
 H720 H 1.11411 0.94575 0.80297
 O721 O 1.02577 0.87233 0.90606
 O722 O 1.02578 0.84192 0.87599
 C723 C 1.03484 0.85132 0.89688
 C724 C 1.05645 0.83806 0.91047
 C725 C 1.06532 0.81362 0.90223
 H726 H 1.05608 0.80401 0.88598
 O727 O 0.97100 1.13110 0.90608
 O728 O 0.97032 1.16139 0.87588
 C729 C 0.96136 1.15180 0.89674
 C730 C 0.93893 1.16427 0.90980
 C731 C 0.92659 1.18593 0.89866
 H732 H 0.93398 1.19432 0.88087
 O733 O 0.86917 1.09368 0.97623
 O734 O 0.83841 1.12354 0.97677
 C735 C 0.84782 1.10264 0.96763
 C736 C 0.83433 1.08903 0.94623
 C737 C 0.81131 1.09919 0.93562
 H738 H 0.80292 1.11678 0.94354
 O739 O 1.12914 0.90994 0.97447
 O740 O 1.16012 0.88031 0.97437
 C741 C 1.15061 0.90142 0.96578
 C742 C 1.16426 0.91591 0.94502
 C743 C 1.18959 0.90904 0.93753
 H744 H 1.19974 0.89368 0.94774
 O745 O 0.97240 1.09575 0.87062
 O746 O 0.97197 1.12600 0.84038
 C747 C 0.96329 1.10484 0.84962
 C748 C 0.94128 1.09153 0.83674
 C749 C 0.92970 1.10236 0.81458
 H750 H 0.93838 1.11915 0.80537
 O751 O 1.02452 0.90775 0.87055
 O752 O 1.02454 0.87754 0.84028
 C753 C 1.03329 0.89873 0.84937
 C754 C 1.05448 0.91263 0.83573
 C755 C 1.06450 0.90308 0.81226
 H756 H 1.05612 0.88596 0.80338
 O757 O 1.12765 0.97762 0.90530
 O758 O 1.15815 0.97795 0.87525
 C759 C 1.14907 0.96913 0.89639
 C760 C 1.16333 0.94863 0.91069
 C761 C 1.18842 0.94096 0.90299
 H762 H 1.19752 0.94995 0.88632
 O763 O 0.86928 1.02531 0.90830
 O764 O 0.83839 1.02471 0.87866
 C765 C 0.84766 1.03359 0.89968
 C766 C 0.83390 1.05472 0.91349
 C767 C 0.81038 1.06462 0.90379
 H768 H 0.80106 1.05538 0.88737
 O769 O 0.90377 1.12993 0.97545
 O770 O 0.87303 1.15980 0.97613
 C771 C 0.89390 1.15074 0.96657
 C772 C 0.90613 1.16388 0.94415
 C773 C 0.89421 1.18565 0.93281
 H774 H 0.87666 1.19377 0.94116
 O775 O 1.09447 0.87336 0.97393
 O776 O 1.12526 0.84353 0.97366
 C777 C 1.10395 0.85242 0.96493
 C778 C 1.09024 0.83860 0.94381
 C779 C 1.09874 0.81408 0.93541
 H780 H 1.11509 0.80472 0.94483
 O781 O 1.09130 1.02793 0.86992
 O782 O 1.12172 1.02834 0.83980
 C783 C 1.10060 1.03719 0.84908
 C784 C 1.08756 1.05948 0.83637
 C785 C 1.09889 1.07135 0.81464
 H786 H 1.11584 1.06271 0.80560
 O787 O 0.90628 0.97669 0.87129
 O788 O 0.87557 0.97639 0.84145
 C789 C 0.89692 0.96772 0.85035
 C790 C 0.91003 0.94579 0.83716
 C791 C 0.89865 0.93440 0.81520
 H792 H 0.88168 0.94318 0.80634
 O793 O 1.02182 1.13250 0.90665
 O794 O 1.02124 1.16299 0.87665
 C795 C 1.03032 1.15381 0.89764
 C796 C 1.05179 1.16738 0.91113
 C797 C 1.06212 1.19051 0.90101
 H798 H 1.05362 1.19930 0.88390
 O799 O 0.97512 0.87127 0.90693
 O800 O 0.97505 0.84090 0.87681
 C801 C 0.96644 0.84997 0.89805
 C802 C 0.94570 0.83602 0.91229
 C803 C 0.93554 0.81256 0.90273
 H804 H 0.94325 0.80417 0.88508
 O805 O 1.12626 1.09667 0.97414
 O806 O 1.15643 1.12706 0.97395
 C807 C 1.14731 1.10590 0.96516
 C808 C 1.16092 1.09220 0.94387
 C809 C 1.18525 1.10089 0.93505
 H810 H 1.19458 1.11737 0.94420
 O811 O 0.87314 0.90523 0.97547
 O812 O 0.84353 0.87428 0.97516
 C813 C 0.85270 0.89525 0.96594
 C814 C 0.84004 0.90758 0.94328
 C815 C 0.81950 0.89493 0.93057
 H816 H 0.81217 0.87658 0.93777
 Cu817 Cu 0.99979 0.89266 0.89183
 Cu818 Cu 0.99973 0.85630 0.85557
 Cu819 Cu 0.99718 1.11104 0.89168
 Cu820 Cu 0.99660 1.14747 0.85549
 Cu821 Cu 0.89092 1.00116 0.89270
 Cu822 Cu 0.85394 1.00058 0.85700
 Cu823 Cu 1.10627 1.00261 0.89063
 Cu824 Cu 1.14277 1.00303 0.85446
 C825 C 0.93216 0.93415 0.84820
 H826 H 0.94092 0.94269 0.86527
 C827 C 0.90788 0.91066 0.80558
 C828 C 1.06526 1.07071 0.84750
 H829 H 1.05644 1.06173 0.86432
 C830 C 1.08957 1.09524 0.80540
 C831 C 0.84964 0.93102 0.93299
 H832 H 0.86586 0.94062 0.94233
 C833 C 0.80888 0.90534 0.90789
 C834 C 1.14915 1.07091 0.93151
 H835 H 1.13025 1.06429 0.93798
 C836 C 1.19768 1.08852 0.91425
 C837 C 0.93472 0.84701 0.93471
 H838 H 0.94179 0.86554 0.94169
 C839 C 0.91476 0.80025 0.91536
 C840 C 1.06360 1.15603 0.93295
 H841 H 1.05608 1.13792 0.94054
 C842 C 1.08423 1.20181 0.91213
 C843 C 0.92997 1.06950 0.84816
 H844 H 0.93873 1.06111 0.86531
 C845 C 0.90605 1.09266 0.80505
 C846 C 1.06605 0.93459 0.84707
 H847 H 1.05875 0.94178 0.86541
 C848 C 1.08602 0.91496 0.80056
 C849 C 1.06892 0.85027 0.93140
 H850 H 1.06240 0.86927 0.93766
 C851 C 1.08616 0.80138 0.91488
 C852 C 0.92863 1.15350 0.93264
 H853 H 0.93771 1.13650 0.94107
 C854 C 0.90435 1.19667 0.91015
 C855 C 0.84547 1.06678 0.93501
 H856 H 0.86371 1.05936 0.94248
 C857 C 0.79943 1.08731 0.91420
 C858 C 1.15151 0.93607 0.93180
 H859 H 1.13195 0.94147 0.93745
 C860 C 1.20191 0.92158 0.91667
 O861 O 1.02729 0.90858 1.13066
 O862 O 1.02792 0.87836 1.16094
 C863 C 1.03644 0.89955 1.15167
 C864 C 1.05781 0.91334 1.16494
 C865 C 1.06705 0.90458 1.18896
 H866 H 1.05741 0.88857 1.19862
 O867 O 0.97402 1.09258 1.13034
 O868 O 0.97341 1.12281 1.16058
 C869 C 0.96470 1.10170 1.15123
 C870 C 0.94272 1.08836 1.16416
 C871 C 0.93096 1.09961 1.18598
 H872 H 0.93880 1.11726 1.19430
 O873 O 0.86980 1.02416 1.09449
 O874 O 0.83930 1.02391 1.12454
 C875 C 0.84864 1.03299 1.10361
 C876 C 0.83521 1.05458 1.09021
 C877 C 0.81155 1.06420 1.09982
 H878 H 0.80248 1.05519 1.11651
 O879 O 1.13006 0.97803 1.09317
 O880 O 1.16099 0.97838 1.12278
 C881 C 1.15144 0.96934 1.10192
 C882 C 1.16467 0.94774 1.08833
 C883 C 1.18787 0.93729 1.09822
 H884 H 1.19683 0.94569 1.11528
 O885 O 1.09385 0.87335 1.02453
 O886 O 1.12439 0.84327 1.02423
 C887 C 1.10313 0.85219 1.03315
 C888 C 1.08949 0.83835 1.05436
 C889 C 1.09764 0.81356 1.06228
 H890 H 1.11301 0.80376 1.05175
 O891 O 0.90537 1.12934 1.02625
 O892 O 0.87475 1.15933 1.02690
 C893 C 0.89610 1.15025 1.03543
 C894 C 0.90975 1.16358 1.05693
 C895 C 0.90037 1.18730 1.06655
 H896 H 0.88391 1.19667 1.05733
 O897 O 0.90471 0.97289 1.12966
 O898 O 0.87433 0.97241 1.15980
 C899 C 0.89540 0.96353 1.15046
 C900 C 0.90938 0.94216 1.16373
 C901 C 0.89965 0.93103 1.18668
 H902 H 0.88092 0.93731 1.19389
 O903 O 1.09358 1.02664 1.13043
 O904 O 1.12424 1.02693 1.16033
 C905 C 1.10257 1.03510 1.15174
 C906 C 1.08827 1.05561 1.16591
 C907 C 1.09710 1.06443 1.19008
 H908 H 1.11273 1.05422 1.19981
 O909 O 0.97652 0.87245 1.09594
 O910 O 0.97718 0.84209 1.12607
 C911 C 0.96798 0.85120 1.10512
 C912 C 0.94676 0.83735 1.09149
 C913 C 0.93848 0.81271 1.09982
 H914 H 0.94801 0.80325 1.11600
 O915 O 1.02443 1.12919 1.09530
 O916 O 1.02414 1.15921 1.12575
 C917 C 1.03326 1.15019 1.10470
 C918 C 1.05503 1.16367 1.09158
 C919 C 1.06711 1.18510 1.10334
 H920 H 1.05992 1.19253 1.12164
 O921 O 0.87095 0.90566 1.02608
 O922 O 0.84097 0.87508 1.02585
 C923 C 0.84963 0.89647 1.03448
 C924 C 0.83526 0.91050 1.05501
 C925 C 0.81042 0.90235 1.06291
 H926 H 0.80105 0.88615 1.05331
 O927 O 1.12678 1.09691 1.02493
 O928 O 1.15679 1.12747 1.02460
 C929 C 1.14771 1.10651 1.03387
 C930 C 1.16099 1.09400 1.05608
 C931 C 1.18275 1.10595 1.06738
 H932 H 1.19062 1.12363 1.05916
 O933 O 1.02492 1.09412 1.13120
 O934 O 1.02436 1.12412 1.16167
 C935 C 1.03373 1.10333 1.15230
 C936 C 1.05549 1.08994 1.16562
 C937 C 1.06598 1.09977 1.18880
 H938 H 1.05805 1.11739 1.19711
 O939 O 0.97673 0.90862 1.13091
 O940 O 0.97735 0.87847 1.16125
 C941 C 0.96825 0.89955 1.15216
 C942 C 0.94650 0.91277 1.16557
 C943 C 0.93836 0.90451 1.19013
 H944 H 0.95094 0.89166 1.20098
 O945 O 1.12872 1.02893 1.09438
 O946 O 1.15950 1.02951 1.12412
 C947 C 1.14955 1.03857 1.10345
 C948 C 1.16180 1.06106 1.09029
 C949 C 1.18351 1.07344 1.10132
 H950 H 1.19207 1.06603 1.11903
 O951 O 0.86950 0.97369 1.09398
 O952 O 0.83891 0.97340 1.12394
 C953 C 0.84822 0.96485 1.10279
 C954 C 0.83463 0.94396 1.08856
 C955 C 0.80986 0.93552 1.09628
 H956 H 0.80012 0.94474 1.11247
 O957 O 1.09076 1.13172 1.02514
 O958 O 1.12083 1.16223 1.02500
 C959 C 1.10005 1.15264 1.03428
 C960 C 1.08740 1.16511 1.05685
 C961 C 1.09892 1.18675 1.06873
 H962 H 1.11611 1.19556 1.06034
 O963 O 0.90788 0.87135 1.02776
 O964 O 0.87807 0.84059 1.02788
 C965 C 0.89896 0.85024 1.03683
 C966 C 0.91287 0.83703 1.05821
 C967 C 0.90481 0.81250 1.06688
 H968 H 0.88857 0.80280 1.05765
 O969 O 1.09578 0.97640 1.12960
 O970 O 1.12660 0.97663 1.15935
 C971 C 1.10554 0.96742 1.15038
 C972 C 1.09228 0.94588 1.16396
 C973 C 1.10196 0.93611 1.18749
 H974 H 1.11956 0.94414 1.19579
 O975 O 0.90534 1.02376 1.12992
 O976 O 0.87494 1.02356 1.16006
 C977 C 0.89598 1.03270 1.15087
 C978 C 0.90905 1.05473 1.16400
 C979 C 0.89753 1.06648 1.18575
 H980 H 0.87966 1.05876 1.19378
 O981 O 0.97356 1.12877 1.09554
 O982 O 0.97320 1.15905 1.12573
 C983 C 0.96435 1.14974 1.10471
 C984 C 0.94272 1.16306 1.09113
 C985 C 0.93255 1.18642 1.10085
 H986 H 0.94066 1.19497 1.11825
 O987 O 1.02733 0.87337 1.09494
 O988 O 1.02808 0.84301 1.12505
 C989 C 1.03661 0.85234 1.10389
 C990 C 1.05765 0.83884 1.08957
 C991 C 1.06697 0.81461 1.09795
 H992 H 1.05908 0.80588 1.11535
 O993 O 1.12927 0.90914 1.02498
 O994 O 1.15991 0.87916 1.02489
 C995 C 1.15049 0.90012 1.03385
 C996 C 1.16401 0.91374 1.05523
 C997 C 1.18727 0.90369 1.06538
 H998 H 1.19594 0.88644 1.05701
 O999 O 0.86968 1.09378 1.02677
 O1000 O 0.83897 1.12370 1.02735
 C1001 C 0.84853 1.10265 1.03596
 C1002 C 0.83524 1.08874 1.05730
 C1003 C 0.81169 1.09820 1.06738
 H1004 H 0.80284 1.11547 1.05925
 Cu1005 Cu 1.00189 0.89375 1.11006
 Cu1006 Cu 1.00268 0.85743 1.14636
 Cu1007 Cu 0.99931 1.10814 1.11008
 Cu1008 Cu 0.99869 1.14431 1.14648
 Cu1009 Cu 0.89312 0.89114 1.00176
 Cu1010 Cu 0.85736 0.85416 1.00167
 Cu1011 Cu 1.10859 0.89441 0.99946
 Cu1012 Cu 1.14551 0.85857 0.99925
 Cu1013 Cu 0.89011 1.10873 1.00116
 Cu1014 Cu 0.85325 1.14464 1.00194
 Cu1015 Cu 1.10558 1.11137 0.99956
 Cu1016 Cu 1.14170 1.14797 0.99933
 Cu1017 Cu 0.89044 0.99859 1.10906
 Cu1018 Cu 0.85388 0.99829 1.14520
 Cu1019 Cu 1.10903 1.00252 1.10885
 Cu1020 Cu 1.14608 1.00298 1.14450
 C1021 C 1.07019 0.93436 1.15287
 H1022 H 1.06306 0.94126 1.13435
 C1023 C 1.08909 0.91582 1.20040
 C1024 C 0.93176 1.06575 1.15343
 H1025 H 0.94040 1.05726 1.13626
 C1026 C 0.90816 1.08909 1.19645
 C1027 C 0.84675 1.06676 1.06871
 H1028 H 0.86516 1.05965 1.06138
 C1029 C 0.79969 1.08589 1.08845
 C1030 C 1.15301 0.93597 1.06664
 H1031 H 1.13485 0.94358 1.05918
 C1032 C 1.19928 0.91541 1.08674
 C1033 C 1.06905 0.85053 1.06775
 H1034 H 1.06254 0.86958 1.06164
 C1035 C 1.08637 0.80141 1.08396
 C1036 C 0.93125 1.15184 1.06907
 H1037 H 0.93853 1.13348 1.06184
 C1038 C 0.91174 1.19889 1.08838
 C1039 C 0.93238 0.93227 1.15293
 H1040 H 0.93907 0.93940 1.13434
 C1041 C 0.91397 0.91195 1.20023
 C1042 C 1.06701 1.06803 1.15421
 H1043 H 1.05993 1.06112 1.13569
 C1044 C 1.08705 1.08732 1.20106
 C1045 C 0.93398 0.84920 1.07051
 H1046 H 0.94009 0.86827 1.06410
 C1047 C 0.91767 0.80020 1.08744
 C1048 C 1.06527 1.15388 1.06827
 H1049 H 1.05652 1.13692 1.05946
 C1050 C 1.08928 1.19637 1.09225
 C1051 C 0.84701 0.93153 1.06773
 H1052 H 0.86629 0.93769 1.06194
 C1053 C 0.79753 0.91500 1.08329
 C1054 C 1.15075 1.07144 1.06756
 H1055 H 1.13369 1.06240 1.05921
 C1056 C 1.19380 1.09600 1.09009
 O1057 O 1.09619 0.52793 0.62953
 O1058 O 1.12683 0.52807 0.65945
 C1059 C 1.10547 0.53674 0.65057
 C1060 C 1.09138 0.55757 0.66447
 C1061 C 1.09925 0.56558 0.68926
 H1062 H 1.11542 0.55603 0.69879
 O1063 O 0.90614 0.47434 0.62998
 O1064 O 0.87605 0.47334 0.66042
 C1065 C 0.89704 0.46465 0.65074
 C1066 C 0.91118 0.44312 0.66359
 C1067 C 0.90143 0.43136 0.68623
 H1068 H 0.88259 0.43726 0.69349
 O1069 O 1.02467 0.63026 0.59482
 O1070 O 1.02419 0.66067 0.62489
 C1071 C 1.03290 0.65176 0.60363
 C1072 C 1.05323 0.66614 0.58925
 C1073 C 1.06094 0.69108 0.59713
 H1074 H 1.05165 0.70029 0.61359
 O1075 O 0.97722 0.37412 0.59451
 O1076 O 0.97757 0.34362 0.62450
 C1077 C 0.96832 0.35303 0.60367
 C1078 C 0.94670 0.33958 0.59023
 C1079 C 0.93708 0.31591 0.59977
 H1080 H 0.94563 0.30716 0.61687
 O1081 O 1.12938 0.59778 0.52668
 O1082 O 1.15915 0.62857 0.52692
 C1083 C 1.15032 0.60730 0.53568
 C1084 C 1.16437 0.59343 0.55658
 C1085 C 1.18894 0.60188 0.56503
 H1086 H 1.19762 0.61907 0.55657
 O1087 O 0.87223 0.40815 0.52467
 O1088 O 0.84269 0.37715 0.52497
 C1089 C 0.85139 0.39851 0.53370
 C1090 C 0.83783 0.41159 0.55544
 C1091 C 0.81567 0.40024 0.56659
 H1092 H 0.80741 0.38274 0.55835
 O1093 O 0.97621 0.59274 0.63139
 O1094 O 0.97586 0.62292 0.66170
 C1095 C 0.96750 0.60154 0.65268
 C1096 C 0.94653 0.58745 0.66642
 C1097 C 0.93690 0.59685 0.69006
 H1098 H 0.94626 0.61317 0.69946
 O1099 O 1.02908 0.40862 0.62940
 O1100 O 1.02939 0.37826 0.65955
 C1101 C 1.03822 0.39934 0.65033
 C1102 C 1.05936 0.41324 0.66392
 C1103 C 1.06769 0.40534 0.68861
 H1104 H 1.05893 0.38852 0.69771
 O1105 O 1.13139 0.47774 0.59321
 O1106 O 1.16214 0.47757 0.62301
 C1107 C 1.15274 0.46894 0.60192
 C1108 C 1.16647 0.44815 0.58758
 C1109 C 1.19087 0.43925 0.59597
 H1110 H 1.20011 0.44790 0.61274
 O1111 O 0.87090 0.52652 0.59648
 O1112 O 0.84091 0.52611 0.62702
 C1113 C 0.85020 0.53570 0.60632
 C1114 C 0.83745 0.55834 0.59396
 C1115 C 0.81785 0.57223 0.60700
 H1116 H 0.81152 0.56603 0.62605
 O1117 O 0.90516 0.62782 0.52701
 O1118 O 0.87456 0.65786 0.52718
 C1119 C 0.89561 0.64859 0.53625
 C1120 C 0.90845 0.66145 0.55852
 C1121 C 0.89707 0.68341 0.57001
 H1122 H 0.87948 0.69178 0.56199
 O1123 O 1.09663 0.37464 0.52468
 O1124 O 1.12740 0.34479 0.52478
 C1125 C 1.10632 0.35391 0.53389
 C1126 C 1.09333 0.34070 0.55587
 C1127 C 1.10460 0.31862 0.56728
 H1128 H 1.12261 0.31079 0.55967
 O1129 O 0.90728 0.52499 0.63092
 O1130 O 0.87738 0.52423 0.66155
 C1131 C 0.89840 0.53337 0.65230
 C1132 C 0.91220 0.55460 0.66596
 C1133 C 0.90221 0.56503 0.68908
 H1134 H 0.88464 0.55706 0.69751
 O1135 O 1.09652 0.47747 0.62948
 O1136 O 1.12703 0.47752 0.65953
 C1137 C 1.10577 0.46874 0.65057
 C1138 C 1.09189 0.44774 0.66437
 C1139 C 1.09923 0.44029 0.68951
 H1140 H 1.11449 0.45080 0.69947
 O1141 O 1.02810 0.37396 0.59316
 O1142 O 1.02851 0.34354 0.62324
 C1143 C 1.03719 0.35287 0.60215
 C1144 C 1.05900 0.33978 0.58868
 C1145 C 1.07008 0.31721 0.59921
 H1146 H 1.06141 0.30814 0.61607
 O1147 O 0.97391 0.62816 0.59588
 O1148 O 0.97335 0.65837 0.62615
 C1149 C 0.96427 0.64880 0.60533
 C1150 C 0.94179 0.66137 0.59243
 C1151 C 0.92998 0.68324 0.60363
 H1152 H 0.93769 0.69157 0.62132
 O1153 O 0.86927 0.59290 0.52695
 O1154 O 0.83877 0.62305 0.52686
 C1155 C 0.84829 0.60226 0.53605
 C1156 C 0.83584 0.59002 0.55879
 C1157 C 0.81528 0.60272 0.57139
 H1158 H 0.80655 0.61980 0.56273
 O1159 O 1.13178 0.41045 0.52345
 O1160 O 1.16264 0.38068 0.52303
 C1161 C 1.15322 0.40165 0.53200
 C1162 C 1.16683 0.41546 0.55319
 C1163 C 1.19125 0.40688 0.56187
 H1164 H 1.20082 0.39071 0.55238
 O1165 O 0.97845 0.40987 0.62996
 O1166 O 0.97889 0.37947 0.66007
 C1167 C 0.97004 0.40075 0.65123
 C1168 C 0.94852 0.41400 0.66496
 C1169 C 0.94040 0.40522 0.68935
 H1170 H 0.95300 0.39222 0.69999
 O1171 O 1.02681 0.59484 0.63046
 O1172 O 1.02645 0.62505 0.66073
 C1173 C 1.03575 0.60420 0.65141
 C1174 C 1.05737 0.59075 0.66479
 C1175 C 1.06566 0.59870 0.68948
 H1176 H 1.05612 0.61480 0.69911
 O1177 O 0.87135 0.47579 0.59394
 O1178 O 0.84112 0.47503 0.62424
 C1179 C 0.85037 0.46654 0.60300
 C1180 C 0.83736 0.44481 0.58939
 C1181 C 0.81537 0.43297 0.60032
 H1182 H 0.80702 0.44051 0.61808
 O1183 O 1.13127 0.52827 0.59364
 O1184 O 1.16216 0.52821 0.62330
 C1185 C 1.15256 0.53711 0.60241
 C1186 C 1.16582 0.55846 0.58854
 C1187 C 1.19082 0.56647 0.59592
 H1188 H 1.20110 0.55603 0.61101
 O1189 O 0.90847 0.37303 0.52540
 O1190 O 0.87895 0.34201 0.52565
 C1191 C 0.89977 0.35184 0.53454
 C1192 C 0.91347 0.33888 0.55627
 C1193 C 0.90438 0.31508 0.56597
 H1194 H 0.88791 0.30558 0.55694
 O1195 O 1.09246 0.63212 0.52583
 O1196 O 1.12201 0.66313 0.52589
 C1197 C 1.10093 0.65355 0.53451
 C1198 C 1.08643 0.66704 0.55531
 C1199 C 1.09372 0.69202 0.56334
 H1200 H 1.10950 0.70203 0.55365
 Cu1201 Cu 1.11077 0.50283 0.60848
 Cu1202 Cu 1.14767 0.50281 0.64431
 Cu1203 Cu 0.89189 0.50048 0.60978
 Cu1204 Cu 0.85578 0.49958 0.64631
 Cu1205 Cu 1.00052 0.60849 0.61010
 Cu1206 Cu 0.99995 0.64484 0.64637
 Cu1207 Cu 1.00317 0.39467 0.60872
 Cu1208 Cu 1.00356 0.35810 0.64479
 C1209 C 1.07025 0.57007 0.65256
 H1210 H 1.06417 0.56407 0.63337
 C1211 C 1.08625 0.58588 0.70199
 C1212 C 0.93431 0.43364 0.65266
 H1213 H 0.94097 0.44115 0.63421
 C1214 C 0.91582 0.41204 0.69936
 C1215 C 1.06592 0.65442 0.56815
 H1216 H 1.06038 0.63502 0.56224
 C1217 C 1.08091 0.70421 0.58401
 C1218 C 0.93485 0.35084 0.56836
 H1219 H 0.94185 0.36930 0.56114
 C1220 C 0.91618 0.30343 0.58753
 C1221 C 1.15301 0.57171 0.56848
 H1222 H 1.13378 0.56550 0.56256
 C1223 C 1.20266 0.58803 0.58414
 C1224 C 0.84836 0.43408 0.56681
 H1225 H 0.86577 0.44264 0.55867
 C1226 C 0.80477 0.41052 0.58928
 C1227 C 0.93438 0.56599 0.65478
 H1228 H 0.94162 0.55876 0.63644
 C1229 C 0.91421 0.58641 0.70098
 C1230 C 1.07158 0.43445 0.65199
 H1231 H 1.06570 0.44023 0.63268
 C1232 C 1.08701 0.41928 0.70193
 C1233 C 1.15473 0.43632 0.56599
 H1234 H 1.13572 0.44281 0.55964
 C1235 C 1.20338 0.41882 0.58305
 C1236 C 0.84648 0.56757 0.56996
 H1237 H 0.86241 0.55774 0.56034
 C1238 C 0.80710 0.59482 0.59607
 C1239 C 0.93097 0.65068 0.56976
 H1240 H 0.93964 0.63349 0.56128
 C1241 C 0.90768 0.69414 0.59254
 C1242 C 1.07052 0.35115 0.56674
 H1243 H 1.06221 0.36869 0.55863
 C1244 C 1.09332 0.30707 0.58918
 O1245 O 1.09453 0.47948 0.37002
 O1246 O 1.12483 0.48033 0.33978
 C1247 C 1.10397 0.47086 0.34896
 C1248 C 1.09129 0.44870 0.33580
 C1249 C 1.10236 0.43787 0.31340
 H1250 H 1.11924 0.44680 0.30455
 O1251 O 0.90615 0.52599 0.37134
 O1252 O 0.87603 0.52615 0.34091
 C1253 C 0.89708 0.53501 0.35027
 C1254 C 0.91096 0.55630 0.33684
 C1255 C 0.90318 0.56440 0.31202
 H1256 H 0.88721 0.55477 0.30227
 O1257 O 0.97316 0.63126 0.40784
 O1258 O 0.97223 0.66184 0.37794
 C1259 C 0.96367 0.65222 0.39894
 C1260 C 0.94196 0.66505 0.41275
 C1261 C 0.93181 0.68876 0.40383
 H1262 H 0.94034 0.69828 0.38715
 O1263 O 1.02769 0.37350 0.40550
 O1264 O 1.02782 0.34310 0.37542
 C1265 C 1.03661 0.35232 0.39651
 C1266 C 1.05787 0.33876 0.41042
 C1267 C 1.06777 0.31506 0.40119
 H1268 H 1.05949 0.30623 0.38402
 O1269 O 1.13088 0.40967 0.47273
 O1270 O 1.16134 0.37952 0.47226
 C1271 C 1.15176 0.40044 0.46331
 C1272 C 1.16452 0.41374 0.44120
 C1273 C 1.18637 0.40268 0.42907
 H1274 H 1.19458 0.38469 0.43628
 O1275 O 0.86980 0.59229 0.47627
 O1276 O 0.83912 0.62224 0.47636
 C1277 C 0.84852 0.60120 0.46751
 C1278 C 0.83498 0.58733 0.44633
 C1279 C 0.81043 0.59564 0.43779
 H1280 H 0.80078 0.61172 0.44735
 O1281 O 1.02458 0.59725 0.37181
 O1282 O 1.02371 0.62785 0.34191
 C1283 C 1.03338 0.60706 0.35099
 C1284 C 1.05584 0.59483 0.33787
 C1285 C 1.06762 0.60710 0.31661
 H1286 H 1.05965 0.62507 0.30909
 O1287 O 0.97744 0.40935 0.36954
 O1288 O 0.97793 0.37938 0.33903
 C1289 C 0.96888 0.40040 0.34825
 C1290 C 0.94739 0.41398 0.33473
 C1291 C 0.93843 0.40517 0.31057
 H1292 H 0.94853 0.38949 0.30084
 O1293 O 1.12946 0.52983 0.40646
 O1294 O 1.15998 0.53055 0.37643
 C1295 C 1.15061 0.53896 0.39762
 C1296 C 1.16407 0.56002 0.41176
 C1297 C 1.18799 0.56961 0.40284
 H1298 H 1.19720 0.56109 0.38597
 O1299 O 0.87111 0.47415 0.40568
 O1300 O 0.84104 0.47409 0.37519
 C1301 C 0.85048 0.46474 0.39595
 C1302 C 0.83822 0.44178 0.40812
 C1303 C 0.81878 0.42794 0.39491
 H1304 H 0.81145 0.43496 0.37650
 O1305 O 1.09354 0.63199 0.47523
 O1306 O 1.12350 0.66261 0.47518
 C1307 C 1.10274 0.65292 0.46599
 C1308 C 1.08986 0.66550 0.44359
 C1309 C 1.10211 0.68616 0.43072
 H1310 H 1.12040 0.69380 0.43782
 O1311 O 0.90897 0.37276 0.47461
 O1312 O 0.87941 0.34176 0.47494
 C1313 C 0.90011 0.35154 0.46570
 C1314 C 0.91307 0.33891 0.44337
 C1315 C 0.90159 0.31723 0.43151
 H1316 H 0.88430 0.30852 0.43978
 O1317 O 0.90685 0.47539 0.37071
 O1318 O 0.87680 0.47552 0.34020
 C1319 C 0.89792 0.46667 0.34948
 C1320 C 0.91205 0.44571 0.33579
 C1321 C 0.90260 0.43571 0.31230
 H1322 H 0.88465 0.44318 0.30420
 O1323 O 1.09409 0.53022 0.37064
 O1324 O 1.12455 0.53116 0.34057
 C1325 C 1.10335 0.53972 0.34987
 C1326 C 1.08993 0.56173 0.33713
 C1327 C 1.10108 0.57398 0.31549
 H1328 H 1.11870 0.56627 0.30690
 O1329 O 0.97685 0.37408 0.40530
 O1330 O 0.97686 0.34404 0.37486
 C1331 C 0.96773 0.35324 0.39583
 C1332 C 0.94570 0.34006 0.40885
 C1333 C 0.93359 0.31865 0.39709
 H1334 H 0.94085 0.31114 0.37885
 O1335 O 1.02413 0.63196 0.40765
 O1336 O 1.02331 0.66248 0.37768
 C1337 C 1.03294 0.65301 0.39831
 C1338 C 1.05558 0.66575 0.41067
 C1339 C 1.06816 0.68646 0.39816
 H1340 H 1.06048 0.69420 0.38018
 O1341 O 0.87203 0.40663 0.47382
 O1342 O 0.84258 0.37552 0.47411
 C1343 C 0.85151 0.39644 0.46459
 C1344 C 0.83878 0.40824 0.44167
 C1345 C 0.81948 0.39457 0.42803
 H1346 H 0.81280 0.37588 0.43500
 O1347 O 1.12939 0.59692 0.47614
 O1348 O 1.15941 0.62749 0.47633
 C1349 C 1.15048 0.60629 0.46741
 C1350 C 1.16418 0.59282 0.44605
 C1351 C 1.18819 0.60203 0.43690
 H1352 H 1.19747 0.61851 0.44610
 O1353 O 1.02814 0.40943 0.37041
 O1354 O 1.02869 0.37911 0.34026
 C1355 C 1.03744 0.40021 0.34955
 C1356 C 1.05913 0.41377 0.33643
 C1357 C 1.07077 0.40299 0.31430
 H1358 H 1.06344 0.38501 0.30622
 O1359 O 0.97382 0.59576 0.37215
 O1360 O 0.97302 0.62617 0.34208
 C1361 C 0.96477 0.60474 0.35107
 C1362 C 0.94407 0.59037 0.33722
 C1363 C 0.93603 0.59815 0.31239
 H1364 H 0.94543 0.61438 0.30287
 O1365 O 0.87053 0.52487 0.40691
 O1366 O 0.84017 0.52502 0.37673
 C1367 C 0.84925 0.53361 0.39798
 C1368 C 0.83536 0.55439 0.41219
 C1369 C 0.81091 0.56317 0.40378
 H1370 H 0.80172 0.55440 0.38703
 O1371 O 1.12999 0.47915 0.40540
 O1372 O 1.16030 0.47989 0.37517
 C1373 C 1.15106 0.47041 0.39595
 C1374 C 1.16433 0.44821 0.40852
 C1375 C 1.18629 0.43695 0.39687
 H1376 H 1.19435 0.44517 0.37929
 O1377 O 1.09557 0.37373 0.47419
 O1378 O 1.12597 0.34351 0.47424
 C1379 C 1.10459 0.35242 0.46565
 C1380 C 1.09065 0.33851 0.44475
 C1381 C 1.09959 0.31433 0.43586
 H1382 H 1.11560 0.30476 0.44564
 O1383 O 0.90452 0.62888 0.47629
 O1384 O 0.87391 0.65888 0.47650
 C1385 C 0.89510 0.64997 0.46757
 C1386 C 0.90847 0.66390 0.44635
 C1387 C 0.89868 0.68766 0.43720
 H1388 H 0.88183 0.69643 0.44629
 Cu1389 Cu 1.10894 0.50466 0.39113
 Cu1390 Cu 1.14545 0.50563 0.35494
 Cu1391 Cu 0.89164 0.50017 0.39173
 Cu1392 Cu 0.85541 0.50035 0.35525
 Cu1393 Cu 1.10821 0.61163 0.50105
 Cu1394 Cu 1.14397 0.64859 0.50119
 Cu1395 Cu 1.11068 0.39515 0.49873
 Cu1396 Cu 1.14744 0.35915 0.49853
 Cu1397 Cu 0.89026 0.60745 0.50150
 Cu1398 Cu 0.85354 0.64354 0.50161
 Cu1399 Cu 0.89335 0.39328 0.49967
 Cu1400 Cu 0.85794 0.35602 0.50008
 Cu1401 Cu 0.99888 0.61103 0.39290
 Cu1402 Cu 0.99782 0.64771 0.35695
 Cu1403 Cu 1.00252 0.39460 0.39073
 Cu1404 Cu 1.00285 0.35835 0.35438
 C1405 C 1.06947 0.43669 0.34698
 H1406 H 1.06103 0.44474 0.36446
 C1407 C 1.09257 0.41473 0.30297
 C1408 C 0.93160 0.56924 0.34915
 H1409 H 0.93751 0.56330 0.36842
 C1410 C 0.91585 0.58506 0.29962
 C1411 C 0.93029 0.65289 0.43419
 H1412 H 0.93772 0.63441 0.44094
 C1413 C 0.91037 0.70022 0.41615
 C1414 C 1.06947 0.35031 0.43220
 H1415 H 1.06255 0.36901 0.43889
 C1416 C 1.08882 0.30290 0.41362
 C1417 C 1.15376 0.43663 0.43085
 H1418 H 1.13657 0.44498 0.43968
 C1419 C 1.19710 0.41411 0.40685
 C1420 C 0.84712 0.56645 0.43363
 H1421 H 0.86619 0.56011 0.43995
 C1422 C 0.79824 0.58351 0.41673
 C1423 C 1.06710 0.57212 0.34796
 H1424 H 1.05856 0.56299 0.36484
 C1425 C 1.09043 0.59704 0.30562
 C1426 C 0.93446 0.43470 0.34684
 H1427 H 0.94133 0.44168 0.36541
 C1428 C 0.91608 0.41597 0.29913
 C1429 C 1.15244 0.57159 0.43354
 H1430 H 1.13375 0.56460 0.44025
 C1431 C 1.20013 0.59040 0.41543
 C1432 C 0.84789 0.43191 0.43162
 H1433 H 0.86326 0.44220 0.44163
 C1434 C 0.80982 0.40409 0.40445
 C1435 C 1.06650 0.65551 0.43351
 H1436 H 1.05727 0.63915 0.44296
 C1437 C 1.09158 0.69634 0.40785
 C1438 C 0.93531 0.35004 0.43204
 H1439 H 0.94404 0.36702 0.44083
 C1440 C 0.91131 0.30752 0.40807
 O1441 O 0.47530 0.90866 0.37014
 O1442 O 0.47534 0.87833 0.33998
 C1443 C 0.46605 0.89915 0.34940
 C1444 C 0.44367 0.91189 0.33663
 C1445 C 0.43119 0.89978 0.31569
 H1446 H 0.43840 0.88141 0.30840
 O1447 O 0.52326 1.09821 0.37055
 O1448 O 0.52285 1.12873 0.34056
 C1449 C 0.53232 1.10789 0.34978
 C1450 C 0.55510 1.09566 0.33712
 C1451 C 0.56766 1.10823 0.31645
 H1452 H 0.55945 1.12579 0.30825
 O1453 O 0.37211 0.97562 0.40576
 O1454 O 0.34140 0.97527 0.37592
 C1455 C 0.35127 0.96612 0.39657
 C1456 C 0.33901 0.94346 0.40930
 C1457 C 0.31744 0.93133 0.39782
 H1458 H 0.30893 0.93917 0.38026
 O1459 O 0.62783 1.02929 0.40582
 O1460 O 0.65853 1.02965 0.37596
 C1461 C 0.64905 1.03830 0.39700
 C1462 C 0.66228 1.05970 0.41087
 C1463 C 0.68580 1.06984 0.40151
 H1464 H 0.69507 1.06128 0.38468
 O1465 O 0.40945 0.87117 0.47524
 O1466 O 0.37990 0.84016 0.47519
 C1467 C 0.40093 0.84972 0.46652
 C1468 C 0.41503 0.83636 0.44533
 C1469 C 0.40691 0.81184 0.43663
 H1470 H 0.39136 0.80181 0.44665
 O1471 O 0.59112 1.13268 0.47427
 O1472 O 0.62128 1.16309 0.47455
 C1473 C 0.60045 1.15366 0.46527
 C1474 C 0.58788 1.16649 0.44284
 C1475 C 0.60094 1.18645 0.42968
 H1476 H 0.61941 1.19361 0.43685
 O1477 O 0.40556 1.02786 0.37044
 O1478 O 0.37489 1.02746 0.34058
 C1479 C 0.39584 1.03681 0.34965
 C1480 C 0.40862 1.05882 0.33635
 C1481 C 0.39818 1.06903 0.31335
 H1482 H 0.38116 1.06026 0.30460
 O1483 O 0.59236 0.97959 0.36902
 O1484 O 0.62263 0.98015 0.33877
 C1485 C 0.60142 0.97122 0.34770
 C1486 C 0.58747 0.95030 0.33372
 C1487 C 0.59474 0.94304 0.30849
 H1488 H 0.60991 0.95367 0.29852
 O1489 O 0.52702 0.87380 0.40481
 O1490 O 0.52745 0.84364 0.37447
 C1491 C 0.53621 0.85286 0.39557
 C1492 C 0.55770 0.83951 0.40922
 C1493 C 0.56761 0.81586 0.39993
 H1494 H 0.55910 0.80679 0.38300
 O1495 O 0.47135 1.13236 0.40593
 O1496 O 0.47061 1.16269 0.37578
 C1497 C 0.46149 1.15290 0.39648
 C1498 C 0.43816 1.16450 0.40877
 C1499 C 0.42383 1.18376 0.39575
 H1500 H 0.43086 1.19160 0.37756
 O1501 O 0.36903 1.09323 0.47614
 O1502 O 0.33789 1.12271 0.47677
 C1503 C 0.34746 1.10182 0.46774
 C1504 C 0.33407 1.08811 0.44636
 C1505 C 0.31035 1.09749 0.43663
 H1506 H 0.30069 1.11363 0.44607
 O1507 O 0.62923 0.91044 0.47402
 O1508 O 0.66030 0.88090 0.47395
 C1509 C 0.65064 0.90187 0.46519
 C1510 C 0.66407 0.91617 0.44414
 C1511 C 0.68912 0.90883 0.43609
 H1512 H 0.69915 0.89306 0.44578
 O1513 O 0.47249 1.09733 0.37021
 O1514 O 0.47202 1.12765 0.34003
 C1515 C 0.46340 1.10645 0.34920
 C1516 C 0.44184 1.09277 0.33598
 C1517 C 0.43119 1.10262 0.31291
 H1518 H 0.43942 1.11976 0.30392
 O1519 O 0.52608 0.90949 0.36941
 O1520 O 0.52624 0.87954 0.33888
 C1521 C 0.53481 0.90075 0.34811
 C1522 C 0.55533 0.91535 0.33421
 C1523 C 0.56346 0.90781 0.30935
 H1524 H 0.55481 0.89098 0.30019
 O1525 O 0.62781 0.97875 0.40503
 O1526 O 0.65834 0.97911 0.37504
 C1527 C 0.64916 0.97015 0.39607
 C1528 C 0.66325 0.94936 0.41017
 C1529 C 0.68830 0.94167 0.40240
 H1530 H 0.69767 0.95107 0.38610
 O1531 O 0.37053 1.02637 0.40648
 O1532 O 0.33981 1.02603 0.37666
 C1533 C 0.34908 1.03489 0.39769
 C1534 C 0.33522 1.05585 0.41164
 C1535 C 0.31194 1.06609 0.40172
 H1536 H 0.30367 1.05821 0.38408
 O1537 O 0.40335 1.12975 0.47451
 O1538 O 0.37218 1.15918 0.47504
 C1539 C 0.39301 1.15020 0.46532
 C1540 C 0.40451 1.16291 0.44226
 C1541 C 0.39037 1.18194 0.42875
 H1542 H 0.37156 1.18824 0.43585
 O1543 O 0.59458 0.87398 0.47372
 O1544 O 0.62550 0.84428 0.47342
 C1545 C 0.60419 0.85315 0.46465
 C1546 C 0.59085 0.83958 0.44317
 C1547 C 0.60040 0.81586 0.43370
 H1548 H 0.61704 0.80669 0.44281
 O1549 O 0.59253 1.03045 0.37044
 O1550 O 0.62321 1.03113 0.34059
 C1551 C 0.60224 1.04019 0.35000
 C1552 C 0.58965 1.06297 0.33768
 C1553 C 0.60231 1.07637 0.31762
 H1554 H 0.62095 1.06955 0.31055
 O1555 O 0.40701 0.97715 0.36985
 O1556 O 0.37628 0.97674 0.34003
 C1557 C 0.39761 0.96807 0.34897
 C1558 C 0.41073 0.94612 0.33587
 C1559 C 0.39917 0.93425 0.31425
 H1560 H 0.38189 0.94262 0.30560
 O1561 O 0.52252 1.13338 0.40614
 O1562 O 0.52205 1.16387 0.37613
 C1563 C 0.53149 1.15438 0.39684
 C1564 C 0.55419 1.16693 0.40932
 C1565 C 0.56778 1.18672 0.39633
 H1566 H 0.56085 1.19390 0.37784
 O1567 O 0.47641 0.87310 0.40532
 O1568 O 0.47675 0.84270 0.37522
 C1569 C 0.46785 0.85181 0.39632
 C1570 C 0.44707 0.83779 0.41038
 C1571 C 0.43786 0.81381 0.40129
 H1572 H 0.44585 0.80553 0.38370
 O1573 O 0.62682 1.09724 0.47454
 O1574 O 0.65693 1.12771 0.47481
 C1575 C 0.64792 1.10660 0.46580
 C1576 C 0.66165 1.09321 0.44443
 C1577 C 0.68514 1.10312 0.43470
 H1578 H 0.69382 1.12024 0.44329
 O1579 O 0.37363 0.90646 0.47397
 O1580 O 0.34405 0.87549 0.47356
 C1581 C 0.35306 0.89662 0.46456
 C1582 C 0.34001 0.90936 0.44235
 C1583 C 0.31852 0.89752 0.43044
 H1584 H 0.31076 0.87947 0.43797
 Cu1585 Cu 0.50126 0.89431 0.39043
 Cu1586 Cu 0.50154 0.85805 0.35404
 Cu1587 Cu 0.49743 1.11234 0.39127
 Cu1588 Cu 0.49681 1.14889 0.35521
 Cu1589 Cu 0.39190 1.00186 0.39112
 Cu1590 Cu 0.35499 1.00140 0.35531
 Cu1591 Cu 0.60703 1.00432 0.39051
 Cu1592 Cu 0.64368 1.00489 0.35449
 C1593 C 0.43327 0.93505 0.34664
 H1594 H 0.44219 0.94395 0.36344
 C1595 C 0.40871 0.91059 0.30471
 C1596 C 0.56607 1.07283 0.34737
 H1597 H 0.55665 1.06316 0.36348
 C1598 C 0.59169 1.09923 0.30724
 C1599 C 0.35005 0.93244 0.43171
 H1600 H 0.36697 0.94141 0.44043
 C1601 C 0.30742 0.90832 0.40815
 C1602 C 0.65051 1.07133 0.43255
 H1603 H 0.63216 1.06387 0.43965
 C1604 C 0.69734 1.09138 0.41343
 C1605 C 0.43554 0.84889 0.43245
 H1606 H 0.44195 0.86778 0.43909
 C1607 C 0.41830 0.80034 0.41469
 C1608 C 0.56436 1.15701 0.43265
 H1609 H 0.55450 1.14118 0.44235
 C1610 C 0.59138 1.19608 0.40616
 C1611 C 0.43059 1.07069 0.34738
 H1612 H 0.43846 1.06319 0.36535
 C1613 C 0.40949 1.09074 0.30154
 C1614 C 0.56739 0.93667 0.34616
 H1615 H 0.56166 0.94219 0.36559
 C1616 C 0.58259 0.92200 0.29602
 C1617 C 0.56933 0.85110 0.43097
 H1618 H 0.56208 0.86957 0.43796
 C1619 C 0.58906 0.80413 0.41194
 C1620 C 0.42841 1.15433 0.43214
 H1621 H 0.43905 1.13912 0.44204
 C1622 C 0.39965 1.19203 0.40528
 C1623 C 0.34612 1.06698 0.43399
 H1624 H 0.36452 1.05977 0.44126
 C1625 C 0.29960 1.08709 0.41390
 C1626 C 0.65142 0.93665 0.43122
 H1627 H 0.63200 0.94226 0.43714
 C1628 C 0.70142 0.92168 0.41548
 O1629 O 0.52829 0.90808 0.62995
 O1630 O 0.52890 0.87752 0.65989
 C1631 C 0.53766 0.89864 0.65070
 C1632 C 0.55934 0.91213 0.66385
 C1633 C 0.57006 0.90212 0.68679
 H1634 H 0.56216 0.88463 0.69538
 O1635 O 0.47373 1.09296 0.63048
 O1636 O 0.47310 1.12316 0.66076
 C1637 C 0.46465 1.10189 0.65157
 C1638 C 0.44340 1.08792 0.66502
 C1639 C 0.43316 1.09764 0.68828
 H1640 H 0.44165 1.11468 0.69723
 O1641 O 0.37050 1.02464 0.59484
 O1642 O 0.33992 1.02413 0.62479
 C1643 C 0.34933 1.03343 0.60401
 C1644 C 0.33592 1.05508 0.59067
 C1645 C 0.31210 1.06456 0.60007
 H1646 H 0.30314 1.05578 0.61693
 O1647 O 0.62938 0.97836 0.59344
 O1648 O 0.66025 0.97866 0.62312
 C1649 C 0.65069 0.96959 0.60228
 C1650 C 0.66385 0.94785 0.58887
 C1651 C 0.68624 0.93658 0.59965
 H1652 H 0.69479 0.94456 0.61711
 O1653 O 0.59423 0.87378 0.52429
 O1654 O 0.62486 0.84378 0.52396
 C1655 C 0.60357 0.85262 0.53288
 C1656 C 0.58980 0.83856 0.55388
 C1657 C 0.59841 0.81404 0.56220
 H1658 H 0.61488 0.80483 0.55284
 O1659 O 0.40521 1.12989 0.52545
 O1660 O 0.37431 1.15959 0.52602
 C1661 C 0.39572 1.15072 0.53461
 C1662 C 0.40898 1.16389 0.55645
 C1663 C 0.39857 1.18674 0.56712
 H1664 H 0.38209 1.19613 0.55795
 O1665 O 0.40542 0.97307 0.62955
 O1666 O 0.37498 0.97233 0.65964
 C1667 C 0.39611 0.96360 0.65030
 C1668 C 0.41020 0.94232 0.66359
 C1669 C 0.40041 0.93103 0.68642
 H1670 H 0.38146 0.93700 0.69331
 O1671 O 0.59364 1.02791 0.63017
 O1672 O 0.62434 1.02834 0.66003
 C1673 C 0.60278 1.03666 0.65130
 C1674 C 0.58839 1.05717 0.66537
 C1675 C 0.59583 1.06480 0.69042
 H1676 H 0.61162 1.05481 0.70013
 O1677 O 0.47635 0.87351 0.59542
 O1678 O 0.47668 0.84297 0.62538
 C1679 C 0.46751 0.85236 0.60452
 C1680 C 0.44623 0.83875 0.59077
 C1681 C 0.43753 0.81436 0.59930
 H1682 H 0.44641 0.80525 0.61605
 O1683 O 0.52336 1.12986 0.59478
 O1684 O 0.52298 1.15999 0.62512
 C1685 C 0.53198 1.15103 0.60399
 C1686 C 0.55334 1.16480 0.59051
 C1687 C 0.56445 1.18716 0.60147
 H1688 H 0.55679 1.19511 0.61935
 O1689 O 0.37195 0.90664 0.52460
 O1690 O 0.34216 0.87588 0.52427
 C1691 C 0.35079 0.89720 0.53313
 C1692 C 0.33668 0.91068 0.55424
 C1693 C 0.31292 0.90097 0.56355
 H1694 H 0.30399 0.88426 0.55443
 O1695 O 0.62708 1.09745 0.52512
 O1696 O 0.65713 1.12797 0.52523
 C1697 C 0.64818 1.10676 0.53399
 C1698 C 0.66209 1.09313 0.55513
 C1699 C 0.68637 1.10213 0.56384
 H1700 H 0.69543 1.11877 0.55470
 O1701 O 0.52448 1.09487 0.63077
 O1702 O 0.52381 1.12491 0.66121
 C1703 C 0.53320 1.10411 0.65189
 C1704 C 0.55468 1.09060 0.66544
 C1705 C 0.56295 1.09860 0.69013
 H1706 H 0.55366 1.11500 0.69947
 O1707 O 0.47767 0.90911 0.63090
 O1708 O 0.47817 0.87878 0.66107
 C1709 C 0.46926 0.90002 0.65218
 C1710 C 0.44762 0.91335 0.66571
 C1711 C 0.43948 0.90512 0.69030
 H1712 H 0.45222 0.89253 0.70126
 O1713 O 0.62864 1.02903 0.59397
 O1714 O 0.65956 1.02948 0.62359
 C1715 C 0.64980 1.03823 0.60272
 C1716 C 0.66286 1.05967 0.58874
 C1717 C 0.68712 1.06893 0.59712
 H1718 H 0.69682 1.05993 0.61347
 O1719 O 0.37051 0.97408 0.59358
 O1720 O 0.33990 0.97343 0.62351
 C1721 C 0.34932 0.96499 0.60235
 C1722 C 0.33605 0.94378 0.58823
 C1723 C 0.31242 0.93367 0.59736
 H1724 H 0.30320 0.94201 0.61431
 O1725 O 0.59046 1.13206 0.52506
 O1726 O 0.62050 1.16259 0.52536
 C1727 C 0.59951 1.15306 0.53422
 C1728 C 0.58619 1.16587 0.55620
 C1729 C 0.59684 1.18830 0.56737
 H1730 H 0.61401 1.19720 0.55904
 O1731 O 0.40871 0.87225 0.52585
 O1732 O 0.37903 0.84136 0.52569
 C1733 C 0.39981 0.85109 0.53482
 C1734 C 0.41342 0.83799 0.55646
 C1735 C 0.40524 0.81347 0.56508
 H1736 H 0.38939 0.80360 0.55537
 O1737 O 0.59506 0.97740 0.62986
 O1738 O 0.62587 0.97780 0.65960
 C1739 C 0.60486 0.96848 0.65064
 C1740 C 0.59210 0.94647 0.66395
 C1741 C 0.60250 0.93625 0.68696
 H1742 H 0.61944 0.94511 0.69577
 O1743 O 0.40592 1.02383 0.63036
 O1744 O 0.37551 1.02334 0.66048
 C1745 C 0.39662 1.03247 0.65147
 C1746 C 0.41002 1.05404 0.66502
 C1747 C 0.39995 1.06425 0.68821
 H1748 H 0.38282 1.05572 0.69699
 O1749 O 0.47258 1.12879 0.59529
 O1750 O 0.47208 1.15904 0.62552
 C1751 C 0.46320 1.14964 0.60455
 C1752 C 0.44133 1.16275 0.59120
 C1753 C 0.42995 1.18498 0.60209
 H1754 H 0.43743 1.19278 0.62010
 O1755 O 0.52700 0.87314 0.59389
 O1756 O 0.52741 0.84241 0.62365
 C1757 C 0.53580 0.85174 0.60243
 C1758 C 0.55650 0.83803 0.58781
 C1759 C 0.56524 0.81340 0.59565
 H1760 H 0.55631 0.80376 0.61206
 O1761 O 0.62927 0.90992 0.52468
 O1762 O 0.65997 0.88000 0.52461
 C1763 C 0.65043 0.90087 0.53365
 C1764 C 0.66360 0.91416 0.55543
 C1765 C 0.68596 0.90321 0.56658
 H1766 H 0.69426 0.88555 0.55869
 O1767 O 0.37001 1.09387 0.52661
 O1768 O 0.33906 1.12354 0.52713
 C1769 C 0.34883 1.10263 0.53583
 C1770 C 0.33569 1.08878 0.55729
 C1771 C 0.31174 1.09777 0.56682
 H1772 H 0.30235 1.11439 0.55795
 Cu1773 Cu 0.50230 0.89402 0.60956
 Cu1774 Cu 0.50282 0.85736 0.64553
 Cu1775 Cu 0.49863 1.10859 0.60981
 Cu1776 Cu 0.49791 1.14485 0.64616
 Cu1777 Cu 0.39390 0.89223 0.49997
 Cu1778 Cu 0.35827 0.85516 0.49968
 Cu1779 Cu 0.60874 0.89501 0.49919
 Cu1780 Cu 0.64578 0.85929 0.49896
 Cu1781 Cu 0.39009 1.10880 0.50068
 Cu1782 Cu 0.35285 1.14433 0.50137
 Cu1783 Cu 0.60582 1.11182 0.49975
 Cu1784 Cu 0.64188 1.14849 0.50004
 Cu1785 Cu 0.39117 0.99894 0.60912
 Cu1786 Cu 0.35452 0.99826 0.64515
 Cu1787 Cu 0.60859 1.00322 0.60889
 Cu1788 Cu 0.64568 1.00372 0.64452
 C1789 C 0.57033 0.93446 0.65273
 H1790 H 0.56241 0.94204 0.63481
 C1791 C 0.59146 0.91423 0.69852
 C1792 C 0.43189 1.06592 0.65370
 H1793 H 0.43943 1.05857 0.63552
 C1794 C 0.41125 1.08620 0.69967
 C1795 C 0.34749 1.06722 0.56915
 H1796 H 0.36607 1.06032 0.56204
 C1797 C 0.29980 1.08566 0.58803
 C1798 C 0.65277 0.93663 0.56658
 H1799 H 0.63518 0.94486 0.55844
 C1800 C 0.69702 0.91410 0.58882
 C1801 C 0.56867 0.85025 0.56666
 H1802 H 0.56224 0.86936 0.56068
 C1803 C 0.58608 0.80135 0.58287
 C1804 C 0.43068 1.15229 0.56839
 H1805 H 0.43877 1.13460 0.56040
 C1806 C 0.40843 1.19691 0.59037
 C1807 C 0.43339 0.93269 0.65297
 H1808 H 0.44008 0.93985 0.63440
 C1809 C 0.41488 0.91222 0.70020
 C1810 C 0.56749 1.06985 0.65329
 H1811 H 0.56162 1.06399 0.63401
 C1812 C 0.58299 1.08529 0.70310
 C1813 C 0.43413 0.85034 0.56925
 H1814 H 0.44048 0.86930 0.56276
 C1815 C 0.41738 0.80146 0.58626
 C1816 C 0.56423 1.15441 0.56774
 H1817 H 0.55621 1.13681 0.55953
 C1818 C 0.58637 1.19865 0.59018
 C1819 C 0.34790 0.93229 0.56652
 H1820 H 0.36642 0.93963 0.55973
 C1821 C 0.30095 0.91216 0.58529
 C1822 C 0.65062 1.07173 0.56755
 H1823 H 0.63176 1.06490 0.56118
 C1824 C 0.69902 1.08995 0.58462
 O1825 O 0.47582 0.40681 0.87139
 O1826 O 0.47601 0.37674 0.84098
 C1827 C 0.46708 0.39784 0.85021
 C1828 C 0.44579 0.41172 0.83665
 C1829 C 0.43581 0.40221 0.81316
 H1830 H 0.44419 0.38506 0.80431
 O1831 O 0.52476 0.59928 0.87338
 O1832 O 0.52440 0.62993 0.84353
 C1833 C 0.53387 0.60908 0.85270
 C1834 C 0.55583 0.59606 0.83946
 C1835 C 0.56841 0.60775 0.81821
 H1836 H 0.56255 0.62701 0.81221
 O1837 O 0.37240 0.47550 0.90631
 O1838 O 0.34196 0.47545 0.87620
 C1839 C 0.35135 0.46644 0.89714
 C1840 C 0.33815 0.44475 0.91065
 C1841 C 0.31392 0.43558 0.90204
 H1842 H 0.30421 0.44485 0.88585
 O1843 O 0.62588 0.52884 0.90598
 O1844 O 0.65601 0.52982 0.87558
 C1845 C 0.64678 0.53825 0.89682
 C1846 C 0.66020 0.55963 0.91061
 C1847 C 0.68365 0.56960 0.90091
 H1848 H 0.69258 0.56105 0.88390
 O1849 O 0.40851 0.37027 0.97499
 O1850 O 0.37860 0.33960 0.97545
 C1851 C 0.39969 0.34880 0.96661
 C1852 C 0.41369 0.33491 0.94575
 C1853 C 0.40605 0.30991 0.93803
 H1854 H 0.39069 0.30000 0.94845
 O1855 O 0.59238 0.63259 0.97677
 O1856 O 0.62286 0.66270 0.97691
 C1857 C 0.60176 0.65362 0.96790
 C1858 C 0.58877 0.66695 0.94602
 C1859 C 0.60117 0.68771 0.93345
 H1860 H 0.61953 0.69509 0.94067
 O1861 O 0.40744 0.52697 0.87150
 O1862 O 0.37727 0.52693 0.84112
 C1863 C 0.39827 0.53595 0.85048
 C1864 C 0.41185 0.55753 0.83719
 C1865 C 0.40349 0.56620 0.81278
 H1866 H 0.38752 0.55655 0.80304
 O1867 O 0.59169 0.47740 0.87012
 O1868 O 0.62196 0.47830 0.83985
 C1869 C 0.60128 0.46861 0.84919
 C1870 C 0.58916 0.44592 0.83647
 C1871 C 0.60102 0.43438 0.81482
 H1872 H 0.61780 0.44342 0.80590
 O1873 O 0.52618 0.37100 0.90709
 O1874 O 0.52642 0.34058 0.87701
 C1875 C 0.53516 0.34985 0.89812
 C1876 C 0.55643 0.33640 0.91210
 C1877 C 0.56568 0.31218 0.90359
 H1878 H 0.55685 0.30285 0.88696
 O1879 O 0.47266 0.63240 0.90895
 O1880 O 0.47181 0.66307 0.87914
 C1881 C 0.46301 0.65322 0.89995
 C1882 C 0.44077 0.66554 0.91340
 C1883 C 0.42991 0.68870 0.90399
 H1884 H 0.43830 0.69825 0.88725
 O1885 O 0.36947 0.59215 0.97734
 O1886 O 0.33830 0.62159 0.97786
 C1887 C 0.34796 0.60075 0.96881
 C1888 C 0.33457 0.58688 0.94751
 C1889 C 0.30950 0.59431 0.93965
 H1890 H 0.29922 0.60930 0.95023
 O1891 O 0.63031 0.40898 0.97310
 O1892 O 0.66100 0.37909 0.97216
 C1893 C 0.65120 0.40002 0.96347
 C1894 C 0.66370 0.41370 0.94143
 C1895 C 0.68611 0.40348 0.92958
 H1896 H 0.69495 0.38586 0.93694
 O1897 O 0.47408 0.59737 0.87301
 O1898 O 0.47354 0.62782 0.84296
 C1899 C 0.46521 0.60637 0.85185
 C1900 C 0.44456 0.59202 0.83788
 C1901 C 0.43583 0.60045 0.81349
 H1902 H 0.44460 0.61725 0.80437
 O1903 O 0.52654 0.40631 0.87157
 O1904 O 0.52700 0.37602 0.84137
 C1905 C 0.53586 0.39703 0.85075
 C1906 C 0.55774 0.41038 0.83780
 C1907 C 0.57050 0.39865 0.81681
 H1908 H 0.56394 0.37999 0.80966
 O1909 O 0.62735 0.47811 0.90538
 O1910 O 0.65752 0.47925 0.87502
 C1911 C 0.64860 0.46978 0.89593
 C1912 C 0.66254 0.44810 0.90869
 C1913 C 0.68508 0.43770 0.89733
 H1914 H 0.69305 0.44624 0.87986
 O1915 O 0.37154 0.52615 0.90673
 O1916 O 0.34117 0.52618 0.87655
 C1917 C 0.35022 0.53484 0.89776
 C1918 C 0.33602 0.55534 0.91214
 C1919 C 0.31137 0.56382 0.90391
 H1920 H 0.30269 0.55559 0.88663
 O1921 O 0.40384 0.62891 0.97690
 O1922 O 0.37279 0.65847 0.97739
 C1923 C 0.39399 0.64981 0.96819
 C1924 C 0.40696 0.66379 0.94671
 C1925 C 0.39639 0.68698 0.93698
 H1926 H 0.37912 0.69531 0.94571
 O1927 O 0.59531 0.37245 0.97474
 O1928 O 0.62591 0.34244 0.97437
 C1929 C 0.60430 0.35113 0.96616
 C1930 C 0.58993 0.33684 0.94577
 C1931 C 0.59835 0.31225 0.93749
 H1932 H 0.61453 0.30282 0.94714
 O1933 O 0.59010 0.52818 0.87037
 O1934 O 0.62024 0.52894 0.83997
 C1935 C 0.59900 0.53737 0.84931
 C1936 C 0.58570 0.55944 0.83657
 C1937 C 0.59555 0.56970 0.81343
 H1938 H 0.60958 0.55841 0.80260
 O1939 O 0.40801 0.47624 0.87094
 O1940 O 0.37773 0.47613 0.84068
 C1941 C 0.39892 0.46733 0.84986
 C1942 C 0.41261 0.44586 0.83642
 C1943 C 0.40307 0.43613 0.81285
 H1944 H 0.38636 0.44509 0.80368
 O1945 O 0.52353 0.63380 0.90934
 O1946 O 0.52293 0.66445 0.87950
 C1947 C 0.53230 0.65495 0.90023
 C1948 C 0.55470 0.66771 0.91295
 C1949 C 0.56754 0.68834 0.90058
 H1950 H 0.56016 0.69604 0.88247
 O1951 O 0.47555 0.37051 0.90613
 O1952 O 0.47568 0.34023 0.87592
 C1953 C 0.46678 0.34936 0.89698
 C1954 C 0.44588 0.33553 0.91100
 C1955 C 0.43727 0.31097 0.90284
 H1956 H 0.44571 0.30207 0.88578
 O1957 O 0.62711 0.59637 0.97613
 O1958 O 0.65758 0.62647 0.97621
 C1959 C 0.64806 0.60563 0.96699
 C1960 C 0.66094 0.59251 0.94487
 C1961 C 0.68428 0.60230 0.93466
 H1962 H 0.69352 0.61901 0.94347
 O1963 O 0.37351 0.40650 0.97398
 O1964 O 0.34347 0.37596 0.97404
 C1965 C 0.35255 0.39707 0.96503
 C1966 C 0.33888 0.41063 0.94368
 C1967 C 0.31474 0.40165 0.93466
 H1968 H 0.30561 0.38496 0.94361
 Cu1969 Cu 0.50094 0.39168 0.89207
 Cu1970 Cu 0.50126 0.35541 0.85571
 Cu1971 Cu 0.49875 0.61268 0.89418
 Cu1972 Cu 0.49796 0.64948 0.85834
 Cu1973 Cu 0.39287 0.50126 0.89188
 Cu1974 Cu 0.35652 0.50120 0.85557
 Cu1975 Cu 0.60568 0.50309 0.89098
 Cu1976 Cu 0.64193 0.50428 0.85454
 C1977 C 0.43416 0.43370 0.84802
 H1978 H 0.44138 0.44083 0.86641
 C1979 C 0.41433 0.41415 0.80141
 C1980 C 0.56520 0.57229 0.84897
 H1981 H 0.55697 0.56408 0.86647
 C1982 C 0.58872 0.59484 0.80509
 C1983 C 0.35033 0.43229 0.93165
 H1984 H 0.36911 0.43910 0.93827
 C1985 C 0.30215 0.41419 0.91407
 C1986 C 0.64909 0.57107 0.93275
 H1987 H 0.63082 0.56369 0.94016
 C1988 C 0.69551 0.59109 0.91259
 C1989 C 0.43399 0.34727 0.93249
 H1990 H 0.44003 0.36651 0.93844
 C1991 C 0.41787 0.29767 0.91671
 C1992 C 0.56536 0.65727 0.93580
 H1993 H 0.55602 0.64086 0.94503
 C1994 C 0.59100 0.69797 0.91044
 C1995 C 0.43260 0.57038 0.84944
 H1996 H 0.43896 0.56399 0.86841
 C1997 C 0.41556 0.58742 0.80075
 C1998 C 0.56726 0.43399 0.84756
 H1999 H 0.55809 0.44268 0.86435
 C2000 C 0.59237 0.41031 0.80550
 C2001 C 0.56867 0.34852 0.93324
 H2002 H 0.56218 0.36755 0.93941
 C2003 C 0.58680 0.30014 0.91600
 C2004 C 0.42929 0.65335 0.93494
 H2005 H 0.43732 0.63528 0.94211
 C2006 C 0.40790 0.69955 0.91582
 C2007 C 0.34741 0.56699 0.93398
 H2008 H 0.36671 0.56109 0.94002
 C2009 C 0.29764 0.58275 0.91800
 C2010 C 0.65217 0.43615 0.93091
 H2011 H 0.63456 0.44384 0.93951
 C2012 C 0.69669 0.41534 0.90748
 O2013 O 0.53016 0.40655 1.13012
 O2014 O 0.53038 0.37556 1.15964
 C2015 C 0.53973 0.39644 1.15047
 C2016 C 0.56273 0.40843 1.16283
 C2017 C 0.57713 0.39465 1.18144
 H2018 H 0.57085 0.37549 1.18742
 O2019 O 0.47521 0.59194 1.13147
 O2020 O 0.47496 0.62187 1.16201
 C2021 C 0.46637 0.60070 1.15274
 C2022 C 0.44480 0.58702 1.16601
 C2023 C 0.43350 0.59783 1.18828
 H2024 H 0.44211 0.61482 1.19720
 O2025 O 0.37097 0.52362 1.09618
 O2026 O 0.34066 0.52284 1.12640
 C2027 C 0.34981 0.53224 1.10555
 C2028 C 0.33625 0.55400 1.09249
 C2029 C 0.31325 0.56438 1.10296
 H2030 H 0.30474 0.55600 1.12025
 O2031 O 0.63080 0.47597 1.09398
 O2032 O 0.66165 0.47628 1.12369
 C2033 C 0.65208 0.46716 1.10287
 C2034 C 0.66520 0.44530 1.08958
 C2035 C 0.68633 0.43277 1.10144
 H2036 H 0.69386 0.43977 1.11978
 O2037 O 0.59686 0.37352 1.02524
 O2038 O 0.62787 0.34389 1.02490
 C2039 C 0.60698 0.35300 1.03447
 C2040 C 0.59496 0.34026 1.05723
 C2041 C 0.60832 0.32050 1.07047
 H2042 H 0.62708 0.31390 1.06352
 O2043 O 0.40496 0.62825 1.02754
 O2044 O 0.37401 0.65792 1.02808
 C2045 C 0.39536 0.64900 1.03678
 C2046 C 0.40840 0.66203 1.05882
 C2047 C 0.39730 0.68421 1.07016
 H2048 H 0.38044 0.69326 1.06136
 O2049 O 0.40683 0.47234 1.13050
 O2050 O 0.37658 0.47123 1.16075
 C2051 C 0.39768 0.46264 1.15121
 C2052 C 0.41176 0.44105 1.16408
 C2053 C 0.40140 0.42862 1.18608
 H2054 H 0.38236 0.43429 1.19301
 O2055 O 0.59497 0.52577 1.13042
 O2056 O 0.62587 0.52644 1.16004
 C2057 C 0.60438 0.53491 1.15125
 C2058 C 0.59084 0.55648 1.16459
 C2059 C 0.60112 0.56718 1.18742
 H2060 H 0.61782 0.55824 1.19662
 O2061 O 0.47809 0.37272 1.09474
 O2062 O 0.47810 0.34191 1.12440
 C2063 C 0.46908 0.35154 1.10358
 C2064 C 0.44760 0.33822 1.08978
 C2065 C 0.43838 0.31408 1.09855
 H2066 H 0.44714 0.30487 1.11530
 O2067 O 0.52394 0.62980 1.09546
 O2068 O 0.52334 0.66004 1.12570
 C2069 C 0.53220 0.65122 1.10448
 C2070 C 0.55286 0.66553 1.09047
 C2071 C 0.56066 0.69038 1.09854
 H2072 H 0.55108 0.69967 1.11479
 O2073 O 0.37221 0.40663 1.02453
 O2074 O 0.34204 0.37621 1.02455
 C2075 C 0.35095 0.39750 1.03316
 C2076 C 0.33692 0.41129 1.05407
 C2077 C 0.31213 0.40304 1.06191
 H2078 H 0.30251 0.38745 1.05158
 O2079 O 0.62841 0.59639 1.02684
 O2080 O 0.65872 0.62663 1.02697
 C2081 C 0.64968 0.60540 1.03560
 C2082 C 0.66377 0.59129 1.05632
 C2083 C 0.68848 0.59961 1.06452
 H2084 H 0.69763 0.61621 1.05540
 O2085 O 0.52604 0.59377 1.13038
 O2086 O 0.52581 0.62395 1.16069
 C2087 C 0.53526 0.60325 1.15116
 C2088 C 0.55761 0.59045 1.16400
 C2089 C 0.56892 0.60152 1.18615
 H2090 H 0.56105 0.61934 1.19411
 O2091 O 0.47930 0.40808 1.13079
 O2092 O 0.47956 0.37738 1.16058
 C2093 C 0.47076 0.39875 1.15192
 C2094 C 0.44904 0.41179 1.16558
 C2095 C 0.44014 0.40215 1.18937
 H2096 H 0.45223 0.38854 1.19984
 O2097 O 0.63039 0.52667 1.09465
 O2098 O 0.66145 0.52703 1.12412
 C2099 C 0.65165 0.53578 1.10328
 C2100 C 0.66477 0.55717 1.08928
 C2101 C 0.68952 0.56567 1.09704
 H2102 H 0.69953 0.55604 1.11283
 O2103 O 0.37167 0.47313 1.09475
 O2104 O 0.34119 0.47224 1.12482
 C2105 C 0.35051 0.46399 1.10354
 C2106 C 0.33697 0.44326 1.08902
 C2107 C 0.31259 0.43409 1.09718
 H2108 H 0.30353 0.44217 1.11433
 O2109 O 0.59206 0.63147 1.02728
 O2110 O 0.62215 0.66194 1.02747
 C2111 C 0.60098 0.65264 1.03617
 C2112 C 0.58670 0.66616 1.05714
 C2113 C 0.59417 0.69103 1.06542
 H2114 H 0.61019 0.70091 1.05601
 O2115 O 0.40923 0.37247 1.02546
 O2116 O 0.37920 0.34192 1.02586
 C2117 C 0.40026 0.35144 1.03463
 C2118 C 0.41414 0.33817 1.05602
 C2119 C 0.40545 0.31398 1.06496
 H2120 H 0.38904 0.30456 1.05572
 O2121 O 0.59690 0.47506 1.13083
 O2122 O 0.62781 0.47560 1.16047
 C2123 C 0.60695 0.46602 1.15145
 C2124 C 0.59518 0.44300 1.16395
 C2125 C 0.60869 0.42948 1.18343
 H2126 H 0.62656 0.43737 1.19128
 O2127 O 0.40697 0.52323 1.13108
 O2128 O 0.37675 0.52248 1.16139
 C2129 C 0.39763 0.53194 1.15213
 C2130 C 0.41062 0.55397 1.16533
 C2131 C 0.39900 0.56585 1.18695
 H2132 H 0.38083 0.55842 1.19453
 O2133 O 0.47312 0.62777 1.09637
 O2134 O 0.47258 0.65767 1.12694
 C2135 C 0.46349 0.64832 1.10604
 C2136 C 0.44106 0.66108 1.09327
 C2137 C 0.42890 0.68252 1.10494
 H2138 H 0.43616 0.68999 1.12319
 O2139 O 0.52902 0.37230 1.09393
 O2140 O 0.52903 0.34147 1.12361
 C2141 C 0.53815 0.35121 1.10290
 C2142 C 0.56081 0.33887 1.09019
 C2143 C 0.57410 0.31858 1.10266
 H2144 H 0.56643 0.31032 1.12040
 O2145 O 0.63179 0.40918 1.02397
 O2146 O 0.66271 0.37949 1.02312
 C2147 C 0.65309 0.40012 1.03262
 C2148 C 0.66593 0.41274 1.05503
 C2149 C 0.68719 0.40065 1.06717
 H2150 H 0.69544 0.38303 1.05915
 O2151 O 0.36977 0.59241 1.02801
 O2152 O 0.33882 0.62208 1.02843
 C2153 C 0.34863 0.60124 1.03726
 C2154 C 0.33575 0.58768 1.05906
 C2155 C 0.31279 0.59774 1.06984
 H2156 H 0.30382 0.61492 1.06161
 Cu2157 Cu 0.50399 0.39301 1.10943
 Cu2158 Cu 0.50404 0.35598 1.14504
 Cu2159 Cu 0.49966 0.60782 1.11036
 Cu2160 Cu 0.49915 0.64386 1.14692
 Cu2161 Cu 0.39386 0.39203 0.99968
 Cu2162 Cu 0.35781 0.35537 1.00003
 Cu2163 Cu 0.61053 0.39406 0.99915
 Cu2164 Cu 0.64752 0.35830 0.99839
 Cu2165 Cu 0.39012 0.60747 1.00235
 Cu2166 Cu 0.35289 0.64300 1.00294
 Cu2167 Cu 0.60697 0.61117 1.00185
 Cu2168 Cu 0.64340 0.64743 1.00203
 Cu2169 Cu 0.39219 0.49812 1.11017
 Cu2170 Cu 0.35583 0.49707 1.14647
 Cu2171 Cu 0.61013 0.50090 1.10955
 Cu2172 Cu 0.64729 0.50152 1.14507
 C2173 C 0.57197 0.43254 1.15415
 H2174 H 0.56154 0.44276 1.13902
 C2175 C 0.60036 0.40482 1.19150
 C2176 C 0.43349 0.56478 1.15494
 H2177 H 0.44198 0.55645 1.13762
 C2178 C 0.41006 0.58807 1.19820
 C2179 C 0.34721 0.56565 1.07038
 H2180 H 0.36516 0.55804 1.06243
 C2181 C 0.30147 0.58616 1.09165
 C2182 C 0.65519 0.43522 1.06627
 H2183 H 0.63842 0.44433 1.05738
 C2184 C 0.69704 0.41028 1.09057
 C2185 C 0.57122 0.34937 1.06728
 H2186 H 0.56127 0.36526 1.05774
 C2187 C 0.59824 0.30996 1.09342
 C2188 C 0.43058 0.65089 1.07027
 H2189 H 0.43924 0.63374 1.06170
 C2190 C 0.40682 0.69396 1.09373
 C2191 C 0.43523 0.43191 1.15354
 H2192 H 0.44241 0.43997 1.13552
 C2193 C 0.41533 0.40877 1.19889
 C2194 C 0.56877 0.56799 1.15329
 H2195 H 0.56073 0.55988 1.13566
 C2196 C 0.59084 0.59021 1.19780
 C2197 C 0.43545 0.35004 1.06836
 H2198 H 0.44214 0.36882 1.06171
 C2199 C 0.41754 0.30180 1.08604
 C2200 C 0.56582 0.65374 1.06959
 H2201 H 0.56014 0.63443 1.06351
 C2202 C 0.58102 0.70334 1.08586
 C2203 C 0.34892 0.43179 1.06737
 H2204 H 0.36806 0.43823 1.06141
 C2205 C 0.29976 0.41442 1.08334
 C2206 C 0.65219 0.56991 1.06869
 H2207 H 0.63300 0.56361 1.06276
 C2208 C 0.70157 0.58664 1.08458
 C2209 C 1.13503 1.11132 1.25355
 C2210 C 1.11702 1.11764 1.27362
 C2211 C 1.09032 1.11602 1.26834
 C2212 C 1.08125 1.10615 1.24496
 C2213 C 1.09843 1.09836 1.22534
 C2214 C 1.12568 1.10167 1.22927
 C2215 C 1.16195 1.11650 1.25614
 C2216 C 1.17943 1.11004 1.23659
 C2217 C 1.17045 1.09980 1.21341
 C2218 C 1.14388 1.09676 1.20927
 H2219 H 1.16987 1.12638 1.27278
 H2220 H 1.20000 1.11366 1.23917
 H2221 H 1.18411 1.09512 1.19816
 H2222 H 1.13801 1.09117 1.19000
 H2223 H 1.07622 1.12103 1.28312
 H2224 H 1.06045 1.10403 1.24242
 C2225 C 1.08799 0.60416 0.77410
 C2226 C 1.11388 0.61329 0.77588
 C2227 C 1.13009 0.61216 0.75416
 C2228 C 1.12082 0.60298 0.73055
 C2229 C 1.09507 0.59447 0.72798
 C2230 C 1.07849 0.59452 0.75000
 C2231 C 1.07160 0.60370 0.79601
 C2232 C 1.04630 0.59416 0.79419
 C2233 C 1.03702 0.58459 0.77072
 C2234 C 1.05294 0.58454 0.74884
 H2235 H 1.07827 0.61032 0.81475
 H2236 H 1.03391 0.59391 0.81115
 H2237 H 1.01746 0.57692 0.76952
 H2238 H 1.04514 0.57628 0.73122
 H2239 H 1.14997 0.61896 0.75546
 H2240 H 1.13376 0.60292 0.71398
 C2241 C 0.58350 1.10552 0.77506
 C2242 C 0.61040 1.11159 0.77799
 C2243 C 0.62731 1.10675 0.75718
 C2244 C 0.61800 1.09837 0.73333
 C2245 C 0.59149 1.09353 0.72945
 C2246 C 0.57406 1.09629 0.75066
 C2247 C 0.56619 1.10612 0.79636
 C2248 C 0.54015 1.09924 0.79348
 C2249 C 0.53093 1.09069 0.76967
 C2250 C 0.54770 1.08877 0.74857
 H2251 H 0.57261 1.11085 0.81569
 H2252 H 0.52720 1.09993 0.81000
 H2253 H 0.51080 1.08486 0.76771
 H2254 H 0.53987 1.08064 0.73093
 H2255 H 0.64788 1.11090 0.75893
 H2256 H 0.63168 1.09611 0.71752
 C2257 C 0.64020 0.61901 1.24599
 C2258 C 0.62324 0.62433 1.26716
 C2259 C 0.59643 0.62054 1.26397
 C2260 C 0.58653 0.60938 1.24155
 C2261 C 0.60287 0.60265 1.22089
 C2262 C 0.62985 0.60847 1.22255
 C2263 C 0.66676 0.62608 1.24670
 C2264 C 0.68291 0.62197 1.22541
 C2265 C 0.67285 0.61164 1.20265
 C2266 C 0.64657 0.60534 1.20100
 H2267 H 0.67523 0.63577 1.26322
 H2268 H 0.70320 0.62747 1.22634
 H2269 H 0.68536 0.60907 1.18597
 H2270 H 0.63950 0.59877 1.18242
 H2271 H 0.58312 0.62480 1.27968
 H2272 H 0.56584 0.60552 1.24053
 C2273 C 0.90683 0.86892 1.26080
 C2274 C 0.88865 0.88347 1.27604
 C2275 C 0.88152 0.90812 1.26636
 C2276 C 0.89009 0.91695 1.24231
 C2277 C 0.90406 0.90078 1.22537
 C2278 C 0.91053 0.87541 1.23422
 C2279 C 0.92275 0.84908 1.27107
 C2280 C 0.93570 0.83180 1.25473
 C2281 C 0.93359 0.83455 1.22798
 C2282 C 0.92117 0.85630 1.21769
 H2283 H 0.92597 0.84726 1.29169
 H2284 H 0.94706 0.81607 1.26282
 H2285 H 0.94264 0.82052 1.21523
 H2286 H 0.92047 0.85829 1.19683
 H2287 H 0.86941 0.92127 1.27724
 H2288 H 0.88543 0.93674 1.23702
 C2289 C 0.90706 0.36597 0.75758
 C2290 C 0.88805 0.37953 0.77266
 C2291 C 0.88176 0.40492 0.76439
 C2292 C 0.89129 0.41506 0.74122
 C2293 C 0.90562 0.39971 0.72383
 C2294 C 0.91192 0.37392 0.73158
 C2295 C 0.92248 0.34561 0.76752
 C2296 C 0.93629 0.32928 0.75089
 C2297 C 0.93541 0.33347 0.72427
 C2298 C 0.92335 0.35570 0.71457
 H2299 H 0.92454 0.34261 0.78816
 H2300 H 0.94728 0.31312 0.75865
 H2301 H 0.94506 0.32013 0.71121
 H2302 H 0.92347 0.35868 0.69383
 H2303 H 0.86952 0.41756 0.77572
 H2304 H 0.88695 0.43515 0.73686
 C2305 C 0.40709 0.86916 0.76085
 C2306 C 0.38821 0.88337 0.77536
 C2307 C 0.38021 0.90745 0.76526
 C2308 C 0.38944 0.91658 0.74156
 C2309 C 0.40474 0.90090 0.72523
 C2310 C 0.41171 0.87574 0.73443
 C2311 C 0.42225 0.84909 0.77172
 C2312 C 0.43609 0.83203 0.75589
 C2313 C 0.43536 0.83505 0.72910
 C2314 C 0.42325 0.85676 0.71835
 H2315 H 0.42403 0.84682 0.79247
 H2316 H 0.44696 0.81617 0.76439
 H2317 H 0.44503 0.82112 0.71670
 H2318 H 0.42325 0.85864 0.69748
 H2319 H 0.36682 0.91978 0.77565
 H2320 H 0.38415 0.93613 0.73604
 C2321 C 0.40385 0.36002 1.25444
 C2322 C 0.38503 0.37348 1.26984
 C2323 C 0.37965 0.39942 1.26267
 C2324 C 0.38995 0.41038 1.24023
 C2325 C 0.40431 0.39553 1.22247
 C2326 C 0.40973 0.36921 1.22905
 C2327 C 0.41819 0.33852 1.26360
 C2328 C 0.43197 0.32270 1.24648
 C2329 C 0.43219 0.32850 1.22014
 C2330 C 0.42122 0.35165 1.21139
 H2331 H 0.41945 0.33421 1.28407
 H2332 H 0.44212 0.30572 1.25360
 H2333 H 0.44186 0.31562 1.20664
 H2334 H 0.42218 0.35582 1.19088
 H2335 H 0.36745 0.41186 1.27424
 H2336 H 0.38621 0.43076 1.23669
 C2337 C 0.87604 1.14390 0.75958
 C2338 C 0.87042 1.12794 0.73773
 C2339 C 0.87405 1.10100 0.73988
 C2340 C 0.88540 1.09011 0.76178
 C2341 C 0.89276 1.10555 0.78286
 C2342 C 0.88712 1.13258 0.78234
 C2343 C 0.86883 1.17040 0.76020
 C2344 C 0.87370 1.18566 0.78194
 C2345 C 0.88490 1.17474 0.80388
 C2346 C 0.89107 1.14842 0.80437
 H2347 H 0.85849 1.17948 0.74441
 H2348 H 0.86819 1.20595 0.78199
 H2349 H 0.88825 1.18662 0.82083
 H2350 H 0.89827 1.14062 0.82244
 H2351 H 0.86961 1.08834 0.72372
 H2352 H 0.88911 1.06941 0.76197
 C2353 C 0.89916 0.58713 0.22718
 C2354 C 0.88848 0.61242 0.22563
 C2355 C 0.88797 0.62815 0.24770
 C2356 C 0.89711 0.61898 0.27138
 C2357 C 0.90720 0.59382 0.27366
 C2358 C 0.90873 0.57775 0.25137
 C2359 C 0.90128 0.57129 0.20500
 C2360 C 0.91251 0.54668 0.20661
 C2361 C 0.92206 0.53758 0.23017
 C2362 C 0.92027 0.55290 0.25237
 H2363 H 0.89469 0.57789 0.18621
 H2364 H 0.91410 0.53474 0.18943
 H2365 H 0.93115 0.51865 0.23119
 H2366 H 0.92840 0.54525 0.27014
 H2367 H 0.88002 0.64760 0.24658
 H2368 H 0.89599 0.63153 0.28819
 C2369 C 0.39898 1.11111 0.23101
 C2370 C 0.37485 1.12424 0.23345
 C2371 C 0.36228 1.12489 0.25749
 C2372 C 0.37367 1.11364 0.27925
 C2373 C 0.39804 1.10157 0.27760
 C2374 C 0.41082 1.09993 0.25334
 C2375 C 0.41125 1.10822 0.20672
 C2376 C 0.43502 1.09532 0.20462
 C2377 C 0.44681 1.08478 0.22651
 C2378 C 0.43482 1.08686 0.25065
 H2379 H 0.40247 1.11541 0.18910
 H2380 H 0.44423 1.09331 0.18587
 H2381 H 0.46519 1.07468 0.22472
 H2382 H 0.44437 1.07789 0.26706
 H2383 H 0.34373 1.13467 0.25944
 H2384 H 0.36361 1.11474 0.29766
 C2385 C 0.41175 0.60714 0.72916
 C2386 C 0.38590 0.61667 0.72835
 C2387 C 0.37038 0.61529 0.75055
 C2388 C 0.38029 0.60554 0.77368
 C2389 C 0.40605 0.59677 0.77530
 C2390 C 0.42195 0.59713 0.75283
 C2391 C 0.42741 0.60661 0.70671
 C2392 C 0.45271 0.59689 0.70766
 C2393 C 0.46273 0.58720 0.73078
 C2394 C 0.44752 0.58710 0.75315
 H2395 H 0.42017 0.61324 0.68819
 H2396 H 0.46452 0.59662 0.69029
 H2397 H 0.48230 0.57946 0.73131
 H2398 H 0.45587 0.57876 0.77049
 H2399 H 0.35053 0.62233 0.75000
 H2400 H 0.36786 0.60520 0.79064
 C2401 C 1.13226 0.88233 0.75228
 C2402 C 1.11705 0.88420 0.72946
 C2403 C 1.09211 0.89500 0.73071
 C2404 C 1.08235 0.90470 0.75393
 C2405 C 1.09728 0.90387 0.77660
 C2406 C 1.12234 0.89231 0.77606
 C2407 C 1.15676 0.86998 0.75214
 C2408 C 1.17142 0.86799 0.77479
 C2409 C 1.16183 0.87788 0.79800
 C2410 C 1.13747 0.88977 0.79878
 H2411 H 1.16465 0.86138 0.73473
 H2412 H 1.19020 0.85850 0.77439
 H2413 H 1.17321 0.87607 0.81556
 H2414 H 1.13054 0.89658 0.81736
 H2415 H 1.08028 0.89619 0.71338
 H2416 H 1.06309 0.91324 0.75417
 C2417 C 1.14278 0.38238 0.25843
 C2418 C 1.12741 0.37933 0.23588
 C2419 C 1.10139 0.38717 0.23606
 C2420 C 1.09054 0.39859 0.25796
 C2421 C 1.10538 0.40235 0.28042
 C2422 C 1.13169 0.39386 0.28099
 C2423 C 1.16873 0.37350 0.25923
 C2424 C 1.18360 0.37620 0.28167
 C2425 C 1.17281 0.38737 0.30374
 C2426 C 1.14703 0.39581 0.30363
 H2427 H 1.17766 0.36417 0.24270
 H2428 H 1.20352 0.36939 0.28202
 H2429 H 1.18443 0.38932 0.32112
 H2430 H 1.13930 0.40355 0.32151
 H2431 H 1.08951 0.38464 0.21891
 H2432 H 1.07040 0.40476 0.25733
 C2433 C 0.58260 0.89963 0.22472
 C2434 C 0.60965 0.89448 0.22146
 C2435 C 0.62680 0.90118 0.24156
 C2436 C 0.61764 0.91023 0.26524
 C2437 C 0.59101 0.91390 0.26958
 C2438 C 0.57329 0.90956 0.24889
 C2439 C 0.56490 0.89731 0.20387
 C2440 C 0.53865 0.90326 0.20703
 C2441 C 0.52956 0.91252 0.23063
 C2442 C 0.54668 0.91608 0.25124
 H2443 H 0.57115 0.89191 0.18464
 H2444 H 0.52539 0.90127 0.19085
 H2445 H 0.50925 0.91761 0.23279
 H2446 H 0.53890 0.92469 0.26869
 H2447 H 0.64749 0.89779 0.23956
 H2448 H 0.63155 0.91370 0.28063
 C2449 C 0.64519 0.37874 0.76299
 C2450 C 0.62982 0.37212 0.74096
 C2451 C 0.60288 0.37647 0.74184
 C2452 C 0.59141 0.38899 0.76271
 C2453 C 0.60620 0.39696 0.78402
 C2454 C 0.63323 0.39116 0.78472
 C2455 C 0.67159 0.37125 0.76495
 C2456 C 0.68620 0.37713 0.78692
 C2457 C 0.67471 0.38974 0.80778
 C2458 C 0.64842 0.39621 0.80701
 H2459 H 0.68107 0.35994 0.75009
 H2460 H 0.70642 0.37135 0.78802
 H2461 H 0.68609 0.39397 0.82491
 H2462 H 0.64014 0.40456 0.82435
 H2463 H 0.59069 0.37140 0.72549
 H2464 H 0.57070 0.39289 0.76202
 C2465 C 1.23542 1.13372 1.13887
 C2466 C 1.25939 1.13437 1.12516
 C2467 C 1.26032 1.12475 1.09974
 C2468 C 1.23897 1.11229 1.08884
 C2469 C 1.21564 1.10993 1.10258
 C2470 C 1.21329 1.12173 1.12729
 C2471 C 1.23235 1.14679 1.16274
 C2472 C 1.20812 1.14810 1.17481
 C2473 C 1.18653 1.13659 1.16337
 C2474 C 1.18903 1.12320 1.14005
 H2475 H 1.24827 1.15708 1.17175
 H2476 H 1.20599 1.15853 1.19289
 H2477 H 1.16766 1.13822 1.17252
 H2478 H 1.17161 1.11498 1.13166
 H2479 H 1.27825 1.12559 1.08875
 H2480 H 1.24077 1.10407 1.06959
 C2481 C 1.27409 0.61082 0.58588
 C2482 C 1.27695 0.61503 0.61305
 C2483 C 1.25634 0.60825 0.62954
 C2484 C 1.23268 0.59977 0.61973
 C2485 C 1.22881 0.59674 0.59303
 C2486 C 1.24989 0.60151 0.57585
 C2487 C 1.29536 0.61343 0.56869
 C2488 C 1.29253 0.60860 0.54227
 C2489 C 1.26887 0.60007 0.53251
 C2490 C 1.24791 0.59601 0.54909
 H2491 H 1.31464 0.61824 0.57541
 H2492 H 1.30899 0.61089 0.52939
 H2493 H 1.26691 0.59595 0.51206
 H2494 H 1.23048 0.58789 0.54071
 H2495 H 1.25799 0.61103 0.65028
 H2496 H 1.21698 0.59602 0.63322
 C2497 C 0.77074 1.10976 0.58995
 C2498 C 0.77066 1.12038 0.61527
 C2499 C 0.74769 1.12019 0.62979
 C2500 C 0.72478 1.11023 0.61950
 C2501 C 0.72414 1.10006 0.59435
 C2502 C 0.74728 1.09950 0.57937
 C2503 C 0.79383 1.10832 0.57528
 C2504 C 0.79376 1.09735 0.55057
 C2505 C 0.77087 1.08734 0.54021
 C2506 C 0.74783 1.08825 0.55443
 H2507 H 0.81216 1.11524 0.58285
 H2508 H 0.81163 1.09634 0.53952
 H2509 H 0.77103 1.07855 0.52118
 H2510 H 0.73064 1.07975 0.54585
 H2511 H 0.74751 1.12816 0.64921
 H2512 H 0.70728 1.11067 0.63119
 C2513 C 0.77385 0.60528 1.08679
 C2514 C 0.77549 0.61427 1.11268
 C2515 C 0.75353 0.61316 1.12863
 C2516 C 0.72989 0.60408 1.11917
 C2517 C 0.72747 0.59568 1.09344
 C2518 C 0.74966 0.59587 1.07706
 C2519 C 0.79596 0.60465 1.07063
 C2520 C 0.79423 0.59535 1.04531
 C2521 C 0.77065 0.58617 1.03578
 C2522 C 0.74858 0.58619 1.05148
 H2523 H 0.81481 0.61091 1.07746
 H2524 H 0.81136 0.59501 1.03311
 H2525 H 0.76952 0.57872 1.01619
 H2526 H 0.73087 0.57823 1.04347
 H2527 H 0.75470 0.61982 1.14850
 H2528 H 0.71318 0.60388 1.13197
 C2529 C 1.27410 0.91918 0.89603
 C2530 C 1.27634 0.89218 0.89032
 C2531 C 1.25470 0.87611 0.89478
 C2532 C 1.23110 0.88613 0.90307
 C2533 C 1.22804 0.91264 0.90797
 C2534 C 1.24976 0.92943 0.90493
 C2535 C 1.29591 0.93584 0.89530
 C2536 C 1.29361 0.96204 0.90167
 C2537 C 1.26985 0.97206 0.90974
 C2538 C 1.24821 0.95594 0.91177
 H2539 H 1.31515 0.92879 0.89077
 H2540 H 1.31052 0.97452 0.90087
 H2541 H 1.26832 0.99233 0.91508
 H2542 H 1.23054 0.96438 0.91936
 H2543 H 1.25555 0.85555 0.89052
 H2544 H 1.21482 0.87297 0.90529
 C2545 C 1.23496 0.36549 0.36539
 C2546 C 1.26041 0.37621 0.36737
 C2547 C 1.26365 0.40028 0.37969
 C2548 C 1.24297 0.41224 0.39242
 C2549 C 1.21825 0.40093 0.39255
 C2550 C 1.21376 0.37800 0.37809
 C2551 C 1.22971 0.34397 0.34923
 C2552 C 1.20444 0.33465 0.34623
 C2553 C 1.18386 0.34663 0.35901
 C2554 C 1.18839 0.36798 0.37493
 H2555 H 1.24477 0.33480 0.33785
 H2556 H 1.20073 0.31828 0.33362
 H2557 H 1.16425 0.33949 0.35638
 H2558 H 1.17172 0.37702 0.38402
 H2559 H 1.28272 0.40912 0.38079
 H2560 H 1.24637 0.43026 0.40269
 C2561 C 0.77425 0.91925 0.39873
 C2562 C 0.77588 0.89355 0.38908
 C2563 C 0.75353 0.87803 0.38871
 C2564 C 0.72975 0.88755 0.39735
 C2565 C 0.72746 0.91297 0.40664
 C2566 C 0.74983 0.92909 0.40755
 C2567 C 0.79653 0.93508 0.40063
 C2568 C 0.79475 0.96021 0.41052
 C2569 C 0.77094 0.96987 0.41902
 C2570 C 0.74868 0.95448 0.41777
 H2571 H 0.81551 0.92812 0.39488
 H2572 H 0.81200 0.97217 0.41182
 H2573 H 0.76977 0.98932 0.42688
 H2574 H 0.73074 0.96255 0.42516
 H2575 H 0.75452 0.85835 0.38140
 H2576 H 0.71288 0.87498 0.39658
 C2577 C 0.73739 0.36815 0.86705
 C2578 C 0.76222 0.38017 0.86908
 C2579 C 0.76412 0.40457 0.88101
 C2580 C 0.74273 0.41565 0.89340
 C2581 C 0.71861 0.40308 0.89350
 C2582 C 0.71544 0.37978 0.87930
 C2583 C 0.73345 0.34609 0.85124
 C2584 C 0.70869 0.33555 0.84801
 C2585 C 0.68737 0.34678 0.86023
 C2586 C 0.69062 0.36852 0.87593
 H2587 H 0.74914 0.33745 0.84030
 H2588 H 0.70597 0.31883 0.83560
 H2589 H 0.66814 0.33877 0.85731
 H2590 H 0.67340 0.37692 0.88459
 H2591 H 0.78272 0.41436 0.88214
 H2592 H 0.74513 0.43396 0.90344
 C2593 C 0.72524 0.91270 1.10152
 C2594 C 0.72390 0.88721 1.11174
 C2595 C 0.74592 0.87127 1.11097
 C2596 C 0.76942 0.88049 1.10127
 C2597 C 0.77158 0.90594 1.09193
 C2598 C 0.74927 0.92218 1.09153
 C2599 C 0.70299 0.92870 1.10033
 C2600 C 0.70445 0.95364 1.08995
 C2601 C 0.72791 0.96295 1.08024
 C2602 C 0.75011 0.94739 1.08080
 H2603 H 0.68422 0.92199 1.10699
 H2604 H 0.68723 0.96572 1.08918
 H2605 H 0.72885 0.98224 1.07196
 H2606 H 0.76773 0.95517 1.07241
 H2607 H 0.74496 0.85167 1.11851
 H2608 H 0.78625 0.86782 1.10154
 C2609 C 0.76329 0.35984 0.62454
 C2610 C 0.73962 0.37373 0.62635
 C2611 C 0.73806 0.39908 0.61681
 C2612 C 0.75937 0.41061 0.60486
 C2613 C 0.78290 0.39715 0.60227
 C2614 C 0.78523 0.37168 0.61256
 C2615 C 0.76578 0.33472 0.63511
 C2616 C 0.78939 0.32144 0.63382
 C2617 C 0.81094 0.33305 0.62235
 C2618 C 0.80904 0.35797 0.61195
 H2619 H 0.74968 0.32527 0.64475
 H2620 H 0.79106 0.30217 0.64203
 H2621 H 0.82930 0.32278 0.62172
 H2622 H 0.82647 0.36642 0.60383
 H2623 H 0.72001 0.40982 0.61836
 H2624 H 0.75744 0.43017 0.59736
 C2625 C 0.25133 0.86608 0.61628
 C2626 C 0.22908 0.88228 0.61592
 C2627 C 0.23101 0.90757 0.60630
 C2628 C 0.25442 0.91681 0.59641
 C2629 C 0.27664 0.90105 0.59599
 C2630 C 0.27538 0.87554 0.60634
 C2631 C 0.25034 0.84095 0.62708
 C2632 C 0.27250 0.82534 0.62787
 C2633 C 0.29604 0.83458 0.61830
 C2634 C 0.29762 0.85948 0.60780
 H2635 H 0.23260 0.83327 0.63532
 H2636 H 0.27146 0.80609 0.63621
 H2637 H 0.31324 0.82248 0.61924
 H2638 H 0.31647 0.86604 0.60124
 H2639 H 0.21409 0.92010 0.60623
 H2640 H 0.25519 0.93642 0.58885
 C2641 C 0.22938 0.40950 1.10833
 C2642 C 0.22826 0.38234 1.11350
 C2643 C 0.24926 0.36665 1.10592
 C2644 C 0.27192 0.37743 1.09605
 C2645 C 0.27426 0.40426 1.09241
 C2646 C 0.25252 0.42048 1.09761
 C2647 C 0.20736 0.42565 1.11151
 C2648 C 0.20847 0.45204 1.10565
 C2649 C 0.23114 0.46276 1.09567
 C2650 C 0.25283 0.44717 1.09126
 H2651 H 0.18877 0.41804 1.11755
 H2652 H 0.19144 0.46412 1.10831
 H2653 H 0.23173 0.48315 1.09069
 H2654 H 0.26948 0.45615 1.08218
 H2655 H 0.24888 0.34591 1.10935
 H2656 H 0.28816 0.36465 1.09195
 C2657 C 0.74977 1.11509 0.86568
 C2658 C 0.72818 1.11877 0.88262
 C2659 C 0.73154 1.11431 0.90924
 C2660 C 0.75462 1.10414 0.91891
 C2661 C 0.77566 1.09891 0.90253
 C2662 C 0.77374 1.10530 0.87579
 C2663 C 0.74892 1.12314 0.83948
 C2664 C 0.77053 1.12048 0.82340
 C2665 C 0.79371 1.11066 0.83317
 C2666 C 0.79552 1.10352 0.85914
 H2667 H 0.73205 1.13253 0.83128
 H2668 H 0.76948 1.12671 0.80339
 H2669 H 0.81060 1.10919 0.82072
 H2670 H 0.81437 1.09737 0.86606
 H2671 H 0.71556 1.11736 0.92258
 H2672 H 0.75588 1.09985 0.93943
 C2673 C 0.72689 0.58814 0.39553
 C2674 C 0.72637 0.61423 0.38695
 C2675 C 0.74862 0.62961 0.38933
 C2676 C 0.77156 0.61932 0.39924
 C2677 C 0.77290 0.59335 0.40724
 C2678 C 0.75032 0.57758 0.40586
 C2679 C 0.70436 0.57256 0.39473
 C2680 C 0.70496 0.54702 0.40368
 C2681 C 0.72779 0.53670 0.41388
 C2682 C 0.75026 0.55180 0.41518
 H2683 H 0.68606 0.58003 0.38757
 H2684 H 0.68753 0.53527 0.40296
 H2685 H 0.72804 0.51696 0.42107
 H2686 H 0.76735 0.54319 0.42386
 H2687 H 0.74826 0.64964 0.38295
 H2688 H 0.78860 0.63164 0.40030
 C2689 C 0.24887 1.13482 0.38677
 C2690 C 0.22759 1.11745 0.38322
 C2691 C 0.23150 1.09083 0.38738
 C2692 C 0.25483 1.08154 0.39732
 C2693 C 0.27555 1.09835 0.40254
 C2694 C 0.27309 1.12510 0.39628
 C2695 C 0.24745 1.16107 0.37884
 C2696 C 0.26880 1.17755 0.38129
 C2697 C 0.29225 1.16814 0.39084
 C2698 C 0.29458 1.14216 0.39793
 H2699 H 0.23033 1.16901 0.36969
 H2700 H 0.26732 1.19759 0.37513
 H2701 H 0.30893 1.18090 0.39215
 H2702 H 0.31359 1.13553 0.40391
 H2703 H 0.21575 1.07722 0.38430
 H2704 H 0.25655 1.06098 0.40146
 C2705 C 0.22633 0.58470 0.89479
 C2706 C 0.22350 0.61194 0.89067
 C2707 C 0.24401 0.62842 0.89782
 C2708 C 0.26759 0.61852 0.90651
 C2709 C 0.27148 0.59175 0.90933
 C2710 C 0.25047 0.57459 0.90423
 C2711 C 0.20509 0.56750 0.89193
 C2712 C 0.20791 0.54100 0.89655
 C2713 C 0.23154 0.53114 0.90513
 C2714 C 0.25245 0.54773 0.90950
 H2715 H 0.18583 0.57428 0.88708
 H2716 H 0.19148 0.52812 0.89404
 H2717 H 0.23349 0.51062 0.90905
 H2718 H 0.26984 0.53926 0.91767
 H2719 H 0.24239 0.64921 0.89514
 H2720 H 0.28325 0.63201 0.91051
 C2721 C 1.14126 1.23821 1.12537
 C2722 C 1.12689 1.26141 1.12876
 C2723 C 1.10069 1.26225 1.12154
 C2724 C 1.08881 1.24088 1.11009
 C2725 C 1.10278 1.21796 1.10563
 C2726 C 1.12912 1.21621 1.11383
 C2727 C 1.16727 1.23625 1.13386
 C2728 C 1.18116 1.21318 1.13078
 C2729 C 1.16934 1.19165 1.11956
 C2730 C 1.14350 1.19295 1.11141
 H2731 H 1.17696 1.25233 1.14324
 H2732 H 1.20112 1.21192 1.13734
 H2733 H 1.18019 1.17380 1.11731
 H2734 H 1.13494 1.17548 1.10356
 H2735 H 1.08956 1.27990 1.12424
 H2736 H 1.06865 1.24241 1.10416
 C2737 C 1.08292 0.77634 0.60256
 C2738 C 1.10894 0.77799 0.61142
 C2739 C 1.12497 0.75608 0.61032
 C2740 C 1.11550 0.73250 0.60129
 C2741 C 1.08969 0.73009 0.59294
 C2742 C 1.07318 0.75219 0.59319
 C2743 C 1.06665 0.79838 0.60206
 C2744 C 1.04121 0.79663 0.59286
 C2745 C 1.03167 0.77308 0.58369
 C2746 C 1.04748 0.75107 0.58362
 H2747 H 1.07350 0.81718 0.60836
 H2748 H 1.02892 0.81370 0.59260
 H2749 H 1.01199 0.77192 0.57632
 H2750 H 1.03946 0.73337 0.57571
 H2751 H 1.14492 0.75723 0.61696
 H2752 H 1.12837 0.71583 0.60110
 C2753 C 0.63680 1.24052 0.62513
 C2754 C 0.62327 1.26446 0.62568
 C2755 C 0.59795 1.26594 0.61591
 C2756 C 0.58618 1.24434 0.60474
 C2757 C 0.59944 1.22065 0.60314
 C2758 C 0.62480 1.21838 0.61378
 C2759 C 0.66171 1.23796 0.63631
 C2760 C 0.67470 1.21418 0.63595
 C2761 C 0.66302 1.19252 0.62483
 C2762 C 0.63825 1.19444 0.61400
 H2763 H 0.67122 1.25411 0.64575
 H2764 H 0.69382 1.21250 0.64458
 H2765 H 0.67310 1.17406 0.62484
 H2766 H 0.62969 1.17696 0.60617
 H2767 H 0.58743 1.28415 0.61661
 H2768 H 0.56671 1.24620 0.59692
 C2769 C 0.58254 0.77576 1.10358
 C2770 C 0.60816 0.77750 1.11351
 C2771 C 0.62414 0.75549 1.11338
 C2772 C 0.61500 0.73180 1.10423
 C2773 C 0.58956 0.72933 1.09484
 C2774 C 0.57312 0.75148 1.09417
 C2775 C 0.56638 0.79784 1.10196
 C2776 C 0.54133 0.79599 1.09177
 C2777 C 0.53208 0.77230 1.08266
 C2778 C 0.54781 0.75026 1.08361
 H2779 H 0.57301 0.81676 1.10814
 H2780 H 0.52912 0.81309 1.09068
 H2781 H 0.51271 0.77107 1.07453
 H2782 H 0.54006 0.73244 1.07569
 H2783 H 0.64382 0.75670 1.12075
 H2784 H 0.62782 0.71510 1.10476
 C2785 C 0.87811 1.26475 0.89592
 C2786 C 0.86490 1.25987 0.87231
 C2787 C 0.86512 1.23489 0.86174
 C2788 C 0.87791 1.21465 0.87438
 C2789 C 0.89098 1.21891 0.89782
 C2790 C 0.89116 1.24409 0.90885
 C2791 C 0.87918 1.28995 0.90659
 C2792 C 0.89244 1.29457 0.92970
 C2793 C 0.90508 1.27435 0.94243
 C2794 C 0.90462 1.24934 0.93212
 H2795 H 0.87002 1.30631 0.89715
 H2796 H 0.89306 1.31399 0.93770
 H2797 H 0.91546 1.27810 0.96029
 H2798 H 0.91506 1.23428 0.94241
 H2799 H 0.85540 1.23115 0.84350
 H2800 H 0.87758 1.19544 0.86588
 C2801 C 0.90223 0.77122 0.39560
 C2802 C 0.87681 0.77014 0.38509
 C2803 C 0.86278 0.74697 0.38611
 C2804 C 0.87389 0.72462 0.39654
 C2805 C 0.89935 0.72488 0.40628
 C2806 C 0.91364 0.74842 0.40630
 C2807 C 0.91633 0.79470 0.39617
 C2808 C 0.94124 0.79562 0.40682
 C2809 C 0.95240 0.77336 0.41733
 C2810 C 0.93875 0.74998 0.41727
 H2811 H 0.90815 0.81256 0.38874
 H2812 H 0.95184 0.81377 0.40713
 H2813 H 0.97164 0.77427 0.42578
 H2814 H 0.94795 0.73332 0.42616
 H2815 H 0.84325 0.74614 0.37827
 H2816 H 0.86270 0.70681 0.39659
 C2817 C 0.36146 1.22642 0.35121
 C2818 C 0.35602 1.25021 0.36378
 C2819 C 0.36343 1.25361 0.38966
 C2820 C 0.37711 1.23438 0.40282
 C2821 C 0.38371 1.21103 0.39055
 C2822 C 0.37516 1.20651 0.36475
 C2823 C 0.35308 1.22187 0.32561
 C2824 C 0.35800 1.19814 0.31355
 C2825 C 0.37104 1.17852 0.32682
 C2826 C 0.37942 1.18250 0.35222
 H2827 H 0.34237 1.23644 0.31490
 H2828 H 0.35142 1.19484 0.29389
 H2829 H 0.37455 1.16006 0.31745
 H2830 H 0.38890 1.16650 0.36197
 H2831 H 0.35943 1.27179 0.39942
 H2832 H 0.38323 1.23803 0.42257
 C2833 C 0.39792 0.76989 0.89416
 C2834 C 0.37308 0.76770 0.88252
 C2835 C 0.35989 0.74402 0.88319
 C2836 C 0.37134 0.72225 0.89445
 C2837 C 0.39628 0.72364 0.90534
 C2838 C 0.40967 0.74768 0.90565
 C2839 C 0.41110 0.79389 0.89502
 C2840 C 0.43546 0.79588 0.90673
 C2841 C 0.44698 0.77417 0.91798
 C2842 C 0.43423 0.75029 0.91763
 H2843 H 0.40262 0.81135 0.88699
 H2844 H 0.44536 0.81441 0.90725
 H2845 H 0.46580 0.77589 0.92723
 H2846 H 0.44365 0.73407 0.92709
 H2847 H 0.34077 0.74238 0.87456
 H2848 H 0.36086 0.70401 0.89425
 C2849 C 1.08958 0.72923 0.89662
 C2850 C 1.11525 0.72816 0.88673
 C2851 C 1.13083 0.75039 0.88740
 C2852 C 1.12112 0.77379 0.89681
 C2853 C 1.09553 0.77565 0.90598
 C2854 C 1.07960 0.75315 0.90636
 C2855 C 1.07388 0.70681 0.89777
 C2856 C 1.04877 0.70799 0.90791
 C2857 C 1.03900 0.73131 0.91743
 C2858 C 1.05425 0.75368 0.91689
 H2859 H 1.08094 0.68815 0.89126
 H2860 H 1.03694 0.69064 0.90865
 H2861 H 1.01959 0.73202 0.92553
 H2862 H 1.04610 0.77118 0.92514
 H2863 H 1.15056 0.74963 0.88009
 H2864 H 1.13357 0.79075 0.89657
 C2865 C 1.13489 0.25064 0.38639
 C2866 C 1.11712 0.22971 0.38403
 C2867 C 1.09095 0.23360 0.39027
 C2868 C 1.08228 0.25741 0.39963
 C2869 C 1.09951 0.27820 0.40314
 C2870 C 1.12613 0.27500 0.39628
 C2871 C 1.16104 0.24812 0.37839
 C2872 C 1.17860 0.26841 0.38170
 C2873 C 1.17029 0.29188 0.39205
 C2874 C 1.14421 0.29556 0.39841
 H2875 H 1.16820 0.23067 0.36923
 H2876 H 1.19871 0.26601 0.37597
 H2877 H 1.18408 0.30748 0.39477
 H2878 H 1.13855 0.31470 0.40482
 H2879 H 1.07721 0.21779 0.38835
 H2880 H 1.06192 0.25951 0.40465
 C2881 C 0.63504 0.75424 0.38133
 C2882 C 0.61898 0.73195 0.38238
 C2883 C 0.59367 0.73399 0.39206
 C2884 C 0.58432 0.75755 0.40144
 C2885 C 0.60001 0.77978 0.40129
 C2886 C 0.62549 0.77840 0.39081
 C2887 C 0.66013 0.75315 0.37032
 C2888 C 0.67562 0.77531 0.36897
 C2889 C 0.66632 0.79895 0.37817
 C2890 C 0.64145 0.80063 0.38883
 H2891 H 0.66788 0.73534 0.36235
 H2892 H 0.69485 0.77419 0.36049
 H2893 H 0.67834 0.81614 0.37682
 H2894 H 0.63481 0.81952 0.39511
 H2895 H 0.58123 0.71705 0.39258
 H2896 H 0.56473 0.75842 0.40913
 C2897 C 0.63141 0.24723 0.88788
 C2898 C 0.61376 0.22606 0.88743
 C2899 C 0.58801 0.22993 0.89526
 C2900 C 0.57973 0.25403 0.90434
 C2901 C 0.59698 0.27504 0.90602
 C2902 C 0.62311 0.27181 0.89760
 C2903 C 0.65695 0.24472 0.87810
 C2904 C 0.67448 0.26526 0.87958
 C2905 C 0.66668 0.28893 0.88985
 C2906 C 0.64109 0.29256 0.89797
 H2907 H 0.66366 0.22711 0.86893
 H2908 H 0.69416 0.26287 0.87251
 H2909 H 0.68047 0.30468 0.89123
 H2910 H 0.63573 0.31179 0.90436
 H2911 H 0.57434 0.21396 0.89470
 H2912 H 0.55970 0.25621 0.91049
 C2913 C 0.91385 0.72750 1.10268
 C2914 C 0.88913 0.72662 1.11469
 C2915 C 0.87437 0.74932 1.11687
 C2916 C 0.88399 0.77294 1.10796
 C2917 C 0.90864 0.77449 1.09649
 C2918 C 0.92369 0.75163 1.09340
 C2919 C 0.92864 0.70474 1.09900
 C2920 C 0.95261 0.70570 1.08640
 C2921 C 0.96215 0.72922 1.07711
 C2922 C 0.94794 0.75203 1.08057
 H2923 H 0.92164 0.68602 1.10543
 H2924 H 0.96372 0.68807 1.08356
 H2925 H 0.98055 0.72976 1.06694
 H2926 H 0.95591 0.76982 1.07277
 H2927 H 0.85535 0.74870 1.12586
 H2928 H 0.87219 0.79023 1.11018
 C2929 C 0.90932 0.23325 0.61167
 C2930 C 0.88311 0.23384 0.62003
 C2931 C 0.86842 0.25645 0.61680
 C2932 C 0.87949 0.27866 0.60613
 C2933 C 0.90556 0.27887 0.59817
 C2934 C 0.92066 0.25590 0.60052
 C2935 C 0.92425 0.21034 0.61344
 C2936 C 0.94988 0.20978 0.60464
 C2937 C 0.96095 0.23181 0.59361
 C2938 C 0.94651 0.25463 0.59135
 H2939 H 0.91620 0.19262 0.62129
 H2940 H 0.96113 0.19207 0.60612
 H2941 H 0.98075 0.23115 0.58653
 H2942 H 0.95568 0.27104 0.58203
 H2943 H 0.84829 0.25693 0.62295
 H2944 H 0.86766 0.29598 0.60431
 C2945 C 0.41445 0.72976 0.60632
 C2946 C 0.38820 0.72839 0.61449
 C2947 C 0.37224 0.75028 0.61230
 C2948 C 0.38204 0.77363 0.60298
 C2949 C 0.40813 0.77580 0.59540
 C2950 C 0.42453 0.75364 0.59663
 C2951 C 0.43067 0.70767 0.60684
 C2952 C 0.45639 0.70914 0.59843
 C2953 C 0.46625 0.73242 0.58895
 C2954 C 0.45050 0.75443 0.58776
 H2955 H 0.42358 0.68902 0.61336
 H2956 H 0.46865 0.69206 0.59899
 H2957 H 0.48613 0.73338 0.58222
 H2958 H 0.45881 0.77184 0.57953
 H2959 H 0.35210 0.74931 0.61838
 H2960 H 0.36924 0.79032 0.60203
 C2961 C 0.41011 0.23080 1.10736
 C2962 C 0.38404 0.23147 1.11619
 C2963 C 0.36975 0.25450 1.11428
 C2964 C 0.38101 0.27693 1.10444
 C2965 C 0.40692 0.27705 1.09606
 C2966 C 0.42168 0.25378 1.09715
 C2967 C 0.42463 0.20758 1.10774
 C2968 C 0.45014 0.20704 1.09858
 C2969 C 0.46148 0.22944 1.08858
 C2970 C 0.44740 0.25259 1.08765
 H2971 H 0.41634 0.18961 1.11471
 H2972 H 0.46109 0.18909 1.09899
 H2973 H 0.48119 0.22882 1.08125
 H2974 H 0.45676 0.26933 1.07914
 H2975 H 0.34980 0.25515 1.12097
 H2976 H 0.36945 0.29452 1.10362
 C2977 C 1.14232 1.12506 0.76158
 C2978 C 1.12667 1.13238 0.74002
 C2979 C 1.09958 1.12977 0.74179
 C2980 C 1.08811 1.11776 0.76301
 C2981 C 1.10312 1.10900 0.78391
 C2982 C 1.13037 1.11378 0.78389
 C2983 C 1.16920 1.13076 0.76239
 C2984 C 1.18408 1.12483 0.78418
 C2985 C 1.17245 1.11393 0.80590
 C2986 C 1.14585 1.10880 0.80601
 H2987 H 1.17889 1.14073 0.74672
 H2988 H 1.20464 1.12934 0.78445
 H2989 H 1.18399 1.10994 0.82299
 H2990 H 1.13757 1.10167 0.82387
 H2991 H 1.08725 1.13555 0.72577
 H2992 H 1.06726 1.11475 0.76280
 C2993 C 1.14121 0.63185 0.26346
 C2994 C 1.12626 0.63562 0.24051
 C2995 C 1.09975 0.62914 0.24078
 C2996 C 1.08866 0.61674 0.26198
 C2997 C 1.10337 0.61113 0.28410
 C2998 C 1.12960 0.61966 0.28546
 C2999 C 1.16667 0.64194 0.26588
 C3000 C 1.18068 0.63914 0.28884
 C3001 C 1.16949 0.62692 0.31009
 C3002 C 1.14414 0.61754 0.30863
 H3003 H 1.17569 0.65300 0.25055
 H3004 H 1.20014 0.64701 0.29032
 H3005 H 1.18031 0.62524 0.32801
 H3006 H 1.13591 0.60934 0.32607
 H3007 H 1.08784 0.63218 0.22373
 H3008 H 1.06845 0.61090 0.26086
 C3009 C 0.62775 1.15250 0.26896
 C3010 C 0.63392 1.13826 0.24604
 C3011 C 0.62729 1.11182 0.24490
 C3012 C 0.61349 1.09990 0.26470
 C3013 C 0.60612 1.11366 0.28685
 C3014 C 0.61364 1.14010 0.28943
 C3015 C 0.63718 1.17796 0.27307
 C3016 C 0.63129 1.19152 0.29570
 C3017 C 0.61679 1.17977 0.31512
 C3018 C 0.60859 1.15417 0.31241
 H3019 H 0.64994 1.18743 0.25944
 H3020 H 0.63845 1.21110 0.29839
 H3021 H 0.61236 1.19035 0.33266
 H3022 H 0.59878 1.14552 0.32877
 H3023 H 0.63169 1.10040 0.22785
 H3024 H 0.60819 1.07966 0.26252
 C3025 C 0.63793 0.60678 0.75051
 C3026 C 0.62434 0.62500 0.73460
 C3027 C 0.59919 0.63240 0.74254
 C3028 C 0.58798 0.62251 0.76507
 C3029 C 0.60235 0.60708 0.78236
 C3030 C 0.62870 0.60151 0.77598
 C3031 C 0.65989 0.59276 0.74193
 C3032 C 0.67583 0.57972 0.75954
 C3033 C 0.66969 0.57984 0.78579
 C3034 C 0.64619 0.59050 0.79403
 H3035 H 0.66449 0.59103 0.72158
 H3036 H 0.69313 0.56979 0.75283
 H3037 H 0.68259 0.57068 0.79964
 H3038 H 0.64165 0.58971 0.81449
 H3039 H 0.58758 0.64566 0.73122
 H3040 H 0.56782 0.62715 0.76885
 C3041 C 0.85554 0.87813 0.76348
 C3042 C 0.87066 0.87240 0.74125
 C3043 C 0.89718 0.87836 0.74107
 C3044 C 0.90875 0.89064 0.76209
 C3045 C 0.89420 0.89726 0.78408
 C3046 C 0.86735 0.89065 0.78513
 C3047 C 0.82908 0.87099 0.76492
 C3048 C 0.81427 0.87698 0.78672
 C3049 C 0.82565 0.88944 0.80774
 C3050 C 0.85205 0.89557 0.80736
 H3051 H 0.81964 0.86047 0.74944
 H3052 H 0.79392 0.87163 0.78746
 H3053 H 0.81406 0.89393 0.82466
 H3054 H 0.86019 0.90392 0.82476
 H3055 H 0.90886 0.87396 0.72416
 H3056 H 0.92925 0.89540 0.76102
 C3057 C 0.88538 0.40879 0.23132
 C3058 C 0.88221 0.38133 0.23063
 C3059 C 0.89250 0.36637 0.25089
 C3060 C 0.90339 0.37798 0.27261
 C3061 C 0.90562 0.40502 0.27450
 C3062 C 0.89750 0.42066 0.25326
 C3063 C 0.87882 0.42451 0.20982
 C3064 C 0.88291 0.45124 0.21032
 C3065 C 0.89449 0.46278 0.23173
 C3066 C 0.90221 0.44769 0.25277
 H3067 H 0.87137 0.41638 0.19204
 H3068 H 0.87764 0.46298 0.19373
 H3069 H 0.89804 0.48347 0.23178
 H3070 H 0.91250 0.45741 0.26823
 H3071 H 0.89054 0.34544 0.25072
 H3072 H 0.90950 0.36560 0.28846
 C3073 C 0.35606 0.87824 0.26275
 C3074 C 0.37129 0.87191 0.24058
 C3075 C 0.39819 0.87631 0.24122
 C3076 C 0.40972 0.88896 0.26200
 C3077 C 0.39503 0.89670 0.28349
 C3078 C 0.36813 0.89039 0.28453
 C3079 C 0.32970 0.87069 0.26474
 C3080 C 0.31536 0.87576 0.28710
 C3081 C 0.32706 0.88773 0.30821
 C3082 C 0.35323 0.89463 0.30719
 H3083 H 0.32008 0.85994 0.24955
 H3084 H 0.29520 0.86981 0.28828
 H3085 H 0.31595 0.89118 0.32569
 H3086 H 0.36170 0.90258 0.32462
 H3087 H 0.41020 0.87127 0.22472
 H3088 H 0.43035 0.89315 0.26107
 C3089 C 0.36750 0.38258 0.75307
 C3090 C 0.38309 0.38334 0.73048
 C3091 C 0.40841 0.39310 0.73181
 C3092 C 0.41823 0.40286 0.75499
 C3093 C 0.40301 0.40300 0.77751
 C3094 C 0.37753 0.39242 0.77684
 C3095 C 0.34240 0.37156 0.75265
 C3096 C 0.32738 0.37048 0.77512
 C3097 C 0.33717 0.38000 0.79839
 C3098 C 0.36205 0.39071 0.79939
 H3099 H 0.33429 0.36339 0.73512
 H3100 H 0.30814 0.36198 0.77452
 H3101 H 0.32551 0.37886 0.81583
 H3102 H 0.36906 0.39727 0.81802
 H3103 H 0.42049 0.39341 0.71462
 H3104 H 0.43780 0.41063 0.75533
 C3105 C 1.11724 0.90758 1.26912
 C3106 C 1.12197 0.88030 1.26888
 C3107 C 1.11383 0.86576 1.24739
 C3108 C 1.10345 0.87771 1.22564
 C3109 C 1.09976 0.90463 1.22476
 C3110 C 1.10590 0.91977 1.24693
 C3111 C 1.12140 0.92264 1.29164
 C3112 C 1.11583 0.94912 1.29192
 C3113 C 1.10518 0.96102 1.27020
 C3114 C 1.09985 0.94651 1.24806
 H3115 H 1.12802 0.91411 1.30958
 H3116 H 1.11923 0.96035 1.30932
 H3117 H 1.10043 0.98149 1.27073
 H3118 H 1.09030 0.95639 1.23222
 H3119 H 1.11703 0.84499 1.24672
 H3120 H 1.09874 0.86574 1.20903
 C3121 C 1.08733 0.39633 0.77304
 C3122 C 1.11447 0.39174 0.77629
 C3123 C 1.13151 0.39880 0.75625
 C3124 C 1.12220 0.40773 0.73261
 C3125 C 1.09551 0.41105 0.72829
 C3126 C 1.07786 0.40635 0.74898
 C3127 C 1.06967 0.39333 0.79383
 C3128 C 1.04333 0.39890 0.79075
 C3129 C 1.03411 0.40844 0.76730
 C3130 C 1.05117 0.41257 0.74674
 H3131 H 1.07602 0.38764 0.81295
 H3132 H 1.03010 0.39641 0.80687
 H3133 H 1.01372 0.41327 0.76521
 H3134 H 1.04326 0.42137 0.72944
 H3135 H 1.15226 0.39575 0.75827
 H3136 H 1.13606 0.41144 0.71723
 C3137 C 0.60249 0.88645 0.76659
 C3138 C 0.62822 0.87705 0.76358
 C3139 C 0.64150 0.88146 0.74034
 C3140 C 0.62939 0.89402 0.71977
 C3141 C 0.60361 0.90257 0.72179
 C3142 C 0.59002 0.89927 0.74549
 C3143 C 0.58918 0.88408 0.79037
 C3144 C 0.56395 0.89363 0.79315
 C3145 C 0.55169 0.90602 0.77252
 C3146 C 0.56459 0.90905 0.74894
 H3147 H 0.59822 0.87529 0.80713
 H3148 H 0.55395 0.89165 0.81150
 H3149 H 0.53220 0.91361 0.77489
 H3150 H 0.55460 0.91942 0.73367
 H3151 H 0.66126 0.87455 0.73798
 H3152 H 0.64005 0.89661 0.70185
 C3153 C 0.65648 0.36827 1.22523
 C3154 C 0.64318 0.35938 1.24778
 C3155 C 0.61636 0.36408 1.24994
 C3156 C 0.60320 0.37898 1.23175
 C3157 C 0.61601 0.38916 1.21010
 C3158 C 0.64276 0.38317 1.20622
 C3159 C 0.68240 0.36074 1.21997
 C3160 C 0.69497 0.36884 1.19746
 C3161 C 0.68180 0.38377 1.17929
 C3162 C 0.65584 0.39037 1.18322
 H3163 H 0.69301 0.34783 1.23262
 H3164 H 0.71489 0.36305 1.19384
 H3165 H 0.69158 0.38984 1.16177
 H3166 H 0.64614 0.40056 1.16770
 H3167 H 0.60567 0.35740 1.26674
 H3168 H 0.58274 0.38295 1.23486
 C3169 C 0.87175 1.14029 1.23620
 C3170 C 0.87119 1.12762 1.26054
 C3171 C 0.88139 1.10254 1.26291
 C3172 C 0.89298 1.09024 1.24185
 C3173 C 0.89463 1.10268 1.21780
 C3174 C 0.88356 1.12773 1.21460
 C3175 C 0.86013 1.16486 1.23270
 C3176 C 0.86051 1.17700 1.20854
 C3177 C 0.87208 1.16479 1.18742
 C3178 C 0.88335 1.14032 1.19027
 H3179 H 0.85033 1.17473 1.24840
 H3180 H 0.85154 1.19587 1.20613
 H3181 H 0.87209 1.17422 1.16866
 H3182 H 0.89151 1.13131 1.17318
 H3183 H 0.88076 1.09265 1.28142
 H3184 H 0.90114 1.07101 1.24444
 C3185 C 0.88538 0.63487 0.74987
 C3186 C 0.88207 0.61813 0.77142
 C3187 C 0.88817 0.59178 0.76900
 C3188 C 0.89832 0.58195 0.74602
 C3189 C 0.90265 0.59815 0.72463
 C3190 C 0.89582 0.62488 0.72628
 C3191 C 0.87779 0.66120 0.75102
 C3192 C 0.88166 0.67766 0.72995
 C3193 C 0.89226 0.66808 0.70711
 C3194 C 0.89851 0.64184 0.70491
 H3195 H 0.86858 0.66932 0.76799
 H3196 H 0.87614 0.69790 0.73125
 H3197 H 0.89533 0.68098 0.69086
 H3198 H 0.90523 0.63517 0.68623
 H3199 H 0.88549 0.57884 0.78532
 H3200 H 0.90328 0.56153 0.74506
 C3201 C 0.37954 1.13398 0.74701
 C3202 C 0.38047 1.11898 0.76997
 C3203 C 0.39008 1.09359 0.76911
 C3204 C 0.39962 1.08318 0.74609
 C3205 C 0.39966 1.09785 0.72323
 C3206 C 0.38910 1.12333 0.72339
 C3207 C 0.36862 1.15911 0.74694
 C3208 C 0.36732 1.17354 0.72411
 C3209 C 0.37652 1.16313 0.70097
 C3210 C 0.38717 1.13823 0.70047
 H3211 H 0.36071 1.16768 0.76437
 H3212 H 0.35888 1.19280 0.72432
 H3213 H 0.37519 1.17433 0.68325
 H3214 H 0.39347 1.13071 0.68195
 H3215 H 0.39049 1.08193 0.78657
 H3216 H 0.40742 1.06363 0.74617
 C3217 C 0.38059 0.64051 1.24250
 C3218 C 0.37486 0.62507 1.26467
 C3219 C 0.37828 0.59808 1.26321
 C3220 C 0.38954 0.58659 1.24158
 C3221 C 0.39680 0.60146 1.22007
 C3222 C 0.39122 0.62852 1.21989
 C3223 C 0.37385 0.66711 1.24141
 C3224 C 0.37826 0.68170 1.21909
 C3225 C 0.38863 0.67004 1.19712
 C3226 C 0.39471 0.64369 1.19730
 H3227 H 0.36420 0.67678 1.25728
 H3228 H 0.37296 0.70204 1.21862
 H3229 H 0.39142 0.68134 1.17965
 H3230 H 0.40139 0.63530 1.17930
 H3231 H 0.37364 0.58589 1.27967
 H3232 H 0.39317 0.56587 1.24190
 C3233 C 1.13155 1.24750 0.87741
 C3234 C 1.11745 1.27105 0.87927
 C3235 C 1.09271 1.27110 0.89054
 C3236 C 1.08217 1.24844 0.90086
 C3237 C 1.09609 1.22508 0.90015
 C3238 C 1.12082 1.22429 0.88795
 C3239 C 1.15577 1.24638 0.86462
 C3240 C 1.16932 1.22301 0.86260
 C3241 C 1.15891 1.20033 0.87294
 C3242 C 1.13483 1.20083 0.88537
 H3243 H 1.16426 1.26339 0.85573
 H3244 H 1.18789 1.22243 0.85273
 H3245 H 1.16942 1.18221 0.87110
 H3246 H 1.12722 1.18264 0.89258
 H3247 H 1.08172 1.28900 0.89176
 H3248 H 1.06315 1.24921 0.90986
 C3249 C 1.14275 0.73210 0.36746
 C3250 C 1.13156 0.75720 0.36713
 C3251 C 1.10752 0.76142 0.37914
 C3252 C 1.09480 0.74142 0.39206
 C3253 C 1.10576 0.71659 0.39331
 C3254 C 1.12973 0.71155 0.38061
 C3255 C 1.16622 0.72683 0.35433
 C3256 C 1.17676 0.70186 0.35430
 C3257 C 1.16407 0.68174 0.36714
 C3258 C 1.14074 0.68642 0.38012
 H3259 H 1.17640 0.74181 0.34371
 H3260 H 1.19475 0.69804 0.34410
 H3261 H 1.17226 0.66237 0.36687
 H3262 H 1.13129 0.67013 0.38942
 H3263 H 1.09877 0.78055 0.37879
 H3264 H 1.07638 0.74541 0.40146
 C3265 C 0.64626 1.22675 0.36638
 C3266 C 0.63604 1.25207 0.36322
 C3267 C 0.61138 1.25800 0.37303
 C3268 C 0.59711 1.23956 0.38668
 C3269 C 0.60711 1.21462 0.39087
 C3270 C 0.63171 1.20782 0.38032
 C3271 C 0.67026 1.21964 0.35519
 C3272 C 0.67985 1.19444 0.35784
 C3273 C 0.66567 1.17589 0.37142
 C3274 C 0.64177 1.18237 0.38246
 H3275 H 0.68158 1.23330 0.34398
 H3276 H 0.69826 1.18921 0.34911
 H3277 H 0.67310 1.15630 0.37318
 H3278 H 0.63113 1.16713 0.39220
 H3279 H 0.60336 1.27726 0.37039
 H3280 H 0.57824 1.24488 0.39438
 C3281 C 0.64375 0.73156 0.87013
 C3282 C 0.63252 0.75657 0.86783
 C3283 C 0.60802 0.76140 0.87864
 C3284 C 0.59487 0.74217 0.89229
 C3285 C 0.60585 0.71752 0.89555
 C3286 C 0.63032 0.71183 0.88409
 C3287 C 0.66766 0.72552 0.85812
 C3288 C 0.67837 0.70073 0.86025
 C3289 C 0.66534 0.68147 0.87397
 C3290 C 0.64144 0.68678 0.88558
 H3291 H 0.67809 0.73970 0.84670
 H3292 H 0.69676 0.69635 0.85100
 H3293 H 0.67365 0.66224 0.87545
 H3294 H 0.63172 0.67098 0.89539
 H3295 H 0.59925 0.78043 0.87681
 H3296 H 0.57608 0.74664 0.90068
 C3297 C 0.90409 1.26812 1.11530
 C3298 C 0.87730 1.26739 1.12248
 C3299 C 0.86253 1.24546 1.11589
 C3300 C 0.87405 1.22373 1.10482
 C3301 C 0.90067 1.22326 1.09915
 C3302 C 0.91583 1.24583 1.10366
 C3303 C 0.91892 1.29116 1.11722
 C3304 C 0.94492 1.29175 1.10961
 C3305 C 0.95650 1.26980 1.09903
 C3306 C 0.94208 1.24719 1.09565
 H3307 H 0.91051 1.30927 1.12357
 H3308 H 0.95597 1.30954 1.11137
 H3309 H 0.97657 1.27052 1.09274
 H3310 H 0.95157 1.23113 1.08605
 H3311 H 0.84206 1.24451 1.12077
 H3312 H 0.86210 1.20679 1.10122
 C3313 C 0.86559 0.73474 0.63810
 C3314 C 0.87096 0.75976 0.62826
 C3315 C 0.88754 0.76267 0.60700
 C3316 C 0.89924 0.74114 0.59562
 C3317 C 0.89463 0.71618 0.60528
 C3318 C 0.87759 0.71269 0.62657
 C3319 C 0.84816 0.73119 0.65888
 C3320 C 0.84258 0.70633 0.66804
 C3321 C 0.85429 0.68471 0.65677
 C3322 C 0.87183 0.68776 0.63637
 H3323 H 0.83855 0.74753 0.66795
 H3324 H 0.82904 0.70380 0.68390
 H3325 H 0.84977 0.66546 0.66388
 H3326 H 0.88044 0.67047 0.62808
 H3327 H 0.89152 0.78183 0.59934
 H3328 H 0.91212 0.74394 0.57924
 C3329 C 0.35912 1.24518 0.61930
 C3330 C 0.37613 1.26630 0.62476
 C3331 C 0.40293 1.26307 0.62086
 C3332 C 0.41277 1.24067 0.60955
 C3333 C 0.39638 1.22007 0.60271
 C3334 C 0.36941 1.22177 0.60853
 C3335 C 0.33258 1.24589 0.62646
 C3336 C 0.31640 1.22462 0.62221
 C3337 C 0.32638 1.20192 0.61160
 C3338 C 0.35265 1.20027 0.60518
 H3339 H 0.32417 1.26237 0.63630
 H3340 H 0.29613 1.22554 0.62779
 H3341 H 0.31384 1.18527 0.60889
 H3342 H 0.35967 1.18175 0.59831
 H3343 H 0.41628 1.27873 0.62517
 H3344 H 0.43346 1.23958 0.60570
 C3345 C 0.35504 0.73882 1.12385
 C3346 C 0.37095 0.76056 1.13010
 C3347 C 0.39792 0.75871 1.12650
 C3348 C 0.40896 0.73713 1.11466
 C3349 C 0.39365 0.71604 1.10693
 C3350 C 0.36655 0.71628 1.11246
 C3351 C 0.32844 0.73800 1.13077
 C3352 C 0.31330 0.71622 1.12551
 C3353 C 0.32444 0.69444 1.11419
 C3354 C 0.35084 0.69417 1.10818
 H3355 H 0.31915 0.75363 1.14118
 H3356 H 0.29294 0.71600 1.13084
 H3357 H 0.31268 0.67743 1.11061
 H3358 H 0.35878 0.67620 1.10086
 H3359 H 0.41044 0.77483 1.13154
 H3360 H 0.42972 0.73714 1.11105
 C3361 C 0.86648 0.75084 0.88724
 C3362 C 0.88319 0.72904 0.88482
 C3363 C 0.90952 0.73151 0.89114
 C3364 C 0.91936 0.75478 0.90068
 C3365 C 0.90314 0.77633 0.90431
 C3366 C 0.87643 0.77461 0.89735
 C3367 C 0.84028 0.74981 0.87906
 C3368 C 0.82382 0.77105 0.88232
 C3369 C 0.83329 0.79396 0.89291
 C3370 C 0.85945 0.79611 0.89959
 H3371 H 0.83226 0.73283 0.86977
 H3372 H 0.80367 0.76982 0.87636
 H3373 H 0.82037 0.81034 0.89550
 H3374 H 0.86610 0.81483 0.90629
 H3375 H 0.92247 0.71505 0.88907
 H3376 H 0.93978 0.75583 0.90576
 C3377 C 0.85923 0.26672 0.37385
 C3378 C 0.87330 0.24333 0.37049
 C3379 C 0.89934 0.24200 0.37819
 C3380 C 0.91134 0.26307 0.39005
 C3381 C 0.89766 0.28617 0.39449
 C3382 C 0.87149 0.28839 0.38589
 C3383 C 0.83344 0.26923 0.36484
 C3384 C 0.81982 0.29243 0.36804
 C3385 C 0.83172 0.31358 0.37986
 C3386 C 0.85739 0.31182 0.38839
 H3387 H 0.82370 0.25348 0.35498
 H3388 H 0.80000 0.29409 0.36113
 H3389 H 0.82106 0.33151 0.38229
 H3390 H 0.86603 0.32905 0.39665
 H3391 H 0.91024 0.22421 0.37548
 H3392 H 0.93138 0.26119 0.39628
 C3393 C 0.41361 0.73119 0.38651
 C3394 C 0.38621 0.72967 0.38268
 C3395 C 0.37048 0.75012 0.39145
 C3396 C 0.38128 0.77259 0.40165
 C3397 C 0.40823 0.77517 0.40465
 C3398 C 0.42462 0.75397 0.39792
 C3399 C 0.43007 0.70977 0.38146
 C3400 C 0.45668 0.71107 0.38641
 C3401 C 0.46737 0.73328 0.39734
 C3402 C 0.45155 0.75436 0.40345
 H3403 H 0.42262 0.69145 0.37458
 H3404 H 0.46897 0.69449 0.38235
 H3405 H 0.48796 0.73394 0.40168
 H3406 H 0.46059 0.77055 0.41322
 H3407 H 0.34957 0.74931 0.38901
 H3408 H 0.36836 0.78841 0.40677
 C3409 C 0.41528 0.22674 0.89284
 C3410 C 0.38799 0.22430 0.88863
 C3411 C 0.37165 0.24487 0.89595
 C3412 C 0.38175 0.26819 0.90491
 C3413 C 0.40859 0.27168 0.90799
 C3414 C 0.42558 0.25051 0.90283
 C3415 C 0.43231 0.20542 0.88953
 C3416 C 0.45880 0.20772 0.89471
 C3417 C 0.46882 0.23089 0.90416
 C3418 C 0.45242 0.25196 0.90861
 H3419 H 0.42536 0.18648 0.88392
 H3420 H 0.47153 0.19119 0.89198
 H3421 H 0.48933 0.23236 0.90867
 H3422 H 0.46095 0.26901 0.91732
 H3423 H 0.35081 0.24348 0.89320
 H3424 H 0.36838 0.28395 0.90893
 C3425 C 1.09067 0.73165 1.11089
 C3426 C 1.11809 0.72971 1.11445
 C3427 C 1.13396 0.74983 1.10518
 C3428 C 1.12329 0.77253 1.09522
 C3429 C 1.09631 0.77573 1.09304
 C3430 C 1.07976 0.75470 1.09988
 C3431 C 1.07404 0.71042 1.11605
 C3432 C 1.04733 0.71225 1.11185
 C3433 C 1.03672 0.73478 1.10149
 C3434 C 1.05272 0.75559 1.09501
 H3435 H 1.08145 0.69189 1.12248
 H3436 H 1.03488 0.69586 1.11609
 H3437 H 1.01603 0.73592 1.09790
 H3438 H 1.04368 0.77199 1.08556
 H3439 H 1.15488 0.74884 1.10740
 H3440 H 1.13636 0.78815 1.08995
 C3441 C 1.12435 0.26239 0.64026
 C3442 C 1.12833 0.23972 0.62490
 C3443 C 1.12329 0.24097 0.59818
 C3444 C 1.11213 0.26290 0.58708
 C3445 C 1.10629 0.28477 0.60208
 C3446 C 1.11330 0.28506 0.62871
 C3447 C 1.13323 0.26389 0.66617
 C3448 C 1.12994 0.28643 0.68073
 C3449 C 1.11866 0.30828 0.66964
 C3450 C 1.11081 0.30784 0.64382
 H3451 H 1.14377 0.24821 0.67524
 H3452 H 1.13677 0.28714 0.70056
 H3453 H 1.11662 0.32589 0.68090
 H3454 H 1.10353 0.32578 0.63575
 H3455 H 1.12660 0.22419 0.58598
 H3456 H 1.10741 0.26256 0.56662
 C3457 C 0.59363 0.72930 0.60027
 C3458 C 0.61792 0.73021 0.61315
 C3459 C 0.63121 0.75387 0.61498
 C3460 C 0.62064 0.77654 0.60483
 C3461 C 0.59641 0.77632 0.59251
 C3462 C 0.58275 0.75256 0.58984
 C3463 C 0.58031 0.70565 0.59684
 C3464 C 0.55672 0.70492 0.58351
 C3465 C 0.54611 0.72760 0.57327
 C3466 C 0.55889 0.75126 0.57642
 H3467 H 0.58818 0.68755 0.60401
 H3468 H 0.54674 0.68662 0.58087
 H3469 H 0.52804 0.72679 0.56257
 H3470 H 0.55016 0.76838 0.56791
 H3471 H 0.64983 0.75477 0.62474
 H3472 H 0.63132 0.79455 0.60691
 C3473 C 0.63432 0.27276 1.14721
 C3474 C 0.63998 0.24932 1.13365
 C3475 C 0.63402 0.24785 1.10710
 C3476 C 0.62071 0.26767 1.09462
 C3477 C 0.61327 0.29009 1.10793
 C3478 C 0.62076 0.29323 1.13425
 C3479 C 0.64371 0.27724 1.17257
 C3480 C 0.63866 0.30055 1.18535
 C3481 C 0.62479 0.32012 1.17299
 C3482 C 0.61625 0.31677 1.14760
 H3483 H 0.65587 0.26331 1.18248
 H3484 H 0.64595 0.30364 1.20480
 H3485 H 0.62109 0.33823 1.18291
 H3486 H 0.60682 0.33311 1.13843
 H3487 H 0.63826 0.23043 1.09614
 H3488 H 0.61554 0.26517 1.07441
 C3489 C 1.26981 1.10678 0.91008
 C3490 C 1.27029 1.11787 0.88496
 C3491 C 1.24761 1.11817 0.87000
 C3492 C 1.22437 1.10843 0.87980
 C3493 C 1.22314 1.09802 0.90484
 C3494 C 1.24602 1.09681 0.92016
 C3495 C 1.29266 1.10462 0.92507
 C3496 C 1.29200 1.09337 0.94964
 C3497 C 1.26875 1.08376 0.95956
 C3498 C 1.24597 1.08525 0.94498
 H3499 H 1.31126 1.11120 0.91786
 H3500 H 1.30967 1.09187 0.96094
 H3501 H 1.26843 1.07484 0.97856
 H3502 H 1.22850 1.07697 0.95319
 H3503 H 1.24791 1.12639 0.85068
 H3504 H 1.20706 1.10931 0.86785
 C3505 C 1.27182 0.60861 0.40759
 C3506 C 1.27060 0.62158 0.38344
 C3507 C 1.24686 0.62354 0.37037
 C3508 C 1.22426 0.61335 0.38111
 C3509 C 1.22482 0.60080 0.40518
 C3510 C 1.24872 0.59808 0.41858
 C3511 C 1.29568 0.60521 0.42064
 C3512 C 1.29673 0.59178 0.44409
 C3513 C 1.27418 0.58137 0.45480
 C3514 C 1.25034 0.58446 0.44226
 H3515 H 1.31371 0.61252 0.41269
 H3516 H 1.31518 0.58920 0.45387
 H3517 H 1.27521 0.57062 0.47278
 H3518 H 1.23335 0.57578 0.45108
 H3519 H 1.24588 0.63330 0.35180
 H3520 H 1.20610 0.61539 0.37064
 C3521 C 0.76724 1.11564 0.40483
 C3522 C 0.76537 1.12590 0.37946
 C3523 C 0.74194 1.12400 0.36586
 C3524 C 0.72022 1.11265 0.37719
 C3525 C 0.72134 1.10274 0.40244
 C3526 C 0.74503 1.10392 0.41647
 C3527 C 0.79095 1.11606 0.41857
 C3528 C 0.79267 1.10547 0.44338
 C3529 C 0.77099 1.09401 0.45478
 C3530 C 0.74740 1.09306 0.44148
 H3531 H 0.80840 1.12422 0.41019
 H3532 H 0.81098 1.10592 0.45373
 H3533 H 0.77254 1.08557 0.47391
 H3534 H 0.73123 1.08346 0.45084
 H3535 H 0.74047 1.13168 0.34637
 H3536 H 0.70225 1.11180 0.36624
 C3537 C 0.74523 0.62189 0.86658
 C3538 C 0.76776 0.62023 0.88230
 C3539 C 0.76580 0.61045 0.90750
 C3540 C 0.74218 0.60142 0.91702
 C3541 C 0.71977 0.60194 0.90160
 C3542 C 0.72101 0.61257 0.87625
 C3543 C 0.74609 0.63336 0.84176
 C3544 C 0.72371 0.63517 0.82659
 C3545 C 0.70008 0.62593 0.83593
 C3546 C 0.69860 0.61487 0.86055
 H3547 H 0.76388 0.64141 0.83402
 H3548 H 0.72466 0.64403 0.80759
 H3549 H 0.68273 0.62769 0.82418
 H3550 H 0.67968 0.60869 0.86727
 H3551 H 0.78291 0.60945 0.91971
 H3552 H 0.74144 0.59354 0.93648
 C3553 C 1.26824 0.90424 1.11266
 C3554 C 1.26519 0.87892 1.12292
 C3555 C 1.24148 0.86601 1.12006
 C3556 C 1.22051 0.87809 1.10804
 C3557 C 1.22269 0.90343 1.09839
 C3558 C 1.24680 0.91665 1.10029
 C3559 C 1.29239 0.91717 1.11374
 C3560 C 1.29524 0.94196 1.10327
 C3561 C 1.27429 0.95414 1.09125
 C3562 C 1.25031 0.94162 1.08956
 H3563 H 1.30934 0.90816 1.12229
 H3564 H 1.31388 0.95167 1.10426
 H3565 H 1.27670 0.97328 1.08294
 H3566 H 1.23477 0.95154 1.07949
 H3567 H 1.23914 0.84654 1.12764
 H3568 H 1.20224 0.86773 1.10659
 C3569 C 1.27490 0.41314 0.60321
 C3570 C 1.27470 0.38766 0.61358
 C3571 C 1.25185 0.37298 0.61262
 C3572 C 1.22910 0.38335 0.60238
 C3573 C 1.22850 0.40876 0.59278
 C3574 C 1.25155 0.42385 0.59282
 C3575 C 1.29798 0.42788 0.60217
 C3576 C 1.29793 0.45286 0.59174
 C3577 C 1.27509 0.46343 0.58182
 C3578 C 1.25211 0.44908 0.58213
 H3579 H 1.31631 0.42018 0.60896
 H3580 H 1.31578 0.46397 0.59111
 H3581 H 1.27524 0.48275 0.57356
 H3582 H 1.23497 0.45780 0.57363
 H3583 H 1.25159 0.35343 0.62033
 H3584 H 1.21164 0.37158 0.60234
 C3585 C 0.73791 0.87620 0.63781
 C3586 C 0.76215 0.87641 0.62485
 C3587 C 0.76429 0.88802 0.60045
 C3588 C 0.74295 0.90012 0.58906
 C3589 C 0.71891 0.90084 0.60178
 C3590 C 0.71603 0.88847 0.62617
 C3591 C 0.73483 0.86340 0.66178
 C3592 C 0.71071 0.86287 0.67413
 C3593 C 0.68926 0.87477 0.66273
 C3594 C 0.69175 0.88739 0.63895
 H3595 H 0.75085 0.85338 0.67099
 H3596 H 0.70858 0.85294 0.69249
 H3597 H 0.67052 0.87399 0.67224
 H3598 H 0.67445 0.89592 0.63059
 H3599 H 0.78278 0.88797 0.59040
 H3600 H 0.74525 0.90922 0.57027
 C3601 C 0.73485 0.35895 1.12897
 C3602 C 0.75911 0.37175 1.13116
 C3603 C 0.76211 0.39667 1.12080
 C3604 C 0.74180 0.40874 1.10770
 C3605 C 0.71787 0.39622 1.10451
 C3606 C 0.71405 0.37120 1.11542
 C3607 C 0.73059 0.33461 1.14075
 C3608 C 0.70645 0.32241 1.13891
 C3609 C 0.68616 0.33425 1.12552
 C3610 C 0.68975 0.35847 1.11400
 H3611 H 0.74567 0.32504 1.15182
 H3612 H 0.70339 0.30376 1.14809
 H3613 H 0.66747 0.32474 1.12424
 H3614 H 0.67322 0.36723 1.10443
 H3615 H 0.78057 0.40663 1.12253
 H3616 H 0.74484 0.42796 1.09973
 C3617 C 0.73094 1.11311 1.09840
 C3618 C 0.73329 1.12186 1.12430
 C3619 C 0.75633 1.11730 1.13796
 C3620 C 0.77735 1.10521 1.12610
 C3621 C 0.77595 1.09715 1.10021
 C3622 C 0.75243 1.10058 1.08622
 C3623 C 0.70744 1.11595 1.08459
 C3624 C 0.70523 1.10691 1.05921
 C3625 C 0.72619 1.09463 1.04729
 C3626 C 0.74954 1.09129 1.06064
 H3627 H 0.69050 1.12476 1.09337
 H3628 H 0.68708 1.10921 1.04883
 H3629 H 0.72425 1.08743 1.02769
 H3630 H 0.76508 1.08106 1.05087
 H3631 H 0.75822 1.12386 1.15781
 H3632 H 0.79515 1.10267 1.13706
 C3633 C 0.76787 0.65132 0.62551
 C3634 C 0.74582 0.63747 0.63424
 C3635 C 0.74520 0.61041 0.63181
 C3636 C 0.76547 0.59704 0.62000
 C3637 C 0.78724 0.61022 0.61038
 C3638 C 0.78896 0.63765 0.61378
 C3639 C 0.76958 0.67846 0.62869
 C3640 C 0.79132 0.69203 0.61996
 C3641 C 0.81197 0.67878 0.60863
 C3642 C 0.81123 0.65183 0.60623
 H3643 H 0.75429 0.68938 0.63808
 H3644 H 0.79231 0.71289 0.62231
 H3645 H 0.82885 0.68942 0.60204
 H3646 H 0.82838 0.64239 0.59865
 H3647 H 0.72836 0.59964 0.63837
 H3648 H 0.76374 0.57621 0.61764
 C3649 C 0.22940 1.09272 0.61168
 C3650 C 0.23017 1.11871 0.62053
 C3651 C 0.25298 1.13319 0.61777
 C3652 C 0.27520 1.12213 0.60708
 C3653 C 0.27522 1.09627 0.59863
 C3654 C 0.25207 1.08138 0.60051
 C3655 C 0.20630 1.07804 0.61297
 C3656 C 0.20560 1.05263 0.60370
 C3657 C 0.22768 1.04155 0.59268
 C3658 C 0.25068 1.05577 0.59087
 H3659 H 0.18854 1.08613 0.62079
 H3660 H 0.18774 1.04156 0.60482
 H3661 H 0.22691 1.02192 0.58524
 H3662 H 0.26713 1.04661 0.58155
 H3663 H 0.25362 1.15314 0.62435
 H3664 H 0.29268 1.13378 0.60567
 C3665 C 0.23222 0.59851 1.11622
 C3666 C 0.23552 0.62368 1.12669
 C3667 C 0.25977 0.63579 1.12530
 C3668 C 0.28087 0.62316 1.11404
 C3669 C 0.27825 0.59817 1.10366
 C3670 C 0.25375 0.58561 1.10453
 C3671 C 0.20775 0.58618 1.11656
 C3672 C 0.20457 0.56160 1.10568
 C3673 C 0.22555 0.54903 1.09412
 C3674 C 0.24994 0.56086 1.09343
 H3675 H 0.19087 0.59549 1.12495
 H3676 H 0.18568 0.55236 1.10602
 H3677 H 0.22286 0.53011 1.08544
 H3678 H 0.26560 0.55059 1.08389
 H3679 H 0.26232 0.65512 1.13315
 H3680 H 0.29952 0.63288 1.11348
 C3681 C 0.77424 0.85803 0.86262
 C3682 C 0.74821 0.86560 0.86707
 C3683 C 0.74272 0.88572 0.88441
 C3684 C 0.76266 0.89829 0.89760
 C3685 C 0.78858 0.89105 0.89370
 C3686 C 0.79469 0.87086 0.87605
 C3687 C 0.78034 0.83826 0.84476
 C3688 C 0.80617 0.83134 0.84014
 C3689 C 0.82625 0.84394 0.85320
 C3690 C 0.82066 0.86344 0.87113
 H3691 H 0.76524 0.82821 0.83414
 H3692 H 0.81066 0.81620 0.82630
 H3693 H 0.84625 0.83853 0.84947
 H3694 H 0.83679 0.87278 0.88084
 H3695 H 0.72277 0.89162 0.88772
 H3696 H 0.75786 0.91382 0.91093
 C3697 C 0.77876 0.36331 0.35047
 C3698 C 0.75374 0.35952 0.36126
 C3699 C 0.74819 0.36936 0.38593
 C3700 C 0.76665 0.38355 0.39965
 C3701 C 0.79125 0.38838 0.38909
 C3702 C 0.79770 0.37791 0.36444
 C3703 C 0.78564 0.35213 0.32649
 C3704 C 0.81052 0.35550 0.31628
 C3705 C 0.82903 0.36979 0.32983
 C3706 C 0.82283 0.38080 0.35374
 H3707 H 0.77205 0.34036 0.31565
 H3708 H 0.81556 0.34677 0.29787
 H3709 H 0.84839 0.37212 0.32191
 H3710 H 0.83804 0.39110 0.36389
 H3711 H 0.72915 0.36638 0.39440
 H3712 H 0.76157 0.39119 0.41855
 C3713 C 0.26894 0.86007 0.36703
 C3714 C 0.24371 0.87069 0.36980
 C3715 C 0.24012 0.89336 0.38428
 C3716 C 0.26101 0.90528 0.39658
 C3717 C 0.28605 0.89481 0.39471
 C3718 C 0.29034 0.87217 0.37967
 C3719 C 0.27344 0.83811 0.35135
 C3720 C 0.29848 0.82809 0.34845
 C3721 C 0.31941 0.83977 0.36098
 C3722 C 0.31550 0.86166 0.37640
 H3723 H 0.25776 0.82873 0.34097
 H3724 H 0.30170 0.81125 0.33632
 H3725 H 0.33882 0.83197 0.35854
 H3726 H 0.33234 0.87040 0.38543
 H3727 H 0.22088 0.90170 0.38621
 H3728 H 0.25763 0.92273 0.40780
 C3729 C 0.22972 0.40828 0.89802
 C3730 C 0.22995 0.38440 0.88446
 C3731 C 0.25322 0.37059 0.88188
 C3732 C 0.27638 0.38047 0.89179
 C3733 C 0.27684 0.40442 0.90463
 C3734 C 0.25337 0.41839 0.90824
 C3735 C 0.20634 0.42197 0.90224
 C3736 C 0.20626 0.44515 0.91620
 C3737 C 0.22935 0.45499 0.92630
 C3738 C 0.25274 0.44185 0.92237
 H3739 H 0.18791 0.41469 0.89521
 H3740 H 0.18817 0.45541 0.91942
 H3741 H 0.22909 0.47277 0.93746
 H3742 H 0.27018 0.44999 0.93082
 H3743 H 0.25344 0.35220 0.87172
 H3744 H 0.29418 0.36951 0.88913
   
