data_POSCAR
  _audit_creation_date              2014-09-24
  _audit_creation_method            'ToBaCCo'
  _symmetry_space_group_name_H-M    'P1'
  _symmetry_Int_Tables_number       1
  _symmetry_cell_setting            triclinic
  loop_
  _symmetry_equiv_pos_as_xyz
 x,y,z
_cell_length_a 58.7102
_cell_length_b 60.9287
_cell_length_c 61.2994
_cell_angle_alpha 90.110100
_cell_angle_beta 90.374500
_cell_angle_gamma 89.941600
loop_
  _atom_site_label
  _atom_site_type_symbol
  _atom_site_fract_x
  _atom_site_fract_y
  _atom_site_fract_z
O1 O 0.38458 0.35130 -0.02111
 O2 O 0.34504 0.37184 0.02084
 O3 O 0.38002 0.34560 0.02077
 O4 O 0.35011 0.37843 -0.02075
 O5 O 0.32682 0.35077 -0.02747
 O6 O 0.35708 0.31763 0.01412
 O7 O 0.32203 0.34393 0.01417
 O8 O 0.36120 0.32369 -0.02770
 Cu9 Cu 0.36727 0.36457 0.00058
 Cu10 Cu 0.33947 0.33121 -0.00740
 C11 C 0.37956 0.33392 -0.03154
 C12 C 0.32678 0.36134 0.02460
 C13 C 0.37371 0.32607 0.02454
 C14 C 0.33332 0.37033 -0.03113
 O15 O 0.65649 0.63800 0.02886
 O16 O 0.63472 0.67240 -0.01584
 O17 O 0.65940 0.63682 -0.01356
 O18 O 0.63233 0.67370 0.02638
 O19 O 0.66364 0.69375 0.02777
 O20 O 0.69074 0.65674 -0.01191
 O21 O 0.66597 0.69251 -0.01445
 O22 O 0.68766 0.65822 0.03042
 Cu23 Cu 0.64261 0.65318 0.00625
 Cu24 Cu 0.68019 0.67728 0.00799
 C25 C 0.67570 0.64238 0.03739
 C26 C 0.64648 0.68847 -0.02257
 C27 C 0.67977 0.64039 -0.01943
 C28 C 0.64340 0.69001 0.03386
 O29 O 0.65270 0.38387 0.98638
 O30 O 0.61909 0.35212 1.02549
 O31 O 0.65231 0.38044 1.02874
 O32 O 0.62078 0.35449 0.98311
 O33 O 0.64648 0.32802 0.98217
 O34 O 0.67750 0.35353 1.02772
 O35 O 0.64446 0.32536 1.02428
 O36 O 0.67834 0.35734 0.98532
 Cu37 Cu 0.63367 0.37043 1.00608
 Cu38 Cu 0.66430 0.33843 1.00479
 C39 C 0.67114 0.37600 0.97909
 C40 C 0.62592 0.33330 1.03144
 C41 C 0.67030 0.37128 1.03604
 C42 C 0.62834 0.33678 0.97489
 O43 O 0.38957 0.63950 1.01587
 O44 O 0.35933 0.60863 0.97285
 O45 O 0.39103 0.63858 0.97341
 O46 O 0.35783 0.60972 1.01536
 O47 O 0.33136 0.63542 1.01360
 O48 O 0.36482 0.66456 0.97188
 O49 O 0.33303 0.63453 0.97132
 O50 O 0.36316 0.66529 1.01446
 Cu51 Cu 0.37707 0.62152 0.99450
 Cu52 Cu 0.34549 0.65258 0.99263
 C53 C 0.38148 0.65761 1.02254
 C54 C 0.34097 0.61625 0.96486
 C55 C 0.38364 0.65650 0.96554
 C56 C 0.33890 0.61757 1.02159
 O57 O 0.02668 0.33545 0.36188
 O58 O -0.02232 0.36249 0.33485
 O59 O -0.01589 0.33430 0.36773
 O60 O 0.02305 0.36830 0.33599
 O61 O 0.02277 0.34409 0.30916
 O62 O -0.01732 0.31005 0.34099
 O63 O -0.02053 0.33731 0.30749
 O64 O 0.02751 0.31100 0.33520
 Cu65 Cu 0.00232 0.35284 0.35213
 Cu66 Cu 0.00290 0.32325 0.32125
 C67 C 0.03518 0.31833 0.35316
 C68 C -0.03092 0.35483 0.31581
 C69 C -0.02313 0.31629 0.36002
 C70 C 0.02981 0.36208 0.31740
 O71 O 0.01758 0.65201 0.61783
 O72 O -0.02601 0.62163 0.64819
 O73 O -0.02661 0.65532 0.62220
 O74 O 0.01804 0.61899 0.64503
 O75 O 0.02247 0.64183 0.67274
 O76 O -0.02209 0.67780 0.65018
 O77 O -0.02155 0.64422 0.67611
 O78 O 0.02172 0.67483 0.64560
 Cu79 Cu -0.00463 0.63475 0.63047
 Cu80 Cu 0.00065 0.66194 0.66394
 C81 C 0.02695 0.66867 0.62647
 C82 C -0.03118 0.62773 0.66732
 C83 C -0.03205 0.67271 0.63246
 C84 C 0.02772 0.62419 0.66291
 O85 O 1.02728 0.62900 0.34359
 O86 O 0.98323 0.66421 0.36820
 O87 O 0.98353 0.63378 0.33848
 O88 O 1.02698 0.65938 0.37381
 O89 O 1.03301 0.68456 0.34866
 O90 O 0.98951 0.65903 0.31335
 O91 O 0.98931 0.68934 0.34298
 O92 O 1.03321 0.65421 0.31844
 Cu93 Cu 1.00473 0.64406 0.35857
 Cu94 Cu 1.01199 0.67431 0.32836
 C95 C 1.03755 0.63554 0.32665
 C96 C 0.97867 0.68270 0.35965
 C97 C 0.97904 0.64211 0.31996
 C98 C 1.03728 0.67646 0.36735
 O99 O 0.96577 0.35714 0.61262
 O100 O 1.00952 0.38756 0.64363
 O101 O 1.01018 0.35871 0.61244
 O102 O 0.96522 0.38625 0.64404
 O103 O 0.96661 0.35966 0.66845
 O104 O 1.01164 0.33222 0.63693
 O105 O 1.01061 0.36103 0.66814
 O106 O 0.96727 0.33042 0.63687
 Cu107 Cu 0.98744 0.37505 0.62571
 Cu108 Cu 0.98904 0.34310 0.65499
 C109 C 0.95926 0.33849 0.61934
 C110 C 1.01745 0.37950 0.66119
 C111 C 1.01874 0.34088 0.61939
 C112 C 0.95857 0.37785 0.66182
 O113 O 0.36175 0.03045 0.33473
 O114 O 0.33856 -0.00896 0.37434
 O115 O 0.36785 -0.01103 0.34256
 O116 O 0.33314 0.03287 0.36680
 O117 O 0.30516 0.02537 0.34372
 O118 O 0.33977 -0.01892 0.31972
 O119 O 0.31035 -0.01630 0.35148
 O120 O 0.33375 0.02252 0.31179
 Cu121 Cu 0.35313 0.01157 0.35696
 Cu122 Cu 0.31942 0.00230 0.32942
 C123 C 0.35169 0.03314 0.31651
 C124 C 0.32036 -0.01921 0.36967
 C125 C 0.35982 -0.02231 0.32690
 C126 C 0.31333 0.03672 0.35929
 O127 O 0.64661 0.02071 0.66969
 O128 O 0.67428 -0.02137 0.63499
 O129 O 0.64122 -0.02141 0.66333
 O130 O 0.67802 0.02095 0.63964
 O131 O 0.70368 0.01529 0.66552
 O132 O 0.66680 -0.02762 0.68917
 O133 O 0.69988 -0.02685 0.66099
 O134 O 0.67232 0.01438 0.69539
 Cu135 Cu 0.65743 0.00031 0.64935
 Cu136 Cu 0.68818 -0.00679 0.68038
 C137 C 0.65491 0.02462 0.68854
 C138 C 0.69200 -0.03109 0.64217
 C139 C 0.64767 -0.03176 0.68019
 C140 C 0.69716 0.02527 0.64838
 O141 O 0.34676 1.02637 0.62672
 O142 O 0.38566 0.98579 0.65181
 O143 O 0.35174 0.98386 0.62401
 O144 O 0.38149 1.02826 0.65303
 O145 O 0.35823 1.02447 0.68096
 O146 O 0.32785 0.98045 0.65147
 O147 O 0.36166 0.98205 0.67913
 O148 O 0.32346 1.02288 0.65466
 Cu149 Cu 0.36876 1.00636 0.63607
 Cu150 Cu 0.34042 1.00205 0.66931
 C151 C 0.32860 1.03168 0.63663
 C152 C 0.38023 0.97708 0.66986
 C153 C 0.33470 0.97467 0.63269
 C154 C 0.37501 1.03390 0.67192
 O155 O 0.60466 0.97729 0.35126
 O156 O 0.64142 1.01430 0.38349
 O157 O 0.61173 1.01934 0.35205
 O158 O 0.63444 0.97215 0.38281
 O159 O 0.66228 0.96875 0.35898
 O160 O 0.63846 1.01477 0.32726
 O161 O 0.66845 1.01101 0.35884
 O162 O 0.63247 0.97244 0.32763
 Cu163 Cu 0.62033 0.99615 0.36984
 Cu164 Cu 0.65316 0.99139 0.34074
 C165 C 0.61234 0.96851 0.33401
 C166 C 0.66119 1.01900 0.37667
 C167 C 0.62101 1.02487 0.33425
 C168 C 0.65237 0.96258 0.37628
 C169 C 0.80177 0.80188 0.50679
 C170 C 0.80516 0.80317 0.48482
 C171 C 0.82358 0.79044 0.47408
 C172 C 0.79109 0.81771 0.47065
 C173 C 0.78700 0.81785 0.51838
 C174 C 0.81382 0.78515 0.52023
 C175 C 0.84618 0.79202 0.48155
 C176 C 0.86327 0.77936 0.47202
 C177 C 0.85824 0.76532 0.45448
 C178 C 0.83567 0.76410 0.44668
 C179 C 0.81852 0.77665 0.45636
 C180 C 0.80168 0.83212 0.45607
 C181 C 0.78864 0.84607 0.44292
 C182 C 0.76478 0.84594 0.44410
 C183 C 0.75413 0.83103 0.45827
 C184 C 0.76719 0.81701 0.47137
 C185 C 0.76949 0.81046 0.53196
 C186 C 0.75536 0.82550 0.54262
 C187 C 0.75877 0.84817 0.54020
 C188 C 0.77640 0.85553 0.52660
 C189 C 0.79047 0.84051 0.51596
 C190 C 0.81255 0.76279 0.51479
 C191 C 0.82610 0.74745 0.52575
 C192 C 0.84095 0.75406 0.54257
 C193 C 0.84151 0.77640 0.54857
 C194 C 0.82792 0.79174 0.53759
 H195 H 0.85053 0.80290 0.49493
 H196 H 0.88051 0.78060 0.47831
 H197 H 0.83105 0.75308 0.43353
 H198 H 0.80119 0.77524 0.45037
 H199 H 0.82008 0.83279 0.45509
 H200 H 0.79726 0.85721 0.43197
 H201 H 0.75865 0.80556 0.48204
 H202 H 0.76658 0.79304 0.53407
 H203 H 0.74186 0.81941 0.55292
 H204 H 0.77921 0.87285 0.52385
 H205 H 0.80405 0.84657 0.50573
 H206 H 0.80160 0.75734 0.50157
 H207 H 0.82531 0.73040 0.52077
 H208 H 0.85301 0.78235 0.56107
 H209 H 0.82922 0.80893 0.54196
 H210 H 0.73578 0.82985 0.45907
 C211 C 0.19463 0.19710 0.51612
 C212 C 0.19674 0.20126 0.49438
 C213 C 0.18177 0.21715 0.48294
 C214 C 0.21303 0.18887 0.48063
 C215 C 0.20764 0.17907 0.52667
 C216 C 0.17864 0.20971 0.53009
 C217 C 0.15804 0.21447 0.48292
 C218 C 0.14410 0.22915 0.47155
 C219 C 0.15372 0.24664 0.45982
 C220 C 0.17744 0.24943 0.46013
 C221 C 0.19138 0.23465 0.47140
 C222 C 0.20480 0.17625 0.46314
 C223 C 0.21954 0.16294 0.45118
 C224 C 0.24296 0.16230 0.45627
 C225 C 0.25123 0.17546 0.47342
 C226 C 0.23643 0.18872 0.48543
 C227 C 0.22275 0.18373 0.54384
 C228 C 0.23614 0.16708 0.55294
 C229 C 0.23437 0.14538 0.54515
 C230 C 0.21885 0.14072 0.52826
 C231 C 0.20543 0.15736 0.51924
 C232 C 0.17942 0.23268 0.53071
 C233 C 0.16361 0.24480 0.54258
 C234 C 0.14505 0.23386 0.55559
 C235 C 0.14629 0.20937 0.55476
 C236 C 0.16251 0.19835 0.54241
 H237 H 0.15035 0.20092 0.49160
 H238 H 0.12584 0.22686 0.47212
 H239 H 0.18520 0.26283 0.45131
 H240 H 0.20968 0.23689 0.47121
 H241 H 0.18677 0.17606 0.45930
 H242 H 0.21224 0.15269 0.43856
 H243 H 0.24311 0.19851 0.49878
 H244 H 0.22466 0.20041 0.54973
 H245 H 0.24827 0.17144 0.56556
 H246 H 0.21716 0.12417 0.52198
 H247 H 0.19358 0.15340 0.50621
 H248 H 0.19230 0.24139 0.52160
 H249 H 0.16463 0.26253 0.54225
 H250 H 0.13388 0.19988 0.56370
 H251 H 0.16210 0.18058 0.54201
 H252 H 0.26914 0.17525 0.47774
 C253 C 0.17292 0.83282 0.49609
 C254 C 0.17215 0.83132 0.51822
 C255 C 0.15601 0.81642 0.52928
 C256 C 0.18683 0.84509 0.53253
 C257 C 0.18682 0.84977 0.48512
 C258 C 0.15928 0.81818 0.48168
 C259 C 0.13244 0.81862 0.52606
 C260 C 0.11734 0.80503 0.53721
 C261 C 0.12556 0.78892 0.55159
 C262 C 0.14920 0.78689 0.55493
 C263 C 0.16427 0.80061 0.54391
 C264 C 0.17687 0.85815 0.54874
 C265 C 0.19040 0.87137 0.56218
 C266 C 0.21417 0.87160 0.55990
 C267 C 0.22417 0.85834 0.54371
 C268 C 0.21060 0.84510 0.53027
 C269 C 0.20343 0.84344 0.47004
 C270 C 0.21606 0.85927 0.45898
 C271 C 0.21210 0.88174 0.46272
 C272 C 0.19527 0.88801 0.47765
 C273 C 0.18279 0.87216 0.48885
 C274 C 0.16098 0.79525 0.48326
 C275 C 0.14822 0.78171 0.46937
 C276 C 0.13367 0.79093 0.45346
 C277 C 0.13212 0.81387 0.45196
 C278 C 0.14486 0.82735 0.46582
 H279 H 0.12576 0.83105 0.51514
 H280 H 0.09919 0.80707 0.53460
 H281 H 0.15608 0.77512 0.56641
 H282 H 0.18241 0.79893 0.54681
 H283 H 0.15856 0.85834 0.55078
 H284 H 0.18224 0.88147 0.57442
 H285 H 0.21863 0.83494 0.51800
 H286 H 0.20652 0.82622 0.46676
 H287 H 0.22839 0.85385 0.44708
 H288 H 0.19172 0.90521 0.48057
 H289 H 0.16971 0.87733 0.50014
 H290 H 0.17226 0.78785 0.49521
 H291 H 0.14976 0.76418 0.47142
 H292 H 0.12106 0.82145 0.43992
 H293 H 0.14334 0.84500 0.46429
 H294 H 0.24233 0.85836 0.54099
 C295 C 0.82159 0.17338 0.47795
 C296 C 0.82114 0.17457 0.50013
 C297 C 0.83671 0.18944 0.51233
 C298 C 0.80529 0.16115 0.51340
 C299 C 0.80726 0.15769 0.46527
 C300 C 0.83619 0.18831 0.46508
 C301 C 0.86042 0.18697 0.51092
 C302 C 0.87492 0.20056 0.52304
 C303 C 0.86601 0.21691 0.53673
 C304 C 0.84221 0.21918 0.53832
 C305 C 0.82773 0.20551 0.52625
 C306 C 0.81398 0.14773 0.53006
 C307 C 0.79941 0.13481 0.54259
 C308 C 0.77572 0.13533 0.53891
 C309 C 0.76706 0.14891 0.52229
 C310 C 0.78167 0.16182 0.50976
 C311 C 0.79410 0.16535 0.44766
 C312 C 0.78076 0.15090 0.43537
 C313 C 0.78012 0.12849 0.44050
 C314 C 0.79359 0.12067 0.45790
 C315 C 0.80718 0.13513 0.47006
 C316 C 0.83059 0.21059 0.46302
 C317 C 0.84360 0.22430 0.44973
 C318 C 0.86273 0.21604 0.43879
 C319 C 0.86845 0.19375 0.44109
 C320 C 0.85509 0.17994 0.45393
 H321 H 0.86767 0.17430 0.50066
 H322 H 0.89316 0.19827 0.52175
 H323 H 0.83468 0.23109 0.54922
 H324 H 0.80946 0.20741 0.52780
 H325 H 0.83216 0.14693 0.53309
 H326 H 0.80691 0.12414 0.55473
 H327 H 0.77457 0.17231 0.49719
 H328 H 0.79400 0.18262 0.44350
 H329 H 0.77071 0.15728 0.42192
 H330 H 0.79408 0.10337 0.46185
 H331 H 0.81775 0.12870 0.48311
 H332 H 0.81587 0.21721 0.47134
 H333 H 0.83881 0.24139 0.44804
 H334 H 0.88283 0.18687 0.43247
 H335 H 0.85946 0.16271 0.45520
 H336 H 0.74892 0.14957 0.51903
 C337 C 0.51453 0.81390 0.81518
 C338 C 0.49136 0.81388 0.81366
 C339 C 0.47882 0.82907 0.79896
 C340 C 0.47719 0.79908 0.82734
 C341 C 0.52670 0.79889 0.83020
 C342 C 0.52905 0.82937 0.80275
 C343 C 0.48197 0.85190 0.80013
 C344 C 0.46975 0.86587 0.78626
 C345 C 0.45390 0.85723 0.77123
 C346 C 0.45038 0.83448 0.77051
 C347 C 0.46277 0.82053 0.78418
 C348 C 0.46063 0.80819 0.84105
 C349 C 0.44751 0.79475 0.85445
 C350 C 0.45068 0.77192 0.85452
 C351 C 0.46685 0.76269 0.84031
 C352 C 0.47991 0.77617 0.82678
 C353 C 0.54100 0.78264 0.82164
 C354 C 0.55236 0.76812 0.83554
 C355 C 0.55003 0.77000 0.85822
 C356 C 0.53578 0.78642 0.86681
 C357 C 0.52421 0.80078 0.85286
 C358 C 0.52852 0.83023 0.77986
 C359 C 0.54252 0.84497 0.76865
 C360 C 0.55746 0.85898 0.78021
 C361 C 0.55789 0.85792 0.80308
 C362 C 0.54398 0.84322 0.81420
 H363 H 0.49369 0.85891 0.81194
 H364 H 0.47229 0.88339 0.78777
 H365 H 0.43805 0.82747 0.75928
 H366 H 0.45987 0.80299 0.78322
 H367 H 0.45810 0.82579 0.84161
 H368 H 0.43502 0.80228 0.86504
 H369 H 0.49215 0.76874 0.81587
 H370 H 0.54308 0.78102 0.80416
 H371 H 0.56314 0.75552 0.82859
 H372 H 0.53321 0.78794 0.88421
 H373 H 0.51325 0.81332 0.85968
 H374 H 0.51726 0.81951 0.77070
 H375 H 0.54131 0.84539 0.75107
 H376 H 0.56914 0.86849 0.81244
 H377 H 0.54469 0.84282 0.83186
 H378 H 0.46926 0.74512 0.83932
 C379 C 0.51395 0.16977 0.17203
 C380 C 0.49083 0.17150 0.17264
 C381 C 0.47759 0.16062 0.19007
 C382 C 0.47781 0.18424 0.15601
 C383 C 0.52786 0.18396 0.15771
 C384 C 0.52643 0.15377 0.18598
 C385 C 0.45993 0.14611 0.18465
 C386 C 0.44814 0.13505 0.20102
 C387 C 0.45364 0.13862 0.22315
 C388 C 0.47106 0.15348 0.22848
 C389 C 0.48282 0.16451 0.21211
 C390 C 0.48110 0.18049 0.13364
 C391 C 0.46868 0.19238 0.11811
 C392 C 0.45274 0.20826 0.12460
 C393 C 0.44908 0.21164 0.14704
 C394 C 0.46148 0.19971 0.16256
 C395 C 0.52538 0.20686 0.15834
 C396 C 0.53872 0.22020 0.14507
 C397 C 0.55482 0.21083 0.13091
 C398 C 0.55766 0.18796 0.13074
 C399 C 0.54430 0.17463 0.14402
 C400 C 0.54398 0.16094 0.19990
 C401 C 0.55572 0.14597 0.21310
 C402 C 0.55019 0.12351 0.21245
 C403 C 0.53302 0.11633 0.19809
 C404 C 0.52118 0.13132 0.18503
 H405 H 0.45572 0.14289 0.16772
 H406 H 0.43527 0.12331 0.19617
 H407 H 0.47567 0.15648 0.24536
 H408 H 0.49619 0.17591 0.21662
 H409 H 0.49319 0.16825 0.12819
 H410 H 0.47161 0.18923 0.10096
 H411 H 0.45842 0.20263 0.17973
 H412 H 0.51328 0.21441 0.16931
 H413 H 0.53665 0.23779 0.14634
 H414 H 0.57013 0.18037 0.12018
 H415 H 0.54665 0.15700 0.14351
 H416 H 0.54847 0.17816 0.20065
 H417 H 0.56934 0.15199 0.22346
 H418 H 0.52864 0.09909 0.19709
 H419 H 0.50798 0.12541 0.17408
 H420 H 0.43641 0.22317 0.15272
 C421 C 0.49911 0.18486 0.81676
 C422 C 0.52226 0.18599 0.81606
 C423 C 0.53557 0.17324 0.79981
 C424 C 0.53519 0.19868 0.83267
 C425 C 0.48558 0.19914 0.83152
 C426 C 0.48619 0.16842 0.80378
 C427 C 0.55300 0.15914 0.80684
 C428 C 0.56442 0.14575 0.79195
 C429 C 0.55875 0.14632 0.76955
 C430 C 0.54179 0.16105 0.76253
 C431 C 0.53040 0.17443 0.77746
 C432 C 0.53314 0.19350 0.85486
 C433 C 0.54491 0.20566 0.87061
 C434 C 0.55875 0.22333 0.86449
 C435 C 0.56119 0.22822 0.84219
 C436 C 0.54958 0.21586 0.82639
 C437 C 0.48806 0.22206 0.83120
 C438 C 0.47488 0.23531 0.84486
 C439 C 0.45890 0.22582 0.85901
 C440 C 0.45626 0.20293 0.85903
 C441 C 0.46947 0.18972 0.84546
 C442 C 0.46811 0.17515 0.79033
 C443 C 0.45514 0.15968 0.77889
 C444 C 0.46003 0.13715 0.78082
 C445 C 0.47793 0.13045 0.79457
 C446 C 0.49091 0.14594 0.80595
 H447 H 0.55727 0.15796 0.82402
 H448 H 0.57722 0.13479 0.79839
 H449 H 0.53710 0.16200 0.74544
 H450 H 0.51723 0.18546 0.77162
 H451 H 0.52238 0.18005 0.85996
 H452 H 0.54300 0.20140 0.88765
 H453 H 0.55156 0.21986 0.80930
 H454 H 0.49997 0.22970 0.82015
 H455 H 0.47689 0.25292 0.84385
 H456 H 0.44394 0.19522 0.86962
 H457 H 0.46717 0.17209 0.84588
 H458 H 0.46396 0.19241 0.78880
 H459 H 0.44101 0.16543 0.76903
 H460 H 0.48183 0.11319 0.79655
 H461 H 0.50443 0.14038 0.81671
 H462 H 0.57227 0.24132 0.83690
 C463 C 0.47321 0.81553 0.18427
 C464 C 0.49637 0.81658 0.18349
 C465 C 0.50959 0.82928 0.19986
 C466 C 0.50961 0.80491 0.16646
 C467 C 0.46001 0.80084 0.16951
 C468 C 0.45993 0.82946 0.19952
 C469 C 0.52245 0.84744 0.19330
 C470 C 0.53477 0.85964 0.20867
 C471 C 0.53480 0.85352 0.23077
 C472 C 0.52240 0.83498 0.23720
 C473 C 0.50964 0.82308 0.22189
 C474 C 0.50476 0.80799 0.14422
 C475 C 0.51658 0.79610 0.12839
 C476 C 0.53377 0.78124 0.13446
 C477 C 0.53890 0.77849 0.15676
 C478 C 0.52702 0.79034 0.17257
 C479 C 0.46477 0.77827 0.16839
 C480 C 0.45285 0.76479 0.15380
 C481 C 0.43582 0.77365 0.14013
 C482 C 0.43051 0.79605 0.14195
 C483 C 0.44248 0.80952 0.15647
 C484 C 0.44370 0.81990 0.21324
 C485 C 0.43054 0.83298 0.22705
 C486 C 0.43340 0.85585 0.22744
 C487 C 0.44943 0.86545 0.21342
 C488 C 0.46250 0.85237 0.19955
 H489 H 0.52271 0.85230 0.17632
 H490 H 0.54461 0.87359 0.20321
 H491 H 0.52236 0.82988 0.25412
 H492 H 0.49997 0.80894 0.22715
 H493 H 0.49163 0.81942 0.13913
 H494 H 0.51226 0.79848 0.11135
 H495 H 0.53097 0.78768 0.18964
 H496 H 0.47780 0.77114 0.17877
 H497 H 0.45688 0.74748 0.15356
 H498 H 0.41730 0.80325 0.13181
 H499 H 0.43839 0.82684 0.15724
 H500 H 0.44124 0.80228 0.21324
 H501 H 0.41810 0.82522 0.23748
 H502 H 0.45151 0.88306 0.21262
 H503 H 0.47433 0.86016 0.18853
 H504 H 0.55158 0.76678 0.16215
 C505 C 0.83019 0.51279 0.83679
 C506 C 0.83096 0.49049 0.83555
 C507 C 0.81711 0.47646 0.85004
 C508 C 0.84572 0.47891 0.81965
 C509 C 0.84313 0.52679 0.82150
 C510 C 0.81661 0.52443 0.85361
 C511 C 0.82785 0.46050 0.86296
 C512 C 0.81508 0.44724 0.87680
 C513 C 0.79132 0.44944 0.87772
 C514 C 0.78054 0.46541 0.86465
 C515 C 0.79335 0.47868 0.85081
 C516 C 0.86942 0.48190 0.81982
 C517 C 0.88311 0.47046 0.80506
 C518 C 0.87336 0.45596 0.78982
 C519 C 0.84962 0.45279 0.78989
 C520 C 0.83597 0.46412 0.80472
 C521 C 0.83946 0.52512 0.79897
 C522 C 0.85167 0.53794 0.78437
 C523 C 0.86927 0.55435 0.79206
 C524 C 0.87155 0.55529 0.81634
 C525 C 0.85876 0.54194 0.82994
 C526 C 0.80034 0.54002 0.84715
 C527 C 0.78796 0.55171 0.86272
 C528 C 0.79174 0.54809 0.88512
 C529 C 0.80827 0.53268 0.89154
 C530 C 0.82057 0.52090 0.87593
 H531 H 0.84618 0.45852 0.86252
 H532 H 0.82379 0.43516 0.88677
 H533 H 0.76236 0.46809 0.86530
 H534 H 0.78475 0.49076 0.84077
 H535 H 0.87730 0.49292 0.83151
 H536 H 0.90137 0.47296 0.80553
 H537 H 0.81775 0.46138 0.80456
 H538 H 0.82697 0.51366 0.79262
 H539 H 0.84844 0.53595 0.76709
 H540 H 0.88364 0.56661 0.82358
 H541 H 0.86134 0.54321 0.84741
 H542 H 0.79728 0.54320 0.83000
 H543 H 0.77593 0.56395 0.85712
 H544 H 0.81171 0.52980 0.90868
 H545 H 0.83341 0.50927 0.88125
 H546 H 0.84157 0.44123 0.77888
 C547 C 0.17770 0.51139 0.16961
 C548 C 0.17906 0.48912 0.17123
 C549 C 0.19719 0.47677 0.15969
 C550 C 0.16232 0.47609 0.18395
 C551 C 0.16257 0.52459 0.18387
 C552 C 0.19137 0.52356 0.15325
 C553 C 0.19142 0.45995 0.14504
 C554 C 0.20835 0.44917 0.13319
 C555 C 0.23143 0.45487 0.13605
 C556 C 0.23713 0.47142 0.15107
 C557 C 0.22021 0.48215 0.16291
 C558 C 0.13881 0.47858 0.18032
 C559 C 0.12320 0.46565 0.19167
 C560 C 0.13073 0.45005 0.20693
 C561 C 0.15431 0.44740 0.21037
 C562 C 0.16991 0.46026 0.19893
 C563 C 0.16312 0.52199 0.20662
 C564 C 0.14929 0.53492 0.21997
 C565 C 0.13485 0.55095 0.21079
 C566 C 0.13431 0.55340 0.18802
 C567 C 0.14811 0.54047 0.17470
 C568 C 0.20657 0.54005 0.15995
 C569 C 0.21961 0.55134 0.14459
 C570 C 0.21742 0.54650 0.12221
 C571 C 0.20174 0.53041 0.11555
 C572 C 0.18894 0.51895 0.13092
 H573 H 0.17374 0.45564 0.14229
 H574 H 0.20316 0.43694 0.12137
 H575 H 0.25474 0.47616 0.15355
 H576 H 0.22502 0.49490 0.17438
 H577 H 0.13256 0.49031 0.16845
 H578 H 0.10517 0.46784 0.18850
 H579 H 0.18798 0.45783 0.20173
 H580 H 0.17439 0.51004 0.21407
 H581 H 0.14996 0.53206 0.23734
 H582 H 0.12330 0.56554 0.18049
 H583 H 0.14745 0.54279 0.15720
 H584 H 0.20847 0.54401 0.17710
 H585 H 0.23105 0.56408 0.15023
 H586 H 0.19955 0.52656 0.09840
 H587 H 0.17702 0.50653 0.12541
 H588 H 0.16082 0.43508 0.22146
 C589 C 0.80247 0.49310 0.19769
 C590 C 0.80764 0.51492 0.19779
 C591 C 0.79629 0.53061 0.18276
 C592 C 0.82554 0.52413 0.21241
 C593 C 0.81255 0.47803 0.21410
 C594 C 0.78757 0.48321 0.18060
 C595 C 0.80954 0.54406 0.16935
 C596 C 0.79915 0.55837 0.15460
 C597 C 0.77533 0.55972 0.15312
 C598 C 0.76203 0.54645 0.16686
 C599 C 0.77246 0.53214 0.18165
 C600 C 0.84779 0.51565 0.21229
 C601 C 0.86458 0.52469 0.22580
 C602 C 0.85961 0.54270 0.23925
 C603 C 0.83731 0.55120 0.23934
 C604 C 0.82048 0.54204 0.22594
 C605 C 0.81013 0.48212 0.23650
 C606 C 0.82201 0.46943 0.25175
 C607 C 0.83634 0.45231 0.24492
 C608 C 0.83801 0.44775 0.22243
 C609 C 0.82605 0.46039 0.20722
 C610 C 0.76905 0.47004 0.18658
 C611 C 0.75464 0.46109 0.17063
 C612 C 0.75866 0.46504 0.14837
 C613 C 0.77733 0.47803 0.14244
 C614 C 0.79184 0.48677 0.15836
 H615 H 0.82796 0.54314 0.16999
 H616 H 0.80980 0.56834 0.14420
 H617 H 0.74365 0.54657 0.16602
 H618 H 0.76196 0.52205 0.19206
 H619 H 0.85218 0.50214 0.20161
 H620 H 0.88161 0.51784 0.22547
 H621 H 0.80342 0.54882 0.22623
 H622 H 0.79961 0.49558 0.24211
 H623 H 0.82044 0.47335 0.26892
 H624 H 0.84925 0.43516 0.21629
 H625 H 0.82822 0.45710 0.18998
 H626 H 0.76548 0.46706 0.20363
 H627 H 0.74012 0.45155 0.17581
 H628 H 0.78080 0.48128 0.12541
 H629 H 0.80634 0.49644 0.15334
 H630 H 0.83271 0.56470 0.24993
 C631 C 0.17373 0.48307 0.81960
 C632 C 0.17581 0.50534 0.81979
 C633 C 0.19081 0.51666 0.83580
 C634 C 0.16236 0.51958 0.80474
 C635 C 0.15624 0.47196 0.80598
 C636 C 0.18824 0.46878 0.83361
 C637 C 0.18753 0.51395 0.85829
 C638 C 0.20121 0.52524 0.87328
 C639 C 0.21850 0.53932 0.86607
 C640 C 0.22159 0.54221 0.84351
 C641 C 0.20778 0.53102 0.82853
 C642 C 0.14941 0.53691 0.81324
 C643 C 0.13665 0.55041 0.79941
 C644 C 0.13652 0.54691 0.77676
 C645 C 0.14990 0.52979 0.76816
 C646 C 0.16273 0.51629 0.78205
 C647 C 0.16281 0.45623 0.79053
 C648 C 0.14645 0.44569 0.77760
 C649 C 0.12319 0.45059 0.78010
 C650 C 0.11663 0.46592 0.79599
 C651 C 0.13302 0.47660 0.80876
 C652 C 0.21210 0.46980 0.83263
 C653 C 0.22554 0.45635 0.84601
 C654 C 0.21531 0.44163 0.86071
 C655 C 0.19143 0.44037 0.86123
 C656 C 0.17804 0.45374 0.84781
 H657 H 0.17417 0.50330 0.86422
 H658 H 0.19830 0.52297 0.89056
 H659 H 0.23424 0.55347 0.83736
 H660 H 0.21030 0.53357 0.81123
 H661 H 0.14898 0.53986 0.83066
 H662 H 0.12670 0.56359 0.80647
 H663 H 0.17309 0.50338 0.77508
 H664 H 0.18064 0.45224 0.78840
 H665 H 0.15203 0.43345 0.76599
 H666 H 0.09880 0.46975 0.79840
 H667 H 0.12762 0.48841 0.82091
 H668 H 0.22031 0.48093 0.82140
 H669 H 0.24381 0.45743 0.84447
 H670 H 0.18305 0.42908 0.87219
 H671 H 0.15966 0.45257 0.84871
 H672 H 0.15088 0.52696 0.75078
 C673 C 0.31065 0.36921 0.04108
 C674 C 0.31407 0.38865 0.05270
 C675 C 0.29738 0.39747 0.06847
 C676 C 0.29764 0.42000 0.07321
 C677 C 0.28174 0.42909 0.08749
 C678 C 0.26541 0.41570 0.09761
 C679 C 0.26535 0.39313 0.09310
 C680 C 0.28125 0.38404 0.07883
 C681 C 0.24763 0.42479 0.11209
 C682 C 0.24981 0.44487 0.12292
 H683 H 0.32894 0.39851 0.04912
 H684 H 0.30988 0.43069 0.06546
 H685 H 0.28199 0.44665 0.09005
 H686 H 0.25298 0.38246 0.10070
 H687 H 0.28090 0.36650 0.07616
 H688 H 0.23268 0.41483 0.11485
 H689 H 0.29528 0.35974 0.04335
 H690 H 0.26592 0.45345 0.12238
 C691 C 0.68397 0.62886 0.05559
 C692 C 0.70439 0.63354 0.06638
 C693 C 0.71361 0.62028 0.08460
 C694 C 0.73681 0.62222 0.08986
 C695 C 0.74639 0.60978 0.10667
 C696 C 0.73289 0.59506 0.11861
 C697 C 0.70952 0.59373 0.11392
 C698 C 0.69993 0.60617 0.09707
 C699 C 0.74250 0.58110 0.13610
 C700 C 0.76530 0.57452 0.13651
 H701 H 0.71464 0.64710 0.06062
 H702 H 0.74762 0.63330 0.08081
 H703 H 0.76427 0.61198 0.11038
 H704 H 0.69869 0.58282 0.12316
 H705 H 0.68182 0.60479 0.09413
 H706 H 0.73088 0.57520 0.14836
 H707 H 0.67378 0.61488 0.06025
 H708 H 0.77657 0.58027 0.12386
 C709 C 0.68396 0.38880 0.96308
 C710 C 0.70418 0.38119 0.95397
 C711 C 0.71699 0.39373 0.93748
 C712 C 0.74040 0.38987 0.93521
 C713 C 0.75311 0.40171 0.92007
 C714 C 0.74255 0.41764 0.90682
 C715 C 0.71898 0.42087 0.90852
 C716 C 0.70629 0.40909 0.92370
 C717 C 0.75535 0.43092 0.89090
 C718 C 0.77859 0.43533 0.89300
 H719 H 0.71140 0.36588 0.95977
 H720 H 0.74892 0.37779 0.94533
 H721 H 0.77107 0.39809 0.91865
 H722 H 0.71038 0.43274 0.89821
 H723 H 0.68812 0.41189 0.92433
 H724 H 0.74577 0.43806 0.87756
 H725 H 0.67724 0.40471 0.95858
 H726 H 0.78812 0.42815 0.90636
 C727 C 0.32884 0.60352 0.94801
 C728 C 0.30693 0.60917 0.94104
 C729 C 0.29378 0.59614 0.92493
 C730 C 0.26991 0.59719 0.92530
 C731 C 0.25686 0.58513 0.91038
 C732 C 0.26749 0.57187 0.89463
 C733 C 0.29136 0.57128 0.89386
 C734 C 0.30442 0.58320 0.90892
 C735 C 0.25417 0.55920 0.87837
 C736 C 0.23221 0.55148 0.88242
 H737 H 0.29848 0.62297 0.94870
 H738 H 0.26132 0.60731 0.93725
 H739 H 0.23851 0.58657 0.91098
 H740 H 0.29992 0.56149 0.88163
 H741 H 0.32278 0.58254 0.90769
 H742 H 0.26246 0.55478 0.86326
 H743 H 0.33693 0.58880 0.94189
 H744 H 0.22515 0.55340 0.89859
 C745 C 0.05353 0.30618 0.36414
 C746 C 0.06181 0.31212 0.38469
 C747 C 0.07703 0.29772 0.39760
 C748 C 0.09137 0.30700 0.41350
 C749 C 0.10533 0.29364 0.42646
 C750 C 0.10495 0.27070 0.42385
 C751 C 0.09026 0.26144 0.40826
 C752 C 0.07648 0.27477 0.39521
 C753 C 0.11891 0.25589 0.43754
 C754 C 0.13949 0.26215 0.44719
 H755 H 0.05678 0.32772 0.39169
 H756 H 0.09174 0.32461 0.41593
 H757 H 0.11594 0.30130 0.43880
 H758 H 0.08940 0.24379 0.40618
 H759 H 0.06500 0.26696 0.38371
 H760 H 0.11359 0.23892 0.43864
 H761 H 0.05979 0.29147 0.35625
 H762 H 0.14640 0.27825 0.44383
 C763 C 0.04394 0.68091 0.61394
 C764 C 0.05171 0.70146 0.62070
 C765 C 0.06786 0.71466 0.60784
 C766 C 0.06712 0.73760 0.60959
 C767 C 0.08201 0.75062 0.59755
 C768 C 0.09812 0.74086 0.58369
 C769 C 0.09933 0.71791 0.58245
 C770 C 0.08425 0.70488 0.59430
 C771 C 0.11435 0.75418 0.57106
 C772 C 0.10913 0.77523 0.56360
 H773 H 0.04449 0.70883 0.63520
 H774 H 0.05486 0.74547 0.62018
 H775 H 0.08114 0.76826 0.59943
 H776 H 0.11187 0.71004 0.57216
 H777 H 0.08575 0.68722 0.59312
 H778 H 0.13033 0.74666 0.56644
 H779 H 0.04944 0.67410 0.59853
 H780 H 0.09202 0.78153 0.56565
 C781 C 0.96069 0.69670 0.36879
 C782 C 0.94910 0.69118 0.38779
 C783 C 0.93049 0.70477 0.39680
 C784 C 0.92606 0.70388 0.41923
 C785 C 0.90861 0.71651 0.42829
 C786 C 0.89511 0.73016 0.41497
 C787 C 0.89907 0.73051 0.39244
 C788 C 0.91665 0.71803 0.38341
 C789 C 0.87644 0.74366 0.42396
 C790 C 0.87672 0.75170 0.44530
 H791 H 0.95446 0.67684 0.39691
 H792 H 0.93622 0.69348 0.42981
 H793 H 0.90552 0.71525 0.44562
 H794 H 0.88863 0.74059 0.38180
 H795 H 0.91904 0.71852 0.36594
 H796 H 0.86292 0.74865 0.41295
 H797 H 0.95676 0.71185 0.36039
 H798 H 0.89170 0.74905 0.45535
 C799 C 0.94239 0.32622 0.60633
 C800 C 0.93711 0.30434 0.61075
 C801 C 0.92138 0.29108 0.59709
 C802 C 0.92365 0.26816 0.59711
 C803 C 0.90925 0.25506 0.58434
 C804 C 0.89212 0.26468 0.57136
 C805 C 0.88943 0.28756 0.57181
 C806 C 0.90394 0.30068 0.58446
 C807 C 0.87630 0.25132 0.55789
 C808 C 0.88192 0.23056 0.54980
 H809 H 0.94602 0.29613 0.62396
 H810 H 0.93671 0.26034 0.60696
 H811 H 0.91134 0.23743 0.58502
 H812 H 0.87610 0.29534 0.56225
 H813 H 0.90116 0.31823 0.58457
 H814 H 0.86022 0.25869 0.55321
 H815 H 0.93505 0.33429 0.59224
 H816 H 0.89908 0.22444 0.55214
 C817 C 0.36072 0.04860 0.30040
 C818 C 0.38081 0.06029 0.30396
 C819 C 0.39078 0.07509 0.28750
 C820 C 0.41423 0.07935 0.28834
 C821 C 0.42443 0.09273 0.27272
 C822 C 0.41122 0.10243 0.25609
 C823 C 0.38771 0.09841 0.25543
 C824 C 0.37752 0.08501 0.27104
 C825 C 0.42145 0.11598 0.23871
 C826 C 0.44249 0.12643 0.24098
 H827 H 0.39037 0.05745 0.31888
 H828 H 0.42480 0.07191 0.30085
 H829 H 0.44269 0.09490 0.27347
 H830 H 0.37716 0.10570 0.24282
 H831 H 0.35928 0.08268 0.27022
 H832 H 0.41157 0.11838 0.22395
 H833 H 0.35162 0.05007 0.28508
 H834 H 0.45096 0.12635 0.25671
 C835 C 0.64459 0.04096 0.70311
 C836 C 0.62553 0.05350 0.69756
 C837 C 0.61527 0.06945 0.71296
 C838 C 0.60292 0.08742 0.70481
 C839 C 0.59351 0.10297 0.71903
 C840 C 0.59606 0.10062 0.74178
 C841 C 0.60814 0.08246 0.74985
 C842 C 0.61747 0.06697 0.73569
 C843 C 0.58687 0.11665 0.75772
 C844 C 0.56932 0.13152 0.75311
 H845 H 0.61852 0.05227 0.68120
 H846 H 0.60090 0.08966 0.68738
 H847 H 0.58474 0.11691 0.71206
 H848 H 0.61022 0.08013 0.76727
 H849 H 0.62611 0.05296 0.74270
 H850 H 0.59383 0.11575 0.77402
 H851 H 0.65277 0.04331 0.71881
 H852 H 0.56218 0.13190 0.73681
 C853 C 0.39579 0.96127 0.68027
 C854 C 0.38956 0.95016 0.69921
 C855 C 0.40467 0.93494 0.71128
 C856 C 0.39474 0.91970 0.72545
 C857 C 0.40828 0.90558 0.73788
 C858 C 0.43215 0.90649 0.73648
 C859 C 0.44214 0.92197 0.72260
 C860 C 0.42856 0.93602 0.70999
 C861 C 0.44689 0.89217 0.74999
 C862 C 0.43992 0.87145 0.75695
 H863 H 0.37243 0.95232 0.70534
 H864 H 0.37639 0.91880 0.72700
 H865 H 0.40000 0.89437 0.74896
 H866 H 0.46051 0.92320 0.72151
 H867 H 0.43683 0.94801 0.69976
 H868 H 0.46403 0.89767 0.75362
 H869 H 0.41217 0.95832 0.67283
 H870 H 0.42401 0.86482 0.75081
 C871 C 0.59742 0.95403 0.32112
 C872 C 0.60602 0.93960 0.30553
 C873 C 0.59112 0.92624 0.29127
 C874 C 0.59832 0.90531 0.28470
 C875 C 0.58486 0.89267 0.27057
 C876 C 0.56419 0.90104 0.26239
 C877 C 0.55719 0.92213 0.26865
 C878 C 0.57039 0.93455 0.28317
 C879 C 0.55033 0.88859 0.24645
 C880 C 0.54825 0.86581 0.24715
 H881 H 0.62429 0.93745 0.30424
 H882 H 0.61439 0.89873 0.29052
 H883 H 0.59094 0.87666 0.26558
 H884 H 0.54147 0.92899 0.26230
 H885 H 0.56470 0.95087 0.28753
 H886 H 0.54043 0.89774 0.23456
 H887 H 0.57928 0.95452 0.32420
 H888 H 0.55548 0.85688 0.26080
 C889 C 0.39536 0.32545 0.95191
 C890 C 0.38997 0.30687 0.93955
 C891 C 0.40534 0.29635 0.92356
 C892 C 0.39614 0.28045 0.90946
 C893 C 0.41002 0.26905 0.89493
 C894 C 0.43356 0.27313 0.89434
 C895 C 0.44273 0.28946 0.90796
 C896 C 0.42882 0.30089 0.92257
 C897 C 0.44883 0.26061 0.87976
 C898 C 0.44402 0.23909 0.87329
 H899 H 0.37334 0.29949 0.94167
 H900 H 0.37810 0.27673 0.90976
 H901 H 0.40219 0.25715 0.88412
 H902 H 0.46081 0.29298 0.90770
 H903 H 0.43670 0.31276 0.93332
 H904 H 0.46495 0.26795 0.87545
 H905 H 0.41124 0.33406 0.94956
 H906 H 0.42923 0.23101 0.88000
 C907 C 0.63728 0.70307 0.96050
 C908 C 0.61636 0.69898 0.95041
 C909 C 0.60523 0.71464 0.93538
 C910 C 0.58949 0.70671 0.91999
 C911 C 0.57798 0.72114 0.90608
 C912 C 0.58188 0.74387 0.90749
 C913 C 0.59727 0.75185 0.92318
 C914 C 0.60896 0.73740 0.93694
 C915 C 0.56956 0.75961 0.89342
 C916 C 0.56215 0.75425 0.87242
 H917 H 0.60780 0.68355 0.95349
 H918 H 0.58604 0.68928 0.91877
 H919 H 0.56568 0.71451 0.89462
 H920 H 0.60027 0.76932 0.92478
 H921 H 0.62039 0.74415 0.94912
 H922 H 0.56764 0.77630 0.89924
 H923 H 0.64699 0.71753 0.95630
 H924 H 0.56680 0.73851 0.86551
 C925 C 0.39368 0.66961 0.03987
 C926 C 0.38573 0.68954 0.04815
 C927 C 0.39753 0.70221 0.06553
 C928 C 0.39201 0.72446 0.06823
 C929 C 0.40271 0.73710 0.08435
 C930 C 0.41904 0.72763 0.09837
 C931 C 0.42452 0.70537 0.09571
 C932 C 0.41380 0.69272 0.07960
 C933 C 0.43123 0.74047 0.11538
 C934 C 0.42307 0.76021 0.12401
 H935 H 0.37047 0.69663 0.04103
 H936 H 0.37956 0.73220 0.05761
 H937 H 0.39843 0.75433 0.08535
 H938 H 0.43702 0.69766 0.10628
 H939 H 0.41816 0.67552 0.07853
 H940 H 0.44725 0.73391 0.12123
 H941 H 0.40946 0.66260 0.04581
 H942 H 0.40697 0.76669 0.11825
 C943 C 0.61189 0.32065 0.04662
 C944 C 0.61815 0.29973 0.05365
 C945 C 0.60389 0.28618 0.06816
 C946 C 0.61419 0.26913 0.08000
 C947 C 0.60127 0.25580 0.09369
 C948 C 0.57764 0.25910 0.09555
 C949 C 0.56735 0.27615 0.08372
 C950 C 0.58026 0.28948 0.07004
 C951 C 0.56329 0.24550 0.10992
 C952 C 0.56934 0.22438 0.11664
 H953 H 0.63450 0.29317 0.04875
 H954 H 0.63236 0.26626 0.07883
 H955 H 0.60996 0.24324 0.10300
 H956 H 0.54918 0.27901 0.08486
 H957 H 0.57153 0.30200 0.06072
 H958 H 0.54672 0.25193 0.11420
 H959 H 0.59635 0.32819 0.05236
 H960 H 0.58457 0.21685 0.11017
 C961 C 0.31323 0.04845 0.62763
 C962 C 0.31706 0.05867 0.60767
 C963 C 0.30217 0.07638 0.59925
 C964 C 0.30050 0.07973 0.57667
 C965 C 0.28652 0.09631 0.56825
 C966 C 0.27408 0.11000 0.58235
 C967 C 0.27632 0.10707 0.60494
 C968 C 0.29015 0.09041 0.61335
 C969 C 0.25930 0.12789 0.57415
 C970 C 0.24901 0.12745 0.55356
 H971 H 0.33092 0.05300 0.59752
 H972 H 0.30993 0.06939 0.56551
 H973 H 0.28585 0.09858 0.55076
 H974 H 0.26724 0.11766 0.61614
 H975 H 0.29169 0.08887 0.63087
 H976 H 0.25527 0.14109 0.58531
 H977 H 0.29840 0.05275 0.63714
 H978 H 0.25076 0.11292 0.54352
 C979 C 0.67490 0.03291 0.38919
 C980 C 0.69674 0.03922 0.38277
 C981 C 0.71177 0.05331 0.39633
 C982 C 0.72865 0.06582 0.38610
 C983 C 0.74322 0.07922 0.39837
 C984 C 0.74132 0.08021 0.42121
 C985 C 0.72491 0.06717 0.43150
 C986 C 0.71019 0.05392 0.41922
 C987 C 0.75645 0.09424 0.43470
 C988 C 0.76582 0.11376 0.42695
 H989 H 0.70283 0.03438 0.36681
 H990 H 0.73048 0.06533 0.36853
 H991 H 0.75618 0.08847 0.38994
 H992 H 0.72336 0.06737 0.44910
 H993 H 0.69794 0.04391 0.42774
 H994 H 0.75876 0.08995 0.45171
 H995 H 0.66807 0.03904 0.40440
 H996 H 0.76108 0.11941 0.41081
 C997 C 0.70427 0.95285 0.62876
 C998 C 0.69637 0.94524 0.60863
 C999 C 0.71011 0.93001 0.59524
 C1000 C 0.69927 0.91423 0.58212
 C1001 C 0.71211 0.89931 0.56986
 C1002 C 0.73607 0.90017 0.57034
 C1003 C 0.74682 0.91650 0.58282
 C1004 C 0.73403 0.93121 0.59520
 C1005 C 0.75044 0.88483 0.55770
 C1006 C 0.74359 0.86367 0.55182
 H1007 H 0.67945 0.94973 0.60307
 H1008 H 0.68085 0.91325 0.58161
 H1009 H 0.70325 0.88737 0.55987
 H1010 H 0.76522 0.91776 0.58316
 H1011 H 0.74291 0.94368 0.60454
 H1012 H 0.76778 0.88983 0.55454
 H1013 H 0.72024 0.94666 0.63521
 H1014 H 0.72729 0.85761 0.55731
 C1015 C 0.31079 0.96543 0.38562
 C1016 C 0.28896 0.95678 0.38294
 C1017 C 0.27835 0.94159 0.39863
 C1018 C 0.25452 0.94061 0.39958
 C1019 C 0.24377 0.92607 0.41375
 C1020 C 0.25672 0.91204 0.42715
 C1021 C 0.28056 0.91273 0.42594
 C1022 C 0.29133 0.92746 0.41192
 C1023 C 0.24579 0.89573 0.44148
 C1024 C 0.22417 0.89887 0.45030
 H1025 H 0.27867 0.96224 0.36924
 H1026 H 0.24416 0.95110 0.38927
 H1027 H 0.22535 0.92545 0.41373
 H1028 H 0.29087 0.90180 0.43584
 H1029 H 0.30973 0.92732 0.41112
 H1030 H 0.25538 0.88114 0.44572
 H1031 H 0.32071 0.96170 0.40009
 H1032 H 0.21595 0.91470 0.44857
 C1033 C 0.03480 0.39185 0.67349
 C1034 C 0.04166 0.38560 0.69441
 C1035 C 0.05888 0.39776 0.70732
 C1036 C 0.05822 0.39657 0.73016
 C1037 C 0.07433 0.40768 0.74290
 C1038 C 0.09161 0.42003 0.73298
 C1039 C 0.09263 0.42077 0.71013
 C1040 C 0.07636 0.40986 0.69739
 C1041 C 0.10928 0.43151 0.74596
 C1042 C 0.10541 0.43942 0.76700
 H1043 H 0.03322 0.37186 0.70213
 H1044 H 0.04513 0.38707 0.73817
 H1045 H 0.07348 0.40617 0.76046
 H1046 H 0.10601 0.42988 0.70213
 H1047 H 0.07783 0.41055 0.67982
 H1048 H 0.12538 0.43497 0.73816
 H1049 H 0.04160 0.40659 0.66619
 H1050 H 0.08840 0.43861 0.77367
 C1051 C 0.05436 0.62099 0.31632
 C1052 C 0.06473 0.62652 0.29665
 C1053 C 0.07991 0.61160 0.28434
 C1054 C 0.08330 0.61564 0.26207
 C1055 C 0.09706 0.60180 0.24963
 C1056 C 0.10781 0.58355 0.25926
 C1057 C 0.10505 0.57992 0.28169
 C1058 C 0.09120 0.59374 0.29414
 C1059 C 0.12250 0.56848 0.24660
 C1060 C 0.11999 0.56532 0.22411
 H1061 H 0.06031 0.64204 0.28910
 H1062 H 0.07512 0.62950 0.25420
 H1063 H 0.09950 0.60572 0.23261
 H1064 H 0.11350 0.56622 0.28957
 H1065 H 0.08967 0.59047 0.31139
 H1066 H 0.13530 0.55941 0.25557
 H1067 H 0.05744 0.60519 0.32377
 H1068 H 0.10664 0.57410 0.21554
 C1069 C 0.94655 0.36586 0.30254
 C1070 C 0.93516 0.38452 0.30950
 C1071 C 0.91571 0.39346 0.29689
 C1072 C 0.90722 0.41436 0.30195
 C1073 C 0.88954 0.42357 0.28958
 C1074 C 0.87979 0.41184 0.27203
 C1075 C 0.88803 0.39074 0.26732
 C1076 C 0.90576 0.38163 0.27957
 C1077 C 0.86225 0.42135 0.25731
 C1078 C 0.85055 0.44088 0.26146
 H1079 H 0.94105 0.39306 0.32402
 H1080 H 0.91465 0.42381 0.31518
 H1081 H 0.88416 0.44005 0.29355
 H1082 H 0.88094 0.38136 0.25386
 H1083 H 0.91176 0.36539 0.27529
 H1084 H 0.85866 0.41248 0.24240
 H1085 H 0.95750 0.36128 0.30989
 H1086 H 0.85191 0.44844 0.27738
 C1087 C 0.95156 0.61529 0.67931
 C1088 C 0.94532 0.62096 0.70050
 C1089 C 0.92905 0.60812 0.71364
 C1090 C 0.92972 0.61035 0.73641
 C1091 C 0.91512 0.59812 0.74952
 C1092 C 0.89937 0.58349 0.74005
 C1093 C 0.89828 0.58166 0.71726
 C1094 C 0.91292 0.59388 0.70414
 C1095 C 0.88420 0.56982 0.75350
 C1096 C 0.88532 0.57028 0.77611
 H1097 H 0.95374 0.63473 0.70833
 H1098 H 0.94184 0.62135 0.74411
 H1099 H 0.91633 0.60006 0.76705
 H1100 H 0.88614 0.57067 0.70959
 H1101 H 0.91132 0.59224 0.68663
 H1102 H 0.87232 0.55883 0.74544
 H1103 H 0.94438 0.60097 0.67144
 H1104 H 0.87672 0.56181 0.78326
 C1105 C 0.68995 0.62601 0.96581
 C1106 C 0.71274 0.62799 0.95958
 C1107 C 0.72400 0.61270 0.94422
 C1108 C 0.74777 0.61042 0.94516
 C1109 C 0.75910 0.59649 0.93067
 C1110 C 0.74683 0.58464 0.91478
 C1111 C 0.72309 0.58721 0.91359
 C1112 C 0.71174 0.60102 0.92819
 C1113 C 0.75831 0.57052 0.89850
 C1114 C 0.77963 0.56089 0.90203
 H1115 H 0.72319 0.64062 0.96708
 H1116 H 0.75763 0.61948 0.95715
 H1117 H 0.77747 0.59550 0.93165
 H1118 H 0.71330 0.57856 0.90125
 H1119 H 0.69350 0.60288 0.92648
 H1120 H 0.74915 0.56694 0.88353
 H1121 H 0.67984 0.61249 0.95963
 H1122 H 0.78746 0.56203 0.91803
 C1123 C 0.32213 0.38342 0.95351
 C1124 C 0.30341 0.37612 0.94123
 C1125 C 0.29072 0.38998 0.92529
 C1126 C 0.26985 0.38227 0.91700
 C1127 C 0.25709 0.39480 0.90222
 C1128 C 0.26488 0.41553 0.89544
 C1129 C 0.28602 0.42299 0.90328
 C1130 C 0.29882 0.41042 0.91798
 C1131 C 0.25188 0.42967 0.88003
 C1132 C 0.22865 0.42707 0.87546
 H1133 H 0.29720 0.35960 0.94390
 H1134 H 0.26332 0.36645 0.92203
 H1135 H 0.24133 0.38798 0.89606
 H1136 H 0.29265 0.43871 0.89809
 H1137 H 0.31506 0.41688 0.92326
 H1138 H 0.26086 0.44345 0.87312
 H1139 H 0.32827 0.40000 0.95162
 H1140 H 0.21926 0.41450 0.88397
 C1141 C 0.32655 0.60625 0.03737
 C1142 C 0.30489 0.61286 0.04415
 C1143 C 0.29167 0.60081 0.06080
 C1144 C 0.26779 0.60166 0.06005
 C1145 C 0.25479 0.59059 0.07559
 C1146 C 0.26547 0.57865 0.09240
 C1147 C 0.28935 0.57829 0.09349
 C1148 C 0.30236 0.58912 0.07779
 C1149 C 0.25222 0.56710 0.10936
 C1150 C 0.23057 0.55839 0.10544
 H1151 H 0.29671 0.62664 0.03614
 H1152 H 0.25917 0.61083 0.04732
 H1153 H 0.23642 0.59179 0.07463
 H1154 H 0.29798 0.56948 0.10648
 H1155 H 0.32073 0.58869 0.07928
 H1156 H 0.26046 0.56406 0.12492
 H1157 H 0.33395 0.59141 0.04406
 H1158 H 0.22361 0.55892 0.08904
 C1159 C 0.68249 0.38042 0.05338
 C1160 C 0.67688 0.40052 0.06295
 C1161 C 0.69026 0.40978 0.08130
 C1162 C 0.69259 0.43262 0.08319
 C1163 C 0.70576 0.44173 0.10001
 C1164 C 0.71657 0.42811 0.11544
 C1165 C 0.71343 0.40534 0.11406
 C1166 C 0.70053 0.39622 0.09709
 C1167 C 0.73084 0.43714 0.13328
 C1168 C 0.74348 0.45639 0.13102
 H1169 H 0.66333 0.41040 0.05595
 H1170 H 0.68451 0.44340 0.07143
 H1171 H 0.70723 0.45941 0.10104
 H1172 H 0.72127 0.39455 0.12597
 H1173 H 0.69842 0.37858 0.09651
 H1174 H 0.73297 0.42733 0.14786
 H1175 H 0.69734 0.37160 0.05924
 H1176 H 0.74360 0.46461 0.11537
 C1177 C 0.95087 0.68659 0.62460
 C1178 C 0.93863 0.68249 0.60537
 C1179 C 0.92030 0.69718 0.59715
 C1180 C 0.91435 0.69639 0.57495
 C1181 C 0.89744 0.71022 0.56650
 C1182 C 0.88586 0.72499 0.58021
 C1183 C 0.89162 0.72560 0.60244
 C1184 C 0.90850 0.71175 0.61089
 C1185 C 0.86858 0.74066 0.57180
 C1186 C 0.85655 0.73752 0.55228
 H1187 H 0.94320 0.66844 0.59544
 H1188 H 0.92313 0.68530 0.56400
 H1189 H 0.89396 0.70962 0.54916
 H1190 H 0.88296 0.73679 0.61336
 H1191 H 0.91196 0.71243 0.62822
 H1192 H 0.86481 0.75482 0.58181
 H1193 H 0.94733 0.70125 0.63396
 H1194 H 0.85834 0.72207 0.54373
 C1195 C 0.96283 0.30335 0.37296
 C1196 C 0.95217 0.28430 0.36543
 C1197 C 0.93855 0.27045 0.38016
 C1198 C 0.91770 0.26178 0.37295
 C1199 C 0.90460 0.24873 0.38683
 C1200 C 0.91254 0.24363 0.40791
 C1201 C 0.93370 0.25178 0.41486
 C1202 C 0.94647 0.26534 0.40123
 C1203 C 0.89946 0.22919 0.42252
 C1204 C 0.87584 0.23063 0.42432
 H1205 H 0.95271 0.28010 0.34826
 H1206 H 0.91142 0.26535 0.35668
 H1207 H 0.88852 0.24225 0.38094
 H1208 H 0.94024 0.24783 0.43095
 H1209 H 0.96274 0.27149 0.40699
 H1210 H 0.90879 0.21825 0.43327
 H1211 H 0.95987 0.30857 0.38962
 H1212 H 0.86687 0.24368 0.41589
 C1213 C 0.03621 0.33103 0.60755
 C1214 C 0.04657 0.31141 0.61410
 C1215 C 0.06559 0.30094 0.60218
 C1216 C 0.06978 0.27849 0.60536
 C1217 C 0.08764 0.26798 0.59456
 C1218 C 0.10187 0.27982 0.58046
 C1219 C 0.09794 0.30234 0.57754
 C1220 C 0.08003 0.31284 0.58830
 C1221 C 0.12074 0.26915 0.56856
 C1222 C 0.12457 0.24669 0.56968
 H1223 H 0.04002 0.30289 0.62824
 H1224 H 0.05907 0.26899 0.61613
 H1225 H 0.09024 0.25061 0.59729
 H1226 H 0.10877 0.31187 0.56691
 H1227 H 0.07788 0.33031 0.58594
 H1228 H 0.13142 0.27913 0.55819
 H1229 H 0.04163 0.33901 0.59272
 H1230 H 0.13531 0.24117 0.56227
 C1231 C 0.05314 0.68638 0.38121
 C1232 C 0.06456 0.70569 0.37564
 C1233 C 0.07988 0.71773 0.39077
 C1234 C 0.08407 0.74003 0.38681
 C1235 C 0.09784 0.75227 0.40096
 C1236 C 0.10775 0.74241 0.41946
 C1237 C 0.10430 0.71991 0.42297
 C1238 C 0.09047 0.70766 0.40883
 C1239 C 0.12210 0.75495 0.43505
 C1240 C 0.11962 0.77755 0.43826
 H1241 H 0.06093 0.71323 0.35999
 H1242 H 0.07648 0.74810 0.37280
 H1243 H 0.10085 0.76933 0.39713
 H1244 H 0.11213 0.71183 0.43685
 H1245 H 0.08839 0.69035 0.41204
 H1246 H 0.13432 0.74578 0.44462
 H1247 H 0.05578 0.67913 0.39713
 H1248 H 0.10662 0.78617 0.42906
 C1249 C 0.63247 0.95135 0.68916
 C1250 C 0.63776 0.93947 0.70798
 C1251 C 0.62232 0.92285 0.71758
 C1252 C 0.62520 0.91714 0.73959
 C1253 C 0.61083 0.90180 0.74939
 C1254 C 0.59319 0.89179 0.73733
 C1255 C 0.59080 0.89693 0.71513
 C1256 C 0.60515 0.91230 0.70533
 C1257 C 0.57745 0.87557 0.74716
 C1258 C 0.57266 0.87511 0.76947
 H1259 H 0.65341 0.94326 0.71667
 H1260 H 0.63856 0.92467 0.74930
 H1261 H 0.61391 0.89765 0.76630
 H1262 H 0.57766 0.88913 0.70535
 H1263 H 0.60286 0.91556 0.68813
 H1264 H 0.56906 0.86419 0.73623
 H1265 H 0.61636 0.94882 0.68090
 H1266 H 0.58060 0.88723 0.77995
 C1267 C 0.37438 0.96089 0.31684
 C1268 C 0.36704 0.94813 0.29923
 C1269 C 0.38213 0.93280 0.28732
 C1270 C 0.37232 0.91594 0.27479
 C1271 C 0.38596 0.90171 0.26261
 C1272 C 0.40979 0.90415 0.26265
 C1273 C 0.41958 0.92116 0.27497
 C1274 C 0.40595 0.93533 0.28721
 C1275 C 0.42482 0.89014 0.24919
 C1276 C 0.41871 0.86924 0.24183
 H1277 H 0.34942 0.94930 0.29397
 H1278 H 0.35399 0.91387 0.27431
 H1279 H 0.37771 0.88926 0.25277
 H1280 H 0.43785 0.92362 0.27499
 H1281 H 0.41415 0.94856 0.29601
 H1282 H 0.44172 0.89625 0.24575
 H1283 H 0.39142 0.95891 0.32334
 H1284 H 0.40308 0.86189 0.24755
 C1285 C 0.61104 0.04305 0.32164
 C1286 C 0.61741 0.04735 0.30017
 C1287 C 0.60621 0.06431 0.28654
 C1288 C 0.60587 0.06164 0.26380
 C1289 C 0.59500 0.07705 0.25043
 C1290 C 0.58442 0.09559 0.25959
 C1291 C 0.58547 0.09867 0.28226
 C1292 C 0.59615 0.08315 0.29565
 C1293 C 0.57271 0.11221 0.24594
 C1294 C 0.56242 0.10711 0.22595
 H1295 H 0.62985 0.03676 0.29250
 H1296 H 0.61381 0.04745 0.25637
 H1297 H 0.59520 0.07454 0.23296
 H1298 H 0.57779 0.11302 0.28966
 H1299 H 0.59675 0.08612 0.31305
 H1300 H 0.57070 0.12854 0.25264
 H1301 H 0.59729 0.05224 0.32901
 H1302 H 0.56188 0.09016 0.22064
 C1303 C 0.38726 0.05165 0.68315
 C1304 C 0.38290 0.05733 0.70477
 C1305 C 0.39564 0.07481 0.71629
 C1306 C 0.39837 0.07351 0.73899
 C1307 C 0.41082 0.08949 0.75028
 C1308 C 0.42060 0.10719 0.73902
 C1309 C 0.41711 0.10893 0.71644
 C1310 C 0.40483 0.09287 0.70513
 C1311 C 0.43403 0.12431 0.75036
 C1312 C 0.44631 0.12022 0.76950
 H1313 H 0.37077 0.04773 0.71397
 H1314 H 0.39110 0.05996 0.74797
 H1315 H 0.41249 0.08807 0.76781
 H1316 H 0.42412 0.12264 0.70748
 H1317 H 0.40234 0.09481 0.68774
 H1318 H 0.43560 0.14011 0.74246
 H1319 H 0.40064 0.05989 0.67430
 H1320 H 0.44706 0.10364 0.77578
 C1321 C 0.63295 0.70487 0.04987
 C1322 C 0.61026 0.70284 0.05617
 C1323 C 0.59941 0.71747 0.07241
 C1324 C 0.57562 0.71971 0.07220
 C1325 C 0.56473 0.73316 0.08742
 C1326 C 0.57748 0.74459 0.10328
 C1327 C 0.60122 0.74195 0.10380
 C1328 C 0.61212 0.72859 0.08852
 C1329 C 0.56657 0.75849 0.12008
 C1330 C 0.54519 0.76821 0.11727
 H1331 H 0.59971 0.69057 0.04825
 H1332 H 0.56542 0.71102 0.06020
 H1333 H 0.54634 0.73415 0.08697
 H1334 H 0.61138 0.75025 0.11610
 H1335 H 0.63040 0.72669 0.08972
 H1336 H 0.57630 0.76199 0.13473
 H1337 H 0.64337 0.71802 0.05635
 H1338 H 0.53678 0.76705 0.10155
 C1339 C 0.38602 0.31346 0.04134
 C1340 C 0.38162 0.29136 0.04550
 C1341 C 0.39404 0.27865 0.06244
 C1342 C 0.39557 0.25575 0.06039
 C1343 C 0.40726 0.24329 0.07602
 C1344 C 0.41757 0.25354 0.09416
 C1345 C 0.41546 0.27636 0.09651
 C1346 C 0.40388 0.28881 0.08084
 C1347 C 0.42998 0.24102 0.11123
 C1348 C 0.43988 0.22047 0.10760
 H1349 H 0.36939 0.28276 0.03530
 H1350 H 0.38780 0.24748 0.04657
 H1351 H 0.40783 0.22566 0.07400
 H1352 H 0.42289 0.28462 0.11051
 H1353 H 0.40237 0.30631 0.08345
 H1354 H 0.43267 0.24905 0.12679
 H1355 H 0.39941 0.32185 0.05023
 H1356 H 0.43956 0.21360 0.09131
 C1357 C 0.61587 0.32629 0.95675
 C1358 C 0.62272 0.30600 0.94839
 C1359 C 0.61066 0.29414 0.93068
 C1360 C 0.61419 0.27146 0.92862
 C1361 C 0.60333 0.25951 0.91212
 C1362 C 0.58874 0.27007 0.89720
 C1363 C 0.58567 0.29286 0.89885
 C1364 C 0.59642 0.30482 0.91549
 C1365 C 0.57702 0.25781 0.87955
 C1366 C 0.57089 0.23578 0.88170
 H1367 H 0.63713 0.29779 0.95594
 H1368 H 0.62537 0.26290 0.93988
 H1369 H 0.60673 0.24210 0.91089
 H1370 H 0.57478 0.30141 0.88732
 H1371 H 0.59384 0.32238 0.91612
 H1372 H 0.57167 0.26678 0.86517
 H1373 H 0.60077 0.33437 0.95051
 H1374 H 0.57358 0.22770 0.89722
 C1375 C 0.39737 0.66785 0.94899
 C1376 C 0.39049 0.68761 0.93944
 C1377 C 0.40409 0.69978 0.92305
 C1378 C 0.39329 0.71607 0.91053
 C1379 C 0.40548 0.72828 0.89524
 C1380 C 0.42894 0.72466 0.89230
 C1381 C 0.43971 0.70824 0.90466
 C1382 C 0.42752 0.69602 0.91997
 C1383 C 0.44262 0.73745 0.87649
 C1384 C 0.43648 0.75842 0.86928
 H1385 H 0.37403 0.69430 0.94382
 H1386 H 0.37526 0.71928 0.91250
 H1387 H 0.39635 0.74031 0.88562
 H1388 H 0.45775 0.70508 0.90272
 H1389 H 0.43672 0.68404 0.92956
 H1390 H 0.45892 0.73073 0.87174
 H1391 H 0.41313 0.66012 0.94416
 H1392 H 0.42147 0.76612 0.87601
 C1393 C 0.66179 0.94436 0.38925
 C1394 C 0.68187 0.93361 0.38335
 C1395 C 0.69309 0.91631 0.39662
 C1396 C 0.71024 0.90357 0.38695
 C1397 C 0.72200 0.88770 0.39901
 C1398 C 0.71704 0.88439 0.42117
 C1399 C 0.69963 0.89683 0.43076
 C1400 C 0.68787 0.91273 0.41871
 C1401 C 0.72951 0.86814 0.43468
 C1402 C 0.75168 0.86124 0.43006
 H1403 H 0.68984 0.93808 0.36810
 H1404 H 0.71457 0.90592 0.36996
 H1405 H 0.73479 0.87798 0.39082
 H1406 H 0.69543 0.89455 0.44779
 H1407 H 0.67516 0.92242 0.42701
 H1408 H 0.72159 0.86287 0.44967
 H1409 H 0.65269 0.93964 0.40377
 H1410 H 0.76056 0.86858 0.41649
 C1411 C 0.32289 0.95723 0.62051
 C1412 C 0.30332 0.94705 0.62836
 C1413 C 0.29041 0.93043 0.61572
 C1414 C 0.26727 0.92728 0.62030
 C1415 C 0.25430 0.91229 0.60823
 C1416 C 0.26431 0.90006 0.59131
 C1417 C 0.28767 0.90253 0.58736
 C1418 C 0.30062 0.91757 0.59938
 C1419 C 0.25109 0.88445 0.57768
 C1420 C 0.22763 0.88641 0.57420
 H1421 H 0.29633 0.95251 0.64377
 H1422 H 0.25911 0.93667 0.63309
 H1423 H 0.23657 0.91022 0.61241
 H1424 H 0.29588 0.89299 0.57471
 H1425 H 0.31860 0.91888 0.59593
 H1426 H 0.26051 0.87161 0.56954
 H1427 H 0.32938 0.95308 0.60455
 H1428 H 0.21843 0.89946 0.58226
 C1429 C 0.29954 0.05458 0.36849
 C1430 C 0.30721 0.06730 0.38602
 C1431 C 0.29374 0.08537 0.39569
 C1432 C 0.29808 0.09154 0.41737
 C1433 C 0.28550 0.10829 0.42721
 C1434 C 0.26852 0.11955 0.41535
 C1435 C 0.26446 0.11357 0.39354
 C1436 C 0.27697 0.09675 0.38375
 C1437 C 0.25396 0.13671 0.42530
 C1438 C 0.25894 0.14720 0.44508
 H1439 H 0.32335 0.06320 0.39367
 H1440 H 0.31096 0.08305 0.42689
 H1441 H 0.28885 0.11190 0.44419
 H1442 H 0.25151 0.12195 0.38402
 H1443 H 0.27358 0.09292 0.36680
 H1444 H 0.23882 0.14140 0.41632
 H1445 H 0.28283 0.05739 0.36148
 H1446 H 0.27532 0.14451 0.45278
 C1447 C 0.71220 0.04181 0.63850
 C1448 C 0.70663 0.05197 0.61873
 C1449 C 0.72167 0.06758 0.60714
 C1450 C 0.71758 0.07152 0.58490
 C1451 C 0.73138 0.08591 0.57315
 C1452 C 0.74948 0.09699 0.58352
 C1453 C 0.75350 0.09314 0.60580
 C1454 C 0.73972 0.07870 0.61755
 C1455 C 0.76499 0.11191 0.57157
 C1456 C 0.75968 0.12141 0.55139
 H1457 H 0.69086 0.04736 0.61067
 H1458 H 0.70383 0.06315 0.57645
 H1459 H 0.72802 0.08785 0.55591
 H1460 H 0.76733 0.10142 0.61420
 H1461 H 0.74317 0.07656 0.63475
 H1462 H 0.78089 0.11613 0.57952
 H1463 H 0.72830 0.04510 0.64650
 H1464 H 0.74274 0.11932 0.54465
 C1465 C 0.96139 0.63235 0.30590
 C1466 C 0.95011 0.61305 0.31151
 C1467 C 0.93181 0.60326 0.29796
 C1468 C 0.92742 0.58070 0.29971
 C1469 C 0.91014 0.57092 0.28729
 C1470 C 0.89677 0.58363 0.27296
 C1471 C 0.90076 0.60628 0.27166
 C1472 C 0.91814 0.61602 0.28395
 C1473 C 0.87816 0.57398 0.25971
 C1474 C 0.87789 0.55203 0.25314
 H1475 H 0.95547 0.60428 0.32603
 H1476 H 0.93747 0.57060 0.31067
 H1477 H 0.90705 0.55355 0.28927
 H1478 H 0.89044 0.61647 0.26102
 H1479 H 0.92047 0.63359 0.28274
 H1480 H 0.86510 0.58498 0.25363
 H1481 H 0.95751 0.64049 0.29064
 H1482 H 0.89240 0.54167 0.25684
 C1483 C 0.94169 0.38975 0.67498
 C1484 C 0.93776 0.38440 0.69677
 C1485 C 0.92300 0.39758 0.71127
 C1486 C 0.92724 0.39727 0.73382
 C1487 C 0.91388 0.40969 0.74805
 C1488 C 0.89582 0.42257 0.73998
 C1489 C 0.89117 0.42240 0.71749
 C1490 C 0.90467 0.41013 0.70322
 C1491 C 0.88102 0.43554 0.75463
 C1492 C 0.88839 0.44369 0.77480
 H1493 H 0.94738 0.37106 0.70402
 H1494 H 0.94106 0.38749 0.74044
 H1495 H 0.91749 0.40882 0.76536
 H1496 H 0.87710 0.43189 0.71092
 H1497 H 0.90046 0.41025 0.68602
 H1498 H 0.86415 0.43976 0.74875
 H1499 H 0.93376 0.40412 0.66788
 H1500 H 0.90615 0.44197 0.77937
 C1501 C 0.04490 0.60931 0.67244
 C1502 C 0.05610 0.61435 0.69201
 C1503 C 0.07216 0.59945 0.70352
 C1504 C 0.08599 0.60821 0.72015
 C1505 C 0.10052 0.59472 0.73232
 C1506 C 0.10132 0.57199 0.72834
 C1507 C 0.08790 0.56327 0.71138
 C1508 C 0.07336 0.57679 0.69916
 C1509 C 0.11592 0.55703 0.74146
 C1510 C 0.12276 0.56185 0.76285
 H1511 H 0.05296 0.63023 0.69941
 H1512 H 0.08551 0.62561 0.72380
 H1513 H 0.11115 0.60224 0.74471
 H1514 H 0.08828 0.54583 0.70790
 H1515 H 0.06274 0.56925 0.68679
 H1516 H 0.11984 0.54112 0.73459
 H1517 H 0.04850 0.59417 0.66390
 H1518 H 0.11654 0.57672 0.77042
 C1519 C 0.04619 0.37599 0.30572
 C1520 C 0.05263 0.37210 0.28417
 C1521 C 0.06928 0.38613 0.27262
 C1522 C 0.06810 0.38785 0.24981
 C1523 C 0.08357 0.40100 0.23848
 C1524 C 0.10073 0.41255 0.24979
 C1525 C 0.10228 0.41034 0.27253
 C1526 C 0.08671 0.39736 0.28386
 C1527 C 0.11776 0.42630 0.23842
 C1528 C 0.11366 0.43628 0.21825
 H1529 H 0.04438 0.35901 0.27513
 H1530 H 0.05507 0.37908 0.24074
 H1531 H 0.08228 0.40173 0.22088
 H1532 H 0.11557 0.41874 0.28159
 H1533 H 0.08867 0.39585 0.30135
 H1534 H 0.13354 0.42977 0.24697
 H1535 H 0.05283 0.39016 0.31431
 H1536 H 0.09686 0.43506 0.21097
   
