data_POSCAR
  _audit_creation_date              2014-09-24
  _audit_creation_method            'ToBaCCo'
  _symmetry_space_group_name_H-M    'P1'
  _symmetry_Int_Tables_number       1
  _symmetry_cell_setting            triclinic
  loop_
  _symmetry_equiv_pos_as_xyz
 x,y,z
_cell_length_a 21.6348
_cell_length_b 37.7669
_cell_length_c 30.3519
_cell_angle_alpha 89.854200
_cell_angle_beta 90.194800
_cell_angle_gamma 89.502700
loop_
  _atom_site_label
  _atom_site_type_symbol
  _atom_site_fract_x
  _atom_site_fract_y
  _atom_site_fract_z
B1 B -0.03666 -0.03684 0.01192
 B2 B 0.03784 -0.02709 0.02288
 B3 B 0.01700 -0.03928 -0.02838
 B4 B -0.05370 -0.02266 -0.03979
 B5 B -0.07669 0.00057 0.00490
 B6 B -0.01956 -0.00201 0.04404
 B7 B 0.02779 0.03185 -0.02685
 B8 B -0.04646 0.02152 -0.03871
 B9 B -0.02625 0.03411 0.01290
 B10 B 0.04508 0.01740 0.02435
 B11 B 0.06809 -0.00616 -0.02060
 B12 B 0.01167 -0.00297 -0.05975
 B13 B 0.52570 0.47860 0.53600
 B14 B 0.44907 0.48285 0.52712
 B15 B 0.49095 0.51838 0.54294
 B16 B 0.56130 0.51559 0.51883
 B17 B 0.56209 0.47856 0.48727
 B18 B 0.49198 0.45849 0.49259
 B19 B 0.47171 0.52295 0.45511
 B20 B 0.54836 0.51823 0.46410
 B21 B 0.50671 0.48293 0.44814
 B22 B 0.43616 0.48579 0.47209
 B23 B 0.43508 0.52289 0.50394
 B24 B 0.50511 0.54301 0.49844
 B25 B 0.52849 0.02416 0.53608
 B26 B 0.45262 0.02076 0.54730
 B27 B 0.47574 0.03312 0.49620
 B28 B 0.54065 0.01049 0.48387
 B29 B 0.55806 -0.01646 0.52721
 B30 B 0.50290 -0.00997 0.56683
 B31 B 0.44557 -0.03634 0.49504
 B32 B 0.52111 -0.03219 0.48200
 B33 B 0.49891 -0.04490 0.53357
 B34 B 0.43321 -0.02226 0.54657
 B35 B 0.41594 0.00461 0.50273
 B36 B 0.47005 -0.00240 0.46351
 B37 B -0.05047 0.51042 0.05004
 B38 B 0.02637 0.51836 0.05017
 B39 B -0.00035 0.47651 0.05667
 B40 B -0.06378 0.47200 0.02429
 B41 B -0.07516 0.51103 -0.00292
 B42 B -0.01965 0.53948 0.01383
 B43 B 0.03756 0.48459 -0.02779
 B44 B -0.03985 0.47707 -0.02804
 B45 B -0.01227 0.51863 -0.03444
 B46 B 0.05077 0.52316 -0.00201
 B47 B 0.06233 0.48421 0.02499
 B48 B 0.00610 0.45564 0.00814
 B49 B 0.03154 0.46279 0.48915
 B50 B -0.03788 0.47370 0.46748
 B51 B -0.03128 0.46412 0.52178
 B52 B 0.03668 0.48007 0.54045
 B53 B 0.07175 0.50023 0.49687
 B54 B 0.02562 0.49578 0.45157
 B55 B -0.03728 0.53499 0.51198
 B56 B 0.03204 0.52436 0.53417
 B57 B 0.02509 0.53379 0.47973
 B58 B -0.04243 0.51760 0.46099
 B59 B -0.07732 0.49784 0.50437
 B60 B -0.03115 0.50232 0.54985
 B61 B 0.48992 -0.02225 -0.03934
 B62 B 0.56584 -0.02637 -0.02725
 B63 B 0.53764 0.01292 -0.04376
 B64 B 0.46603 0.01859 -0.02229
 B65 B 0.44993 -0.01803 0.00861
 B66 B 0.51230 -0.04605 0.00466
 B67 B 0.55163 0.01342 0.04507
 B68 B 0.47586 0.01960 0.03332
 B69 B 0.50341 -0.02098 0.04974
 B70 B 0.57482 -0.02658 0.02791
 B71 B 0.59036 0.00977 -0.00249
 B72 B 0.52951 0.03798 0.00061
 B73 B 0.46233 0.53078 -0.02475
 B74 B 0.53721 0.52157 -0.03573
 B75 B 0.51619 0.53552 0.01495
 B76 B 0.44621 0.51767 0.02704
 B77 B 0.42540 0.49201 -0.01679
 B78 B 0.48171 0.49522 -0.05575
 B79 B 0.53319 0.46480 0.01790
 B80 B 0.45779 0.47320 0.02806
 B81 B 0.47987 0.45975 -0.02261
 B82 B 0.54886 0.47763 -0.03447
 B83 B 0.56936 0.50268 0.00906
 B84 B 0.51252 0.50040 0.04796
 B85 B 0.02095 0.02002 0.45046
 B86 B -0.05474 0.01527 0.46262
 B87 B -0.01200 -0.02066 0.44871
 B88 B 0.06006 -0.01559 0.46965
 B89 B 0.06120 0.02359 0.49762
 B90 B -0.01040 0.04255 0.49279
 B91 B -0.02325 -0.01969 0.53730
 B92 B 0.05222 -0.01477 0.52495
 B93 B 0.00906 0.02109 0.53899
 B94 B -0.06290 0.01590 0.51791
 B95 B -0.06388 -0.02319 0.49019
 B96 B 0.00773 -0.04218 0.49481
 B97 B 0.78046 0.27717 0.27614
 B98 B 0.70289 0.27486 0.28100
 B99 B 0.73400 0.28499 0.23172
 B100 B 0.80075 0.26208 0.22605
 B101 B 0.81008 0.23626 0.27190
 B102 B 0.74873 0.24425 0.30618
 B103 B 0.70312 0.21618 0.23070
 B104 B 0.78063 0.21919 0.22503
 B105 B 0.74968 0.20830 0.27423
 B106 B 0.68250 0.23165 0.28069
 B107 B 0.67339 0.25704 0.23454
 B108 B 0.73443 0.24904 0.20040
 B109 B 0.75240 0.78232 0.77648
 B110 B 0.72338 0.77268 0.72570
 B111 B 0.79894 0.78278 0.73260
 B112 B 0.82500 0.76471 0.78052
 B113 B 0.76383 0.74414 0.80377
 B114 B 0.70033 0.74954 0.77046
 B115 B 0.78784 0.71207 0.72476
 B116 B 0.81680 0.72011 0.77486
 B117 B 0.74110 0.71150 0.76984
 B118 B 0.71574 0.72879 0.72159
 B119 B 0.77757 0.74994 0.69816
 B120 B 0.83984 0.74473 0.73182
 B121 B 0.25261 0.22497 0.72404
 B122 B 0.17580 0.23186 0.71766
 B123 B 0.20400 0.22325 0.76785
 B124 B 0.27441 0.24170 0.77292
 B125 B 0.28929 0.26390 0.72491
 B126 B 0.22751 0.25745 0.69026
 B127 B 0.18624 0.29387 0.76207
 B128 B 0.26247 0.28547 0.76974
 B129 B 0.23419 0.29561 0.71881
 B130 B 0.16348 0.27648 0.71306
 B131 B 0.14901 0.25513 0.76096
 B132 B 0.21012 0.26041 0.79559
 B133 B 0.20424 0.79217 0.24181
 B134 B 0.27867 0.78610 0.22560
 B135 B 0.26257 0.79189 0.27918
 B136 B 0.19555 0.77215 0.29149
 B137 B 0.16996 0.75264 0.24477
 B138 B 0.22167 0.76142 0.20307
 B139 B 0.28046 0.72180 0.26567
 B140 B 0.20792 0.72880 0.28325
 B141 B 0.22250 0.72205 0.22915
 B142 B 0.29030 0.74199 0.21637
 B143 B 0.31609 0.76117 0.26338
 B144 B 0.26520 0.75281 0.30451
 B145 B 0.28730 0.72045 0.76231
 B146 B 0.31331 0.72789 0.71144
 B147 B 0.23676 0.72201 0.71887
 B148 B 0.21774 0.73989 0.76816
 B149 B 0.28376 0.75856 0.78924
 B150 B 0.34226 0.75133 0.75330
 B151 B 0.25578 0.79238 0.71188
 B152 B 0.23037 0.78346 0.76379
 B153 B 0.30599 0.79084 0.75369
 B154 B 0.32585 0.77206 0.70514
 B155 B 0.26062 0.75394 0.68411
 B156 B 0.20067 0.76157 0.71993
 B157 B 0.22373 0.21416 0.27013
 B158 B 0.29600 0.22302 0.28733
 B159 B 0.28077 0.21536 0.23315
 B160 B 0.21082 0.23372 0.22062
 B161 B 0.18379 0.25269 0.26745
 B162 B 0.23593 0.24573 0.30844
 B163 B 0.29148 0.28623 0.24501
 B164 B 0.21783 0.27811 0.22922
 B165 B 0.23362 0.28481 0.28276
 B166 B 0.30314 0.26694 0.29489
 B167 B 0.33034 0.24762 0.24834
 B168 B 0.27681 0.25463 0.20687
 B169 B 0.77802 0.71424 0.22973
 B170 B 0.70119 0.72230 0.22553
 B171 B 0.73355 0.71295 0.27504
 B172 B 0.80473 0.73168 0.27737
 B173 B 0.81516 0.75277 0.22837
 B174 B 0.75082 0.74689 0.19659
 B175 B 0.71538 0.78334 0.27021
 B176 B 0.79235 0.77585 0.27323
 B177 B 0.75985 0.78458 0.22379
 B178 B 0.68898 0.76633 0.22220
 B179 B 0.67825 0.74460 0.27097
 B180 B 0.74288 0.75063 0.30292
 B181 B 0.71394 0.21751 0.73247
 B182 B 0.69136 0.22556 0.78497
 B183 B 0.76699 0.22028 0.77302
 B184 B 0.78090 0.23845 0.72335
 B185 B 0.71257 0.25612 0.70517
 B186 B 0.65687 0.24711 0.74329
 B187 B 0.74395 0.29054 0.78033
 B188 B 0.76504 0.28199 0.72821
 B189 B 0.68916 0.28746 0.74083
 B190 B 0.67581 0.26940 0.79056
 B191 B 0.74425 0.25250 0.80873
 B192 B 0.79999 0.26001 0.77016
 C193 C 0.11898 0.41728 0.87140
 C194 C 0.12531 0.40996 0.91691
 C195 C 0.11513 0.43656 0.94791
 C196 C 0.08328 0.46777 0.93581
 C197 C 0.07870 0.47599 0.89058
 C198 C 0.09844 0.45138 0.85859
 C199 C 0.12769 0.38705 0.83981
 C200 C 0.13773 0.39129 0.79422
 C201 C 0.15185 0.36174 0.76768
 C202 C 0.15352 0.32736 0.78580
 C203 C 0.13401 0.32321 0.82960
 C204 C 0.12781 0.35239 0.85731
 C205 C 0.13139 0.37506 0.93189
 C206 C 0.12796 0.34684 0.90285
 H207 H 0.13393 0.36931 0.96687
 H208 H 0.12964 0.32020 0.91625
 H209 H 0.12074 0.42976 0.98242
 H210 H 0.05565 0.49994 0.87973
 H211 H 0.16272 0.36607 0.73343
 H212 H 0.13145 0.29706 0.84419
 H213 H 0.09144 0.45785 0.82421
 H214 H 0.13848 0.41735 0.77944
 C215 C 0.39735 0.59938 0.35578
 C216 C 0.44711 0.60827 0.38359
 C217 C 0.46849 0.58410 0.41505
 C218 C 0.44500 0.54943 0.41781
 C219 C 0.39765 0.53987 0.38859
 C220 C 0.37360 0.56462 0.35818
 C221 C 0.37152 0.62792 0.32622
 C222 C 0.31601 0.62415 0.30267
 C223 C 0.28931 0.65306 0.28076
 C224 C 0.31778 0.68652 0.28050
 C225 C 0.37566 0.68958 0.30115
 C226 C 0.40144 0.66116 0.32504
 C227 C 0.47577 0.64126 0.38002
 C228 C 0.45431 0.66684 0.35059
 H229 H 0.51535 0.64750 0.40049
 H230 H 0.47759 0.69213 0.34956
 H231 H 0.50534 0.59247 0.43677
 H232 H 0.37851 0.51349 0.38967
 H233 H 0.24342 0.64956 0.26765
 H234 H 0.39847 0.71499 0.30207
 H235 H 0.33671 0.55610 0.33678
 H236 H 0.29035 0.59978 0.30334
 C237 C 0.90709 0.90617 0.63922
 C238 C 0.96187 0.89876 0.61593
 C239 C 0.98307 0.92260 0.58442
 C240 C 0.95435 0.95586 0.57761
 C241 C 0.90237 0.96436 0.60315
 C242 C 0.87859 0.93973 0.63335
 C243 C 0.88108 0.87721 0.66746
 C244 C 0.82185 0.87914 0.68602
 C245 C 0.79695 0.84996 0.70777
 C246 C 0.83024 0.81804 0.71264
 C247 C 0.89082 0.81671 0.69599
 C248 C 0.91553 0.84538 0.67258
 C249 C 0.99482 0.86719 0.62333
 C250 C 0.97285 0.84141 0.65191
 H251 H 1.03804 0.86216 0.60638
 H252 H 0.99962 0.81723 0.65603
 H253 H 1.02226 0.91455 0.56467
 H254 H 0.87870 0.98950 0.59866
 H255 H 0.75008 0.85231 0.71836
 H256 H 0.91812 0.79264 0.69893
 H257 H 0.83769 0.94722 0.65146
 H258 H 0.79282 0.90232 0.68215
 C259 C 0.62170 0.09228 0.13478
 C260 C 0.57998 0.06777 0.15252
 C261 C 0.56079 0.03901 0.12619
 C262 C 0.58635 0.03431 0.08374
 C263 C 0.63801 0.05478 0.07203
 C264 C 0.65444 0.08388 0.09665
 C265 C 0.63156 0.12607 0.15781
 C266 C 0.65415 0.15562 0.13552
 C267 C 0.66932 0.18579 0.15860
 C268 C 0.66525 0.18654 0.20490
 C269 C 0.63414 0.15873 0.22657
 C270 C 0.61481 0.12886 0.20239
 C271 C 0.55831 0.07303 0.19573
 C272 C 0.57861 0.10197 0.22117
 H273 H 0.52734 0.05403 0.21048
 H274 H 0.56369 0.10409 0.25510
 H275 H 0.52353 0.02230 0.13725
 H276 H 0.66276 0.05089 0.04152
 H277 H 0.68938 0.20720 0.13993
 H278 H 0.62675 0.15981 0.26182
 H279 H 0.69166 0.10029 0.08487
 H280 H 0.66128 0.15544 0.10026
 C281 C 0.82521 0.08130 0.37695
 C282 C 0.87487 0.06121 0.35959
 C283 C 0.90484 0.03578 0.38555
 C284 C 0.89359 0.03340 0.43104
 C285 C 0.84306 0.05259 0.44820
 C286 C 0.80831 0.07568 0.42123
 C287 C 0.79886 0.11073 0.34909
 C288 C 0.74436 0.12971 0.35933
 C289 C 0.72585 0.15909 0.33370
 C290 C 0.76283 0.17112 0.29868
 C291 C 0.81727 0.15211 0.28931
 C292 C 0.83240 0.12086 0.31142
 C293 C 0.90011 0.06965 0.31855
 C294 C 0.88152 0.10001 0.29612
 H295 H 0.93868 0.05448 0.30553
 H296 H 0.90574 0.10719 0.26623
 H297 H 0.94309 0.02116 0.37128
 H298 H 0.83229 0.05129 0.48296
 H299 H 0.68416 0.17334 0.34269
 H300 H 0.84993 0.16192 0.26558
 H301 H 0.77169 0.09103 0.43626
 H302 H 0.71590 0.12212 0.38692
 C303 C 0.33048 0.41272 0.60855
 C304 C 0.37489 0.43459 0.62881
 C305 C 0.41039 0.45773 0.60322
 C306 C 0.40146 0.46087 0.55743
 C307 C 0.35423 0.44069 0.53801
 C308 C 0.31941 0.41695 0.56304
 C309 C 0.29873 0.38542 0.63640
 C310 C 0.26011 0.35921 0.61868
 C311 C 0.23714 0.33212 0.64534
 C312 C 0.25094 0.33055 0.69071
 C313 C 0.28461 0.35855 0.70905
 C314 C 0.31089 0.38478 0.68223
 C315 C 0.38438 0.43289 0.67447
 C316 C 0.35200 0.40909 0.70073
 H317 H 0.41775 0.45006 0.69013
 H318 H 0.36152 0.40859 0.73582
 H319 H 0.44555 0.47313 0.61935
 H320 H 0.34530 0.44214 0.50295
 H321 H 0.20990 0.31171 0.62980
 H322 H 0.29181 0.35980 0.74408
 H323 H 0.28465 0.40183 0.54603
 H324 H 0.24932 0.35823 0.58398
 C325 C 0.67235 0.90373 0.88549
 C326 C 0.68221 0.90134 0.93132
 C327 C 0.65150 0.92513 0.95955
 C328 C 0.61181 0.95147 0.94207
 C329 C 0.60862 0.95574 0.89611
 C330 C 0.63903 0.93258 0.86825
 C331 C 0.69517 0.87456 0.85707
 C332 C 0.67279 0.87009 0.81420
 C333 C 0.69096 0.84123 0.78945
 C334 C 0.73417 0.81644 0.80523
 C335 C 0.75636 0.82052 0.84876
 C336 C 0.73498 0.84859 0.87531
 C337 C 0.72116 0.87465 0.94821
 C338 C 0.74907 0.84961 0.92048
 H339 H 0.72960 0.87290 0.98329
 H340 H 0.77889 0.82952 0.93500
 H341 H 0.65625 0.92193 0.99489
 H342 H 0.57868 0.97518 0.88084
 H343 H 0.67015 0.83911 0.75781
 H344 H 0.78766 0.80097 0.86283
 H345 H 0.63401 0.93699 0.83328
 H346 H 0.63860 0.88762 0.79980
 C347 C 0.11947 0.59795 0.13437
 C348 C 0.05536 0.59978 0.12586
 C349 C 0.02722 0.57419 0.09993
 C350 C 0.05940 0.54404 0.08516
 C351 C 0.12274 0.54117 0.09550
 C352 C 0.15260 0.56788 0.11961
 C353 C 0.14847 0.62855 0.15810
 C354 C 0.21288 0.63330 0.16187
 C355 C 0.23682 0.66321 0.18320
 C356 C 0.19716 0.68821 0.20300
 C357 C 0.13312 0.68379 0.19812
 C358 C 0.10886 0.65509 0.17528
 C359 C 0.01915 0.62740 0.14271
 C360 C 0.04504 0.65382 0.16818
 H361 H -0.03018 0.62843 0.13650
 H362 H 0.01483 0.67435 0.18107
 H363 H -0.01994 0.57909 0.08983
 H364 H 0.14977 0.51891 0.08365
 H365 H 0.28646 0.66636 0.18506
 H366 H 0.10103 0.70325 0.21101
 H367 H 0.20143 0.56477 0.12622
 H368 H 0.24513 0.61459 0.14771
 C369 C 0.42398 0.90213 0.14189
 C370 C 0.47414 0.89256 0.11496
 C371 C 0.50726 0.91893 0.09283
 C372 C 0.48617 0.95465 0.09184
 C373 C 0.43843 0.96412 0.12061
 C374 C 0.40809 0.93840 0.14567
 C375 C 0.38782 0.87304 0.16310
 C376 C 0.34319 0.87992 0.19499
 C377 C 0.31042 0.85245 0.21380
 C378 C 0.31733 0.81697 0.20053
 C379 C 0.36399 0.80960 0.16945
 C380 C 0.40040 0.83730 0.15177
 C381 C 0.48772 0.85662 0.10731
 C382 C 0.45056 0.82965 0.12422
 H383 H 0.52602 0.84925 0.08621
 H384 H 0.46177 0.80244 0.11605
 H385 H 0.54526 0.91060 0.07201
 H386 H 0.42239 0.99108 0.12247
 H387 H 0.28204 0.85972 0.24075
 H388 H 0.37353 0.78242 0.16019
 H389 H 0.36973 0.94722 0.16556
 H390 H 0.33476 0.90626 0.20742
 C391 C 0.56771 0.39772 0.36055
 C392 C 0.60312 0.42883 0.36475
 C393 C 0.58011 0.45789 0.38791
 C394 C 0.52035 0.45824 0.40580
 C395 C 0.48205 0.42907 0.39627
 C396 C 0.50569 0.39892 0.37460
 C397 C 0.59924 0.36507 0.34246
 C398 C 0.57319 0.33080 0.34222
 C399 C 0.60651 0.30148 0.32527
 C400 C 0.66607 0.30580 0.30756
 C401 C 0.69073 0.34016 0.30786
 C402 C 0.65975 0.36887 0.32612
 C403 C 0.66311 0.43041 0.34806
 C404 C 0.69013 0.40136 0.32800
 H405 H 0.68977 0.45450 0.35069
 H406 H 0.73675 0.40398 0.31543
 H407 H 0.61261 0.47822 0.39611
 H408 H 0.43568 0.42794 0.40948
 H409 H 0.58490 0.27574 0.32478
 H410 H 0.73279 0.34595 0.29069
 H411 H 0.47583 0.37638 0.37053
 H412 H 0.52746 0.32632 0.35516
 C413 C 0.94303 0.59929 0.86487
 C414 C 0.98621 0.60664 0.89833
 C415 C 1.00654 0.57930 0.92642
 C416 C 0.98064 0.54500 0.92425
 C417 C 0.93955 0.53767 0.88987
 C418 C 0.92159 0.56420 0.86023
 C419 C 0.91801 0.62972 0.83833
 C420 C 0.87602 0.62459 0.80415
 C421 C 0.84711 0.65312 0.78420
 C422 C 0.85953 0.68860 0.79607
 C423 C 0.90526 0.69416 0.82835
 C424 C 0.93462 0.66487 0.84948
 C425 C 1.00520 0.64166 0.90569
 C426 C 0.97918 0.67018 0.88234
 H427 H 1.03852 0.64729 0.93142
 H428 H 0.99337 0.69679 0.89069
 H429 H 1.03849 0.58586 0.95266
 H430 H 0.91873 0.51190 0.88688
 H431 H 0.81124 0.64623 0.76123
 H432 H 0.91636 0.72095 0.83811
 H433 H 0.88813 0.55693 0.83558
 H434 H 0.86282 0.59863 0.79308
 C435 C 0.05483 0.10883 0.62947
 C436 C 0.09377 0.07860 0.62696
 C437 C 0.07838 0.05028 0.59954
 C438 C 0.02033 0.04844 0.57902
 C439 C -0.02181 0.07670 0.58651
 C440 C -0.00414 0.10697 0.61017
 C441 C 0.07874 0.14098 0.65310
 C442 C 0.05460 0.17577 0.64790
 C443 C 0.08395 0.20506 0.66800
 C444 C 0.13574 0.19992 0.69557
 C445 C 0.15529 0.16462 0.70305
 C446 C 0.13172 0.13634 0.67947
 C447 C 0.14812 0.07674 0.65183
 C448 C 0.16463 0.10420 0.67962
 H449 H 0.17733 0.05328 0.65080
 H450 H 0.20640 0.10114 0.69916
 H451 H 0.11377 0.03089 0.59258
 H452 H -0.06699 0.07684 0.57107
 H453 H 0.06651 0.23156 0.66173
 H454 H 0.19357 0.15865 0.72463
 H455 H -0.03661 0.12877 0.61305
 H456 H 0.01518 0.18071 0.62671
 C457 C 0.12261 0.37926 0.41476
 C458 C 0.15978 0.40437 0.43623
 C459 C 0.13205 0.42907 0.46472
 C460 C 0.06787 0.42801 0.47300
 C461 C 0.03481 0.39850 0.45813
 C462 C 0.06134 0.37478 0.42862
 C463 C 0.15012 0.35816 0.37837
 C464 C 0.11332 0.34012 0.34789
 C465 C 0.14043 0.31964 0.31523
 C466 C 0.20516 0.31582 0.31257
 C467 C 0.24227 0.33613 0.34096
 C468 C 0.21489 0.35833 0.37275
 C469 C 0.22363 0.40492 0.42807
 C470 C 0.25102 0.38123 0.39831
 H471 H 0.25283 0.42354 0.44529
 H472 H 0.30067 0.38198 0.39382
 H473 H 0.15987 0.45024 0.47805
 H474 H -0.01318 0.39496 0.46651
 H475 H 0.10991 0.30573 0.29302
 H476 H 0.29219 0.33433 0.33884
 H477 H 0.03299 0.35362 0.41609
 H478 H 0.06343 0.34175 0.34875
 C479 C 0.37240 0.61199 0.89138
 C480 C 0.43346 0.61644 0.90730
 C481 C 0.45797 0.59329 0.93899
 C482 C 0.42616 0.56272 0.95134
 C483 C 0.36499 0.55861 0.93626
 C484 C 0.33806 0.58320 0.90725
 C485 C 0.34856 0.63723 0.85685
 C486 C 0.28651 0.63830 0.84208
 C487 C 0.26685 0.66359 0.81086
 C488 C 0.30898 0.68762 0.79275
 C489 C 0.37139 0.68511 0.80596
 C490 C 0.39061 0.66161 0.83880
 C491 C 0.47157 0.64240 0.88933
 C492 C 0.45125 0.66370 0.85481
 H493 H 0.51872 0.64532 0.90090
 H494 H 0.48316 0.68276 0.84115
 H495 H 0.50425 0.59779 0.95123
 H496 H 0.33831 0.53565 0.94542
 H497 H 0.21851 0.66481 0.80160
 H498 H 0.40571 0.70266 0.79238
 H499 H 0.29164 0.57824 0.89581
 H500 H 0.25224 0.62071 0.85544
 C501 C 0.63131 0.10383 0.61278
 C502 C 0.61921 0.07024 0.63074
 C503 C 0.59282 0.04419 0.60426
 C504 C 0.57096 0.05208 0.56137
 C505 C 0.58364 0.08541 0.54350
 C506 C 0.61380 0.11096 0.56872
 C507 C 0.65888 0.13101 0.64234
 C508 C 0.68074 0.16314 0.62613
 C509 C 0.70120 0.18896 0.65483
 C510 C 0.69940 0.18420 0.70110
 C511 C 0.68342 0.15063 0.71722
 C512 C 0.66393 0.12391 0.68808
 C513 C 0.62988 0.06351 0.67568
 C514 C 0.64988 0.09015 0.70405
 H515 H 0.61980 0.03772 0.68953
 H516 H 0.65476 0.08418 0.73885
 H517 H 0.58563 0.01833 0.61874
 H518 H 0.56941 0.09212 0.51033
 H519 H 0.71737 0.21312 0.63980
 H520 H 0.68654 0.14505 0.75210
 H521 H 0.62050 0.13658 0.55378
 H522 H 0.68254 0.16884 0.59130
 C523 C 0.86247 0.88644 0.09571
 C524 C 0.91663 0.90334 0.10999
 C525 C 0.94481 0.92789 0.08339
 C526 C 0.92838 0.93258 0.03891
 C527 C 0.87642 0.91421 0.02319
 C528 C 0.84287 0.89183 0.05171
 C529 C 0.83092 0.86281 0.12822
 C530 C 0.76978 0.85061 0.12374
 C531 C 0.74408 0.82835 0.15615
 C532 C 0.78012 0.81654 0.19222
 C533 C 0.84134 0.82816 0.19502
 C534 C 0.86447 0.85311 0.16639
 C535 C 0.94428 0.89514 0.15044
 C536 C 0.92074 0.86881 0.17680
 H537 H 0.98647 0.90800 0.16084
 H538 H 0.94538 0.86189 0.20684
 H539 H 0.98022 0.94354 0.09871
 H540 H 0.86059 0.91804 -0.01038
 H541 H 0.69733 0.81896 0.15174
 H542 H 0.87299 0.81743 0.21922
 H543 H 0.80274 0.87839 0.03913
 H544 H 0.74163 0.85840 0.09579
 C545 C 0.86529 0.09723 0.87022
 C546 C 0.85846 0.10052 0.91639
 C547 C 0.87567 0.07265 0.94426
 C548 C 0.91183 0.04466 0.92819
 C549 C 0.91768 0.04087 0.88218
 C550 C 0.89323 0.06643 0.85341
 C551 C 0.84789 0.12822 0.84191
 C552 C 0.83838 0.12616 0.79596
 C553 C 0.81662 0.15585 0.77233
 C554 C 0.80697 0.18830 0.79386
 C555 C 0.82627 0.19118 0.83799
 C556 C 0.83888 0.16104 0.86293
 C557 C 0.84211 0.13308 0.93499
 C558 C 0.83646 0.16322 0.90894
 H559 H 0.83841 0.13588 0.97043
 H560 H 0.82707 0.18831 0.92494
 H561 H 0.86778 0.07540 0.97906
 H562 H 0.94358 0.01898 0.86824
 H563 H 0.80608 0.15310 0.73769
 H564 H 0.82334 0.21623 0.85516
 H565 H 0.90084 0.06317 0.81848
 H566 H 0.84381 0.10139 0.77860
 C567 C 0.12491 0.60185 0.62112
 C568 C 0.06671 0.58893 0.63359
 C569 C 0.03746 0.56327 0.60700
 C570 C 0.06703 0.54965 0.56893
 C571 C 0.12882 0.55889 0.56174
 C572 C 0.15707 0.58502 0.58680
 C573 C 0.15099 0.63253 0.64552
 C574 C 0.19819 0.65285 0.62752
 C575 C 0.22138 0.68154 0.65024
 C576 C 0.20175 0.68996 0.69342
 C577 C 0.15099 0.67110 0.71051
 C578 C 0.12384 0.64331 0.68568
 C579 C 0.03916 0.60176 0.67243
 C580 C 0.06845 0.62727 0.69892
 H581 H -0.00508 0.59153 0.68290
 H582 H 0.04599 0.63569 0.72903
 H583 H -0.00882 0.55482 0.61524
 H584 H 0.15586 0.54614 0.53652
 H585 H 0.25724 0.69629 0.63385
 H586 H 0.13181 0.67853 0.74212
 H587 H 0.20437 0.59160 0.57921
 H588 H 0.21653 0.64756 0.59511
 C589 C 0.60544 0.89951 0.37820
 C590 C 0.63994 0.90961 0.41588
 C591 C 0.61586 0.93459 0.44562
 C592 C 0.55357 0.94501 0.44311
 C593 C 0.52069 0.93643 0.40427
 C594 C 0.54618 0.91416 0.37228
 C595 C 0.63173 0.87154 0.34833
 C596 C 0.60694 0.86290 0.30652
 C597 C 0.63347 0.83568 0.28087
 C598 C 0.68336 0.81551 0.29726
 C599 C 0.70575 0.82353 0.33984
 C600 C 0.68408 0.85269 0.36338
 C601 C 0.69581 0.89246 0.42581
 C602 C 0.71589 0.86352 0.40128
 H603 H 0.72220 0.89991 0.45470
 H604 H 0.75763 0.84976 0.41172
 H605 H 0.64381 0.94299 0.47336
 H606 H 0.47399 0.94600 0.39893
 H607 H 0.61447 0.83016 0.24859
 H608 H 0.74327 0.80825 0.35425
 H609 H 0.51772 0.90716 0.34437
 H610 H 0.56809 0.87743 0.29291
 C611 C 0.38767 0.39980 0.13103
 C612 C 0.41844 0.38728 0.09304
 C613 C 0.43431 0.41046 0.05924
 C614 C 0.42227 0.44702 0.06177
 C615 C 0.38985 0.45954 0.09887
 C616 C 0.37234 0.43622 0.13297
 C617 C 0.37275 0.37325 0.16670
 C618 C 0.34380 0.38174 0.20706
 C619 C 0.32493 0.35473 0.23625
 C620 C 0.33140 0.31884 0.22457
 C621 C 0.36994 0.31119 0.18840
 C622 C 0.38881 0.33744 0.15922
 C623 C 0.43556 0.35169 0.08909
 C624 C 0.42097 0.32731 0.12141
 H625 H 0.46003 0.34236 0.06018
 H626 H 0.43390 0.29984 0.11616
 H627 H 0.46182 0.39992 0.03264
 H628 H 0.38041 0.48757 0.10254
 H629 H 0.30230 0.36217 0.26651
 H630 H 0.38180 0.28405 0.18034
 H631 H 0.34821 0.44712 0.16099
 H632 H 0.33402 0.40890 0.21588
 C633 C 0.57968 0.62271 0.10214
 C634 C 0.61215 0.59037 0.09810
 C635 C 0.59565 0.56614 0.06594
 C636 C 0.54114 0.57012 0.04069
 C637 C 0.50653 0.60154 0.04615
 C638 C 0.52673 0.62814 0.07542
 C639 C 0.60241 0.64849 0.13620
 C640 C 0.58400 0.68436 0.13794
 C641 C 0.61240 0.70776 0.16776
 C642 C 0.65801 0.69558 0.19763
 C643 C 0.67176 0.65925 0.19805
 C644 C 0.64782 0.63649 0.16647
 C645 C 0.65857 0.58081 0.12814
 C646 C 0.67366 0.60262 0.16297
 H647 H 0.68224 0.55547 0.12560
 H648 H 0.70903 0.59367 0.18592
 H649 H 0.62364 0.54236 0.06397
 H650 H 0.46302 0.60519 0.02903
 H651 H 0.60005 0.73556 0.16626
 H652 H 0.70589 0.64871 0.22066
 H653 H 0.49890 0.65189 0.07867
 H654 H 0.55043 0.69496 0.11488
 C655 C 0.09345 0.87486 0.88945
 C656 C 0.13089 0.89291 0.92024
 C657 C 0.10524 0.91871 0.94743
 C658 C 0.04180 0.92663 0.94607
 C659 C 0.00376 0.90715 0.91758
 C660 C 0.02925 0.88163 0.88942
 C661 C 0.12456 0.85006 0.85785
 C662 C 0.09357 0.83300 0.82291
 C663 C 0.12634 0.81173 0.79303
 C664 C 0.19077 0.80751 0.79695
 C665 C 0.22025 0.82228 0.83375
 C666 C 0.18884 0.84440 0.86269
 C667 C 0.19425 0.88583 0.92331
 C668 C 0.22247 0.86160 0.89558
 H669 H 0.22259 0.89943 0.94733
 H670 H 0.27187 0.85722 0.89894
 H671 H 0.13554 0.93316 0.96935
 H672 H -0.04544 0.91247 0.91577
 H673 H 0.10152 0.79933 0.76623
 H674 H 0.26876 0.81720 0.84001
 H675 H -0.00169 0.86794 0.86745
 H676 H 0.04450 0.83630 0.81768
 C677 C 0.42357 0.12667 0.41489
 C678 C 0.45836 0.09862 0.39674
 C679 C 0.47925 0.07096 0.42386
 C680 C 0.46549 0.06995 0.46943
 C681 C 0.43912 0.10045 0.48805
 C682 C 0.41737 0.12823 0.46119
 C683 C 0.39433 0.15292 0.38374
 C684 C 0.35198 0.17882 0.39771
 C685 C 0.32225 0.20086 0.36725
 C686 C 0.33374 0.19809 0.32158
 C687 C 0.37797 0.17316 0.30769
 C688 C 0.40682 0.15004 0.33806
 C689 C 0.47038 0.09761 0.35136
 C690 C 0.44598 0.12310 0.32276
 H691 H 0.49821 0.07638 0.33760
 H692 H 0.45581 0.12080 0.28788
 H693 H 0.50394 0.04923 0.40846
 H694 H 0.43493 0.10306 0.52320
 H695 H 0.28958 0.21999 0.38012
 H696 H 0.38861 0.17066 0.27319
 H697 H 0.39541 0.15050 0.47716
 H698 H 0.33983 0.18183 0.43195
 C699 C 0.88035 0.38330 0.60548
 C700 C 0.93701 0.37469 0.58518
 C701 C 0.96605 0.39993 0.55795
 C702 C 0.93598 0.43225 0.54767
 C703 C 0.87648 0.43838 0.56510
 C704 C 0.84928 0.41448 0.59348
 C705 C 0.85427 0.35853 0.63841
 C706 C 0.80881 0.36939 0.66827
 C707 C 0.78415 0.34549 0.69786
 C708 C 0.80126 0.30963 0.69745
 C709 C 0.85089 0.29923 0.66999
 C710 C 0.87912 0.32402 0.64174
 C711 C 0.96295 0.34085 0.59201
 C712 C 0.93298 0.31545 0.61811
 H713 H 1.00580 0.33355 0.57589
 H714 H 0.95354 0.28929 0.62120
 H715 H 1.01203 0.39456 0.54572
 H716 H 0.85071 0.46244 0.55821
 H717 H 0.75284 0.35577 0.72190
 H718 H 0.86828 0.27226 0.67101
 H719 H 0.80365 0.42078 0.60570
 H720 H 0.79333 0.39662 0.67024
 C721 C 0.85795 0.58134 0.14165
 C722 C 0.83640 0.57763 0.09785
 C723 C 0.85600 0.54914 0.07215
 C724 C 0.90395 0.52665 0.08671
 C725 C 0.92024 0.52753 0.13162
 C726 C 0.89710 0.55456 0.15902
 C727 C 0.84214 0.61507 0.16565
 C728 C 0.85669 0.62132 0.21034
 C729 C 0.83924 0.65328 0.23074
 C730 C 0.80871 0.68011 0.20666
 C731 C 0.79843 0.67470 0.16144
 C732 C 0.81139 0.64219 0.14173
 C733 C 0.80105 0.60434 0.07780
 C734 C 0.79054 0.63636 0.09874
 H735 H 0.78439 0.60133 0.04429
 H736 H 0.76500 0.65678 0.08110
 H737 H 0.84009 0.54807 0.03832
 H738 H 0.95613 0.51013 0.14430
 H739 H 0.84843 0.65663 0.26553
 H740 H 0.77494 0.69471 0.14184
 H741 H 0.91458 0.55593 0.19232
 H742 H 0.87959 0.60140 0.23024
 C743 C 0.58131 0.39877 0.63410
 C744 C 0.57975 0.43441 0.64778
 C745 C 0.56433 0.46118 0.61677
 C746 C 0.55333 0.45206 0.57234
 C747 C 0.56478 0.41689 0.55912
 C748 C 0.57769 0.39074 0.58935
 C749 C 0.59342 0.37058 0.66679
 C750 C 0.58422 0.33498 0.65654
 C751 C 0.61016 0.30896 0.68273
 C752 C 0.64490 0.31772 0.72042
 C753 C 0.64114 0.35292 0.73603
 C754 C 0.61644 0.37981 0.70853
 C755 C 0.59579 0.44240 0.69159
 C756 C 0.61628 0.41571 0.72090
 H757 H 0.59562 0.46966 0.70261
 H758 H 0.63219 0.42322 0.75341
 H759 H 0.55982 0.48848 0.62722
 H760 H 0.56231 0.40866 0.52505
 H761 H 0.60574 0.28194 0.67140
 H762 H 0.66229 0.36000 0.76695
 H763 H 0.58570 0.36432 0.57694
 H764 H 0.55968 0.32687 0.62723
 C765 C 0.09498 0.09487 0.35166
 C766 C 0.12761 0.06304 0.36067
 C767 C 0.10139 0.03729 0.38870
 C768 C 0.04553 0.04448 0.41088
 C769 C 0.01682 0.07766 0.40380
 C770 C 0.03957 0.10172 0.37374
 C771 C 0.12433 0.12238 0.32368
 C772 C 0.09205 0.15271 0.30927
 C773 C 0.12339 0.18065 0.29002
 C774 C 0.18775 0.17905 0.28414
 C775 C 0.21880 0.14687 0.29341
 C776 C 0.18727 0.11841 0.31287
 C777 C 0.18802 0.05876 0.34461
 C778 C 0.21799 0.08638 0.32250
 H779 H 0.21379 0.03466 0.35161
 H780 H 0.26595 0.08274 0.31321
 H781 H 0.12664 0.01300 0.39567
 H782 H -0.02338 0.08594 0.42230
 H783 H 0.09679 0.20402 0.28121
 H784 H 0.26752 0.14405 0.28649
 H785 H 0.01516 0.12665 0.37063
 H786 H 0.04272 0.15561 0.31339
 C787 C 0.42337 0.90430 0.85565
 C788 C 0.39412 0.93782 0.85983
 C789 C 0.41598 0.96255 0.89156
 C790 C 0.46358 0.95278 0.92124
 C791 C 0.48683 0.91768 0.91856
 C792 C 0.46879 0.89455 0.88604
 C793 C 0.40023 0.87841 0.82254
 C794 C 0.43153 0.84648 0.81333
 C795 C 0.40317 0.82010 0.78879
 C796 C 0.34309 0.82488 0.77193
 C797 C 0.31572 0.85895 0.77570
 C798 C 0.34384 0.88567 0.80108
 C799 C 0.34130 0.94502 0.83415
 C800 C 0.31552 0.91907 0.80655
 H801 H 0.31768 0.97030 0.83718
 H802 H 0.27269 0.92518 0.78944
 H803 H 0.39449 0.98847 0.89427
 H804 H 0.52011 0.90709 0.94179
 H805 H 0.42794 0.79531 0.78492
 H806 H 0.27047 0.86404 0.76227
 H807 H 0.48904 0.86833 0.88676
 H808 H 0.47740 0.84099 0.82583
 C809 C 0.17349 0.91728 0.60644
 C810 C 0.12821 0.93932 0.62616
 C811 C 0.09663 0.96480 0.60105
 C812 C 0.10492 0.96703 0.55527
 C813 C 0.15300 0.94690 0.53630
 C814 C 0.18729 0.92260 0.56158
 C815 C 0.20018 0.88730 0.63328
 C816 C 0.24640 0.86392 0.61780
 C817 C 0.26550 0.83469 0.64323
 C818 C 0.23853 0.82770 0.68447
 C819 C 0.19352 0.85149 0.69986
 C820 C 0.17557 0.88135 0.67564
 C821 C 0.11000 0.93366 0.66975
 C822 C 0.13227 0.90487 0.69368
 H823 H 0.07525 0.95055 0.68478
 H824 H 0.11446 0.90061 0.72660
 H825 H 0.05989 0.97987 0.61654
 H826 H 0.16180 0.94812 0.50125
 H827 H 0.30046 0.81706 0.62996
 H828 H 0.17197 0.84740 0.73104
 H829 H 0.22156 0.90671 0.54483
 H830 H 0.26792 0.86763 0.58612
 C831 C 0.65793 0.58852 0.37983
 C832 C 0.60676 0.56979 0.36315
 C833 C 0.58058 0.54278 0.38784
 C834 C 0.59606 0.53823 0.43245
 C835 C 0.64757 0.55639 0.44915
 C836 C 0.67937 0.58062 0.42266
 C837 C 0.68158 0.61880 0.35321
 C838 C 0.73885 0.63518 0.36094
 C839 C 0.75692 0.66423 0.33522
 C840 C 0.71672 0.67854 0.30309
 C841 C 0.65841 0.66321 0.29771
 C842 C 0.64364 0.63176 0.31883
 C843 C 0.57651 0.58104 0.32471
 C844 C 0.59216 0.61275 0.30466
 H845 H 0.53648 0.56701 0.31245
 H846 H 0.56449 0.62208 0.27706
 H847 H 0.54220 0.52845 0.37374
 H848 H 0.66158 0.55324 0.48322
 H849 H 0.80164 0.67593 0.34126
 H850 H 0.62442 0.67497 0.27584
 H851 H 0.71719 0.59507 0.43719
 H852 H 0.77033 0.62527 0.38590
 C853 C 0.38683 0.10301 0.11760
 C854 C 0.35284 0.07209 0.10823
 C855 C 0.37887 0.04529 0.08064
 C856 C 0.43856 0.04939 0.06241
 C857 C 0.46754 0.08243 0.06907
 C858 C 0.44288 0.10824 0.09603
 C859 C 0.36100 0.13008 0.14860
 C860 C 0.39593 0.15896 0.16318
 C861 C 0.37002 0.18479 0.18989
 C862 C 0.30855 0.18265 0.20465
 C863 C 0.27350 0.15302 0.19121
 C864 C 0.29999 0.12632 0.16406
 C865 C 0.29318 0.06892 0.12605
 C866 C 0.26685 0.09577 0.15243
 H867 H 0.26599 0.04566 0.11888
 H868 H 0.22023 0.09226 0.16452
 H869 H 0.35319 0.02139 0.07389
 H870 H 0.51153 0.08889 0.05456
 H871 H 0.39946 0.20661 0.19892
 H872 H 0.22578 0.15082 0.20136
 H873 H 0.46877 0.13238 0.09909
 H874 H 0.44389 0.16218 0.15466
 C875 C 0.86179 0.40575 0.87994
 C876 C 0.82699 0.42856 0.90703
 C877 C 0.85798 0.45354 0.93369
 C878 C 0.92349 0.45345 0.93650
 C879 C 0.95575 0.42753 0.91284
 C880 C 0.92621 0.40495 0.88413
 C881 C 0.82916 0.38015 0.85134
 C882 C 0.86050 0.36176 0.81839
 C883 C 0.83186 0.33488 0.79587
 C884 C 0.76990 0.32559 0.80417
 C885 C 0.73641 0.34592 0.83517
 C886 C 0.76558 0.37408 0.85787
 C887 C 0.76249 0.42413 0.90935
 C888 C 0.73280 0.39647 0.88668
 H889 H 0.73514 0.44098 0.93073
 H890 H 0.68360 0.39292 0.89129
 H891 H 0.83113 0.47135 0.95414
 H892 H 1.00372 0.42259 0.91806
 H893 H 0.86030 0.32080 0.77243
 H894 H 0.68851 0.33977 0.84182
 H895 H 0.95446 0.38528 0.86782
 H896 H 0.90774 0.36758 0.80975
 C897 C 0.60033 0.09675 0.86951
 C898 C 0.53953 0.08479 0.86300
 C899 C 0.51873 0.05504 0.88715
 C900 C 0.56037 0.03578 0.91434
 C901 C 0.62384 0.04398 0.91157
 C902 C 0.64327 0.07471 0.89081
 C903 C 0.61759 0.13211 0.85234
 C904 C 0.66615 0.15139 0.87081
 C905 C 0.68260 0.18384 0.85288
 C906 C 0.65583 0.19599 0.81342
 C907 C 0.60122 0.17926 0.79862
 C908 C 0.58043 0.14802 0.81954
 C909 C 0.50125 0.10309 0.83285
 C910 C 0.52289 0.13283 0.80946
 H911 H 0.45498 0.09368 0.82624
 H912 H 0.49295 0.14516 0.78507
 H913 H 0.47022 0.04816 0.88656
 H914 H 0.65851 0.02860 0.92909
 H915 H 0.71818 0.19868 0.86925
 H916 H 0.57622 0.18974 0.77041
 H917 H 0.69172 0.08153 0.89240
 H918 H 0.69084 0.14183 0.89960
 C919 C 0.44427 0.60256 0.63568
 C920 C 0.40699 0.57203 0.63348
 C921 C 0.42409 0.54367 0.60667
 C922 C 0.48161 0.54279 0.58565
 C923 C 0.52307 0.57076 0.59423
 C924 C 0.50395 0.60082 0.61776
 C925 C 0.41726 0.63528 0.65629
 C926 C 0.44041 0.66989 0.64992
 C927 C 0.40828 0.69975 0.66657
 C928 C 0.35399 0.69542 0.69127
 C929 C 0.33468 0.66049 0.69979
 C930 C 0.36218 0.63135 0.68017
 C931 C 0.35165 0.57037 0.65685
 C932 C 0.33143 0.59888 0.68171
 H933 H 0.32391 0.54660 0.65622
 H934 H 0.28846 0.59628 0.69968
 H935 H 0.38956 0.52413 0.59935
 H936 H 0.56818 0.57125 0.57892
 H937 H 0.42570 0.72603 0.66005
 H938 H 0.29456 0.65532 0.71961
 H939 H 0.53540 0.62278 0.62086
 H940 H 0.48152 0.67421 0.63058
 C941 C 0.06417 0.39185 0.14389
 C942 C 0.08277 0.42711 0.15236
 C943 C 0.05608 0.45556 0.12878
 C944 C 0.00970 0.44960 0.09736
 C945 C -0.01531 0.41518 0.09476
 C946 C 0.01221 0.38662 0.11701
 C947 C 0.10103 0.36184 0.16390
 C948 C 0.09465 0.32585 0.15182
 C949 C 0.13242 0.29927 0.17103
 C950 C 0.17655 0.30781 0.20337
 C951 C 0.18117 0.34363 0.21541
 C952 C 0.14667 0.37045 0.19506
 C953 C 0.12936 0.43362 0.18324
 C954 C 0.15916 0.40590 0.20523
 H955 H 0.14299 0.46053 0.19055
 H956 H 0.19466 0.41234 0.22913
 H957 H 0.07445 0.48184 0.13293
 H958 H -0.05252 0.40941 0.07203
 H959 H 0.12638 0.27203 0.16099
 H960 H 0.21073 0.35132 0.24173
 H961 H -0.00632 0.36049 0.11172
 H962 H 0.06158 0.31797 0.12705
 C963 C 0.93074 0.89408 0.35803
 C964 C 0.89468 0.92521 0.36249
 C965 C 0.91414 0.95239 0.38995
 C966 C 0.97352 0.95262 0.40859
 C967 C 1.01279 0.92340 0.39949
 C968 C 0.99110 0.89400 0.37559
 C969 C 0.90166 0.86295 0.33525
 C970 C 0.92367 0.82761 0.33836
 C971 C 0.88994 0.79943 0.31947
 C972 C 0.83523 0.80624 0.29554
 C973 C 0.81689 0.84188 0.29033
 C974 C 0.84598 0.86924 0.31223
 C975 C 0.83841 0.92902 0.34025
 C976 C 0.81632 0.90227 0.31362
 H977 H 0.81162 0.95332 0.34283
 H978 H 0.77288 0.90666 0.29644
 H979 H 0.88003 0.97185 0.39901
 H980 H 1.05862 0.92190 0.41386
 H981 H 0.90657 0.77251 0.32360
 H982 H 0.77705 0.84881 0.27049
 H983 H 1.02138 0.87134 0.37142
 H984 H 0.96522 0.82140 0.35680
 C985 C 0.87663 0.62027 0.58329
 C986 C 0.83815 0.59372 0.56643
 C987 C 0.86342 0.56830 0.53800
 C988 C 0.92637 0.56994 0.52603
 C989 C 0.95923 0.60088 0.53537
 C990 C 0.93490 0.62571 0.56433
 C991 C 0.85474 0.64077 0.62171
 C992 C 0.89623 0.65853 0.64902
 C993 C 0.87474 0.67785 0.68444
 C994 C 0.81086 0.68123 0.69273
 C995 C 0.76945 0.66070 0.66794
 C996 C 0.79166 0.63932 0.63340
 C997 C 0.77616 0.59207 0.57990
 C998 C 0.75259 0.61569 0.61136
 H999 H 0.74565 0.57240 0.56598
 H1000 H 0.70428 0.61398 0.62036
 H1001 H 0.83545 0.54590 0.52854
 H1002 H 1.00644 0.60418 0.52466
 H1003 H 0.90884 0.69142 0.70418
 H1004 H 0.72043 0.66162 0.67508
 H1005 H 0.96333 0.64794 0.57343
 H1006 H 0.94556 0.65744 0.64365
 C1007 C 0.63952 0.39198 0.10646
 C1008 C 0.58737 0.41126 0.12075
 C1009 C 0.55760 0.43446 0.09250
 C1010 C 0.57120 0.43614 0.04722
 C1011 C 0.62164 0.41590 0.03193
 C1012 C 0.65627 0.39440 0.06147
 C1013 C 0.67138 0.36868 0.13991
 C1014 C 0.72954 0.35242 0.13361
 C1015 C 0.75400 0.32907 0.16566
 C1016 C 0.71957 0.32024 0.20355
 C1017 C 0.66246 0.33729 0.20944
 C1018 C 0.64064 0.36269 0.18020
 C1019 C 0.56275 0.40657 0.16285
 C1020 C 0.58713 0.38148 0.19119
 H1021 H 0.52187 0.42111 0.17318
 H1022 H 0.56454 0.37730 0.22261
 H1023 H 0.52184 0.45082 0.10684
 H1024 H 0.63506 0.41728 -0.00237
 H1025 H 0.79765 0.31593 0.15906
 H1026 H 0.63133 0.32930 0.23510
 H1027 H 0.69493 0.37932 0.04876
 H1028 H 0.75589 0.35725 0.10404
 C1029 C 0.35282 0.88569 0.41557
 C1030 C 0.31718 0.91458 0.43029
 C1031 C 0.34448 0.93909 0.45897
 C1032 C 0.40516 0.93295 0.47463
 C1033 C 0.43303 0.89979 0.46718
 C1034 C 0.40783 0.87667 0.43713
 C1035 C 0.33088 0.86548 0.37751
 C1036 C 0.37213 0.84647 0.35109
 C1037 C 0.35014 0.82627 0.31676
 C1038 C 0.28616 0.82318 0.30941
 C1039 C 0.24506 0.84488 0.33349
 C1040 C 0.26804 0.86784 0.36582
 C1041 C 0.25582 0.91831 0.41545
 C1042 C 0.23047 0.89380 0.38573
 H1043 H 0.22692 0.93968 0.42765
 H1044 H 0.18232 0.89655 0.37627
 H1045 H 0.31992 0.96330 0.46714
 H1046 H 0.47796 0.89304 0.48017
 H1047 H 0.38379 0.81168 0.29758
 H1048 H 0.19570 0.84360 0.32769
 H1049 H 0.43295 0.85256 0.42955
 H1050 H 0.42154 0.84726 0.35657
 C1051 C 0.11778 0.11469 0.89412
 C1052 C 0.05540 0.11833 0.90741
 C1053 C 0.03022 0.09470 0.93782
 C1054 C 0.06311 0.06454 0.95127
 C1055 C 0.12581 0.06151 0.93916
 C1056 C 0.15306 0.08648 0.91147
 C1057 C 0.14224 0.14010 0.86058
 C1058 C 0.20527 0.14219 0.84894
 C1059 C 0.22533 0.16750 0.81836
 C1060 C 0.18275 0.19027 0.79748
 C1061 C 0.11958 0.18675 0.80764
 C1062 C 0.09977 0.16356 0.84026
 C1063 C 0.01703 0.14396 0.88806
 C1064 C 0.03808 0.16517 0.85397
 H1065 H -0.03073 0.14662 0.89806
 H1066 H 0.00591 0.18379 0.83892
 H1067 H -0.01637 0.09898 0.94893
 H1068 H 0.15376 0.03909 0.94956
 H1069 H 0.27425 0.16979 0.81204
 H1070 H 0.08502 0.20338 0.79184
 H1071 H 0.20062 0.08220 0.90212
 H1072 H 0.23987 0.12554 0.86442
 C1073 C 0.10830 0.89811 0.12222
 C1074 C 0.11968 0.93446 0.12840
 C1075 C 0.10377 0.95882 0.09460
 C1076 C 0.07708 0.94680 0.05477
 C1077 C 0.07285 0.90999 0.04827
 C1078 C 0.08917 0.88615 0.08090
 C1079 C 0.11803 0.87321 0.15955
 C1080 C 0.09628 0.83846 0.15841
 C1081 C 0.11691 0.81403 0.18924
 C1082 C 0.15983 0.82353 0.22226
 C1083 C 0.16742 0.86011 0.22997
 C1084 C 0.14881 0.88506 0.19760
 C1085 C 0.14578 0.94569 0.16846
 C1086 C 0.16177 0.92132 0.20187
 H1087 H 0.15541 0.97348 0.17359
 H1088 H 0.18437 0.93096 0.23135
 H1089 H 0.10823 0.98696 0.10052
 H1090 H 0.04993 0.89879 0.02020
 H1091 H 0.10303 0.78689 0.18417
 H1092 H 0.19036 0.86930 0.25923
 H1093 H 0.08375 0.85837 0.07372
 H1094 H 0.06562 0.82926 0.13282
 C1095 C 0.87981 0.39404 0.38099
 C1096 C 0.92528 0.41640 0.36351
 C1097 C 0.94974 0.44340 0.39007
 C1098 C 0.92701 0.44896 0.43317
 C1099 C 0.87504 0.43004 0.44687
 C1100 C 0.85210 0.40262 0.42140
 C1101 C 0.86157 0.36242 0.35537
 C1102 C 0.83064 0.33439 0.37529
 C1103 C 0.81072 0.30614 0.35038
 C1104 C 0.81909 0.30538 0.30426
 C1105 C 0.85597 0.33170 0.28476
 C1106 C 0.87913 0.35970 0.31072
 C1107 C 0.94530 0.41138 0.31991
 C1108 C 0.92042 0.38456 0.29335
 H1109 H 0.97935 0.42893 0.30582
 H1110 H 0.93552 0.38243 0.25945
 H1111 H 0.98769 0.45903 0.37771
 H1112 H 0.85328 0.43532 0.47812
 H1113 H 0.78496 0.28613 0.36775
 H1114 H 0.86534 0.33086 0.24973
 H1115 H 0.81290 0.38820 0.43385
 H1116 H 0.82138 0.33391 0.41025
 C1117 C 0.36466 0.10079 0.63359
 C1118 C 0.33877 0.09238 0.59200
 C1119 C 0.36322 0.06448 0.56703
 C1120 C 0.41743 0.04687 0.58048
 C1121 C 0.44066 0.05368 0.62291
 C1122 C 0.41478 0.08027 0.64916
 C1123 C 0.33915 0.13215 0.65803
 C1124 C 0.35785 0.14167 0.70104
 C1125 C 0.33182 0.17129 0.72206
 C1126 C 0.28744 0.19242 0.70042
 C1127 C 0.27158 0.18392 0.65669
 C1128 C 0.29427 0.15337 0.63650
 C1129 C 0.29129 0.11326 0.57407
 C1130 C 0.27056 0.14360 0.59536
 H1131 H 0.27160 0.10689 0.54219
 H1132 H 0.23492 0.15951 0.57950
 H1133 H 0.34318 0.05888 0.53504
 H1134 H 0.47957 0.03889 0.63587
 H1135 H 0.34651 0.17756 0.75521
 H1136 H 0.23801 0.19989 0.63882
 H1137 H 0.43598 0.08516 0.68077
 H1138 H 0.39155 0.12623 0.71921
 C1139 C 0.63847 0.59385 0.87650
 C1140 C 0.58743 0.57513 0.85986
 C1141 C 0.55736 0.55045 0.88694
 C1142 C 0.57677 0.54486 0.93093
 C1143 C 0.63022 0.56167 0.94584
 C1144 C 0.66104 0.58553 0.91898
 C1145 C 0.66550 0.62244 0.84873
 C1146 C 0.71042 0.64511 0.86538
 C1147 C 0.73279 0.67241 0.84002
 C1148 C 0.71299 0.67810 0.79613
 C1149 C 0.66718 0.65571 0.77903
 C1150 C 0.64248 0.62828 0.80549
 C1151 C 0.56608 0.58187 0.81684
 C1152 C 0.59363 0.60750 0.78999
 H1153 H 0.52713 0.56732 0.80385
 H1154 H 0.57524 0.61179 0.75714
 H1155 H 0.51686 0.53712 0.87436
 H1156 H 0.64781 0.55710 0.97880
 H1157 H 0.76675 0.68901 0.85577
 H1158 H 0.64970 0.66015 0.74596
 H1159 H 0.70191 0.59743 0.93261
 H1160 H 0.72805 0.64310 0.89854
 C1161 C 0.40851 0.37378 0.89388
 C1162 C 0.37557 0.38514 0.93158
 C1163 C 0.39968 0.41131 0.95886
 C1164 C 0.45925 0.42453 0.95223
 C1165 C 0.49463 0.41047 0.91733
 C1166 C 0.46928 0.38584 0.88808
 C1167 C 0.37615 0.34998 0.86179
 C1168 C 0.39936 0.34128 0.81966
 C1169 C 0.36435 0.32072 0.79026
 C1170 C 0.30507 0.30893 0.80195
 C1171 C 0.28458 0.31576 0.84504
 C1172 C 0.31783 0.33686 0.87396
 C1173 C 0.31821 0.37068 0.94174
 C1174 C 0.29127 0.34586 0.91441
 H1175 H 0.29400 0.37845 0.97146
 H1176 H 0.24760 0.33470 0.92427
 H1177 H 0.37058 0.42223 0.98450
 H1178 H 0.54077 0.41997 0.91085
 H1179 H 0.38298 0.31480 0.75802
 H1180 H 0.24188 0.30493 0.85690
 H1181 H 0.49734 0.37689 0.86086
 H1182 H 0.44361 0.35082 0.80861
 C1183 C 0.90130 0.11978 0.09941
 C1184 C 0.87066 0.08722 0.09434
 C1185 C 0.89228 0.06231 0.06453
 C1186 C 0.94715 0.06728 0.04046
 C1187 C 0.97893 0.09923 0.04618
 C1188 C 0.95571 0.12553 0.07473
 C1189 C 0.87490 0.14570 0.13201
 C1190 C 0.89685 0.18043 0.13751
 C1191 C 0.86842 0.20359 0.16758
 C1192 C 0.81820 0.19244 0.19347
 C1193 C 0.79836 0.15746 0.18895
 C1194 C 0.82436 0.13474 0.15802
 C1195 C 0.81971 0.07857 0.12035
 C1196 C 0.79814 0.10144 0.15235
 H1197 H 0.79688 0.05330 0.11659
 H1198 H 0.75919 0.09326 0.17221
 H1199 H 0.86660 0.03795 0.06207
 H1200 H 1.02234 0.10363 0.02957
 H1201 H 0.88549 0.23036 0.16998
 H1202 H 0.76155 0.14752 0.20933
 H1203 H 0.98181 0.14959 0.07828
 H1204 H 0.93472 0.19034 0.11810
 C1205 C 0.56516 0.86218 0.60951
 C1206 C 0.59184 0.87159 0.56878
 C1207 C 0.56480 0.89784 0.54272
 C1208 C 0.51406 0.91770 0.55702
 C1209 C 0.48546 0.90740 0.59666
 C1210 C 0.51031 0.87971 0.62245
 C1211 C 0.60008 0.83652 0.63838
 C1212 C 0.57694 0.82268 0.67822
 C1213 C 0.61452 0.80122 0.70532
 C1214 C 0.67707 0.79517 0.69469
 C1215 C 0.69803 0.80668 0.65336
 C1216 C 0.66018 0.82629 0.62513
 C1217 C 0.64860 0.85722 0.55563
 C1218 C 0.68292 0.83587 0.58381
 H1219 H 0.66870 0.86445 0.52422
 H1220 H 0.72835 0.82707 0.57326
 H1221 H 0.58703 0.90441 0.51274
 H1222 H 0.44595 0.92198 0.60912
 H1223 H 0.59564 0.79098 0.73574
 H1224 H 0.74475 0.80083 0.64275
 H1225 H 0.48839 0.87384 0.65351
 H1226 H 0.53020 0.82819 0.68874
 C1227 C 0.10246 0.62225 0.40308
 C1228 C 0.03820 0.61660 0.40292
 C1229 C 0.01328 0.59034 0.43031
 C1230 C 0.05233 0.56748 0.45491
 C1231 C 0.11647 0.57155 0.45133
 C1232 C 0.14121 0.59901 0.42680
 C1233 C 0.12757 0.65094 0.37505
 C1234 C 0.18798 0.66299 0.38044
 C1235 C 0.21135 0.68829 0.35226
 C1236 C 0.17629 0.70146 0.31646
 C1237 C 0.11373 0.69181 0.31328
 C1238 C 0.08876 0.66724 0.34329
 C1239 C 0.00028 0.63566 0.37340
 C1240 C 0.02546 0.65944 0.34291
 H1241 H -0.04905 0.63096 0.37247
 H1242 H -0.00515 0.67240 0.31946
 H1243 H -0.03632 0.58661 0.43056
 H1244 H 0.14832 0.55265 0.46570
 H1245 H 0.25826 0.69669 0.35832
 H1246 H 0.08435 0.70372 0.28830
 H1247 H 0.19096 0.60041 0.42471
 H1248 H 0.21757 0.65355 0.40678
   
