data_POSCAR
  _audit_creation_date              2014-09-24
  _audit_creation_method            'ToBaCCo'
  _symmetry_space_group_name_H-M    'P1'
  _symmetry_Int_Tables_number       1
  _symmetry_cell_setting            triclinic
  loop_
  _symmetry_equiv_pos_as_xyz
 x,y,z
_cell_length_a 69.7673
_cell_length_b 69.6921
_cell_length_c 70.9280
_cell_angle_alpha 90.056800
_cell_angle_beta 89.688900
_cell_angle_gamma 89.952200
loop_
  _atom_site_label
  _atom_site_type_symbol
  _atom_site_fract_x
  _atom_site_fract_y
  _atom_site_fract_z
C1 C 0.40990 0.01439 0.27561
 H2 H 0.41064 0.02589 0.26538
 C3 C 0.42150 0.01494 0.29165
 H4 H 0.43117 0.02688 0.29381
 C5 C 0.39646 -0.01523 0.28537
 H6 H 0.38659 -0.02689 0.28306
 C7 C 0.40775 -0.01522 0.30157
 H8 H 0.40658 -0.02694 0.31154
 N9 N 0.39797 -0.00074 0.27256
 C10 C 0.39162 -0.00527 0.21135
 H11 H 0.37620 -0.00645 0.21034
 C12 C 0.40287 -0.00519 0.19498
 H13 H 0.39609 -0.00637 0.18132
 C14 C 0.41930 -0.00193 0.23033
 H15 H 0.42570 -0.00075 0.24409
 C16 C 0.43107 -0.00180 0.21430
 H17 H 0.44644 -0.00037 0.21581
 Zn18 Zn 0.38331 -0.00160 0.24996
 N19 N 0.39990 -0.00320 0.22857
 C20 C 0.37129 0.03355 0.23360
 N21 N 0.36837 0.02140 0.24838
 C22 C 0.35571 0.02592 0.26239
 C23 C 0.34515 0.04303 0.26163
 C24 C 0.36106 0.05074 0.23231
 C25 C 0.37702 -0.04118 0.24892
 C26 C 0.36691 -0.05845 0.25005
 C27 C 0.33749 -0.04031 0.25288
 C28 C 0.34820 -0.02334 0.25169
 N29 N 0.36766 -0.02407 0.25010
 H30 H 0.38177 0.03016 0.22286
 H31 H 0.35391 0.01629 0.27422
 H32 H 0.33513 0.04651 0.27284
 H33 H 0.36359 0.06027 0.22050
 H34 H 0.39247 -0.04138 0.24751
 H35 H 0.37467 -0.07192 0.24942
 H36 H 0.32204 -0.03952 0.25446
 H37 H 0.34096 -0.00965 0.25231
 C38 C 0.42275 -0.00319 0.19645
 C39 C 0.42054 -0.00012 0.30466
 C40 C 0.34695 -0.05807 0.25225
 C41 C 0.34785 0.05556 0.24641
 C42 C 0.08909 0.01434 0.72389
 H43 H 0.08821 0.02601 0.73393
 C44 C 0.07746 0.01445 0.70786
 H45 H 0.06763 0.02624 0.70552
 C46 C 0.10286 -0.01533 0.71460
 H47 H 0.11286 -0.02685 0.71710
 C48 C 0.09154 -0.01576 0.69843
 H49 H 0.09283 -0.02766 0.68866
 N50 N 0.10117 -0.00063 0.72718
 C51 C 0.10713 -0.00412 0.78844
 H52 H 0.12255 -0.00532 0.78958
 C53 C 0.09579 -0.00363 0.80474
 H54 H 0.10247 -0.00451 0.81846
 C55 C 0.07959 -0.00112 0.76924
 H56 H 0.07327 -0.00022 0.75542
 C57 C 0.06772 -0.00057 0.78518
 H58 H 0.05236 0.00090 0.78355
 Zn59 Zn 0.11568 -0.00106 0.74986
 N60 N 0.09897 -0.00237 0.77114
 C61 C 0.12748 0.03431 0.76589
 N62 N 0.13048 0.02198 0.75124
 C63 C 0.14326 0.02629 0.73727
 C64 C 0.15393 0.04332 0.73801
 C65 C 0.13780 0.05142 0.76715
 C66 C 0.12228 -0.04058 0.75139
 C67 C 0.13257 -0.05777 0.75036
 C68 C 0.16179 -0.03944 0.74742
 C69 C 0.15094 -0.02254 0.74852
 N70 N 0.13149 -0.02341 0.75009
 H71 H 0.11690 0.03109 0.77656
 H72 H 0.14513 0.01652 0.72554
 H73 H 0.16409 0.04660 0.72688
 H74 H 0.13525 0.06107 0.77888
 H75 H 0.10683 -0.04090 0.75278
 H76 H 0.12502 -0.07133 0.75102
 H77 H 0.17722 -0.03863 0.74581
 H78 H 0.15806 -0.00881 0.74781
 C79 C 0.07592 -0.00156 0.80310
 C80 C 0.07856 -0.00087 0.69513
 C81 C 0.15249 -0.05722 0.74812
 C82 C 0.15120 0.05598 0.75314
 C83 C 0.58936 0.51374 0.22396
 H84 H 0.58848 0.52540 0.23401
 C85 C 0.57776 0.51387 0.20792
 H86 H 0.56794 0.52567 0.20557
 C87 C 0.60313 0.48407 0.21467
 H88 H 0.61312 0.47254 0.21716
 C89 C 0.59184 0.48366 0.19848
 H90 H 0.59313 0.47177 0.18870
 N91 N 0.60143 0.49875 0.22725
 C92 C 0.60734 0.49522 0.28851
 H93 H 0.62275 0.49400 0.28965
 C94 C 0.59598 0.49570 0.30480
 H95 H 0.60266 0.49481 0.31852
 C96 C 0.57980 0.49826 0.26929
 H97 H 0.57349 0.49919 0.25547
 C98 C 0.56793 0.49881 0.28522
 H99 H 0.55257 0.50031 0.28359
 Zn100 Zn 0.61592 0.49831 0.24994
 N101 N 0.59918 0.49699 0.27120
 C102 C 0.62768 0.53367 0.26600
 N103 N 0.63071 0.52135 0.25135
 C104 C 0.64350 0.52568 0.23741
 C105 C 0.65415 0.54270 0.23816
 C106 C 0.63799 0.55079 0.26728
 C107 C 0.62251 0.45879 0.25146
 C108 C 0.63280 0.44161 0.25044
 C109 C 0.66203 0.45994 0.24757
 C110 C 0.65117 0.47684 0.24865
 N111 N 0.63172 0.47597 0.25018
 H112 H 0.61708 0.53044 0.27666
 H113 H 0.64538 0.51591 0.22567
 H114 H 0.66433 0.54600 0.22704
 H115 H 0.63541 0.56043 0.27901
 H116 H 0.60706 0.45848 0.25281
 H117 H 0.62526 0.42804 0.25109
 H118 H 0.67746 0.46075 0.24600
 H119 H 0.65830 0.49057 0.24796
 C120 C 0.57612 0.49781 0.30315
 C121 C 0.57887 0.49856 0.19517
 C122 C 0.65272 0.44216 0.24825
 C123 C 0.65139 0.55536 0.25329
 C124 C 0.91143 0.51492 0.77641
 H125 H 0.91223 0.52639 0.76617
 C126 C 0.92295 0.51549 0.79251
 H127 H 0.93261 0.52746 0.79465
 C128 C 0.89787 0.48536 0.78620
 H129 H 0.88797 0.47372 0.78388
 C130 C 0.90908 0.48538 0.80246
 H131 H 0.90778 0.47368 0.81244
 N132 N 0.89946 0.49981 0.77336
 C133 C 0.89296 0.49524 0.71216
 H134 H 0.87753 0.49401 0.71123
 C135 C 0.90411 0.49529 0.69573
 H136 H 0.89726 0.49406 0.68211
 C137 C 0.92072 0.49870 0.73098
 H138 H 0.92719 0.49995 0.74471
 C139 C 0.93241 0.49881 0.71489
 H140 H 0.94779 0.50029 0.71631
 Zn141 Zn 0.88479 0.49898 0.75076
 N142 N 0.90132 0.49737 0.72933
 C143 C 0.87278 0.53413 0.73440
 N144 N 0.86987 0.52199 0.74919
 C145 C 0.85721 0.52651 0.76321
 C146 C 0.84663 0.54361 0.76243
 C147 C 0.86252 0.55130 0.73310
 C148 C 0.87840 0.45940 0.74975
 C149 C 0.86821 0.44217 0.75082
 C150 C 0.83887 0.46038 0.75354
 C151 C 0.84962 0.47733 0.75241
 N152 N 0.86909 0.47654 0.75089
 H153 H 0.88326 0.53074 0.72367
 H154 H 0.85542 0.51689 0.77504
 H155 H 0.83659 0.54708 0.77363
 H156 H 0.86503 0.56082 0.72127
 H157 H 0.89385 0.45914 0.74839
 H158 H 0.87585 0.42864 0.75022
 H159 H 0.82343 0.46113 0.75505
 H160 H 0.84241 0.49104 0.75300
 C161 C 0.92400 0.49735 0.69708
 C162 C 0.92188 0.50048 0.80559
 C163 C 0.84828 0.44263 0.75293
 C164 C 0.84930 0.55612 0.74719
 C165 C 0.22386 0.39369 0.98459
 H166 H 0.23456 0.39405 0.97349
 C167 C 0.20695 0.40434 0.98275
 H168 H 0.20472 0.41302 0.97030
 C169 C 0.21332 0.38136 1.01400
 H170 H 0.21562 0.37203 1.02593
 C171 C 0.19622 0.39178 1.01272
 H172 H 0.18553 0.39060 1.02380
 N173 N 0.22673 0.38247 1.00002
 C174 C 0.28865 0.37149 1.00158
 H175 H 0.28843 0.35597 1.00175
 C176 C 0.30608 0.38123 1.00297
 H177 H 0.31932 0.37319 1.00407
 C178 C 0.27162 0.40092 1.00045
 H179 H 0.25814 0.40852 0.99983
 C180 C 0.28879 0.41124 1.00183
 H181 H 0.28847 0.42678 1.00206
 Zn182 Zn 0.24895 0.36657 1.00019
 N183 N 0.27187 0.38137 1.00029
 C184 C 0.26180 0.35101 0.96499
 N185 N 0.24766 0.35090 0.97831
 C186 C 0.23155 0.34016 0.97603
 C187 C 0.22927 0.32876 0.95998
 C188 C 0.26009 0.33980 0.94872
 C189 C 0.25138 0.36002 1.03909
 C190 C 0.25348 0.34935 1.05563
 C191 C 0.25207 0.32030 1.03709
 C192 C 0.24999 0.33150 1.02088
 N193 N 0.24964 0.35101 1.02216
 H194 H 0.27430 0.35994 0.96684
 H195 H 0.22041 0.34055 0.98669
 H196 H 0.21637 0.32031 0.95828
 H197 H 0.27136 0.34003 0.93815
 H198 H 0.25143 0.37553 1.03968
 H199 H 0.25499 0.35667 1.06903
 H200 H 0.25251 0.30480 1.03593
 H201 H 0.24911 0.32459 1.00728
 C202 C 0.30618 0.40130 1.00317
 C203 C 0.19292 0.40327 0.99689
 C204 C 0.25393 0.32931 1.05462
 C205 C 0.24367 0.32858 0.94619
 C206 C 0.77478 0.10623 0.98443
 H207 H 0.76432 0.10565 0.97324
 C208 C 0.79187 0.09582 0.98282
 H209 H 0.79445 0.08708 0.97041
 C210 C 0.78452 0.11896 1.01386
 H211 H 0.78187 0.12838 1.02569
 C212 C 0.80180 0.10878 1.01282
 H213 H 0.81221 0.11026 1.02401
 N214 N 0.77142 0.11754 0.99976
 C215 C 0.70937 0.12800 1.00065
 H216 H 0.70944 0.14352 1.00078
 C217 C 0.69200 0.11809 1.00191
 H218 H 0.67866 0.12602 1.00286
 C219 C 0.72669 0.09872 0.99980
 H220 H 0.74025 0.09124 0.99935
 C221 C 0.70959 0.08824 1.00105
 H222 H 0.71005 0.07271 1.00134
 Zn223 Zn 0.74907 0.13325 0.99967
 N224 N 0.72627 0.11826 0.99957
 C225 C 0.73700 0.14838 0.96420
 N226 N 0.75074 0.14883 0.97774
 C227 C 0.76685 0.15964 0.97557
 C228 C 0.76955 0.17071 0.95935
 C229 C 0.73914 0.15925 0.94775
 C230 C 0.74586 0.13965 1.03852
 C231 C 0.74387 0.15019 1.05519
 C232 C 0.74589 0.17939 1.03697
 C233 C 0.74785 0.16831 1.02061
 N234 N 0.74792 0.14879 1.02168
 H235 H 0.72452 0.13939 0.96596
 H236 H 0.77770 0.15950 0.98642
 H237 H 0.78247 0.17917 0.95772
 H238 H 0.72821 0.15871 0.93697
 H239 H 0.74562 0.12414 1.03894
 H240 H 0.74222 0.14277 1.06851
 H241 H 0.74580 0.19491 1.03600
 H242 H 0.74902 0.17533 1.00708
 C243 C 0.69208 0.09803 1.00219
 C244 C 0.80560 0.09721 0.99708
 C245 C 0.74383 0.17024 1.05441
 C246 C 0.75559 0.17048 0.94528
 C247 C 0.27438 0.60691 0.48405
 H248 H 0.26395 0.60635 0.47283
 C249 C 0.29144 0.59645 0.48250
 H250 H 0.29408 0.58770 0.47012
 C251 C 0.28408 0.61960 0.51352
 H252 H 0.28142 0.62902 0.52535
 C253 C 0.30132 0.60937 0.51251
 H254 H 0.31174 0.61078 0.52370
 N255 N 0.27101 0.61823 0.49938
 C256 C 0.20896 0.62868 0.50019
 H257 H 0.20901 0.64420 0.50031
 C258 C 0.19159 0.61876 0.50142
 H259 H 0.17824 0.62667 0.50236
 C260 C 0.22630 0.59942 0.49937
 H261 H 0.23987 0.59194 0.49894
 C262 C 0.20921 0.58892 0.50060
 H263 H 0.20969 0.57339 0.50090
 Zn264 Zn 0.24867 0.63395 0.49926
 N265 N 0.22586 0.61896 0.49914
 C266 C 0.23663 0.64909 0.46379
 N267 N 0.25037 0.64953 0.47735
 C268 C 0.26647 0.66035 0.47519
 C269 C 0.26918 0.67143 0.45898
 C270 C 0.23878 0.65997 0.44735
 C271 C 0.24541 0.64033 0.53811
 C272 C 0.24341 0.65086 0.55479
 C273 C 0.24547 0.68007 0.53659
 C274 C 0.24744 0.66900 0.52023
 N275 N 0.24748 0.64948 0.52128
 H276 H 0.22415 0.64010 0.46554
 H277 H 0.27731 0.66021 0.48605
 H278 H 0.28210 0.67989 0.45736
 H279 H 0.22786 0.65944 0.43656
 H280 H 0.24515 0.62482 0.53853
 H281 H 0.24174 0.64343 0.56811
 H282 H 0.24540 0.69558 0.53563
 H283 H 0.24862 0.67602 0.50671
 C284 C 0.19169 0.59869 0.50170
 C285 C 0.30512 0.59780 0.49679
 C286 C 0.24340 0.67091 0.55403
 C287 C 0.25523 0.67121 0.44490
 C288 C 0.72382 0.89307 0.48458
 H289 H 0.73452 0.89342 0.47349
 C290 C 0.70689 0.90367 0.48272
 H291 H 0.70464 0.91232 0.47025
 C292 C 0.71331 0.88078 0.51403
 H293 H 0.71562 0.87149 0.52598
 C294 C 0.69618 0.89116 0.51272
 H295 H 0.68549 0.88998 0.52379
 N296 N 0.72672 0.88189 0.50004
 C297 C 0.78868 0.87116 0.50163
 H298 H 0.78853 0.85564 0.50183
 C299 C 0.80607 0.88099 0.50300
 H300 H 0.81934 0.87300 0.50412
 C301 C 0.77153 0.90052 0.50046
 H302 H 0.75802 0.90807 0.49984
 C303 C 0.78865 0.91092 0.50182
 H304 H 0.78826 0.92646 0.50202
 Zn305 Zn 0.74900 0.86608 0.50026
 N306 N 0.77186 0.88098 0.50033
 C307 C 0.76191 0.85054 0.46508
 N308 N 0.74779 0.85035 0.47841
 C309 C 0.73173 0.83952 0.47615
 C310 C 0.72949 0.82811 0.46010
 C311 C 0.76023 0.83932 0.44881
 C312 C 0.75144 0.85966 0.53918
 C313 C 0.75361 0.84907 0.55576
 C314 C 0.75234 0.81994 0.53732
 C315 C 0.75020 0.83107 0.52107
 N316 N 0.74975 0.85058 0.52228
 H317 H 0.77436 0.85954 0.46691
 H318 H 0.72060 0.83985 0.48683
 H319 H 0.71663 0.81960 0.45841
 H320 H 0.77148 0.83962 0.43822
 H321 H 0.75142 0.87517 0.53972
 H322 H 0.75509 0.85644 0.56913
 H323 H 0.75285 0.80444 0.53621
 H324 H 0.74934 0.82410 0.50749
 C325 C 0.80608 0.90105 0.50317
 C326 C 0.69286 0.90261 0.49686
 C327 C 0.75417 0.82902 0.55481
 C328 C 0.74387 0.82802 0.44629
 C329 C 0.01203 0.27603 0.39405
 H330 H 0.02531 0.26800 0.39426
 C331 C 0.01018 0.29273 0.40469
 H332 H 0.02204 0.29767 0.41321
 C333 C -0.01952 0.27978 0.38218
 H334 H -0.03087 0.27489 0.37308
 C335 C -0.02197 0.29658 0.39260
 H336 H -0.03526 0.30456 0.39164
 N337 N -0.00274 0.26987 0.38319
 C338 C 0.00697 0.20923 0.37510
 H339 H 0.00677 0.20859 0.35986
 C340 C 0.00891 0.19246 0.38555
 H341 H 0.01022 0.17878 0.37837
 C342 C 0.00491 0.22783 0.40312
 H343 H 0.00294 0.24159 0.40987
 C344 C 0.00680 0.21139 0.41414
 H345 H 0.00642 0.21254 0.42938
 Zn346 Zn 0.00161 0.24791 0.36856
 N347 N 0.00517 0.22643 0.38398
 C348 C 0.03918 0.24098 0.35588
 N349 N 0.02359 0.25254 0.35401
 C350 C 0.02397 0.26837 0.34279
 C351 C 0.04053 0.27299 0.33267
 C352 C 0.05596 0.24506 0.34602
 C353 C -0.03590 0.23752 0.36258
 C354 C -0.05251 0.23368 0.35251
 C355 C -0.03505 0.23992 0.32357
 C356 C -0.01871 0.24362 0.33422
 N357 N -0.01959 0.24273 0.35337
 H358 H 0.03880 0.22884 0.36529
 H359 H 0.01146 0.27751 0.34195
 H360 H 0.04086 0.28565 0.32383
 H361 H 0.06838 0.23586 0.34765
 H362 H -0.03602 0.23668 0.37781
 H363 H -0.06560 0.23001 0.35995
 H364 H -0.03450 0.24110 0.30835
 H365 H -0.00546 0.24736 0.32721
 C366 C 0.00879 0.19360 0.40523
 C367 C -0.00696 0.30306 0.40389
 C368 C -0.05209 0.23508 0.33287
 C369 C 0.05663 0.26120 0.33440
 C370 C 0.01239 0.72477 0.10965
 H371 H 0.02548 0.73307 0.11005
 C372 C 0.01165 0.70785 0.09923
 H373 H 0.02418 0.70301 0.09148
 C374 C -0.01990 0.72066 0.11961
 H375 H -0.03202 0.72553 0.12785
 C376 C -0.02125 0.70364 0.10938
 H377 H -0.03446 0.69547 0.10960
 N378 N -0.00329 0.73089 0.11939
 C379 C 0.00405 0.79203 0.12594
 H380 H 0.00262 0.79321 0.14109
 C381 C 0.00632 0.80846 0.11502
 H382 H 0.00666 0.82243 0.12172
 C383 C 0.00476 0.77239 0.09856
 H384 H 0.00373 0.75836 0.09219
 C385 C 0.00703 0.78848 0.08710
 H386 H 0.00790 0.78683 0.07193
 Zn387 Zn -0.00066 0.75343 0.13352
 N388 N 0.00347 0.77447 0.11760
 C389 C 0.03559 0.76190 0.14838
 N390 N 0.02027 0.74991 0.14957
 C391 C 0.02032 0.73433 0.16112
 C392 C 0.03632 0.73033 0.17217
 C393 C 0.05180 0.75846 0.15918
 C394 C -0.03885 0.76296 0.13685
 C395 C -0.05628 0.76658 0.14578
 C396 C -0.04079 0.76169 0.17588
 C397 C -0.02361 0.75818 0.16634
 N398 N -0.02311 0.75850 0.14717
 H399 H 0.03551 0.77385 0.13872
 H400 H 0.00806 0.72484 0.16144
 H401 H 0.03647 0.71777 0.18115
 H402 H 0.06408 0.76790 0.15797
 H403 H -0.03786 0.76337 0.12163
 H404 H -0.06886 0.76964 0.13738
 H405 H -0.04123 0.76094 0.19115
 H406 H -0.01079 0.75503 0.17423
 C407 C 0.00780 0.80661 0.09546
 C408 C -0.00533 0.69725 0.09911
 C409 C -0.05728 0.76573 0.16545
 C410 C 0.05219 0.74249 0.17104
 C411 C 0.51302 0.22389 0.60848
 H412 H 0.52624 0.23199 0.60878
 C413 C 0.51191 0.20703 0.59799
 H414 H 0.52429 0.20204 0.59010
 C415 C 0.48078 0.22021 0.61877
 H416 H 0.46883 0.22521 0.62717
 C417 C 0.47906 0.20326 0.60848
 H418 H 0.46574 0.19528 0.60882
 N419 N 0.49754 0.23018 0.61843
 C420 C 0.50600 0.29114 0.62526
 H421 H 0.50483 0.29223 0.64044
 C422 C 0.50832 0.30761 0.61442
 H423 H 0.50894 0.32153 0.62120
 C424 C 0.50597 0.27169 0.59774
 H425 H 0.50461 0.25772 0.59131
 C426 C 0.50827 0.28783 0.58636
 H427 H 0.50882 0.28628 0.57117
 Zn428 Zn 0.50070 0.25259 0.63265
 N429 N 0.50501 0.27365 0.61682
 C430 C 0.53727 0.26032 0.64716
 N431 N 0.52174 0.24862 0.64848
 C432 C 0.52160 0.23304 0.66004
 C433 C 0.53759 0.22879 0.67102
 C434 C 0.55348 0.25663 0.65788
 C435 C 0.46272 0.26272 0.63642
 C436 C 0.44546 0.26663 0.64556
 C437 C 0.46118 0.26143 0.67546
 C438 C 0.47820 0.25764 0.66574
 N439 N 0.47850 0.25797 0.64656
 H440 H 0.53733 0.27226 0.63748
 H441 H 0.50917 0.22377 0.66045
 H442 H 0.53755 0.21627 0.68005
 H443 H 0.56589 0.26588 0.65660
 H444 H 0.46353 0.26314 0.62119
 H445 H 0.43279 0.26991 0.63740
 H446 H 0.46081 0.26067 0.69072
 H447 H 0.49105 0.25426 0.67349
 C448 C 0.50941 0.30589 0.59483
 C449 C 0.49477 0.19669 0.59802
 C450 C 0.44469 0.26577 0.66522
 C451 C 0.55365 0.24070 0.66979
 C452 C 0.51211 0.77682 0.89253
 H453 H 0.52538 0.76878 0.89278
 C454 C 0.51028 0.79357 0.90309
 H455 H 0.52215 0.79854 0.91158
 C456 C 0.48054 0.78051 0.88070
 H457 H 0.46916 0.77556 0.87167
 C458 C 0.47811 0.79736 0.89104
 H459 H 0.46481 0.80533 0.89009
 N460 N 0.49731 0.77059 0.88175
 C461 C 0.50678 0.70982 0.87440
 H462 H 0.50659 0.70898 0.85917
 C463 C 0.50865 0.69320 0.88509
 H464 H 0.50992 0.67941 0.87814
 C465 C 0.50477 0.72882 0.90217
 H466 H 0.50284 0.74266 0.90874
 C467 C 0.50659 0.71252 0.91340
 H468 H 0.50621 0.71382 0.92862
 Zn469 Zn 0.50158 0.74846 0.86737
 N470 N 0.50504 0.72716 0.88305
 C471 C 0.53913 0.74125 0.85481
 N472 N 0.52360 0.75284 0.85279
 C473 C 0.52409 0.76859 0.84147
 C474 C 0.54074 0.77311 0.83143
 C475 C 0.55599 0.74521 0.84503
 C476 C 0.46406 0.73809 0.86149
 C477 C 0.44745 0.73418 0.85146
 C478 C 0.46489 0.74012 0.82246
 C479 C 0.48125 0.74390 0.83306
 N480 N 0.48038 0.74318 0.85222
 H481 H 0.53866 0.72917 0.86430
 H482 H 0.51162 0.77777 0.84050
 H483 H 0.54117 0.78573 0.82254
 H484 H 0.56838 0.73601 0.84681
 H485 H 0.46395 0.73739 0.87673
 H486 H 0.43435 0.73062 0.85894
 H487 H 0.46543 0.74117 0.80723
 H488 H 0.49450 0.74756 0.82601
 C489 C 0.50852 0.69462 0.90473
 C490 C 0.49313 0.80389 0.90229
 C491 C 0.44785 0.73540 0.83182
 C492 C 0.55679 0.76130 0.83335
 C493 C -0.23526 0.66139 0.97524
 H494 H -0.22389 0.66219 0.98552
 C495 C -0.23467 0.67308 0.95920
 H496 H -0.22280 0.68287 0.95710
 C497 C -0.26465 0.64774 0.96534
 H498 H -0.27624 0.63776 0.96761
 C499 C -0.26459 0.65911 0.94915
 H500 H -0.27619 0.65789 0.93912
 N501 N -0.25032 0.64932 0.97822
 C502 C -0.25541 0.64289 1.03940
 H503 H -0.25649 0.62744 1.04048
 C504 C -0.25555 0.65414 1.05572
 H505 H -0.25679 0.64730 1.06939
 C506 C -0.25214 0.67061 1.02031
 H507 H -0.25090 0.67703 1.00652
 C508 C -0.25222 0.68240 1.03627
 H509 H -0.25088 0.69781 1.03465
 Zn510 Zn -0.25129 0.63461 1.00085
 N511 N -0.25326 0.65118 1.02215
 C512 C -0.21627 0.62285 1.01746
 N513 N -0.22822 0.61987 1.00261
 C514 C -0.22346 0.60727 0.98864
 C515 C -0.20631 0.59681 0.98954
 C516 C -0.19905 0.61273 1.01888
 C517 C -0.29078 0.62793 1.00165
 C518 C -0.30789 0.61762 1.00038
 C519 C -0.28945 0.58840 0.99770
 C520 C -0.27262 0.59927 0.99903
 N521 N -0.27357 0.61874 1.00061
 H522 H -0.21985 0.63329 1.02814
 H523 H -0.23294 0.60543 0.97676
 H524 H -0.20265 0.58683 0.97837
 H525 H -0.18968 0.61529 1.03075
 H526 H -0.29116 0.64338 1.00305
 H527 H -0.32147 0.62516 1.00087
 H528 H -0.28858 0.57296 0.99611
 H529 H -0.25887 0.59216 0.99851
 C530 C -0.25367 0.67407 1.05417
 C531 C -0.24959 0.67205 0.94613
 C532 C -0.30726 0.59769 0.99817
 C533 C -0.19399 0.59956 1.00484
 C534 C -0.23605 0.33861 0.52628
 H535 H -0.22429 0.33778 0.51630
 C536 C -0.23606 0.32751 0.54172
 H537 H -0.22428 0.31772 0.54421
 C538 C -0.26582 0.35326 0.53481
 H539 H -0.27732 0.36326 0.53226
 C540 C -0.26640 0.34137 0.55200
 H541 H -0.27841 0.34281 0.56167
 N542 N -0.25178 0.35150 0.52272
 C543 C -0.25479 0.35755 0.46139
 H544 H -0.25605 0.37298 0.46022
 C545 C -0.25418 0.34624 0.44511
 H546 H -0.25503 0.35296 0.43138
 C547 C -0.25176 0.32994 0.48065
 H548 H -0.25088 0.32359 0.49449
 C549 C -0.25108 0.31810 0.46472
 H550 H -0.24955 0.30273 0.46638
 Zn551 Zn -0.25197 0.36605 0.49995
 N552 N -0.25311 0.34935 0.47871
 C553 C -0.21646 0.37776 0.48402
 N554 N -0.22889 0.38081 0.49861
 C555 C -0.22464 0.39357 0.51254
 C556 C -0.20758 0.40418 0.51183
 C557 C -0.19931 0.38802 0.48279
 C558 C -0.29144 0.37277 0.49818
 C559 C -0.30860 0.38310 0.49912
 C560 C -0.29024 0.41231 0.50208
 C561 C -0.27338 0.40140 0.50108
 N562 N -0.27427 0.38194 0.49955
 H563 H -0.21964 0.36720 0.47336
 H564 H -0.23449 0.39548 0.52423
 H565 H -0.20435 0.41433 0.52295
 H566 H -0.18958 0.38543 0.47110
 H567 H -0.29177 0.35731 0.49683
 H568 H -0.32214 0.37552 0.49840
 H569 H -0.28936 0.42775 0.50367
 H570 H -0.25965 0.40850 0.50185
 C571 C -0.25203 0.32636 0.44678
 C572 C -0.25224 0.32881 0.55524
 C573 C -0.30804 0.40305 0.50132
 C574 C -0.19481 0.40139 0.49677
 C575 C 0.26369 -0.16070 0.02595
 H576 H 0.27546 -0.16160 0.01599
 C577 C 0.26362 -0.17175 0.04141
 H578 H 0.27536 -0.18158 0.04396
 C579 C 0.23396 -0.14593 0.03439
 H580 H 0.22250 -0.13590 0.03179
 C581 C 0.23332 -0.15776 0.05161
 H582 H 0.22129 -0.15624 0.06126
 N583 N 0.24801 -0.14777 0.02232
 C584 C 0.24506 -0.14185 -0.03903
 H585 H 0.24381 -0.12643 -0.04021
 C586 C 0.24567 -0.15319 -0.05528
 H587 H 0.24483 -0.14649 -0.06903
 C588 C 0.24808 -0.16943 -0.01972
 H589 H 0.24895 -0.17576 -0.00587
 C590 C 0.24876 -0.18130 -0.03563
 H591 H 0.25029 -0.19667 -0.03395
 Zn592 Zn 0.24787 -0.13328 -0.00048
 N593 N 0.24673 -0.15003 -0.02169
 C594 C 0.28340 -0.12165 -0.01642
 N595 N 0.27097 -0.11855 -0.00184
 C596 C 0.27522 -0.10575 0.01206
 C597 C 0.29229 -0.09516 0.01133
 C598 C 0.30056 -0.11141 -0.01766
 C599 C 0.20842 -0.12657 -0.00234
 C600 C 0.19126 -0.11625 -0.00140
 C601 C 0.20959 -0.08703 0.00163
 C602 C 0.22646 -0.09792 0.00061
 N603 N 0.22558 -0.11739 -0.00095
 H604 H 0.28022 -0.13224 -0.02704
 H605 H 0.26536 -0.10380 0.02373
 H606 H 0.29552 -0.08498 0.02241
 H607 H 0.31030 -0.11405 -0.02934
 H608 H 0.20810 -0.14203 -0.00371
 H609 H 0.17772 -0.12383 -0.00214
 H610 H 0.21046 -0.07159 0.00324
 H611 H 0.24018 -0.09082 0.00142
 C612 C 0.24782 -0.17307 -0.05358
 C613 C 0.24742 -0.17036 0.05491
 C614 C 0.19179 -0.09631 0.00084
 C615 C 0.30507 -0.09800 -0.00372
 C616 C 0.26468 1.16088 0.47458
 H617 H 0.27609 1.16167 0.48481
 C618 C 0.26520 1.17257 0.45854
 H619 H 0.27706 1.18237 0.45639
 C620 C 0.23524 1.14724 0.46480
 H621 H 0.22364 1.13727 0.46711
 C622 C 0.23523 1.15862 0.44861
 H623 H 0.22358 1.15742 0.43864
 N624 N 0.24962 1.14881 0.47762
 C625 C 0.24476 1.14254 0.53883
 H626 H 0.24373 1.12709 0.53997
 C627 C 0.24470 1.15385 0.55511
 H628 H 0.24355 1.14712 0.56883
 C629 C 0.24789 1.17020 0.51962
 H630 H 0.24904 1.17657 0.50581
 C631 C 0.24787 1.18204 0.53555
 H632 H 0.24917 1.19744 0.53392
 Zn633 Zn 0.24871 1.13415 0.50028
 N634 N 0.24682 1.15078 0.52154
 C635 C 0.28378 1.12239 0.51681
 N636 N 0.27178 1.11940 0.50200
 C637 C 0.27648 1.10675 0.48806
 C638 C 0.29361 1.09625 0.48894
 C639 C 0.30098 1.11222 0.51822
 C640 C 0.20923 1.12748 0.50119
 C641 C 0.19211 1.11717 0.49999
 C642 C 0.21054 1.08793 0.49737
 C643 C 0.22737 1.09881 0.49863
 N644 N 0.22643 1.11828 0.50014
 H645 H 0.28024 1.13287 0.52748
 H646 H 0.26697 1.10489 0.47620
 H647 H 0.29722 1.08622 0.47779
 H648 H 0.31038 1.11480 0.53007
 H649 H 0.20885 1.14294 0.50254
 H650 H 0.17853 1.12471 0.50048
 H651 H 0.21141 1.07249 0.49584
 H652 H 0.24112 1.09169 0.49811
 C653 C 0.24653 1.17377 0.55347
 C654 C 0.25021 1.17157 0.44554
 C655 C 0.19273 1.09722 0.49785
 C656 C 0.30597 1.09901 0.50421
 C657 C 0.14272 0.47448 0.26431
 H658 H 0.14295 0.48513 0.27541
 C659 C 0.15343 0.45761 0.26614
 H660 H 0.16204 0.45535 0.27861
 C661 C 0.13065 0.46404 0.23486
 H662 H 0.12140 0.46635 0.22291
 C663 C 0.14115 0.44696 0.23614
 H664 H 0.14010 0.43632 0.22505
 N665 N 0.13160 0.47739 0.24886
 C666 C 0.12048 0.53939 0.24733
 H667 H 0.10498 0.53915 0.24710
 C668 C 0.13020 0.55688 0.24605
 H669 H 0.12215 0.57013 0.24496
 C670 C 0.14990 0.52239 0.24852
 H671 H 0.15752 0.50891 0.24913
 C672 C 0.16019 0.53961 0.24725
 H673 H 0.17572 0.53932 0.24709
 Zn674 Zn 0.11563 0.49960 0.24866
 N675 N 0.13037 0.52260 0.24861
 C676 C 0.09998 0.51222 0.28391
 N677 N 0.09986 0.49817 0.27055
 C678 C 0.08913 0.48202 0.27285
 C679 C 0.07779 0.47961 0.28898
 C680 C 0.08883 0.51037 0.30026
 C681 C 0.10940 0.50219 0.20973
 C682 C 0.09890 0.50427 0.19312
 C683 C 0.06969 0.50262 0.21153
 C684 C 0.08075 0.50056 0.22780
 N685 N 0.10025 0.50033 0.22662
 H686 H 0.10890 0.52474 0.28205
 H687 H 0.08951 0.47094 0.26216
 H688 H 0.06937 0.46666 0.29071
 H689 H 0.08910 0.52156 0.31087
 H690 H 0.12490 0.50232 0.20922
 H691 H 0.10642 0.50585 0.17979
 H692 H 0.05419 0.50293 0.21270
 H693 H 0.07373 0.49957 0.24136
 C694 C 0.15025 0.55702 0.24594
 C695 C 0.15255 0.44363 0.25199
 C696 C 0.07884 0.50459 0.19400
 C697 C 0.07765 0.49390 0.30284
 C698 C -0.14196 1.02397 0.26558
 H699 H -0.14256 1.01339 0.27673
 C700 C -0.15230 1.04109 0.26734
 H701 H -0.16100 1.04363 0.27979
 C702 C -0.12930 1.03396 0.23610
 H703 H -0.11993 1.03138 0.22419
 C704 C -0.13941 1.05127 0.23731
 H705 H -0.13797 1.06183 0.22619
 N706 N -0.13072 1.02072 0.25015
 C707 C -0.12071 0.95857 0.24891
 H708 H -0.10521 0.95851 0.24873
 C709 C -0.13075 0.94128 0.24761
 H710 H -0.12295 0.92787 0.24656
 C711 C -0.14982 0.97614 0.24994
 H712 H -0.15718 0.98978 0.25048
 C713 C -0.16043 0.95914 0.24865
 H714 H -0.17594 0.95973 0.24841
 Zn715 Zn -0.11517 0.99826 0.25004
 N716 N -0.13030 0.97555 0.25010
 C717 C -0.10005 0.98573 0.28534
 N718 N -0.09958 0.99963 0.27187
 C719 C -0.08869 1.01567 0.27403
 C720 C -0.07756 1.01816 0.29017
 C721 C -0.08911 0.98766 0.30171
 C722 C -0.10878 0.99541 0.21115
 C723 C -0.09825 0.99343 0.19445
 C724 C -0.06908 0.99494 0.21262
 C725 C -0.08017 0.99689 0.22900
 N726 N -0.09966 0.99720 0.22797
 H727 H -0.10910 0.97330 0.28359
 H728 H -0.08882 1.02664 0.26324
 H729 H -0.06904 1.03103 0.29180
 H730 H -0.08966 0.97661 0.31244
 H731 H -0.12428 0.99534 0.21077
 H732 H -0.10570 0.99198 0.18115
 H733 H -0.05358 0.99465 0.21360
 H734 H -0.07318 0.99784 0.24251
 C735 C -0.15080 0.94154 0.24740
 C736 C -0.15091 1.05495 0.25313
 C737 C -0.07820 0.99314 0.19517
 C738 C -0.07780 1.00404 0.30417
 C739 C 0.35718 0.52431 -0.23398
 H740 H 0.35656 0.51381 -0.22276
 C741 C 0.34688 0.54147 -0.23234
 H742 H 0.33818 0.54412 -0.21991
 C743 C 0.36989 0.53407 -0.26351
 H744 H 0.37926 0.53139 -0.27540
 C745 C 0.35982 0.55141 -0.26243
 H746 H 0.36129 0.56189 -0.27362
 N747 N 0.36843 0.52093 -0.24938
 C748 C 0.37901 0.45779 -0.25032
 H749 H 0.39452 0.45779 -0.25026
 C750 C 0.36945 0.44120 -0.25169
 H751 H 0.37727 0.42779 -0.25266
 C752 C 0.35014 0.47623 -0.24941
 H753 H 0.34272 0.48984 -0.24910
 C754 C 0.33898 0.45823 -0.25079
 H755 H 0.32346 0.45891 -0.25108
 Zn756 Zn 0.38395 0.49844 -0.24933
 N757 N 0.36882 0.47572 -0.24915
 C758 C 0.39910 0.48605 -0.21400
 N759 N 0.39951 0.49992 -0.22751
 C760 C 0.41037 0.51599 -0.22539
 C761 C 0.42154 0.51853 -0.20929
 C762 C 0.41007 0.48803 -0.19766
 C763 C 0.39044 0.49534 -0.28820
 C764 C 0.40103 0.49327 -0.30486
 C765 C 0.43013 0.49489 -0.28661
 C766 C 0.41899 0.49693 -0.27027
 N767 N 0.39950 0.49722 -0.27136
 H768 H 0.39008 0.47359 -0.21574
 H769 H 0.41021 0.52693 -0.23621
 H770 H 0.43004 0.53142 -0.20770
 H771 H 0.40956 0.47700 -0.18692
 H772 H 0.37494 0.49527 -0.28864
 H773 H 0.39368 0.49175 -0.31819
 H774 H 0.44562 0.49461 -0.28563
 H775 H 0.42594 0.49796 -0.25674
 C776 C 0.34826 0.44139 -0.25203
 C777 C 0.34831 0.55522 -0.24663
 C778 C 0.42106 0.49300 -0.30406
 C779 C 0.42136 0.50443 -0.19527
 C780 C 0.64502 -0.02596 -0.23441
 H781 H 0.64547 -0.01518 -0.22343
 C782 C 0.65516 -0.04219 -0.23264
 H783 H 0.66387 -0.04447 -0.22024
 C784 C 0.63223 -0.03563 -0.26411
 H785 H 0.62280 -0.03342 -0.27593
 C786 C 0.64327 -0.05372 -0.26279
 H787 H 0.64207 -0.06429 -0.27394
 N788 N 0.63320 -0.02285 -0.25071
 C789 C 0.62207 0.03913 -0.25210
 H790 H 0.60657 0.03890 -0.25228
 C791 C 0.63180 0.05661 -0.25343
 H792 H 0.62371 0.06985 -0.25450
 C793 C 0.65147 0.02210 -0.25100
 H794 H 0.65907 0.00860 -0.25041
 C795 C 0.66179 0.03930 -0.25232
 H796 H 0.67732 0.03894 -0.25254
 Zn797 Zn 0.61721 -0.00066 -0.25078
 N798 N 0.63195 0.02233 -0.25086
 C799 C 0.60160 0.01194 -0.21551
 N800 N 0.60153 -0.00214 -0.22883
 C801 C 0.59083 -0.01831 -0.22652
 C802 C 0.57944 -0.02069 -0.21042
 C803 C 0.59040 0.01012 -0.19919
 C804 C 0.61072 0.00207 -0.28968
 C805 C 0.60010 0.00416 -0.30621
 C806 C 0.57104 0.00240 -0.28763
 C807 C 0.58220 0.00033 -0.27143
 N808 N 0.60169 0.00014 -0.27273
 H809 H 0.61048 0.02449 -0.21738
 H810 H 0.59125 -0.02940 -0.23719
 H811 H 0.57102 -0.03364 -0.20870
 H812 H 0.59060 0.02135 -0.18862
 H813 H 0.62622 0.00224 -0.29030
 H814 H 0.60744 0.00580 -0.31961
 H815 H 0.55555 0.00267 -0.28645
 H816 H 0.57526 -0.00071 -0.25783
 C817 C 0.65186 0.05674 -0.25362
 C818 C 0.65415 -0.05698 -0.24757
 C819 C 0.58007 0.00442 -0.30517
 C820 C 0.57922 -0.00635 -0.19661
 C821 C 0.02697 0.26268 0.85772
 H822 H 0.01886 0.27590 0.85726
 C823 C 0.04398 0.26096 0.84751
 H824 H 0.04908 0.27288 0.83908
 C825 C 0.03052 0.23105 0.86967
 H826 H 0.02539 0.21960 0.87860
 C827 C 0.04762 0.22873 0.85967
 H828 H 0.05560 0.21544 0.86077
 N829 N 0.02054 0.24778 0.86837
 C830 C -0.04041 0.25686 0.87410
 H831 H -0.04172 0.25670 0.88930
 C832 C -0.05669 0.25857 0.86298
 H833 H -0.07069 0.25976 0.86958
 C834 C -0.02059 0.25491 0.84683
 H835 H -0.00655 0.25305 0.84062
 C836 C -0.03653 0.25657 0.83517
 H837 H -0.03476 0.25613 0.81999
 Zn838 Zn -0.00204 0.25187 0.88216
 N839 N -0.02283 0.25522 0.86590
 C840 C -0.00992 0.28936 0.89453
 N841 N 0.00171 0.27388 0.89683
 C842 C 0.01707 0.27441 0.90856
 C843 C 0.02115 0.29105 0.91873
 C844 C -0.00639 0.30621 0.90442
 C845 C -0.01228 0.21420 0.88780
 C846 C -0.01641 0.19751 0.89775
 C847 C -0.01171 0.21497 0.92688
 C848 C -0.00768 0.23139 0.91635
 N849 N -0.00767 0.23055 0.89718
 H850 H -0.02168 0.28886 0.88472
 H851 H 0.02629 0.26198 0.90975
 H852 H 0.03347 0.29152 0.92794
 H853 H -0.01561 0.31855 0.90243
 H854 H -0.01241 0.21411 0.87255
 H855 H -0.01958 0.18438 0.89019
 H856 H -0.01124 0.21549 0.94213
 H857 H -0.00440 0.24468 0.92348
 C858 C -0.05468 0.25838 0.84339
 C859 C 0.05433 0.24384 0.84852
 C860 C -0.01593 0.19789 0.91742
 C861 C 0.00930 0.30705 0.91652
 C862 C 0.47470 0.26096 0.14337
 H863 H 0.48286 0.27415 0.14343
 C864 C 0.45779 0.25962 0.15380
 H865 H 0.45283 0.27180 0.16200
 C866 C 0.47085 0.22907 0.13218
 H867 H 0.47580 0.21737 0.12344
 C868 C 0.45385 0.22713 0.14241
 H869 H 0.44577 0.21389 0.14166
 N870 N 0.48092 0.24577 0.13298
 C871 C 0.54179 0.25446 0.12586
 H872 H 0.54281 0.25378 0.11065
 C873 C 0.55829 0.25650 0.13662
 H874 H 0.57216 0.25740 0.12973
 C875 C 0.52249 0.25349 0.15354
 H876 H 0.50857 0.25189 0.16006
 C877 C 0.53866 0.25550 0.16484
 H878 H 0.53718 0.25559 0.18005
 Zn879 Zn 0.50326 0.24935 0.11868
 N880 N 0.52437 0.25315 0.13444
 C881 C 0.51090 0.28642 0.10505
 N882 N 0.49924 0.27090 0.10344
 C883 C 0.48366 0.27106 0.09197
 C884 C 0.47939 0.28735 0.08137
 C885 C 0.50718 0.30294 0.09470
 C886 C 0.51327 0.21143 0.11386
 C887 C 0.51703 0.19441 0.10427
 C888 C 0.51178 0.21106 0.07482
 C889 C 0.50813 0.22783 0.08499
 N890 N 0.50855 0.22755 0.10416
 H891 H 0.52284 0.28623 0.11465
 H892 H 0.47442 0.25862 0.09133
 H893 H 0.46690 0.28753 0.07237
 H894 H 0.51642 0.31533 0.09617
 H895 H 0.51375 0.21178 0.12910
 H896 H 0.52027 0.18147 0.11209
 H897 H 0.51094 0.21115 0.05957
 H898 H 0.50478 0.24093 0.07758
 C899 C 0.55666 0.25698 0.15624
 C900 C 0.44732 0.24257 0.15326
 C901 C 0.51607 0.19422 0.08462
 C902 C 0.49127 0.30340 0.08286
 C903 C -0.02589 0.76163 0.64405
 H904 H -0.01768 0.77480 0.64406
 C905 C -0.04202 0.76035 0.65415
 H906 H -0.04693 0.77249 0.66242
 C907 C -0.02900 0.72957 0.63234
 H908 H -0.02417 0.71789 0.62351
 C909 C -0.04687 0.72750 0.64327
 H910 H -0.05487 0.71418 0.64250
 N911 N -0.01938 0.74557 0.63301
 C912 C 0.04138 0.75463 0.62554
 H913 H 0.04233 0.75401 0.61032
 C914 C 0.05790 0.75675 0.63623
 H915 H 0.07174 0.75777 0.62929
 C916 C 0.02220 0.75344 0.65329
 H917 H 0.00832 0.75173 0.65985
 C918 C 0.03840 0.75552 0.66453
 H919 H 0.03699 0.75554 0.67974
 Zn920 Zn 0.00282 0.74932 0.61854
 N921 N 0.02400 0.75318 0.63418
 C922 C 0.01014 0.78651 0.60510
 N923 N -0.00145 0.77093 0.60346
 C924 C -0.01711 0.77109 0.59211
 C925 C -0.02153 0.78742 0.58162
 C926 C 0.00627 0.80306 0.59487
 C927 C 0.01306 0.71149 0.61345
 C928 C 0.01685 0.69455 0.60374
 C929 C 0.01122 0.71132 0.57442
 C930 C 0.00755 0.72800 0.58470
 N931 N 0.00814 0.72762 0.60387
 H932 H 0.02215 0.78632 0.61462
 H933 H -0.02629 0.75860 0.59144
 H934 H -0.03408 0.78759 0.57270
 H935 H 0.01547 0.81549 0.59634
 H936 H 0.01367 0.71177 0.62868
 H937 H 0.02024 0.68159 0.61147
 H938 H 0.01024 0.71147 0.55918
 H939 H 0.00405 0.74112 0.57739
 C940 C 0.05635 0.75716 0.65586
 C941 C -0.05309 0.74231 0.65368
 C942 C 0.01572 0.69446 0.58409
 C943 C -0.00971 0.80352 0.58313
 C944 C 0.52654 0.76181 0.35713
 H945 H 0.51843 0.77504 0.35660
 C946 C 0.54360 0.76007 0.34701
 H947 H 0.54874 0.77197 0.33857
 C948 C 0.53003 0.73022 0.36919
 H949 H 0.52487 0.71880 0.37814
 C950 C 0.54719 0.72788 0.35928
 H951 H 0.55517 0.71460 0.36047
 N952 N 0.52006 0.74695 0.36780
 C953 C 0.45912 0.75617 0.37343
 H954 H 0.45779 0.75602 0.38863
 C955 C 0.44286 0.75796 0.36230
 H956 H 0.42886 0.75921 0.36888
 C957 C 0.47897 0.75415 0.34618
 H958 H 0.49301 0.75225 0.33999
 C959 C 0.46305 0.75588 0.33451
 H960 H 0.46483 0.75546 0.31933
 Zn961 Zn 0.49746 0.75110 0.38154
 N962 N 0.47670 0.75447 0.36525
 C963 C 0.48965 0.78864 0.39386
 N964 N 0.50124 0.77314 0.39617
 C965 C 0.51660 0.77364 0.40791
 C966 C 0.52070 0.79027 0.41809
 C967 C 0.49321 0.80548 0.40377
 C968 C 0.48718 0.71345 0.38730
 C969 C 0.48307 0.69679 0.39730
 C970 C 0.48778 0.71435 0.42637
 C971 C 0.49178 0.73075 0.41578
 N972 N 0.49178 0.72984 0.39662
 H973 H 0.47790 0.78816 0.38405
 H974 H 0.52579 0.76119 0.40911
 H975 H 0.53302 0.79070 0.42732
 H976 H 0.48401 0.81784 0.40177
 H977 H 0.48704 0.71331 0.37204
 H978 H 0.47992 0.68363 0.38979
 H979 H 0.48827 0.71492 0.44162
 H980 H 0.49505 0.74406 0.42287
 C981 C 0.44489 0.75778 0.34270
 C982 C 0.55396 0.74296 0.34813
 C983 C 0.48358 0.69724 0.41697
 C984 C 0.50889 0.80629 0.41589
 Zr985 Zr 0.01474 -0.01471 1.02445
 O986 O 0.03320 -0.00425 1.04571
 O987 O 0.01297 -0.04389 1.03122
 O988 O 0.00204 -0.01672 1.05156
 O989 O 0.05025 -0.01890 0.99025
 O990 O -0.02742 -0.00292 1.04786
 O991 O 0.04309 -0.02513 1.02112
 O992 O -0.00813 -0.05582 1.00965
 O993 O -0.01415 -0.02083 1.01920
 O994 O 0.01375 -0.02734 0.99772
 O995 O 0.00036 0.01179 1.02620
 O996 O 0.02750 0.00532 1.00591
 Zr997 Zr -0.01807 0.01328 0.97413
 Zr998 Zr -0.02821 0.00572 1.01950
 Zr999 Zr 0.02493 -0.00711 0.97908
 Zr1000 Zr -0.01500 -0.03245 0.99210
 O1001 O 0.04849 0.01045 0.97162
 O1002 O -0.04116 -0.04368 1.00269
 O1003 O -0.00363 -0.01329 0.97211
 O1004 O -0.03048 -0.00672 0.99272
 O1005 O -0.01718 0.02613 1.00080
 O1006 O 0.01078 0.01926 0.97954
 C1007 C 0.00307 -0.05747 1.02388
 C1008 C 0.05446 -0.02526 1.00673
 C1009 C -0.01447 -0.01120 1.05777
 O1010 O -0.05305 -0.01075 1.02513
 O1011 O -0.05234 0.02040 1.00909
 O1012 O -0.04565 0.02541 0.97791
 C1013 C -0.05649 0.02682 0.99262
 O1014 O 0.03237 0.03511 1.02800
 Zr1015 Zr 0.01170 0.03102 1.00646
 O1016 O -0.01673 0.04257 0.96765
 O1017 O -0.03387 0.02962 1.03711
 O1018 O 0.00026 0.05139 1.02571
 O1019 O 0.03647 0.04419 0.99482
 O1020 O 0.00220 0.05489 0.99088
 C1021 C -0.00860 0.05649 0.97636
 O1022 O -0.03760 0.00311 0.95368
 O1023 O 0.03209 -0.03187 0.96322
 O1024 O -0.00623 0.01341 0.94657
 O1025 O 0.02272 -0.00150 0.95008
 O1026 O -0.00311 -0.05425 0.97472
 O1027 O -0.03288 -0.03733 0.96840
 C1028 C 0.00968 0.00656 0.94012
 H1029 H 0.02118 -0.03941 0.99684
 H1030 H -0.04401 -0.00927 0.98941
 H1031 H 0.01647 0.02816 0.97019
 H1032 H 0.00151 0.01740 1.03897
 H1033 H -0.04126 -0.05762 0.99994
 H1034 H -0.06075 -0.00346 1.03448
 H1035 H -0.04643 0.02726 1.04327
 H1036 H 0.00695 0.06372 1.02348
 H1037 H -0.01038 -0.06620 0.97719
 H1038 H 0.04457 -0.02927 0.95700
 H1039 H 0.05624 0.00311 0.96235
 H1040 H 0.03596 0.05798 0.99820
 H1041 H -0.03801 -0.05056 0.96892
 H1042 H -0.04116 0.01419 0.94564
 H1043 H 0.03690 -0.01536 1.05365
 H1044 H 0.03523 0.04896 1.02928
 Zr1045 Zr 0.51501 0.48493 0.52454
 O1046 O 0.53344 0.49542 0.54581
 O1047 O 0.51328 0.45574 0.53131
 O1048 O 0.50228 0.48290 0.55164
 O1049 O 0.55055 0.48073 0.49037
 O1050 O 0.47281 0.49668 0.54791
 O1051 O 0.54336 0.47452 0.52124
 O1052 O 0.49223 0.44377 0.50972
 O1053 O 0.48613 0.47878 0.51927
 O1054 O 0.51404 0.47228 0.49781
 O1055 O 0.50061 0.51141 0.52626
 O1056 O 0.52777 0.50495 0.50600
 Zr1057 Zr 0.48221 0.51285 0.47418
 Zr1058 Zr 0.47204 0.50532 0.51955
 Zr1059 Zr 0.52522 0.49250 0.47917
 Zr1060 Zr 0.48530 0.46714 0.49218
 O1061 O 0.54878 0.51008 0.47172
 O1062 O 0.45917 0.45590 0.50281
 O1063 O 0.49667 0.48629 0.47218
 O1064 O 0.46980 0.49286 0.49278
 O1065 O 0.48308 0.52573 0.50084
 O1066 O 0.51105 0.51886 0.47960
 C1067 C 0.50343 0.44214 0.52395
 C1068 C 0.55474 0.47438 0.50685
 C1069 C 0.48576 0.48840 0.55782
 O1070 O 0.44720 0.48885 0.52515
 O1071 O 0.44792 0.52000 0.50911
 O1072 O 0.45464 0.52498 0.47794
 C1073 C 0.44379 0.52642 0.49264
 O1074 O 0.53260 0.53476 0.52807
 Zr1075 Zr 0.51195 0.53064 0.50652
 O1076 O 0.48354 0.54214 0.46767
 O1077 O 0.46637 0.52922 0.53715
 O1078 O 0.50048 0.55101 0.52575
 O1079 O 0.53671 0.54382 0.49488
 O1080 O 0.50243 0.55449 0.49092
 C1081 C 0.49164 0.55607 0.47639
 O1082 O 0.46269 0.50265 0.45373
 O1083 O 0.53242 0.46774 0.46332
 O1084 O 0.49406 0.51296 0.44663
 O1085 O 0.52303 0.49809 0.45017
 O1086 O 0.49719 0.44535 0.47479
 O1087 O 0.46741 0.46223 0.46850
 C1088 C 0.50998 0.50612 0.44019
 H1089 H 0.52148 0.46021 0.49694
 H1090 H 0.45627 0.49030 0.48946
 H1091 H 0.51674 0.52776 0.47025
 H1092 H 0.50174 0.51703 0.53903
 H1093 H 0.45908 0.44195 0.50008
 H1094 H 0.43950 0.49614 0.53451
 H1095 H 0.45380 0.52685 0.54330
 H1096 H 0.50717 0.56335 0.52351
 H1097 H 0.48993 0.43340 0.47726
 H1098 H 0.54491 0.47035 0.45712
 H1099 H 0.55654 0.50274 0.46246
 H1100 H 0.53619 0.55762 0.49825
 H1101 H 0.46226 0.44900 0.46905
 H1102 H 0.45913 0.51373 0.44569
 H1103 H 0.53714 0.48432 0.55375
 H1104 H 0.53545 0.54861 0.52934
 Zr1105 Zr 0.48487 1.01778 0.52522
 O1106 O 0.46628 1.00694 0.54636
 O1107 O 0.48706 1.04669 0.53292
 O1108 O 0.49761 1.01884 0.55225
 O1109 O 0.44944 1.02331 0.49149
 O1110 O 0.52696 1.00495 0.54776
 O1111 O 0.45662 1.02858 0.52247
 O1112 O 0.50836 1.05897 0.51153
 O1113 O 0.51383 1.02374 0.51979
 O1114 O 0.48600 1.03116 0.49885
 O1115 O 0.49898 0.99110 0.52603
 O1116 O 0.47193 0.99841 0.50623
 Zr1117 Zr 0.51738 0.99087 0.47369
 Zr1118 Zr 0.52761 0.99706 0.51916
 Zr1119 Zr 0.47463 1.01157 0.47974
 Zr1120 Zr 0.51479 1.03611 0.49304
 O1121 O 0.45080 0.99454 0.47209
 O1122 O 0.54116 1.04672 0.50349
 O1123 O 0.50324 1.01765 0.47260
 O1124 O 0.53001 1.01022 0.49273
 O1125 O 0.51637 0.97730 0.50001
 O1126 O 0.48849 0.98505 0.47930
 C1127 C 0.49723 1.06032 0.52597
 C1128 C 0.44526 1.02922 0.50819
 C1129 C 0.51410 1.01303 0.55807
 O1130 O 0.55264 1.01310 0.52492
 O1131 O 0.55153 0.98234 0.50809
 O1132 O 0.54483 0.97831 0.47684
 C1133 C 0.55561 0.97631 0.49141
 O1134 O 0.46676 0.96803 0.52752
 Zr1135 Zr 0.48745 0.97254 0.50587
 O1136 O 0.51581 0.96178 0.46642
 O1137 O 0.53304 0.97266 0.53606
 O1138 O 0.49876 0.95156 0.52438
 O1139 O 0.46253 0.95995 0.49417
 O1140 O 0.49671 0.94904 0.48948
 C1141 C 0.50752 0.94773 0.47481
 O1142 O 0.53695 1.00149 0.45331
 O1143 O 0.46788 1.03685 0.46463
 O1144 O 0.50540 0.99140 0.44631
 O1145 O 0.47662 1.00655 0.45058
 O1146 O 0.50305 1.05861 0.47660
 O1147 O 0.53259 1.04152 0.46921
 C1148 C 0.48949 0.99848 0.44025
 H1149 H 0.47871 1.04334 0.49845
 H1150 H 0.54357 1.01270 0.48933
 H1151 H 0.48268 0.97645 0.46980
 H1152 H 0.49780 0.98514 0.53865
 H1153 H 0.54140 1.06074 0.50118
 H1154 H 0.56028 1.00548 0.53397
 H1155 H 0.54562 0.97474 0.54215
 H1156 H 0.49198 0.93934 0.52186
 H1157 H 0.51047 1.07039 0.47937
 H1158 H 0.45534 1.03462 0.45850
 H1159 H 0.44312 1.00224 0.46314
 H1160 H 0.46292 0.94606 0.49714
 H1161 H 0.53781 1.05470 0.47001
 H1162 H 0.54042 0.99060 0.44493
 H1163 H 0.46272 1.01787 0.55465
 H1164 H 0.46384 0.95416 0.52849
 Zr1165 Zr -0.01492 0.51855 1.02573
 O1166 O -0.03353 0.50769 1.04683
 O1167 O -0.01264 0.54743 1.03354
 O1168 O -0.00217 0.51946 1.05277
 O1169 O -0.05035 0.52428 0.99203
 O1170 O 0.02715 0.50552 1.04821
 O1171 O -0.04315 0.52941 1.02303
 O1172 O 0.00869 0.55974 1.01220
 O1173 O 0.01405 0.52447 1.02031
 O1174 O -0.01378 0.53204 0.99941
 O1175 O -0.00086 0.49184 1.02643
 O1176 O -0.02791 0.49929 1.00666
 Zr1177 Zr 0.01751 0.49178 0.97409
 Zr1178 Zr 0.02778 0.49776 1.01958
 Zr1179 Zr -0.02519 0.51255 0.98022
 Zr1180 Zr 0.01503 0.53695 0.99360
 O1181 O -0.04906 0.49560 0.97251
 O1182 O 0.04144 0.54747 1.00405
 O1183 O 0.00343 0.51859 0.97309
 O1184 O 0.03019 0.51102 0.99319
 O1185 O 0.01648 0.47811 1.00035
 O1186 O -0.01139 0.48599 0.97968
 C1187 C -0.00243 0.56106 1.02666
 C1188 C -0.05452 0.53012 1.00876
 C1189 C 0.01431 0.51359 1.05856
 O1190 O 0.05283 0.51375 1.02539
 O1191 O 0.05166 0.48306 1.00843
 O1192 O 0.04495 0.47916 0.97717
 C1193 C 0.05573 0.47709 0.99173
 O1194 O -0.03314 0.46884 1.02785
 Zr1195 Zr -0.01245 0.47339 1.00621
 O1196 O 0.01590 0.46272 0.96672
 O1197 O 0.03316 0.47328 1.03637
 O1198 O -0.00119 0.45231 1.02464
 O1199 O -0.03739 0.46089 0.99446
 O1200 O -0.00322 0.44993 0.98974
 C1201 C 0.00760 0.44864 0.97508
 O1202 O 0.03708 0.50244 0.95373
 O1203 O -0.03188 0.53790 0.96522
 O1204 O 0.00551 0.49241 0.94671
 O1205 O -0.02322 0.50761 0.95104
 O1206 O 0.00331 0.55953 0.97727
 O1207 O 0.03281 0.54241 0.96978
 C1208 C -0.01038 0.49954 0.94068
 H1209 H -0.02104 0.54424 0.99906
 H1210 H 0.04375 0.51350 0.98980
 H1211 H -0.01722 0.47743 0.97016
 H1212 H -0.00206 0.48584 1.03902
 H1213 H 0.04170 0.56150 1.00178
 H1214 H 0.06046 0.50608 1.03441
 H1215 H 0.04576 0.47531 1.04245
 H1216 H -0.00800 0.44011 1.02207
 H1217 H 0.01074 0.57129 0.98009
 H1218 H -0.04442 0.53572 0.95908
 H1219 H -0.05673 0.50336 0.96360
 H1220 H -0.03703 0.44699 0.99737
 H1221 H 0.03803 0.55559 0.97060
 H1222 H 0.04053 0.49158 0.94531
 H1223 H -0.03706 0.51860 1.05517
 H1224 H -0.03611 0.45498 1.02874
 Zr1225 Zr -0.01646 0.48319 0.47423
 O1226 O -0.03516 0.49404 0.45338
 O1227 O -0.01451 0.45421 0.46666
 O1228 O -0.00391 0.48188 0.44699
 O1229 O -0.05163 0.47794 0.50864
 O1230 O 0.02549 0.49573 0.45085
 O1231 O -0.04471 0.47253 0.47755
 O1232 O 0.00691 0.44191 0.48772
 O1233 O 0.01252 0.47712 0.47913
 O1234 O -0.01515 0.46992 0.50064
 O1235 O -0.00229 0.50980 0.47305
 O1236 O -0.02921 0.50268 0.49339
 Zr1237 Zr 0.01654 0.51016 0.52502
 Zr1238 Zr 0.02638 0.50376 0.47939
 Zr1239 Zr -0.02632 0.48962 0.51988
 Zr1240 Zr 0.01368 0.46485 0.50591
 O1241 O -0.05001 0.50682 0.52792
 O1242 O 0.03988 0.45408 0.49490
 O1243 O 0.00234 0.48345 0.52649
 O1244 O 0.02896 0.49068 0.50583
 O1245 O 0.01533 0.52364 0.49868
 O1246 O -0.01239 0.51608 0.51996
 C1247 C -0.00438 0.44054 0.47353
 C1248 C -0.05595 0.47198 0.49203
 C1249 C 0.01254 0.48760 0.44083
 O1250 O 0.05134 0.48761 0.47322
 O1251 O 0.05044 0.51840 0.48998
 O1252 O 0.04398 0.52259 0.52132
 C1253 C 0.05467 0.52447 0.50656
 O1254 O -0.03450 0.53296 0.47208
 Zr1255 Zr -0.01363 0.52848 0.49335
 O1256 O 0.01505 0.53927 0.53222
 O1257 O 0.03169 0.52808 0.46231
 O1258 O -0.00250 0.54937 0.47453
 O1259 O -0.03841 0.54119 0.50551
 O1260 O -0.00418 0.55202 0.50946
 C1261 C 0.00674 0.55334 0.52393
 O1262 O 0.03628 0.49957 0.54506
 O1263 O -0.03307 0.46444 0.53520
 O1264 O 0.00486 0.50969 0.55264
 O1265 O -0.02401 0.49469 0.54900
 O1266 O 0.00208 0.44250 0.52272
 O1267 O 0.03172 0.45948 0.52938
 C1268 C -0.01098 0.50267 0.55905
 H1269 H -0.02247 0.45778 0.50125
 H1270 H 0.04254 0.48815 0.50898
 H1271 H -0.01809 0.52474 0.52955
 H1272 H -0.00357 0.51570 0.46043
 H1273 H 0.04011 0.44007 0.49725
 H1274 H 0.05890 0.49516 0.46398
 H1275 H 0.04423 0.52595 0.45602
 H1276 H -0.00928 0.56160 0.47713
 H1277 H 0.00946 0.43068 0.51988
 H1278 H -0.04553 0.46679 0.54158
 H1279 H -0.05763 0.49920 0.53706
 H1280 H -0.03804 0.55507 0.50251
 H1281 H 0.03697 0.44631 0.52847
 H1282 H 0.03984 0.51047 0.55334
 H1283 H -0.03883 0.48309 0.44521
 H1284 H -0.03750 0.54682 0.47120
 Zr1285 Zr 0.48368 -0.01662 -0.02594
 O1286 O 0.46511 -0.00558 -0.04681
 O1287 O 0.48554 -0.04556 -0.03364
 O1288 O 0.49634 -0.01788 -0.05313
 O1289 O 0.44835 -0.02188 0.00831
 O1290 O 0.52579 -0.00419 -0.04909
 O1291 O 0.45537 -0.02717 -0.02278
 O1292 O 0.50684 -0.05805 -0.01258
 O1293 O 0.51261 -0.02283 -0.02095
 O1294 O 0.48483 -0.03002 0.00041
 O1295 O 0.49797 0.00994 -0.02695
 O1296 O 0.47094 0.00284 -0.00674
 Zr1297 Zr 0.51659 0.00997 0.02510
 Zr1298 Zr 0.52659 0.00374 -0.02051
 Zr1299 Zr 0.47367 -0.01036 0.01970
 Zr1300 Zr 0.51361 -0.03524 0.00577
 O1301 O 0.45001 0.00690 0.02772
 O1302 O 0.53983 -0.04606 -0.00517
 O1303 O 0.50227 -0.01669 0.02639
 O1304 O 0.52901 -0.00947 0.00587
 O1305 O 0.51555 0.02358 -0.00118
 O1306 O 0.48771 0.01604 0.01995
 C1307 C 0.49560 -0.05930 -0.02682
 C1308 C 0.44407 -0.02775 -0.00834
 C1309 C 0.51286 -0.01223 -0.05920
 O1310 O 0.55151 -0.01249 -0.02665
 O1311 O 0.55066 0.01823 -0.00978
 O1312 O 0.54410 0.02230 0.02157
 C1313 C 0.55485 0.02421 0.00685
 O1314 O 0.46589 0.03326 -0.02795
 Zr1315 Zr 0.48664 0.02858 -0.00660
 O1316 O 0.51519 0.03905 0.03244
 O1317 O 0.53207 0.02811 -0.03748
 O1318 O 0.49796 0.04951 -0.02526
 O1319 O 0.46185 0.04133 0.00550
 O1320 O 0.49610 0.05199 0.00967
 C1321 C 0.50696 0.05319 0.02419
 O1322 O 0.53621 -0.00080 0.04517
 O1323 O 0.46676 -0.03558 0.03488
 O1324 O 0.50480 0.00943 0.05267
 O1325 O 0.47588 -0.00543 0.04884
 O1326 O 0.50185 -0.05764 0.02241
 O1327 O 0.53151 -0.04080 0.02930
 C1328 C 0.48889 0.00245 0.05898
 H1329 H 0.47746 -0.04214 0.00093
 H1330 H 0.54256 -0.01208 0.00907
 H1331 H 0.48201 0.02467 0.02956
 H1332 H 0.49677 0.01590 -0.03955
 H1333 H 0.53998 -0.06008 -0.00288
 H1334 H 0.55914 -0.00493 -0.03582
 H1335 H 0.54462 0.02595 -0.04373
 H1336 H 0.49124 0.06176 -0.02263
 H1337 H 0.50920 -0.06947 0.01954
 H1338 H 0.45429 -0.03321 0.04123
 H1339 H 0.44233 -0.00074 0.03680
 H1340 H 0.46229 0.05522 0.00256
 H1341 H 0.53672 -0.05398 0.02836
 H1342 H 0.53978 0.01004 0.05351
 H1343 H 0.46143 -0.01646 -0.05505
 H1344 H 0.46298 0.04714 -0.02880
 Zr1345 Zr 0.51486 0.51549 -0.02474
 O1346 O 0.53334 0.50496 -0.04617
 O1347 O 0.51294 0.54462 -0.03169
 O1348 O 0.50210 0.51724 -0.05172
 O1349 O 0.55043 0.51996 0.00898
 O1350 O 0.47267 0.50349 -0.04751
 O1351 O 0.54318 0.52600 -0.02183
 O1352 O 0.49187 0.55665 -0.00991
 O1353 O 0.48597 0.52162 -0.01913
 O1354 O 0.51390 0.52828 0.00193
 O1355 O 0.50055 0.48897 -0.02613
 O1356 O 0.52771 0.49559 -0.00625
 Zr1357 Zr 0.48225 0.48778 0.02620
 Zr1358 Zr 0.47198 0.49505 -0.01909
 Zr1359 Zr 0.52518 0.50818 0.02054
 Zr1360 Zr 0.48515 0.53340 0.00791
 O1361 O 0.54884 0.49070 0.02774
 O1362 O 0.45891 0.54450 -0.00236
 O1363 O 0.49663 0.51438 0.02787
 O1364 O 0.46973 0.50765 0.00765
 O1365 O 0.48311 0.47478 -0.00041
 O1366 O 0.51110 0.48179 0.02043
 C1367 C 0.50301 0.55822 -0.02430
 C1368 C 0.55459 0.52623 -0.00759
 C1369 C 0.48558 0.51167 -0.05766
 O1370 O 0.44709 0.51149 -0.02447
 O1371 O 0.44794 0.48039 -0.00828
 O1372 O 0.45469 0.47559 0.02284
 C1373 C 0.44384 0.47405 0.00826
 O1374 O 0.53265 0.46568 -0.02818
 Zr1375 Zr 0.51198 0.46987 -0.00644
 O1376 O 0.48363 0.45852 0.03282
 O1377 O 0.46632 0.47105 -0.03648
 O1378 O 0.50052 0.44941 -0.02544
 O1379 O 0.53678 0.45672 0.00496
 O1380 O 0.50253 0.44610 0.00940
 C1381 C 0.49176 0.44456 0.02406
 O1382 O 0.46278 0.49810 0.04686
 O1383 O 0.53228 0.53304 0.03619
 O1384 O 0.49423 0.48776 0.05359
 O1385 O 0.52313 0.50268 0.04958
 O1386 O 0.49703 0.55535 0.02496
 O1387 O 0.46738 0.53842 0.03185
 C1388 C 0.51016 0.49463 0.05977
 H1389 H 0.52129 0.54038 0.00263
 H1390 H 0.45621 0.51020 0.01113
 H1391 H 0.51684 0.47294 0.02974
 H1392 H 0.50168 0.48328 -0.03888
 H1393 H 0.45878 0.55847 0.00028
 H1394 H 0.43938 0.50413 -0.03367
 H1395 H 0.45374 0.47336 -0.04248
 H1396 H 0.50723 0.43709 -0.02322
 H1397 H 0.48970 0.56727 0.02251
 H1398 H 0.54479 0.53050 0.04225
 H1399 H 0.55660 0.49811 0.03686
 H1400 H 0.53629 0.44292 0.00161
 H1401 H 0.46217 0.55162 0.03130
 H1402 H 0.45925 0.48707 0.05500
 H1403 H 0.53696 0.51603 -0.05422
 H1404 H 0.53546 0.45181 -0.02950
 Zr1405 Zr 0.01482 1.01515 0.47515
 O1406 O 0.03332 1.00443 0.45384
 O1407 O 0.01302 1.04424 0.46803
 O1408 O 0.00214 1.01679 0.44814
 O1409 O 0.05031 1.01971 0.50894
 O1410 O -0.02735 1.00315 0.45233
 O1411 O 0.04316 1.02559 0.47808
 O1412 O -0.00808 1.05646 0.48968
 O1413 O -0.01407 1.02140 0.48064
 O1414 O 0.01382 1.02810 0.50175
 O1415 O 0.00043 0.98866 0.47387
 O1416 O 0.02756 0.99531 0.49379
 Zr1417 Zr -0.01802 0.98784 0.52617
 Zr1418 Zr -0.02814 0.99488 0.48080
 Zr1419 Zr 0.02499 1.00808 0.52050
 Zr1420 Zr -0.01492 1.03334 0.50762
 O1421 O 0.04857 0.99056 0.52786
 O1422 O -0.04110 1.04449 0.49722
 O1423 O -0.00357 1.01440 0.52772
 O1424 O -0.03042 1.00764 0.50746
 O1425 O -0.01713 0.97468 0.49963
 O1426 O 0.01082 0.98173 0.52051
 C1427 C 0.00311 1.05791 0.47531
 C1428 C 0.05452 1.02588 0.49235
 C1429 C -0.01437 1.01124 0.44218
 O1430 O -0.05296 1.01136 0.47527
 O1431 O -0.05224 0.98034 0.49162
 O1432 O -0.04560 0.97570 0.52279
 C1433 C -0.05641 0.97410 0.50819
 O1434 O 0.03246 0.96526 0.47205
 Zr1435 Zr 0.01174 0.96964 0.49371
 O1436 O -0.01676 0.95863 0.53295
 O1437 O -0.03382 0.97080 0.46352
 O1438 O 0.00030 0.94910 0.47478
 O1439 O 0.03646 0.95649 0.50527
 O1440 O 0.00214 0.94600 0.50964
 C1441 C -0.00868 0.94459 0.52428
 O1442 O -0.03752 0.99835 0.54671
 O1443 O 0.03211 1.03299 0.53604
 O1444 O -0.00612 0.98794 0.55359
 O1445 O 0.02284 1.00274 0.54957
 O1446 O -0.00300 1.05533 0.52458
 O1447 O -0.03277 1.03856 0.53147
 C1448 C 0.00983 0.99479 0.55977
 H1449 H 0.02125 1.04018 0.50240
 H1450 H -0.04395 1.01026 0.51089
 H1451 H 0.01651 0.97291 0.52988
 H1452 H 0.00157 0.98289 0.46116
 H1453 H -0.04118 1.05847 0.49979
 H1454 H -0.06068 1.00397 0.46609
 H1455 H -0.04639 0.97312 0.45747
 H1456 H 0.00697 0.93678 0.47709
 H1457 H -0.01026 1.06727 0.52204
 H1458 H 0.04461 1.03046 0.54214
 H1459 H 0.05634 0.99800 0.53695
 H1460 H 0.03593 0.94267 0.50202
 H1461 H -0.03787 1.05181 0.53087
 H1462 H -0.04111 0.98738 0.55490
 H1463 H 0.03700 1.01543 0.44573
 H1464 H 0.03527 0.95139 0.47085
 Zr1465 Zr 0.73555 0.26419 0.22556
 O1466 O 0.74580 0.28261 0.20403
 O1467 O 0.70642 0.26205 0.21892
 O1468 O 0.73370 0.25124 0.19861
 O1469 O 0.73097 0.29995 0.25935
 O1470 O 0.74782 0.22194 0.20260
 O1471 O 0.72486 0.29248 0.22858
 O1472 O 0.69472 0.24096 0.24077
 O1473 O 0.72974 0.23525 0.23117
 O1474 O 0.72291 0.26326 0.25235
 O1475 O 0.76218 0.25009 0.22390
 O1476 O 0.75539 0.27732 0.24389
 Zr1477 Zr 0.76381 0.23205 0.27619
 Zr1478 Zr 0.75643 0.22147 0.23095
 Zr1479 Zr 0.74297 0.27482 0.27079
 Zr1480 Zr 0.71812 0.23448 0.25833
 O1481 O 0.76025 0.29865 0.27794
 O1482 O 0.70720 0.20809 0.24808
 O1483 O 0.73711 0.24621 0.27813
 O1484 O 0.74399 0.21926 0.25780
 O1485 O 0.77667 0.23288 0.24946
 O1486 O 0.76947 0.26095 0.27042
 C1487 C 0.69296 0.25205 0.22643
 C1488 C 0.72461 0.30397 0.24284
 C1489 C 0.73941 0.23473 0.19257
 O1490 O 0.74025 0.19639 0.22568
 O1491 O 0.77134 0.19757 0.24159
 O1492 O 0.77624 0.20455 0.27267
 C1493 C 0.77778 0.19361 0.25808
 O1494 O 0.78513 0.28236 0.22164
 Zr1495 Zr 0.78124 0.26180 0.24344
 O1496 O 0.79305 0.23379 0.28256
 O1497 O 0.78038 0.21593 0.21333
 O1498 O 0.80173 0.25038 0.22428
 O1499 O 0.79409 0.28685 0.25473
 O1500 O 0.80516 0.25271 0.25907
 C1501 C 0.80686 0.24203 0.27372
 O1502 O 0.75386 0.21253 0.29689
 O1503 O 0.71813 0.28184 0.28663
 O1504 O 0.76375 0.24411 0.30361
 O1505 O 0.74854 0.27290 0.29981
 O1506 O 0.69621 0.24628 0.27565
 O1507 O 0.71341 0.21669 0.28223
 C1508 C 0.75672 0.26001 0.30990
 H1509 H 0.71077 0.27058 0.25318
 H1510 H 0.74159 0.20572 0.26127
 H1511 H 0.77828 0.26682 0.27967
 H1512 H 0.76778 0.25120 0.21109
 H1513 H 0.69327 0.20786 0.25088
 H1514 H 0.74762 0.18869 0.21638
 H1515 H 0.77817 0.20328 0.20733
 H1516 H 0.81397 0.25724 0.22639
 H1517 H 0.68435 0.23886 0.27330
 H1518 H 0.72057 0.29442 0.29268
 H1519 H 0.75280 0.30640 0.28713
 H1520 H 0.80787 0.28648 0.25130
 H1521 H 0.70024 0.21144 0.28184
 H1522 H 0.76496 0.20917 0.30494
 H1523 H 0.73467 0.28612 0.19609
 H1524 H 0.79894 0.28533 0.22025
 Zr1525 Zr 0.76828 0.73513 0.72536
 O1526 O 0.75725 0.71639 0.70456
 O1527 O 0.79719 0.73692 0.71750
 O1528 O 0.76943 0.74757 0.69814
 O1529 O 0.77355 0.69998 0.75959
 O1530 O 0.75585 0.77713 0.70226
 O1531 O 0.77883 0.70679 0.72848
 O1532 O 0.80969 0.75831 0.73853
 O1533 O 0.77453 0.76411 0.73031
 O1534 O 0.78168 0.73642 0.75164
 O1535 O 0.74177 0.74951 0.72448
 O1536 O 0.74883 0.72255 0.74464
 Zr1537 Zr 0.74177 0.76849 0.77653
 Zr1538 Zr 0.74800 0.77818 0.73088
 Zr1539 Zr 0.76203 0.72542 0.77102
 Zr1540 Zr 0.78692 0.76526 0.75699
 O1541 O 0.74478 0.70182 0.77908
 O1542 O 0.79777 0.79140 0.74602
 O1543 O 0.76838 0.75408 0.77769
 O1544 O 0.76120 0.78075 0.75721
 O1545 O 0.72819 0.76731 0.75030
 O1546 O 0.73566 0.73956 0.77139
 C1547 C 0.81092 0.74699 0.72426
 C1548 C 0.77941 0.69557 0.74292
 C1549 C 0.76377 0.76406 0.69210
 O1550 O 0.76425 0.80303 0.72467
 O1551 O 0.73350 0.80236 0.74168
 O1552 O 0.72946 0.79604 0.77304
 C1553 C 0.72752 0.80669 0.75832
 O1554 O 0.71845 0.71740 0.72363
 Zr1555 Zr 0.72315 0.73835 0.74490
 O1556 O 0.71270 0.76734 0.78395
 O1557 O 0.72367 0.78365 0.71403
 O1558 O 0.70227 0.74956 0.72627
 O1559 O 0.71030 0.71372 0.75712
 O1560 O 0.69977 0.74815 0.76120
 C1561 C 0.69856 0.75916 0.77569
 O1562 O 0.75262 0.78818 0.79655
 O1563 O 0.78721 0.71858 0.78612
 O1564 O 0.74219 0.75679 0.80408
 O1565 O 0.75704 0.72780 0.80016
 O1566 O 0.80925 0.75350 0.77355
 O1567 O 0.79252 0.78333 0.78048
 C1568 C 0.74912 0.74087 0.81033
 H1569 H 0.79378 0.72901 0.75211
 H1570 H 0.76381 0.79433 0.76039
 H1571 H 0.72701 0.73395 0.78102
 H1572 H 0.73580 0.74823 0.71191
 H1573 H 0.81178 0.79152 0.74824
 H1574 H 0.75669 0.81064 0.71555
 H1575 H 0.72585 0.79616 0.70775
 H1576 H 0.69002 0.74290 0.72897
 H1577 H 0.82111 0.76075 0.77060
 H1578 H 0.78485 0.70613 0.79245
 H1579 H 0.75240 0.69416 0.78812
 H1580 H 0.69643 0.71423 0.75423
 H1581 H 0.80574 0.78843 0.77950
 H1582 H 0.74180 0.79187 0.80494
 H1583 H 0.76813 0.71262 0.69627
 H1584 H 0.70459 0.71450 0.72285
 Zr1585 Zr 0.23353 0.23405 0.77546
 O1586 O 0.24463 0.21522 0.79612
 O1587 O 0.20468 0.23595 0.78348
 O1588 O 0.23242 0.24645 0.80273
 O1589 O 0.22794 0.19907 0.74109
 O1590 O 0.24617 0.27592 0.79872
 O1591 O 0.22286 0.20580 0.77227
 O1592 O 0.19218 0.25757 0.76269
 O1593 O 0.22741 0.26309 0.77071
 O1594 O 0.21999 0.23552 0.74927
 O1595 O 0.26012 0.24825 0.77631
 O1596 O 0.25281 0.22142 0.75602
 Zr1597 Zr 0.25992 0.26742 0.72437
 Zr1598 Zr 0.25399 0.27699 0.77009
 Zr1599 Zr 0.23949 0.22448 0.72973
 Zr1600 Zr 0.21486 0.26442 0.74412
 O1601 O 0.25657 0.20080 0.72141
 O1602 O 0.20422 0.29060 0.75528
 O1603 O 0.23324 0.25320 0.72326
 O1604 O 0.24066 0.27973 0.74385
 O1605 O 0.27366 0.26606 0.75051
 O1606 O 0.26591 0.23844 0.72930
 C1607 C 0.19097 0.24618 0.77688
 C1608 C 0.22216 0.19464 0.75777
 C1609 C 0.23812 0.26290 0.80882
 O1610 O 0.23794 0.30194 0.77650
 O1611 O 0.26854 0.30112 0.75936
 O1612 O 0.27239 0.29486 0.72794
 C1613 C 0.27444 0.30545 0.74270
 O1614 O 0.28332 0.21605 0.77691
 Zr1615 Zr 0.27858 0.23704 0.75572
 O1616 O 0.28892 0.26599 0.71672
 O1617 O 0.27843 0.28219 0.78689
 O1618 O 0.29963 0.24813 0.77423
 O1619 O 0.29116 0.21230 0.74337
 O1620 O 0.30190 0.24658 0.73925
 C1621 C 0.30306 0.25760 0.72478
 O1622 O 0.24911 0.28731 0.70453
 O1623 O 0.21418 0.21783 0.71475
 O1624 O 0.25922 0.25590 0.69675
 O1625 O 0.24428 0.22697 0.70057
 O1626 O 0.19233 0.25289 0.72767
 O1627 O 0.20924 0.28256 0.72072
 C1628 C 0.25217 0.24006 0.69043
 H1629 H 0.20786 0.22820 0.74883
 H1630 H 0.23810 0.29334 0.74076
 H1631 H 0.27446 0.23279 0.71959
 H1632 H 0.26613 0.24690 0.78885
 H1633 H 0.19020 0.29083 0.75314
 H1634 H 0.24556 0.30945 0.78566
 H1635 H 0.27635 0.29471 0.79323
 H1636 H 0.31184 0.24138 0.77144
 H1637 H 0.18055 0.26027 0.73071
 H1638 H 0.21646 0.20540 0.70831
 H1639 H 0.24887 0.19324 0.71237
 H1640 H 0.30506 0.21267 0.74618
 H1641 H 0.19610 0.28783 0.72182
 H1642 H 0.25991 0.29094 0.69610
 H1643 H 0.23380 0.21148 0.80446
 H1644 H 0.29718 0.21308 0.77761
 Zr1645 Zr 0.26617 0.76498 0.27401
 O1646 O 0.25629 0.78329 0.29584
 O1647 O 0.29539 0.76268 0.28023
 O1648 O 0.26826 0.75185 0.30085
 O1649 O 0.27024 0.80102 0.24049
 O1650 O 0.25414 0.72257 0.29673
 O1651 O 0.27682 0.79329 0.27108
 O1652 O 0.30678 0.74179 0.25798
 O1653 O 0.27191 0.73607 0.26803
 O1654 O 0.27841 0.76425 0.24703
 O1655 O 0.23957 0.75088 0.27589
 O1656 O 0.24605 0.77827 0.25608
 Zr1657 Zr 0.23717 0.73327 0.22345
 Zr1658 Zr 0.24524 0.72231 0.26848
 Zr1659 Zr 0.25807 0.77598 0.22899
 Zr1660 Zr 0.28312 0.73551 0.24070
 O1661 O 0.24066 0.79988 0.22235
 O1662 O 0.29421 0.70901 0.25050
 O1663 O 0.26384 0.74743 0.22129
 O1664 O 0.25727 0.72031 0.24143
 O1665 O 0.22473 0.73390 0.25037
 O1666 O 0.23158 0.76212 0.22959
 C1667 C 0.30874 0.75274 0.27242
 C1668 C 0.27685 0.80490 0.25694
 C1669 C 0.26260 0.73531 0.30680
 O1670 O 0.26155 0.69721 0.27330
 O1671 O 0.23018 0.69851 0.25782
 O1672 O 0.22482 0.70574 0.22688
 C1673 C 0.22348 0.69468 0.24139
 O1674 O 0.21670 0.78325 0.27872
 Zr1675 Zr 0.22022 0.76277 0.25674
 O1676 O 0.20782 0.73499 0.21758
 O1677 O 0.22152 0.71662 0.28633
 O1678 O 0.20005 0.75131 0.27616
 O1679 O 0.20710 0.78783 0.24581
 O1680 O 0.19606 0.75368 0.24147
 C1681 C 0.19413 0.74309 0.22678
 O1682 O 0.24686 0.71394 0.20240
 O1683 O 0.28268 0.78309 0.21286
 O1684 O 0.23680 0.74560 0.19616
 O1685 O 0.25207 0.77432 0.20005
 O1686 O 0.30476 0.74746 0.22319
 O1687 O 0.28751 0.71792 0.21655
 C1688 C 0.24374 0.76155 0.18994
 H1689 H 0.29054 0.77155 0.24611
 H1690 H 0.25963 0.70679 0.23779
 H1691 H 0.22261 0.76806 0.22053
 H1692 H 0.23413 0.75190 0.28877
 H1693 H 0.30810 0.70879 0.24750
 H1694 H 0.25431 0.68942 0.28259
 H1695 H 0.22383 0.70393 0.29219
 H1696 H 0.18777 0.75820 0.27430
 H1697 H 0.31667 0.74003 0.22530
 H1698 H 0.28014 0.79572 0.20697
 H1699 H 0.24796 0.80771 0.21313
 H1700 H 0.19338 0.78744 0.24948
 H1701 H 0.30071 0.71270 0.21668
 H1702 H 0.23564 0.71063 0.19450
 H1703 H 0.26755 0.78671 0.30364
 H1704 H 0.20291 0.78623 0.28036
 Zr1705 Zr 0.23524 0.76478 0.72523
 O1706 O 0.24550 0.78321 0.70371
 O1707 O 0.20611 0.76267 0.71859
 O1708 O 0.23338 0.75185 0.69827
 O1709 O 0.23072 0.80054 0.75903
 O1710 O 0.24745 0.72252 0.70225
 O1711 O 0.22458 0.79308 0.72827
 O1712 O 0.19440 0.74158 0.74045
 O1713 O 0.22940 0.73585 0.73084
 O1714 O 0.22262 0.76387 0.75203
 O1715 O 0.26185 0.75065 0.72355
 O1716 O 0.25511 0.77789 0.74355
 Zr1717 Zr 0.26350 0.73260 0.77583
 Zr1718 Zr 0.25607 0.72204 0.73059
 Zr1719 Zr 0.24270 0.77539 0.77046
 Zr1720 Zr 0.21780 0.73508 0.75800
 O1721 O 0.26001 0.79921 0.77760
 O1722 O 0.20683 0.70870 0.74779
 O1723 O 0.23681 0.74679 0.77779
 O1724 O 0.24365 0.71984 0.75745
 O1725 O 0.27634 0.73342 0.74909
 O1726 O 0.26919 0.76149 0.77007
 C1727 C 0.19265 0.75267 0.72610
 C1728 C 0.22434 0.80457 0.74253
 C1729 C 0.23905 0.73533 0.69223
 O1730 O 0.23984 0.69698 0.72532
 O1731 O 0.27095 0.69811 0.74123
 O1732 O 0.27587 0.70508 0.77231
 C1733 C 0.27738 0.69413 0.75772
 O1734 O 0.28483 0.78290 0.72128
 Zr1735 Zr 0.28094 0.76234 0.74308
 O1736 O 0.29275 0.73427 0.78216
 O1737 O 0.28001 0.71647 0.71297
 O1738 O 0.30140 0.75092 0.72389
 O1739 O 0.29382 0.78736 0.75437
 O1740 O 0.30486 0.75320 0.75867
 C1741 C 0.30657 0.74250 0.77331
 O1742 O 0.25353 0.71309 0.79655
 O1743 O 0.21788 0.78243 0.78632
 O1744 O 0.26348 0.74466 0.80326
 O1745 O 0.24830 0.77346 0.79947
 O1746 O 0.19592 0.74692 0.77534
 O1747 O 0.21308 0.71730 0.78191
 C1748 C 0.25647 0.76056 0.80955
 H1749 H 0.21048 0.77119 0.75286
 H1750 H 0.24123 0.70630 0.76093
 H1751 H 0.27802 0.76735 0.77931
 H1752 H 0.26745 0.75175 0.71074
 H1753 H 0.19289 0.70850 0.75058
 H1754 H 0.24721 0.68927 0.71603
 H1755 H 0.27777 0.70382 0.70697
 H1756 H 0.31365 0.75777 0.72598
 H1757 H 0.18403 0.73954 0.77298
 H1758 H 0.22034 0.79501 0.79238
 H1759 H 0.25258 0.80696 0.78680
 H1760 H 0.30761 0.78697 0.75094
 H1761 H 0.19988 0.71209 0.78154
 H1762 H 0.26464 0.70971 0.80458
 H1763 H 0.23437 0.78672 0.69577
 H1764 H 0.29864 0.78588 0.71990
 Zr1765 Zr 0.26740 0.23486 0.22491
 O1766 O 0.25631 0.21616 0.20411
 O1767 O 0.29630 0.23659 0.21703
 O1768 O 0.26858 0.24731 0.19769
 O1769 O 0.27260 0.19968 0.25912
 O1770 O 0.25506 0.27690 0.20184
 O1771 O 0.27788 0.20649 0.22801
 O1772 O 0.30885 0.25798 0.23805
 O1773 O 0.27370 0.26383 0.22987
 O1774 O 0.28081 0.23612 0.25119
 O1775 O 0.24091 0.24929 0.22405
 O1776 O 0.24793 0.22232 0.24420
 Zr1777 Zr 0.24099 0.26827 0.27610
 Zr1778 Zr 0.24720 0.27795 0.23045
 Zr1779 Zr 0.26115 0.22515 0.27057
 Zr1780 Zr 0.28611 0.26494 0.25653
 O1781 O 0.24385 0.20160 0.27864
 O1782 O 0.29701 0.29107 0.24557
 O1783 O 0.26757 0.25380 0.27725
 O1784 O 0.26042 0.28049 0.25677
 O1785 O 0.22738 0.26712 0.24989
 O1786 O 0.23482 0.23935 0.27097
 C1787 C 0.31006 0.24665 0.22378
 C1788 C 0.27844 0.19527 0.24245
 C1789 C 0.26296 0.26382 0.19167
 O1790 O 0.26348 0.30278 0.22426
 O1791 O 0.23273 0.30215 0.24125
 O1792 O 0.22870 0.29583 0.27262
 C1793 C 0.22676 0.30647 0.25790
 O1794 O 0.21752 0.21723 0.22321
 Zr1795 Zr 0.22228 0.23817 0.24448
 O1796 O 0.21193 0.26715 0.28356
 O1797 O 0.22288 0.28345 0.21359
 O1798 O 0.20141 0.24942 0.22586
 O1799 O 0.20940 0.21356 0.25672
 O1800 O 0.19893 0.24802 0.26079
 C1801 C 0.19776 0.25902 0.27530
 O1802 O 0.25189 0.28794 0.29611
 O1803 O 0.28633 0.21825 0.28564
 O1804 O 0.24142 0.25656 0.30366
 O1805 O 0.25621 0.22754 0.29971
 O1806 O 0.30845 0.25314 0.27306
 O1807 O 0.29176 0.28298 0.28004
 C1808 C 0.24833 0.24063 0.30990
 H1809 H 0.29290 0.22869 0.25164
 H1810 H 0.26306 0.29406 0.25995
 H1811 H 0.22616 0.23376 0.28060
 H1812 H 0.23493 0.24803 0.21149
 H1813 H 0.31102 0.29117 0.24779
 H1814 H 0.25593 0.31040 0.21513
 H1815 H 0.22508 0.29596 0.20732
 H1816 H 0.18914 0.24277 0.22857
 H1817 H 0.32031 0.26039 0.27010
 H1818 H 0.28395 0.20580 0.29198
 H1819 H 0.25146 0.19392 0.28767
 H1820 H 0.19552 0.21410 0.25386
 H1821 H 0.30497 0.28808 0.27905
 H1822 H 0.24107 0.29165 0.30451
 H1823 H 0.26717 0.21237 0.19581
 H1824 H 0.20365 0.21434 0.22247
 Zr1825 Zr 0.73349 0.73357 0.27552
 O1826 O 0.74469 0.71476 0.29614
 O1827 O 0.70466 0.73544 0.28364
 O1828 O 0.73248 0.74599 0.30277
 O1829 O 0.72777 0.69856 0.24119
 O1830 O 0.74621 0.77546 0.29869
 O1831 O 0.72283 0.70530 0.27238
 O1832 O 0.69206 0.75704 0.26289
 O1833 O 0.72733 0.76260 0.27077
 O1834 O 0.71983 0.73502 0.24937
 O1835 O 0.76007 0.74777 0.27624
 O1836 O 0.75268 0.72094 0.25600
 Zr1837 Zr 0.75964 0.76692 0.22429
 Zr1838 Zr 0.75391 0.77651 0.27003
 Zr1839 Zr 0.73924 0.72397 0.22976
 Zr1840 Zr 0.71467 0.76390 0.24423
 O1841 O 0.75630 0.70030 0.22137
 O1842 O 0.70406 0.79008 0.25544
 O1843 O 0.73295 0.75269 0.22330
 O1844 O 0.74046 0.77923 0.24385
 O1845 O 0.77349 0.76558 0.25037
 O1846 O 0.76566 0.73794 0.22921
 C1847 C 0.69091 0.74564 0.27709
 C1848 C 0.72207 0.69413 0.25789
 C1849 C 0.73820 0.76245 0.30883
 O1850 O 0.73787 0.80147 0.27648
 O1851 O 0.76840 0.80063 0.25922
 O1852 O 0.77213 0.79435 0.22779
 C1853 C 0.77424 0.80495 0.24254
 O1854 O 0.78329 0.71559 0.27677
 Zr1855 Zr 0.77844 0.73656 0.25558
 O1856 O 0.78860 0.76547 0.21650
 O1857 O 0.77841 0.78172 0.28673
 O1858 O 0.79958 0.74767 0.27398
 O1859 O 0.79097 0.71180 0.24320
 O1860 O 0.80169 0.74609 0.23899
 C1861 C 0.80278 0.75709 0.22449
 O1862 O 0.74873 0.78679 0.20449
 O1863 O 0.71387 0.71729 0.21490
 O1864 O 0.75881 0.75538 0.19668
 O1865 O 0.74390 0.72645 0.20057
 O1866 O 0.69207 0.75237 0.22787
 O1867 O 0.70893 0.78206 0.22087
 C1868 C 0.75175 0.73954 0.19040
 H1869 H 0.70770 0.72768 0.24899
 H1870 H 0.73788 0.79284 0.24076
 H1871 H 0.77416 0.73228 0.21946
 H1872 H 0.76613 0.74643 0.28875
 H1873 H 0.69003 0.79030 0.25337
 H1874 H 0.74553 0.80898 0.28561
 H1875 H 0.77636 0.79425 0.29306
 H1876 H 0.81178 0.74093 0.27114
 H1877 H 0.68031 0.75973 0.23096
 H1878 H 0.71613 0.70486 0.20846
 H1879 H 0.74856 0.69272 0.21238
 H1880 H 0.80488 0.71218 0.24593
 H1881 H 0.69578 0.78731 0.22202
 H1882 H 0.75949 0.79042 0.19601
 H1883 H 0.73389 0.71103 0.30453
 H1884 H 0.79716 0.71263 0.27740
 Zr1885 Zr 0.76666 0.26398 0.77426
 O1886 O 0.75655 0.28226 0.79602
 O1887 O 0.79586 0.26188 0.78062
 O1888 O 0.76870 0.25089 0.80113
 O1889 O 0.77071 0.30000 0.74073
 O1890 O 0.75479 0.22153 0.79698
 O1891 O 0.77718 0.29234 0.77136
 O1892 O 0.80750 0.24104 0.75844
 O1893 O 0.77261 0.23510 0.76834
 O1894 O 0.77903 0.26330 0.74734
 O1895 O 0.74014 0.24972 0.77603
 O1896 O 0.74654 0.27713 0.75624
 Zr1897 Zr 0.73811 0.23204 0.72360
 Zr1898 Zr 0.74602 0.22118 0.76868
 Zr1899 Zr 0.75872 0.27489 0.72920
 Zr1900 Zr 0.78396 0.23458 0.74106
 O1901 O 0.74120 0.29869 0.72249
 O1902 O 0.79514 0.20816 0.75095
 O1903 O 0.76470 0.24637 0.72155
 O1904 O 0.75820 0.21922 0.74169
 O1905 O 0.72553 0.23262 0.75047
 O1906 O 0.73231 0.26087 0.72969
 C1907 C 0.80932 0.25202 0.77289
 C1908 C 0.77723 0.30394 0.75721
 C1909 C 0.76312 0.23433 0.80707
 O1910 O 0.76246 0.19618 0.77359
 O1911 O 0.73114 0.19729 0.75798
 O1912 O 0.72589 0.20445 0.72700
 C1913 C 0.72454 0.19341 0.74153
 O1914 O 0.71704 0.28194 0.77873
 Zr1915 Zr 0.72081 0.26147 0.75678
 O1916 O 0.70878 0.23356 0.71759
 O1917 O 0.72226 0.21537 0.78644
 O1918 O 0.70062 0.24989 0.77612
 O1919 O 0.70758 0.28644 0.74576
 O1920 O 0.69679 0.25220 0.74141
 C1921 C 0.69499 0.24158 0.72671
 O1922 O 0.74803 0.21276 0.70262
 O1923 O 0.78334 0.28212 0.71316
 O1924 O 0.73776 0.24436 0.69630
 O1925 O 0.75283 0.27319 0.70024
 O1926 O 0.80563 0.24662 0.72366
 O1927 O 0.78855 0.21702 0.71694
 C1928 C 0.74461 0.26035 0.69010
 H1929 H 0.79112 0.27067 0.74647
 H1930 H 0.76065 0.20572 0.73807
 H1931 H 0.72335 0.26674 0.72059
 H1932 H 0.73463 0.25072 0.78889
 H1933 H 0.80904 0.20802 0.74803
 H1934 H 0.75522 0.18836 0.78286
 H1935 H 0.72462 0.20269 0.79232
 H1936 H 0.68831 0.25669 0.77419
 H1937 H 0.81756 0.23923 0.72581
 H1938 H 0.78076 0.29474 0.70724
 H1939 H 0.74849 0.30656 0.71329
 H1940 H 0.69384 0.28595 0.74937
 H1941 H 0.80175 0.21180 0.71717
 H1942 H 0.73687 0.20936 0.69467
 H1943 H 0.76775 0.28575 0.80388
 H1944 H 0.70322 0.28483 0.78029
 C1945 C 0.45332 0.99842 0.35225
 N1946 N 0.46097 1.01459 0.35975
 N1947 N 0.47016 1.01396 0.37617
 C1948 C 0.47208 0.99712 0.38559
 N1949 N 0.46449 0.98094 0.37805
 N1950 N 0.45530 0.98158 0.36162
 C1951 C 0.44223 0.99928 0.33522
 C1952 C 0.43251 0.99977 0.32119
 C1953 C 0.47991 0.99690 0.40431
 C1954 C 0.48517 0.99724 0.42050
 C1955 C -0.04630 0.49931 0.85253
 N1956 N -0.03895 0.51556 0.86013
 N1957 N -0.02985 0.51501 0.87661
 C1958 C -0.02773 0.49817 0.88598
 N1959 N -0.03503 0.48191 0.87833
 N1960 N -0.04412 0.48246 0.86185
 C1961 C -0.05728 0.50006 0.83542
 C1962 C -0.06691 0.50045 0.82132
 C1963 C -0.01996 0.49799 0.90472
 C1964 C -0.01472 0.49833 0.92092
 C1965 C 0.04391 0.00404 0.85119
 N1966 N 0.03351 -0.01080 0.85817
 N1967 N 0.02470 -0.00925 0.87483
 C1968 C 0.02592 0.00721 0.88499
 N1969 N 0.03625 0.02207 0.87796
 N1970 N 0.04507 0.02053 0.86130
 C1971 C 0.05465 0.00190 0.83396
 C1972 C 0.06415 0.00019 0.81978
 C1973 C 0.01855 0.00794 0.90394
 C1974 C 0.01366 0.00782 0.92028
 C1975 C 0.54412 0.50347 0.35123
 N1976 N 0.53374 0.48863 0.35825
 N1977 N 0.52494 0.49020 0.37492
 C1978 C 0.52618 0.50668 0.38505
 N1979 N 0.53649 0.52154 0.37798
 N1980 N 0.54529 0.51997 0.36132
 C1981 C 0.55485 0.50130 0.33400
 C1982 C 0.56434 0.49957 0.31982
 C1983 C 0.51883 0.50745 0.40400
 C1984 C 0.51395 0.50735 0.42035
 C1985 C 0.54597 0.49564 0.14778
 N1986 N 0.54518 0.47884 0.13813
 N1987 N 0.53601 0.47780 0.12172
 C1988 C 0.52723 0.49351 0.11449
 N1989 N 0.52794 0.51029 0.12419
 N1990 N 0.53712 0.51133 0.14060
 C1991 C 0.55707 0.49704 0.16474
 C1992 C 0.56684 0.49796 0.17871
 C1993 C 0.51949 0.49305 0.09575
 C1994 C 0.51434 0.49331 0.07953
 C1995 C 0.04559 0.99612 0.64778
 N1996 N 0.04469 0.97926 0.63824
 N1997 N 0.03550 0.97818 0.62184
 C1998 C 0.02683 0.99389 0.61451
 N1999 N 0.02765 1.01073 0.62410
 N2000 N 0.03684 1.01182 0.64050
 C2001 C 0.05671 0.99756 0.66473
 C2002 C 0.06650 0.99851 0.67869
 C2003 C 0.01910 0.99336 0.59577
 C2004 C 0.01396 0.99355 0.57955
 C2005 C -0.04460 0.50125 0.64841
 N2006 N -0.04474 0.51790 0.63852
 N2007 N -0.03614 0.51899 0.62172
 C2008 C -0.02705 0.50349 0.61431
 N2009 N -0.02685 0.48686 0.62424
 N2010 N -0.03545 0.48576 0.64104
 C2011 C -0.05511 0.49971 0.66585
 C2012 C -0.06442 0.49851 0.68021
 C2013 C -0.01980 0.50397 0.59529
 C2014 C -0.01495 0.50379 0.57892
 C2015 C 0.45455 0.00080 0.14804
 N2016 N 0.45457 0.01750 0.13821
 N2017 N 0.46334 0.01863 0.12150
 C2018 C 0.47245 0.00312 0.11412
 N2019 N 0.47250 -0.01355 0.12398
 N2020 N 0.46373 -0.01469 0.14069
 C2021 C 0.44387 -0.00078 0.16537
 C2022 C 0.43444 -0.00200 0.17965
 C2023 C 0.47987 0.00366 0.09517
 C2024 C 0.48483 0.00352 0.07883
 C2025 C 0.35744 0.42933 0.00846
 N2026 N 0.35866 0.44871 0.00703
 N2027 N 0.37560 0.45748 0.00821
 C2028 C 0.39187 0.44718 0.01093
 N2029 N 0.39064 0.42781 0.01239
 N2030 N 0.37371 0.41903 0.01121
 C2031 C 0.33923 0.41977 0.00666
 C2032 C 0.32409 0.41152 0.00506
 C2033 C 0.41026 0.45657 0.01104
 C2034 C 0.42566 0.46450 0.01033
 C2035 C -0.14276 0.92929 0.50842
 N2036 N -0.14155 0.94863 0.50655
 N2037 N -0.12463 0.95745 0.50772
 C2038 C -0.10839 0.94723 0.51086
 N2039 N -0.10961 0.92790 0.51275
 N2040 N -0.12652 0.91908 0.51159
 C2041 C -0.16094 0.91966 0.50663
 C2042 C -0.17605 0.91135 0.50504
 C2043 C -0.09000 0.95664 0.51097
 C2044 C -0.07461 0.96458 0.51026
 C2045 C -0.14344 0.07069 0.99227
 N2046 N -0.12718 0.08128 0.99083
 N2047 N -0.11009 0.07273 0.98981
 C2048 C -0.10871 0.05331 0.99013
 N2049 N -0.12498 0.04272 0.99154
 N2050 N -0.14207 0.05127 0.99257
 C2051 C -0.16185 0.07997 0.99389
 C2052 C -0.17719 0.08794 0.99537
 C2053 C -0.09021 0.04409 0.99009
 C2054 C -0.07475 0.03627 0.99075
 C2055 C 0.35697 0.57055 0.49207
 N2056 N 0.37326 0.58107 0.49054
 N2057 N 0.39032 0.57246 0.48958
 C2058 C 0.39164 0.55304 0.49006
 N2059 N 0.37534 0.54252 0.49156
 N2060 N 0.35828 0.55113 0.49252
 C2061 C 0.33859 0.57991 0.49362
 C2062 C 0.32327 0.58792 0.49505
 C2063 C 0.41011 0.54376 0.49006
 C2064 C 0.42555 0.53590 0.49076
 C2065 C 0.14066 0.57005 0.50665
 N2066 N 0.13964 0.55072 0.50458
 N2067 N 0.12279 0.54174 0.50570
 C2068 C 0.10643 0.55178 0.50897
 N2069 N 0.10746 0.57111 0.51106
 N2070 N 0.12430 0.58009 0.50995
 C2071 C 0.15878 0.57985 0.50495
 C2072 C 0.17385 0.58828 0.50345
 C2073 C 0.08812 0.54220 0.50910
 C2074 C 0.07280 0.53413 0.50847
 C2075 C 0.64100 0.06948 0.00716
 N2076 N 0.63990 0.05017 0.00499
 N2077 N 0.62303 0.04124 0.00609
 C2078 C 0.60670 0.05131 0.00946
 N2079 N 0.60781 0.07063 0.01166
 N2080 N 0.62468 0.07956 0.01056
 C2081 C 0.65914 0.07923 0.00546
 C2082 C 0.67423 0.08764 0.00395
 C2083 C 0.58837 0.04180 0.00955
 C2084 C 0.57302 0.03379 0.00885
 C2085 C 0.64159 0.93064 0.49118
 N2086 N 0.62512 0.92042 0.48958
 N2087 N 0.60826 0.92935 0.48833
 C2088 C 0.60730 0.94880 0.48856
 N2089 N 0.62377 0.95902 0.49013
 N2090 N 0.64064 0.95009 0.49138
 C2091 C 0.65974 0.92097 0.49309
 C2092 C 0.67489 0.91271 0.49481
 C2093 C 0.58901 0.95843 0.48845
 C2094 C 0.57370 0.96656 0.48921
 C2095 C 0.14168 0.43137 0.99129
 N2096 N 0.12521 0.42116 0.98967
 N2097 N 0.10834 0.43010 0.98846
 C2098 C 0.10740 0.44955 0.98875
 N2099 N 0.12387 0.45976 0.99033
 N2100 N 0.14074 0.45082 0.99154
 C2101 C 0.15982 0.42168 0.99317
 C2102 C 0.17496 0.41340 0.99486
 C2103 C 0.08911 0.45919 0.98868
 C2104 C 0.07381 0.46733 0.98948
 C2105 C -0.01003 0.35380 0.43169
 N2106 N -0.00254 0.35551 0.44920
 N2107 N -0.00190 0.37256 0.45764
 C2108 C -0.00868 0.38836 0.44877
 N2109 N -0.01621 0.38665 0.43128
 N2110 N -0.01685 0.36960 0.42284
 C2111 C -0.00961 0.33578 0.42220
 C2112 C -0.00870 0.32075 0.41397
 C2113 C -0.00733 0.40672 0.45751
 C2114 C -0.00600 0.42219 0.46482
 C2115 C 0.49000 -0.14556 -0.06959
 N2116 N 0.49697 -0.14415 -0.05185
 N2117 N 0.49759 -0.12720 -0.04321
 C2118 C 0.49131 -0.11121 -0.05211
 N2119 N 0.48429 -0.11262 -0.06984
 N2120 N 0.48367 -0.12957 -0.07847
 C2121 C 0.49043 -0.16349 -0.07925
 C2122 C 0.49137 -0.17845 -0.08758
 C2123 C 0.49266 -0.09296 -0.04314
 C2124 C 0.49398 -0.07757 -0.03567
 C2125 C 0.00982 -0.14448 1.06473
 N2126 N 0.02203 -0.13023 1.06961
 N2127 N 0.02113 -0.11327 1.06106
 C2128 C 0.00796 -0.11010 1.04744
 N2129 N -0.00420 -0.12437 1.04251
 N2130 N -0.00331 -0.14133 1.05106
 C2131 C 0.00973 -0.16207 1.07494
 C2132 C 0.00912 -0.17655 1.08406
 C2133 C 0.00636 -0.09165 1.03898
 C2134 C 0.00486 -0.07603 1.03205
 C2135 C 0.51100 0.35498 0.56437
 N2136 N 0.52303 0.36934 0.56935
 N2137 N 0.52194 0.38635 0.56090
 C2138 C 0.50875 0.38945 0.54730
 N2139 N 0.49676 0.37507 0.54226
 N2140 N 0.49785 0.35806 0.55071
 C2141 C 0.51110 0.33733 0.57448
 C2142 C 0.51063 0.32280 0.58351
 C2143 C 0.50695 0.40793 0.53893
 C2144 C 0.50532 0.42357 0.53206
 C2145 C 0.49274 1.14626 0.56958
 N2146 N 0.50088 1.14473 0.55225
 N2147 N 0.50139 1.12787 0.54345
 C2148 C 0.49382 1.11208 0.55175
 N2149 N 0.48565 1.11361 0.56907
 N2150 N 0.48513 1.13048 0.57787
 C2151 C 0.49298 1.16412 0.57938
 C2152 C 0.49359 1.17904 0.58780
 C2153 C 0.49489 1.09391 0.54258
 C2154 C 0.49594 1.07856 0.53495
 C2155 C -0.00669 0.64681 1.07065
 N2156 N 0.00204 0.64521 1.05360
 N2157 N 0.00256 0.62838 1.04474
 C2158 C -0.00560 0.61270 1.05270
 N2159 N -0.01435 0.61430 1.06973
 N2160 N -0.01488 0.63114 1.07859
 C2161 C -0.00659 0.66465 1.08047
 C2162 C -0.00619 0.67958 1.08890
 C2163 C -0.00460 0.59456 1.04344
 C2164 C -0.00363 0.57926 1.03574
 C2165 C 0.50967 0.64523 -0.06526
 N2166 N 0.52193 0.63098 -0.07024
 N2167 N 0.52097 0.61398 -0.06177
 C2168 C 0.50767 0.61076 -0.04814
 N2169 N 0.49545 0.62502 -0.04312
 N2170 N 0.49642 0.64202 -0.05159
 C2171 C 0.50980 0.66294 -0.07527
 C2172 C 0.50946 0.67756 -0.08416
 C2173 C 0.50611 0.59232 -0.03963
 C2174 C 0.50469 0.57673 -0.03262
 C2175 C 0.01003 1.14483 0.43422
 N2176 N 0.02139 1.13019 0.42836
 N2177 N 0.02040 1.11318 0.43681
 C2178 C 0.00798 1.11035 0.45129
 N2179 N -0.00334 1.12500 0.45719
 N2180 N -0.00234 1.14202 0.44874
 C2181 C 0.01013 1.16261 0.42433
 C2182 C 0.00972 1.17731 0.41555
 C2183 C 0.00636 1.09192 0.45982
 C2184 C 0.00487 1.07637 0.46690
 C2185 C 0.74901 0.70510 0.89858
 N2186 N 0.73217 0.70718 0.88932
 N2187 N 0.73154 0.71638 0.87286
 C2188 C 0.74772 0.72389 0.86518
 N2189 N 0.76455 0.72187 0.87449
 N2190 N 0.76518 0.71267 0.89095
 C2191 C 0.74986 0.69394 0.91561
 C2192 C 0.75034 0.68413 0.92963
 C2193 C 0.74751 0.73163 0.84640
 C2194 C 0.74786 0.73677 0.83015
 C2195 C 0.24855 0.20471 0.39807
 N2196 N 0.26466 0.21242 0.39044
 N2197 N 0.26395 0.22167 0.37401
 C2198 C 0.24710 0.22359 0.36473
 N2199 N 0.23097 0.21594 0.37240
 N2200 N 0.23168 0.20670 0.38884
 C2201 C 0.24950 0.19352 0.41507
 C2202 C 0.25005 0.18368 0.42906
 C2203 C 0.24681 0.23137 0.34596
 C2204 C 0.24711 0.23652 0.32972
 C2205 C 0.75381 0.29449 0.39869
 N2206 N 0.73907 0.28396 0.39180
 N2207 N 0.74069 0.27518 0.37516
 C2208 C 0.75711 0.27656 0.36492
 N2209 N 0.77187 0.28702 0.37185
 N2210 N 0.77026 0.29581 0.38849
 C2211 C 0.75159 0.30517 0.41593
 C2212 C 0.74981 0.31462 0.43011
 C2213 C 0.75794 0.26913 0.34601
 C2214 C 0.75789 0.26415 0.32971
 C2215 C 0.25364 0.79502 0.89836
 N2216 N 0.23889 0.78451 0.89147
 N2217 N 0.24049 0.77572 0.87482
 C2218 C 0.25692 0.77709 0.86458
 N2219 N 0.27169 0.78754 0.87151
 N2220 N 0.27009 0.79632 0.88815
 C2221 C 0.25143 0.80571 0.91559
 C2222 C 0.24966 0.81517 0.92976
 C2223 C 0.25773 0.76967 0.84567
 C2224 C 0.25767 0.76469 0.82936
 C2225 C 0.24443 0.79761 0.10177
 N2226 N 0.22779 0.79731 0.11175
 N2227 N 0.22675 0.78818 0.12824
 C2228 C 0.24230 0.77897 0.13523
 N2229 N 0.25892 0.77921 0.12521
 N2230 N 0.25997 0.78834 0.10872
 C2231 C 0.24586 0.80862 0.08468
 C2232 C 0.24681 0.81833 0.07061
 C2233 C 0.24188 0.77118 0.15400
 C2234 C 0.24222 0.76593 0.17021
 C2235 C 0.74503 0.29661 0.60201
 N2236 N 0.72837 0.29606 0.61195
 N2237 N 0.72741 0.28688 0.62842
 C2238 C 0.74307 0.27786 0.63542
 N2239 N 0.75971 0.27835 0.62544
 N2240 N 0.76067 0.28754 0.60897
 C2241 C 0.74635 0.30769 0.58495
 C2242 C 0.74722 0.31745 0.57091
 C2243 C 0.74272 0.27002 0.65417
 C2244 C 0.74310 0.26474 0.67037
 C2245 C 0.25039 0.20584 0.60155
 N2246 N 0.26717 0.20620 0.61113
 N2247 N 0.26831 0.21504 0.62777
 C2248 C 0.25272 0.22388 0.63531
 N2249 N 0.23597 0.22359 0.62569
 N2250 N 0.23483 0.21475 0.60906
 C2251 C 0.24883 0.19507 0.58433
 C2252 C 0.24764 0.18555 0.57015
 C2253 C 0.25329 0.23127 0.65423
 C2254 C 0.25318 0.23615 0.67056
 C2255 C 0.74993 0.70540 0.10146
 N2256 N 0.76675 0.70594 0.11096
 N2257 N 0.76785 0.71474 0.12762
 C2258 C 0.75219 0.72336 0.13526
 N2259 N 0.73539 0.72288 0.12572
 N2260 N 0.73429 0.71408 0.10906
 C2261 C 0.74844 0.69466 0.08421
 C2262 C 0.74732 0.68516 0.07001
 C2263 C 0.75276 0.73073 0.15419
 C2264 C 0.75269 0.73561 0.17053
 C2265 C 0.17830 0.60841 0.24105
 N2266 N 0.16803 0.62482 0.23905
 N2267 N 0.17685 0.64176 0.23795
 C2268 C 0.19625 0.64285 0.23876
 N2269 N 0.20652 0.62643 0.24074
 N2270 N 0.19770 0.60949 0.24184
 C2271 C 0.16870 0.59017 0.24272
 C2272 C 0.16045 0.57498 0.24420
 C2273 C 0.20573 0.66122 0.23868
 C2274 C 0.21377 0.67657 0.23938
 C2275 C 0.67945 0.10709 0.74138
 N2276 N 0.66922 0.12345 0.73885
 N2277 N 0.67805 0.14038 0.73770
 C2278 C 0.69742 0.14151 0.73896
 N2279 N 0.70766 0.12514 0.74146
 N2280 N 0.69883 0.10821 0.74262
 C2281 C 0.66983 0.08887 0.74312
 C2282 C 0.66154 0.07371 0.74466
 C2283 C 0.70689 0.15989 0.73883
 C2284 C 0.71489 0.17526 0.73951
 C2285 C 0.82211 0.10688 0.25844
 N2286 N 0.80271 0.10815 0.25927
 N2287 N 0.79412 0.12522 0.26039
 C2288 C 0.80465 0.14158 0.26077
 N2289 N 0.82405 0.14032 0.25998
 N2290 N 0.83263 0.12324 0.25886
 C2291 C 0.83139 0.08849 0.25669
 C2292 C 0.83933 0.07314 0.25508
 C2293 C 0.79533 0.16004 0.26082
 C2294 C 0.78740 0.17545 0.26010
 C2295 C 0.32147 0.60727 0.75835
 N2296 N 0.30207 0.60859 0.75918
 N2297 N 0.29354 0.62569 0.76021
 C2298 C 0.30411 0.64203 0.76051
 N2299 N 0.32350 0.64070 0.75970
 N2300 N 0.33204 0.62360 0.75867
 C2301 C 0.33070 0.58883 0.75670
 C2302 C 0.33860 0.57346 0.75520
 C2303 C 0.29484 0.66051 0.76050
 C2304 C 0.28695 0.67594 0.75974
 C2305 C 0.32017 0.39139 0.74272
 N2306 N 0.33018 0.37499 0.73952
 N2307 N 0.32116 0.35817 0.73832
 C2308 C 0.30182 0.35720 0.74021
 N2309 N 0.29181 0.37360 0.74339
 N2310 N 0.30082 0.39043 0.74459
 C2311 C 0.32999 0.40947 0.74454
 C2312 C 0.33844 0.42453 0.74617
 C2313 C 0.29220 0.33891 0.74006
 C2314 C 0.28411 0.32359 0.74072
 C2315 C 0.82020 0.89076 0.24226
 N2316 N 0.83008 0.87438 0.23858
 N2317 N 0.82099 0.85759 0.23745
 C2318 C 0.80171 0.85664 0.23989
 N2319 N 0.79183 0.87302 0.24354
 N2320 N 0.80092 0.88981 0.24468
 C2321 C 0.83013 0.90879 0.24401
 C2322 C 0.83867 0.92379 0.24557
 C2323 C 0.79204 0.83838 0.23980
 C2324 C 0.78392 0.82308 0.24051
 C2325 C 0.68185 0.89277 0.75813
 N2326 N 0.70125 0.89180 0.75696
 N2327 N 0.71023 0.87495 0.75823
 C2328 C 0.70012 0.85851 0.76077
 N2329 N 0.68072 0.85949 0.76196
 N2330 N 0.67174 0.87634 0.76069
 C2331 C 0.67209 0.91090 0.75619
 C2332 C 0.66376 0.92603 0.75443
 C2333 C 0.70975 0.84020 0.76096
 C2334 C 0.71785 0.82486 0.76032
 C2335 C 0.18096 0.39249 0.25763
 N2336 N 0.20035 0.39155 0.25634
 N2337 N 0.20937 0.37471 0.25762
 C2338 C 0.19930 0.35827 0.26030
 N2339 N 0.17991 0.35922 0.26163
 N2340 N 0.17089 0.37605 0.26035
 C2341 C 0.17115 0.41060 0.25572
 C2342 C 0.16278 0.42570 0.25401
 C2343 C 0.20897 0.33998 0.26052
 C2344 C 0.21709 0.32464 0.25989
 C2345 C 0.10509 0.24075 0.82063
 N2346 N 0.10620 0.24613 0.80230
 N2347 N 0.12310 0.24672 0.79351
 C2348 C 0.13932 0.24199 0.80285
 N2349 N 0.13820 0.23657 0.82116
 N2350 N 0.12131 0.23598 0.82994
 C2351 C 0.08715 0.24119 0.83031
 C2352 C 0.07212 0.24211 0.83858
 C2353 C 0.15748 0.24330 0.79365
 C2354 C 0.17278 0.24459 0.78597
 C2355 C 0.60494 0.73993 0.32063
 N2356 N 0.60604 0.74446 0.30208
 N2357 N 0.62298 0.74512 0.29338
 C2358 C 0.63926 0.74130 0.30302
 N2359 N 0.63815 0.73673 0.32156
 N2360 N 0.62121 0.73607 0.33025
 C2361 C 0.58692 0.74033 0.33018
 C2362 C 0.57183 0.74123 0.33832
 C2363 C 0.65744 0.74268 0.29387
 C2364 C 0.67275 0.74401 0.28620
 C2365 C 0.60579 0.25839 0.18634
 N2366 N 0.61967 0.27126 0.18196
 N2367 N 0.63668 0.27034 0.19031
 C2368 C 0.64028 0.25650 0.20322
 N2369 N 0.62638 0.24367 0.20765
 N2370 N 0.60937 0.24459 0.19930
 C2371 C 0.58814 0.25846 0.17636
 C2372 C 0.57359 0.25804 0.16743
 C2373 C 0.65876 0.25499 0.21152
 C2374 C 0.67439 0.25363 0.21834
 C2375 C 0.10554 0.75881 0.68587
 N2376 N 0.11952 0.77144 0.68119
 N2377 N 0.13652 0.77059 0.68957
 C2378 C 0.14000 0.75704 0.70281
 N2379 N 0.12599 0.74444 0.70754
 N2380 N 0.10899 0.74530 0.69916
 C2381 C 0.08788 0.75880 0.67589
 C2382 C 0.07332 0.75831 0.66699
 C2383 C 0.15847 0.75557 0.71114
 C2384 C 0.17409 0.75423 0.71799
 C2385 C 0.89712 0.74064 0.68122
 N2386 N 0.88117 0.73421 0.67243
 N2387 N 0.86421 0.73506 0.68109
 C2388 C 0.86277 0.74240 0.69873
 N2389 N 0.87873 0.74880 0.70753
 N2390 N 0.89568 0.74795 0.69888
 C2391 C 0.91509 0.74068 0.67157
 C2392 C 0.93011 0.74121 0.66325
 C2393 C 0.84453 0.74389 0.70776
 C2394 C 0.82916 0.74529 0.71531
 C2395 C 0.39641 0.24050 0.18097
 N2396 N 0.38039 0.23486 0.17179
 N2397 N 0.36339 0.23564 0.18036
 C2398 C 0.36196 0.24212 0.19833
 N2399 N 0.37798 0.24772 0.20753
 N2400 N 0.39498 0.24694 0.19896
 C2401 C 0.41445 0.24065 0.17146
 C2402 C 0.42952 0.24127 0.16326
 C2403 C 0.34368 0.24356 0.20729
 C2404 C 0.32830 0.24494 0.21482
 C2405 C 0.39620 0.75875 0.31190
 N2406 N 0.39184 0.74372 0.30058
 N2407 N 0.37481 0.74282 0.29225
 C2408 C 0.36169 0.75689 0.29509
 N2409 N 0.36608 0.77195 0.30636
 N2410 N 0.38310 0.77285 0.31468
 C2411 C 0.41377 0.75892 0.32204
 C2412 C 0.42818 0.75863 0.33117
 C2413 C 0.34313 0.75546 0.28693
 C2414 C 0.32742 0.75419 0.28028
 C2415 C 0.89661 0.25891 0.81260
 N2416 N 0.89250 0.24395 0.80109
 N2417 N 0.87550 0.24286 0.79274
 C2418 C 0.86215 0.25668 0.79573
 N2419 N 0.86627 0.27167 0.80718
 N2420 N 0.88327 0.27275 0.81553
 C2421 C 0.91417 0.25925 0.82274
 C2422 C 0.92859 0.25910 0.83187
 C2423 C 0.84363 0.25505 0.78752
 C2424 C 0.82795 0.25362 0.78081
 C2425 C 0.54945 1.01186 0.64637
 N2426 N 0.53604 0.99889 0.64104
 N2427 N 0.52734 1.00054 0.62442
 C2428 C 0.53169 1.01527 0.61266
 N2429 N 0.54504 1.02828 0.61803
 N2430 N 0.55375 1.02664 0.63465
 C2431 C 0.55983 1.00934 0.66368
 C2432 C 0.56890 1.00709 0.67796
 C2433 C 0.52406 1.01569 0.59386
 C2434 C 0.51877 1.01511 0.57768
 C2435 C 0.04949 0.51191 1.14695
 N2436 N 0.03611 0.49896 1.14150
 N2437 N 0.02747 0.50069 1.12486
 C2438 C 0.03184 0.51549 1.11319
 N2439 N 0.04516 0.52849 1.11868
 N2440 N 0.05381 0.52675 1.13532
 C2441 C 0.05978 0.50932 1.16429
 C2442 C 0.06880 0.50704 1.17862
 C2443 C 0.02425 0.51602 1.09437
 C2444 C 0.01898 0.51554 1.07819
 C2445 C -0.04866 -0.01295 1.14688
 N2446 N -0.03511 0.00001 1.14175
 N2447 N -0.02668 -0.00109 1.12486
 C2448 C -0.03148 -0.01522 1.11260
 N2449 N -0.04498 -0.02822 1.11776
 N2450 N -0.05341 -0.02713 1.13464
 C2451 C -0.05880 -0.01093 1.16448
 C2452 C -0.06774 -0.00904 1.17899
 C2453 C -0.02413 -0.01500 1.09362
 C2454 C -0.01902 -0.01388 1.07737
 C2455 C 0.45133 0.48666 0.64683
 N2456 N 0.46498 0.49956 0.64177
 N2457 N 0.47345 0.49844 0.62491
 C2458 C 0.46863 0.48435 0.61261
 N2459 N 0.45504 0.47142 0.61770
 N2460 N 0.44656 0.47252 0.63456
 C2461 C 0.44115 0.48871 0.66440
 C2462 C 0.43218 0.49063 0.67889
 C2463 C 0.47603 0.48458 0.59365
 C2464 C 0.48118 0.48571 0.57742
 C2465 C 0.45117 0.51167 -0.14632
 N2466 N 0.44616 0.52592 -0.13420
 N2467 N 0.45461 0.52741 -0.11745
 C2468 C 0.46842 0.51475 -0.11231
 N2469 N 0.47348 0.50056 -0.12447
 N2470 N 0.46503 0.49906 -0.14122
 C2471 C 0.44109 0.50926 -0.16380
 C2472 C 0.43226 0.50707 -0.17823
 C2473 C 0.47583 0.51492 -0.09343
 C2474 C 0.48099 0.51408 -0.07724
 C2475 C -0.04826 1.01118 0.35329
 N2476 N -0.05326 1.02548 0.36534
 N2477 N -0.04493 1.02694 0.38215
 C2478 C -0.03126 1.01421 0.38742
 N2479 N -0.02621 0.99994 0.37533
 N2480 N -0.03454 0.99848 0.35852
 C2481 C -0.05823 1.00880 0.33574
 C2482 C -0.06698 1.00664 0.32125
 C2483 C -0.02397 1.01438 0.40635
 C2484 C -0.01889 1.01357 0.42257
 C2485 C 0.04729 0.48725 0.35187
 N2486 N 0.05158 0.47263 0.36375
 N2487 N 0.04300 0.47133 0.38055
 C2488 C 0.02977 0.48454 0.38597
 N2489 N 0.02543 0.49911 0.37405
 N2490 N 0.03401 0.50042 0.35726
 C2491 C 0.05755 0.48943 0.33436
 C2492 C 0.06655 0.49143 0.31989
 C2493 C 0.02227 0.48446 0.40491
 C2494 C 0.01708 0.48530 0.42116
 C2495 C 0.54838 -0.01277 -0.14784
 N2496 N 0.55238 -0.02747 -0.13595
 N2497 N 0.54362 -0.02872 -0.11925
 C2498 C 0.53049 -0.01536 -0.11392
 N2499 N 0.52644 -0.00071 -0.12584
 N2500 N 0.53520 0.00054 -0.14255
 C2501 C 0.55883 -0.01068 -0.16525
 C2502 C 0.56798 -0.00874 -0.17964
 C2503 C 0.52282 -0.01539 -0.09505
 C2504 C 0.51751 -0.01453 -0.07884
 C2505 C 0.64207 0.56871 -0.00779
 N2506 N 0.63976 0.55052 -0.00136
 N2507 N 0.62280 0.54179 -0.00266
 C2508 C 0.60762 0.55094 -0.01049
 N2509 N 0.60994 0.56911 -0.01695
 N2510 N 0.62689 0.57784 -0.01565
 C2511 C 0.66015 0.57846 -0.00572
 C2512 C 0.67512 0.58699 -0.00391
 C2513 C 0.58899 0.54200 -0.01065
 C2514 C 0.57329 0.53469 -0.00989
 C2515 C 0.14206 1.06824 0.49204
 N2516 N 0.13968 1.05016 0.49874
 N2517 N 0.12272 1.04143 0.49747
 C2518 C 0.10760 1.05047 0.48941
 N2519 N 0.10999 1.06854 0.48268
 N2520 N 0.12695 1.07726 0.48395
 C2521 C 0.16014 1.07799 0.49406
 C2522 C 0.17511 1.08653 0.49582
 C2523 C 0.08896 1.04156 0.48928
 C2524 C 0.07325 1.03428 0.49005
 C2525 C 0.14200 -0.06780 1.00637
 N2526 N 0.12696 -0.07657 1.01499
 N2527 N 0.11000 -0.06781 1.01631
 C2528 C 0.10753 -0.04995 1.00911
 N2529 N 0.12258 -0.04116 1.00052
 N2530 N 0.13954 -0.04993 0.99920
 C2531 C 0.16009 -0.07760 1.00436
 C2532 C 0.17508 -0.08618 1.00265
 C2533 C 0.08890 -0.04100 1.00939
 C2534 C 0.07319 -0.03369 1.00877
 C2535 C 0.64220 0.43166 0.50671
 N2536 N 0.62714 0.42296 0.51536
 N2537 N 0.61020 0.43177 0.51662
 C2538 C 0.60777 0.44960 0.50934
 N2539 N 0.62285 0.45831 0.50072
 N2540 N 0.63979 0.44950 0.49945
 C2541 C 0.66028 0.42181 0.50476
 C2542 C 0.67526 0.41320 0.50309
 C2543 C 0.58916 0.45859 0.50956
 C2544 C 0.57346 0.46593 0.50892
 C2545 C -0.14358 0.42976 0.49256
 N2546 N -0.14110 0.44774 0.49948
 N2547 N -0.12409 0.45639 0.49814
 C2548 C -0.10903 0.44738 0.48977
 N2549 N -0.11152 0.42941 0.48283
 N2550 N -0.12852 0.42076 0.48417
 C2551 C -0.16181 0.42019 0.49434
 C2552 C -0.17694 0.41184 0.49565
 C2553 C -0.09038 0.45626 0.48940
 C2554 C -0.07466 0.46354 0.48997
 C2555 C 0.35634 -0.06971 -0.00799
 N2556 N 0.35883 -0.05169 -0.00115
 N2557 N 0.37586 -0.04308 -0.00249
 C2558 C 0.39093 -0.05216 -0.01078
 N2559 N 0.38842 -0.07016 -0.01764
 N2560 N 0.37140 -0.07877 -0.01630
 C2561 C 0.33809 -0.07924 -0.00620
 C2562 C 0.32295 -0.08758 -0.00486
 C2563 C 0.40960 -0.04333 -0.01111
 C2564 C 0.42534 -0.03611 -0.01049
 C2565 C 0.35744 1.07109 0.50858
 N2566 N 0.37267 1.08064 0.51582
 N2567 N 0.38974 1.07211 0.51709
 C2568 C 0.39212 1.05372 0.51124
 N2569 N 0.37687 1.04416 0.50403
 N2570 N 0.35980 1.05269 0.50276
 C2571 C 0.33914 1.08052 0.50681
 C2572 C 0.32393 1.08874 0.50545
 C2573 C 0.41082 1.04492 0.51141
 C2574 C 0.42656 1.03767 0.51062
 C2575 C -0.14243 0.57181 1.00922
 N2576 N -0.12715 0.58150 1.01618
 N2577 N -0.11006 0.57302 1.01745
 C2578 C -0.10770 0.55454 1.01188
 N2579 N -0.12298 0.54483 1.00494
 N2580 N -0.14008 0.55331 1.00367
 C2581 C -0.16076 0.58118 1.00745
 C2582 C -0.17600 0.58935 1.00608
 C2583 C -0.08897 0.54578 1.01204
 C2584 C -0.07322 0.53855 1.01122
 C2585 C 0.01873 0.64282 0.55806
 N2586 N 0.02615 0.62767 0.56751
 N2587 N 0.02452 0.61000 0.56058
 C2588 C 0.01535 0.60701 0.54405
 N2589 N 0.00800 0.62216 0.53455
 N2590 N 0.00962 0.63983 0.54149
 C2591 C 0.01868 0.66140 0.56646
 C2592 C 0.01777 0.67671 0.57416
 C2593 C 0.01260 0.58800 0.53715
 C2594 C 0.00997 0.57208 0.53126
 C2595 C 0.51902 0.14250 0.05875
 N2596 N 0.52589 0.12724 0.06845
 N2597 N 0.52425 0.10959 0.06147
 C2598 C 0.51562 0.10672 0.04464
 N2599 N 0.50883 0.12198 0.03489
 N2600 N 0.51047 0.13963 0.04188
 C2601 C 0.51900 0.16108 0.06714
 C2602 C 0.51810 0.17642 0.07478
 C2603 C 0.51285 0.08776 0.03764
 C2604 C 0.51021 0.07188 0.03165
 C2605 C -0.02001 0.14661 0.94385
 N2606 N -0.00998 0.14316 0.95980
 N2607 N -0.00857 0.12540 0.96652
 C2608 C -0.01707 0.11060 0.95741
 N2609 N -0.02718 0.11405 0.94152
 N2610 N -0.02859 0.13182 0.93480
 C2611 C -0.01961 0.16517 0.93544
 C2612 C -0.01838 0.18038 0.92762
 C2613 C -0.01445 0.09144 0.96393
 C2614 C -0.01187 0.07539 0.96946
 C2615 C 0.47983 0.64605 0.44361
 N2616 N 0.49004 0.64270 0.45947
 N2617 N 0.49156 0.62497 0.46625
 C2618 C 0.48300 0.61011 0.45731
 N2619 N 0.47270 0.61346 0.44151
 N2620 N 0.47118 0.63120 0.43473
 C2621 C 0.48009 0.66457 0.43512
 C2622 C 0.48122 0.67975 0.42724
 C2623 C 0.48571 0.59099 0.46389
 C2624 C 0.48835 0.57496 0.46946
 C2625 C 0.51678 0.85783 0.44094
 N2626 N 0.52222 0.87286 0.43006
 N2627 N 0.52150 0.89066 0.43684
 C2628 C 0.51522 0.89390 0.45467
 N2629 N 0.50988 0.87886 0.46560
 N2630 N 0.51060 0.86106 0.45881
 C2631 C 0.51525 0.83916 0.43288
 C2632 C 0.51287 0.82387 0.42548
 C2633 C 0.51299 0.91301 0.46148
 C2634 C 0.51061 0.92898 0.46738
 C2635 C 0.01709 0.35868 0.94141
 N2636 N 0.02245 0.37370 0.93046
 N2637 N 0.02165 0.39152 0.93717
 C2638 C 0.01539 0.39480 0.95500
 N2639 N 0.01014 0.37979 0.96599
 N2640 N 0.01093 0.36197 0.95927
 C2641 C 0.01562 0.33998 0.93342
 C2642 C 0.01328 0.32466 0.92608
 C2643 C 0.01310 0.41394 0.96174
 C2644 C 0.01070 0.42991 0.96762
 C2645 C 0.48273 0.35436 0.05695
 N2646 N 0.49040 0.35782 0.03970
 N2647 N 0.49097 0.37562 0.03294
 C2648 C 0.48400 0.39044 0.04329
 N2649 N 0.47623 0.38697 0.06049
 N2650 N 0.47565 0.36917 0.06725
 C2651 C 0.48448 0.33583 0.06524
 C2652 C 0.48705 0.32071 0.07290
 C2653 C 0.48618 0.40964 0.03672
 C2654 C 0.48858 0.42569 0.03110
 C2655 C -0.01834 0.85452 0.55736
 N2656 N -0.01102 0.85787 0.53994
 N2657 N -0.01033 0.87566 0.53317
 C2658 C -0.01684 0.89058 0.54367
 N2659 N -0.02427 0.88722 0.56104
 N2660 N -0.02497 0.86943 0.56781
 C2661 C -0.01662 0.83598 0.56563
 C2662 C -0.01402 0.82084 0.57324
 C2663 C -0.01451 0.90975 0.53706
 C2664 C -0.01199 0.92577 0.53139
 C2665 C 0.26162 0.29862 0.10308
 N2666 N 0.24864 0.28527 0.10865
 N2667 N 0.25035 0.27660 0.12530
 C2668 C 0.26516 0.28091 0.13688
 N2669 N 0.27819 0.29420 0.13127
 N2670 N 0.27648 0.30288 0.11461
 C2671 C 0.25901 0.30900 0.08577
 C2672 C 0.25668 0.31810 0.07148
 C2673 C 0.26561 0.27341 0.15575
 C2674 C 0.26504 0.26826 0.17199
 C2675 C 0.76209 0.79858 0.60339
 N2676 N 0.74921 0.78515 0.60902
 N2677 N 0.75101 0.77656 0.62571
 C2678 C 0.76579 0.78103 0.63726
 N2679 N 0.77871 0.79440 0.63159
 N2680 N 0.77692 0.80299 0.61490
 C2681 C 0.75939 0.80887 0.58604
 C2682 C 0.75699 0.81789 0.57171
 C2683 C 0.76632 0.77359 0.65615
 C2684 C 0.76580 0.76848 0.67240
 C2685 C 0.23731 0.70090 0.60327
 N2686 N 0.22321 0.69607 0.61563
 N2687 N 0.22215 0.70446 0.63251
 C2688 C 0.23511 0.71802 0.63754
 N2689 N 0.24916 0.72290 0.62514
 N2690 N 0.25022 0.71450 0.60827
 C2691 C 0.23927 0.69083 0.58565
 C2692 C 0.24112 0.68195 0.57112
 C2693 C 0.23533 0.72541 0.65648
 C2694 C 0.23643 0.73061 0.67268
 C2695 C 0.73772 0.20026 0.10363
 N2696 N 0.72360 0.19545 0.11598
 N2697 N 0.72253 0.20385 0.13285
 C2698 C 0.73550 0.21740 0.13789
 N2699 N 0.74957 0.22226 0.12551
 N2700 N 0.75064 0.21386 0.10863
 C2701 C 0.73970 0.19018 0.08602
 C2702 C 0.74155 0.18129 0.07149
 C2703 C 0.73570 0.22480 0.15682
 C2704 C 0.73679 0.23000 0.17303
 C2705 C 0.76319 0.19988 0.89594
 N2706 N 0.77694 0.19420 0.88352
 N2707 N 0.77846 0.20256 0.86667
 C2708 C 0.76636 0.21694 0.86174
 N2709 N 0.75267 0.22266 0.87419
 N2710 N 0.75114 0.21430 0.89104
 C2711 C 0.76069 0.18994 0.91355
 C2712 C 0.75840 0.18124 0.92811
 C2713 C 0.76652 0.22435 0.84282
 C2714 C 0.76564 0.22957 0.82662
 C2715 C 0.26284 0.70068 0.39559
 N2716 N 0.27648 0.69493 0.38310
 N2717 N 0.27800 0.70332 0.36627
 C2718 C 0.26598 0.71779 0.36142
 N2719 N 0.25238 0.72359 0.37395
 N2720 N 0.25086 0.71520 0.39078
 C2721 C 0.26034 0.69071 0.41319
 C2722 C 0.25804 0.68198 0.42774
 C2723 C 0.26610 0.72525 0.34251
 C2724 C 0.26518 0.73051 0.32633
 C2725 C 0.73771 0.79732 0.39756
 N2726 N 0.72279 0.80104 0.38592
 N2727 N 0.72158 0.79237 0.36920
 C2728 C 0.73520 0.77964 0.36362
 N2729 N 0.75007 0.77587 0.37530
 N2730 N 0.75129 0.78453 0.39202
 C2731 C 0.73974 0.80771 0.41497
 C2732 C 0.74160 0.81681 0.42934
 C2733 C 0.73516 0.77212 0.34473
 C2734 C 0.73599 0.76695 0.32850
 C2735 C 0.23747 0.29781 0.89751
 N2736 N 0.22260 0.30158 0.88582
 N2737 N 0.22140 0.29290 0.86911
 C2738 C 0.23498 0.28009 0.86360
 N2739 N 0.24980 0.27626 0.87532
 N2740 N 0.25100 0.28495 0.89203
 C2741 C 0.23950 0.30823 0.91490
 C2742 C 0.24138 0.31735 0.92925
 C2743 C 0.23498 0.27256 0.84471
 C2744 C 0.23585 0.26739 0.82848
 C2745 C 0.81959 0.39161 0.75809
 N2746 N 0.82874 0.37630 0.76572
 N2747 N 0.82008 0.35927 0.76681
 C2748 C 0.80195 0.35700 0.76035
 N2749 N 0.79278 0.37232 0.75276
 N2750 N 0.80144 0.38935 0.75167
 C2751 C 0.82925 0.40980 0.75631
 C2752 C 0.83770 0.42488 0.75474
 C2753 C 0.79304 0.33834 0.76037
 C2754 C 0.78573 0.32263 0.75953
 C2755 C 0.31929 0.89253 0.25750
 N2756 N 0.32856 0.87719 0.26494
 N2757 N 0.31991 0.86017 0.26611
 C2758 C 0.30167 0.85793 0.25995
 N2759 N 0.29238 0.87328 0.25254
 N2760 N 0.30104 0.89030 0.25137
 C2761 C 0.32894 0.91073 0.25562
 C2762 C 0.33739 0.92580 0.25397
 C2763 C 0.29276 0.83927 0.26003
 C2764 C 0.28542 0.82357 0.25924
 C2765 C 0.18149 0.89198 0.74244
 N2766 N 0.19971 0.88981 0.74869
 N2767 N 0.20850 0.87284 0.74740
 C2768 C 0.19938 0.85752 0.73975
 N2769 N 0.18118 0.85971 0.73346
 N2770 N 0.17239 0.87667 0.73475
 C2771 C 0.17170 0.91009 0.74444
 C2772 C 0.16316 0.92510 0.74617
 C2773 C 0.20840 0.83891 0.73957
 C2774 C 0.21579 0.82324 0.74030
 C2775 C 0.68174 0.39137 0.24263
 N2776 N 0.69995 0.38920 0.24891
 N2777 N 0.70874 0.37224 0.24764
 C2778 C 0.69963 0.35691 0.24000
 N2779 N 0.68144 0.35909 0.23369
 N2780 N 0.67265 0.37605 0.23496
 C2781 C 0.67194 0.40947 0.24461
 C2782 C 0.66340 0.42448 0.24633
 C2783 C 0.70866 0.33830 0.23985
 C2784 C 0.71605 0.32263 0.24060
 C2785 C 0.67991 0.60648 0.25762
 N2786 N 0.67099 0.62148 0.26619
 N2787 N 0.67967 0.63847 0.26752
 C2788 C 0.69758 0.64099 0.26042
 N2789 N 0.70651 0.62598 0.25188
 N2790 N 0.69784 0.60899 0.25054
 C2791 C 0.67029 0.58828 0.25581
 C2792 C 0.66189 0.57318 0.25446
 C2793 C 0.70645 0.65965 0.26073
 C2794 C 0.71370 0.67539 0.26009
 C2795 C 0.17980 0.10706 0.75743
 N2796 N 0.17094 0.12206 0.76605
 N2797 N 0.17965 0.13904 0.76738
 C2798 C 0.19755 0.14154 0.76021
 N2799 N 0.20642 0.12652 0.75162
 N2800 N 0.19771 0.10954 0.75029
 C2801 C 0.17015 0.08888 0.75563
 C2802 C 0.16172 0.07379 0.75430
 C2803 C 0.20646 0.16018 0.76053
 C2804 C 0.21375 0.17590 0.75992
 C2805 C 0.31990 0.10711 0.24235
 N2806 N 0.30197 0.10979 0.24939
 N2807 N 0.29348 0.12690 0.24816
 C2808 C 0.30259 0.14187 0.23979
 N2809 N 0.32051 0.13917 0.23273
 N2810 N 0.32900 0.12207 0.23396
 C2811 C 0.32932 0.08876 0.24404
 C2812 C 0.33755 0.07354 0.24531
 C2813 C 0.29388 0.16064 0.23956
 C2814 C 0.28673 0.17645 0.24024
 C2815 C 0.82118 0.60756 0.74300
 N2816 N 0.80320 0.61018 0.74994
 N2817 N 0.79465 0.62725 0.74867
 C2818 C 0.80375 0.64226 0.74034
 N2819 N 0.82171 0.63963 0.73338
 N2820 N 0.83027 0.62256 0.73465
 C2821 C 0.83067 0.58926 0.74474
 C2822 C 0.83894 0.57406 0.74605
 C2823 C 0.79496 0.66099 0.74007
 C2824 C 0.78776 0.67677 0.74073
 C2825 C 0.89195 0.76868 0.18929
 N2826 N 0.88913 0.76222 0.20710
 N2827 N 0.87146 0.76073 0.21409
 C2828 C 0.85614 0.76557 0.20343
 N2829 N 0.85896 0.77210 0.18565
 N2830 N 0.87663 0.77359 0.17866
 C2831 C 0.91068 0.76851 0.18117
 C2832 C 0.92620 0.76753 0.17385
 C2833 C 0.83720 0.76290 0.21058
 C2834 C 0.82138 0.76031 0.21676
 C2835 C 0.39242 0.26927 0.69005
 N2836 N 0.38950 0.26241 0.70770
 N2837 N 0.37179 0.26090 0.71461
 C2838 C 0.35654 0.26614 0.70404
 N2839 N 0.35946 0.27309 0.68642
 N2840 N 0.37717 0.27459 0.67951
 C2841 C 0.41115 0.26906 0.68195
 C2842 C 0.42665 0.26801 0.67461
 C2843 C 0.33756 0.26345 0.71107
 C2844 C 0.32170 0.26084 0.71715
 C2845 C 0.39671 0.73175 0.80542
 N2846 N 0.38210 0.72240 0.81410
 N2847 N 0.36434 0.72376 0.80748
 C2848 C 0.36070 0.73460 0.79206
 N2849 N 0.37532 0.74387 0.78332
 N2850 N 0.39308 0.74251 0.78995
 C2851 C 0.41523 0.73206 0.81378
 C2852 C 0.43040 0.73317 0.82159
 C2853 C 0.34154 0.73706 0.78563
 C2854 C 0.32548 0.73947 0.78016
 C2855 C 0.89686 0.23150 0.30629
 N2856 N 0.88224 0.22203 0.31481
 N2857 N 0.86451 0.22337 0.30808
 C2858 C 0.86094 0.23429 0.29270
 N2859 N 0.87557 0.24367 0.28412
 N2860 N 0.89329 0.24234 0.29085
 C2861 C 0.91534 0.23181 0.31474
 C2862 C 0.93048 0.23289 0.32260
 C2863 C 0.84181 0.23670 0.28617
 C2864 C 0.82577 0.23906 0.28062
 C2865 C 0.10803 0.26985 0.30922
 N2866 N 0.12312 0.27473 0.32018
 N2867 N 0.14090 0.27383 0.31336
 C2868 C 0.14408 0.26793 0.29541
 N2869 N 0.12899 0.26316 0.28440
 N2870 N 0.11121 0.26406 0.29123
 C2871 C 0.08939 0.26822 0.31734
 C2872 C 0.07413 0.26561 0.32478
 C2873 C 0.16315 0.26530 0.28860
 C2874 C 0.17908 0.26255 0.28272
 C2875 C 0.60853 0.76988 0.80882
 N2876 N 0.62349 0.77454 0.82004
 N2877 N 0.64136 0.77366 0.81343
 C2878 C 0.64474 0.76799 0.79545
 N2879 N 0.62978 0.76345 0.78418
 N2880 N 0.61191 0.76434 0.79080
 C2881 C 0.58977 0.76826 0.81668
 C2882 C 0.57441 0.76567 0.82392
 C2883 C 0.66389 0.76539 0.78883
 C2884 C 0.67985 0.76267 0.78305
 C2885 C 0.60432 0.23215 0.69588
 N2886 N 0.60815 0.24099 0.71246
 N2887 N 0.62603 0.24170 0.71888
 C2888 C 0.64056 0.23369 0.70884
 N2889 N 0.63671 0.22474 0.69233
 N2890 N 0.61883 0.22403 0.68591
 C2891 C 0.58579 0.23385 0.68769
 C2892 C 0.57075 0.23642 0.67997
 C2893 C 0.65986 0.23596 0.71492
 C2894 C 0.67601 0.23840 0.72012
 C2895 C 0.10310 0.73420 0.19677
 N2896 N 0.10720 0.74334 0.21312
 N2897 N 0.12515 0.74398 0.21935
 C2898 C 0.13949 0.73560 0.20934
 N2899 N 0.13538 0.72635 0.19305
 N2900 N 0.11743 0.72571 0.18683
 C2901 C 0.08449 0.73587 0.18875
 C2902 C 0.06938 0.73837 0.18114
 C2903 C 0.15887 0.73773 0.21523
 C2904 C 0.17508 0.74004 0.22030
   
