data_POSCAR
  _audit_creation_date              2014-09-24
  _audit_creation_method            'ToBaCCo'
  _symmetry_space_group_name_H-M    'P1'
  _symmetry_Int_Tables_number       1
  _symmetry_cell_setting            triclinic
  loop_
  _symmetry_equiv_pos_as_xyz
 x,y,z
_cell_length_a 59.2537
_cell_length_b 59.4353
_cell_length_c 59.1572
_cell_angle_alpha 89.355700
_cell_angle_beta 89.362700
_cell_angle_gamma 89.509000
loop_
  _atom_site_label
  _atom_site_type_symbol
  _atom_site_fract_x
  _atom_site_fract_y
  _atom_site_fract_z
C1 C 0.11474 -0.00022 0.22693
 C2 C 0.12936 0.02077 0.22801
 C3 C 0.14266 0.02138 0.24658
 C4 C 0.14027 0.00086 0.26250
 C5 C 0.13126 -0.02007 0.22855
 C6 C 0.14457 -0.01954 0.24717
 C7 C 0.10138 -0.00066 0.24928
 C8 C 0.11482 -0.00011 0.26788
 H9 H 0.12853 0.03445 0.21569
 H10 H 0.15123 0.00135 0.27760
 H11 H 0.13156 -0.03394 0.21672
 H12 H 0.08309 -0.00148 0.25032
 C13 C 0.38756 -0.00127 0.73239
 C14 C 0.37139 -0.02116 0.73393
 C15 C 0.35788 -0.02094 0.75270
 C16 C 0.36175 -0.00067 0.76827
 C17 C 0.37237 0.01968 0.73373
 C18 C 0.35889 0.02008 0.75258
 C19 C 0.40010 -0.00178 0.75337
 C20 C 0.38584 -0.00142 0.77310
 H21 H 0.37138 -0.03478 0.72182
 H22 H 0.35059 -0.00049 0.78351
 H23 H 0.37344 0.03369 0.72181
 H24 H 0.41840 -0.00117 0.75411
 C25 C 0.88531 0.49782 0.22999
 C26 C 0.86944 0.47776 0.23129
 C27 C 0.85592 0.47752 0.25001
 C28 C 0.85939 0.49759 0.26589
 C29 C 0.87002 0.51859 0.23178
 C30 C 0.85655 0.51858 0.25061
 C31 C 0.89846 0.49706 0.25218
 C32 C 0.88483 0.49700 0.27097
 H33 H 0.86962 0.46430 0.21899
 H34 H 0.84824 0.49742 0.28112
 H35 H 0.87119 0.53293 0.22027
 H36 H 0.91675 0.49765 0.25297
 C37 C 0.61486 0.50143 0.72659
 C38 C 0.63004 0.52205 0.72708
 C39 C 0.64374 0.52258 0.74535
 C40 C 0.64117 0.50231 0.76159
 C41 C 0.63091 0.48118 0.72813
 C42 C 0.64463 0.48161 0.74647
 C43 C 0.60197 0.50160 0.74921
 C44 C 0.61580 0.50204 0.76751
 H45 H 0.62919 0.53565 0.71467
 H46 H 0.65246 0.50272 0.77645
 H47 H 0.63059 0.46717 0.71649
 H48 H 0.58368 0.50113 0.75064
 C49 C 0.22752 0.11333 0.99987
 C50 C 0.22826 0.12820 1.02072
 C51 C 0.24668 0.14166 1.02132
 C52 C 0.26283 0.13914 1.00094
 C53 C 0.22924 0.12956 0.97967
 C54 C 0.24774 0.14302 0.98023
 C55 C 0.24992 0.10023 0.99987
 C56 C 0.26837 0.11380 1.00041
 H57 H 0.21572 0.12756 1.03427
 H58 H 0.27783 0.15021 1.00143
 H59 H 0.21752 0.12964 0.96567
 H60 H 0.25109 0.08199 0.99921
 C61 C 0.73136 0.38475 0.99984
 C62 C 0.73246 0.36960 0.98073
 C63 C 0.75214 0.35550 0.98066
 C64 C 0.76708 0.35917 0.99987
 C65 C 0.73290 0.37045 1.01990
 C66 C 0.75265 0.35635 1.02001
 C67 C 0.75232 0.39748 0.99897
 C68 C 0.77209 0.38328 0.99900
 H69 H 0.72050 0.36999 0.96689
 H70 H 0.78231 0.34805 0.99983
 H71 H 0.72153 0.37179 1.03441
 H72 H 0.75308 0.41575 0.99933
 C73 C 0.23181 0.88934 0.49827
 C74 C 0.23382 0.87368 0.47806
 C75 C 0.25267 0.86048 0.47820
 C76 C 0.26800 0.86404 0.49875
 C77 C 0.23334 0.87394 0.51910
 C78 C 0.25230 0.86079 0.51947
 C79 C 0.25382 0.90280 0.49810
 C80 C 0.27277 0.88949 0.49841
 H81 H 0.22173 0.87359 0.46437
 H82 H 0.28334 0.85316 0.49889
 H83 H 0.22143 0.87470 0.53319
 H84 H 0.25436 0.92105 0.49869
 C85 C 0.72587 0.61341 0.50172
 C86 C 0.72631 0.62849 0.52244
 C87 C 0.74474 0.64192 0.52317
 C88 C 0.76117 0.63918 0.50307
 C89 C 0.72791 0.62943 0.48139
 C90 C 0.74641 0.64287 0.48210
 C91 C 0.74824 0.60027 0.50221
 C92 C 0.76669 0.61384 0.50290
 H93 H 0.71366 0.62789 0.53589
 H94 H 0.77618 0.65025 0.50367
 H95 H 0.71639 0.62941 0.46723
 H96 H 0.74940 0.58203 0.50178
 C97 C -0.00149 0.22518 0.11313
 C98 C 0.01885 0.22614 0.12871
 C99 C 0.01912 0.24474 0.14189
 C100 C -0.00110 0.26079 0.13844
 C101 C -0.02214 0.22717 0.12876
 C102 C -0.02196 0.24583 0.14195
 C103 C -0.00097 0.24731 0.09956
 C104 C -0.00079 0.26593 0.11288
 H105 H 0.03253 0.21383 0.12843
 H106 H -0.00091 0.27592 0.14931
 H107 H -0.03619 0.21553 0.12856
 H108 H -0.00098 0.24819 0.08121
 C109 C -0.00204 0.73230 0.38649
 C110 C -0.02099 0.73356 0.37132
 C111 C -0.02096 0.75308 0.35712
 C112 C -0.00186 0.76799 0.36057
 C113 C 0.01906 0.73404 0.37138
 C114 C 0.01925 0.75281 0.35786
 C115 C -0.00263 0.75439 0.39976
 C116 C -0.00247 0.77313 0.38609
 H117 H -0.03470 0.72150 0.37154
 H118 H -0.00182 0.78316 0.34940
 H119 H 0.03335 0.72251 0.37259
 H120 H -0.00198 0.75515 0.41808
 C121 C 0.49844 0.22963 0.88761
 C122 C 0.47865 0.23152 0.87140
 C123 C 0.47902 0.25040 0.85820
 C124 C 0.49932 0.26581 0.86231
 C125 C 0.51960 0.23139 0.87267
 C126 C 0.52014 0.25035 0.85952
 C127 C 0.49780 0.25148 0.90119
 C128 C 0.49831 0.27041 0.88787
 H129 H 0.46496 0.21947 0.87108
 H130 H 0.49963 0.28117 0.85142
 H131 H 0.53370 0.21962 0.87372
 H132 H 0.49794 0.25194 0.91954
 C133 C 0.50213 0.72969 0.61246
 C134 C 0.52301 0.73009 0.62734
 C135 C 0.52381 0.74824 0.64109
 C136 C 0.50355 0.76448 0.63885
 C137 C 0.48204 0.73127 0.62886
 C138 C 0.48275 0.74949 0.64261
 C139 C 0.50225 0.75223 0.59957
 C140 C 0.50297 0.77042 0.61346
 H141 H 0.53647 0.71758 0.62643
 H142 H 0.50420 0.77924 0.65017
 H143 H 0.46791 0.71974 0.62874
 H144 H 0.50146 0.75368 0.58127
 C145 C 0.88623 1.00391 0.77098
 C146 C 0.87095 1.02303 0.76938
 C147 C 0.85669 1.02240 0.75007
 C148 C 0.86021 1.00273 0.73587
 C149 C 0.87125 0.98309 0.77049
 C150 C 0.85765 0.98240 0.75211
 C151 C 0.89936 1.00354 0.74846
 C152 C 0.88565 1.00292 0.73004
 H153 H 0.87136 1.03727 0.78074
 H154 H 0.84902 1.00215 0.72092
 H155 H 0.87207 0.96957 0.78300
 H156 H 0.91767 1.00383 0.74718
 C157 C 0.38675 0.50232 0.27051
 C158 C 0.37041 0.52228 0.26832
 C159 C 0.35697 0.52124 0.24981
 C160 C 0.36096 0.50028 0.23518
 C161 C 0.37189 0.48146 0.27025
 C162 C 0.35845 0.48034 0.25183
 C163 C 0.39996 0.50188 0.24809
 C164 C 0.38640 0.50084 0.22961
 H165 H 0.37030 0.53652 0.27969
 H166 H 0.34990 0.49937 0.22018
 H167 H 0.37255 0.46827 0.28312
 H168 H 0.41824 0.50275 0.24690
 C169 C 0.61378 0.99995 0.26944
 C170 C 0.62833 0.97864 0.26710
 C171 C 0.64147 0.97853 0.24800
 C172 C 0.63898 0.99990 0.23310
 C173 C 0.62936 1.01853 0.26817
 C174 C 0.64316 1.01858 0.24829
 C175 C 0.60014 1.00123 0.24751
 C176 C 0.61341 1.00113 0.22843
 H177 H 0.62711 0.96429 0.27858
 H178 H 0.64984 0.99990 0.21765
 H179 H 0.62954 1.03208 0.28038
 H180 H 0.58182 1.00100 0.24708
 C181 C 0.11329 0.50050 0.76803
 C182 C 0.12836 0.47957 0.76603
 C183 C 0.14162 0.47949 0.74705
 C184 C 0.13882 0.50054 0.73185
 C185 C 0.12936 0.52039 0.76659
 C186 C 0.14269 0.52051 0.74773
 C187 C 0.09991 0.50143 0.74599
 C188 C 0.11333 0.50138 0.72705
 H189 H 0.12724 0.46525 0.77757
 H190 H 0.14980 0.50062 0.71650
 H191 H 0.12959 0.53373 0.77901
 H192 H 0.08160 0.50098 0.74540
 C193 C 0.77077 0.88810 0.00370
 C194 C 0.76821 0.87231 0.02416
 C195 C 0.74971 0.85888 0.02314
 C196 C 0.73547 0.86236 0.00177
 C197 C 0.77080 0.87277 -0.01685
 C198 C 0.75238 0.85935 -0.01788
 C199 C 0.74845 0.90126 0.00251
 C200 C 0.73000 0.88771 0.00152
 H201 H 0.77949 0.87233 0.03852
 H202 H 0.72046 0.85132 0.00093
 H203 H 0.78379 0.87318 -0.02998
 H204 H 0.74731 0.91951 0.00273
 C205 C 0.26900 0.38879 0.50225
 C206 C 0.26704 0.37235 0.52225
 C207 C 0.24884 0.35853 0.52105
 C208 C 0.23428 0.36232 0.49993
 C209 C 0.26915 0.37410 0.48123
 C210 C 0.25104 0.36029 0.47999
 C211 C 0.24637 0.40146 0.50173
 C212 C 0.22823 0.38754 0.50055
 H213 H 0.27836 0.37236 0.53658
 H214 H 0.21952 0.35097 0.49891
 H215 H 0.28204 0.37510 0.46805
 H216 H 0.24482 0.41965 0.50264
 C217 C 0.26991 0.60909 0.00055
 C218 C 0.26816 0.62440 -0.02033
 C219 C 0.24925 0.63763 -0.02049
 C220 C 0.23382 0.63454 0.00047
 C221 C 0.26826 0.62484 0.02071
 C222 C 0.24946 0.63812 0.02079
 C223 C 0.24785 0.59573 0.00108
 C224 C 0.22895 0.60910 0.00097
 H225 H 0.27988 0.62354 -0.03457
 H226 H 0.21852 0.64548 0.00050
 H227 H 0.28054 0.62492 0.03423
 H228 H 0.24723 0.57748 0.00051
 C229 C 0.77025 0.11372 0.50095
 C230 C 0.76835 0.12816 0.48102
 C231 C 0.74854 0.14218 0.48132
 C232 C 0.73443 0.13917 0.50165
 C233 C 0.76940 0.12872 0.52018
 C234 C 0.74968 0.14276 0.52064
 C235 C 0.74935 0.10091 0.50205
 C236 C 0.72953 0.11503 0.50243
 H237 H 0.77948 0.12694 0.46631
 H238 H 0.71916 0.15022 0.50203
 H239 H 0.78173 0.12849 0.53369
 H240 H 0.74865 0.08265 0.50139
 C241 C 1.00407 0.76915 0.88888
 C242 C 1.02427 0.76700 0.87268
 C243 C 1.02331 0.74861 0.85915
 C244 C 1.00220 0.73406 0.86293
 C245 C 0.98331 0.76894 0.87382
 C246 C 0.98228 0.75064 0.86030
 C247 C 1.00342 0.74679 0.90205
 C248 C 1.00247 0.72845 0.88840
 H249 H 1.03859 0.77831 0.87271
 H250 H 1.00136 0.71916 0.85181
 H251 H 0.97010 0.78173 0.87442
 H252 H 1.00413 0.74555 0.92037
 C253 C 0.49951 0.27341 0.38955
 C254 C 0.51958 0.27144 0.37317
 C255 C 0.51858 0.25312 0.35954
 C256 C 0.49756 0.23847 0.36343
 C257 C 0.47862 0.27321 0.37467
 C258 C 0.47756 0.25499 0.36105
 C259 C 0.49905 0.25099 0.40259
 C260 C 0.49806 0.23271 0.38886
 H261 H 0.53383 0.28283 0.37312
 H262 H 0.49668 0.22362 0.35223
 H263 H 0.46539 0.28597 0.37541
 H264 H 0.49993 0.24965 0.42089
 C265 C 1.00066 0.27041 0.61042
 C266 C 0.97961 0.26819 0.62547
 C267 C 0.97960 0.24926 0.63870
 C268 C 1.00079 0.23430 0.63586
 C269 C 1.02055 0.26906 0.62655
 C270 C 1.02071 0.25024 0.63983
 C271 C 1.00178 0.24853 0.59693
 C272 C 1.00179 0.22963 0.61031
 H273 H 0.96525 0.27965 0.62448
 H274 H 1.00090 0.21898 0.64680
 H275 H 1.03391 0.28148 0.62679
 H276 H 1.00155 0.24799 0.57858
 C277 C 0.50029 0.76771 0.11180
 C278 C 0.47948 0.76550 0.12717
 C279 C 0.47969 0.74663 0.14048
 C280 C 0.50089 0.73172 0.13742
 C281 C 0.52043 0.76651 0.12764
 C282 C 0.52084 0.74775 0.14101
 C283 C 0.50127 0.74575 0.09841
 C284 C 0.50152 0.72692 0.11188
 H285 H 0.46501 0.77682 0.12622
 H286 H 0.50122 0.71646 0.14843
 H287 H 0.53370 0.77903 0.12770
 H288 H 0.50063 0.74513 0.08008
 O289 O -0.01034 0.98418 0.93499
 O290 O 0.02674 0.99502 0.93411
 O291 O -0.01264 0.93444 0.98902
 O292 O -0.00637 0.93269 1.02577
 O293 O -0.06361 0.98803 0.98564
 O294 O -0.06359 1.02647 0.99501
 O295 O 0.04403 0.99388 1.04840
 O296 O 0.04674 0.95887 1.03293
 O297 O 0.05043 1.04073 0.99504
 O298 O 0.03226 1.04662 0.95885
 O299 O -0.00305 1.04792 1.04175
 O300 O -0.03884 1.02991 1.04812
 O301 O 0.01276 1.01213 1.06188
 O302 O -0.02818 1.00139 1.06257
 O303 O 0.01476 1.06134 1.01018
 O304 O 0.00377 1.06129 0.96949
 O305 O 0.06365 1.00962 1.01356
 O306 O 0.06301 0.97120 0.99764
 O307 O -0.04137 1.00306 0.94823
 O308 O -0.04639 1.03866 0.96685
 O309 O -0.05056 0.95663 1.00378
 O310 O -0.03127 0.95331 1.04067
 O311 O 0.00463 0.94761 0.95700
 O312 O 0.04178 0.96625 0.95464
 Zr313 Zr 0.01053 0.98181 0.96341
 O314 O 0.03181 1.00228 0.98245
 Zr315 Zr -0.01622 0.96295 1.00944
 O316 O 0.00460 0.98194 1.03038
 Zr317 Zr -0.03508 1.00862 0.98269
 O318 O -0.01575 1.02974 1.00304
 Zr319 Zr 0.03595 0.98776 1.01463
 O320 O 0.01626 0.96604 0.99494
 Zr321 Zr 0.01647 1.03361 0.98843
 O322 O -0.00369 1.01423 0.96688
 Zr323 Zr -0.00966 1.01412 1.03448
 O324 O -0.03178 0.99434 1.01522
 O325 O -0.02141 0.97676 0.97750
 O326 O 0.02220 1.01970 1.02037
 C327 C -0.02968 0.99371 0.93244
 C328 C -0.00389 0.93184 0.96928
 C329 C -0.06629 0.96860 0.99486
 C330 C 0.03255 1.00347 1.06414
 C331 C 0.06605 1.02929 1.00481
 C332 C 0.00631 1.06363 1.03007
 H333 H 0.04647 1.00379 0.97445
 H334 H -0.02377 1.04428 1.00469
 H335 H -0.03101 0.96719 0.96802
 H336 H 0.00650 0.97387 1.04494
 H337 H 0.04322 0.94571 1.02351
 H338 H 0.00782 0.93587 1.03371
 H339 H -0.00999 1.06689 0.97727
 H340 H -0.03435 1.04328 0.95607
 H341 H 0.07648 0.97171 1.00743
 H342 H 0.03980 0.95736 0.94071
 H343 H -0.04435 1.04089 1.03674
 H344 H -0.06592 1.02143 1.01086
 H345 H 0.02195 1.01097 0.93272
 H346 H 0.04378 1.03554 0.95387
 H347 H -0.04338 0.96442 1.04393
 H348 H -0.02022 0.98781 1.06827
 O349 O 0.48653 0.48707 0.43670
 O350 O 0.52375 0.49748 0.43586
 O351 O 0.48335 0.43805 0.49131
 O352 O 0.48934 0.43669 0.52815
 O353 O 0.43307 0.49220 0.48691
 O354 O 0.43354 0.53077 0.49595
 O355 O 0.54051 0.49738 0.55017
 O356 O 0.54279 0.46218 0.53515
 O357 O 0.54781 0.54350 0.49626
 O358 O 0.52976 0.54915 0.45985
 O359 O 0.49430 0.55207 0.54266
 O360 O 0.45829 0.53476 0.54918
 O361 O 0.50945 0.51620 0.56335
 O362 O 0.46825 0.50609 0.56386
 O363 O 0.51243 0.56480 0.51098
 O364 O 0.50159 0.56450 0.47036
 O365 O 0.56049 0.51245 0.51526
 O366 O 0.55938 0.47386 0.49980
 O367 O 0.45570 0.50656 0.44949
 O368 O 0.45104 0.54246 0.46771
 O369 O 0.44564 0.46087 0.50549
 O370 O 0.46462 0.45785 0.54260
 O371 O 0.50088 0.45064 0.45920
 O372 O 0.53828 0.46871 0.45678
 Zr373 Zr 0.50723 0.48482 0.46522
 O374 O 0.52871 0.50519 0.48410
 Zr375 Zr 0.48000 0.46687 0.51135
 O376 O 0.50099 0.48583 0.53215
 Zr377 Zr 0.46187 0.51245 0.48394
 O378 O 0.48143 0.53355 0.50412
 Zr379 Zr 0.53249 0.49100 0.51646
 O380 O 0.51258 0.46932 0.49696
 Zr381 Zr 0.51376 0.53680 0.48961
 O382 O 0.49341 0.51745 0.46822
 Zr383 Zr 0.48719 0.51826 0.53579
 O384 O 0.46485 0.49854 0.51667
 O385 O 0.47516 0.48036 0.47922
 O386 O 0.51918 0.52320 0.52174
 C387 C 0.46734 0.49682 0.43391
 C388 C 0.49212 0.43513 0.47163
 C389 C 0.43012 0.47288 0.49627
 C390 C 0.52912 0.50727 0.56577
 C391 C 0.56321 0.53196 0.50625
 C392 C 0.50397 0.56747 0.53081
 H393 H 0.54343 0.50640 0.47614
 H394 H 0.47362 0.54822 0.50556
 H395 H 0.46550 0.47080 0.46979
 H396 H 0.50271 0.47790 0.54682
 H397 H 0.53911 0.44896 0.52588
 H398 H 0.50353 0.43978 0.53613
 H399 H 0.48780 0.57029 0.47794
 H400 H 0.46320 0.54680 0.45696
 H401 H 0.57282 0.47430 0.50963
 H402 H 0.53625 0.45971 0.44293
 H403 H 0.45279 0.54544 0.53750
 H404 H 0.43105 0.52588 0.51183
 H405 H 0.51912 0.51344 0.43420
 H406 H 0.54128 0.53794 0.45517
 H407 H 0.45259 0.46912 0.54560
 H408 H 0.47602 0.49251 0.56982
 O409 O 0.51186 0.06566 0.48687
 O410 O 0.49935 0.06702 0.52408
 O411 O 0.56521 0.01626 0.48776
 O412 O 0.56955 -0.01991 0.49682
 O413 O 0.51261 0.01328 0.43681
 O414 O 0.47477 0.00108 0.43743
 O415 O 0.50841 -0.04564 0.54831
 O416 O 0.54253 -0.02773 0.54977
 O417 O 0.45784 0.00374 0.55149
 O418 O 0.44959 0.03844 0.53147
 O419 O 0.45522 -0.04490 0.50028
 O420 O 0.47517 -0.05084 0.46480
 O421 O 0.49178 -0.06145 0.51783
 O422 O 0.50398 -0.06311 0.47709
 O423 O 0.43911 -0.01405 0.51642
 O424 O 0.43666 0.02616 0.50318
 O425 O 0.49010 -0.01159 0.56574
 O426 O 0.52734 0.00703 0.56412
 O427 O 0.49482 0.05001 0.45652
 O428 O 0.46025 0.02898 0.45309
 O429 O 0.54508 -0.00175 0.45088
 O430 O 0.55075 -0.03731 0.47227
 O431 O 0.54923 0.04746 0.50344
 O432 O 0.52948 0.04953 0.54044
 Zr433 Zr 0.51537 0.03849 0.50969
 O434 O 0.49581 0.01866 0.53204
 Zr435 Zr 0.53836 -0.00664 0.48562
 O436 O 0.52033 -0.02825 0.50759
 Zr437 Zr 0.49113 0.01569 0.46517
 O438 O 0.47102 -0.00550 0.48566
 Zr439 Zr 0.51260 -0.01201 0.53805
 O440 O 0.53335 0.00862 0.51728
 Zr441 Zr 0.46526 0.00976 0.51707
 O442 O 0.48355 0.03202 0.49567
 Zr443 Zr 0.48878 -0.03530 0.49358
 O444 O 0.50775 -0.01536 0.47040
 O445 O 0.52225 0.02373 0.47859
 O446 O 0.48141 -0.02063 0.52463
 C447 C 0.50302 0.06675 0.46715
 C448 C 0.56611 0.03639 0.49536
 C449 C 0.53282 0.00568 0.43464
 C450 C 0.49992 -0.06233 0.53788
 C451 C 0.46970 -0.00449 0.56768
 C452 C 0.43840 -0.03423 0.50897
 H453 H 0.49337 0.02697 0.54627
 H454 H 0.45681 -0.00852 0.47769
 H455 H 0.53139 0.03347 0.46844
 H456 H 0.52935 -0.04205 0.51040
 H457 H 0.55509 -0.01748 0.54579
 H458 H 0.56638 -0.02838 0.51096
 H459 H 0.43197 0.01756 0.48983
 H460 H 0.45484 0.03997 0.46442
 H461 H 0.52735 -0.00230 0.57813
 H462 H 0.53717 0.06409 0.53767
 H463 H 0.46310 -0.04086 0.45892
 H464 H 0.48113 -0.01430 0.43592
 H465 H 0.48361 0.06724 0.51864
 H466 H 0.46037 0.04505 0.54211
 H467 H 0.53991 -0.04206 0.46068
 H468 H 0.51781 -0.06730 0.48541
 O469 O 0.00623 0.44855 1.04523
 O470 O 0.04025 0.46724 1.04776
 O471 O -0.04388 0.50100 1.04936
 O472 O -0.05376 0.53191 1.03049
 O473 O -0.04735 0.45052 0.99641
 O474 O -0.02761 0.44555 0.96171
 O475 O 0.01136 0.56052 0.98531
 O476 O -0.00261 0.56209 1.02160
 O477 O 0.06273 0.51183 0.98434
 O478 O 0.06601 0.47270 0.99611
 O479 O 0.01148 0.50999 0.93517
 O480 O -0.02704 0.49809 0.93456
 O481 O -0.00519 0.54524 0.95452
 O482 O -0.04168 0.52386 0.95074
 O483 O 0.04373 0.49451 0.94921
 O484 O 0.05056 0.45837 0.97022
 O485 O 0.04696 0.54282 1.00060
 O486 O 0.02885 0.54289 1.03867
 O487 O -0.00949 0.43291 1.01415
 O488 O 0.00220 0.43212 0.97477
 O489 O -0.06331 0.48126 1.01297
 O490 O -0.06460 0.52084 0.99866
 O491 O -0.01203 0.48482 1.06365
 O492 O 0.02646 0.50023 1.06184
 Zr493 Zr 0.01017 0.48250 1.03575
 O494 O 0.03078 0.50310 1.01519
 Zr495 Zr -0.03690 0.50479 1.01460
 O496 O -0.01811 0.52695 0.99388
 Zr497 Zr -0.01352 0.45979 0.99089
 O498 O 0.00563 0.47996 0.96846
 Zr499 Zr 0.01353 0.53325 1.00802
 O500 O -0.00651 0.51356 1.03037
 Zr501 Zr 0.03634 0.48826 0.98359
 O502 O 0.01806 0.46618 1.00519
 Zr503 Zr -0.01064 0.51114 0.96312
 O504 O -0.03138 0.48961 0.98305
 O505 O -0.02082 0.47446 1.02184
 O506 O 0.02063 0.51901 0.97661
 C507 C -0.00141 0.43180 1.03422
 C508 C -0.03202 0.49303 1.06566
 C509 C -0.06420 0.46131 1.00490
 C510 C 0.00340 0.56174 0.96524
 C511 C 0.06363 0.53202 0.99176
 C512 C 0.03183 0.50279 0.93311
 H513 H 0.04505 0.50595 1.02314
 H514 H 0.00795 0.47173 0.95419
 H515 H -0.03005 0.46474 1.03194
 H516 H -0.02672 0.54112 0.99173
 H517 H -0.00975 0.55727 1.03606
 H518 H -0.04464 0.54546 1.02735
 H519 H 0.04105 0.45363 0.95752
 H520 H 0.01735 0.43041 0.98149
 H521 H 0.03535 0.55808 1.03639
 H522 H 0.02503 0.49151 1.07618
 H523 H -0.02066 0.48294 0.93177
 H524 H -0.03828 0.45690 0.95555
 H525 H 0.04629 0.45774 1.03541
 H526 H 0.06919 0.47935 1.01098
 H527 H -0.06792 0.51210 0.98496
 H528 H -0.04573 0.53743 0.95948
 O529 O 0.00126 0.55183 0.45551
 O530 O 0.03482 0.53326 0.44880
 O531 O -0.04843 0.49896 0.45294
 O532 O -0.05651 0.46733 0.47153
 O533 O -0.04959 0.54756 0.50770
 O534 O -0.02846 0.55077 0.54139
 O535 O 0.01083 0.43729 0.50935
 O536 O -0.00447 0.43766 0.47400
 O537 O 0.06169 0.48604 0.50941
 O538 O 0.06388 0.52564 0.49818
 O539 O 0.01403 0.48582 0.56199
 O540 O -0.02445 0.49731 0.56651
 O541 O -0.00368 0.45119 0.54226
 O542 O -0.03996 0.47261 0.55032
 O543 O 0.04482 0.50247 0.54601
 O544 O 0.04963 0.53924 0.52562
 O545 O 0.04553 0.45562 0.49332
 O546 O 0.02618 0.45744 0.45616
 O547 O -0.01279 0.56598 0.48853
 O548 O 0.00040 0.56502 0.52696
 O549 O -0.06585 0.51741 0.49122
 O550 O -0.06581 0.47744 0.50439
 O551 O -0.01800 0.51618 0.43675
 O552 O 0.02099 0.50080 0.43482
 Zr553 Zr 0.00593 0.51742 0.46285
 O554 O 0.02814 0.49614 0.48085
 Zr555 Zr -0.03929 0.49403 0.48688
 O556 O -0.01893 0.47122 0.50512
 Zr557 Zr -0.01547 0.53805 0.51061
 O558 O 0.00538 0.51717 0.53056
 Zr559 Zr 0.01186 0.46568 0.48810
 O560 O -0.00980 0.48611 0.46824
 Zr561 Zr 0.03522 0.50969 0.51256
 O562 O 0.01528 0.53245 0.49344
 Zr563 Zr -0.00989 0.48572 0.53592
 O564 O -0.03223 0.50786 0.51859
 O565 O -0.02426 0.52472 0.47963
 O566 O 0.02055 0.47860 0.51949
 C567 C -0.00572 0.56805 0.46802
 C568 C -0.03786 0.50775 0.43602
 C569 C -0.06662 0.53709 0.49992
 C570 C 0.00405 0.43515 0.52991
 C571 C 0.06238 0.46599 0.50159
 C572 C 0.03424 0.49334 0.56271
 H573 H 0.04201 0.49360 0.47174
 H574 H 0.00840 0.52485 0.54493
 H575 H -0.03410 0.53486 0.47063
 H576 H -0.02722 0.45699 0.50731
 H577 H -0.01225 0.44323 0.46027
 H578 H -0.04682 0.45382 0.47319
 H579 H 0.04102 0.54337 0.53941
 H580 H 0.01519 0.56713 0.51933
 H581 H 0.03302 0.44219 0.45739
 H582 H 0.01824 0.50987 0.42092
 H583 H -0.01873 0.51266 0.56901
 H584 H -0.03872 0.53914 0.54764
 H585 H 0.04208 0.54141 0.46124
 H586 H 0.06677 0.51896 0.48317
 H587 H -0.06851 0.48572 0.51861
 H588 H -0.04452 0.45959 0.54120
 O589 O 0.51035 0.93463 0.01086
 O590 O 0.49654 0.93503 -0.02548
 O591 O 0.56247 0.98460 0.00915
 O592 O 0.56548 1.02110 0.00073
 O593 O 0.51313 0.98454 0.06367
 O594 O 0.47494 0.99643 0.06657
 O595 O 0.50121 1.04863 -0.04425
 O596 O 0.53535 1.03110 -0.04966
 O597 O 0.45169 0.99827 -0.04619
 O598 O 0.44581 0.96248 -0.02651
 O599 O 0.45088 1.04512 0.00667
 O600 O 0.47166 1.04940 0.04138
 O601 O 0.48630 1.06279 -0.01164
 O602 O 0.50010 1.06218 0.02834
 O603 O 0.43477 1.01485 -0.00969
 O604 O 0.43346 0.97437 0.00259
 O605 O 0.48244 1.01510 -0.06211
 O606 O 0.52030 0.99698 -0.06435
 O607 O 0.49465 0.94851 0.04327
 O608 O 0.46023 0.96917 0.05091
 O609 O 0.54419 1.00085 0.04777
 O610 O 0.54769 1.03733 0.02761
 O611 O 0.54655 0.95391 -0.00673
 O612 O 0.52549 0.95380 -0.04273
 Zr613 Zr 0.51234 0.96295 -0.01055
 O614 O 0.49104 0.98341 -0.03043
 Zr615 Zr 0.53533 1.00713 0.01390
 O616 O 0.51558 1.02941 -0.00562
 Zr617 Zr 0.48999 0.98325 0.03693
 O618 O 0.46820 1.00503 0.01897
 Zr619 Zr 0.50659 1.01454 -0.03624
 O620 O 0.52906 0.99333 -0.01806
 Zr621 Zr 0.46119 0.99116 -0.01266
 O622 O 0.48122 0.96829 0.00626
 Zr623 Zr 0.48473 1.03535 0.01118
 O624 O 0.50545 1.01471 0.03192
 O625 O 0.52044 0.97628 0.02070
 O626 O 0.47607 1.02207 -0.01997
 C627 C 0.50246 0.93241 0.03104
 C628 C 0.56345 0.96475 0.00087
 C629 C 0.53321 0.99242 0.06460
 C630 C 0.49332 1.06475 -0.03217
 C631 C 0.46225 1.00752 -0.06285
 C632 C 0.43405 1.03482 -0.00169
 H633 H 0.48805 0.97570 -0.04481
 H634 H 0.45432 1.00758 0.02803
 H635 H 0.53024 0.96613 0.02975
 H636 H 0.52411 1.04341 -0.00837
 H637 H 0.54840 1.02092 -0.04703
 H638 H 0.56126 1.03030 -0.01261
 H639 H 0.42922 0.98253 0.01651
 H640 H 0.45402 0.95922 0.03925
 H641 H 0.51908 1.00689 -0.07789
 H642 H 0.53371 0.93925 -0.04124
 H643 H 0.46026 1.03890 0.04761
 H644 H 0.48088 1.01184 0.06817
 H645 H 0.48106 0.93430 -0.01905
 H646 H 0.45557 0.95711 -0.03904
 H647 H 0.53762 1.04129 0.04045
 H648 H 0.51336 1.06705 0.01928
 O649 O 0.55232 0.45517 0.00329
 O650 O 0.53342 0.44913 0.03700
 O651 O 0.49967 0.45195 -0.04662
 O652 O 0.46809 0.47034 -0.05519
 O653 O 0.54862 0.50643 -0.04843
 O654 O 0.55186 0.54021 -0.02773
 O655 O 0.43751 0.50906 0.01159
 O656 O 0.43787 0.47366 -0.00321
 O657 O 0.48613 0.50977 0.06276
 O658 O 0.52577 0.49869 0.06524
 O659 O 0.48637 0.56145 0.01416
 O660 O 0.49812 0.56541 -0.02428
 O661 O 0.45166 0.54156 -0.00346
 O662 O 0.47357 0.54894 -0.03985
 O663 O 0.50278 0.54600 0.04533
 O664 O 0.53956 0.52582 0.05062
 O665 O 0.45566 0.49353 0.04671
 O666 O 0.45745 0.45631 0.02779
 O667 O 0.56677 0.48779 -0.01123
 O668 O 0.56582 0.52628 0.00150
 O669 O 0.51845 0.48980 -0.06461
 O670 O 0.47837 0.50292 -0.06492
 O671 O 0.51663 0.43629 -0.01580
 O672 O 0.50093 0.43497 0.02316
 Zr673 Zr 0.51781 0.46263 0.00775
 O674 O 0.49634 0.48090 0.02959
 Zr675 Zr 0.49477 0.48588 -0.03803
 O676 O 0.47179 0.50435 -0.01802
 Zr677 Zr 0.53885 0.50980 -0.01433
 O678 O 0.51778 0.52999 0.00613
 Zr679 Zr 0.46592 0.48791 0.01306
 O680 O 0.48653 0.46780 -0.00823
 Zr681 Zr 0.51000 0.51256 0.03627
 O682 O 0.53294 0.49320 0.01670
 Zr683 Zr 0.48635 0.53513 -0.00938
 O684 O 0.50871 0.51754 -0.03137
 O685 O 0.52542 0.47885 -0.02272
 O686 O 0.47893 0.51927 0.02134
 C687 C 0.56871 0.46745 -0.00385
 C688 C 0.50834 0.43527 -0.03572
 C689 C 0.53822 0.49845 -0.06543
 C690 C 0.43546 0.52942 0.00444
 C691 C 0.46601 0.50197 0.06351
 C692 C 0.49377 0.56247 0.03442
 H693 H 0.49368 0.47205 0.04361
 H694 H 0.52550 0.54435 0.00896
 H695 H 0.53562 0.46975 -0.03241
 H696 H 0.45757 0.50641 -0.02643
 H697 H 0.44347 0.45991 -0.01080
 H698 H 0.45447 0.47211 -0.04556
 H699 H 0.54384 0.53936 0.04175
 H700 H 0.56784 0.51882 0.01640
 H701 H 0.44212 0.45764 0.03458
 H702 H 0.51004 0.42110 0.02073
 H703 H 0.51357 0.56786 -0.01872
 H704 H 0.54030 0.54633 -0.03812
 H705 H 0.54174 0.46158 0.04400
 H706 H 0.51910 0.48374 0.06827
 H707 H 0.48678 0.51700 -0.06784
 H708 H 0.46042 0.53990 -0.04426
 O709 O -0.06469 0.01160 0.51056
 O710 O -0.06441 -0.02475 0.49702
 O711 O -0.01487 0.01027 0.56285
 O712 O 0.02165 0.00153 0.56603
 O713 O -0.01417 0.06395 0.51284
 O714 O -0.00216 0.06642 0.47461
 O715 O 0.04946 -0.04383 0.50215
 O716 O 0.03163 -0.04882 0.53634
 O717 O -0.00097 -0.04600 0.45245
 O718 O -0.03664 -0.02641 0.44630
 O719 O 0.04640 0.00641 0.45118
 O720 O 0.05079 0.04118 0.47179
 O721 O 0.06392 -0.01157 0.48690
 O722 O 0.06354 0.02828 0.50027
 O723 O 0.01597 -0.00987 0.43516
 O724 O -0.02456 0.00247 0.43374
 O725 O 0.01570 -0.06166 0.48341
 O726 O -0.00261 -0.06347 0.52133
 O727 O -0.05043 0.04367 0.49459
 O728 O -0.02953 0.05074 0.45999
 O729 O 0.00194 0.04839 0.54415
 O730 O 0.03826 0.02816 0.54805
 O731 O -0.04565 -0.00563 0.54700
 O732 O -0.04587 -0.04168 0.52629
 Zr733 Zr -0.03642 -0.00983 0.51279
 O734 O -0.01590 -0.02990 0.49171
 Zr735 Zr 0.00796 0.01453 0.53568
 O736 O 0.03029 -0.00516 0.51612
 Zr737 Zr -0.01562 0.03711 0.48997
 O738 O 0.00623 0.01895 0.46838
 Zr739 Zr 0.01525 -0.03568 0.50737
 O740 O -0.00605 -0.01729 0.52965
 Zr741 Zr -0.00789 -0.01253 0.46164
 O742 O -0.03080 0.00657 0.48147
 Zr743 Zr 0.03652 0.01122 0.48506
 O744 O 0.01583 0.03212 0.50558
 O745 O -0.02286 0.02130 0.52063
 O746 O 0.02302 -0.01981 0.47664
 C747 C -0.06672 0.03166 0.50250
 C748 C -0.03486 0.00211 0.56387
 C749 C -0.00632 0.06507 0.53293
 C750 C 0.06575 -0.03194 0.49416
 C751 C 0.00814 -0.06254 0.46319
 C752 C 0.03604 -0.00198 0.43437
 H753 H -0.02371 -0.04421 0.48884
 H754 H 0.00889 0.02783 0.45440
 H755 H -0.03300 0.03046 0.53033
 H756 H 0.04428 -0.00787 0.52471
 H757 H 0.02138 -0.04603 0.54936
 H758 H 0.03099 -0.01168 0.56190
 H759 H -0.01628 0.01626 0.42936
 H760 H -0.03968 0.03916 0.45396
 H761 H 0.00725 -0.07699 0.52026
 H762 H -0.06051 -0.04006 0.53444
 H763 H 0.04048 0.04720 0.46013
 H764 H 0.01332 0.06796 0.48048
 H765 H -0.06510 -0.01841 0.48150
 H766 H -0.04223 -0.03866 0.45627
 H767 H 0.04247 0.04073 0.53775
 H768 H 0.06820 0.01946 0.51373
 O769 O 0.68362 0.23050 0.25440
 O770 O 0.68661 0.24358 0.21759
 O771 O 0.73882 0.18331 0.26090
 O772 O 0.77613 0.18332 0.25877
 O773 O 0.72710 0.23509 0.31230
 O774 O 0.73493 0.27400 0.31349
 O775 O 0.80206 0.24760 0.21126
 O776 O 0.78874 0.21178 0.20696
 O777 O 0.74845 0.29218 0.20006
 O778 O 0.71029 0.29620 0.21442
 O779 O 0.78762 0.29945 0.25877
 O780 O 0.79037 0.27987 0.29457
 O781 O 0.81101 0.26537 0.24387
 O782 O 0.80751 0.25269 0.28445
 O783 O 0.75809 0.31226 0.23786
 O784 O 0.71631 0.30994 0.24434
 O785 O 0.76934 0.26206 0.18844
 O786 O 0.75507 0.22300 0.18734
 O787 O 0.69228 0.24887 0.28677
 O788 O 0.70836 0.28543 0.29359
 O789 O 0.74773 0.20474 0.30083
 O790 O 0.78694 0.20375 0.28530
 O791 O 0.70879 0.19588 0.24049
 O792 O 0.70985 0.21609 0.20387
 Zr793 Zr 0.71431 0.23063 0.23613
 O794 O 0.73502 0.25258 0.21710
 Zr795 Zr 0.75746 0.21255 0.26721
 O796 O 0.78001 0.23315 0.24876
 Zr797 Zr 0.72687 0.25651 0.28377
 O798 O 0.74857 0.27911 0.26678
 Zr799 Zr 0.76798 0.23948 0.21605
 O800 O 0.74692 0.21632 0.23344
 Zr801 Zr 0.73793 0.28365 0.23325
 O802 O 0.71483 0.26270 0.25098
 Zr803 Zr 0.78113 0.26500 0.26372
 O804 O 0.76010 0.24366 0.28358
 O805 O 0.72467 0.22493 0.26926
 O806 O 0.77080 0.27117 0.23064
 C807 C 0.67845 0.23895 0.27369
 C808 C 0.72050 0.18024 0.24999
 C809 C 0.73646 0.21584 0.31574
 C810 C 0.81588 0.25769 0.22417
 C811 C 0.76037 0.28154 0.18531
 C812 C 0.77657 0.31509 0.24854
 H813 H 0.72884 0.25428 0.20171
 H814 H 0.74863 0.29340 0.27517
 H815 H 0.71457 0.21455 0.27770
 H816 H 0.79502 0.22579 0.24815
 H817 H 0.77956 0.19810 0.20936
 H818 H 0.78561 0.18731 0.24550
 H819 H 0.72196 0.31522 0.25902
 H820 H 0.69875 0.28974 0.28064
 H821 H 0.76639 0.22424 0.17492
 H822 H 0.69601 0.20680 0.20428
 H823 H 0.77804 0.29028 0.29904
 H824 H 0.75043 0.26925 0.31756
 H825 H 0.68385 0.25911 0.22288
 H826 H 0.70664 0.28487 0.20294
 H827 H 0.78823 0.21464 0.29774
 H828 H 0.81459 0.23966 0.27681
 O829 O 0.81639 0.76550 0.76264
 O830 O 0.81715 0.75489 0.72563
 O831 O 0.76245 0.81556 0.76462
 O832 O 0.72576 0.81725 0.75899
 O833 O 0.76571 0.76182 0.81619
 O834 O 0.75640 0.72343 0.81624
 O835 O 0.70286 0.75653 0.70850
 O836 O 0.71860 0.79116 0.70556
 O837 O 0.75624 0.70932 0.70191
 O838 O 0.79209 0.70319 0.72016
 O839 O 0.70949 0.70193 0.75584
 O840 O 0.70299 0.71986 0.79125
 O841 O 0.68933 0.73826 0.73985
 O842 O 0.68906 0.74864 0.78098
 O843 O 0.74096 0.68854 0.73802
 O844 O 0.78160 0.68868 0.74874
 O845 O 0.73785 0.74047 0.68867
 O846 O 0.75375 0.77884 0.68935
 O847 O 0.80319 0.74656 0.79374
 O848 O 0.78427 0.71118 0.79901
 O849 O 0.74777 0.79326 0.80308
 O850 O 0.71099 0.79665 0.78376
 O851 O 0.79440 0.80238 0.74743
 O852 O 0.79674 0.78356 0.71045
 Zr853 Zr 0.78794 0.76810 0.74185
 O854 O 0.76879 0.74768 0.72062
 Zr855 Zr 0.74211 0.78697 0.76869
 O856 O 0.72111 0.76803 0.74789
 Zr857 Zr 0.76866 0.74129 0.78761
 O858 O 0.74820 0.72023 0.76829
 Zr859 Zr 0.73671 0.76222 0.71644
 O860 O 0.75649 0.78388 0.73612
 Zr861 Zr 0.76268 0.71632 0.73600
 O862 O 0.78431 0.73567 0.75612
 Zr863 Zr 0.71682 0.73583 0.76217
 O864 O 0.73621 0.75556 0.78428
 O865 O 0.77400 0.77319 0.77389
 O866 O 0.73080 0.73023 0.73020
 C867 C 0.81901 0.75575 0.78192
 C868 C 0.78209 0.81820 0.75569
 C869 C 0.75649 0.78120 0.81888
 C870 C 0.68702 0.74719 0.72011
 C871 C 0.74668 0.72087 0.68622
 C872 C 0.72118 0.68617 0.74666
 H873 H 0.77678 0.74618 0.70594
 H874 H 0.74652 0.70570 0.77639
 H875 H 0.78354 0.78275 0.78345
 H876 H 0.70663 0.77619 0.74603
 H877 H 0.72803 0.80430 0.70912
 H878 H 0.71818 0.81426 0.74455
 H879 H 0.77389 0.68309 0.76258
 H880 H 0.79495 0.70648 0.78694
 H881 H 0.74400 0.77837 0.67584
 H882 H 0.81067 0.79247 0.71235
 H883 H 0.71457 0.70935 0.79719
 H884 H 0.74058 0.72843 0.81857
 H885 H 0.81840 0.73890 0.73032
 H886 H 0.79728 0.71437 0.70878
 H887 H 0.70772 0.78558 0.79596
 H888 H 0.68335 0.76223 0.77302
 O889 O 0.24939 0.21306 0.80539
 O890 O 0.21348 0.20738 0.79154
 O891 O 0.29340 0.19986 0.74904
 O892 O 0.29919 0.21293 0.71417
 O893 O 0.30186 0.26083 0.78858
 O894 O 0.28213 0.29555 0.79029
 O895 O 0.23076 0.25296 0.68607
 O896 O 0.24507 0.21711 0.68898
 O897 O 0.18525 0.26213 0.73981
 O898 O 0.18651 0.25738 0.78042
 O899 O 0.23594 0.31087 0.72727
 O900 O 0.27583 0.31306 0.73437
 O901 O 0.24851 0.28575 0.69406
 O902 O 0.28711 0.29315 0.70971
 O903 O 0.20574 0.29978 0.74857
 O904 O 0.20327 0.28508 0.78838
 O905 O 0.19767 0.24080 0.71039
 O906 O 0.21625 0.20347 0.71449
 O907 O 0.26657 0.24612 0.81368
 O908 O 0.25434 0.28483 0.80923
 O909 O 0.31447 0.23927 0.75941
 O910 O 0.31105 0.24612 0.71818
 O911 O 0.26364 0.18865 0.77096
 O912 O 0.22362 0.18795 0.75996
 Zr913 Zr 0.24152 0.21655 0.77100
 O914 O 0.21846 0.23335 0.74977
 Zr915 Zr 0.28551 0.23338 0.73999
 O916 O 0.26409 0.25013 0.71701
 Zr917 Zr 0.26706 0.26443 0.78287
 O918 O 0.24545 0.28313 0.76159
 Zr919 Zr 0.23209 0.23525 0.71693
 O920 O 0.25449 0.21650 0.73766
 Zr921 Zr 0.21416 0.26694 0.75960
 O922 O 0.23510 0.24936 0.78274
 Zr923 Zr 0.25805 0.28305 0.72821
 O924 O 0.28132 0.26699 0.75018
 O925 O 0.27309 0.23151 0.77288
 O926 O 0.22623 0.26855 0.72643
 C927 C 0.25881 0.22662 0.81907
 C928 C 0.28266 0.18520 0.76099
 C929 C 0.31752 0.25077 0.77735
 C930 C 0.23826 0.27251 0.68065
 C931 C 0.18219 0.25129 0.72145
 C932 C 0.21651 0.31424 0.73641
 H933 H 0.20406 0.22506 0.75003
 H934 H 0.24393 0.29855 0.76752
 H935 H 0.28354 0.22326 0.78302
 H936 H 0.27100 0.24986 0.70173
 H937 H 0.25286 0.20366 0.69525
 H938 H 0.28875 0.21410 0.70129
 H939 H 0.21310 0.29836 0.78976
 H940 H 0.23954 0.27853 0.81378
 H941 H 0.20807 0.20311 0.69996
 H942 H 0.22620 0.17532 0.77076
 H943 H 0.27066 0.31879 0.74920
 H944 H 0.29123 0.29983 0.77681
 H945 H 0.20843 0.22111 0.79951
 H946 H 0.18298 0.24155 0.77703
 H947 H 0.31487 0.26128 0.72367
 H948 H 0.28981 0.28213 0.69755
 O949 O 0.20011 0.75115 0.29397
 O950 O 0.21227 0.71442 0.29648
 O951 O 0.26192 0.78907 0.30089
 O952 O 0.29443 0.79330 0.28234
 O953 O 0.21367 0.80579 0.24792
 O954 O 0.20634 0.79000 0.21203
 O955 O 0.31122 0.72693 0.23651
 O956 O 0.31383 0.73754 0.27336
 O957 O 0.25340 0.68655 0.23178
 O958 O 0.21419 0.69042 0.24369
 O959 O 0.26212 0.73906 0.18487
 O960 O 0.25815 0.77894 0.18508
 O961 O 0.30002 0.74742 0.20574
 O962 O 0.28549 0.78751 0.20231
 O963 O 0.23997 0.71048 0.19773
 O964 O 0.20296 0.71032 0.21871
 O965 O 0.28653 0.69477 0.24881
 O966 O 0.28870 0.70942 0.28803
 O967 O 0.18861 0.77126 0.26305
 O968 O 0.18694 0.76300 0.22333
 O969 O 0.24653 0.81410 0.26543
 O970 O 0.28579 0.80815 0.25105
 O971 O 0.23923 0.76096 0.31400
 O972 O 0.24703 0.72003 0.31101
 Zr973 Zr 0.23325 0.74110 0.28533
 O974 O 0.24997 0.71772 0.26432
 Zr975 Zr 0.26466 0.78342 0.26594
 O976 O 0.28321 0.76156 0.24486
 Zr977 Zr 0.21662 0.77131 0.24079
 O978 O 0.23317 0.74954 0.21803
 Zr979 Zr 0.28303 0.72866 0.25813
 O980 O 0.26707 0.75113 0.28088
 Zr981 Zr 0.23506 0.71707 0.23233
 O982 O 0.21649 0.73842 0.25422
 Zr983 Zr 0.26705 0.75908 0.21357
 O984 O 0.24950 0.78285 0.23393
 O985 O 0.23159 0.77371 0.27226
 O986 O 0.26847 0.72629 0.22626
 C987 C 0.18529 0.76233 0.28267
 C988 C 0.25137 0.77850 0.31676
 C989 C 0.22716 0.81947 0.25738
 C990 C 0.31454 0.73557 0.21680
 C991 C 0.27312 0.68128 0.23898
 C992 C 0.25079 0.72101 0.18204
 H993 H 0.24995 0.70272 0.27173
 H994 H 0.22490 0.74977 0.20362
 H995 H 0.22348 0.78405 0.28261
 H996 H 0.29880 0.76720 0.24327
 H997 H 0.30986 0.74455 0.28799
 H998 H 0.30591 0.78156 0.27922
 H999 H 0.20047 0.72092 0.20595
 H1000 H 0.18208 0.74815 0.22926
 H1001 H 0.30242 0.70004 0.28560
 H1002 H 0.23875 0.72276 0.32540
 H1003 H 0.24184 0.77683 0.18255
 H1004 H 0.21967 0.79861 0.20677
 H1005 H 0.20288 0.71028 0.28346
 H1006 H 0.22015 0.68484 0.25829
 H1007 H 0.27797 0.81398 0.23745
 H1008 H 0.29920 0.78850 0.21163
 O1009 O 0.25131 0.79409 0.70020
 O1010 O 0.21459 0.79549 0.71315
 O1011 O 0.29023 0.80125 0.76139
 O1012 O 0.29558 0.78262 0.79360
 O1013 O 0.30724 0.74927 0.71223
 O1014 O 0.29190 0.71334 0.70478
 O1015 O 0.23015 0.73530 0.81147
 O1016 O 0.24021 0.77217 0.81423
 O1017 O 0.18868 0.73038 0.75436
 O1018 O 0.19165 0.74253 0.71513
 O1019 O 0.24251 0.68467 0.76152
 O1020 O 0.28235 0.68580 0.75680
 O1021 O 0.25111 0.70526 0.79955
 O1022 O 0.29116 0.70298 0.78409
 O1023 O 0.21315 0.69705 0.74014
 O1024 O 0.21183 0.71816 0.70331
 O1025 O 0.19721 0.74722 0.78751
 O1026 O 0.21131 0.78647 0.78980
 O1027 O 0.27188 0.76390 0.68796
 O1028 O 0.26424 0.72418 0.68610
 O1029 O 0.31583 0.76660 0.74510
 O1030 O 0.31085 0.75187 0.78441
 O1031 O 0.26136 0.81384 0.73938
 O1032 O 0.22059 0.80989 0.74792
 Zr1033 Zr 0.24197 0.78491 0.73349
 O1034 O 0.21928 0.76336 0.75059
 Zr1035 Zr 0.28538 0.76631 0.76389
 O1036 O 0.26424 0.74469 0.78277
 Zr1037 Zr 0.27284 0.74146 0.71580
 O1038 O 0.25178 0.71819 0.73267
 Zr1039 Zr 0.23099 0.75715 0.78342
 O1040 O 0.25275 0.78042 0.76711
 Zr1041 Zr 0.21897 0.73165 0.73539
 O1042 O 0.23959 0.75405 0.71649
 Zr1043 Zr 0.26206 0.71365 0.76636
 O1044 O 0.28515 0.73459 0.74843
 O1045 O 0.27492 0.77269 0.73104
 O1046 O 0.22895 0.72551 0.76860
 C1047 C 0.26249 0.78326 0.68501
 C1048 C 0.27909 0.81689 0.75123
 C1049 C 0.32104 0.75882 0.72556
 C1050 C 0.23925 0.71584 0.81445
 C1051 C 0.18360 0.73734 0.77425
 C1052 C 0.22426 0.68157 0.75054
 H1053 H 0.20411 0.77041 0.75095
 H1054 H 0.25214 0.70392 0.72425
 H1055 H 0.28495 0.78329 0.72280
 H1056 H 0.27021 0.74309 0.79825
 H1057 H 0.24691 0.78692 0.81025
 H1058 H 0.28409 0.77918 0.80534
 H1059 H 0.22275 0.70581 0.70042
 H1060 H 0.24917 0.72983 0.68159
 H1061 H 0.20221 0.78375 0.80372
 H1062 H 0.22284 0.82432 0.73963
 H1063 H 0.28006 0.68344 0.74047
 H1064 H 0.30086 0.70813 0.71789
 H1065 H 0.21068 0.78259 0.70356
 H1066 H 0.18597 0.75694 0.72126
 H1067 H 0.31681 0.73854 0.77635
 H1068 H 0.29214 0.71206 0.79796
 O1069 O 0.25376 0.20861 0.20033
 O1070 O 0.28827 0.20464 0.21701
 O1071 O 0.20674 0.20130 0.25663
 O1072 O 0.19835 0.21872 0.28847
 O1073 O 0.19858 0.25656 0.20761
 O1074 O 0.21708 0.29121 0.20202
 O1075 O 0.26342 0.26206 0.31413
 O1076 O 0.25135 0.22597 0.31530
 O1077 O 0.31229 0.26590 0.26147
 O1078 O 0.31326 0.25629 0.22190
 O1079 O 0.25999 0.31491 0.26432
 O1080 O 0.22091 0.31601 0.25542
 O1081 O 0.24539 0.29342 0.30071
 O1082 O 0.20807 0.29862 0.28129
 O1083 O 0.29133 0.30179 0.24605
 O1084 O 0.29629 0.28232 0.20916
 O1085 O 0.29891 0.24835 0.29321
 O1086 O 0.28189 0.21044 0.29351
 O1087 O 0.23637 0.24021 0.18659
 O1088 O 0.24604 0.27941 0.18627
 O1089 O 0.18511 0.23857 0.23905
 O1090 O 0.18610 0.25059 0.27899
 O1091 O 0.23761 0.18804 0.23761
 O1092 O 0.27704 0.18937 0.25053
 Zr1093 Zr 0.25900 0.21602 0.23448
 O1094 O 0.28046 0.23563 0.25420
 Zr1095 Zr 0.21310 0.23577 0.26054
 O1096 O 0.23281 0.25546 0.28191
 Zr1097 Zr 0.23286 0.26166 0.21458
 O1098 O 0.25283 0.28309 0.23400
 Zr1099 Zr 0.26511 0.24125 0.28577
 O1100 O 0.24433 0.21982 0.26685
 Zr1101 Zr 0.28435 0.26779 0.23983
 O1102 O 0.26512 0.24727 0.21847
 Zr1103 Zr 0.23860 0.28689 0.26647
 O1104 O 0.21691 0.26794 0.24587
 O1105 O 0.22719 0.23005 0.22880
 O1106 O 0.27066 0.27328 0.27196
 C1107 C 0.24533 0.22060 0.18428
 C1108 C 0.21840 0.18549 0.24748
 C1109 C 0.18266 0.24777 0.21951
 C1110 C 0.25466 0.28172 0.31652
 C1111 C 0.31468 0.25746 0.28136
 C1112 C 0.27963 0.31745 0.25537
 H1113 H 0.29507 0.22764 0.25585
 H1114 H 0.25426 0.29766 0.22592
 H1115 H 0.21763 0.22043 0.21933
 H1116 H 0.22497 0.25679 0.29667
 H1117 H 0.24424 0.21181 0.31049
 H1118 H 0.20847 0.22095 0.30140
 H1119 H 0.28632 0.29522 0.20538
 H1120 H 0.26139 0.27330 0.18344
 H1121 H 0.28936 0.21201 0.30833
 H1122 H 0.27517 0.17540 0.24173
 H1123 H 0.22587 0.31927 0.23972
 H1124 H 0.20719 0.29685 0.21434
 H1125 H 0.29395 0.21755 0.20797
 H1126 H 0.31733 0.24126 0.22801
 H1127 H 0.18195 0.26471 0.27097
 H1128 H 0.20470 0.28899 0.29463
 O1129 O 0.79425 0.69947 0.25147
 O1130 O 0.79626 0.71193 0.21464
 O1131 O 0.80180 0.76088 0.28979
 O1132 O 0.78337 0.79312 0.29465
 O1133 O 0.74905 0.71251 0.30709
 O1134 O 0.71303 0.70523 0.29169
 O1135 O 0.73673 0.81041 0.22863
 O1136 O 0.77368 0.81297 0.23885
 O1137 O 0.73136 0.75314 0.18782
 O1138 O 0.74323 0.71405 0.19128
 O1139 O 0.68528 0.76130 0.24129
 O1140 O 0.68605 0.75702 0.28132
 O1141 O 0.70627 0.79904 0.24955
 O1142 O 0.70344 0.78423 0.28984
 O1143 O 0.69770 0.73951 0.21226
 O1144 O 0.71856 0.70264 0.21156
 O1145 O 0.74854 0.78610 0.19607
 O1146 O 0.78790 0.78820 0.21025
 O1147 O 0.76364 0.68780 0.27202
 O1148 O 0.72386 0.68620 0.26430
 O1149 O 0.76671 0.74519 0.31541
 O1150 O 0.75234 0.78436 0.30987
 O1151 O 0.81446 0.73848 0.26127
 O1152 O 0.81090 0.74653 0.22025
 Zr1153 Zr 0.78555 0.73260 0.24172
 O1154 O 0.76428 0.74948 0.21865
 Zr1155 Zr 0.76683 0.76353 0.28469
 O1156 O 0.74552 0.78221 0.26316
 Zr1157 Zr 0.74149 0.71572 0.27258
 O1158 O 0.71849 0.73240 0.25115
 Zr1159 Zr 0.75831 0.78233 0.22994
 O1160 O 0.78130 0.76622 0.25208
 Zr1161 Zr 0.73231 0.73459 0.21836
 O1162 O 0.75443 0.71589 0.23936
 Zr1163 Zr 0.71422 0.76609 0.26101
 O1164 O 0.73485 0.74838 0.28448
 O1165 O 0.77297 0.73065 0.27466
 O1166 O 0.72644 0.76780 0.22791
 C1167 C 0.78308 0.68457 0.26273
 C1168 C 0.81748 0.75051 0.27887
 C1169 C 0.75867 0.72586 0.32080
 C1170 C 0.71715 0.81362 0.23756
 C1171 C 0.73852 0.77285 0.18257
 C1172 C 0.68221 0.75017 0.22314
 H1173 H 0.77146 0.74960 0.20348
 H1174 H 0.70408 0.72414 0.25154
 H1175 H 0.78344 0.72248 0.28486
 H1176 H 0.74403 0.79770 0.26894
 H1177 H 0.78839 0.80897 0.24566
 H1178 H 0.78021 0.80465 0.28293
 H1179 H 0.70596 0.70006 0.22237
 H1180 H 0.72956 0.68148 0.24927
 H1181 H 0.78536 0.80196 0.20094
 H1182 H 0.82530 0.73827 0.22275
 H1183 H 0.68346 0.74079 0.27912
 H1184 H 0.70787 0.71844 0.30045
 H1185 H 0.78318 0.70261 0.21059
 H1186 H 0.75774 0.72004 0.18552
 H1187 H 0.73883 0.77651 0.31586
 H1188 H 0.71273 0.79794 0.29072
 O1189 O 0.70113 0.25101 0.79500
 O1190 O 0.71393 0.21449 0.79725
 O1191 O 0.76224 0.29003 0.80158
 O1192 O 0.79453 0.29484 0.78280
 O1193 O 0.71335 0.30605 0.74890
 O1194 O 0.70596 0.29015 0.71311
 O1195 O 0.81211 0.22889 0.73647
 O1196 O 0.81491 0.23951 0.77330
 O1197 O 0.75505 0.18751 0.73220
 O1198 O 0.71587 0.19066 0.74440
 O1199 O 0.76235 0.24038 0.68532
 O1200 O 0.75764 0.28036 0.68589
 O1201 O 0.80028 0.24925 0.70587
 O1202 O 0.78522 0.28902 0.70264
 O1203 O 0.74087 0.21133 0.69827
 O1204 O 0.70408 0.21042 0.71958
 O1205 O 0.78814 0.19627 0.74903
 O1206 O 0.79039 0.21095 0.78821
 O1207 O 0.68902 0.27104 0.76427
 O1208 O 0.68712 0.26282 0.72458
 O1209 O 0.74618 0.31492 0.76617
 O1210 O 0.78543 0.30966 0.75161
 O1211 O 0.74022 0.26142 0.81474
 O1212 O 0.74871 0.22066 0.81152
 Zr1213 Zr 0.73435 0.24157 0.78604
 O1214 O 0.75131 0.21856 0.76482
 Zr1215 Zr 0.76483 0.28452 0.76656
 O1216 O 0.78358 0.26305 0.74524
 Zr1217 Zr 0.71683 0.27162 0.74176
 O1218 O 0.73356 0.25020 0.71879
 Zr1219 Zr 0.78412 0.23010 0.75839
 O1220 O 0.76794 0.25222 0.78135
 Zr1221 Zr 0.73616 0.21772 0.73294
 O1222 O 0.71739 0.23868 0.75506
 Zr1223 Zr 0.76722 0.26037 0.71406
 O1224 O 0.74944 0.28376 0.73468
 O1225 O 0.73200 0.27421 0.77311
 O1226 O 0.76934 0.22756 0.72663
 C1227 C 0.68603 0.26198 0.78388
 C1228 C 0.75204 0.27918 0.81750
 C1229 C 0.72669 0.31998 0.75822
 C1230 C 0.81509 0.23760 0.71675
 C1231 C 0.77490 0.18255 0.73929
 C1232 C 0.75132 0.22214 0.68251
 H1233 H 0.75162 0.20354 0.77218
 H1234 H 0.72516 0.25033 0.70445
 H1235 H 0.72379 0.28440 0.78354
 H1236 H 0.79906 0.26896 0.74352
 H1237 H 0.81096 0.24642 0.78800
 H1238 H 0.80623 0.28337 0.77945
 H1239 H 0.70127 0.22105 0.70692
 H1240 H 0.68260 0.24786 0.73049
 H1241 H 0.80427 0.20183 0.78566
 H1242 H 0.74048 0.22318 0.82599
 H1243 H 0.74146 0.27762 0.68322
 H1244 H 0.71910 0.29895 0.70770
 H1245 H 0.70449 0.21025 0.78431
 H1246 H 0.72201 0.18518 0.75895
 H1247 H 0.77749 0.31528 0.73800
 H1248 H 0.79886 0.29033 0.71200
 C1249 C 0.07897 1.00079 1.16812
 N1250 N 0.07496 0.98163 1.15667
 N1251 N 0.06554 0.98257 1.13634
 C1252 C 0.05994 1.00269 1.12682
 N1253 N 0.06391 1.02185 1.13829
 N1254 N 0.07333 1.02091 1.15862
 C1255 C 0.09044 0.99991 1.18927
 C1256 C 0.10090 0.99954 1.20659
 C1257 C 0.05034 1.00363 1.10474
 C1258 C 0.04229 1.00392 1.08615
 C1259 C 0.57741 0.50337 0.66883
 N1260 N 0.57177 0.48438 0.65783
 N1261 N 0.56173 0.48567 0.63782
 C1262 C 0.55709 0.50598 0.62819
 N1263 N 0.56269 0.52498 0.63921
 N1264 N 0.57273 0.52368 0.65923
 C1265 C 0.58955 0.50204 0.68960
 C1266 C 0.60051 0.50138 0.70660
 C1267 C 0.54707 0.50725 0.60630
 C1268 C 0.53884 0.50770 0.58779
 C1269 C 0.42326 -0.00342 0.67273
 N1270 N 0.43124 0.01562 0.66280
 N1271 N 0.44051 0.01496 0.64219
 C1272 C 0.44197 -0.00472 0.63088
 N1273 N 0.43403 -0.02377 0.64082
 N1274 N 0.42476 -0.02312 0.66143
 C1275 C 0.41194 -0.00249 0.69422
 C1276 C 0.40153 -0.00181 0.71180
 C1277 C 0.45151 -0.00524 0.60853
 C1278 C 0.45964 -0.00521 0.58978
 C1279 C -0.07856 0.49661 1.17059
 N1280 N -0.07537 0.51575 1.15832
 N1281 N -0.06593 0.51490 1.13780
 C1282 C -0.05950 0.49488 1.12892
 N1283 N -0.06264 0.47575 1.14121
 N1284 N -0.07209 0.47660 1.16173
 C1285 C -0.09011 0.49735 1.19196
 C1286 C -0.10067 0.49774 1.20945
 C1287 C -0.04988 0.49395 1.10663
 C1288 C -0.04182 0.49337 1.08788
 C1289 C -0.08854 0.50256 0.33402
 N1290 N -0.07300 0.51869 0.33780
 N1291 N -0.06344 0.52038 0.35799
 C1292 C -0.06914 0.50600 0.37504
 N1293 N -0.08470 0.48989 0.37127
 N1294 N -0.09426 0.48820 0.35107
 C1295 C -0.09835 0.50041 0.31206
 C1296 C -0.10623 0.49871 0.29345
 C1297 C -0.05829 0.50728 0.39657
 C1298 C -0.04902 0.50785 0.41461
 C1299 C 0.41176 1.00493 -0.16502
 N1300 N 0.43068 1.01725 -0.16229
 N1301 N 0.44007 1.01883 -0.14200
 C1302 C 0.43079 1.00817 -0.12380
 N1303 N 0.41184 0.99588 -0.12653
 N1304 N 0.40246 0.99430 -0.14682
 C1305 C 0.40211 1.00265 -0.18704
 C1306 C 0.39432 1.00069 -0.20567
 C1307 C 0.44156 1.00885 -0.10218
 C1308 C 0.45087 1.00871 -0.08415
 C1309 C 0.58975 0.50089 -0.16834
 N1310 N 0.58590 0.48098 -0.15761
 N1311 N 0.57622 0.48049 -0.13716
 C1312 C 0.57007 0.49990 -0.12684
 N1313 N 0.57393 0.51981 -0.13757
 N1314 N 0.58362 0.52030 -0.15801
 C1315 C 0.59942 0.50137 -0.19069
 C1316 C 0.60713 0.50172 -0.20964
 C1317 C 0.55909 0.49935 -0.10509
 C1318 C 0.54965 0.49892 -0.08693
 C1319 C 0.08797 -0.00170 0.33169
 N1320 N 0.07751 -0.02050 0.33950
 N1321 N 0.06780 -0.02081 0.35993
 C1322 C 0.06825 -0.00234 0.37316
 N1323 N 0.07874 0.01645 0.36536
 N1324 N 0.08845 0.01676 0.34493
 C1325 C 0.09780 -0.00116 0.30941
 C1326 C 0.10573 -0.00067 0.29056
 C1327 C 0.05721 -0.00244 0.39487
 C1328 C 0.04767 -0.00234 0.41298
 C1329 C 0.16936 1.07671 1.00139
 N1330 N 0.15988 1.07153 1.02175
 N1331 N 0.13974 1.06176 1.02293
 C1332 C 0.12849 1.05696 1.00377
 N1333 N 0.13799 1.06210 0.98342
 N1334 N 0.15812 1.07187 0.98225
 C1335 C 0.19026 1.08855 1.00023
 C1336 C 0.20738 1.09927 0.99970
 C1337 C 0.10654 1.04713 1.00494
 C1338 C 0.08802 1.03900 1.00531
 C1339 C 0.66743 0.57731 0.50286
 N1340 N 0.65822 0.57146 0.52315
 N1341 N 0.63788 0.56211 0.52429
 C1342 C 0.62614 0.55845 0.50516
 N1343 N 0.63537 0.56426 0.48487
 N1344 N 0.65570 0.57360 0.48373
 C1345 C 0.68849 0.58885 0.50182
 C1346 C 0.70570 0.59943 0.50140
 C1347 C 0.60400 0.54909 0.50632
 C1348 C 0.58533 0.54131 0.50671
 C1349 C 0.67324 0.42038 -0.00126
 N1350 N 0.66166 0.42459 0.01816
 N1351 N 0.64128 0.43421 0.01751
 C1352 C 0.63182 0.43982 -0.00257
 N1353 N 0.64342 0.43565 -0.02199
 N1354 N 0.66380 0.42603 -0.02135
 C1355 C 0.69450 0.40869 -0.00065
 C1356 C 0.71191 0.39803 -0.00031
 C1357 C 0.60962 0.44959 -0.00326
 C1358 C 0.59092 0.45770 -0.00366
 C1359 C 0.17144 -0.07645 0.49635
 N1360 N 0.16033 -0.07093 0.51570
 N1361 N 0.13955 -0.06222 0.51495
 C1362 C 0.12919 -0.05888 0.49484
 N1363 N 0.14031 -0.06436 0.47548
 N1364 N 0.16109 -0.07308 0.47623
 C1365 C 0.19319 -0.08717 0.49722
 C1366 C 0.21099 -0.09713 0.49782
 C1367 C 0.10671 -0.04974 0.49412
 C1368 C 0.08791 -0.04185 0.49389
 C1369 C 0.33578 -0.08380 0.50459
 N1370 N 0.33857 -0.06502 0.51705
 N1371 N 0.35889 -0.05578 0.51883
 C1372 C 0.37709 -0.06506 0.50826
 N1373 N 0.37431 -0.08386 0.49582
 N1374 N 0.35398 -0.09310 0.49403
 C1375 C 0.31375 -0.09346 0.50229
 C1376 C 0.29515 -0.10134 0.50042
 C1377 C 0.39883 -0.05452 0.50933
 C1378 C 0.41697 -0.04541 0.50961
 C1379 C -0.16608 0.40991 1.00282
 N1380 N -0.16207 0.42590 1.01844
 N1381 N -0.14196 0.43571 1.01937
 C1382 C -0.12521 0.42985 1.00471
 N1383 N -0.12921 0.41384 0.98910
 N1384 N -0.14933 0.40403 0.98817
 C1385 C -0.18801 0.39984 1.00142
 C1386 C -0.20661 0.39182 1.00024
 C1387 C -0.10369 0.44086 1.00527
 C1388 C -0.08566 0.45019 1.00537
 C1389 C -0.16951 0.58762 0.50267
 N1390 N -0.15596 0.58983 0.48417
 N1391 N -0.13551 0.58032 0.48377
 C1392 C -0.12801 0.56832 0.50186
 N1393 N -0.14156 0.56613 0.52037
 N1394 N -0.16200 0.57564 0.52077
 C1395 C -0.19178 0.59724 0.50285
 C1396 C -0.21063 0.60498 0.50292
 C1397 C -0.10626 0.55758 0.50121
 C1398 C -0.08810 0.54833 0.50064
 C1399 C 0.33201 1.08717 -0.00112
 N1400 N 0.34504 1.08703 0.01759
 N1401 N 0.36533 1.07718 0.01725
 C1402 C 0.37319 1.06717 -0.00180
 N1403 N 0.36018 1.06734 -0.02051
 N1404 N 0.33989 1.07718 -0.02017
 C1405 C 0.30985 1.09704 -0.00054
 C1406 C 0.29105 1.10492 -0.00007
 C1407 C 0.39474 1.05600 -0.00195
 C1408 C 0.41274 1.04641 -0.00193
 C1409 C 0.00126 1.16675 1.07716
 N1410 N 0.02176 1.15734 1.07275
 N1411 N 0.02331 1.13726 1.06306
 C1412 C 0.00440 1.12597 1.05756
 N1413 N -0.01609 1.13540 1.06193
 N1414 N -0.01764 1.15548 1.07162
 C1415 C -0.00035 1.18768 1.08882
 C1416 C -0.00124 1.20488 1.09935
 C1417 C 0.00593 1.10408 1.04779
 C1418 C 0.00657 1.08559 1.03970
 C1419 C 0.50256 0.67157 0.57598
 N1420 N 0.52265 0.66168 0.57085
 N1421 N 0.52336 0.64136 0.56155
 C1422 C 0.50399 0.63032 0.55722
 N1423 N 0.48390 0.64024 0.56229
 N1424 N 0.48319 0.66055 0.57159
 C1425 C 0.50189 0.69260 0.58754
 C1426 C 0.50169 0.70972 0.59821
 C1427 C 0.50467 0.60819 0.54791
 C1428 C 0.50472 0.58955 0.54016
 C1429 C -0.00330 0.67299 0.42242
 N1430 N -0.02337 0.66322 0.42741
 N1431 N -0.02402 0.64269 0.43667
 C1432 C -0.00461 0.63130 0.44110
 N1433 N 0.01546 0.64109 0.43615
 N1434 N 0.01611 0.66162 0.42690
 C1435 C -0.00264 0.69436 0.41101
 C1436 C -0.00225 0.71182 0.40052
 C1437 C -0.00528 0.60900 0.45050
 C1438 C -0.00563 0.59025 0.45839
 C1439 C 0.49579 1.16974 -0.07758
 N1440 N 0.47580 1.15892 -0.07558
 N1441 N 0.47489 1.13830 -0.06655
 C1442 C 0.49399 1.12787 -0.05936
 N1443 N 0.51397 1.13871 -0.06132
 N1444 N 0.51487 1.15933 -0.07035
 C1445 C 0.49693 1.19127 -0.08861
 C1446 C 0.49776 1.20892 -0.09877
 C1447 C 0.49318 1.10555 -0.05003
 C1448 C 0.49294 1.08683 -0.04207
 C1449 C 0.50356 0.33301 -0.08503
 N1450 N 0.51714 0.33609 -0.06703
 N1451 N 0.51876 0.35630 -0.05768
 C1452 C 0.50687 0.37406 -0.06606
 N1453 N 0.49331 0.37098 -0.08407
 N1454 N 0.49169 0.35077 -0.09343
 C1455 C 0.50156 0.31113 -0.09483
 C1456 C 0.49996 0.29265 -0.10283
 C1457 C 0.50802 0.39568 -0.05554
 C1458 C 0.50849 0.41378 -0.04656
 C1459 C 0.00423 -0.16418 0.41266
 N1460 N -0.00586 -0.14584 0.40321
 N1461 N -0.00399 -0.12571 0.41268
 C1462 C 0.00806 -0.12327 0.43186
 N1463 N 0.01818 -0.14160 0.44128
 N1464 N 0.01631 -0.16174 0.43181
 C1465 C 0.00172 -0.18601 0.40286
 C1466 C -0.00032 -0.20452 0.39501
 C1467 C 0.00907 -0.10179 0.44268
 C1468 C 0.00916 -0.08383 0.45197
 C1469 C 0.50123 -0.16545 0.58808
 N1470 N 0.52023 -0.15290 0.58690
 N1471 N 0.51974 -0.13236 0.57763
 C1472 C 0.50023 -0.12373 0.56927
 N1473 N 0.48123 -0.13627 0.57048
 N1474 N 0.48172 -0.15681 0.57975
 C1475 C 0.50191 -0.18785 0.59739
 C1476 C 0.50244 -0.20679 0.60488
 C1477 C 0.49989 -0.10192 0.55860
 C1478 C 0.49978 -0.08375 0.54931
 C1479 C -0.00079 0.32919 1.08542
 N1480 N 0.01880 0.33870 1.07828
 N1481 N 0.01869 0.35899 1.06847
 C1482 C -0.00101 0.37038 1.06549
 N1483 N -0.02059 0.36089 1.07266
 N1484 N -0.02048 0.34059 1.08247
 C1485 C -0.00073 0.30710 1.09545
 C1486 C -0.00073 0.28842 1.10357
 C1487 C -0.00115 0.39207 1.05459
 C1488 C -0.00128 0.41023 1.04533
 C1489 C 0.76575 0.32628 0.07937
 N1490 N 0.76124 0.30420 0.08308
 N1491 N 0.76160 0.29557 0.10398
 C1492 C 0.76636 0.30875 0.12186
 N1493 N 0.77095 0.33081 0.11816
 N1494 N 0.77060 0.33944 0.09725
 C1495 C 0.76279 0.33620 0.05729
 C1496 C 0.75884 0.34522 0.03935
 C1497 C 0.76508 0.29972 0.14451
 C1498 C 0.76328 0.29176 0.16332
 C1499 C 0.26488 0.82848 0.57923
 N1500 N 0.25788 0.80711 0.58316
 N1501 N 0.25857 0.79824 0.60394
 C1502 C 0.26619 0.81048 0.62147
 N1503 N 0.27326 0.83182 0.61754
 N1504 N 0.27257 0.84069 0.59675
 C1505 C 0.26194 0.83887 0.55739
 C1506 C 0.25827 0.84834 0.53964
 C1507 C 0.26558 0.80131 0.64406
 C1508 C 0.26445 0.79335 0.66289
 C1509 C 0.75132 0.67697 0.58119
 N1510 N 0.76500 0.66915 0.59778
 N1511 N 0.76393 0.67800 0.61836
 C1512 C 0.74900 0.69477 0.62301
 N1513 N 0.73536 0.70265 0.60640
 N1514 N 0.73643 0.69380 0.58582
 C1515 C 0.75067 0.66580 0.55990
 C1516 C 0.74882 0.65546 0.54266
 C1517 C 0.74752 0.70388 0.64529
 C1518 C 0.74670 0.71152 0.66404
 C1519 C 0.25306 0.17706 0.07916
 N1520 N 0.26595 0.16886 0.09621
 N1521 N 0.26451 0.17777 0.11674
 C1522 C 0.24999 0.19503 0.12088
 N1523 N 0.23715 0.20331 0.10382
 N1524 N 0.23860 0.19438 0.08329
 C1525 C 0.25260 0.16576 0.05791
 C1526 C 0.25081 0.15531 0.04072
 C1527 C 0.24788 0.20405 0.14317
 C1528 C 0.24637 0.21154 0.16196
 C1529 C 0.26033 0.18196 0.92454
 N1530 N 0.27537 0.17487 0.90864
 N1531 N 0.27651 0.18511 0.88851
 C1532 C 0.26264 0.20272 0.88365
 N1533 N 0.24769 0.20990 0.89958
 N1534 N 0.24654 0.19966 0.91972
 C1535 C 0.25712 0.16920 0.94502
 C1536 C 0.25340 0.15768 0.96151
 C1537 C 0.26213 0.21207 0.86120
 C1538 C 0.26097 0.21913 0.84207
 C1539 C 0.75967 0.68146 0.42635
 N1540 N 0.77450 0.67401 0.41044
 N1541 N 0.77578 0.68414 0.39026
 C1542 C 0.76223 0.70201 0.38538
 N1543 N 0.74749 0.70954 0.40134
 N1544 N 0.74621 0.69941 0.42151
 C1545 C 0.75624 0.66882 0.44686
 C1546 C 0.75232 0.65740 0.46337
 C1547 C 0.76183 0.71129 0.36291
 C1548 C 0.76074 0.71833 0.34378
 C1549 C 0.26069 0.82293 0.42148
 N1550 N 0.24656 0.80544 0.41816
 N1551 N 0.24520 0.79596 0.39790
 C1552 C 0.25780 0.80378 0.38026
 N1553 N 0.27199 0.82120 0.38359
 N1554 N 0.27335 0.83068 0.40385
 C1555 C 0.25993 0.83497 0.44243
 C1556 C 0.25769 0.84604 0.45931
 C1557 C 0.25538 0.79448 0.35808
 C1558 C 0.25337 0.78705 0.33929
 C1559 C 0.76090 0.32130 0.92335
 N1560 N 0.74835 0.30271 0.91979
 N1561 N 0.74714 0.29388 0.89921
 C1562 C 0.75831 0.30348 0.88148
 N1563 N 0.77093 0.32202 0.88504
 N1564 N 0.77213 0.33084 0.90562
 C1565 C 0.75981 0.33246 0.94481
 C1566 C 0.75722 0.34277 0.96214
 C1567 C 0.75604 0.29470 0.85903
 C1568 C 0.75408 0.28757 0.84011
 C1569 C 0.81949 0.42013 0.25714
 N1570 N 0.82730 0.40285 0.27011
 N1571 N 0.81835 0.38243 0.26856
 C1572 C 0.80144 0.37859 0.25384
 N1573 N 0.79357 0.39588 0.24093
 N1574 N 0.80252 0.41631 0.24249
 C1575 C 0.83101 0.44131 0.25668
 C1576 C 0.84175 0.45839 0.25472
 C1577 C 0.79251 0.35634 0.25151
 C1578 C 0.78522 0.33754 0.24981
 C1579 C 0.32084 0.92222 0.76094
 N1580 N 0.32870 0.90499 0.77395
 N1581 N 0.31970 0.88458 0.77257
 C1582 C 0.30268 0.88071 0.75801
 N1583 N 0.29474 0.89795 0.74507
 N1584 N 0.30374 0.91837 0.74646
 C1585 C 0.33256 0.94327 0.76010
 C1586 C 0.34349 0.96019 0.75778
 C1587 C 0.29401 0.85838 0.75550
 C1588 C 0.28709 0.83949 0.75338
 C1589 C 0.18325 0.92480 0.25937
 N1590 N 0.20074 0.91987 0.24525
 N1591 N 0.21076 0.89972 0.24615
 C1592 C 0.20356 0.88387 0.26117
 N1593 N 0.18615 0.88884 0.27538
 N1594 N 0.17613 0.90898 0.27448
 C1595 C 0.17065 0.94531 0.25641
 C1596 C 0.15921 0.96181 0.25282
 C1597 C 0.21275 0.86147 0.26053
 C1598 C 0.21971 0.84239 0.25937
 C1599 C 0.68242 0.42530 0.75889
 N1600 N 0.70033 0.42034 0.74530
 N1601 N 0.71027 0.40016 0.74648
 C1602 C 0.70258 0.38430 0.76124
 N1603 N 0.68474 0.38929 0.77490
 N1604 N 0.67479 0.40946 0.77373
 C1605 C 0.67009 0.44598 0.75574
 C1606 C 0.65893 0.46266 0.75209
 C1607 C 0.71185 0.36190 0.76095
 C1608 C 0.71897 0.34285 0.76003
 C1609 C 0.67809 0.58097 0.75207
 N1610 N 0.66949 0.59763 0.76515
 N1611 N 0.67808 0.61826 0.76398
 C1612 C 0.69539 0.62291 0.74953
 N1613 N 0.70405 0.60624 0.73649
 N1614 N 0.69545 0.58561 0.73767
 C1615 C 0.66723 0.55952 0.75146
 C1616 C 0.65712 0.54216 0.74958
 C1617 C 0.70428 0.64525 0.74793
 C1618 C 0.71183 0.66400 0.74695
 C1619 C 0.17641 0.07993 0.25440
 N1620 N 0.16674 0.09689 0.26632
 N1621 N 0.17525 0.11756 0.26522
 C1622 C 0.19357 0.12193 0.25201
 N1623 N 0.20330 0.10496 0.24015
 N1624 N 0.19479 0.08429 0.24126
 C1625 C 0.16568 0.05845 0.25345
 C1626 C 0.15574 0.04105 0.25123
 C1627 C 0.20220 0.14434 0.25015
 C1628 C 0.20947 0.16318 0.24869
 C1629 C 0.32670 0.07961 0.76476
 N1630 N 0.30553 0.08367 0.75717
 N1631 N 0.29683 0.10442 0.75759
 C1632 C 0.30908 0.12178 0.76550
 N1633 N 0.33022 0.11771 0.77317
 N1634 N 0.33892 0.09695 0.77275
 C1635 C 0.33700 0.05784 0.76200
 C1636 C 0.34644 0.04016 0.75844
 C1637 C 0.30018 0.14432 0.76457
 C1638 C 0.29245 0.16312 0.76319
 C1639 C 0.82564 0.57839 0.26458
 N1640 N 0.80416 0.58284 0.25813
 N1641 N 0.79586 0.60372 0.25909
 C1642 C 0.80880 0.62083 0.26642
 N1643 N 0.83026 0.61638 0.27295
 N1644 N 0.83856 0.59548 0.27199
 C1645 C 0.83543 0.55648 0.26118
 C1646 C 0.84449 0.53871 0.25709
 C1647 C 0.80028 0.64353 0.26592
 C1648 C 0.79276 0.66243 0.26480
 C1649 C 0.92115 0.25924 0.17888
 N1650 N 0.91688 0.24767 0.19833
 N1651 N 0.89664 0.24896 0.20831
 C1652 C 0.88003 0.26184 0.19912
 N1653 N 0.88432 0.27350 0.17973
 N1654 N 0.90457 0.27221 0.16976
 C1655 C 0.94198 0.25576 0.16675
 C1656 C 0.95883 0.25180 0.15585
 C1657 C 0.85762 0.26139 0.20858
 C1658 C 0.83862 0.26015 0.21597
 C1659 C 0.42661 0.76160 0.68104
 N1660 N 0.42191 0.74813 0.69912
 N1661 N 0.40167 0.74895 0.70913
 C1662 C 0.38548 0.76323 0.70134
 N1663 N 0.39021 0.77678 0.68334
 N1664 N 0.41046 0.77596 0.67333
 C1665 C 0.44730 0.75866 0.66854
 C1666 C 0.46394 0.75510 0.65718
 C1667 C 0.36301 0.76246 0.71063
 C1668 C 0.34393 0.76112 0.71778
 C1669 C 0.42263 0.25916 0.82048
 N1670 N 0.41884 0.24475 0.80333
 N1671 N 0.39851 0.24359 0.79402
 C1672 C 0.38128 0.25669 0.80169
 N1673 N 0.38508 0.27118 0.81877
 N1674 N 0.40541 0.27233 0.82807
 C1675 C 0.44353 0.25810 0.83251
 C1676 C 0.46031 0.25563 0.84364
 C1677 C 0.35900 0.25444 0.79271
 C1678 C 0.34013 0.25257 0.78557
 C1679 C 0.92280 0.76083 0.32123
 N1680 N 0.91931 0.74697 0.30356
 N1681 N 0.89890 0.74541 0.29447
 C1682 C 0.88129 0.75754 0.30289
 N1683 N 0.88479 0.77148 0.32049
 N1684 N 0.90520 0.77303 0.32958
 C1685 C 0.94391 0.76011 0.33295
 C1686 C 0.96091 0.75781 0.34379
 C1687 C 0.85899 0.75486 0.29404
 C1688 C 0.84011 0.75266 0.28699
 C1689 C 0.07914 0.76606 0.32625
 N1690 N 0.09654 0.77320 0.33898
 N1691 N 0.11744 0.77380 0.33042
 C1692 C 0.12158 0.76720 0.30889
 N1693 N 0.10417 0.76016 0.29614
 N1694 N 0.08328 0.75955 0.30470
 C1695 C 0.05722 0.76297 0.33633
 C1696 C 0.03943 0.75908 0.34560
 C1697 C 0.14426 0.76628 0.30013
 C1698 C 0.16316 0.76479 0.29246
 C1699 C 0.58015 0.26384 0.82822
 N1700 N 0.59761 0.27057 0.84108
 N1701 N 0.61845 0.27151 0.83242
 C1702 C 0.62248 0.26567 0.81065
 N1703 N 0.60501 0.25902 0.79776
 N1704 N 0.58417 0.25807 0.80642
 C1705 C 0.55826 0.26053 0.83827
 C1706 C 0.54044 0.25657 0.84745
 C1707 C 0.64510 0.26516 0.80170
 C1708 C 0.66394 0.26403 0.79387
 C1709 C 0.58205 0.75386 0.67613
 N1710 N 0.59899 0.76696 0.66800
 N1711 N 0.61954 0.76548 0.67684
 C1712 C 0.62383 0.75071 0.69393
 N1713 N 0.60689 0.73765 0.70211
 N1714 N 0.58633 0.73913 0.69327
 C1715 C 0.56069 0.75363 0.66499
 C1716 C 0.54338 0.75208 0.65466
 C1717 C 0.64609 0.74881 0.70306
 C1718 C 0.66483 0.74763 0.71073
 C1719 C 0.07717 0.25305 0.17660
 N1720 N 0.09399 0.26571 0.16753
 N1721 N 0.11463 0.26487 0.17624
 C1722 C 0.11911 0.25119 0.19417
 N1723 N 0.10228 0.23860 0.20330
 N1724 N 0.08164 0.23944 0.19458
 C1725 C 0.05580 0.25190 0.16557
 C1726 C 0.03854 0.24953 0.15534
 C1727 C 0.14151 0.24967 0.20301
 C1728 C 0.16035 0.24854 0.21042
 C1729 C -0.07659 1.00159 0.82890
 N1730 N -0.07445 1.01984 0.84223
 N1731 N -0.06459 1.01791 0.86229
 C1732 C -0.05666 0.99768 0.86965
 N1733 N -0.05875 0.97944 0.85630
 N1734 N -0.06861 0.98137 0.83624
 C1735 C -0.08864 1.00326 0.80811
 C1736 C -0.09954 1.00404 0.79107
 C1737 C -0.04689 0.99555 0.89160
 C1738 C -0.03895 0.99429 0.91021
 C1739 C 0.42274 0.50196 0.32916
 N1740 N 0.42330 0.52035 0.34248
 N1741 N 0.43254 0.51909 0.36288
 C1742 C 0.44137 0.49938 0.37061
 N1743 N 0.44086 0.48099 0.35728
 N1744 N 0.43163 0.48226 0.33687
 C1745 C 0.41126 0.50283 0.30801
 C1746 C 0.40072 0.50301 0.29073
 C1747 C 0.45062 0.49792 0.39284
 C1748 C 0.45824 0.49709 0.41160
 C1749 C 0.57848 0.00167 0.32934
 N1750 N 0.57482 -0.01742 0.34154
 N1751 N 0.56555 -0.01641 0.36213
 C1752 C 0.55975 0.00373 0.37115
 N1753 N 0.56337 0.02283 0.35894
 N1754 N 0.57264 0.02181 0.33835
 C1755 C 0.58978 0.00072 0.30786
 C1756 C 0.60010 0.00017 0.29022
 C1757 C 0.55030 0.00480 0.39351
 C1758 C 0.54240 0.00542 0.41232
 C1759 C 0.07797 0.50184 0.82792
 N1760 N 0.07150 0.48254 0.83846
 N1761 N 0.06228 0.48311 0.85909
 C1762 C 0.05934 0.50298 0.86982
 N1763 N 0.06577 0.52229 0.85927
 N1764 N 0.07500 0.52172 0.83864
 C1765 C 0.08921 0.50113 0.80639
 C1766 C 0.09952 0.50068 0.78874
 C1767 C 0.04984 0.50346 0.89218
 C1768 C 0.04177 0.50344 0.91095
 C1769 C 0.08592 0.49597 0.66431
 N1770 N 0.06711 0.48342 0.66179
 N1771 N 0.05737 0.48193 0.64166
 C1772 C 0.06617 0.49290 0.62342
 N1773 N 0.08500 0.50541 0.62592
 N1774 N 0.09475 0.50691 0.64605
 C1775 C 0.09602 0.49803 0.68615
 C1776 C 0.10412 0.49969 0.70467
 C1777 C 0.05510 0.49217 0.60195
 C1778 C 0.04563 0.49224 0.58400
 C1779 C 0.58523 0.99627 0.16601
 N1780 N 0.56824 0.98148 0.16298
 N1781 N 0.55821 0.98003 0.14300
 C1782 C 0.56487 0.99332 0.12542
 N1783 N 0.58187 1.00810 0.12844
 N1784 N 0.59190 1.00955 0.14843
 C1785 C 0.59563 0.99817 0.18772
 C1786 C 0.60398 0.99966 0.20614
 C1787 C 0.55366 0.99229 0.10405
 C1788 C 0.54426 0.99196 0.08608
 C1789 C 0.41325 0.50201 0.16579
 N1790 N 0.42276 0.52113 0.15754
 N1791 N 0.43266 0.52140 0.13720
 C1792 C 0.43335 0.50255 0.12449
 N1793 N 0.42380 0.48344 0.13272
 N1794 N 0.41391 0.48317 0.15307
 C1795 C 0.40331 0.50152 0.18802
 C1796 C 0.39537 0.50116 0.20688
 C1797 C 0.44460 0.50264 0.10288
 C1798 C 0.45427 0.50248 0.08484
 C1799 C -0.08741 0.00225 0.66628
 N1800 N -0.08432 0.02176 0.65459
 N1801 N -0.07424 0.02167 0.63433
 C1802 C -0.06692 0.00207 0.62517
 N1803 N -0.07003 -0.01745 0.63685
 N1804 N -0.08011 -0.01736 0.65711
 C1805 C -0.09749 0.00244 0.68845
 C1806 C -0.10547 0.00264 0.70728
 C1807 C -0.05569 0.00202 0.60355
 C1808 C -0.04617 0.00203 0.58543
 C1809 C -0.17082 0.92423 1.00250
 N1810 N -0.16391 0.93379 0.98271
 N1811 N -0.14356 0.94305 0.98092
 C1812 C -0.12951 0.94290 0.99884
 N1813 N -0.13644 0.93340 1.01865
 N1814 N -0.15678 0.92414 1.02043
 C1815 C -0.19186 0.91268 1.00381
 C1816 C -0.20907 0.90208 1.00425
 C1817 C -0.10735 0.95210 0.99679
 C1818 C -0.08860 0.95965 0.99552
 C1819 C 0.32636 0.42661 0.50192
 N1820 N 0.33386 0.43542 0.48200
 N1821 N 0.35392 0.44533 0.48065
 C1822 C 0.36708 0.44663 0.49918
 N1823 N 0.35955 0.43788 0.51911
 N1824 N 0.33949 0.42797 0.52046
 C1825 C 0.30569 0.41436 0.50287
 C1826 C 0.28881 0.40326 0.50305
 C1827 C 0.38909 0.45626 0.49757
 C1828 C 0.40778 0.46398 0.49663
 C1829 C 0.32995 0.57429 0.00218
 N1830 N 0.34121 0.56913 -0.01718
 N1831 N 0.36189 0.56019 -0.01641
 C1832 C 0.37198 0.55624 0.00373
 N1833 N 0.36071 0.56136 0.02310
 N1834 N 0.34003 0.57030 0.02233
 C1835 C 0.30833 0.58528 0.00134
 C1836 C 0.29063 0.59542 0.00081
 C1837 C 0.39441 0.54699 0.00447
 C1838 C 0.41323 0.53913 0.00472
 C1839 C -0.17144 0.07839 0.50098
 N1840 N -0.15958 0.07535 0.48150
 N1841 N -0.13913 0.06585 0.48188
 C1842 C -0.12989 0.05920 0.50176
 N1843 N -0.14176 0.06221 0.52124
 N1844 N -0.16221 0.07171 0.52085
 C1845 C -0.19277 0.08996 0.50073
 C1846 C -0.21024 0.10052 0.50071
 C1847 C -0.10764 0.04952 0.50220
 C1848 C -0.08892 0.04143 0.50244
 C1849 C 0.66789 0.08801 0.49812
 N1850 N 0.66454 0.07101 0.48343
 N1851 N 0.64449 0.06108 0.48232
 C1852 C 0.62715 0.06783 0.49587
 N1853 N 0.63050 0.08485 0.51053
 N1854 N 0.65055 0.09478 0.51165
 C1855 C 0.68973 0.09824 0.49973
 C1856 C 0.70827 0.10639 0.50105
 C1857 C 0.60567 0.05674 0.49513
 C1858 C 0.58764 0.04742 0.49494
 C1859 C 0.16602 0.58213 0.99522
 N1860 N 0.16350 0.56276 0.98363
 N1861 N 0.14325 0.55333 0.98200
 C1862 C 0.12487 0.56299 0.99186
 N1863 N 0.12738 0.58238 1.00343
 N1864 N 0.14763 0.59182 1.00507
 C1865 C 0.18797 0.59199 0.99739
 C1866 C 0.20655 0.59996 0.99914
 C1867 C 0.10320 0.55230 0.99097
 C1868 C 0.08509 0.54314 0.99088
 C1869 C 0.16428 0.41340 0.50142
 N1870 N 0.15253 0.41603 0.48201
 N1871 N 0.13225 0.42590 0.48226
 C1872 C 0.12313 0.43346 0.50191
 N1873 N 0.13486 0.43080 0.52132
 N1874 N 0.15514 0.42093 0.52108
 C1875 C 0.18651 0.40368 0.50102
 C1876 C 0.20540 0.39603 0.50074
 C1877 C 0.10162 0.44470 0.50204
 C1878 C 0.08365 0.45435 0.50196
 C1879 C 0.66636 0.91423 0.00005
 N1880 N 0.65151 0.91016 0.01719
 N1881 N 0.63111 0.91976 0.01714
 C1882 C 0.62497 0.93374 -0.00004
 N1883 N 0.63981 0.93780 -0.01719
 N1884 N 0.66021 0.92819 -0.01714
 C1885 C 0.68856 0.90447 0.00044
 C1886 C 0.70737 0.89663 0.00088
 C1887 C 0.60322 0.94450 0.00017
 C1888 C 0.58503 0.95369 0.00043
 C1889 C 0.00306 0.82747 0.92505
 N1890 N 0.02118 0.84123 0.92523
 N1891 N 0.01956 0.86153 0.93445
 C1892 C -0.00025 0.86871 0.94365
 N1893 N -0.01836 0.85493 0.94353
 N1894 N -0.01674 0.83462 0.93431
 C1895 C 0.00424 0.80643 0.91352
 C1896 C 0.00462 0.78925 0.90294
 C1897 C -0.00212 0.89085 0.95283
 C1898 C -0.00327 0.90956 0.96035
 C1899 C 0.49846 0.33116 0.42657
 N1900 N 0.51693 0.34434 0.42810
 N1901 N 0.51537 0.36447 0.43771
 C1902 C 0.49530 0.37203 0.44597
 N1903 N 0.47684 0.35883 0.44450
 N1904 N 0.47840 0.33870 0.43490
 C1905 C 0.49968 0.31037 0.41465
 C1906 C 0.50007 0.29337 0.40379
 C1907 C 0.49351 0.39408 0.45535
 C1908 C 0.49249 0.41279 0.46289
 C1909 C 0.00217 0.33013 0.57527
 N1910 N 0.02227 0.34035 0.57154
 N1911 N 0.02302 0.36094 0.56242
 C1912 C 0.00369 0.37193 0.55688
 N1913 N -0.01640 0.36169 0.56057
 N1914 N -0.01715 0.34111 0.56968
 C1915 C 0.00133 0.30865 0.58644
 C1916 C 0.00083 0.29106 0.59670
 C1917 C 0.00438 0.39425 0.54753
 C1918 C 0.00453 0.41300 0.53963
 C1919 C 0.50061 0.82732 0.07637
 N1920 N 0.52054 0.83673 0.07015
 N1921 N 0.52102 0.85730 0.06099
 C1922 C 0.50159 0.86911 0.05788
 N1923 N 0.48167 0.85968 0.06406
 N1924 N 0.48119 0.83910 0.07322
 C1925 C 0.50024 0.80587 0.08763
 C1926 C 0.50012 0.78830 0.09798
 C1927 C 0.50212 0.89143 0.04852
 C1928 C 0.50240 0.91020 0.04065
 C1929 C 0.49631 0.66427 0.08484
 N1930 N 0.48401 0.66157 0.06587
 N1931 N 0.48254 0.64143 0.05634
 C1932 C 0.49329 0.62334 0.06553
 N1933 N 0.50556 0.62603 0.08452
 N1934 N 0.50703 0.64617 0.09405
 C1935 C 0.49831 0.68611 0.09475
 C1936 C 0.49991 0.70460 0.10274
 C1937 C 0.49257 0.60183 0.05473
 C1938 C 0.49265 0.58383 0.04551
 C1939 C -0.00211 0.16699 0.58304
 N1940 N 0.01672 0.15425 0.57984
 N1941 N 0.01539 0.13415 0.57019
 C1942 C -0.00480 0.12620 0.56341
 N1943 N -0.02364 0.13894 0.56662
 N1944 N -0.02231 0.15903 0.57628
 C1945 C -0.00060 0.18886 0.59298
 C1946 C 0.00060 0.20735 0.60105
 C1947 C -0.00606 0.10468 0.55272
 C1948 C -0.00656 0.08660 0.54368
 C1949 C 0.49976 0.16912 0.41549
 N1950 N 0.51985 0.15883 0.41955
 N1951 N 0.52057 0.13857 0.42943
 C1952 C 0.50121 0.12802 0.43558
 N1953 N 0.48112 0.13830 0.43150
 N1954 N 0.48040 0.15855 0.42162
 C1955 C 0.49902 0.19125 0.40558
 C1956 C 0.49851 0.21003 0.39769
 C1957 C 0.50198 0.10640 0.44661
 C1958 C 0.50253 0.08829 0.45597
 C1959 C 0.00344 0.66468 0.91469
 N1960 N 0.02251 0.65645 0.92433
 N1961 N 0.02276 0.63601 0.93383
 C1962 C 0.00394 0.62318 0.93399
 N1963 N -0.01513 0.63140 0.92433
 N1964 N -0.01537 0.65184 0.91483
 C1965 C 0.00301 0.68694 0.90505
 C1966 C 0.00271 0.70578 0.89728
 C1967 C 0.00401 0.60142 0.94476
 C1968 C 0.00387 0.58325 0.95401
 C1969 C 0.23603 0.66988 0.91984
 N1970 N 0.22953 0.65735 0.90206
 N1971 N 0.22874 0.66633 0.88132
 C1972 C 0.23451 0.68812 0.87771
 N1973 N 0.24093 0.70068 0.89550
 N1974 N 0.24172 0.69170 0.91624
 C1975 C 0.23919 0.65950 0.94166
 C1976 C 0.24305 0.65005 0.95938
 C1977 C 0.23527 0.69743 0.85517
 C1978 C 0.23669 0.70554 0.83641
 C1979 C 0.73423 0.17246 0.42236
 N1980 N 0.72743 0.15961 0.40492
 N1981 N 0.72657 0.16813 0.38400
 C1982 C 0.73258 0.18976 0.37982
 N1983 N 0.73930 0.20265 0.39726
 N1984 N 0.74017 0.19412 0.41818
 C1985 C 0.73767 0.16249 0.44434
 C1986 C 0.74198 0.15340 0.46215
 C1987 C 0.73320 0.19856 0.35705
 C1988 C 0.73438 0.20619 0.33807
 C1989 C 0.24688 0.32529 0.42162
 N1990 N 0.26246 0.30901 0.41726
 N1991 N 0.26428 0.30022 0.39669
 C1992 C 0.25070 0.30761 0.37982
 N1993 N 0.23508 0.32383 0.38419
 N1994 N 0.23327 0.33262 0.40476
 C1995 C 0.24664 0.33642 0.44298
 C1996 C 0.24775 0.34674 0.46032
 C1997 C 0.25290 0.29853 0.35755
 C1998 C 0.25421 0.29095 0.33878
 C1999 C 0.74751 0.82369 0.92431
 N2000 N 0.76316 0.80749 0.91992
 N2001 N 0.76497 0.79869 0.89936
 C2002 C 0.75129 0.80598 0.88253
 N2003 N 0.73558 0.82211 0.88693
 N2004 N 0.73378 0.83091 0.90749
 C2005 C 0.74746 0.83502 0.94553
 C2006 C 0.74881 0.84556 0.96271
 C2007 C 0.75373 0.79717 0.86020
 C2008 C 0.75541 0.78991 0.84133
 C2009 C 0.73574 0.81952 0.07818
 N2010 N 0.74803 0.80054 0.08203
 N2011 N 0.74673 0.78991 0.10196
 C2012 C 0.73311 0.79796 0.11863
 N2013 N 0.72072 0.81687 0.11473
 N2014 N 0.72202 0.82749 0.09481
 C2015 C 0.73940 0.83253 0.05794
 C2016 C 0.74354 0.84418 0.04165
 C2017 C 0.73386 0.78818 0.14088
 C2018 C 0.73549 0.78076 0.15983
 C2019 C 0.23556 0.31876 0.57599
 N2020 N 0.24859 0.30035 0.58017
 N2021 N 0.24738 0.28977 0.60013
 C2022 C 0.23312 0.29729 0.61652
 N2023 N 0.21999 0.31563 0.61229
 N2024 N 0.22120 0.32621 0.59233
 C2025 C 0.23901 0.33183 0.55573
 C2026 C 0.24294 0.34359 0.53947
 C2027 C 0.23383 0.28761 0.63882
 C2028 C 0.23537 0.28029 0.65783
 C2029 C 0.74260 0.17810 0.57746
 N2030 N 0.73055 0.16972 0.59523
 N2031 N 0.73210 0.17890 0.61562
 C2032 C 0.74589 0.19664 0.61895
 N2033 N 0.75789 0.20508 0.60117
 N2034 N 0.75634 0.19589 0.58078
 C2035 C 0.74310 0.16651 0.55622
 C2036 C 0.74516 0.15586 0.53903
 C2037 C 0.74825 0.20589 0.64119
 C2038 C 0.74999 0.21338 0.65999
 C2039 C 0.24243 0.67579 0.07755
 N2040 N 0.22926 0.66863 0.09506
 N2041 N 0.23075 0.67815 0.11529
 C2042 C 0.24559 0.69500 0.11872
 N2043 N 0.25871 0.70222 0.10120
 N2044 N 0.25722 0.69270 0.08097
 C2045 C 0.24286 0.66373 0.05660
 C2046 C 0.24478 0.65262 0.03971
 C2047 C 0.24788 0.70450 0.14084
 C2048 C 0.24955 0.71214 0.15958
 C2049 C 0.18061 0.57697 0.74106
 N2050 N 0.17386 0.59422 0.72746
 N2051 N 0.18318 0.61445 0.72919
 C2052 C 0.19942 0.61813 0.74468
 N2053 N 0.20624 0.60086 0.75822
 N2054 N 0.19691 0.58062 0.75649
 C2055 C 0.16854 0.55610 0.74130
 C2056 C 0.15735 0.53930 0.74313
 C2057 C 0.20857 0.64026 0.74727
 C2058 C 0.21586 0.65904 0.74914
 C2059 C 0.67870 0.07490 0.24010
 N2060 N 0.67021 0.09240 0.22789
 N2061 N 0.67918 0.11282 0.22940
 C2062 C 0.69679 0.11643 0.24333
 N2063 N 0.70535 0.09891 0.25548
 N2064 N 0.69638 0.07849 0.25395
 C2065 C 0.66711 0.05376 0.24092
 C2066 C 0.65637 0.03673 0.24334
 C2067 C 0.70553 0.13873 0.24594
 C2068 C 0.71249 0.15761 0.24804
 C2069 C 0.82026 0.07783 0.73670
 N2070 N 0.80072 0.08177 0.74819
 N2071 N 0.79064 0.10188 0.74701
 C2072 C 0.79982 0.11869 0.73433
 N2073 N 0.81930 0.11472 0.72275
 N2074 N 0.82938 0.09461 0.72392
 C2075 C 0.83253 0.05716 0.74019
 C2076 C 0.84352 0.04046 0.74426
 C2077 C 0.79030 0.14098 0.73502
 C2078 C 0.78294 0.15989 0.73650
 C2079 C 0.31823 0.57657 0.23620
 N2080 N 0.29949 0.58081 0.24888
 N2081 N 0.28926 0.60084 0.24774
 C2082 C 0.29748 0.61727 0.23392
 N2083 N 0.31614 0.61299 0.22115
 N2084 N 0.32637 0.59295 0.22228
 C2085 C 0.33091 0.55616 0.23966
 C2086 C 0.34235 0.53977 0.24367
 C2087 C 0.28804 0.63957 0.23466
 C2088 C 0.28085 0.65853 0.23618
 C2089 C 0.32326 0.42225 0.24712
 N2090 N 0.33104 0.40529 0.23394
 N2091 N 0.32221 0.38481 0.23580
 C2092 C 0.30547 0.38060 0.25105
 N2093 N 0.29763 0.39756 0.26420
 N2094 N 0.30647 0.41806 0.26233
 C2095 C 0.33446 0.44354 0.24695
 C2096 C 0.34484 0.46080 0.24822
 C2097 C 0.29638 0.35840 0.25336
 C2098 C 0.28881 0.33968 0.25478
 C2099 C 0.82327 0.92396 0.74621
 N2100 N 0.83203 0.90698 0.73366
 N2101 N 0.82361 0.88631 0.73546
 C2102 C 0.80632 0.88195 0.75003
 N2103 N 0.79750 0.89894 0.76252
 N2104 N 0.80592 0.91961 0.76071
 C2105 C 0.83410 0.94544 0.74636
 C2106 C 0.84424 0.96282 0.74799
 C2107 C 0.79782 0.85952 0.75252
 C2108 C 0.79074 0.84063 0.75433
 C2109 C 0.67259 0.91889 0.23371
 N2110 N 0.69466 0.91517 0.23843
 N2111 N 0.70335 0.89443 0.23759
 C2112 C 0.69023 0.87675 0.23209
 N2113 N 0.66818 0.88048 0.22728
 N2114 N 0.65949 0.90122 0.22811
 C2115 C 0.66258 0.94070 0.23714
 C2116 C 0.65346 0.95841 0.24133
 C2117 C 0.69923 0.85424 0.23303
 C2118 C 0.70711 0.83552 0.23467
 C2119 C 0.17266 0.41979 0.73290
 N2120 N 0.19460 0.41585 0.73803
 N2121 N 0.20315 0.39505 0.73713
 C2122 C 0.19002 0.37755 0.73117
 N2123 N 0.16810 0.38150 0.72595
 N2124 N 0.15955 0.40230 0.72684
 C2125 C 0.16275 0.44164 0.73635
 C2126 C 0.15365 0.45937 0.74051
 C2127 C 0.19883 0.35497 0.73202
 C2128 C 0.20658 0.33619 0.73359
 C2129 C 0.07894 0.73476 0.82052
 N2130 N 0.08294 0.74665 0.80120
 N2131 N 0.10298 0.74533 0.79081
 C2132 C 0.11963 0.73212 0.79943
 N2133 N 0.11559 0.72014 0.81868
 N2134 N 0.09555 0.72145 0.82906
 C2135 C 0.05848 0.73839 0.83321
 C2136 C 0.04200 0.74249 0.84463
 C2137 C 0.14194 0.73278 0.78975
 C2138 C 0.16089 0.73433 0.78231
 C2139 C 0.57373 0.23957 0.32011
 N2140 N 0.57854 0.25295 0.30199
 N2141 N 0.59847 0.25134 0.29145
 C2142 C 0.61423 0.23631 0.29871
 N2143 N 0.60938 0.22285 0.31675
 N2144 N 0.58945 0.22446 0.32730
 C2145 C 0.55345 0.24320 0.33308
 C2146 C 0.53712 0.24720 0.34474
 C2147 C 0.63652 0.23631 0.28896
 C2148 C 0.65554 0.23711 0.28156
 C2149 C 0.57757 0.74142 0.17877
 N2150 N 0.58126 0.75677 0.19510
 N2151 N 0.60151 0.75838 0.20453
 C2152 C 0.61876 0.74480 0.19779
 N2153 N 0.61505 0.72939 0.18153
 N2154 N 0.59481 0.72779 0.17210
 C2155 C 0.55666 0.74166 0.16669
 C2156 C 0.53979 0.74339 0.15555
 C2157 C 0.64090 0.74721 0.20711
 C2158 C 0.65968 0.74893 0.21455
 C2159 C 0.07736 0.24320 0.67750
 N2160 N 0.08119 0.25842 0.69393
 N2161 N 0.10149 0.25990 0.70325
 C2162 C 0.11867 0.24633 0.69629
 N2163 N 0.11483 0.23105 0.67994
 N2164 N 0.09452 0.22958 0.67062
 C2165 C 0.05643 0.24366 0.66550
 C2166 C 0.03958 0.24561 0.65438
 C2167 C 0.14086 0.24861 0.70549
 C2168 C 0.15966 0.25021 0.71287
 C2169 C 0.92021 0.23482 0.67079
 N2170 N 0.90243 0.22880 0.65800
 N2171 N 0.88174 0.22773 0.66700
 C2172 C 0.87818 0.23272 0.68907
 N2173 N 0.89598 0.23864 0.70189
 N2174 N 0.91666 0.23972 0.69289
 C2175 C 0.94193 0.23842 0.66044
 C2176 C 0.95956 0.24267 0.65102
 C2177 C 0.85570 0.23341 0.69837
 C2178 C 0.83699 0.23488 0.70648
 C2179 C 0.42021 0.73196 0.17225
 N2180 N 0.40262 0.72568 0.15932
 N2181 N 0.38182 0.72470 0.16806
 C2182 C 0.37795 0.73004 0.19000
 N2183 N 0.39555 0.73622 0.20296
 N2184 N 0.41636 0.73720 0.19421
 C2185 C 0.44202 0.73558 0.16209
 C2186 C 0.45969 0.73989 0.15278
 C2187 C 0.35534 0.73091 0.19897
 C2188 C 0.33653 0.73257 0.20681
 C2189 C 0.41949 0.25031 0.32558
 N2190 N 0.40260 0.23677 0.33301
 N2191 N 0.38210 0.23849 0.32408
 C2192 C 0.37782 0.25394 0.30761
 N2193 N 0.39472 0.26745 0.30012
 N2194 N 0.41522 0.26572 0.30906
 C2195 C 0.44077 0.25019 0.33688
 C2196 C 0.45803 0.25145 0.34733
 C2197 C 0.35562 0.25603 0.29838
 C2198 C 0.33690 0.25722 0.29068
 C2199 C 0.92423 0.74599 0.82483
 N2200 N 0.90710 0.73295 0.83264
 N2201 N 0.88657 0.73493 0.82383
 C2202 C 0.88250 0.75014 0.80708
 N2203 N 0.89963 0.76313 0.79921
 N2204 N 0.92016 0.76115 0.80802
 C2205 C 0.94552 0.74578 0.83610
 C2206 C 0.96278 0.74704 0.84656
 C2207 C 0.86021 0.75274 0.79816
 C2208 C 0.84140 0.75453 0.79079
   
