data_POSCAR
  _audit_creation_date              2014-09-24
  _audit_creation_method            'ToBaCCo'
  _symmetry_space_group_name_H-M    'P1'
  _symmetry_Int_Tables_number       1
  _symmetry_cell_setting            triclinic
  loop_
  _symmetry_equiv_pos_as_xyz
 x,y,z
_cell_length_a 71.6779
_cell_length_b 71.6147
_cell_length_c 71.6853
_cell_angle_alpha 90.001400
_cell_angle_beta 89.935800
_cell_angle_gamma 90.036200
loop_
  _atom_site_label
  _atom_site_type_symbol
  _atom_site_fract_x
  _atom_site_fract_y
  _atom_site_fract_z
C1 C 0.36040 0.33635 0.33661
 C2 C 0.35241 0.35232 0.32865
 C3 C 0.33644 0.36030 0.33663
 C4 C 0.32848 0.35231 0.35262
 C5 C 0.33646 0.33634 0.36059
 C6 C 0.35243 0.32838 0.35259
 H7 H 0.35846 0.35838 0.31617
 H8 H 0.31602 0.35837 0.35869
 H9 H 0.35849 0.31591 0.35865
 C10 C 0.36057 0.83654 -0.16405
 C11 C 0.35250 0.85248 -0.17203
 C12 C 0.33649 0.86040 -0.16404
 C13 C 0.32857 0.85237 -0.14805
 C14 C 0.33661 0.83644 -0.14007
 C15 C 0.35261 0.82854 -0.14806
 H16 H 0.35855 0.85858 -0.18451
 H17 H 0.31606 0.85834 -0.14193
 H18 H 0.35870 0.81609 -0.14196
 C19 C 0.86011 0.33684 -0.16391
 C20 C 0.85212 0.32888 -0.14793
 C21 C 0.83618 0.33687 -0.13992
 C22 C 0.82824 0.35287 -0.14787
 C23 C 0.83621 0.36087 -0.16386
 C24 C 0.85217 0.35284 -0.17186
 H25 H 0.85816 0.31638 -0.14189
 H26 H 0.81579 0.35893 -0.14173
 H27 H 0.85828 0.35888 -0.18434
 C28 C 0.86010 0.83687 0.33642
 C29 C 0.85205 0.85279 0.32843
 C30 C 0.83604 0.86074 0.33640
 C31 C 0.82812 0.85274 0.35241
 C32 C 0.83617 0.83682 0.36041
 C33 C 0.85216 0.82890 0.35242
 H34 H 0.85812 0.85883 0.31593
 H35 H 0.81563 0.85873 0.35852
 H36 H 0.85828 0.81647 0.35850
 C37 C 0.63959 0.66363 0.33679
 C38 C 0.64756 0.64765 0.32881
 C39 C 0.66350 0.63964 0.33679
 C40 C 0.67143 0.64760 0.35278
 C41 C 0.66347 0.66357 0.36077
 C42 C 0.64754 0.67157 0.35278
 H43 H 0.64152 0.64161 0.31633
 H44 H 0.68388 0.64151 0.35885
 H45 H 0.64148 0.68405 0.35885
 C46 C 0.63968 0.16321 -0.16390
 C47 C 0.64772 0.14729 -0.17194
 C48 C 0.66373 0.13933 -0.16401
 C49 C 0.67165 0.14730 -0.14800
 C50 C 0.66361 0.16322 -0.13996
 C51 C 0.64762 0.17115 -0.14790
 H52 H 0.64165 0.14128 -0.18443
 H53 H 0.68414 0.14130 -0.14193
 H54 H 0.64151 0.18358 -0.14179
 C55 C 0.13980 0.66321 -0.16388
 C56 C 0.14774 0.64722 -0.17186
 C57 C 0.16368 0.63917 -0.16389
 C58 C 0.17164 0.64714 -0.14789
 C59 C 0.16370 0.66314 -0.13992
 C60 C 0.14778 0.67115 -0.14791
 H61 H 0.14164 0.64120 -0.18434
 H62 H 0.18408 0.64107 -0.14178
 H63 H 0.14175 0.68365 -0.14184
 C64 C 0.13952 0.16349 0.33643
 C65 C 0.14754 0.14757 0.32839
 C66 C 0.16351 0.13958 0.33633
 C67 C 0.17143 0.14751 0.35233
 C68 C 0.16342 0.16343 0.36039
 C69 C 0.14745 0.17141 0.35244
 H70 H 0.14151 0.14155 0.31589
 H71 H 0.18391 0.14145 0.35837
 H72 H 0.14136 0.18384 0.35856
 C73 C 0.63966 0.33664 0.66368
 C74 C 0.64768 0.32869 0.64772
 C75 C 0.66368 0.33667 0.63978
 C76 C 0.67164 0.35263 0.64780
 C77 C 0.66364 0.36060 0.66376
 C78 C 0.64764 0.35260 0.67169
 H79 H 0.64162 0.31622 0.64162
 H80 H 0.68413 0.35870 0.64177
 H81 H 0.64155 0.35865 0.68416
 C82 C 0.63936 0.83662 1.16410
 C83 C 0.64732 0.82873 1.14806
 C84 C 0.66329 0.83674 1.14009
 C85 C 0.67129 0.85267 1.14813
 C86 C 0.66336 0.86059 1.16416
 C87 C 0.64738 0.85257 1.17213
 H88 H 0.64127 0.81628 1.14191
 H89 H 0.68377 0.85872 1.14203
 H90 H 0.64133 0.85859 1.18465
 C91 C 0.13897 0.33615 1.16378
 C92 C 0.14695 0.32820 1.14777
 C93 C 0.16293 0.33618 1.13979
 C94 C 0.17091 0.35214 1.14779
 C95 C 0.16296 0.36011 1.16378
 C96 C 0.14698 0.35213 1.17176
 H97 H 0.14090 0.31573 1.14165
 H98 H 0.18339 0.35821 1.14173
 H99 H 0.14096 0.35822 1.18425
 C100 C 0.13961 0.83645 0.66388
 C101 C 0.14758 0.82855 0.64785
 C102 C 0.16356 0.83654 0.63989
 C103 C 0.17157 0.85246 0.64793
 C104 C 0.16364 0.86040 0.66396
 C105 C 0.14764 0.85240 0.67192
 H106 H 0.14152 0.81611 0.64169
 H107 H 0.18406 0.85851 0.64184
 H108 H 0.14159 0.85842 0.68443
 C109 C 0.36036 0.66376 0.66344
 C110 C 0.35236 0.64778 0.67141
 C111 C 0.33640 0.63978 0.66344
 C112 C 0.32848 0.64775 0.64745
 C113 C 0.33647 0.66373 0.63947
 C114 C 0.35242 0.67171 0.64746
 H115 H 0.35838 0.64173 0.68389
 H116 H 0.31602 0.64168 0.64139
 H117 H 0.35850 0.68419 0.64139
 C118 C 0.36037 0.16331 1.16332
 C119 C 0.35238 0.17130 1.14739
 C120 C 0.33640 0.16334 1.13943
 C121 C 0.32843 0.14734 1.14740
 C122 C 0.33641 0.13932 1.16335
 C123 C 0.35240 0.14732 1.17129
 H124 H 0.35844 0.18379 1.14133
 H125 H 0.31595 0.14131 1.14132
 H126 H 0.35851 0.14127 1.18375
 C127 C 0.86030 0.66385 1.16328
 C128 C 0.85233 0.67185 1.14734
 C129 C 0.83636 0.66388 1.13936
 C130 C 0.82839 0.64788 1.14731
 C131 C 0.83635 0.63987 1.16325
 C132 C 0.85232 0.64785 1.17122
 H133 H 0.85839 0.68434 1.14130
 H134 H 0.81591 0.64183 1.14125
 H135 H 0.85837 0.64176 1.18367
 C136 C 0.86075 0.16356 0.66378
 C137 C 0.85279 0.17152 0.64780
 C138 C 0.83682 0.16354 0.63983
 C139 C 0.82881 0.14758 0.64782
 C140 C 0.83674 0.13959 0.66380
 C141 C 0.85272 0.14758 0.67177
 H142 H 0.85884 0.18399 0.64168
 H143 H 0.81634 0.14155 0.64172
 H144 H 0.85877 0.14151 0.68426
 C145 C 0.33633 0.36038 0.66369
 C146 C 0.32838 0.35235 0.64775
 C147 C 0.33636 0.33637 0.63979
 C148 C 0.35232 0.32843 0.64778
 C149 C 0.36029 0.33644 0.66373
 C150 C 0.35229 0.35242 0.67167
 H151 H 0.31591 0.35839 0.64168
 H152 H 0.35839 0.31594 0.64174
 H153 H 0.35834 0.35852 0.68412
 C154 C 0.33697 0.86050 0.16291
 C155 C 0.32900 0.85246 0.14698
 C156 C 0.33697 0.83647 0.13903
 C157 C 0.35294 0.82853 0.14700
 C158 C 0.36093 0.83655 0.16294
 C159 C 0.35295 0.85255 0.17087
 H160 H 0.31653 0.85850 0.14092
 H161 H 0.35901 0.81604 0.14097
 H162 H 0.35901 0.85865 0.18332
 C163 C 0.83653 0.36039 0.16321
 C164 C 0.82857 0.35240 0.14725
 C165 C 0.83654 0.33643 0.13927
 C166 C 0.85250 0.32846 0.14723
 C167 C 0.86048 0.33644 0.16319
 C168 C 0.85249 0.35242 0.17116
 H169 H 0.81610 0.35846 0.14120
 H170 H 0.85856 0.31599 0.14117
 H171 H 0.85855 0.35849 0.18363
 C172 C 0.83696 0.86095 0.66346
 C173 C 0.82898 0.85292 0.64753
 C174 C 0.83695 0.83693 0.63956
 C175 C 0.85293 0.82900 0.64753
 C176 C 0.86092 0.83701 0.66346
 C177 C 0.85294 0.85300 0.67141
 H178 H 0.81651 0.85896 0.64148
 H179 H 0.85899 0.81651 0.64148
 H180 H 0.85901 0.85910 0.68385
 C181 C 0.66352 0.63980 0.66434
 C182 C 0.67154 0.64771 0.64835
 C183 C 0.66360 0.66364 0.64027
 C184 C 0.64760 0.67164 0.64817
 C185 C 0.63957 0.66374 0.66416
 C186 C 0.64753 0.64781 0.67223
 H187 H 0.68403 0.64162 0.64235
 H188 H 0.64155 0.68408 0.64203
 H189 H 0.64143 0.64181 0.68472
 C190 C 0.66351 0.13901 0.16342
 C191 C 0.64755 0.14702 0.17138
 C192 C 0.63960 0.16300 0.16340
 C193 C 0.64761 0.17095 0.14743
 C194 C 0.66357 0.16296 0.13945
 C195 C 0.67150 0.14698 0.14744
 H196 H 0.64147 0.14098 0.18386
 H197 H 0.64157 0.18343 0.14135
 H198 H 0.68397 0.14089 0.14138
 C199 C 0.16331 0.63948 0.16346
 C200 C 0.14735 0.64751 0.17142
 C201 C 0.13942 0.66350 0.16343
 C202 C 0.14743 0.67142 0.14744
 C203 C 0.16339 0.66341 0.13948
 C204 C 0.17131 0.64742 0.14748
 H205 H 0.14127 0.64148 0.18390
 H206 H 0.14141 0.68391 0.14136
 H207 H 0.18377 0.64132 0.14143
 C208 C 0.16327 0.13872 0.66373
 C209 C 0.17126 0.14671 0.64776
 C210 C 0.16329 0.16267 0.63976
 C211 C 0.14730 0.17063 0.64773
 C212 C 0.13930 0.16266 0.66370
 C213 C 0.14728 0.14669 0.67168
 H214 H 0.18374 0.14066 0.64171
 H215 H 0.14124 0.18309 0.64165
 H216 H 0.14121 0.14063 0.68415
 C217 C 0.33652 0.63967 0.33632
 C218 C 0.32857 0.64768 0.35229
 C219 C 0.33656 0.66366 0.36025
 C220 C 0.35254 0.67161 0.35225
 C221 C 0.36051 0.66361 0.33628
 C222 C 0.35250 0.64764 0.32833
 H223 H 0.31609 0.64163 0.35837
 H224 H 0.35862 0.68409 0.35829
 H225 H 0.35855 0.64155 0.31586
 C226 C 0.33631 0.13901 0.83663
 C227 C 0.32832 0.14703 0.85257
 C228 C 0.33627 0.16303 0.86052
 C229 C 0.35225 0.17100 0.85253
 C230 C 0.36025 0.16300 0.83658
 C231 C 0.35229 0.14699 0.82865
 H232 H 0.31584 0.14097 0.85864
 H233 H 0.35830 0.18350 0.85856
 H234 H 0.35837 0.14090 0.81620
 C235 C 0.83690 0.63997 0.83685
 C236 C 0.82891 0.64804 0.85277
 C237 C 0.83686 0.66407 0.86066
 C238 C 0.85283 0.67202 0.85263
 C239 C 0.86083 0.66397 0.83671
 C240 C 0.85287 0.64793 0.82884
 H241 H 0.81644 0.64199 0.85887
 H242 H 0.85887 0.68455 0.85862
 H243 H 0.85894 0.64180 0.81640
 C244 C 0.83648 0.13914 0.33650
 C245 C 0.85244 0.14714 0.32850
 C246 C 0.86043 0.16312 0.33645
 C247 C 0.85247 0.17109 0.35244
 C248 C 0.83651 0.16310 0.36045
 C249 C 0.82854 0.14711 0.35249
 H250 H 0.85848 0.14108 0.31601
 H251 H 0.85853 0.18357 0.35849
 H252 H 0.81607 0.14103 0.35858
 C253 C 0.66355 0.36017 0.33668
 C254 C 0.64758 0.35218 0.32872
 C255 C 0.63959 0.33619 0.33668
 C256 C 0.64757 0.32822 0.35264
 C257 C 0.66353 0.33619 0.36061
 C258 C 0.67150 0.35218 0.35264
 H259 H 0.64153 0.35825 0.31626
 H260 H 0.64150 0.31573 0.35870
 H261 H 0.68397 0.35825 0.35869
 C262 C 0.66334 0.86120 0.83647
 C263 C 0.64736 0.85321 0.82854
 C264 C 0.63935 0.83726 0.83655
 C265 C 0.64731 0.82932 0.85253
 C266 C 0.66329 0.83729 0.86047
 C267 C 0.67129 0.85324 0.85245
 H268 H 0.64131 0.85926 0.81606
 H269 H 0.64123 0.81686 0.85862
 H270 H 0.68377 0.85931 0.85848
 C271 C 0.16301 0.36027 0.83656
 C272 C 0.14706 0.35228 0.82857
 C273 C 0.13906 0.33628 0.83651
 C274 C 0.14701 0.32830 0.85248
 C275 C 0.16295 0.33627 0.86049
 C276 C 0.17094 0.35227 0.85253
 H277 H 0.14102 0.35835 0.81611
 H278 H 0.14093 0.31580 0.85852
 H279 H 0.18339 0.35834 0.85861
 C280 C 0.16362 0.86075 0.33631
 C281 C 0.14763 0.85278 0.32839
 C282 C 0.13961 0.83683 0.33640
 C283 C 0.14757 0.82888 0.35237
 C284 C 0.16356 0.83684 0.36031
 C285 C 0.17157 0.85278 0.35228
 H286 H 0.14157 0.85883 0.31592
 H287 H 0.14148 0.81642 0.35847
 H288 H 0.18406 0.85884 0.35831
 O289 O 0.22670 0.98204 0.25140
 O290 O 0.25236 1.01847 0.22571
 O291 O 0.25237 0.98205 0.22571
 O292 O 0.22669 1.01844 0.25139
 O293 O 0.24850 1.01847 0.27319
 O294 O 0.27418 0.98207 0.24751
 O295 O 0.27417 1.01849 0.24751
 O296 O 0.24851 0.98206 0.27319
 Cu297 Cu 0.23733 1.00025 0.23635
 Cu298 Cu 0.26354 1.00027 0.26255
 C299 C 0.23330 0.97586 0.26660
 C300 C 0.26757 1.02467 0.23231
 C301 C 0.26757 0.97587 0.23231
 C302 C 0.23329 1.02464 0.26659
 O303 O 0.27343 0.48194 0.74823
 O304 O 0.24774 0.51835 0.77388
 O305 O 0.24774 0.48193 0.77390
 O306 O 0.27343 0.51835 0.74822
 O307 O 0.25163 0.51833 0.72641
 O308 O 0.22594 0.48191 0.75209
 O309 O 0.22594 0.51832 0.75207
 O310 O 0.25163 0.48191 0.72642
 Cu311 Cu 0.26278 0.50014 0.76326
 Cu312 Cu 0.23658 0.50012 0.73705
 C313 C 0.26683 0.47573 0.73303
 C314 C 0.23254 0.52453 0.76727
 C315 C 0.23254 0.47572 0.76729
 C316 C 0.26683 0.52453 0.73301
 O317 O 0.72607 0.01757 0.24825
 O318 O 0.75168 -0.01882 0.27395
 O319 O 0.75173 0.01759 0.27389
 O320 O 0.72601 -0.01885 0.24832
 O321 O 0.74782 -0.01891 0.22648
 O322 O 0.77354 0.01753 0.25205
 O323 O 0.77350 -0.01888 0.25211
 O324 O 0.74789 0.01751 0.22641
 Cu325 Cu 0.73667 -0.00062 0.26330
 Cu326 Cu 0.76289 -0.00069 0.23706
 C327 C 0.73269 0.02372 0.23302
 C328 C 0.76688 -0.02504 0.26733
 C329 C 0.76694 0.02376 0.26725
 C330 C 0.73260 -0.02507 0.23312
 O331 O 0.72648 0.51828 0.74891
 O332 O 0.75223 0.48180 0.77432
 O333 O 0.75223 0.51822 0.77445
 O334 O 0.72651 0.48187 0.74876
 O335 O 0.74826 0.48198 0.72685
 O336 O 0.77398 0.51832 0.75255
 O337 O 0.77399 0.48191 0.75242
 O338 O 0.74823 0.51840 0.72701
 Cu339 Cu 0.73717 0.50003 0.76382
 Cu340 Cu 0.76331 0.50016 0.73750
 C341 C 0.73303 0.52454 0.73370
 C342 C 0.76742 0.47565 0.76763
 C343 C 0.76741 0.52445 0.76780
 C344 C 0.73307 0.47575 0.73350
 O345 O 0.22605 0.51805 0.24818
 O346 O 0.25174 0.48168 0.27382
 O347 O 0.25175 0.51809 0.27378
 O348 O 0.22604 0.48164 0.24823
 O349 O 0.24782 0.48161 0.22636
 O350 O 0.27354 0.51807 0.25190
 O351 O 0.27353 0.48165 0.25195
 O352 O 0.24784 0.51802 0.22631
 Cu353 Cu 0.23670 0.49987 0.26321
 Cu354 Cu 0.26288 0.49983 0.23692
 C355 C 0.23264 0.52422 0.23295
 C356 C 0.26694 0.47548 0.26718
 C357 C 0.26695 0.52428 0.26712
 C358 C 0.23262 0.47543 0.23302
 O359 O 0.75228 1.01895 0.72605
 O360 O 0.72651 0.98254 0.75168
 O361 O 0.72653 1.01895 0.75166
 O362 O 0.75226 0.98253 0.72607
 O363 O 0.77401 0.98255 0.74793
 O364 O 0.74828 1.01897 0.77352
 O365 O 0.74826 0.98256 0.77354
 O366 O 0.77403 1.01896 0.74791
 Cu367 Cu 0.73720 1.00074 0.73666
 Cu368 Cu 0.76334 1.00076 0.76293
 C369 C 0.76747 1.02514 0.73269
 C370 C 0.73307 0.97636 0.76690
 C371 C 0.73309 1.02515 0.76688
 C372 C 0.76744 0.97635 0.73271
 O373 O 0.74809 0.51822 0.27372
 O374 O 0.77373 0.48184 0.24798
 O375 O 0.77370 0.51825 0.24798
 O376 O 0.74812 0.48180 0.27372
 O377 O 0.72625 0.48177 0.25198
 O378 O 0.75184 0.51822 0.22623
 O379 O 0.75187 0.48181 0.22623
 O380 O 0.72623 0.51818 0.25198
 Cu381 Cu 0.76311 0.50003 0.26304
 Cu382 Cu 0.73684 0.49999 0.23691
 C383 C 0.73286 0.52438 0.26716
 C384 C 0.76709 0.47564 0.23280
 C385 C 0.76705 0.52443 0.23279
 C386 C 0.73290 0.47559 0.26716
 O387 O 0.24804 -0.01908 0.72639
 O388 O 0.27369 0.01734 0.75205
 O389 O 0.27373 -0.01907 0.75199
 O390 O 0.24802 0.01733 0.72643
 O391 O 0.22622 0.01727 0.74829
 O392 O 0.25194 -0.01913 0.77385
 O393 O 0.25189 0.01728 0.77391
 O394 O 0.22624 -0.01914 0.74825
 Cu395 Cu 0.26307 -0.00086 0.73701
 Cu396 Cu 0.23687 -0.00094 0.76328
 C397 C 0.23284 -0.02530 0.73302
 C398 C 0.26709 0.02351 0.76728
 C399 C 0.26714 -0.02529 0.76721
 C400 C 0.23281 0.02349 0.73307
 O401 O 0.24759 0.27355 0.98182
 O402 O 0.27333 0.24797 1.01817
 O403 O 0.27330 0.24793 0.98179
 O404 O 0.24760 0.27357 1.01820
 O405 O 0.22583 0.25167 1.01825
 O406 O 0.25153 0.22603 0.98185
 O407 O 0.25156 0.22607 1.01823
 O408 O 0.22582 0.25165 0.98187
 Cu409 Cu 0.26265 0.26297 0.99999
 Cu410 Cu 0.23649 0.23665 1.00005
 C411 C 0.23239 0.26689 0.97566
 C412 C 0.26676 0.23273 1.02438
 C413 C 0.26672 0.23268 0.97563
 C414 C 0.23241 0.26692 1.02441
 O415 O 0.24811 0.77411 0.48173
 O416 O 0.27377 0.74843 0.51808
 O417 O 0.27378 0.74844 0.48170
 O418 O 0.24810 0.77409 0.51812
 O419 O 0.22629 0.75223 0.51813
 O420 O 0.25197 0.72658 0.48172
 O421 O 0.25196 0.72657 0.51809
 O422 O 0.22630 0.75225 0.48175
 Cu423 Cu 0.26314 0.76347 0.49991
 Cu424 Cu 0.23693 0.73720 0.49992
 C425 C 0.23291 0.76748 0.47556
 C426 C 0.26717 0.73320 0.52427
 C427 C 0.26717 0.73321 0.47552
 C428 C 0.23289 0.76745 0.52431
 O429 O 0.27400 0.75154 -0.01853
 O430 O 0.24831 0.72590 0.01790
 O431 O 0.24831 0.72587 -0.01848
 O432 O 0.27401 0.75156 0.01785
 O433 O 0.25222 0.77341 0.01786
 O434 O 0.22652 0.74772 -0.01847
 O435 O 0.22652 0.74775 0.01791
 O436 O 0.25221 0.77339 -0.01851
 Cu437 Cu 0.26336 0.73651 -0.00032
 Cu438 Cu 0.23717 0.76277 -0.00030
 C439 C 0.26741 0.76677 -0.02471
 C440 C 0.23311 0.73253 0.02410
 C441 C 0.23311 0.73249 -0.02465
 C442 C 0.26743 0.76679 0.02403
 O443 O 0.27370 0.25152 0.48204
 O444 O 0.24803 0.22575 0.51840
 O445 O 0.24802 0.22583 0.48202
 O446 O 0.27369 0.25146 0.51842
 O447 O 0.25188 0.27329 0.51848
 O448 O 0.22621 0.24766 0.48209
 O449 O 0.22622 0.24758 0.51846
 O450 O 0.25189 0.27334 0.48211
 Cu451 Cu 0.26306 0.23644 0.50022
 Cu452 Cu 0.23685 0.26267 0.50029
 C453 C 0.26709 0.26675 0.47589
 C454 C 0.23282 0.23235 0.52461
 C455 C 0.23282 0.23245 0.47586
 C456 C 0.26708 0.26667 0.52464
 O457 O 0.75180 0.72703 0.98178
 O458 O 0.72604 0.75257 1.01821
 O459 O 0.72608 0.75265 0.98183
 O460 O 0.75175 0.72695 1.01816
 O461 O 0.77353 0.74884 1.01821
 O462 O 0.74786 0.77454 0.98188
 O463 O 0.74782 0.77446 1.01826
 O464 O 0.77358 0.74892 0.98183
 Cu465 Cu 0.73672 0.73759 0.99999
 Cu466 Cu 0.76289 0.76390 1.00005
 C467 C 0.76701 0.73369 0.97562
 C468 C 0.73262 0.76780 1.02444
 C469 C 0.73267 0.76790 0.97568
 C470 C 0.76694 0.73359 1.02436
 O471 O 0.74824 0.27356 0.48195
 O472 O 0.77396 0.24799 0.51832
 O473 O 0.77390 0.24789 0.48194
 O474 O 0.74830 0.27366 0.51832
 O475 O 0.72648 0.25181 0.51844
 O476 O 0.75209 0.22604 0.48206
 O477 O 0.75215 0.22614 0.51844
 O478 O 0.72642 0.25170 0.48207
 Cu479 Cu 0.76330 0.26298 0.50012
 Cu480 Cu 0.73708 0.23672 0.50027
 C481 C 0.73302 0.26691 0.47582
 C482 C 0.76737 0.23278 0.52457
 C483 C 0.76728 0.23265 0.47582
 C484 C 0.73310 0.26705 0.52457
 O485 O 0.77368 0.25181 -0.01851
 O486 O 0.74813 0.22597 0.01789
 O487 O 0.74808 0.22605 -0.01849
 O488 O 0.77373 0.25173 0.01787
 O489 O 0.75186 0.27350 0.01798
 O490 O 0.72621 0.24782 -0.01839
 O491 O 0.72626 0.24774 0.01799
 O492 O 0.75181 0.27358 -0.01840
 Cu493 Cu 0.76311 0.23669 -0.00032
 Cu494 Cu 0.73683 0.26286 -0.00020
 C495 C 0.76702 0.26703 -0.02464
 C496 C 0.73292 0.23253 0.02412
 C497 C 0.73285 0.23263 -0.02463
 C498 C 0.76710 0.26692 0.02411
 O499 O 0.77378 0.75200 0.48208
 O500 O 0.74821 0.72628 0.51855
 O501 O 0.74812 0.72630 0.48217
 O502 O 0.77387 0.75199 0.51846
 O503 O 0.75205 0.77381 0.51854
 O504 O 0.72630 0.74812 0.48225
 O505 O 0.72639 0.74811 0.51863
 O506 O 0.75196 0.77382 0.48217
 Cu507 Cu 0.76320 0.73694 0.50031
 Cu508 Cu 0.73697 0.76316 0.50041
 C509 C 0.76715 0.76722 0.47592
 C510 C 0.73302 0.73289 0.52479
 C511 C 0.73290 0.73290 0.47604
 C512 C 0.76728 0.76721 0.52467
 O513 O 0.98186 0.25182 0.22601
 O514 O 1.01821 0.22621 0.25172
 O515 O 0.98183 0.22615 0.25169
 O516 O 1.01824 0.25187 0.22604
 O517 O 1.01819 0.27372 0.24784
 O518 O 0.98177 0.24800 0.27349
 O519 O 1.01815 0.24806 0.27352
 O520 O 0.98180 0.27368 0.24781
 Cu521 Cu 1.00004 0.23681 0.23667
 Cu522 Cu 0.99997 0.26307 0.26286
 C523 C 0.97565 0.26704 0.23261
 C524 C 1.02437 0.23285 0.26693
 C525 C 0.97561 0.23277 0.26689
 C526 C 1.02441 0.26710 0.23264
 O527 O 0.48171 0.25175 0.72629
 O528 O 0.51810 0.22602 0.75184
 O529 O 0.48172 0.22599 0.75188
 O530 O 0.51809 0.25177 0.72624
 O531 O 0.51810 0.27355 0.74811
 O532 O 0.48172 0.24777 0.77375
 O533 O 0.51811 0.24780 0.77371
 O534 O 0.48172 0.27353 0.74816
 Cu535 Cu 0.49991 0.23668 0.73686
 Cu536 Cu 0.49991 0.26286 0.76314
 C537 C 0.47553 0.26695 0.73295
 C538 C 0.52429 0.23261 0.76705
 C539 C 0.47554 0.23256 0.76712
 C540 C 0.52428 0.26698 0.73288
 O541 O -0.01868 0.22589 0.74793
 O542 O 0.01770 0.25157 0.77359
 O543 O -0.01868 0.25166 0.77351
 O544 O 0.01771 0.22580 0.74801
 O545 O 0.01785 0.24757 0.72613
 O546 O -0.01854 0.27343 0.75163
 O547 O 0.01784 0.27334 0.75171
 O548 O -0.01854 0.24766 0.72605
 Cu549 Cu -0.00050 0.23653 0.76297
 Cu550 Cu -0.00033 0.26270 0.73667
 C551 C -0.02479 0.23248 0.73269
 C552 C 0.02395 0.26676 0.76695
 C553 C -0.02480 0.26688 0.76684
 C554 C 0.02397 0.23236 0.73280
 O555 O 0.51816 0.25158 0.27375
 O556 O 0.48179 0.22598 0.24802
 O557 O 0.51817 0.22594 0.24805
 O558 O 0.48178 0.25163 0.27372
 O559 O 0.48186 0.27349 0.25193
 O560 O 0.51825 0.24781 0.22627
 O561 O 0.48187 0.24785 0.22624
 O562 O 0.51824 0.27345 0.25197
 Cu563 Cu 0.49996 0.23658 0.26308
 Cu564 Cu 0.50006 0.26286 0.23690
 C565 C 0.52438 0.26681 0.26717
 C566 C 0.47564 0.23262 0.23282
 C567 C 0.52439 0.23257 0.23285
 C568 C 0.47563 0.26686 0.26713
 O569 O 1.01864 0.72656 0.75164
 O570 O 0.98232 0.75235 0.72607
 O571 O 1.01871 0.75228 0.72602
 O572 O 0.98226 0.72664 0.75170
 O573 O 0.98233 0.74845 0.77354
 O574 O 1.01877 0.77409 0.74785
 O575 O 0.98239 0.77416 0.74790
 O576 O 1.01871 0.74837 0.77348
 Cu577 Cu 1.00048 0.73725 0.73665
 Cu578 Cu 1.00056 0.76347 0.76290
 C579 C 1.02485 0.73314 0.76685
 C580 C 0.97618 0.76757 0.73270
 C581 C 1.02494 0.76748 0.73263
 C582 C 0.97610 0.73325 0.76693
 O583 O 0.51853 0.77401 0.24796
 O584 O 0.48206 0.74830 0.27352
 O585 O 0.51844 0.74835 0.27364
 O586 O 0.48215 0.77397 0.24784
 O587 O 0.48226 0.75211 0.22604
 O588 O 0.51855 0.72650 0.25184
 O589 O 0.48217 0.72644 0.25172
 O590 O 0.51865 0.75216 0.22616
 Cu591 Cu 0.50029 0.76336 0.26294
 Cu592 Cu 0.50042 0.73710 0.23674
 C593 C 0.52479 0.76740 0.23277
 C594 C 0.47592 0.73306 0.26690
 C595 C 0.52466 0.73313 0.26706
 C596 C 0.47604 0.76733 0.23262
 O597 O 0.01803 0.75227 0.27369
 O598 O -0.01835 0.72662 0.24800
 O599 O 0.01804 0.72659 0.24802
 O600 O -0.01835 0.75230 0.27367
 O601 O -0.01828 0.77414 0.25187
 O602 O 0.01811 0.74843 0.22621
 O603 O -0.01828 0.74847 0.22619
 O604 O 0.01810 0.77411 0.25189
 Cu605 Cu -0.00016 0.73724 0.26305
 Cu606 Cu -0.00008 0.76349 0.23684
 C607 C 0.02425 0.76748 0.26709
 C608 C -0.02449 0.73325 0.23279
 C609 C 0.02426 0.73320 0.23282
 C610 C -0.02450 0.76753 0.26707
 O611 O 0.48152 0.77436 0.75201
 O612 O 0.51796 0.74863 0.72646
 O613 O 0.48158 0.74863 0.72639
 O614 O 0.51791 0.77436 0.75208
 O615 O 0.51783 0.75256 0.77393
 O616 O 0.48151 0.72683 0.74824
 O617 O 0.51789 0.72683 0.74831
 O618 O 0.48144 0.75256 0.77386
 Cu619 Cu 0.49975 0.76369 0.73703
 Cu620 Cu 0.49966 0.73749 0.76329
 C621 C 0.47529 0.76777 0.76722
 C622 C 0.52412 0.73342 0.73310
 C623 C 0.47537 0.73342 0.73301
 C624 C 0.52405 0.76777 0.76730
 C625 C 0.40525 0.31158 0.31180
 N626 N 0.41242 0.31862 0.29576
 N627 N 0.42658 0.31009 0.28723
 C628 C 0.43398 0.29425 0.29448
 N629 N 0.42682 0.28722 0.31053
 N630 N 0.41266 0.29575 0.31906
 C631 C 0.38967 0.32047 0.32069
 C632 C 0.37641 0.32779 0.32803
 C633 C 0.44886 0.28477 0.28501
 C634 C 0.46118 0.27667 0.27692
 C635 C 0.40471 0.81239 0.81168
 N636 N 0.41163 0.81921 0.79543
 N637 N 0.42583 0.81071 0.78694
 C638 C 0.43353 0.79513 0.79444
 N639 N 0.42662 0.78833 0.81070
 N640 N 0.41242 0.79683 0.81919
 C641 C 0.38907 0.82123 0.82053
 C642 C 0.37577 0.82849 0.82784
 C643 C 0.44845 0.78567 0.78501
 C644 C 0.46081 0.77757 0.77696
 C645 C -0.09510 0.31193 0.81131
 N646 N -0.08825 0.31861 0.79497
 N647 N -0.07411 0.31001 0.78647
 C648 C -0.06641 0.29447 0.79405
 N649 N -0.07325 0.28780 0.81039
 N650 N -0.08739 0.29640 0.81889
 C651 C -0.11066 0.32088 0.82018
 C652 C -0.12389 0.32824 0.82751
 C653 C -0.05155 0.28492 0.78463
 C654 C -0.03923 0.27675 0.77658
 C655 C -0.09497 0.81219 0.31167
 N656 N -0.08787 0.81917 0.29557
 N657 N -0.07369 0.81066 0.28705
 C658 C -0.06619 0.79490 0.29438
 N659 N -0.07328 0.78793 0.31050
 N660 N -0.08745 0.79645 0.31901
 C661 C -0.11058 0.82105 0.32055
 C662 C -0.12386 0.82835 0.32786
 C663 C -0.05129 0.78543 0.28493
 C664 C -0.03896 0.77733 0.27685
 C665 C 0.59484 0.68847 0.31196
 N666 N 0.58775 0.70459 0.31891
 N667 N 0.57363 0.71312 0.31034
 C668 C 0.56619 0.70579 0.29457
 N669 N 0.57327 0.68967 0.28763
 N670 N 0.58738 0.68113 0.29619
 C671 C 0.61038 0.67957 0.32087
 C672 C 0.62361 0.67223 0.32821
 C673 C 0.55135 0.71526 0.28505
 C674 C 0.53907 0.72335 0.27691
 C675 C 0.59476 0.18793 0.81148
 N676 N 0.58752 0.18084 0.79550
 N677 N 0.57335 0.18936 0.78702
 C678 C 0.56598 0.20523 0.79426
 N679 N 0.57320 0.21230 0.81025
 N680 N 0.58738 0.20378 0.81873
 C681 C 0.61036 0.17905 0.82031
 C682 C 0.62364 0.17175 0.82759
 C683 C 0.55109 0.21470 0.78484
 C684 C 0.53875 0.22280 0.77679
 C685 C 1.09506 0.68817 0.81139
 N686 N 1.08785 0.70415 0.81855
 N687 N 1.07373 0.71274 0.81004
 C688 C 1.06640 0.70561 0.79412
 N689 N 1.07360 0.68963 0.78698
 N690 N 1.08772 0.68104 0.79548
 C691 C 1.11061 0.67922 0.82025
 C692 C 1.12383 0.67184 0.82756
 C693 C 1.05156 0.71515 0.78468
 C694 C 1.03927 0.72329 0.77661
 C695 C 1.09468 0.18827 0.31169
 N696 N 1.08717 0.18089 0.29597
 N697 N 1.07303 0.18940 0.28743
 C698 C 1.06598 0.20555 0.29435
 N699 N 1.07348 0.21292 0.31007
 N700 N 1.08762 0.20441 0.31862
 C701 C 1.11025 0.17939 0.32058
 C702 C 1.12350 0.17207 0.32789
 C703 C 1.05111 0.21500 0.28485
 C704 C 1.03880 0.22307 0.27674
 C705 C 0.59473 0.31180 0.68833
 N706 N 0.58731 0.31900 0.70419
 N707 N 0.57314 0.31044 0.71268
 C708 C 0.56596 0.29443 0.70558
 N709 N 0.57336 0.28725 0.68971
 N710 N 0.58753 0.29580 0.68121
 C711 C 0.61034 0.32072 0.67949
 C712 C 0.62362 0.32806 0.67220
 C713 C 0.55106 0.28493 0.71502
 C714 C 0.53873 0.27681 0.72310
 C715 C 0.59531 0.81221 0.18831
 N716 N 0.58791 0.81938 0.20420
 N717 N 0.57374 0.81082 0.21268
 C718 C 0.56652 0.79484 0.20554
 N719 N 0.57390 0.78768 0.18964
 N720 N 0.58808 0.79624 0.18116
 C721 C 0.61091 0.82113 0.17947
 C722 C 0.62419 0.82848 0.17219
 C723 C 0.55161 0.78533 0.21496
 C724 C 0.53927 0.77722 0.22302
 C725 C 1.09490 0.31182 0.18805
 N726 N 1.08756 0.31900 0.20395
 N727 N 1.07338 0.31046 0.21246
 C728 C 1.06611 0.29450 0.20532
 N729 N 1.07344 0.28734 0.18941
 N730 N 1.08762 0.29587 0.18090
 C731 C 1.11051 0.32071 0.17919
 C732 C 1.12379 0.32803 0.17188
 C733 C 1.05121 0.28502 0.21478
 C734 C 1.03887 0.27691 0.22286
 C735 C 1.09551 0.81211 0.68807
 N736 N 1.08786 0.81952 0.70372
 N737 N 1.07366 0.81100 0.71221
 C738 C 1.06669 0.79480 0.70531
 N739 N 1.07433 0.78739 0.68966
 N740 N 1.08853 0.79592 0.68117
 C741 C 1.11113 0.82100 0.67924
 C742 C 1.12443 0.82833 0.67196
 C743 C 1.05177 0.78534 0.71476
 C744 C 1.03942 0.77725 0.72284
 C745 C 0.40514 0.68860 0.68826
 N746 N 0.41249 0.70451 0.68107
 N747 N 0.42662 0.71307 0.68962
 C748 C 0.43381 0.70598 0.70561
 N749 N 0.42647 0.69006 0.71279
 N750 N 0.41234 0.68150 0.70424
 C751 C 0.38959 0.67969 0.67936
 C752 C 0.37635 0.67235 0.67202
 C753 C 0.44865 0.71548 0.71510
 C754 C 0.46095 0.72360 0.72321
 C755 C 0.40525 0.18806 0.18806
 N756 N 0.41269 0.18073 0.20383
 N757 N 0.42684 0.18924 0.21237
 C758 C 0.43399 0.20534 0.20540
 N759 N 0.42657 0.21265 0.18961
 N760 N 0.41241 0.20415 0.18107
 C761 C 0.38966 0.17919 0.17917
 C762 C 0.37640 0.17188 0.17186
 C763 C 0.44887 0.21478 0.21489
 C764 C 0.46120 0.22285 0.22300
 C765 C -0.09486 0.68861 0.18807
 N766 N -0.08751 0.70453 0.18092
 N767 N -0.07337 0.71306 0.18946
 C768 C -0.06613 0.70591 0.20541
 N769 N -0.07347 0.68997 0.21255
 N770 N -0.08761 0.68145 0.20401
 C771 C -0.11043 0.67973 0.17918
 C772 C -0.12368 0.67241 0.17185
 C773 C -0.05126 0.71537 0.21489
 C774 C -0.03894 0.72346 0.22299
 C775 C -0.09522 0.18785 0.68806
 N776 N -0.08788 0.20377 0.68089
 N777 N -0.07371 0.21228 0.68941
 C778 C -0.06646 0.20514 0.70535
 N779 N -0.07379 0.18920 0.71250
 N780 N -0.08795 0.18069 0.70399
 C781 C -0.11082 0.17898 0.67919
 C782 C -0.12409 0.17167 0.67188
 C783 C -0.05157 0.21460 0.71481
 C784 C -0.03924 0.22269 0.72290
 C785 C 0.31165 0.40514 0.31187
 N786 N 0.31886 0.41251 0.29599
 N787 N 0.31033 0.42666 0.28746
 C788 C 0.29432 0.43386 0.29454
 N789 N 0.28712 0.42650 0.31043
 N790 N 0.29565 0.41236 0.31896
 C791 C 0.32054 0.38956 0.32075
 C792 C 0.32787 0.37631 0.32807
 C793 C 0.28485 0.44873 0.28507
 C794 C 0.27674 0.46105 0.27697
 C795 C 0.31199 -0.09566 0.81171
 N796 N 0.31925 -0.08815 0.79592
 N797 N 0.31067 -0.07401 0.78742
 C798 C 0.29459 -0.06695 0.79446
 N799 N 0.28734 -0.07444 0.81026
 N800 N 0.29591 -0.08858 0.81876
 C801 C 0.32093 -0.11123 0.82057
 C802 C 0.32830 -0.12447 0.82786
 C803 C 0.28508 -0.05207 0.78502
 C804 C 0.27696 -0.03974 0.77696
 C805 C 0.81203 0.40502 0.81195
 N806 N 0.81893 0.41204 0.79578
 N807 N 0.81044 0.42625 0.78731
 C808 C 0.79479 0.43386 0.79475
 N809 N 0.78790 0.42685 0.81093
 N810 N 0.79639 0.41264 0.81940
 C811 C 0.82086 0.38937 0.82079
 C812 C 0.82814 0.37607 0.82807
 C813 C 0.78533 0.44879 0.78535
 C814 C 0.77724 0.46116 0.77733
 C815 C 0.81159 -0.09534 0.31206
 N816 N 0.81899 -0.08773 0.29638
 N817 N 0.81043 -0.07360 0.28785
 C818 C 0.79423 -0.06665 0.29473
 N819 N 0.78685 -0.07425 0.31043
 N820 N 0.79540 -0.08838 0.31896
 C821 C 0.82052 -0.11090 0.32095
 C822 C 0.82788 -0.12414 0.32828
 C823 C 0.78475 -0.05179 0.28525
 C824 C 0.77666 -0.03947 0.27715
 C825 C 0.31156 0.59493 0.68825
 N826 N 0.29547 0.58781 0.68127
 N827 N 0.28693 0.57366 0.68982
 C828 C 0.29421 0.56620 0.70560
 N829 N 0.31031 0.57330 0.71257
 N830 N 0.31885 0.58745 0.70402
 C831 C 0.32047 0.61051 0.67934
 C832 C 0.32781 0.62376 0.67201
 C833 C 0.28473 0.55131 0.71509
 C834 C 0.27663 0.53898 0.72320
 C835 C 0.31215 1.09521 0.18763
 N836 N 0.29614 1.08799 0.18059
 N837 N 0.28764 1.07380 0.18911
 C838 C 0.29489 1.06640 0.20493
 N839 N 0.31091 1.07360 0.21197
 N840 N 0.31942 1.08779 0.20344
 C841 C 0.32101 1.11084 0.17876
 C842 C 0.32831 1.12413 0.17145
 C843 C 0.28544 1.05149 0.21441
 C844 C 0.27735 1.03914 0.22251
 C845 C 0.81158 0.59493 0.18800
 N846 N 0.81906 0.58727 0.20359
 N847 N 0.81056 0.57309 0.21214
 C848 C 0.79431 0.56615 0.20535
 N849 N 0.78684 0.57381 0.18975
 N850 N 0.79535 0.58799 0.18120
 C851 C 0.82046 0.61054 0.17911
 C852 C 0.82778 0.62382 0.17180
 C853 C 0.78488 0.55125 0.21485
 C854 C 0.77681 0.53890 0.22297
 C855 C 0.81232 1.09557 0.68809
 N856 N 0.79638 1.08830 0.68094
 N857 N 0.78782 1.07414 0.68946
 C858 C 0.79493 1.06682 0.70538
 N859 N 0.81089 1.07407 0.71252
 N860 N 0.81945 1.08823 0.70400
 C861 C 0.82124 1.11116 0.67923
 C862 C 0.82859 1.12443 0.67192
 C863 C 0.78543 1.05193 0.71483
 C864 C 0.77730 1.03960 0.72291
 C865 C 0.68825 0.59477 0.31197
 N866 N 0.68098 0.58734 0.29616
 N867 N 0.68950 0.57319 0.28761
 C868 C 0.70555 0.56603 0.29460
 N869 N 0.71281 0.57345 0.31042
 N870 N 0.70429 0.58760 0.31898
 C871 C 0.67937 0.61035 0.32088
 C872 C 0.67206 0.62361 0.32821
 C873 C 0.71500 0.55115 0.28510
 C874 C 0.72308 0.53883 0.27698
 C875 C 0.68821 1.09545 0.81155
 N876 N 0.68120 1.08827 0.79552
 N877 N 0.68977 1.07414 0.78697
 C878 C 0.70562 1.06677 0.79421
 N879 N 0.71262 1.07394 0.81026
 N880 N 0.70404 1.08807 0.81880
 C881 C 0.67926 1.11100 0.82047
 C882 C 0.67190 1.12422 0.82782
 C883 C 0.71513 1.05191 0.78474
 C884 C 0.72326 1.03960 0.77666
 C885 C 0.18791 0.59505 0.81185
 N886 N 0.18083 0.58783 0.79586
 N887 N 0.18935 0.57364 0.78735
 C888 C 0.20519 0.56625 0.79458
 N889 N 0.21225 0.57347 0.81058
 N890 N 0.20373 0.58765 0.81909
 C891 C 0.17905 0.61068 0.82071
 C892 C 0.17176 0.62398 0.82801
 C893 C 0.21465 0.55134 0.78513
 C894 C 0.22274 0.53899 0.77705
 C895 C 0.18842 1.09487 0.31138
 N896 N 0.18141 1.08771 0.29534
 N897 N 0.18999 1.07360 0.28678
 C898 C 0.20584 1.06622 0.29400
 N899 N 0.21284 1.07337 0.31006
 N900 N 0.20426 1.08749 0.31862
 C901 C 0.17948 1.11040 0.32032
 C902 C 0.17212 1.12362 0.32769
 C903 C 0.21535 1.05137 0.28451
 C904 C 0.22348 1.03907 0.27640
 C905 C 0.68839 0.40543 0.68867
 N906 N 0.68138 0.41248 0.70478
 N907 N 0.68991 0.42662 0.71335
 C908 C 0.70569 0.43414 0.70607
 N909 N 0.71268 0.42709 0.68995
 N910 N 0.70416 0.41295 0.68138
 C911 C 0.67951 0.38985 0.67973
 C912 C 0.67220 0.37660 0.67237
 C913 C 0.71516 0.44900 0.71557
 C914 C 0.72326 0.46132 0.72369
 C915 C 0.68776 -0.09545 0.18854
 N916 N 0.70344 -0.08786 0.18112
 N917 N 0.71200 -0.07371 0.18964
 C918 C 0.70515 -0.06673 0.20584
 N919 N 0.68946 -0.07431 0.21326
 N920 N 0.68089 -0.08846 0.20473
 C921 C 0.67884 -0.11102 0.17965
 C922 C 0.67150 -0.12427 0.17231
 C923 C 0.71466 -0.05185 0.21529
 C924 C 0.72278 -0.03953 0.22336
 C925 C 0.18781 0.40497 0.18853
 N926 N 0.18087 0.41207 0.20464
 N927 N 0.18942 0.42623 0.21314
 C928 C 0.20518 0.43372 0.20578
 N929 N 0.21211 0.42664 0.18966
 N930 N 0.20355 0.41248 0.18116
 C931 C 0.17889 0.38939 0.17966
 C932 C 0.17155 0.37613 0.17234
 C933 C 0.21468 0.44862 0.21521
 C934 C 0.22280 0.46096 0.22327
 C935 C 0.18806 -0.09566 0.68835
 N936 N 0.20392 -0.08828 0.68111
 N937 N 0.21248 -0.07414 0.68964
 C938 C 0.20544 -0.06695 0.70567
 N939 N 0.18956 -0.07432 0.71291
 N940 N 0.18100 -0.08846 0.70437
 C941 C 0.17914 -0.11123 0.67945
 C942 C 0.17179 -0.12447 0.67211
 C943 C 0.21493 -0.05208 0.71514
 C944 C 0.22304 -0.03975 0.72323
 C945 C 0.31172 0.31153 0.40548
 N946 N 0.29580 0.31868 0.41281
 N947 N 0.28729 0.31013 0.42698
 C948 C 0.29443 0.29418 0.43424
 N949 N 0.31036 0.28704 0.42692
 N950 N 0.31888 0.29559 0.41276
 C951 C 0.32060 0.32044 0.38989
 C952 C 0.32791 0.32777 0.37662
 C953 C 0.28497 0.28469 0.44912
 C954 C 0.27688 0.27657 0.46145
 C955 C 0.31198 0.81154 -0.09517
 N956 N 0.31890 0.79536 -0.08822
 N957 N 0.31041 0.78679 -0.07405
 C958 C 0.29474 0.79416 -0.06641
 N959 N 0.28783 0.81036 -0.07334
 N960 N 0.29632 0.81892 -0.08751
 C961 C 0.32082 0.82048 -0.11077
 C962 C 0.32810 0.82783 -0.12404
 C963 C 0.28529 0.78466 -0.05151
 C964 C 0.27721 0.77656 -0.03918
 C965 C 0.81147 0.31201 -0.09505
 N966 N 0.81884 0.29625 -0.08759
 N967 N 0.81035 0.28766 -0.07343
 C968 C 0.79424 0.29458 -0.06630
 N969 N 0.78688 0.31035 -0.07375
 N970 N 0.79537 0.31893 -0.08790
 C971 C 0.82032 0.32094 -0.11063
 C972 C 0.82762 0.32829 -0.12389
 C973 C 0.78482 0.28504 -0.05142
 C974 C 0.77677 0.27689 -0.03909
 C975 C 0.81156 0.81199 0.40536
 N976 N 0.79570 0.81917 0.41279
 N977 N 0.78723 0.81062 0.42698
 C978 C 0.79436 0.79463 0.43417
 N979 N 0.81023 0.78746 0.42675
 N980 N 0.81870 0.79601 0.41256
 C981 C 0.82038 0.82090 0.38975
 C982 C 0.82765 0.82824 0.37646
 C983 C 0.78495 0.78514 0.44908
 C984 C 0.77690 0.77703 0.46144
 C985 C 0.68850 0.31188 0.59493
 N986 N 0.70471 0.31874 0.58796
 N987 N 0.71323 0.31019 0.57381
 C988 C 0.70580 0.29452 0.56621
 N989 N 0.68958 0.28767 0.57317
 N990 N 0.68106 0.29623 0.58732
 C991 C 0.67961 0.32079 0.61051
 C992 C 0.67227 0.32811 0.62376
 C993 C 0.71525 0.28501 0.55133
 C994 C 0.72333 0.27688 0.53901
 C995 C 0.68797 0.81216 1.09506
 N996 N 0.70368 0.81956 1.08752
 N997 N 0.71219 0.81109 1.07331
 C998 C 0.70524 0.79497 1.06621
 N999 N 0.68952 0.78758 1.07374
 N1000 N 0.68101 0.79605 1.08795
 C1001 C 0.67911 0.82098 1.11070
 C1002 C 0.67182 0.82824 1.12401
 C1003 C 0.71471 0.78557 1.05128
 C1004 C 0.72281 0.77753 1.03892
 C1005 C 0.18769 0.31147 1.09488
 N1006 N 0.20349 0.31879 1.08742
 N1007 N 0.21202 0.31028 1.07325
 C1008 C 0.20502 0.29421 1.06610
 N1009 N 0.18921 0.28691 1.07354
 N1010 N 0.18067 0.29541 1.08771
 C1011 C 0.17880 0.32034 1.11048
 C1012 C 0.17149 0.32764 1.12375
 C1013 C 0.21450 0.28477 1.05121
 C1014 C 0.22260 0.27669 1.03887
 C1015 C 0.18826 0.81194 0.59488
 N1016 N 0.20422 0.81910 0.58762
 N1017 N 0.21274 0.81062 0.57342
 C1018 C 0.20555 0.79473 0.56605
 N1019 N 0.18958 0.78758 0.57330
 N1020 N 0.18107 0.79606 0.58750
 C1021 C 0.17940 0.82077 0.61051
 C1022 C 0.17210 0.82804 0.62382
 C1023 C 0.21501 0.78530 0.55114
 C1024 C 0.22310 0.77723 0.53878
 C1025 C 0.31179 0.68851 0.59460
 N1026 N 0.29601 0.68120 0.58713
 N1027 N 0.28750 0.68974 0.57299
 C1028 C 0.29451 0.70583 0.56588
 N1029 N 0.31030 0.71312 0.57333
 N1030 N 0.31881 0.70459 0.58748
 C1031 C 0.32065 0.67961 0.61018
 C1032 C 0.32794 0.67229 0.62344
 C1033 C 0.28505 0.71531 0.55101
 C1034 C 0.27696 0.72341 0.53870
 C1035 C 0.31158 0.18816 1.09466
 N1036 N 0.31843 0.20437 1.08768
 N1037 N 0.30987 0.21290 1.07355
 C1038 C 0.29421 0.20545 1.06598
 N1039 N 0.28737 0.18923 1.07296
 N1040 N 0.29593 0.18071 1.08708
 C1041 C 0.32049 0.17926 1.11022
 C1042 C 0.32783 0.17193 1.12345
 C1043 C 0.28470 0.21490 1.05112
 C1044 C 0.27658 0.22297 1.03881
 C1045 C 0.81160 0.68877 1.09459
 N1046 N 0.79585 0.68146 1.08709
 N1047 N 0.78732 0.69002 1.07297
 C1048 C 0.79430 0.70616 1.06592
 N1049 N 0.81006 0.71347 1.07341
 N1050 N 0.81859 0.70490 1.08753
 C1051 C 0.82048 0.67984 1.11014
 C1052 C 0.82780 0.67249 1.12337
 C1053 C 0.78483 0.71566 1.05108
 C1054 C 0.77673 0.72377 1.03878
 C1055 C 0.81210 0.18828 0.59496
 N1056 N 0.79647 0.18081 0.58735
 N1057 N 0.78794 0.18931 0.57319
 C1058 C 0.79478 0.20554 0.56622
 N1059 N 0.81042 0.21300 0.57382
 N1060 N 0.81895 0.20450 0.58798
 C1061 C 0.82098 0.17942 0.61054
 C1062 C 0.82828 0.17211 0.62380
 C1063 C 0.78529 0.21497 0.55134
 C1064 C 0.77718 0.22303 0.53901
 C1065 C 0.68818 0.68829 0.40567
 N1066 N 0.68125 0.70443 0.41274
 N1067 N 0.68977 0.71294 0.42690
 C1068 C 0.70549 0.70557 0.43442
 N1069 N 0.71241 0.68942 0.42736
 N1070 N 0.70389 0.68091 0.41320
 C1071 C 0.67931 0.67942 0.39008
 C1072 C 0.67201 0.67212 0.37681
 C1073 C 0.71497 0.71502 0.44930
 C1074 C 0.72308 0.72311 0.46161
 C1075 C 0.68826 0.18796 -0.09505
 N1076 N 0.70408 0.18071 -0.08763
 N1077 N 0.71258 0.18923 -0.07346
 C1078 C 0.70553 0.20527 -0.06629
 N1079 N 0.68970 0.21252 -0.07369
 N1080 N 0.68120 0.20399 -0.08786
 C1081 C 0.67941 0.17908 -0.11065
 C1082 C 0.67213 0.17177 -0.12392
 C1083 C 0.71498 0.21474 -0.05140
 C1084 C 0.72306 0.22283 -0.03907
 C1085 C 0.18844 0.68785 -0.09503
 N1086 N 0.20433 0.68065 -0.08772
 N1087 N 0.21285 0.68917 -0.07356
 C1088 C 0.20575 0.70514 -0.06629
 N1089 N 0.18985 0.71232 -0.07358
 N1090 N 0.18132 0.70381 -0.08774
 C1091 C 0.17956 0.67898 -0.11062
 C1092 C 0.17225 0.67168 -0.12389
 C1093 C 0.21522 0.71460 -0.05140
 C1094 C 0.22331 0.72269 -0.03909
 C1095 C 0.18814 0.18804 0.40535
 N1096 N 0.20394 0.18073 0.41274
 N1097 N 0.21247 0.18920 0.42692
 C1098 C 0.20546 0.20523 0.43415
 N1099 N 0.18964 0.21252 0.42677
 N1100 N 0.18111 0.20406 0.41259
 C1101 C 0.17926 0.17921 0.38973
 C1102 C 0.17196 0.17194 0.37645
 C1103 C 0.21493 0.21464 0.44905
 C1104 C 0.22303 0.22269 0.46140
 C1105 C 0.31153 0.40529 0.68840
 N1106 N 0.31873 0.41268 0.70426
 N1107 N 0.31019 0.42685 0.71278
 C1108 C 0.29420 0.43405 0.70569
 N1109 N 0.28702 0.42668 0.68982
 N1110 N 0.29555 0.41251 0.68131
 C1111 C 0.32042 0.38969 0.67954
 C1112 C 0.32775 0.37642 0.67223
 C1113 C 0.28473 0.44894 0.71516
 C1114 C 0.27663 0.46128 0.72325
 C1115 C 0.31221 0.90542 0.18763
 N1116 N 0.31948 0.91287 0.20343
 N1117 N 0.31096 0.92704 0.21195
 C1118 C 0.29492 0.93419 0.20494
 N1119 N 0.28766 0.92675 0.18913
 N1120 N 0.29618 0.91258 0.18060
 C1121 C 0.32109 0.88982 0.17876
 C1122 C 0.32841 0.87654 0.17145
 C1123 C 0.28546 0.94909 0.21441
 C1124 C 0.27737 0.96142 0.22251
 C1125 C 0.81174 0.40525 0.18802
 N1126 N 0.81905 0.41274 0.20378
 N1127 N 0.81052 0.42689 0.21233
 C1128 C 0.79443 0.43399 0.20537
 N1129 N 0.78713 0.42652 0.18959
 N1130 N 0.79566 0.41237 0.18104
 C1131 C 0.82063 0.38967 0.17912
 C1132 C 0.82796 0.37642 0.17179
 C1133 C 0.78497 0.44887 0.21486
 C1134 C 0.77688 0.46119 0.22298
 C1135 C 0.81218 0.90587 0.68817
 N1136 N 0.81925 0.91313 0.70414
 N1137 N 0.81071 0.92730 0.71265
 C1138 C 0.79485 0.93464 0.70543
 N1139 N 0.78779 0.92740 0.68944
 N1140 N 0.79632 0.91323 0.68094
 C1141 C 0.82107 0.89027 0.67930
 C1142 C 0.82839 0.87699 0.67200
 C1143 C 0.78536 0.94954 0.71487
 C1144 C 0.77725 0.96188 0.72294
 C1145 C 0.68817 0.59505 0.68943
 N1146 N 0.70039 0.58413 0.67995
 N1147 N 0.70893 0.56997 0.68846
 C1148 C 0.70551 0.56631 0.70671
 N1149 N 0.69329 0.57722 0.71619
 N1150 N 0.68475 0.59138 0.70768
 C1151 C 0.67934 0.61059 0.68042
 C1152 C 0.67206 0.62382 0.67301
 C1153 C 0.71506 0.55139 0.71603
 C1154 C 0.72320 0.53903 0.72402
 C1155 C 0.68818 0.09413 0.18825
 N1156 N 0.70405 0.08674 0.18107
 N1157 N 0.71255 0.07258 0.18962
 C1158 C 0.70542 0.06538 0.20561
 N1159 N 0.68953 0.07276 0.21278
 N1160 N 0.68104 0.08692 0.20423
 C1161 C 0.67933 0.10972 0.17934
 C1162 C 0.67204 0.12298 0.17200
 C1163 C 0.71485 0.05050 0.21510
 C1164 C 0.72292 0.03817 0.22321
 C1165 C 0.18798 0.59460 0.18829
 N1166 N 0.18108 0.58763 0.20448
 N1167 N 0.18960 0.57347 0.21301
 C1168 C 0.20528 0.56587 0.20561
 N1169 N 0.21216 0.57283 0.18942
 N1170 N 0.20365 0.58699 0.18088
 C1171 C 0.17912 0.61019 0.17939
 C1172 C 0.17183 0.62345 0.17205
 C1173 C 0.21475 0.55098 0.21508
 C1174 C 0.22284 0.53866 0.22317
 C1175 C 0.18806 0.09388 0.68851
 N1176 N 0.18109 0.08678 0.70462
 N1177 N 0.18963 0.07263 0.71313
 C1178 C 0.20540 0.06515 0.70580
 N1179 N 0.21236 0.07224 0.68969
 N1180 N 0.20382 0.08640 0.68117
 C1181 C 0.17916 0.10946 0.67963
 C1182 C 0.17183 0.12271 0.67230
 C1183 C 0.21489 0.05027 0.71525
 C1184 C 0.22299 0.03794 0.72332
 C1185 C 0.31169 0.59478 0.31162
 N1186 N 0.29577 0.58747 0.31881
 N1187 N 0.28723 0.57330 0.31031
 C1188 C 0.29435 0.56601 0.29436
 N1189 N 0.31028 0.57330 0.28718
 N1190 N 0.31882 0.58747 0.29568
 C1191 C 0.32059 0.61038 0.32048
 C1192 C 0.32793 0.62364 0.32778
 C1193 C 0.28487 0.55110 0.28492
 C1194 C 0.27676 0.53875 0.27687
 C1195 C 0.31162 0.09404 0.81192
 N1196 N 0.29565 0.08676 0.81903
 N1197 N 0.28716 0.07257 0.81051
 C1198 C 0.29437 0.06524 0.79462
 N1199 N 0.31035 0.07250 0.78753
 N1200 N 0.31885 0.08669 0.79605
 C1201 C 0.32047 0.10966 0.82079
 C1202 C 0.32777 0.12295 0.82809
 C1203 C 0.28494 0.05032 0.78515
 C1204 C 0.27687 0.03798 0.77706
 C1205 C 0.81213 0.59495 0.81232
 N1206 N 0.79604 0.58787 0.81934
 N1207 N 0.78750 0.57368 0.81086
 C1208 C 0.79481 0.56614 0.79511
 N1209 N 0.81092 0.57320 0.78810
 N1210 N 0.81945 0.58739 0.79658
 C1211 C 0.82102 0.61058 0.82113
 C1212 C 0.82834 0.62389 0.82838
 C1213 C 0.78532 0.55123 0.78567
 C1214 C 0.77722 0.53890 0.77759
 C1215 C 0.81168 0.09424 0.31178
 N1216 N 0.79583 0.08684 0.31904
 N1217 N 0.78729 0.07267 0.31053
 C1218 C 0.79435 0.06547 0.29451
 N1219 N 0.81020 0.07285 0.28726
 N1220 N 0.81874 0.08702 0.29576
 C1221 C 0.82058 0.10984 0.32064
 C1222 C 0.82791 0.12310 0.32795
 C1223 C 0.78486 0.05057 0.28507
 C1224 C 0.77676 0.03823 0.27700
 C1225 C 0.68835 0.40508 0.31192
 N1226 N 0.70475 0.41180 0.31853
 N1227 N 0.71327 0.42597 0.31000
 C1228 C 0.70564 0.43386 0.29459
 N1229 N 0.68922 0.42716 0.28800
 N1230 N 0.68070 0.41298 0.29653
 C1231 C 0.67945 0.38948 0.32080
 C1232 C 0.67212 0.37621 0.32812
 C1233 C 0.71508 0.44877 0.28510
 C1234 C 0.72314 0.46112 0.27698
 C1235 C 0.68820 0.90601 0.81160
 N1236 N 0.70396 0.91351 0.81892
 N1237 N 0.71253 0.92766 0.81037
 C1238 C 0.70559 0.93472 0.79425
 N1239 N 0.68982 0.92724 0.78695
 N1240 N 0.68126 0.91310 0.79550
 C1241 C 0.67928 0.89044 0.82052
 C1242 C 0.67193 0.87720 0.82787
 C1243 C 0.71511 0.94960 0.78478
 C1244 C 0.72324 0.96192 0.77669
 C1245 C 0.18784 0.40521 0.81190
 N1246 N 0.20414 0.41204 0.81866
 N1247 N 0.21268 0.42622 0.81016
 C1248 C 0.20518 0.43400 0.79463
 N1249 N 0.18887 0.42718 0.78788
 N1250 N 0.18033 0.41300 0.79639
 C1251 C 0.17893 0.38959 0.82074
 C1252 C 0.17159 0.37631 0.82803
 C1253 C 0.21465 0.44891 0.78517
 C1254 C 0.22274 0.46125 0.77708
 C1255 C 0.18850 0.90553 0.31141
 N1256 N 0.20438 0.91289 0.31859
 N1257 N 0.21295 0.92703 0.31003
 C1258 C 0.20588 0.93423 0.29403
 N1259 N 0.18999 0.92688 0.28686
 N1260 N 0.18142 0.91275 0.29542
 C1261 C 0.17957 0.88998 0.32034
 C1262 C 0.17222 0.87674 0.32770
 C1263 C 0.21538 0.94909 0.28453
 C1264 C 0.22350 0.96141 0.27641
 C1265 C 0.40513 0.31169 0.68848
 N1266 N 0.41214 0.31859 0.70463
 N1267 N 0.42630 0.31006 0.71313
 C1268 C 0.43387 0.29436 0.70573
 N1269 N 0.42687 0.28747 0.68956
 N1270 N 0.41271 0.29601 0.68106
 C1271 C 0.38955 0.32058 0.67961
 C1272 C 0.37630 0.32789 0.67230
 C1273 C 0.44875 0.28487 0.71515
 C1274 C 0.46108 0.27676 0.72320
 C1275 C 0.40577 0.81188 0.18775
 N1276 N 0.41309 0.81913 0.20362
 N1277 N 0.42723 0.81063 0.21218
 C1278 C 0.43447 0.79462 0.20513
 N1279 N 0.42717 0.78738 0.18925
 N1280 N 0.41304 0.79588 0.18069
 C1281 C 0.39020 0.82073 0.17884
 C1282 C 0.37695 0.82802 0.17150
 C1283 C 0.44933 0.78518 0.21464
 C1284 C 0.46163 0.77710 0.22278
 C1285 C 0.90531 0.31167 0.18793
 N1286 N 0.91268 0.31891 0.20378
 N1287 N 0.92683 0.31039 0.21230
 C1288 C 0.93403 0.29437 0.20523
 N1289 N 0.92667 0.28714 0.18937
 N1290 N 0.91253 0.29566 0.18085
 C1291 C 0.88974 0.32056 0.17905
 C1292 C 0.87649 0.32788 0.17174
 C1293 C 0.94890 0.28490 0.21470
 C1294 C 0.96122 0.27682 0.22280
 C1295 C 0.90581 0.81231 0.68818
 N1296 N 0.91286 0.81926 0.70430
 N1297 N 0.92701 0.81073 0.71280
 C1298 C 0.93455 0.79500 0.70544
 N1299 N 0.92751 0.78806 0.68931
 N1300 N 0.91335 0.79658 0.68080
 C1301 C 0.89022 0.82118 0.67931
 C1302 C 0.87695 0.82848 0.67201
 C1303 C 0.94943 0.78552 0.71488
 C1304 C 0.96175 0.77740 0.72294
 C1305 C 0.59474 0.31142 0.31193
 N1306 N 0.58731 0.31873 0.29615
 N1307 N 0.57316 0.31021 0.28761
 C1308 C 0.56601 0.29412 0.29459
 N1309 N 0.57343 0.28682 0.31039
 N1310 N 0.58758 0.29534 0.31892
 C1311 C 0.61032 0.32030 0.32081
 C1312 C 0.62358 0.32762 0.32813
 C1313 C 0.55114 0.28466 0.28511
 C1314 C 0.53882 0.27658 0.27699
 C1315 C 0.59445 0.81247 0.81189
 N1316 N 0.58700 0.81975 0.79611
 N1317 N 0.57283 0.81122 0.78760
 C1318 C 0.56569 0.79515 0.79463
 N1319 N 0.57313 0.78787 0.81042
 N1320 N 0.58730 0.79640 0.81893
 C1321 C 0.61005 0.82136 0.82074
 C1322 C 0.62332 0.82869 0.82803
 C1323 C 0.55081 0.78567 0.78517
 C1324 C 0.53848 0.77757 0.77709
 C1325 C 0.09426 0.31148 0.81168
 N1326 N 0.08709 0.31857 0.79568
 N1327 N 0.07295 0.31003 0.78713
 C1328 C 0.06556 0.29415 0.79433
 N1329 N 0.07272 0.28707 0.81035
 N1330 N 0.08686 0.29561 0.81889
 C1331 C 0.10982 0.32038 0.82059
 C1332 C 0.12306 0.32771 0.82793
 C1333 C 0.05069 0.28466 0.78485
 C1334 C 0.03838 0.27656 0.77675
 C1335 C 0.09469 0.81208 0.31173
 N1336 N 0.08719 0.81943 0.29600
 N1337 N 0.07302 0.81092 0.28749
 C1338 C 0.06592 0.79479 0.29445
 N1339 N 0.07341 0.78746 0.31020
 N1340 N 0.08758 0.79597 0.31871
 C1341 C 0.11029 0.82096 0.32059
 C1342 C 0.12357 0.82827 0.32788
 C1343 C 0.05103 0.78534 0.28498
 C1344 C 0.03870 0.77726 0.27689
 C1345 C 0.59463 0.68862 0.68870
 N1346 N 0.58699 0.68128 0.70440
 N1347 N 0.57281 0.68984 0.71286
 C1348 C 0.56584 0.70600 0.70589
 N1349 N 0.57346 0.71332 0.69018
 N1350 N 0.58764 0.70476 0.68172
 C1351 C 0.61024 0.67970 0.67990
 C1352 C 0.62352 0.67234 0.67264
 C1353 C 0.55093 0.71549 0.71530
 C1354 C 0.53859 0.72361 0.72335
 C1355 C 0.59476 0.18784 0.18816
 N1356 N 0.58733 0.18060 0.20400
 N1357 N 0.57318 0.18914 0.21253
 C1358 C 0.56604 0.20519 0.20548
 N1359 N 0.57345 0.21242 0.18964
 N1360 N 0.58760 0.20388 0.18111
 C1361 C 0.61034 0.17894 0.17928
 C1362 C 0.62359 0.17160 0.17196
 C1363 C 0.55116 0.21467 0.21496
 C1364 C 0.53884 0.22277 0.22306
 C1365 C 0.09460 0.68840 0.18817
 N1366 N 0.08710 0.68112 0.20395
 N1367 N 0.07296 0.68968 0.21248
 C1368 C 0.06589 0.70578 0.20548
 N1369 N 0.07338 0.71306 0.18968
 N1370 N 0.08753 0.70449 0.18116
 C1371 C 0.11017 0.67947 0.17929
 C1372 C 0.12342 0.67211 0.17198
 C1373 C 0.05102 0.71528 0.21494
 C1374 C 0.03870 0.72339 0.22303
 C1375 C 0.09440 0.18746 0.68839
 N1376 N 0.08735 0.18058 0.70456
 N1377 N 0.07318 0.18915 0.71304
 C1378 C 0.06564 0.20484 0.70562
 N1379 N 0.07269 0.21170 0.68944
 N1380 N 0.08685 0.20314 0.68095
 C1381 C 0.11000 0.17855 0.67954
 C1382 C 0.12327 0.17122 0.67224
 C1383 C 0.05075 0.21436 0.71503
 C1384 C 0.03842 0.22250 0.72307
 C1385 C 0.40541 0.68834 0.31148
 N1386 N 0.41302 0.70403 0.31888
 N1387 N 0.42719 0.71255 0.31035
 C1388 C 0.43419 0.70566 0.29418
 N1389 N 0.42660 0.68996 0.28679
 N1390 N 0.41242 0.68143 0.29531
 C1391 C 0.38981 0.67947 0.32037
 C1392 C 0.37654 0.67216 0.32770
 C1393 C 0.44909 0.71514 0.28472
 C1394 C 0.46144 0.72325 0.27665
 C1395 C 0.40514 0.18778 0.81178
 N1396 N 0.41264 0.20355 0.81910
 N1397 N 0.42680 0.21209 0.81057
 C1398 C 0.43389 0.20512 0.79446
 N1399 N 0.42640 0.18933 0.78716
 N1400 N 0.41224 0.18079 0.79569
 C1401 C 0.38955 0.17889 0.82068
 C1402 C 0.37628 0.17156 0.82801
 C1403 C 0.44877 0.21461 0.78499
 C1404 C 0.46109 0.22273 0.77690
 C1405 C 0.90568 0.68867 0.81178
 N1406 N 0.91277 0.68162 0.79570
 N1407 N 0.92693 0.69012 0.78713
 C1408 C 0.93442 0.70594 0.79437
 N1409 N 0.92734 0.71297 0.81045
 N1410 N 0.91319 0.70447 0.81903
 C1411 C 0.89010 0.67981 0.82072
 C1412 C 0.87685 0.67251 0.82809
 C1413 C 0.94931 0.71538 0.78486
 C1414 C 0.96164 0.72347 0.77674
 C1415 C 0.90525 0.18797 0.31160
 N1416 N 0.91243 0.18091 0.29557
 N1417 N 0.92658 0.18947 0.28703
 C1418 C 0.93396 0.20534 0.29425
 N1419 N 0.92679 0.21238 0.31029
 N1420 N 0.91264 0.20383 0.31883
 C1421 C 0.88968 0.17905 0.32051
 C1422 C 0.87643 0.17171 0.32785
 C1423 C 0.94884 0.21483 0.28477
 C1424 C 0.96116 0.22295 0.27668
 C1425 C 0.31166 0.31145 0.59499
 N1426 N 0.29597 0.31880 0.58741
 N1427 N 0.28746 0.31023 0.57327
 C1428 C 0.29440 0.29406 0.56628
 N1429 N 0.31011 0.28672 0.57385
 N1430 N 0.31861 0.29529 0.58799
 C1431 C 0.32052 0.32039 0.61055
 C1432 C 0.32781 0.32776 0.62379
 C1433 C 0.28495 0.28456 0.55141
 C1434 C 0.27687 0.27646 0.53909
 C1435 C 0.31218 0.81157 0.09427
 N1436 N 0.31914 0.79544 0.08720
 N1437 N 0.31060 0.78688 0.07308
 C1438 C 0.29484 0.79420 0.06560
 N1439 N 0.28789 0.81034 0.07266
 N1440 N 0.29644 0.81889 0.08678
 C1441 C 0.32108 0.82049 0.10982
 C1442 C 0.32840 0.82785 0.12305
 C1443 C 0.28535 0.78471 0.05075
 C1444 C 0.27724 0.77660 0.03845
 C1445 C 0.81177 0.31162 0.09445
 N1446 N 0.81887 0.29564 0.08719
 N1447 N 0.81034 0.28711 0.07305
 C1448 C 0.79445 0.29429 0.06573
 N1449 N 0.78736 0.31029 0.07297
 N1450 N 0.79589 0.31882 0.08712
 C1451 C 0.82066 0.32052 0.11001
 C1452 C 0.82798 0.32785 0.12326
 C1453 C 0.78498 0.28482 0.05086
 C1454 C 0.77689 0.27672 0.03855
 C1455 C 0.81212 0.81202 0.59484
 N1456 N 0.79639 0.81936 0.58733
 N1457 N 0.78783 0.81079 0.57322
 C1458 C 0.79474 0.79463 0.56619
 N1459 N 0.81049 0.78730 0.57369
 N1460 N 0.81904 0.79586 0.58780
 C1461 C 0.82103 0.82095 0.61037
 C1462 C 0.82837 0.82831 0.62359
 C1463 C 0.78524 0.78513 0.55136
 C1464 C 0.77711 0.77702 0.53908
 C1465 C 0.31183 0.68850 0.40511
 N1466 N 0.29608 0.68118 0.41264
 N1467 N 0.28755 0.68972 0.42679
 C1468 C 0.29454 0.70585 0.43385
 N1469 N 0.31031 0.71316 0.42634
 N1470 N 0.31883 0.70461 0.41219
 C1471 C 0.32070 0.67959 0.38953
 C1472 C 0.32801 0.67225 0.37627
 C1473 C 0.28507 0.71533 0.44874
 C1474 C 0.27697 0.72342 0.46107
 C1475 C 0.31145 0.18792 0.90530
 N1476 N 0.29571 0.18058 0.91284
 N1477 N 0.28717 0.18914 0.92698
 C1478 C 0.29412 0.20530 0.93400
 N1479 N 0.30987 0.21263 0.92648
 N1480 N 0.31841 0.20407 0.91234
 C1481 C 0.32035 0.17899 0.88975
 C1482 C 0.32768 0.17164 0.87651
 C1483 C 0.28463 0.21479 0.94887
 C1484 C 0.27653 0.22289 0.96119
 C1485 C 0.81196 0.68903 0.90536
 N1486 N 0.79649 0.68142 0.91319
 N1487 N 0.78790 0.68997 0.92730
 C1488 C 0.79453 0.70639 0.93401
 N1489 N 0.81002 0.71399 0.92620
 N1490 N 0.81860 0.70544 0.91209
 C1491 C 0.82090 0.68010 0.88983
 C1492 C 0.82826 0.67272 0.87662
 C1493 C 0.78499 0.71585 0.94887
 C1494 C 0.77685 0.72393 0.96118
 C1495 C 0.81181 0.18787 0.40537
 N1496 N 0.79580 0.18081 0.41260
 N1497 N 0.78730 0.18935 0.42677
 C1498 C 0.79455 0.20521 0.43414
 N1499 N 0.81058 0.21226 0.42693
 N1500 N 0.81908 0.20372 0.41276
 C1501 C 0.82067 0.17898 0.38977
 C1502 C 0.82797 0.17166 0.37649
 C1503 C 0.78511 0.21470 0.44903
 C1504 C 0.77705 0.22282 0.46137
 C1505 C 0.68828 0.31143 0.40545
 N1506 N 0.70387 0.31893 0.41310
 N1507 N 0.71241 0.31042 0.42725
 C1508 C 0.70561 0.29416 0.43417
 N1509 N 0.69000 0.28666 0.42653
 N1510 N 0.68147 0.29517 0.41238
 C1511 C 0.67940 0.32030 0.38987
 C1512 C 0.67208 0.32762 0.37662
 C1513 C 0.71509 0.28473 0.44905
 C1514 C 0.72320 0.27667 0.46138
 C1515 C 0.68803 0.81256 0.90534
 N1516 N 0.68083 0.79667 0.91270
 N1517 N 0.68935 0.78815 0.92685
 C1518 C 0.70533 0.79527 0.93407
 N1519 N 0.71252 0.81117 0.92671
 N1520 N 0.70400 0.81969 0.91256
 C1521 C 0.67916 0.82144 0.88975
 C1522 C 0.67184 0.82874 0.87650
 C1523 C 0.71480 0.78580 0.94894
 C1524 C 0.72288 0.77770 0.96125
 C1525 C 0.18765 0.31147 0.90533
 N1526 N 0.18090 0.29515 0.91217
 N1527 N 0.18943 0.28663 0.92632
 C1528 C 0.20497 0.29418 0.93405
 N1529 N 0.21170 0.31051 0.92722
 N1530 N 0.20318 0.31903 0.91308
 C1531 C 0.17878 0.32037 0.88975
 C1532 C 0.17149 0.32770 0.87650
 C1533 C 0.21446 0.28473 0.94892
 C1534 C 0.22257 0.27665 0.96123
 C1535 C 0.18829 0.81210 0.40518
 N1536 N 0.20421 0.81928 0.41247
 N1537 N 0.21272 0.81077 0.42662
 C1538 C 0.20558 0.79481 0.43392
 N1539 N 0.18965 0.78764 0.42664
 N1540 N 0.18114 0.79616 0.41248
 C1541 C 0.17942 0.82097 0.38959
 C1542 C 0.17211 0.82828 0.37633
 C1543 C 0.21503 0.78535 0.44880
 C1544 C 0.22312 0.77727 0.46112
 C1545 C 0.68844 0.68825 0.59533
 N1546 N 0.68098 0.70385 0.58762
 N1547 N 0.68950 0.71235 0.57344
 C1548 C 0.70575 0.70552 0.56654
 N1549 N 0.71320 0.68992 0.57423
 N1550 N 0.70468 0.68141 0.58841
 C1551 C 0.67955 0.67941 0.61094
 C1552 C 0.67220 0.67213 0.62422
 C1553 C 0.71520 0.71498 0.55162
 C1554 C 0.72327 0.72308 0.53927
 C1555 C 0.68836 0.18770 0.09456
 N1556 N 0.70455 0.18083 0.08755
 N1557 N 0.71306 0.18937 0.07339
 C1558 C 0.70565 0.20504 0.06580
 N1559 N 0.68946 0.21191 0.07279
 N1560 N 0.68094 0.20336 0.08695
 C1561 C 0.67948 0.17881 0.11015
 C1562 C 0.67215 0.17150 0.12342
 C1563 C 0.71510 0.21454 0.05091
 C1564 C 0.72317 0.22268 0.03858
 C1565 C 0.18828 0.68805 0.09458
 N1566 N 0.20428 0.68092 0.08740
 N1567 N 0.21285 0.68940 0.07323
 C1568 C 0.20568 0.70526 0.06581
 N1569 N 0.18966 0.71238 0.07297
 N1570 N 0.18110 0.70390 0.08714
 C1571 C 0.17935 0.67921 0.11018
 C1572 C 0.17199 0.67193 0.12344
 C1573 C 0.21519 0.71469 0.05091
 C1574 C 0.22330 0.72276 0.03857
 C1575 C 0.18811 0.18750 0.59493
 N1576 N 0.20405 0.18037 0.58763
 N1577 N 0.21259 0.18893 0.57349
 C1578 C 0.20544 0.20488 0.56622
 N1579 N 0.18949 0.21200 0.57351
 N1580 N 0.18095 0.20344 0.58765
 C1581 C 0.17921 0.17859 0.61050
 C1582 C 0.17188 0.17125 0.62375
 C1583 C 0.21492 0.21439 0.55135
 C1584 C 0.22302 0.22251 0.53904
   
