data_POSCAR
  _audit_creation_date              2014-09-24
  _audit_creation_method            'ToBaCCo'
  _symmetry_space_group_name_H-M    'P1'
  _symmetry_Int_Tables_number       1
  _symmetry_cell_setting            triclinic
  loop_
  _symmetry_equiv_pos_as_xyz
 x,y,z
_cell_length_a 68.8752
_cell_length_b 66.7932
_cell_length_c 67.8568
_cell_angle_alpha 91.936900
_cell_angle_beta 88.890600
_cell_angle_gamma 90.754000
loop_
  _atom_site_label
  _atom_site_type_symbol
  _atom_site_fract_x
  _atom_site_fract_y
  _atom_site_fract_z
C1 C 0.34512 0.33835 0.35194
 N2 N 0.33500 0.32946 0.36674
 C3 C 0.31644 0.33501 0.37112
 N4 N 0.30805 0.34938 0.36056
 C5 C 0.31809 0.35824 0.34573
 N6 N 0.33660 0.35268 0.34151
 C7 C 0.37062 0.83781 -0.15779
 N8 N 0.35893 0.83045 -0.14329
 C9 C 0.34174 0.83939 -0.13859
 N10 N 0.33625 0.85559 -0.14854
 C11 C 0.34781 0.86302 -0.16307
 N12 N 0.36495 0.85410 -0.16758
 C13 C 0.84816 0.35112 -0.15599
 N14 N 0.84159 0.36685 -0.16614
 C15 C 0.82421 0.37529 -0.16118
 N16 N 0.81348 0.36786 -0.14599
 C17 C 0.81988 0.35220 -0.13584
 N18 N 0.83722 0.34385 -0.14092
 C19 C 0.85998 0.84424 0.31309
 N20 N 0.84907 0.83606 0.32767
 C21 C 0.83162 0.84388 0.33315
 N22 N 0.82501 0.86004 0.32386
 C23 C 0.83574 0.86836 0.30914
 N24 N 0.85324 0.86043 0.30380
 C25 C 0.63126 0.64707 0.33284
 N26 N 0.64179 0.65244 0.34897
 C27 C 0.65771 0.64184 0.35350
 N28 N 0.66311 0.62602 0.34178
 C29 C 0.65284 0.62061 0.32556
 N30 N 0.63692 0.63121 0.32108
 C31 C 0.64736 0.15588 -0.18124
 N32 N 0.65669 0.14061 -0.19100
 C33 C 0.67289 0.13266 -0.18363
 N34 N 0.67977 0.14006 -0.16625
 C35 C 0.67071 0.15530 -0.15626
 N36 N 0.65442 0.16333 -0.16378
 C37 C 0.13171 0.66926 -0.17332
 N38 N 0.14061 0.65288 -0.18165
 C39 C 0.15531 0.64411 -0.17206
 N40 N 0.16103 0.65188 -0.15430
 C41 C 0.15218 0.66820 -0.14602
 N42 N 0.13758 0.67678 -0.15560
 C43 C 0.13325 0.16075 0.32939
 N44 N 0.13923 0.16866 0.34693
 C45 C 0.15456 0.16086 0.35614
 N46 N 0.16407 0.14491 0.34768
 C47 C 0.15815 0.13690 0.33001
 N48 N 0.14277 0.14491 0.32101
 C49 C 0.63542 0.34353 0.66426
 N50 N 0.64459 0.36063 0.67042
 C51 C 0.66064 0.36742 0.66066
 N52 N 0.66756 0.35692 0.64460
 C53 C 0.65843 0.33978 0.63824
 N54 N 0.64238 0.33313 0.64813
 C55 C 0.62764 0.83500 1.16755
 N56 N 0.63623 0.82476 1.15212
 C57 C 0.65142 0.83308 1.14205
 N58 N 0.65799 0.85173 1.14749
 C59 C 0.64937 0.86203 1.16280
 N60 N 0.63427 0.85360 1.17271
 C61 C 0.09169 0.31606 1.16384
 N62 N 0.09844 0.33246 1.17408
 C63 C 0.11582 0.34097 1.16919
 N64 N 0.12651 0.33292 1.15386
 C65 C 0.11975 0.31656 1.14349
 N66 N 0.10241 0.30822 1.14859
 C67 C 0.13810 0.84473 0.64509
 N68 N 0.14899 0.83385 0.63182
 C69 C 0.16723 0.84010 0.62680
 N70 N 0.17475 0.85712 0.63544
 C71 C 0.16388 0.86802 0.64876
 N72 N 0.14560 0.86180 0.65334
 C73 C 0.37364 0.66512 0.66931
 N74 N 0.36522 0.64878 0.67736
 C75 C 0.34942 0.63992 0.66918
 N76 N 0.34190 0.64751 0.65273
 C77 C 0.35015 0.66388 0.64445
 N78 N 0.36608 0.67277 0.65279
 C79 C 0.35817 0.17505 1.18452
 N80 N 0.34981 0.15752 1.19003
 C81 C 0.33461 0.14943 1.17986
 N82 N 0.32779 0.15908 1.16409
 C83 C 0.33613 0.17664 1.15853
 N84 N 0.35125 0.18449 1.16880
 C85 C 0.86742 0.67112 1.16168
 N86 N 0.86096 0.68115 1.14601
 C87 C 0.84489 0.67482 1.13631
 N88 N 0.83518 0.65826 1.14229
 C89 C 0.84139 0.64797 1.15783
 N90 N 0.85756 0.65445 1.16759
 C91 C 0.87158 0.18753 0.66175
 N92 N 0.86509 0.17001 0.66940
 C93 C 0.84992 0.15985 0.66090
 N94 N 0.84132 0.16740 0.64493
 C95 C 0.84778 0.18482 0.63732
 N96 N 0.86292 0.19473 0.64573
 C97 C 0.33257 0.34971 0.66573
 N98 N 0.34808 0.34412 0.67628
 C99 C 0.35750 0.32680 0.67130
 N100 N 0.35122 0.31510 0.65581
 C101 C 0.33574 0.32066 0.64528
 N102 N 0.32657 0.33796 0.65034
 C103 C 0.34372 0.85642 0.15729
 N104 N 0.35935 0.84826 0.16596
 C105 C 0.36840 0.83226 0.15703
 N106 N 0.36173 0.82452 0.13971
 C107 C 0.34613 0.83239 0.13116
 N108 N 0.33713 0.84834 0.13999
 C109 C 0.83900 0.34064 0.16372
 N110 N 0.83140 0.33009 0.14818
 C111 C 0.83384 0.30987 0.14643
 N112 N 0.84364 0.30028 0.16051
 C113 C 0.85106 0.31090 0.17614
 N114 N 0.84878 0.33097 0.17752
 C115 C 0.85781 0.86857 0.62547
 N116 N 0.85047 0.86198 0.60797
 C117 C 0.85667 0.84457 0.59926
 N118 N 0.87025 0.83369 0.60820
 C119 C 0.87771 0.84014 0.62567
 N120 N 0.87141 0.85758 0.63435
 C121 C 0.67904 0.65678 0.65474
 N122 N 0.68796 0.66447 0.63853
 C123 C 0.68075 0.68103 0.63028
 N124 N 0.66472 0.68980 0.63828
 C125 C 0.65569 0.68227 0.65433
 N126 N 0.66287 0.66574 0.66260
 C127 C 0.64463 0.15358 0.16735
 N128 N 0.65216 0.16228 0.15097
 C129 C 0.64405 0.17925 0.14434
 N130 N 0.62861 0.18745 0.15421
 C131 C 0.62109 0.17884 0.17050
 N132 N 0.62912 0.16190 0.17696
 C133 C 0.16040 0.62641 0.15594
 N134 N 0.14516 0.63599 0.16483
 C135 C 0.13894 0.65363 0.15798
 N136 N 0.14813 0.66172 0.14212
 C137 C 0.16339 0.65215 0.13318
 N138 N 0.16946 0.63457 0.14018
 C139 C 0.15758 0.14135 0.68867
 N140 N 0.14263 0.15152 0.69729
 C141 C 0.13541 0.16791 0.68878
 N142 N 0.14324 0.17412 0.67134
 C143 C 0.15824 0.16380 0.66263
 N144 N 0.16529 0.14758 0.67141
 C145 C 0.32162 0.61906 0.32751
 N146 N 0.33773 0.62636 0.31825
 C147 C 0.34794 0.64195 0.32638
 N148 N 0.34195 0.65028 0.34395
 C149 C 0.32586 0.64308 0.35339
 N150 N 0.31569 0.62748 0.34510
 C151 C 0.34052 0.14067 0.84549
 N152 N 0.35642 0.15161 0.84033
 C153 C 0.36130 0.16860 0.85077
 N154 N 0.35007 0.17464 0.86651
 C155 C 0.33414 0.16365 0.87183
 N156 N 0.32943 0.14676 0.86125
 C157 C 0.84510 0.64380 0.83542
 N158 N 0.86148 0.64942 0.82564
 C159 C 0.87126 0.66633 0.83113
 N160 N 0.86465 0.67773 0.84676
 C161 C 0.84830 0.67215 0.85683
 N162 N 0.83845 0.65520 0.85102
 C163 C 0.84382 0.10095 0.36257
 N164 N 0.83520 0.11402 0.37577
 C165 C 0.84635 0.12728 0.38644
 N166 N 0.86588 0.12772 0.38342
 C167 C 0.87447 0.11484 0.37017
 N168 N 0.86337 0.10150 0.35987
 C169 C 0.67313 0.36121 0.33150
 N170 N 0.67961 0.35246 0.34794
 C171 C 0.66786 0.33967 0.35796
 N172 N 0.64975 0.33568 0.35148
 C173 C 0.64311 0.34419 0.33511
 N174 N 0.65486 0.35695 0.32506
 C175 C 0.69088 0.86737 0.83034
 N176 N 0.67487 0.86229 0.81972
 C177 C 0.66216 0.84815 0.82628
 N178 N 0.66558 0.83907 0.84346
 C179 C 0.68147 0.84404 0.85413
 N180 N 0.69410 0.85820 0.84751
 C181 C 0.16870 0.37785 0.85764
 N182 N 0.15237 0.36866 0.85071
 C183 C 0.14460 0.35257 0.85990
 N184 N 0.15341 0.34557 0.87603
 C185 C 0.16977 0.35474 0.88303
 N186 N 0.17728 0.37085 0.87379
 C187 C 0.17864 0.84789 0.34226
 N188 N 0.18518 0.83775 0.35770
 C189 C 0.17591 0.82097 0.36381
 N190 N 0.15979 0.81430 0.35428
 C191 C 0.15299 0.82435 0.33876
 N192 N 0.16249 0.84117 0.33272
 O193 O 0.26076 1.01325 0.29117
 O194 O 0.29068 0.97631 0.26406
 O195 O 0.29045 1.01548 0.26706
 O196 O 0.25849 0.97452 0.28494
 O197 O 0.24014 0.97751 0.25889
 O198 O 0.27201 1.01757 0.24098
 O199 O 0.27227 0.97838 0.23793
 O200 O 0.24232 1.01629 0.26520
 Cu201 Cu 0.27693 0.99459 0.27936
 Cu202 Cu 0.25488 0.99767 0.24816
 C203 C 0.24663 1.02123 0.28289
 C204 C 0.28661 0.97089 0.24654
 C205 C 0.28645 1.02360 0.25095
 C206 C 0.24381 0.96912 0.27483
 O207 O 0.26727 0.48513 0.74281
 O208 O 0.23336 0.52489 0.75776
 O209 O 0.23542 0.48689 0.76395
 O210 O 0.26405 0.52281 0.73494
 O211 O 0.24606 0.51548 0.70902
 O212 O 0.21750 0.47966 0.73796
 O213 O 0.21527 0.51785 0.73186
 O214 O 0.24949 0.47762 0.71678
 Cu215 Cu 0.25183 0.50567 0.75245
 Cu216 Cu 0.23032 0.49689 0.72127
 C217 C 0.26418 0.47453 0.72733
 C218 C 0.21857 0.52819 0.74754
 C219 C 0.22152 0.47721 0.75586
 C220 C 0.25983 0.52532 0.71704
 O221 O 0.71690 0.02988 0.23001
 O222 O 0.73620 -0.01176 0.25787
 O223 O 0.73500 0.02695 0.26317
 O224 O 0.71638 -0.00900 0.22591
 O225 O 0.74396 -0.00737 0.20886
 O226 O 0.76291 0.02851 0.24665
 O227 O 0.76374 -0.00993 0.24076
 O228 O 0.74461 0.03185 0.21324
 Cu229 Cu 0.72333 0.00888 0.24587
 Cu230 Cu 0.75654 0.01111 0.22561
 C231 C 0.72749 0.03794 0.21685
 C232 C 0.75328 -0.01794 0.25401
 C233 C 0.75227 0.03353 0.26150
 C234 C 0.72692 -0.01452 0.21122
 O235 O 0.72419 0.49444 0.74025
 O236 O 0.75148 0.53230 0.76965
 O237 O 0.74952 0.49340 0.76817
 O238 O 0.72726 0.53356 0.74060
 O239 O 0.70314 0.53524 0.76249
 O240 O 0.72542 0.49512 0.79010
 O241 O 0.72727 0.53409 0.79144
 O242 O 0.70011 0.49628 0.76219
 Cu243 Cu 0.74051 0.51330 0.75243
 Cu244 Cu 0.71155 0.51534 0.77871
 C245 C 0.70750 0.48883 0.74637
 C246 C 0.74404 0.53957 0.78559
 C247 C 0.74127 0.48746 0.78386
 C248 C 0.71147 0.54129 0.74688
 O249 O 0.23488 0.50054 0.26341
 O250 O 0.21254 0.46094 0.23252
 O251 O 0.21070 0.49995 0.23457
 O252 O 0.23467 0.46170 0.26334
 O253 O 0.20916 0.46094 0.28354
 O254 O 0.18548 0.49910 0.25517
 O255 O 0.18701 0.46005 0.25268
 O256 O 0.20979 0.50004 0.28414
 Cu257 Cu 0.22569 0.48080 0.24639
 Cu258 Cu 0.19532 0.47992 0.27091
 C259 C 0.22629 0.50711 0.27898
 C260 C 0.19605 0.45374 0.23719
 C261 C 0.19402 0.50613 0.24017
 C262 C 0.22594 0.45492 0.27845
 O263 O 0.79518 1.02576 0.72198
 O264 O 0.76446 0.98420 0.73886
 O265 O 0.76515 1.02268 0.74541
 O266 O 0.79528 0.98690 0.71626
 O267 O 0.81422 0.98366 0.74181
 O268 O 0.78431 1.01953 0.77083
 O269 O 0.78323 0.98094 0.76456
 O270 O 0.81436 1.02277 0.74737
 Cu271 Cu 0.77818 1.00518 0.72803
 Cu272 Cu 0.80101 1.00134 0.75865
 C273 C 0.80981 1.03157 0.73183
 C274 C 0.76843 0.97561 0.75464
 C275 C 0.76965 1.02719 0.76310
 C276 C 0.80981 0.97908 0.72415
 O277 O 0.76397 0.51845 0.20981
 O278 O 0.73204 0.47740 0.22754
 O279 O 0.73519 0.51556 0.23514
 O280 O 0.75875 0.48034 0.19988
 O281 O 0.78049 0.47359 0.22213
 O282 O 0.75666 0.50875 0.25765
 O283 O 0.75388 0.47065 0.24969
 O284 O 0.78537 0.51137 0.23229
 Cu285 Cu 0.74542 0.49863 0.21576
 Cu286 Cu 0.77132 0.49042 0.24259
 C287 C 0.78005 0.52198 0.21829
 C288 C 0.73755 0.46718 0.24186
 C289 C 0.74169 0.51799 0.25242
 C290 C 0.77349 0.47080 0.20503
 O291 O 0.27920 0.01766 0.76041
 O292 O 0.26179 -0.01989 0.72388
 O293 O 0.25913 0.01895 0.72844
 O294 O 0.28011 -0.02123 0.75716
 O295 O 0.25235 -0.02396 0.77378
 O296 O 0.23181 0.01619 0.74579
 O297 O 0.23407 -0.02236 0.74059
 O298 O 0.25178 0.01484 0.77759
 Cu299 Cu 0.27284 -0.00090 0.74075
 Cu300 Cu 0.23974 -0.00418 0.76112
 C301 C 0.26852 0.02270 0.77516
 C302 C 0.24491 -0.02741 0.72592
 C303 C 0.24188 0.02451 0.73246
 C304 C 0.26970 -0.02933 0.77045
 O305 O 0.24113 0.27623 0.99904
 O306 O 0.26689 0.24864 1.03726
 O307 O 0.27139 0.25298 0.99924
 O308 O 0.24024 0.27593 1.03745
 O309 O 0.21904 0.25097 1.03433
 O310 O 0.25068 0.22770 0.99530
 O311 O 0.24586 0.22365 1.03327
 O312 O 0.22050 0.25075 0.99603
 Cu313 Cu 0.25701 0.26589 1.01855
 Cu314 Cu 0.23200 0.23576 1.01442
 C315 C 0.22626 0.26797 0.99114
 C316 C 0.26050 0.23135 1.04174
 C317 C 0.26649 0.23664 0.99066
 C318 C 0.22440 0.26757 1.04243
 O319 O 0.28115 0.78247 0.47998
 O320 O 0.30964 0.75904 0.51800
 O321 O 0.30742 0.75487 0.47962
 O322 O 0.28273 0.78607 0.51817
 O323 O 0.25993 0.76272 0.52088
 O324 O 0.28461 0.73158 0.48266
 O325 O 0.28690 0.73568 0.52111
 O326 O 0.25832 0.75913 0.48263
 Cu327 Cu 0.29756 0.77291 0.49866
 Cu328 Cu 0.27021 0.74488 0.50217
 C329 C 0.26498 0.77488 0.47479
 C330 C 0.30308 0.74348 0.52617
 C331 C 0.30005 0.73803 0.47441
 C332 C 0.26703 0.77971 0.52599
 O333 O 0.24761 0.77656 0.01058
 O334 O 0.22510 0.74239 -0.02616
 O335 O 0.21986 0.74983 0.01148
 O336 O 0.25332 0.76883 -0.02693
 O337 O 0.27434 0.74534 -0.02048
 O338 O 0.24102 0.72641 0.01768
 O339 O 0.24628 0.71900 -0.01993
 O340 O 0.26881 0.75320 0.01688
 Cu341 Cu 0.23434 0.76174 -0.00846
 Cu342 Cu 0.25971 0.73363 -0.00077
 C343 C 0.26210 0.77068 0.01997
 C344 C 0.23181 0.72493 -0.02933
 C345 C 0.22482 0.73483 0.02113
 C346 C 0.26955 0.76035 -0.03017
 O347 O 0.26259 0.23434 0.49210
 O348 O 0.22919 0.21533 0.53080
 O349 O 0.23520 0.20700 0.49301
 O350 O 0.25856 0.24009 0.52999
 O351 O 0.23768 0.26394 0.52428
 O352 O 0.21438 0.23075 0.48682
 O353 O 0.20833 0.23901 0.52449
 O354 O 0.24152 0.25800 0.48645
 Cu355 Cu 0.24838 0.22172 0.51205
 Cu356 Cu 0.22333 0.25023 0.50492
 C357 C 0.25766 0.24961 0.48276
 C358 C 0.21319 0.22421 0.53439
 C359 C 0.22108 0.21329 0.48336
 C360 C 0.25220 0.25762 0.53343
 O361 O 0.75927 0.78499 0.98255
 O362 O 0.77767 0.75118 1.01910
 O363 O 0.77895 0.75198 0.98069
 O364 O 0.75647 0.78318 1.02084
 O365 O 0.72966 0.76482 1.01861
 O366 O 0.75201 0.73376 0.97892
 O367 O 0.75082 0.73284 1.01724
 O368 O 0.73235 0.76679 0.98021
 Cu369 Cu 0.77078 0.76967 1.00101
 Cu370 Cu 0.73849 0.74776 0.99853
 C371 C 0.74281 0.78162 0.97503
 C372 C 0.76745 0.73632 1.02448
 C373 C 0.76920 0.73753 0.97299
 C374 C 0.73923 0.77918 1.02662
 O375 O 0.75694 0.27457 0.47628
 O376 O 0.77387 0.24417 0.51611
 O377 O 0.77353 0.23969 0.47805
 O378 O 0.75465 0.27717 0.51482
 O379 O 0.72667 0.26068 0.51554
 O380 O 0.74513 0.22394 0.47864
 O381 O 0.74596 0.22755 0.51705
 O382 O 0.72856 0.25881 0.47699
 Cu383 Cu 0.76751 0.26055 0.49617
 Cu384 Cu 0.73375 0.24117 0.49707
 C385 C 0.73994 0.27199 0.46983
 C386 C 0.76301 0.23074 0.52343
 C387 C 0.76248 0.22533 0.47224
 C388 C 0.73744 0.27504 0.52165
 O389 O 0.76382 0.24740 -0.02262
 O390 O 0.73533 0.21908 0.01313
 O391 O 0.73408 0.22294 -0.02505
 O392 O 0.76235 0.24661 0.01581
 O393 O 0.74142 0.27142 0.01735
 O394 O 0.71271 0.24724 -0.02175
 O395 O 0.71443 0.24380 0.01660
 O396 O 0.74251 0.27186 -0.02095
 Cu397 Cu 0.75096 0.23156 -0.00496
 Cu398 Cu 0.72561 0.26097 -0.00197
 C399 C 0.75815 0.26429 -0.02799
 C400 C 0.72032 0.22662 0.02127
 C401 C 0.71852 0.23122 -0.03030
 C402 C 0.75657 0.26324 0.02341
 O403 O 0.78673 0.73553 0.44819
 O404 O 0.76723 0.71136 0.49217
 O405 O 0.75650 0.71281 0.45563
 O406 O 0.79563 0.73633 0.48537
 O407 O 0.77690 0.76253 0.49123
 O408 O 0.73807 0.73910 0.46225
 O409 O 0.74871 0.73757 0.49883
 O410 O 0.76808 0.76178 0.45427
 Cu411 Cu 0.77836 0.72138 0.46963
 Cu412 Cu 0.75604 0.75283 0.47728
 C413 C 0.78091 0.75270 0.44375
 C414 C 0.75478 0.72035 0.50308
 C415 C 0.74059 0.72204 0.45396
 C416 C 0.79280 0.75357 0.49335
 O417 O 0.98242 0.26141 0.26917
 O418 O 0.96038 0.22800 0.30495
 O419 O 0.99553 0.24038 0.29739
 O420 O 0.94790 0.24634 0.27414
 O421 O 0.95384 0.21998 0.25452
 O422 O 1.00120 0.21466 0.27687
 O423 O 0.96657 0.20173 0.28529
 O424 O 0.98831 0.23565 0.24873
 Cu425 Cu 0.97084 0.24658 0.28845
 Cu426 Cu 0.97795 0.21538 0.26432
 C427 C 0.98925 0.25434 0.25298
 C428 C 0.96003 0.20926 0.30152
 C429 C 1.00653 0.22642 0.29085
 C430 C 0.94296 0.23426 0.26014
 O431 O 0.51841 0.26771 0.74279
 O432 O 0.48232 0.24104 0.77407
 O433 O 0.52012 0.24636 0.77432
 O434 O 0.48044 0.26429 0.74403
 O435 O 0.48291 0.23727 0.72451
 O436 O 0.52306 0.21962 0.75450
 O437 O 0.48560 0.21422 0.75440
 O438 O 0.52057 0.24073 0.72318
 Cu439 Cu 0.50007 0.25756 0.76077
 Cu440 Cu 0.50330 0.22530 0.73722
 C441 C 0.52558 0.25860 0.72761
 C442 C 0.47787 0.22297 0.76937
 C443 C 0.52842 0.23001 0.76953
 C444 C 0.47482 0.25380 0.72921
 O445 O 0.02129 0.28635 0.78568
 O446 O -0.01493 0.25316 0.76269
 O447 O 0.02192 0.25855 0.75831
 O448 O -0.01767 0.28726 0.78385
 O449 O -0.01741 0.30795 0.75916
 O450 O 0.02088 0.27943 0.73379
 O451 O -0.01711 0.27357 0.73792
 O452 O 0.02010 0.30697 0.76099
 Cu453 Cu 0.00245 0.26980 0.77521
 Cu454 Cu 0.00112 0.29359 0.74559
 C455 C 0.02726 0.30200 0.77729
 C456 C -0.02216 0.25750 0.74641
 C457 C 0.02807 0.26429 0.74151
 C458 C -0.02430 0.30256 0.77558
 O459 O 0.47416 0.21478 0.29367
 O460 O 0.51288 0.24508 0.31754
 O461 O 0.47508 0.24262 0.32142
 O462 O 0.51189 0.21626 0.29071
 O463 O 0.50948 0.23895 0.26797
 O464 O 0.47301 0.26550 0.29883
 O465 O 0.51064 0.26759 0.29461
 O466 O 0.47196 0.23774 0.27118
 Cu467 Cu 0.49376 0.22743 0.30817
 Cu468 Cu 0.49102 0.25476 0.28090
 C469 C 0.46648 0.22121 0.27827
 C470 C 0.51848 0.26138 0.30998
 C471 C 0.46768 0.25848 0.31527
 C472 C 0.51690 0.22306 0.27411
 O473 O 1.02383 0.77301 0.71920
 O474 O 0.98912 0.75537 0.75655
 O475 O 1.02506 0.74740 0.74723
 O476 O 0.98780 0.78010 0.72794
 O477 O 0.97903 0.75567 0.70710
 O478 O 1.01603 0.72285 0.72666
 O479 O 0.98000 0.73080 0.73603
 O480 O 1.01532 0.74831 0.69855
 Cu481 Cu 1.00741 0.76640 0.73981
 Cu482 Cu 0.99661 0.73693 0.71503
 C483 C 1.02551 0.76384 0.70257
 C484 C 0.97861 0.74010 0.75266
 C485 C 1.02689 0.72959 0.74028
 C486 C 0.97717 0.77345 0.71407
 O487 O 0.51537 0.75908 0.24895
 O488 O 0.47687 0.73732 0.28071
 O489 O 0.51390 0.73087 0.27460
 O490 O 0.47886 0.76678 0.25649
 O491 O 0.47151 0.74540 0.23216
 O492 O 0.50626 0.70924 0.25057
 O493 O 0.46934 0.71596 0.25643
 O494 O 0.50785 0.73726 0.22503
 Cu495 Cu 0.49702 0.75065 0.26762
 Cu496 Cu 0.48792 0.72481 0.23867
 C497 C 0.51817 0.75177 0.23158
 C498 C 0.46650 0.72293 0.27386
 C499 C 0.51614 0.71402 0.26567
 C500 C 0.46928 0.76225 0.24117
 O501 O 0.02884 0.77608 0.25359
 O502 O -0.01020 0.74998 0.22613
 O503 O 0.02765 0.74824 0.22561
 O504 O -0.00919 0.77959 0.25196
 O505 O -0.00604 0.80199 0.22887
 O506 O 0.03005 0.77078 0.20258
 O507 O -0.00770 0.77242 0.20302
 O508 O 0.03168 0.79842 0.23044
 Cu509 Cu 0.00907 0.76130 0.24171
 Cu510 Cu 0.01226 0.78814 0.21397
 C511 C 0.03708 0.79150 0.24665
 C512 C -0.01566 0.75679 0.20993
 C513 C 0.03504 0.75428 0.20950
 C514 C -0.01404 0.79605 0.24462
 O515 O 0.52993 0.76183 0.77544
 O516 O 0.49182 0.74023 0.74335
 O517 O 0.52857 0.73347 0.74836
 O518 O 0.49266 0.76673 0.77235
 O519 O 0.49901 0.78981 0.75050
 O520 O 0.53508 0.75634 0.72633
 O521 O 0.49827 0.76327 0.72150
 O522 O 0.53633 0.78471 0.75341
 Cu523 Cu 0.51006 0.74828 0.76207
 Cu524 Cu 0.51781 0.77583 0.73572
 C525 C 0.53972 0.77690 0.76976
 C526 C 0.48854 0.74814 0.72697
 C527 C 0.53805 0.73926 0.73337
 C528 C 0.48965 0.78386 0.76557
 C529 C 0.36494 0.33231 0.34641
 C530 C 0.37428 0.31645 0.35487
 C531 C 0.39307 0.30924 0.34700
 N532 N 0.40116 0.29269 0.35431
 N533 N 0.41761 0.28543 0.34646
 C534 C 0.42656 0.29448 0.33104
 N535 N 0.41857 0.31112 0.32390
 N536 N 0.40215 0.31837 0.33173
 C537 C 0.44393 0.28600 0.32125
 C538 C 0.45239 0.26844 0.32720
 H539 H 0.36726 0.30849 0.36675
 H540 H 0.44957 0.29328 0.30827
 H541 H 0.37204 0.34011 0.33447
 H542 H 0.44705 0.26127 0.34036
 C543 C 0.38794 0.82821 0.83704
 C544 C 0.40023 0.83501 0.82199
 C545 C 0.41737 0.82390 0.81482
 N546 N 0.42812 0.83093 0.79953
 N547 N 0.44321 0.82067 0.79220
 C548 C 0.44809 0.80298 0.79991
 N549 N 0.43743 0.79601 0.81531
 N550 N 0.42232 0.80627 0.82263
 C551 C 0.46415 0.79102 0.79146
 C552 C 0.47495 0.79693 0.77501
 H553 H 0.39686 0.84858 0.81452
 H554 H 0.46705 0.77680 0.79796
 H555 H 0.39162 0.81482 0.84466
 H556 H 0.47218 0.81118 0.76850
 C557 C -0.13320 0.34150 0.83881
 C558 C -0.12087 0.34810 0.82376
 C559 C -0.10259 0.33787 0.81826
 N560 N -0.09124 0.34489 0.80340
 N561 N -0.07491 0.33559 0.79791
 C562 C -0.06927 0.31890 0.80707
 N563 N -0.08058 0.31192 0.82200
 N564 N -0.09692 0.32123 0.82750
 C565 C -0.05161 0.30804 0.80052
 C566 C -0.04038 0.31427 0.78449
 H567 H -0.12479 0.36103 0.81556
 H568 H -0.04795 0.29444 0.80779
 H569 H -0.12916 0.32865 0.84707
 H570 H -0.04432 0.32774 0.77716
 C571 C -0.12226 0.83556 0.30787
 C572 C -0.10986 0.84266 0.29309
 C573 C -0.09166 0.83239 0.28746
 N574 N -0.08001 0.83969 0.27297
 N575 N -0.06381 0.83022 0.26736
 C576 C -0.05862 0.81309 0.27604
 N577 N -0.07022 0.80585 0.29060
 N578 N -0.08641 0.81532 0.29622
 C579 C -0.04126 0.80193 0.26931
 C580 C -0.02946 0.80841 0.25383
 H581 H -0.11365 0.85584 0.28519
 H582 H -0.03834 0.78779 0.27596
 H583 H -0.11806 0.82248 0.31573
 H584 H -0.03250 0.82252 0.24716
 C585 C 0.61430 0.65902 0.32797
 C586 C 0.60288 0.65445 0.31163
 C587 C 0.58668 0.66717 0.30614
 N588 N 0.57600 0.66206 0.29009
 N589 N 0.56160 0.67367 0.28465
 C590 C 0.55735 0.69084 0.29505
 N591 N 0.56799 0.69591 0.31113
 N592 N 0.58238 0.68430 0.31658
 C593 C 0.54190 0.70419 0.28894
 C594 C 0.53049 0.69984 0.27255
 H595 H 0.60608 0.64136 0.30234
 H596 H 0.53976 0.71807 0.29737
 H597 H 0.61096 0.67199 0.33737
 H598 H 0.53245 0.68588 0.26419
 C599 C 0.63078 0.16338 0.81028
 C600 C 0.61984 0.17936 0.81804
 C601 C 0.60264 0.18626 0.80758
 N602 N 0.59291 0.20283 0.81412
 N603 N 0.57757 0.20916 0.80444
 C604 C 0.57139 0.19912 0.78791
 N605 N 0.58106 0.18254 0.78147
 N606 N 0.59636 0.17625 0.79110
 C607 C 0.55470 0.20584 0.77669
 C608 C 0.54452 0.22327 0.78159
 H609 H 0.62406 0.18709 0.83161
 H610 H 0.55056 0.19686 0.76382
 H611 H 0.62633 0.15624 0.79648
 H612 H 0.54865 0.23241 0.79435
 C613 C 1.11629 0.67979 0.81681
 C614 C 1.10894 0.67414 0.79845
 C615 C 1.09433 0.68659 0.78928
 N616 N 1.08546 0.68024 0.77246
 N617 N 1.07223 0.69159 0.76427
 C618 C 1.06747 0.70972 0.77260
 N619 N 1.07642 0.71608 0.78931
 N620 N 1.08956 0.70473 0.79749
 C621 C 1.05294 0.72258 0.76404
 C622 C 1.04170 0.71648 0.74806
 H623 H 1.11395 0.66065 0.79076
 H624 H 1.05075 0.73727 0.77093
 H625 H 1.11069 0.69305 0.82447
 H626 H 1.04348 0.70166 0.74135
 C627 C 1.11738 0.16849 0.31993
 C628 C 1.10661 0.18455 0.32779
 C629 C 1.08923 0.19159 0.31805
 N630 N 1.07833 0.20637 0.32666
 N631 N 1.06217 0.21235 0.31822
 C632 C 1.05640 0.20374 0.30084
 N633 N 1.06737 0.18909 0.29219
 N634 N 1.08348 0.18312 0.30062
 C635 C 1.03824 0.20922 0.29163
 C636 C 1.02555 0.22352 0.29971
 H637 H 1.11060 0.19181 0.34167
 H638 H 1.03440 0.20100 0.27820
 H639 H 1.11316 0.16142 0.30603
 H640 H 1.02935 0.23221 0.31286
 C641 C 0.61839 0.33639 0.67558
 C642 C 0.60873 0.31845 0.67092
 C643 C 0.59258 0.31078 0.68318
 N644 N 0.58420 0.29284 0.67838
 N645 N 0.56991 0.28542 0.68956
 C646 C 0.56343 0.29566 0.70599
 N647 N 0.57174 0.31366 0.71075
 N648 N 0.58605 0.32109 0.69956
 C649 C 0.54798 0.28726 0.71875
 C650 C 0.54002 0.26831 0.71473
 H651 H 0.61344 0.30943 0.65818
 H652 H 0.54323 0.29584 0.73174
 H653 H 0.61368 0.34535 0.68835
 H654 H 0.54502 0.25976 0.70180
 C655 C 0.61237 0.82682 0.17856
 C656 C 0.60424 0.80788 0.17473
 C657 C 0.58864 0.79981 0.18750
 N658 N 0.57963 0.78223 0.18249
 N659 N 0.56557 0.77483 0.19402
 C660 C 0.56005 0.78470 0.21102
 N661 N 0.56912 0.80222 0.21606
 N662 N 0.58312 0.80964 0.20451
 C663 C 0.54463 0.77673 0.22401
 C664 C 0.53355 0.75988 0.21867
 H665 H 0.60930 0.79877 0.16220
 H666 H 0.54177 0.78451 0.23801
 H667 H 0.60667 0.83583 0.19088
 H668 H 0.53608 0.75241 0.20445
 C669 C 1.07456 0.30633 0.16943
 C670 C 1.06309 0.31287 0.18546
 C671 C 1.04762 0.30018 0.19375
 N672 N 1.03717 0.30693 0.20969
 N673 N 1.02427 0.29500 0.21845
 C674 C 1.02136 0.27585 0.21164
 N675 N 1.03163 0.26917 0.19554
 N676 N 1.04452 0.28112 0.18675
 C677 C 1.00849 0.26205 0.22233
 C678 C 0.99878 0.26830 0.23957
 H679 H 1.06634 0.32701 0.19307
 H680 H 1.00784 0.24646 0.21742
 H681 H 1.07062 0.29256 0.16150
 H682 H 0.99937 0.28395 0.24430
 C683 C 1.11979 0.83831 0.65141
 C684 C 1.11142 0.81988 0.64587
 C685 C 1.09385 0.81255 0.65618
 N686 N 1.08701 0.79363 0.65260
 N687 N 1.07199 0.78652 0.66305
 C688 C 1.06333 0.79810 0.67746
 N689 N 1.07002 0.81703 0.68084
 N690 N 1.08497 0.82412 0.67041
 C691 C 1.04777 0.79036 0.69026
 C692 C 1.03953 0.77130 0.68786
 H693 H 1.11860 0.81004 0.63509
 H694 H 1.04299 0.80001 0.70252
 H695 H 1.11230 0.84782 0.66226
 H696 H 1.04340 0.76181 0.67518
 C697 C 0.39060 0.67409 0.67920
 C698 C 0.40036 0.69137 0.67337
 C699 C 0.41670 0.69964 0.68497
 N700 N 0.42642 0.71638 0.67931
 N701 N 0.44102 0.72393 0.69000
 C702 C 0.44640 0.71501 0.70674
 N703 N 0.43670 0.69832 0.71235
 N704 N 0.42216 0.69078 0.70169
 C705 C 0.46223 0.72312 0.71902
 C706 C 0.47321 0.73994 0.71409
 H707 H 0.39586 0.69900 0.66042
 H708 H 0.46522 0.71560 0.73251
 H709 H 0.39539 0.66667 0.69217
 H710 H 0.47044 0.74741 0.70052
 C711 C 0.37362 0.18376 0.19474
 C712 C 0.38167 0.17559 0.21135
 C713 C 0.39769 0.18586 0.22178
 N714 N 0.40508 0.17809 0.23824
 N715 N 0.41946 0.18752 0.24780
 C716 C 0.42693 0.20506 0.24122
 N717 N 0.41956 0.21277 0.22477
 N718 N 0.40523 0.20337 0.21524
 C719 C 0.44260 0.21596 0.25145
 C720 C 0.45103 0.20939 0.26854
 H721 H 0.37606 0.16162 0.21697
 H722 H 0.44762 0.22987 0.24522
 H723 H 0.37947 0.19778 0.18945
 H724 H 0.44622 0.19546 0.27488
 C725 C -0.11609 0.67803 0.17176
 C726 C -0.10563 0.69504 0.16590
 C727 C -0.08868 0.70352 0.17633
 N728 N -0.07952 0.71993 0.16917
 N729 N -0.06438 0.72823 0.17840
 C730 C -0.05780 0.72045 0.19520
 N731 N -0.06693 0.70398 0.20237
 N732 N -0.08209 0.69565 0.19311
 C733 C -0.04127 0.72978 0.20576
 C734 C -0.03153 0.74678 0.19897
 H735 H -0.11008 0.70285 0.15303
 H736 H -0.03688 0.72327 0.21936
 H737 H -0.11145 0.67006 0.18445
 H738 H -0.03588 0.75324 0.18534
 C739 C -0.11227 0.19928 0.67032
 C740 C -0.10308 0.19476 0.68769
 C741 C -0.08778 0.20810 0.69591
 N742 N -0.07942 0.20399 0.71323
 N743 N -0.06585 0.21623 0.72086
 C744 C -0.06015 0.23304 0.71145
 N745 N -0.06847 0.23710 0.69412
 N746 N -0.08201 0.22488 0.68650
 C747 C -0.04540 0.24692 0.71977
 C748 C -0.03656 0.24358 0.73762
 H749 H -0.10746 0.18158 0.69562
 H750 H -0.04155 0.26017 0.71171
 H751 H -0.10782 0.21262 0.66269
 H752 H -0.04039 0.23030 0.74563
 C753 C 0.30910 0.37335 0.33372
 C754 C 0.28984 0.37908 0.33647
 C755 C 0.28071 0.39339 0.32363
 N756 N 0.26193 0.39858 0.32692
 N757 N 0.25341 0.41139 0.31532
 C758 C 0.26334 0.41946 0.29996
 N759 N 0.28212 0.41426 0.29665
 N760 N 0.29065 0.40146 0.30826
 C761 C 0.25414 0.43373 0.28711
 C762 C 0.23513 0.44001 0.29051
 H763 H 0.28108 0.37271 0.34816
 H764 H 0.26261 0.43967 0.27498
 H765 H 0.31784 0.37979 0.32203
 H766 H 0.22677 0.43423 0.30280
 C767 C 0.34206 -0.12078 0.82614
 C768 C 0.32417 -0.11156 0.82933
 C769 C 0.31738 -0.09570 0.81679
 N770 N 0.29924 -0.08844 0.81968
 N771 N 0.29259 -0.07443 0.80817
 C772 C 0.30384 -0.06714 0.79333
 N773 N 0.32206 -0.07432 0.79049
 N774 N 0.32870 -0.08838 0.80200
 C775 C 0.29650 -0.05176 0.78050
 C776 C 0.27750 -0.04504 0.78249
 H777 H 0.31438 -0.11658 0.84090
 H778 H 0.30615 -0.04567 0.76935
 H779 H 0.35168 -0.11564 0.81448
 H780 H 0.26788 -0.05132 0.79356
 C781 C 0.81740 0.39125 0.82817
 C782 C 0.79961 0.40035 0.83275
 C783 C 0.79167 0.41671 0.82148
 N784 N 0.77438 0.42477 0.82716
 N785 N 0.76671 0.43941 0.81712
 C786 C 0.77603 0.44657 0.80096
 N787 N 0.79334 0.43853 0.79526
 N788 N 0.80104 0.42387 0.80533
 C789 C 0.76758 0.46266 0.78963
 C790 C 0.74994 0.47150 0.79513
 H791 H 0.79087 0.39524 0.84509
 H792 H 0.77543 0.46763 0.77666
 H793 H 0.82616 0.39657 0.81595
 H794 H 0.74218 0.46664 0.80819
 C795 C 0.82844 -0.11435 0.29870
 C796 C 0.81020 -0.10623 0.30297
 C797 C 0.80241 -0.08943 0.29220
 N798 N 0.78433 -0.08260 0.29671
 N799 N 0.77696 -0.06751 0.28703
 C800 C 0.78741 -0.05869 0.27245
 N801 N 0.80550 -0.06550 0.26796
 N802 N 0.81287 -0.08059 0.27763
 C803 C 0.77952 -0.04205 0.26151
 C804 C 0.76091 -0.03458 0.26514
 H805 H 0.80111 -0.11256 0.31444
 H806 H 0.78868 -0.03555 0.25019
 H807 H 0.83751 -0.10812 0.28716
 H808 H 0.75167 -0.04107 0.27640
 C809 C 0.34043 0.62260 0.67872
 C810 C 0.32419 0.61251 0.67128
 C811 C 0.31471 0.59611 0.68189
 N812 N 0.29921 0.58626 0.67400
 N813 N 0.29023 0.57170 0.68373
 C814 C 0.29642 0.56649 0.70172
 N815 N 0.31193 0.57631 0.70959
 N816 N 0.32093 0.59084 0.69986
 C817 C 0.28635 0.55089 0.71293
 C818 C 0.27071 0.53993 0.70533
 H819 H 0.31805 0.61693 0.65753
 H820 H 0.29122 0.54821 0.72769
 H821 H 0.34668 0.61790 0.69232
 H822 H 0.26604 0.54233 0.69045
 C823 C 0.32581 1.13149 0.18550
 C824 C 0.33191 1.12092 0.20170
 C825 C 0.32221 1.10234 0.20798
 N826 N 0.32831 1.09311 0.22424
 N827 N 0.31948 1.07647 0.23030
 C828 C 0.30421 1.06842 0.22028
 N829 N 0.29817 1.07761 0.20399
 N830 N 0.30698 1.09424 0.19794
 C831 C 0.29384 1.05038 0.22691
 C832 C 0.29847 1.04047 0.24398
 H833 H 0.34402 1.12652 0.21033
 H834 H 0.28163 1.04508 0.21826
 H835 H 0.31367 1.12572 0.17702
 H836 H 0.31062 1.04564 0.25277
 C837 C 0.83074 0.63104 0.16327
 C838 C 0.83541 0.61886 0.17876
 C839 C 0.82319 0.60128 0.18361
 N840 N 0.82827 0.58916 0.19827
 N841 N 0.81724 0.57333 0.20275
 C842 C 0.80070 0.56901 0.19275
 N843 N 0.79562 0.58113 0.17812
 N844 N 0.80665 0.59693 0.17363
 C845 C 0.78815 0.55174 0.19768
 C846 C 0.79288 0.53862 0.21232
 H847 H 0.84816 0.62215 0.18744
 H848 H 0.77475 0.54950 0.18975
 H849 H 0.81800 0.62722 0.15472
 H850 H 0.80633 0.54085 0.22014
 C851 C 0.84286 1.14175 0.66800
 C852 C 0.85028 1.13217 0.68418
 C853 C 0.84184 1.11293 0.69054
 N854 N 0.84845 1.10399 0.70677
 N855 N 0.84059 1.08673 0.71260
 C856 C 0.82587 1.07780 0.70236
 N857 N 0.81937 1.08671 0.68614
 N858 N 0.82719 1.10390 0.68034
 C859 C 0.81639 1.05913 0.70859
 C860 C 0.82137 1.04899 0.72537
 H861 H 0.86225 1.13880 0.69232
 H862 H 0.80442 1.05350 0.69978
 H863 H 0.83079 1.13479 0.66024
 H864 H 0.83337 1.05433 0.73428
 C865 C 0.65970 0.60422 0.31227
 C866 C 0.67615 0.59338 0.31665
 C867 C 0.68547 0.57916 0.30262
 N868 N 0.70198 0.56999 0.30776
 N869 N 0.71122 0.55770 0.29501
 C870 C 0.70429 0.55417 0.27662
 N871 N 0.68771 0.56326 0.27149
 N872 N 0.67846 0.57558 0.28425
 C873 C 0.71452 0.54091 0.26229
 C874 C 0.73178 0.53151 0.26673
 H875 H 0.68318 0.59608 0.33065
 H876 H 0.70825 0.53849 0.24787
 H877 H 0.65235 0.60137 0.29847
 H878 H 0.73802 0.53378 0.28118
 C879 C 0.68239 1.11729 0.80583
 C880 C 0.69923 1.10856 0.81254
 C881 C 0.70984 1.09312 0.80092
 N882 N 0.72600 1.08506 0.80834
 N883 N 0.73604 1.07135 0.79790
 C884 C 0.73029 1.06520 0.77962
 N885 N 0.71410 1.07324 0.77219
 N886 N 0.70404 1.08695 0.78265
 C887 C 0.74144 1.05033 0.76780
 C888 C 0.75800 1.04153 0.77498
 H889 H 0.70512 1.11331 0.82666
 H890 H 0.73660 1.04637 0.75306
 H891 H 0.67651 1.11220 0.79180
 H892 H 0.76272 1.04535 0.78979
 C893 C 0.16512 0.62756 0.81989
 C894 C 0.16116 0.61846 0.80153
 C895 C 0.17299 0.60164 0.79370
 N896 N 0.16918 0.59273 0.77587
 N897 N 0.18013 0.57771 0.76872
 C898 C 0.19528 0.57112 0.77918
 N899 N 0.19904 0.58002 0.79696
 N900 N 0.18812 0.59496 0.80408
 C901 C 0.20787 0.55484 0.77177
 C902 C 0.20512 0.54420 0.75399
 H903 H 0.14954 0.62388 0.79267
 H904 H 0.21993 0.55108 0.78091
 H905 H 0.17675 0.62172 0.82847
 H906 H 0.19297 0.54753 0.74480
 C907 C 0.16748 1.12068 0.32068
 C908 C 0.18331 1.11098 0.32841
 C909 C 0.19275 1.09415 0.31754
 N910 N 0.20771 1.08452 0.32564
 N911 N 0.21645 1.06943 0.31583
 C912 C 0.21057 1.06340 0.29754
 N913 N 0.19562 1.07302 0.28944
 N914 N 0.18687 1.08808 0.29926
 C915 C 0.22037 1.04703 0.28633
 C916 C 0.23559 1.03658 0.29420
 H917 H 0.18895 1.11576 0.34262
 H918 H 0.21573 1.04342 0.27145
 H919 H 0.16197 1.11541 0.30654
 H920 H 0.24009 1.04016 0.30913
 C921 C 0.67080 0.38576 0.66768
 C922 C 0.66361 0.39730 0.68363
 C923 C 0.67399 0.41483 0.69205
 N924 N 0.66605 0.42508 0.70773
 N925 N 0.67541 0.44063 0.71606
 C926 C 0.69309 0.44654 0.70903
 N927 N 0.70101 0.43636 0.69325
 N928 N 0.69163 0.42078 0.68490
 C929 C 0.70382 0.46326 0.71863
 C930 C 0.69642 0.47334 0.73541
 H931 H 0.64995 0.39311 0.69063
 H932 H 0.71805 0.46724 0.71280
 H933 H 0.68428 0.39004 0.66039
 H934 H 0.68222 0.46925 0.74124
 C935 C 0.65608 -0.11787 0.16914
 C936 C 0.67314 -0.10892 0.16212
 C937 C 0.67997 -0.08955 0.17058
 N938 N 0.69809 -0.08250 0.16627
 N939 N 0.70467 -0.06554 0.17486
 C940 C 0.69330 -0.05501 0.18799
 N941 N 0.67512 -0.06192 0.19205
 N942 N 0.66859 -0.07884 0.18352
 C943 C 0.70051 -0.03716 0.19889
 C944 C 0.71948 -0.02983 0.19710
 H945 H 0.68211 -0.11670 0.15112
 H946 H 0.69075 -0.03032 0.20979
 H947 H 0.64757 -0.11021 0.18061
 H948 H 0.72930 -0.03618 0.18597
 C949 C 0.12256 0.35738 0.18048
 C950 C 0.14055 0.36668 0.17717
 C951 C 0.14782 0.38313 0.19019
 N952 N 0.16551 0.39152 0.18650
 N953 N 0.17245 0.40614 0.19832
 C954 C 0.16199 0.41294 0.21430
 N955 N 0.14428 0.40458 0.21798
 N956 N 0.13733 0.38995 0.20615
 C957 C 0.16964 0.42897 0.22760
 C958 C 0.18775 0.43788 0.22422
 H959 H 0.14982 0.36156 0.16499
 H960 H 0.16090 0.43377 0.24030
 H961 H 0.11345 0.36280 0.19267
 H962 H 0.19637 0.43306 0.21145
 C963 C 0.17124 -0.11509 0.65876
 C964 C 0.19041 -0.10829 0.65708
 C965 C 0.19777 -0.09226 0.67052
 N966 N 0.21671 -0.08644 0.66967
 N967 N 0.22355 -0.07258 0.68244
 C968 C 0.21169 -0.06412 0.69655
 N969 N 0.19277 -0.06988 0.69732
 N970 N 0.18595 -0.08367 0.68456
 C971 C 0.21892 -0.04926 0.71118
 C972 C 0.23799 -0.04212 0.71098
 H973 H 0.20043 -0.11549 0.64666
 H974 H 0.20882 -0.04378 0.72249
 H975 H 0.16155 -0.10754 0.66929
 H976 H 0.24805 -0.04718 0.69945
 C977 C 0.30510 0.32559 0.38695
 C978 C 0.31202 0.30983 0.39772
 C979 C 0.30002 0.30052 0.41319
 N980 N 0.30674 0.28469 0.42297
 N981 N 0.29587 0.27617 0.43693
 C982 C 0.27788 0.28321 0.44160
 N983 N 0.27121 0.29903 0.43185
 N984 N 0.28204 0.30751 0.41791
 C985 C 0.26550 0.27426 0.45691
 C986 C 0.27078 0.25770 0.46751
 H987 H 0.32641 0.30404 0.39462
 H988 H 0.25153 0.28109 0.45990
 H989 H 0.29060 0.33114 0.38999
 H990 H 0.28465 0.25062 0.46461
 C991 C 0.32862 0.83165 -0.12321
 C992 C 0.33255 0.81462 -0.11276
 C993 C 0.31874 0.80691 -0.09793
 N994 N 0.32298 0.79025 -0.08804
 N995 N 0.31053 0.78309 -0.07468
 C996 C 0.29335 0.79232 -0.07072
 N997 N 0.28911 0.80897 -0.08061
 N998 N 0.30157 0.81613 -0.09396
 C999 C 0.27944 0.78466 -0.05599
 C1000 C 0.28320 0.76781 -0.04521
 H1001 H 0.34594 0.80662 -0.11561
 H1002 H 0.26596 0.79262 -0.05347
 H1003 H 0.31519 0.83957 -0.12028
 H1004 H 0.29672 0.75992 -0.04765
 C1005 C 0.80772 0.34428 -0.11973
 C1006 C 0.81306 0.32767 -0.10930
 C1007 C 0.80058 0.31906 -0.09383
 N1008 N 0.80625 0.30227 -0.08498
 N1009 N 0.79506 0.29399 -0.07119
 C1010 C 0.77775 0.30217 -0.06569
 N1011 N 0.77209 0.31903 -0.07447
 N1012 N 0.78329 0.32733 -0.08831
 C1013 C 0.76518 0.29280 -0.05067
 C1014 C 0.77022 0.27473 -0.04257
 H1015 H 0.82670 0.32038 -0.11284
 H1016 H 0.75170 0.29996 -0.04623
 H1017 H 0.79402 0.35151 -0.11630
 H1018 H 0.78360 0.26756 -0.04735
 C1019 C 0.81987 0.83493 0.34900
 C1020 C 0.82526 0.81709 0.35734
 C1021 C 0.81420 0.80779 0.37341
 N1022 N 0.81980 0.78977 0.37976
 N1023 N 0.81027 0.78112 0.39451
 C1024 C 0.79478 0.79017 0.40351
 N1025 N 0.78915 0.80822 0.39717
 N1026 N 0.79868 0.81688 0.38235
 C1027 C 0.78452 0.78084 0.42016
 C1028 C 0.78961 0.76195 0.42631
 H1029 H 0.83815 0.80945 0.35184
 H1030 H 0.77309 0.78908 0.42788
 H1031 H 0.80670 0.84236 0.35402
 H1032 H 0.80083 0.75366 0.41831
 C1033 C 0.66576 0.32817 0.62088
 C1034 C 0.68281 0.33336 0.61070
 C1035 C 0.69022 0.32132 0.59364
 N1036 N 0.70755 0.32608 0.58500
 N1037 N 0.71450 0.31512 0.56972
 C1038 C 0.70433 0.29902 0.56249
 N1039 N 0.68697 0.29434 0.57107
 N1040 N 0.68005 0.30525 0.58635
 C1041 C 0.71178 0.28637 0.54593
 C1042 C 0.73004 0.28918 0.53708
 H1043 H 0.69118 0.34640 0.61554
 H1044 H 0.70268 0.27392 0.54095
 H1045 H 0.65759 0.31495 0.61618
 H1046 H 0.73935 0.30145 0.54205
 C1047 C 0.66057 0.82180 1.12539
 C1048 C 0.67708 0.82888 1.11545
 C1049 C 0.68621 0.81767 1.09873
 N1050 N 0.70303 0.82453 1.09050
 N1051 N 0.71146 0.81457 1.07535
 C1052 C 0.70332 0.79739 1.06784
 N1053 N 0.68647 0.79058 1.07603
 N1054 N 0.67807 0.80051 1.09120
 C1055 C 0.71233 0.78610 1.05113
 C1056 C 0.73037 0.79125 1.04290
 H1057 H 0.68369 0.84300 1.12014
 H1058 H 0.70460 0.77300 1.04539
 H1059 H 0.65421 0.80746 1.12098
 H1060 H 0.73841 0.80405 1.04884
 C1061 C 0.13108 0.30705 1.12728
 C1062 C 0.14975 0.31325 1.12194
 C1063 C 0.16113 0.30230 1.10659
 N1064 N 0.17928 0.30872 1.10171
 N1065 N 0.18981 0.29877 1.08803
 C1066 C 0.18260 0.28200 1.07875
 N1067 N 0.16445 0.27557 1.08364
 N1068 N 0.15391 0.28553 1.09731
 C1069 C 0.19414 0.27093 1.06361
 C1070 C 0.21249 0.27769 1.05781
 H1071 H 0.15635 0.32613 1.12942
 H1072 H 0.18801 0.25745 1.05677
 H1073 H 0.12460 0.29416 1.11970
 H1074 H 0.21839 0.29133 1.06455
 C1075 C 0.17864 0.82803 0.61235
 C1076 C 0.19718 0.83364 0.60583
 C1077 C 0.20819 0.82130 0.59124
 N1078 N 0.22582 0.82766 0.58448
 N1079 N 0.23584 0.81662 0.57118
 C1080 C 0.22859 0.79879 0.56421
 N1081 N 0.21101 0.79243 0.57102
 N1082 N 0.20099 0.80346 0.58427
 C1083 C 0.23926 0.78637 0.54946
 C1084 C 0.25698 0.79229 0.54109
 H1085 H 0.20374 0.84749 0.61138
 H1086 H 0.23274 0.77217 0.54487
 H1087 H 0.17206 0.81429 0.60656
 H1088 H 0.26351 0.80656 0.54546
 C1089 C 0.34119 0.67168 0.62680
 C1090 C 0.34799 0.68852 0.61708
 C1091 C 0.33784 0.69603 0.59991
 N1092 N 0.34474 0.71239 0.59057
 N1093 N 0.33545 0.71942 0.57524
 C1094 C 0.31890 0.71035 0.56867
 N1095 N 0.31203 0.69399 0.57798
 N1096 N 0.32132 0.68696 0.59328
 C1097 C 0.30813 0.71813 0.55206
 C1098 C 0.31447 0.73483 0.54186
 H1099 H 0.36082 0.69647 0.62226
 H1100 H 0.29464 0.71070 0.54801
 H1101 H 0.32841 0.66381 0.62139
 H1102 H 0.32801 0.74220 0.54582
 C1103 C 0.32901 0.18768 1.14177
 C1104 C 0.31355 0.18106 1.13023
 C1105 C 0.30645 0.19290 1.11396
 N1106 N 0.29148 0.18582 1.10295
 N1107 N 0.28474 0.19647 1.08836
 C1108 C 0.29270 0.21462 1.08421
 N1109 N 0.30770 0.22169 1.09521
 N1110 N 0.31445 0.21103 1.10979
 C1111 C 0.28506 0.22665 1.06832
 C1112 C 0.26961 0.21968 1.05695
 H1113 H 0.30634 0.16695 1.13326
 H1114 H 0.29140 0.24129 1.06580
 H1115 H 0.33621 0.20175 1.13855
 H1116 H 0.26339 0.20501 1.05963
 C1117 C 0.83808 0.68614 1.11962
 C1118 C 0.82115 0.68087 1.10965
 C1119 C 0.81396 0.69264 1.09345
 N1120 N 0.79688 0.68752 1.08486
 N1121 N 0.79005 0.69824 1.07037
 C1122 C 0.80008 0.71447 1.06393
 N1123 N 0.81718 0.71954 1.07245
 N1124 N 0.82400 0.70884 1.08695
 C1125 C 0.79270 0.72675 1.04822
 C1126 C 0.77481 0.72306 1.03942
 H1127 H 0.81266 0.66795 1.11405
 H1128 H 0.80152 0.73942 1.04377
 H1129 H 0.84648 0.69916 1.11532
 H1130 H 0.76585 0.71048 1.04384
 C1131 C 0.83876 0.19324 0.62005
 C1132 C 0.82179 0.18549 0.61169
 C1133 C 0.81316 0.19487 0.59464
 N1134 N 0.79555 0.18866 0.58791
 N1135 N 0.78764 0.19740 0.57264
 C1136 C 0.79711 0.21261 0.56358
 N1137 N 0.81472 0.21870 0.57025
 N1138 N 0.82258 0.21003 0.58548
 C1139 C 0.78887 0.22283 0.54691
 C1140 C 0.77036 0.21894 0.53959
 H1141 H 0.81449 0.17267 0.61797
 H1142 H 0.79782 0.23443 0.54041
 H1143 H 0.84561 0.20644 0.61401
 H1144 H 0.76113 0.20752 0.54597
 C1145 C 0.67004 0.64776 0.37017
 C1146 C 0.66774 0.66561 0.38109
 C1147 C 0.68238 0.67261 0.39534
 N1148 N 0.68047 0.69070 0.40480
 N1149 N 0.69416 0.69763 0.41694
 C1150 C 0.71028 0.68674 0.42004
 N1151 N 0.71212 0.66858 0.41070
 N1152 N 0.69843 0.66165 0.39857
 C1153 C 0.72588 0.69456 0.43276
 C1154 C 0.72473 0.71332 0.44223
 H1155 H 0.65564 0.67524 0.37830
 H1156 H 0.73871 0.68557 0.43430
 H1157 H 0.68227 0.63829 0.37297
 H1158 H 0.71181 0.72219 0.44079
 C1159 C 0.67922 0.16263 -0.13760
 C1160 C 0.67232 0.17878 -0.12610
 C1161 C 0.68249 0.18562 -0.10806
 N1162 N 0.67605 0.20172 -0.09721
 N1163 N 0.68546 0.20815 -0.08116
 C1164 C 0.70167 0.19872 -0.07535
 N1165 N 0.70805 0.18260 -0.08615
 N1166 N 0.69865 0.17618 -0.10218
 C1167 C 0.71262 0.20594 -0.05798
 C1168 C 0.70696 0.22270 -0.04664
 H1169 H 0.65960 0.18672 -0.13055
 H1170 H 0.72574 0.19819 -0.05439
 H1171 H 0.69200 0.15493 -0.13293
 H1172 H 0.69384 0.23042 -0.05029
 C1173 C 0.15867 0.67742 -0.12732
 C1174 C 0.17483 0.67089 -0.11743
 C1175 C 0.18248 0.68223 -0.10027
 N1176 N 0.19878 0.67611 -0.09142
 N1177 N 0.20629 0.68684 -0.07644
 C1178 C 0.19777 0.70409 -0.06980
 N1179 N 0.18143 0.71012 -0.07856
 N1180 N 0.17393 0.69940 -0.09351
 C1181 C 0.20620 0.71663 -0.05389
 C1182 C 0.22292 0.71139 -0.04418
 H1183 H 0.18259 0.65778 -0.12292
 H1184 H 0.19919 0.73069 -0.05003
 H1185 H 0.15099 0.69053 -0.12172
 H1186 H 0.22977 0.69717 -0.04765
 C1187 C 0.16049 0.17028 0.37499
 C1188 C 0.17559 0.16350 0.38627
 C1189 C 0.18118 0.17431 0.40464
 N1190 N 0.19561 0.16736 0.41580
 N1191 N 0.20096 0.17737 0.43219
 C1192 C 0.19206 0.19469 0.43802
 N1193 N 0.17761 0.20159 0.42689
 N1194 N 0.17226 0.19158 0.41055
 C1195 C 0.19828 0.20648 0.45554
 C1196 C 0.21297 0.20021 0.46763
 H1197 H 0.18354 0.15026 0.38150
 H1198 H 0.19160 0.22089 0.45852
 H1199 H 0.15249 0.18337 0.38012
 H1200 H 0.21951 0.18570 0.46481
 C1201 C 0.32168 0.36805 0.67058
 C1202 C 0.32511 0.38062 0.68697
 C1203 C 0.31256 0.39796 0.69154
 N1204 N 0.31559 0.40977 0.70789
 N1205 N 0.30398 0.42517 0.71228
 C1206 C 0.28891 0.42934 0.70049
 N1207 N 0.28594 0.41758 0.68413
 N1208 N 0.29754 0.40220 0.67975
 C1209 C 0.27565 0.44599 0.70527
 C1210 C 0.27788 0.45847 0.72194
 H1211 H 0.33677 0.37744 0.69684
 H1212 H 0.26364 0.44826 0.69554
 H1213 H 0.30988 0.37139 0.66094
 H1214 H 0.28994 0.45626 0.73161
 C1215 C 0.33339 0.87369 0.16629
 C1216 C 0.33844 0.88298 0.18419
 C1217 C 0.32726 0.89993 0.19278
 N1218 N 0.33217 0.90831 0.21051
 N1219 N 0.32197 0.92343 0.21853
 C1220 C 0.30648 0.93078 0.20911
 N1221 N 0.30162 0.92245 0.19135
 N1222 N 0.31181 0.90733 0.18334
 C1223 C 0.29479 0.94719 0.21801
 C1224 C 0.29880 0.95555 0.23659
 H1225 H 0.35067 0.87759 0.19220
 H1226 H 0.28247 0.95240 0.21001
 H1227 H 0.32110 0.87916 0.15843
 H1228 H 0.31104 0.95018 0.24459
 C1229 C 0.83655 0.36232 0.16657
 C1230 C 0.82166 0.37296 0.15832
 C1231 C 0.81681 0.39315 0.16621
 N1232 N 0.80022 0.40212 0.16090
 N1233 N 0.79482 0.41943 0.16959
 C1234 C 0.80581 0.42836 0.18390
 N1235 N 0.82253 0.41958 0.18892
 N1236 N 0.82793 0.40233 0.18024
 C1237 C 0.79919 0.44622 0.19520
 C1238 C 0.78201 0.45586 0.19115
 H1239 H 0.81218 0.36564 0.14767
 H1240 H 0.80749 0.45110 0.20793
 H1241 H 0.84549 0.36966 0.17768
 H1242 H 0.77405 0.45163 0.17801
 C1243 C 0.85016 0.88706 0.63491
 C1244 C 0.85573 0.89402 0.65358
 C1245 C 0.84631 0.91128 0.66364
 N1246 N 0.85151 0.91703 0.68219
 N1247 N 0.84255 0.93214 0.69175
 C1248 C 0.82806 0.94206 0.68309
 N1249 N 0.82295 0.93638 0.66451
 N1250 N 0.83190 0.92128 0.65496
 C1251 C 0.81745 0.95823 0.69367
 C1252 C 0.82164 0.96427 0.71300
 H1253 H 0.86674 0.88617 0.66137
 H1254 H 0.80560 0.96510 0.68623
 H1255 H 0.83915 0.89495 0.62718
 H1256 H 0.83356 0.95752 0.72044
 C1257 C 0.68718 0.63906 0.66381
 C1258 C 0.67877 0.63071 0.68058
 C1259 C 0.68714 0.61351 0.69030
 N1260 N 0.67827 0.60626 0.70665
 N1261 N 0.68573 0.59090 0.71584
 C1262 C 0.70237 0.58219 0.70903
 N1263 N 0.71123 0.58941 0.69264
 N1264 N 0.70377 0.60478 0.68344
 C1265 C 0.71096 0.56538 0.71920
 C1266 C 0.70255 0.55756 0.73622
 H1267 H 0.66566 0.63713 0.68704
 H1268 H 0.72439 0.55918 0.71327
 H1269 H 0.70025 0.63263 0.65728
 H1270 H 0.68912 0.56374 0.74216
 C1271 C 0.65283 0.13538 0.17527
 C1272 C 0.67048 0.12712 0.16902
 C1273 C 0.67844 0.10975 0.17890
 N1274 N 0.69653 0.10305 0.17420
 N1275 N 0.70391 0.08769 0.18354
 C1276 C 0.69344 0.07848 0.19789
 N1277 N 0.67534 0.08511 0.20247
 N1278 N 0.66800 0.10044 0.19318
 C1279 C 0.70125 0.06171 0.20869
 C1280 C 0.72000 0.05453 0.20554
 H1281 H 0.67890 0.13392 0.15731
 H1282 H 0.69190 0.05497 0.21971
 H1283 H 0.64486 0.12872 0.18737
 H1284 H 0.72946 0.06121 0.19458
 C1285 C 0.16776 0.60763 0.16344
 C1286 C 0.15932 0.59831 0.17959
 C1287 C 0.16777 0.58039 0.18785
 N1288 N 0.15902 0.57175 0.20355
 N1289 N 0.16682 0.55587 0.21156
 C1290 C 0.18368 0.54807 0.20418
 N1291 N 0.19240 0.55667 0.18844
 N1292 N 0.18458 0.57253 0.18041
 C1293 C 0.19281 0.53101 0.21335
 C1294 C 0.18434 0.52187 0.22959
 H1295 H 0.14641 0.60452 0.18668
 H1296 H 0.20674 0.52596 0.20757
 H1297 H 0.18051 0.60122 0.15623
 H1298 H 0.17034 0.52686 0.23524
 C1299 C 0.16552 0.12386 0.69815
 C1300 C 0.18200 0.11419 0.69056
 C1301 C 0.19048 0.09700 0.70000
 N1302 N 0.20745 0.08928 0.69288
 N1303 N 0.21544 0.07378 0.70136
 C1304 C 0.20669 0.06543 0.71725
 N1305 N 0.18969 0.07308 0.72430
 N1306 N 0.18172 0.08861 0.71585
 C1307 C 0.21529 0.04848 0.72697
 C1308 C 0.23350 0.04091 0.72167
 H1309 H 0.18924 0.11960 0.67742
 H1310 H 0.20713 0.04209 0.73909
 H1311 H 0.15850 0.11878 0.71154
 H1312 H 0.24195 0.04745 0.70984
 C1313 C 0.31087 0.60223 0.31810
 C1314 C 0.29354 0.59436 0.32576
 C1315 C 0.28310 0.57777 0.31548
 N1316 N 0.26583 0.57086 0.32269
 N1317 N 0.25629 0.55597 0.31329
 C1318 C 0.26374 0.54747 0.29635
 N1319 N 0.28100 0.55436 0.28922
 N1320 N 0.29049 0.56921 0.29857
 C1321 C 0.25365 0.53115 0.28545
 C1322 C 0.23561 0.52317 0.29107
 H1323 H 0.28736 0.60061 0.33938
 H1324 H 0.26082 0.52530 0.27216
 H1325 H 0.31681 0.59601 0.30435
 H1326 H 0.22821 0.52884 0.30429
 C1327 C 0.33522 0.12268 0.83361
 C1328 C 0.31837 0.11158 0.83747
 C1329 C 0.31224 0.09453 0.82471
 N1330 N 0.29510 0.08501 0.82841
 N1331 N 0.28908 0.06990 0.81665
 C1332 C 0.30001 0.06375 0.80076
 N1333 N 0.31720 0.07319 0.79713
 N1334 N 0.32321 0.08831 0.80887
 C1335 C 0.29339 0.04750 0.78729
 C1336 C 0.27541 0.03796 0.78957
 H1337 H 0.30901 0.11585 0.84988
 H1338 H 0.30278 0.04334 0.77486
 H1339 H 0.34452 0.11848 0.82113
 H1340 H 0.26593 0.04209 0.80193
 C1341 C 0.83464 0.62584 0.82816
 C1342 C 0.81590 0.62063 0.83434
 C1343 C 0.80514 0.60424 0.82419
 N1344 N 0.78645 0.60002 0.82944
 N1345 N 0.77644 0.58578 0.81968
 C1346 C 0.78475 0.57528 0.80428
 N1347 N 0.80343 0.57943 0.79912
 N1348 N 0.81342 0.59363 0.80888
 C1349 C 0.77389 0.55993 0.79287
 C1350 C 0.75479 0.55458 0.79752
 H1351 H 0.80865 0.62935 0.84598
 H1352 H 0.78119 0.55271 0.78031
 H1353 H 0.84161 0.61712 0.81634
 H1354 H 0.74754 0.56144 0.81030
 C1355 C 0.83261 0.08734 0.34961
 C1356 C 0.81296 0.08960 0.34588
 C1357 C 0.80407 0.07886 0.32893
 N1358 N 0.78467 0.07979 0.32596
 N1359 N 0.77680 0.07056 0.31024
 C1360 C 0.78810 0.06027 0.29683
 N1361 N 0.80746 0.05946 0.29976
 N1362 N 0.81528 0.06856 0.31549
 C1363 C 0.77985 0.04977 0.27949
 C1364 C 0.75998 0.04668 0.27736
 H1365 H 0.80440 0.10027 0.35458
 H1366 H 0.78985 0.04306 0.26873
 H1367 H 0.84085 0.07646 0.34083
 H1368 H 0.74996 0.05250 0.28857
 C1369 C 0.68607 0.37511 0.32090
 C1370 C 0.68051 0.38478 0.30401
 C1371 C 0.69350 0.39900 0.29386
 N1372 N 0.68732 0.40850 0.27778
 N1373 N 0.69887 0.42159 0.26865
 C1374 C 0.71704 0.42564 0.27527
 N1375 N 0.72322 0.41609 0.29128
 N1376 N 0.71169 0.40302 0.30040
 C1377 C 0.72996 0.44037 0.26582
 C1378 C 0.72467 0.45139 0.24969
 H1379 H 0.66616 0.38207 0.29816
 H1380 H 0.74408 0.44300 0.27226
 H1381 H 0.70042 0.37789 0.32673
 H1382 H 0.71061 0.44887 0.24309
 C1383 C 0.70497 0.88251 0.82348
 C1384 C 0.70317 0.89204 0.80565
 C1385 C 0.71747 0.90700 0.79882
 N1386 N 0.71508 0.91569 0.78127
 N1387 N 0.72783 0.92929 0.77489
 C1388 C 0.74349 0.93472 0.78581
 N1389 N 0.74591 0.92600 0.80336
 N1390 N 0.73315 0.91239 0.80975
 C1391 C 0.75755 0.94997 0.77903
 C1392 C 0.75535 0.95949 0.76126
 H1393 H 0.69094 0.88841 0.79632
 H1394 H 0.76963 0.95405 0.78840
 H1395 H 0.71726 0.88610 0.83273
 H1396 H 0.74320 0.95542 0.75198
 C1397 C 0.17770 0.39484 0.84759
 C1398 C 0.17150 0.40109 0.82940
 C1399 C 0.18207 0.41668 0.81861
 N1400 N 0.17688 0.42090 0.80003
 N1401 N 0.18677 0.43451 0.78986
 C1402 C 0.20221 0.44441 0.79791
 N1403 N 0.20731 0.44030 0.81653
 N1404 N 0.19744 0.42667 0.82668
 C1405 C 0.21356 0.45914 0.78677
 C1406 C 0.20982 0.46290 0.76715
 H1407 H 0.15917 0.39376 0.82244
 H1408 H 0.22542 0.46694 0.79412
 H1409 H 0.19027 0.40197 0.85430
 H1410 H 0.19807 0.45500 0.75973
 C1411 C 0.18959 0.86584 0.33634
 C1412 C 0.18541 0.87692 0.31995
 C1413 C 0.19775 0.89418 0.31445
 N1414 N 0.19395 0.90441 0.29805
 N1415 N 0.20526 0.91978 0.29285
 C1416 C 0.22079 0.92551 0.30386
 N1417 N 0.22454 0.91533 0.32028
 N1418 N 0.21324 0.89997 0.32547
 C1419 C 0.23367 0.94225 0.29818
 C1420 C 0.23071 0.95290 0.28123
 H1421 H 0.17322 0.87267 0.31081
 H1422 H 0.24593 0.94604 0.30741
 H1423 H 0.20194 0.87020 0.34523
 H1424 H 0.21846 0.94904 0.27201
 C1425 C 0.37432 0.32085 0.68280
 C1426 C 0.38458 0.30334 0.67826
 C1427 C 0.40133 0.29706 0.68964
 N1428 N 0.41059 0.27982 0.68439
 N1429 N 0.42571 0.27380 0.69453
 C1430 C 0.43215 0.28481 0.71033
 N1431 N 0.42290 0.30207 0.71559
 N1432 N 0.40778 0.30809 0.70544
 C1433 C 0.44873 0.27829 0.72184
 C1434 C 0.45868 0.26059 0.71727
 H1435 H 0.38019 0.29376 0.66590
 H1436 H 0.45308 0.28760 0.73441
 H1437 H 0.37870 0.33049 0.69513
 H1438 H 0.45435 0.25124 0.70472
 C1439 C 0.38492 0.82232 0.16572
 C1440 C 0.39138 0.82584 0.18488
 C1441 C 0.40616 0.81275 0.19299
 N1442 N 0.41304 0.81623 0.21143
 N1443 N 0.42597 0.80396 0.21885
 C1444 C 0.43240 0.78772 0.20811
 N1445 N 0.42552 0.78428 0.18973
 N1446 N 0.41269 0.79654 0.18232
 C1447 C 0.44630 0.77362 0.21593
 C1448 C 0.45546 0.77678 0.23390
 H1449 H 0.38503 0.83762 0.19417
 H1450 H 0.44960 0.76031 0.20699
 H1451 H 0.39157 0.81049 0.15670
 H1452 H 0.45272 0.79034 0.24267
 C1453 C 0.86129 0.30142 0.19206
 C1454 C 0.86553 0.28113 0.19240
 C1455 C 0.87684 0.27340 0.20864
 N1456 N 0.88434 0.25472 0.20730
 N1457 N 0.89573 0.24831 0.22139
 C1458 C 0.89993 0.26031 0.23737
 N1459 N 0.89211 0.27880 0.23889
 N1460 N 0.88078 0.28521 0.22481
 C1461 C 0.91409 0.25446 0.25199
 C1462 C 0.92496 0.23714 0.24942
 H1463 H 0.86140 0.27111 0.18027
 H1464 H 0.91758 0.26516 0.26378
 H1465 H 0.86605 0.31128 0.20407
 H1466 H 0.92155 0.22649 0.23755
 C1467 C 0.89194 0.82762 0.63514
 C1468 C 0.90013 0.83276 0.65326
 C1469 C 0.91364 0.81932 0.66269
 N1470 N 0.92231 0.82515 0.67978
 N1471 N 0.93454 0.81304 0.68840
 C1472 C 0.93849 0.79462 0.68028
 N1473 N 0.92976 0.78879 0.66326
 N1474 N 0.91758 0.80090 0.65463
 C1475 C 0.95208 0.78108 0.68938
 C1476 C 0.96274 0.78674 0.70594
 H1477 H 0.89652 0.84684 0.66075
 H1478 H 0.95415 0.76640 0.68245
 H1479 H 0.89585 0.81364 0.62762
 H1480 H 0.96099 0.80154 0.71271
 C1481 C 0.62358 0.33882 0.32797
 C1482 C 0.61141 0.32622 0.33880
 C1483 C 0.59311 0.31766 0.33144
 N1484 N 0.58343 0.30391 0.34228
 N1485 N 0.56731 0.29507 0.33560
 C1486 C 0.56025 0.29969 0.31781
 N1487 N 0.56980 0.31362 0.30704
 N1488 N 0.58599 0.32244 0.31370
 C1489 C 0.54296 0.28937 0.30991
 C1490 C 0.53445 0.27293 0.31904
 H1491 H 0.61595 0.32138 0.35305
 H1492 H 0.53744 0.29418 0.29602
 H1493 H 0.61913 0.34404 0.31384
 H1494 H 0.54028 0.26774 0.33264
 C1495 C 0.64498 0.84250 0.81463
 C1496 C 0.63172 0.82796 0.82090
 C1497 C 0.61484 0.82134 0.80932
 N1498 N 0.60293 0.80671 0.81620
 N1499 N 0.58774 0.80021 0.80584
 C1500 C 0.58388 0.80812 0.78819
 N1501 N 0.59575 0.82281 0.78133
 N1502 N 0.61097 0.82931 0.79169
 C1503 C 0.56741 0.80078 0.77635
 C1504 C 0.55531 0.78509 0.78229
 H1505 H 0.63388 0.82082 0.83477
 H1506 H 0.56509 0.80758 0.76234
 H1507 H 0.64289 0.84973 0.80079
 H1508 H 0.55767 0.77817 0.79624
 C1509 C 0.12694 0.34246 0.85234
 C1510 C 0.11746 0.34894 0.83573
 C1511 C 0.10016 0.33865 0.82764
 N1512 N 0.09188 0.34543 0.81117
 N1513 N 0.07641 0.33612 0.80347
 C1514 C 0.06861 0.31968 0.81199
 N1515 N 0.07684 0.31294 0.82849
 N1516 N 0.09232 0.32224 0.83618
 C1517 C 0.05182 0.30881 0.80351
 C1518 C 0.04290 0.31433 0.78622
 H1519 H 0.12302 0.36190 0.82816
 H1520 H 0.04666 0.29559 0.81092
 H1521 H 0.12140 0.32953 0.85995
 H1522 H 0.04794 0.32752 0.77869
 C1523 C 0.13542 0.81666 0.32877
 C1524 C 0.12747 0.82568 0.31254
 C1525 C 0.10999 0.81748 0.30272
 N1526 N 0.10303 0.82637 0.28664
 N1527 N 0.08736 0.81897 0.27754
 C1528 C 0.07803 0.80240 0.28423
 N1529 N 0.08496 0.79356 0.30033
 N1530 N 0.10062 0.80094 0.30940
 C1531 C 0.06089 0.79367 0.27424
 C1532 C 0.05332 0.80141 0.25718
 H1533 H 0.13430 0.83901 0.30676
 H1534 H 0.05434 0.78034 0.28031
 H1535 H 0.12858 0.80328 0.33441
 H1536 H 0.05988 0.81466 0.25096
 C1537 C 0.63844 0.69255 0.66236
 C1538 C 0.62770 0.68620 0.67862
 C1539 C 0.61088 0.69770 0.68617
 N1540 N 0.60036 0.69139 0.70194
 N1541 N 0.58533 0.70199 0.70897
 C1542 C 0.58030 0.71928 0.70047
 N1543 N 0.59079 0.72553 0.68470
 N1544 N 0.60577 0.71494 0.67767
 C1545 C 0.56420 0.73156 0.70832
 C1546 C 0.55288 0.72600 0.72448
 H1547 H 0.63174 0.67279 0.68600
 H1548 H 0.56156 0.74566 0.70146
 H1549 H 0.63413 0.70590 0.65504
 H1550 H 0.55536 0.71183 0.73125
 C1551 C 0.60463 0.18819 0.18119
 C1552 C 0.59694 0.18043 0.19853
 C1553 C 0.58131 0.19036 0.20998
 N1554 N 0.57501 0.18264 0.22723
 N1555 N 0.56113 0.19168 0.23802
 C1556 C 0.55303 0.20879 0.23193
 N1557 N 0.55926 0.21646 0.21464
 N1558 N 0.57316 0.20743 0.20386
 C1559 C 0.53793 0.21913 0.24381
 C1560 C 0.53156 0.21231 0.26203
 H1561 H 0.60287 0.16689 0.20422
 H1562 H 0.53190 0.23265 0.23816
 H1563 H 0.59876 0.20177 0.17552
 H1564 H 0.53761 0.19884 0.26775
 C1565 C 0.12267 0.66387 0.16823
 C1566 C 0.11568 0.68218 0.16237
 C1567 C 0.10004 0.69278 0.17331
 N1568 N 0.09375 0.71054 0.16693
 N1569 N 0.07982 0.72050 0.17681
 C1570 C 0.07166 0.71309 0.19348
 N1571 N 0.07792 0.69530 0.19986
 N1572 N 0.09185 0.68533 0.18996
 C1573 C 0.05645 0.72416 0.20467
 C1574 C 0.04970 0.74243 0.19845
 H1575 H 0.12201 0.68914 0.14952
 H1576 H 0.05063 0.71792 0.21811
 H1577 H 0.11624 0.65688 0.18101
 H1578 H 0.05553 0.74854 0.18495
 C1579 C 0.11943 0.17859 0.69908
 C1580 C 0.11138 0.19618 0.69264
 C1581 C 0.09590 0.20656 0.70416
 N1582 N 0.08822 0.22363 0.69758
 N1583 N 0.07432 0.23316 0.70797
 C1584 C 0.06759 0.22599 0.72537
 N1585 N 0.07528 0.20893 0.73196
 N1586 N 0.08916 0.19940 0.72156
 C1587 C 0.05221 0.23636 0.73703
 C1588 C 0.04364 0.25365 0.73053
 H1589 H 0.11663 0.20258 0.67905
 H1590 H 0.04747 0.23018 0.75090
 H1591 H 0.11404 0.17237 0.71271
 H1592 H 0.04837 0.25966 0.71658
 C1593 C 0.36513 0.64979 0.31579
 C1594 C 0.37623 0.66593 0.32308
 C1595 C 0.39288 0.67414 0.31188
 N1596 N 0.40332 0.68986 0.31950
 N1597 N 0.41823 0.69759 0.30936
 C1598 C 0.42325 0.68988 0.29122
 N1599 N 0.41283 0.67416 0.28363
 N1600 N 0.39795 0.66642 0.29376
 C1601 C 0.43941 0.69833 0.27955
 C1602 C 0.45092 0.71439 0.28630
 H1603 H 0.37251 0.67293 0.33726
 H1604 H 0.44220 0.69173 0.26498
 H1605 H 0.36896 0.64276 0.30166
 H1606 H 0.44837 0.72097 0.30092
 C1607 C 0.37831 0.18074 0.84475
 C1608 C 0.39092 0.17402 0.82969
 C1609 C 0.40722 0.18603 0.82191
 N1610 N 0.41881 0.17788 0.80750
 N1611 N 0.43325 0.18852 0.79959
 C1612 C 0.43668 0.20778 0.80574
 N1613 N 0.42513 0.21595 0.82026
 N1614 N 0.41065 0.20527 0.82822
 C1615 C 0.45222 0.21977 0.79633
 C1616 C 0.46349 0.21158 0.78085
 H1617 H 0.38861 0.15930 0.82289
 H1618 H 0.45431 0.23528 0.80107
 H1619 H 0.38078 0.19519 0.85206
 H1620 H 0.46113 0.19608 0.77619
 C1621 C 0.88827 0.67226 0.81924
 C1622 C 0.89791 0.69059 0.82170
 C1623 C 0.91301 0.69686 0.80747
 N1624 N 0.92230 0.71476 0.81000
 N1625 N 0.93549 0.72079 0.79676
 C1626 C 0.93980 0.70915 0.78048
 N1627 N 0.93053 0.69125 0.77798
 N1628 N 0.91740 0.68522 0.79122
 C1629 C 0.95395 0.71569 0.76547
 C1630 C 0.96470 0.73337 0.76778
 H1631 H 0.89377 0.70086 0.83370
 H1632 H 0.95598 0.70629 0.75229
 H1633 H 0.89262 0.66210 0.80723
 H1634 H 0.96305 0.74253 0.78118
 C1635 C 0.89495 0.11745 0.36427
 C1636 C 0.90554 0.13431 0.37047
 C1637 C 0.91999 0.14363 0.35738
 N1638 N 0.92586 0.16275 0.36140
 N1639 N 0.93634 0.17276 0.34822
 C1640 C 0.94131 0.16404 0.33049
 N1641 N 0.93597 0.14470 0.32669
 N1642 N 0.92541 0.13470 0.33986
 C1643 C 0.95094 0.17576 0.31508
 C1644 C 0.95194 0.19656 0.31690
 H1645 H 0.90045 0.14318 0.38315
 H1646 H 0.95608 0.16812 0.30168
 H1647 H 0.90030 0.10829 0.35190
 H1648 H 0.94633 0.20407 0.33018
 C1649 C 0.32861 0.30783 0.62881
 C1650 C 0.31289 0.31360 0.61772
 C1651 C 0.30425 0.30088 0.60206
 N1652 N 0.28878 0.30762 0.59227
 N1653 N 0.28037 0.29623 0.57832
 C1654 C 0.28713 0.27764 0.57364
 N1655 N 0.30266 0.27091 0.58338
 N1656 N 0.31108 0.28231 0.59736
 C1657 C 0.27780 0.26477 0.55848
 C1658 C 0.26165 0.27084 0.54822
 H1659 H 0.30623 0.32799 0.62087
 H1660 H 0.28374 0.25002 0.55547
 H1661 H 0.33553 0.29359 0.62564
 H1662 H 0.25570 0.28560 0.55113
 C1663 C 0.33878 0.82268 0.11303
 C1664 C 0.32153 0.82810 0.10440
 C1665 C 0.31323 0.81599 0.08805
 N1666 N 0.29621 0.82127 0.08007
 N1667 N 0.28821 0.80986 0.06583
 C1668 C 0.29694 0.79275 0.05913
 N1669 N 0.31398 0.78754 0.06706
 N1670 N 0.32198 0.79894 0.08125
 C1671 C 0.28811 0.77959 0.04393
 C1672 C 0.27105 0.78439 0.03462
 H1673 H 0.31349 0.84085 0.11030
 H1674 H 0.29526 0.76561 0.04007
 H1675 H 0.34676 0.80996 0.10696
 H1676 H 0.26410 0.79858 0.03804
 C1677 C 0.82595 0.29824 0.12947
 C1678 C 0.81514 0.30719 0.11508
 C1679 C 0.80686 0.29595 0.09813
 N1680 N 0.79508 0.30546 0.08580
 N1681 N 0.78719 0.29564 0.07049
 C1682 C 0.79083 0.27591 0.06682
 N1683 N 0.80276 0.26639 0.07907
 N1684 N 0.81062 0.27623 0.09446
 C1685 C 0.78172 0.26491 0.05011
 C1686 C 0.76716 0.27364 0.03941
 H1687 H 0.81227 0.32309 0.11639
 H1688 H 0.78590 0.24959 0.04670
 H1689 H 0.82858 0.28229 0.12841
 H1690 H 0.76255 0.28868 0.04352
 C1691 C 0.84775 0.83715 0.58088
 C1692 C 0.85233 0.81857 0.57212
 C1693 C 0.84113 0.80979 0.55569
 N1694 N 0.84488 0.79091 0.54874
 N1695 N 0.83400 0.78233 0.53470
 C1696 C 0.81900 0.79237 0.52712
 N1697 N 0.81540 0.81131 0.53391
 N1698 N 0.82626 0.81987 0.54794
 C1699 C 0.80593 0.78287 0.51267
 C1700 C 0.80797 0.76319 0.50548
 H1701 H 0.86364 0.80965 0.57821
 H1702 H 0.79363 0.79150 0.50824
 H1703 H 0.83645 0.84606 0.57476
 H1704 H 0.82048 0.75456 0.50928
 C1705 C 0.31918 0.65223 0.37232
 C1706 C 0.32895 0.66844 0.38130
 C1707 C 0.32189 0.67839 0.39970
 N1708 N 0.33154 0.69468 0.40720
 N1709 N 0.32509 0.70420 0.42357
 C1710 C 0.30876 0.69773 0.43306
 N1711 N 0.29918 0.68137 0.42562
 N1712 N 0.30561 0.67186 0.40924
 C1713 C 0.30097 0.70848 0.45071
 C1714 C 0.30937 0.72617 0.45828
 H1715 H 0.34202 0.67440 0.37443
 H1716 H 0.28772 0.70273 0.45741
 H1717 H 0.30610 0.64626 0.37916
 H1718 H 0.32255 0.73206 0.45156
 C1719 C 0.32163 0.16978 0.88870
 C1720 C 0.32543 0.18672 0.90057
 C1721 C 0.31245 0.19280 0.91712
 N1722 N 0.31683 0.20935 0.92836
 N1723 N 0.30513 0.21520 0.94324
 C1724 C 0.28859 0.20473 0.94747
 N1725 N 0.28422 0.18815 0.93625
 N1726 N 0.29594 0.18229 0.92135
 C1727 C 0.27541 0.21138 0.96368
 C1728 C 0.27956 0.22852 0.97513
 H1729 H 0.33819 0.19588 0.89763
 H1730 H 0.26214 0.20294 0.96635
 H1731 H 0.30892 0.16060 0.89178
 H1732 H 0.29286 0.23686 0.97229
 C1733 C 0.84136 0.68469 0.87373
 C1734 C 0.82434 0.68020 0.88423
 C1735 C 0.81716 0.69281 0.90096
 N1736 N 0.80003 0.68810 0.90996
 N1737 N 0.79318 0.69937 0.92503
 C1738 C 0.80322 0.71580 0.93171
 N1739 N 0.82040 0.72048 0.92276
 N1740 N 0.82724 0.70921 0.90765
 C1741 C 0.79565 0.72849 0.94825
 C1742 C 0.77750 0.72481 0.95693
 H1743 H 0.81580 0.66709 0.87995
 H1744 H 0.80436 0.74116 0.95341
 H1745 H 0.84983 0.69790 0.87789
 H1746 H 0.76872 0.71230 0.95150
 C1747 C 0.83782 0.14224 0.40033
 C1748 C 0.81792 0.14483 0.40326
 C1749 C 0.81038 0.16130 0.41615
 N1750 N 0.79099 0.16305 0.41963
 N1751 N 0.78411 0.17801 0.43115
 C1752 C 0.79636 0.19181 0.43955
 N1753 N 0.81572 0.19009 0.43601
 N1754 N 0.82259 0.17512 0.42454
 C1755 C 0.78910 0.20832 0.45250
 C1756 C 0.76960 0.20980 0.45811
 H1757 H 0.80772 0.13487 0.39577
 H1758 H 0.79951 0.21919 0.45830
 H1759 H 0.84784 0.15221 0.40806
 H1760 H 0.75928 0.19865 0.45269
 C1761 C 0.67425 0.32943 0.37549
 C1762 C 0.69302 0.33073 0.38272
 C1763 C 0.69872 0.31874 0.39947
 N1764 N 0.71709 0.32001 0.40629
 N1765 N 0.72240 0.30890 0.42118
 C1766 C 0.70955 0.29610 0.42979
 N1767 N 0.69119 0.29487 0.42298
 N1768 N 0.68588 0.30597 0.40812
 C1769 C 0.71523 0.28352 0.44607
 C1770 C 0.73379 0.28460 0.45382
 H1771 H 0.70378 0.34025 0.37574
 H1772 H 0.70458 0.27318 0.45203
 H1773 H 0.66366 0.31981 0.38261
 H1774 H 0.74433 0.29512 0.44796
 C1775 C 0.68496 0.83356 0.87241
 C1776 C 0.70110 0.83768 0.88401
 C1777 C 0.70527 0.82612 0.90146
 N1778 N 0.72145 0.83041 0.91194
 N1779 N 0.72580 0.81967 0.92740
 C1780 C 0.71412 0.80424 0.93298
 N1781 N 0.69787 0.80001 0.92256
 N1782 N 0.69352 0.81075 0.90709
 C1783 C 0.71921 0.79176 0.94954
 C1784 C 0.73627 0.79509 0.95991
 H1785 H 0.71129 0.84939 0.87992
 H1786 H 0.70974 0.77927 0.95311
 H1787 H 0.67472 0.82194 0.87659
 H1788 H 0.74572 0.80756 0.95624
 C1789 C 0.18003 0.34725 0.90007
 C1790 C 0.17471 0.32962 0.90925
 C1791 C 0.18627 0.32150 0.92513
 N1792 N 0.18113 0.30369 0.93281
 N1793 N 0.19168 0.29587 0.94681
 C1794 C 0.20780 0.30553 0.95368
 N1795 N 0.21291 0.32342 0.94606
 N1796 N 0.20235 0.33124 0.93203
 C1797 C 0.21969 0.29673 0.96897
 C1798 C 0.21511 0.27792 0.97612
 H1799 H 0.16212 0.32113 0.90426
 H1800 H 0.23222 0.30498 0.97444
 H1801 H 0.19274 0.35557 0.90501
 H1802 H 0.20262 0.26979 0.97038
 C1803 C 0.18354 0.80996 0.38046
 C1804 C 0.20007 0.81683 0.39032
 C1805 C 0.20909 0.80633 0.40644
 N1806 N 0.22543 0.81423 0.41458
 N1807 N 0.23419 0.80505 0.42899
 C1808 C 0.22696 0.78757 0.43588
 N1809 N 0.21054 0.77965 0.42779
 N1810 N 0.20176 0.78885 0.41332
 C1811 C 0.23685 0.77727 0.45168
 C1812 C 0.25422 0.78477 0.45943
 H1813 H 0.20712 0.83059 0.38587
 H1814 H 0.23056 0.76350 0.45707
 H1815 H 0.17628 0.79627 0.38479
 H1816 H 0.26050 0.79843 0.45378
 C1817 C 0.68983 0.69007 0.61292
 C1818 C 0.70530 0.68179 0.60212
 C1819 C 0.71305 0.69160 0.58445
 N1820 N 0.72702 0.68269 0.57298
 N1821 N 0.73379 0.69143 0.55681
 C1822 C 0.72683 0.70941 0.55155
 N1823 N 0.71296 0.71834 0.56306
 N1824 N 0.70619 0.70960 0.57918
 C1825 C 0.73396 0.71928 0.53372
 C1826 C 0.74755 0.71046 0.52084
 H1827 H 0.71149 0.66779 0.60638
 H1828 H 0.72824 0.73385 0.53062
 H1829 H 0.68356 0.70387 0.60820
 H1830 H 0.75320 0.69584 0.52386
 C1831 C 0.65165 0.18922 0.12676
 C1832 C 0.66661 0.18157 0.11477
 C1833 C 0.67376 0.19220 0.09733
 N1834 N 0.68799 0.18409 0.08563
 N1835 N 0.69474 0.19369 0.06997
 C1836 C 0.68751 0.21176 0.06539
 N1837 N 0.67325 0.21985 0.07707
 N1838 N 0.66649 0.21024 0.09272
 C1839 C 0.69534 0.22283 0.04852
 C1840 C 0.71026 0.21510 0.03654
 H1841 H 0.67322 0.16750 0.11818
 H1842 H 0.68985 0.23763 0.04601
 H1843 H 0.64495 0.20315 0.12305
 H1844 H 0.71573 0.20032 0.03921
 C1845 C 0.17398 0.66059 0.11633
 C1846 C 0.16932 0.67869 0.10806
 C1847 C 0.18120 0.68682 0.09183
 N1848 N 0.17623 0.70415 0.08343
 N1849 N 0.18715 0.71164 0.06892
 C1850 C 0.20344 0.70206 0.06233
 N1851 N 0.20838 0.68478 0.07073
 N1852 N 0.19747 0.67730 0.08518
 C1853 C 0.21596 0.71005 0.04660
 C1854 C 0.21161 0.72721 0.03652
 H1855 H 0.15696 0.68713 0.11368
 H1856 H 0.22915 0.70200 0.04283
 H1857 H 0.18625 0.65220 0.11042
 H1858 H 0.19829 0.73517 0.03990
 C1859 C 0.16761 0.16959 0.64401
 C1860 C 0.16198 0.18538 0.63260
 C1861 C 0.17286 0.18985 0.61425
 N1862 N 0.16723 0.20481 0.60265
 N1863 N 0.17727 0.20891 0.58622
 C1864 C 0.19328 0.19819 0.58079
 N1865 N 0.19885 0.18325 0.59237
 N1866 N 0.18883 0.17915 0.60873
 C1867 C 0.20504 0.20283 0.56314
 C1868 C 0.20015 0.21789 0.55052
 H1869 H 0.14967 0.19446 0.63712
 H1870 H 0.21831 0.19458 0.56042
 H1871 H 0.17982 0.16057 0.63901
 H1872 H 0.18682 0.22607 0.55314
   
