data_POSCAR
  _audit_creation_date              2014-09-24
  _audit_creation_method            'ToBaCCo'
  _symmetry_space_group_name_H-M    'P1'
  _symmetry_Int_Tables_number       1
  _symmetry_cell_setting            triclinic
  loop_
  _symmetry_equiv_pos_as_xyz
 x,y,z
_cell_length_a 69.0095
_cell_length_b 70.0201
_cell_length_c 67.8847
_cell_angle_alpha 89.739100
_cell_angle_beta 89.583200
_cell_angle_gamma 89.345600
loop_
  _atom_site_label
  _atom_site_type_symbol
  _atom_site_fract_x
  _atom_site_fract_y
  _atom_site_fract_z
N1 N 0.36502 0.32060 0.33341
 N2 N 0.36333 0.33573 0.32178
 C3 C 0.37755 0.33515 0.30813
 C4 C 0.38875 0.31896 0.31117
 C5 C 0.38039 0.30998 0.32731
 H6 H 0.37975 0.34588 0.29687
 H7 H 0.38525 0.29683 0.33417
 Cu8 Cu 0.34323 0.35588 0.32520
 Cu9 Cu 0.34705 0.31581 0.35590
 Cu10 Cu 0.31414 0.35038 0.36403
 N11 N 0.32243 0.37429 0.33122
 N12 N 0.31119 0.37214 0.34675
 C13 C 0.29751 0.38595 0.34694
 C14 C 0.30031 0.39749 0.33065
 C15 C 0.31633 0.38977 0.32100
 H16 H 0.28599 0.38708 0.35778
 H17 H 0.32258 0.39462 0.30723
 N18 N 0.31112 0.32522 0.37522
 N19 N 0.32411 0.31155 0.37268
 C20 C 0.31803 0.29571 0.38228
 C21 C 0.30013 0.29985 0.39077
 C22 C 0.29622 0.31858 0.38591
 H23 H 0.32559 0.28209 0.38234
 H24 H 0.28332 0.32674 0.38971
 H25 H 0.33009 0.33227 0.33814
 H26 H 0.34790 0.34540 0.35319
 N27 N 0.35980 0.79820 -0.18928
 N28 N 0.35154 0.80450 -0.20547
 C29 C 0.36278 0.80025 -0.22111
 C30 C 0.37923 0.79100 -0.21439
 C31 C 0.37676 0.78961 -0.19411
 H32 H 0.36001 0.80525 -0.23592
 H33 H 0.38706 0.78398 -0.18358
 Cu34 Cu 0.32984 0.82195 -0.20444
 Cu35 Cu 0.34881 0.80417 -0.16329
 Cu36 Cu 0.30793 0.83384 -0.16213
 N37 N 0.31586 0.84574 -0.20174
 N38 N 0.30752 0.85117 -0.18518
 C39 C 0.30073 0.86926 -0.18757
 C40 C 0.30558 0.87531 -0.20654
 C41 C 0.31494 0.85989 -0.21502
 H42 H 0.29374 0.87761 -0.17613
 H43 H 0.32150 0.85912 -0.22951
 N44 N 0.31645 0.81831 -0.13908
 N45 N 0.33232 0.80754 -0.13954
 C46 C 0.33379 0.79786 -0.12247
 C47 C 0.31810 0.80257 -0.11064
 C48 C 0.30737 0.81564 -0.12159
 H49 H 0.34493 0.78734 -0.11933
 H50 H 0.29366 0.82215 -0.11743
 H51 H 0.32085 0.80843 -0.17283
 H52 H 0.33579 0.83036 -0.17032
 N53 N 0.85573 0.32271 -0.18396
 N54 N 0.85162 0.33939 -0.19198
 C55 C 0.86336 0.34224 -0.20757
 C56 C 0.87563 0.32667 -0.20946
 C57 C 0.87045 0.31446 -0.19420
 H58 H 0.86319 0.35488 -0.21676
 H59 H 0.87693 0.30071 -0.19080
 Cu60 Cu 0.83171 0.35636 -0.18142
 Cu61 Cu 0.84138 0.31330 -0.16088
 Cu62 Cu 0.80472 0.34298 -0.14278
 N63 N 0.81117 0.37275 -0.17099
 N64 N 0.80031 0.36718 -0.15613
 C65 C 0.78685 0.38073 -0.15224
 C66 C 0.78949 0.39566 -0.16534
 C67 C 0.80509 0.39016 -0.17701
 H68 H 0.77598 0.37977 -0.14074
 H69 H 0.81131 0.39810 -0.18916
 N70 N 0.81115 0.31810 -0.13102
 N71 N 0.82499 0.30661 -0.13770
 C72 C 0.82567 0.29087 -0.12609
 C73 C 0.81166 0.29278 -0.11147
 C74 C 0.80281 0.31014 -0.11509
 H75 H 0.83573 0.27905 -0.12794
 H76 H 0.79116 0.31655 -0.10659
 H77 H 0.81644 0.32836 -0.16693
 H78 H 0.83403 0.33967 -0.14992
 N79 N 0.86271 0.81584 0.31427
 N80 N 0.86026 0.83206 0.30469
 C81 C 0.87430 0.83376 0.29095
 C82 C 0.88619 0.81778 0.29204
 C83 C 0.87842 0.80669 0.30694
 H84 H 0.87604 0.84595 0.28130
 H85 H 0.88409 0.79320 0.31232
 Cu86 Cu 0.84005 0.85043 0.31190
 Cu87 Cu 0.84582 0.80893 0.33620
 Cu88 Cu 0.80799 0.83703 0.34877
 N89 N 0.81656 0.86542 0.31858
 N90 N 0.80458 0.86042 0.33290
 C91 C 0.79038 0.87367 0.33446
 C92 C 0.79351 0.88763 0.32038
 C93 C 0.81017 0.88191 0.31047
 H94 H 0.77866 0.87321 0.34509
 H95 H 0.81727 0.88936 0.29850
 N96 N 0.81389 0.81336 0.36271
 N97 N 0.82839 0.80200 0.35766
 C98 C 0.82860 0.78670 0.36979
 C99 C 0.81353 0.78874 0.38316
 C100 C 0.80453 0.80580 0.37828
 H101 H 0.83910 0.77512 0.36920
 H102 H 0.79208 0.81222 0.38552
 H103 H 0.82131 0.83002 0.32225
 H104 H 0.83621 0.84224 0.34118
 N105 N 0.63698 0.67930 0.31779
 N106 N 0.64158 0.66356 0.30829
 C107 C 0.62864 0.66081 0.29388
 C108 C 0.61528 0.67562 0.29441
 C109 C 0.62097 0.68713 0.30974
 H110 H 0.62881 0.64887 0.28385
 H111 H 0.61387 0.70006 0.31480
 Cu112 Cu 0.66388 0.64806 0.31574
 Cu113 Cu 0.65168 0.68807 0.34026
 Cu114 Cu 0.69076 0.65991 0.35486
 N115 N 0.68580 0.63245 0.32404
 N116 N 0.69635 0.63718 0.33927
 C117 C 0.71094 0.62442 0.34129
 C118 C 0.70939 0.61098 0.32655
 C119 C 0.69327 0.61645 0.31591
 H120 H 0.72202 0.62504 0.35244
 H121 H 0.68770 0.60952 0.30297
 N122 N 0.68277 0.68350 0.36861
 N123 N 0.66823 0.69448 0.36268
 C124 C 0.66670 0.70969 0.37467
 C125 C 0.68081 0.70811 0.38887
 C126 C 0.69073 0.69137 0.38466
 H127 H 0.65597 0.72098 0.37335
 H128 H 0.70294 0.68548 0.39263
 H129 H 0.67785 0.67535 0.33249
 H130 H 0.66146 0.66123 0.34885
 N131 N 0.63535 0.17772 -0.18302
 N132 N 0.64372 0.16789 -0.19736
 C133 C 0.63221 0.16844 -0.21328
 C134 C 0.61588 0.17925 -0.20879
 C135 C 0.61835 0.18493 -0.18950
 H136 H 0.63559 0.16167 -0.22719
 H137 H 0.60862 0.19389 -0.18095
 Cu138 Cu 0.66927 0.15525 -0.19468
 Cu139 Cu 0.64755 0.18141 -0.15714
 Cu140 Cu 0.69310 0.16440 -0.15297
 N141 N 0.69063 0.13895 -0.18571
 N142 N 0.70001 0.14270 -0.16941
 C143 C 0.71422 0.12963 -0.16690
 C144 C 0.71376 0.11697 -0.18247
 C145 C 0.69860 0.12333 -0.19419
 H146 H 0.72411 0.12942 -0.15461
 H147 H 0.69373 0.11715 -0.20784
 N148 N 0.68165 0.18097 -0.13312
 N149 N 0.66393 0.18781 -0.13493
 C150 C 0.65982 0.19914 -0.11946
 C151 C 0.67579 0.19929 -0.10728
 C152 C 0.68938 0.18757 -0.11635
 H153 H 0.64629 0.20682 -0.11731
 H154 H 0.70393 0.18443 -0.11137
 H155 H 0.67049 0.17921 -0.17632
 H156 H 0.66153 0.15612 -0.16609
 N157 N 0.13819 0.68438 -0.18144
 N158 N 0.14497 0.67321 -0.19545
 C159 C 0.13582 0.67752 -0.21241
 C160 C 0.12259 0.69211 -0.20861
 C161 C 0.12443 0.69600 -0.18882
 H162 H 0.13824 0.67032 -0.22629
 H163 H 0.11638 0.70649 -0.18033
 Cu164 Cu 0.16393 0.65324 -0.18927
 Cu165 Cu 0.14750 0.68299 -0.15462
 Cu166 Cu 0.19172 0.65987 -0.14941
 N167 N 0.18298 0.63416 -0.18109
 N168 N 0.19373 0.63675 -0.16541
 C169 C 0.20547 0.62147 -0.16297
 C170 C 0.20179 0.60856 -0.17783
 C171 C 0.18745 0.61707 -0.18909
 H172 H 0.21580 0.61985 -0.15116
 H173 H 0.18066 0.61118 -0.20198
 N174 N 0.18207 0.67926 -0.13056
 N175 N 0.16482 0.68738 -0.13237
 C176 C 0.16255 0.70080 -0.11846
 C177 C 0.17912 0.70121 -0.10727
 C178 C 0.19121 0.68725 -0.11518
 H179 H 0.15013 0.71030 -0.11732
 H180 H 0.20589 0.68389 -0.11076
 H181 H 0.17417 0.67788 -0.16651
 H182 H 0.16325 0.65709 -0.15339
 N183 N 0.13475 0.17600 0.33541
 N184 N 0.13259 0.16332 0.32138
 C185 C 0.12145 0.17083 0.30709
 C186 C 0.11595 0.18899 0.31267
 C187 C 0.12456 0.19193 0.33073
 H188 H 0.11787 0.16373 0.29350
 H189 H 0.12427 0.20492 0.33928
 Cu190 Cu 0.14468 0.13827 0.32257
 Cu191 Cu 0.15203 0.17104 0.35764
 Cu192 Cu 0.18449 0.13337 0.34986
 N193 N 0.16232 0.11693 0.31878
 N194 N 0.17824 0.11539 0.32918
 C195 C 0.18817 0.09971 0.32343
 C196 C 0.17789 0.09102 0.30864
 C197 C 0.16153 0.10231 0.30602
 H198 H 0.20178 0.09493 0.32963
 H199 H 0.15003 0.10017 0.29555
 N200 N 0.18805 0.15285 0.37024
 N201 N 0.17549 0.16682 0.37379
 C202 C 0.18178 0.17701 0.38928
 C203 C 0.19907 0.16896 0.39565
 C204 C 0.20257 0.15376 0.38326
 H205 H 0.17436 0.18931 0.39545
 H206 H 0.21465 0.14384 0.38394
 H207 H 0.16956 0.15685 0.33830
 H208 H 0.15657 0.14157 0.35649
 N209 N 0.63321 0.32505 0.67558
 N210 N 0.63455 0.33975 0.68750
 C211 C 0.61897 0.34028 0.69947
 C212 C 0.60730 0.32504 0.69500
 C213 C 0.61671 0.31564 0.67972
 H214 H 0.61671 0.35050 0.71117
 H215 H 0.61234 0.30255 0.67271
 Cu216 Cu 0.65762 0.35535 0.68806
 Cu217 Cu 0.65414 0.31831 0.65713
 Cu218 Cu 0.68677 0.35498 0.64901
 N219 N 0.68035 0.37154 0.68699
 N220 N 0.69209 0.37074 0.67169
 C221 C 0.70713 0.38238 0.67457
 C222 C 0.70469 0.39098 0.69267
 C223 C 0.68748 0.38393 0.70018
 H224 H 0.71894 0.38441 0.66424
 H225 H 0.68099 0.38720 0.71433
 N226 N 0.68511 0.33253 0.63207
 N227 N 0.67306 0.31826 0.63502
 C228 C 0.67732 0.30430 0.62194
 C229 C 0.69301 0.31012 0.61068
 C230 C 0.69746 0.32801 0.61745
 H231 H 0.67038 0.29054 0.62147
 H232 H 0.70948 0.33675 0.61275
 H233 H 0.67738 0.33403 0.66777
 H234 H 0.65788 0.34628 0.65342
 N235 N 0.65120 0.80556 1.16901
 N236 N 0.64560 0.81635 1.18383
 C237 C 0.62994 0.80837 1.19247
 C238 C 0.62579 0.79171 1.18245
 C239 C 0.63956 0.79042 1.16775
 H240 H 0.62214 0.81419 1.20499
 H241 H 0.64082 0.77944 1.15667
 Cu242 Cu 0.65973 0.83960 1.18992
 Cu243 Cu 0.67251 0.81197 1.15167
 Cu244 Cu 0.69733 0.85348 1.16125
 N245 N 0.67360 0.86320 1.19496
 N246 N 0.68830 0.86840 1.18379
 C247 C 0.69532 0.88499 1.19050
 C248 C 0.68446 0.89048 1.20673
 C249 C 0.67079 0.87635 1.20917
 H250 H 0.70744 0.89250 1.18407
 H251 H 0.65970 0.87570 1.22047
 N252 N 0.70406 0.83632 1.13915
 N253 N 0.69438 0.82058 1.13560
 C254 C 0.70155 0.81231 1.11924
 C255 C 0.71649 0.82328 1.11214
 C256 C 0.71782 0.83839 1.12509
 H257 H 0.69612 0.79939 1.11274
 H258 H 0.72770 0.85023 1.12403
 H259 H 0.68806 0.82770 1.17192
 H260 H 0.67091 0.84139 1.15584
 N261 N 0.13195 0.32578 1.18460
 N262 N 0.13573 0.34131 1.19459
 C263 C 0.12194 0.34377 1.20856
 C264 C 0.10888 0.32900 1.20705
 C265 C 0.11566 0.31790 1.19171
 H266 H 0.12152 0.35529 1.21911
 H267 H 0.10937 0.30487 1.18633
 Cu268 Cu 0.15839 0.35669 1.18856
 Cu269 Cu 0.14848 0.31649 1.16354
 Cu270 Cu 0.19099 0.34060 1.15472
 N271 N 0.18339 0.36878 1.18453
 N272 N 0.19614 0.36224 1.17167
 C273 C 0.21215 0.37301 1.17229
 C274 C 0.20923 0.38711 1.18620
 C275 C 0.19084 0.38405 1.19368
 H276 H 0.22489 0.37085 1.16319
 H277 H 0.18352 0.39223 1.20504
 N278 N 0.18306 0.31838 1.13914
 N279 N 0.16688 0.30912 1.14278
 C280 C 0.16538 0.29460 1.13003
 C281 C 0.18132 0.29476 1.11770
 C282 C 0.19227 0.31002 1.12379
 H283 H 0.15346 0.28475 1.12958
 H284 H 0.20590 0.31461 1.11754
 H285 H 0.17354 0.32779 1.17554
 H286 H 0.16123 0.34231 1.15593
 N287 N 0.12988 0.82943 0.67858
 N288 N 0.13366 0.84576 0.68712
 C289 C 0.12043 0.84917 0.70135
 C290 C 0.10756 0.83424 0.70158
 C291 C 0.11390 0.82198 0.68692
 H292 H 0.12030 0.86148 0.71091
 H293 H 0.10771 0.80839 0.68305
 Cu294 Cu 0.15564 0.86083 0.67911
 Cu295 Cu 0.14675 0.81851 0.65831
 Cu296 Cu 0.18936 0.84271 0.64833
 N297 N 0.18084 0.87226 0.67636
 N298 N 0.19396 0.86537 0.66410
 C299 C 0.21012 0.87588 0.66536
 C300 C 0.20685 0.88999 0.67921
 C301 C 0.18816 0.88728 0.68590
 H302 H 0.22331 0.87326 0.65708
 H303 H 0.18050 0.89550 0.69701
 N304 N 0.18187 0.81937 0.63428
 N305 N 0.16583 0.80997 0.63838
 C306 C 0.16519 0.79430 0.62701
 C307 C 0.18152 0.79388 0.61516
 C308 C 0.19176 0.80999 0.62006
 H309 H 0.15366 0.78399 0.62724
 H310 H 0.20548 0.81439 0.61387
 H311 H 0.17130 0.83106 0.66949
 H312 H 0.15937 0.84338 0.64825
 N313 N 0.37464 0.66953 0.68497
 N314 N 0.37135 0.65361 0.69471
 C315 C 0.38383 0.65199 0.70973
 C316 C 0.39576 0.66764 0.70935
 C317 C 0.38967 0.67849 0.69337
 H318 H 0.38385 0.64051 0.72045
 H319 H 0.39520 0.69220 0.68875
 Cu320 Cu 0.34998 0.63743 0.68816
 Cu321 Cu 0.35797 0.67772 0.66316
 Cu322 Cu 0.31879 0.64842 0.65245
 N323 N 0.32444 0.62658 0.68774
 N324 N 0.31208 0.63057 0.67363
 C325 C 0.29536 0.62136 0.67736
 C326 C 0.29755 0.61140 0.69486
 C327 C 0.31605 0.61509 0.70108
 H328 H 0.28243 0.62247 0.66850
 H329 H 0.32275 0.61015 0.71457
 N330 N 0.32484 0.67182 0.63733
 N331 N 0.33942 0.68312 0.64164
 C332 C 0.33937 0.69800 0.62901
 C333 C 0.32410 0.69597 0.61616
 C334 C 0.31518 0.67924 0.62184
 H335 H 0.34977 0.70943 0.62903
 H336 H 0.30254 0.67298 0.61524
 H337 H 0.33309 0.66404 0.67289
 H338 H 0.34879 0.65124 0.65479
 N339 N 0.35220 0.18824 1.17884
 N340 N 0.35401 0.17664 1.19417
 C341 C 0.37070 0.18071 1.20351
 C342 C 0.37963 0.19554 1.19348
 C343 C 0.36753 0.19983 1.17800
 H344 H 0.37578 0.17371 1.21676
 H345 H 0.36945 0.21104 1.16720
 Cu346 Cu 0.33385 0.15762 1.20125
 Cu347 Cu 0.32945 0.18909 1.16147
 Cu348 Cu 0.29279 0.16179 1.17558
 N349 N 0.31430 0.13728 1.20147
 N350 N 0.29811 0.13958 1.19159
 C351 C 0.28770 0.12358 1.19263
 C352 C 0.29767 0.11037 1.20382
 C353 C 0.31451 0.11952 1.20948
 H354 H 0.27423 0.12142 1.18495
 H355 H 0.32644 0.11339 1.21770
 N356 N 0.29091 0.17754 1.15230
 N357 N 0.30559 0.18787 1.14627
 C358 C 0.30143 0.19535 1.12844
 C359 C 0.28328 0.18907 1.12304
 C360 C 0.27700 0.17790 1.13857
 H361 H 0.31130 0.20374 1.11958
 H362 H 0.26387 0.16965 1.13934
 H363 H 0.31910 0.18087 1.18899
 H364 H 0.32770 0.16141 1.17238
 N365 N 0.84693 0.70019 1.17823
 N366 N 0.85231 0.68391 1.18633
 C367 C 0.86783 0.68705 1.19787
 C368 C 0.87203 0.70637 1.19693
 C369 C 0.85845 0.71419 1.18443
 H370 H 0.87548 0.67617 1.20621
 H371 H 0.85761 0.72884 1.17936
 Cu372 Cu 0.83787 0.66044 1.18133
 Cu373 Cu 0.82735 0.70173 1.15819
 Cu374 Cu 0.80711 0.66205 1.14101
 N375 N 0.82127 0.63876 1.17376
 N376 N 0.80949 0.63960 1.15850
 C377 C 0.79873 0.62373 1.15819
 C378 C 0.80382 0.61236 1.17404
 C379 C 0.81820 0.62226 1.18360
 H380 H 0.78737 0.62106 1.14772
 H381 H 0.82514 0.61821 1.19725
 N382 N 0.80724 0.68576 1.12569
 N383 N 0.81547 0.70117 1.13255
 C384 C 0.81522 0.71488 1.11867
 C385 C 0.80618 0.70782 1.10225
 C386 C 0.80112 0.68930 1.10717
 H387 H 0.82172 0.72877 1.12023
 H388 H 0.79450 0.67891 1.09766
 H389 H 0.81294 0.67222 1.16945
 H390 H 0.83414 0.66835 1.15242
 N391 N 0.86324 0.19843 0.64616
 N392 N 0.86962 0.18854 0.66135
 C393 C 0.88515 0.19731 0.66889
 C394 C 0.88870 0.21353 0.65786
 C395 C 0.87454 0.21383 0.64354
 H396 H 0.89317 0.19239 0.68159
 H397 H 0.87250 0.22453 0.63218
 Cu398 Cu 0.85695 0.16536 0.67036
 Cu399 Cu 0.84053 0.19078 0.63122
 Cu400 Cu 0.81612 0.15110 0.64836
 N401 N 0.84257 0.14333 0.67986
 N402 N 0.82640 0.13820 0.67138
 C403 C 0.81936 0.12273 0.68062
 C404 C 0.83180 0.11782 0.69568
 C405 C 0.84641 0.13117 0.69485
 H406 H 0.80635 0.11536 0.67646
 H407 H 0.85889 0.13187 0.70434
 N408 N 0.80779 0.16576 0.62518
 N409 N 0.81719 0.18070 0.61826
 C410 C 0.80800 0.18720 0.60202
 C411 C 0.79209 0.17579 0.59874
 C412 C 0.79243 0.16241 0.61368
 H413 H 0.81241 0.19940 0.59332
 H414 H 0.78224 0.15098 0.61592
 H415 H 0.82750 0.17769 0.65499
 H416 H 0.84211 0.16215 0.63802
 N417 N 0.31919 0.36974 0.67735
 N418 N 0.33389 0.36567 0.68890
 C419 C 0.33537 0.37943 0.70257
 C420 C 0.32080 0.39281 0.69937
 C421 C 0.31079 0.38621 0.68327
 H422 H 0.34614 0.37958 0.71407
 H423 H 0.29837 0.39294 0.67640
 Cu424 Cu 0.34935 0.34229 0.68584
 Cu425 Cu 0.31240 0.35294 0.65587
 Cu426 Cu 0.34378 0.31918 0.64102
 N427 N 0.36722 0.32199 0.67647
 N428 N 0.36506 0.31333 0.65939
 C429 C 0.37894 0.29981 0.65743
 C430 C 0.39050 0.30006 0.67395
 C431 C 0.38274 0.31436 0.68570
 H432 H 0.38033 0.29026 0.64502
 H433 H 0.38777 0.31856 0.70008
 N434 N 0.31814 0.32191 0.62935
 N435 N 0.30562 0.33492 0.63545
 C436 C 0.28933 0.33370 0.62476
 C437 C 0.29188 0.31927 0.61113
 C438 C 0.31034 0.31210 0.61440
 H439 H 0.27671 0.34283 0.62651
 H440 H 0.31759 0.30065 0.60651
 H441 H 0.33177 0.32591 0.66752
 H442 H 0.34701 0.34498 0.65632
 N443 N 0.32412 0.86303 0.19113
 N444 N 0.33914 0.85660 0.20106
 C445 C 0.34322 0.86891 0.21557
 C446 C 0.33003 0.88386 0.21466
 C447 C 0.31810 0.87970 0.19899
 H448 H 0.35491 0.86710 0.22597
 H449 H 0.30583 0.88801 0.19385
 Cu450 Cu 0.35204 0.83282 0.19412
 Cu451 Cu 0.31305 0.84866 0.16951
 Cu452 Cu 0.34353 0.81408 0.14950
 N453 N 0.36975 0.81456 0.18216
 N454 N 0.36657 0.80754 0.16457
 C455 C 0.38140 0.79588 0.15954
 C456 C 0.39456 0.79567 0.17479
 C457 C 0.38672 0.80766 0.18894
 H458 H 0.38259 0.78826 0.14576
 H459 H 0.39304 0.81136 0.20293
 N460 N 0.31937 0.82264 0.13677
 N461 N 0.30768 0.83574 0.14442
 C462 C 0.29231 0.83818 0.13250
 C463 C 0.29443 0.82594 0.11669
 C464 C 0.31172 0.81634 0.11984
 H465 H 0.28039 0.84799 0.13521
 H466 H 0.31813 0.80542 0.11057
 H467 H 0.32596 0.82176 0.17270
 H468 H 0.34066 0.84119 0.16140
 N469 N 0.82837 0.37195 0.17900
 N470 N 0.84273 0.36679 0.19053
 C471 C 0.84486 0.38001 0.20464
 C472 C 0.83106 0.39416 0.20188
 C473 C 0.82082 0.38865 0.18545
 H474 H 0.85544 0.37930 0.21626
 H475 H 0.80857 0.39602 0.17896
 Cu476 Cu 0.85706 0.34314 0.18646
 Cu477 Cu 0.82019 0.35610 0.15712
 Cu478 Cu 0.84578 0.31372 0.14928
 N479 N 0.87164 0.31978 0.18151
 N480 N 0.86715 0.30817 0.16713
 C481 C 0.87949 0.29310 0.16730
 C482 C 0.89242 0.29555 0.18253
 C483 C 0.88706 0.31261 0.19118
 H484 H 0.87915 0.28132 0.15707
 H485 H 0.89388 0.31922 0.20364
 N486 N 0.82371 0.32199 0.13283
 N487 N 0.81410 0.33815 0.13580
 C488 C 0.79994 0.33977 0.12234
 C489 C 0.80067 0.32391 0.11034
 C490 C 0.81589 0.31291 0.11737
 H491 H 0.78976 0.35156 0.12138
 H492 H 0.82083 0.29930 0.11166
 H493 H 0.82968 0.33022 0.16857
 H494 H 0.84698 0.34308 0.15210
 N495 N 0.81482 0.86599 0.66840
 N496 N 0.82800 0.86985 0.68181
 C497 C 0.82364 0.88685 0.69009
 C498 C 0.80710 0.89408 0.68126
 C499 C 0.80193 0.88054 0.66760
 H500 H 0.83213 0.89366 0.70133
 H501 H 0.78988 0.88138 0.65754
 Cu502 Cu 0.85043 0.85286 0.68725
 Cu503 Cu 0.81561 0.84297 0.65161
 Cu504 Cu 0.85499 0.81566 0.65702
 N505 N 0.86543 0.83003 0.69467
 N506 N 0.86572 0.81499 0.68316
 C507 C 0.87592 0.80085 0.69169
 C508 C 0.88288 0.80746 0.70929
 C509 C 0.87618 0.82614 0.71079
 H510 H 0.87880 0.78703 0.68517
 H511 H 0.87873 0.83601 0.72268
 N512 N 0.83872 0.81323 0.63429
 N513 N 0.82277 0.82344 0.63228
 C514 C 0.81354 0.81767 0.61592
 C515 C 0.82457 0.80325 0.60729
 C516 C 0.84043 0.80087 0.61933
 H517 H 0.79989 0.82348 0.61076
 H518 H 0.85205 0.79050 0.61769
 H519 H 0.83159 0.83418 0.67619
 H520 H 0.84406 0.84898 0.65719
 N521 N 0.69340 0.62976 0.66434
 N522 N 0.68054 0.62377 0.67728
 C523 C 0.68703 0.60764 0.68585
 C524 C 0.70490 0.60314 0.67784
 C525 C 0.70857 0.61743 0.66417
 H526 H 0.67940 0.59992 0.69729
 H527 H 0.72139 0.61892 0.65507
 Cu528 Cu 0.65698 0.63785 0.68277
 Cu529 Cu 0.68927 0.65331 0.64918
 Cu530 Cu 0.64714 0.67913 0.66023
 N531 N 0.63864 0.65591 0.69390
 N532 N 0.63454 0.67207 0.68488
 C533 C 0.62068 0.68145 0.69513
 C534 C 0.61611 0.67060 0.71156
 C535 C 0.62779 0.65451 0.71036
 H536 H 0.61435 0.69504 0.69088
 H537 H 0.62807 0.64248 0.72041
 N538 N 0.66590 0.68712 0.63998
 N539 N 0.68189 0.67742 0.63564
 C540 C 0.69134 0.68663 0.62103
 C541 C 0.68085 0.70292 0.61621
 C542 C 0.66487 0.70280 0.62851
 H543 H 0.70483 0.68190 0.61437
 H544 H 0.65325 0.71328 0.62897
 H545 H 0.67221 0.66662 0.67045
 H546 H 0.65981 0.65352 0.65043
 N547 N 0.69097 0.13929 0.17301
 N548 N 0.68114 0.13527 0.18922
 C549 C 0.68874 0.11936 0.19747
 C550 C 0.70414 0.11318 0.18595
 C551 C 0.70518 0.12613 0.17059
 H552 H 0.68337 0.11267 0.21078
 H553 H 0.71545 0.12589 0.15849
 Cu554 Cu 0.65861 0.15040 0.19829
 Cu555 Cu 0.68474 0.16140 0.15614
 Cu556 Cu 0.64564 0.18787 0.16985
 N557 N 0.63353 0.16303 0.20114
 N558 N 0.62824 0.17763 0.19011
 C559 C 0.61055 0.18380 0.19612
 C560 C 0.60460 0.17247 0.21180
 C561 C 0.61957 0.15947 0.21454
 H562 H 0.60283 0.19593 0.18995
 H563 H 0.62043 0.14843 0.22569
 N564 N 0.66146 0.19444 0.14683
 N565 N 0.67649 0.18390 0.14151
 C566 C 0.68461 0.19143 0.12520
 C567 C 0.67411 0.20752 0.11991
 C568 C 0.65949 0.20904 0.13394
 H569 H 0.69718 0.18559 0.11766
 H570 H 0.64823 0.21988 0.13461
 H571 H 0.67440 0.17086 0.18249
 H572 H 0.65783 0.15517 0.16835
 N573 N 0.19076 0.63658 0.16529
 N574 N 0.17837 0.63002 0.17842
 C575 C 0.18581 0.61415 0.18686
 C576 C 0.20383 0.61057 0.17858
 C577 C 0.20654 0.62508 0.16496
 H578 H 0.17846 0.60565 0.19790
 H579 H 0.21893 0.62695 0.15534
 Cu580 Cu 0.15300 0.64180 0.18260
 Cu581 Cu 0.18448 0.65892 0.14915
 Cu582 Cu 0.14866 0.68808 0.16464
 N583 N 0.13176 0.65928 0.19032
 N584 N 0.13013 0.67688 0.18344
 C585 C 0.11405 0.68508 0.19109
 C586 C 0.10532 0.67211 0.20360
 C587 C 0.11693 0.65593 0.20285
 H588 H 0.10909 0.69946 0.18787
 H589 H 0.11469 0.64267 0.21072
 N590 N 0.16419 0.69385 0.14139
 N591 N 0.17838 0.68265 0.13522
 C592 C 0.18659 0.69056 0.11906
 C593 C 0.17691 0.70755 0.11498
 C594 C 0.16284 0.70918 0.12948
 H595 H 0.19853 0.68437 0.11078
 H596 H 0.15231 0.72061 0.13123
 H597 H 0.16588 0.66720 0.17868
 H598 H 0.15005 0.65979 0.15796
 N599 N 0.17105 0.12263 0.68751
 N600 N 0.15477 0.12365 0.69761
 C601 C 0.15462 0.10976 0.71138
 C602 C 0.17170 0.09938 0.70966
 C603 C 0.18177 0.10787 0.69433
 H604 H 0.14308 0.10756 0.72197
 H605 H 0.19602 0.10389 0.68889
 Cu606 Cu 0.13589 0.14357 0.69226
 Cu607 Cu 0.17725 0.14106 0.66688
 Cu608 Cu 0.14266 0.17654 0.65698
 N609 N 0.12157 0.16745 0.69233
 N610 N 0.12339 0.18019 0.67815
 C611 C 0.11119 0.19500 0.68188
 C612 C 0.10173 0.19135 0.69959
 C613 C 0.10873 0.17384 0.70577
 H614 H 0.10990 0.20773 0.67288
 H615 H 0.10477 0.16627 0.71910
 N616 N 0.16750 0.17396 0.64212
 N617 N 0.18073 0.16086 0.64652
 C618 C 0.19637 0.16332 0.63494
 C619 C 0.19294 0.17859 0.62255
 C620 C 0.17445 0.18504 0.62737
 H621 H 0.20938 0.15461 0.63542
 H622 H 0.16689 0.19718 0.62102
 H623 H 0.16016 0.16374 0.67722
 H624 H 0.14931 0.14757 0.65878
 N625 N 0.31918 0.63162 0.33581
 N626 N 0.33300 0.62731 0.32311
 C627 C 0.32638 0.61462 0.31009
 C628 C 0.30747 0.61056 0.31494
 C629 C 0.30321 0.62159 0.33133
 H630 H 0.33428 0.60977 0.29720
 H631 H 0.28925 0.62327 0.33851
 Cu632 Cu 0.35723 0.64081 0.32233
 Cu633 Cu 0.32300 0.65144 0.35563
 Cu634 Cu 0.35876 0.68406 0.34278
 N635 N 0.37633 0.65913 0.31419
 N636 N 0.37681 0.67630 0.32188
 C637 C 0.39031 0.68661 0.31226
 C638 C 0.39837 0.67526 0.29763
 C639 C 0.38923 0.65792 0.29933
 H640 H 0.39341 0.70145 0.31511
 H641 H 0.39123 0.64557 0.29000
 N642 N 0.33925 0.68883 0.36369
 N643 N 0.32606 0.67623 0.36898
 C644 C 0.31547 0.68340 0.38404
 C645 C 0.32228 0.70139 0.38829
 C646 C 0.33730 0.70439 0.37514
 H647 H 0.30361 0.67615 0.39126
 H648 H 0.34634 0.71687 0.37423
 H649 H 0.33647 0.66653 0.33396
 H650 H 0.35261 0.65741 0.35383
 N651 N 0.32368 0.12953 0.81770
 N652 N 0.33909 0.13285 0.80677
 C653 C 0.34043 0.11940 0.79266
 C654 C 0.32512 0.10701 0.79512
 C655 C 0.31483 0.11383 0.81112
 H656 H 0.35167 0.11862 0.78150
 H657 H 0.30169 0.10797 0.81732
 Cu658 Cu 0.35580 0.15433 0.81244
 Cu659 Cu 0.31569 0.14598 0.83919
 Cu660 Cu 0.34440 0.18492 0.84915
 N661 N 0.37160 0.17648 0.81791
 N662 N 0.36710 0.18831 0.83228
 C663 C 0.38024 0.20235 0.83274
 C664 C 0.39367 0.19913 0.81789
 C665 C 0.38778 0.18262 0.80876
 H666 H 0.37997 0.21409 0.84304
 H667 H 0.39468 0.17573 0.79629
 N668 N 0.32076 0.17891 0.86444
 N669 N 0.30983 0.16413 0.86034
 C670 C 0.29464 0.16384 0.87282
 C671 C 0.29604 0.17909 0.88544
 C672 C 0.31278 0.18839 0.87981
 H673 H 0.28336 0.15326 0.87278
 H674 H 0.31860 0.20115 0.88634
 H675 H 0.32859 0.17064 0.82839
 H676 H 0.34307 0.15581 0.84602
 N677 N 0.80966 0.64890 0.81064
 N678 N 0.82059 0.65001 0.79473
 C679 C 0.81526 0.63668 0.78182
 C680 C 0.80037 0.62640 0.79005
 C681 C 0.79711 0.63440 0.80844
 H682 H 0.82228 0.63411 0.76777
 H683 H 0.78636 0.63016 0.81923
 Cu684 Cu 0.84229 0.66699 0.79240
 Cu685 Cu 0.81219 0.66739 0.83206
 Cu686 Cu 0.85438 0.69360 0.83096
 N687 N 0.86810 0.67703 0.79504
 N688 N 0.87284 0.68759 0.81015
 C689 C 0.89133 0.69316 0.80799
 C690 C 0.89850 0.68550 0.79065
 C691 C 0.88341 0.67532 0.78279
 H692 H 0.89892 0.70222 0.81815
 H693 H 0.88341 0.66757 0.76905
 N694 N 0.83396 0.69758 0.85070
 N695 N 0.81791 0.68753 0.85157
 C696 C 0.80635 0.69485 0.86588
 C697 C 0.81566 0.71031 0.87407
 C698 C 0.83307 0.71153 0.86416
 H699 H 0.79189 0.69000 0.86933
 H700 H 0.84402 0.72225 0.86613
 H701 H 0.82767 0.68747 0.81706
 H702 H 0.84142 0.66662 0.82786
 N703 N 0.82248 0.13179 0.32255
 N704 N 0.83731 0.13519 0.31066
 C705 C 0.83813 0.12158 0.29675
 C706 C 0.82304 0.10911 0.29992
 C707 C 0.81336 0.11601 0.31636
 H708 H 0.84906 0.12067 0.28530
 H709 H 0.80075 0.10990 0.32341
 Cu710 Cu 0.85541 0.15658 0.31427
 Cu711 Cu 0.81584 0.14806 0.34538
 Cu712 Cu 0.84743 0.18256 0.35452
 N713 N 0.87482 0.17419 0.32417
 N714 N 0.87164 0.18404 0.34032
 C715 C 0.88643 0.19593 0.34330
 C716 C 0.89961 0.19359 0.32810
 C717 C 0.89185 0.17962 0.31617
 H718 H 0.88698 0.20624 0.35507
 H719 H 0.89771 0.17442 0.30236
 N720 N 0.82071 0.18475 0.36285
 N721 N 0.80843 0.17073 0.36062
 C722 C 0.79147 0.17557 0.36942
 C723 C 0.79332 0.19383 0.37691
 C724 C 0.81196 0.19921 0.37243
 H725 H 0.77871 0.16675 0.36988
 H726 H 0.81881 0.21247 0.37632
 H727 H 0.83026 0.16666 0.32825
 H728 H 0.84624 0.14982 0.34215
 N729 N 0.67801 0.37681 0.31916
 N730 N 0.66378 0.37572 0.30649
 C731 C 0.66608 0.38907 0.29242
 C732 C 0.68261 0.39920 0.29653
 C733 C 0.68985 0.39110 0.31364
 H734 H 0.65647 0.39116 0.28006
 H735 H 0.70290 0.39506 0.32127
 Cu736 Cu 0.64373 0.35687 0.30936
 Cu737 Cu 0.68007 0.35904 0.34132
 Cu738 Cu 0.64729 0.32155 0.34288
 N739 N 0.62824 0.33418 0.30762
 N740 N 0.62887 0.32063 0.32107
 C741 C 0.61633 0.30682 0.31608
 C742 C 0.60780 0.31204 0.29841
 C743 C 0.61573 0.32939 0.29349
 H744 H 0.61411 0.29372 0.32425
 H745 H 0.61265 0.33793 0.28054
 N746 N 0.66733 0.32535 0.36321
 N747 N 0.67969 0.33962 0.36244
 C748 C 0.69152 0.33846 0.37804
 C749 C 0.68650 0.32273 0.38917
 C750 C 0.67110 0.31468 0.37939
 H751 H 0.70303 0.34833 0.38106
 H752 H 0.66327 0.30204 0.38375
 H753 H 0.66708 0.33676 0.32641
 H754 H 0.65136 0.35065 0.34380
 N755 N 0.68132 0.88121 0.80571
 N756 N 0.66609 0.88005 0.79432
 C757 C 0.66691 0.89378 0.78041
 C758 C 0.68355 0.90414 0.78336
 C759 C 0.69236 0.89581 0.79954
 H760 H 0.65616 0.89608 0.76911
 H761 H 0.70570 0.90015 0.80638
 Cu762 Cu 0.64683 0.86072 0.79883
 Cu763 Cu 0.68512 0.86409 0.82803
 Cu764 Cu 0.65051 0.82893 0.83588
 N765 N 0.63306 0.83688 0.79851
 N766 N 0.63363 0.82461 0.81322
 C767 C 0.62144 0.81016 0.80932
 C768 C 0.61330 0.81356 0.79099
 C769 C 0.62107 0.83054 0.78461
 H770 H 0.61884 0.79809 0.81894
 H771 H 0.61782 0.83806 0.77106
 N772 N 0.67315 0.83245 0.85337
 N773 N 0.68631 0.84564 0.84990
 C774 C 0.69945 0.84522 0.86435
 C775 C 0.69450 0.83117 0.87766
 C776 C 0.67777 0.82319 0.87026
 H777 H 0.71151 0.85484 0.86543
 H778 H 0.66934 0.81194 0.87696
 H779 H 0.66972 0.84102 0.81692
 H780 H 0.65648 0.85782 0.83352
 N781 N 0.18384 0.35682 0.82921
 N782 N 0.17442 0.35870 0.81242
 C783 C 0.18157 0.37392 0.80254
 C784 C 0.19632 0.38163 0.81367
 C785 C 0.19725 0.37046 0.83039
 H786 H 0.17695 0.37854 0.78808
 H787 H 0.20745 0.37174 0.84231
 Cu788 Cu 0.15449 0.34015 0.80422
 Cu789 Cu 0.18039 0.33557 0.84791
 Cu790 Cu 0.15290 0.30040 0.83187
 N791 N 0.13151 0.32367 0.80460
 N792 N 0.13119 0.30837 0.81591
 C793 C 0.11367 0.30037 0.81515
 C794 C 0.10230 0.31095 0.80251
 C795 C 0.11404 0.32564 0.79582
 H796 H 0.10938 0.28798 0.82361
 H797 H 0.10990 0.33738 0.78627
 N798 N 0.16993 0.29662 0.85401
 N799 N 0.18061 0.31060 0.86055
 C800 C 0.18920 0.30503 0.87740
 C801 C 0.18342 0.28660 0.88161
 C802 C 0.17126 0.28167 0.86642
 H803 H 0.19806 0.31408 0.88645
 H804 H 0.16307 0.26867 0.86509
 H805 H 0.17554 0.32449 0.82018
 H806 H 0.15400 0.33508 0.83301
 N807 N 0.19056 0.85177 0.33334
 N808 N 0.17825 0.85586 0.31918
 C809 C 0.18575 0.86956 0.30754
 C810 C 0.20357 0.87444 0.31494
 C811 C 0.20632 0.86280 0.33119
 H812 H 0.17918 0.87495 0.29418
 H813 H 0.21919 0.86180 0.34015
 Cu814 Cu 0.15438 0.84185 0.31620
 Cu815 Cu 0.18594 0.83116 0.35225
 Cu816 Cu 0.14626 0.80256 0.34328
 N817 N 0.13435 0.82393 0.30918
 N818 N 0.13079 0.80889 0.32023
 C819 C 0.11616 0.79905 0.31230
 C820 C 0.11043 0.80833 0.29528
 C821 C 0.12228 0.82405 0.29369
 H822 H 0.11044 0.78587 0.31819
 H823 H 0.12214 0.83475 0.28215
 N824 N 0.16369 0.79849 0.36579
 N825 N 0.17864 0.80950 0.36945
 C826 C 0.18799 0.80260 0.38539
 C827 C 0.17856 0.78639 0.39184
 C828 C 0.16324 0.78423 0.37914
 H829 H 0.20107 0.80849 0.39145
 H830 H 0.15275 0.77288 0.37940
 H831 H 0.17100 0.81522 0.33201
 H832 H 0.15623 0.82958 0.34987
 C833 C 0.25532 0.98824 0.27196
 C834 C 0.27179 0.99225 0.26151
 C835 C 0.27450 1.01101 0.25157
 C836 C 0.28625 0.97707 0.25681
 C837 C 0.25014 0.96830 0.27747
 C838 C 0.24079 1.00337 0.27675
 C839 C 0.26058 1.01776 0.23823
 C840 C 0.26365 1.03455 0.22763
 C841 C 0.28083 1.04489 0.22991
 C842 C 0.29466 1.03836 0.24354
 C843 C 0.29159 1.02141 0.25415
 C844 C 0.29004 0.97249 0.23705
 C845 C 0.30133 0.95650 0.23230
 C846 C 0.30930 0.94497 0.24722
 C847 C 0.30642 0.95018 0.26701
 C848 C 0.29493 0.96610 0.27177
 C849 C 0.24486 0.96383 0.29694
 C850 C 0.23930 0.94527 0.30202
 C851 C 0.23902 0.93085 0.28769
 C852 C 0.24409 0.93541 0.26818
 C853 C 0.24931 0.95400 0.26307
 C854 C 0.24622 1.02027 0.28615
 C855 C 0.23252 1.03472 0.28973
 C856 C 0.21311 1.03250 0.28404
 C857 C 0.20766 1.01536 0.27506
 C858 C 0.22134 1.00094 0.27150
 H859 H 0.24749 1.00979 0.23570
 H860 H 0.25252 1.03934 0.21756
 H861 H 0.30805 1.04600 0.24553
 H862 H 0.30260 1.01628 0.26422
 H863 H 0.28347 0.98076 0.22528
 H864 H 0.30354 0.95297 0.21693
 H865 H 0.29221 0.96948 0.28710
 H866 H 0.24506 0.97473 0.30821
 H867 H 0.23540 0.94216 0.31716
 H868 H 0.24353 0.92476 0.25670
 H869 H 0.25249 0.95726 0.24779
 H870 H 0.26110 1.02234 0.29053
 H871 H 0.23725 1.04775 0.29663
 H872 H 0.19280 1.01297 0.27082
 H873 H 0.21682 0.98798 0.26429
 H874 H 0.31230 0.94150 0.27882
 C875 C 0.24064 0.49580 0.76115
 C876 C 0.25391 0.49925 0.74656
 C877 C 0.25863 0.51895 0.74011
 C878 C 0.26643 0.48379 0.73831
 C879 C 0.23675 0.47615 0.76834
 C880 C 0.23219 0.51157 0.77328
 C881 C 0.25588 0.52432 0.72039
 C882 C 0.25982 0.54296 0.71419
 C883 C 0.26637 0.55652 0.72771
 C884 C 0.26959 0.55096 0.74733
 C885 C 0.26609 0.53225 0.75340
 C886 C 0.25873 0.46773 0.72898
 C887 C 0.27094 0.45256 0.72325
 C888 C 0.29099 0.45323 0.72684
 C889 C 0.29866 0.46969 0.73541
 C890 C 0.28653 0.48480 0.74100
 C891 C 0.25149 0.46517 0.77708
 C892 C 0.24736 0.44743 0.78544
 C893 C 0.22833 0.44045 0.78558
 C894 C 0.21365 0.45129 0.77643
 C895 C 0.21782 0.46907 0.76800
 C896 C 0.23595 0.51166 0.79356
 C897 C 0.23117 0.52752 0.80500
 C898 C 0.22255 0.54380 0.79645
 C899 C 0.21757 0.54326 0.77637
 C900 C 0.22223 0.52720 0.76490
 H901 H 0.25046 0.51413 0.70987
 H902 H 0.25742 0.54689 0.69895
 H903 H 0.27516 0.56098 0.75792
 H904 H 0.26895 0.52818 0.76852
 H905 H 0.24327 0.46674 0.72662
 H906 H 0.26461 0.44008 0.71663
 H907 H 0.29279 0.49707 0.74812
 H908 H 0.26611 0.47055 0.77787
 H909 H 0.25910 0.43936 0.79205
 H910 H 0.19882 0.44641 0.77642
 H911 H 0.20623 0.47750 0.76154
 H912 H 0.24348 0.49976 0.80045
 H913 H 0.23467 0.52708 0.82049
 H914 H 0.21083 0.55550 0.76932
 H915 H 0.21894 0.52736 0.74933
 H916 H 0.31405 0.47088 0.73799
 C917 C 0.74380 0.00128 0.24687
 C918 C 0.75782 0.00070 0.26086
 C919 C 0.76190 -0.01689 0.27233
 C920 C 0.76993 0.01745 0.26534
 C921 C 0.74020 0.01863 0.23475
 C922 C 0.73149 -0.01553 0.24292
 C923 C 0.75809 -0.01719 0.29262
 C924 C 0.76119 -0.03387 0.30354
 C925 C 0.76855 -0.05041 0.29439
 C926 C 0.77289 -0.04992 0.27414
 C927 C 0.76946 -0.03330 0.26314
 C928 C 0.76167 0.03446 0.27258
 C929 C 0.77341 0.05011 0.27671
 C930 C 0.79354 0.04900 0.27345
 C931 C 0.80172 0.03186 0.26642
 C932 C 0.79004 0.01620 0.26256
 C933 C 0.75497 0.02663 0.22315
 C934 C 0.75140 0.04314 0.21203
 C935 C 0.73295 0.05190 0.21222
 C936 C 0.71814 0.04364 0.22364
 C937 C 0.72171 0.02712 0.23470
 C938 C 0.73145 -0.02362 0.22407
 C939 C 0.72047 -0.03983 0.22029
 C940 C 0.70914 -0.04818 0.23526
 C941 C 0.70890 -0.03977 0.25404
 C942 C 0.71992 -0.02357 0.25781
 H943 H 0.75235 -0.00458 0.29991
 H944 H 0.75798 -0.03377 0.31917
 H945 H 0.77850 -0.06250 0.26673
 H946 H 0.77260 -0.03321 0.24749
 H947 H 0.74617 0.03559 0.27503
 H948 H 0.76671 0.06315 0.28209
 H949 H 0.79667 0.00312 0.25714
 H950 H 0.76927 0.02009 0.22275
 H951 H 0.76320 0.04914 0.20355
 H952 H 0.70370 0.04982 0.22394
 H953 H 0.71009 0.02107 0.24344
 H954 H 0.74020 -0.01754 0.21236
 H955 H 0.72082 -0.04574 0.20559
 H956 H 0.70052 -0.04585 0.26599
 H957 H 0.71955 -0.01737 0.27240
 H958 H 0.81720 0.03045 0.26410
 C959 C 0.74358 0.50061 0.75449
 C960 C 0.75298 0.50444 0.77157
 C961 C 0.75639 0.48939 0.78656
 C962 C 0.76205 0.52327 0.77449
 C963 C 0.73919 0.51597 0.73998
 C964 C 0.73958 0.48080 0.74826
 C965 C 0.74075 0.47951 0.79493
 C966 C 0.74408 0.46394 0.80744
 C967 C 0.76309 0.45786 0.81154
 C968 C 0.77871 0.46816 0.80368
 C969 C 0.77538 0.48395 0.79145
 C970 C 0.75573 0.53557 0.78955
 C971 C 0.76241 0.55440 0.79018
 C972 C 0.77536 0.56101 0.77568
 C973 C 0.78257 0.54822 0.76148
 C974 C 0.77609 0.52950 0.76099
 C975 C 0.74694 0.51499 0.72083
 C976 C 0.74380 0.52990 0.70743
 C977 C 0.73261 0.54593 0.71288
 C978 C 0.72454 0.54668 0.73196
 C979 C 0.72783 0.53185 0.74539
 C980 C 0.75491 0.46766 0.74590
 C981 C 0.75175 0.45001 0.73712
 C982 C 0.73323 0.44520 0.73046
 C983 C 0.71770 0.45803 0.73363
 C984 C 0.72091 0.47577 0.74231
 H985 H 0.72600 0.48358 0.79134
 H986 H 0.73179 0.45619 0.81321
 H987 H 0.79351 0.46388 0.80679
 H988 H 0.78761 0.49140 0.78511
 H989 H 0.74498 0.53088 0.80017
 H990 H 0.75679 0.56400 0.80136
 H991 H 0.78142 0.52004 0.74953
 H992 H 0.75577 0.50284 0.71640
 H993 H 0.74999 0.52878 0.69279
 H994 H 0.71597 0.55890 0.73667
 H995 H 0.72167 0.53281 0.76007
 H996 H 0.76950 0.47142 0.75003
 H997 H 0.76395 0.44034 0.73509
 H998 H 0.70330 0.45479 0.72852
 H999 H 0.70897 0.48584 0.74383
 H1000 H 0.79302 0.55276 0.75050
 C1001 C 0.24985 0.50080 0.24042
 C1002 C 0.25904 0.50269 0.25801
 C1003 C 0.26310 0.48582 0.27069
 C1004 C 0.26535 0.52160 0.26538
 C1005 C 0.24379 0.51764 0.22846
 C1006 C 0.24627 0.48173 0.23182
 C1007 C 0.24784 0.47478 0.27810
 C1008 C 0.25165 0.45909 0.29030
 C1009 C 0.27081 0.45405 0.29516
 C1010 C 0.28609 0.46497 0.28750
 C1011 C 0.28224 0.48088 0.27554
 C1012 C 0.26062 0.52736 0.28465
 C1013 C 0.26594 0.54541 0.29140
 C1014 C 0.27587 0.55802 0.27890
 C1015 C 0.28104 0.55206 0.25984
 C1016 C 0.27613 0.53391 0.25327
 C1017 C 0.25059 0.51957 0.20905
 C1018 C 0.24600 0.53586 0.19799
 C1019 C 0.23429 0.55044 0.20605
 C1020 C 0.22692 0.54818 0.22529
 C1021 C 0.23164 0.53192 0.23640
 C1022 C 0.26174 0.46910 0.22789
 C1023 C 0.25840 0.45150 0.21901
 C1024 C 0.23952 0.44620 0.21386
 C1025 C 0.22404 0.45883 0.21794
 C1026 C 0.22742 0.47651 0.22670
 H1027 H 0.23297 0.47845 0.27455
 H1028 H 0.23960 0.45081 0.29579
 H1029 H 0.30097 0.46149 0.29112
 H1030 H 0.29418 0.48926 0.26994
 H1031 H 0.25249 0.51803 0.29433
 H1032 H 0.26190 0.54968 0.30620
 H1033 H 0.28060 0.52954 0.23863
 H1034 H 0.25988 0.50866 0.20261
 H1035 H 0.25160 0.53695 0.18311
 H1036 H 0.21789 0.55916 0.23194
 H1037 H 0.22606 0.53058 0.25129
 H1038 H 0.27644 0.47301 0.23147
 H1039 H 0.27063 0.44204 0.21627
 H1040 H 0.20936 0.45528 0.21397
 H1041 H 0.21533 0.48615 0.22947
 H1042 H 0.28918 0.56131 0.25008
 C1043 C 0.75913 1.00886 0.75483
 C1044 C 0.77451 1.00857 0.74217
 C1045 C 0.78598 1.02592 0.73807
 C1046 C 0.77950 0.99132 0.73050
 C1047 C 0.74580 0.99246 0.75642
 C1048 C 0.75439 1.02584 0.76709
 C1049 C 0.77692 1.04249 0.73075
 C1050 C 0.78782 1.05863 0.72632
 C1051 C 0.80800 1.05850 0.72909
 C1052 C 0.81702 1.04190 0.73651
 C1053 C 0.80610 1.02568 0.74080
 C1054 C 0.77836 0.99207 0.70990
 C1055 C 0.78162 0.97564 0.69874
 C1056 C 0.78646 0.95825 0.70795
 C1057 C 0.78836 0.95767 0.72854
 C1058 C 0.78476 0.97408 0.73976
 C1059 C 0.74291 0.98343 0.77464
 C1060 C 0.73015 0.96816 0.77633
 C1061 C 0.71986 0.96181 0.75984
 C1062 C 0.72270 0.97101 0.74161
 C1063 C 0.73551 0.98623 0.73994
 C1064 C 0.76826 1.03374 0.77958
 C1065 C 0.76367 1.04981 0.79091
 C1066 C 0.74508 1.05822 0.79008
 C1067 C 0.73119 1.05017 0.77766
 C1068 C 0.73578 1.03408 0.76637
 H1069 H 0.76143 1.04284 0.72829
 H1070 H 0.78041 1.07122 0.72075
 H1071 H 0.83256 1.04126 0.73853
 H1072 H 0.81332 1.01293 0.74629
 H1073 H 0.77438 1.00527 0.70252
 H1074 H 0.78035 0.97657 0.68288
 H1075 H 0.78582 0.97330 0.75566
 H1076 H 0.75061 0.98819 0.78755
 H1077 H 0.72814 0.96156 0.79063
 H1078 H 0.71518 0.96639 0.72858
 H1079 H 0.73732 0.99325 0.72581
 H1080 H 0.78264 1.02746 0.78054
 H1081 H 0.77481 1.05570 0.80012
 H1082 H 0.71667 1.05612 0.77683
 H1083 H 0.72484 1.02815 0.75688
 H1084 H 0.79201 0.94442 0.73600
 C1085 C 0.75723 0.50410 0.26181
 C1086 C 0.77143 0.50475 0.24785
 C1087 C 0.77499 0.52261 0.23650
 C1088 C 0.78249 0.48718 0.24250
 C1089 C 0.74608 0.48628 0.26517
 C1090 C 0.75180 0.52147 0.27318
 C1091 C 0.75924 0.53248 0.22813
 C1092 C 0.76226 0.54803 0.21566
 C1093 C 0.78111 0.55417 0.21134
 C1094 C 0.79691 0.54477 0.22021
 C1095 C 0.79388 0.52892 0.23252
 C1096 C 0.78524 0.48190 0.22274
 C1097 C 0.79573 0.46528 0.21804
 C1098 C 0.80392 0.45393 0.23301
 C1099 C 0.80111 0.45926 0.25274
 C1100 C 0.79048 0.47568 0.25744
 C1101 C 0.74141 0.47995 0.28427
 C1102 C 0.72952 0.46405 0.28704
 C1103 C 0.72189 0.45442 0.27074
 C1104 C 0.72697 0.46055 0.25170
 C1105 C 0.73885 0.47631 0.24894
 C1106 C 0.76632 0.53246 0.28182
 C1107 C 0.76147 0.54825 0.29339
 C1108 C 0.74198 0.55344 0.29648
 C1109 C 0.72742 0.54262 0.28758
 C1110 C 0.73229 0.52667 0.27615
 H1111 H 0.74455 0.52772 0.23072
 H1112 H 0.74980 0.55515 0.20923
 H1113 H 0.81159 0.54919 0.21701
 H1114 H 0.80624 0.52142 0.23871
 H1115 H 0.77912 0.49052 0.21101
 H1116 H 0.79770 0.46151 0.20270
 H1117 H 0.78859 0.47952 0.27278
 H1118 H 0.74674 0.48748 0.29699
 H1119 H 0.72578 0.45970 0.30190
 H1120 H 0.72164 0.45328 0.23882
 H1121 H 0.74197 0.48106 0.23405
 H1122 H 0.78146 0.52863 0.27985
 H1123 H 0.77302 0.55644 0.29979
 H1124 H 0.71227 0.54624 0.28977
 H1125 H 0.72086 0.51840 0.26961
 H1126 H 0.80693 0.45063 0.26462
 C1127 C 0.24650 -0.00450 0.74893
 C1128 C 0.26168 -0.00349 0.76151
 C1129 C 0.27127 -0.02114 0.76914
 C1130 C 0.27154 0.01496 0.76456
 C1131 C 0.23384 0.01242 0.74514
 C1132 C 0.24312 -0.02204 0.73729
 C1133 C 0.26030 -0.03567 0.77808
 C1134 C 0.26886 -0.05338 0.78254
 C1135 C 0.28841 -0.05682 0.77785
 C1136 C 0.29960 -0.04193 0.77006
 C1137 C 0.29117 -0.02417 0.76595
 C1138 C 0.27648 0.02099 0.78351
 C1139 C 0.28750 0.03746 0.78597
 C1140 C 0.29412 0.04781 0.76948
 C1141 C 0.28903 0.04179 0.75057
 C1142 C 0.27781 0.02555 0.74813
 C1143 C 0.22953 0.01816 0.72580
 C1144 C 0.21696 0.03360 0.72236
 C1145 C 0.20818 0.04331 0.73821
 C1146 C 0.21256 0.03758 0.75754
 C1147 C 0.22536 0.02236 0.76097
 C1148 C 0.25849 -0.03059 0.72676
 C1149 C 0.25540 -0.04664 0.71519
 C1150 C 0.23677 -0.05429 0.71350
 C1151 C 0.22134 -0.04558 0.72394
 C1152 C 0.22449 -0.02958 0.73568
 H1153 H 0.24494 -0.03355 0.78078
 H1154 H 0.25995 -0.06474 0.78838
 H1155 H 0.31473 -0.04430 0.76637
 H1156 H 0.29992 -0.01322 0.75909
 H1157 H 0.27201 0.01284 0.79632
 H1158 H 0.29133 0.04174 0.80073
 H1159 H 0.27449 0.02089 0.73335
 H1160 H 0.23591 0.01067 0.71337
 H1161 H 0.21374 0.03764 0.70731
 H1162 H 0.20618 0.04493 0.77003
 H1163 H 0.22838 0.01807 0.77600
 H1164 H 0.27290 -0.02467 0.72731
 H1165 H 0.26772 -0.05290 0.70760
 H1166 H 0.20673 -0.05087 0.72289
 H1167 H 0.21239 -0.02303 0.74346
 H1168 H 0.29373 0.04959 0.73762
 C1169 C 0.24930 0.23547 0.99984
 C1170 C 0.23512 0.24911 1.00154
 C1171 C 0.22630 0.25377 1.02092
 C1172 C 0.22484 0.25660 0.98395
 C1173 C 0.25400 0.22662 0.98056
 C1174 C 0.25730 0.22575 1.01755
 C1175 C 0.21676 0.23956 1.03177
 C1176 C 0.20762 0.24395 1.04956
 C1177 C 0.20755 0.26274 1.05673
 C1178 C 0.21721 0.27697 1.04589
 C1179 C 0.22640 0.27252 1.02802
 C1180 C 0.20500 0.25295 0.98195
 C1181 C 0.19568 0.25669 0.96421
 C1182 C 0.20591 0.26448 0.94822
 C1183 C 0.22544 0.26939 0.95060
 C1184 C 0.23490 0.26536 0.96834
 C1185 C 0.27307 0.22645 0.97331
 C1186 C 0.27761 0.21701 0.95571
 C1187 C 0.26315 0.20740 0.94525
 C1188 C 0.24404 0.20782 0.95254
 C1189 C 0.23958 0.21712 0.97010
 C1190 C 0.26561 0.23612 1.03295
 C1191 C 0.26957 0.22719 1.05100
 C1192 C 0.26513 0.20783 1.05386
 C1193 C 0.25808 0.19725 1.03800
 C1194 C 0.25432 0.20609 1.01999
 H1195 H 0.21619 0.22507 1.02629
 H1196 H 0.20058 0.23259 1.05761
 H1197 H 0.21725 0.29161 1.05093
 H1198 H 0.23349 0.28370 1.01967
 H1199 H 0.19696 0.24616 0.99376
 H1200 H 0.18053 0.25310 0.96286
 H1201 H 0.25020 0.26833 0.96965
 H1202 H 0.28442 0.23346 0.98138
 H1203 H 0.29250 0.21682 0.95062
 H1204 H 0.23245 0.20087 0.94481
 H1205 H 0.22487 0.21666 0.97573
 H1206 H 0.26810 0.25129 1.03131
 H1207 H 0.27505 0.23564 1.06302
 H1208 H 0.25491 0.18222 1.03968
 H1209 H 0.24793 0.19778 1.00834
 H1210 H 0.23361 0.27544 0.93845
 C1211 C 0.26061 0.73829 0.50361
 C1212 C 0.24220 0.74549 0.50419
 C1213 C 0.23179 0.75002 0.52287
 C1214 C 0.23136 0.74920 0.48573
 C1215 C 0.27077 0.73541 0.48451
 C1216 C 0.27188 0.73368 0.52163
 C1217 C 0.21269 0.74375 0.52551
 C1218 C 0.20235 0.74822 0.54263
 C1219 C 0.21084 0.75917 0.55745
 C1220 C 0.22986 0.76568 0.55476
 C1221 C 0.24021 0.76125 0.53754
 C1222 C 0.22609 0.73408 0.47347
 C1223 C 0.21540 0.73767 0.45642
 C1224 C 0.20997 0.75644 0.45128
 C1225 C 0.21547 0.77155 0.46349
 C1226 C 0.22591 0.76793 0.48070
 C1227 C 0.27494 0.75102 0.47225
 C1228 C 0.28470 0.74826 0.45438
 C1229 C 0.29048 0.72982 0.44847
 C1230 C 0.28620 0.71421 0.46080
 C1231 C 0.27656 0.71701 0.47874
 C1232 C 0.29040 0.74141 0.52381
 C1233 C 0.30131 0.73749 0.54059
 C1234 C 0.29403 0.72562 0.55559
 C1235 C 0.27562 0.71753 0.55325
 C1236 C 0.26466 0.72149 0.53638
 H1237 H 0.20572 0.73543 0.51423
 H1238 H 0.18754 0.74346 0.54403
 H1239 H 0.23676 0.77412 0.56598
 H1240 H 0.25472 0.76672 0.53563
 H1241 H 0.23009 0.71952 0.47725
 H1242 H 0.21152 0.72576 0.44719
 H1243 H 0.22980 0.77973 0.49009
 H1244 H 0.27070 0.76534 0.47659
 H1245 H 0.28756 0.76056 0.44516
 H1246 H 0.29061 0.69986 0.45678
 H1247 H 0.27350 0.70483 0.48811
 H1248 H 0.29637 0.75068 0.51254
 H1249 H 0.31558 0.74360 0.54161
 H1250 H 0.26959 0.70833 0.56452
 H1251 H 0.25054 0.71508 0.53484
 H1252 H 0.21132 0.78613 0.46000
 C1253 C 0.23337 0.75853 0.00213
 C1254 C 0.24833 0.77101 0.00270
 C1255 C 0.26068 0.77430 -0.01500
 C1256 C 0.25302 0.78178 0.02087
 C1257 C 0.22272 0.75254 0.02020
 C1258 C 0.22588 0.75147 -0.01691
 C1259 C 0.27086 0.75901 -0.02364
 C1260 C 0.28289 0.76207 -0.03995
 C1261 C 0.28487 0.78047 -0.04805
 C1262 C 0.27428 0.79570 -0.03972
 C1263 C 0.26246 0.79267 -0.02315
 C1264 C 0.27209 0.78200 0.02788
 C1265 C 0.27658 0.79210 0.04494
 C1266 C 0.26212 0.80233 0.05529
 C1267 C 0.24308 0.80229 0.04806
 C1268 C 0.23861 0.79223 0.03098
 C1269 C 0.20255 0.75502 0.02127
 C1270 C 0.19231 0.74945 0.03811
 C1271 C 0.20200 0.74098 0.05410
 C1272 C 0.22217 0.73816 0.05292
 C1273 C 0.23247 0.74400 0.03613
 C1274 C 0.21900 0.76452 -0.03102
 C1275 C 0.20995 0.75805 -0.04799
 C1276 C 0.20766 0.73841 -0.05122
 C1277 C 0.21521 0.72531 -0.03746
 C1278 C 0.22407 0.73182 -0.02030
 H1279 H 0.26965 0.74473 -0.01758
 H1280 H 0.29060 0.74998 -0.04627
 H1281 H 0.27555 0.80999 -0.04568
 H1282 H 0.25462 0.80462 -0.01672
 H1283 H 0.28348 0.77422 0.02021
 H1284 H 0.29145 0.79199 0.04988
 H1285 H 0.22387 0.79262 0.02562
 H1286 H 0.19473 0.76148 0.00912
 H1287 H 0.17675 0.75155 0.03848
 H1288 H 0.22999 0.73175 0.06508
 H1289 H 0.24803 0.74180 0.03550
 H1290 H 0.22005 0.77974 -0.02856
 H1291 H 0.20446 0.76846 -0.05846
 H1292 H 0.21352 0.71010 -0.03955
 H1293 H 0.22921 0.72156 -0.00949
 H1294 H 0.23150 0.80983 0.05565
 C1295 C 0.23807 0.23448 0.50689
 C1296 C 0.24765 0.25122 0.50446
 C1297 C 0.25436 0.25750 0.48474
 C1298 C 0.25167 0.26402 0.52124
 C1299 C 0.23335 0.22670 0.52674
 C1300 C 0.23335 0.22236 0.48978
 C1301 C 0.27064 0.24893 0.47574
 C1302 C 0.27651 0.25466 0.45683
 C1303 C 0.26586 0.26866 0.44658
 C1304 C 0.24968 0.27727 0.45574
 C1305 C 0.24414 0.27191 0.47477
 C1306 C 0.27077 0.26927 0.52532
 C1307 C 0.27477 0.28070 0.54159
 C1308 C 0.25968 0.28731 0.55391
 C1309 C 0.24051 0.28234 0.54953
 C1310 C 0.23655 0.27080 0.53334
 C1311 C 0.21436 0.22114 0.53133
 C1312 C 0.21004 0.21297 0.54968
 C1313 C 0.22472 0.20999 0.56365
 C1314 C 0.24367 0.21579 0.55905
 C1315 C 0.24796 0.22394 0.54076
 C1316 C 0.22085 0.22896 0.47496
 C1317 C 0.21717 0.21761 0.45852
 C1318 C 0.22595 0.19948 0.45669
 C1319 C 0.23802 0.19275 0.47187
 C1320 C 0.24163 0.20407 0.48828
 H1321 H 0.27869 0.23780 0.48334
 H1322 H 0.28905 0.24789 0.45005
 H1323 H 0.24141 0.28832 0.44825
 H1324 H 0.23161 0.27869 0.48158
 H1325 H 0.28263 0.26421 0.51613
 H1326 H 0.28966 0.28444 0.54443
 H1327 H 0.22169 0.26704 0.53031
 H1328 H 0.20292 0.22301 0.52063
 H1329 H 0.19534 0.20851 0.55268
 H1330 H 0.25529 0.21395 0.56952
 H1331 H 0.26277 0.22782 0.53742
 H1332 H 0.21406 0.24293 0.47606
 H1333 H 0.20780 0.22319 0.44710
 H1334 H 0.24466 0.17870 0.47120
 H1335 H 0.25117 0.19868 0.49968
 H1336 H 0.22857 0.28702 0.55879
 C1337 C 0.75430 0.75563 0.98627
 C1338 C 0.74200 0.77056 0.99022
 C1339 C 0.74100 0.77878 1.01034
 C1340 C 0.73231 0.78187 0.97430
 C1341 C 0.76138 0.75154 0.96597
 C1342 C 0.76475 0.74562 1.00249
 C1343 C 0.72325 0.78023 1.02037
 C1344 C 0.72211 0.78957 1.03851
 C1345 C 0.73866 0.79792 1.04671
 C1346 C 0.75642 0.79636 1.03662
 C1347 C 0.75757 0.78691 1.01859
 C1348 C 0.72307 0.77311 0.95832
 C1349 C 0.71646 0.78412 0.94234
 C1350 C 0.71885 0.80403 0.94224
 C1351 C 0.72669 0.81279 0.95888
 C1352 C 0.73336 0.80189 0.97465
 C1353 C 0.76974 0.76613 0.95462
 C1354 C 0.77899 0.76194 0.93684
 C1355 C 0.78060 0.74300 0.93022
 C1356 C 0.77168 0.72845 0.94125
 C1357 C 0.76224 0.73270 0.95905
 C1358 C 0.78507 0.74608 1.00289
 C1359 C 0.79510 0.73948 1.01935
 C1360 C 0.78507 0.73207 1.03567
 C1361 C 0.76482 0.73040 1.03480
 C1362 C 0.75471 0.73720 1.01833
 H1363 H 0.71027 0.77435 1.01402
 H1364 H 0.70815 0.79073 1.04580
 H1365 H 0.76945 0.80247 1.04260
 H1366 H 0.77131 0.78633 1.01080
 H1367 H 0.72166 0.75773 0.95787
 H1368 H 0.71034 0.77700 0.92974
 H1369 H 0.74018 0.80917 0.98675
 H1370 H 0.76981 0.78070 0.95990
 H1371 H 0.78534 0.77358 0.92859
 H1372 H 0.77276 0.71370 0.93665
 H1373 H 0.75617 0.72120 0.96776
 H1374 H 0.79314 0.75250 0.99088
 H1375 H 0.81073 0.74066 1.01950
 H1376 H 0.75674 0.72479 1.04723
 H1377 H 0.73904 0.73661 1.01824
 H1378 H 0.72819 0.82814 0.95955
 C1379 C 0.73250 0.23007 0.49110
 C1380 C 0.72197 0.24606 0.49583
 C1381 C 0.71958 0.25220 0.51668
 C1382 C 0.71561 0.26013 0.48056
 C1383 C 0.73994 0.22680 0.47081
 C1384 C 0.73951 0.21674 0.50666
 C1385 C 0.70128 0.25767 0.52401
 C1386 C 0.69950 0.26622 0.54256
 C1387 C 0.71605 0.26956 0.55396
 C1388 C 0.73419 0.26324 0.54692
 C1389 C 0.73598 0.25497 0.52838
 C1390 C 0.70553 0.25458 0.46363
 C1391 C 0.70149 0.26789 0.44866
 C1392 C 0.70737 0.28697 0.45048
 C1393 C 0.71650 0.29261 0.46790
 C1394 C 0.72061 0.27938 0.48269
 C1395 C 0.75101 0.24082 0.46130
 C1396 C 0.75802 0.23786 0.44225
 C1397 C 0.75454 0.22062 0.43246
 C1398 C 0.74402 0.20630 0.44221
 C1399 C 0.73675 0.20938 0.46127
 C1400 C 0.75951 0.21399 0.50934
 C1401 C 0.76640 0.20383 0.52566
 C1402 C 0.75340 0.19588 0.53934
 C1403 C 0.73338 0.19784 0.53610
 C1404 C 0.72649 0.20824 0.51992
 H1405 H 0.68850 0.25596 0.51505
 H1406 H 0.68533 0.27104 0.54748
 H1407 H 0.74721 0.26524 0.55541
 H1408 H 0.75032 0.25149 0.52283
 H1409 H 0.70126 0.23986 0.46178
 H1410 H 0.69434 0.26310 0.43546
 H1411 H 0.72831 0.28412 0.49559
 H1412 H 0.75430 0.25405 0.46869
 H1413 H 0.76662 0.24894 0.43544
 H1414 H 0.74129 0.19282 0.43506
 H1415 H 0.72854 0.19827 0.46853
 H1416 H 0.76980 0.22050 0.49932
 H1417 H 0.78189 0.20235 0.52768
 H1418 H 0.72300 0.19198 0.54644
 H1419 H 0.71101 0.21021 0.51809
 H1420 H 0.72073 0.30726 0.47014
 C1421 C 0.73363 0.24764 0.00445
 C1422 C 0.75007 0.25820 0.00417
 C1423 C 0.76178 0.26043 -0.01419
 C1424 C 0.75577 0.26975 0.02147
 C1425 C 0.72251 0.24405 0.02292
 C1426 C 0.72450 0.24138 -0.01408
 C1427 C 0.76845 0.24442 -0.02476
 C1428 C 0.77923 0.24670 -0.04215
 C1429 C 0.78356 0.26506 -0.04928
 C1430 C 0.77704 0.28104 -0.03852
 C1431 C 0.76635 0.27874 -0.02114
 C1432 C 0.77460 0.26840 0.02904
 C1433 C 0.78023 0.28014 0.04459
 C1434 C 0.76719 0.29367 0.05261
 C1435 C 0.74836 0.29498 0.04491
 C1436 C 0.74275 0.28322 0.02947
 C1437 C 0.70276 0.24901 0.02400
 C1438 C 0.69205 0.24546 0.04113
 C1439 C 0.70080 0.23665 0.05750
 C1440 C 0.72055 0.23154 0.05635
 C1441 C 0.73133 0.23529 0.03924
 C1442 C 0.71640 0.25507 -0.02678
 C1443 C 0.70547 0.24940 -0.04288
 C1444 C 0.70276 0.22995 -0.04677
 C1445 C 0.71154 0.21621 -0.03451
 C1446 C 0.72208 0.22190 -0.01803
 H1447 H 0.76529 0.23015 -0.01954
 H1448 H 0.78387 0.23410 -0.05013
 H1449 H 0.78031 0.29538 -0.04341
 H1450 H 0.76143 0.29131 -0.01323
 H1451 H 0.78496 0.25833 0.02282
 H1452 H 0.79490 0.27892 0.05001
 H1453 H 0.72832 0.28486 0.02350
 H1454 H 0.69563 0.25576 0.01159
 H1455 H 0.67683 0.24931 0.04137
 H1456 H 0.72773 0.22479 0.06872
 H1457 H 0.74651 0.23119 0.03863
 H1458 H 0.71794 0.27015 -0.02377
 H1459 H 0.69899 0.26025 -0.05223
 H1460 H 0.70961 0.20113 -0.03722
 H1461 H 0.72814 0.21120 -0.00821
 H1462 H 0.73786 0.30506 0.05077
 C1463 C 0.73781 0.74958 0.50283
 C1464 C 0.75645 0.75541 0.50128
 C1465 C 0.76607 0.75746 0.48184
 C1466 C 0.76824 0.76026 0.51864
 C1467 C 0.72821 0.74601 0.52208
 C1468 C 0.72624 0.74599 0.48499
 C1469 C 0.77007 0.74141 0.47012
 C1470 C 0.77969 0.74349 0.45205
 C1471 C 0.78530 0.76166 0.44541
 C1472 C 0.78112 0.77768 0.45716
 C1473 C 0.77174 0.77556 0.47530
 C1474 C 0.78586 0.75064 0.52166
 C1475 C 0.79811 0.75608 0.53682
 C1476 C 0.79318 0.77154 0.54912
 C1477 C 0.77524 0.78091 0.54630
 C1478 C 0.76286 0.77530 0.53119
 C1479 C 0.71012 0.75451 0.52611
 C1480 C 0.70025 0.75036 0.54360
 C1481 C 0.70820 0.73746 0.55734
 C1482 C 0.72638 0.72901 0.55331
 C1483 C 0.73628 0.73323 0.53581
 C1484 C 0.72096 0.76107 0.47241
 C1485 C 0.71058 0.75748 0.45525
 C1486 C 0.70552 0.73871 0.45037
 C1487 C 0.71065 0.72368 0.46316
 C1488 C 0.72078 0.72733 0.48044
 H1489 H 0.76589 0.72731 0.47507
 H1490 H 0.78258 0.73092 0.44322
 H1491 H 0.78544 0.79182 0.45254
 H1492 H 0.76884 0.78805 0.48426
 H1493 H 0.79021 0.73896 0.51212
 H1494 H 0.81147 0.74811 0.53864
 H1495 H 0.74938 0.78304 0.52889
 H1496 H 0.70355 0.76426 0.51560
 H1497 H 0.68616 0.75688 0.54602
 H1498 H 0.73293 0.71908 0.56361
 H1499 H 0.75004 0.72622 0.53281
 H1500 H 0.72502 0.77558 0.47583
 H1501 H 0.70694 0.76931 0.44561
 H1502 H 0.70673 0.70912 0.45987
 H1503 H 0.72471 0.71556 0.49008
 H1504 H 0.77090 0.79288 0.55540
 C1505 C 1.00344 0.26026 0.24972
 C1506 C 1.00548 0.24656 0.26383
 C1507 C 1.02501 0.23947 0.26980
 C1508 C 0.98830 0.23939 0.27467
 C1509 C 0.98491 0.26288 0.23889
 C1510 C 1.01956 0.27347 0.24510
 C1511 C 1.03873 0.23436 0.25535
 C1512 C 1.05710 0.22775 0.26066
 C1513 C 1.06219 0.22590 0.28059
 C1514 C 1.04835 0.23074 0.29511
 C1515 C 1.02991 0.23744 0.28976
 C1516 C 0.98489 0.21974 0.27661
 C1517 C 0.96919 0.21328 0.28791
 C1518 C 0.95712 0.22641 0.29783
 C1519 C 0.96047 0.24603 0.29567
 C1520 C 0.97585 0.25246 0.28412
 C1521 C 0.97723 0.28124 0.23558
 C1522 C 0.96054 0.28377 0.22428
 C1523 C 0.95128 0.26800 0.21590
 C1524 C 0.95886 0.24961 0.21943
 C1525 C 0.97551 0.24708 0.23079
 C1526 C 1.02841 0.28364 0.26031
 C1527 C 1.04334 0.29635 0.25613
 C1528 C 1.04974 0.29908 0.23666
 C1529 C 1.04077 0.28897 0.22142
 C1530 C 1.02568 0.27640 0.22560
 H1531 H 1.03513 0.23534 0.23987
 H1532 H 1.06708 0.22369 0.24903
 H1533 H 1.05179 0.22949 0.31059
 H1534 H 1.01955 0.24123 0.30119
 H1535 H 0.99443 0.20947 0.26947
 H1536 H 0.96688 0.19808 0.28944
 H1537 H 0.97835 0.26768 0.28294
 H1538 H 0.98425 0.29364 0.24163
 H1539 H 0.95520 0.29816 0.22178
 H1540 H 0.95196 0.23712 0.21346
 H1541 H 0.98129 0.23278 0.23292
 H1542 H 1.02368 0.28177 0.27544
 H1543 H 1.05007 0.30375 0.26821
 H1544 H 1.04528 0.29092 0.20625
 H1545 H 1.01890 0.26880 0.21366
 H1546 H 0.95122 0.25644 0.30297
 C1547 C 0.50166 0.25279 0.73454
 C1548 C 0.50237 0.23878 0.74848
 C1549 C 0.52089 0.22848 0.75292
 C1550 C 0.48487 0.23444 0.76053
 C1551 C 0.48314 0.25805 0.72467
 C1552 C 0.51908 0.26428 0.72992
 C1553 C 0.53281 0.22197 0.73744
 C1554 C 0.54991 0.21184 0.74130
 C1555 C 0.55550 0.20781 0.76076
 C1556 C 0.54362 0.21438 0.77630
 C1557 C 0.52643 0.22453 0.77242
 C1558 C 0.47900 0.21557 0.76384
 C1559 C 0.46294 0.21181 0.77594
 C1560 C 0.45276 0.22686 0.78518
 C1561 C 0.45873 0.24570 0.78182
 C1562 C 0.47460 0.24944 0.76965
 C1563 C 0.47729 0.27725 0.72271
 C1564 C 0.46040 0.28208 0.71241
 C1565 C 0.44929 0.26781 0.70356
 C1566 C 0.45505 0.24861 0.70577
 C1567 C 0.47174 0.24379 0.71627
 C1568 C 0.52928 0.27276 0.74533
 C1569 C 0.54447 0.28514 0.74132
 C1570 C 0.54989 0.28923 0.72180
 C1571 C 0.54011 0.28032 0.70632
 C1572 C 0.52463 0.26810 0.71036
 H1573 H 0.52876 0.22457 0.72227
 H1574 H 0.55877 0.20731 0.72893
 H1575 H 0.54742 0.21144 0.79146
 H1576 H 0.51749 0.22934 0.78463
 H1577 H 0.48684 0.20380 0.75708
 H1578 H 0.45876 0.19714 0.77838
 H1579 H 0.47908 0.26409 0.76758
 H1580 H 0.48584 0.28850 0.72907
 H1581 H 0.45638 0.29699 0.71087
 H1582 H 0.44667 0.23728 0.69935
 H1583 H 0.47604 0.22890 0.71746
 H1584 H 0.52507 0.27023 0.76052
 H1585 H 0.55191 0.29161 0.75354
 H1586 H 0.54397 0.28333 0.69114
 H1587 H 0.51683 0.26179 0.69827
 H1588 H 0.45110 0.25764 0.78848
 C1589 C -0.00747 0.26711 0.72198
 C1590 C -0.00997 0.28149 0.73527
 C1591 C -0.02944 0.28981 0.73949
 C1592 C 0.00614 0.28829 0.74792
 C1593 C 0.01076 0.25560 0.72130
 C1594 C -0.02347 0.26105 0.70890
 C1595 C -0.03250 0.30952 0.73744
 C1596 C -0.05003 0.31785 0.74343
 C1597 C -0.06472 0.30669 0.75194
 C1598 C -0.06163 0.28692 0.75402
 C1599 C -0.04415 0.27852 0.74773
 C1600 C 0.02437 0.29307 0.74001
 C1601 C 0.03953 0.29834 0.75243
 C1602 C 0.03664 0.29915 0.77295
 C1603 C 0.01808 0.29543 0.78061
 C1604 C 0.00309 0.28999 0.76829
 C1605 C 0.01725 0.24603 0.73821
 C1606 C 0.03430 0.23516 0.73773
 C1607 C 0.04531 0.23348 0.72025
 C1608 C 0.03858 0.24290 0.70320
 C1609 C 0.02139 0.25376 0.70370
 C1610 C -0.02906 0.24185 0.70859
 C1611 C -0.04445 0.23607 0.69683
 C1612 C -0.05451 0.24934 0.68498
 C1613 C -0.04861 0.26851 0.68502
 C1614 C -0.03324 0.27429 0.69683
 H1615 H -0.02117 0.31848 0.73148
 H1616 H -0.05180 0.33317 0.74196
 H1617 H -0.07269 0.27798 0.76052
 H1618 H -0.04184 0.26332 0.74983
 H1619 H 0.02695 0.29239 0.72428
 H1620 H 0.05360 0.30120 0.74601
 H1621 H -0.01085 0.28666 0.77480
 H1622 H 0.00900 0.24691 0.75183
 H1623 H 0.03852 0.22792 0.75112
 H1624 H 0.04656 0.24198 0.68946
 H1625 H 0.01650 0.26092 0.69043
 H1626 H -0.02171 0.23136 0.71772
 H1627 H -0.04838 0.22116 0.69701
 H1628 H -0.05605 0.27918 0.67622
 H1629 H -0.02900 0.28914 0.69664
 H1630 H 0.01507 0.29645 0.79622
 C1631 C 0.49262 0.23102 0.25751
 C1632 C 0.49586 0.24724 0.26808
 C1633 C 0.47967 0.26036 0.27418
 C1634 C 0.51594 0.25429 0.27105
 C1635 C 0.50883 0.21751 0.25264
 C1636 C 0.47379 0.22783 0.24756
 C1637 C 0.48095 0.27999 0.27014
 C1638 C 0.46572 0.29242 0.27495
 C1639 C 0.44877 0.28560 0.28402
 C1640 C 0.44763 0.26603 0.28860
 C1641 C 0.46294 0.25352 0.28371
 C1642 C 0.52845 0.25639 0.25479
 C1643 C 0.54635 0.26512 0.25685
 C1644 C 0.55198 0.27251 0.27510
 C1645 C 0.53976 0.26996 0.29155
 C1646 C 0.52184 0.26098 0.28951
 C1647 C 0.52096 0.21023 0.26746
 C1648 C 0.53727 0.19912 0.26259
 C1649 C 0.54183 0.19518 0.24280
 C1650 C 0.52944 0.20205 0.22802
 C1651 C 0.51299 0.21294 0.23290
 C1652 C 0.46472 0.20999 0.24854
 C1653 C 0.44801 0.20656 0.23752
 C1654 C 0.44031 0.22085 0.22515
 C1655 C 0.44925 0.23878 0.22453
 C1656 C 0.46587 0.24216 0.23543
 H1657 H 0.49365 0.28571 0.26285
 H1658 H 0.46733 0.30743 0.27155
 H1659 H 0.43474 0.26032 0.29553
 H1660 H 0.46166 0.23847 0.28719
 H1661 H 0.52408 0.25190 0.24026
 H1662 H 0.55554 0.26651 0.24396
 H1663 H 0.51229 0.25977 0.30218
 H1664 H 0.51806 0.21355 0.28277
 H1665 H 0.54667 0.19418 0.27428
 H1666 H 0.53250 0.19903 0.21268
 H1667 H 0.50389 0.21844 0.22121
 H1668 H 0.47077 0.19865 0.25756
 H1669 H 0.44155 0.19256 0.23817
 H1670 H 0.44359 0.25024 0.21543
 H1671 H 0.47287 0.25586 0.23396
 H1672 H 0.54360 0.27566 0.30577
 C1673 C 1.00354 0.76969 0.75095
 C1674 C 1.00835 0.75258 0.75932
 C1675 C 1.02877 0.74608 0.76134
 C1676 C 0.99336 0.73856 0.76511
 C1677 C 0.98326 0.77448 0.74538
 C1678 C 1.01857 0.78378 0.74593
 C1679 C 1.04075 0.74392 0.74467
 C1680 C 1.05892 0.73504 0.74629
 C1681 C 1.06538 0.72810 0.76459
 C1682 C 1.05356 0.73088 0.78133
 C1683 C 1.03540 0.73967 0.77969
 C1684 C 0.99404 0.72012 0.75713
 C1685 C 0.97893 0.70746 0.76058
 C1686 C 0.96288 0.71298 0.77213
 C1687 C 0.96279 0.73107 0.78107
 C1688 C 0.97796 0.74372 0.77766
 C1689 C 0.97439 0.79149 0.75193
 C1690 C 0.95483 0.79525 0.74787
 C1691 C 0.94392 0.78193 0.73741
 C1692 C 0.95307 0.76538 0.73015
 C1693 C 0.97262 0.76186 0.73380
 C1694 C 1.03016 0.79165 0.76064
 C1695 C 1.04516 0.80401 0.75558
 C1696 C 1.04892 0.80839 0.73572
 C1697 C 1.03701 0.80081 0.72108
 C1698 C 1.02179 0.78877 0.72618
 H1699 H 1.03569 0.74840 0.73029
 H1700 H 1.06772 0.73333 0.73314
 H1701 H 1.05791 0.72556 0.79564
 H1702 H 1.02624 0.74098 0.79265
 H1703 H 1.00592 0.71578 0.74757
 H1704 H 0.97975 0.69348 0.75389
 H1705 H 0.97737 0.75778 0.78424
 H1706 H 0.98245 0.80156 0.76062
 H1707 H 0.94809 0.80823 0.75338
 H1708 H 0.94514 0.75518 0.72149
 H1709 H 0.97936 0.74902 0.72795
 H1710 H 1.02775 0.78797 0.77598
 H1711 H 1.05423 0.80959 0.76711
 H1712 H 1.03951 0.80415 0.70568
 H1713 H 1.01292 0.78282 0.71468
 H1714 H 0.95070 0.73581 0.79009
 C1715 C 0.50794 0.74613 0.22774
 C1716 C 0.50522 0.73256 0.24192
 C1717 C 0.52176 0.72155 0.25028
 C1718 C 0.48572 0.72548 0.24728
 C1719 C 0.49144 0.75495 0.21694
 C1720 C 0.52761 0.75059 0.22020
 C1721 C 0.52255 0.70172 0.24750
 C1722 C 0.53870 0.69114 0.25344
 C1723 C 0.55438 0.70015 0.26241
 C1724 C 0.55332 0.71993 0.26586
 C1725 C 0.53711 0.73057 0.25983
 C1726 C 0.47428 0.71646 0.23318
 C1727 C 0.45733 0.70718 0.23887
 C1728 C 0.45163 0.70662 0.25877
 C1729 C 0.46271 0.71633 0.27275
 C1730 C 0.47972 0.72554 0.26705
 C1731 C 0.47573 0.76358 0.22685
 C1732 C 0.45951 0.76997 0.21634
 C1733 C 0.45882 0.76796 0.19573
 C1734 C 0.47500 0.76021 0.18583
 C1735 C 0.49110 0.75377 0.19631
 C1736 C 0.53454 0.76930 0.22109
 C1737 C 0.55282 0.77367 0.21338
 C1738 C 0.56436 0.75939 0.20446
 C1739 C 0.55730 0.74065 0.20369
 C1740 C 0.53904 0.73635 0.21127
 H1741 H 0.51090 0.69447 0.24013
 H1742 H 0.53886 0.67589 0.25093
 H1743 H 0.56522 0.72728 0.27270
 H1744 H 0.53672 0.74586 0.26216
 H1745 H 0.47889 0.71593 0.21790
 H1746 H 0.44897 0.70006 0.22771
 H1747 H 0.48856 0.73220 0.27815
 H1748 H 0.47583 0.76492 0.24273
 H1749 H 0.44735 0.77595 0.22444
 H1750 H 0.47528 0.75891 0.16997
 H1751 H 0.50308 0.74728 0.18831
 H1752 H 0.52576 0.78051 0.22771
 H1753 H 0.55769 0.78828 0.21404
 H1754 H 0.56580 0.72919 0.19724
 H1755 H 0.53375 0.72190 0.21006
 H1756 H 0.45879 0.71602 0.28821
 C1757 C -0.00541 0.73596 0.24302
 C1758 C -0.00261 0.75233 0.25334
 C1759 C -0.01910 0.76519 0.25874
 C1760 C 0.01712 0.75939 0.25745
 C1761 C 0.01083 0.72250 0.23904
 C1762 C -0.02446 0.73187 0.23407
 C1763 C -0.01898 0.78441 0.25282
 C1764 C -0.03500 0.79626 0.25647
 C1765 C -0.05147 0.78915 0.26623
 C1766 C -0.05131 0.77003 0.27269
 C1767 C -0.03526 0.75819 0.26904
 C1768 C 0.02974 0.76371 0.24180
 C1769 C 0.04726 0.77282 0.24534
 C1770 C 0.05249 0.77773 0.26460
 C1771 C 0.04012 0.77282 0.28033
 C1772 C 0.02246 0.76391 0.27674
 C1773 C 0.02055 0.71344 0.25463
 C1774 C 0.03649 0.70146 0.25087
 C1775 C 0.04314 0.69869 0.23148
 C1776 C 0.03329 0.70769 0.21589
 C1777 C 0.01709 0.71930 0.21963
 C1778 C -0.03468 0.71530 0.23910
 C1779 C -0.05373 0.71289 0.23255
 C1780 C -0.06270 0.72709 0.22097
 C1781 C -0.05195 0.74303 0.21500
 C1782 C -0.03298 0.74531 0.22133
 H1783 H -0.00665 0.79014 0.24490
 H1784 H -0.03440 0.81097 0.25164
 H1785 H -0.06372 0.76404 0.28021
 H1786 H -0.03556 0.74345 0.27394
 H1787 H 0.02568 0.76070 0.22676
 H1788 H 0.05658 0.77623 0.23295
 H1789 H 0.01276 0.76090 0.28896
 H1790 H 0.01588 0.71579 0.26970
 H1791 H 0.04393 0.69482 0.26315
 H1792 H 0.03806 0.70566 0.20081
 H1793 H 0.00977 0.72625 0.20744
 H1794 H -0.02824 0.70470 0.24878
 H1795 H -0.06169 0.70042 0.23723
 H1796 H -0.05827 0.75393 0.20560
 H1797 H -0.02513 0.75795 0.21688
 H1798 H 0.04369 0.77656 0.29532
 C1799 C 0.50400 0.72565 0.75995
 C1800 C 0.50231 0.74423 0.76553
 C1801 C 0.48312 0.75391 0.76543
 C1802 C 0.51950 0.75619 0.76923
 C1803 C 0.52301 0.71627 0.75632
 C1804 C 0.48666 0.71438 0.75507
 C1805 C 0.47311 0.75635 0.74768
 C1806 C 0.45440 0.76409 0.74766
 C1807 C 0.44544 0.76975 0.76540
 C1808 C 0.45577 0.76771 0.78310
 C1809 C 0.47450 0.75990 0.78310
 C1810 C 0.52239 0.77252 0.75763
 C1811 C 0.53955 0.78270 0.75898
 C1812 C 0.55409 0.77693 0.77216
 C1813 C 0.55078 0.76125 0.78467
 C1814 C 0.53361 0.75086 0.78314
 C1815 C 0.52741 0.69889 0.76563
 C1816 C 0.54475 0.68925 0.76138
 C1817 C 0.55796 0.69679 0.74761
 C1818 C 0.55348 0.71429 0.73834
 C1819 C 0.53611 0.72386 0.74255
 C1820 C 0.47294 0.70974 0.76960
 C1821 C 0.45621 0.69986 0.76457
 C1822 C 0.45286 0.69474 0.74490
 C1823 C 0.46662 0.69946 0.73040
 C1824 C 0.48350 0.70901 0.73549
 H1825 H 0.47968 0.75187 0.73388
 H1826 H 0.44691 0.76519 0.73376
 H1827 H 0.44942 0.77214 0.79699
 H1828 H 0.48210 0.75813 0.79690
 H1829 H 0.51170 0.77694 0.74688
 H1830 H 0.54150 0.79501 0.74950
 H1831 H 0.53154 0.73839 0.79238
 H1832 H 0.51731 0.69268 0.77606
 H1833 H 0.54744 0.67566 0.76853
 H1834 H 0.56328 0.72057 0.72770
 H1835 H 0.53273 0.73702 0.73481
 H1836 H 0.47515 0.71389 0.78477
 H1837 H 0.44574 0.69654 0.77600
 H1838 H 0.46447 0.69553 0.71517
 H1839 H 0.49392 0.71262 0.72410
 H1840 H 0.56175 0.75661 0.79503
 N1841 N 0.42927 0.31534 0.27792
 N1842 N 0.41359 0.32394 0.28494
 C1843 C 0.40618 0.31331 0.29970
 C1844 C 0.41769 0.29705 0.30212
 C1845 C 0.43230 0.29894 0.28799
 H1846 H 0.41585 0.28568 0.31279
 H1847 H 0.43748 0.32064 0.26618
 H1848 H 0.40818 0.33694 0.27961
 N1849 N 0.41634 0.78466 0.74939
 N1850 N 0.39772 0.79034 0.75510
 C1851 C 0.39574 0.78650 0.77448
 C1852 C 0.41281 0.77845 0.78151
 C1853 C 0.42536 0.77749 0.76540
 H1854 H 0.41568 0.77387 0.79645
 H1855 H 0.42201 0.78636 0.73521
 H1856 H 0.38766 0.79690 0.74577
 N1857 N -0.09024 0.33218 0.75093
 N1858 N -0.10582 0.33735 0.76104
 C1859 C -0.10888 0.32454 0.77557
 C1860 C -0.09466 0.31038 0.77453
 C1861 C -0.08299 0.31590 0.75872
 H1862 H -0.09260 0.29834 0.78437
 H1863 H -0.08475 0.33981 0.73892
 H1864 H -0.11399 0.34965 0.75805
 N1865 N -0.07261 0.81790 0.25957
 N1866 N -0.08904 0.82535 0.26629
 C1867 C -0.09599 0.81394 0.28064
 C1868 C -0.08349 0.79855 0.28316
 C1869 C -0.06874 0.80158 0.26954
 H1870 H -0.08482 0.78701 0.29370
 H1871 H -0.06446 0.82392 0.24816
 H1872 H -0.09528 0.83803 0.26107
 N1873 N 0.57719 0.67229 0.25914
 N1874 N 0.59322 0.66589 0.26751
 C1875 C 0.59836 0.67822 0.28164
 C1876 C 0.58510 0.69319 0.28227
 C1877 C 0.57182 0.68886 0.26778
 H1878 H 0.58497 0.70531 0.29211
 H1879 H 0.57032 0.66542 0.24754
 H1880 H 0.60040 0.65327 0.26353
 N1881 N 0.58245 0.18516 0.75138
 N1882 N 0.59821 0.17768 0.75938
 C1883 C 0.59974 0.18417 0.77793
 C1884 C 0.58418 0.19629 0.78197
 C1885 C 0.57354 0.19664 0.76465
 H1886 H 0.58131 0.20406 0.79543
 H1887 H 0.57792 0.18214 0.73711
 H1888 H 0.60769 0.16830 0.75214
 N1889 N 1.09255 0.70754 0.75132
 N1890 N 1.10752 0.69781 0.75842
 C1891 C 1.10865 0.70114 0.77788
 C1892 C 1.09388 0.71353 0.78340
 C1893 C 1.08383 0.71718 0.76618
 H1894 H 1.09061 0.71866 0.79806
 H1895 H 1.08807 0.70688 0.73669
 H1896 H 1.11648 0.68878 0.75009
 N1897 N 1.09699 0.21752 0.27363
 N1898 N 1.11117 0.20791 0.28223
 C1899 C 1.10535 0.20276 0.30041
 C1900 C 1.08656 0.20923 0.30356
 C1901 C 1.08164 0.21840 0.28605
 H1902 H 1.07730 0.20617 0.31609
 H1903 H 1.09787 0.22291 0.25929
 H1904 H 1.12437 0.20439 0.27547
 N1905 N 0.56857 0.31844 0.72963
 N1906 N 0.58345 0.32795 0.72246
 C1907 C 0.58990 0.31915 0.70603
 C1908 C 0.57846 0.30339 0.70244
 C1909 C 0.56515 0.30340 0.71789
 H1910 H 0.58002 0.29305 0.69072
 H1911 H 0.56093 0.32233 0.74235
 H1912 H 0.58920 0.34007 0.72902
 N1913 N 0.59229 0.75311 0.18163
 N1914 N 0.60833 0.76162 0.17590
 C1915 C 0.60999 0.77813 0.18580
 C1916 C 0.59431 0.78024 0.19847
 C1917 C 0.58332 0.76401 0.19535
 H1918 H 0.59124 0.79205 0.20827
 H1919 H 0.58748 0.74033 0.17564
 H1920 H 0.61777 0.75620 0.16516
 N1921 N 1.07115 0.32701 0.24355
 N1922 N 1.08669 0.33497 0.23568
 C1923 C 1.09175 0.32519 0.21938
 C1924 C 1.07884 0.31050 0.21665
 C1925 C 1.06599 0.31207 0.23232
 H1926 H 1.07911 0.29980 0.20520
 H1927 H 1.06426 0.33186 0.25636
 H1928 H 1.09377 0.34671 0.24160
 N1929 N 1.07290 0.83439 0.74110
 N1930 N 1.08828 0.84132 0.73196
 C1931 C 1.09120 0.83147 0.71518
 C1932 C 1.07700 0.81784 0.71342
 C1933 C 1.06568 0.82015 0.73016
 H1934 H 1.07546 0.80738 0.70187
 H1935 H 1.06753 0.83939 0.75457
 H1936 H 1.09678 0.85233 0.73738
 N1937 N 0.42643 0.67145 0.75147
 N1938 N 0.41164 0.66414 0.74199
 C1939 C 0.41061 0.67222 0.72398
 C1940 C 0.42548 0.68518 0.72180
 C1941 C 0.43524 0.68421 0.73960
 H1942 H 0.42877 0.69396 0.70908
 H1943 H 0.43057 0.66742 0.76567
 H1944 H 0.40240 0.65384 0.74789
 N1945 N 0.42025 0.22684 0.19525
 N1946 N 0.40455 0.22009 0.18695
 C1947 C 0.39754 0.20582 0.19819
 C1948 C 0.40944 0.20328 0.21443
 C1949 C 0.42369 0.21706 0.21204
 H1950 H 0.40775 0.19315 0.22639
 H1951 H 0.42854 0.23778 0.18914
 H1952 H 0.39886 0.22531 0.17375
 N1953 N -0.09474 0.74165 0.21297
 N1954 N -0.11190 0.73617 0.20693
 C1955 C -0.11196 0.71698 0.20577
 C1956 C -0.09404 0.70983 0.21159
 C1957 C -0.08342 0.72608 0.21574
 H1958 H -0.08903 0.69513 0.21146
 H1959 H -0.09093 0.75590 0.21493
 H1960 H -0.12320 0.74555 0.20328
 N1961 N -0.07843 0.25294 0.65733
 N1962 N -0.09331 0.24351 0.65022
 C1963 C -0.09590 0.22759 0.66107
 C1964 C -0.08204 0.22682 0.67569
 C1965 C -0.07118 0.24320 0.67288
 H1966 H -0.08035 0.21599 0.68698
 H1967 H -0.07334 0.26572 0.65137
 H1968 H -0.10151 0.24801 0.63815
 N1969 N 0.26252 0.43228 0.32316
 N1970 N 0.27039 0.41766 0.33264
 C1971 C 0.28769 0.41346 0.32430
 C1972 C 0.29106 0.42609 0.30889
 C1973 C 0.27468 0.43782 0.30866
 H1974 H 0.30352 0.42653 0.29914
 H1975 H 0.24916 0.43847 0.32688
 H1976 H 0.26386 0.41067 0.34452
 N1977 N 0.30700 -0.08334 0.76281
 N1978 N 0.31121 -0.10240 0.76684
 C1979 C 0.30343 -0.10672 0.78458
 C1980 C 0.29388 -0.09065 0.79211
 C1981 C 0.29653 -0.07637 0.77798
 H1982 H 0.28608 -0.08948 0.80594
 H1983 H 0.31068 -0.07625 0.74976
 H1984 H 0.31924 -0.11128 0.75747
 N1985 N 0.75483 0.43371 0.83746
 N1986 N 0.76239 0.41623 0.84395
 C1987 C 0.77846 0.41244 0.83319
 C1988 C 0.78168 0.42731 0.82003
 C1989 C 0.76662 0.44027 0.82310
 H1990 H 0.79313 0.42830 0.80911
 H1991 H 0.74221 0.44019 0.84291
 H1992 H 0.75604 0.40763 0.85475
 N1993 N 0.76029 -0.07306 0.32157
 N1994 N 0.76716 -0.09057 0.32863
 C1995 C 0.78242 -0.09583 0.31732
 C1996 C 0.78546 -0.08211 0.30280
 C1997 C 0.77136 -0.06811 0.30599
 H1998 H 0.79665 -0.08212 0.29155
 H1999 H 0.74838 -0.06560 0.32735
 H2000 H 0.76140 -0.09781 0.34078
 N2001 N 0.26911 0.59159 0.73325
 N2002 N 0.27688 0.60635 0.72413
 C2003 C 0.28309 0.60081 0.70618
 C2004 C 0.27916 0.58163 0.70375
 C2005 C 0.27043 0.57626 0.72136
 H2006 H 0.28413 0.57241 0.69195
 H2007 H 0.26388 0.59189 0.74772
 H2008 H 0.27910 0.61963 0.73064
 N2009 N 0.27598 1.06454 0.19965
 N2010 N 0.28051 1.08158 0.19289
 C2011 C 0.29193 1.09027 0.20602
 C2012 C 0.29501 1.07807 0.22193
 C2013 C 0.28427 1.06193 0.21739
 H2014 H 0.30278 1.08101 0.23534
 H2015 H 0.26723 1.05499 0.19212
 H2016 H 0.27559 1.08719 0.17953
 N2017 N 0.77232 0.57259 0.18116
 N2018 N 0.77841 0.58764 0.17126
 C2019 C 0.79406 0.59471 0.18033
 C2020 C 0.79825 0.58348 0.19671
 C2021 C 0.78398 0.56964 0.19674
 H2022 H 0.80961 0.58546 0.20740
 H2023 H 0.76039 0.56447 0.17715
 H2024 H 0.77169 0.59305 0.15865
 N2025 N 0.83700 1.07983 0.73097
 N2026 N 0.84322 1.09557 0.72224
 C2027 C 0.82989 1.10135 0.70904
 C2028 C 0.81452 1.08889 0.70946
 C2029 C 0.81954 1.07540 0.72354
 H2030 H 0.80171 1.08930 0.70037
 H2031 H 0.84463 1.07242 0.74188
 H2032 H 0.85646 1.10202 0.72518
 N2033 N 0.74813 0.57656 0.32375
 N2034 N 0.73946 0.59158 0.33177
 C2035 C 0.72265 0.59489 0.32236
 C2036 C 0.72042 0.58134 0.30779
 C2037 C 0.73695 0.56998 0.30909
 H2038 H 0.70866 0.58018 0.29742
 H2039 H 0.76139 0.57092 0.32846
 H2040 H 0.74516 0.59946 0.34335
 N2041 N 0.74964 1.07994 0.81886
 N2042 N 0.74074 1.09629 0.82652
 C2043 C 0.72605 1.10122 0.81449
 C2044 C 0.72521 1.08827 0.79907
 C2045 C 0.74018 1.07514 0.80232
 H2046 H 0.71503 1.08843 0.78702
 H2047 H 0.76115 1.07265 0.82549
 H2048 H 0.74501 1.10314 0.83938
 N2049 N 0.22960 0.56513 0.82502
 N2050 N 0.22428 0.58211 0.83163
 C2051 C 0.21100 0.58967 0.81937
 C2052 C 0.20770 0.57691 0.80420
 C2053 C 0.21978 0.56140 0.80836
 H2054 H 0.19790 0.57870 0.79194
 H2055 H 0.24016 0.55658 0.83173
 H2056 H 0.22984 0.58837 0.84430
 N2057 N 0.18177 1.04993 0.27752
 N2058 N 0.17255 1.06535 0.28396
 C2059 C 0.18332 1.07352 0.29798
 C2060 C 0.20013 1.06289 0.30059
 C2061 C 0.19864 1.04799 0.28733
 H2062 H 0.21172 1.06562 0.31081
 H2063 H 0.17661 1.04120 0.26635
 H2064 H 0.15916 1.07015 0.27870
 N2065 N 0.74445 0.41995 0.70705
 N2066 N 0.73684 0.40596 0.69682
 C2067 C 0.71803 0.40438 0.70188
 C2068 C 0.71339 0.41797 0.71593
 C2069 C 0.73057 0.42769 0.71873
 H2070 H 0.69934 0.42085 0.72252
 H2071 H 0.75869 0.42457 0.70530
 H2072 H 0.74440 0.39787 0.68634
 N2073 N 0.68270 -0.07175 0.24231
 N2074 N 0.67623 -0.08783 0.23479
 C2075 C 0.68708 -0.09237 0.21889
 C2076 C 0.70103 -0.07854 0.21612
 C2077 C 0.69783 -0.06566 0.23133
 H2078 H 0.71215 -0.07815 0.20481
 H2079 H 0.67659 -0.06508 0.25463
 H2080 H 0.66458 -0.09550 0.24055
 N2081 N 0.24942 0.41836 0.19285
 N2082 N 0.24140 0.40294 0.18547
 C2083 C 0.22285 0.40217 0.19167
 C2084 C 0.21883 0.41781 0.20348
 C2085 C 0.23609 0.42780 0.20385
 H2086 H 0.20524 0.42143 0.21066
 H2087 H 0.26365 0.42245 0.18991
 H2088 H 0.24859 0.39322 0.17627
 N2089 N 0.24614 -0.07808 0.68730
 N2090 N 0.23825 -0.09273 0.67830
 C2091 C 0.22035 -0.09532 0.68574
 C2092 C 0.21667 -0.08183 0.70011
 C2093 C 0.23339 -0.07106 0.70071
 H2094 H 0.20360 -0.08020 0.70885
 H2095 H 0.25990 -0.07296 0.68387
 H2096 H 0.24501 -0.10062 0.66713
 N2097 N 0.25827 0.27950 0.41255
 N2098 N 0.26750 0.28737 0.39756
 C2099 C 0.28662 0.28735 0.40135
 C2100 C 0.28976 0.27892 0.41961
 C2101 C 0.27129 0.27441 0.42635
 H2102 H 0.30311 0.27850 0.42788
 H2103 H 0.24320 0.27859 0.41368
 H2104 H 0.26065 0.29380 0.38552
 N2105 N 0.31504 0.77338 -0.06721
 N2106 N 0.32389 0.77942 -0.08332
 C2107 C 0.31327 0.79361 -0.09149
 C2108 C 0.29700 0.79700 -0.07976
 C2109 C 0.29862 0.78367 -0.06456
 H2110 H 0.28538 0.80721 -0.08224
 H2111 H 0.32031 0.76240 -0.05819
 H2112 H 0.33688 0.77362 -0.08868
 N2113 N 0.80694 0.25477 -0.07602
 N2114 N 0.81448 0.26212 -0.09234
 C2115 C 0.80702 0.27979 -0.09500
 C2116 C 0.79427 0.28387 -0.07973
 C2117 C 0.79462 0.26769 -0.06792
 H2118 H 0.78584 0.29682 -0.07759
 H2119 H 0.81051 0.24127 -0.07047
 H2120 H 0.82453 0.25509 -0.10140
 N2121 N 0.80763 0.75078 0.41827
 N2122 N 0.81532 0.75803 0.40201
 C2123 C 0.80829 0.77588 0.39947
 C2124 C 0.79568 0.78024 0.41475
 C2125 C 0.79571 0.76398 0.42645
 H2126 H 0.78777 0.79347 0.41712
 H2127 H 0.81096 0.73722 0.42384
 H2128 H 0.82525 0.75084 0.39295
 N2129 N 0.72985 0.29176 0.57861
 N2130 N 0.72370 0.30256 0.59327
 C2131 C 0.70479 0.29919 0.59650
 C2132 C 0.69854 0.28555 0.58333
 C2133 C 0.71495 0.28130 0.57204
 H2134 H 0.68396 0.28033 0.58157
 H2135 H 0.74383 0.29245 0.57269
 H2136 H 0.73231 0.31239 0.60059
 N2137 N 0.74915 0.82281 1.07082
 N2138 N 0.74323 0.82962 1.08801
 C2139 C 0.72759 0.81978 1.09394
 C2140 C 0.72333 0.80618 1.07996
 C2141 C 0.73729 0.80856 1.06547
 H2142 H 0.71159 0.79607 1.08024
 H2143 H 0.76083 0.82824 1.06279
 H2144 H 0.74975 0.84089 1.09538
 N2145 N 0.18177 0.25723 1.08212
 N2146 N 0.17485 0.26570 1.09804
 C2147 C 0.18528 0.28145 1.10146
 C2148 C 0.19949 0.28313 1.08708
 C2149 C 0.19675 0.26745 1.07501
 H2150 H 0.21012 0.29430 1.08553
 H2151 H 0.17584 0.24495 1.07605
 H2152 H 0.16305 0.26076 1.10624
 N2153 N 0.18479 0.75382 0.58266
 N2154 N 0.17706 0.76299 0.59780
 C2155 C 0.18671 0.77938 0.60039
 C2156 C 0.20137 0.78064 0.58642
 C2157 C 0.19956 0.76418 0.57533
 H2158 H 0.21130 0.79229 0.58408
 H2159 H 0.17992 0.74070 0.57752
 H2160 H 0.16529 0.75809 0.60606
 N2161 N 0.32020 0.73301 0.57973
 N2162 N 0.32805 0.72523 0.59557
 C2163 C 0.31881 0.70887 0.59980
 C2164 C 0.30432 0.70615 0.58607
 C2165 C 0.30575 0.72177 0.57346
 H2166 H 0.29455 0.69423 0.58511
 H2167 H 0.32472 0.74589 0.57353
 H2168 H 0.33961 0.73109 0.60324
 N2169 N 0.25405 0.18531 1.07998
 N2170 N 0.25851 0.18071 1.09826
 C2171 C 0.27373 0.19120 1.10386
 C2172 C 0.27914 0.20316 1.08849
 C2173 C 0.26628 0.19890 1.07356
 H2174 H 0.29086 0.21329 1.08813
 H2175 H 0.24258 0.17938 1.07224
 H2176 H 0.25131 0.17037 1.10658
 N2177 N 0.81120 0.73790 1.05989
 N2178 N 0.81649 0.73178 1.07746
 C2179 C 0.80464 0.71762 1.08313
 C2180 C 0.79105 0.71460 1.06854
 C2181 C 0.79572 0.72788 1.05403
 H2182 H 0.77925 0.70455 1.06869
 H2183 H 0.81776 0.74922 1.05244
 H2184 H 0.82803 0.73733 1.08540
 N2185 N 0.75105 0.17217 0.56692
 N2186 N 0.76124 0.16692 0.58245
 C2187 C 0.77749 0.17739 0.58306
 C2188 C 0.77774 0.18977 0.56709
 C2189 C 0.76064 0.18602 0.55720
 H2190 H 0.78858 0.20028 0.56345
 H2191 H 0.73781 0.16620 0.56308
 H2192 H 0.75694 0.15645 0.59252
 N2193 N 0.68309 0.74715 0.42272
 N2194 N 0.67651 0.73903 0.40660
 C2195 C 0.68443 0.72142 0.40509
 C2196 C 0.69645 0.71810 0.42098
 C2197 C 0.69520 0.73478 0.43186
 H2198 H 0.70503 0.70543 0.42406
 H2199 H 0.67910 0.76083 0.42741
 H2200 H 0.66689 0.74557 0.39679
 N2201 N 0.67442 0.23424 -0.06900
 N2202 N 0.66714 0.22601 -0.08473
 C2203 C 0.67829 0.21077 -0.08941
 C2204 C 0.69314 0.20898 -0.07584
 C2205 C 0.69023 0.22429 -0.06323
 H2206 H 0.70478 0.19852 -0.07562
 H2207 H 0.66870 0.24658 -0.06247
 H2208 H 0.65511 0.23118 -0.09244
 N2209 N 0.18096 0.74179 -0.07549
 N2210 N 0.17327 0.73188 -0.08988
 C2211 C 0.18345 0.71550 -0.09213
 C2212 C 0.19826 0.71486 -0.07842
 C2213 C 0.19614 0.73190 -0.06814
 H2214 H 0.20898 0.70366 -0.07625
 H2215 H 0.17553 0.75494 -0.07060
 H2216 H 0.16133 0.73646 -0.09807
 N2217 N 0.23519 0.17376 0.43286
 N2218 N 0.22818 0.16588 0.41684
 C2219 C 0.21126 0.17456 0.41233
 C2220 C 0.20734 0.18871 0.42606
 C2221 C 0.22289 0.18766 0.43896
 H2222 H 0.19478 0.19807 0.42678
 H2223 H 0.24835 0.16972 0.43921
 H2224 H 0.23499 0.15473 0.40923
 N2225 N 0.32059 0.43286 0.73205
 N2226 N 0.32832 0.41694 0.72497
 C2227 C 0.31679 0.41030 0.71071
 C2228 C 0.30094 0.42249 0.70865
 C2229 C 0.30391 0.43669 0.72248
 H2230 H 0.28901 0.42122 0.69850
 H2231 H 0.32657 0.44064 0.74354
 H2232 H 0.34127 0.41081 0.72994
 N2233 N 0.33346 0.91855 0.25315
 N2234 N 0.33895 0.90248 0.24450
 C2235 C 0.32865 0.90041 0.22787
 C2236 C 0.31620 0.91587 0.22575
 C2237 C 0.31967 0.92707 0.24210
 H2238 H 0.30569 0.91832 0.21423
 H2239 H 0.33915 0.92350 0.26637
 H2240 H 0.34937 0.89303 0.25010
 N2241 N 0.82984 0.42960 0.23975
 N2242 N 0.83707 0.41404 0.23147
 C2243 C 0.82755 0.41084 0.21457
 C2244 C 0.81373 0.42510 0.21187
 C2245 C 0.81560 0.43670 0.22825
 H2246 H 0.80346 0.42654 0.19997
 H2247 H 0.83483 0.43527 0.25296
 H2248 H 0.84821 0.40572 0.23751
 N2249 N 0.77901 0.93738 0.67931
 N2250 N 0.78423 0.92046 0.67247
 C2251 C 0.79756 0.91271 0.68460
 C2252 C 0.80089 0.92520 0.69997
 C2253 C 0.78881 0.94074 0.69603
 H2254 H 0.81078 0.92334 0.71213
 H2255 H 0.76867 0.94629 0.67271
 H2256 H 0.77879 0.91448 0.65961
 N2257 N 0.74123 0.56650 0.68371
 N2258 N 0.73402 0.58169 0.67455
 C2259 C 0.71733 0.58687 0.68355
 C2260 C 0.71380 0.57453 0.69909
 C2261 C 0.72930 0.56182 0.69878
 H2262 H 0.70161 0.57478 0.70920
 H2263 H 0.75430 0.55979 0.67985
 H2264 H 0.74050 0.58833 0.66242
 N2265 N 0.73976 0.07544 0.18503
 N2266 N 0.73212 0.09150 0.17811
 C2267 C 0.71653 0.09621 0.18917
 C2268 C 0.71409 0.08255 0.20373
 C2269 C 0.72912 0.06955 0.20063
 H2270 H 0.70295 0.08223 0.21502
 H2271 H 0.75184 0.06860 0.17884
 H2272 H 0.73756 0.09900 0.16598
 N2273 N 0.24136 0.57473 0.17978
 N2274 N 0.23346 0.59058 0.17270
 C2275 C 0.21693 0.59430 0.18269
 C2276 C 0.21422 0.58022 0.19684
 C2277 C 0.23005 0.56800 0.19449
 H2278 H 0.20228 0.57893 0.20716
 H2279 H 0.25444 0.56888 0.17469
 H2280 H 0.23934 0.59860 0.16116
 N2281 N 0.17920 0.06352 0.74673
 N2282 N 0.16947 0.07810 0.73909
 C2283 C 0.17813 0.08331 0.72209
 C2284 C 0.19399 0.07146 0.71866
 C2285 C 0.19418 0.05908 0.73467
 H2286 H 0.20405 0.07191 0.70636
 H2287 H 0.17537 0.05663 0.75984
 H2288 H 0.15721 0.08438 0.74557
 N2289 N 0.28275 0.59254 0.27353
 N2290 N 0.29063 0.60663 0.28337
 C2291 C 0.29403 0.60077 0.30195
 C2292 C 0.28806 0.58205 0.30408
 C2293 C 0.28115 0.57730 0.28560
 H2294 H 0.29049 0.57260 0.31650
 H2295 H 0.27937 0.59318 0.25857
 H2296 H 0.29475 0.61963 0.27709
 N2297 N 0.32000 0.07052 0.75879
 N2298 N 0.32837 0.08599 0.76565
 C2299 C 0.32028 0.09032 0.78320
 C2300 C 0.30630 0.07699 0.78780
 C2301 C 0.30653 0.06467 0.77193
 H2302 H 0.29704 0.07650 0.80072
 H2303 H 0.32367 0.06406 0.74542
 H2304 H 0.33926 0.09348 0.75829
 N2305 N 0.78508 0.59012 0.75724
 N2306 N 0.79139 0.60739 0.76105
 C2307 C 0.79116 0.61002 0.78068
 C2308 C 0.78415 0.59373 0.78987
 C2309 C 0.78080 0.58130 0.77438
 H2310 H 0.78327 0.59077 0.80551
 H2311 H 0.78414 0.58445 0.74309
 H2312 H 0.79633 0.61695 0.75033
 N2313 N 0.82278 0.06900 0.26732
 N2314 N 0.83042 0.08482 0.27417
 C2315 C 0.81881 0.09184 0.28849
 C2316 C 0.80295 0.08003 0.29078
 C2317 C 0.80606 0.06563 0.27707
 H2318 H 0.79106 0.08152 0.30116
 H2319 H 0.82891 0.06084 0.25599
 H2320 H 0.84347 0.09054 0.26912
 N2321 N 0.69433 0.43427 0.25994
 N2322 N 0.68397 0.41994 0.26677
 C2323 C 0.69073 0.41483 0.28460
 C2324 C 0.70608 0.42651 0.28942
 C2325 C 0.70793 0.43867 0.27330
 H2326 H 0.71466 0.42615 0.30270
 H2327 H 0.69172 0.44109 0.24649
 H2328 H 0.67246 0.41386 0.25923
 N2329 N 0.69116 0.94272 0.74942
 N2330 N 0.68158 0.92760 0.75567
 C2331 C 0.69023 0.92074 0.77198
 C2332 C 0.70598 0.93195 0.77635
 C2333 C 0.70609 0.94582 0.76169
 H2334 H 0.71590 0.93024 0.78851
 H2335 H 0.68715 0.95090 0.73719
 H2336 H 0.66927 0.92223 0.74888
 N2337 N 0.23452 0.41574 0.81146
 N2338 N 0.22601 0.40054 0.81889
 C2339 C 0.20966 0.39727 0.80881
 C2340 C 0.20764 0.41106 0.79420
 C2341 C 0.22379 0.42261 0.79644
 H2342 H 0.19594 0.41264 0.78378
 H2343 H 0.24715 0.42155 0.81718
 H2344 H 0.23137 0.39272 0.83084
 N2345 N 0.23868 0.89540 0.28295
 N2346 N 0.22950 0.88052 0.29037
 C2347 C 0.21793 0.88652 0.30517
 C2348 C 0.21971 0.90606 0.30731
 C2349 C 0.23302 0.91120 0.29285
 H2350 H 0.21161 0.91532 0.31718
 H2351 H 0.24843 0.89464 0.27114
 H2352 H 0.23073 0.86662 0.28497
 N2353 N 0.42611 0.26243 0.67605
 N2354 N 0.41089 0.27102 0.66813
 C2355 C 0.40685 0.28703 0.67835
 C2356 C 0.42019 0.28880 0.69340
 C2357 C 0.43220 0.27284 0.69143
 H2358 H 0.42099 0.30003 0.70426
 H2359 H 0.43234 0.24981 0.67066
 H2360 H 0.40341 0.26586 0.65599
 N2361 N 0.43696 0.76685 0.16641
 N2362 N 0.42004 0.77404 0.16099
 C2363 C 0.41312 0.78524 0.17553
 C2364 C 0.42617 0.78520 0.19092
 C2365 C 0.44119 0.77336 0.18456
 H2366 H 0.42488 0.79278 0.20473
 H2367 H 0.44511 0.75733 0.15785
 H2368 H 0.41340 0.77114 0.14758
 N2369 N 0.92791 0.25834 0.18958
 N2370 N 0.91256 0.26568 0.18065
 C2371 C 0.90853 0.28290 0.18850
 C2372 C 0.92189 0.28672 0.20301
 C2373 C 0.93400 0.27079 0.20328
 H2374 H 0.92262 0.29934 0.21209
 H2375 H 0.93424 0.24520 0.18591
 H2376 H 0.90507 0.25898 0.16935
 N2377 N 0.91029 0.77068 0.73230
 N2378 N 0.89393 0.77762 0.72520
 C2379 C 0.89580 0.79654 0.72227
 C2380 C 0.91419 0.80198 0.72794
 C2381 C 0.92304 0.78501 0.73387
 H2382 H 0.92097 0.81566 0.72550
 H2383 H 0.91293 0.75619 0.73498
 H2384 H 0.88216 0.76928 0.72116
 N2385 N 0.57686 0.29425 0.26091
 N2386 N 0.59136 0.30471 0.26707
 C2387 C 0.59383 0.30155 0.28646
 C2388 C 0.58028 0.28845 0.29301
 C2389 C 0.56966 0.28424 0.27627
 H2390 H 0.57799 0.28342 0.30793
 H2391 H 0.57156 0.29477 0.24655
 H2392 H 0.59914 0.31411 0.25813
 N2393 N 0.58023 0.79542 0.75575
 N2394 N 0.59587 0.80484 0.76070
 C2395 C 0.59884 0.80259 0.78015
 C2396 C 0.58454 0.79094 0.78798
 C2397 C 0.57280 0.78699 0.77196
 H2398 H 0.58215 0.78721 0.80329
 H2399 H 0.57465 0.79512 0.74150
 H2400 H 0.60402 0.81308 0.75090
 N2401 N 0.05298 0.29640 0.80552
 N2402 N 0.07016 0.29950 0.81314
 C2403 C 0.08152 0.30775 0.79944
 C2404 C 0.07108 0.31007 0.78217
 C2405 C 0.05295 0.30249 0.78663
 H2406 H 0.07632 0.31545 0.76817
 H2407 H 0.04193 0.28931 0.81303
 H2408 H 0.07413 0.29548 0.82740
 N2409 N 0.07797 0.80127 0.25508
 N2410 N 0.09300 0.80956 0.26326
 C2411 C 0.09524 0.80247 0.28157
 C2412 C 0.08098 0.78914 0.28528
 C2413 C 0.07026 0.78881 0.26809
 H2414 H 0.07864 0.78102 0.29867
 H2415 H 0.07286 0.80456 0.24101
 H2416 H 0.10147 0.81992 0.25635
 N2417 N 0.58350 0.67143 0.75281
 N2418 N 0.59876 0.66453 0.74324
 C2419 C 0.60125 0.67471 0.72657
 C2420 C 0.58706 0.68873 0.72546
 C2421 C 0.57593 0.68613 0.74235
 H2422 H 0.58473 0.69880 0.71355
 H2423 H 0.57852 0.66600 0.76623
 H2424 H 0.60715 0.65294 0.74807
 N2425 N 0.56769 0.17069 0.24928
 N2426 N 0.58407 0.16471 0.24108
 C2427 C 0.58698 0.17445 0.22417
 C2428 C 0.57157 0.18706 0.22134
 C2429 C 0.55969 0.18429 0.23772
 H2430 H 0.56963 0.19727 0.20949
 H2431 H 0.56221 0.16552 0.26263
 H2432 H 0.59324 0.15440 0.24729
 N2433 N 0.06576 0.67121 0.23812
 N2434 N 0.08201 0.66407 0.23061
 C2435 C 0.08751 0.67507 0.21527
 C2436 C 0.07410 0.68970 0.21276
 C2437 C 0.06051 0.68674 0.22754
 H2438 H 0.07436 0.70106 0.20190
 H2439 H 0.05838 0.66537 0.25016
 H2440 H 0.08928 0.65205 0.23613
 N2441 N 0.07169 0.21380 0.73600
 N2442 N 0.08636 0.20279 0.73046
 C2443 C 0.08800 0.20344 0.71073
 C2444 C 0.07371 0.21545 0.70326
 C2445 C 0.06337 0.22160 0.71985
 H2446 H 0.07064 0.21828 0.68791
 H2447 H 0.06757 0.21559 0.75069
 H2448 H 0.09494 0.19480 0.74014
 N2449 N 0.42952 0.67887 0.25545
 N2450 N 0.41585 0.67042 0.26588
 C2451 C 0.41242 0.68066 0.28229
 C2452 C 0.42442 0.69637 0.28235
 C2453 C 0.43516 0.69465 0.26506
 H2454 H 0.42549 0.70717 0.29363
 H2455 H 0.43530 0.67339 0.24236
 H2456 H 0.40919 0.65772 0.26181
 N2457 N 0.43016 0.23486 0.81305
 N2458 N 0.41469 0.22756 0.82165
 C2459 C 0.41039 0.21104 0.81270
 C2460 C 0.42380 0.20759 0.79780
 C2461 C 0.43609 0.22312 0.79844
 H2462 H 0.42426 0.19572 0.78765
 H2463 H 0.43655 0.24761 0.81736
 H2464 H 0.40721 0.23393 0.83337
 N2465 N 0.94149 0.68652 0.76094
 N2466 N 0.92444 0.67940 0.76571
 C2467 C 0.91769 0.68849 0.78182
 C2468 C 0.93099 0.70190 0.78764
 C2469 C 0.94589 0.70034 0.77391
 H2470 H 0.92958 0.71186 0.79972
 H2471 H 0.94942 0.68242 0.74848
 H2472 H 0.91744 0.66883 0.75773
 N2473 N 0.93648 0.22908 0.32789
 N2474 N 0.92157 0.22031 0.33597
 C2475 C 0.91675 0.20546 0.32451
 C2476 C 0.92935 0.20456 0.30851
 C2477 C 0.94155 0.21995 0.31118
 H2478 H 0.92913 0.19471 0.29628
 H2479 H 0.94296 0.24116 0.33379
 H2480 H 0.91466 0.22478 0.34890
 N2481 N 0.25114 0.31149 0.57979
 N2482 N 0.25963 0.31990 0.59476
 C2483 C 0.27794 0.31320 0.59615
 C2484 C 0.28130 0.30000 0.58136
 C2485 C 0.26391 0.29930 0.57126
 H2486 H 0.29450 0.29197 0.57849
 H2487 H 0.23693 0.31439 0.57543
 H2488 H 0.25290 0.33005 0.60381
 N2489 N 0.25584 0.82695 0.08155
 N2490 N 0.26436 0.83317 0.09764
 C2491 C 0.28100 0.82328 0.10019
 C2492 C 0.28319 0.81023 0.08507
 C2493 C 0.26689 0.81295 0.07349
 H2494 H 0.29489 0.80000 0.08304
 H2495 H 0.24279 0.83250 0.07622
 H2496 H 0.25881 0.84403 0.10662
 N2497 N 0.76446 0.32352 0.07274
 N2498 N 0.77325 0.33141 0.08783
 C2499 C 0.78776 0.31977 0.09372
 C2500 C 0.78829 0.30374 0.08179
 C2501 C 0.77317 0.30664 0.06864
 H2502 H 0.79813 0.29164 0.08274
 H2503 H 0.75289 0.32992 0.06529
 H2504 H 0.76930 0.34460 0.09385
 N2505 N 0.82557 0.77204 0.56571
 N2506 N 0.83370 0.78043 0.58086
 C2507 C 0.82057 0.79206 0.58953
 C2508 C 0.80324 0.79106 0.57944
 C2509 C 0.80695 0.77803 0.56440
 H2510 H 0.78983 0.79849 0.58290
 H2511 H 0.83300 0.76257 0.55646
 H2512 H 0.84809 0.77820 0.58504
 N2513 N 0.31231 0.74041 0.42096
 N2514 N 0.32080 0.73287 0.40527
 C2515 C 0.31534 0.71455 0.40370
 C2516 C 0.30286 0.71018 0.41908
 C2517 C 0.30136 0.72698 0.42980
 H2518 H 0.29607 0.69662 0.42214
 H2519 H 0.31452 0.75437 0.42571
 H2520 H 0.33027 0.74021 0.39595
 N2521 N 0.25698 0.18207 0.92027
 N2522 N 0.26566 0.17464 0.90467
 C2523 C 0.28234 0.18395 0.90137
 C2524 C 0.28440 0.19797 0.91550
 C2525 C 0.26795 0.19631 0.92729
 H2526 H 0.29627 0.20780 0.91703
 H2527 H 0.24401 0.17695 0.92616
 H2528 H 0.26022 0.16324 0.89663
 N2529 N 0.80750 0.74971 0.90652
 N2530 N 0.81681 0.74100 0.89205
 C2531 C 0.80844 0.72405 0.88879
 C2532 C 0.79302 0.72183 0.90176
 C2533 C 0.79296 0.73849 0.91288
 H2534 H 0.78361 0.70964 0.90321
 H2535 H 0.81170 0.76280 0.91229
 H2536 H 0.82886 0.74662 0.88476
 N2537 N 0.76734 0.23178 0.39996
 N2538 N 0.77747 0.22456 0.38517
 C2539 C 0.77918 0.20556 0.38775
 C2540 C 0.76965 0.20036 0.40494
 C2541 C 0.76262 0.21753 0.41247
 H2542 H 0.76991 0.18653 0.41212
 H2543 H 0.76451 0.24635 0.40174
 H2544 H 0.78396 0.23270 0.37405
 N2545 N 0.71585 0.31672 0.43204
 N2546 N 0.71042 0.32598 0.41602
 C2547 C 0.69596 0.31639 0.40748
 C2548 C 0.69199 0.30017 0.41858
 C2549 C 0.70495 0.30095 0.43416
 H2550 H 0.68122 0.28943 0.41572
 H2551 H 0.72719 0.32108 0.44099
 H2552 H 0.71671 0.33864 0.41109
 N2553 N 0.72479 0.83178 0.92015
 N2554 N 0.71859 0.83871 0.90325
 C2555 C 0.70461 0.82734 0.89633
 C2556 C 0.70180 0.81233 0.90948
 C2557 C 0.71495 0.81577 0.92449
 H2558 H 0.69173 0.80067 0.90829
 H2559 H 0.73597 0.83781 0.92824
 H2560 H 0.72399 0.85108 0.89668
 N2561 N 0.18293 0.25407 0.92236
 N2562 N 0.17731 0.25965 0.90470
 C2563 C 0.18699 0.27556 0.89970
 C2564 C 0.19949 0.28026 0.91477
 C2565 C 0.19638 0.26628 0.92892
 H2566 H 0.20907 0.29235 0.91555
 H2567 H 0.17769 0.24200 0.92965
 H2568 H 0.16677 0.25278 0.89645
 N2569 N 0.18526 0.74785 0.42614
 N2570 N 0.17679 0.75586 0.41074
 C2571 C 0.18423 0.77336 0.40792
 C2572 C 0.19798 0.77672 0.42221
 C2573 C 0.19818 0.76016 0.43354
 H2574 H 0.20663 0.78937 0.42406
 H2575 H 0.18188 0.73433 0.43163
 H2576 H 0.16615 0.74932 0.40233
 N2577 N 0.68289 0.74312 0.58344
 N2578 N 0.67568 0.73398 0.59885
 C2579 C 0.68534 0.71729 0.60104
 C2580 C 0.69937 0.71575 0.58645
 C2581 C 0.69729 0.73242 0.57547
 H2582 H 0.70914 0.70384 0.58379
 H2583 H 0.67796 0.75650 0.57867
 H2584 H 0.66432 0.73916 0.60762
 N2585 N 0.67303 0.24232 0.08093
 N2586 N 0.66607 0.23472 0.09735
 C2587 C 0.67761 0.22000 0.10272
 C2588 C 0.69268 0.21823 0.08920
 C2589 C 0.68923 0.23264 0.07552
 H2590 H 0.70423 0.20765 0.08907
 H2591 H 0.66675 0.25403 0.07374
 H2592 H 0.65353 0.23951 0.10456
 N2593 N 0.17471 0.74443 0.07824
 N2594 N 0.16824 0.73575 0.09425
 C2595 C 0.18013 0.72093 0.09848
 C2596 C 0.19500 0.72025 0.08461
 C2597 C 0.19095 0.73542 0.07196
 H2598 H 0.20678 0.70996 0.08361
 H2599 H 0.16809 0.75644 0.07191
 H2600 H 0.15574 0.73990 0.10194
 N2601 N 0.23419 0.18994 0.59262
 N2602 N 0.22582 0.18164 0.60789
 C2603 C 0.20681 0.18619 0.60797
 C2604 C 0.20285 0.19794 0.59196
 C2605 C 0.22070 0.19993 0.58249
 H2606 H 0.18894 0.20377 0.58761
 H2607 H 0.24882 0.18812 0.58897
 H2608 H 0.23311 0.17285 0.61792
   
