data_POSCAR
  _audit_creation_date              2014-09-24
  _audit_creation_method            'ToBaCCo'
  _symmetry_space_group_name_H-M    'P1'
  _symmetry_Int_Tables_number       1
  _symmetry_cell_setting            triclinic
  loop_
  _symmetry_equiv_pos_as_xyz
 x,y,z
_cell_length_a 27.4300
_cell_length_b 41.6953
_cell_length_c 35.4443
_cell_angle_alpha 89.761800
_cell_angle_beta 89.510100
_cell_angle_gamma 90.158600
loop_
  _atom_site_label
  _atom_site_type_symbol
  _atom_site_fract_x
  _atom_site_fract_y
  _atom_site_fract_z
B1 B -0.02874 -0.03213 0.01310
 B2 B 0.02942 -0.02386 0.02361
 B3 B 0.01504 -0.03587 -0.02027
 B4 B -0.03963 -0.02029 -0.03179
 B5 B -0.05856 0.00213 0.00562
 B6 B -0.01543 0.00012 0.03998
 B7 B 0.02624 0.02833 -0.02178
 B8 B -0.03206 0.01962 -0.03242
 B9 B -0.01734 0.03206 0.01127
 B10 B 0.03735 0.01640 0.02301
 B11 B 0.05622 -0.00625 -0.01412
 B12 B 0.01336 -0.00378 -0.04877
 B13 B 0.51135 0.48378 0.53858
 B14 B 0.45460 0.48452 0.52056
 B15 B 0.48092 0.51886 0.53490
 B16 B 0.54118 0.51741 0.52450
 B17 B 0.55194 0.48162 0.50294
 B18 B 0.49804 0.46110 0.50068
 B19 B 0.48874 0.51603 0.45906
 B20 B 0.54532 0.51535 0.47701
 B21 B 0.51925 0.48098 0.46273
 B22 B 0.45901 0.48240 0.47304
 B23 B 0.44820 0.51802 0.49461
 B24 B 0.50219 0.53854 0.49699
 B25 B 0.54761 0.02623 0.52037
 B26 B 0.48830 0.02050 0.53042
 B27 B 0.50497 0.03405 0.48736
 B28 B 0.55842 0.01639 0.47517
 B29 B 0.57348 -0.00907 0.51110
 B30 B 0.52946 -0.00651 0.54529
 B31 B 0.48680 -0.02917 0.48128
 B32 B 0.54652 -0.02319 0.47226
 B33 B 0.52856 -0.03700 0.51479
 B34 B 0.47536 -0.01914 0.52703
 B35 B 0.46053 0.00616 0.49124
 B36 B 0.50471 0.00363 0.45698
 B37 B -0.00715 0.51440 0.03779
 B38 B 0.05210 0.51615 0.02496
 B39 B 0.02600 0.48054 0.03534
 B40 B -0.03196 0.48079 0.01935
 B41 B -0.04153 0.51714 -0.00107
 B42 B 0.01076 0.53917 0.00253
 B43 B 0.03112 0.48650 -0.04049
 B44 B -0.02795 0.48485 -0.02785
 B45 B -0.00244 0.52058 -0.03795
 B46 B 0.05563 0.52018 -0.02247
 B47 B 0.06544 0.48380 -0.00158
 B48 B 0.01307 0.46185 -0.00509
 B49 B 0.03024 0.47427 0.48283
 B50 B -0.02742 0.47933 0.46827
 B51 B -0.01660 0.46495 0.51188
 B52 B 0.03361 0.48359 0.52898
 B53 B 0.05320 0.50997 0.49525
 B54 B 0.01506 0.50720 0.45762
 B55 B -0.03858 0.52765 0.51792
 B56 B 0.01919 0.52278 0.53209
 B57 B 0.00817 0.53695 0.48855
 B58 B -0.04198 0.51847 0.47175
 B59 B -0.06157 0.49202 0.50530
 B60 B -0.02323 0.49473 0.54298
 B61 B 0.46369 -0.01170 -0.04048
 B62 B 0.52284 -0.01460 -0.02792
 B63 B 0.49941 0.02102 -0.04204
 B64 B 0.44152 0.02356 -0.02539
 B65 B 0.42961 -0.01063 -0.00061
 B66 B 0.47987 -0.03438 -0.00282
 B67 B 0.50441 0.02078 0.03409
 B68 B 0.44546 0.02292 0.02212
 B69 B 0.46880 -0.01245 0.03578
 B70 B 0.52665 -0.01487 0.01934
 B71 B 0.53863 0.01953 -0.00547
 B72 B 0.48784 0.04292 -0.00352
 B73 B 0.47588 0.52549 -0.02247
 B74 B 0.53296 0.51672 -0.03659
 B75 B 0.52261 0.53015 0.00754
 B76 B 0.46921 0.51486 0.02345
 B77 B 0.44656 0.49148 -0.01167
 B78 B 0.48627 0.49260 -0.04896
 B79 B 0.53337 0.46594 0.01066
 B80 B 0.47650 0.47502 0.02507
 B81 B 0.48670 0.46143 -0.01908
 B82 B 0.54029 0.47662 -0.03493
 B83 B 0.56288 0.50023 -0.00023
 B84 B 0.52341 0.49882 0.03730
 B85 B 0.00957 0.01337 0.46235
 B86 B -0.04995 0.01966 0.47139
 B87 B -0.03035 -0.01745 0.46176
 B88 B 0.02492 -0.02268 0.48141
 B89 B 0.03984 0.01214 0.50361
 B90 B -0.00691 0.03872 0.49709
 B91 B -0.04306 -0.01158 0.53726
 B92 B 0.01623 -0.01943 0.52838
 B93 B -0.00238 0.01843 0.53785
 B94 B -0.05766 0.02358 0.51815
 B95 B -0.07248 -0.01115 0.49591
 B96 B -0.02685 -0.03767 0.50254
 B97 B 0.77199 0.27904 0.26362
 B98 B 0.71246 0.27052 0.26965
 B99 B 0.73338 0.28075 0.22673
 B100 B 0.78967 0.26540 0.22060
 B101 B 0.80350 0.24474 0.26053
 B102 B 0.75523 0.24786 0.29132
 B103 B 0.72307 0.21655 0.22917
 B104 B 0.78237 0.22526 0.22198
 B105 B 0.76237 0.21496 0.26531
 B106 B 0.70564 0.23034 0.27175
 B107 B 0.69179 0.25083 0.23153
 B108 B 0.73971 0.24756 0.20079
 B109 B 0.74307 0.78693 0.77765
 B110 B 0.72506 0.77808 0.73369
 B111 B 0.78288 0.78991 0.74151
 B112 B 0.80163 0.77460 0.78300
 B113 B 0.75451 0.75292 0.80105
 B114 B 0.70658 0.75488 0.77052
 B115 B 0.78214 0.72578 0.73387
 B116 B 0.80081 0.73442 0.77771
 B117 B 0.74297 0.72268 0.77083
 B118 B 0.72395 0.73788 0.72910
 B119 B 0.77131 0.76001 0.71076
 B120 B 0.81911 0.75766 0.74122
 B121 B 0.27596 0.22122 0.73060
 B122 B 0.21694 0.22570 0.71920
 B123 B 0.23188 0.21887 0.76425
 B124 B 0.28477 0.23770 0.77342
 B125 B 0.30249 0.25747 0.73329
 B126 B 0.25988 0.25000 0.69930
 B127 B 0.21474 0.28228 0.75632
 B128 B 0.27341 0.27691 0.76896
 B129 B 0.25886 0.28469 0.72340
 B130 B 0.20556 0.26543 0.71371
 B131 B 0.18811 0.24584 0.75382
 B132 B 0.22992 0.25335 0.78782
 B133 B 0.22725 0.78100 0.23842
 B134 B 0.28668 0.77277 0.23198
 B135 B 0.26561 0.78097 0.27551
 B136 B 0.20899 0.76536 0.28022
 B137 B 0.19542 0.74647 0.23897
 B138 B 0.24407 0.75113 0.20900
 B139 B 0.27507 0.71681 0.26966
 B140 B 0.21557 0.72556 0.27680
 B141 B 0.23635 0.71666 0.23328
 B142 B 0.29319 0.73250 0.22788
 B143 B 0.30694 0.75130 0.26908
 B144 B 0.25869 0.74673 0.29927
 B145 B 0.26817 0.71955 0.77100
 B146 B 0.28878 0.72907 0.72757
 B147 B 0.23097 0.71698 0.73331
 B148 B 0.20934 0.73108 0.77445
 B149 B 0.25474 0.75298 0.79448
 B150 B 0.30475 0.75171 0.76522
 B151 B 0.23148 0.78153 0.72751
 B152 B 0.20976 0.77131 0.77034
 B153 B 0.26806 0.78372 0.76522
 B154 B 0.29012 0.76946 0.72366
 B155 B 0.24426 0.74791 0.70365
 B156 B 0.19442 0.74914 0.73271
 B157 B 0.22934 0.21902 0.27728
 B158 B 0.28966 0.22553 0.28287
 B159 B 0.26722 0.21659 0.23996
 B160 B 0.21230 0.23455 0.23504
 B161 B 0.20096 0.25469 0.27564
 B162 B 0.24896 0.24900 0.30546
 B163 B 0.28355 0.28031 0.24320
 B164 B 0.22338 0.27454 0.23738
 B165 B 0.24482 0.28283 0.28050
 B166 B 0.29999 0.26516 0.28523
 B167 B 0.31135 0.24471 0.24424
 B168 B 0.26340 0.25078 0.21484
 B169 B 0.78597 0.71218 0.23432
 B170 B 0.72708 0.71714 0.22252
 B171 B 0.74196 0.70897 0.26745
 B172 B 0.79484 0.72809 0.27755
 B173 B 0.81242 0.74851 0.23776
 B174 B 0.77013 0.74127 0.20376
 B175 B 0.72435 0.77250 0.26165
 B176 B 0.78328 0.76748 0.27362
 B177 B 0.76839 0.77572 0.22823
 B178 B 0.71559 0.75675 0.21864
 B179 B 0.69815 0.73607 0.25795
 B180 B 0.74012 0.74307 0.29227
 B181 B 0.72833 0.22542 0.73300
 B182 B 0.70914 0.23287 0.77715
 B183 B 0.76837 0.22536 0.76899
 B184 B 0.78425 0.24163 0.72693
 B185 B 0.73351 0.26013 0.70942
 B186 B 0.68693 0.25446 0.74085
 B187 B 0.75764 0.28934 0.77576
 B188 B 0.77719 0.28136 0.73126
 B189 B 0.71794 0.28942 0.74012
 B190 B 0.70165 0.27279 0.78183
 B191 B 0.75211 0.25458 0.79947
 B192 B 0.79925 0.26015 0.76826
 C193 C 0.08806 0.48301 0.89891
 C194 C 0.10991 0.46514 0.86967
 C195 C 0.09542 0.43333 0.86292
 C196 C 0.05803 0.42000 0.88522
 C197 C 0.03714 0.43736 0.91453
 C198 C 0.05175 0.46913 0.92216
 N199 N 0.12097 0.41385 0.83575
 N200 N 0.10576 0.38559 0.82869
 C201 C 0.13033 0.36282 0.80510
 C202 C 0.10957 0.33235 0.80165
 C203 C 0.13519 0.30749 0.78432
 C204 C 0.18255 0.31251 0.76978
 C205 C 0.20188 0.34394 0.77092
 C206 C 0.17625 0.36881 0.78878
 H207 H 0.10071 0.50720 0.90409
 H208 H 0.13892 0.47582 0.85291
 H209 H 0.04604 0.39552 0.88106
 H210 H 0.00992 0.42526 0.93170
 H211 H 0.07414 0.32742 0.81413
 H212 H 0.11834 0.28401 0.78395
 H213 H 0.23818 0.34900 0.76054
 H214 H 0.19316 0.39219 0.79124
 C215 C 0.43581 0.52701 0.39849
 C216 C 0.41485 0.54921 0.37335
 C217 C 0.43249 0.58091 0.37161
 C218 C 0.47288 0.58939 0.39285
 C219 C 0.49354 0.56763 0.41768
 C220 C 0.47450 0.53632 0.42205
 N221 N 0.40710 0.60633 0.35306
 N222 N 0.37493 0.60259 0.32783
 C223 C 0.34977 0.63020 0.31369
 C224 C 0.33523 0.63149 0.27603
 C225 C 0.31273 0.65907 0.26176
 C226 C 0.30153 0.68519 0.28548
 C227 C 0.31709 0.68378 0.32319
 C228 C 0.34086 0.65669 0.33708
 H229 H 0.41963 0.50340 0.40127
 H230 H 0.38321 0.54227 0.35724
 H231 H 0.48659 0.61378 0.39190
 H232 H 0.52236 0.57652 0.43547
 H233 H 0.34285 0.61158 0.25739
 H234 H 0.30482 0.65990 0.23197
 H235 H 0.31167 0.70379 0.34208
 H236 H 0.35219 0.65636 0.36627
 C237 C 0.87617 0.96994 0.56952
 C238 C 0.85070 0.95429 0.59810
 C239 C 0.87425 0.94531 0.63107
 C240 C 0.92217 0.95580 0.63748
 C241 C 0.94752 0.97263 0.60908
 C242 C 0.92607 0.97725 0.57351
 N243 N 0.85133 0.92094 0.65324
 N244 N 0.86981 0.90797 0.68225
 C245 C 0.84671 0.88004 0.69780
 C246 C 0.85571 0.87061 0.73496
 C247 C 0.83480 0.84238 0.74932
 C248 C 0.80518 0.82293 0.72642
 C249 C 0.79786 0.83214 0.68875
 C250 C 0.81758 0.86056 0.67485
 H251 H 0.85687 0.97452 0.54359
 H252 H 0.81353 0.94662 0.59318
 H253 H 0.94081 0.94939 0.66322
 H254 H 0.98494 0.97964 0.61396
 H255 H 0.87897 0.88504 0.75270
 H256 H 0.84285 0.83557 0.77805
 H257 H 0.77665 0.81748 0.66979
 H258 H 0.81116 0.86683 0.64564
 C259 C 0.51173 0.07397 0.07144
 C260 C 0.53578 0.09481 0.09521
 C261 C 0.57419 0.08418 0.11715
 C262 C 0.58723 0.05154 0.11651
 C263 C 0.56312 0.03026 0.09202
 C264 C 0.52566 0.04147 0.06844
 N265 N 0.60145 0.10820 0.13641
 N266 N 0.62812 0.10337 0.16498
 C267 C 0.65386 0.13011 0.18054
 C268 C 0.65773 0.13325 0.21961
 C269 C 0.67815 0.16099 0.23506
 C270 C 0.69708 0.18554 0.21169
 C271 C 0.69355 0.18195 0.17234
 C272 C 0.67192 0.15467 0.15699
 H273 H 0.48352 0.08419 0.05403
 H274 H 0.52555 0.11989 0.09549
 H275 H 0.61737 0.04299 0.13326
 H276 H 0.57521 0.00562 0.09028
 H277 H 0.64312 0.11481 0.23813
 H278 H 0.67842 0.16321 0.26531
 H279 H 0.70760 0.20010 0.15321
 H280 H 0.66923 0.15269 0.12663
 C281 C 0.87345 0.05510 0.46048
 C282 C 0.84134 0.07176 0.43750
 C283 C 0.84839 0.07207 0.39858
 C284 C 0.88572 0.05355 0.38236
 C285 C 0.91722 0.03620 0.40526
 C286 C 0.91283 0.03787 0.44472
 N287 N 0.82199 0.09477 0.37678
 N288 N 0.83936 0.10465 0.34556
 C289 C 0.81739 0.12972 0.32452
 C290 C 0.84639 0.14573 0.29818
 C291 C 0.82911 0.17293 0.28024
 C292 C 0.78093 0.18352 0.28629
 C293 C 0.75208 0.16764 0.31356
 C294 C 0.77013 0.14079 0.33253
 H295 H 0.86755 0.05639 0.49064
 H296 H 0.81266 0.08601 0.45019
 H297 H 0.89137 0.05326 0.35210
 H298 H 0.94582 0.02233 0.39197
 H299 H 0.88349 0.13798 0.29292
 H300 H 0.85409 0.18572 0.26180
 H301 H 0.71610 0.17630 0.32094
 H302 H 0.74768 0.12908 0.35377
 C303 C 0.37932 0.44559 0.52295
 C304 C 0.34700 0.42562 0.54298
 C305 C 0.34436 0.42698 0.58237
 C306 C 0.37110 0.45071 0.60124
 C307 C 0.40266 0.47109 0.58122
 C308 C 0.40924 0.46772 0.54199
 N309 N 0.31904 0.40205 0.60275
 N310 N 0.32870 0.39645 0.63723
 C311 C 0.30762 0.37065 0.65876
 C312 C 0.33021 0.36197 0.69235
 C313 C 0.31446 0.33521 0.71276
 C314 C 0.27427 0.31690 0.70100
 C315 C 0.25052 0.32631 0.66755
 C316 C 0.26733 0.35278 0.64638
 H317 H 0.38271 0.44227 0.49278
 H318 H 0.32648 0.40758 0.52797
 H319 H 0.36939 0.45251 0.63168
 H320 H 0.42482 0.48746 0.59717
 H321 H 0.36162 0.37532 0.70201
 H322 H 0.33486 0.32876 0.73727
 H323 H 0.21979 0.31275 0.65710
 H324 H 0.24929 0.35903 0.62033
 C325 C 0.61172 0.97262 0.94783
 C326 C 0.64514 0.95329 0.92823
 C327 C 0.62953 0.92485 0.91121
 C328 C 0.58065 0.91528 0.91554
 C329 C 0.54766 0.93428 0.93510
 C330 C 0.56200 0.96393 0.95014
 N331 N 0.66263 0.90594 0.88905
 N332 N 0.64494 0.88486 0.86722
 C333 C 0.67208 0.86326 0.84416
 C334 C 0.64538 0.84361 0.82036
 C335 C 0.66831 0.82024 0.79906
 C336 C 0.71922 0.81602 0.80054
 C337 C 0.74639 0.83606 0.82450
 C338 C 0.72294 0.85975 0.84615
 H339 H 0.62457 0.99470 0.96031
 H340 H 0.68286 0.96077 0.92569
 H341 H 0.56770 0.89295 0.90373
 H342 H 0.51063 0.92559 0.93811
 H343 H 0.60612 0.84601 0.81894
 H344 H 0.64550 0.80525 0.78165
 H345 H 0.78529 0.83292 0.82734
 H346 H 0.74410 0.87459 0.86494
 C347 C 0.12500 0.55581 0.03332
 C348 C 0.15298 0.57642 0.05527
 C349 C 0.14918 0.57566 0.09455
 C350 C 0.11960 0.55224 0.11195
 C351 C 0.09169 0.53135 0.08997
 C352 C 0.09227 0.53385 0.05028
 N353 N 0.17182 0.60089 0.11547
 N354 N 0.16895 0.60304 0.15123
 C355 C 0.18868 0.63009 0.17086
 C356 C 0.18906 0.62993 0.21028
 C357 C 0.20513 0.65683 0.23012
 C358 C 0.22040 0.68485 0.21094
 C359 C 0.22091 0.68450 0.17118
 C360 C 0.20532 0.65748 0.15140
 H361 H 0.12735 0.55851 0.00300
 H362 H 0.17586 0.59426 0.04153
 H363 H 0.11616 0.55112 0.14237
 H364 H 0.06705 0.51494 0.10423
 H365 H 0.17667 0.60892 0.22570
 H366 H 0.20609 0.65528 0.26050
 H367 H 0.23291 0.70520 0.15506
 H368 H 0.20535 0.65829 0.12087
 C369 C 0.40102 0.96651 0.08178
 C370 C 0.38237 0.94385 0.10704
 C371 C 0.41203 0.91961 0.12125
 C372 C 0.46193 0.91962 0.11213
 C373 C 0.48131 0.94332 0.08794
 C374 C 0.45082 0.96673 0.07160
 N375 N 0.38942 0.89506 0.14377
 N376 N 0.40575 0.86664 0.14739
 C377 C 0.37914 0.84358 0.16984
 C378 C 0.38812 0.81063 0.16597
 C379 C 0.35932 0.78798 0.18562
 C380 C 0.32134 0.79801 0.20983
 C381 C 0.31396 0.83124 0.21424
 C382 C 0.34209 0.85357 0.19454
 H383 H 0.37546 0.98275 0.06876
 H384 H 0.34378 0.94398 0.11378
 H385 H 0.48557 0.90114 0.12316
 H386 H 0.51957 0.94210 0.08039
 H387 H 0.41658 0.80245 0.14699
 H388 H 0.36654 0.76272 0.18155
 H389 H 0.28622 0.84048 0.23299
 H390 H 0.33455 0.87881 0.19853
 C391 C 0.59144 0.45610 0.42506
 C392 C 0.61148 0.43358 0.40076
 C393 C 0.58173 0.41177 0.38216
 C394 C 0.53089 0.41382 0.38630
 C395 C 0.51038 0.43752 0.40958
 C396 C 0.54055 0.45879 0.42972
 N397 N 0.60515 0.38786 0.35977
 N398 N 0.58742 0.36029 0.35277
 C399 C 0.61556 0.33822 0.33058
 C400 C 0.60622 0.30517 0.33246
 C401 C 0.63680 0.28344 0.31347
 C402 C 0.67696 0.29457 0.29202
 C403 C 0.68474 0.32792 0.28949
 C404 C 0.65478 0.34932 0.30850
 H405 H 0.61638 0.47065 0.44115
 H406 H 0.65075 0.43205 0.39784
 H407 H 0.50732 0.39714 0.37180
 H408 H 0.47115 0.43824 0.41301
 H409 H 0.57608 0.29619 0.34940
 H410 H 0.62911 0.25803 0.31578
 H411 H 0.71423 0.33797 0.27286
 H412 H 0.66263 0.37471 0.30609
 C413 C 0.92964 0.54474 0.91982
 C414 C 0.91096 0.56817 0.89614
 C415 C 0.94052 0.59293 0.88265
 C416 C 0.99043 0.59301 0.89121
 C417 C 1.00998 0.56839 0.91380
 C418 C 0.97957 0.54403 0.92888
 N419 N 0.91745 0.61741 0.86089
 N420 N 0.93181 0.64638 0.85781
 C421 C 0.90309 0.66841 0.83599
 C422 C 0.90773 0.70168 0.84081
 C423 C 0.87578 0.72290 0.82241
 C424 C 0.83886 0.71109 0.79872
 C425 C 0.83591 0.67768 0.79335
 C426 C 0.86731 0.65680 0.81155
 H427 H 0.90395 0.52802 0.93227
 H428 H 0.87236 0.56805 0.88990
 H429 H 1.01393 0.61202 0.88076
 H430 H 1.04826 0.56933 0.92089
 H431 H 0.93508 0.71113 0.85963
 H432 H 0.87967 0.74841 0.82711
 H433 H 0.80893 0.66713 0.77517
 H434 H 0.86296 0.63132 0.80683
 C435 C -0.01884 0.06533 0.58529
 C436 C -0.00081 0.09084 0.60675
 C437 C 0.04819 0.09164 0.61728
 C438 C 0.07804 0.06532 0.60841
 C439 C 0.06029 0.04013 0.58657
 C440 C 0.01221 0.04032 0.57323
 N441 N 0.06786 0.11985 0.63484
 N442 N 0.11151 0.11994 0.64669
 C443 C 0.13528 0.14686 0.66355
 C444 C 0.17622 0.14062 0.68514
 C445 C 0.20155 0.16541 0.70215
 C446 C 0.18816 0.19778 0.69691
 C447 C 0.14682 0.20415 0.67469
 C448 C 0.12026 0.17882 0.65830
 H449 H -0.05624 0.06657 0.57596
 H450 H -0.02456 0.11069 0.61375
 H451 H 0.11602 0.06502 0.61644
 H452 H 0.08562 0.02194 0.57784
 H453 H 0.18793 0.11612 0.68963
 H454 H 0.23066 0.15850 0.72060
 H455 H 0.13457 0.22855 0.67048
 H456 H 0.08862 0.18416 0.64137
 C457 C 0.09623 0.42871 0.48513
 C458 C 0.13087 0.40903 0.46730
 C459 C 0.13641 0.40983 0.42797
 C460 C 0.10726 0.43078 0.40680
 C461 C 0.07296 0.45009 0.42431
 C462 C 0.06669 0.44938 0.46369
 N463 N 0.16768 0.38735 0.40913
 N464 N 0.16298 0.38416 0.37371
 C465 C 0.18718 0.36112 0.35087
 C466 C 0.16030 0.34859 0.32144
 C467 C 0.17917 0.32443 0.29931
 C468 C 0.22748 0.31367 0.30379
 C469 C 0.25544 0.32711 0.33304
 C470 C 0.23503 0.35048 0.35700
 H471 H 0.09283 0.42783 0.51555
 H472 H 0.15266 0.39279 0.48403
 H473 H 0.11043 0.43204 0.37636
 H474 H 0.05143 0.46566 0.40657
 H475 H 0.12315 0.35643 0.31697
 H476 H 0.15459 0.31365 0.27935
 H477 H 0.29209 0.31873 0.33828
 H478 H 0.25624 0.36016 0.37994
 C479 C 0.40620 0.56860 0.97853
 C480 C 0.37466 0.58967 0.95983
 C481 C 0.38043 0.59533 0.92109
 C482 C 0.41763 0.57946 0.90126
 C483 C 0.44845 0.55847 0.91961
 C484 C 0.44403 0.55303 0.95864
 N485 N 0.34941 0.61740 0.90174
 N486 N 0.36314 0.62735 0.86942
 C487 C 0.33714 0.64896 0.84599
 C488 C 0.36392 0.66462 0.81804
 C489 C 0.34161 0.68625 0.79417
 C490 C 0.29093 0.69158 0.79617
 C491 C 0.26373 0.67554 0.82447
 C492 C 0.28681 0.65433 0.84945
 H493 H 0.40000 0.56388 1.00823
 H494 H 0.34583 0.60150 0.97545
 H495 H 0.42243 0.58274 0.87114
 H496 H 0.47461 0.54569 0.90244
 H497 H 0.40283 0.66067 0.81545
 H498 H 0.36480 0.69914 0.77445
 H499 H 0.22513 0.68002 0.82803
 H500 H 0.26565 0.64220 0.87115
 C501 C 0.60838 0.07508 0.52210
 C502 C 0.63748 0.09690 0.54195
 C503 C 0.63845 0.09603 0.58147
 C504 C 0.61135 0.07254 0.60084
 C505 C 0.58295 0.05082 0.58131
 C506 C 0.58044 0.05192 0.54169
 N507 N 0.66405 0.12010 0.60217
 N508 N 0.65058 0.12574 0.63590
 C509 C 0.67228 0.14898 0.65982
 C510 C 0.64300 0.16218 0.68793
 C511 C 0.66122 0.18576 0.71141
 C512 C 0.71039 0.19545 0.70889
 C513 C 0.74035 0.18137 0.68102
 C514 C 0.72122 0.15846 0.65629
 H515 H 0.60755 0.07646 0.49160
 H516 H 0.65811 0.11499 0.52665
 H517 H 0.61170 0.07116 0.63135
 H518 H 0.56231 0.03350 0.59775
 H519 H 0.60514 0.15500 0.69067
 H520 H 0.63603 0.19681 0.73102
 H521 H 0.77796 0.18875 0.67746
 H522 H 0.74440 0.14816 0.63466
 C523 C 0.90892 0.91962 0.01468
 C524 C 0.87964 0.89764 0.03482
 C525 C 0.88266 0.89557 0.07424
 C526 C 0.91633 0.91492 0.09312
 C527 C 0.94520 0.93659 0.07332
 C528 C 0.94195 0.93955 0.03381
 N529 N 0.85179 0.87396 0.09513
 N530 N 0.85153 0.87488 0.13104
 C531 C 0.82429 0.85351 0.15472
 C532 C 0.83190 0.85488 0.19354
 C533 C 0.81152 0.83182 0.21750
 C534 C 0.78261 0.80685 0.20330
 C535 C 0.77180 0.80739 0.16429
 C536 C 0.79288 0.83024 0.14018
 H537 H 0.90467 0.92158 -0.01555
 H538 H 0.85394 0.88274 0.01982
 H539 H 0.92002 0.91370 0.12347
 H540 H 0.96951 0.95149 0.08958
 H541 H 0.85537 0.87323 0.20513
 H542 H 0.81886 0.83397 0.24697
 H543 H 0.74902 0.78913 0.15178
 H544 H 0.78593 0.82905 0.11019
 C545 C 0.89008 0.05212 0.94947
 C546 C 0.86439 0.07296 0.92610
 C547 C 0.88360 0.08241 0.89114
 C548 C 0.92836 0.06971 0.87899
 C549 C 0.95430 0.04881 0.90251
 C550 C 0.93635 0.04075 0.93880
 N551 N 0.85810 0.10650 0.87027
 N552 N 0.86961 0.11578 0.83707
 C553 C 0.84357 0.14175 0.81969
 C554 C 0.85023 0.14877 0.78123
 C555 C 0.82588 0.17480 0.76455
 C556 C 0.79495 0.19444 0.78629
 C557 C 0.78899 0.18724 0.82495
 C558 C 0.81245 0.16118 0.84126
 H559 H 0.87362 0.04535 0.97608
 H560 H 0.82962 0.08232 0.93560
 H561 H 0.94388 0.07664 0.85197
 H562 H 0.98930 0.04002 0.89281
 H563 H 0.87436 0.13415 0.76422
 H564 H 0.83181 0.17973 0.73486
 H565 H 0.76579 0.20162 0.84298
 H566 H 0.80683 0.15663 0.87107
 C567 C 0.03020 0.57817 0.56535
 C568 C 0.05345 0.59883 0.59007
 C569 C 0.08842 0.58738 0.61496
 C570 C 0.09921 0.55448 0.61567
 C571 C 0.07634 0.53360 0.59024
 C572 C 0.04217 0.54535 0.56409
 N573 N 0.11516 0.61051 0.63610
 N574 N 0.13938 0.60448 0.66574
 C575 C 0.16654 0.63001 0.68265
 C576 C 0.17034 0.63222 0.72194
 C577 C 0.19164 0.65940 0.73835
 C578 C 0.21051 0.68437 0.71559
 C579 C 0.20893 0.68089 0.67611
 C580 C 0.18696 0.65424 0.65993
 H581 H 0.00449 0.58860 0.54598
 H582 H 0.04507 0.62419 0.58916
 H583 H 0.12660 0.54524 0.63461
 H584 H 0.08644 0.50853 0.59044
 H585 H 0.15481 0.61366 0.73983
 H586 H 0.19214 0.66117 0.76874
 H587 H 0.22366 0.69906 0.65732
 H588 H 0.18518 0.65274 0.62948
 C589 C 0.60687 0.96862 0.41512
 C590 C 0.62826 0.94958 0.38701
 C591 C 0.61891 0.91659 0.38583
 C592 C 0.58963 0.90260 0.41412
 C593 C 0.56884 0.92139 0.44233
 C594 C 0.57613 0.95483 0.44290
 N595 N 0.63914 0.89752 0.35598
 N596 N 0.62410 0.86898 0.35077
 C597 C 0.64407 0.84773 0.32313
 C598 C 0.62635 0.81637 0.32215
 C599 C 0.64944 0.79328 0.30010
 C600 C 0.69115 0.80103 0.27827
 C601 C 0.70591 0.83340 0.27675
 C602 C 0.68302 0.85652 0.29932
 H603 H 0.61354 0.99421 0.41441
 H604 H 0.65114 0.96069 0.36558
 H605 H 0.58215 0.87709 0.41418
 H606 H 0.54488 0.90964 0.46240
 H607 H 0.59603 0.80937 0.34018
 H608 H 0.63601 0.76891 0.30220
 H609 H 0.73695 0.84075 0.26030
 H610 H 0.69705 0.88081 0.29935
 C611 C 0.39795 0.44802 0.05294
 C612 C 0.37364 0.42882 0.07935
 C613 C 0.39780 0.41734 0.11115
 C614 C 0.44641 0.42631 0.11720
 C615 C 0.47100 0.44537 0.09052
 C616 C 0.44770 0.45523 0.05708
 N617 N 0.37310 0.39447 0.13463
 N618 N 0.38799 0.38520 0.16680
 C619 C 0.36252 0.35984 0.18615
 C620 C 0.36777 0.35531 0.22515
 C621 C 0.34264 0.33034 0.24377
 C622 C 0.31273 0.30922 0.22336
 C623 C 0.30886 0.31367 0.18406
 C624 C 0.33288 0.33872 0.16589
 H625 H 0.37747 0.45699 0.02930
 H626 H 0.33588 0.42240 0.07471
 H627 H 0.46573 0.41777 0.14176
 H628 H 0.50870 0.45158 0.09565
 H629 H 0.39083 0.37129 0.24113
 H630 H 0.34667 0.32757 0.27396
 H631 H 0.28638 0.29819 0.16699
 H632 H 0.32866 0.34132 0.13569
 C633 C 0.51084 0.58611 0.03989
 C634 C 0.52878 0.61134 0.06181
 C635 C 0.57862 0.61344 0.06959
 C636 C 0.61089 0.59187 0.05241
 C637 C 0.59326 0.56721 0.02985
 C638 C 0.54274 0.56304 0.02466
 N639 N 0.59573 0.63604 0.09678
 N640 N 0.63280 0.62951 0.11675
 C641 C 0.65266 0.65109 0.14390
 C642 C 0.68552 0.63919 0.17035
 C643 C 0.70747 0.65969 0.19622
 C644 C 0.69819 0.69289 0.19547
 C645 C 0.66406 0.70456 0.16920
 C646 C 0.64133 0.68385 0.14382
 H647 H 0.47189 0.58380 0.03670
 H648 H 0.50352 0.62803 0.07468
 H649 H 0.64971 0.59354 0.05737
 H650 H 0.61941 0.55053 0.01813
 H651 H 0.69433 0.61389 0.17080
 H652 H 0.73253 0.64943 0.21627
 H653 H 0.65524 0.72979 0.16763
 H654 H 0.61597 0.69356 0.12354
 C655 C 0.08487 0.92521 0.96103
 C656 C 0.10486 0.90203 0.93749
 C657 C 0.07535 0.88480 0.91296
 C658 C 0.02472 0.88970 0.91355
 C659 C 0.00449 0.91333 0.93692
 C660 C 0.03459 0.93206 0.96020
 N661 N 0.09874 0.86491 0.88559
 N662 N 0.07686 0.84369 0.86638
 C663 C 0.10394 0.82641 0.83853
 C664 C 0.10009 0.79306 0.83671
 C665 C 0.13243 0.77562 0.81407
 C666 C 0.16850 0.79140 0.79216
 C667 C 0.16871 0.82515 0.79152
 C668 C 0.13752 0.84242 0.81507
 H669 H 0.10949 0.93879 0.97857
 H670 H 0.14393 0.89833 0.93730
 H671 H 0.00132 0.87661 0.89456
 H672 H -0.03417 0.91804 0.93511
 H673 H 0.07401 0.78047 0.85451
 H674 H 0.12992 0.74973 0.81484
 H675 H 0.19466 0.83838 0.77438
 H676 H 0.14032 0.86833 0.81572
 C677 C 0.43927 0.07846 0.47927
 C678 C 0.41738 0.10311 0.45928
 C679 C 0.44050 0.11664 0.42798
 C680 C 0.48810 0.10692 0.41844
 C681 C 0.51120 0.08275 0.43961
 C682 C 0.48654 0.06758 0.46993
 N683 N 0.41218 0.13785 0.40519
 N684 N 0.42402 0.14715 0.37214
 C685 C 0.39113 0.16665 0.35066
 C686 C 0.40450 0.17689 0.31441
 C687 C 0.37225 0.19507 0.29268
 C688 C 0.32551 0.20309 0.30668
 C689 C 0.31243 0.19275 0.34318
 C690 C 0.34469 0.17472 0.36485
 H691 H 0.41728 0.06673 0.50069
 H692 H 0.38051 0.11014 0.46659
 H693 H 0.50661 0.11713 0.39411
 H694 H 0.54694 0.07461 0.43077
 H695 H 0.43995 0.17073 0.30294
 H696 H 0.38400 0.20266 0.26482
 H697 H 0.27752 0.19892 0.35543
 H698 H 0.33318 0.16709 0.39277
 C699 C 0.92026 0.41842 0.51753
 C700 C 0.89790 0.39423 0.53874
 C701 C 0.92049 0.38181 0.57073
 C702 C 0.96809 0.39174 0.57936
 C703 C 0.99103 0.41573 0.55769
 C704 C 0.96650 0.43044 0.52741
 N705 N 0.89183 0.36229 0.59587
 N706 N 0.90700 0.35193 0.62749
 C707 C 0.87502 0.33476 0.65276
 C708 C 0.89412 0.31925 0.68440
 C709 C 0.86330 0.30283 0.70964
 C710 C 0.81232 0.30268 0.70460
 C711 C 0.79365 0.31793 0.67228
 C712 C 0.82446 0.33391 0.64687
 H713 H 0.89934 0.42937 0.49520
 H714 H 0.86118 0.38681 0.53185
 H715 H 0.98636 0.38236 0.60398
 H716 H 1.02631 0.42441 0.56659
 H717 H 0.93304 0.31953 0.68925
 H718 H 0.87955 0.29026 0.73315
 H719 H 0.75521 0.31698 0.66588
 H720 H 0.80863 0.34558 0.62256
 C721 C 0.92953 0.51746 0.09354
 C722 C 0.90390 0.53525 0.12068
 C723 C 0.92023 0.56575 0.13124
 C724 C 0.96316 0.57799 0.11505
 C725 C 0.98747 0.56099 0.08681
 C726 C 0.97098 0.53050 0.07533
 N727 N 0.88908 0.58625 0.15295
 N728 N 0.90598 0.60761 0.17488
 C729 C 0.87467 0.63162 0.19053
 C730 C 0.87889 0.64087 0.22832
 C731 C 0.85004 0.66583 0.24272
 C732 C 0.81791 0.68272 0.21907
 C733 C 0.81579 0.67401 0.18074
 C734 C 0.84276 0.64826 0.16696
 H735 H 0.91500 0.49442 0.08523
 H736 H 0.87028 0.52574 0.13247
 H737 H 0.97560 0.60190 0.12197
 H738 H 1.01763 0.57277 0.07259
 H739 H 0.90426 0.62865 0.24663
 H740 H 0.85362 0.67219 0.27213
 H741 H 0.79279 0.68686 0.16119
 H742 H 0.84020 0.64205 0.13740
 C743 C 0.50335 0.43486 0.58442
 C744 C 0.52113 0.41483 0.61258
 C745 C 0.56292 0.42310 0.63244
 C746 C 0.58533 0.45291 0.62544
 C747 C 0.56679 0.47351 0.59762
 C748 C 0.52581 0.46456 0.57623
 N749 N 0.58393 0.39912 0.65625
 N750 N 0.62504 0.40186 0.67232
 C751 C 0.64521 0.37536 0.69293
 C752 C 0.69144 0.37815 0.70901
 C753 C 0.71396 0.35141 0.72537
 C754 C 0.69084 0.32117 0.72549
 C755 C 0.64350 0.31896 0.71064
 C756 C 0.62101 0.34564 0.69466
 H757 H 0.47364 0.42585 0.56765
 H758 H 0.50400 0.39170 0.61731
 H759 H 0.61803 0.45969 0.64035
 H760 H 0.58599 0.49571 0.59169
 H761 H 0.71073 0.40083 0.70780
 H762 H 0.75035 0.35425 0.73626
 H763 H 0.62389 0.29642 0.71029
 H764 H 0.58519 0.34268 0.68255
 C765 C 0.07534 0.01587 0.40706
 C766 C 0.10231 0.03358 0.38000
 C767 C 0.09091 0.06585 0.37269
 C768 C 0.05053 0.07942 0.39095
 C769 C 0.02400 0.06205 0.41756
 C770 C 0.03611 0.03010 0.42666
 N771 N 0.12211 0.08572 0.34950
 N772 N 0.12281 0.11579 0.35579
 C773 C 0.15054 0.13935 0.33536
 C774 C 0.15732 0.16897 0.35263
 C775 C 0.18193 0.19367 0.33405
 C776 C 0.20052 0.18961 0.29717
 C777 C 0.19162 0.16006 0.27911
 C778 C 0.16765 0.13484 0.29832
 H779 H 0.08652 -0.00835 0.41372
 H780 H 0.13348 0.02269 0.36625
 H781 H 0.04039 0.10410 0.38564
 H782 H -0.00512 0.07452 0.43204
 H783 H 0.14328 0.17297 0.38087
 H784 H 0.18601 0.21608 0.34898
 H785 H 0.20214 0.15643 0.25007
 H786 H 0.16121 0.11237 0.28399
 C787 C 0.46522 0.96807 0.88879
 C788 C 0.44576 0.94936 0.85966
 C789 C 0.40017 0.93457 0.86420
 C790 C 0.37298 0.94054 0.89716
 C791 C 0.39243 0.95873 0.92614
 C792 C 0.43977 0.97172 0.92322
 N793 N 0.38346 0.91141 0.83729
 N794 N 0.34669 0.89409 0.84581
 C795 C 0.32708 0.86885 0.82342
 C796 C 0.29163 0.84953 0.84034
 C797 C 0.27318 0.82304 0.82168
 C798 C 0.28810 0.81579 0.78456
 C799 C 0.32399 0.83541 0.76737
 C800 C 0.34349 0.86184 0.78672
 H801 H 0.50119 0.97809 0.88496
 H802 H 0.46713 0.94526 0.83433
 H803 H 0.33717 0.93006 0.90131
 H804 H 0.37038 0.96147 0.95134
 H805 H 0.27931 0.85448 0.86885
 H806 H 0.24732 0.80809 0.83688
 H807 H 0.33810 0.82988 0.73959
 H808 H 0.37155 0.87636 0.77338
 C809 C 0.02250 0.92965 0.57063
 C810 C 0.04651 0.90842 0.59414
 C811 C 0.09563 0.91261 0.60200
 C812 C 0.12133 0.93829 0.58527
 C813 C 0.09685 0.96007 0.56162
 C814 C 0.04639 0.95682 0.55532
 N815 N 0.11740 0.88961 0.62657
 N816 N 0.16235 0.88845 0.63488
 C817 C 0.17924 0.86362 0.65969
 C818 C 0.22925 0.85892 0.66452
 C819 C 0.24607 0.83334 0.68654
 C820 C 0.21303 0.81219 0.70456
 C821 C 0.16282 0.81746 0.70010
 C822 C 0.14614 0.84286 0.67811
 H823 H -0.01533 0.92450 0.56476
 H824 H 0.02668 0.88826 0.60614
 H825 H 0.15992 0.94140 0.59029
 H826 H 0.11751 0.97905 0.54801
 H827 H 0.25522 0.87457 0.65040
 H828 H 0.28496 0.82977 0.68853
 H829 H 0.13613 0.80175 0.71328
 H830 H 0.10719 0.84592 0.67510
 C831 C 0.59151 0.53043 0.41453
 C832 C 0.62381 0.54937 0.39374
 C833 C 0.65529 0.57076 0.41190
 C834 C 0.65632 0.57107 0.45142
 C835 C 0.62354 0.55207 0.47248
 C836 C 0.58949 0.53221 0.45421
 N837 N 0.68183 0.59449 0.39057
 N838 N 0.66823 0.60140 0.35726
 C839 C 0.68999 0.62570 0.33402
 C840 C 0.73642 0.63853 0.34090
 C841 C 0.75448 0.66373 0.31835
 C842 C 0.72594 0.67683 0.28919
 C843 C 0.67948 0.66357 0.28286
 C844 C 0.66241 0.63786 0.30439
 H845 H 0.56596 0.51591 0.39901
 H846 H 0.62251 0.54836 0.36324
 H847 H 0.68045 0.58743 0.46588
 H848 H 0.62341 0.55415 0.50290
 H849 H 0.75830 0.62937 0.36380
 H850 H 0.78993 0.67365 0.32475
 H851 H 0.65531 0.67357 0.26196
 H852 H 0.62635 0.62832 0.29911
 C853 C 0.37270 0.06279 0.03124
 C854 C 0.34348 0.08246 0.05387
 C855 C 0.34824 0.08193 0.09314
 C856 C 0.38129 0.06070 0.10975
 C857 C 0.41066 0.04134 0.08731
 C858 C 0.40746 0.04239 0.04767
 N859 N 0.32308 0.10528 0.11531
 N860 N 0.32674 0.10593 0.15107
 C861 C 0.30596 0.13109 0.17315
 C862 C 0.31183 0.13062 0.21228
 C863 C 0.29778 0.15695 0.23403
 C864 C 0.27834 0.18452 0.21682
 C865 C 0.26991 0.18387 0.17762
 C866 C 0.28367 0.15754 0.15604
 H867 H 0.36909 0.06446 0.00092
 H868 H 0.31827 0.09894 0.04074
 H869 H 0.38598 0.06000 0.14004
 H870 H 0.43723 0.02644 0.10127
 H871 H 0.32843 0.11010 0.22584
 H872 H 0.30209 0.15539 0.26417
 H873 H 0.25368 0.20401 0.16310
 H874 H 0.27838 0.15837 0.12582
 C875 C 0.93819 0.47170 0.90526
 C876 C 0.90977 0.45387 0.88078
 C877 C 0.87573 0.43197 0.89477
 C878 C 0.86871 0.42895 0.93395
 C879 C 0.89751 0.44684 0.95876
 C880 C 0.93356 0.46797 0.94469
 N881 N 0.85319 0.41088 0.86847
 N882 N 0.81846 0.39188 0.87697
 C883 C 0.80116 0.36931 0.84983
 C884 C 0.75752 0.35287 0.85654
 C885 C 0.74243 0.32874 0.83195
 C886 C 0.77136 0.32011 0.80044
 C887 C 0.81469 0.33723 0.79368
 C888 C 0.82919 0.36173 0.81776
 H889 H 0.96545 0.48737 0.89289
 H890 H 0.91572 0.45618 0.85064
 H891 H 0.84266 0.41185 0.94533
 H892 H 0.89274 0.44317 0.98881
 H893 H 0.73564 0.35834 0.88125
 H894 H 0.70891 0.31613 0.83864
 H895 H 0.83843 0.33136 0.77053
 H896 H 0.86345 0.37386 0.81209
 C897 C 0.55436 0.03287 0.89802
 C898 C 0.57607 0.05503 0.87337
 C899 C 0.55938 0.08663 0.87177
 C900 C 0.51752 0.09509 0.89230
 C901 C 0.49520 0.07277 0.91642
 C902 C 0.51505 0.04178 0.92140
 N903 N 0.58788 0.10996 0.85159
 N904 N 0.58094 0.14006 0.85450
 C905 C 0.61216 0.16266 0.83542
 C906 C 0.60426 0.19565 0.83968
 C907 C 0.63524 0.21801 0.82190
 C908 C 0.67483 0.20769 0.79952
 C909 C 0.68239 0.17441 0.79573
 C910 C 0.65164 0.15228 0.81334
 H911 H 0.57003 0.00936 0.89947
 H912 H 0.60789 0.04805 0.85711
 H913 H 0.50332 0.11926 0.89095
 H914 H 0.46437 0.08073 0.93317
 H915 H 0.57406 0.20404 0.85682
 H916 H 0.62783 0.24330 0.82550
 H917 H 0.71143 0.16505 0.77826
 H918 H 0.65876 0.12698 0.80952
 C919 C 0.47963 0.54139 0.60457
 C920 C 0.46540 0.56466 0.63100
 C921 C 0.43471 0.58991 0.62032
 C922 C 0.41647 0.59081 0.58367
 C923 C 0.42907 0.56722 0.55788
 C924 C 0.46151 0.54229 0.56754
 N925 N 0.41879 0.61317 0.64727
 N926 N 0.40803 0.64163 0.63707
 C927 C 0.38402 0.66346 0.66207
 C928 C 0.35335 0.65167 0.69057
 C929 C 0.32385 0.67241 0.71100
 C930 C 0.32549 0.70589 0.70490
 C931 C 0.35726 0.71775 0.67670
 C932 C 0.38575 0.69660 0.65509
 H933 H 0.50481 0.52298 0.61315
 H934 H 0.47907 0.56340 0.65953
 H935 H 0.39169 0.60961 0.57512
 H936 H 0.41415 0.56942 0.52984
 H937 H 0.35018 0.62613 0.69569
 H938 H 0.29906 0.66168 0.73121
 H939 H 0.35903 0.74317 0.67051
 H940 H 0.40856 0.70597 0.63251
 C941 C 0.00546 0.43629 0.08585
 C942 C 0.01985 0.41052 0.10868
 C943 C 0.06919 0.40540 0.11627
 C944 C 0.10391 0.42717 0.10172
 C945 C 0.08974 0.45248 0.07838
 C946 C 0.04038 0.45717 0.06948
 N947 N 0.08379 0.37795 0.13809
 N948 N 0.12669 0.37672 0.15132
 C949 C 0.14607 0.35079 0.17304
 C950 C 0.18489 0.35796 0.19639
 C951 C 0.20750 0.33409 0.21702
 C952 C 0.19343 0.30157 0.21413
 C953 C 0.15371 0.29426 0.19060
 C954 C 0.12978 0.31881 0.17036
 H955 H -0.03289 0.43876 0.07957
 H956 H -0.00743 0.39417 0.11988
 H957 H 0.14237 0.42389 0.10709
 H958 H 0.11792 0.46744 0.06589
 H959 H 0.19762 0.38248 0.19883
 H960 H 0.23616 0.34176 0.23557
 H961 H 0.14139 0.26972 0.18767
 H962 H 0.09979 0.31278 0.15203
 C963 C 0.98931 0.94399 0.40539
 C964 C 0.97505 0.91918 0.38122
 C965 C 0.92570 0.91129 0.37740
 C966 C 0.89051 0.93049 0.39532
 C967 C 0.90461 0.95549 0.41898
 C968 C 0.95428 0.96165 0.42583
 N969 N 0.91198 0.88284 0.35726
 N970 N 0.87003 0.87028 0.36238
 C971 C 0.85297 0.84218 0.34333
 C972 C 0.80612 0.83107 0.35195
 C973 C 0.78563 0.80588 0.33172
 C974 C 0.81098 0.79183 0.30133
 C975 C 0.86020 0.80065 0.29548
 C976 C 0.88081 0.82609 0.31585
 H977 H 1.02784 0.94787 0.40977
 H978 H 1.00264 0.90488 0.36724
 H979 H 0.85204 0.92541 0.39216
 H980 H 0.87633 0.96868 0.43364
 H981 H 0.78477 0.84263 0.37383
 H982 H 0.74901 0.79839 0.33915
 H983 H 0.88164 0.78955 0.27335
 H984 H 0.91763 0.83380 0.30930
 C985 C 0.90271 0.57759 0.51906
 C986 C 0.87503 0.60039 0.53891
 C987 C 0.87146 0.59877 0.57838
 C988 C 0.89335 0.57330 0.59754
 C989 C 0.92008 0.55056 0.57803
 C990 C 0.92640 0.55273 0.53858
 N991 N 0.84810 0.62365 0.59946
 N992 N 0.86391 0.63008 0.63223
 C993 C 0.84243 0.65311 0.65681
 C994 C 0.87236 0.66840 0.68281
 C995 C 0.85306 0.69083 0.70768
 C996 C 0.80269 0.69724 0.70848
 C997 C 0.77242 0.68102 0.68280
 C998 C 0.79226 0.65936 0.65684
 H999 H 0.90631 0.57979 0.48874
 H1000 H 0.85803 0.61992 0.52375
 H1001 H 0.89044 0.57128 0.62795
 H1002 H 0.93718 0.53194 0.59457
 H1003 H 0.91111 0.66349 0.68308
 H1004 H 0.87796 0.70338 0.72602
 H1005 H 0.73363 0.68559 0.68198
 H1006 H 0.76855 0.64725 0.63719
 C1007 C 0.54103 0.40762 0.03730
 C1008 C 0.56386 0.38557 0.06095
 C1009 C 0.60964 0.39242 0.07597
 C1010 C 0.63414 0.42050 0.06499
 C1011 C 0.61128 0.44268 0.04167
 C1012 C 0.56345 0.43722 0.02890
 N1013 N 0.62833 0.37205 0.10483
 N1014 N 0.66985 0.37656 0.11967
 C1015 C 0.68563 0.35668 0.15006
 C1016 C 0.73544 0.35250 0.15632
 C1017 C 0.75125 0.33001 0.18287
 C1018 C 0.71721 0.31197 0.20410
 C1019 C 0.66722 0.31845 0.19972
 C1020 C 0.65162 0.34039 0.17283
 H1021 H 0.50436 0.40241 0.02818
 H1022 H 0.54476 0.36384 0.06918
 H1023 H 0.66983 0.42613 0.07602
 H1024 H 0.63034 0.46489 0.03559
 H1025 H 0.76197 0.36528 0.13912
 H1026 H 0.78992 0.32554 0.18502
 H1027 H 0.63973 0.30539 0.21565
 H1028 H 0.61287 0.34394 0.16905
 C1029 C 0.46647 0.94365 0.41754
 C1030 C 0.44067 0.92327 0.39443
 C1031 C 0.40217 0.90522 0.40871
 C1032 C 0.38982 0.90727 0.44725
 C1033 C 0.41710 0.92733 0.47120
 C1034 C 0.45642 0.94553 0.45662
 N1035 N 0.37828 0.88463 0.38264
 N1036 N 0.33556 0.87314 0.38632
 C1037 C 0.31714 0.85271 0.35716
 C1038 C 0.26784 0.84409 0.35671
 C1039 C 0.25025 0.82331 0.32893
 C1040 C 0.28187 0.81058 0.30118
 C1041 C 0.33115 0.81994 0.30156
 C1042 C 0.34839 0.84091 0.32881
 H1043 H 0.49449 0.95803 0.40407
 H1044 H 0.45021 0.92197 0.36475
 H1045 H 0.35983 0.89329 0.45873
 H1046 H 0.40700 0.92896 0.50070
 H1047 H 0.24324 0.85300 0.37827
 H1048 H 0.21235 0.81613 0.33041
 H1049 H 0.35725 0.81000 0.28179
 H1050 H 0.38679 0.84699 0.32839
 C1051 C 0.03111 0.08622 0.94925
 C1052 C 0.05333 0.10858 0.92521
 C1053 C 0.10024 0.10313 0.91104
 C1054 C 0.12597 0.07592 0.92280
 C1055 C 0.10356 0.05331 0.94631
 C1056 C 0.05501 0.05748 0.95866
 N1057 N 0.11966 0.12434 0.88291
 N1058 N 0.16383 0.12289 0.87183
 C1059 C 0.18162 0.14337 0.84240
 C1060 C 0.23057 0.15257 0.84211
 C1061 C 0.24747 0.17529 0.81606
 C1062 C 0.21611 0.18812 0.78857
 C1063 C 0.16743 0.17725 0.78788
 C1064 C 0.15031 0.15528 0.81465
 H1065 H -0.00581 0.09078 0.95863
 H1066 H 0.03331 0.12968 0.91658
 H1067 H 0.16252 0.07135 0.91242
 H1068 H 0.12386 0.03190 0.95323
 H1069 H 0.25495 0.14358 0.86355
 H1070 H 0.28437 0.18399 0.81907
 H1071 H 0.14170 0.18683 0.76781
 H1072 H 0.11236 0.14809 0.81419
 C1073 C 0.05426 0.91939 0.04864
 C1074 C 0.07667 0.89874 0.07390
 C1075 C 0.10198 0.91059 0.10474
 C1076 C 0.10545 0.94392 0.10988
 C1077 C 0.08388 0.96498 0.08367
 C1078 C 0.05806 0.95293 0.05242
 N1079 N 0.12538 0.88761 0.12854
 N1080 N 0.13761 0.89176 0.16277
 C1081 C 0.16164 0.86592 0.18217
 C1082 C 0.16001 0.86339 0.22170
 C1083 C 0.18032 0.83656 0.24004
 C1084 C 0.20322 0.81213 0.21907
 C1085 C 0.20560 0.81556 0.17949
 C1086 C 0.18522 0.84187 0.16147
 H1087 H 0.03267 0.90856 0.02682
 H1088 H 0.07351 0.87309 0.06979
 H1089 H 0.12531 0.95356 0.13355
 H1090 H 0.08688 0.99056 0.08814
 H1091 H 0.14194 0.88171 0.23820
 H1092 H 0.17780 0.83488 0.27043
 H1093 H 0.22349 0.79802 0.16182
 H1094 H 0.18781 0.84331 0.13100
 C1095 C 0.92505 0.47326 0.40461
 C1096 C 0.90640 0.45516 0.37477
 C1097 C 0.91214 0.42186 0.37423
 C1098 C 0.93903 0.40703 0.40295
 C1099 C 0.95883 0.42515 0.43216
 C1100 C 0.95080 0.45844 0.43423
 N1101 N 0.88754 0.40314 0.34627
 N1102 N 0.87187 0.37535 0.35509
 C1103 C 0.84580 0.35454 0.33036
 C1104 C 0.81306 0.33316 0.34696
 C1105 C 0.78849 0.31083 0.32533
 C1106 C 0.79694 0.30834 0.28605
 C1107 C 0.82981 0.33023 0.26910
 C1108 C 0.85368 0.35356 0.29108
 H1109 H 0.91897 0.49889 0.40438
 H1110 H 0.88582 0.46698 0.35281
 H1111 H 0.94458 0.38133 0.40282
 H1112 H 0.98007 0.41286 0.45329
 H1113 H 0.80663 0.33375 0.37715
 H1114 H 0.76330 0.29511 0.34009
 H1115 H 0.83805 0.32884 0.23928
 H1116 H 0.87948 0.36983 0.27781
 C1117 C 0.47590 0.07715 0.56047
 C1118 C 0.45425 0.09873 0.58499
 C1119 C 0.42031 0.08847 0.61174
 C1120 C 0.40818 0.05570 0.61401
 C1121 C 0.42939 0.03373 0.58846
 C1122 C 0.46314 0.04433 0.56078
 N1123 N 0.39593 0.11290 0.63285
 N1124 N 0.37793 0.10991 0.66590
 C1125 C 0.35353 0.13704 0.68237
 C1126 C 0.35056 0.14074 0.72163
 C1127 C 0.32834 0.16805 0.73734
 C1128 C 0.30725 0.19163 0.71405
 C1129 C 0.31112 0.18766 0.67462
 C1130 C 0.33385 0.16095 0.65914
 H1131 H 0.50183 0.08691 0.54042
 H1132 H 0.46363 0.12393 0.58279
 H1133 H 0.38133 0.04738 0.63439
 H1134 H 0.41900 0.00870 0.59009
 H1135 H 0.36614 0.12277 0.74003
 H1136 H 0.32741 0.17042 0.76757
 H1137 H 0.29552 0.20473 0.65515
 H1138 H 0.33540 0.15877 0.62872
 C1139 C 0.58010 0.52232 0.89890
 C1140 C 0.60185 0.54052 0.86993
 C1141 C 0.60555 0.57384 0.87323
 C1142 C 0.58579 0.58884 0.90527
 C1143 C 0.56335 0.57087 0.93373
 C1144 C 0.56086 0.53725 0.93146
 N1145 N 0.63111 0.59236 0.84513
 N1146 N 0.65220 0.61799 0.85547
 C1147 C 0.67798 0.63992 0.83152
 C1148 C 0.70985 0.66083 0.84917
 C1149 C 0.73174 0.68560 0.82922
 C1150 C 0.72212 0.69063 0.79057
 C1151 C 0.69109 0.66877 0.77223
 C1152 C 0.66916 0.64333 0.79264
 H1153 H 0.57796 0.49657 0.89549
 H1154 H 0.61676 0.52859 0.84535
 H1155 H 0.58723 0.61467 0.90811
 H1156 H 0.54676 0.58374 0.95678
 H1157 H 0.71676 0.65841 0.87910
 H1158 H 0.75550 0.70130 0.84492
 H1159 H 0.68258 0.67193 0.74269
 H1160 H 0.64398 0.62740 0.77862
 C1161 C 0.50042 0.40659 0.94665
 C1162 C 0.48305 0.38173 0.92384
 C1163 C 0.43293 0.37789 0.91826
 C1164 C 0.40031 0.39794 0.93768
 C1165 C 0.41749 0.42288 0.95985
 C1166 C 0.46778 0.42819 0.96400
 N1167 N 0.41556 0.35581 0.89046
 N1168 N 0.36999 0.35322 0.88480
 C1169 C 0.34856 0.33367 0.85639
 C1170 C 0.29797 0.33093 0.85638
 C1171 C 0.27457 0.31344 0.82859
 C1172 C 0.30108 0.29915 0.79889
 C1173 C 0.35247 0.30093 0.79988
 C1174 C 0.37608 0.31839 0.82817
 H1175 H 0.53944 0.40993 0.94892
 H1176 H 0.50871 0.36643 0.90915
 H1177 H 0.36132 0.39561 0.93401
 H1178 H 0.39089 0.43922 0.97132
 H1179 H 0.27650 0.34221 0.87840
 H1180 H 0.23557 0.31057 0.83129
 H1181 H 0.37444 0.28891 0.77876
 H1182 H 0.41546 0.32007 0.82789
 C1183 C 0.99826 0.09001 0.03796
 C1184 C 0.98309 0.11702 0.05843
 C1185 C 0.93506 0.11907 0.07188
 C1186 C 0.90182 0.09469 0.06288
 C1187 C 0.91671 0.06803 0.04257
 C1188 C 0.96516 0.06507 0.02980
 N1189 N 0.92082 0.14415 0.09725
 N1190 N 0.88522 0.13874 0.11961
 C1191 C 0.86496 0.16082 0.14601
 C1192 C 0.83092 0.14864 0.17161
 C1193 C 0.80656 0.16881 0.19628
 C1194 C 0.81513 0.20212 0.19596
 C1195 C 0.85058 0.21436 0.17056
 C1196 C 0.87553 0.19379 0.14572
 H1197 H 1.03622 0.08819 0.02973
 H1198 H 1.00931 0.13548 0.06539
 H1199 H 0.86440 0.09567 0.07277
 H1200 H 0.89021 0.04916 0.03859
 H1201 H 0.82263 0.12322 0.17203
 H1202 H 0.78065 0.15783 0.21542
 H1203 H 0.85832 0.23981 0.16925
 H1204 H 0.90175 0.20364 0.12581
 C1205 C 0.50716 0.90834 0.54862
 C1206 C 0.52088 0.88232 0.57145
 C1207 C 0.57019 0.87674 0.57907
 C1208 C 0.60572 0.89549 0.56074
 C1209 C 0.59223 0.92082 0.53727
 C1210 C 0.54272 0.92869 0.53230
 N1211 N 0.58410 0.85390 0.60740
 N1212 N 0.61843 0.86101 0.62989
 C1213 C 0.63742 0.83991 0.65816
 C1214 C 0.66504 0.85329 0.68703
 C1215 C 0.68964 0.83379 0.71257
 C1216 C 0.68850 0.80012 0.70932
 C1217 C 0.65862 0.78670 0.68118
 C1218 C 0.63308 0.80642 0.65592
 H1219 H 0.46879 0.91351 0.54556
 H1220 H 0.49302 0.86789 0.58520
 H1221 H 0.64405 0.89113 0.56562
 H1222 H 0.62098 0.93527 0.52474
 H1223 H 0.66880 0.87909 0.68902
 H1224 H 0.71192 0.84546 0.73343
 H1225 H 0.65642 0.76098 0.67756
 H1226 H 0.61205 0.79555 0.63363
 C1227 C 0.07006 0.58417 0.48248
 C1228 C 0.09089 0.60925 0.46188
 C1229 C 0.06771 0.62141 0.43003
 C1230 C 0.02097 0.61030 0.42089
 C1231 C -0.00080 0.58573 0.44229
 C1232 C 0.02431 0.57143 0.47260
 N1233 N 0.09513 0.64232 0.40580
 N1234 N 0.08271 0.64977 0.37237
 C1235 C 0.11463 0.66887 0.34909
 C1236 C 0.10107 0.67718 0.31230
 C1237 C 0.13301 0.69478 0.28896
 C1238 C 0.17943 0.70394 0.30194
 C1239 C 0.19237 0.69559 0.33902
 C1240 C 0.16061 0.67830 0.36217
 H1241 H 0.09170 0.57338 0.50448
 H1242 H 0.12710 0.61756 0.46902
 H1243 H 0.00236 0.61953 0.39634
 H1244 H -0.03563 0.57643 0.43323
 H1245 H 0.06583 0.66995 0.30169
 H1246 H 0.12146 0.70105 0.26075
 H1247 H 0.22683 0.70276 0.35079
 H1248 H 0.17226 0.67226 0.39042
   
