data_POSCAR
  _audit_creation_date              2014-09-24
  _audit_creation_method            'ToBaCCo'
  _symmetry_space_group_name_H-M    'P1'
  _symmetry_Int_Tables_number       1
  _symmetry_cell_setting            triclinic
  loop_
  _symmetry_equiv_pos_as_xyz
 x,y,z
_cell_length_a 41.3610
_cell_length_b 44.9555
_cell_length_c 54.3714
_cell_angle_alpha 89.539300
_cell_angle_beta 89.999600
_cell_angle_gamma 90.000000
loop_
  _atom_site_label
  _atom_site_type_symbol
  _atom_site_fract_x
  _atom_site_fract_y
  _atom_site_fract_z
B1 B 0.26199 0.23530 0.22509
 B2 B 0.26612 0.27138 0.23207
 B3 B 0.22979 0.25771 0.22469
 B4 B 0.22632 0.22290 0.23630
 B5 B 0.26178 0.21527 0.25121
 B6 B 0.28655 0.24553 0.24830
 B7 B 0.23329 0.26260 0.27394
 B8 B 0.22913 0.22655 0.26699
 B9 B 0.26555 0.24012 0.27425
 B10 B 0.26890 0.27498 0.26273
 B11 B 0.23337 0.28263 0.24774
 B12 B 0.20864 0.25238 0.25069
 B13 B 0.73340 0.76151 0.27287
 B14 B 0.77037 0.77353 0.26516
 B15 B 0.76519 0.73852 0.27506
 B16 B 0.72955 0.72567 0.26436
 B17 B 0.71293 0.75376 0.24720
 B18 B 0.73843 0.78369 0.24788
 B19 B 0.77010 0.73808 0.22573
 B20 B 0.73323 0.72589 0.23358
 B21 B 0.73836 0.76095 0.22365
 B22 B 0.77405 0.77382 0.23435
 B23 B 0.79069 0.74571 0.25150
 B24 B 0.76527 0.71576 0.25072
 B25 B 0.73868 0.23816 -0.22276
 B26 B 0.73350 0.27321 -0.23270
 B27 B 0.77040 0.26106 -0.22487
 B28 B 0.77438 0.22531 -0.23348
 B29 B 0.73876 0.21541 -0.24698
 B30 B 0.71322 0.24532 -0.24630
 B31 B 0.76544 0.26060 -0.27419
 B32 B 0.77066 0.22560 -0.26428
 B33 B 0.73368 0.23758 -0.27197
 B34 B 0.72980 0.27342 -0.26348
 B35 B 0.76552 0.28336 -0.24986
 B36 B 0.79097 0.25344 -0.25064
 B37 B 0.26527 0.75958 -0.27323
 B38 B 0.22883 0.77314 -0.26600
 B39 B 0.23301 0.73709 -0.27291
 B40 B 0.26863 0.72474 -0.26168
 B41 B 0.28626 0.75421 -0.24728
 B42 B 0.26148 0.78446 -0.25022
 B43 B 0.22949 0.74205 -0.22367
 B44 B 0.26584 0.72838 -0.23103
 B45 B 0.26169 0.76447 -0.22408
 B46 B 0.22602 0.77684 -0.23531
 B47 B 0.20835 0.74733 -0.24967
 B48 B 0.23309 0.71709 -0.24668
 B49 B 1.23521 1.26058 0.72568
 B50 B 1.23013 1.22552 0.73549
 B51 B 1.26704 1.23763 0.72773
 B52 B 1.27087 1.27344 0.73633
 B53 B 1.23518 1.28323 0.75010
 B54 B 1.20982 1.25325 0.74928
 B55 B 1.26229 1.23796 0.77696
 B56 B 1.26732 1.27307 0.76712
 B57 B 1.23050 1.26079 0.77503
 B58 B 1.22657 1.22508 0.76630
 B59 B 1.26215 1.21533 0.75266
 B60 B 1.28761 1.24530 0.75338
 B61 B 0.77136 0.74176 0.77644
 B62 B 0.73497 0.72817 0.76909
 B63 B 0.73918 0.76421 0.77617
 B64 B 0.77483 0.77662 0.76493
 B65 B 0.79242 0.74718 0.75041
 B66 B 0.76765 0.71695 0.75332
 B67 B 0.73544 0.75962 0.72701
 B68 B 0.77191 0.77311 0.73423
 B69 B 0.76767 0.73710 0.72719
 B70 B 0.73208 0.72472 0.73843
 B71 B 0.71452 0.75412 0.75298
 B72 B 0.73933 0.78436 0.75012
 B73 B 1.23548 0.73851 0.27518
 B74 B 1.23039 0.77358 0.26539
 B75 B 1.26731 0.76148 0.27313
 B76 B 1.27114 0.72568 0.26449
 B77 B 1.23545 0.71590 0.25074
 B78 B 1.21008 0.74587 0.25159
 B79 B 1.26252 0.76121 0.22390
 B80 B 1.26756 0.72608 0.23371
 B81 B 1.23074 0.73836 0.22583
 B82 B 1.22681 0.77406 0.23458
 B83 B 1.26240 0.78381 0.24822
 B84 B 1.28786 0.75384 0.24746
 B85 B 0.77111 1.25799 0.22458
 B86 B 0.73471 1.27156 0.23192
 B87 B 0.73895 1.23552 0.22481
 B88 B 0.77459 1.22312 0.23607
 B89 B 0.79215 1.25255 0.25061
 B90 B 0.76738 1.28278 0.24771
 B91 B 0.73516 1.24007 0.27398
 B92 B 0.77164 1.22660 0.26676
 B93 B 0.76738 1.26260 0.27383
 B94 B 0.73179 1.27498 0.26258
 B95 B 0.71426 1.24559 0.24800
 B96 B 0.73908 1.21535 0.25085
 N97 N 0.55824 1.03006 0.02761
 N98 N 0.58080 1.04970 0.03315
 N99 N 0.53543 0.96694 0.04345
 N100 N 0.54177 0.94625 0.06014
 N101 N 0.55823 0.96770 0.02662
 N102 N 0.58084 0.94777 0.03159
 N103 N 0.53549 1.02965 0.04448
 N104 N 0.54184 1.04921 0.06181
 C105 C 0.57001 1.06171 0.05437
 C106 C 0.56999 0.93432 0.05237
 N107 N 0.44282 0.96775 0.02663
 N108 N 0.42016 0.94787 0.03162
 N109 N 0.46562 1.02967 0.04449
 N110 N 0.45926 1.04919 0.06185
 N111 N 0.44287 1.03011 0.02761
 N112 N 0.42030 1.04974 0.03319
 N113 N 0.46561 0.96697 0.04345
 N114 N 0.45924 0.94633 0.06017
 Mn115 Mn 0.50054 0.99830 0.04418
 C116 C 0.43100 0.93442 0.05241
 C117 C 0.43110 1.06172 0.05442
 N118 N 0.55822 0.96947 -0.02659
 N119 N 0.58079 0.94983 -0.03215
 N120 N 0.53547 1.03260 -0.04243
 N121 N 0.54185 1.05327 -0.05913
 N122 N 0.55826 1.03182 -0.02560
 N123 N 0.58091 1.05171 -0.03057
 N124 N 0.53547 0.96989 -0.04346
 N125 N 0.54182 0.95035 -0.06081
 Mn126 Mn 0.55850 0.99976 0.00051
 C127 C 0.56999 0.93784 -0.05338
 C128 C 0.57009 1.06517 -0.05136
 N129 N 0.44286 1.03187 -0.02561
 N130 N 0.42020 1.05174 -0.03062
 N131 N 0.46559 0.96992 -0.04347
 N132 N 0.45919 0.95043 -0.06085
 N133 N 0.44284 0.96951 -0.02660
 N134 N 0.42023 0.94993 -0.03219
 N135 N 0.46565 1.03262 -0.04244
 N136 N 0.45926 1.05325 -0.05917
 Mn137 Mn 0.44258 0.99981 0.00051
 Mn138 Mn 0.50054 1.00127 -0.04316
 Cl139 Cl 0.50054 0.99979 0.00051
 C140 C 0.43103 1.06516 -0.05142
 C141 C 0.43101 0.93794 -0.05343
 N142 N 1.05784 0.52995 0.52772
 N143 N 1.08029 0.54968 0.53340
 N144 N 1.03495 0.46674 0.54335
 N145 N 1.04126 0.44614 0.56011
 N146 N 1.05787 0.46756 0.52661
 N147 N 1.08056 0.44774 0.53175
 N148 N 1.03497 0.52944 0.54450
 N149 N 1.04109 0.54899 0.56187
 C150 C 1.06924 0.56162 0.55460
 C151 C 1.06959 0.43429 0.55251
 N152 N 0.94225 0.46758 0.52662
 N153 N 0.91958 0.44774 0.53173
 N154 N 0.96519 0.52945 0.54450
 N155 N 0.95913 0.54905 0.56184
 N156 N 0.94232 0.52997 0.52772
 N157 N 0.91992 0.54975 0.53338
 N158 N 0.96518 0.46675 0.54334
 N159 N 0.95890 0.44612 0.56008
 Mn160 Mn 1.00007 0.49809 0.54411
 C161 C 0.93057 0.43427 0.55248
 C162 C 0.93099 0.56170 0.55456
 N163 N 1.05782 0.46949 0.47331
 N164 N 1.08027 0.44976 0.46763
 N165 N 1.03497 0.53270 0.45768
 N166 N 1.04131 0.55326 0.44089
 N167 N 1.05788 0.53188 0.47441
 N168 N 1.08061 0.55165 0.46925
 N169 N 1.03496 0.47000 0.45653
 N170 N 1.04108 0.45047 0.43915
 Mn171 Mn 1.05814 0.49972 0.50052
 C172 C 1.06924 0.43784 0.44643
 C173 C 1.06966 0.56509 0.44847
 N174 N 0.94227 0.53191 0.47441
 N175 N 0.91958 0.55172 0.46927
 N176 N 0.96517 0.47002 0.45653
 N177 N 0.95907 0.45045 0.43918
 N178 N 0.94230 0.46952 0.47331
 N179 N 0.91987 0.44977 0.46765
 N180 N 0.96519 0.53272 0.45768
 N181 N 0.95890 0.55333 0.44092
 Mn182 Mn 0.94200 0.49975 0.50051
 Mn183 Mn 1.00007 0.50137 0.45691
 Cl184 Cl 1.00007 0.49973 0.50051
 C185 C 0.93056 0.56518 0.44851
 C186 C 0.93092 0.43782 0.44646
 N187 N 1.05872 0.53021 0.02754
 N188 N 1.08019 0.55109 0.03269
 N189 N 1.03574 0.46701 0.04325
 N190 N 1.04078 0.44553 0.05943
 N191 N 1.05878 0.46753 0.02663
 N192 N 1.08031 0.44641 0.03122
 N193 N 1.03574 0.52960 0.04421
 N194 N 1.04079 0.55004 0.06102
 C195 C 1.06841 0.56340 0.05355
 C196 C 1.06848 0.43273 0.05166
 N197 N 0.94321 0.46751 0.02662
 N198 N 0.92163 0.44644 0.03125
 N199 N 0.96620 0.52958 0.04421
 N200 N 0.96106 0.54994 0.06107
 N201 N 0.94323 0.53018 0.02753
 N202 N 0.92168 0.55098 0.03273
 N203 N 0.96624 0.46700 0.04325
 N204 N 0.96113 0.44558 0.05948
 Mn205 Mn 1.00098 0.49829 0.04391
 C206 C 0.93341 0.43281 0.05172
 C207 C 0.93339 0.56325 0.05363
 N208 N 1.05874 0.46923 -0.02671
 N209 N 1.08022 0.44836 -0.03187
 N210 N 1.03573 0.53242 -0.04242
 N211 N 1.04073 0.55393 -0.05857
 N212 N 1.05876 0.53191 -0.02579
 N213 N 1.08026 0.55307 -0.03035
 N214 N 1.03576 0.46983 -0.04338
 N215 N 1.04081 0.44939 -0.06018
 Mn216 Mn 1.05918 0.49972 0.00042
 C217 C 1.06844 0.43604 -0.05272
 C218 C 1.06842 0.56676 -0.05078
 N219 N 0.94320 0.53188 -0.02578
 N220 N 0.92163 0.55296 -0.03039
 N221 N 0.96623 0.46982 -0.04338
 N222 N 0.96112 0.44945 -0.06024
 N223 N 0.94326 0.46920 -0.02671
 N224 N 0.92174 0.44838 -0.03191
 N225 N 0.96623 0.53239 -0.04242
 N226 N 0.96113 0.55383 -0.05863
 Mn227 Mn 0.94280 0.49969 0.00041
 Mn228 Mn 1.00099 0.50112 -0.04308
 Cl229 Cl 1.00099 0.49971 0.00042
 C230 C 0.93341 0.56660 -0.05086
 C231 C 0.93347 0.43612 -0.05280
 N232 N 0.46651 1.03263 0.45700
 N233 N 0.44613 1.03990 0.43927
 N234 N 0.53448 1.05295 0.47425
 N235 N 0.55509 1.07446 0.46872
 N236 N 0.53436 1.03263 0.45701
 N237 N 0.55471 1.03992 0.43926
 N238 N 0.46638 1.05294 0.47425
 N239 N 0.44571 1.07441 0.46875
 C240 C 0.43293 1.06571 0.44706
 C241 C 0.56787 1.06576 0.44702
 N242 N 0.53436 1.03107 0.54429
 N243 N 0.55457 1.03780 0.56219
 N244 N 0.46642 1.05203 0.52729
 N245 N 0.44598 1.07343 0.53315
 N246 N 0.46648 1.03106 0.54428
 N247 N 0.44621 1.03776 0.56215
 N248 N 0.53442 1.05205 0.52731
 N249 N 0.55479 1.07349 0.53321
 Mn250 Mn 0.50043 1.05270 0.50077
 C251 C 0.56754 1.06404 0.55482
 C252 C 0.43321 1.06397 0.55474
 N253 N 0.53439 0.96822 0.45662
 N254 N 0.55457 0.96148 0.43871
 N255 N 0.46643 0.94726 0.47361
 N256 N 0.44603 0.92584 0.46774
 N257 N 0.46650 0.96822 0.45662
 N258 N 0.44628 0.96148 0.43873
 N259 N 0.53445 0.94725 0.47360
 N260 N 0.55481 0.92580 0.46769
 Mn261 Mn 0.50044 1.00043 0.45665
 C262 C 0.56754 0.93524 0.44607
 C263 C 0.43329 0.93526 0.44612
 N264 N 0.46650 0.96665 0.54388
 N265 N 0.44611 0.95939 0.56161
 N266 N 0.53449 0.94633 0.52665
 N267 N 0.55513 0.92485 0.53217
 N268 N 0.53436 0.96666 0.54389
 N269 N 0.55473 0.95939 0.56163
 N270 N 0.46639 0.94634 0.52664
 N271 N 0.44571 0.92487 0.53213
 Mn272 Mn 0.50043 0.99885 0.54425
 Mn273 Mn 0.50044 0.94658 0.50013
 Cl274 Cl 0.50044 0.99965 0.50045
 C275 C 0.43291 0.93359 0.55382
 C276 C 0.56791 0.93357 0.55386
 N277 N 1.05787 1.02527 0.53048
 N278 N 1.07963 1.04454 0.53828
 N279 N 1.03451 0.96032 0.53873
 N280 N 1.04063 0.93803 0.55382
 N281 N 1.05813 0.96383 0.52284
 N282 N 1.08143 0.94432 0.52718
 N283 N 1.03467 1.02203 0.54676
 N284 N 1.03969 1.03918 0.56589
 C285 C 1.06761 1.05321 0.56027
 C286 C 1.06965 0.92799 0.54622
 N287 N 0.94206 0.96385 0.52283
 N288 N 0.91874 0.94434 0.52717
 N289 N 0.96554 1.02204 0.54675
 N290 N 0.96054 1.03921 0.56587
 N291 N 0.94234 1.02529 0.53047
 N292 N 0.92059 1.04458 0.53826
 N293 N 0.96568 0.96033 0.53872
 N294 N 0.95956 0.93803 0.55380
 Mn295 Mn 1.00010 0.99115 0.54290
 C296 C 0.93053 0.92801 0.54622
 C297 C 0.93264 1.05325 0.56025
 N298 N 1.05787 0.97398 0.47018
 N299 N 1.07963 0.95470 0.46240
 N300 N 1.03455 1.03893 0.46191
 N301 N 1.04069 1.06122 0.44683
 N302 N 1.05814 1.03543 0.47782
 N303 N 1.08146 1.05493 0.47349
 N304 N 1.03468 0.97723 0.45389
 N305 N 1.03971 0.96007 0.43477
 Mn306 Mn 1.05843 0.99962 0.50033
 C307 C 1.06762 0.94602 0.44040
 C308 C 1.06969 1.07126 0.45443
 N309 N 0.94209 1.03545 0.47780
 N310 N 0.91879 1.05497 0.47347
 N311 N 0.96555 0.97724 0.45389
 N312 N 0.96053 0.96009 0.43476
 N313 N 0.94234 0.97400 0.47016
 N314 N 0.92057 0.95473 0.46235
 N315 N 0.96571 1.03895 0.46191
 N316 N 0.95960 1.06124 0.44683
 Mn317 Mn 0.94178 0.99965 0.50032
 Mn318 Mn 1.00012 1.00811 0.45774
 Cl319 Cl 1.00011 0.99963 0.50032
 C320 C 0.93059 1.07129 0.45442
 C321 C 0.93261 0.94607 0.44036
 N322 N 0.55804 0.52711 0.02935
 N323 N 0.58033 0.54615 0.03669
 N324 N 0.53466 0.46287 0.04040
 N325 N 0.54080 0.44149 0.05637
 N326 N 0.55817 0.46529 0.02429
 N327 N 0.58139 0.44594 0.02929
 N328 N 0.53474 0.52503 0.04567
 N329 N 0.54017 0.54283 0.06431
 C330 C 0.56844 0.55604 0.05836
 C331 C 0.56970 0.43087 0.04905
 N332 N 0.44223 0.46529 0.02427
 N333 N 0.41902 0.44593 0.02926
 N334 N 0.46565 0.52503 0.04566
 N335 N 0.46023 0.54288 0.06427
 N336 N 0.44236 0.52712 0.02933
 N337 N 0.42009 0.54620 0.03664
 N338 N 0.46573 0.46286 0.04039
 N339 N 0.45960 0.44147 0.05634
 Mn340 Mn 0.50019 0.49393 0.04318
 C341 C 0.43070 0.43085 0.04902
 C342 C 0.43198 0.55611 0.05830
 N343 N 0.55804 0.47216 -0.02870
 N344 N 0.58034 0.45311 -0.03603
 N345 N 0.53467 0.53640 -0.03976
 N346 N 0.54081 0.55779 -0.05573
 N347 N 0.55817 0.53398 -0.02364
 N348 N 0.58138 0.55334 -0.02863
 N349 N 0.53476 0.47424 -0.04503
 N350 N 0.54021 0.45644 -0.06367
 Mn351 Mn 0.55852 0.49964 0.00032
 C352 C 0.56847 0.44323 -0.05771
 C353 C 0.56971 0.56840 -0.04840
 N354 N 0.44224 0.53398 -0.02366
 N355 N 0.41905 0.55337 -0.02863
 N356 N 0.46567 0.47423 -0.04504
 N357 N 0.46024 0.45641 -0.06367
 N358 N 0.44237 0.47216 -0.02872
 N359 N 0.42009 0.45310 -0.03604
 N360 N 0.46575 0.53640 -0.03978
 N361 N 0.45964 0.55782 -0.05572
 Mn362 Mn 0.44189 0.49964 0.00030
 Mn363 Mn 0.50021 0.50534 -0.04256
 Cl364 Cl 0.50021 0.49964 0.00031
 C365 C 0.43075 0.56845 -0.04838
 C366 C 0.43198 0.44320 -0.05772
 C367 C 0.30967 1.19307 0.16451
 N368 N 0.27682 1.19278 0.16591
 N369 N 0.26157 1.20668 0.18420
 C370 C 0.27865 1.22146 0.20163
 N371 N 0.31138 1.22187 0.19997
 N372 N 0.32656 1.20805 0.18181
 C373 C 0.32732 1.17591 0.14588
 N374 N 0.35997 1.17355 0.14744
 N375 N 0.37639 1.15672 0.13176
 C376 C 0.36084 1.14166 0.11378
 N377 N 0.32816 1.14424 0.11196
 N378 N 0.31166 1.16100 0.12778
 C379 C 0.37921 1.12186 0.09749
 N380 N 0.36514 1.10899 0.07766
 N381 N 0.38184 1.09026 0.06360
 C382 C 0.41310 1.08358 0.06896
 N383 N 0.42715 1.09650 0.08873
 N384 N 0.41056 1.11536 0.10266
 C385 C 0.81373 0.69452 0.66607
 N386 N 0.83118 0.70901 0.68334
 N387 N 0.81656 0.72298 0.70170
 C388 C 0.78385 0.72320 0.70356
 N389 N 0.76622 0.70891 0.68616
 N390 N 0.78091 0.69487 0.66770
 C391 C 0.83070 0.67715 0.64719
 N392 N 0.81441 0.66254 0.62924
 N393 N 0.83026 0.64556 0.61320
 C394 C 0.86292 0.64247 0.61464
 N395 N 0.87910 0.65723 0.63247
 N396 N 0.86333 0.67427 0.64838
 C397 C 0.88065 0.62244 0.59811
 N398 N 0.91204 0.61569 0.60286
 N399 N 0.92809 0.59666 0.58875
 C400 C 0.91346 0.58380 0.56920
 N401 N 0.88214 0.59072 0.56424
 N402 N 0.86597 0.60964 0.57850
 C403 C 0.69267 0.79968 0.16029
 N404 N 0.72466 0.80444 0.16448
 N405 N 0.73955 0.79128 0.18345
 C406 C 0.72303 0.77272 0.19878
 N407 N 0.69125 0.76764 0.19425
 N408 N 0.67638 0.78080 0.17541
 C409 C 0.67488 0.81670 0.14142
 N410 N 0.64206 0.81623 0.14128
 N411 N 0.62541 0.83338 0.12574
 C412 C 0.64093 0.85157 0.10959
 N413 N 0.67380 0.85176 0.10942
 N414 N 0.69049 0.83473 0.12513
 C415 C 0.62227 0.87192 0.09371
 N416 N 0.63666 0.88708 0.07497
 N417 N 0.61983 0.90648 0.06139
 C418 C 0.58810 0.91162 0.06622
 N419 N 0.57372 0.89643 0.08490
 N420 N 0.59045 0.87685 0.09831
 C421 C 1.19015 0.29983 0.66223
 N422 N 1.22216 0.30427 0.66652
 N423 N 1.23680 0.29094 0.68552
 C424 C 1.22001 0.27250 0.70079
 N425 N 1.18819 0.26772 0.69616
 N426 N 1.17357 0.28108 0.67728
 C427 C 1.17274 0.31700 0.64321
 N428 N 1.13992 0.31678 0.64280
 N429 N 1.12367 0.33397 0.62703
 C430 C 1.13957 0.35195 0.61093
 N431 N 1.17244 0.35191 0.61106
 N432 N 1.18873 0.33484 0.62699
 C433 C 1.12127 0.37227 0.59473
 N434 N 1.13602 0.38734 0.57610
 N435 N 1.11942 0.40662 0.56222
 C436 C 1.08757 0.41170 0.56662
 N437 N 1.07286 0.39659 0.58520
 N438 N 1.08935 0.37715 0.59891
 C439 C 0.69301 1.19953 -0.15935
 N440 N 0.72497 1.19464 -0.16360
 N441 N 0.73986 1.20776 -0.18259
 C442 C 0.72338 1.22641 -0.19788
 N443 N 0.69164 1.23161 -0.19328
 N444 N 0.67677 1.21849 -0.17442
 C445 C 0.67521 1.18254 -0.14047
 N446 N 0.64239 1.18313 -0.14029
 N447 N 0.62571 1.16601 -0.12473
 C448 C 0.64120 1.14774 -0.10862
 N449 N 0.67407 1.14744 -0.10850
 N450 N 0.69078 1.16444 -0.12422
 C451 C 0.62250 1.12743 -0.09273
 N452 N 0.63687 1.11224 -0.07400
 N453 N 0.61999 1.09288 -0.06042
 C454 C 0.58824 1.08783 -0.06522
 N455 N 0.57389 1.10305 -0.08389
 N456 N 0.59066 1.12259 -0.09731
 C457 C 1.19043 0.69924 0.33863
 N458 N 1.22242 0.69473 0.33429
 N459 N 1.23706 0.70806 0.31529
 C460 C 1.22029 0.72657 0.30006
 N461 N 1.18850 0.73140 0.30472
 N462 N 1.17387 0.71806 0.32361
 C463 C 1.17301 0.68210 0.35765
 N464 N 1.14020 0.68238 0.35809
 N465 N 1.12392 0.66522 0.37386
 C466 C 1.13980 0.64721 0.38996
 N467 N 1.17267 0.64718 0.38980
 N468 N 1.18899 0.66422 0.37386
 C469 C 1.12147 0.62695 0.40618
 N470 N 1.13619 0.61188 0.42482
 N471 N 1.11955 0.59265 0.43872
 C472 C 1.08768 0.58763 0.43434
 N473 N 1.07300 0.60274 0.41575
 N474 N 1.08953 0.62213 0.40202
 C475 C 0.30936 0.80676 -0.16354
 N476 N 0.32625 0.79173 -0.18080
 N477 N 0.31107 0.77789 -0.19896
 C478 C 0.27834 0.77835 -0.20063
 N479 N 0.26127 0.79318 -0.18324
 N480 N 0.27652 0.80710 -0.16496
 C481 C 0.32703 0.82392 -0.14491
 N482 N 0.31139 0.83888 -0.12684
 N483 N 0.32791 0.85563 -0.11102
 C484 C 0.36060 0.85814 -0.11282
 N485 N 0.37613 0.84303 -0.13078
 N486 N 0.35969 0.82622 -0.14646
 C487 C 0.37902 0.87791 -0.09653
 N488 N 0.41038 0.88434 -0.10168
 N489 N 0.42701 0.90317 -0.08775
 C490 C 0.41297 0.91612 -0.06799
 N491 N 0.38169 0.90950 -0.06264
 N492 N 0.36496 0.89080 -0.07671
 C493 C 0.81343 0.30516 0.33496
 N494 N 0.83087 0.29055 0.31775
 N495 N 0.81624 0.27658 0.29940
 C496 C 0.78354 0.27647 0.29748
 N497 N 0.76592 0.29088 0.31482
 N498 N 0.78062 0.30492 0.33328
 C499 C 0.83042 0.32252 0.35383
 N500 N 0.81414 0.33720 0.37174
 N501 N 0.83002 0.35417 0.38778
 C502 C 0.86269 0.35717 0.38638
 N503 N 0.87886 0.34233 0.36858
 N504 N 0.86306 0.32531 0.35268
 C505 C 0.88045 0.37718 0.40289
 N506 N 0.91186 0.38388 0.39815
 N507 N 0.92795 0.40288 0.41227
 C508 C 0.91334 0.41576 0.43181
 N509 N 0.88199 0.40891 0.43676
 N510 N 0.86579 0.39002 0.42250
 C511 C 1.17863 0.29255 0.16215
 N512 N 1.21031 0.28495 0.16003
 N513 N 1.22604 0.27260 0.17897
 C514 C 1.21074 0.26763 0.20075
 N515 N 1.17891 0.27458 0.20256
 N516 N 1.16317 0.28670 0.18365
 C517 C 1.16168 0.30925 0.14264
 N518 N 1.13012 0.31654 0.14570
 N519 N 1.11505 0.33400 0.12950
 C520 C 1.13092 0.34497 0.10957
 N521 N 1.16244 0.33742 0.10624
 N522 N 1.17757 0.31987 0.12251
 C523 C 1.11443 0.36628 0.09310
 N524 N 1.12962 0.37859 0.07330
 N525 N 1.11487 0.39932 0.05960
 C526 C 1.08448 0.40850 0.06529
 N527 N 1.06932 0.39600 0.08492
 N528 N 1.08397 0.37529 0.09852
 C529 C 0.68476 0.80095 0.66717
 N530 N 0.71268 0.78595 0.66258
 N531 N 0.72797 0.77137 0.68069
 C532 C 0.71567 0.77111 0.70391
 N533 N 0.68732 0.78536 0.70809
 N534 N 0.67223 0.79997 0.69016
 C535 C 0.66936 0.82045 0.64877
 N536 N 0.64879 0.84189 0.65658
 N537 N 0.63479 0.86042 0.64068
 C538 C 0.64054 0.85814 0.61623
 N539 N 0.66104 0.83659 0.60825
 N540 N 0.67543 0.81818 0.62428
 C541 C 0.62402 0.87861 0.59916
 N542 N 0.62045 0.87213 0.57495
 N543 N 0.60317 0.88997 0.56024
 C544 C 0.58919 0.91502 0.56920
 N545 N 0.59326 0.92167 0.59327
 N546 N 0.61021 0.90375 0.60798
 C547 C 1.17834 0.70725 -0.16111
 N548 N 1.21003 0.71484 -0.15899
 N549 N 1.22576 0.72718 -0.17794
 C550 C 1.21045 0.73216 -0.19971
 N551 N 1.17862 0.72522 -0.20151
 N552 N 1.16288 0.71311 -0.18260
 C553 C 1.16141 0.69053 -0.14160
 N554 N 1.12984 0.68325 -0.14465
 N555 N 1.11479 0.66575 -0.12846
 C556 C 1.13069 0.65473 -0.10856
 N557 N 1.16221 0.66229 -0.10524
 N558 N 1.17732 0.67988 -0.12149
 C559 C 1.11424 0.63338 -0.09212
 N560 N 1.12946 0.62103 -0.07235
 N561 N 1.11475 0.60025 -0.05867
 C562 C 1.08437 0.59105 -0.06437
 N563 N 1.06917 0.60359 -0.08397
 N564 N 1.08378 0.62435 -0.09754
 C565 C 0.68448 1.19863 0.33378
 N566 N 0.71237 1.21366 0.33839
 N567 N 0.72766 1.22827 0.32029
 C568 C 0.71538 1.22853 0.29707
 N569 N 0.68706 1.21425 0.29286
 N570 N 0.67198 1.19961 0.31078
 C571 C 0.66909 1.17909 0.35216
 N572 N 0.64855 1.15764 0.34434
 N573 N 0.63458 1.13908 0.36023
 C574 C 0.64034 1.14134 0.38467
 N575 N 0.66081 1.16290 0.39267
 N576 N 0.67518 1.18134 0.37665
 C577 C 0.62386 1.12083 0.40173
 N578 N 0.62033 1.12727 0.42596
 N579 N 0.60309 1.10939 0.44066
 C580 C 0.58911 1.08435 0.43168
 N581 N 0.59314 1.07774 0.40760
 N582 N 0.61006 1.09570 0.39290
 C583 C 0.82205 0.69894 0.16576
 N584 N 0.79164 0.70959 0.16213
 N585 N 0.77569 0.72279 0.18040
 C586 C 0.78948 0.72560 0.20296
 N587 N 0.82003 0.71539 0.20635
 N588 N 0.83600 0.70241 0.18812
 C589 C 0.83924 0.68222 0.14662
 N590 N 0.86989 0.67275 0.15089
 N591 N 0.88515 0.65577 0.13468
 C592 C 0.87037 0.64746 0.11354
 N593 N 0.83977 0.65713 0.10908
 N594 N 0.82447 0.67423 0.12534
 C595 C 0.88702 0.62699 0.09676
 N596 N 0.87258 0.61680 0.07600
 N597 N 0.88747 0.59690 0.06182
 C598 C 0.91727 0.58650 0.06797
 N599 N 0.93171 0.59690 0.08857
 N600 N 0.91691 0.61675 0.10267
 C601 C 0.31669 1.19265 0.66964
 N602 N 0.29312 1.21267 0.66393
 N603 N 0.27822 1.22790 0.68167
 C604 C 0.28665 1.22378 0.70564
 N605 N 0.31063 1.20423 0.71108
 N606 N 0.32530 1.18900 0.69350
 C607 C 0.33180 1.17354 0.65107
 N608 N 0.34872 1.14930 0.65865
 N609 N 0.36268 1.13138 0.64249
 C610 C 0.36051 1.13705 0.61803
 N611 N 0.34361 1.16136 0.61029
 N612 N 0.32930 1.17922 0.62654
 C613 C 0.37722 1.11737 0.60069
 N614 N 0.38237 1.12560 0.57691
 N615 N 0.39959 1.10828 0.56199
 C616 C 0.41201 1.08206 0.57028
 N617 N 0.40644 1.07370 0.59391
 N618 N 0.38946 1.09106 0.60884
 C619 C 0.82233 0.30027 -0.16492
 N620 N 0.83626 0.29686 -0.18730
 N621 N 0.82030 0.28385 -0.20552
 C622 C 0.78978 0.27356 -0.20211
 N623 N 0.77602 0.27632 -0.17953
 N624 N 0.79196 0.28955 -0.16127
 C625 C 0.83950 0.31701 -0.14579
 N626 N 0.82471 0.32497 -0.12450
 N627 N 0.83999 0.34209 -0.10823
 C628 C 0.87058 0.35180 -0.11270
 N629 N 0.88536 0.34353 -0.13384
 N630 N 0.87013 0.32653 -0.15006
 C631 C 0.88720 0.37230 -0.09592
 N632 N 0.91707 0.38257 -0.10182
 N633 N 0.93184 0.40244 -0.08773
 C634 C 0.91738 0.41284 -0.06714
 N635 N 0.88759 0.40241 -0.06099
 N636 N 0.87273 0.38249 -0.07516
 C637 C 0.31703 0.80640 0.33122
 N638 N 0.32567 0.81001 0.30736
 N639 N 0.31098 0.79480 0.28978
 C640 C 0.28695 0.77530 0.29521
 N641 N 0.27849 0.77121 0.31919
 N642 N 0.29341 0.78643 0.33692
 C643 C 0.33213 0.82553 0.34978
 N644 N 0.32956 0.81989 0.37431
 N645 N 0.34385 0.83776 0.39055
 C646 C 0.36080 0.86203 0.38282
 N647 N 0.36304 0.86767 0.35836
 N648 N 0.34909 0.84974 0.34219
 C649 C 0.37746 0.88175 0.40015
 N650 N 0.38972 0.90805 0.39199
 N651 N 0.40665 0.92544 0.40692
 C652 C 0.41214 0.91714 0.43057
 N653 N 0.39970 0.89094 0.43888
 N654 N 0.38253 0.87358 0.42395
 C655 C 1.18102 1.17634 0.32289
 N656 N 1.21238 1.17057 0.31740
 N657 N 1.22692 1.18488 0.29893
 C658 C 1.21063 1.20546 0.28536
 N659 N 1.17899 1.21047 0.29039
 N660 N 1.16442 1.19611 0.30877
 C661 C 1.16568 1.16292 0.34452
 N662 N 1.13416 1.16858 0.34943
 N663 N 1.12012 1.15702 0.36932
 C664 C 1.13718 1.13966 0.38518
 N665 N 1.16882 1.13411 0.38039
 N666 N 1.18287 1.14565 0.36042
 C667 C 1.12060 1.12511 0.40577
 N668 N 1.13687 1.10771 0.42215
 N669 N 1.12083 1.09182 0.43900
 C670 C 1.08805 1.09283 0.43993
 N671 N 1.07197 1.11071 0.42391
 N672 N 1.08794 1.12670 0.40724
 C673 C 0.68498 0.67555 -0.17749
 N674 N 0.66901 0.69626 -0.19107
 N675 N 0.68430 0.71162 -0.20853
 C676 C 0.71607 0.70674 -0.21310
 N677 N 0.73175 0.68520 -0.20016
 N678 N 0.71650 0.66991 -0.18257
 C679 C 0.66873 0.66098 -0.15680
 N680 N 0.68544 0.64375 -0.14058
 N681 N 0.67054 0.63150 -0.12126
 C682 C 0.63850 0.63622 -0.11751
 N683 N 0.62190 0.65344 -0.13375
 N684 N 0.63678 0.66574 -0.15295
 C685 C 0.62125 0.62138 -0.09742
 N686 N 0.58850 0.62186 -0.09709
 N687 N 0.57220 0.60602 -0.08051
 C688 C 0.58804 0.58944 -0.06343
 N689 N 0.62086 0.58949 -0.06328
 N690 N 0.63723 0.60520 -0.08005
 C691 C 0.82074 1.16807 0.68649
 N692 N 0.83748 1.18530 0.70243
 N693 N 0.82193 1.20234 0.71850
 C694 C 0.78913 1.20256 0.71928
 N695 N 0.77251 1.18469 0.70377
 N696 N 0.78800 1.16780 0.68762
 C697 C 0.83754 1.15135 0.66739
 N698 N 0.82066 1.13894 0.64868
 N699 N 0.83594 1.12463 0.63076
 C700 C 0.86863 1.12223 0.63097
 N701 N 0.88550 1.13456 0.64973
 N702 N 0.87023 1.14903 0.66756
 C703 C 0.88546 1.10578 0.61173
 N704 N 0.91714 1.09881 0.61447
 N705 N 0.93225 1.08259 0.59766
 C706 C 0.91631 1.07303 0.57741
 N707 N 0.88471 1.08031 0.57444
 N708 N 0.86951 1.09639 0.59138
 C709 C 0.31816 0.66822 0.18510
 N710 N 0.33458 0.68791 0.19917
 N711 N 0.31895 0.70507 0.21506
 C712 C 0.28638 0.70304 0.21754
 N713 N 0.27015 0.68259 0.20409
 N714 N 0.28573 0.66557 0.18806
 C715 C 0.33492 0.65160 0.16595
 N716 N 0.31798 0.63707 0.14834
 N717 N 0.33330 0.62322 0.13018
 C718 C 0.36607 0.62342 0.12904
 N719 N 0.38297 0.63782 0.14671
 N720 N 0.36767 0.65183 0.16476
 C721 C 0.38317 0.60757 0.10959
 N722 N 0.41547 0.60301 0.11147
 N723 N 0.43104 0.58725 0.09462
 C724 C 0.41498 0.57579 0.07514
 N725 N 0.38273 0.58072 0.07298
 N726 N 0.36705 0.59632 0.08998
 C727 C 1.18078 0.82318 0.67798
 N728 N 1.16417 0.80342 0.69210
 N729 N 1.17872 0.78912 0.71053
 C730 C 1.21034 0.79419 0.71559
 N731 N 1.22663 0.81476 0.70202
 N732 N 1.21212 0.82901 0.68351
 C733 C 1.16548 0.83654 0.65631
 N734 N 1.18268 0.85381 0.64042
 N735 N 1.16867 0.86529 0.62041
 C736 C 1.13706 0.85968 0.61557
 N737 N 1.11999 0.84231 0.63142
 N738 N 1.13398 0.83080 0.65134
 C739 C 1.12051 0.87418 0.59495
 N740 N 1.08786 0.87255 0.59343
 N741 N 1.07190 0.88853 0.57674
 C742 C 1.08800 0.90642 0.56074
 N743 N 1.12078 0.90747 0.56171
 N744 N 1.13679 0.89160 0.57859
 C745 C 0.68476 0.32412 0.17844
 N746 N 0.71627 0.32976 0.18352
 N747 N 0.73151 0.31450 0.20113
 C748 C 0.71582 0.29298 0.21409
 N749 N 0.68405 0.28810 0.20952
 N750 N 0.66877 0.30344 0.19204
 C751 C 0.66854 0.33863 0.15771
 N752 N 0.63660 0.33382 0.15383
 N753 N 0.62175 0.34605 0.13457
 C754 C 0.63838 0.36322 0.11832
 N755 N 0.67040 0.36798 0.12210
 N756 N 0.68526 0.35581 0.14146
 C757 C 0.62117 0.37800 0.09818
 N758 N 0.63717 0.39417 0.08082
 N759 N 0.62084 0.40985 0.06401
 C760 C 0.58801 0.40986 0.06411
 N761 N 0.57215 0.39328 0.08117
 N762 N 0.58842 0.37748 0.09780
 C763 C 0.82048 0.83111 0.31431
 N764 N 0.83721 0.81390 0.29834
 N765 N 0.82164 0.79684 0.28230
 C766 C 0.78884 0.79657 0.28158
 N767 N 0.77224 0.81441 0.29712
 N768 N 0.78774 0.83131 0.31324
 C769 C 0.83731 0.84787 0.33336
 N770 N 0.82047 0.86027 0.35210
 N771 N 0.83579 0.87462 0.36998
 C772 C 0.86847 0.87708 0.36971
 N773 N 0.88529 0.86476 0.35092
 N774 N 0.87000 0.85025 0.33313
 C775 C 0.88533 0.89355 0.38892
 N776 N 0.91700 0.90056 0.38614
 N777 N 0.93214 0.91678 0.40293
 C778 C 0.91625 0.92632 0.42321
 N779 N 0.88466 0.91901 0.42622
 N780 N 0.86943 0.90293 0.40930
 C781 C 0.31798 0.33105 -0.18441
 N782 N 0.33439 0.31136 -0.19848
 N783 N 0.31873 0.29415 -0.21432
 C784 C 0.28616 0.29614 -0.21675
 N785 N 0.26994 0.31660 -0.20330
 N786 N 0.28554 0.33366 -0.18731
 C787 C 0.33477 0.34771 -0.16528
 N788 N 0.31785 0.36222 -0.14766
 N789 N 0.33320 0.37610 -0.12952
 C790 C 0.36597 0.37593 -0.12843
 N791 N 0.38285 0.36155 -0.14613
 N792 N 0.36752 0.34752 -0.16415
 C793 C 0.38310 0.39180 -0.10901
 N794 N 0.41539 0.39638 -0.11093
 N795 N 0.43099 0.41213 -0.09408
 C796 C 0.41496 0.42355 -0.07457
 N797 N 0.38272 0.41860 -0.07237
 N798 N 0.36702 0.40301 -0.08936
 C799 C 1.17889 0.29970 -0.16476
 N800 N 1.20938 0.28919 -0.16128
 N801 N 1.22522 0.27602 -0.17962
 C802 C 1.21124 0.27313 -0.20210
 N803 N 1.18061 0.28320 -0.20534
 N804 N 1.16474 0.29614 -0.18704
 C805 C 1.16182 0.31643 -0.14557
 N806 N 1.13112 0.32582 -0.14970
 N807 N 1.11597 0.34286 -0.13347
 C808 C 1.13092 0.35130 -0.11244
 N809 N 1.16158 0.34170 -0.10810
 N810 N 1.17677 0.32455 -0.12439
 C811 C 1.11441 0.37189 -0.09568
 N812 N 1.12901 0.38221 -0.07503
 N813 N 1.11425 0.40223 -0.06090
 C814 C 1.08443 0.41265 -0.06700
 N815 N 1.06984 0.40212 -0.08749
 N816 N 1.08451 0.38214 -0.10153
 C817 C 0.68371 0.80663 0.33087
 N818 N 0.67545 0.81060 0.30698
 N819 N 0.69012 0.79535 0.28940
 C820 C 0.71376 0.77548 0.29489
 N821 N 0.72186 0.77106 0.31890
 N822 N 0.70696 0.78630 0.33662
 C823 C 0.66860 0.82571 0.34948
 N824 N 0.67090 0.81983 0.37398
 N825 N 0.65662 0.83766 0.39026
 C826 C 0.63991 0.86210 0.38259
 N827 N 0.63792 0.86796 0.35815
 N828 N 0.65188 0.85009 0.34195
 C829 C 0.62326 0.88178 0.39997
 N830 N 0.61114 0.90817 0.39189
 N831 N 0.59425 0.92554 0.40687
 C832 C 0.58865 0.91712 0.43048
 N833 N 0.60097 0.89083 0.43870
 N834 N 0.61810 0.87349 0.42373
 C835 C 0.82279 0.70665 -0.16124
 N836 N 0.83811 0.71244 -0.18281
 N837 N 0.82228 0.72462 -0.20165
 C838 C 0.79051 0.73170 -0.19970
 N839 N 0.77535 0.72680 -0.17785
 N840 N 0.79116 0.71439 -0.15898
 C841 C 0.83981 0.68991 -0.14179
 N842 N 0.82402 0.67934 -0.12160
 N843 N 0.83920 0.66178 -0.10537
 C844 C 0.87068 0.65416 -0.10880
 N845 N 0.88646 0.66507 -0.12880
 N846 N 0.87134 0.68255 -0.14497
 C847 C 0.88724 0.63288 -0.09235
 N848 N 0.91768 0.62387 -0.09782
 N849 N 0.93241 0.60322 -0.08421
 C850 C 0.91734 0.59077 -0.06451
 N851 N 0.88697 0.59995 -0.05877
 N852 N 0.87215 0.62063 -0.07248
 C853 C 0.31620 1.19890 0.33417
 N854 N 0.28805 1.21356 0.33868
 N855 N 0.27276 1.22814 0.32057
 C856 C 0.28529 1.22874 0.29742
 N857 N 0.31388 1.21486 0.29333
 N858 N 0.32896 1.20026 0.31126
 C859 C 0.33157 1.17928 0.35250
 N860 N 0.35235 1.15805 0.34464
 N861 N 0.36630 1.13940 0.36047
 C862 C 0.36030 1.14137 0.38490
 N863 N 0.33958 1.16272 0.39294
 N864 N 0.32523 1.18123 0.37697
 C865 C 0.37679 1.12081 0.40190
 N866 N 0.38023 1.12712 0.42616
 N867 N 0.39752 1.10923 0.44081
 C868 C 0.41164 1.08429 0.43176
 N869 N 0.40770 1.07781 0.40764
 N870 N 0.39073 1.09579 0.39299
 C871 C 1.17904 0.69958 0.16561
 N872 N 1.16491 0.70312 0.18790
 N873 N 1.18081 0.71602 0.20621
 C874 C 1.21145 0.72606 0.20297
 N875 N 1.22541 0.72319 0.18047
 N876 N 1.20953 0.71006 0.16213
 C877 C 1.16193 0.68288 0.14642
 N878 N 1.17686 0.67478 0.12522
 N879 N 1.16164 0.65765 0.10894
 C880 C 1.13097 0.64807 0.11329
 N881 N 1.11605 0.65651 0.13432
 N882 N 1.13122 0.67352 0.15056
 C883 C 1.11443 0.62751 0.09652
 N884 N 1.08453 0.61727 0.10238
 N885 N 1.06984 0.59730 0.08833
 C886 C 1.08441 0.58678 0.06782
 N887 N 1.11424 0.59718 0.06173
 N888 N 1.12902 0.61720 0.07586
 C889 C 0.68398 1.19242 0.67005
 N890 N 0.67583 1.18837 0.69396
 N891 N 0.69050 1.20362 0.71152
 C892 C 0.71404 1.22359 0.70602
 N893 N 0.72204 1.22809 0.68200
 N894 N 0.70712 1.21284 0.66428
 C895 C 0.66882 1.17338 0.65144
 N896 N 0.67102 1.17933 0.62694
 N897 N 0.65670 1.16153 0.61065
 C898 C 0.64006 1.13704 0.61831
 N899 N 0.63817 1.13112 0.64275
 N900 N 0.65216 1.14896 0.65895
 C901 C 0.62336 1.11741 0.60093
 N902 N 0.61125 1.09101 0.60898
 N903 N 0.59432 1.07367 0.59401
 C904 C 0.58867 1.08213 0.57041
 N905 N 0.60097 1.10844 0.56221
 N906 N 0.61814 1.12574 0.57718
 C907 C 0.82261 0.29309 0.16228
 N908 N 0.79099 0.28531 0.15999
 N909 N 0.77516 0.27291 0.17886
 C910 C 0.79029 0.26807 0.20073
 N911 N 0.82205 0.27520 0.20271
 N912 N 0.83789 0.28737 0.18387
 C913 C 0.83966 0.30979 0.14281
 N914 N 0.87117 0.31717 0.14601
 N915 N 0.88632 0.33459 0.12982
 C916 C 0.87059 0.34544 0.10978
 N917 N 0.83911 0.33780 0.10633
 N918 N 0.82390 0.32028 0.12258
 C919 C 0.88717 0.36666 0.09330
 N920 N 0.87211 0.37886 0.07340
 N921 N 0.88696 0.39949 0.05965
 C922 C 0.91732 0.40868 0.06540
 N923 N 0.93236 0.39628 0.08514
 N924 N 0.91761 0.37568 0.09878
 C925 C 0.31597 0.80065 0.66682
 N926 N 0.28781 0.78601 0.66231
 N927 N 0.27250 0.77147 0.68044
 C928 C 0.28502 0.77091 0.70359
 N929 N 0.31361 0.78478 0.70768
 N930 N 0.32872 0.79934 0.68973
 C931 C 0.33137 0.82022 0.64846
 N932 N 0.35215 0.84146 0.65631
 N933 N 0.36614 0.86006 0.64045
 C934 C 0.36017 0.85805 0.61603
 N935 N 0.33945 0.83670 0.60800
 N936 N 0.32506 0.81822 0.62398
 C937 C 0.37670 0.87856 0.59901
 N938 N 0.38019 0.87221 0.57476
 N939 N 0.39750 0.89007 0.56010
 C940 C 0.41160 0.91503 0.56913
 N941 N 0.40763 0.92155 0.59323
 N942 N 0.39064 0.90361 0.60790
 C943 C 0.30825 1.19922 -0.15979
 N944 N 0.27617 1.19468 -0.16377
 N945 N 0.26122 1.20782 -0.18272
 C946 C 0.27776 1.22614 -0.19824
 N947 N 0.30963 1.23100 -0.19391
 N948 N 0.32456 1.21786 -0.17508
 C949 C 0.32605 1.18224 -0.14090
 N950 N 0.35887 1.18259 -0.14086
 N951 N 0.37551 1.16551 -0.12526
 C952 C 0.36000 1.14753 -0.10895
 N953 N 0.32713 1.14745 -0.10870
 N954 N 0.31045 1.16441 -0.12446
 C955 C 0.37866 1.12727 -0.09299
 N956 N 0.36431 1.11226 -0.07415
 N957 N 0.38116 1.09294 -0.06050
 C958 C 0.41288 1.08777 -0.06534
 N959 N 0.42722 1.10283 -0.08411
 N960 N 0.41047 1.12231 -0.09760
 C961 C 0.81002 0.69950 0.33869
 N962 N 0.77807 0.69488 0.33426
 N963 N 0.76350 0.70813 0.31520
 C964 C 0.78027 0.72668 0.30001
 N965 N 0.81202 0.73163 0.30478
 N966 N 0.82659 0.71835 0.32372
 C967 C 0.82741 0.68239 0.35776
 N968 N 0.86022 0.68274 0.35827
 N969 N 0.87648 0.66557 0.37405
 C970 C 0.86058 0.64750 0.39008
 N971 N 0.82771 0.64742 0.38986
 N972 N 0.81142 0.66446 0.37391
 C973 C 0.87889 0.62720 0.40628
 N974 N 0.86412 0.61208 0.42488
 N975 N 0.88072 0.59281 0.43877
 C976 C 0.91259 0.58778 0.43441
 N977 N 0.92732 0.60293 0.41587
 N978 N 0.91083 0.62237 0.40215
 C979 C 0.69155 1.19343 0.16406
 N980 N 0.67463 1.20880 0.18110
 N981 N 0.68975 1.22261 0.19930
 C982 C 0.72244 1.22179 0.20125
 N983 N 0.73955 1.20662 0.18407
 N984 N 0.72437 1.19274 0.16575
 C985 C 0.67391 1.17623 0.14545
 N986 N 0.68959 1.16098 0.12756
 N987 N 0.67307 1.14417 0.11178
 C988 C 0.64035 1.14187 0.11345
 N989 N 0.62478 1.15727 0.13122
 N990 N 0.64122 1.17416 0.14685
 C991 C 0.62194 1.12201 0.09724
 N992 N 0.59055 1.11565 0.10238
 N993 N 0.57394 1.09673 0.08852
 C994 C 0.58802 1.08362 0.06885
 N995 N 0.61933 1.09016 0.06352
 N996 N 0.63604 1.10894 0.07752
 C997 C 1.18675 0.69422 0.66618
 N998 N 1.16933 0.70860 0.68354
 N999 N 1.18401 0.72265 0.70183
 C1000 C 1.21674 0.72305 0.70355
 N1001 N 1.23432 0.70886 0.68607
 N1002 N 1.21957 0.69474 0.66766
 C1003 C 1.16974 0.67682 0.64734
 N1004 N 1.18599 0.66232 0.62930
 N1005 N 1.17011 0.64535 0.61327
 C1006 C 1.13747 0.64216 0.61479
 N1007 N 1.12133 0.65681 0.63271
 N1008 N 1.13713 0.67383 0.64861
 C1009 C 1.11972 0.62217 0.59825
 N1010 N 1.08834 0.61541 0.60303
 N1011 N 1.07224 0.59643 0.58889
 C1012 C 1.08682 0.58364 0.56929
 N1013 N 1.11814 0.59057 0.56431
 N1014 N 1.13434 0.60943 0.57859
 C1015 C 0.69168 0.80628 -0.16311
 N1016 N 0.72450 0.80695 -0.16475
 N1017 N 0.73972 0.79308 -0.18307
 C1018 C 0.72263 0.77796 -0.20029
 N1019 N 0.68994 0.77716 -0.19839
 N1020 N 0.67479 0.79096 -0.18020
 C1021 C 0.67401 0.82346 -0.14450
 N1022 N 0.64133 0.82555 -0.14594
 N1023 N 0.62487 0.84241 -0.13032
 C1024 C 0.64041 0.85778 -0.11251
 N1025 N 0.67312 0.85547 -0.11080
 N1026 N 0.68966 0.83867 -0.12658
 C1027 C 0.62197 0.87761 -0.09629
 N1028 N 0.63605 0.89064 -0.07654
 N1029 N 0.61932 0.90940 -0.06253
 C1030 C 0.58801 0.91594 -0.06787
 N1031 N 0.57396 0.90287 -0.08756
 N1032 N 0.59058 0.88397 -0.10143
 C1033 C 1.18694 0.30535 0.33486
 N1034 N 1.16956 0.29093 0.31751
 N1035 N 1.18427 0.27691 0.29921
 C1036 C 1.21699 0.27658 0.29749
 N1037 N 1.23454 0.29080 0.31497
 N1038 N 1.21977 0.30489 0.33338
 C1039 C 1.16990 0.32273 0.35371
 N1040 N 1.18612 0.33725 0.37174
 N1041 N 1.17022 0.35420 0.38777
 C1042 C 1.13757 0.35736 0.38624
 N1043 N 1.12146 0.34269 0.36831
 N1044 N 1.13729 0.32569 0.35242
 C1045 C 1.11979 0.37733 0.40278
 N1046 N 1.08840 0.38408 0.39799
 N1047 N 1.07228 0.40304 0.41213
 C1048 C 1.08684 0.41583 0.43174
 N1049 N 1.11816 0.40892 0.43673
 N1050 N 1.13439 0.39006 0.42246
 C1051 C 0.30840 0.80010 0.16067
 N1052 N 0.27632 0.80460 0.16468
 N1053 N 0.26139 0.79141 0.18362
 C1054 C 0.27796 0.77307 0.19910
 N1055 N 0.30984 0.76825 0.19476
 N1056 N 0.32474 0.78145 0.17594
 C1057 C 0.32616 0.81712 0.14179
 N1058 N 0.35899 0.81680 0.14174
 N1059 N 0.37560 0.83392 0.12615
 C1060 C 0.36006 0.85192 0.10987
 N1061 N 0.32719 0.85196 0.10963
 N1062 N 0.31053 0.83496 0.12538
 C1063 C 0.37869 0.87222 0.09393
 N1064 N 0.36431 0.88726 0.07512
 N1065 N 0.38115 0.90661 0.06149
 C1066 C 0.41287 0.91179 0.06632
 N1067 N 0.42723 0.89671 0.08507
 N1068 N 0.41049 0.87719 0.09854
 C1069 C 0.81019 0.29965 0.66216
 N1070 N 0.77824 0.30427 0.66662
 N1071 N 0.76369 0.29100 0.68568
 C1072 C 0.78048 0.27243 0.70084
 N1073 N 0.81222 0.26747 0.69604
 N1074 N 0.82677 0.28077 0.67710
 C1075 C 0.82755 0.31680 0.64311
 N1076 N 0.86037 0.31646 0.64257
 N1077 N 0.87661 0.33365 0.62680
 C1078 C 0.86068 0.35176 0.61081
 N1079 N 0.82782 0.35184 0.61106
 N1080 N 0.81154 0.33477 0.62699
 C1081 C 0.87896 0.37210 0.59462
 N1082 N 0.86417 0.38726 0.57605
 N1083 N 0.88074 0.40658 0.56220
 C1084 C 0.91261 0.41162 0.56655
 N1085 N 0.92737 0.39643 0.58506
 N1086 N 0.91090 0.37694 0.59875
 C1087 C 1.17991 1.16808 0.68627
 N1088 N 1.21264 1.16775 0.68740
 N1089 N 1.22818 1.18462 0.70354
 C1090 C 1.21162 1.20253 0.71904
 N1091 N 1.17882 1.20238 0.71827
 N1092 N 1.16322 1.18537 0.70222
 C1093 C 1.16304 1.15137 0.66721
 N1094 N 1.13035 1.14908 0.66743
 N1095 N 1.11502 1.13459 0.64964
 C1096 C 1.13182 1.12221 0.63088
 N1097 N 1.16451 1.12459 0.63061
 N1098 N 1.17985 1.13891 0.64849
 C1099 C 1.11493 1.10574 0.61168
 N1100 N 1.13082 1.09633 0.59131
 N1101 N 1.11556 1.08024 0.57440
 C1102 C 1.08398 1.07296 0.57742
 N1103 N 1.06810 1.08254 0.59769
 N1104 N 1.08325 1.09876 0.61447
 C1105 C 0.68258 0.66787 0.18515
 N1106 N 0.66617 0.68748 0.19928
 N1107 N 0.68182 0.70469 0.21513
 C1108 C 0.71441 0.70278 0.21748
 N1109 N 0.73065 0.68240 0.20397
 N1110 N 0.71504 0.66533 0.18799
 C1111 C 0.66578 0.65123 0.16602
 N1112 N 0.68267 0.63679 0.14835
 N1113 N 0.66730 0.62296 0.13020
 C1114 C 0.63452 0.62312 0.12915
 N1115 N 0.61767 0.63744 0.14690
 N1116 N 0.63303 0.65142 0.16493
 C1117 C 0.61736 0.60733 0.10970
 N1118 N 0.58507 0.60277 0.11162
 N1119 N 0.56945 0.58707 0.09475
 C1120 C 0.58547 0.57567 0.07523
 N1121 N 0.61771 0.58059 0.07303
 N1122 N 0.63343 0.59614 0.09004
 C1123 C 1.18011 0.83098 0.31461
 N1124 N 1.21286 0.83124 0.31356
 N1125 N 1.22842 0.81439 0.29743
 C1126 C 1.21187 0.79655 0.28185
 N1127 N 1.17907 0.79676 0.28256
 N1128 N 1.16345 0.81376 0.29860
 C1129 C 1.16321 0.84770 0.33364
 N1130 N 1.13052 0.85006 0.33335
 N1131 N 1.11516 0.86457 0.35110
 C1132 C 1.13191 0.87692 0.36991
 N1133 N 1.16459 0.87447 0.37025
 N1134 N 1.17998 0.86013 0.35240
 C1135 C 1.11499 0.89342 0.38907
 N1136 N 1.13083 0.90280 0.40947
 N1137 N 1.11556 0.91891 0.42635
 C1138 C 1.08400 0.92625 0.42327
 N1139 N 1.06816 0.91671 0.40297
 N1140 N 1.08333 0.90045 0.38622
 C1141 C 0.68279 0.33127 -0.18434
 N1142 N 0.71526 0.33377 -0.18712
 N1143 N 0.73089 0.31669 -0.20308
 C1144 C 0.71467 0.29632 -0.21662
 N1145 N 0.68207 0.29444 -0.21432
 N1146 N 0.66639 0.31166 -0.19850
 C1147 C 0.66596 0.34792 -0.16524
 N1148 N 0.63320 0.34777 -0.16419
 N1149 N 0.61782 0.36177 -0.14618
 C1150 C 0.63464 0.37607 -0.12841
 N1151 N 0.66742 0.37620 -0.12942
 N1152 N 0.68282 0.36235 -0.14754
 C1153 C 0.61746 0.39190 -0.10900
 N1154 N 0.63349 0.40308 -0.08932
 N1155 N 0.61775 0.41865 -0.07233
 C1156 C 0.58552 0.42360 -0.07457
 N1157 N 0.56953 0.41220 -0.09411
 N1158 N 0.58517 0.39648 -0.11095
 C1159 C 0.81963 1.17628 0.32265
 N1160 N 0.78823 1.17063 0.31720
 N1161 N 0.77373 1.18496 0.29873
 C1162 C 0.79009 1.20544 0.28511
 N1163 N 0.82177 1.21032 0.29009
 N1164 N 0.83631 1.19594 0.30848
 C1165 C 0.83492 1.16286 0.34431
 N1166 N 0.86644 1.16849 0.34925
 N1167 N 0.88041 1.15696 0.36917
 C1168 C 0.86329 1.13966 0.38504
 N1169 N 0.83165 1.13416 0.38023
 N1170 N 0.81767 1.14566 0.36022
 C1171 C 0.87980 1.12514 0.40568
 N1172 N 0.86349 1.10774 0.42204
 N1173 N 0.87948 1.09186 0.43892
 C1174 C 0.91226 1.09288 0.43991
 N1175 N 0.92838 1.11076 0.42391
 N1176 N 0.91245 1.12675 0.40722
 C1177 C 0.31578 0.67593 -0.17745
 N1178 N 0.33172 0.69677 -0.19093
 N1179 N 0.31645 0.71209 -0.20842
 C1180 C 0.28475 0.70705 -0.21314
 N1181 N 0.26911 0.68539 -0.20029
 N1182 N 0.28434 0.67014 -0.18267
 C1183 C 0.33199 0.66134 -0.15675
 N1184 N 0.31526 0.64403 -0.14060
 N1185 N 0.33011 0.63174 -0.12128
 C1186 C 0.36212 0.63649 -0.11745
 N1187 N 0.37875 0.65379 -0.13361
 N1188 N 0.36392 0.66615 -0.15282
 C1189 C 0.37933 0.62158 -0.09737
 N1190 N 0.41208 0.62204 -0.09701
 N1191 N 0.42834 0.60615 -0.08043
 C1192 C 0.41246 0.58953 -0.06340
 N1193 N 0.37963 0.58960 -0.06328
 N1194 N 0.36331 0.60537 -0.08004
 C1195 C 0.81980 0.82333 0.67825
 N1196 N 0.83649 0.80365 0.69238
 N1197 N 0.82199 0.78930 0.71081
 C1198 C 0.79035 0.79425 0.71586
 N1199 N 0.77398 0.81476 0.70228
 N1200 N 0.78844 0.82906 0.68377
 C1201 C 0.83503 0.83670 0.65654
 N1202 N 0.81776 0.85394 0.64067
 N1203 N 0.83169 0.86539 0.62062
 C1204 C 0.86329 0.85980 0.61572
 N1205 N 0.88043 0.84246 0.63155
 N1206 N 0.86651 0.83098 0.65152
 C1207 C 0.87976 0.87426 0.59504
 N1208 N 0.91240 0.87257 0.59343
 N1209 N 0.92832 0.88852 0.57670
 C1210 C 0.91219 0.90645 0.56074
 N1211 N 0.87942 0.90756 0.56180
 N1212 N 0.86344 0.89171 0.57872
 C1213 C 0.31600 0.32383 0.17846
 N1214 N 0.28456 0.32963 0.18370
 N1215 N 0.26937 0.31439 0.20135
 C1216 C 0.28501 0.29274 0.21419
 N1217 N 0.31671 0.28769 0.20944
 N1218 N 0.33195 0.30300 0.19193
 C1219 C 0.33216 0.33837 0.15771
 N1220 N 0.36407 0.33350 0.15371
 N1221 N 0.37884 0.34578 0.13445
 C1222 C 0.36218 0.36306 0.11829
 N1223 N 0.33019 0.36788 0.12219
 N1224 N 0.31540 0.35566 0.14157
 C1225 C 0.37933 0.37789 0.09814
 N1226 N 0.36328 0.39412 0.08084
 N1227 N 0.37958 0.40983 0.06403
 C1228 C 0.41240 0.40981 0.06407
 N1229 N 0.42831 0.39318 0.08107
 N1230 N 0.41208 0.37735 0.09770
   
