data_POSCAR
  _audit_creation_date              2014-09-24
  _audit_creation_method            'ToBaCCo'
  _symmetry_space_group_name_H-M    'P1'
  _symmetry_Int_Tables_number       1
  _symmetry_cell_setting            triclinic
  loop_
  _symmetry_equiv_pos_as_xyz
 x,y,z
_cell_length_a 59.0492
_cell_length_b 60.5691
_cell_length_c 58.5145
_cell_angle_alpha 89.886600
_cell_angle_beta 88.887900
_cell_angle_gamma 90.207300
loop_
  _atom_site_label
  _atom_site_type_symbol
  _atom_site_fract_x
  _atom_site_fract_y
  _atom_site_fract_z
N1 N 0.35941 0.30992 0.31328
 N2 N 0.35961 0.32655 0.29879
 C3 C 0.37787 0.32509 0.28487
 C4 C 0.38977 0.30647 0.29069
 C5 C 0.37757 0.29704 0.30878
 H6 H 0.38245 0.33702 0.27177
 H7 H 0.38204 0.28256 0.31854
 Cu8 Cu 0.33677 0.34937 0.29966
 Cu9 Cu 0.33622 0.30813 0.33779
 Cu10 Cu 0.31792 0.36085 0.35233
 N11 N 0.32027 0.37620 0.30601
 N12 N 0.31338 0.38103 0.32688
 C13 C 0.30419 0.40133 0.32693
 C14 C 0.30523 0.40950 0.30486
 C15 C 0.31555 0.39309 0.29197
 H16 H 0.29751 0.40964 0.34195
 H17 H 0.32008 0.39362 0.27399
 N18 N 0.31484 0.33515 0.37294
 N19 N 0.32037 0.31480 0.36703
 C20 C 0.31389 0.30088 0.38399
 C21 C 0.30396 0.31326 0.40136
 C22 C 0.30500 0.33480 0.39384
 H23 H 0.31639 0.28320 0.38376
 H24 H 0.29831 0.34911 0.40266
 H25 H 0.31363 0.33439 0.33106
 H26 H 0.34327 0.34032 0.33967
 N27 N 0.36806 0.81301 -0.19012
 N28 N 0.36471 0.82809 -0.20586
 C29 C 0.38176 0.82745 -0.22143
 C30 C 0.39646 0.81090 -0.21527
 C31 C 0.38722 0.80198 -0.19530
 H32 H 0.38338 0.83828 -0.23611
 H33 H 0.39413 0.78895 -0.18492
 Cu34 Cu 0.33863 0.84732 -0.20450
 Cu35 Cu 0.34807 0.80979 -0.16342
 Cu36 Cu 0.30635 0.84946 -0.15665
 N37 N 0.31852 0.87183 -0.19844
 N38 N 0.30623 0.87294 -0.17951
 C39 C 0.29500 0.89225 -0.17913
 C40 C 0.30050 0.90375 -0.19892
 C41 C 0.31546 0.89024 -0.21085
 H42 H 0.28384 0.89764 -0.16537
 H43 H 0.32408 0.89369 -0.22693
 N44 N 0.30964 0.82431 -0.13555
 N45 N 0.32601 0.80961 -0.13772
 C46 C 0.32473 0.79547 -0.11994
 C47 C 0.30651 0.80133 -0.10620
 C48 C 0.29728 0.81967 -0.11655
 H49 H 0.33621 0.78192 -0.11709
 H50 H 0.28312 0.82933 -0.11028
 H51 H 0.31913 0.82388 -0.17645
 H52 H 0.34016 0.84301 -0.16335
 N53 N 0.86202 0.30878 -0.18100
 N54 N 0.86047 0.32387 -0.19709
 C55 C 0.87651 0.32025 -0.21325
 C56 C 0.88894 0.30206 -0.20688
 C57 C 0.87937 0.29518 -0.18623
 H58 H 0.87896 0.33010 -0.22855
 H59 H 0.88421 0.28110 -0.17606
 Cu60 Cu 0.83783 0.34704 -0.19544
 Cu61 Cu 0.84042 0.30771 -0.15523
 Cu62 Cu 0.78930 0.33127 -0.17010
 N63 N 0.81100 0.36541 -0.19666
 N64 N 0.79178 0.35877 -0.18721
 C65 C 0.77562 0.37375 -0.19135
 C66 C 0.78530 0.39090 -0.20375
 C67 C 0.80787 0.38507 -0.20689
 H68 H 0.75818 0.37240 -0.18549
 H69 H 0.82095 0.39417 -0.21609
 N70 N 0.79224 0.30977 -0.14504
 N71 N 0.81181 0.30172 -0.13843
 C72 C 0.80833 0.28943 -0.11944
 C73 C 0.78540 0.28987 -0.11395
 C74 C 0.77578 0.30278 -0.13055
 H75 H 0.82151 0.28101 -0.11031
 H76 H 0.75817 0.30751 -0.13143
 H77 H 0.81853 0.31438 -0.17994
 H78 H 0.82108 0.33686 -0.15839
 N79 N 0.86398 0.80998 0.33320
 N80 N 0.86644 0.81931 0.31299
 C81 C 0.88540 0.81147 0.30275
 C82 C 0.89533 0.79670 0.31764
 C83 C 0.88147 0.79638 0.33683
 H84 H 0.89163 0.81637 0.28599
 H85 H 0.88351 0.78641 0.35201
 Cu86 Cu 0.84503 0.84158 0.30288
 Cu87 Cu 0.83741 0.81472 0.35258
 Cu88 Cu 0.79206 0.83617 0.32379
 N89 N 0.82230 0.86432 0.29782
 N90 N 0.80143 0.86165 0.30560
 C91 C 0.78924 0.87964 0.30072
 C92 C 0.80328 0.89470 0.28945
 C93 C 0.82414 0.88431 0.28773
 H94 H 0.77167 0.88164 0.30578
 H95 H 0.83960 0.89102 0.28027
 N96 N 0.78840 0.81840 0.35161
 N97 N 0.80587 0.81151 0.36335
 C98 C 0.79828 0.80144 0.38250
 C99 C 0.77484 0.80215 0.38285
 C100 C 0.76914 0.81294 0.36297
 H101 H 0.80913 0.79415 0.39509
 H102 H 0.75229 0.81720 0.35757
 H103 H 0.82047 0.81509 0.32296
 H104 H 0.82211 0.84212 0.33811
 N105 N 0.62431 0.67379 0.31838
 N106 N 0.62943 0.65612 0.30637
 C107 C 0.61353 0.65302 0.29045
 C108 C 0.59790 0.66983 0.29243
 C109 C 0.60522 0.68271 0.31035
 H110 H 0.61343 0.63976 0.27811
 H111 H 0.59707 0.69726 0.31728
 Cu112 Cu 0.65691 0.63971 0.31241
 Cu113 Cu 0.64223 0.68352 0.34407
 Cu114 Cu 0.69145 0.65434 0.35482
 N115 N 0.68439 0.62333 0.31840
 N116 N 0.69810 0.62932 0.33473
 C117 C 0.71587 0.61542 0.33497
 C118 C 0.71308 0.59990 0.31794
 C119 C 0.69293 0.60545 0.30774
 H120 H 0.72974 0.61640 0.34673
 H121 H 0.68510 0.59720 0.29356
 N122 N 0.68149 0.68009 0.37316
 N123 N 0.66251 0.69082 0.36928
 C124 C 0.65961 0.70649 0.38534
 C125 C 0.67766 0.70579 0.39988
 C126 C 0.69128 0.68888 0.39171
 H127 H 0.64530 0.71754 0.38659
 H128 H 0.70676 0.68299 0.39913
 H129 H 0.67292 0.67178 0.33150
 H130 H 0.65679 0.65331 0.35155
 N131 N 0.62779 0.18089 -0.18030
 N132 N 0.62773 0.16178 -0.19091
 C133 C 0.61005 0.16103 -0.20510
 C134 C 0.59870 0.18088 -0.20356
 C135 C 0.61037 0.19312 -0.18764
 H136 H 0.60582 0.14714 -0.21581
 H137 H 0.60601 0.20933 -0.18126
 Cu138 Cu 0.65103 0.13988 -0.18571
 Cu139 Cu 0.64908 0.18734 -0.15618
 Cu140 Cu 0.69554 0.15315 -0.15283
 N141 N 0.67950 0.12399 -0.18777
 N142 N 0.69710 0.12949 -0.17556
 C143 C 0.71457 0.11618 -0.18125
 C144 C 0.70748 0.10154 -0.19784
 C145 C 0.68506 0.10701 -0.20154
 H146 H 0.73119 0.11700 -0.17383
 H147 H 0.67365 0.09960 -0.21357
 N148 N 0.69023 0.17801 -0.13148
 N149 N 0.67232 0.19092 -0.13280
 C150 C 0.67223 0.20512 -0.11515
 C151 C 0.69100 0.20114 -0.10212
 C152 C 0.70215 0.18385 -0.11297
 H153 H 0.65912 0.21710 -0.11156
 H154 H 0.71721 0.17555 -0.10729
 H155 H 0.67455 0.17039 -0.17394
 H156 H 0.66084 0.15555 -0.14903
 N157 N 0.14305 0.69938 -0.18374
 N158 N 0.14097 0.68405 -0.19943
 C159 C 0.12304 0.68895 -0.21247
 C160 C 0.11364 0.70846 -0.20443
 C161 C 0.12680 0.71459 -0.18633
 H162 H 0.11754 0.67937 -0.22692
 H163 H 0.12464 0.72913 -0.17582
 Cu164 Cu 0.16260 0.65979 -0.20154
 Cu165 Cu 0.16643 0.69874 -0.16098
 Cu166 Cu 0.20574 0.65664 -0.16448
 N167 N 0.18565 0.63687 -0.20393
 N168 N 0.20205 0.63541 -0.18911
 C169 C 0.21531 0.61808 -0.19458
 C170 C 0.20684 0.60828 -0.21398
 C171 C 0.18813 0.62067 -0.21951
 H172 H 0.23029 0.61334 -0.18547
 H173 H 0.17721 0.61802 -0.23388
 N174 N 0.20650 0.67978 -0.14081
 N175 N 0.19118 0.69555 -0.13937
 C176 C 0.19586 0.70863 -0.12153
 C177 C 0.21512 0.70082 -0.11127
 C178 C 0.22153 0.68260 -0.12398
 H179 H 0.18622 0.72305 -0.11662
 H180 H 0.23602 0.67217 -0.12106
 H181 H 0.19011 0.68211 -0.18125
 H182 H 0.17209 0.66491 -0.16148
 N183 N 0.13417 0.18072 0.31964
 N184 N 0.13402 0.16455 0.30467
 C185 C 0.11478 0.16555 0.29273
 C186 C 0.10243 0.18347 0.30031
 C187 C 0.11520 0.19280 0.31741
 H188 H 0.11004 0.15417 0.27942
 H189 H 0.11072 0.20688 0.32787
 Cu190 Cu 0.15903 0.14386 0.30187
 Cu191 Cu 0.15816 0.18383 0.34201
 Cu192 Cu 0.20160 0.14550 0.33888
 N193 N 0.18386 0.12281 0.30008
 N194 N 0.20015 0.12331 0.31506
 C195 C 0.21488 0.10694 0.31050
 C196 C 0.20749 0.09561 0.29154
 C197 C 0.18784 0.10617 0.28527
 H198 H 0.23004 0.10381 0.32002
 H199 H 0.17721 0.10189 0.27109
 N200 N 0.20037 0.16913 0.36181
 N201 N 0.18398 0.18388 0.36311
 C202 C 0.18807 0.19758 0.38077
 C203 C 0.20800 0.19102 0.39087
 C204 C 0.21527 0.17306 0.37841
 H205 H 0.17734 0.21118 0.38591
 H206 H 0.23035 0.16351 0.38142
 H207 H 0.18325 0.16966 0.32219
 H208 H 0.16690 0.15101 0.34193
 N209 N 0.62946 0.31676 0.67350
 N210 N 0.62576 0.33484 0.68537
 C211 C 0.60900 0.33127 0.70074
 C212 C 0.60153 0.30990 0.69836
 C213 C 0.61477 0.30101 0.68083
 H214 H 0.60304 0.34322 0.71317
 H215 H 0.61434 0.28425 0.67452
 Cu216 Cu 0.64385 0.36109 0.68143
 Cu217 Cu 0.65414 0.31522 0.65067
 Cu218 Cu 0.69289 0.35841 0.65218
 N219 N 0.66746 0.38254 0.68588
 N220 N 0.68718 0.38108 0.67522
 C221 C 0.70072 0.39747 0.68251
 C222 C 0.68861 0.40971 0.69855
 C223 C 0.66761 0.39985 0.70016
 H224 H 0.71789 0.40036 0.67643
 H225 H 0.65361 0.40468 0.71122
 N226 N 0.69523 0.33399 0.63007
 N227 N 0.68057 0.31747 0.62941
 C228 C 0.68604 0.30435 0.61154
 C229 C 0.70491 0.31324 0.60044
 C230 C 0.71021 0.33195 0.61261
 H231 H 0.67643 0.29003 0.60643
 H232 H 0.72360 0.34361 0.60850
 H233 H 0.67347 0.33557 0.67049
 H234 H 0.65977 0.34859 0.64519
 N235 N 0.63772 0.79636 1.19566
 N236 N 0.63682 0.81365 1.20915
 C237 C 0.61817 0.81222 1.22269
 C238 C 0.60674 0.79308 1.21719
 C239 C 0.61971 0.78330 1.20007
 H240 H 0.61304 0.82442 1.23521
 H241 H 0.61638 0.76795 1.19133
 Cu242 Cu 0.65950 0.83684 1.20701
 Cu243 Cu 0.66210 0.79223 1.17338
 Cu244 Cu 0.68877 0.84099 1.15716
 N245 N 0.67495 0.86378 1.19802
 N246 N 0.68543 0.86572 1.17810
 C247 C 0.69429 0.88617 1.17624
 C248 C 0.68921 0.89750 1.19611
 C249 C 0.67684 0.88282 1.20959
 H250 H 0.70439 0.89212 1.16187
 H251 H 0.66976 0.88566 1.22650
 N252 N 0.69035 0.81373 1.13889
 N253 N 0.68093 0.79495 1.14556
 C254 C 0.68606 0.77914 1.13020
 C255 C 0.69932 0.78843 1.11305
 C256 C 0.70176 0.81038 1.11908
 H257 H 0.68056 0.76211 1.13140
 H258 H 0.71154 0.82287 1.11007
 H259 H 0.68576 0.81689 1.18137
 H260 H 0.65905 0.82533 1.16731
 N261 N 0.13178 0.32048 1.18628
 N262 N 0.13198 0.33661 1.20130
 C263 C 0.11283 0.33595 1.21404
 C264 C 0.10013 0.31818 1.20704
 C265 C 0.11263 0.30857 1.18942
 H266 H 0.10862 0.34731 1.22771
 H267 H 0.10792 0.29441 1.17928
 Cu268 Cu 0.15784 0.35606 1.20400
 Cu269 Cu 0.15619 0.31743 1.16331
 Cu270 Cu 0.18511 0.36700 1.15491
 N271 N 0.18158 0.37810 1.20242
 N272 N 0.19204 0.38268 1.18295
 C273 C 0.20691 0.39920 1.18624
 C274 C 0.20577 0.40506 1.20911
 C275 C 0.18957 0.39133 1.21886
 H276 H 0.21770 0.40623 1.17295
 H277 H 0.18379 0.39125 1.23651
 N278 N 0.18440 0.34334 1.13194
 N279 N 0.17468 0.32394 1.13558
 C280 C 0.17902 0.31081 1.11746
 C281 C 0.19205 0.32266 1.10171
 C282 C 0.19499 0.34317 1.11138
 H283 H 0.17299 0.29402 1.11581
 H284 H 0.20481 0.35674 1.10428
 H285 H 0.18169 0.33922 1.17427
 H286 H 0.15482 0.35050 1.16289
 N287 N 0.14294 0.81157 0.69512
 N288 N 0.14444 0.82721 0.71054
 C289 C 0.12567 0.82704 0.72391
 C290 C 0.11177 0.81024 0.71656
 C291 C 0.12328 0.80066 0.69829
 H292 H 0.12232 0.83835 0.73785
 H293 H 0.11757 0.78730 0.68758
 Cu294 Cu 0.17081 0.84615 0.71167
 Cu295 Cu 0.16602 0.80782 0.67127
 Cu296 Cu 0.19502 0.85680 0.66048
 N297 N 0.19317 0.86918 0.70780
 N298 N 0.20225 0.87388 0.68768
 C299 C 0.21577 0.89170 0.68971
 C300 C 0.21512 0.89823 0.71241
 C301 C 0.20074 0.88353 0.72337
 H302 H 0.22519 0.89929 0.67572
 H303 H 0.19562 0.88372 0.74121
 N304 N 0.19268 0.83269 0.63788
 N305 N 0.18254 0.81370 0.64256
 C306 C 0.18410 0.80045 0.62422
 C307 C 0.19578 0.81165 0.60706
 C308 C 0.20097 0.83202 0.61627
 H309 H 0.17662 0.78417 0.62333
 H310 H 0.21013 0.84532 0.60784
 H311 H 0.19270 0.82944 0.68032
 H312 H 0.16523 0.84113 0.67087
 N313 N 0.35590 0.70745 0.68281
 N314 N 0.36036 0.68934 0.69432
 C315 C 0.37876 0.69303 0.70722
 C316 C 0.38588 0.71465 0.70357
 C317 C 0.37092 0.72322 0.68816
 H318 H 0.38642 0.68096 0.71828
 H319 H 0.37146 0.73961 0.68080
 Cu320 Cu 0.34150 0.66292 0.69073
 Cu321 Cu 0.33256 0.70908 0.65991
 Cu322 Cu 0.30121 0.66181 0.65067
 N323 N 0.32217 0.63692 0.68647
 N324 N 0.30747 0.63644 0.66986
 C325 C 0.29690 0.61677 0.66984
 C326 C 0.30497 0.60428 0.68757
 C327 C 0.32106 0.61750 0.69789
 H328 H 0.28375 0.61204 0.65819
 H329 H 0.33124 0.61323 0.71240
 N330 N 0.29705 0.68919 0.63315
 N331 N 0.30842 0.70750 0.63725
 C332 C 0.30132 0.72347 0.62304
 C333 C 0.28479 0.71477 0.60931
 C334 C 0.28245 0.69300 0.61619
 H335 H 0.30785 0.74016 0.62243
 H336 H 0.27088 0.68088 0.60950
 H337 H 0.31157 0.68506 0.67403
 H338 H 0.33313 0.67585 0.65228
 N339 N 0.35524 0.19365 1.17855
 N340 N 0.35794 0.17868 1.19458
 C341 C 0.37493 0.18508 1.20817
 C342 C 0.38311 0.20522 1.20026
 C343 C 0.37014 0.21019 1.18159
 H344 H 0.38086 0.17581 1.22267
 H345 H 0.37192 0.22452 1.17064
 Cu346 Cu 0.33904 0.15224 1.19625
 Cu347 Cu 0.33409 0.18991 1.15373
 Cu348 Cu 0.30547 0.14022 1.15231
 N349 N 0.32526 0.12313 1.19289
 N350 N 0.31336 0.11821 1.17483
 C351 C 0.30602 0.09723 1.17651
 C352 C 0.31332 0.08864 1.19688
 C353 C 0.32555 0.10546 1.20695
 H354 H 0.29532 0.08909 1.16430
 H355 H 0.33396 0.10489 1.22319
 N356 N 0.30201 0.16305 1.12882
 N357 N 0.31208 0.18249 1.12996
 C358 C 0.30553 0.19493 1.11217
 C359 C 0.29078 0.18259 1.09921
 C360 C 0.28906 0.16247 1.11014
 H361 H 0.31140 0.21154 1.10865
 H362 H 0.27885 0.14856 1.10496
 H363 H 0.31197 0.16920 1.17035
 H364 H 0.33647 0.15603 1.15501
 N365 N 0.85405 0.69598 1.18362
 N366 N 0.85851 0.67889 1.19666
 C367 C 0.87744 0.68317 1.20843
 C368 C 0.88512 0.70412 1.20235
 C369 C 0.86977 0.71174 1.18673
 H370 H 0.88507 0.67182 1.22029
 H371 H 0.87029 0.72743 1.17786
 Cu372 Cu 0.83884 0.65284 1.19673
 Cu373 Cu 0.82883 0.69599 1.16266
 Cu374 Cu 0.81366 0.64300 1.14689
 N375 N 0.82126 0.62592 1.19201
 N376 N 0.81214 0.62191 1.17210
 C377 C 0.80230 0.60185 1.17264
 C378 C 0.80494 0.59295 1.19416
 C379 C 0.81711 0.60865 1.20609
 H380 H 0.79368 0.59436 1.15846
 H381 H 0.82297 0.60736 1.22344
 N382 N 0.80757 0.66931 1.12803
 N383 N 0.81226 0.68959 1.13469
 C384 C 0.80573 0.70395 1.11854
 C385 C 0.79647 0.69207 1.10080
 C386 C 0.79789 0.67020 1.10740
 H387 H 0.80834 0.72160 1.11936
 H388 H 0.79239 0.65599 1.09778
 H389 H 0.81032 0.66695 1.17070
 H390 H 0.83896 0.66478 1.15687
 N391 N 0.87462 0.19165 0.66447
 N392 N 0.87399 0.17938 0.68302
 C393 C 0.89113 0.18556 0.69659
 C394 C 0.90311 0.20244 0.68561
 C395 C 0.89224 0.20568 0.66527
 H396 H 0.89499 0.17796 0.71279
 H397 H 0.89675 0.21748 0.65203
 Cu398 Cu 0.85176 0.15540 0.68565
 Cu399 Cu 0.85268 0.18847 0.64047
 Cu400 Cu 0.80384 0.15940 0.65582
 N401 N 0.82808 0.13292 0.68821
 N402 N 0.80918 0.13459 0.67677
 C403 C 0.79593 0.11689 0.68156
 C404 C 0.80739 0.10328 0.69653
 C405 C 0.82771 0.11394 0.70024
 H406 H 0.77962 0.11380 0.67409
 H407 H 0.84133 0.10809 0.71073
 N408 N 0.80530 0.18061 0.62983
 N409 N 0.82411 0.19139 0.62431
 C410 C 0.81991 0.20588 0.60756
 C411 C 0.79754 0.20400 0.60181
 C412 C 0.78862 0.18771 0.61612
 H413 H 0.83210 0.21757 0.60056
 H414 H 0.77116 0.18231 0.61723
 H415 H 0.82885 0.18194 0.66528
 H416 H 0.83672 0.15782 0.64706
 N417 N 0.31329 0.36780 0.68184
 N418 N 0.32833 0.36244 0.69715
 C419 C 0.32663 0.37661 0.71484
 C420 C 0.30989 0.39176 0.71014
 C421 C 0.30175 0.38566 0.68905
 H422 H 0.33705 0.37626 0.72984
 H423 H 0.28832 0.39344 0.67969
 Cu424 Cu 0.34944 0.33832 0.69146
 Cu425 Cu 0.30977 0.35143 0.65358
 Cu426 Cu 0.34147 0.30357 0.64756
 N427 N 0.36972 0.31355 0.68580
 N428 N 0.36665 0.30020 0.66842
 C429 C 0.38348 0.28525 0.66769
 C430 C 0.39775 0.28931 0.68565
 C431 C 0.38852 0.30741 0.69683
 H432 H 0.38540 0.27251 0.65488
 H433 H 0.39533 0.31584 0.71145
 N434 N 0.31543 0.31049 0.62818
 N435 N 0.30368 0.32889 0.63030
 C436 C 0.28703 0.32886 0.61491
 C437 C 0.28843 0.30964 0.60239
 C438 C 0.30665 0.29832 0.61121
 H439 H 0.27462 0.34179 0.61304
 H440 H 0.31296 0.28240 0.60583
 H441 H 0.32000 0.32223 0.66849
 H442 H 0.34189 0.33690 0.65055
 N443 N 0.30869 0.86239 0.17667
 N444 N 0.32518 0.86304 0.19142
 C445 C 0.32099 0.87914 0.20671
 C446 C 0.30072 0.88909 0.20119
 C447 C 0.29337 0.87803 0.18207
 H448 H 0.33179 0.88313 0.22084
 H449 H 0.27810 0.88120 0.17270
 Cu450 Cu 0.35070 0.84297 0.18907
 Cu451 Cu 0.30902 0.84159 0.15134
 Cu452 Cu 0.33980 0.79453 0.16358
 N453 N 0.37218 0.81885 0.18955
 N454 N 0.36764 0.79967 0.18017
 C455 C 0.38487 0.78570 0.18394
 C456 C 0.40115 0.79691 0.19615
 C457 C 0.39257 0.81787 0.19935
 H458 H 0.38557 0.76885 0.17790
 H459 H 0.40051 0.83131 0.20839
 N460 N 0.31663 0.79566 0.13971
 N461 N 0.30570 0.81389 0.13445
 C462 C 0.29253 0.80999 0.11641
 C463 C 0.29537 0.78820 0.10993
 C464 C 0.31063 0.77958 0.12513
 H465 H 0.28171 0.82214 0.10866
 H466 H 0.31744 0.76302 0.12506
 H467 H 0.31948 0.82040 0.17534
 H468 H 0.34117 0.82638 0.15249
 N469 N 0.80763 0.36379 0.17793
 N470 N 0.82526 0.36966 0.18991
 C471 C 0.81947 0.38650 0.20376
 C472 C 0.79694 0.39151 0.20027
 C473 C 0.78996 0.37676 0.18378
 H474 H 0.83081 0.39428 0.21562
 H475 H 0.77327 0.37563 0.17657
 Cu476 Cu 0.85410 0.35461 0.18706
 Cu477 Cu 0.80928 0.34000 0.15544
 Cu478 Cu 0.85700 0.30723 0.15739
 N479 N 0.87837 0.33364 0.19150
 N480 N 0.87889 0.31460 0.18076
 C481 C 0.89687 0.30298 0.18782
 C482 C 0.90824 0.31556 0.20371
 C483 C 0.89613 0.33495 0.20551
 H484 H 0.90162 0.28685 0.18149
 H485 H 0.89980 0.34883 0.21645
 N486 N 0.83297 0.30276 0.13490
 N487 N 0.81462 0.31513 0.13420
 C488 C 0.80206 0.30872 0.11636
 C489 C 0.81319 0.29160 0.10527
 C490 C 0.83267 0.28831 0.11746
 H491 H 0.78649 0.31651 0.11131
 H492 H 0.84594 0.27659 0.11348
 H493 H 0.83150 0.32319 0.17579
 H494 H 0.84403 0.33848 0.15061
 N495 N 0.80920 0.86687 0.68077
 N496 N 0.82484 0.86445 0.69630
 C497 C 0.82218 0.88037 0.71222
 C498 C 0.80420 0.89359 0.70610
 C499 C 0.79635 0.88450 0.68608
 H500 H 0.83258 0.88237 0.72709
 H501 H 0.78207 0.89002 0.67633
 Cu502 Cu 0.84744 0.84096 0.69377
 Cu503 Cu 0.80602 0.84682 0.65499
 Cu504 Cu 0.84473 0.80435 0.65099
 N505 N 0.86882 0.81634 0.69133
 N506 N 0.86704 0.80202 0.67460
 C507 C 0.88309 0.78655 0.67649
 C508 C 0.89588 0.79134 0.69521
 C509 C 0.88645 0.81042 0.70441
 H510 H 0.88551 0.77282 0.66492
 H511 H 0.89189 0.81916 0.71945
 N512 N 0.82111 0.80899 0.62853
 N513 N 0.80578 0.82473 0.63019
 C514 C 0.79188 0.82322 0.61219
 C515 C 0.79919 0.80585 0.59862
 C516 C 0.81770 0.79734 0.60939
 H517 H 0.77801 0.83429 0.60881
 H518 H 0.82796 0.78367 0.60351
 H519 H 0.82040 0.82043 0.67108
 H520 H 0.83953 0.83830 0.65309
 N521 N 0.70764 0.64221 0.68626
 N522 N 0.68904 0.63425 0.69591
 C523 C 0.69426 0.61667 0.70884
 C524 C 0.71744 0.61345 0.70715
 C525 C 0.72538 0.62998 0.69279
 H526 H 0.68206 0.60695 0.71854
 H527 H 0.74269 0.63241 0.68690
 Cu528 Cu 0.65976 0.64748 0.69078
 Cu529 Cu 0.70719 0.66620 0.66410
 Cu530 Cu 0.65486 0.68957 0.65401
 N531 N 0.63411 0.66742 0.69228
 N532 N 0.63250 0.68417 0.67813
 C533 C 0.61350 0.69549 0.68309
 C534 C 0.60266 0.68526 0.70146
 C535 C 0.61612 0.66744 0.70677
 H536 H 0.60801 0.70996 0.67390
 H537 H 0.61319 0.65555 0.72034
 N538 N 0.68259 0.69843 0.63740
 N539 N 0.70270 0.69024 0.64189
 C540 C 0.71816 0.69946 0.62757
 C541 C 0.70722 0.71399 0.61338
 C542 C 0.68466 0.71303 0.62012
 H543 H 0.73595 0.69529 0.62682
 H544 H 0.67074 0.72201 0.61286
 H545 H 0.67839 0.68109 0.67759
 H546 H 0.67480 0.66095 0.65383
 N547 N 0.70261 0.13931 0.19223
 N548 N 0.68302 0.13092 0.19892
 C549 C 0.68653 0.11159 0.20959
 C550 C 0.70964 0.10770 0.20962
 C551 C 0.71932 0.12566 0.19853
 H552 H 0.67322 0.10130 0.21683
 H553 H 0.73717 0.12850 0.19511
 Cu554 Cu 0.65485 0.14636 0.19392
 Cu555 Cu 0.70463 0.16723 0.17586
 Cu556 Cu 0.65389 0.18884 0.15720
 N557 N 0.62995 0.16715 0.19396
 N558 N 0.62953 0.18414 0.17994
 C559 C 0.61031 0.19562 0.18392
 C560 C 0.59818 0.18507 0.20135
 C561 C 0.61110 0.16709 0.20718
 H562 H 0.60543 0.21024 0.17462
 H563 H 0.60709 0.15491 0.22020
 N564 N 0.68348 0.19675 0.14315
 N565 N 0.70276 0.18931 0.15120
 C566 C 0.71995 0.19658 0.13778
 C567 C 0.71116 0.20894 0.12027
 C568 C 0.68792 0.20885 0.12420
 H569 H 0.73751 0.19201 0.13970
 H570 H 0.67517 0.21637 0.11372
 H571 H 0.67316 0.18132 0.18367
 H572 H 0.67457 0.16063 0.16004
 N573 N 0.19502 0.63578 0.18325
 N574 N 0.17849 0.63609 0.19862
 C575 C 0.18083 0.61872 0.21281
 C576 C 0.19998 0.60722 0.20610
 C577 C 0.20858 0.61850 0.18729
 H578 H 0.16926 0.61447 0.22670
 H579 H 0.22299 0.61389 0.17669
 Cu580 Cu 0.15503 0.65857 0.19817
 Cu581 Cu 0.19666 0.65632 0.15787
 Cu582 Cu 0.15383 0.69474 0.15415
 N583 N 0.13057 0.67973 0.19487
 N584 N 0.12994 0.69337 0.17739
 C585 C 0.11058 0.70499 0.17851
 C586 C 0.09856 0.69848 0.19782
 C587 C 0.11169 0.68242 0.20787
 H588 H 0.10545 0.71712 0.16607
 H589 H 0.10743 0.67287 0.22300
 N590 N 0.17950 0.69351 0.13226
 N591 N 0.19550 0.67842 0.13338
 C592 C 0.20958 0.68062 0.11514
 C593 C 0.20227 0.69808 0.10215
 C594 C 0.18319 0.70596 0.11344
 H595 H 0.22391 0.67011 0.11132
 H596 H 0.17229 0.71913 0.10784
 H597 H 0.17926 0.68179 0.17375
 H598 H 0.16201 0.66169 0.15710
 N599 N 0.19897 0.13714 0.68538
 N600 N 0.18492 0.13890 0.70294
 C601 C 0.18625 0.12062 0.71596
 C602 C 0.20242 0.10697 0.70627
 C603 C 0.21022 0.11793 0.68687
 H604 H 0.17652 0.11767 0.73153
 H605 H 0.22273 0.11219 0.67454
 Cu606 Cu 0.16732 0.16546 0.70763
 Cu607 Cu 0.20107 0.15977 0.66181
 Cu608 Cu 0.15758 0.19861 0.66279
 N609 N 0.14325 0.18693 0.70852
 N610 N 0.13883 0.19956 0.69087
 C611 C 0.12045 0.21193 0.69599
 C612 C 0.11319 0.20665 0.71806
 C613 C 0.12808 0.19083 0.72542
 H614 H 0.11294 0.22375 0.68454
 H615 H 0.12754 0.18237 0.74172
 N616 N 0.17883 0.19477 0.63635
 N617 N 0.19486 0.17959 0.63605
 C618 C 0.20562 0.17994 0.61559
 C619 C 0.19640 0.19640 0.60253
 C620 C 0.17946 0.20561 0.61614
 H621 H 0.21923 0.16899 0.61051
 H622 H 0.16811 0.21875 0.61141
 H623 H 0.18629 0.18743 0.67743
 H624 H 0.16701 0.16582 0.66620
 N625 N 0.29435 0.64356 0.32230
 N626 N 0.31185 0.64236 0.30814
 C627 C 0.30932 0.62471 0.29448
 C628 C 0.28913 0.61438 0.30042
 C629 C 0.28000 0.62682 0.31803
 H630 H 0.32107 0.61997 0.28099
 H631 H 0.26422 0.62372 0.32720
 Cu632 Cu 0.33570 0.66446 0.30820
 Cu633 Cu 0.29213 0.66602 0.34595
 Cu634 Cu 0.33532 0.70499 0.34724
 N635 N 0.35933 0.68679 0.30863
 N636 N 0.35879 0.70296 0.32357
 C637 C 0.37637 0.71668 0.31935
 C638 C 0.38863 0.70855 0.30092
 C639 C 0.37736 0.68956 0.29449
 H640 H 0.37997 0.73151 0.32890
 H641 H 0.38162 0.67893 0.28025
 N642 N 0.31005 0.70424 0.36964
 N643 N 0.29321 0.68989 0.36869
 C644 C 0.27898 0.69325 0.38660
 C645 C 0.28744 0.71039 0.39947
 C646 C 0.30711 0.71693 0.38832
 H647 H 0.26425 0.68324 0.39064
 H648 H 0.31870 0.72964 0.39380
 H649 H 0.31050 0.68990 0.32835
 H650 H 0.32655 0.67182 0.34819
 N651 N 0.29942 0.14152 0.82564
 N652 N 0.31577 0.13865 0.81040
 C653 C 0.31104 0.12110 0.79740
 C654 C 0.29052 0.11238 0.80476
 C655 C 0.28343 0.12587 0.82260
 H656 H 0.32156 0.11546 0.78328
 H657 H 0.26795 0.12433 0.83268
 Cu658 Cu 0.34130 0.15840 0.80783
 Cu659 Cu 0.30077 0.16578 0.84766
 Cu660 Cu 0.35408 0.19028 0.85205
 N661 N 0.36340 0.18180 0.80477
 N662 N 0.36937 0.19377 0.82237
 C663 C 0.38662 0.20717 0.81593
 C664 C 0.39133 0.20342 0.79295
 C665 C 0.37623 0.18736 0.78645
 H666 H 0.39505 0.21862 0.82713
 H667 H 0.37522 0.17974 0.76980
 N668 N 0.33024 0.19274 0.87588
 N669 N 0.30965 0.18448 0.87372
 C670 C 0.29702 0.19016 0.89219
 C671 C 0.31038 0.20252 0.90661
 C672 C 0.33132 0.20371 0.89581
 H673 H 0.27955 0.18533 0.89508
 H674 H 0.34611 0.21237 0.90179
 H675 H 0.32587 0.18640 0.83349
 H676 H 0.33472 0.16109 0.84909
 N677 N 0.81070 0.63619 0.81731
 N678 N 0.83008 0.63602 0.80587
 C679 C 0.83208 0.61697 0.79432
 C680 C 0.81285 0.60456 0.79856
 C681 C 0.79949 0.61724 0.81318
 H682 H 0.84645 0.61248 0.78358
 H683 H 0.78315 0.61295 0.82061
 Cu684 Cu 0.85094 0.66066 0.80672
 Cu685 Cu 0.80246 0.66090 0.83722
 Cu686 Cu 0.85095 0.68660 0.85697
 N687 N 0.87469 0.68116 0.81437
 N688 N 0.87526 0.69065 0.83452
 C689 C 0.89432 0.70279 0.83590
 C690 C 0.90595 0.70113 0.81529
 C691 C 0.89307 0.68720 0.80201
 H692 H 0.89913 0.71237 0.85062
 H693 H 0.89701 0.68144 0.78492
 N694 N 0.82105 0.68906 0.87217
 N695 N 0.80234 0.68015 0.86427
 C696 C 0.78461 0.68676 0.87735
 C697 C 0.79263 0.70056 0.89419
 C698 C 0.81580 0.70161 0.89038
 H699 H 0.76715 0.68215 0.87462
 H700 H 0.82797 0.71140 0.89952
 H701 H 0.82818 0.68483 0.83109
 H702 H 0.83499 0.65818 0.84545
 N703 N 0.81287 0.11789 0.32014
 N704 N 0.82975 0.11906 0.30524
 C705 C 0.82898 0.10142 0.29128
 C706 C 0.81041 0.08875 0.29764
 C707 C 0.80059 0.09965 0.31606
 H708 H 0.84082 0.09819 0.27736
 H709 H 0.78573 0.09464 0.32587
 Cu710 Cu 0.85054 0.14381 0.30542
 Cu711 Cu 0.80801 0.14008 0.34364
 Cu712 Cu 0.84401 0.18574 0.34246
 N713 N 0.87493 0.16433 0.31122
 N714 N 0.87211 0.18153 0.32465
 C715 C 0.89106 0.19405 0.32365
 C716 C 0.90657 0.18374 0.30914
 C717 C 0.89584 0.16492 0.30176
 H718 H 0.89343 0.20930 0.33290
 H719 H 0.90252 0.15292 0.28975
 N720 N 0.81877 0.18208 0.36511
 N721 N 0.80572 0.16432 0.36579
 C722 C 0.79125 0.16577 0.38371
 C723 C 0.79515 0.18533 0.39487
 C724 C 0.81274 0.19541 0.38268
 H725 H 0.77881 0.15340 0.38857
 H726 H 0.82100 0.21084 0.38672
 H727 H 0.82124 0.16599 0.32516
 H728 H 0.84116 0.15227 0.34492
 N729 N 0.68621 0.36371 0.31812
 N730 N 0.67002 0.36294 0.30299
 C731 C 0.67148 0.38096 0.28951
 C732 C 0.68969 0.39355 0.29634
 C733 C 0.69865 0.38217 0.31463
 H734 H 0.66021 0.38460 0.27565
 H735 H 0.71283 0.38708 0.32491
 Cu736 Cu 0.64848 0.33845 0.30220
 Cu737 Cu 0.68899 0.34092 0.34168
 Cu738 Cu 0.66839 0.29083 0.32277
 N739 N 0.63216 0.31070 0.29809
 N740 N 0.64052 0.29207 0.30573
 C741 C 0.62674 0.27531 0.30011
 C742 C 0.60857 0.28382 0.28859
 C743 C 0.61251 0.30642 0.28752
 H744 H 0.62956 0.25818 0.30445
 H745 H 0.60204 0.31876 0.27958
 N746 N 0.68954 0.29353 0.34823
 N747 N 0.69650 0.31262 0.35642
 C748 C 0.70823 0.30890 0.37562
 C749 C 0.70855 0.28631 0.37956
 C750 C 0.69669 0.27717 0.36183
 H751 H 0.71546 0.32168 0.38613
 H752 H 0.69251 0.25990 0.35971
 H753 H 0.68344 0.32127 0.31511
 H754 H 0.66036 0.32053 0.33737
 N755 N 0.69495 0.86688 0.81901
 N756 N 0.68097 0.86588 0.80178
 C757 C 0.68418 0.88399 0.78851
 C758 C 0.70082 0.89698 0.79827
 C759 C 0.70710 0.88565 0.81755
 H760 H 0.67454 0.88792 0.77352
 H761 H 0.71944 0.89093 0.82983
 Cu762 Cu 0.65888 0.84163 0.79980
 Cu763 Cu 0.69628 0.84440 0.84276
 Cu764 Cu 0.65913 0.80059 0.83868
 N765 N 0.63820 0.81621 0.79767
 N766 N 0.63937 0.80002 0.81262
 C767 C 0.62434 0.78424 0.80743
 C768 C 0.61269 0.79082 0.78850
 C769 C 0.62182 0.81129 0.78259
 H770 H 0.62167 0.76913 0.81701
 H771 H 0.61710 0.82157 0.76834
 N772 N 0.68026 0.80375 0.86395
 N773 N 0.69508 0.82004 0.86519
 C774 C 0.70710 0.81754 0.88441
 C775 C 0.69914 0.79896 0.89582
 C776 C 0.68212 0.79074 0.88249
 H777 H 0.71996 0.82887 0.89020
 H778 H 0.67169 0.77643 0.88626
 H779 H 0.68424 0.81932 0.82267
 H780 H 0.66299 0.83460 0.84064
 N781 N 0.19641 0.37266 0.83008
 N782 N 0.18599 0.37302 0.81041
 C783 C 0.19364 0.39052 0.79812
 C784 C 0.20955 0.40165 0.81095
 C785 C 0.21079 0.38988 0.83106
 H786 H 0.18758 0.39520 0.78148
 H787 H 0.22118 0.39383 0.84552
 Cu788 Cu 0.16248 0.35129 0.80345
 Cu789 Cu 0.19019 0.35061 0.85353
 Cu790 Cu 0.14642 0.31422 0.84388
 N791 N 0.13729 0.33073 0.79888
 N792 N 0.13119 0.31661 0.81496
 C793 C 0.11356 0.30456 0.80788
 C794 C 0.10807 0.31142 0.78612
 C795 C 0.12350 0.32809 0.78092
 H796 H 0.10538 0.29178 0.81798
 H797 H 0.12443 0.33764 0.76529
 N798 N 0.16382 0.31403 0.87211
 N799 N 0.18130 0.32720 0.87533
 C800 C 0.19070 0.32209 0.89545
 C801 C 0.17833 0.30503 0.90538
 C802 C 0.16137 0.30045 0.89025
 H803 H 0.20529 0.33027 0.90249
 H804 H 0.14860 0.28770 0.89212
 H805 H 0.17738 0.32646 0.83244
 H806 H 0.15676 0.34694 0.84458
 N807 N 0.19540 0.86111 0.31208
 N808 N 0.17750 0.86457 0.29956
 C809 C 0.17954 0.88441 0.28928
 C810 C 0.19993 0.89370 0.29549
 C811 C 0.20963 0.87841 0.30992
 H812 H 0.16713 0.89160 0.27816
 H813 H 0.22545 0.87997 0.31878
 Cu814 Cu 0.15362 0.84249 0.29772
 Cu815 Cu 0.19817 0.83484 0.33107
 Cu816 Cu 0.14674 0.80885 0.34277
 N817 N 0.13115 0.81895 0.29776
 N818 N 0.12794 0.80622 0.31578
 C819 C 0.11084 0.79206 0.31175
 C820 C 0.10317 0.79599 0.28988
 C821 C 0.11649 0.81309 0.28150
 H822 H 0.10483 0.77961 0.32370
 H823 H 0.11540 0.82081 0.26487
 N824 N 0.17329 0.80598 0.36249
 N825 N 0.19318 0.81484 0.35722
 C826 C 0.20815 0.80914 0.37322
 C827 C 0.19715 0.79623 0.38943
 C828 C 0.17504 0.79447 0.38210
 H829 H 0.22568 0.81438 0.37332
 H830 H 0.16135 0.78522 0.39014
 H831 H 0.17220 0.81386 0.31999
 H832 H 0.16459 0.83854 0.33752
 C833 C 0.28484 1.01317 0.26418
 C834 C 0.26661 1.01106 0.28006
 C835 C 0.25870 0.99002 0.28632
 C836 C 0.26846 0.97088 0.27693
 C837 C 0.28708 0.97296 0.26154
 C838 C 0.29518 0.99398 0.25554
 H839 H 0.30966 0.99534 0.24394
 H840 H 0.24489 0.98855 0.29872
 C841 C 0.27278 0.52257 0.74539
 C842 C 0.25759 0.52032 0.76425
 C843 C 0.24829 0.49956 0.76963
 C844 C 0.25328 0.48089 0.75621
 C845 C 0.26854 0.48312 0.73739
 C846 C 0.27798 0.50385 0.73215
 H847 H 0.29003 0.50518 0.71800
 H848 H 0.23609 0.49827 0.78365
 C849 C 0.74161 -0.02531 0.26979
 C850 C 0.72192 -0.02512 0.25653
 C851 C 0.71315 -0.00501 0.24901
 C852 C 0.72330 0.01505 0.25483
 C853 C 0.74296 0.01499 0.26831
 C854 C 0.75224 -0.00528 0.27519
 H855 H 0.76681 -0.00545 0.28617
 H856 H 0.69794 -0.00496 0.23890
 C857 C 0.76720 0.48396 0.75718
 C858 C 0.74872 0.48279 0.74221
 C859 C 0.73574 0.50178 0.73838
 C860 C 0.74078 0.52179 0.74900
 C861 C 0.75916 0.52299 0.76403
 C862 C 0.77239 0.50410 0.76768
 H863 H 0.78619 0.50475 0.77962
 H864 H 0.72203 0.50128 0.72633
 C865 C 0.28015 0.48740 0.24005
 C866 C 0.26379 0.48997 0.22291
 C867 C 0.25685 0.51117 0.21668
 C868 C 0.26574 0.52994 0.22724
 C869 C 0.28247 0.52747 0.24396
 C870 C 0.28962 0.50629 0.25005
 H871 H 0.30265 0.50453 0.26272
 H872 H 0.24438 0.51308 0.20346
 C873 C 0.74747 1.02201 0.72788
 C874 C 0.72970 1.01849 0.74408
 C875 C 0.72300 0.99685 0.74971
 C876 C 0.73362 0.97840 0.73970
 C877 C 0.75147 0.98187 0.72358
 C878 C 0.75811 1.00354 0.71784
 H879 H 0.77121 1.00598 0.70483
 H880 H 0.70884 0.99441 0.76153
 C881 C 0.76857 0.51656 0.25756
 C882 C 0.74800 0.51380 0.27005
 C883 C 0.74024 0.49248 0.27555
 C884 C 0.75272 0.47364 0.26925
 C885 C 0.77311 0.47638 0.25643
 C886 C 0.78093 0.49772 0.25108
 H887 H 0.79674 0.49965 0.24154
 H888 H 0.72466 0.49066 0.28549
 C889 C 0.28042 -0.01403 0.74259
 C890 C 0.26451 -0.01155 0.72501
 C891 C 0.25721 0.00961 0.71903
 C892 C 0.26524 0.02839 0.73037
 C893 C 0.28105 0.02586 0.74798
 C894 C 0.28854 0.00473 0.75380
 H895 H 0.30108 0.00289 0.76698
 H896 H 0.24533 0.01150 0.70527
 C897 C 0.23139 0.26036 1.02550
 C898 C 0.24819 0.24379 1.02527
 C899 C 0.25646 0.23566 1.00422
 C900 C 0.24890 0.24429 0.98343
 C901 C 0.23307 0.26169 0.98370
 C902 C 0.22413 0.26923 1.00467
 H903 H 0.21160 0.28224 1.00474
 H904 H 0.26898 0.22266 1.00403
 C905 C 0.21058 0.74673 0.52550
 C906 C 0.22608 0.72916 0.52269
 C907 C 0.23168 0.72180 0.50067
 C908 C 0.22235 0.73164 0.48130
 C909 C 0.20642 0.74885 0.48405
 C910 C 0.20064 0.75612 0.50613
 H911 H 0.18827 0.76917 0.50826
 H912 H 0.24352 0.70827 0.49855
 C913 C 0.24430 0.77150 -0.02434
 C914 C 0.22734 0.75514 -0.02179
 C915 C 0.21991 0.74884 0.00013
 C916 C 0.22915 0.75842 0.01969
 C917 C 0.24619 0.77475 0.01721
 C918 C 0.25350 0.78114 -0.00476
 H919 H 0.26614 0.79409 -0.00663
 H920 H 0.20651 0.73664 0.00196
 C921 C 0.25204 0.25690 0.47546
 C922 C 0.23002 0.24757 0.47706
 C923 C 0.21949 0.24487 0.49862
 C924 C 0.23069 0.25054 0.51876
 C925 C 0.25293 0.25911 0.51720
 C926 C 0.26338 0.26198 0.49572
 H927 H 0.28061 0.26820 0.49483
 H928 H 0.20251 0.23803 0.49974
 C929 C 0.75236 0.77493 1.02074
 C930 C 0.76834 0.75781 1.02356
 C931 C 0.77908 0.74884 1.00410
 C932 C 0.77383 0.75605 0.98210
 C933 C 0.75761 0.77285 0.97925
 C934 C 0.74726 0.78225 0.99869
 H935 H 0.73529 0.79562 0.99667
 H936 H 0.79193 0.73627 1.00606
 C937 C 0.73576 0.25463 0.51756
 C938 C 0.74811 0.23476 0.51549
 C939 C 0.75833 0.22932 0.49444
 C940 C 0.75657 0.24321 0.47525
 C941 C 0.74351 0.26272 0.47708
 C942 C 0.73366 0.26837 0.49828
 H943 H 0.72346 0.28318 0.49953
 H944 H 0.76868 0.21460 0.49337
 C945 C 0.76466 0.25006 -0.01715
 C946 C 0.74536 0.23623 -0.01852
 C947 C 0.73145 0.23319 0.00101
 C948 C 0.73672 0.24303 0.02197
 C949 C 0.75625 0.25659 0.02340
 C950 C 0.77007 0.25972 0.00382
 H951 H 0.78459 0.27068 0.00458
 H952 H 0.71687 0.22230 0.00018
 C953 C 0.74334 0.77108 0.47992
 C954 C 0.72546 0.75553 0.47935
 C955 C 0.71226 0.75186 0.49927
 C956 C 0.71743 0.76239 0.51989
 C957 C 0.73532 0.77796 0.52036
 C958 C 0.74782 0.78227 0.50022
 H959 H 0.76133 0.79444 0.50030
 H960 H 0.69908 0.73935 0.49926
 C961 C 1.02431 0.24442 0.26825
 C962 C 1.02408 0.25859 0.24908
 C963 C 1.00324 0.26563 0.24052
 C964 C 0.98262 0.25884 0.25069
 C965 C 0.98284 0.24476 0.26997
 C966 C 1.00371 0.23770 0.27853
 H967 H 1.00401 0.22756 0.29380
 H968 H 1.00306 0.27561 0.22513
 C969 C 0.52412 0.24034 0.75375
 C970 C 0.52155 0.25141 0.73269
 C971 C 0.50007 0.25870 0.72626
 C972 C 0.48108 0.25587 0.74082
 C973 C 0.48360 0.24442 0.76174
 C974 C 0.50502 0.23685 0.76793
 H975 H 0.50687 0.22845 0.78417
 H976 H 0.49849 0.26791 0.71047
 C977 C -0.02118 0.25303 0.76974
 C978 C -0.02182 0.24202 0.74848
 C979 C -0.00166 0.24016 0.73534
 C980 C 0.01912 0.24801 0.74347
 C981 C 0.01970 0.25819 0.76525
 C982 C -0.00044 0.26037 0.77808
 H983 H -0.00006 0.26845 0.79461
 H984 H -0.00173 0.23131 0.71927
 C985 C 0.47284 0.25017 0.25793
 C986 C 0.47505 0.23129 0.24391
 C987 C 0.49616 0.22628 0.23387
 C988 C 0.51519 0.23990 0.23712
 C989 C 0.51303 0.25873 0.25130
 C990 C 0.49188 0.26373 0.26129
 H991 H 0.49049 0.27789 0.27254
 H992 H 0.49746 0.21216 0.22257
 C993 C 1.02286 0.73323 0.74905
 C994 C 1.02561 0.75385 0.73796
 C995 C 1.00668 0.76741 0.73474
 C996 C 0.98494 0.76037 0.74143
 C997 C 0.98215 0.73954 0.75206
 C998 C 1.00114 0.72622 0.75574
 H999 H 0.99901 0.71032 0.76408
 H1000 H 1.00869 0.78315 0.72606
 C1001 C 0.51953 0.72089 0.24563
 C1002 C 0.51866 0.73677 0.22798
 C1003 C 0.49784 0.74241 0.21863
 C1004 C 0.47756 0.73295 0.22697
 C1005 C 0.47850 0.71658 0.24417
 C1006 C 0.49942 0.71053 0.25312
 H1007 H 0.49987 0.69851 0.26685
 H1008 H 0.49747 0.75424 0.20471
 C1009 C -0.02717 0.74406 0.26815
 C1010 C -0.02518 0.72526 0.25393
 C1011 C -0.00372 0.71623 0.24946
 C1012 C 0.01585 0.72535 0.25901
 C1013 C 0.01371 0.74326 0.27429
 C1014 C -0.00765 0.75250 0.27850
 H1015 H -0.00888 0.76685 0.28948
 H1016 H -0.00228 0.70170 0.23873
 C1017 C 0.48011 0.75709 0.75413
 C1018 C 0.48162 0.73711 0.74173
 C1019 C 0.50256 0.73087 0.73217
 C1020 C 0.52188 0.74436 0.73412
 C1021 C 0.52022 0.76460 0.74611
 C1022 C 0.49927 0.77078 0.75575
 H1023 H 0.49816 0.78591 0.76559
 H1024 H 0.50355 0.71579 0.72225
 C1025 C 0.41173 0.30016 0.28040
 C1026 C 0.42121 0.28039 0.28311
 C1027 C 0.44322 0.27566 0.27190
 C1028 C 0.45116 0.25511 0.27009
 H1029 H 0.41261 0.26767 0.29307
 H1030 H 0.45273 0.28920 0.26420
 H1031 H 0.42019 0.31231 0.26955
 H1032 H 0.44092 0.24146 0.27648
 C1033 C 0.41648 0.80533 0.77310
 C1034 C 0.42910 0.78795 0.77877
 C1035 C 0.45015 0.78295 0.76607
 C1036 C 0.45924 0.76285 0.76706
 H1037 H 0.42374 0.77691 0.79244
 H1038 H 0.45793 0.79554 0.75527
 H1039 H 0.42168 0.81541 0.75857
 H1040 H 0.45050 0.74987 0.77654
 C1041 C -0.09218 0.29240 0.77977
 C1042 C -0.07820 0.27725 0.78816
 C1043 C -0.05900 0.26919 0.77412
 C1044 C -0.04186 0.25819 0.78336
 H1045 H -0.08030 0.27147 0.80561
 H1046 H -0.05815 0.27346 0.75611
 H1047 H -0.08925 0.29864 0.76258
 H1048 H -0.04174 0.25546 0.80167
 C1049 C -0.08389 0.78371 0.31452
 C1050 C -0.07597 0.77783 0.29394
 C1051 C -0.05517 0.76465 0.29168
 C1052 C -0.04914 0.75549 0.27174
 H1053 H -0.08499 0.78250 0.27872
 H1054 H -0.04467 0.76249 0.30651
 H1055 H -0.07549 0.77792 0.32971
 H1056 H -0.06046 0.75697 0.25753
 C1057 C 0.57767 0.67297 0.27850
 C1058 C 0.56799 0.69274 0.27649
 C1059 C 0.54737 0.69591 0.26319
 C1060 C 0.54097 0.71625 0.25738
 H1061 H 0.57548 0.70699 0.28463
 H1062 H 0.53740 0.68170 0.25822
 H1063 H 0.57101 0.65894 0.26930
 H1064 H 0.55183 0.73007 0.26149
 C1065 C 0.57765 0.18676 0.78483
 C1066 C 0.57201 0.20773 0.78085
 C1067 C 0.55015 0.21338 0.77072
 C1068 C 0.54665 0.23338 0.76179
 H1069 H 0.58358 0.22094 0.78522
 H1070 H 0.53665 0.20119 0.77088
 H1071 H 0.56674 0.17352 0.77916
 H1072 H 0.56062 0.24497 0.76053
 C1073 C 1.09443 0.72124 0.78704
 C1074 C 1.07906 0.71311 0.77286
 C1075 C 1.06010 0.72712 0.76578
 C1076 C 1.04230 0.71898 0.75479
 H1077 H 1.08013 0.69619 0.76698
 H1078 H 1.06035 0.74447 0.77032
 H1079 H 1.09250 0.73794 0.79341
 H1080 H 1.04103 0.70137 0.75178
 C1081 C 1.08005 0.19013 0.29207
 C1082 C 1.07255 0.21085 0.29359
 C1083 C 1.05042 0.21697 0.28429
 C1084 C 1.04601 0.23785 0.27856
 H1085 H 1.08318 0.22358 0.30082
 H1086 H 1.03799 0.20417 0.28117
 H1087 H 1.06999 0.17783 0.28341
 H1088 H 1.05914 0.25028 0.28014
 C1089 C 0.58413 0.29958 0.71313
 C1090 C 0.57362 0.28072 0.70820
 C1091 C 0.55552 0.27265 0.72371
 C1092 C 0.54107 0.25689 0.71763
 H1093 H 0.57763 0.27191 0.69255
 H1094 H 0.55317 0.28058 0.74021
 H1095 H 0.57907 0.30857 0.72840
 H1096 H 0.54202 0.24984 0.70064
 C1097 C 0.58515 0.78531 0.22735
 C1098 C 0.57298 0.76940 0.21764
 C1099 C 0.55172 0.76136 0.22812
 C1100 C 0.53939 0.74617 0.21751
 H1101 H 0.57874 0.76208 0.20169
 H1102 H 0.54629 0.76746 0.24475
 H1103 H 0.57898 0.79312 0.24291
 H1104 H 0.54428 0.74063 0.20052
 C1105 C 1.07791 0.31173 0.21666
 C1106 C 1.07092 0.29078 0.21742
 C1107 C 1.04925 0.28502 0.22880
 C1108 C 1.04543 0.26469 0.23686
 H1109 H 1.08172 0.27777 0.21074
 H1110 H 1.03673 0.29783 0.23159
 H1111 H 1.06777 0.32442 0.22491
 H1112 H 1.05872 0.25243 0.23545
 C1113 C 1.08920 0.80471 0.72594
 C1114 C 1.07863 0.78604 0.72046
 C1115 C 1.05613 0.78071 0.73003
 C1116 C 1.04780 0.76035 0.72802
 H1117 H 1.08681 0.77422 0.70918
 H1118 H 1.04664 0.79322 0.73932
 H1119 H 1.08133 0.81606 0.73797
 H1120 H 1.05807 0.74765 0.71995
 C1121 C 0.40529 0.72691 0.71274
 C1122 C 0.42286 0.71755 0.72302
 C1123 C 0.44221 0.73144 0.72976
 C1124 C 0.46159 0.72292 0.73724
 H1125 H 0.42336 0.69984 0.72561
 H1126 H 0.44096 0.74916 0.72744
 H1127 H 0.40560 0.74458 0.70968
 H1128 H 0.46360 0.70515 0.73783
 C1129 C 0.40173 0.21889 0.20894
 C1130 C 0.41792 0.21092 0.22227
 C1131 C 0.43670 0.22527 0.22942
 C1132 C 0.45552 0.21697 0.23836
 H1133 H 0.41781 0.19367 0.22723
 H1134 H 0.43550 0.24292 0.22652
 H1135 H 0.40271 0.23589 0.20318
 H1136 H 0.45755 0.19923 0.23959
 C1137 C -0.09462 0.71626 0.20979
 C1138 C -0.07958 0.70784 0.22414
 C1139 C -0.05968 0.72084 0.23104
 C1140 C -0.04514 0.71276 0.24608
 H1141 H -0.08199 0.69136 0.23102
 H1142 H -0.05690 0.73715 0.22384
 H1143 H -0.09198 0.73278 0.20305
 H1144 H -0.04725 0.69598 0.25226
 C1145 C -0.07635 0.21433 0.69259
 C1146 C -0.06906 0.21464 0.71403
 C1147 C -0.04844 0.22712 0.71979
 C1148 C -0.04280 0.23034 0.74155
 H1149 H -0.07845 0.20598 0.72740
 H1150 H -0.03802 0.23400 0.70608
 H1151 H -0.06730 0.22382 0.67957
 H1152 H -0.05416 0.22432 0.75496
 C1153 C 0.29798 0.43158 0.29748
 C1154 C 0.29785 0.43761 0.27551
 C1155 C 0.29084 0.45994 0.26888
 C1156 C 0.28810 0.46528 0.24694
 H1157 H 0.30274 0.42603 0.26225
 H1158 H 0.28729 0.47202 0.28212
 H1159 H 0.29249 0.44314 0.31056
 H1160 H 0.29041 0.45278 0.23387
 C1161 C 0.29284 -0.07521 0.79529
 C1162 C 0.29784 -0.06556 0.77521
 C1163 C 0.28960 -0.04329 0.76994
 C1164 C 0.28974 -0.03587 0.74843
 H1165 H 0.30765 -0.07417 0.76222
 H1166 H 0.28262 -0.03314 0.78358
 H1167 H 0.28216 -0.06657 0.80759
 H1168 H 0.29522 -0.04662 0.73462
 C1169 C 0.77392 0.40971 0.78891
 C1170 C 0.78411 0.42664 0.77812
 C1171 C 0.77079 0.44589 0.77105
 C1172 C 0.78071 0.46435 0.76324
 H1173 H 0.80221 0.42660 0.77474
 H1174 H 0.75247 0.44517 0.77276
 H1175 H 0.75586 0.41061 0.79256
 H1176 H 0.79901 0.46581 0.76312
 C1177 C 0.79806 -0.08392 0.28207
 C1178 C 0.77752 -0.07508 0.28555
 C1179 C 0.77147 -0.05291 0.27733
 C1180 C 0.74997 -0.04627 0.27937
 H1181 H 0.76437 -0.08445 0.29436
 H1182 H 0.78407 -0.04255 0.26884
 H1183 H 0.81112 -0.07433 0.27332
 H1184 H 0.73756 -0.05731 0.28716
 C1185 C 0.29717 0.58179 0.69332
 C1186 C 0.29829 0.57306 0.71424
 C1187 C 0.28828 0.55111 0.71893
 C1188 C 0.28404 0.54409 0.74029
 H1189 H 0.30554 0.58248 0.72805
 H1190 H 0.28324 0.54101 0.70462
 H1191 H 0.28866 0.57265 0.68005
 H1192 H 0.28780 0.55496 0.75443
 C1193 C 0.30788 1.06643 0.20559
 C1194 C 0.30718 1.06148 0.22784
 C1195 C 0.29982 1.03934 0.23534
 C1196 C 0.29357 1.03518 0.25701
 H1197 H 0.31097 1.07397 0.24046
 H1198 H 0.29839 1.02646 0.22260
 H1199 H 0.30273 1.05415 0.19326
 H1200 H 0.29353 1.04850 0.26936
 C1201 C 0.79694 0.57095 0.20163
 C1202 C 0.79378 0.56542 0.22359
 C1203 C 0.78537 0.54320 0.22992
 C1204 C 0.77716 0.53882 0.25093
 H1205 H 0.79684 0.57742 0.23690
 H1206 H 0.78532 0.53039 0.21701
 H1207 H 0.79263 0.55918 0.18846
 H1208 H 0.77609 0.55209 0.26325
 C1209 C 0.80095 1.08127 0.70554
 C1210 C 0.77968 1.07354 0.70595
 C1211 C 0.77455 1.05111 0.71475
 C1212 C 0.75327 1.04464 0.71957
 H1213 H 0.76600 1.08379 0.70001
 H1214 H 0.78843 1.03985 0.71764
 H1215 H 0.81431 1.07122 0.71255
 H1216 H 0.73966 1.05646 0.71790
 C1217 C 0.72857 0.58155 0.31221
 C1218 C 0.72350 0.56627 0.29664
 C1219 C 0.73912 0.54810 0.29098
 C1220 C 0.73315 0.53255 0.27607
 H1221 H 0.70755 0.56701 0.28787
 H1222 H 0.75548 0.54731 0.29903
 H1223 H 0.74442 0.58053 0.32118
 H1224 H 0.71630 0.53268 0.26905
 C1225 C 0.72060 1.08506 0.79164
 C1226 C 0.71211 1.07063 0.77668
 C1227 C 0.72624 1.05333 0.76594
 C1228 C 0.71658 1.03678 0.75452
 H1229 H 0.69435 1.07110 0.77246
 H1230 H 0.74448 1.05383 0.76774
 H1231 H 0.73827 1.08382 0.79616
 H1232 H 0.69826 1.03562 0.75422
 C1233 C 0.21595 0.58936 0.77304
 C1234 C 0.23064 0.57509 0.78186
 C1235 C 0.23931 0.55645 0.76819
 C1236 C 0.24993 0.53950 0.77791
 H1237 H 0.23598 0.57684 0.79938
 H1238 H 0.23651 0.55628 0.74992
 H1239 H 0.20988 0.58681 0.75587
 H1240 H 0.25130 0.53875 0.79634
 C1241 C 0.21826 1.07662 0.28003
 C1242 C 0.23356 1.06413 0.29047
 C1243 C 0.24441 1.04528 0.27891
 C1244 C 0.25577 1.03036 0.29094
 H1245 H 0.23790 1.06753 0.30803
 H1246 H 0.24292 1.04338 0.26057
 H1247 H 0.21306 1.07251 0.26289
 H1248 H 0.25598 1.03146 0.30942
 C1249 C 0.69549 0.42932 0.71139
 C1250 C 0.71694 0.43605 0.71275
 C1251 C 0.72224 0.45601 0.72584
 C1252 C 0.74354 0.46230 0.72950
 H1253 H 0.73047 0.42691 0.70439
 H1254 H 0.70834 0.46567 0.73286
 H1255 H 0.68228 0.43831 0.72049
 H1256 H 0.75743 0.45196 0.72365
 C1257 C 0.69684 -0.08007 0.20178
 C1258 C 0.69621 -0.07251 0.22319
 C1259 C 0.70584 -0.05087 0.22884
 C1260 C 0.71029 -0.04586 0.25048
 H1261 H 0.68969 -0.08283 0.23696
 H1262 H 0.71051 -0.03947 0.21522
 H1263 H 0.70436 -0.07005 0.18825
 H1264 H 0.70671 -0.05786 0.26383
 C1265 C 0.21843 0.42237 0.22106
 C1266 C 0.23144 0.43707 0.20995
 C1267 C 0.24308 0.45470 0.22236
 C1268 C 0.25343 0.47112 0.21102
 H1269 H 0.23309 0.43656 0.19149
 H1270 H 0.24253 0.45472 0.24089
 H1271 H 0.21643 0.42339 0.23948
 H1272 H 0.25248 0.47188 0.19254
 C1273 C 0.22624 -0.08296 0.72336
 C1274 C 0.23633 -0.06669 0.71159
 C1275 C 0.24631 -0.04799 0.72379
 C1276 C 0.25497 -0.03058 0.71264
 H1277 H 0.23688 -0.06692 0.69307
 H1278 H 0.24616 -0.04824 0.74232
 H1279 H 0.22535 -0.08214 0.74187
 H1280 H 0.25362 -0.02951 0.69422
 C1281 C 0.29404 0.30609 0.42343
 C1282 C 0.28619 0.28570 0.42738
 C1283 C 0.27549 0.28032 0.44968
 C1284 C 0.26323 0.26192 0.45301
 H1285 H 0.28697 0.27332 0.41405
 H1286 H 0.27700 0.29214 0.46347
 H1287 H 0.29200 0.31858 0.43656
 H1288 H 0.26066 0.25103 0.43867
 C1289 C 0.29972 0.79100 -0.08435
 C1290 C 0.27873 0.79281 -0.07570
 C1291 C 0.27263 0.78325 -0.05330
 C1292 C 0.25097 0.78012 -0.04715
 H1293 H 0.26584 0.80132 -0.08525
 H1294 H 0.28595 0.77861 -0.04175
 H1295 H 0.31218 0.78134 -0.07540
 H1296 H 0.23777 0.78339 -0.05932
 C1297 C 0.77303 0.28012 -0.09430
 C1298 C 0.78319 0.27110 -0.07636
 C1299 C 0.76942 0.26313 -0.05676
 C1300 C 0.77878 0.25607 -0.03746
 H1301 H 0.80149 0.27022 -0.07579
 H1302 H 0.75113 0.26395 -0.05777
 H1303 H 0.75471 0.28129 -0.09425
 H1304 H 0.79701 0.25685 -0.03573
 C1305 C 0.75902 0.79437 0.40089
 C1306 C 0.76634 0.78682 0.42086
 C1307 C 0.75051 0.78051 0.43941
 C1308 C 0.75837 0.77582 0.46008
 H1309 H 0.78432 0.78595 0.42403
 H1310 H 0.73244 0.78051 0.43646
 H1311 H 0.74100 0.79566 0.39799
 H1312 H 0.77636 0.77742 0.46315
 C1313 C 0.71616 0.30627 0.57898
 C1314 C 0.71258 0.28667 0.56925
 C1315 C 0.72399 0.28110 0.54742
 C1316 C 0.72396 0.26050 0.53930
 H1317 H 0.70142 0.27467 0.57743
 H1318 H 0.73304 0.29398 0.53809
 H1319 H 0.72804 0.31774 0.57100
 H1320 H 0.71613 0.24741 0.54938
 C1321 C 0.70924 0.77676 1.09324
 C1322 C 0.72029 0.78739 1.07640
 C1323 C 0.73083 0.77532 1.05725
 C1324 C 0.74121 0.78626 1.04020
 H1325 H 0.72182 0.80521 1.07673
 H1326 H 0.73019 0.75743 1.05710
 H1327 H 0.70743 0.75895 1.09257
 H1328 H 0.74050 0.80414 1.03975
 C1329 C 0.20153 0.31563 1.07944
 C1330 C 0.20380 0.29444 1.07365
 C1331 C 0.21432 0.28826 1.05154
 C1332 C 0.22058 0.26745 1.04740
 H1333 H 0.19853 0.28156 1.08550
 H1334 H 0.21762 0.30100 1.03886
 H1335 H 0.20782 0.32836 1.06789
 H1336 H 0.21836 0.25521 1.06081
 C1337 C 0.20104 0.80415 0.58362
 C1338 C 0.19793 0.78322 0.57717
 C1339 C 0.20330 0.77602 0.55372
 C1340 C 0.20380 0.75456 0.54852
 H1341 H 0.19177 0.77104 0.58937
 H1342 H 0.20767 0.78826 0.54080
 H1343 H 0.20794 0.81608 0.57151
 H1344 H 0.20077 0.74239 0.56185
 C1345 C 0.27273 0.72664 0.59122
 C1346 C 0.25923 0.71633 0.57656
 C1347 C 0.24786 0.72853 0.55829
 C1348 C 0.23667 0.71773 0.54210
 H1349 H 0.25683 0.69862 0.57765
 H1350 H 0.24915 0.74639 0.55768
 H1351 H 0.27549 0.74428 0.58961
 H1352 H 0.23685 0.69983 0.54193
 C1353 C 0.27939 0.18885 1.07802
 C1354 C 0.27648 0.20990 1.07201
 C1355 C 0.26513 0.21575 1.05067
 C1356 C 0.25859 0.23650 1.04687
 H1357 H 0.28224 0.22302 1.08307
 H1358 H 0.26196 0.20301 1.03815
 H1359 H 0.27258 0.17580 1.06750
 H1360 H 0.26076 0.24871 1.06020
 C1361 C 0.78817 0.70020 1.07875
 C1362 C 0.78602 0.72168 1.07394
 C1363 C 0.77876 0.72892 1.05120
 C1364 C 0.77520 0.75025 1.04654
 H1365 H 0.78984 0.73403 1.08668
 H1366 H 0.77619 0.71660 1.03808
 H1367 H 0.78386 0.68803 1.06597
 H1368 H 0.77672 0.76238 1.06002
 C1369 C 0.78624 0.21867 0.58559
 C1370 C 0.76954 0.21218 0.57210
 C1371 C 0.76161 0.22732 0.55419
 C1372 C 0.75212 0.21987 0.53514
 H1373 H 0.76315 0.19539 0.57303
 H1374 H 0.76550 0.24478 0.55564
 H1375 H 0.79361 0.23495 0.58309
 H1376 H 0.75019 0.20224 0.53266
 C1377 C 0.68042 0.71965 0.42030
 C1378 C 0.70008 0.72152 0.43102
 C1379 C 0.70211 0.73568 0.45132
 C1380 C 0.72245 0.74118 0.45915
 H1381 H 0.71494 0.71296 0.42453
 H1382 H 0.68692 0.74211 0.45956
 H1383 H 0.66592 0.72907 0.42631
 H1384 H 0.73750 0.73567 0.44994
 C1385 C 0.69612 0.21222 -0.08038
 C1386 C 0.71589 0.21023 -0.06985
 C1387 C 0.71983 0.22182 -0.04811
 C1388 C 0.74065 0.22373 -0.03973
 H1389 H 0.72937 0.20045 -0.07747
 H1390 H 0.70566 0.22957 -0.03926
 H1391 H 0.68313 0.22277 -0.07298
 H1392 H 0.75492 0.21717 -0.04944
 C1393 C 0.22679 0.71019 -0.09146
 C1394 C 0.21637 0.72422 -0.07717
 C1395 C 0.22810 0.73419 -0.05779
 C1396 C 0.21633 0.74484 -0.04154
 H1397 H 0.19874 0.72835 -0.07959
 H1398 H 0.24635 0.73276 -0.05668
 H1399 H 0.24407 0.70519 -0.08839
 H1400 H 0.19797 0.74492 -0.04189
 C1401 C 0.21980 0.20020 0.41068
 C1402 C 0.21185 0.21683 0.42342
 C1403 C 0.22483 0.22463 0.44312
 C1404 C 0.21727 0.24075 0.45674
 H1405 H 0.19587 0.22455 0.41948
 H1406 H 0.24086 0.21682 0.44680
 H1407 H 0.23576 0.19263 0.41508
 H1408 H 0.20062 0.24771 0.45419
 C1409 C 0.30264 0.41034 0.72475
 C1410 C 0.29062 0.42723 0.71670
 C1411 C 0.28363 0.44563 0.73162
 C1412 C 0.27521 0.46420 0.72283
 H1413 H 0.28619 0.42777 0.69883
 H1414 H 0.28569 0.44416 0.74993
 H1415 H 0.30791 0.41041 0.74239
 H1416 H 0.27471 0.46626 0.70444
 C1417 C 0.28902 0.90745 0.21283
 C1418 C 0.29927 0.92019 0.22813
 C1419 C 0.28727 0.93863 0.23920
 C1420 C 0.29854 0.95367 0.25122
 H1421 H 0.31685 0.91739 0.23218
 H1422 H 0.26915 0.94030 0.23706
 H1423 H 0.27172 0.91093 0.20817
 H1424 H 0.31686 0.95290 0.25192
 C1425 C 0.78297 0.40871 0.21140
 C1426 C 0.79161 0.42363 0.22566
 C1427 C 0.77738 0.44106 0.23591
 C1428 C 0.78664 0.45752 0.24780
 H1429 H 0.80948 0.42341 0.22947
 H1430 H 0.75930 0.44094 0.23300
 H1431 H 0.76515 0.40935 0.20734
 H1432 H 0.80490 0.45841 0.24923
 C1433 C 0.79504 0.91271 0.71884
 C1434 C 0.78204 0.92788 0.70893
 C1435 C 0.77209 0.94638 0.72200
 C1436 C 0.76260 0.96341 0.71122
 H1437 H 0.77865 0.92674 0.69083
 H1438 H 0.77232 0.94602 0.74052
 H1439 H 0.79937 0.91448 0.73666
 H1440 H 0.76377 0.96441 0.69273
 C1441 C 0.73114 0.59571 0.71705
 C1442 C 0.72188 0.57818 0.72754
 C1443 C 0.73611 0.56002 0.73565
 C1444 C 0.72682 0.54113 0.74311
 H1445 H 0.70365 0.57673 0.72941
 H1446 H 0.75439 0.56168 0.73452
 H1447 H 0.74938 0.59669 0.71475
 H1448 H 0.70860 0.53895 0.74257
 C1449 C 0.72182 0.08861 0.21897
 C1450 C 0.71102 0.07175 0.22916
 C1451 C 0.72339 0.05252 0.23779
 C1452 C 0.71209 0.03548 0.24709
 H1453 H 0.69274 0.07188 0.23100
 H1454 H 0.74169 0.05201 0.23596
 H1455 H 0.74012 0.08834 0.21717
 H1456 H 0.69372 0.03570 0.24740
 C1457 C 0.20803 0.58624 0.21561
 C1458 C 0.22908 0.57905 0.21157
 C1459 C 0.23636 0.55728 0.21960
 C1460 C 0.25827 0.55195 0.21969
 H1461 H 0.24113 0.58926 0.20212
 H1462 H 0.22373 0.54546 0.22558
 H1463 H 0.19640 0.57652 0.22610
 H1464 H 0.27103 0.56420 0.21518
 C1465 C 0.20931 0.08525 0.71484
 C1466 C 0.23013 0.07743 0.71102
 C1467 C 0.23663 0.05558 0.71955
 C1468 C 0.25836 0.05047 0.72238
 H1469 H 0.24268 0.08742 0.70198
 H1470 H 0.22351 0.04364 0.72393
 H1471 H 0.19731 0.07592 0.72530
 H1472 H 0.27135 0.06294 0.71961
 C1473 C 0.27894 0.59469 0.29009
 C1474 C 0.29100 0.58093 0.27692
 C1475 C 0.28033 0.56178 0.26612
 C1476 C 0.29287 0.54657 0.25538
 H1477 H 0.30897 0.58371 0.27405
 H1478 H 0.26204 0.56009 0.26688
 H1479 H 0.26119 0.59130 0.29368
 H1480 H 0.31119 0.54742 0.25597
 C1481 C 0.27867 0.09318 0.79509
 C1482 C 0.28983 0.07871 0.78184
 C1483 C 0.27856 0.06009 0.77066
 C1484 C 0.29107 0.04481 0.75993
 H1485 H 0.30792 0.08054 0.77903
 H1486 H 0.26024 0.05888 0.77103
 H1487 H 0.26079 0.09088 0.79890
 H1488 H 0.30939 0.04544 0.76093
 C1489 C 0.80848 0.58251 0.78916
 C1490 C 0.78827 0.57270 0.79069
 C1491 C 0.78456 0.55121 0.77974
 C1492 C 0.76364 0.54346 0.77695
 H1493 H 0.77417 0.58089 0.79918
 H1494 H 0.79896 0.54225 0.77274
 H1495 H 0.82222 0.57447 0.77989
 H1496 H 0.74930 0.55323 0.78274
 C1497 C 0.80286 0.06812 0.28690
 C1498 C 0.78161 0.06085 0.28954
 C1499 C 0.77396 0.04016 0.27909
 C1500 C 0.75185 0.03573 0.27797
 H1501 H 0.76939 0.07051 0.29927
 H1502 H 0.78631 0.02867 0.27212
 H1503 H 0.81477 0.05914 0.27613
 H1504 H 0.73971 0.04797 0.28381
 C1505 C 0.69687 0.41495 0.28645
 C1506 C 0.71764 0.42333 0.28911
 C1507 C 0.72396 0.44503 0.27932
 C1508 C 0.74563 0.45156 0.27798
 H1509 H 0.73017 0.41406 0.29840
 H1510 H 0.71077 0.45568 0.27297
 H1511 H 0.68482 0.42379 0.27614
 H1512 H 0.75875 0.44019 0.28308
 C1513 C 0.70908 0.91919 0.79183
 C1514 C 0.70930 0.92705 0.77047
 C1515 C 0.71828 0.94944 0.76569
 C1516 C 0.72452 0.95588 0.74459
 H1517 H 0.70346 0.91685 0.75655
 H1518 H 0.72048 0.96067 0.77989
 H1519 H 0.71632 0.92912 0.80528
 H1520 H 0.72370 0.94413 0.73069
 C1521 C 0.22184 0.42240 0.80595
 C1522 C 0.22346 0.43139 0.78511
 C1523 C 0.23593 0.45231 0.78151
 C1524 C 0.24093 0.45979 0.76049
 H1525 H 0.21584 0.42324 0.77068
 H1526 H 0.24148 0.46149 0.79628
 H1527 H 0.23031 0.43032 0.82003
 H1528 H 0.23640 0.44983 0.74588
 C1529 C 0.20851 0.91569 0.28876
 C1530 C 0.22996 0.92189 0.29194
 C1531 C 0.23790 0.94409 0.28528
 C1532 C 0.26000 0.94891 0.28430
 H1533 H 0.24192 0.91043 0.29917
 H1534 H 0.22561 0.95645 0.28053
 H1535 H 0.19690 0.92693 0.28062
 H1536 H 0.27225 0.93607 0.28765
 C1537 C 0.41888 0.27740 0.69052
 C1538 C 0.42962 0.27955 0.71030
 C1539 C 0.45099 0.26783 0.71451
 C1540 C 0.45953 0.26714 0.73550
 H1541 H 0.42252 0.28989 0.72369
 H1542 H 0.45960 0.25948 0.70050
 H1543 H 0.42558 0.26632 0.67755
 H1544 H 0.45004 0.27452 0.74956
 C1545 C 0.42321 0.78907 0.20406
 C1546 C 0.42888 0.76774 0.20439
 C1547 C 0.45107 0.76094 0.21292
 C1548 C 0.45567 0.73976 0.21724
 H1549 H 0.41701 0.75524 0.19889
 H1550 H 0.46357 0.77355 0.21654
 H1551 H 0.43494 0.80130 0.21044
 H1552 H 0.44261 0.72737 0.21500
 C1553 C 0.92920 0.31029 0.21577
 C1554 C 0.93581 0.28953 0.21937
 C1555 C 0.95704 0.28477 0.23120
 C1556 C 0.96102 0.26468 0.23968
 H1557 H 0.92532 0.27588 0.21387
 H1558 H 0.96943 0.29784 0.23316
 H1559 H 0.93904 0.32385 0.22252
 H1560 H 0.94791 0.25214 0.23888
 C1561 C 0.91513 0.77789 0.70254
 C1562 C 0.93007 0.78414 0.71809
 C1563 C 0.94916 0.76942 0.72321
 C1564 C 0.96565 0.77528 0.73725
 H1565 H 0.92849 0.79996 0.72657
 H1566 H 0.95006 0.75346 0.71487
 H1567 H 0.91747 0.76219 0.69395
 H1568 H 0.96595 0.79174 0.74445
 C1569 C 0.58946 0.27069 0.28005
 C1570 C 0.57081 0.27950 0.27127
 C1571 C 0.55210 0.26504 0.26408
 C1572 C 0.53247 0.27322 0.25690
 H1573 H 0.56911 0.29724 0.26983
 H1574 H 0.55416 0.24730 0.26541
 H1575 H 0.59064 0.25289 0.28167
 H1576 H 0.52981 0.29092 0.25717
 C1577 C 0.59468 0.77760 0.77799
 C1578 C 0.57807 0.78597 0.76549
 C1579 C 0.55938 0.77137 0.75838
 C1580 C 0.54001 0.77923 0.75018
 H1581 H 0.57755 0.80350 0.76177
 H1582 H 0.56092 0.75377 0.76138
 H1583 H 0.59412 0.76022 0.78246
 H1584 H 0.53767 0.79693 0.74900
 C1585 C 0.08948 0.30316 0.77177
 C1586 C 0.07519 0.28743 0.77933
 C1587 C 0.05577 0.27956 0.76609
 C1588 C 0.04067 0.26595 0.77612
 H1589 H 0.07735 0.28035 0.79613
 H1590 H 0.05342 0.28527 0.74874
 H1591 H 0.08726 0.31043 0.75504
 H1592 H 0.04268 0.26163 0.79397
 C1593 C 0.08500 0.78464 0.27752
 C1594 C 0.06957 0.77186 0.28811
 C1595 C 0.05117 0.76135 0.27536
 C1596 C 0.03319 0.75276 0.28641
 H1597 H 0.07000 0.76967 0.30648
 H1598 H 0.05193 0.76123 0.25683
 H1599 H 0.08383 0.78756 0.25930
 H1600 H 0.03171 0.75440 0.30483
 C1601 C 0.58137 0.69154 0.71314
 C1602 C 0.57199 0.71136 0.71031
 C1603 C 0.55071 0.71718 0.72220
 C1604 C 0.54316 0.73794 0.72216
 H1605 H 0.58020 0.72359 0.69941
 H1606 H 0.54137 0.70447 0.73148
 H1607 H 0.57353 0.67972 0.72479
 H1608 H 0.55330 0.75078 0.71400
 C1609 C 0.57602 0.19055 0.21176
 C1610 C 0.56641 0.21039 0.21008
 C1611 C 0.54457 0.21471 0.22182
 C1612 C 0.53666 0.23521 0.22445
 H1613 H 0.57492 0.22357 0.20072
 H1614 H 0.53524 0.20093 0.22925
 H1615 H 0.56774 0.17788 0.22207
 H1616 H 0.54676 0.24902 0.21821
 C1617 C 0.07591 0.70631 0.20472
 C1618 C 0.06748 0.70386 0.22592
 C1619 C 0.04473 0.71214 0.23178
 C1620 C 0.03819 0.71557 0.25345
 H1621 H 0.07756 0.69634 0.23909
 H1622 H 0.03343 0.71644 0.21808
 H1623 H 0.06613 0.71497 0.19205
 H1624 H 0.05002 0.71285 0.26711
 C1625 C 0.09371 0.21483 0.73162
 C1626 C 0.07730 0.22733 0.72310
 C1627 C 0.05771 0.23346 0.73773
 C1628 C 0.03970 0.24371 0.72930
 H1629 H 0.07791 0.23239 0.70533
 H1630 H 0.05760 0.22867 0.75560
 H1631 H 0.09244 0.20952 0.74931
 H1632 H 0.03906 0.24701 0.71110
 C1633 C 0.40883 0.71872 0.29016
 C1634 C 0.42226 0.70764 0.27562
 C1635 C 0.44224 0.71822 0.26499
 C1636 C 0.45794 0.70621 0.25407
 H1637 H 0.41879 0.69048 0.27180
 H1638 H 0.44443 0.73595 0.26644
 H1639 H 0.41299 0.73557 0.29471
 H1640 H 0.45666 0.68836 0.25397
 C1641 C 0.40914 0.21285 0.77802
 C1642 C 0.42673 0.22419 0.78588
 C1643 C 0.44499 0.23113 0.77001
 C1644 C 0.46433 0.23962 0.77753
 H1645 H 0.42820 0.22742 0.80400
 H1646 H 0.44305 0.22818 0.75188
 H1647 H 0.40837 0.20915 0.75992
 H1648 H 0.46696 0.24095 0.79576
 C1649 C 0.92763 0.71167 0.80909
 C1650 C 0.93366 0.71490 0.78727
 C1651 C 0.95567 0.72455 0.78087
 C1652 C 0.95969 0.73132 0.75948
 H1653 H 0.92215 0.71046 0.77380
 H1654 H 0.96874 0.72596 0.79356
 H1655 H 0.93852 0.71724 0.82263
 H1656 H 0.94623 0.73070 0.74720
 C1657 C 0.92943 0.19084 0.30184
 C1658 C 0.93551 0.21204 0.30044
 C1659 C 0.95769 0.21822 0.29034
 C1660 C 0.96135 0.23845 0.28190
 H1661 H 0.92356 0.22484 0.30526
 H1662 H 0.97064 0.20568 0.28847
 H1663 H 0.94092 0.17826 0.29545
 H1664 H 0.94769 0.25037 0.28247
 C1665 C 0.27327 0.30325 0.58377
 C1666 C 0.27668 0.28530 0.57095
 C1667 C 0.26160 0.28002 0.55194
 C1668 C 0.26660 0.26362 0.53754
 H1669 H 0.29100 0.27466 0.57404
 H1670 H 0.24671 0.29004 0.54919
 H1671 H 0.25912 0.31400 0.58021
 H1672 H 0.28225 0.25454 0.53938
 C1673 C 0.28509 0.77646 0.09066
 C1674 C 0.27456 0.78714 0.07395
 C1675 C 0.26452 0.77514 0.05478
 C1676 C 0.25628 0.78609 0.03694
 H1677 H 0.27354 0.80499 0.07415
 H1678 H 0.26410 0.75724 0.05510
 H1679 H 0.28678 0.75866 0.08993
 H1680 H 0.25823 0.80388 0.03601
 C1681 C 0.80727 0.28010 0.08399
 C1682 C 0.78709 0.28194 0.07420
 C1683 C 0.78241 0.27027 0.05268
 C1684 C 0.76142 0.26889 0.04461
 H1685 H 0.77389 0.29184 0.08214
 H1686 H 0.79624 0.26216 0.04363
 H1687 H 0.82003 0.26953 0.07623
 H1688 H 0.74745 0.27588 0.05442
 C1689 C 0.79087 0.79807 0.57657
 C1690 C 0.76985 0.80143 0.56939
 C1691 C 0.76312 0.79189 0.54744
 C1692 C 0.74145 0.78950 0.54173
 H1693 H 0.75763 0.81027 0.57992
 H1694 H 0.77631 0.78544 0.53618
 H1695 H 0.80238 0.78810 0.56631
 H1696 H 0.72814 0.79437 0.55367
 C1697 C 0.27910 0.71860 0.42167
 C1698 C 0.25806 0.71472 0.42945
 C1699 C 0.25095 0.72233 0.45227
 C1700 C 0.22913 0.72329 0.45851
 H1701 H 0.24599 0.70606 0.41896
 H1702 H 0.26377 0.72778 0.46406
 H1703 H 0.29064 0.72825 0.43186
 H1704 H 0.21612 0.71937 0.44633
 C1705 C 0.30423 0.21254 0.92879
 C1706 C 0.28273 0.21614 0.93516
 C1707 C 0.27700 0.22653 0.95725
 C1708 C 0.25608 0.23406 0.96143
 H1709 H 0.26915 0.21188 0.92375
 H1710 H 0.29002 0.22842 0.96991
 H1711 H 0.31779 0.21784 0.93974
 H1712 H 0.24372 0.23318 0.94799
 C1713 C 0.77907 0.71230 0.91172
 C1714 C 0.78885 0.72457 0.92774
 C1715 C 0.77557 0.73609 0.94549
 C1716 C 0.78616 0.74581 0.96276
 H1717 H 0.80711 0.72592 0.92821
 H1718 H 0.75723 0.73606 0.94492
 H1719 H 0.76080 0.71065 0.91155
 H1720 H 0.80440 0.74440 0.96397
 C1721 C 0.78330 0.19215 0.41604
 C1722 C 0.78451 0.21240 0.42491
 C1723 C 0.77182 0.21743 0.44620
 C1724 C 0.76969 0.23804 0.45401
 H1725 H 0.79444 0.22518 0.41642
 H1726 H 0.76348 0.20400 0.45534
 H1727 H 0.77262 0.17987 0.42445
 H1728 H 0.77690 0.25158 0.44411
 C1729 C 0.71745 0.27371 0.39899
 C1730 C 0.72535 0.28295 0.41799
 C1731 C 0.73206 0.26878 0.43724
 C1732 C 0.73875 0.27713 0.45717
 H1733 H 0.72619 0.30074 0.41964
 H1734 H 0.73058 0.25104 0.43536
 H1735 H 0.71645 0.25587 0.39792
 H1736 H 0.73861 0.29486 0.45966
 C1737 C 0.70547 0.79041 0.91835
 C1738 C 0.72592 0.79363 0.92711
 C1739 C 0.73111 0.78489 0.94989
 C1740 C 0.75244 0.78175 0.95635
 H1741 H 0.73895 0.80229 0.91731
 H1742 H 0.71723 0.78035 0.96138
 H1743 H 0.69307 0.78047 0.92766
 H1744 H 0.76628 0.78473 0.94429
 C1745 C 0.18227 0.29357 0.92713
 C1746 C 0.20287 0.29235 0.93599
 C1747 C 0.20681 0.28019 0.95733
 C1748 C 0.22765 0.27344 0.96228
 H1749 H 0.21723 0.29971 0.92697
 H1750 H 0.19264 0.27634 0.96872
 H1751 H 0.16819 0.28493 0.93531
 H1752 H 0.24132 0.27615 0.94993
 C1753 C 0.20760 0.78647 0.40972
 C1754 C 0.19555 0.77724 0.42680
 C1755 C 0.20699 0.76736 0.44645
 C1756 C 0.19524 0.75943 0.46443
 H1757 H 0.17722 0.77690 0.42632
 H1758 H 0.22534 0.76654 0.44623
 H1759 H 0.22590 0.78722 0.41074
 H1760 H 0.17704 0.76165 0.46539
 C1761 C 0.71776 0.72630 0.59425
 C1762 C 0.70570 0.73662 0.57839
 C1763 C 0.71716 0.74699 0.55860
 C1764 C 0.70556 0.75467 0.54090
 H1765 H 0.68737 0.73663 0.57943
 H1766 H 0.73553 0.74726 0.55790
 H1767 H 0.73608 0.72591 0.59259
 H1768 H 0.68730 0.75279 0.54071
 C1769 C 0.72451 0.21782 0.10080
 C1770 C 0.71536 0.22520 0.08155
 C1771 C 0.73016 0.23183 0.06214
 C1772 C 0.72181 0.23791 0.04202
 H1773 H 0.69714 0.22563 0.07978
 H1774 H 0.74835 0.23088 0.06410
 H1775 H 0.74280 0.21710 0.10199
 H1776 H 0.70367 0.23723 0.03954
 C1777 C 0.21193 0.70509 0.07996
 C1778 C 0.20834 0.72513 0.07132
 C1779 C 0.21771 0.73119 0.04873
 C1780 C 0.21965 0.75228 0.04237
 H1781 H 0.19874 0.73724 0.08104
 H1782 H 0.22357 0.71826 0.03729
 H1783 H 0.22267 0.69354 0.07073
 H1784 H 0.21530 0.76529 0.05435
 C1785 C 0.20320 0.20168 0.57882
 C1786 C 0.20239 0.22209 0.57023
 C1787 C 0.21151 0.22659 0.54706
 C1788 C 0.21942 0.24654 0.54123
 H1789 H 0.19643 0.23565 0.58079
 H1790 H 0.21323 0.21303 0.53507
 H1791 H 0.21089 0.18862 0.56872
 H1792 H 0.21922 0.25965 0.55379
   
