data_POSCAR
  _audit_creation_date              2014-09-24
  _audit_creation_method            'ToBaCCo'
  _symmetry_space_group_name_H-M    'P1'
  _symmetry_Int_Tables_number       1
  _symmetry_cell_setting            triclinic
  loop_
  _symmetry_equiv_pos_as_xyz
 x,y,z
_cell_length_a 46.0743
_cell_length_b 45.9521
_cell_length_c 40.7457
_cell_angle_alpha 89.934300
_cell_angle_beta 89.886400
_cell_angle_gamma 90.077100
loop_
  _atom_site_label
  _atom_site_type_symbol
  _atom_site_fract_x
  _atom_site_fract_y
  _atom_site_fract_z
C1 C 0.37778 0.02552 0.30336
 C2 C 0.36106 0.05169 0.28999
 C3 C 0.34538 0.04599 0.26255
 C4 C 0.34792 0.01447 0.25038
 C5 C 0.35475 0.00136 0.30757
 C6 C 0.33928 -0.00446 0.27993
 C7 C 0.39612 0.01475 0.27438
 C8 C 0.38069 0.00887 0.24671
 H9 H 0.35985 0.07233 0.30276
 H10 H 0.33524 0.00992 0.22782
 H11 H 0.35229 -0.01198 0.32919
 H12 H 0.41934 0.01148 0.27601
 C13 C 0.12604 -0.01510 0.76699
 C14 C 0.14425 -0.03963 0.75223
 C15 C 0.16340 -0.03071 0.72887
 C16 C 0.16247 0.00211 0.72187
 C17 C 0.14830 0.00741 0.77897
 C18 C 0.16791 0.01598 0.75584
 C19 C 0.11239 -0.00093 0.73933
 C20 C 0.13193 0.00819 0.71377
 H21 H 0.14390 -0.06169 0.76167
 H22 H 0.17862 0.00830 0.70298
 H23 H 0.14725 0.01800 0.80253
 H24 H 0.08953 0.00442 0.73965
 C25 C 0.63421 0.48305 0.27547
 C26 C 0.65431 0.45944 0.26197
 C27 C 0.67166 0.46839 0.23691
 C28 C 0.66761 0.50040 0.22735
 C29 C 0.65464 0.50837 0.28459
 C30 C 0.67219 0.51707 0.25952
 C31 C 0.61775 0.49459 0.24543
 C32 C 0.63510 0.50374 0.22040
 H33 H 0.65468 0.43739 0.27143
 H34 H 0.68175 0.50763 0.20677
 H35 H 0.65509 0.51920 0.30807
 H36 H 0.59432 0.49642 0.24456
 C37 C 0.86656 0.51508 0.80779
 C38 C 0.85295 0.54274 0.79394
 C39 C 0.83943 0.53923 0.76456
 C40 C 0.84017 0.50769 0.75184
 C41 C 0.84120 0.49339 0.80928
 C42 C 0.82777 0.48934 0.78000
 C43 C 0.88615 0.50361 0.78022
 C44 C 0.87246 0.49968 0.75099
 H45 H 0.85269 0.56300 0.80749
 H46 H 0.82876 0.50413 0.72823
 H47 H 0.83566 0.48010 0.83023
 H48 H 0.90906 0.49939 0.78370
 C49 C 0.28240 0.42917 1.00027
 C50 C 0.27394 0.41386 1.03249
 C51 C 0.25444 0.39141 1.02905
 C52 C 0.24533 0.38674 0.99291
 C53 C 0.29299 0.40476 0.97781
 C54 C 0.27382 0.38275 0.97400
 C55 C 0.25306 0.43859 0.98594
 C56 C 0.23368 0.41650 0.98214
 H57 H 0.28171 0.42180 1.05579
 H58 H 0.22995 0.36882 0.98790
 H59 H 0.31370 0.40530 0.96515
 H60 H 0.24608 0.46098 0.98424
 C61 C 0.76336 0.06009 0.98066
 C62 C 0.75850 0.08443 0.95519
 C63 C 0.74403 0.10813 0.96681
 C64 C 0.73678 0.10550 1.00365
 C65 C 0.77991 0.07588 1.00804
 C66 C 0.76599 0.09926 1.02071
 C67 C 0.73493 0.05364 0.99430
 C68 C 0.71965 0.07871 1.00614
 H69 H 0.76784 0.08423 0.93092
 H70 H 0.72618 0.12467 1.01462
 H71 H 0.80161 0.06985 1.01555
 H72 H 0.72458 0.03273 0.99061
 C73 C 0.26358 0.56635 0.47567
 C74 C 0.25589 0.59173 0.45312
 C75 C 0.23696 0.61119 0.46643
 C76 C 0.22692 0.60333 0.50136
 C77 C 0.27406 0.58065 0.50736
 C78 C 0.25529 0.59993 0.52101
 C79 C 0.23418 0.55288 0.48496
 C80 C 0.21518 0.57211 0.49854
 H81 H 0.26471 0.59402 0.42859
 H82 H 0.21117 0.61889 0.51216
 H83 H 0.29539 0.57639 0.51741
 H84 H 0.22831 0.53036 0.48145
 C85 C 0.78615 0.92839 0.50108
 C86 C 0.78278 0.90579 0.52899
 C87 C 0.76626 0.88212 0.52076
 C88 C 0.75498 0.88346 0.48533
 C89 C 0.79789 0.91113 0.47191
 C90 C 0.78168 0.88788 0.46388
 C91 C 0.75452 0.93595 0.49212
 C92 C 0.73793 0.91222 0.48439
 H93 H 0.79054 0.90959 0.55365
 H94 H 0.74232 0.86435 0.47701
 H95 H 0.81816 0.91618 0.45959
 H96 H 0.74508 0.95697 0.49746
 C97 C -0.00968 0.28191 0.40563
 C98 C 0.01637 0.29216 0.38534
 C99 C 0.02681 0.27275 0.36293
 C100 C 0.00770 0.24506 0.36093
 C101 C -0.03154 0.27478 0.38183
 C102 C -0.02260 0.25473 0.35699
 C103 C 0.00025 0.25228 0.41971
 C104 C 0.00916 0.23259 0.39647
 H105 H 0.02723 0.31248 0.39080
 H106 H 0.01469 0.22982 0.34151
 H107 H -0.05251 0.28542 0.38184
 H108 H 0.00194 0.24789 0.44564
 C109 C 0.01466 0.76264 0.09261
 C110 C -0.01116 0.76690 0.11596
 C111 C -0.01380 0.74619 0.13969
 C112 C 0.00982 0.72248 0.13784
 C113 C 0.04107 0.76014 0.11508
 C114 C 0.03877 0.73950 0.13908
 C115 C 0.01017 0.73181 0.07911
 C116 C 0.00743 0.71083 0.10249
 H117 H -0.02600 0.78506 0.11386
 H118 H 0.00740 0.70526 0.15675
 H119 H 0.06013 0.77361 0.11169
 H120 H 0.00592 0.72688 0.05368
 C121 C 0.50921 0.26435 0.60029
 C122 C 0.48265 0.26459 0.62252
 C123 C 0.48185 0.24295 0.64528
 C124 C 0.50844 0.22238 0.64379
 C125 C 0.53523 0.26457 0.62377
 C126 C 0.53522 0.24262 0.64647
 C127 C 0.50989 0.23367 0.58558
 C128 C 0.50964 0.21164 0.60795
 H129 H 0.46628 0.28144 0.62103
 H130 H 0.50794 0.20437 0.66195
 H131 H 0.55261 0.28034 0.62173
 H132 H 0.51422 0.22942 0.55995
 C133 C 0.48806 0.78898 0.90053
 C134 C 0.51360 0.79146 0.87563
 C135 C 0.51606 0.76836 0.85460
 C136 C 0.49305 0.74484 0.86090
 C137 C 0.46119 0.78368 0.87908
 C138 C 0.46383 0.76075 0.85823
 C139 C 0.49312 0.76127 0.91714
 C140 C 0.49655 0.73699 0.89547
 H141 H 0.52914 0.80906 0.87558
 H142 H 0.49396 0.72589 0.84413
 H143 H 0.44242 0.79784 0.87914
 H144 H 0.49857 0.75991 0.94295
 C145 C -0.22455 0.61477 0.96202
 C146 C -0.19950 0.59605 0.97551
 C147 C -0.20736 0.57872 1.00119
 C148 C -0.23930 0.58143 1.01127
 C149 C -0.24849 0.59250 0.95403
 C150 C -0.25634 0.57544 0.97978
 C151 C -0.23602 0.63128 0.99206
 C152 C -0.24359 0.61405 1.01797
 H153 H -0.17836 0.59419 0.96418
 H154 H -0.24529 0.56684 1.03194
 H155 H -0.25992 0.59189 0.93083
 H156 H -0.23772 0.65477 0.99253
 C157 C -0.26650 0.36891 0.46201
 C158 C -0.29403 0.38218 0.47655
 C159 C -0.29037 0.39577 0.50590
 C160 C -0.25866 0.39555 0.51777
 C161 C -0.24573 0.39499 0.45979
 C162 C -0.24127 0.40862 0.48896
 C163 C -0.25456 0.35052 0.48751
 C164 C -0.24999 0.36490 0.51832
 H165 H -0.31399 0.38402 0.46275
 H166 H -0.25509 0.40759 0.54099
 H167 H -0.23428 0.40135 0.43770
 H168 H -0.25053 0.32756 0.48367
 C169 C 0.23709 -0.12825 -0.03498
 C170 C 0.20987 -0.11006 -0.03019
 C171 C 0.21103 -0.09116 -0.00469
 C172 C 0.24043 -0.09124 0.01311
 C173 C 0.26166 -0.10585 -0.03889
 C174 C 0.26321 -0.08638 -0.01389
 C175 C 0.24251 -0.14176 -0.00329
 C176 C 0.24512 -0.12139 0.02334
 H177 H 0.19105 -0.11229 -0.04591
 H178 H 0.24112 -0.07501 0.03318
 H179 H 0.27840 -0.10689 -0.05743
 H180 H 0.24845 -0.16447 -0.00111
 C181 C 0.26884 1.11398 0.46812
 C182 C 0.29537 1.09919 0.48277
 C183 C 0.28997 1.08270 0.50983
 C184 C 0.25761 1.08239 0.51985
 C185 C 0.24735 1.08928 0.46194
 C186 C 0.24076 1.07296 0.48894
 C187 C 0.25597 1.13121 0.49711
 C188 C 0.24989 1.11460 0.52392
 H189 H 0.31666 1.10130 0.47179
 H190 H 0.25292 1.06962 0.54231
 H191 H 0.23736 1.08610 0.43820
 H192 H 0.25374 1.15460 0.49778
 C193 C 0.16813 0.54006 0.25703
 C194 C 0.15146 0.52365 0.23000
 C195 C 0.13677 0.49953 0.24065
 C196 C 0.13966 0.49455 0.27793
 C197 C 0.14459 0.54706 0.28229
 C198 C 0.12978 0.52349 0.29332
 C199 C 0.18721 0.51694 0.27319
 C200 C 0.17262 0.49295 0.28371
 H201 H 0.14864 0.53201 0.20551
 H202 H 0.12784 0.47539 0.28773
 H203 H 0.13917 0.56904 0.28969
 H204 H 0.21070 0.51788 0.27217
 C205 C -0.17565 1.02345 0.25943
 C206 C -0.15510 1.01325 0.28675
 C207 C -0.13690 0.99119 0.27752
 C208 C -0.14122 0.98129 0.24168
 C209 C -0.15557 1.03105 0.23070
 C210 C -0.13736 1.00941 0.22150
 C211 C -0.19068 0.99721 0.24905
 C212 C -0.17199 0.97398 0.23916
 H213 H -0.15414 1.02367 0.31055
 H214 H -0.12639 0.96366 0.23369
 H215 H -0.15636 1.05180 0.21806
 H216 H -0.21310 0.99274 0.25481
 C217 C 0.31879 0.51872 -0.24921
 C218 C 0.33761 0.51168 -0.21942
 C219 C 0.35843 0.49101 -0.22476
 C220 C 0.35737 0.47818 -0.25985
 C221 C 0.34024 0.52574 -0.27677
 C222 C 0.36021 0.50481 -0.28239
 C223 C 0.30569 0.48931 -0.25856
 C224 C 0.32569 0.46815 -0.26440
 H225 H 0.33390 0.52202 -0.19597
 H226 H 0.37370 0.46113 -0.26523
 H227 H 0.33944 0.54568 -0.29100
 H228 H 0.28275 0.48445 -0.25789
 C229 C 0.66772 0.03512 -0.24572
 C230 C 0.64638 0.02723 -0.27348
 C231 C 0.62381 0.00987 -0.26364
 C232 C 0.62478 0.00244 -0.22690
 C233 C 0.64881 0.04856 -0.21882
 C234 C 0.62636 0.03170 -0.20948
 C235 C 0.67716 0.00522 -0.23213
 C236 C 0.65463 -0.01224 -0.22272
 H237 H 0.65005 0.03341 -0.29878
 H238 H 0.60651 -0.01087 -0.21744
 H239 H 0.65217 0.07024 -0.20907
 H240 H 0.69833 -0.00391 -0.23701
 C241 C 0.03517 0.23282 0.85861
 C242 C 0.03621 0.25461 0.88683
 C243 C 0.01012 0.25994 0.90120
 C244 C -0.01519 0.24220 0.88611
 C245 C 0.02052 0.20564 0.87306
 C246 C -0.00559 0.20997 0.88784
 C247 C 0.01355 0.24435 0.83608
 C248 C -0.01468 0.24943 0.85077
 H249 H 0.05595 0.26576 0.89398
 H250 H -0.03583 0.24661 0.89903
 H251 H 0.03051 0.18444 0.87148
 H252 H 0.01739 0.24504 0.80993
 C253 C 0.53447 0.27332 0.14073
 C254 C 0.53073 0.24677 0.11829
 C255 C 0.50378 0.24413 0.10498
 C256 C 0.48263 0.26843 0.11509
 C257 C 0.52551 0.29891 0.11915
 C258 C 0.49836 0.29703 0.10621
 C259 C 0.50993 0.27050 0.16598
 C260 C 0.48259 0.26734 0.15313
 H261 H 0.54776 0.23160 0.11224
 H262 H 0.46110 0.26622 0.10340
 H263 H 0.54004 0.31691 0.11406
 H264 H 0.51462 0.27117 0.19191
 C265 C 0.02147 0.76420 0.64466
 C266 C 0.01877 0.73658 0.62395
 C267 C -0.00675 0.73397 0.60744
 C268 C -0.02783 0.75980 0.61327
 C269 C 0.01550 0.78917 0.62094
 C270 C -0.01020 0.78742 0.60474
 C271 C -0.00517 0.76301 0.66704
 C272 C -0.03108 0.76149 0.65103
 H273 H 0.03513 0.71981 0.62303
 H274 H -0.04878 0.75807 0.59999
 H275 H 0.03038 0.80727 0.61790
 H276 H -0.00360 0.76389 0.69354
 C277 C 0.53399 0.73860 0.34448
 C278 C 0.53464 0.76078 0.37262
 C279 C 0.50891 0.76330 0.38931
 C280 C 0.48476 0.74275 0.37624
 C281 C 0.52382 0.71026 0.36044
 C282 C 0.49831 0.71193 0.37737
 C283 C 0.50841 0.74901 0.32366
 C284 C 0.48221 0.75033 0.33922
 H285 H 0.55341 0.77408 0.37807
 H286 H 0.46403 0.74457 0.38977
 H287 H 0.53745 0.69110 0.36045
 H288 H 0.51193 0.75751 0.29928
 B289 B -0.03707 -0.00125 1.01241
 B290 B -0.05169 -0.01075 0.97585
 B291 B -0.02852 0.01744 0.97771
 B292 B -0.00258 0.00954 1.00581
 B293 B -0.01006 -0.02436 1.02094
 B294 B -0.04089 -0.03682 1.00228
 B295 B 0.00070 -0.02947 0.95532
 B296 B 0.01511 -0.02001 0.99166
 B297 B -0.00840 -0.04809 0.98934
 B298 B -0.03409 -0.04005 0.96145
 B299 B -0.02618 -0.00641 0.94640
 B300 B 0.00449 0.00597 0.96508
 B301 B 0.47048 0.50444 0.51725
 B302 B 0.45671 0.49555 0.48037
 B303 B 0.48197 0.52220 0.48321
 B304 B 0.50606 0.51260 0.51262
 B305 B 0.49551 0.47954 0.52774
 B306 B 0.46489 0.46914 0.50769
 B307 B 0.50848 0.47317 0.46262
 B308 B 0.52208 0.48171 0.49960
 B309 B 0.49678 0.45548 0.49635
 B310 B 0.47296 0.46514 0.46707
 B311 B 0.48343 0.49801 0.45206
 B312 B 0.51436 0.50826 0.47230
 B313 B 0.51919 0.95673 0.55275
 B314 B 0.53488 0.96144 0.51595
 B315 B 0.50424 0.94182 0.51855
 B316 B 0.48300 0.95691 0.54769
 B317 B 0.50059 0.98706 0.56248
 B318 B 0.53313 0.98955 0.54256
 B319 B 0.49017 0.99557 0.49733
 B320 B 0.47442 0.99047 0.53412
 B321 B 0.50516 1.01037 0.53091
 B322 B 0.52664 0.99481 0.50194
 B323 B 0.50871 0.96548 0.48717
 B324 B 0.47625 0.96264 0.50710
 B325 B 0.01997 0.45835 1.05771
 B326 B 0.03278 0.46630 1.01985
 B327 B 0.00765 0.44016 1.02464
 B328 B -0.01586 0.45051 1.05454
 B329 B -0.00490 0.48378 1.06845
 B330 B 0.02575 0.49333 1.04698
 B331 B -0.01894 0.48900 1.00363
 B332 B -0.03222 0.48087 1.04098
 B333 B -0.00679 0.50726 1.03667
 B334 B 0.01645 0.49699 1.00704
 B335 B 0.00543 0.46383 0.99285
 B336 B -0.02464 0.45388 1.01404
 B337 B -0.00235 0.52039 0.47864
 B338 B 0.01422 0.51449 0.51476
 B339 B -0.01121 0.54049 0.51181
 B340 B -0.03761 0.52877 0.48625
 B341 B -0.02819 0.49506 0.47318
 B342 B 0.00429 0.48606 0.49086
 B343 B -0.03538 0.49288 0.53990
 B344 B -0.05236 0.49918 0.50408
 B345 B -0.02685 0.47293 0.50635
 B346 B -0.00054 0.48454 0.53198
 B347 B -0.00985 0.51854 0.54529
 B348 B -0.04207 0.52748 0.52788
 B349 B 0.49806 0.03367 -0.02542
 B350 B 0.51586 0.02992 0.01024
 B351 B 0.48681 0.05199 0.00827
 B352 B 0.46236 0.03730 -0.01738
 B353 B 0.47586 0.00502 -0.03093
 B354 B 0.50949 0.00045 -0.01369
 B355 B 0.46967 0.00159 0.03579
 B356 B 0.45168 0.00612 0.00024
 B357 B 0.48036 -0.01683 0.00210
 B358 B 0.50562 -0.00205 0.02763
 B359 B 0.49187 0.03016 0.04134
 B360 B 0.45864 0.03502 0.02434
 B361 B 0.48915 0.50084 -0.03828
 B362 B 0.47334 0.51248 -0.00337
 B363 B 0.49467 0.48268 -0.00286
 B364 B 0.52250 0.48793 -0.02932
 B365 B 0.51838 0.52162 -0.04601
 B366 B 0.48779 0.53689 -0.02988
 B367 B 0.52565 0.52812 0.02054
 B368 B 0.54160 0.51656 -0.01448
 B369 B 0.52032 0.54635 -0.01512
 B370 B 0.49229 0.54110 0.01138
 B371 B 0.49631 0.50732 0.02775
 B372 B 0.52734 0.49233 0.01157
 B373 B -0.00701 0.98716 0.45746
 B374 B -0.02443 1.00330 0.48931
 B375 B -0.00445 0.97306 0.49548
 B376 B 0.02525 0.97440 0.47125
 B377 B 0.02354 1.00600 0.44946
 B378 B -0.00774 1.02372 0.46034
 B379 B 0.02696 1.02018 0.51430
 B380 B 0.04443 1.00373 0.48331
 B381 B 0.02421 1.03410 0.47612
 B382 B -0.00529 1.03270 0.50095
 B383 B -0.00349 1.00103 0.52273
 B384 B 0.02728 0.98337 0.51171
 B385 B 0.78443 0.23545 0.19653
 B386 B 0.77261 0.22282 0.23301
 B387 B 0.80157 0.24558 0.23122
 B388 B 0.79553 0.27040 0.20104
 B389 B 0.76227 0.26283 0.18469
 B390 B 0.74855 0.23319 0.20417
 B391 B 0.75436 0.27626 0.24944
 B392 B 0.76588 0.28935 0.21290
 B393 B 0.73730 0.26666 0.21473
 B394 B 0.74323 0.24181 0.24434
 B395 B 0.77621 0.24923 0.26104
 B396 B 0.79033 0.27910 0.24135
 B397 B 0.72201 0.77246 0.71188
 B398 B 0.72383 0.78911 0.74846
 B399 B 0.70344 0.75898 0.74466
 B400 B 0.72002 0.73636 0.71820
 B401 B 0.75189 0.75230 0.70647
 B402 B 0.75411 0.78540 0.72544
 B403 B 0.75393 0.74321 0.77280
 B404 B 0.75152 0.72671 0.73600
 B405 B 0.77235 0.75673 0.74029
 B406 B 0.75547 0.77982 0.76680
 B407 B 0.72408 0.76355 0.77844
 B408 B 0.72165 0.73051 0.75940
 B409 B 0.27691 0.25069 0.78961
 B410 B 0.26727 0.26651 0.75409
 B411 B 0.29565 0.24359 0.75492
 B412 B 0.28833 0.21635 0.78126
 B413 B 0.25469 0.22255 0.79705
 B414 B 0.24141 0.25392 0.78020
 B415 B 0.24901 0.21496 0.73068
 B416 B 0.25967 0.19857 0.76582
 B417 B 0.23073 0.22137 0.76580
 B418 B 0.23788 0.24880 0.73918
 B419 B 0.27175 0.24288 0.72351
 B420 B 0.28481 0.21140 0.73986
 B421 B 0.23850 0.75100 0.29286
 B422 B 0.24593 0.73490 0.25647
 B423 B 0.21798 0.75836 0.25968
 B424 B 0.22756 0.78549 0.28573
 B425 B 0.26219 0.77840 0.29855
 B426 B 0.27334 0.74666 0.28023
 B427 B 0.26352 0.78650 0.23209
 B428 B 0.25615 0.80253 0.26823
 B429 B 0.28404 0.77882 0.26505
 B430 B 0.27422 0.75201 0.23895
 B431 B 0.23970 0.75923 0.22653
 B432 B 0.22885 0.79059 0.24431
 B433 B 0.26816 0.73270 0.70237
 B434 B 0.25674 0.71725 0.73753
 B435 B 0.28544 0.74018 0.73784
 B436 B 0.27913 0.76707 0.71020
 B437 B 0.24584 0.76082 0.69331
 B438 B 0.23245 0.72965 0.71009
 B439 B 0.23839 0.76916 0.75920
 B440 B 0.24960 0.78494 0.72396
 B441 B 0.22107 0.76197 0.72404
 B442 B 0.22739 0.73498 0.75092
 B443 B 0.26035 0.74137 0.76815
 B444 B 0.27415 0.77256 0.75132
 B445 B 0.23858 0.28403 0.22907
 B446 B 0.24979 0.29759 0.26503
 B447 B 0.22197 0.27375 0.26438
 B448 B 0.22875 0.24894 0.23446
 B449 B 0.26173 0.25771 0.21726
 B450 B 0.27451 0.28813 0.23664
 B451 B 0.27039 0.24463 0.28198
 B452 B 0.25922 0.23129 0.24571
 B453 B 0.28716 0.25539 0.24726
 B454 B 0.28010 0.27992 0.27691
 B455 B 0.24765 0.27117 0.29366
 B456 B 0.23461 0.24084 0.27471
 B457 B 0.77960 0.75765 0.28034
 B458 B 0.77220 0.77194 0.24331
 B459 B 0.79919 0.74765 0.24742
 B460 B 0.78910 0.72238 0.27536
 B461 B 0.75528 0.73141 0.28882
 B462 B 0.74482 0.76242 0.26875
 B463 B 0.75236 0.71968 0.22296
 B464 B 0.75994 0.70550 0.25997
 B465 B 0.73267 0.72986 0.25616
 B466 B 0.74270 0.75476 0.22785
 B467 B 0.77674 0.74621 0.21474
 B468 B 0.78721 0.71537 0.23436
 B469 B 0.74388 0.23918 0.78412
 B470 B 0.75368 0.22268 0.74871
 B471 B 0.72592 0.24663 0.74905
 B472 B 0.73404 0.27358 0.77538
 B473 B 0.76746 0.26648 0.79148
 B474 B 0.77931 0.23448 0.77517
 B475 B 0.77350 0.27381 0.72518
 B476 B 0.76396 0.29029 0.76042
 B477 B 0.79166 0.26637 0.76032
 B478 B 0.78349 0.23925 0.73392
 B479 B 0.75014 0.24659 0.71776
 B480 B 0.73811 0.27852 0.73436
 C481 C 0.41006 1.02580 0.38983
 C482 C 0.43501 1.04159 0.38463
 C483 C 0.44114 1.05490 0.35475
 C484 C 0.42126 1.05085 0.32903
 C485 C 0.39615 1.03312 0.33325
 C486 C 0.38995 1.02182 0.36489
 O487 O 0.40942 1.01248 0.41863
 C488 C 0.43464 1.01969 0.43182
 C489 C 0.45115 1.03761 0.41222
 C490 C 0.47959 1.04513 0.42001
 C491 C 0.49162 1.03307 0.44865
 C492 C 0.47520 1.01377 0.46870
 C493 C 0.44600 1.00773 0.46029
 H494 H 0.46105 1.06700 0.35096
 H495 H 0.42609 1.06037 0.30532
 H496 H 0.37085 1.00913 0.37030
 H497 H 0.49250 1.05866 0.40384
 H498 H 0.51410 1.03767 0.45411
 H499 H 0.43285 0.99256 0.47421
 C500 C -0.10065 0.50800 0.89361
 C501 C -0.07995 0.52949 0.89211
 C502 C -0.07637 0.54747 0.86503
 C503 C -0.09478 0.54291 0.83826
 C504 C -0.11632 0.52069 0.83890
 C505 C -0.11930 0.50318 0.86741
 O506 O -0.09862 0.49151 0.92022
 C507 C -0.07600 0.50274 0.93573
 C508 C -0.06383 0.52603 0.91954
 C509 C -0.03828 0.53922 0.92955
 C510 C -0.02451 0.52772 0.95720
 C511 C -0.03661 0.50364 0.97457
 C512 C -0.06297 0.49124 0.96361
 H513 H -0.05939 0.56375 0.86409
 H514 H -0.09171 0.55612 0.81649
 H515 H -0.13428 0.48524 0.86915
 H516 H -0.02874 0.55706 0.91590
 H517 H -0.00424 0.53756 0.96474
 H518 H -0.07230 0.47221 0.97515
 C519 C 0.08710 -0.03106 0.84828
 C520 C 0.06348 -0.04656 0.83747
 C521 C 0.05948 -0.05355 0.80459
 C522 C 0.08045 -0.04371 0.78205
 C523 C 0.10461 -0.02671 0.79248
 C524 C 0.10828 -0.02150 0.82654
 O525 O 0.08581 -0.02436 0.87983
 C526 C 0.06073 -0.03571 0.88922
 C527 C 0.04624 -0.04977 0.86440
 C528 C 0.01833 -0.06072 0.86831
 C529 C 0.00458 -0.05623 0.89868
 C530 C 0.01883 -0.04104 0.92452
 C531 C 0.04759 -0.03111 0.91945
 H532 H 0.04056 -0.06549 0.79647
 H533 H 0.07757 -0.04870 0.75629
 H534 H 0.12661 -0.00997 0.83654
 H535 H 0.00698 -0.07104 0.84821
 H536 H -0.01775 -0.06322 0.90125
 H537 H 0.05874 -0.01772 0.93718
 C538 C 0.59667 0.46868 0.35799
 C539 C 0.57411 0.45118 0.34812
 C540 C 0.57083 0.44208 0.31584
 C541 C 0.59133 0.45187 0.29281
 C542 C 0.61411 0.47118 0.30203
 C543 C 0.61721 0.47869 0.33558
 O544 O 0.59463 0.47691 0.38905
 C545 C 0.57009 0.46464 0.39893
 C546 C 0.55663 0.44861 0.37491
 C547 C 0.52891 0.43712 0.37881
 C548 C 0.51418 0.44317 0.40823
 C549 C 0.52747 0.46000 0.43335
 C550 C 0.55622 0.47021 0.42855
 H551 H 0.55276 0.42852 0.30848
 H552 H 0.58899 0.44515 0.26749
 H553 H 0.63444 0.49247 0.34445
 H554 H 0.51825 0.42555 0.35908
 H555 H 0.49177 0.43641 0.41020
 H556 H 0.56671 0.48456 0.44588
 C557 C 0.58840 0.51292 0.14602
 C558 C 0.59701 0.53976 0.13436
 C559 C 0.61925 0.55555 0.14931
 C560 C 0.63256 0.54325 0.17732
 C561 C 0.62307 0.51600 0.18986
 C562 C 0.60081 0.50072 0.17378
 O563 O 0.56812 0.50049 0.12809
 C564 C 0.56359 0.51975 0.10460
 C565 C 0.58021 0.54443 0.10708
 C566 C 0.57786 0.56716 0.08434
 C567 C 0.55856 0.56348 0.05758
 C568 C 0.54336 0.53684 0.05323
 C569 C 0.54519 0.51556 0.07844
 H570 H 0.62618 0.57641 0.13974
 H571 H 0.64967 0.55514 0.18963
 H572 H 0.59343 0.47971 0.18257
 H573 H 0.59049 0.58689 0.08697
 H574 H 0.55613 0.58099 0.04007
 H575 H 0.53354 0.49515 0.07755
 C576 C 0.08280 1.02427 0.64362
 C577 C 0.10092 1.03893 0.62253
 C578 C 0.12981 1.04461 0.63038
 C579 C 0.14022 1.03476 0.66103
 C580 C 0.12175 1.01952 0.68339
 C581 C 0.09244 1.01466 0.67397
 O582 O 0.05707 1.01831 0.63091
 C583 C 0.05878 1.02945 0.60104
 C584 C 0.08499 1.04260 0.59449
 C585 C 0.09168 1.05379 0.56358
 C586 C 0.07114 1.04995 0.53831
 C587 C 0.04501 1.03415 0.54403
 C588 C 0.03832 1.02535 0.57649
 H589 H 0.14402 1.05571 0.61326
 H590 H 0.16253 1.03955 0.66706
 H591 H 0.07752 1.00186 0.68852
 H592 H 0.11247 1.06391 0.55867
 H593 H 0.07668 1.05733 0.51388
 H594 H 0.01895 1.01304 0.58229
 C595 C -0.10434 0.49019 0.66287
 C596 C -0.08181 0.47087 0.66651
 C597 C -0.07389 0.45931 0.69671
 C598 C -0.08968 0.46823 0.72436
 C599 C -0.11260 0.48869 0.72138
 C600 C -0.12030 0.49939 0.69002
 O601 O -0.10674 0.50043 0.63253
 C602 C -0.08513 0.48743 0.61675
 C603 C -0.06921 0.46921 0.63647
 C604 C -0.04360 0.45627 0.62618
 C605 C -0.03374 0.46275 0.59449
 C606 C -0.04993 0.48114 0.57309
 C607 C -0.07621 0.49342 0.58474
 H608 H -0.05581 0.44444 0.69902
 H609 H -0.08379 0.45944 0.74809
 H610 H -0.13709 0.51561 0.68699
 H611 H -0.03082 0.44292 0.64259
 H612 H -0.01291 0.45402 0.58720
 H613 H -0.08820 0.50917 0.57061
 C614 C 0.40128 -0.00375 0.15825
 C615 C 0.42413 -0.02277 0.16181
 C616 C 0.43275 -0.03344 0.19218
 C617 C 0.41753 -0.02377 0.21996
 C618 C 0.39437 -0.00353 0.21697
 C619 C 0.38573 0.00601 0.18552
 O620 O 0.39844 0.00609 0.12785
 C621 C 0.42003 -0.00679 0.11195
 C622 C 0.43642 -0.02472 0.13150
 C623 C 0.46203 -0.03758 0.12063
 C624 C 0.47157 -0.03089 0.08870
 C625 C 0.45540 -0.01179 0.06827
 C626 C 0.42872 -0.00045 0.08007
 H627 H 0.45109 -0.04798 0.19452
 H628 H 0.42417 -0.03163 0.24384
 H629 H 0.36870 0.02201 0.18252
 H630 H 0.47501 -0.05102 0.13672
 H631 H 0.49218 -0.03958 0.08055
 H632 H 0.41617 0.01508 0.06618
 C633 C 0.35492 0.46537 0.01855
 C634 C 0.35205 0.49153 0.00250
 C635 C 0.32658 0.49979 -0.01303
 C636 C 0.30326 0.48013 -0.01253
 C637 C 0.30554 0.45274 0.00377
 C638 C 0.33188 0.44569 0.01985
 O639 O 0.38180 0.46029 0.02861
 C640 C 0.39623 0.48362 0.01840
 C641 C 0.37905 0.50346 0.00241
 C642 C 0.39022 0.52830 -0.01247
 C643 C 0.42045 0.53217 -0.01202
 C644 C 0.43893 0.51088 0.00225
 C645 C 0.42619 0.48733 0.01958
 H646 H 0.32516 0.52005 -0.02650
 H647 H 0.28431 0.48607 -0.02647
 H648 H 0.33496 0.42461 0.03123
 H649 H 0.37629 0.54365 -0.02498
 H650 H 0.42935 0.55122 -0.02400
 H651 H 0.43896 0.47147 0.03259
 C652 C -0.14448 0.96763 0.52186
 C653 C -0.14665 0.99171 0.50193
 C654 C -0.17208 0.99870 0.48537
 C655 C -0.19570 0.97947 0.48840
 C656 C -0.19360 0.95377 0.50780
 C657 C -0.16768 0.94853 0.52550
 O658 O -0.11764 0.96237 0.53172
 C659 C -0.10239 0.98328 0.51742
 C660 C -0.11898 1.00189 0.49888
 C661 C -0.10671 1.02308 0.47869
 C662 C -0.07624 1.02456 0.47700
 C663 C -0.05873 1.00456 0.49484
 C664 C -0.07231 0.98468 0.51652
 H665 H -0.17304 1.01712 0.46884
 H666 H -0.21462 0.98338 0.47334
 H667 H -0.16418 0.92833 0.53856
 H668 H -0.12008 1.03712 0.46367
 H669 H -0.06647 1.04028 0.46054
 H670 H -0.06010 0.96952 0.53123
 C671 C -0.17939 0.00294 0.98087
 C672 C -0.17162 0.00326 0.94823
 C673 C -0.18939 0.01478 0.92399
 C674 C -0.21451 0.02938 0.93421
 C675 C -0.22026 0.03344 0.96824
 C676 C -0.20468 0.01651 0.99127
 O677 O -0.15779 -0.00428 1.00059
 C678 C -0.13574 -0.00780 0.98016
 C679 C -0.14294 -0.00343 0.94784
 C680 C -0.12215 -0.00089 0.92325
 C681 C -0.09290 -0.00313 0.93240
 C682 C -0.08492 -0.00766 0.96578
 C683 C -0.10699 -0.01056 0.98960
 H684 H -0.18295 0.01474 0.89843
 H685 H -0.22773 0.03954 0.91559
 H686 H -0.20884 0.01850 1.01735
 H687 H -0.12814 0.00382 0.89813
 H688 H -0.07666 -0.00091 0.91335
 H689 H -0.10235 -0.01373 1.01506
 C690 C 0.33889 0.54245 0.45207
 C691 C 0.33655 0.51274 0.45472
 C692 C 0.31016 0.49861 0.45917
 C693 C 0.28527 0.51587 0.46283
 C694 C 0.28729 0.54678 0.46210
 C695 C 0.31442 0.55991 0.45469
 O696 O 0.36610 0.55189 0.45249
 C697 C 0.38131 0.52763 0.45593
 C698 C 0.36425 0.50310 0.45734
 C699 C 0.37526 0.47587 0.46481
 C700 C 0.40498 0.47387 0.47134
 C701 C 0.42327 0.49897 0.47062
 C702 C 0.41104 0.52610 0.46188
 H703 H 0.30900 0.47521 0.46198
 H704 H 0.26525 0.50479 0.46842
 H705 H 0.31700 0.58335 0.45501
 H706 H 0.36132 0.45696 0.46667
 H707 H 0.41344 0.45265 0.47770
 H708 H 0.42360 0.54576 0.46076
 C709 C 0.13465 0.56260 0.51042
 C710 C 0.13449 0.53883 0.53096
 C711 C 0.15965 0.52625 0.54319
 C712 C 0.18617 0.53832 0.53331
 C713 C 0.18700 0.56249 0.51167
 C714 C 0.16088 0.57524 0.50064
 O715 O 0.10836 0.56963 0.49963
 C716 C 0.09136 0.54974 0.51354
 C717 C 0.10637 0.53046 0.53291
 C718 C 0.09346 0.50662 0.54783
 C719 C 0.06386 0.50216 0.54230
 C720 C 0.04760 0.52141 0.52203
 C721 C 0.06165 0.54602 0.50813
 H722 H 0.15893 0.50723 0.55887
 H723 H 0.20613 0.52843 0.54178
 H724 H 0.16100 0.59315 0.48343
 H725 H 0.10591 0.49152 0.56255
 H726 H 0.05398 0.48325 0.55356
 H727 H 0.05021 0.56116 0.49247
 C728 C 0.64371 0.05368 0.02303
 C729 C 0.62935 0.07906 0.01630
 C730 C 0.64305 0.10476 0.00785
 C731 C 0.67315 0.10456 0.00582
 C732 C 0.68935 0.07866 0.01174
 C733 C 0.67407 0.05277 0.02078
 O734 O 0.62569 0.03136 0.02839
 C735 C 0.59948 0.04313 0.02427
 C736 C 0.60105 0.07216 0.01646
 C737 C 0.57774 0.08813 0.00564
 C738 C 0.55141 0.07382 0.00303
 C739 C 0.54754 0.04454 0.01387
 C740 C 0.57246 0.02871 0.02422
 H741 H 0.63089 0.12418 0.00185
 H742 H 0.68307 0.12440 -0.00295
 H743 H 0.68525 0.03250 0.02550
 H744 H 0.58017 0.11030 -0.00297
 H745 H 0.53479 0.08566 -0.00968
 H746 H 0.57109 0.00583 0.03036
 C747 C 0.65896 0.93639 0.48293
 C748 C 0.64619 0.91169 0.49530
 C749 C 0.66141 0.88684 0.50341
 C750 C 0.69132 0.88730 0.49883
 C751 C 0.70570 0.91234 0.48617
 C752 C 0.68906 0.93732 0.47787
 O753 O 0.64019 0.95817 0.47916
 C754 C 0.61523 0.94677 0.48967
 C755 C 0.61808 0.91842 0.49980
 C756 C 0.59603 0.90279 0.51460
 C757 C 0.56969 0.91689 0.51929
 C758 C 0.56520 0.94595 0.50825
 C759 C 0.58860 0.96115 0.49319
 H760 H 0.65074 0.86798 0.51389
 H761 H 0.70303 0.86826 0.50671
 H762 H 0.69921 0.95695 0.46864
 H763 H 0.59935 0.88087 0.52356
 H764 H 0.55331 0.90515 0.53288
 H765 H 0.58654 0.98364 0.48565
 C766 C 0.15272 0.42148 0.99349
 C767 C 0.14640 0.44256 0.97067
 C768 C 0.16685 0.45377 0.94893
 C769 C 0.19533 0.44345 0.95146
 C770 C 0.20278 0.42254 0.97560
 C771 C 0.18096 0.41083 0.99632
 O772 O 0.13051 0.41544 1.01330
 C773 C 0.10986 0.43338 1.00294
 C774 C 0.11869 0.45046 0.97706
 C775 C 0.10179 0.47244 0.96404
 C776 C 0.07465 0.47723 0.97828
 C777 C 0.06453 0.46004 1.00519
 C778 C 0.08236 0.43717 1.01701
 H779 H 0.16132 0.47066 0.93150
 H780 H 0.21188 0.45263 0.93560
 H781 H 0.18618 0.39576 1.01576
 H782 H 0.10948 0.48589 0.94399
 H783 H 0.06171 0.49451 0.96786
 H784 H 0.07538 0.42310 1.03680
 C785 C -0.02719 0.35720 0.43969
 C786 C -0.03162 0.35174 0.47248
 C787 C -0.03119 0.32360 0.48526
 C788 C -0.02513 0.30041 0.46359
 C789 C -0.01960 0.30567 0.42966
 C790 C -0.02209 0.33461 0.41774
 O791 O -0.02629 0.38529 0.43247
 C792 C -0.03025 0.39800 0.46130
 C793 C -0.03395 0.37864 0.48664
 C794 C -0.03755 0.38785 0.51895
 C795 C -0.03677 0.41803 0.52528
 C796 C -0.03175 0.43851 0.49971
 C797 C -0.02890 0.42778 0.46710
 H798 H -0.03461 0.31966 0.51118
 H799 H -0.02458 0.27868 0.47362
 H800 H -0.01850 0.33968 0.39208
 H801 H -0.04050 0.37234 0.53869
 H802 H -0.03964 0.42496 0.55015
 H803 H -0.02480 0.44201 0.44644
 C804 C 0.48991 -0.13376 -0.06219
 C805 C 0.47402 -0.13772 -0.03395
 C806 C 0.46190 -0.16453 -0.02574
 C807 C 0.46668 -0.18811 -0.04720
 C808 C 0.48379 -0.18494 -0.07620
 C809 C 0.49486 -0.15681 -0.08387
 O810 O 0.49889 -0.10652 -0.06619
 C811 C 0.48856 -0.09296 -0.03989
 C812 C 0.47315 -0.11091 -0.01929
 C813 C 0.45996 -0.10061 0.00925
 C814 C 0.46269 -0.07072 0.01668
 C815 C 0.47844 -0.05157 -0.00429
 C816 C 0.49161 -0.06339 -0.03296
 H817 H 0.44897 -0.16719 -0.00373
 H818 H 0.45692 -0.20890 -0.04125
 H819 H 0.50648 -0.15239 -0.10635
 H820 H 0.44753 -0.11497 0.02499
 H821 H 0.45145 -0.06260 0.03797
 H822 H 0.50351 -0.04991 -0.05015
 C823 C 0.01565 -0.16064 1.05706
 C824 C 0.01527 -0.16603 1.02392
 C825 C 0.01712 -0.19392 1.01104
 C826 C 0.01851 -0.21730 1.03319
 C827 C 0.01730 -0.21254 1.06776
 C828 C 0.01704 -0.18348 1.07952
 O829 O 0.01248 -0.13269 1.06433
 C830 C 0.00981 -0.12021 1.03511
 C831 C 0.01128 -0.13963 1.00957
 C832 C 0.00690 -0.13144 0.97711
 C833 C 0.00072 -0.10207 0.97077
 C834 C -0.00053 -0.08137 0.99662
 C835 C 0.00422 -0.09088 1.02934
 H836 H 0.01703 -0.19762 0.98480
 H837 H 0.02019 -0.23878 1.02282
 H838 H 0.01644 -0.17887 1.10557
 H839 H 0.00746 -0.14724 0.95744
 H840 H -0.00357 -0.09576 0.94578
 H841 H 0.00296 -0.07617 1.04999
 C842 C 0.51270 0.34111 0.56383
 C843 C 0.50501 0.33583 0.53185
 C844 C 0.49822 0.30828 0.52032
 C845 C 0.49969 0.28505 0.54254
 C846 C 0.50867 0.28943 0.57565
 C847 C 0.51472 0.31823 0.58635
 O848 O 0.51627 0.36925 0.57022
 C849 C 0.51069 0.38190 0.54156
 C850 C 0.50382 0.36235 0.51732
 C851 C 0.49595 0.37077 0.48588
 C852 C 0.49477 0.40063 0.47915
 C853 C 0.50142 0.42157 0.50367
 C854 C 0.50974 0.41180 0.53540
 H855 H 0.49118 0.30488 0.49528
 H856 H 0.49282 0.26402 0.53373
 H857 H 0.52020 0.32277 0.61165
 H858 H 0.49022 0.35492 0.46736
 H859 H 0.48766 0.40718 0.45509
 H860 H 0.51462 0.42691 0.55498
 C861 C 0.50421 1.13080 0.58920
 C862 C 0.52591 1.12886 0.56610
 C863 C 0.54468 1.15157 0.55883
 C864 C 0.54026 1.17796 0.57503
 C865 C 0.51688 1.18158 0.59741
 C866 C 0.49909 1.15732 0.60550
 O867 O 0.48908 1.10612 0.59208
 C868 C 0.50140 1.08858 0.57000
 C869 C 0.52369 1.10182 0.55329
 C870 C 0.53888 1.08847 0.52816
 C871 C 0.53134 1.05992 0.52016
 C872 C 0.50912 1.04470 0.53754
 C873 C 0.49398 1.05953 0.56307
 H874 H 0.56182 1.14924 0.54082
 H875 H 0.55440 1.19608 0.56908
 H876 H 0.48102 1.15951 0.62233
 H877 H 0.55612 1.09964 0.51515
 H878 H 0.54386 1.04961 0.50099
 H879 H 0.47747 1.04869 0.57753
 C880 C 0.00366 0.62952 1.08789
 C881 C -0.01979 0.62843 1.06707
 C882 C -0.03641 0.65266 1.05942
 C883 C -0.02804 0.67936 1.07297
 C884 C -0.00329 0.68150 1.09355
 C885 C 0.01240 0.65605 1.10185
 O886 O 0.01681 0.60390 1.09105
 C887 C 0.00138 0.58646 1.07167
 C888 C -0.02107 0.60051 1.05633
 C889 C -0.03927 0.58684 1.03406
 C890 C -0.03438 0.55733 1.02749
 C891 C -0.01179 0.54161 1.04340
 C892 C 0.00642 0.55688 1.06581
 H893 H -0.05477 0.65121 1.04296
 H894 H -0.04029 0.69866 1.06661
 H895 H 0.03158 0.65717 1.11710
 H896 H -0.05683 0.59844 1.02227
 H897 H -0.04955 0.54665 1.01146
 H898 H 0.02403 0.54620 1.07854
 C899 C 0.51187 0.67056 -0.05436
 C900 C 0.53131 0.65679 -0.07465
 C901 C 0.53968 0.66799 -0.10487
 C902 C 0.52762 0.69454 -0.11473
 C903 C 0.50804 0.71001 -0.09405
 C904 C 0.50058 0.69788 -0.06297
 O905 O 0.50408 0.65423 -0.02875
 C906 C 0.51912 0.62975 -0.03299
 C907 C 0.53645 0.63061 -0.06045
 C908 C 0.55248 0.60696 -0.07117
 C909 C 0.54959 0.58084 -0.05386
 C910 C 0.53064 0.57837 -0.02629
 C911 C 0.51593 0.60375 -0.01515
 H912 H 0.55445 0.65630 -0.12077
 H913 H 0.53451 0.70334 -0.13812
 H914 H 0.48508 0.70845 -0.04694
 H915 H 0.56561 0.60812 -0.09319
 H916 H 0.56062 0.56201 -0.06373
 H917 H 0.50053 0.60275 0.00492
 C918 C 0.02263 1.16036 0.44091
 C919 C 0.03846 1.14598 0.41748
 C920 C 0.04651 1.15869 0.38788
 C921 C 0.03776 1.18743 0.38191
 C922 C 0.02021 1.20276 0.40481
 C923 C 0.01293 1.18885 0.43509
 O924 O 0.01629 1.14366 0.46677
 C925 C 0.02815 1.11808 0.45920
 C926 C 0.04161 1.11846 0.42909
 C927 C 0.05151 1.09348 0.41384
 C928 C 0.04694 1.06695 0.42986
 C929 C 0.03473 1.06540 0.46205
 C930 C 0.02531 1.09187 0.47687
 H931 H 0.05909 1.14683 0.36986
 H932 H 0.04486 1.19741 0.35928
 H933 H -0.00081 1.19923 0.45313
 H934 H 0.06027 1.09411 0.38918
 H935 H 0.05123 1.04759 0.41567
 H936 H 0.01395 1.09182 0.50014
 C937 C 0.76352 0.66825 0.89180
 C938 C 0.79140 0.67470 0.88220
 C939 C 0.81550 0.66252 0.89748
 C940 C 0.81062 0.64284 0.92347
 C941 C 0.78189 0.63550 0.93357
 C942 C 0.75819 0.64912 0.91761
 O943 O 0.74350 0.68141 0.87385
 C944 C 0.75903 0.69654 0.85238
 C945 C 0.78844 0.69345 0.85641
 C946 C 0.80840 0.70737 0.83607
 C947 C 0.79756 0.72454 0.81018
 C948 C 0.76722 0.72705 0.80453
 C949 C 0.74789 0.71326 0.82691
 H950 H 0.83732 0.66796 0.88968
 H951 H 0.82937 0.63394 0.93571
 H952 H 0.73601 0.64478 0.92499
 H953 H 0.83152 0.70479 0.83968
 H954 H 0.81304 0.73485 0.79421
 H955 H 0.72457 0.71464 0.82425
 C956 C 0.27360 0.17338 0.40251
 C957 C 0.29136 0.16010 0.37992
 C958 C 0.30141 0.13186 0.38374
 C959 C 0.29335 0.11702 0.41242
 C960 C 0.27607 0.13071 0.43698
 C961 C 0.26552 0.15920 0.43124
 O962 O 0.26437 0.19931 0.39300
 C963 C 0.27662 0.20250 0.36379
 C964 C 0.29349 0.17926 0.35470
 C965 C 0.30699 0.17751 0.32431
 C966 C 0.30187 0.20011 0.30196
 C967 C 0.28302 0.22357 0.30986
 C968 C 0.27133 0.22512 0.34205
 H969 H 0.31453 0.12144 0.36509
 H970 H 0.30064 0.09480 0.41558
 H971 H 0.25080 0.17006 0.44778
 H972 H 0.32024 0.15899 0.31763
 H973 H 0.31203 0.19863 0.27828
 H974 H 0.25665 0.24222 0.34957
 C975 C 0.74548 0.33743 0.37663
 C976 C 0.71840 0.32648 0.36966
 C977 C 0.69589 0.32659 0.39232
 C978 C 0.70124 0.33952 0.42288
 C979 C 0.72853 0.35281 0.42990
 C980 C 0.75127 0.35036 0.40669
 O981 O 0.76442 0.33367 0.35259
 C982 C 0.74891 0.32021 0.32988
 C983 C 0.72061 0.31536 0.33892
 C984 C 0.70113 0.30028 0.31923
 C985 C 0.71151 0.28934 0.28926
 C986 C 0.74081 0.29394 0.27939
 C987 C 0.75958 0.30965 0.30046
 H988 H 0.67506 0.31685 0.38680
 H989 H 0.68400 0.33908 0.44091
 H990 H 0.77293 0.35831 0.41167
 H991 H 0.67908 0.29616 0.32716
 H992 H 0.69705 0.27603 0.27474
 H993 H 0.78246 0.31239 0.29525
 C994 C 0.23613 0.83910 0.87926
 C995 C 0.21612 0.81721 0.88327
 C996 C 0.20380 0.81055 0.91351
 C997 C 0.21207 0.82764 0.94047
 C998 C 0.23245 0.85076 0.93680
 C999 C 0.24441 0.85639 0.90538
 O1000 O 0.24654 0.84107 0.84909
 C1001 C 0.23284 0.81990 0.83359
 C1002 C 0.21371 0.80481 0.85320
 C1003 C 0.19823 0.78084 0.84213
 C1004 C 0.20397 0.77115 0.81015
 C1005 C 0.22525 0.78526 0.79026
 C1006 C 0.23880 0.81077 0.80192
 H1007 H 0.18828 0.79300 0.91623
 H1008 H 0.20198 0.82349 0.96404
 H1009 H 0.25899 0.87421 0.90035
 H1010 H 0.18330 0.76924 0.85797
 H1011 H 0.19304 0.75166 0.80184
 H1012 H 0.25562 0.82176 0.78825
 C1013 C 0.26009 0.83442 0.09765
 C1014 C 0.27501 0.85410 0.11661
 C1015 C 0.28067 0.88232 0.10619
 C1016 C 0.27054 0.89053 0.07504
 C1017 C 0.25519 0.87046 0.05472
 C1018 C 0.25037 0.84182 0.06646
 O1019 O 0.25458 0.80964 0.11301
 C1020 C 0.26628 0.81372 0.14230
 C1021 C 0.27937 0.84039 0.14580
 C1022 C 0.29173 0.84942 0.17521
 C1023 C 0.28924 0.83071 0.20240
 C1024 C 0.27360 0.80410 0.20006
 C1025 C 0.26343 0.79504 0.16886
 H1026 H 0.29211 0.89763 0.12167
 H1027 H 0.27572 0.91227 0.06669
 H1028 H 0.23796 0.82603 0.05266
 H1029 H 0.30218 0.87044 0.17742
 H1030 H 0.29864 0.83758 0.22535
 H1031 H 0.25173 0.77487 0.16533
 C1032 C 0.76839 0.34409 0.60419
 C1033 C 0.78703 0.32130 0.59856
 C1034 C 0.79449 0.31219 0.56721
 C1035 C 0.78218 0.32703 0.54059
 C1036 C 0.76295 0.35093 0.54549
 C1037 C 0.75655 0.35979 0.57810
 O1038 O 0.76111 0.34683 0.63556
 C1039 C 0.77551 0.32535 0.65000
 C1040 C 0.79197 0.30929 0.62852
 C1041 C 0.80649 0.28412 0.63783
 C1042 C 0.80298 0.27445 0.67026
 C1043 C 0.78497 0.28983 0.69273
 C1044 C 0.77183 0.31622 0.68236
 H1045 H 0.80865 0.29373 0.56334
 H1046 H 0.78825 0.32004 0.51618
 H1047 H 0.74101 0.37680 0.58332
 H1048 H 0.81883 0.27149 0.62028
 H1049 H 0.81293 0.25402 0.67713
 H1050 H 0.75683 0.32797 0.69791
 C1051 C 0.24642 0.16213 0.59846
 C1052 C 0.22318 0.15041 0.61524
 C1053 C 0.20764 0.12664 0.60324
 C1054 C 0.21646 0.11478 0.57290
 C1055 C 0.24003 0.12716 0.55526
 C1056 C 0.25504 0.15120 0.56827
 O1057 O 0.26001 0.18283 0.61479
 C1058 C 0.24509 0.18445 0.64246
 C1059 C 0.22207 0.16549 0.64413
 C1060 C 0.20443 0.16345 0.67192
 C1061 C 0.21147 0.18103 0.69920
 C1062 C 0.23653 0.19918 0.69859
 C1063 C 0.25274 0.20135 0.66909
 H1064 H 0.18985 0.11719 0.61701
 H1065 H 0.20501 0.09612 0.56312
 H1066 H 0.27367 0.16047 0.55579
 H1067 H 0.18642 0.14834 0.67293
 H1068 H 0.19869 0.17880 0.72132
 H1069 H 0.27210 0.21457 0.66699
 C1070 C 0.74996 0.66292 0.09203
 C1071 C 0.73213 0.64671 0.11207
 C1072 C 0.72067 0.62002 0.10239
 C1073 C 0.72811 0.60966 0.07097
 C1074 C 0.74693 0.62588 0.05014
 C1075 C 0.75771 0.65305 0.06100
 O1076 O 0.75973 0.68697 0.10607
 C1077 C 0.74794 0.68596 0.13571
 C1078 C 0.73089 0.66183 0.14083
 C1079 C 0.71802 0.65592 0.17103
 C1080 C 0.72353 0.67532 0.19699
 C1081 C 0.74164 0.70014 0.19254
 C1082 C 0.75329 0.70558 0.16085
 H1083 H 0.70679 0.60747 0.11855
 H1084 H 0.71923 0.58904 0.06301
 H1085 H 0.77275 0.66573 0.04639
 H1086 H 0.70484 0.63668 0.17474
 H1087 H 0.71386 0.67065 0.22052
 H1088 H 0.76747 0.72382 0.15579
 C1089 C 0.21131 0.61044 0.26289
 C1090 C 0.21467 0.61768 0.23041
 C1091 C 0.20506 0.60004 0.20502
 C1092 C 0.19080 0.57410 0.21342
 C1093 C 0.18564 0.56670 0.24689
 C1094 C 0.19716 0.58486 0.27183
 O1095 O 0.22036 0.63106 0.28323
 C1096 C 0.22932 0.65192 0.26307
 C1097 C 0.22625 0.64479 0.23053
 C1098 C 0.23164 0.66435 0.20533
 C1099 C 0.23947 0.69274 0.21405
 C1100 C 0.24172 0.70121 0.24762
 C1101 C 0.23804 0.67976 0.27229
 H1102 H 0.20804 0.60623 0.17959
 H1103 H 0.18391 0.56029 0.19354
 H1104 H 0.19406 0.57979 0.29756
 H1105 H 0.22870 0.65835 0.17987
 H1106 H 0.24277 0.70822 0.19438
 H1107 H 0.23975 0.68470 0.29797
 C1108 C 0.70317 0.10554 0.72762
 C1109 C 0.73116 0.10169 0.73837
 C1110 C 0.74093 0.07553 0.75141
 C1111 C 0.72082 0.05271 0.75448
 C1112 C 0.69149 0.05633 0.74428
 C1113 C 0.68307 0.08302 0.72970
 O1114 O 0.69703 0.13296 0.72034
 C1115 C 0.72157 0.14681 0.72697
 C1116 C 0.74320 0.12869 0.73792
 C1117 C 0.76954 0.13907 0.74960
 C1118 C 0.77335 0.16933 0.75099
 C1119 C 0.75068 0.18863 0.74146
 C1120 C 0.72504 0.17688 0.72771
 H1121 H 0.76276 0.07334 0.76083
 H1122 H 0.72799 0.03323 0.76682
 H1123 H 0.66067 0.08707 0.72311
 H1124 H 0.78609 0.12445 0.75866
 H1125 H 0.79347 0.17754 0.76106
 H1126 H 0.70745 0.19031 0.71934
 C1127 C 0.80530 0.10241 0.27408
 C1128 C 0.77630 0.10252 0.26645
 C1129 C 0.76045 0.07729 0.26115
 C1130 C 0.77537 0.05080 0.26199
 C1131 C 0.80584 0.04991 0.26805
 C1132 C 0.82044 0.07624 0.27600
 O1133 O 0.81708 0.12882 0.27388
 C1134 C 0.79506 0.14587 0.26549
 C1135 C 0.76970 0.13073 0.26063
 C1136 C 0.74496 0.14338 0.24774
 C1137 C 0.74639 0.17282 0.23934
 C1138 C 0.77234 0.18930 0.24383
 C1139 C 0.79678 0.17549 0.25806
 H1140 H 0.73776 0.07809 0.25437
 H1141 H 0.76304 0.03175 0.25546
 H1142 H 0.84372 0.07662 0.27968
 H1143 H 0.72549 0.13080 0.24326
 H1144 H 0.72709 0.18252 0.22893
 H1145 H 0.81701 0.18675 0.26179
 C1146 C 0.29376 0.59583 0.76576
 C1147 C 0.26583 0.59483 0.75414
 C1148 C 0.25260 0.56926 0.74389
 C1149 C 0.26912 0.54370 0.74477
 C1150 C 0.29835 0.54414 0.75603
 C1151 C 0.31038 0.57069 0.76739
 O1152 O 0.30340 0.62268 0.77070
 C1153 C 0.28111 0.63901 0.76169
 C1154 C 0.25763 0.62299 0.75138
 C1155 C 0.23313 0.63552 0.73777
 C1156 C 0.23293 0.66577 0.73429
 C1157 C 0.25717 0.68302 0.74413
 C1158 C 0.28121 0.66921 0.75897
 H1159 H 0.23087 0.56926 0.73385
 H1160 H 0.25933 0.52435 0.73471
 H1161 H 0.33292 0.57216 0.77470
 H1162 H 0.21514 0.62241 0.72923
 H1163 H 0.21390 0.67548 0.72332
 H1164 H 0.30011 0.68114 0.76672
 C1165 C 0.31454 0.38709 0.74008
 C1166 C 0.29069 0.38440 0.72003
 C1167 C 0.27948 0.40735 0.70192
 C1168 C 0.29273 0.43454 0.70553
 C1169 C 0.31645 0.43834 0.72730
 C1170 C 0.32815 0.41407 0.74402
 O1171 O 0.32075 0.36270 0.75612
 C1172 C 0.30019 0.34443 0.74617
 C1173 C 0.28119 0.35680 0.72431
 C1174 C 0.25696 0.34240 0.71237
 C1175 C 0.25224 0.31384 0.72302
 C1176 C 0.27181 0.30003 0.74508
 C1177 C 0.29629 0.31576 0.75659
 H1178 H 0.26064 0.40463 0.68639
 H1179 H 0.28377 0.45295 0.69240
 H1180 H 0.34580 0.41652 0.76129
 H1181 H 0.24206 0.35287 0.69561
 H1182 H 0.23344 0.30255 0.71353
 H1183 H 0.31184 0.30615 0.77322
 C1184 C 0.81795 0.89368 0.23351
 C1185 C 0.79073 0.89278 0.21981
 C1186 C 0.77559 0.91751 0.21066
 C1187 C 0.78873 0.94445 0.21646
 C1188 C 0.81681 0.94640 0.23085
 C1189 C 0.83198 0.92034 0.23852
 O1190 O 0.82724 0.86763 0.24313
 C1191 C 0.80537 0.85006 0.23521
 C1192 C 0.78268 0.86447 0.22070
 C1193 C 0.75692 0.85091 0.21208
 C1194 C 0.75427 0.82119 0.21878
 C1195 C 0.77713 0.80547 0.23415
 C1196 C 0.80320 0.82035 0.24226
 H1197 H 0.75401 0.91618 0.20031
 H1198 H 0.77688 0.96383 0.20951
 H1199 H 0.85289 0.92067 0.25056
 H1200 H 0.73921 0.86293 0.20114
 H1201 H 0.73395 0.81080 0.21251
 H1202 H 0.82079 0.80961 0.25491
 C1203 C 0.68631 0.91128 0.78128
 C1204 C 0.66418 0.89655 0.76616
 C1205 C 0.63812 0.90915 0.75737
 C1206 C 0.63473 0.93868 0.76346
 C1207 C 0.65750 0.95547 0.77740
 C1208 C 0.68358 0.94126 0.78724
 O1209 O 0.70966 0.89461 0.78622
 C1210 C 0.70192 0.86906 0.77331
 C1211 C 0.67444 0.86974 0.76038
 C1212 C 0.66275 0.84755 0.74198
 C1213 C 0.67968 0.82304 0.73728
 C1214 C 0.70727 0.81972 0.75270
 C1215 C 0.71889 0.84367 0.77053
 H1216 H 0.62119 0.89681 0.74531
 H1217 H 0.61474 0.94836 0.75530
 H1218 H 0.70147 0.95330 0.79779
 H1219 H 0.64168 0.84948 0.73048
 H1220 H 0.67074 0.80669 0.72124
 H1221 H 0.74032 0.84273 0.78128
 C1222 C 0.19594 0.41481 0.27892
 C1223 C 0.22163 0.41551 0.29610
 C1224 C 0.23145 0.44049 0.31190
 C1225 C 0.21445 0.46579 0.30911
 C1226 C 0.18814 0.46555 0.29097
 C1227 C 0.17859 0.43945 0.27628
 O1228 O 0.19092 0.38950 0.26455
 C1229 C 0.21390 0.37384 0.27276
 C1230 C 0.23339 0.38854 0.29208
 C1231 C 0.25911 0.37589 0.30292
 C1232 C 0.26464 0.34684 0.29381
 C1233 C 0.24464 0.33117 0.27399
 C1234 C 0.21905 0.34537 0.26323
 H1235 H 0.25180 0.44071 0.32511
 H1236 H 0.22207 0.48571 0.32037
 H1237 H 0.15910 0.43867 0.26150
 H1238 H 0.27428 0.38786 0.31802
 H1239 H 0.28434 0.33663 0.30246
 H1240 H 0.20289 0.33449 0.24849
 C1241 C 0.10617 0.22907 0.80689
 C1242 C 0.12005 0.20749 0.82405
 C1243 C 0.10952 0.19594 0.85306
 C1244 C 0.08286 0.20606 0.86438
 C1245 C 0.06570 0.22573 0.84557
 C1246 C 0.07826 0.23833 0.81674
 O1247 O 0.12264 0.23986 0.78267
 C1248 C 0.14711 0.22431 0.78465
 C1249 C 0.14595 0.20385 0.80914
 C1250 C 0.16886 0.18582 0.81698
 C1251 C 0.19480 0.18977 0.80000
 C1252 C 0.19814 0.21189 0.77589
 C1253 C 0.17332 0.22894 0.76738
 H1254 H 0.12195 0.18041 0.86724
 H1255 H 0.07541 0.19805 0.88793
 H1256 H 0.06711 0.25501 0.80292
 H1257 H 0.16728 0.17004 0.83666
 H1258 H 0.21276 0.17707 0.80829
 H1259 H 0.17493 0.24659 0.74987
 C1260 C 0.61442 0.73243 0.31791
 C1261 C 0.61116 0.72430 0.28566
 C1262 C 0.58420 0.71958 0.27157
 C1263 C 0.55958 0.72374 0.29129
 C1264 C 0.56183 0.73406 0.32423
 C1265 C 0.59003 0.73761 0.33787
 O1266 O 0.64214 0.73512 0.32652
 C1267 C 0.65650 0.72885 0.29902
 C1268 C 0.63855 0.72239 0.27322
 C1269 C 0.64894 0.71742 0.24162
 C1270 C 0.67906 0.71939 0.23631
 C1271 C 0.69847 0.72475 0.26267
 C1272 C 0.68660 0.72961 0.29457
 H1273 H 0.58217 0.71246 0.24637
 H1274 H 0.53867 0.71882 0.28062
 H1275 H 0.59298 0.74402 0.36318
 H1276 H 0.63426 0.71347 0.22141
 H1277 H 0.68690 0.71784 0.21141
 H1278 H 0.70022 0.73505 0.31528
 C1279 C 0.61417 0.26471 0.16808
 C1280 C 0.61864 0.29105 0.18319
 C1281 C 0.59672 0.31156 0.18670
 C1282 C 0.56934 0.30486 0.17353
 C1283 C 0.56424 0.27823 0.15659
 C1284 C 0.58718 0.25763 0.15469
 O1285 O 0.63766 0.24802 0.16770
 C1286 C 0.65742 0.26423 0.18277
 C1287 C 0.64700 0.29081 0.19264
 C1288 C 0.66427 0.31116 0.20865
 C1289 C 0.69329 0.30365 0.21507
 C1290 C 0.70459 0.27604 0.20577
 C1291 C 0.68609 0.25629 0.18900
 H1292 H 0.60056 0.33205 0.19904
 H1293 H 0.55210 0.32072 0.17597
 H1294 H 0.58470 0.23662 0.14331
 H1295 H 0.65569 0.33205 0.21612
 H1296 H 0.70661 0.31923 0.22796
 H1297 H 0.69346 0.23506 0.18117
 C1298 C 0.10114 0.76077 0.67056
 C1299 C 0.10159 0.78110 0.69527
 C1300 C 0.07708 0.79656 0.70465
 C1301 C 0.05109 0.79059 0.68803
 C1302 C 0.04982 0.76903 0.66295
 C1303 C 0.07569 0.75450 0.65377
 O1304 O 0.12671 0.74860 0.66511
 C1305 C 0.14367 0.76141 0.68696
 C1306 C 0.12949 0.78152 0.70602
 C1307 C 0.14342 0.79732 0.73044
 C1308 C 0.17299 0.79166 0.73580
 C1309 C 0.18801 0.77040 0.71692
 C1310 C 0.17288 0.75560 0.69168
 H1311 H 0.07796 0.81278 0.72387
 H1312 H 0.03193 0.80294 0.69454
 H1313 H 0.07666 0.73922 0.63373
 H1314 H 0.13194 0.81338 0.74489
 H1315 H 0.18401 0.80435 0.75420
 H1316 H 0.18323 0.73956 0.67617
 C1317 C 0.89111 0.75286 0.68082
 C1318 C 0.89156 0.77149 0.70722
 C1319 C 0.91556 0.78817 0.71536
 C1320 C 0.94044 0.78513 0.69598
 C1321 C 0.94117 0.76541 0.66909
 C1322 C 0.91585 0.74942 0.66101
 O1323 O 0.86559 0.73965 0.67719
 C1324 C 0.84980 0.75021 0.70188
 C1325 C 0.86482 0.76966 0.72095
 C1326 C 0.85253 0.78389 0.74759
 C1327 C 0.82329 0.77834 0.75460
 C1328 C 0.80682 0.75853 0.73529
 C1329 C 0.82060 0.74419 0.70852
 H1330 H 0.91517 0.80303 0.73595
 H1331 H 0.95922 0.79824 0.70202
 H1332 H 0.91566 0.73434 0.64062
 H1333 H 0.86487 0.79926 0.76207
 H1334 H 0.81346 0.78999 0.77481
 H1335 H 0.80874 0.72962 0.69256
 C1336 C 0.40365 0.25832 0.18141
 C1337 C 0.40771 0.25218 0.21403
 C1338 C 0.43496 0.25010 0.22814
 C1339 C 0.45917 0.25454 0.20788
 C1340 C 0.45610 0.26193 0.17402
 C1341 C 0.42752 0.26363 0.16080
 O1342 O 0.37570 0.25947 0.17316
 C1343 C 0.36197 0.25411 0.20134
 C1344 C 0.38067 0.24980 0.22707
 C1345 C 0.37127 0.24644 0.25922
 C1346 C 0.34136 0.24771 0.26521
 C1347 C 0.32107 0.25067 0.23913
 C1348 C 0.33188 0.25414 0.20658
 H1349 H 0.43755 0.24496 0.25390
 H1350 H 0.48015 0.25183 0.21915
 H1351 H 0.42354 0.26942 0.13553
 H1352 H 0.38653 0.24432 0.27924
 H1353 H 0.33431 0.24749 0.29050
 H1354 H 0.31744 0.25800 0.18612
 C1355 C 0.40398 0.77316 0.31878
 C1356 C 0.40557 0.77415 0.28513
 C1357 C 0.43042 0.76688 0.26793
 C1358 C 0.45487 0.75868 0.28597
 C1359 C 0.45490 0.75866 0.32107
 C1360 C 0.42857 0.76589 0.33757
 O1361 O 0.37719 0.77792 0.32989
 C1362 C 0.36178 0.78201 0.30259
 C1363 C 0.37829 0.78025 0.27462
 C1364 C 0.36652 0.78186 0.24328
 C1365 C 0.33630 0.78433 0.24050
 C1366 C 0.31823 0.78507 0.26879
 C1367 C 0.33155 0.78463 0.30038
 H1368 H 0.43072 0.76655 0.24137
 H1369 H 0.47340 0.75163 0.27186
 H1370 H 0.42690 0.76560 0.36401
 H1371 H 0.38003 0.77985 0.22165
 H1372 H 0.32706 0.78349 0.21616
 H1373 H 0.31873 0.78407 0.32266
 C1374 C 0.90804 0.26202 0.82474
 C1375 C 0.91216 0.27324 0.79384
 C1376 C 0.93965 0.27779 0.78074
 C1377 C 0.96380 0.27035 0.80010
 C1378 C 0.96050 0.25816 0.83220
 C1379 C 0.93170 0.25436 0.84445
 O1380 O 0.88020 0.25816 0.83216
 C1381 C 0.86647 0.26711 0.80533
 C1382 C 0.88494 0.27653 0.78109
 C1383 C 0.87502 0.28516 0.75032
 C1384 C 0.84499 0.28338 0.74410
 C1385 C 0.82528 0.27337 0.76852
 C1386 C 0.83658 0.26574 0.79989
 H1387 H 0.94246 0.28664 0.75631
 H1388 H 0.98499 0.27470 0.78980
 H1389 H 0.92715 0.24431 0.86785
 H1390 H 0.88997 0.29217 0.73136
 H1391 H 0.83751 0.28922 0.71998
 H1392 H 0.82275 0.25740 0.81925
 C1393 C 0.59383 0.97088 0.66206
 C1394 C 0.56751 0.96137 0.67395
 C1395 C 0.55750 0.96881 0.70504
 C1396 C 0.57568 0.98591 0.72486
 C1397 C 0.60351 0.99493 0.71362
 C1398 C 0.61247 0.98735 0.68152
 O1399 O 0.59757 0.96529 0.63048
 C1400 C 0.57309 0.95207 0.62213
 C1401 C 0.55411 0.94858 0.64790
 C1402 C 0.52590 0.93842 0.64362
 C1403 C 0.51607 0.93437 0.61129
 C1404 C 0.53407 0.94189 0.58414
 C1405 C 0.56386 0.94793 0.59006
 H1406 H 0.53614 0.96233 0.71342
 H1407 H 0.56791 0.99214 0.74891
 H1408 H 0.63333 0.99392 0.67177
 H1409 H 0.51120 0.93610 0.66421
 H1410 H 0.49333 0.92941 0.60771
 H1411 H 0.57832 0.95491 0.57069
 C1412 C 0.10507 0.46714 1.16320
 C1413 C 0.08205 0.45144 1.17545
 C1414 C 0.07639 0.44953 1.20897
 C1415 C 0.09492 0.46467 1.23050
 C1416 C 0.11873 0.48123 1.21831
 C1417 C 0.12416 0.48148 1.18405
 O1418 O 0.10453 0.47002 1.13088
 C1419 C 0.08062 0.45594 1.12237
 C1420 C 0.06618 0.44371 1.14855
 C1421 C 0.03903 0.43071 1.14525
 C1422 C 0.02568 0.43174 1.11422
 C1423 C 0.03922 0.44633 1.08743
 C1424 C 0.06772 0.45738 1.09162
 H1425 H 0.05754 0.43800 1.21815
 H1426 H 0.08971 0.46447 1.25636
 H1427 H 0.14200 0.49357 1.17341
 H1428 H 0.02773 0.42170 1.16625
 H1429 H 0.00377 0.42346 1.11204
 H1430 H 0.07838 0.47007 1.07274
 C1431 C -0.09814 -0.00127 1.14143
 C1432 C -0.08466 0.02535 1.13806
 C1433 C -0.08568 0.04658 1.16224
 C1434 C -0.10199 0.04046 1.19052
 C1435 C -0.11682 0.01347 1.19407
 C1436 C -0.11423 -0.00796 1.16949
 O1437 O -0.09485 -0.01820 1.11540
 C1438 C -0.07912 -0.00187 1.09520
 C1439 C -0.07230 0.02494 1.10776
 C1440 C -0.05563 0.04515 1.09061
 C1441 C -0.04545 0.03723 1.05932
 C1442 C -0.05285 0.00989 1.04522
 C1443 C -0.06940 -0.01006 1.06434
 H1444 H -0.07488 0.06734 1.15915
 H1445 H -0.10366 0.05698 1.20935
 H1446 H -0.12565 -0.02851 1.17133
 H1447 H -0.05002 0.06597 1.10127
 H1448 H -0.03107 0.05211 1.04663
 H1449 H -0.07407 -0.03194 1.05613
 C1450 C 0.39613 0.50391 0.63506
 C1451 C 0.41773 0.52416 0.63996
 C1452 C 0.42299 0.53692 0.67032
 C1453 C 0.40467 0.52911 0.69645
 C1454 C 0.38210 0.50858 0.69182
 C1455 C 0.37792 0.49555 0.66083
 O1456 O 0.39525 0.49393 0.60453
 C1457 C 0.41682 0.50811 0.58987
 C1458 C 0.43118 0.52691 0.61043
 C1459 C 0.45546 0.54265 0.60068
 C1460 C 0.46634 0.53761 0.56903
 C1461 C 0.45270 0.51733 0.54761
 C1462 C 0.42674 0.50341 0.55798
 H1463 H 0.44021 0.55268 0.67362
 H1464 H 0.40749 0.53953 0.72006
 H1465 H 0.36039 0.48027 0.65671
 H1466 H 0.46654 0.55715 0.61741
 H1467 H 0.48630 0.54841 0.56202
 H1468 H 0.41595 0.48733 0.54291
 C1469 C 0.40725 0.49713 -0.15070
 C1470 C 0.42240 0.47142 -0.15182
 C1471 C 0.41768 0.45084 -0.17636
 C1472 C 0.39645 0.45709 -0.20031
 C1473 C 0.38072 0.48373 -0.19955
 C1474 C 0.38683 0.50400 -0.17434
 O1475 O 0.41442 0.51397 -0.12575
 C1476 C 0.43462 0.49869 -0.11060
 C1477 C 0.44074 0.47258 -0.12546
 C1478 C 0.46247 0.45418 -0.11385
 C1479 C 0.47812 0.46312 -0.08583
 C1480 C 0.47110 0.48949 -0.06933
 C1481 C 0.44928 0.50753 -0.08275
 H1482 H 0.42970 0.43063 -0.17692
 H1483 H 0.39222 0.44102 -0.21905
 H1484 H 0.37651 0.52507 -0.17305
 H1485 H 0.46754 0.43397 -0.12618
 H1486 H 0.49546 0.44938 -0.07688
 H1487 H 0.44409 0.52857 -0.07267
 C1488 C -0.09416 0.97133 0.35316
 C1489 C -0.06750 0.96522 0.33956
 C1490 C -0.06266 0.96545 0.30584
 C1491 C -0.08609 0.97276 0.28543
 C1492 C -0.11356 0.97995 0.29898
 C1493 C -0.11770 0.97852 0.33336
 O1494 O -0.09358 0.97305 0.38561
 C1495 C -0.06590 0.96838 0.39268
 C1496 C -0.04900 0.96337 0.36547
 C1497 C -0.01897 0.96118 0.36715
 C1498 C -0.00581 0.96594 0.39775
 C1499 C -0.02269 0.97316 0.42595
 C1500 C -0.05333 0.97228 0.42336
 H1501 H -0.04133 0.96137 0.29569
 H1502 H -0.08230 0.97432 0.25926
 H1503 H -0.13826 0.98415 0.34455
 H1504 H -0.00598 0.95761 0.34536
 H1505 H 0.01766 0.96578 0.39883
 H1506 H -0.06742 0.97607 0.44384
 C1507 C 0.08263 0.52025 0.36866
 C1508 C 0.05996 0.53792 0.35931
 C1509 C 0.05831 0.55034 0.32822
 C1510 C 0.08119 0.54477 0.30627
 C1511 C 0.10474 0.52667 0.31552
 C1512 C 0.10526 0.51392 0.34699
 O1513 O 0.08022 0.51073 0.39924
 C1514 C 0.05552 0.52254 0.40936
 C1515 C 0.04213 0.53928 0.38598
 C1516 C 0.01528 0.55240 0.39129
 C1517 C 0.00151 0.54756 0.42171
 C1518 C 0.01502 0.53051 0.44645
 C1519 C 0.04263 0.51805 0.43977
 H1520 H 0.04033 0.56417 0.32131
 H1521 H 0.08080 0.55474 0.28217
 H1522 H 0.12321 0.50036 0.35470
 H1523 H 0.00480 0.56498 0.37224
 H1524 H -0.02016 0.55599 0.42520
 H1525 H 0.05343 0.50387 0.45705
 C1526 C 0.58419 0.04226 -0.13222
 C1527 C 0.55971 0.05626 -0.14357
 C1528 C 0.55629 0.06364 -0.17652
 C1529 C 0.57888 0.05615 -0.19827
 C1530 C 0.60397 0.04163 -0.18661
 C1531 C 0.60674 0.03483 -0.15322
 O1532 O 0.58250 0.03475 -0.10105
 C1533 C 0.55648 0.04409 -0.09238
 C1534 C 0.54145 0.05757 -0.11713
 C1535 C 0.51274 0.06668 -0.11314
 C1536 C 0.49906 0.06104 -0.08270
 C1537 C 0.51417 0.04634 -0.05725
 C1538 C 0.54346 0.03820 -0.06267
 H1539 H 0.53671 0.07402 -0.18527
 H1540 H 0.57665 0.06099 -0.22416
 H1541 H 0.62543 0.02307 -0.14409
 H1542 H 0.50096 0.07672 -0.13311
 H1543 H 0.47644 0.06677 -0.07965
 H1544 H 0.55573 0.02546 -0.04529
 C1545 C 0.66524 0.55548 -0.01269
 C1546 C 0.66514 0.52753 -0.02488
 C1547 C 0.69045 0.51366 -0.03525
 C1548 C 0.71667 0.52939 -0.03319
 C1549 C 0.71690 0.55813 -0.02069
 C1550 C 0.69092 0.57122 -0.01009
 O1551 O 0.63906 0.56523 -0.00515
 C1552 C 0.62199 0.54301 -0.01262
 C1553 C 0.63665 0.51934 -0.02470
 C1554 C 0.62237 0.49403 -0.03434
 C1555 C 0.59189 0.49322 -0.03120
 C1556 C 0.57626 0.51761 -0.01889
 C1557 C 0.59201 0.54273 -0.00969
 H1558 H 0.68997 0.49178 -0.04502
 H1559 H 0.73664 0.51943 -0.04156
 H1560 H 0.69065 0.59332 -0.00086
 H1561 H 0.63423 0.47556 -0.04388
 H1562 H 0.58065 0.47355 -0.03836
 H1563 H 0.58154 0.56209 -0.00108
 C1564 C 0.16810 1.03834 0.47117
 C1565 C 0.16667 1.01765 0.49547
 C1566 C 0.18943 1.01262 0.51715
 C1567 C 0.21447 1.02992 0.51386
 C1568 C 0.21608 1.05210 0.48959
 C1569 C 0.19249 1.05585 0.46770
 O1570 O 0.14355 1.04134 0.45466
 C1571 C 0.12604 1.02230 0.46900
 C1572 C 0.13903 1.00728 0.49414
 C1573 C 0.12375 0.98833 0.51428
 C1574 C 0.09377 0.98566 0.50900
 C1575 C 0.07940 1.00204 0.48397
 C1576 C 0.09652 1.01932 0.46278
 H1577 H 0.18771 0.99644 0.53637
 H1578 H 0.23225 1.02628 0.53063
 H1579 H 0.19200 1.07313 0.44969
 H1580 H 0.13423 0.97703 0.53432
 H1581 H 0.08186 0.97184 0.52575
 H1582 H 0.08740 1.03154 0.44311
 C1583 C 0.13315 -0.07014 1.00490
 C1584 C 0.13527 -0.04164 1.01487
 C1585 C 0.16194 -0.02847 1.02142
 C1586 C 0.18724 -0.04522 1.01653
 C1587 C 0.18517 -0.07438 1.00535
 C1588 C 0.15757 -0.08712 1.00089
 O1589 O 0.10656 -0.07823 0.99711
 C1590 C 0.09130 -0.05440 1.00226
 C1591 C 0.10753 -0.03134 1.01342
 C1592 C 0.09549 -0.00400 1.01872
 C1593 C 0.06564 -0.00056 1.01241
 C1594 C 0.04864 -0.02417 1.00037
 C1595 C 0.06218 -0.05128 0.99502
 H1596 H 0.16329 -0.00587 1.02870
 H1597 H 0.20822 -0.03510 1.01994
 H1598 H 0.15502 -0.10944 0.99287
 H1599 H 0.10860 0.01409 1.02705
 H1600 H 0.05607 0.02065 1.01628
 H1601 H 0.05122 -0.06937 0.98381
 C1602 C 0.63378 0.42012 0.52010
 C1603 C 0.63785 0.44795 0.53163
 C1604 C 0.66526 0.45854 0.53994
 C1605 C 0.68932 0.44019 0.53439
 C1606 C 0.68532 0.41199 0.52096
 C1607 C 0.65691 0.40138 0.51599
 O1608 O 0.60721 0.41501 0.50951
 C1609 C 0.59397 0.44007 0.51445
 C1610 C 0.61139 0.46099 0.52832
 C1611 C 0.60169 0.48930 0.53360
 C1612 C 0.57287 0.49590 0.52474
 C1613 C 0.55473 0.47452 0.50996
 C1614 C 0.56610 0.44647 0.50425
 H1615 H 0.66823 0.48069 0.54828
 H1616 H 0.71092 0.44870 0.53829
 H1617 H 0.65299 0.37996 0.50582
 H1618 H 0.61579 0.50572 0.54399
 H1619 H 0.56499 0.51775 0.52897
 H1620 H 0.55435 0.42999 0.49096
 C1621 C -0.16679 0.44114 0.48676
 C1622 C -0.17194 0.46834 0.49953
 C1623 C -0.19934 0.47724 0.50998
 C1624 C -0.22234 0.45729 0.50687
 C1625 C -0.21742 0.42946 0.49313
 C1626 C -0.18926 0.42130 0.48305
 O1627 O -0.13913 0.43634 0.47973
 C1628 C -0.12643 0.46107 0.48821
 C1629 C -0.14551 0.48146 0.50016
 C1630 C -0.13664 0.50877 0.51058
 C1631 C -0.10682 0.51485 0.50972
 C1632 C -0.08635 0.49337 0.49963
 C1633 C -0.09676 0.46658 0.48732
 H1634 H -0.20282 0.49862 0.52038
 H1635 H -0.24389 0.46359 0.51461
 H1636 H -0.18494 0.39990 0.47303
 H1637 H -0.15205 0.52467 0.51951
 H1638 H -0.09978 0.53602 0.51819
 H1639 H -0.08254 0.45002 0.47793
 C1640 C 0.33852 -0.05538 -0.01505
 C1641 C 0.33300 -0.02732 -0.00531
 C1642 C 0.30536 -0.01730 0.00249
 C1643 C 0.28233 -0.03709 -0.00013
 C1644 C 0.28748 -0.06596 -0.01064
 C1645 C 0.31601 -0.07526 -0.01798
 O1646 O 0.36645 -0.06071 -0.02026
 C1647 C 0.37888 -0.03538 -0.01362
 C1648 C 0.35928 -0.01431 -0.00456
 C1649 C 0.36733 0.01370 0.00359
 C1650 C 0.39692 0.02007 0.00346
 C1651 C 0.41810 -0.00168 -0.00396
 C1652 C 0.40858 -0.02950 -0.01408
 H1653 H 0.30171 0.00487 0.01041
 H1654 H 0.26053 -0.02988 0.00552
 H1655 H 0.32063 -0.09744 -0.02525
 H1656 H 0.35144 0.03002 0.01021
 H1657 H 0.40305 0.04203 0.01001
 H1658 H 0.42346 -0.04620 -0.02181
 C1659 C 0.36507 1.05892 0.53417
 C1660 C 0.35926 1.03279 0.54917
 C1661 C 0.33109 1.02278 0.55458
 C1662 C 0.30804 1.04005 0.54312
 C1663 C 0.31360 1.06680 0.52684
 C1664 C 0.34265 1.07679 0.52386
 O1665 O 0.39297 1.06302 0.52760
 C1666 C 0.40520 1.03885 0.53858
 C1667 C 0.38558 1.01980 0.55237
 C1668 C 0.39336 0.99230 0.56314
 C1669 C 0.42233 0.98386 0.55895
 C1670 C 0.44294 1.00264 0.54350
 C1671 C 0.43406 1.03082 0.53382
 H1672 H 0.32704 1.00172 0.56562
 H1673 H 0.28615 1.03175 0.54536
 H1674 H 0.34804 1.09723 0.51217
 H1675 H 0.37750 0.97747 0.57345
 H1676 H 0.42808 0.96210 0.56664
 H1677 H 0.44857 1.04551 0.52105
 C1678 C -0.14290 0.54285 1.04104
 C1679 C -0.14909 0.51406 1.03483
 C1680 C -0.17462 0.50511 1.01963
 C1681 C -0.19442 0.52671 1.01012
 C1682 C -0.18791 0.55651 1.01499
 C1683 C -0.16200 0.56471 1.03105
 O1684 O -0.11648 0.54689 1.05322
 C1685 C -0.10551 0.52019 1.05401
 C1686 C -0.12451 0.49939 1.04280
 C1687 C -0.11617 0.47081 1.03714
 C1688 C -0.08664 0.46408 1.04056
 C1689 C -0.06604 0.48586 1.04944
 C1690 C -0.07652 0.51321 1.06000
 H1691 H -0.17876 0.48239 1.01442
 H1692 H -0.21417 0.52039 0.99762
 H1693 H -0.15644 0.58741 1.03446
 H1694 H -0.13136 0.45484 1.02788
 H1695 H -0.07977 0.44240 1.03377
 H1696 H -0.06234 0.52947 1.07013
 C1697 C -0.00374 0.65711 0.57451
 C1698 C -0.01481 0.66098 0.54354
 C1699 C -0.02597 0.68760 0.53295
 C1700 C -0.02477 0.71135 0.55480
 C1701 C -0.01240 0.70813 0.58642
 C1702 C -0.00240 0.68030 0.59650
 O1703 O 0.00502 0.63005 0.58027
 C1704 C -0.00054 0.61642 0.55226
 C1705 C -0.01250 0.63438 0.52891
 C1706 C -0.02068 0.62432 0.49815
 C1707 C -0.01760 0.59443 0.49173
 C1708 C -0.00649 0.57500 0.51587
 C1709 C 0.00303 0.58666 0.54627
 H1710 H -0.03490 0.69010 0.50856
 H1711 H -0.03236 0.73239 0.54663
 H1712 H 0.00673 0.67688 0.62066
 H1713 H -0.03018 0.63876 0.48014
 H1714 H -0.02564 0.58641 0.46862
 H1715 H 0.01124 0.57279 0.56562
 C1716 C 0.49925 0.16798 0.07163
 C1717 C 0.48439 0.17238 0.04279
 C1718 C 0.47423 0.19970 0.03344
 C1719 C 0.47998 0.22332 0.05447
 C1720 C 0.49592 0.21921 0.08386
 C1721 C 0.50537 0.19102 0.09257
 O1722 O 0.50674 0.14053 0.07650
 C1723 C 0.49654 0.12722 0.05014
 C1724 C 0.48282 0.14559 0.02853
 C1725 C 0.47089 0.13577 -0.00083
 C1726 C 0.47292 0.10584 -0.00788
 C1727 C 0.48654 0.08639 0.01446
 C1728 C 0.49855 0.09763 0.04385
 H1729 H 0.46246 0.20275 0.01074
 H1730 H 0.47276 0.24479 0.04745
 H1731 H 0.51724 0.18710 0.11506
 H1732 H 0.46027 0.15058 -0.01762
 H1733 H 0.46350 0.09788 -0.03045
 H1734 H 0.50929 0.08384 0.06160
 C1735 C -0.02565 0.13283 0.91087
 C1736 C -0.04239 0.13671 0.93846
 C1737 C -0.05036 0.16449 0.94917
 C1738 C -0.03967 0.18887 0.93147
 C1739 C -0.02170 0.18508 0.90339
 C1740 C -0.01621 0.15635 0.89229
 O1741 O -0.01764 0.10552 0.90608
 C1742 C -0.02953 0.09157 0.93113
 C1743 C -0.04544 0.10924 0.95152
 C1744 C -0.05949 0.09820 0.97928
 C1745 C -0.05605 0.06827 0.98662
 C1746 C -0.03725 0.05040 0.96765
 C1747 C -0.02496 0.06244 0.93867
 H1748 H -0.06307 0.16738 0.97129
 H1749 H -0.04422 0.21047 0.94062
 H1750 H -0.00353 0.15196 0.87051
 H1751 H -0.07270 0.11207 0.99468
 H1752 H -0.06798 0.05934 1.00705
 H1753 H -0.01116 0.04985 0.92253
 C1754 C 0.48799 0.63534 0.41083
 C1755 C 0.47249 0.64059 0.43906
 C1756 C 0.46274 0.66831 0.44723
 C1757 C 0.46998 0.69150 0.42600
 C1758 C 0.48709 0.68687 0.39738
 C1759 C 0.49528 0.65793 0.38943
 O1760 O 0.49589 0.60777 0.40761
 C1761 C 0.48533 0.59529 0.43448
 C1762 C 0.47085 0.61425 0.45469
 C1763 C 0.45901 0.60544 0.48463
 C1764 C 0.46235 0.57603 0.49399
 C1765 C 0.47726 0.55595 0.47347
 C1766 C 0.48870 0.56621 0.44313
 H1767 H 0.45046 0.67210 0.46949
 H1768 H 0.46290 0.71300 0.43267
 H1769 H 0.50761 0.65295 0.36754
 H1770 H 0.44770 0.62067 0.50032
 H1771 H 0.45273 0.56909 0.51678
 H1772 H 0.50039 0.55208 0.42649
 C1773 C 0.51260 0.83344 0.43824
 C1774 C 0.49595 0.82662 0.46527
 C1775 C 0.48271 0.79953 0.46879
 C1776 C 0.48692 0.77886 0.44366
 C1777 C 0.50433 0.78531 0.41576
 C1778 C 0.51727 0.81320 0.41325
 O1779 O 0.52255 0.86049 0.43872
 C1780 C 0.51209 0.87101 0.46663
 C1781 C 0.49577 0.85132 0.48409
 C1782 C 0.48263 0.85856 0.51393
 C1783 C 0.48622 0.88724 0.52586
 C1784 C 0.50258 0.90807 0.50785
 C1785 C 0.51570 0.89932 0.47779
 H1786 H 0.46948 0.79450 0.49004
 H1787 H 0.47694 0.75777 0.44630
 H1788 H 0.53018 0.81927 0.39209
 H1789 H 0.46977 0.84280 0.52735
 H1790 H 0.47576 0.89331 0.54865
 H1791 H 0.52826 0.91422 0.46286
 C1792 C 0.01829 0.33069 0.94792
 C1793 C 0.00442 0.32399 0.97688
 C1794 C -0.00918 0.29722 0.98207
 C1795 C -0.00800 0.27643 0.95665
 C1796 C 0.00694 0.28257 0.92699
 C1797 C 0.02010 0.31023 0.92265
 O1798 O 0.02831 0.35780 0.94696
 C1799 C 0.02075 0.36853 0.97600
 C1800 C 0.00636 0.34870 0.99541
 C1801 C -0.00423 0.35581 1.02638
 C1802 C -0.00100 0.38473 1.03714
 C1803 C 0.01227 0.40618 1.01679
 C1804 C 0.02418 0.39741 0.98617
 H1805 H -0.02042 0.29254 1.00482
 H1806 H -0.01806 0.25539 0.96033
 H1807 H 0.03126 0.31574 0.90006
 H1808 H -0.01552 0.33990 1.04131
 H1809 H -0.01039 0.39062 1.06056
 H1810 H 0.03405 0.41296 0.96958
 C1811 C 0.48755 0.37237 0.07291
 C1812 C 0.47189 0.36732 0.04476
 C1813 C 0.46175 0.33957 0.03678
 C1814 C 0.46897 0.31633 0.05805
 C1815 C 0.48614 0.32128 0.08643
 C1816 C 0.49432 0.35003 0.09438
 O1817 O 0.49722 0.39930 0.07547
 C1818 C 0.48770 0.41172 0.04834
 C1819 C 0.47186 0.39352 0.02857
 C1820 C 0.46081 0.40287 -0.00153
 C1821 C 0.46694 0.43174 -0.01161
 C1822 C 0.48476 0.45026 0.00778
 C1823 C 0.49433 0.43977 0.03869
 H1824 H 0.44973 0.33574 0.01440
 H1825 H 0.46239 0.29452 0.05155
 H1826 H 0.50703 0.35489 0.11602
 H1827 H 0.44794 0.38852 -0.01673
 H1828 H 0.45744 0.43943 -0.03407
 H1829 H 0.50739 0.45273 0.05516
 C1830 C -0.01999 0.86351 0.57196
 C1831 C -0.03039 0.85801 0.54098
 C1832 C -0.03714 0.82993 0.53036
 C1833 C -0.03222 0.80665 0.55226
 C1834 C -0.02031 0.81182 0.58376
 C1835 C -0.01503 0.84083 0.59392
 O1836 O -0.01293 0.89117 0.57674
 C1837 C -0.01873 0.90352 0.54808
 C1838 C -0.02941 0.88429 0.52528
 C1839 C -0.03430 0.89231 0.49285
 C1840 C -0.02746 0.92102 0.48350
 C1841 C -0.01621 0.94141 0.50649
 C1842 C -0.01238 0.93223 0.53951
 H1843 H -0.04494 0.82599 0.50573
 H1844 H -0.03621 0.78463 0.54407
 H1845 H -0.00590 0.84558 0.61780
 H1846 H -0.04198 0.87669 0.47500
 H1847 H -0.03001 0.92653 0.45805
 H1848 H -0.00323 0.94656 0.55786
 C1849 C 0.24179 0.36177 0.11515
 C1850 C 0.21919 0.34280 0.11004
 C1851 C 0.20702 0.33862 0.07929
 C1852 C 0.21847 0.35472 0.05293
 C1853 C 0.24198 0.37460 0.05740
 C1854 C 0.25360 0.37784 0.08942
 O1855 O 0.25213 0.36081 0.14539
 C1856 C 0.23585 0.34065 0.15966
 C1857 C 0.21526 0.32889 0.13927
 C1858 C 0.19806 0.30527 0.14853
 C1859 C 0.20336 0.29250 0.17937
 C1860 C 0.22564 0.30342 0.20005
 C1861 C 0.24096 0.32882 0.19038
 H1862 H 0.18966 0.32309 0.07556
 H1863 H 0.20874 0.35107 0.02930
 H1864 H 0.27207 0.39153 0.09458
 H1865 H 0.18233 0.29596 0.13187
 H1866 H 0.19147 0.27303 0.18604
 H1867 H 0.25851 0.33772 0.20487
 C1868 C 0.73686 0.84813 0.59883
 C1869 C 0.72760 0.82156 0.58738
 C1870 C 0.73234 0.81268 0.55521
 C1871 C 0.74636 0.83227 0.53389
 C1872 C 0.75495 0.86040 0.54475
 C1873 C 0.75028 0.86814 0.57798
 O1874 O 0.73329 0.85122 0.63090
 C1875 C 0.72152 0.82610 0.63993
 C1876 C 0.71712 0.80729 0.61425
 C1877 C 0.70718 0.77894 0.61885
 C1878 C 0.70367 0.76900 0.65130
 C1879 C 0.71099 0.78712 0.67836
 C1880 C 0.71817 0.81672 0.67216
 H1881 H 0.72595 0.79123 0.54694
 H1882 H 0.75045 0.82539 0.50894
 H1883 H 0.75647 0.88922 0.58748
 H1884 H 0.70406 0.76439 0.59829
 H1885 H 0.69827 0.74631 0.65507
 H1886 H 0.72512 0.83120 0.69150
 C1887 C 0.26331 0.65998 0.58375
 C1888 C 0.28218 0.64704 0.60544
 C1889 C 0.29141 0.61849 0.60217
 C1890 C 0.28145 0.60288 0.57495
 C1891 C 0.26291 0.61605 0.55129
 C1892 C 0.25337 0.64496 0.55617
 O1893 O 0.25550 0.68655 0.59285
 C1894 C 0.26978 0.69038 0.62080
 C1895 C 0.28665 0.66698 0.62939
 C1896 C 0.30215 0.66574 0.65856
 C1897 C 0.29894 0.68892 0.68059
 C1898 C 0.27997 0.71244 0.67350
 C1899 C 0.26639 0.71367 0.64225
 H1900 H 0.30551 0.60847 0.62014
 H1901 H 0.28824 0.58046 0.57244
 H1902 H 0.23915 0.65565 0.53884
 H1903 H 0.31519 0.64697 0.66484
 H1904 H 0.30967 0.68731 0.70403
 H1905 H 0.25137 0.73082 0.63579
 C1906 C 0.78227 0.16144 0.07873
 C1907 C 0.79978 0.14783 0.10132
 C1908 C 0.80729 0.11866 0.09885
 C1909 C 0.79632 0.10295 0.07207
 C1910 C 0.77823 0.11654 0.04826
 C1911 C 0.77146 0.14639 0.05171
 O1912 O 0.77535 0.18840 0.08714
 C1913 C 0.78864 0.19184 0.11571
 C1914 C 0.80407 0.16779 0.12544
 C1915 C 0.81756 0.16600 0.15587
 C1916 C 0.81384 0.18937 0.17765
 C1917 C 0.79641 0.21368 0.16904
 C1918 C 0.78490 0.21529 0.13679
 H1919 H 0.82038 0.10812 0.11742
 H1920 H 0.80126 0.07998 0.07060
 H1921 H 0.75784 0.15767 0.03434
 H1922 H 0.82939 0.14673 0.16319
 H1923 H 0.82327 0.18761 0.20174
 H1924 H 0.77112 0.23301 0.12896
 C1925 C 0.72851 0.15291 0.89084
 C1926 C 0.72392 0.17996 0.90413
 C1927 C 0.72451 0.18494 0.93782
 C1928 C 0.73048 0.16114 0.95850
 C1929 C 0.73571 0.13302 0.94529
 C1930 C 0.73374 0.12900 0.91083
 O1931 O 0.73021 0.15308 0.85837
 C1932 C 0.72680 0.18092 0.85088
 C1933 C 0.72251 0.19828 0.87790
 C1934 C 0.72069 0.22837 0.87566
 C1935 C 0.72475 0.24104 0.84462
 C1936 C 0.73126 0.22370 0.81653
 C1937 C 0.73088 0.19304 0.81988
 H1938 H 0.72157 0.20656 0.94777
 H1939 H 0.73196 0.16511 0.98453
 H1940 H 0.73699 0.10803 0.89941
 H1941 H 0.71757 0.24172 0.89724
 H1942 H 0.72464 0.26456 0.84308
 H1943 H 0.73557 0.17865 0.79988
 C1944 C 0.24193 0.67547 0.41047
 C1945 C 0.21310 0.68201 0.40560
 C1946 C 0.19095 0.66782 0.42267
 C1947 C 0.19895 0.64554 0.44470
 C1948 C 0.22851 0.63776 0.44858
 C1949 C 0.25021 0.65366 0.43199
 O1950 O 0.25969 0.68960 0.39058
 C1951 C 0.24183 0.70526 0.37243
 C1952 C 0.21306 0.70159 0.38034
 C1953 C 0.19093 0.71473 0.36236
 C1954 C 0.19891 0.73166 0.33486
 C1955 C 0.22851 0.73441 0.32547
 C1956 C 0.25012 0.72189 0.34573
 H1957 H 0.16837 0.67294 0.41831
 H1958 H 0.18215 0.63341 0.45723
 H1959 H 0.27295 0.64808 0.43434
 H1960 H 0.16835 0.71163 0.36885
 H1961 H 0.18203 0.74216 0.32082
 H1962 H 0.27303 0.72359 0.34021
 C1963 C 0.78656 0.84680 0.38490
 C1964 C 0.80457 0.82429 0.39395
 C1965 C 0.81649 0.82199 0.42520
 C1966 C 0.80943 0.84374 0.44801
 C1967 C 0.79070 0.86680 0.43911
 C1968 C 0.77924 0.86853 0.40717
 O1969 O 0.77583 0.84386 0.35496
 C1970 C 0.78717 0.81891 0.34491
 C1971 C 0.80487 0.80603 0.36779
 C1972 C 0.81656 0.77844 0.36353
 C1973 C 0.80940 0.76341 0.33470
 C1974 C 0.79138 0.77634 0.31043
 C1975 C 0.78026 0.80466 0.31592
 H1976 H 0.83014 0.80381 0.43198
 H1977 H 0.81788 0.84233 0.47275
 H1978 H 0.76436 0.88570 0.40030
 H1979 H 0.82955 0.76827 0.38242
 H1980 H 0.81674 0.74119 0.33235
 H1981 H 0.76511 0.81479 0.29921
 C1982 C 0.27500 0.33647 0.89834
 C1983 C 0.29372 0.31464 0.90768
 C1984 C 0.30599 0.31348 0.93888
 C1985 C 0.29896 0.33591 0.96099
 C1986 C 0.27963 0.35839 0.95167
 C1987 C 0.26738 0.35859 0.92004
 O1988 O 0.26540 0.33357 0.86793
 C1989 C 0.27821 0.30938 0.85780
 C1990 C 0.29570 0.29679 0.88106
 C1991 C 0.30967 0.27033 0.87582
 C1992 C 0.30492 0.25613 0.84567
 C1993 C 0.28710 0.26886 0.82109
 C1994 C 0.27374 0.29606 0.82770
 H1995 H 0.32062 0.29613 0.94582
 H1996 H 0.30857 0.33593 0.98522
 H1997 H 0.25277 0.37576 0.91241
 H1998 H 0.32278 0.26038 0.89476
 H1999 H 0.31407 0.23467 0.84225
 H2000 H 0.25873 0.30606 0.81073
 C2001 C 0.80374 0.41399 0.75973
 C2002 C 0.77824 0.41255 0.77727
 C2003 C 0.76646 0.43635 0.79362
 C2004 C 0.78213 0.46253 0.79266
 C2005 C 0.80861 0.46431 0.77511
 C2006 C 0.81924 0.43996 0.75778
 O2007 O 0.81223 0.38842 0.74807
 C2008 C 0.79164 0.37043 0.75853
 C2009 C 0.77036 0.38415 0.77639
 C2010 C 0.74736 0.36937 0.79070
 C2011 C 0.74587 0.33927 0.78587
 C2012 C 0.76735 0.32436 0.76710
 C2013 C 0.79081 0.34041 0.75372
 H2014 H 0.74664 0.43450 0.80778
 H2015 H 0.77437 0.48103 0.80657
 H2016 H 0.84002 0.44065 0.74531
 H2017 H 0.73109 0.38062 0.80506
 H2018 H 0.72773 0.32786 0.79681
 H2019 H 0.80771 0.33011 0.73952
 C2020 C 0.30721 0.92022 0.28845
 C2021 C 0.28205 0.92341 0.27076
 C2022 C 0.27430 0.94941 0.25562
 C2023 C 0.29324 0.97316 0.25893
 C2024 C 0.31912 0.97059 0.27745
 C2025 C 0.32612 0.94364 0.29243
 O2026 O 0.31153 0.89316 0.29887
 C2027 C 0.28856 0.87894 0.28751
 C2028 C 0.26984 0.89654 0.27033
 C2029 C 0.24516 0.88606 0.25498
 C2030 C 0.23998 0.85608 0.25645
 C2031 C 0.25966 0.83696 0.27269
 C2032 C 0.28374 0.84895 0.28952
 H2033 H 0.25465 0.95118 0.24124
 H2034 H 0.28776 0.99348 0.24705
 H2035 H 0.34620 0.94065 0.30576
 H2036 H 0.23082 0.90034 0.24147
 H2037 H 0.22116 0.84792 0.24358
 H2038 H 0.29915 0.83536 0.30227
 C2039 C 0.19930 0.90125 0.70019
 C2040 C 0.22701 0.90577 0.71177
 C2041 C 0.23603 0.93233 0.72468
 C2042 C 0.21533 0.95467 0.72695
 C2043 C 0.18628 0.94968 0.71716
 C2044 C 0.17843 0.92300 0.70256
 O2045 O 0.19404 0.87380 0.69230
 C2046 C 0.21867 0.86051 0.69971
 C2047 C 0.23950 0.87896 0.71192
 C2048 C 0.26527 0.86885 0.72546
 C2049 C 0.26909 0.83858 0.72761
 C2050 C 0.24715 0.81907 0.71662
 C2051 C 0.22267 0.83056 0.70025
 H2052 H 0.25769 0.93522 0.73438
 H2053 H 0.22124 0.97490 0.73883
 H2054 H 0.15609 0.91843 0.69609
 H2055 H 0.28118 0.88367 0.73558
 H2056 H 0.28861 0.83051 0.73920
 H2057 H 0.20623 0.81689 0.68954
 C2058 C 0.72805 0.41055 0.22587
 C2059 C 0.72346 0.40301 0.19360
 C2060 C 0.70430 0.41815 0.17340
 C2061 C 0.68880 0.44147 0.18727
 C2062 C 0.69220 0.44848 0.22086
 C2063 C 0.71263 0.43331 0.24014
 O2064 O 0.74468 0.39183 0.24189
 C2065 C 0.75036 0.37170 0.21953
 C2066 C 0.73781 0.37734 0.18961
 C2067 C 0.73749 0.35699 0.16438
 C2068 C 0.74921 0.32936 0.17088
 C2069 C 0.76100 0.32257 0.20227
 C2070 C 0.76333 0.34496 0.22587
 H2071 H 0.70049 0.41146 0.14831
 H2072 H 0.67283 0.45279 0.17256
 H2073 H 0.71498 0.43784 0.26609
 H2074 H 0.72679 0.36150 0.14130
 H2075 H 0.74716 0.31283 0.15215
 H2076 H 0.77256 0.34113 0.24969
 C2077 C 0.70570 0.58982 0.27809
 C2078 C 0.73311 0.58570 0.26554
 C2079 C 0.74203 0.55969 0.25134
 C2080 C 0.72178 0.53696 0.24995
 C2081 C 0.69347 0.54068 0.26281
 C2082 C 0.68540 0.56735 0.27744
 O2083 O 0.70071 0.61706 0.28731
 C2084 C 0.72548 0.63046 0.28028
 C2085 C 0.74600 0.61213 0.26713
 C2086 C 0.77251 0.62181 0.25535
 C2087 C 0.77763 0.65177 0.25572
 C2088 C 0.75612 0.67158 0.26726
 C2089 C 0.73034 0.66041 0.28149
 H2090 H 0.76350 0.55727 0.24088
 H2091 H 0.72804 0.51657 0.23869
 H2092 H 0.66359 0.57094 0.28651
 H2093 H 0.78819 0.60696 0.24486
 H2094 H 0.79794 0.65934 0.24543
 H2095 H 0.71352 0.67450 0.29077
 C2096 C 0.22235 0.07731 0.74910
 C2097 C 0.23030 0.08027 0.78150
 C2098 C 0.22101 0.06125 0.80579
 C2099 C 0.20204 0.03888 0.79655
 C2100 C 0.19177 0.03658 0.76369
 C2101 C 0.20306 0.05551 0.73945
 O2102 O 0.23132 0.09919 0.73047
 C2103 C 0.24451 0.11661 0.75167
 C2104 C 0.24439 0.10620 0.78325
 C2105 C 0.25332 0.12295 0.80984
 C2106 C 0.26070 0.15216 0.80374
 C2107 C 0.25845 0.16403 0.77157
 C2108 C 0.25353 0.14481 0.74506
 H2109 H 0.22736 0.06408 0.83115
 H2110 H 0.19466 0.02400 0.81540
 H2111 H 0.19539 0.05494 0.71440
 H2112 H 0.25266 0.11449 0.83463
 H2113 H 0.26586 0.16597 0.82444
 H2114 H 0.25503 0.15156 0.71990
 C2115 C 0.31307 0.11558 0.23081
 C2116 C 0.28429 0.11104 0.23841
 C2117 C 0.27401 0.08477 0.25093
 C2118 C 0.29426 0.06250 0.25643
 C2119 C 0.32411 0.06708 0.24997
 C2120 C 0.33360 0.09381 0.23649
 O2121 O 0.31885 0.14290 0.22241
 C2122 C 0.29332 0.15603 0.22527
 C2123 C 0.27152 0.13757 0.23526
 C2124 C 0.24429 0.14751 0.24465
 C2125 C 0.23983 0.17770 0.24534
 C2126 C 0.26243 0.19743 0.23658
 C2127 C 0.28874 0.18603 0.22393
 H2128 H 0.25143 0.08197 0.25762
 H2129 H 0.28702 0.04246 0.26780
 H2130 H 0.35646 0.09812 0.23258
 H2131 H 0.22766 0.13267 0.25324
 H2132 H 0.21921 0.18556 0.25445
 H2133 H 0.30651 0.19991 0.21677
 C2134 C 0.81695 0.61525 0.74197
 C2135 C 0.79138 0.60989 0.72577
 C2136 C 0.78140 0.58189 0.71923
 C2137 C 0.79813 0.55845 0.73066
 C2138 C 0.82418 0.56352 0.74825
 C2139 C 0.83409 0.59242 0.75289
 O2140 O 0.82126 0.64318 0.74855
 C2141 C 0.79776 0.65579 0.73644
 C2142 C 0.77889 0.63641 0.72211
 C2143 C 0.75197 0.64459 0.71022
 C2144 C 0.74399 0.67381 0.71368
 C2145 C 0.76279 0.69437 0.72909
 C2146 C 0.79035 0.68499 0.73999
 H2147 H 0.76085 0.57822 0.70709
 H2148 H 0.78993 0.53658 0.72734
 H2149 H 0.85390 0.59717 0.76609
 H2150 H 0.73724 0.62888 0.69956
 H2151 H 0.72264 0.67989 0.70513
 H2152 H 0.80533 0.69950 0.75194
 C2153 C 0.91263 0.75759 0.17906
 C2154 C 0.91813 0.74886 0.21071
 C2155 C 0.94517 0.73857 0.22062
 C2156 C 0.96748 0.73755 0.19702
 C2157 C 0.96241 0.74673 0.16428
 C2158 C 0.93445 0.75683 0.15532
 O2159 O 0.88512 0.76489 0.17407
 C2160 C 0.87289 0.76067 0.20321
 C2161 C 0.89215 0.75100 0.22652
 C2162 C 0.88353 0.74337 0.25804
 C2163 C 0.85379 0.74470 0.26546
 C2164 C 0.83315 0.75368 0.24159
 C2165 C 0.84328 0.76265 0.21023
 H2166 H 0.94890 0.73140 0.24556
 H2167 H 0.98875 0.72999 0.20436
 H2168 H 0.92955 0.76328 0.13038
 H2169 H 0.89897 0.73532 0.27585
 H2170 H 0.84696 0.73690 0.28919
 H2171 H 0.82846 0.76910 0.19098
 C2172 C 0.40752 0.25031 0.68368
 C2173 C 0.41373 0.24525 0.71615
 C2174 C 0.44135 0.23731 0.72679
 C2175 C 0.46356 0.23531 0.70309
 C2176 C 0.45785 0.24134 0.66960
 C2177 C 0.42919 0.24848 0.65987
 O2178 O 0.37974 0.25620 0.67829
 C2179 C 0.36806 0.25491 0.70804
 C2180 C 0.38791 0.24850 0.73213
 C2181 C 0.37997 0.24486 0.76479
 C2182 C 0.35029 0.24644 0.77262
 C2183 C 0.32906 0.25144 0.74795
 C2184 C 0.33852 0.25695 0.71535
 H2185 H 0.44570 0.23301 0.75243
 H2186 H 0.48528 0.23005 0.71102
 H2187 H 0.42392 0.25273 0.63443
 H2188 H 0.39589 0.23963 0.78337
 H2189 H 0.34395 0.24170 0.79751
 H2190 H 0.32329 0.26042 0.69554
 C2191 C 0.39307 0.74123 0.81691
 C2192 C 0.40132 0.74171 0.78440
 C2193 C 0.42952 0.74830 0.77462
 C2194 C 0.44995 0.75435 0.79927
 C2195 C 0.44198 0.75379 0.83288
 C2196 C 0.41304 0.74728 0.84179
 O2197 O 0.36491 0.73641 0.82097
 C2198 C 0.35516 0.73395 0.79045
 C2199 C 0.37646 0.73698 0.76709
 C2200 C 0.37036 0.73755 0.73361
 C2201 C 0.34107 0.73595 0.72395
 C2202 C 0.31851 0.73350 0.74766
 C2203 C 0.32615 0.73168 0.78142
 H2204 H 0.43544 0.74936 0.74892
 H2205 H 0.47168 0.76053 0.79213
 H2206 H 0.40626 0.74724 0.86725
 H2207 H 0.38742 0.74062 0.71562
 H2208 H 0.33596 0.73831 0.69817
 H2209 H 0.30993 0.73069 0.80062
 C2210 C 0.90794 0.24029 0.31370
 C2211 C 0.91722 0.23551 0.28211
 C2212 C 0.94673 0.23424 0.27423
 C2213 C 0.96715 0.23882 0.29969
 C2214 C 0.95781 0.24573 0.33211
 C2215 C 0.92756 0.24546 0.33888
 O2216 O 0.87937 0.24148 0.31669
 C2217 C 0.87012 0.23775 0.28627
 C2218 C 0.89216 0.23422 0.26385
 C2219 C 0.88663 0.23259 0.23020
 C2220 C 0.85749 0.23511 0.21956
 C2221 C 0.83440 0.23844 0.24249
 C2222 C 0.84133 0.23945 0.27641
 H2223 H 0.95381 0.23049 0.24925
 H2224 H 0.98999 0.23898 0.29343
 H2225 H 0.91908 0.24935 0.36327
 H2226 H 0.90418 0.23064 0.21266
 H2227 H 0.85313 0.23540 0.19348
 H2228 H 0.82499 0.24289 0.29509
 C2229 C 0.09742 0.27025 0.31179
 C2230 C 0.11439 0.28704 0.33189
 C2231 C 0.10562 0.29690 0.36230
 C2232 C 0.07757 0.29030 0.37231
 C2233 C 0.05774 0.27543 0.35139
 C2234 C 0.06825 0.26424 0.32084
 O2235 O 0.11204 0.26114 0.28519
 C2236 C 0.13853 0.27288 0.28893
 C2237 C 0.14035 0.28923 0.31698
 C2238 C 0.16521 0.30323 0.32706
 C2239 C 0.19000 0.29963 0.30821
 C2240 C 0.19030 0.28210 0.27928
 C2241 C 0.16366 0.26870 0.26928
 H2242 H 0.12017 0.30878 0.37826
 H2243 H 0.07158 0.29699 0.39684
 H2244 H 0.05426 0.25187 0.30473
 H2245 H 0.16583 0.31582 0.34949
 H2246 H 0.20943 0.30952 0.31792
 H2247 H 0.16293 0.25447 0.24815
 C2248 C 0.58938 0.77240 0.81215
 C2249 C 0.58440 0.75602 0.78445
 C2250 C 0.55761 0.74339 0.77808
 C2251 C 0.53525 0.74778 0.80110
 C2252 C 0.53972 0.76490 0.82978
 C2253 C 0.56742 0.77737 0.83510
 O2254 O 0.61663 0.78124 0.81470
 C2255 C 0.62907 0.77029 0.78808
 C2256 C 0.61048 0.75479 0.76850
 C2257 C 0.61974 0.74101 0.73979
 C2258 C 0.64940 0.74314 0.73125
 C2259 C 0.66907 0.75865 0.75155
 C2260 C 0.65827 0.77243 0.78032
 H2261 H 0.55415 0.73017 0.75647
 H2262 H 0.51463 0.73753 0.79633
 H2263 H 0.57225 0.78970 0.85702
 H2264 H 0.60477 0.72874 0.72475
 H2265 H 0.65705 0.73227 0.70934
 H2266 H 0.67218 0.78446 0.79683
 C2267 C 0.61173 0.24095 0.68042
 C2268 C 0.60709 0.23040 0.71159
 C2269 C 0.57956 0.22247 0.72268
 C2270 C 0.55601 0.22589 0.70092
 C2271 C 0.56024 0.23748 0.66892
 C2272 C 0.58877 0.24462 0.65860
 O2273 O 0.63921 0.24773 0.67454
 C2274 C 0.65230 0.24149 0.70262
 C2275 C 0.63379 0.23086 0.72623
 C2276 C 0.64327 0.22407 0.75780
 C2277 C 0.67283 0.22865 0.76525
 C2278 C 0.69240 0.23963 0.74118
 C2279 C 0.68156 0.24587 0.70932
 H2280 H 0.57625 0.21419 0.74728
 H2281 H 0.53454 0.22013 0.70936
 H2282 H 0.59317 0.25288 0.63422
 H2283 H 0.62834 0.21600 0.77623
 H2284 H 0.68005 0.22397 0.78983
 H2285 H 0.69533 0.25457 0.69011
 C2286 C 0.10222 0.75422 0.19578
 C2287 C 0.10677 0.72718 0.20928
 C2288 C 0.08929 0.70335 0.20161
 C2289 C 0.06651 0.70758 0.17900
 C2290 C 0.06168 0.73528 0.16447
 C2291 C 0.07967 0.75895 0.17372
 O2292 O 0.12213 0.77363 0.20427
 C2293 C 0.13982 0.75859 0.22347
 C2294 C 0.13146 0.73011 0.22759
 C2295 C 0.14798 0.71041 0.24555
 C2296 C 0.17459 0.72019 0.25853
 C2297 C 0.18465 0.74907 0.25291
 C2298 C 0.16599 0.76870 0.23618
 H2299 H 0.09349 0.68208 0.21200
 H2300 H 0.05337 0.68906 0.17209
 H2301 H 0.07665 0.78054 0.16369
 H2302 H 0.14107 0.68806 0.24870
 H2303 H 0.18748 0.70491 0.27219
 H2304 H 0.17221 0.79096 0.23110
   
