data_POSCAR
  _audit_creation_date              2014-09-24
  _audit_creation_method            'ToBaCCo'
  _symmetry_space_group_name_H-M    'P1'
  _symmetry_Int_Tables_number       1
  _symmetry_cell_setting            triclinic
  loop_
  _symmetry_equiv_pos_as_xyz
 x,y,z
_cell_length_a 75.4934
_cell_length_b 75.8575
_cell_length_c 76.1244
_cell_angle_alpha 91.041700
_cell_angle_beta 89.124500
_cell_angle_gamma 88.673600
loop_
  _atom_site_label
  _atom_site_type_symbol
  _atom_site_fract_x
  _atom_site_fract_y
  _atom_site_fract_z
C1 C 0.09696 0.01787 0.22543
 H2 H 0.09598 0.02804 0.23557
 C3 C 0.08752 0.01979 0.20986
 H4 H 0.07929 0.03148 0.20810
 C5 C 0.10959 -0.00930 0.21500
 H6 H 0.11851 -0.02042 0.21679
 C7 C 0.10048 -0.00789 0.19929
 H8 H 0.10219 -0.01822 0.18936
 N9 N 0.10770 0.00347 0.22772
 C10 C 0.11658 -0.00166 0.28378
 H11 H 0.13083 -0.00349 0.28314
 C12 C 0.10763 -0.00300 0.29981
 H13 H 0.11516 -0.00603 0.31141
 C14 C 0.08956 0.00364 0.26912
 H15 H 0.08258 0.00595 0.25707
 C16 C 0.08004 0.00255 0.28498
 H17 H 0.06578 0.00442 0.28501
 Zn18 Zn 0.12167 0.00202 0.24817
 N19 N 0.10753 0.00170 0.26888
 C20 C 0.13468 0.03393 0.26204
 N21 N 0.13641 0.02191 0.24861
 C22 C 0.14732 0.02475 0.23460
 C23 C 0.15681 0.04034 0.23360
 C24 C 0.14389 0.04965 0.26157
 C25 C 0.12508 -0.03414 0.24867
 C26 C 0.13317 -0.05080 0.24904
 C27 C 0.16166 -0.03702 0.24826
 C28 C 0.15290 -0.02055 0.24773
 N29 N 0.13493 -0.01947 0.24780
 H30 H 0.12573 0.03162 0.27291
 H31 H 0.14821 0.01513 0.22394
 H32 H 0.16499 0.04262 0.22210
 H33 H 0.14221 0.05909 0.27235
 H34 H 0.11078 -0.03285 0.24926
 H35 H 0.12446 -0.06178 0.25058
 H36 H 0.17595 -0.03708 0.24740
 H37 H 0.16050 -0.00865 0.24729
 C38 C 0.08911 -0.00076 0.30063
 C39 C 0.08941 0.00688 0.19646
 C40 C 0.15189 -0.05279 0.24876
 C41 C 0.15490 0.05318 0.24708
 C42 C 0.39395 0.00070 0.77208
 H43 H 0.39421 0.01158 0.76310
 C44 C 0.40231 0.00210 0.78832
 H45 H 0.40905 0.01410 0.79172
 C46 C 0.38379 -0.02768 0.77908
 H47 H 0.37618 -0.03910 0.77574
 C48 C 0.39194 -0.02685 0.79536
 H49 H 0.39085 -0.03787 0.80412
 N50 N 0.38479 -0.01399 0.76784
 C51 C 0.37612 -0.01690 0.71131
 H52 H 0.36220 -0.01994 0.71189
 C53 C 0.38471 -0.01564 0.69508
 H54 H 0.37735 -0.01802 0.68321
 C55 C 0.40252 -0.01017 0.72622
 H56 H 0.40933 -0.00793 0.73841
 C57 C 0.41168 -0.00876 0.71018
 H58 H 0.42551 -0.00529 0.71018
 Zn59 Zn 0.37094 -0.01433 0.74725
 N60 N 0.38497 -0.01384 0.72644
 C61 C 0.35698 0.01788 0.73514
 N62 N 0.35581 0.00599 0.74825
 C63 C 0.34547 0.00940 0.76278
 C64 C 0.33608 0.02548 0.76466
 C65 C 0.34786 0.03402 0.73648
 C66 C 0.36792 -0.05041 0.74306
 C67 C 0.35994 -0.06679 0.74287
 C68 C 0.33170 -0.05209 0.74883
 C69 C 0.34025 -0.03591 0.74891
 N70 N 0.35810 -0.03544 0.74634
 H71 H 0.36548 0.01520 0.72385
 H72 H 0.34504 -0.00011 0.77319
 H73 H 0.32839 0.02825 0.77655
 H74 H 0.34917 0.04335 0.72597
 H75 H 0.38206 -0.04960 0.74087
 H76 H 0.36804 -0.07855 0.74028
 H77 H 0.31755 -0.05231 0.75137
 H78 H 0.33268 -0.02382 0.75129
 C79 C 0.40265 -0.01122 0.69433
 C80 C 0.40107 -0.01169 0.80033
 C81 C 0.34163 -0.06782 0.74601
 C82 C 0.33755 0.03817 0.75154
 C83 C 0.89651 0.50862 0.27254
 H84 H 0.89657 0.51890 0.26288
 C85 C 0.90616 0.51058 0.28798
 H86 H 0.91331 0.52264 0.28987
 C87 C 0.88575 0.48129 0.28199
 H88 H 0.87762 0.46996 0.27980
 C89 C 0.89501 0.48275 0.29763
 H90 H 0.89430 0.47192 0.30664
 N91 N 0.88659 0.49412 0.26982
 C92 C 0.87663 0.48876 0.21366
 H93 H 0.86270 0.48581 0.21452
 C94 C 0.88501 0.48958 0.19726
 H95 H 0.87747 0.48695 0.18556
 C96 C 0.90328 0.49575 0.22798
 H97 H 0.91033 0.49822 0.23999
 C98 C 0.91221 0.49676 0.21180
 H99 H 0.92604 0.50024 0.21154
 Zn100 Zn 0.87210 0.49267 0.24971
 N101 N 0.88570 0.49224 0.22857
 C102 C 0.85759 0.52424 0.23647
 N103 N 0.85690 0.51297 0.25015
 C104 C 0.84690 0.51695 0.26478
 C105 C 0.83738 0.53300 0.26617
 C106 C 0.84830 0.54032 0.23729
 C107 C 0.86904 0.45635 0.24772
 C108 C 0.86094 0.44002 0.24807
 C109 C 0.83272 0.45512 0.25297
 C110 C 0.84139 0.47122 0.25252
 N111 N 0.85928 0.47150 0.25014
 H112 H 0.86582 0.52112 0.22508
 H113 H 0.84683 0.50793 0.27562
 H114 H 0.82998 0.53623 0.27814
 H115 H 0.84919 0.54912 0.22629
 H116 H 0.88321 0.45699 0.24563
 H117 H 0.86899 0.42814 0.24603
 H118 H 0.81852 0.45509 0.25523
 H119 H 0.83386 0.48343 0.25421
 C120 C 0.90295 0.49398 0.19614
 C121 C 0.90532 0.49768 0.30111
 C122 C 0.84255 0.43922 0.25086
 C123 C 0.83832 0.54507 0.25242
 C124 C 0.59588 0.51589 0.72447
 H125 H 0.59525 0.52639 0.73428
 C126 C 0.58599 0.51731 0.70913
 H127 H 0.57778 0.52898 0.70719
 C128 C 0.60807 0.48832 0.71464
 H129 H 0.61697 0.47721 0.71655
 C130 C 0.59847 0.48920 0.69920
 H131 H 0.59982 0.47850 0.68962
 N132 N 0.60666 0.50154 0.72692
 C133 C 0.61713 0.49713 0.78275
 H134 H 0.63139 0.49546 0.78186
 C135 C 0.60848 0.49591 0.79896
 H136 H 0.61624 0.49314 0.81047
 C137 C 0.58979 0.50197 0.76852
 H138 H 0.58257 0.50410 0.75657
 C139 C 0.58057 0.50097 0.78454
 H140 H 0.56630 0.50271 0.78481
 Zn141 Zn 0.62132 0.50067 0.74691
 N142 N 0.60777 0.50023 0.76798
 C143 C 0.63421 0.53282 0.76031
 N144 N 0.63556 0.52094 0.74673
 C145 C 0.64573 0.52412 0.73228
 C146 C 0.65490 0.53988 0.73101
 C147 C 0.64311 0.54871 0.75959
 C148 C 0.62573 0.46456 0.74820
 C149 C 0.63428 0.44810 0.74765
 C150 C 0.66218 0.46258 0.74357
 C151 C 0.65303 0.47887 0.74414
 N152 N 0.63509 0.47949 0.74617
 H153 H 0.62582 0.53026 0.77155
 H154 H 0.64631 0.51461 0.72151
 H155 H 0.66252 0.54240 0.71920
 H156 H 0.64177 0.55800 0.77052
 H157 H 0.61150 0.46548 0.75008
 H158 H 0.62654 0.43638 0.74928
 H159 H 0.67642 0.46221 0.74161
 H160 H 0.66024 0.49093 0.74285
 C161 C 0.58996 0.49796 0.80006
 C162 C 0.58744 0.50393 0.69615
 C163 C 0.65272 0.44692 0.74513
 C164 C 0.65341 0.55255 0.74469
 C165 C 0.27707 0.10536 0.98536
 H166 H 0.26755 0.10417 0.97494
 C167 C 0.29391 0.09741 0.98340
 H168 H 0.29726 0.09005 0.97145
 C169 C 0.28472 0.11749 1.01305
 H170 H 0.28144 0.12585 1.02430
 C171 C 0.30161 0.10977 1.01167
 H172 H 0.31086 0.11184 1.02220
 N173 N 0.27288 0.11530 0.99995
 C174 C 0.21587 0.12489 0.99958
 H175 H 0.21638 0.13907 1.00110
 C176 C 0.19962 0.11681 0.99814
 H177 H 0.18758 0.12486 0.99874
 C178 C 0.23113 0.09724 0.99725
 H179 H 0.24350 0.08976 0.99695
 C180 C 0.21502 0.08853 0.99590
 H181 H 0.21504 0.07431 0.99441
 Zn182 Zn 0.25156 0.12886 1.00069
 N183 N 0.23118 0.11512 0.99888
 C184 C 0.26376 0.15770 0.98061
 N185 N 0.25234 0.14411 0.98131
 C186 C 0.24262 0.13950 0.96714
 C187 C 0.24404 0.14870 0.95156
 C188 C 0.26529 0.16759 0.96533
 C189 C 0.24802 0.12983 1.03648
 C190 C 0.24689 0.13656 1.05358
 C191 C 0.24741 0.16594 1.04195
 C192 C 0.24867 0.15853 1.02499
 N193 N 0.24934 0.14075 1.02265
 H194 H 0.27191 0.16068 0.99179
 H195 H 0.23430 0.12812 0.96759
 H196 H 0.23671 0.14411 0.94033
 H197 H 0.27424 0.17852 0.96517
 H198 H 0.24802 0.11571 1.03416
 H199 H 0.24523 0.12709 1.06387
 H200 H 0.24795 0.18013 1.04301
 H201 H 0.24928 0.16702 1.01378
 C202 C 0.19903 0.09843 0.99615
 C203 C 0.30653 0.09991 0.99654
 C204 C 0.24682 0.15499 1.05689
 C205 C 0.25545 0.16303 0.95042
 C206 C 0.73814 0.40694 0.98816
 H207 H 0.74891 0.40832 0.97878
 C208 C 0.72244 0.41690 0.98639
 H209 H 0.72122 0.42598 0.97564
 C210 C 0.72618 0.39261 1.01290
 H211 H 0.72736 0.38277 1.02290
 C212 C 0.71032 0.40223 1.01162
 H213 H 0.69971 0.39999 1.02098
 N214 N 0.73968 0.39502 1.00123
 C215 C 0.79580 0.38113 1.00549
 H216 H 0.79424 0.36700 1.00586
 C217 C 0.81266 0.38811 1.00596
 H218 H 0.82405 0.37926 1.00694
 C219 C 0.78267 0.40973 1.00374
 H220 H 0.77091 0.41803 1.00277
 C221 C 0.79940 0.41733 1.00420
 H222 H 0.80042 0.43150 1.00341
 Zn223 Zn 0.75988 0.37971 1.00178
 N224 N 0.78127 0.39189 1.00405
 C225 C 0.77367 0.37075 0.96834
 N226 N 0.76085 0.36675 0.98025
 C227 C 0.74833 0.35474 0.97635
 C228 C 0.74891 0.34566 0.96019
 C229 C 0.77451 0.36230 0.95194
 C230 C 0.75835 0.37336 1.03738
 C231 C 0.75683 0.36397 1.05286
 C232 C 0.75629 0.33705 1.03552
 C233 C 0.75774 0.34707 1.02034
 N234 N 0.75835 0.36492 1.02153
 H235 H 0.78304 0.38088 0.97131
 H236 H 0.73792 0.35218 0.98582
 H237 H 0.73912 0.33577 0.95761
 H238 H 0.78456 0.36618 0.94259
 H239 H 0.75946 0.38756 1.03796
 H240 H 0.75762 0.37151 1.06498
 H241 H 0.75487 0.32302 1.03361
 H242 H 0.75825 0.34051 1.00763
 C243 C 0.81467 0.40640 1.00498
 C244 C 0.70816 0.41434 0.99805
 C245 C 0.75544 0.34536 1.05239
 C246 C 0.76215 0.34941 0.94766
 C247 C 0.23599 0.90619 0.49312
 H248 H 0.24653 0.90726 0.48344
 C249 C 0.22007 0.91570 0.49116
 H250 H 0.21846 0.92412 0.47993
 C251 C 0.22488 0.89306 0.51893
 H252 H 0.22658 0.88392 0.52951
 C253 C 0.20879 0.90226 0.51745
 H254 H 0.19843 0.90037 0.52719
 N255 N 0.23807 0.89508 0.50681
 C256 C 0.29447 0.88439 0.51397
 H257 H 0.29401 0.87019 0.51494
 C258 C 0.31056 0.89284 0.51572
 H259 H 0.32239 0.88503 0.51828
 C260 C 0.27943 0.91170 0.50971
 H261 H 0.26725 0.91897 0.50736
 C262 C 0.29530 0.92072 0.51127
 H263 H 0.29520 0.93489 0.50984
 Zn264 Zn 0.25876 0.88048 0.50752
 N265 N 0.27939 0.89381 0.51072
 C266 C 0.27508 0.86963 0.47529
 N267 N 0.26046 0.86801 0.48575
 C268 C 0.24621 0.85893 0.48016
 C269 C 0.24625 0.85118 0.46335
 C270 C 0.27569 0.86208 0.45844
 C271 C 0.25801 0.87249 0.54295
 C272 C 0.25671 0.86221 0.55789
 C273 C 0.25412 0.83641 0.53910
 C274 C 0.25550 0.84723 0.52446
 N275 N 0.25715 0.86495 0.52666
 H276 H 0.28615 0.87715 0.47977
 H277 H 0.23460 0.85815 0.48860
 H278 H 0.23458 0.84446 0.45895
 H279 H 0.28745 0.86356 0.45033
 H280 H 0.25961 0.88658 0.54430
 H281 H 0.25750 0.86851 0.57072
 H282 H 0.25241 0.82239 0.53714
 H283 H 0.25510 0.84147 0.51139
 C284 C 0.31120 0.91123 0.51406
 C285 C 0.20611 0.91356 0.50328
 C286 C 0.25454 0.84393 0.55611
 C287 C 0.26106 0.85292 0.45215
 C288 C 0.77272 0.60571 0.48670
 H289 H 0.76567 0.60599 0.47452
 C290 C 0.78923 0.59708 0.48719
 H291 H 0.79473 0.59106 0.47525
 C292 C 0.77454 0.61367 0.51683
 H293 H 0.76880 0.62006 0.52842
 C294 C 0.79106 0.60516 0.51791
 H295 H 0.79780 0.60509 0.53036
 N296 N 0.76594 0.61427 0.50126
 C297 C 0.70981 0.62429 0.49251
 H298 H 0.71006 0.63851 0.49181
 C299 C 0.69395 0.61560 0.49021
 H300 H 0.68198 0.62328 0.48791
 C301 C 0.72517 0.59717 0.49707
 H302 H 0.73741 0.59015 0.49986
 C303 C 0.70952 0.58790 0.49487
 H304 H 0.70984 0.57367 0.49580
 Zn305 Zn 0.74509 0.62871 0.49973
 N306 N 0.72493 0.61505 0.49602
 C307 C 0.74948 0.66141 0.48140
 N308 N 0.74715 0.64369 0.48013
 C309 C 0.74563 0.63549 0.46422
 C310 C 0.74726 0.64488 0.44879
 C311 C 0.75107 0.67141 0.46619
 C312 C 0.72815 0.63737 0.53198
 C313 C 0.72664 0.64467 0.54888
 C314 C 0.75317 0.66101 0.54327
 C315 C 0.75430 0.65322 0.52650
 N316 N 0.74192 0.64157 0.52121
 H317 H 0.75004 0.66787 0.49411
 H318 H 0.74294 0.62157 0.46349
 H319 H 0.74651 0.63785 0.43633
 H320 H 0.75286 0.68550 0.46742
 H321 H 0.71867 0.62779 0.52778
 H322 H 0.71578 0.64093 0.55738
 H323 H 0.76336 0.66989 0.54748
 H324 H 0.76550 0.65586 0.51800
 C325 C 0.69362 0.59717 0.49149
 C326 C 0.79881 0.59710 0.50285
 C327 C 0.73937 0.65646 0.55476
 C328 C 0.75004 0.66310 0.44959
 C329 C 0.00595 0.22916 0.09939
 H330 H 0.01678 0.23811 0.10086
 C331 C 0.00824 0.21397 0.08889
 H332 H 0.02094 0.21124 0.08247
 C333 C -0.02357 0.22158 0.10637
 H334 H -0.03601 0.22465 0.11304
 C335 C -0.02179 0.20615 0.09615
 H336 H -0.03288 0.19740 0.09514
 N337 N -0.00964 0.23250 0.10817
 C338 C -0.00584 0.28839 0.12018
 H339 H -0.00478 0.28805 0.13433
 C340 C -0.00430 0.30433 0.11154
 H341 H -0.00266 0.31606 0.11956
 C342 C -0.01046 0.27322 0.09328
 H343 H -0.01278 0.26100 0.08625
 C344 C -0.00901 0.28888 0.08404
 H345 H -0.00971 0.28807 0.06988
 Zn346 Zn -0.01082 0.25227 0.12383
 N347 N -0.00894 0.27328 0.11102
 C348 C 0.02424 0.25766 0.13263
 N349 N 0.00893 0.25085 0.13887
 C350 C 0.00818 0.24324 0.15491
 C351 C 0.02333 0.24208 0.16523
 C352 C 0.03958 0.25695 0.14254
 C353 C -0.04276 0.26800 0.13692
 C354 C -0.05874 0.26909 0.14634
 C355 C -0.05390 0.23903 0.15536
 C356 C -0.03777 0.23863 0.14605
 N357 N -0.03252 0.25298 0.13701
 H358 H 0.02458 0.26367 0.11987
 H359 H -0.00406 0.23789 0.15969
 H360 H 0.02257 0.23564 0.17779
 H361 H 0.05148 0.26276 0.13736
 H362 H -0.03867 0.27919 0.12947
 H363 H -0.06674 0.28112 0.14607
 H364 H -0.05801 0.22748 0.16236
 H365 H -0.02959 0.22673 0.14577
 C366 C -0.00589 0.30494 0.09309
 C367 C -0.00561 0.20205 0.08750
 C368 C -0.06449 0.25446 0.15561
 C369 C 0.03935 0.24890 0.15901
 C370 C 0.02191 0.76759 0.40655
 H371 H 0.03259 0.75784 0.40660
 C372 C 0.02287 0.78280 0.41718
 H373 H 0.03424 0.78455 0.42548
 C374 C -0.00505 0.77799 0.39452
 H375 H -0.01564 0.77647 0.38528
 C376 C -0.00461 0.79330 0.40486
 H377 H -0.01512 0.80316 0.40374
 N378 N 0.00825 0.76562 0.39524
 C379 C 0.00917 0.71039 0.37702
 H380 H 0.00664 0.71244 0.36330
 C381 C 0.00950 0.69326 0.38334
 H382 H 0.00760 0.68231 0.37430
 C383 C 0.01295 0.72218 0.40569
 H384 H 0.01380 0.73347 0.41444
 C385 C 0.01317 0.70521 0.41263
 H386 H 0.01458 0.70361 0.42665
 Zn387 Zn 0.00866 0.74708 0.37789
 N388 N 0.01108 0.72446 0.38811
 C389 C 0.03137 0.73949 0.34797
 N390 N 0.02775 0.75092 0.36164
 C391 C 0.03809 0.76514 0.36449
 C392 C 0.05326 0.76761 0.35423
 C393 C 0.04639 0.74155 0.33727
 C394 C -0.02747 0.74328 0.37691
 C395 C -0.04450 0.74321 0.37018
 C396 C -0.03226 0.75064 0.34185
 C397 C -0.01541 0.75076 0.34928
 N398 N -0.01340 0.74720 0.36655
 H399 H 0.02281 0.72859 0.34543
 H400 H 0.03483 0.77452 0.37490
 H401 H 0.06152 0.77878 0.35702
 H402 H 0.04941 0.73197 0.32687
 H403 H -0.02539 0.74019 0.39056
 H404 H -0.05495 0.73925 0.37901
 H405 H -0.03315 0.75440 0.32827
 H406 H -0.00400 0.75397 0.34130
 C407 C 0.01143 0.69050 0.40137
 C408 C 0.00972 0.79611 0.41601
 C409 C -0.04745 0.74701 0.35229
 C410 C 0.05779 0.75551 0.34068
 C411 C 0.52214 0.27027 0.90533
 H412 H 0.53306 0.26079 0.90439
 C413 C 0.52347 0.28523 0.91623
 H414 H 0.53536 0.28708 0.92376
 C415 C 0.49412 0.28028 0.89544
 H416 H 0.48294 0.27872 0.88692
 C417 C 0.49491 0.29537 0.90607
 H418 H 0.48414 0.30504 0.90587
 N419 N 0.50778 0.26827 0.89491
 C420 C 0.50821 0.21362 0.87524
 H421 H 0.50459 0.21599 0.86182
 C422 C 0.50938 0.19633 0.88106
 H423 H 0.50704 0.18555 0.87193
 C424 C 0.51391 0.22476 0.90381
 H425 H 0.51526 0.23585 0.91273
 C426 C 0.51496 0.20763 0.91027
 H427 H 0.51741 0.20567 0.92408
 Zn428 Zn 0.50768 0.25031 0.87707
 N429 N 0.51073 0.22744 0.88649
 C430 C 0.52967 0.24327 0.84672
 N431 N 0.52609 0.25476 0.86034
 C432 C 0.53595 0.26940 0.86268
 C433 C 0.55068 0.27226 0.85193
 C434 C 0.54426 0.24568 0.83558
 C435 C 0.47143 0.24588 0.87647
 C436 C 0.45440 0.24584 0.86971
 C437 C 0.46640 0.25538 0.84192
 C438 C 0.48325 0.25536 0.84928
 N439 N 0.48539 0.25069 0.86629
 H440 H 0.52146 0.23202 0.84460
 H441 H 0.53263 0.27882 0.87305
 H442 H 0.55861 0.28375 0.85431
 H443 H 0.54733 0.23599 0.82529
 H444 H 0.47360 0.24213 0.88993
 H445 H 0.44346 0.24186 0.87798
 H446 H 0.46481 0.25928 0.82841
 H447 H 0.49456 0.25918 0.84147
 C448 C 0.51272 0.19318 0.89879
 C449 C 0.50995 0.29825 0.91623
 C450 C 0.45172 0.25064 0.85223
 C451 C 0.55525 0.26007 0.83846
 C452 C 0.50317 0.72386 0.60148
 H453 H 0.51425 0.73244 0.60342
 C454 C 0.50534 0.70853 0.59115
 H455 H 0.51819 0.70531 0.58528
 C456 C 0.47310 0.71739 0.60729
 H457 H 0.46053 0.72096 0.61348
 C458 C 0.47473 0.70186 0.59719
 H459 H 0.46335 0.69356 0.59573
 N460 N 0.48731 0.72786 0.60949
 C461 C 0.48921 0.78441 0.61972
 H462 H 0.48902 0.78472 0.63394
 C463 C 0.49090 0.80002 0.61057
 H464 H 0.49170 0.81235 0.61788
 C465 C 0.48807 0.76788 0.59306
 H466 H 0.48698 0.75529 0.58632
 C467 C 0.48983 0.78322 0.58335
 H468 H 0.49027 0.78227 0.56914
 Zn469 Zn 0.48617 0.74806 0.62450
 N470 N 0.48785 0.76874 0.61093
 C471 C 0.51994 0.75746 0.63571
 N472 N 0.50612 0.74690 0.63951
 C473 C 0.50714 0.73518 0.65282
 C474 C 0.52241 0.73395 0.66299
 C475 C 0.53532 0.75673 0.64554
 C476 C 0.45382 0.76377 0.63707
 C477 C 0.43786 0.76493 0.64650
 C478 C 0.44321 0.73532 0.65655
 C479 C 0.45934 0.73487 0.64723
 N480 N 0.46439 0.74900 0.63772
 H481 H 0.51933 0.76622 0.62472
 H482 H 0.49629 0.72655 0.65541
 H483 H 0.52311 0.72435 0.67333
 H484 H 0.54600 0.76545 0.64231
 H485 H 0.45755 0.77470 0.62908
 H486 H 0.42963 0.77678 0.64579
 H487 H 0.43926 0.72393 0.66391
 H488 H 0.46756 0.72302 0.64719
 C489 C 0.49134 0.79957 0.59212
 C490 C 0.49108 0.69716 0.58915
 C491 C 0.43238 0.75057 0.65634
 C492 C 0.53681 0.74475 0.65929
 C493 C 0.90417 0.99746 0.72834
 H494 H 0.91132 1.00201 0.73970
 C495 C 0.91230 0.99631 0.71254
 H496 H 0.92616 0.99950 0.71168
 C497 C 0.87715 0.98680 0.71690
 H498 H 0.86335 0.98361 0.71860
 C499 C 0.88552 0.98515 0.69937
 H500 H 0.87710 0.98119 0.68872
 N501 N 0.88594 0.99273 0.73022
 C502 C 0.88422 1.01520 0.78179
 H503 H 0.87522 1.02543 0.77746
 C504 C 0.89262 1.01740 0.79699
 H505 H 0.89032 1.02962 0.80429
 C506 C 0.89954 0.98806 0.77530
 H507 H 0.90219 0.97662 0.76700
 C508 C 0.90919 0.98992 0.79196
 H509 H 0.91796 0.97910 0.79538
 Zn510 Zn 0.87258 0.99558 0.75133
 N511 N 0.88737 0.99959 0.77110
 C512 C 0.86986 0.95913 0.75359
 N513 N 0.85996 0.97434 0.75410
 C514 C 0.84194 0.97399 0.75494
 C515 C 0.83328 0.95788 0.75542
 C516 C 0.86179 0.94282 0.75411
 C517 C 0.85968 1.02609 0.73501
 C518 C 0.85008 1.04189 0.73360
 C519 C 0.83438 1.03528 0.76048
 C520 C 0.84442 1.01961 0.76146
 N521 N 0.85693 1.01539 0.74890
 H522 H 0.88407 0.95957 0.75207
 H523 H 0.83419 0.98610 0.75467
 H524 H 0.81894 0.95785 0.75561
 H525 H 0.87002 0.93094 0.75371
 H526 H 0.86983 1.02276 0.72528
 H527 H 0.85274 1.05039 0.72264
 H528 H 0.82489 1.03875 0.77085
 H529 H 0.84273 1.01114 0.77262
 C530 C 0.90556 1.00372 0.80306
 C531 C 0.90249 0.98994 0.69678
 C532 C 0.83747 1.04679 0.74659
 C533 C 0.84325 0.94201 0.75482
 C534 C 0.40380 0.49772 0.22881
 H535 H 0.41067 0.50087 0.24078
 C536 C 0.41317 0.49628 0.21279
 H537 H 0.42734 0.49817 0.21255
 C538 C 0.37695 0.49139 0.21449
 H539 H 0.36277 0.48969 0.21528
 C540 C 0.38573 0.48979 0.19832
 H541 H 0.37814 0.48702 0.18667
 N542 N 0.38599 0.49540 0.22927
 C543 C 0.38453 0.51509 0.28014
 H544 H 0.37692 0.52623 0.27546
 C545 C 0.39275 0.51640 0.29641
 H546 H 0.39141 0.52860 0.30397
 C547 C 0.39575 0.48591 0.27594
 H548 H 0.39686 0.47398 0.26806
 C549 C 0.40415 0.48663 0.29216
 H550 H 0.41139 0.47509 0.29659
 Zn551 Zn 0.37178 0.49767 0.24986
 N552 N 0.38574 0.49984 0.27045
 C553 C 0.36805 0.46154 0.24805
 N554 N 0.35846 0.47674 0.25087
 C555 C 0.34053 0.47653 0.25309
 C556 C 0.33169 0.46049 0.25291
 C557 C 0.35981 0.44531 0.24779
 C558 C 0.36067 0.52947 0.23466
 C559 C 0.35173 0.54569 0.23369
 C560 C 0.33503 0.53858 0.25983
 C561 C 0.34445 0.52250 0.26041
 N562 N 0.35706 0.51827 0.24794
 H563 H 0.38214 0.46201 0.24549
 H564 H 0.33299 0.48871 0.25473
 H565 H 0.31741 0.46055 0.25446
 H566 H 0.36784 0.43342 0.24572
 H567 H 0.37098 0.52619 0.22509
 H568 H 0.35502 0.55454 0.22318
 H569 H 0.32538 0.54197 0.27007
 H570 H 0.34219 0.51369 0.27119
 C571 C 0.40239 0.50190 0.30282
 C572 C 0.40407 0.49229 0.19727
 C573 C 0.33890 0.55050 0.24649
 C574 C 0.34139 0.44460 0.25016
 C575 C 0.60741 0.98377 0.27755
 H576 H 0.61584 0.97251 0.27411
 C577 C 0.59919 0.98444 0.29322
 H578 H 0.60102 0.97341 0.30187
 C579 C 0.59339 1.01046 0.26855
 H580 H 0.59120 1.02063 0.25908
 C581 C 0.58384 1.01168 0.28562
 H582 H 0.57556 1.02330 0.28812
 N583 N 0.60482 0.99768 0.26521
 C584 C 0.61333 0.99998 0.20855
 H585 H 0.62753 1.00160 0.20833
 C586 C 0.60404 0.99983 0.19288
 H587 H 0.61129 1.00116 0.18061
 C588 C 0.58689 0.99556 0.22492
 H589 H 0.58034 0.99372 0.23745
 C590 C 0.57703 0.99541 0.20950
 H591 H 0.56284 0.99377 0.21035
 Zn592 Zn 0.61905 0.99762 0.24428
 N593 N 0.60472 0.99779 0.22413
 C594 C 0.63003 0.96409 0.23126
 N595 N 0.63368 0.97677 0.24347
 C596 C 0.64634 0.97398 0.25574
 C597 C 0.65574 0.95788 0.25612
 C598 C 0.63895 0.94779 0.23129
 C599 C 0.62344 1.03386 0.24209
 C600 C 0.63199 1.04994 0.24246
 C601 C 0.65980 1.03415 0.24565
 C602 C 0.65062 1.01832 0.24527
 N603 N 0.63268 1.01846 0.24394
 H604 H 0.61971 0.96631 0.22182
 H605 H 0.64866 0.98400 0.26567
 H606 H 0.66542 0.95568 0.26624
 H607 H 0.63563 0.93777 0.22164
 H608 H 0.60930 1.03372 0.24030
 H609 H 0.62372 1.06172 0.24195
 H610 H 0.67409 1.03331 0.24630
 H611 H 0.65795 1.00598 0.24594
 C612 C 0.58561 0.99756 0.19318
 C613 C 0.58698 0.99956 0.29807
 C614 C 0.65055 1.05050 0.24441
 C615 C 0.65182 0.94445 0.24396
 C616 C 0.11284 0.48564 0.78167
 H617 H 0.12503 0.47791 0.78071
 C618 C 0.10410 0.48750 0.79787
 H619 H 0.10947 0.48074 0.80908
 C620 C 0.09127 0.50392 0.76830
 H621 H 0.08640 0.51046 0.75682
 C622 C 0.08211 0.50621 0.78433
 H623 H 0.07032 0.51461 0.78499
 N624 N 0.10638 0.49378 0.76726
 C625 C 0.10518 0.47610 0.71584
 H626 H 0.11275 0.46449 0.71930
 C627 C 0.09516 0.47570 0.70059
 H628 H 0.09508 0.46376 0.69258
 C629 C 0.09660 0.50593 0.72142
 H630 H 0.09752 0.51782 0.72937
 C631 C 0.08668 0.50621 0.70606
 H632 H 0.07973 0.51823 0.70245
 Zn633 Zn 0.12026 0.49139 0.74626
 N634 N 0.10569 0.49103 0.72599
 C635 C 0.12435 0.45508 0.75058
 N636 N 0.13351 0.46992 0.74733
 C637 C 0.15146 0.46939 0.74535
 C638 C 0.16088 0.45337 0.74658
 C639 C 0.13320 0.43884 0.75183
 C640 C 0.13732 0.52038 0.73063
 C641 C 0.14681 0.53596 0.73091
 C642 C 0.15369 0.53086 0.76131
 C643 C 0.14397 0.51543 0.76049
 N644 N 0.13566 0.51073 0.74544
 H645 H 0.11009 0.45591 0.75218
 H646 H 0.15846 0.48139 0.74289
 H647 H 0.17518 0.45322 0.74522
 H648 H 0.12557 0.42717 0.75411
 H649 H 0.13098 0.51622 0.71868
 H650 H 0.14767 0.54369 0.71912
 H651 H 0.15959 0.53477 0.77361
 H652 H 0.14253 0.50750 0.77206
 C653 C 0.08589 0.49093 0.69549
 C654 C 0.08862 0.49806 0.79943
 C655 C 0.15481 0.54157 0.74651
 C656 C 0.15173 0.43781 0.74990
 C657 C 0.77895 0.90469 0.00176
 H658 H 0.76695 0.91247 0.00032
 C659 C 0.79526 0.91307 0.00181
 H660 H 0.79555 0.92724 0.00037
 C661 C 0.79319 0.87708 0.00645
 H662 H 0.79229 0.86315 0.00889
 C663 C 0.80972 0.88488 0.00654
 H664 H 0.82143 0.87666 0.00837
 N665 N 0.77823 0.88692 0.00376
 C666 C 0.72450 0.88894 0.01835
 H667 H 0.72647 0.87922 0.02836
 C668 C 0.70898 0.89923 0.01870
 H669 H 0.69933 0.89754 0.02918
 C670 C 0.73410 0.90241 -0.00786
 H671 H 0.74369 0.90313 -0.01851
 C672 C 0.71876 0.91309 -0.00794
 H673 H 0.71666 0.92209 -0.01863
 Zn674 Zn 0.75657 0.87466 0.00417
 N675 N 0.73668 0.89058 0.00516
 C676 C 0.75918 0.86981 0.04003
 N677 N 0.75651 0.86102 0.02463
 C678 C 0.75368 0.84338 0.02415
 C679 C 0.75321 0.83392 0.03974
 C680 C 0.75862 0.86095 0.05588
 C681 C 0.74002 0.86100 -0.02597
 C682 C 0.73872 0.85124 -0.04159
 C683 C 0.76781 0.83862 -0.03659
 C684 C 0.76856 0.84865 -0.02105
 N685 N 0.75495 0.85988 -0.01621
 H686 H 0.76136 0.88386 0.03997
 H687 H 0.75164 0.83668 0.01172
 H688 H 0.75107 0.81986 0.03912
 H689 H 0.76016 0.86840 0.06800
 H690 H 0.72907 0.86952 -0.02174
 H691 H 0.72676 0.85244 -0.04920
 H692 H 0.77902 0.83021 -0.04048
 H693 H 0.78016 0.84758 -0.01303
 C694 C 0.70586 0.91133 0.00533
 C695 C 0.81093 0.90312 0.00417
 C696 C 0.75286 0.84010 -0.04724
 C697 C 0.75558 0.84274 0.05592
 C698 C 0.27437 0.40359 0.50315
 H699 H 0.26264 0.41167 0.50124
 C700 C 0.29096 0.41145 0.50313
 H701 H 0.29175 0.42551 0.50122
 C702 C 0.28766 0.37573 0.50875
 H703 H 0.28629 0.36189 0.51143
 C704 C 0.30444 0.38299 0.50881
 H705 H 0.31587 0.37445 0.51093
 N706 N 0.27306 0.38594 0.50559
 C707 C 0.21926 0.38858 0.51978
 H708 H 0.22116 0.37870 0.52964
 C709 C 0.20378 0.39896 0.52025
 H710 H 0.19410 0.39714 0.53067
 C711 C 0.22902 0.40246 0.49385
 H712 H 0.23863 0.40330 0.48323
 C713 C 0.21371 0.41322 0.49388
 H714 H 0.21169 0.42239 0.48333
 Zn715 Zn 0.25113 0.37416 0.50540
 N716 N 0.23146 0.39034 0.50663
 C717 C 0.25369 0.36765 0.54104
 N718 N 0.25060 0.35970 0.52528
 C719 C 0.24738 0.34217 0.52397
 C720 C 0.24717 0.33188 0.53901
 C721 C 0.25346 0.35792 0.55638
 C722 C 0.23532 0.36172 0.47421
 C723 C 0.23443 0.35220 0.45842
 C724 C 0.26289 0.33869 0.46451
 C725 C 0.26326 0.34852 0.48018
 N726 N 0.24975 0.36002 0.48460
 H727 H 0.25616 0.38163 0.54165
 H728 H 0.24496 0.33615 0.51128
 H729 H 0.24484 0.31789 0.53772
 H730 H 0.25556 0.36463 0.56882
 H731 H 0.22444 0.37050 0.47810
 H732 H 0.22288 0.35382 0.45029
 H733 H 0.27401 0.32999 0.46100
 H734 H 0.27445 0.34702 0.48868
 C735 C 0.20073 0.41127 0.50705
 C736 C 0.30629 0.40106 0.50587
 C737 C 0.24846 0.34068 0.45328
 C738 C 0.25027 0.33975 0.55550
 C739 C 0.22212 0.62325 0.01536
 H740 H 0.22534 0.63187 0.02622
 C741 C 0.20581 0.61507 0.01545
 H742 H 0.19742 0.61701 0.02700
 C743 C 0.22951 0.61043 -0.01241
 H744 H 0.23864 0.60916 -0.02348
 C745 C 0.21327 0.60186 -0.01285
 H746 H 0.21026 0.59427 -0.02454
 N747 N 0.23355 0.62098 0.00151
 C748 C 0.29036 0.63050 -0.00024
 H749 H 0.28951 0.64469 0.00148
 C750 C 0.30687 0.62198 -0.00143
 H751 H 0.31871 0.62971 -0.00047
 C752 C 0.27580 0.60327 -0.00305
 H753 H 0.26362 0.59608 -0.00353
 C754 C 0.29213 0.59414 -0.00421
 H755 H 0.29242 0.57993 -0.00582
 Zn756 Zn 0.25410 0.63493 0.00083
 N757 N 0.27526 0.62116 -0.00129
 C758 C 0.25906 0.63718 0.03636
 N759 N 0.25568 0.64759 0.02240
 C760 C 0.25360 0.66539 0.02439
 C761 C 0.25426 0.67325 0.04118
 C762 C 0.25974 0.64443 0.05325
 C763 C 0.26412 0.64787 -0.03227
 C764 C 0.26161 0.65660 -0.04802
 C765 C 0.23438 0.66947 -0.03602
 C766 C 0.23744 0.66047 -0.02040
 N767 N 0.25203 0.64977 -0.01889
 H768 H 0.26087 0.62310 0.03435
 H769 H 0.25114 0.67343 0.01307
 H770 H 0.25214 0.68737 0.04271
 H771 H 0.26229 0.63583 0.06418
 H772 H 0.27541 0.63901 -0.03109
 H773 H 0.27133 0.65472 -0.05854
 H774 H 0.22239 0.67743 -0.03722
 H775 H 0.22781 0.66145 -0.00974
 C776 C 0.30794 0.60358 -0.00354
 C777 C 0.20078 0.60444 0.00105
 C778 C 0.24640 0.66727 -0.05022
 C779 C 0.25706 0.66264 0.05590
 C780 C 0.72296 0.12306 0.51433
 H781 H 0.72705 0.13160 0.52493
 C782 C 0.70696 0.11430 0.51591
 H783 H 0.69901 0.11619 0.52778
 C784 C 0.72842 0.10991 0.48629
 H785 H 0.73680 0.10805 0.47480
 C786 C 0.71249 0.10095 0.48729
 H787 H 0.70871 0.09268 0.47630
 N788 N 0.73314 0.12114 0.49946
 C789 C 0.78925 0.12986 0.48919
 H790 H 0.78852 0.14392 0.48708
 C791 C 0.80550 0.12083 0.48775
 H792 H 0.81727 0.12813 0.48465
 C793 C 0.77475 0.10357 0.49663
 H794 H 0.76271 0.09701 0.50028
 C795 C 0.79079 0.09398 0.49530
 H796 H 0.79092 0.07995 0.49768
 Zn797 Zn 0.75351 0.13536 0.49659
 N798 N 0.77434 0.12122 0.49373
 C799 C 0.76984 0.14657 0.52774
 N800 N 0.75597 0.15001 0.51701
 C801 C 0.74346 0.16261 0.52145
 C802 C 0.74465 0.17226 0.53721
 C803 C 0.77142 0.15574 0.54365
 C804 C 0.75199 0.13954 0.46040
 C805 C 0.74960 0.14795 0.44447
 C806 C 0.74661 0.17573 0.46030
 C807 C 0.74888 0.16671 0.47602
 N808 N 0.75111 0.14884 0.47584
 H809 H 0.77947 0.13629 0.52428
 H810 H 0.73223 0.16477 0.51304
 H811 H 0.73441 0.18196 0.54075
 H812 H 0.78243 0.15263 0.55210
 H813 H 0.75472 0.12552 0.46039
 H814 H 0.74975 0.14004 0.43249
 H815 H 0.74493 0.18994 0.46073
 H816 H 0.74890 0.17406 0.48828
 C817 C 0.80649 0.10266 0.49093
 C818 C 0.70133 0.10336 0.50210
 C819 C 0.74677 0.16630 0.44421
 C820 C 0.75865 0.16865 0.54863
 C821 C 0.97279 0.71373 0.89465
 H822 H 0.96154 0.71461 0.88607
 C823 C 0.97546 0.69924 0.90407
 H824 H 0.96580 0.68894 0.90332
 C825 C 0.99831 0.72741 0.90626
 H826 H 1.00768 0.73798 0.90633
 C827 C 1.00156 0.71188 0.91722
 H828 H 1.01345 0.71169 0.92497
 N829 N 0.98494 0.72798 0.89565
 C830 C 0.98173 0.78483 0.88224
 H831 H 0.97966 0.78411 0.86827
 C832 C 0.98215 0.80061 0.89032
 H833 H 0.98027 0.81223 0.88248
 C834 C 0.98359 0.76957 0.90920
 H835 H 0.98359 0.75763 0.91665
 C836 C 0.98413 0.78665 0.91871
 H837 H 0.98581 0.78626 0.93278
 Zn838 Zn 0.98274 0.74690 0.87973
 N839 N 0.98311 0.76891 0.89212
 C840 C 0.94610 0.74857 0.87904
 N841 N 0.96065 0.74577 0.86853
 C842 C 0.95917 0.74272 0.85096
 C843 C 0.94245 0.74251 0.84330
 C844 C 0.92918 0.74838 0.87197
 C845 C 1.01407 0.73155 0.86491
 C846 C 1.02937 0.73057 0.85444
 C847 C 1.01910 0.75644 0.83928
 C848 C 1.00400 0.75702 0.85020
 N849 N 1.00200 0.74499 0.86311
 H850 H 0.94770 0.75104 0.89296
 H851 H 0.97093 0.74045 0.84288
 H852 H 0.94145 0.73998 0.82932
 H853 H 0.91778 0.75089 0.88053
 H854 H 1.01210 0.72162 0.87464
 H855 H 1.03899 0.72000 0.85639
 H856 H 1.02078 0.76644 0.82947
 H857 H 0.99403 0.76720 0.84840
 C858 C 0.98377 0.80191 0.90981
 C859 C 0.99102 0.69778 0.91588
 C860 C 1.03222 0.74334 0.84171
 C861 C 0.92718 0.74538 0.85387
 C862 C 0.48187 0.20676 0.38703
 H863 H 0.47575 0.20595 0.37429
 C864 C 0.48430 0.19157 0.39682
 H865 H 0.47963 0.17915 0.39165
 C866 C 0.49547 0.22402 0.40907
 H867 H 0.50012 0.23669 0.41355
 C868 C 0.49828 0.20909 0.41927
 H869 H 0.50514 0.21042 0.43160
 N870 N 0.48757 0.22253 0.39319
 C871 C 0.50137 0.27415 0.38861
 H872 H 0.51196 0.27020 0.37960
 C873 C 0.50215 0.29042 0.39741
 H874 H 0.51334 0.29877 0.39500
 C875 C 0.47440 0.26792 0.40322
 H876 H 0.46365 0.25912 0.40557
 C877 C 0.47464 0.28407 0.41230
 H878 H 0.46385 0.28760 0.42131
 Zn879 Zn 0.48594 0.24195 0.37806
 N880 N 0.48744 0.26340 0.39133
 C881 C 0.44905 0.23900 0.37699
 N882 N 0.46365 0.24126 0.36665
 C883 C 0.46221 0.24280 0.34894
 C884 C 0.44556 0.24287 0.34113
 C885 C 0.43219 0.23901 0.36975
 C886 C 0.51756 0.22708 0.36355
 C887 C 0.53291 0.22639 0.35311
 C888 C 0.52244 0.25241 0.33828
 C889 C 0.50732 0.25271 0.34914
 N890 N 0.50522 0.24024 0.36161
 H891 H 0.45048 0.23703 0.39091
 H892 H 0.47391 0.24400 0.34078
 H893 H 0.44470 0.24412 0.32702
 H894 H 0.42077 0.23763 0.37836
 H895 H 0.51583 0.21736 0.37358
 H896 H 0.54272 0.21599 0.35507
 H897 H 0.52417 0.26273 0.32880
 H898 H 0.49757 0.26329 0.34808
 C899 C 0.48853 0.29568 0.40926
 C900 C 0.49291 0.19252 0.41304
 C901 C 0.53562 0.23931 0.34046
 C902 C 0.43023 0.24114 0.35160
 C903 C 1.00992 0.27021 0.59287
 H904 H 1.00826 0.25747 0.58660
 C905 C 1.01020 0.28541 0.58271
 H906 H 1.00820 0.28390 0.56874
 C907 C 1.01370 0.28724 0.61882
 H908 H 1.01522 0.28779 0.63292
 C909 C 1.01407 0.30269 0.60927
 H910 H 1.01656 0.31480 0.61643
 N911 N 1.01135 0.27147 0.61062
 C912 C 1.02519 0.21869 0.61510
 H913 H 1.03627 0.22234 0.62308
 C914 C 1.02487 0.20177 0.60765
 H915 H 1.03597 0.19278 0.60964
 C916 C 0.99714 0.22575 0.60322
 H917 H 0.98618 0.23506 0.60198
 C918 C 0.99623 0.20890 0.59559
 H919 H 0.98449 0.20536 0.58847
 Zn920 Zn 1.01060 0.25191 0.62563
 N921 N 1.01139 0.23024 0.61290
 C922 C 0.98480 0.23881 0.64880
 N923 N 0.98908 0.25278 0.63875
 C924 C 0.97733 0.26636 0.63639
 C925 C 0.96042 0.26607 0.64397
 C926 C 0.96793 0.23792 0.65656
 C927 C 1.04616 0.25592 0.63153
 C928 C 1.06189 0.25713 0.64071
 C929 C 1.04538 0.25326 0.66773
 C930 C 1.02987 0.25222 0.65793
 N931 N 1.03062 0.25330 0.64015
 H932 H 0.99425 0.22800 0.65017
 H933 H 0.98077 0.27721 0.62813
 H934 H 0.95127 0.27699 0.64180
 H935 H 0.96453 0.22638 0.66394
 H936 H 1.04629 0.25713 0.61739
 H937 H 1.07371 0.25994 0.63319
 H938 H 1.04428 0.25153 0.68176
 H939 H 1.01730 0.25029 0.66453
 C940 C 1.01011 0.19655 0.59802
 C941 C 1.01196 0.30218 0.59086
 C942 C 1.06194 0.25552 0.65917
 C943 C 0.95537 0.25154 0.65389
 C944 C 0.51035 0.77112 0.09020
 H945 H 0.50793 0.75819 0.08468
 C946 C 0.51057 0.78578 0.07928
 H947 H 0.50806 0.78407 0.06540
 C948 C 0.51632 0.78922 0.11502
 H949 H 0.51858 0.79042 0.12899
 C950 C 0.51667 0.80413 0.10466
 H951 H 0.51938 0.81677 0.11075
 N952 N 0.51288 0.77319 0.10778
 C953 C 0.52486 0.72021 0.11472
 H954 H 0.53624 0.72369 0.12235
 C955 C 0.52376 0.70311 0.10793
 H956 H 0.53459 0.69380 0.11003
 C957 C 0.49684 0.72790 0.10311
 H958 H 0.48622 0.73756 0.10169
 C959 C 0.49517 0.71085 0.09611
 H960 H 0.48321 0.70750 0.08926
 Zn961 Zn 0.51228 0.75449 0.12385
 N962 N 0.51149 0.73221 0.11228
 C963 C 0.48722 0.74357 0.14906
 N964 N 0.49158 0.75692 0.13823
 C965 C 0.48026 0.77085 0.13586
 C966 C 0.46366 0.77151 0.14415
 C967 C 0.47062 0.74363 0.15753
 C968 C 0.54835 0.75677 0.12675
 C969 C 0.56491 0.75695 0.13450
 C970 C 0.55051 0.75548 0.16299
 C971 C 0.53409 0.75531 0.15464
 N972 N 0.53340 0.75566 0.13679
 H973 H 0.49630 0.73246 0.15045
 H974 H 0.48373 0.78121 0.12700
 H975 H 0.45483 0.78267 0.14190
 H976 H 0.46709 0.73250 0.16545
 H977 H 0.54737 0.75721 0.11260
 H978 H 0.57663 0.75775 0.12620
 H979 H 0.55096 0.75472 0.17717
 H980 H 0.52199 0.75459 0.16235
 C981 C 0.50867 0.69813 0.09870
 C982 C 0.51348 0.80260 0.08659
 C983 C 0.56620 0.75602 0.15282
 C984 C 0.45842 0.75757 0.15479
 O985 O -0.00375 0.99279 0.94630
 O986 O 0.02524 1.00183 0.94613
 O987 O -0.00552 0.95268 0.98492
 O988 O 0.00020 0.94968 1.01323
 O989 O -0.04566 0.99414 0.98538
 O990 O -0.04636 1.02399 0.99494
 O991 O 0.03896 0.99762 1.03431
 O992 O 0.04128 0.97027 1.02071
 O993 O 0.04304 1.03560 0.99614
 O994 O 0.02881 1.04174 0.96863
 O995 O 0.00080 1.03915 1.03283
 O996 O -0.02663 1.02494 1.03704
 O997 O 0.01425 1.01114 1.04614
 O998 O -0.01805 1.00153 1.04596
 O999 O 0.01450 1.05113 1.00930
 O1000 O 0.00589 1.05246 0.97757
 O1001 O 0.05375 1.01061 1.00856
 O1002 O 0.05394 0.98114 0.99386
 O1003 O -0.02851 1.00697 0.95730
 O1004 O -0.03261 1.03469 0.97380
 O1005 O -0.03499 0.96931 0.99814
 O1006 O -0.01963 0.96531 1.02646
 O1007 O 0.00810 0.96397 0.96094
 O1008 O 0.03736 0.97846 0.96049
 Zr1009 Zr 0.01267 0.99044 0.96811
 O1010 O 0.02897 1.00596 0.98400
 Zr1011 Zr -0.00810 0.97405 1.00273
 O1012 O 0.00800 0.98811 1.02009
 Zr1013 Zr -0.02361 1.01060 0.98445
 O1014 O -0.00883 1.02640 1.00167
 Zr1015 Zr 0.03241 0.99339 1.00802
 O1016 O 0.01735 0.97694 0.99158
 Zr1017 Zr 0.01641 1.03023 0.99060
 O1018 O 0.00102 1.01570 0.97261
 Zr1019 Zr -0.00373 1.01303 1.02514
 O1020 O -0.02085 0.99834 1.00894
 O1021 O -0.01232 0.98595 0.97878
 O1022 O 0.02112 1.01809 1.01443
 C1023 C -0.01925 0.99986 0.94455
 C1024 C 0.00108 0.95123 0.96929
 C1025 C -0.04758 0.97864 0.99157
 C1026 C 0.03018 1.00482 1.04723
 C1027 C 0.05552 1.02638 1.00307
 C1028 C 0.00785 1.05212 1.02496
 H1029 H 0.04047 1.00749 0.97787
 H1030 H -0.01538 1.03767 1.00390
 H1031 H -0.01975 0.97878 0.97093
 H1032 H 0.00972 0.98135 1.03094
 H1033 H 0.03888 0.96025 1.01264
 H1034 H 0.01117 0.95193 1.01974
 H1035 H -0.00498 1.05649 0.98402
 H1036 H -0.02335 1.03834 0.96536
 H1037 H 0.06447 0.98122 1.00150
 H1038 H 0.03591 0.97198 0.94918
 H1039 H -0.03175 1.03321 1.02849
 H1040 H -0.04822 1.01942 1.00691
 H1041 H 0.02102 1.01426 0.94581
 H1042 H 0.03758 1.03303 0.96369
 H1043 H -0.02940 0.97374 1.02965
 H1044 H -0.01082 0.99157 1.05041
 O1045 O 0.53523 0.49245 0.53460
 O1046 O 0.53881 0.46565 0.51981
 O1047 O 0.53919 0.53092 0.49445
 O1048 O 0.52513 0.53865 0.47028
 O1049 O 0.49573 0.53422 0.53307
 O1050 O 0.46915 0.51912 0.53669
 O1051 O 0.49263 0.48741 0.44655
 O1052 O 0.52082 0.49785 0.44603
 O1053 O 0.49045 0.44809 0.48407
 O1054 O 0.49853 0.44532 0.51425
 O1055 O 0.45139 0.48795 0.48482
 O1056 O 0.44924 0.51801 0.49445
 O1057 O 0.46757 0.50070 0.45788
 O1058 O 0.46303 0.52959 0.47527
 O1059 O 0.46235 0.46326 0.49758
 O1060 O 0.47815 0.45839 0.52609
 O1061 O 0.50390 0.45978 0.46023
 O1062 O 0.53379 0.47327 0.46101
 O1063 O 0.51023 0.50515 0.54677
 O1064 O 0.47944 0.49562 0.54659
 O1065 O 0.50936 0.54653 0.50966
 O1066 O 0.49966 0.54710 0.47839
 O1067 O 0.55039 0.50628 0.50720
 O1068 O 0.55049 0.47607 0.49431
 Zr1069 Zr 0.52907 0.48898 0.50806
 O1070 O 0.51412 0.47267 0.49163
 Zr1071 Zr 0.51221 0.52562 0.49097
 O1072 O 0.49728 0.51075 0.47311
 Zr1073 Zr 0.49265 0.50780 0.52550
 O1074 O 0.47611 0.49293 0.50918
 Zr1075 Zr 0.50926 0.48584 0.46819
 O1076 O 0.52560 0.50173 0.48397
 Zr1077 Zr 0.48895 0.46880 0.50274
 O1078 O 0.50483 0.48305 0.52042
 Zr1079 Zr 0.47274 0.50524 0.48483
 O1080 O 0.48708 0.52150 0.50230
 O1081 O 0.51719 0.51332 0.51453
 O1082 O 0.48429 0.48067 0.47874
 C1083 C 0.52618 0.49884 0.54777
 C1084 C 0.55198 0.52181 0.50101
 C1085 C 0.50225 0.54744 0.52515
 C1086 C 0.47681 0.49372 0.44506
 C1087 C 0.49669 0.44697 0.46829
 C1088 C 0.44975 0.47227 0.49063
 H1089 H 0.52068 0.46140 0.48936
 H1090 H 0.46468 0.49131 0.51537
 H1091 H 0.52452 0.52064 0.52234
 H1092 H 0.49598 0.51732 0.46209
 H1093 H 0.53182 0.50336 0.45011
 H1094 H 0.52427 0.53090 0.45977
 H1095 H 0.46752 0.46561 0.52945
 H1096 H 0.48559 0.48414 0.54835
 H1097 H 0.53254 0.46786 0.44915
 H1098 H 0.56143 0.47735 0.50125
 H1099 H 0.44690 0.51357 0.50638
 H1100 H 0.46407 0.52692 0.52768
 H1101 H 0.52893 0.46095 0.52688
 H1102 H 0.51073 0.44304 0.50975
 H1103 H 0.48864 0.55001 0.48516
 H1104 H 0.46998 0.53234 0.46459
 O1105 O 0.47482 -0.03900 0.50121
 O1106 O 0.48929 -0.04260 0.47345
 O1107 O 0.51774 -0.04119 0.53749
 O1108 O 0.54265 -0.02654 0.54254
 O1109 O 0.47743 -0.00004 0.54257
 O1110 O 0.47215 0.02683 0.52751
 O1111 O 0.56130 0.00660 0.49075
 O1112 O 0.56375 -0.02142 0.50171
 O1113 O 0.52081 0.00592 0.45339
 O1114 O 0.49220 -0.00450 0.45281
 O1115 O 0.52019 0.04600 0.49233
 O1116 O 0.51238 0.04809 0.52293
 O1117 O 0.54921 0.03129 0.50394
 O1118 O 0.53339 0.03585 0.53331
 O1119 O 0.50778 0.03349 0.46828
 O1120 O 0.47895 0.01752 0.46613
 O1121 O 0.54630 -0.00578 0.46415
 O1122 O 0.54841 -0.03501 0.47787
 O1123 O 0.46233 -0.01436 0.51415
 O1124 O 0.46051 0.01599 0.50515
 O1125 O 0.50272 -0.01237 0.55314
 O1126 O 0.53327 -0.00123 0.55201
 O1127 O 0.50344 -0.05315 0.51421
 O1128 O 0.51671 -0.05306 0.48408
 Zr1129 Zr 0.50131 -0.03239 0.49642
 O1130 O 0.51613 -0.01709 0.47905
 Zr1131 Zr 0.52014 -0.01436 0.53135
 O1132 O 0.53621 0.00125 0.51533
 Zr1133 Zr 0.48324 0.00359 0.51571
 O1134 O 0.49772 0.02034 0.49933
 Zr1135 Zr 0.54030 -0.01096 0.49060
 O1136 O 0.52622 -0.02773 0.50749
 Zr1137 Zr 0.50344 0.00731 0.47525
 O1138 O 0.48732 -0.00879 0.49095
 Zr1139 Zr 0.52271 0.02505 0.51003
 O1140 O 0.50722 0.01018 0.52768
 O1141 O 0.49585 -0.02032 0.52071
 O1142 O 0.52803 0.01328 0.48555
 C1143 C 0.46152 -0.03022 0.50792
 C1144 C 0.51065 -0.05422 0.52935
 C1145 C 0.48675 -0.00634 0.55510
 C1146 C 0.56227 0.02252 0.49667
 C1147 C 0.53700 0.00046 0.45161
 C1148 C 0.51421 0.04666 0.47663
 H1149 H 0.51790 -0.02366 0.46778
 H1150 H 0.49083 0.03142 0.49776
 H1151 H 0.48865 -0.02776 0.52848
 H1152 H 0.54760 0.00319 0.52122
 H1153 H 0.56049 -0.03254 0.50742
 H1154 H 0.55297 -0.02347 0.53516
 H1155 H 0.47594 0.02843 0.47294
 H1156 H 0.45884 0.01055 0.49339
 H1157 H 0.56012 -0.03325 0.47216
 H1158 H 0.51107 -0.06451 0.48622
 H1159 H 0.50001 0.04982 0.51910
 H1160 H 0.48135 0.03168 0.53524
 H1161 H 0.48497 -0.05460 0.47583
 H1162 H 0.48528 -0.01452 0.45708
 H1163 H 0.52634 0.00974 0.55476
 H1164 H 0.54431 0.02901 0.53596
 O1165 O -0.02303 0.50708 1.04443
 O1166 O -0.02667 0.53392 1.03004
 O1167 O -0.02843 0.46800 1.00377
 O1168 O -0.01525 0.46016 0.97835
 O1169 O 0.01596 0.46511 1.03968
 O1170 O 0.04328 0.48041 1.04129
 O1171 O 0.01728 0.50986 0.95360
 O1172 O -0.01100 0.49898 0.95474
 O1173 O 0.01935 0.55064 0.99129
 O1174 O 0.01211 0.55347 1.02270
 O1175 O 0.05934 0.51066 0.99000
 O1176 O 0.06115 0.48026 0.99974
 O1177 O 0.04280 0.49773 0.96400
 O1178 O 0.04803 0.46924 0.97981
 O1179 O 0.04824 0.53599 1.00261
 O1180 O 0.03406 0.54191 1.03188
 O1181 O 0.00585 0.53763 0.96813
 O1182 O -0.02371 0.52421 0.97029
 O1183 O 0.00249 0.49468 1.05457
 O1184 O 0.03288 0.50368 1.05307
 O1185 O 0.00137 0.45280 1.01683
 O1186 O 0.01052 0.45099 0.98556
 O1187 O -0.03911 0.49296 1.01754
 O1188 O -0.03964 0.52282 1.00542
 Zr1189 Zr -0.01770 0.51015 1.01744
 O1190 O -0.00338 0.52586 1.00001
 Zr1191 Zr -0.00153 0.47313 0.99865
 O1192 O 0.01325 0.48734 0.98028
 Zr1193 Zr 0.01921 0.49148 1.03226
 O1194 O 0.03512 0.50637 1.01537
 Zr1195 Zr 0.00100 0.51195 0.97620
 O1196 O -0.01505 0.49685 0.99291
 Zr1197 Zr 0.02200 0.53029 1.00971
 O1198 O 0.00696 0.51623 1.02827
 Zr1199 Zr 0.03798 0.49333 0.99086
 O1200 O 0.02394 0.47731 1.00858
 O1201 O -0.00569 0.48592 1.02271
 O1202 O 0.02614 0.51764 0.98547
 C1203 C -0.01342 0.50090 1.05682
 C1204 C -0.04099 0.47731 1.01123
 C1205 C 0.00875 0.45198 1.03190
 C1206 C 0.03336 0.50413 0.95160
 C1207 C 0.01270 0.55097 0.97582
 C1208 C 0.06085 0.52674 0.99524
 H1209 H -0.01011 0.53700 0.99817
 H1210 H 0.04669 0.50825 1.02092
 H1211 H -0.01286 0.47884 1.03085
 H1212 H 0.01443 0.48049 0.96913
 H1213 H -0.02195 0.49372 0.95941
 H1214 H -0.01267 0.46648 0.96740
 H1215 H 0.04424 0.53425 1.03509
 H1216 H 0.02769 0.51573 1.05452
 H1217 H -0.02282 0.52899 0.95828
 H1218 H -0.05022 0.52192 1.01323
 H1219 H 0.06456 0.48608 1.01088
 H1220 H 0.04742 0.47171 1.03218
 H1221 H -0.01673 0.53830 1.03710
 H1222 H 0.00020 0.55614 1.01806
 H1223 H 0.02211 0.44886 0.99115
 H1224 H 0.04028 0.46582 0.97003
 O1225 O 0.00881 0.44854 0.50931
 O1226 O -0.00145 0.44616 0.47994
 O1227 O 0.04765 0.48891 0.50602
 O1228 O 0.04859 0.51702 0.49741
 O1229 O 0.00792 0.49111 0.54742
 O1230 O -0.02253 0.49984 0.54862
 O1231 O -0.00154 0.53383 0.46103
 O1232 O 0.02586 0.52013 0.45789
 O1233 O -0.03867 0.49254 0.46120
 O1234 O -0.04075 0.46596 0.47546
 O1235 O -0.04265 0.53209 0.49975
 O1236 O -0.02678 0.53862 0.52703
 O1237 O -0.01532 0.54615 0.48519
 O1238 O -0.00568 0.54943 0.51597
 O1239 O -0.05326 0.50668 0.48824
 O1240 O -0.05233 0.47593 0.49985
 O1241 O -0.01541 0.50614 0.44847
 O1242 O 0.01482 0.49266 0.44729
 O1243 O -0.00443 0.46148 0.53346
 O1244 O -0.03258 0.47672 0.53771
 O1245 O 0.03172 0.50409 0.53492
 O1246 O 0.03367 0.53106 0.51756
 O1247 O 0.03655 0.46313 0.49574
 O1248 O 0.02190 0.46156 0.46661
 Zr1249 Zr 0.00977 0.46914 0.49107
 O1250 O -0.00732 0.48312 0.47441
 Zr1251 Zr 0.02536 0.50620 0.50816
 O1252 O 0.00919 0.52161 0.49183
 Zr1253 Zr -0.00965 0.48776 0.52653
 O1254 O -0.02734 0.50261 0.51132
 Zr1255 Zr 0.00345 0.50765 0.46861
 O1256 O 0.02158 0.49299 0.48400
 Zr1257 Zr -0.03134 0.48923 0.48740
 O1258 O -0.01517 0.47335 0.50346
 Zr1259 Zr -0.01564 0.52630 0.50412
 O1260 O 0.00124 0.51245 0.52137
 O1261 O 0.01481 0.48218 0.51470
 O1262 O -0.02110 0.51347 0.48050
 C1263 C 0.00260 0.44810 0.52514
 C1264 C 0.04933 0.47259 0.50120
 C1265 C 0.02327 0.49803 0.54822
 C1266 C -0.00897 0.54695 0.46946
 C1267 C -0.03092 0.49949 0.44797
 C1268 C -0.05520 0.52277 0.49352
 H1269 H -0.00926 0.47600 0.46360
 H1270 H -0.03851 0.50467 0.51804
 H1271 H 0.02267 0.47527 0.52242
 H1272 H 0.01531 0.53267 0.48922
 H1273 H 0.03627 0.51247 0.46043
 H1274 H 0.04502 0.52343 0.48680
 H1275 H -0.05664 0.48328 0.50997
 H1276 H -0.03659 0.46765 0.52925
 H1277 H 0.01370 0.49973 0.43651
 H1278 H 0.02959 0.45096 0.46822
 H1279 H -0.03598 0.53082 0.53171
 H1280 H -0.01827 0.51208 0.54933
 H1281 H 0.00722 0.43618 0.48072
 H1282 H -0.03316 0.45617 0.47969
 H1283 H 0.02506 0.53499 0.52685
 H1284 H 0.00523 0.55253 0.50947
 O1285 O 0.55298 0.98922 0.00371
 O1286 O 0.55352 1.01754 -0.00753
 O1287 O 0.51104 0.99178 0.04249
 O1288 O 0.48214 0.99866 0.04348
 O1289 O 0.51341 0.94884 0.00371
 O1290 O 0.50590 0.94701 -0.02672
 O1291 O 0.46369 1.03336 -0.00712
 O1292 O 0.47567 1.03713 0.02043
 O1293 O 0.50597 1.03517 -0.04346
 O1294 O 0.53487 1.01917 -0.04672
 O1295 O 0.46962 0.99397 -0.04667
 O1296 O 0.46563 0.96627 -0.03035
 O1297 O 0.45366 1.00820 -0.01982
 O1298 O 0.45274 0.97754 -0.00979
 O1299 O 0.49415 1.00674 -0.05781
 O1300 O 0.52559 0.99730 -0.05796
 O1301 O 0.49052 1.04696 -0.02008
 O1302 O 0.50303 1.04884 0.00975
 O1303 O 0.54249 0.96405 -0.00868
 O1304 O 0.52887 0.95863 -0.03652
 O1305 O 0.49951 0.96171 0.02748
 O1306 O 0.47063 0.97710 0.02922
 O1307 O 0.53575 1.00404 0.03102
 O1308 O 0.53772 1.03152 0.01453
 Zr1309 Zr 0.53073 1.00652 0.00410
 O1310 O 0.51557 1.02237 -0.01272
 Zr1311 Zr 0.49474 0.98799 0.02054
 O1312 O 0.47811 1.00313 0.00447
 Zr1313 Zr 0.51574 0.96973 -0.01407
 O1314 O 0.50003 0.98407 -0.03176
 Zr1315 Zr 0.49021 1.02687 -0.00162
 O1316 O 0.50598 1.01269 0.01625
 Zr1317 Zr 0.51121 1.00875 -0.03637
 O1318 O 0.52805 0.99346 -0.02032
 Zr1319 Zr 0.47528 0.99022 -0.01996
 O1320 O 0.49027 0.97397 -0.00305
 O1321 O 0.51972 0.98238 0.00991
 O1322 O 0.48608 1.01446 -0.02583
 C1323 C 0.55491 0.97316 -0.00191
 C1324 C 0.52649 0.99843 0.04398
 C1325 C 0.50652 0.94830 0.01926
 C1326 C 0.45148 1.02423 -0.01426
 C1327 C 0.49765 1.04802 -0.03541
 C1328 C 0.47854 1.00058 -0.05937
 H1329 H 0.52168 1.03359 -0.01459
 H1330 H 0.49884 0.97708 -0.04274
 H1331 H 0.52711 0.97533 0.01795
 H1332 H 0.46659 1.00533 0.01055
 H1333 H 0.48315 1.03513 0.03082
 H1334 H 0.47418 1.00837 0.03975
 H1335 H 0.52030 0.98580 -0.06078
 H1336 H 0.53688 0.96776 -0.04097
 H1337 H 0.49508 1.05935 0.00870
 H1338 H 0.54885 1.03016 0.02120
 H1339 H 0.47374 0.96224 -0.04001
 H1340 H 0.49365 0.94564 -0.02220
 H1341 H 0.55510 1.01197 -0.01932
 H1342 H 0.53811 1.02928 -0.03913
 H1343 H 0.46782 0.96755 0.02075
 H1344 H 0.44899 0.98384 0.00118
 O1345 O 0.45358 0.50982 0.01284
 O1346 O 0.45406 0.48020 0.00267
 O1347 O 0.49375 0.51117 0.05185
 O1348 O 0.52262 0.50530 0.05381
 O1349 O 0.49199 0.55047 0.01144
 O1350 O 0.50084 0.55081 -0.01822
 O1351 O 0.54312 0.46540 0.00437
 O1352 O 0.53008 0.46361 0.03193
 O1353 O 0.50392 0.46208 -0.03288
 O1354 O 0.47600 0.47449 -0.03642
 O1355 O 0.53959 0.50279 -0.03581
 O1356 O 0.54386 0.53023 -0.02104
 O1357 O 0.55423 0.48976 -0.00838
 O1358 O 0.55356 0.52200 0.00190
 O1359 O 0.51560 0.48971 -0.04748
 O1360 O 0.48327 0.49914 -0.04732
 O1361 O 0.51685 0.45091 -0.00861
 O1362 O 0.50324 0.45115 0.02120
 O1363 O 0.46393 0.53375 -0.00129
 O1364 O 0.47992 0.53720 -0.02904
 O1365 O 0.50561 0.54029 0.03576
 O1366 O 0.53494 0.52451 0.03836
 O1367 O 0.46946 0.49778 0.04102
 O1368 O 0.47041 0.46833 0.02598
 Zr1369 Zr 0.47593 0.49288 0.01427
 O1370 O 0.49186 0.47628 -0.00224
 Zr1371 Zr 0.51096 0.51330 0.03011
 O1372 O 0.52833 0.49660 0.01517
 Zr1373 Zr 0.49123 0.52837 -0.00542
 O1374 O 0.50846 0.51326 -0.02199
 Zr1375 Zr 0.51655 0.47238 0.00943
 O1376 O 0.50024 0.48806 0.02672
 Zr1377 Zr 0.49756 0.48839 -0.02614
 O1378 O 0.47947 0.50407 -0.01072
 Zr1379 Zr 0.53258 0.50790 -0.00942
 O1380 O 0.51633 0.52547 0.00608
 O1381 O 0.48637 0.51764 0.01901
 O1382 O 0.52208 0.48333 -0.01491
 C1383 C 0.45138 0.52501 0.00585
 C1384 C 0.47827 0.50466 0.05365
 C1385 C 0.49839 0.55270 0.02682
 C1386 C 0.55583 0.47394 -0.00264
 C1387 C 0.51125 0.44944 -0.02443
 C1388 C 0.53129 0.49587 -0.04872
 H1389 H 0.48582 0.46498 -0.00421
 H1390 H 0.51023 0.51961 -0.03308
 H1391 H 0.47848 0.52525 0.02655
 H1392 H 0.53948 0.49478 0.02161
 H1393 H 0.52216 0.46632 0.04215
 H1394 H 0.52886 0.49394 0.05120
 H1395 H 0.48981 0.50938 -0.05167
 H1396 H 0.47118 0.52834 -0.03259
 H1397 H 0.51126 0.44061 0.02057
 H1398 H 0.45957 0.46962 0.03346
 H1399 H 0.53486 0.53544 -0.02883
 H1400 H 0.51310 0.55237 -0.01412
 H1401 H 0.44390 0.48060 0.01110
 H1402 H 0.46578 0.47727 -0.02848
 H1403 H 0.53746 0.53428 0.03032
 H1404 H 0.55831 0.51499 0.01168
 O1405 O -0.04861 0.00910 0.51232
 O1406 O -0.04860 -0.02054 0.50207
 O1407 O -0.00871 0.00967 0.55155
 O1408 O 0.02002 0.00342 0.55374
 O1409 O -0.00941 0.04898 0.51100
 O1410 O -0.00033 0.04904 0.48139
 O1411 O 0.04030 -0.03690 0.50483
 O1412 O 0.02677 -0.03850 0.53210
 O1413 O 0.00135 -0.03975 0.46698
 O1414 O -0.02636 -0.02693 0.46323
 O1415 O 0.03767 0.00033 0.46426
 O1416 O 0.04234 0.02766 0.47891
 O1417 O 0.05188 -0.01279 0.49202
 O1418 O 0.05162 0.01950 0.50199
 O1419 O 0.01352 -0.01222 0.45235
 O1420 O -0.01865 -0.00242 0.45231
 O1421 O 0.01394 -0.05102 0.49137
 O1422 O -0.00010 -0.05052 0.52100
 O1423 O -0.03774 0.03269 0.49801
 O1424 O -0.02143 0.03585 0.47048
 O1425 O 0.00385 0.03861 0.53544
 O1426 O 0.03280 0.02228 0.53838
 O1427 O -0.03319 -0.00324 0.54057
 O1428 O -0.03270 -0.03269 0.52558
 Zr1429 Zr -0.02659 -0.00829 0.51386
 O1430 O -0.01080 -0.02523 0.49752
 Zr1431 Zr 0.00868 0.01152 0.52992
 O1432 O 0.02587 -0.00550 0.51517
 Zr1433 Zr -0.01048 0.02684 0.49419
 O1434 O 0.00661 0.01138 0.47780
 Zr1435 Zr 0.01373 -0.02953 0.50939
 O1436 O -0.00247 -0.01353 0.52651
 Zr1437 Zr -0.00467 -0.01332 0.47361
 O1438 O -0.02261 0.00274 0.48885
 Zr1439 Zr 0.03052 0.00564 0.49058
 O1440 O 0.01447 0.02353 0.50591
 O1441 O -0.01574 0.01628 0.51863
 O1442 O 0.01968 -0.01877 0.48505
 C1443 C -0.05048 0.02424 0.50517
 C1444 C -0.02432 0.00344 0.55328
 C1445 C -0.00301 0.05114 0.52640
 C1446 C 0.05323 -0.02854 0.49799
 C1447 C 0.00846 -0.05247 0.47551
 C1448 C 0.02934 -0.00634 0.45126
 H1449 H -0.01701 -0.03642 0.49553
 H1450 H 0.00858 0.01767 0.46672
 H1451 H -0.02355 0.02406 0.52610
 H1452 H 0.03693 -0.00747 0.52173
 H1453 H 0.01875 -0.03564 0.54221
 H1454 H 0.02591 -0.00815 0.55126
 H1455 H -0.01198 0.00776 0.44804
 H1456 H -0.03024 0.02711 0.46681
 H1457 H 0.00774 -0.06120 0.52048
 H1458 H -0.04360 -0.03118 0.53293
 H1459 H 0.03346 0.03307 0.47112
 H1460 H 0.01191 0.05042 0.48561
 H1461 H -0.05883 -0.01994 0.51041
 H1462 H -0.03660 -0.02396 0.47108
 H1463 H 0.03560 0.03198 0.53033
 H1464 H 0.05612 0.01252 0.51190
 O1465 O 0.72973 0.28752 0.20978
 O1466 O 0.70284 0.29041 0.22532
 O1467 O 0.76912 0.28811 0.24938
 O1468 O 0.77586 0.27284 0.27330
 O1469 O 0.77135 0.24693 0.20871
 O1470 O 0.75508 0.22128 0.20324
 O1471 O 0.72598 0.23908 0.29499
 O1472 O 0.73627 0.26720 0.29704
 O1473 O 0.68480 0.24080 0.25772
 O1474 O 0.68213 0.25123 0.22800
 O1475 O 0.72398 0.20090 0.25344
 O1476 O 0.75470 0.19942 0.24258
 O1477 O 0.73824 0.21478 0.28123
 O1478 O 0.76590 0.21004 0.26360
 O1479 O 0.69915 0.21348 0.24222
 O1480 O 0.69411 0.23099 0.21507
 O1481 O 0.69766 0.25110 0.28254
 O1482 O 0.71104 0.28091 0.28376
 O1483 O 0.74210 0.26318 0.19612
 O1484 O 0.73209 0.23315 0.19387
 O1485 O 0.78383 0.25933 0.23279
 O1486 O 0.78496 0.24782 0.26281
 O1487 O 0.74425 0.30054 0.23801
 O1488 O 0.71417 0.30042 0.25125
 Zr1489 Zr 0.72644 0.27972 0.23598
 O1490 O 0.71008 0.26407 0.25168
 Zr1491 Zr 0.76310 0.26123 0.25160
 O1492 O 0.74827 0.24511 0.26824
 Zr1493 Zr 0.74458 0.24430 0.21598
 O1494 O 0.72924 0.22713 0.23104
 Zr1495 Zr 0.72359 0.25711 0.27450
 O1496 O 0.73940 0.27437 0.25970
 Zr1497 Zr 0.70540 0.24003 0.23878
 O1498 O 0.71996 0.25656 0.22209
 Zr1499 Zr 0.74197 0.22171 0.25477
 O1500 O 0.75849 0.23705 0.23860
 O1501 O 0.75061 0.26788 0.22852
 O1502 O 0.71764 0.23324 0.26214
 C1503 C 0.73598 0.27917 0.19609
 C1504 C 0.76011 0.30143 0.24378
 C1505 C 0.78468 0.25289 0.21705
 C1506 C 0.73226 0.22318 0.29501
 C1507 C 0.68435 0.24524 0.27410
 C1508 C 0.70799 0.20016 0.24795
 H1509 H 0.69894 0.27065 0.25462
 H1510 H 0.72721 0.21628 0.22404
 H1511 H 0.75804 0.27548 0.22114
 H1512 H 0.75512 0.24285 0.27896
 H1513 H 0.74170 0.27841 0.29357
 H1514 H 0.76914 0.26951 0.28393
 H1515 H 0.70131 0.22074 0.21066
 H1516 H 0.72033 0.23910 0.19308
 H1517 H 0.70594 0.27878 0.29560
 H1518 H 0.71539 0.31166 0.24490
 H1519 H 0.74850 0.19687 0.23150
 H1520 H 0.76293 0.21546 0.21179
 H1521 H 0.69815 0.28131 0.21727
 H1522 H 0.67985 0.26280 0.23390
 H1523 H 0.78707 0.23685 0.25578
 H1524 H 0.77004 0.21723 0.27362
 O1525 O 0.73852 0.72013 0.71201
 O1526 O 0.76577 0.71594 0.72662
 O1527 O 0.69997 0.71667 0.75405
 O1528 O 0.69311 0.73075 0.77936
 O1529 O 0.69700 0.75862 0.71662
 O1530 O 0.71159 0.78599 0.71416
 O1531 O 0.74508 0.76318 0.80140
 O1532 O 0.73370 0.73507 0.80168
 O1533 O 0.78411 0.76387 0.76200
 O1534 O 0.78650 0.75437 0.73310
 O1535 O 0.74464 0.80342 0.76399
 O1536 O 0.71408 0.80574 0.75538
 O1537 O 0.73200 0.78801 0.79079
 O1538 O 0.70289 0.79288 0.77540
 O1539 O 0.76937 0.79180 0.75046
 O1540 O 0.77327 0.77611 0.72092
 O1541 O 0.77249 0.75083 0.78606
 O1542 O 0.75841 0.72168 0.78581
 O1543 O 0.72675 0.74568 0.70153
 O1544 O 0.73484 0.77607 0.70231
 O1545 O 0.68470 0.74578 0.74046
 O1546 O 0.68433 0.75627 0.77180
 O1547 O 0.72413 0.70486 0.73957
 O1548 O 0.75406 0.70477 0.75292
 Zr1549 Zr 0.74204 0.72580 0.73897
 O1550 O 0.75875 0.74070 0.75511
 Zr1551 Zr 0.70578 0.74338 0.75825
 O1552 O 0.72111 0.75831 0.77573
 Zr1553 Zr 0.72343 0.76253 0.72355
 O1554 O 0.73901 0.77878 0.73938
 Zr1555 Zr 0.74599 0.74606 0.77936
 O1556 O 0.72966 0.72983 0.76380
 Zr1557 Zr 0.76303 0.76554 0.74446
 O1558 O 0.74817 0.74989 0.72707
 Zr1559 Zr 0.72686 0.78249 0.76421
 O1560 O 0.70995 0.76828 0.74741
 O1561 O 0.71781 0.73815 0.73400
 O1562 O 0.75140 0.77064 0.76904
 C1563 C 0.73293 0.72984 0.69946
 C1564 C 0.70857 0.70370 0.74653
 C1565 C 0.68383 0.75203 0.72488
 C1566 C 0.73910 0.77914 0.80319
 C1567 C 0.78538 0.75770 0.77755
 C1568 C 0.76057 0.80459 0.75802
 H1569 H 0.77009 0.73412 0.75657
 H1570 H 0.74082 0.79008 0.73340
 H1571 H 0.71050 0.73086 0.72614
 H1572 H 0.71466 0.75989 0.78707
 H1573 H 0.72810 0.72409 0.79759
 H1574 H 0.70044 0.73277 0.78981
 H1575 H 0.76677 0.78730 0.71871
 H1576 H 0.74685 0.77085 0.70031
 H1577 H 0.76365 0.72304 0.79762
 H1578 H 0.75221 0.69347 0.74653
 H1579 H 0.71879 0.80806 0.74347
 H1580 H 0.70320 0.79036 0.72346
 H1581 H 0.76362 0.70409 0.72145
 H1582 H 0.78287 0.74392 0.72621
 H1583 H 0.68161 0.76724 0.76542
 H1584 H 0.69986 0.78571 0.78570
 O1585 O 0.29392 0.20495 0.74680
 O1586 O 0.29840 0.21887 0.72020
 O1587 O 0.29689 0.24667 0.78535
 O1588 O 0.28280 0.27207 0.79192
 O1589 O 0.25267 0.21027 0.78725
 O1590 O 0.22685 0.20687 0.77039
 O1591 O 0.25140 0.29496 0.74011
 O1592 O 0.27915 0.29487 0.75241
 O1593 O 0.25146 0.25631 0.70071
 O1594 O 0.26016 0.22485 0.69886
 O1595 O 0.21053 0.25778 0.73854
 O1596 O 0.20786 0.24852 0.76912
 O1597 O 0.22605 0.28462 0.75227
 O1598 O 0.21983 0.26898 0.78019
 O1599 O 0.22297 0.24462 0.71418
 O1600 O 0.23805 0.21536 0.70970
 O1601 O 0.26450 0.27993 0.71341
 O1602 O 0.29342 0.27879 0.72837
 O1603 O 0.26846 0.19439 0.75855
 O1604 O 0.23846 0.19507 0.74814
 O1605 O 0.26703 0.23333 0.79954
 O1606 O 0.25691 0.26451 0.80013
 O1607 O 0.30879 0.23254 0.76123
 O1608 O 0.31010 0.24410 0.73124
 Zr1609 Zr 0.28809 0.23182 0.74317
 O1610 O 0.27391 0.24856 0.72642
 Zr1611 Zr 0.27013 0.25110 0.77892
 O1612 O 0.25541 0.26888 0.76365
 Zr1613 Zr 0.25099 0.21652 0.76049
 O1614 O 0.23518 0.23282 0.74461
 Zr1615 Zr 0.26840 0.27267 0.73952
 O1616 O 0.28429 0.25665 0.75573
 Zr1617 Zr 0.24903 0.23817 0.72123
 O1618 O 0.26403 0.22025 0.73630
 Zr1619 Zr 0.23119 0.25768 0.75688
 O1620 O 0.24511 0.24054 0.77383
 O1621 O 0.27538 0.22672 0.76694
 O1622 O 0.24377 0.26273 0.73305
 C1623 C 0.28451 0.19237 0.75273
 C1624 C 0.30996 0.23929 0.77674
 C1625 C 0.25929 0.21847 0.80044
 C1626 C 0.23532 0.29700 0.74571
 C1627 C 0.25792 0.27184 0.70016
 C1628 C 0.20987 0.25207 0.72256
 H1629 H 0.28097 0.25027 0.71556
 H1630 H 0.22385 0.22697 0.74235
 H1631 H 0.28243 0.21884 0.77451
 H1632 H 0.25372 0.28020 0.77018
 H1633 H 0.29000 0.29061 0.75831
 H1634 H 0.28018 0.28284 0.78524
 H1635 H 0.22766 0.21216 0.71692
 H1636 H 0.24420 0.19342 0.73643
 H1637 H 0.29243 0.29070 0.72326
 H1638 H 0.32087 0.23658 0.73284
 H1639 H 0.20462 0.23746 0.76303
 H1640 H 0.22157 0.21636 0.77803
 H1641 H 0.28872 0.21184 0.71525
 H1642 H 0.27177 0.23009 0.69627
 H1643 H 0.24548 0.25861 0.80198
 H1644 H 0.22753 0.27860 0.78415
 O1645 O 0.22609 0.79545 0.25277
 O1646 O 0.22391 0.78223 0.22456
 O1647 O 0.22126 0.75249 0.28789
 O1648 O 0.23458 0.72623 0.29195
 O1649 O 0.26283 0.78919 0.29482
 O1650 O 0.29055 0.79331 0.28071
 O1651 O 0.27064 0.70657 0.24078
 O1652 O 0.24187 0.70587 0.25040
 O1653 O 0.27363 0.74819 0.20465
 O1654 O 0.26419 0.77726 0.20460
 O1655 O 0.31103 0.74459 0.24484
 O1656 O 0.31149 0.75130 0.27544
 O1657 O 0.29501 0.71671 0.25461
 O1658 O 0.29768 0.73119 0.28494
 O1659 O 0.30092 0.75912 0.22106
 O1660 O 0.28496 0.78879 0.21926
 O1661 O 0.26036 0.72340 0.21399
 O1662 O 0.23016 0.72288 0.22693
 O1663 O 0.25042 0.80596 0.26637
 O1664 O 0.28156 0.80583 0.25830
 O1665 O 0.24963 0.76445 0.30437
 O1666 O 0.25981 0.73321 0.30231
 O1667 O 0.21038 0.76718 0.26442
 O1668 O 0.21244 0.75519 0.23368
 Zr1669 Zr 0.23254 0.76881 0.24726
 O1670 O 0.24887 0.75367 0.22980
 Zr1671 Zr 0.24824 0.74798 0.28193
 O1672 O 0.26438 0.73130 0.26577
 Zr1673 Zr 0.26788 0.78390 0.26792
 O1674 O 0.28550 0.76874 0.25171
 Zr1675 Zr 0.25368 0.72882 0.24056
 O1676 O 0.23612 0.74343 0.25758
 Zr1677 Zr 0.27397 0.76466 0.22711
 O1678 O 0.25692 0.78125 0.24279
 Zr1679 Zr 0.28885 0.74323 0.26167
 O1680 O 0.27329 0.75929 0.27932
 O1681 O 0.24333 0.77284 0.27196
 O1682 O 0.27864 0.73945 0.23666
 C1683 C 0.23488 0.80797 0.25985
 C1684 C 0.20861 0.76013 0.27958
 C1685 C 0.25588 0.77988 0.30696
 C1686 C 0.28629 0.70447 0.24692
 C1687 C 0.26769 0.73264 0.20201
 C1688 C 0.31328 0.75131 0.22964
 H1689 H 0.24298 0.75272 0.21830
 H1690 H 0.29688 0.77486 0.25076
 H1691 H 0.23557 0.78031 0.27978
 H1692 H 0.26568 0.71967 0.27131
 H1693 H 0.23050 0.70974 0.25605
 H1694 H 0.23777 0.71598 0.28426
 H1695 H 0.29559 0.79085 0.22638
 H1696 H 0.27660 0.80843 0.24664
 H1697 H 0.23202 0.71134 0.22076
 H1698 H 0.20086 0.76136 0.23578
 H1699 H 0.31357 0.76371 0.27241
 H1700 H 0.29502 0.78355 0.28802
 H1701 H 0.21176 0.78712 0.22676
 H1702 H 0.25318 0.78363 0.20841
 H1703 H 0.27076 0.73925 0.30569
 H1704 H 0.29089 0.72033 0.28659
 O1705 O 0.22267 0.69475 0.75668
 O1706 O 0.25111 0.69327 0.74522
 O1707 O 0.22556 0.73450 0.79795
 O1708 O 0.23165 0.76286 0.80048
 O1709 O 0.18233 0.73599 0.76050
 O1710 O 0.18019 0.74532 0.73109
 O1711 O 0.26791 0.78157 0.74947
 O1712 O 0.27169 0.76807 0.77605
 O1713 O 0.26867 0.74136 0.71080
 O1714 O 0.25243 0.71456 0.70582
 O1715 O 0.22781 0.78060 0.71180
 O1716 O 0.20076 0.78570 0.72881
 O1717 O 0.24264 0.79383 0.73870
 O1718 O 0.21136 0.79534 0.75085
 O1719 O 0.24069 0.75644 0.69850
 O1720 O 0.22984 0.72525 0.69703
 O1721 O 0.28124 0.75453 0.73442
 O1722 O 0.28277 0.74053 0.76363
 O1723 O 0.19771 0.70695 0.74511
 O1724 O 0.19205 0.72324 0.71885
 O1725 O 0.19512 0.74772 0.78475
 O1726 O 0.21105 0.77615 0.78711
 O1727 O 0.23706 0.70956 0.78483
 O1728 O 0.26511 0.70744 0.76738
 Zr1729 Zr 0.24002 0.71601 0.75811
 O1730 O 0.25593 0.73105 0.74138
 Zr1731 Zr 0.22160 0.75183 0.77708
 O1732 O 0.23728 0.76834 0.76164
 Zr1733 Zr 0.20323 0.73382 0.74193
 O1734 O 0.21762 0.74997 0.72489
 Zr1735 Zr 0.26099 0.75532 0.75376
 O1736 O 0.24642 0.73963 0.77134
 Zr1737 Zr 0.24218 0.73770 0.71859
 O1738 O 0.22701 0.72072 0.73427
 Zr1739 Zr 0.22419 0.77343 0.73808
 O1740 O 0.20758 0.75832 0.75433
 O1741 O 0.21579 0.72783 0.76525
 O1742 O 0.24836 0.76166 0.73047
 C1743 C 0.20684 0.69372 0.75076
 C1744 C 0.23171 0.71858 0.79845
 C1745 C 0.18172 0.74181 0.77647
 C1746 C 0.25887 0.79467 0.74350
 C1747 C 0.28191 0.74810 0.71868
 C1748 C 0.23458 0.77240 0.69831
 H1749 H 0.26706 0.72436 0.73867
 H1750 H 0.21058 0.75229 0.71431
 H1751 H 0.20865 0.72028 0.77296
 H1752 H 0.23971 0.77928 0.76836
 H1753 H 0.26952 0.76031 0.78614
 H1754 H 0.24265 0.76887 0.79719
 H1755 H 0.21941 0.73257 0.69383
 H1756 H 0.20109 0.71506 0.71352
 H1757 H 0.29351 0.74775 0.76252
 H1758 H 0.26367 0.69628 0.77380
 H1759 H 0.19564 0.77767 0.71996
 H1760 H 0.17911 0.75745 0.73607
 H1761 H 0.24608 0.69286 0.73329
 H1762 H 0.26187 0.70960 0.71327
 H1763 H 0.20077 0.77933 0.77978
 H1764 H 0.21873 0.79900 0.76085
 O1765 O 0.19933 0.25848 0.21647
 O1766 O 0.21278 0.28586 0.21474
 O1767 O 0.24137 0.22057 0.21243
 O1768 O 0.26617 0.21361 0.22656
 O1769 O 0.20174 0.21731 0.25424
 O1770 O 0.19693 0.23260 0.28137
 O1771 O 0.28653 0.26474 0.26174
 O1772 O 0.28846 0.25396 0.23345
 O1773 O 0.24675 0.30403 0.26367
 O1774 O 0.21600 0.30602 0.25450
 O1775 O 0.24688 0.26468 0.30125
 O1776 O 0.23800 0.23433 0.30209
 O1777 O 0.27490 0.25129 0.28562
 O1778 O 0.25856 0.22287 0.28911
 O1779 O 0.23370 0.28932 0.29047
 O1780 O 0.20495 0.29379 0.27498
 O1781 O 0.27167 0.29224 0.25060
 O1782 O 0.27263 0.27821 0.22070
 O1783 O 0.18693 0.24638 0.24077
 O1784 O 0.18565 0.25576 0.27150
 O1785 O 0.22640 0.20518 0.24098
 O1786 O 0.25742 0.20470 0.25142
 O1787 O 0.22818 0.24535 0.20188
 O1788 O 0.23924 0.27556 0.20311
 Zr1789 Zr 0.22563 0.26262 0.22362
 O1790 O 0.24111 0.27908 0.23935
 Zr1791 Zr 0.24421 0.22618 0.23947
 O1792 O 0.26095 0.24122 0.25544
 Zr1793 Zr 0.20799 0.24385 0.25862
 O1794 O 0.22315 0.25914 0.27591
 Zr1795 Zr 0.26518 0.26602 0.24450
 O1796 O 0.25045 0.25003 0.22725
 Zr1797 Zr 0.22893 0.28315 0.26405
 O1798 O 0.21220 0.26856 0.24751
 Zr1799 Zr 0.24810 0.24695 0.27961
 O1800 O 0.23190 0.23037 0.26425
 O1801 O 0.22002 0.23831 0.23439
 O1802 O 0.25350 0.27140 0.26906
 C1803 C 0.18615 0.25217 0.22498
 C1804 C 0.23490 0.22974 0.19988
 C1805 C 0.21060 0.20416 0.24744
 C1806 C 0.28780 0.25829 0.27717
 C1807 C 0.26275 0.30512 0.25787
 C1808 C 0.24078 0.28060 0.30293
 H1809 H 0.24307 0.29027 0.23322
 H1810 H 0.21656 0.26094 0.28714
 H1811 H 0.21274 0.23088 0.22664
 H1812 H 0.27230 0.23469 0.25689
 H1813 H 0.28497 0.24824 0.22227
 H1814 H 0.27658 0.22080 0.22917
 H1815 H 0.20156 0.28647 0.28506
 H1816 H 0.18389 0.26751 0.26626
 H1817 H 0.28429 0.28370 0.22244
 H1818 H 0.23240 0.27438 0.19214
 H1819 H 0.22601 0.23937 0.30461
 H1820 H 0.20624 0.22473 0.28615
 H1821 H 0.20468 0.29012 0.22433
 H1822 H 0.22143 0.30868 0.24298
 H1823 H 0.25062 0.20208 0.26225
 H1824 H 0.26922 0.21960 0.28194
 O1825 O 0.79353 0.71174 0.24645
 O1826 O 0.79716 0.72643 0.22030
 O1827 O 0.79845 0.75145 0.28646
 O1828 O 0.78528 0.77684 0.29455
 O1829 O 0.75401 0.71578 0.28814
 O1830 O 0.72744 0.71358 0.27252
 O1831 O 0.75243 0.80271 0.24494
 O1832 O 0.78058 0.80159 0.25570
 O1833 O 0.74984 0.76552 0.20404
 O1834 O 0.75732 0.73458 0.20023
 O1835 O 0.71055 0.76628 0.24377
 O1836 O 0.70894 0.75632 0.27379
 O1837 O 0.72704 0.79228 0.25692
 O1838 O 0.72232 0.77583 0.28522
 O1839 O 0.72136 0.75362 0.21846
 O1840 O 0.73638 0.72418 0.21233
 O1841 O 0.76399 0.78837 0.21690
 O1842 O 0.79354 0.78602 0.23073
 O1843 O 0.76828 0.70109 0.25854
 O1844 O 0.73773 0.70289 0.24907
 O1845 O 0.76834 0.73838 0.30121
 O1846 O 0.75948 0.76997 0.30311
 O1847 O 0.80941 0.73879 0.26116
 O1848 O 0.80947 0.75126 0.23145
 Zr1849 Zr 0.78789 0.73880 0.24397
 O1850 O 0.77321 0.75636 0.22846
 Zr1851 Zr 0.77159 0.75684 0.28111
 O1852 O 0.75677 0.77561 0.26709
 Zr1853 Zr 0.75122 0.72341 0.26196
 O1854 O 0.73496 0.74072 0.24763
 Zr1855 Zr 0.76880 0.78007 0.24260
 O1856 O 0.78498 0.76314 0.25764
 Zr1857 Zr 0.74784 0.74671 0.22392
 O1858 O 0.76335 0.72795 0.23751
 Zr1859 Zr 0.73206 0.76518 0.26095
 O1860 O 0.74623 0.74693 0.27651
 O1861 O 0.77602 0.73292 0.26796
 O1862 O 0.74366 0.77091 0.23681
 C1863 C 0.78415 0.69907 0.25221
 C1864 C 0.81118 0.74462 0.27697
 C1865 C 0.76068 0.72343 0.30161
 C1866 C 0.73642 0.80476 0.25071
 C1867 C 0.75672 0.78086 0.20368
 C1868 C 0.70882 0.76097 0.22780
 H1869 H 0.77983 0.75833 0.21738
 H1870 H 0.72342 0.73516 0.24570
 H1871 H 0.78321 0.72464 0.27497
 H1872 H 0.75560 0.78671 0.27406
 H1873 H 0.79152 0.79689 0.26109
 H1874 H 0.78325 0.78782 0.28801
 H1875 H 0.72587 0.72121 0.21951
 H1876 H 0.74343 0.70123 0.23734
 H1877 H 0.79258 0.79807 0.22595
 H1878 H 0.82027 0.74365 0.23245
 H1879 H 0.70563 0.74513 0.26798
 H1880 H 0.72258 0.72283 0.28070
 H1881 H 0.78711 0.71992 0.21537
 H1882 H 0.76951 0.73864 0.19809
 H1883 H 0.74798 0.76431 0.30522
 H1884 H 0.72968 0.78597 0.28846
 O1885 O 0.71800 0.25166 0.78532
 O1886 O 0.73091 0.22359 0.78823
 O1887 O 0.76150 0.28646 0.78987
 O1888 O 0.78690 0.29163 0.77591
 O1889 O 0.72399 0.29223 0.74710
 O1890 O 0.72007 0.27676 0.72012
 O1891 O 0.80752 0.23854 0.74259
 O1892 O 0.80790 0.24938 0.77089
 O1893 O 0.76649 0.20183 0.74055
 O1894 O 0.73526 0.20246 0.74847
 O1895 O 0.76936 0.24094 0.70172
 O1896 O 0.76240 0.27167 0.70042
 O1897 O 0.79745 0.25158 0.71788
 O1898 O 0.78251 0.28161 0.71385
 O1899 O 0.75569 0.21706 0.71270
 O1900 O 0.72583 0.21520 0.72761
 O1901 O 0.79145 0.21234 0.75289
 O1902 O 0.79086 0.22605 0.78299
 O1903 O 0.70737 0.26433 0.76058
 O1904 O 0.70757 0.25478 0.73001
 O1905 O 0.74824 0.30252 0.76091
 O1906 O 0.77981 0.30041 0.75087
 O1907 O 0.74564 0.26366 0.80037
 O1908 O 0.75698 0.23268 0.80018
 Zr1909 Zr 0.74461 0.24576 0.77904
 O1910 O 0.76038 0.22779 0.76392
 Zr1911 Zr 0.76527 0.28027 0.76296
 O1912 O 0.78235 0.26371 0.74764
 Zr1913 Zr 0.72953 0.26512 0.74329
 O1914 O 0.74513 0.24835 0.72663
 Zr1915 Zr 0.78511 0.23887 0.75911
 O1916 O 0.77001 0.25628 0.77579
 Zr1917 Zr 0.74951 0.22412 0.73897
 O1918 O 0.73238 0.24032 0.75492
 Zr1919 Zr 0.77061 0.25855 0.72330
 O1920 O 0.75414 0.27663 0.73800
 O1921 O 0.74039 0.27020 0.76767
 O1922 O 0.77467 0.23392 0.73434
 C1923 C 0.70550 0.25872 0.77637
 C1924 C 0.75322 0.27855 0.80222
 C1925 C 0.73292 0.30474 0.75400
 C1926 C 0.80975 0.24416 0.72691
 C1927 C 0.78239 0.19989 0.74610
 C1928 C 0.76312 0.22540 0.70014
 H1929 H 0.76165 0.21658 0.77027
 H1930 H 0.73907 0.24690 0.71530
 H1931 H 0.73285 0.27831 0.77507
 H1932 H 0.79397 0.26933 0.74636
 H1933 H 0.80385 0.25525 0.78202
 H1934 H 0.79704 0.28326 0.77428
 H1935 H 0.72341 0.22242 0.71719
 H1936 H 0.70529 0.24315 0.73519
 H1937 H 0.80249 0.21980 0.78151
 H1938 H 0.74961 0.23467 0.81097
 H1939 H 0.75010 0.26817 0.69809
 H1940 H 0.72973 0.28413 0.71560
 H1941 H 0.72324 0.21960 0.77857
 H1942 H 0.73976 0.19973 0.76027
 H1943 H 0.77358 0.30345 0.73994
 H1944 H 0.79317 0.28379 0.72090
 C1945 C 0.05428 1.01593 1.16237
 C1946 C 0.06330 1.01136 1.14638
 C1947 C 0.08134 1.00588 1.14740
 C1948 C 0.08970 1.00477 1.16367
 C1949 C 0.08048 1.00893 1.17935
 C1950 C 0.06278 1.01474 1.17853
 C1951 C 0.09101 1.00139 1.13221
 C1952 C 0.08317 1.00180 1.11589
 C1953 C 0.06515 1.00673 1.11404
 C1954 C 0.05509 1.01183 1.12950
 C1955 C 0.03715 1.01708 1.12756
 C1956 C 0.02921 1.01703 1.11120
 C1957 C 0.03870 1.01173 1.09609
 C1958 C 0.05683 1.00659 1.09724
 C1959 C 0.06582 1.00129 1.08150
 C1960 C 0.05714 1.00091 1.06549
 C1961 C 0.03919 1.00581 1.06441
 C1962 C 0.03009 1.01139 1.07981
 H1963 H 0.04061 1.02031 1.16292
 H1964 H 0.10353 1.00063 1.16414
 H1965 H 0.05535 1.01801 1.19047
 H1966 H 0.10485 0.99734 1.13294
 H1967 H 0.09173 0.99807 1.10496
 H1968 H 0.02877 1.02126 1.13848
 H1969 H 0.01537 1.02105 1.11042
 H1970 H 0.07956 0.99718 1.08098
 H1971 H 0.06464 0.99667 1.05386
 H1972 H 0.01619 1.01525 1.07920
 C1973 C 0.55175 0.51220 0.66241
 C1974 C 0.56042 0.50688 0.64644
 C1975 C 0.57838 0.50112 0.64736
 C1976 C 0.58704 0.50056 0.66350
 C1977 C 0.57817 0.50548 0.67917
 C1978 C 0.56053 0.51151 0.67846
 C1979 C 0.58771 0.49580 0.63220
 C1980 C 0.57956 0.49562 0.61604
 C1981 C 0.56159 0.50080 0.61432
 C1982 C 0.55194 0.50689 0.62970
 C1983 C 0.53418 0.51273 0.62778
 C1984 C 0.52604 0.51243 0.61153
 C1985 C 0.53512 0.50613 0.59652
 C1986 C 0.55300 0.50014 0.59769
 C1987 C 0.56148 0.49355 0.58214
 C1988 C 0.55269 0.49315 0.56621
 C1989 C 0.53509 0.49925 0.56502
 C1990 C 0.52637 0.50573 0.58030
 H1991 H 0.53813 0.51672 0.66305
 H1992 H 0.60082 0.49625 0.66385
 H1993 H 0.55336 0.51533 0.69041
 H1994 H 0.60150 0.49157 0.63284
 H1995 H 0.58790 0.49140 0.60510
 H1996 H 0.52614 0.51775 0.63864
 H1997 H 0.51238 0.51707 0.61073
 H1998 H 0.57487 0.48838 0.58173
 H1999 H 0.55985 0.48800 0.55472
 H2000 H 0.51273 0.51044 0.57963
 C2001 C 0.41062 0.00163 0.64704
 C2002 C 0.42798 -0.00507 0.64339
 C2003 C 0.43711 -0.01339 0.65726
 C2004 C 0.42894 -0.01519 0.67384
 C2005 C 0.41161 -0.00883 0.67704
 C2006 C 0.40266 -0.00026 0.66353
 C2007 C 0.45431 -0.02002 0.65451
 C2008 C 0.46273 -0.01870 0.63827
 C2009 C 0.45422 -0.01073 0.62393
 C2010 C 0.43653 -0.00384 0.62652
 C2011 C 0.42790 0.00384 0.61210
 C2012 C 0.43616 0.00479 0.59575
 C2013 C 0.45338 -0.00179 0.59301
 C2014 C 0.46275 -0.00956 0.60704
 C2015 C 0.48026 -0.01586 0.60348
 C2016 C 0.48793 -0.01468 0.58676
 C2017 C 0.47853 -0.00717 0.57291
 C2018 C 0.46124 -0.00069 0.57621
 H2019 H 0.40276 0.00846 0.63752
 H2020 H 0.43598 -0.02191 0.68418
 H2021 H 0.38939 0.00516 0.66575
 H2022 H 0.46136 -0.02637 0.66505
 H2023 H 0.47596 -0.02427 0.63740
 H2024 H 0.41457 0.00917 0.61289
 H2025 H 0.42893 0.01073 0.58508
 H2026 H 0.48850 -0.02179 0.61327
 H2027 H 0.50133 -0.01978 0.58471
 H2028 H 0.45379 0.00521 0.56567
 C2029 C -0.08964 0.50658 1.14868
 C2030 C -0.07206 0.50046 1.14507
 C2031 C -0.06272 0.49236 1.15893
 C2032 C -0.07085 0.49029 1.17549
 C2033 C -0.08833 0.49622 1.17870
 C2034 C -0.09754 0.50447 1.16517
 C2035 C -0.04533 0.48629 1.15621
 C2036 C -0.03688 0.48800 1.14002
 C2037 C -0.04557 0.49583 1.12572
 C2038 C -0.06350 0.50208 1.12826
 C2039 C -0.07232 0.50958 1.11385
 C2040 C -0.06404 0.51089 1.09756
 C2041 C -0.04662 0.50490 1.09486
 C2042 C -0.03702 0.49742 1.10888
 C2043 C -0.01928 0.49179 1.10537
 C2044 C -0.01167 0.49318 1.08864
 C2045 C -0.02134 0.50027 1.07477
 C2046 C -0.03881 0.50626 1.07808
 H2047 H -0.09769 0.51316 1.13916
 H2048 H -0.06361 0.48380 1.18582
 H2049 H -0.11093 0.50956 1.16738
 H2050 H -0.03811 0.48009 1.16674
 H2051 H -0.02349 0.48284 1.13916
 H2052 H -0.08581 0.51445 1.11461
 H2053 H -0.07143 0.51662 1.08689
 H2054 H -0.01085 0.48619 1.11519
 H2055 H 0.00188 0.48850 1.08658
 H2056 H -0.04648 0.51184 1.06752
 C2057 C -0.06177 0.51156 0.33490
 C2058 C -0.06804 0.50329 0.35024
 C2059 C -0.08375 0.49355 0.34884
 C2060 C -0.09233 0.49177 0.33271
 C2061 C -0.08586 0.49973 0.31740
 C2062 C -0.07054 0.50987 0.31891
 C2063 C -0.09097 0.48559 0.36357
 C2064 C -0.08298 0.48701 0.37977
 C2065 C -0.06719 0.49638 0.38194
 C2066 C -0.05939 0.50438 0.36687
 C2067 C -0.04307 0.51289 0.36889
 C2068 C -0.03465 0.51356 0.38499
 C2069 C -0.04222 0.50608 0.39984
 C2070 C -0.05876 0.49768 0.39863
 C2071 C -0.06618 0.49092 0.41423
 C2072 C -0.05722 0.49181 0.43007
 C2073 C -0.04056 0.49952 0.43111
 C2074 C -0.03325 0.50685 0.41592
 H2075 H -0.05014 0.51951 0.33476
 H2076 H -0.10462 0.48469 0.33246
 H2077 H -0.06469 0.51605 0.30759
 H2078 H -0.10299 0.47811 0.36257
 H2079 H -0.08940 0.48021 0.39029
 H2080 H -0.03620 0.51889 0.35813
 H2081 H -0.02203 0.52003 0.38582
 H2082 H -0.07896 0.48494 0.41478
 H2083 H -0.06342 0.48625 0.44157
 H2084 H -0.02047 0.51307 0.41653
 C2085 C 0.40568 0.98506 -0.15034
 C2086 C 0.42259 0.99211 -0.14729
 C2087 C 0.43218 0.99830 -0.16203
 C2088 C 0.42511 0.99722 -0.17900
 C2089 C 0.40848 0.98990 -0.18175
 C2090 C 0.39884 0.98400 -0.16723
 C2091 C 0.44886 1.00543 -0.15982
 C2092 C 0.45642 1.00644 -0.14333
 C2093 C 0.44757 1.00029 -0.12822
 C2094 C 0.43031 0.99311 -0.13022
 C2095 C 0.42142 0.98705 -0.11510
 C2096 C 0.42912 0.98771 -0.09868
 C2097 C 0.44597 0.99443 -0.09654
 C2098 C 0.45545 1.00094 -0.11120
 C2099 C 0.47249 1.00768 -0.10814
 C2100 C 0.47978 1.00768 -0.09140
 C2101 C 0.47043 1.00101 -0.07702
 C2102 C 0.45343 0.99452 -0.07973
 H2103 H 0.39732 0.98018 -0.14003
 H2104 H 0.43273 1.00176 -0.19016
 H2105 H 0.38579 0.97863 -0.16889
 H2106 H 0.45624 1.01023 -0.17102
 H2107 H 0.46935 1.01208 -0.14295
 H2108 H 0.40841 0.98158 -0.11544
 H2109 H 0.42178 0.98278 -0.08752
 H2110 H 0.48066 1.01300 -0.11838
 H2111 H 0.49292 1.01285 -0.08978
 H2112 H 0.44597 0.98937 -0.06875
 C2113 C 0.55603 0.48702 -0.16461
 C2114 C 0.56370 0.49395 -0.14914
 C2115 C 0.58015 0.50244 -0.15096
 C2116 C 0.58830 0.50402 -0.16751
 C2117 C 0.58065 0.49692 -0.18264
 C2118 C 0.56441 0.48850 -0.18102
 C2119 C 0.58851 0.50930 -0.13626
 C2120 C 0.58112 0.50772 -0.11961
 C2121 C 0.56483 0.49930 -0.11696
 C2122 C 0.55574 0.49268 -0.13199
 C2123 C 0.53894 0.48524 -0.12938
 C2124 C 0.53127 0.48429 -0.11272
 C2125 C 0.54009 0.49039 -0.09793
 C2126 C 0.55715 0.49765 -0.09977
 C2127 C 0.56583 0.50296 -0.08426
 C2128 C 0.55754 0.50194 -0.06786
 C2129 C 0.54036 0.49550 -0.06615
 C2130 C 0.53184 0.48943 -0.08128
 H2131 H 0.54374 0.48010 -0.16451
 H2132 H 0.60071 0.51086 -0.16859
 H2133 H 0.55830 0.48264 -0.19244
 H2134 H 0.60103 0.51592 -0.13761
 H2135 H 0.58844 0.51362 -0.10910
 H2136 H 0.53114 0.48030 -0.14003
 H2137 H 0.51824 0.47869 -0.11142
 H2138 H 0.57908 0.50789 -0.08425
 H2139 H 0.56466 0.50645 -0.05644
 H2140 H 0.51863 0.48420 -0.08018
 C2141 C 0.05456 -0.01205 0.33529
 C2142 C 0.06220 -0.00571 0.35102
 C2143 C 0.07878 0.00260 0.34959
 C2144 C 0.08708 0.00458 0.33317
 C2145 C 0.07951 -0.00200 0.31777
 C2146 C 0.06312 -0.01024 0.31900
 C2147 C 0.08715 0.00885 0.36455
 C2148 C 0.07966 0.00676 0.38108
 C2149 C 0.06326 -0.00155 0.38336
 C2150 C 0.05411 -0.00743 0.36806
 C2151 C 0.03713 -0.01457 0.37033
 C2152 C 0.02934 -0.01592 0.38690
 C2153 C 0.03825 -0.01061 0.40194
 C2154 C 0.05551 -0.00375 0.40043
 C2155 C 0.06432 0.00062 0.41613
 C2156 C 0.05594 -0.00075 0.43246
 C2157 C 0.03853 -0.00664 0.43387
 C2158 C 0.02989 -0.01193 0.41852
 H2159 H 0.04219 -0.01884 0.33510
 H2160 H 0.09959 0.01129 0.33240
 H2161 H 0.05705 -0.01570 0.30738
 H2162 H 0.09975 0.01535 0.36350
 H2163 H 0.08698 0.01222 0.39183
 H2164 H 0.02926 -0.01890 0.35947
 H2165 H 0.01615 -0.02122 0.38795
 H2166 H 0.07776 0.00506 0.41635
 H2167 H 0.06317 0.00309 0.44404
 H2168 H 0.01650 -0.01675 0.41939
 C2169 C 0.15178 1.09052 0.98304
 C2170 C 0.14698 1.07614 0.99358
 C2171 C 0.16033 1.06834 1.00405
 C2172 C 0.17747 1.07521 1.00437
 C2173 C 0.18165 1.08994 0.99446
 C2174 C 0.16877 1.09729 0.98359
 C2175 C 0.15646 1.05392 1.01438
 C2176 C 0.13958 1.04704 1.01470
 C2177 C 0.12571 1.05445 1.00477
 C2178 C 0.12945 1.06934 0.99413
 C2179 C 0.11547 1.07710 0.98460
 C2180 C 0.09853 1.07044 0.98515
 C2181 C 0.09474 1.05577 0.99514
 C2182 C 0.10820 1.04753 1.00514
 C2183 C 0.10353 1.03260 1.01496
 C2184 C 0.08642 1.02605 1.01453
 C2185 C 0.07327 1.03415 1.00445
 C2186 C 0.07752 1.04918 0.99498
 H2187 H 0.14279 1.09695 0.97425
 H2188 H 0.18739 1.06946 1.01284
 H2189 H 0.17183 1.10847 0.97552
 H2190 H 0.16660 1.04789 1.02238
 H2191 H 0.13784 1.03594 1.02311
 H2192 H 0.11707 1.08853 0.97662
 H2193 H 0.08827 1.07684 0.97757
 H2194 H 0.11279 1.02545 1.02294
 H2195 H 0.08353 1.01446 1.02207
 H2196 H 0.06750 1.05554 0.98705
 C2197 C 0.64747 0.58583 0.47691
 C2198 C 0.64251 0.57275 0.48894
 C2199 C 0.65545 0.56682 0.50094
 C2200 C 0.67223 0.57444 0.50138
 C2201 C 0.67658 0.58796 0.48990
 C2202 C 0.66417 0.59329 0.47747
 C2203 C 0.65152 0.55353 0.51266
 C2204 C 0.63498 0.54591 0.51284
 C2205 C 0.62148 0.55153 0.50143
 C2206 C 0.62520 0.56541 0.48951
 C2207 C 0.61139 0.57180 0.47887
 C2208 C 0.59461 0.56474 0.47960
 C2209 C 0.59091 0.55090 0.49075
 C2210 C 0.60429 0.54393 0.50171
 C2211 C 0.59986 0.52953 0.51239
 C2212 C 0.58293 0.52254 0.51220
 C2213 C 0.56975 0.52965 0.50150
 C2214 C 0.57384 0.54392 0.49087
 H2215 H 0.63884 0.59060 0.46682
 H2216 H 0.68172 0.57022 0.51108
 H2217 H 0.66737 0.60338 0.46812
 H2218 H 0.66136 0.54894 0.52186
 H2219 H 0.63311 0.53586 0.52245
 H2220 H 0.61296 0.58257 0.47002
 H2221 H 0.58442 0.57017 0.47125
 H2222 H 0.60921 0.52311 0.52084
 H2223 H 0.58018 0.51147 0.52053
 H2224 H 0.56382 0.54941 0.48235
 C2225 C 0.67307 0.44999 -0.00960
 C2226 C 0.65707 0.44077 -0.00730
 C2227 C 0.65848 0.42250 -0.00380
 C2228 C 0.67511 0.41408 -0.00240
 C2229 C 0.69076 0.42346 -0.00428
 C2230 C 0.68959 0.44141 -0.00813
 C2231 C 0.64333 0.41265 -0.00154
 C2232 C 0.62663 0.42053 -0.00218
 C2233 C 0.62435 0.43877 -0.00512
 C2234 C 0.63979 0.44901 -0.00811
 C2235 C 0.63742 0.46711 -0.01167
 C2236 C 0.62065 0.47507 -0.01185
 C2237 C 0.60554 0.46541 -0.00839
 C2238 C 0.60712 0.44711 -0.00503
 C2239 C 0.59136 0.43800 -0.00139
 C2240 C 0.57492 0.44673 -0.00088
 C2241 C 0.57342 0.46483 -0.00403
 C2242 C 0.58882 0.47406 -0.00802
 H2243 H 0.67334 0.46386 -0.01230
 H2244 H 0.67587 0.40007 0.00018
 H2245 H 0.70150 0.44897 -0.00962
 H2246 H 0.64437 0.39863 0.00094
 H2247 H 0.61575 0.41183 -0.00029
 H2248 H 0.64831 0.47561 -0.01437
 H2249 H 0.61954 0.48903 -0.01453
 H2250 H 0.59118 0.42416 0.00141
 H2251 H 0.56329 0.43916 0.00211
 H2252 H 0.58788 0.48808 -0.01045
 C2253 C 0.17063 -0.05175 0.49375
 C2254 C 0.15472 -0.06091 0.49676
 C2255 C 0.15630 -0.07882 0.50167
 C2256 C 0.17300 -0.08696 0.50361
 C2257 C 0.18856 -0.07764 0.50083
 C2258 C 0.18721 -0.06003 0.49573
 C2259 C 0.14121 -0.08859 0.50470
 C2260 C 0.12444 -0.08098 0.50333
 C2261 C 0.12201 -0.06311 0.49884
 C2262 C 0.13739 -0.05295 0.49527
 C2263 C 0.13490 -0.03517 0.49047
 C2264 C 0.11809 -0.02744 0.48958
 C2265 C 0.10302 -0.03702 0.49343
 C2266 C 0.10470 -0.05502 0.49798
 C2267 C 0.08894 -0.06409 0.50175
 C2268 C 0.07241 -0.05553 0.50142
 C2269 C 0.07084 -0.03766 0.49724
 C2270 C 0.08625 -0.02855 0.49299
 H2271 H 0.17079 -0.03814 0.48998
 H2272 H 0.17390 -0.10072 0.50721
 H2273 H 0.19904 -0.05251 0.49356
 H2274 H 0.14237 -0.10233 0.50832
 H2275 H 0.11363 -0.08958 0.50596
 H2276 H 0.14574 -0.02674 0.48738
 H2277 H 0.11689 -0.01370 0.48599
 H2278 H 0.08880 -0.07777 0.50524
 H2279 H 0.06078 -0.06301 0.50462
 H2280 H 0.08526 -0.01472 0.48972
 C2281 C 0.34632 -0.05493 0.52364
 C2282 C 0.36177 -0.06279 0.51572
 C2283 C 0.36005 -0.07949 0.50732
 C2284 C 0.34360 -0.08769 0.50676
 C2285 C 0.32848 -0.07975 0.51467
 C2286 C 0.33002 -0.06329 0.52308
 C2287 C 0.37473 -0.08801 0.49944
 C2288 C 0.39125 -0.08046 0.49976
 C2289 C 0.39382 -0.06388 0.50795
 C2290 C 0.37879 -0.05475 0.51583
 C2291 C 0.38127 -0.03786 0.52338
 C2292 C 0.39776 -0.03011 0.52325
 C2293 C 0.41255 -0.03890 0.51582
 C2294 C 0.41088 -0.05600 0.50826
 C2295 C 0.42643 -0.06450 0.50134
 C2296 C 0.44269 -0.05617 0.50147
 C2297 C 0.44420 -0.03909 0.50852
 C2298 C 0.42903 -0.03060 0.51584
 H2299 H 0.34636 -0.04241 0.53053
 H2300 H 0.34255 -0.10027 0.49992
 H2301 H 0.31861 -0.05694 0.52951
 H2302 H 0.37344 -0.10074 0.49294
 H2303 H 0.40173 -0.08797 0.49319
 H2304 H 0.37062 -0.03007 0.52935
 H2305 H 0.39895 -0.01705 0.52907
 H2306 H 0.42662 -0.07765 0.49579
 H2307 H 0.45414 -0.06321 0.49587
 H2308 H 0.42999 -0.01744 0.52149
 C2309 C -0.13678 0.41171 0.99368
 C2310 C -0.13223 0.42677 1.00375
 C2311 C -0.14591 0.43542 1.01386
 C2312 C -0.16321 0.42893 1.01406
 C2313 C -0.16730 0.41377 1.00432
 C2314 C -0.15397 0.40539 0.99403
 C2315 C -0.14227 0.45046 1.02380
 C2316 C -0.12536 0.45726 1.02393
 C2317 C -0.11123 0.44918 1.01415
 C2318 C -0.11467 0.43354 1.00407
 C2319 C -0.10042 0.42512 0.99475
 C2320 C -0.08352 0.43188 0.99490
 C2321 C -0.08002 0.44731 1.00429
 C2322 C -0.09376 0.45619 1.01410
 C2323 C -0.08940 0.47185 1.02331
 C2324 C -0.07231 0.47842 1.02253
 C2325 C -0.05885 0.46967 1.01265
 C2326 C -0.06281 0.45398 1.00372
 H2327 H -0.12747 0.40451 0.98527
 H2328 H -0.17344 0.43549 1.02211
 H2329 H -0.15687 0.39387 0.98605
 H2330 H -0.15265 0.45711 1.03158
 H2331 H -0.12383 0.46890 1.03201
 H2332 H -0.10181 0.41312 0.98719
 H2333 H -0.07305 0.42497 0.98747
 H2334 H -0.09888 0.47954 1.03108
 H2335 H -0.06969 0.49055 1.02966
 H2336 H -0.05256 0.44707 0.99599
 C2337 C -0.15228 0.59155 0.51230
 C2338 C -0.14746 0.57584 0.50288
 C2339 C -0.16103 0.56700 0.49379
 C2340 C -0.17849 0.57381 0.49405
 C2341 C -0.18292 0.58947 0.50326
 C2342 C -0.16967 0.59819 0.51243
 C2343 C -0.15716 0.55144 0.48441
 C2344 C -0.14008 0.54431 0.48378
 C2345 C -0.12603 0.55253 0.49253
 C2346 C -0.12975 0.56862 0.50217
 C2347 C -0.11565 0.57696 0.51073
 C2348 C -0.09858 0.56977 0.51016
 C2349 C -0.09478 0.55399 0.50108
 C2350 C -0.10839 0.54515 0.49205
 C2351 C -0.10372 0.52917 0.48305
 C2352 C -0.08649 0.52221 0.48336
 C2353 C -0.07319 0.53087 0.49253
 C2354 C -0.07741 0.54692 0.50118
 H2355 H -0.14298 0.59914 0.51967
 H2356 H -0.18870 0.56682 0.48711
 H2357 H -0.17266 0.61046 0.51947
 H2358 H -0.16748 0.54464 0.47744
 H2359 H -0.13841 0.53225 0.47621
 H2360 H -0.11729 0.58916 0.51806
 H2361 H -0.08822 0.57662 0.51702
 H2362 H -0.11304 0.52155 0.47574
 H2363 H -0.08363 0.50986 0.47641
 H2364 H -0.06726 0.55376 0.50834
 C2365 C 0.35660 1.09704 -0.00206
 C2366 C 0.36053 1.07980 -0.00867
 C2367 C 0.34612 1.06950 -0.01423
 C2368 C 0.32861 1.07614 -0.01276
 C2369 C 0.32501 1.09304 -0.00571
 C2370 C 0.33918 1.10345 -0.00062
 C2371 C 0.34920 1.05253 -0.02105
 C2372 C 0.36624 1.04532 -0.02223
 C2373 C 0.38104 1.05481 -0.01650
 C2374 C 0.37815 1.07240 -0.00972
 C2375 C 0.39293 1.08187 -0.00393
 C2376 C 0.40985 1.07436 -0.00431
 C2377 C 0.41285 1.05717 -0.01054
 C2378 C 0.39859 1.04719 -0.01699
 C2379 C 0.40253 1.02989 -0.02342
 C2380 C 0.41968 1.02271 -0.02283
 C2381 C 0.43359 1.03244 -0.01590
 C2382 C 0.43008 1.04981 -0.01006
 H2383 H 0.36660 1.10599 0.00218
 H2384 H 0.31772 1.06796 -0.01672
 H2385 H 0.33682 1.11675 0.00445
 H2386 H 0.33826 1.04463 -0.02542
 H2387 H 0.36728 1.03208 -0.02752
 H2388 H 0.39192 1.09515 0.00124
 H2389 H 0.42072 1.08209 0.00052
 H2390 H 0.39270 1.02141 -0.02887
 H2391 H 0.42194 1.00930 -0.02763
 H2392 H 0.44073 1.05759 -0.00482
 C2393 C 0.00849 1.16795 1.05264
 C2394 C 0.00310 1.15195 1.06021
 C2395 C -0.00519 1.15300 1.07706
 C2396 C -0.00826 1.16935 1.08561
 C2397 C -0.00290 1.18500 1.07790
 C2398 C 0.00558 1.18414 1.06142
 C2399 C -0.01033 1.13773 1.08543
 C2400 C -0.00735 1.12130 1.07757
 C2401 C 0.00078 1.11942 1.06078
 C2402 C 0.00572 1.13501 1.05176
 C2403 C 0.01279 1.13314 1.03452
 C2404 C 0.01488 1.11668 1.02632
 C2405 C 0.01037 1.10137 1.03502
 C2406 C 0.00367 1.10246 1.05253
 C2407 C 0.00007 1.08648 1.06103
 C2408 C 0.00198 1.07031 1.05218
 C2409 C 0.00769 1.06932 1.03457
 C2410 C 0.01227 1.08494 1.02619
 H2411 H 0.01521 1.16844 1.04009
 H2412 H -0.01449 1.16987 1.09855
 H2413 H 0.00990 1.19608 1.05523
 H2414 H -0.01674 1.13848 1.09828
 H2415 H -0.01202 1.11030 1.08492
 H2416 H 0.01648 1.14424 1.02676
 H2417 H 0.02006 1.11596 1.01296
 H2418 H -0.00422 1.08592 1.07456
 H2419 H -0.00129 1.05849 1.05919
 H2420 H 0.01692 1.08439 1.01264
 C2421 C 0.50535 0.66293 0.55442
 C2422 C 0.49861 0.64714 0.56131
 C2423 C 0.48934 0.64836 0.57765
 C2424 C 0.48672 0.66468 0.58640
 C2425 C 0.49345 0.68013 0.57939
 C2426 C 0.50283 0.67909 0.56338
 C2427 C 0.48275 0.63328 0.58532
 C2428 C 0.48527 0.61686 0.57728
 C2429 C 0.49441 0.61481 0.56101
 C2430 C 0.50083 0.63024 0.55267
 C2431 C 0.50902 0.62826 0.53592
 C2432 C 0.51091 0.61184 0.52759
 C2433 C 0.50504 0.59665 0.53569
 C2434 C 0.49700 0.59786 0.55265
 C2435 C 0.49192 0.58198 0.56056
 C2436 C 0.49399 0.56583 0.55170
 C2437 C 0.50129 0.56472 0.53466
 C2438 C 0.50704 0.58023 0.52683
 H2439 H 0.51282 0.66328 0.54228
 H2440 H 0.47975 0.66530 0.59897
 H2441 H 0.50817 0.69086 0.55768
 H2442 H 0.47558 0.63416 0.59777
 H2443 H 0.47951 0.60604 0.58409
 H2444 H 0.51386 0.63924 0.52865
 H2445 H 0.51709 0.61103 0.51464
 H2446 H 0.48639 0.58147 0.57365
 H2447 H 0.48966 0.55412 0.55831
 H2448 H 0.51289 0.57960 0.51373
 C2449 C 0.01842 0.64112 0.40548
 C2450 C 0.00762 0.63717 0.42022
 C2451 C -0.00151 0.65146 0.42893
 C2452 C 0.00019 0.66880 0.42305
 C2453 C 0.01072 0.67237 0.40830
 C2454 C 0.01984 0.65839 0.39965
 C2455 C -0.01247 0.64840 0.44338
 C2456 C -0.01469 0.63146 0.44947
 C2457 C -0.00595 0.61673 0.44134
 C2458 C 0.00552 0.61964 0.42655
 C2459 C 0.01458 0.60494 0.41870
 C2460 C 0.01278 0.58806 0.42516
 C2461 C 0.00177 0.58502 0.43959
 C2462 C -0.00801 0.59922 0.44773
 C2463 C -0.01930 0.59526 0.46208
 C2464 C -0.02002 0.57823 0.46859
 C2465 C -0.00972 0.56441 0.46100
 C2466 C 0.00081 0.56784 0.44618
 H2467 H 0.02584 0.63121 0.39799
 H2468 H -0.00714 0.67951 0.42967
 H2469 H 0.02815 0.66083 0.38826
 H2470 H -0.01946 0.65927 0.45010
 H2471 H -0.02330 0.63045 0.46079
 H2472 H 0.02344 0.60600 0.40758
 H2473 H 0.02022 0.57726 0.41883
 H2474 H -0.02767 0.60500 0.46875
 H2475 H -0.02852 0.57597 0.47988
 H2476 H 0.00880 0.55727 0.44011
 C2477 C 0.52149 1.14396 -0.09832
 C2478 C 0.51136 1.13944 -0.08330
 C2479 C 0.50190 1.15327 -0.07418
 C2480 C 0.50289 1.17076 -0.07975
 C2481 C 0.51285 1.17490 -0.09469
 C2482 C 0.52210 1.16138 -0.10391
 C2483 C 0.49133 1.14960 -0.05962
 C2484 C 0.48966 1.13246 -0.05394
 C2485 C 0.49874 1.11817 -0.06250
 C2486 C 0.51015 1.12176 -0.07713
 C2487 C 0.52015 1.10761 -0.08489
 C2488 C 0.51914 1.09059 -0.07857
 C2489 C 0.50788 1.08683 -0.06452
 C2490 C 0.49717 1.10047 -0.05657
 C2491 C 0.48535 1.09580 -0.04293
 C2492 C 0.48516 1.07867 -0.03666
 C2493 C 0.49654 1.06547 -0.04382
 C2494 C 0.50753 1.06954 -0.05812
 H2495 H 0.52881 1.13435 -0.10628
 H2496 H 0.49542 1.18114 -0.07276
 H2497 H 0.52985 1.16430 -0.11555
 H2498 H 0.48415 1.16013 -0.05255
 H2499 H 0.48140 1.13094 -0.04244
 H2500 H 0.52931 1.10930 -0.09568
 H2501 H 0.52734 1.08024 -0.08474
 H2502 H 0.47604 1.10501 -0.03676
 H2503 H 0.47616 1.07587 -0.02590
 H2504 H 0.51626 1.05941 -0.06392
 C2505 C 0.51996 0.33300 -0.04896
 C2506 C 0.51564 0.34892 -0.05760
 C2507 C 0.50991 0.34756 -0.07522
 C2508 C 0.50815 0.33106 -0.08347
 C2509 C 0.51209 0.31548 -0.07463
 C2510 C 0.51825 0.31658 -0.05741
 C2511 C 0.50586 0.36265 -0.08461
 C2512 C 0.50714 0.37924 -0.07693
 C2513 C 0.51245 0.38147 -0.05934
 C2514 C 0.51670 0.36607 -0.04946
 C2515 C 0.52152 0.36835 -0.03172
 C2516 C 0.52186 0.38499 -0.02379
 C2517 C 0.51764 0.40009 -0.03319
 C2518 C 0.51321 0.39859 -0.05119
 C2519 C 0.50953 0.41437 -0.06024
 C2520 C 0.50934 0.43069 -0.05157
 C2521 C 0.51298 0.43206 -0.03362
 C2522 C 0.51753 0.41668 -0.02458
 H2523 H 0.52472 0.33272 -0.03571
 H2524 H 0.50382 0.33032 -0.09698
 H2525 H 0.52151 0.30469 -0.05036
 H2526 H 0.50152 0.36164 -0.09811
 H2527 H 0.50351 0.39006 -0.08518
 H2528 H 0.52480 0.35745 -0.02341
 H2529 H 0.52536 0.38603 -0.01005
 H2530 H 0.50663 0.41468 -0.07402
 H2531 H 0.50614 0.44233 -0.05904
 H2532 H 0.52054 0.41754 -0.01072
 C2533 C 0.01799 -0.16898 0.45123
 C2534 C 0.01414 -0.15307 0.44236
 C2535 C 0.00928 -0.15448 0.42448
 C2536 C 0.00800 -0.17102 0.41614
 C2537 C 0.01149 -0.18659 0.42518
 C2538 C 0.01672 -0.18542 0.44271
 C2539 C 0.00561 -0.13941 0.41491
 C2540 C 0.00635 -0.12281 0.42268
 C2541 C 0.01076 -0.12053 0.44053
 C2542 C 0.01482 -0.13589 0.45053
 C2543 C 0.01918 -0.13356 0.46839
 C2544 C 0.01925 -0.11690 0.47632
 C2545 C 0.01507 -0.10185 0.46684
 C2546 C 0.01096 -0.10339 0.44876
 C2547 C 0.00699 -0.08766 0.43973
 C2548 C 0.00655 -0.07133 0.44840
 C2549 C 0.01014 -0.06989 0.46636
 C2550 C 0.01470 -0.08524 0.47544
 H2551 H 0.02196 -0.16924 0.46474
 H2552 H 0.00437 -0.17177 0.40241
 H2553 H 0.01954 -0.19728 0.44997
 H2554 H 0.00199 -0.14045 0.40120
 H2555 H 0.00319 -0.11201 0.41423
 H2556 H 0.02244 -0.14441 0.47676
 H2557 H 0.02249 -0.11582 0.49012
 H2558 H 0.00400 -0.08740 0.42597
 H2559 H 0.00321 -0.05973 0.44092
 H2560 H 0.01759 -0.08435 0.48933
 C2561 C 0.48500 -0.16511 0.55800
 C2562 C 0.49615 -0.15156 0.56405
 C2563 C 0.50592 -0.15470 0.57948
 C2564 C 0.50458 -0.17073 0.58826
 C2565 C 0.49332 -0.18388 0.58221
 C2566 C 0.48365 -0.18093 0.56696
 C2567 C 0.51690 -0.14180 0.58623
 C2568 C 0.51815 -0.12557 0.57827
 C2569 C 0.50854 -0.12159 0.56301
 C2570 C 0.49774 -0.13498 0.55550
 C2571 C 0.48894 -0.13137 0.53969
 C2572 C 0.49026 -0.11517 0.53169
 C2573 C 0.50021 -0.10181 0.53915
 C2574 C 0.50944 -0.10472 0.55495
 C2575 C 0.51899 -0.09047 0.56209
 C2576 C 0.51940 -0.07421 0.55379
 C2577 C 0.51039 -0.07153 0.53809
 C2578 C 0.50084 -0.08546 0.53085
 H2579 H 0.47684 -0.16383 0.54660
 H2580 H 0.51236 -0.17296 0.59991
 H2581 H 0.47464 -0.19074 0.56213
 H2582 H 0.52450 -0.14420 0.59795
 H2583 H 0.52698 -0.11644 0.58437
 H2584 H 0.48101 -0.14088 0.53295
 H2585 H 0.48326 -0.11303 0.51955
 H2586 H 0.52609 -0.09129 0.57422
 H2587 H 0.52682 -0.06369 0.55977
 H2588 H 0.49366 -0.08357 0.51878
 C2589 C -0.01193 0.33957 1.05903
 C2590 C -0.00283 0.35403 1.06623
 C2591 C 0.00549 0.35163 1.08258
 C2592 C 0.00465 0.33545 1.09119
 C2593 C -0.00461 0.32114 1.08404
 C2594 C -0.01276 0.32356 1.06772
 C2595 C 0.01465 0.36540 1.09036
 C2596 C 0.01553 0.38169 1.08246
 C2597 C 0.00732 0.38490 1.06625
 C2598 C -0.00179 0.37076 1.05786
 C2599 C -0.00953 0.37379 1.04139
 C2600 C -0.00865 0.39006 1.03346
 C2601 C -0.00013 0.40403 1.04158
 C2602 C 0.00796 0.40177 1.05810
 C2603 C 0.01624 0.41657 1.06575
 C2604 C 0.01650 0.43275 1.05728
 C2605 C 0.00855 0.43482 1.04092
 C2606 C 0.00026 0.42032 1.03319
 H2607 H -0.01889 0.34018 1.04682
 H2608 H 0.01185 0.33402 1.10329
 H2609 H -0.02064 0.31340 1.06177
 H2610 H 0.02114 0.36361 1.10284
 H2611 H 0.02289 0.39149 1.08944
 H2612 H -0.01634 0.36381 1.03409
 H2613 H -0.01480 0.39172 1.02080
 H2614 H 0.02255 0.41621 1.07833
 H2615 H 0.02296 0.44370 1.06364
 H2616 H -0.00602 0.42168 1.02055
 C2617 C 0.75565 0.30824 0.08360
 C2618 C 0.74955 0.31650 0.09943
 C2619 C 0.74512 0.33469 0.09893
 C2620 C 0.74703 0.34411 0.08333
 C2621 C 0.75341 0.33595 0.06753
 C2622 C 0.75747 0.31769 0.06812
 C2623 C 0.73866 0.34353 0.11400
 C2624 C 0.73663 0.33478 0.12970
 C2625 C 0.74106 0.31669 0.13106
 C2626 C 0.74769 0.30738 0.11568
 C2627 C 0.75235 0.28932 0.11711
 C2628 C 0.75070 0.28066 0.13293
 C2629 C 0.74428 0.28952 0.14800
 C2630 C 0.73924 0.30762 0.14732
 C2631 C 0.73264 0.31585 0.16303
 C2632 C 0.73143 0.30657 0.17866
 C2633 C 0.73670 0.28877 0.17928
 C2634 C 0.74301 0.28032 0.16380
 H2635 H 0.75930 0.29445 0.08266
 H2636 H 0.74252 0.35775 0.08363
 H2637 H 0.76304 0.31046 0.05691
 H2638 H 0.73516 0.35746 0.11369
 H2639 H 0.73164 0.34275 0.14061
 H2640 H 0.75750 0.28142 0.10623
 H2641 H 0.75456 0.26682 0.13337
 H2642 H 0.72830 0.32946 0.16382
 H2643 H 0.72646 0.31350 0.19035
 H2644 H 0.74708 0.26653 0.16402
 C2645 C 0.25945 0.80627 0.58807
 C2646 C 0.24952 0.81258 0.60295
 C2647 C 0.24101 0.82937 0.60178
 C2648 C 0.24248 0.83926 0.58645
 C2649 C 0.25256 0.83294 0.57196
 C2650 C 0.26090 0.81630 0.57289
 C2651 C 0.23109 0.83635 0.61594
 C2652 C 0.22965 0.82725 0.63149
 C2653 C 0.23807 0.81062 0.63357
 C2654 C 0.24788 0.80297 0.61894
 C2655 C 0.25566 0.78601 0.62081
 C2656 C 0.25419 0.77693 0.63644
 C2657 C 0.24508 0.78436 0.65092
 C2658 C 0.23695 0.80134 0.64976
 C2659 C 0.22821 0.80840 0.66500
 C2660 C 0.22747 0.79896 0.68052
 C2661 C 0.23537 0.78212 0.68157
 C2662 C 0.24415 0.77490 0.66664
 H2663 H 0.26650 0.79377 0.58775
 H2664 H 0.23568 0.85197 0.58578
 H2665 H 0.26892 0.81115 0.56197
 H2666 H 0.22444 0.84912 0.61504
 H2667 H 0.22165 0.83367 0.64164
 H2668 H 0.26296 0.77925 0.61036
 H2669 H 0.26040 0.76394 0.63721
 H2670 H 0.22194 0.82129 0.66554
 H2671 H 0.22065 0.80499 0.69180
 H2672 H 0.25046 0.76194 0.66726
 C2673 C 0.73556 0.65818 0.60434
 C2674 C 0.73753 0.67633 0.60830
 C2675 C 0.73967 0.68790 0.59401
 C2676 C 0.74050 0.68134 0.57664
 C2677 C 0.73866 0.66334 0.57305
 C2678 C 0.73607 0.65187 0.58700
 C2679 C 0.74088 0.70598 0.59707
 C2680 C 0.73962 0.71300 0.61400
 C2681 C 0.73746 0.70210 0.62869
 C2682 C 0.73718 0.68341 0.62586
 C2683 C 0.73689 0.67245 0.64066
 C2684 C 0.73646 0.67948 0.65764
 C2685 C 0.73582 0.69767 0.66060
 C2686 C 0.73594 0.70925 0.64617
 C2687 C 0.73426 0.72756 0.64986
 C2688 C 0.73312 0.73402 0.66708
 C2689 C 0.73367 0.72256 0.68130
 C2690 C 0.73499 0.70435 0.67796
 H2691 H 0.73325 0.64854 0.61428
 H2692 H 0.74223 0.69030 0.56584
 H2693 H 0.73461 0.63788 0.58449
 H2694 H 0.74266 0.71487 0.58622
 H2695 H 0.74088 0.72708 0.61516
 H2696 H 0.73746 0.65827 0.63959
 H2697 H 0.73644 0.67054 0.66860
 H2698 H 0.73342 0.73728 0.63974
 H2699 H 0.73198 0.74816 0.66924
 H2700 H 0.73513 0.69535 0.68886
 C2701 C 0.25088 0.15825 0.10533
 C2702 C 0.24505 0.17573 0.10912
 C2703 C 0.23968 0.18615 0.09481
 C2704 C 0.24043 0.17931 0.07752
 C2705 C 0.24623 0.16178 0.07374
 C2706 C 0.25143 0.15150 0.08818
 C2707 C 0.23341 0.20338 0.09778
 C2708 C 0.23223 0.21055 0.11465
 C2709 C 0.23743 0.20077 0.12939
 C2710 C 0.24428 0.18317 0.12656
 C2711 C 0.25026 0.17369 0.14123
 C2712 C 0.24950 0.18103 0.15806
 C2713 C 0.24258 0.19801 0.16108
 C2714 C 0.23623 0.20807 0.14686
 C2715 C 0.22888 0.22504 0.15077
 C2716 C 0.22836 0.23181 0.16790
 C2717 C 0.23506 0.22199 0.18185
 C2718 C 0.24203 0.20499 0.17832
 H2719 H 0.25517 0.14930 0.11530
 H2720 H 0.23541 0.18765 0.06726
 H2721 H 0.25694 0.13829 0.08649
 H2722 H 0.22931 0.21147 0.08690
 H2723 H 0.22739 0.22399 0.11559
 H2724 H 0.25589 0.16055 0.14019
 H2725 H 0.25439 0.17327 0.16886
 H2726 H 0.22327 0.23346 0.14097
 H2727 H 0.22269 0.24492 0.17015
 H2728 H 0.24713 0.19717 0.18898
 C2729 C 0.27637 0.18642 0.91177
 C2730 C 0.26234 0.18727 0.89966
 C2731 C 0.24581 0.18045 0.90493
 C2732 C 0.24343 0.17367 0.92179
 C2733 C 0.25759 0.17237 0.93347
 C2734 C 0.27404 0.17895 0.92827
 C2735 C 0.23178 0.18005 0.89325
 C2736 C 0.23398 0.18555 0.87610
 C2737 C 0.25021 0.19231 0.87012
 C2738 C 0.26425 0.19416 0.88238
 C2739 C 0.27956 0.20312 0.87705
 C2740 C 0.28124 0.20971 0.86020
 C2741 C 0.26811 0.20703 0.84781
 C2742 C 0.25266 0.19779 0.85241
 C2743 C 0.24039 0.19418 0.83900
 C2744 C 0.24295 0.20038 0.82203
 C2745 C 0.25765 0.21050 0.81790
 C2746 C 0.27029 0.21362 0.83081
 H2747 H 0.28954 0.19066 0.90858
 H2748 H 0.23050 0.16904 0.92565
 H2749 H 0.28540 0.17780 0.93671
 H2750 H 0.21905 0.17502 0.89727
 H2751 H 0.22248 0.18488 0.86793
 H2752 H 0.29025 0.20581 0.88584
 H2753 H 0.29307 0.21681 0.85678
 H2754 H 0.22886 0.18634 0.84112
 H2755 H 0.23310 0.19765 0.81220
 H2756 H 0.28192 0.22114 0.82758
 C2757 C 0.76682 0.69498 0.41556
 C2758 C 0.75701 0.69031 0.40051
 C2759 C 0.74437 0.67690 0.40232
 C2760 C 0.74169 0.66876 0.41848
 C2761 C 0.75185 0.67315 0.43310
 C2762 C 0.76428 0.68648 0.43153
 C2763 C 0.73457 0.67144 0.38795
 C2764 C 0.73740 0.67853 0.37154
 C2765 C 0.75006 0.69166 0.36886
 C2766 C 0.75949 0.69819 0.38370
 C2767 C 0.77091 0.71246 0.38126
 C2768 C 0.77321 0.71995 0.36488
 C2769 C 0.76465 0.71326 0.35017
 C2770 C 0.75327 0.69876 0.35186
 C2771 C 0.74571 0.69183 0.33639
 C2772 C 0.74855 0.69960 0.32018
 C2773 C 0.75906 0.71450 0.31870
 C2774 C 0.76730 0.72110 0.33377
 H2775 H 0.77695 0.70474 0.41534
 H2776 H 0.73175 0.65874 0.41960
 H2777 H 0.77250 0.69000 0.44253
 H2778 H 0.72472 0.66135 0.38934
 H2779 H 0.72910 0.67365 0.36124
 H2780 H 0.77799 0.71848 0.39188
 H2781 H 0.78191 0.73105 0.36369
 H2782 H 0.73767 0.68029 0.33626
 H2783 H 0.74219 0.69399 0.30878
 H2784 H 0.77571 0.73245 0.33279
 C2785 C 0.26827 0.84922 0.40281
 C2786 C 0.26116 0.83259 0.39854
 C2787 C 0.25381 0.82281 0.41248
 C2788 C 0.25380 0.82944 0.42985
 C2789 C 0.26104 0.84586 0.43381
 C2790 C 0.26818 0.85565 0.42010
 C2791 C 0.24653 0.80642 0.40907
 C2792 C 0.24636 0.79937 0.39212
 C2793 C 0.25357 0.80846 0.37774
 C2794 C 0.26112 0.82535 0.38101
 C2795 C 0.26846 0.83437 0.36665
 C2796 C 0.26856 0.82720 0.34976
 C2797 C 0.26132 0.81079 0.34635
 C2798 C 0.25361 0.80119 0.36022
 C2799 C 0.24634 0.78464 0.35590
 C2800 C 0.24699 0.77793 0.33870
 C2801 C 0.25484 0.78739 0.32511
 C2802 C 0.26188 0.80391 0.32908
 H2803 H 0.27396 0.85769 0.39317
 H2804 H 0.24836 0.82167 0.44036
 H2805 H 0.27355 0.86855 0.42270
 H2806 H 0.24089 0.79889 0.41966
 H2807 H 0.24052 0.78662 0.39081
 H2808 H 0.27441 0.84707 0.36798
 H2809 H 0.27444 0.83462 0.33921
 H2810 H 0.24005 0.77646 0.36544
 H2811 H 0.24133 0.76517 0.33610
 H2812 H 0.26795 0.81144 0.31872
 C2813 C 0.78029 0.32973 0.90463
 C2814 C 0.76478 0.32509 0.89565
 C2815 C 0.74834 0.32731 0.90476
 C2816 C 0.74751 0.33519 0.92161
 C2817 C 0.76298 0.34036 0.93010
 C2818 C 0.77936 0.33710 0.92155
 C2819 C 0.73278 0.32173 0.89696
 C2820 C 0.73320 0.31362 0.88045
 C2821 C 0.74921 0.31140 0.87073
 C2822 C 0.76508 0.31807 0.87809
 C2823 C 0.78059 0.31802 0.86748
 C2824 C 0.78075 0.31116 0.85045
 C2825 C 0.76571 0.30351 0.84352
 C2826 C 0.74982 0.30312 0.85370
 C2827 C 0.73532 0.29408 0.84654
 C2828 C 0.73654 0.28612 0.82988
 C2829 C 0.75204 0.28718 0.81969
 C2830 C 0.76655 0.29601 0.82651
 H2831 H 0.79339 0.32740 0.89913
 H2832 H 0.73470 0.33755 0.92794
 H2833 H 0.79164 0.34016 0.92797
 H2834 H 0.72014 0.32345 0.90380
 H2835 H 0.72060 0.30981 0.87533
 H2836 H 0.79272 0.32380 0.87179
 H2837 H 0.79291 0.31160 0.84271
 H2838 H 0.72306 0.29243 0.85369
 H2839 H 0.72524 0.27918 0.82487
 H2840 H 0.77871 0.29652 0.81878
 C2841 C 0.83427 0.39116 0.26039
 C2842 C 0.81789 0.38815 0.25213
 C2843 C 0.80951 0.40267 0.24386
 C2844 C 0.81747 0.41925 0.24363
 C2845 C 0.83384 0.42185 0.25159
 C2846 C 0.84203 0.40768 0.26007
 C2847 C 0.79326 0.40058 0.23575
 C2848 C 0.78501 0.38442 0.23563
 C2849 C 0.79277 0.36949 0.24356
 C2850 C 0.80959 0.37134 0.25180
 C2851 C 0.81760 0.35627 0.25925
 C2852 C 0.80949 0.34003 0.25887
 C2853 C 0.79303 0.33806 0.25115
 C2854 C 0.78435 0.35273 0.24343
 C2855 C 0.76755 0.34995 0.23597
 C2856 C 0.75986 0.33340 0.23613
 C2857 C 0.76854 0.31893 0.24368
 C2858 C 0.78518 0.32141 0.25115
 H2859 H 0.84144 0.38111 0.26733
 H2860 H 0.81104 0.43007 0.23691
 H2861 H 0.85450 0.40940 0.26667
 H2862 H 0.78680 0.41161 0.22939
 H2863 H 0.77254 0.38410 0.22899
 H2864 H 0.83033 0.35648 0.26542
 H2865 H 0.81622 0.32887 0.26474
 H2866 H 0.75986 0.36027 0.22998
 H2867 H 0.74699 0.33199 0.23024
 H2868 H 0.79206 0.31038 0.25711
 C2869 C 0.33406 0.88401 0.75532
 C2870 C 0.31750 0.88093 0.74748
 C2871 C 0.30880 0.89540 0.73943
 C2872 C 0.31663 0.91203 0.73904
 C2873 C 0.33316 0.91472 0.74664
 C2874 C 0.34168 0.90058 0.75486
 C2875 C 0.29235 0.89324 0.73175
 C2876 C 0.28414 0.87706 0.73197
 C2877 C 0.29215 0.86221 0.73981
 C2878 C 0.30924 0.86411 0.74746
 C2879 C 0.31755 0.84910 0.75472
 C2880 C 0.30938 0.83291 0.75488
 C2881 C 0.29258 0.83093 0.74791
 C2882 C 0.28368 0.84550 0.74025
 C2883 C 0.26657 0.84269 0.73350
 C2884 C 0.25873 0.82625 0.73446
 C2885 C 0.26757 0.81195 0.74212
 C2886 C 0.28459 0.81440 0.74870
 H2887 H 0.34148 0.87401 0.76208
 H2888 H 0.30995 0.92286 0.73255
 H2889 H 0.35429 0.90236 0.76118
 H2890 H 0.28567 0.90422 0.72553
 H2891 H 0.27148 0.87667 0.72569
 H2892 H 0.33054 0.84931 0.76033
 H2893 H 0.31630 0.82180 0.76064
 H2894 H 0.25872 0.85293 0.72756
 H2895 H 0.24558 0.82482 0.72920
 H2896 H 0.29162 0.80348 0.75468
 C2897 C 0.15867 0.89873 0.24480
 C2898 C 0.17613 0.89614 0.25077
 C2899 C 0.18559 0.91133 0.25562
 C2900 C 0.17767 0.92829 0.25466
 C2901 C 0.15998 0.93080 0.24913
 C2902 C 0.15087 0.91550 0.24405
 C2903 C 0.20291 0.90955 0.26160
 C2904 C 0.21111 0.89304 0.26287
 C2905 C 0.20228 0.87747 0.25821
 C2906 C 0.18448 0.87906 0.25204
 C2907 C 0.17560 0.86351 0.24738
 C2908 C 0.18380 0.84704 0.24842
 C2909 C 0.20112 0.84526 0.25424
 C2910 C 0.21064 0.86035 0.25940
 C2911 C 0.22815 0.85757 0.26543
 C2912 C 0.23585 0.84063 0.26589
 C2913 C 0.22644 0.82586 0.26039
 C2914 C 0.20898 0.82835 0.25477
 H2915 H 0.15056 0.88809 0.24040
 H2916 H 0.18525 0.93930 0.25933
 H2917 H 0.13779 0.91620 0.23850
 H2918 H 0.21026 0.92110 0.26536
 H2919 H 0.22449 0.89299 0.26755
 H2920 H 0.16220 0.86349 0.24279
 H2921 H 0.17644 0.83552 0.24455
 H2922 H 0.23634 0.86817 0.26980
 H2923 H 0.24935 0.83917 0.27035
 H2924 H 0.20144 0.81707 0.25059
 C2925 C 0.66195 0.39869 0.73418
 C2926 C 0.67770 0.39494 0.74341
 C2927 C 0.68561 0.40911 0.75258
 C2928 C 0.67769 0.42609 0.75280
 C2929 C 0.66179 0.42935 0.74404
 C2930 C 0.65418 0.41554 0.73457
 C2931 C 0.70127 0.40624 0.76166
 C2932 C 0.70929 0.38960 0.76201
 C2933 C 0.70188 0.37496 0.75333
 C2934 C 0.68578 0.37767 0.74390
 C2935 C 0.67818 0.36300 0.73548
 C2936 C 0.68596 0.34630 0.73612
 C2937 C 0.70166 0.34344 0.74512
 C2938 C 0.70994 0.35766 0.75382
 C2939 C 0.72595 0.35388 0.76264
 C2940 C 0.73328 0.33680 0.76274
 C2941 C 0.72497 0.32282 0.75413
 C2942 C 0.70911 0.32632 0.74537
 H2943 H 0.65518 0.38896 0.72650
 H2944 H 0.68366 0.43668 0.76021
 H2945 H 0.64211 0.41780 0.72736
 H2946 H 0.70740 0.41702 0.76867
 H2947 H 0.72130 0.38865 0.76941
 H2948 H 0.66602 0.36386 0.72832
 H2949 H 0.67957 0.33546 0.72947
 H2950 H 0.73325 0.36379 0.76955
 H2951 H 0.74556 0.33457 0.76962
 H2952 H 0.70254 0.31569 0.73857
 C2953 C 0.68701 0.58781 0.73510
 C2954 C 0.67795 0.60353 0.74083
 C2955 C 0.66048 0.60194 0.74763
 C2956 C 0.65266 0.58538 0.74874
 C2957 C 0.66187 0.56998 0.74320
 C2958 C 0.67905 0.57139 0.73626
 C2959 C 0.65081 0.61686 0.75338
 C2960 C 0.65810 0.63344 0.75278
 C2961 C 0.67551 0.63586 0.74637
 C2962 C 0.68557 0.62067 0.74015
 C2963 C 0.70292 0.62315 0.73358
 C2964 C 0.71031 0.63975 0.73330
 C2965 C 0.70081 0.65461 0.73954
 C2966 C 0.68324 0.65294 0.74608
 C2967 C 0.67423 0.66850 0.75223
 C2968 C 0.68241 0.68479 0.75213
 C2969 C 0.69985 0.68634 0.74587
 C2970 C 0.70890 0.67114 0.73942
 H2971 H 0.70029 0.58767 0.72974
 H2972 H 0.63920 0.58451 0.75380
 H2973 H 0.68652 0.55968 0.73197
 H2974 H 0.63742 0.61570 0.75851
 H2975 H 0.64961 0.64413 0.75754
 H2976 H 0.71127 0.61246 0.72855
 H2977 H 0.72372 0.64093 0.72822
 H2978 H 0.66087 0.66863 0.75736
 H2979 H 0.67498 0.69624 0.75712
 H2980 H 0.72240 0.67209 0.73451
 C2981 C 0.18914 0.08805 0.23826
 C2982 C 0.17996 0.10392 0.24333
 C2983 C 0.16223 0.10255 0.24951
 C2984 C 0.15428 0.08606 0.25063
 C2985 C 0.16359 0.07051 0.24572
 C2986 C 0.18104 0.07170 0.23943
 C2987 C 0.15244 0.11761 0.25457
 C2988 C 0.15982 0.13415 0.25386
 C2989 C 0.17746 0.13636 0.24801
 C2990 C 0.18769 0.12101 0.24256
 C2991 C 0.20529 0.12328 0.23662
 C2992 C 0.21275 0.13984 0.23619
 C2993 C 0.20306 0.15488 0.24164
 C2994 C 0.18525 0.15342 0.24755
 C2995 C 0.17604 0.16914 0.25288
 C2996 C 0.18425 0.18541 0.25262
 C2997 C 0.20192 0.18678 0.24698
 C2998 C 0.21119 0.17140 0.24135
 H2999 H 0.20260 0.08774 0.23339
 H3000 H 0.14063 0.08536 0.25518
 H3001 H 0.18857 0.05988 0.23562
 H3002 H 0.13886 0.11662 0.25924
 H3003 H 0.15122 0.14496 0.25808
 H3004 H 0.21380 0.11245 0.23222
 H3005 H 0.22635 0.14087 0.23161
 H3006 H 0.16249 0.16944 0.25748
 H3007 H 0.17665 0.19701 0.25697
 H3008 H 0.22486 0.17220 0.23693
 C3009 C 0.30418 0.07535 0.76175
 C3010 C 0.31361 0.09051 0.75680
 C3011 C 0.33131 0.08788 0.75065
 C3012 C 0.33894 0.07088 0.74924
 C3013 C 0.32931 0.05604 0.75379
 C3014 C 0.31197 0.05845 0.76028
 C3015 C 0.34139 0.10218 0.74579
 C3016 C 0.33428 0.11917 0.74657
 C3017 C 0.31662 0.12263 0.75224
 C3018 C 0.30614 0.10808 0.75759
 C3019 C 0.28853 0.11160 0.76339
 C3020 C 0.28129 0.12861 0.76374
 C3021 C 0.29123 0.14286 0.75835
 C3022 C 0.30906 0.14014 0.75261
 C3023 C 0.31852 0.15510 0.74731
 C3024 C 0.31055 0.17186 0.74751
 C3025 C 0.29288 0.17447 0.75302
 C3026 C 0.28334 0.15986 0.75855
 H3027 H 0.29074 0.07603 0.76668
 H3028 H 0.35254 0.06919 0.74460
 H3029 H 0.30425 0.04718 0.76389
 H3030 H 0.35497 0.10021 0.74119
 H3031 H 0.34309 0.12932 0.74250
 H3032 H 0.27984 0.10143 0.76770
 H3033 H 0.26767 0.13062 0.76820
 H3034 H 0.33210 0.15442 0.74280
 H3035 H 0.31835 0.18283 0.74323
 H3036 H 0.26965 0.16164 0.76288
 C3037 C 0.80487 0.58227 0.26244
 C3038 C 0.81380 0.59730 0.25633
 C3039 C 0.83116 0.59459 0.24927
 C3040 C 0.83897 0.57765 0.24824
 C3041 C 0.82986 0.56292 0.25406
 C3042 C 0.81282 0.56542 0.26132
 C3043 C 0.84073 0.60877 0.24319
 C3044 C 0.83347 0.62570 0.24373
 C3045 C 0.81617 0.62924 0.25041
 C3046 C 0.80619 0.61482 0.25692
 C3047 C 0.78893 0.61842 0.26370
 C3048 C 0.78162 0.63540 0.26406
 C3049 C 0.79111 0.64955 0.25767
 C3050 C 0.80853 0.64672 0.25077
 C3051 C 0.81752 0.66156 0.24445
 C3052 C 0.80957 0.67833 0.24497
 C3053 C 0.79236 0.68108 0.25178
 C3054 C 0.78322 0.66655 0.25814
 H3055 H 0.79170 0.58301 0.26807
 H3056 H 0.85234 0.57593 0.24297
 H3057 H 0.80546 0.55425 0.26588
 H3058 H 0.85404 0.60674 0.23785
 H3059 H 0.84189 0.63576 0.23871
 H3060 H 0.78062 0.60834 0.26886
 H3061 H 0.76832 0.63748 0.26937
 H3062 H 0.83073 0.66079 0.23895
 H3063 H 0.81704 0.68923 0.23994
 H3064 H 0.76989 0.66842 0.26347
 C3065 C 0.89775 0.27056 0.18536
 C3066 C 0.88450 0.25805 0.18203
 C3067 C 0.88859 0.24422 0.16972
 C3068 C 0.90545 0.24275 0.16169
 C3069 C 0.91828 0.25530 0.16511
 C3070 C 0.91429 0.26922 0.17692
 C3071 C 0.87577 0.23207 0.16528
 C3072 C 0.85875 0.23355 0.17239
 C3073 C 0.85397 0.24707 0.18468
 C3074 C 0.86728 0.25903 0.19017
 C3075 C 0.86302 0.27134 0.20381
 C3076 C 0.84625 0.27221 0.21158
 C3077 C 0.83291 0.26122 0.20579
 C3078 C 0.83642 0.24877 0.19199
 C3079 C 0.82211 0.23867 0.18595
 C3080 C 0.80533 0.24037 0.19383
 C3081 C 0.80219 0.25209 0.20802
 C3082 C 0.81604 0.26260 0.21383
 H3083 H 0.89562 0.28184 0.19400
 H3084 H 0.90841 0.23215 0.15226
 H3085 H 0.92403 0.27914 0.17960
 H3086 H 0.87884 0.22140 0.15597
 H3087 H 0.84972 0.22353 0.16832
 H3088 H 0.87255 0.28021 0.20919
 H3089 H 0.84368 0.28171 0.22217
 H3090 H 0.82335 0.22951 0.17499
 H3091 H 0.79484 0.23218 0.18896
 H3092 H 0.81368 0.27196 0.22460
 C3093 C 0.39451 0.76699 0.68580
 C3094 C 0.38131 0.75439 0.68264
 C3095 C 0.38547 0.74039 0.67054
 C3096 C 0.40236 0.73884 0.66257
 C3097 C 0.41515 0.75148 0.66583
 C3098 C 0.41107 0.76557 0.67740
 C3099 C 0.37269 0.72814 0.66624
 C3100 C 0.35566 0.72965 0.67332
 C3101 C 0.35082 0.74330 0.68544
 C3102 C 0.36407 0.75540 0.69076
 C3103 C 0.35975 0.76785 0.70426
 C3104 C 0.34302 0.76866 0.71212
 C3105 C 0.32975 0.75747 0.70654
 C3106 C 0.33329 0.74494 0.69280
 C3107 C 0.31905 0.73467 0.68692
 C3108 C 0.30234 0.73616 0.69499
 C3109 C 0.29921 0.74785 0.70922
 C3110 C 0.31295 0.75866 0.71476
 H3111 H 0.39232 0.77839 0.69426
 H3112 H 0.40538 0.72811 0.65331
 H3113 H 0.42077 0.77558 0.67992
 H3114 H 0.37582 0.71736 0.65708
 H3115 H 0.34669 0.71953 0.66939
 H3116 H 0.36923 0.77687 0.70949
 H3117 H 0.34041 0.77824 0.72264
 H3118 H 0.32029 0.72550 0.67598
 H3119 H 0.29194 0.72778 0.69029
 H3120 H 0.31059 0.76800 0.72554
 C3121 C 0.40209 0.25687 0.84784
 C3122 C 0.39892 0.24937 0.83103
 C3123 C 0.41374 0.24236 0.82132
 C3124 C 0.43087 0.24309 0.82816
 C3125 C 0.43369 0.25049 0.84481
 C3126 C 0.41917 0.25736 0.85456
 C3127 C 0.41144 0.23456 0.80484
 C3128 C 0.39472 0.23339 0.79770
 C3129 C 0.37948 0.24012 0.80676
 C3130 C 0.38163 0.24850 0.82358
 C3131 C 0.36646 0.25587 0.83228
 C3132 C 0.34981 0.25515 0.82487
 C3133 C 0.34746 0.24690 0.80860
 C3134 C 0.36219 0.23902 0.79941
 C3135 C 0.35893 0.23038 0.78318
 C3136 C 0.34200 0.23024 0.77616
 C3137 C 0.32761 0.23858 0.78501
 C3138 C 0.33043 0.24666 0.80140
 H3139 H 0.39170 0.26235 0.85626
 H3140 H 0.44203 0.23750 0.82065
 H3141 H 0.42104 0.26326 0.86744
 H3142 H 0.42274 0.22924 0.79735
 H3143 H 0.39430 0.22729 0.78485
 H3144 H 0.36699 0.26259 0.84483
 H3145 H 0.33861 0.26118 0.83198
 H3146 H 0.36911 0.22354 0.77551
 H3147 H 0.34027 0.22365 0.76358
 H3148 H 0.31941 0.25304 0.80849
 C3149 C 0.90352 0.74959 0.34975
 C3150 C 0.90058 0.74734 0.33160
 C3151 C 0.91565 0.74473 0.32047
 C3152 C 0.93285 0.74490 0.32732
 C3153 C 0.93578 0.74716 0.34552
 C3154 C 0.92059 0.74946 0.35649
 C3155 C 0.91353 0.74176 0.30251
 C3156 C 0.89678 0.74114 0.29530
 C3157 C 0.88131 0.74376 0.30578
 C3158 C 0.88326 0.74742 0.32415
 C3159 C 0.86785 0.75128 0.33441
 C3160 C 0.85113 0.75141 0.32707
 C3161 C 0.84897 0.74738 0.30931
 C3162 C 0.86397 0.74319 0.29845
 C3163 C 0.86092 0.73852 0.28068
 C3164 C 0.84383 0.73870 0.27395
 C3165 C 0.82913 0.74350 0.28459
 C3166 C 0.83183 0.74765 0.30235
 H3167 H 0.89290 0.75140 0.35926
 H3168 H 0.94380 0.74215 0.31827
 H3169 H 0.92154 0.75214 0.37043
 H3170 H 0.92499 0.73979 0.29387
 H3171 H 0.89646 0.73895 0.28130
 H3172 H 0.86821 0.75470 0.34818
 H3173 H 0.83973 0.75466 0.33544
 H3174 H 0.87139 0.73450 0.27161
 H3175 H 0.84222 0.73524 0.26021
 H3176 H 0.82057 0.75117 0.31083
 C3177 C 0.09203 0.75606 0.30363
 C3178 C 0.10791 0.75933 0.31274
 C3179 C 0.10676 0.76109 0.33131
 C3180 C 0.09039 0.76013 0.34014
 C3181 C 0.07484 0.75697 0.33093
 C3182 C 0.07582 0.75481 0.31264
 C3183 C 0.12197 0.76367 0.34107
 C3184 C 0.13849 0.76403 0.33292
 C3185 C 0.14047 0.76210 0.31451
 C3186 C 0.12488 0.76054 0.30418
 C3187 C 0.12678 0.76046 0.28569
 C3188 C 0.14335 0.76130 0.27756
 C3189 C 0.15874 0.76174 0.28746
 C3190 C 0.15755 0.76189 0.30608
 C3191 C 0.17356 0.76136 0.31551
 C3192 C 0.18994 0.76090 0.30681
 C3193 C 0.19105 0.76113 0.28845
 C3194 C 0.17537 0.76174 0.27882
 H3195 H 0.09173 0.75401 0.28960
 H3196 H 0.08980 0.76142 0.35435
 H3197 H 0.06397 0.75227 0.30525
 H3198 H 0.12112 0.76523 0.35525
 H3199 H 0.14948 0.76625 0.34147
 H3200 H 0.11560 0.76012 0.27707
 H3201 H 0.14414 0.76128 0.26333
 H3202 H 0.17396 0.76075 0.32962
 H3203 H 0.20185 0.76037 0.31456
 H3204 H 0.17612 0.76165 0.26458
 C3205 C 0.58901 0.25950 0.80098
 C3206 C 0.60496 0.26315 0.80979
 C3207 C 0.60394 0.26602 0.82825
 C3208 C 0.58765 0.26551 0.83727
 C3209 C 0.57207 0.26171 0.82839
 C3210 C 0.57288 0.25870 0.81019
 C3211 C 0.61922 0.26911 0.83774
 C3212 C 0.63570 0.26870 0.82949
 C3213 C 0.63756 0.26543 0.81123
 C3214 C 0.62190 0.26355 0.80108
 C3215 C 0.62372 0.26223 0.78260
 C3216 C 0.64030 0.26203 0.77437
 C3217 C 0.65573 0.26262 0.78419
 C3218 C 0.65459 0.26411 0.80279
 C3219 C 0.67060 0.26365 0.81222
 C3220 C 0.68693 0.26198 0.80353
 C3221 C 0.68799 0.26088 0.78517
 C3222 C 0.67233 0.26140 0.77554
 H3223 H 0.58859 0.25670 0.78707
 H3224 H 0.58720 0.26747 0.85142
 H3225 H 0.56098 0.25570 0.80306
 H3226 H 0.61846 0.27158 0.85181
 H3227 H 0.64677 0.27136 0.83781
 H3228 H 0.61250 0.26164 0.77405
 H3229 H 0.64104 0.26102 0.76016
 H3230 H 0.67101 0.26398 0.82635
 H3231 H 0.69883 0.26156 0.81130
 H3232 H 0.67304 0.26029 0.76132
 C3233 C 0.56919 0.74117 0.69687
 C3234 C 0.58580 0.74298 0.68821
 C3235 C 0.58578 0.74474 0.66970
 C3236 C 0.56988 0.74470 0.66045
 C3237 C 0.55355 0.74339 0.66925
 C3238 C 0.55338 0.74140 0.68751
 C3239 C 0.60161 0.74677 0.66041
 C3240 C 0.61755 0.74776 0.66910
 C3241 C 0.61835 0.74659 0.68756
 C3242 C 0.60234 0.74343 0.69722
 C3243 C 0.60345 0.74076 0.71549
 C3244 C 0.61953 0.74156 0.72410
 C3245 C 0.63509 0.74544 0.71499
 C3246 C 0.63469 0.74826 0.69664
 C3247 C 0.65066 0.75298 0.68816
 C3248 C 0.66635 0.75431 0.69742
 C3249 C 0.66682 0.75102 0.71546
 C3250 C 0.65107 0.74661 0.72418
 H3251 H 0.56788 0.74003 0.71091
 H3252 H 0.57023 0.74584 0.64627
 H3253 H 0.54093 0.74051 0.69466
 H3254 H 0.60167 0.74785 0.64623
 H3255 H 0.62910 0.74916 0.66083
 H3256 H 0.59211 0.73774 0.72354
 H3257 H 0.61974 0.73931 0.73812
 H3258 H 0.65151 0.75607 0.67443
 H3259 H 0.67824 0.75785 0.69029
 H3260 H 0.65119 0.74422 0.73818
 C3261 C 0.07108 0.24958 0.19729
 C3262 C 0.08780 0.24697 0.18879
 C3263 C 0.08804 0.24459 0.17027
 C3264 C 0.07223 0.24460 0.16087
 C3265 C 0.05583 0.24760 0.16940
 C3266 C 0.05542 0.24994 0.18771
 C3267 C 0.10406 0.24243 0.16110
 C3268 C 0.12003 0.24334 0.16976
 C3269 C 0.12060 0.24615 0.18812
 C3270 C 0.10426 0.24706 0.19791
 C3271 C 0.10496 0.24789 0.21644
 C3272 C 0.12104 0.24837 0.22508
 C3273 C 0.13702 0.24860 0.21566
 C3274 C 0.13703 0.24781 0.19703
 C3275 C 0.15348 0.24914 0.18806
 C3276 C 0.16920 0.25069 0.19721
 C3277 C 0.16920 0.25089 0.21561
 C3278 C 0.15303 0.24979 0.22478
 H3279 H 0.06967 0.25197 0.21123
 H3280 H 0.07274 0.24240 0.14676
 H3281 H 0.04298 0.25255 0.19464
 H3282 H 0.10429 0.24033 0.14696
 H3283 H 0.13176 0.24140 0.16166
 H3284 H 0.09326 0.24780 0.22470
 H3285 H 0.12093 0.24888 0.23933
 H3286 H 0.15466 0.24947 0.17395
 H3287 H 0.18149 0.25159 0.18977
 H3288 H 0.15287 0.25019 0.23903
 C3289 C -0.08834 1.01585 0.85053
 C3290 C -0.07238 1.00686 0.85468
 C3291 C -0.06354 0.99716 0.84095
 C3292 C -0.07066 0.99632 0.82399
 C3293 C -0.08677 1.00504 0.82002
 C3294 C -0.09530 1.01495 0.83365
 C3295 C -0.04759 0.98828 0.84413
 C3296 C -0.04018 0.98864 0.86068
 C3297 C -0.04849 0.99791 0.87493
 C3298 C -0.06490 1.00714 0.87191
 C3299 C -0.07332 1.01621 0.88623
 C3300 C -0.06603 1.01633 0.90287
 C3301 C -0.05002 1.00752 0.90602
 C3302 C -0.04096 0.99821 0.89212
 C3303 C -0.02471 0.98960 0.89606
 C3304 C -0.01787 0.99021 0.91296
 C3305 C -0.02688 0.99937 0.92668
 C3306 C -0.04302 1.00799 0.92306
 H3307 H -0.09596 1.02363 0.86003
 H3308 H -0.06313 0.98922 0.81381
 H3309 H -0.10796 1.02154 0.83172
 H3310 H -0.04072 0.98088 0.83367
 H3311 H -0.02788 0.98133 0.86183
 H3312 H -0.08573 1.02333 0.88510
 H3313 H -0.07303 1.02346 0.91343
 H3314 H -0.01682 0.98228 0.88643
 H3315 H -0.00539 0.98337 0.91524
 H3316 H -0.05015 1.01518 0.93350
 C3317 C 0.40703 0.51060 0.35177
 C3318 C 0.42360 0.50247 0.35548
 C3319 C 0.43321 0.49435 0.34123
 C3320 C 0.42641 0.49445 0.32415
 C3321 C 0.40993 0.50245 0.32076
 C3322 C 0.40038 0.51054 0.33476
 C3323 C 0.44956 0.48609 0.34405
 C3324 C 0.45665 0.48553 0.36073
 C3325 C 0.44766 0.49331 0.37544
 C3326 C 0.43092 0.50205 0.37276
 C3327 C 0.42211 0.51012 0.38742
 C3328 C 0.42933 0.50974 0.40408
 C3329 C 0.44557 0.50125 0.40693
 C3330 C 0.45494 0.49278 0.39272
 C3331 C 0.47124 0.48414 0.39646
 C3332 C 0.47805 0.48433 0.41338
 C3333 C 0.46892 0.49303 0.42731
 C3334 C 0.45255 0.50131 0.42398
 H3335 H 0.39870 0.51698 0.36170
 H3336 H 0.43405 0.48832 0.31341
 H3337 H 0.38746 0.51656 0.33263
 H3338 H 0.45698 0.47991 0.33320
 H3339 H 0.46936 0.47892 0.36157
 H3340 H 0.40956 0.51703 0.38651
 H3341 H 0.42210 0.51622 0.41488
 H3342 H 0.47916 0.47708 0.38666
 H3343 H 0.49064 0.47763 0.41549
 H3344 H 0.44528 0.50805 0.43461
 C3345 C 0.55615 0.01226 0.33561
 C3346 C 0.56464 0.00451 0.35011
 C3347 C 0.58086 -0.00479 0.34677
 C3348 C 0.58792 -0.00650 0.32965
 C3349 C 0.57939 0.00119 0.31526
 C3350 C 0.56340 0.01068 0.31864
 C3351 C 0.59011 -0.01233 0.36055
 C3352 C 0.58368 -0.01089 0.37768
 C3353 C 0.56751 -0.00191 0.38178
 C3354 C 0.55768 0.00570 0.36774
 C3355 C 0.54114 0.01400 0.37177
 C3356 C 0.53434 0.01474 0.38882
 C3357 C 0.54379 0.00750 0.40264
 C3358 C 0.56066 -0.00063 0.39942
 C3359 C 0.56992 -0.00719 0.41406
 C3360 C 0.56237 -0.00643 0.43090
 C3361 C 0.54539 0.00095 0.43388
 C3362 C 0.53630 0.00818 0.41967
 H3363 H 0.54388 0.01973 0.33685
 H3364 H 0.60065 -0.01322 0.32784
 H3365 H 0.55590 0.01647 0.30811
 H3366 H 0.60253 -0.01947 0.35808
 H3367 H 0.59164 -0.01731 0.38738
 H3368 H 0.53285 0.01982 0.36196
 H3369 H 0.52146 0.02103 0.39121
 H3370 H 0.58304 -0.01302 0.41304
 H3371 H 0.56986 -0.01193 0.44160
 H3372 H 0.52325 0.01417 0.42178
 C3373 C 0.05281 0.50272 0.83493
 C3374 C 0.06279 0.50426 0.85049
 C3375 C 0.08152 0.50411 0.84867
 C3376 C 0.08970 0.50258 0.83204
 C3377 C 0.07965 0.50072 0.81683
 C3378 C 0.06114 0.50097 0.81844
 C3379 C 0.09208 0.50530 0.86346
 C3380 C 0.08457 0.50597 0.88019
 C3381 C 0.06603 0.50567 0.88283
 C3382 C 0.05493 0.50556 0.86774
 C3383 C 0.03638 0.50682 0.87043
 C3384 C 0.02891 0.50753 0.88723
 C3385 C 0.03951 0.50665 0.90204
 C3386 C 0.05823 0.50557 0.90008
 C3387 C 0.06834 0.50399 0.91551
 C3388 C 0.06020 0.50363 0.93205
 C3389 C 0.04173 0.50491 0.93392
 C3390 C 0.03146 0.50659 0.91882
 H3391 H 0.03855 0.50236 0.83504
 H3392 H 0.10403 0.50276 0.83096
 H3393 H 0.05304 0.49935 0.80692
 H3394 H 0.10640 0.50546 0.86211
 H3395 H 0.09375 0.50697 0.89082
 H3396 H 0.02720 0.50751 0.85977
 H3397 H 0.01460 0.50848 0.88863
 H3398 H 0.08256 0.50255 0.91531
 H3399 H 0.06849 0.50232 0.94347
 H3400 H 0.01714 0.50742 0.92009
 C3401 C 0.05571 0.47687 0.65885
 C3402 C 0.05855 0.48988 0.64604
 C3403 C 0.07061 0.50339 0.65008
 C3404 C 0.07895 0.50400 0.66644
 C3405 C 0.07604 0.49094 0.67883
 C3406 C 0.06442 0.47739 0.67489
 C3407 C 0.07453 0.51607 0.63767
 C3408 C 0.06716 0.51543 0.62109
 C3409 C 0.05516 0.50221 0.61634
 C3410 C 0.05019 0.48972 0.62929
 C3411 C 0.03686 0.47763 0.62513
 C3412 C 0.02901 0.47740 0.60876
 C3413 C 0.03436 0.48888 0.59572
 C3414 C 0.04771 0.50127 0.59917
 C3415 C 0.05324 0.51199 0.58516
 C3416 C 0.04545 0.51075 0.56867
 C3417 C 0.03183 0.49892 0.56557
 C3418 C 0.02640 0.48798 0.57918
 H3419 H 0.04725 0.46582 0.65672
 H3420 H 0.08823 0.51434 0.66932
 H3421 H 0.06209 0.46710 0.68428
 H3422 H 0.08364 0.52650 0.64073
 H3423 H 0.07085 0.52579 0.61237
 H3424 H 0.03185 0.46838 0.63443
 H3425 H 0.01874 0.46797 0.60623
 H3426 H 0.06378 0.52124 0.58636
 H3427 H 0.05001 0.51927 0.55836
 H3428 H 0.01608 0.47854 0.57684
 C3429 C 0.55326 0.98446 0.15773
 C3430 C 0.55808 0.99541 0.14362
 C3431 C 0.57187 1.00746 0.14652
 C3432 C 0.58027 1.00845 0.16280
 C3433 C 0.57562 0.99726 0.17648
 C3434 C 0.56193 0.98539 0.17382
 C3435 C 0.57743 1.01838 0.13311
 C3436 C 0.57009 1.01724 0.11657
 C3437 C 0.55664 1.00518 0.11278
 C3438 C 0.55001 0.99461 0.12670
 C3439 C 0.53550 0.98370 0.12323
 C3440 C 0.52801 0.98281 0.10667
 C3441 C 0.53487 0.99240 0.09277
 C3442 C 0.54945 1.00353 0.09555
 C3443 C 0.55647 1.01230 0.08085
 C3444 C 0.54903 1.01046 0.06431
 C3445 C 0.53430 0.99986 0.06169
 C3446 C 0.52729 0.99084 0.07604
 H3447 H 0.54319 0.97469 0.15664
 H3448 H 0.59061 1.01794 0.16477
 H3449 H 0.55820 0.97640 0.18405
 H3450 H 0.58780 1.02778 0.13534
 H3451 H 0.57511 1.02630 0.10708
 H3452 H 0.52938 0.97584 0.13316
 H3453 H 0.51682 0.97433 0.10468
 H3454 H 0.56795 1.02043 0.08153
 H3455 H 0.55486 1.01752 0.05351
 H3456 H 0.51605 0.98240 0.07416
 C3457 C 0.41602 0.47807 0.15055
 C3458 C 0.42822 0.49093 0.14531
 C3459 C 0.43350 0.50341 0.15820
 C3460 C 0.42603 0.50348 0.17525
 C3461 C 0.41331 0.49117 0.17989
 C3462 C 0.40871 0.47827 0.16749
 C3463 C 0.44599 0.51595 0.15397
 C3464 C 0.45344 0.51645 0.13720
 C3465 C 0.44843 0.50455 0.12377
 C3466 C 0.43532 0.49183 0.12780
 C3467 C 0.42942 0.48073 0.11409
 C3468 C 0.43631 0.48171 0.09715
 C3469 C 0.44951 0.49359 0.09313
 C3470 C 0.45591 0.50509 0.10637
 C3471 C 0.46970 0.51652 0.10162
 C3472 C 0.47670 0.51645 0.08454
 C3473 C 0.47019 0.50516 0.07152
 C3474 C 0.45646 0.49386 0.07591
 H3475 H 0.41187 0.46758 0.14194
 H3476 H 0.42971 0.51353 0.18473
 H3477 H 0.39930 0.46827 0.17088
 H3478 H 0.45007 0.52553 0.16375
 H3479 H 0.46285 0.52668 0.13511
 H3480 H 0.41916 0.47129 0.11592
 H3481 H 0.43129 0.47295 0.08707
 H3482 H 0.47566 0.52545 0.11082
 H3483 H 0.48733 0.52532 0.08156
 H3484 H 0.45145 0.48489 0.06600
 C3485 C -0.08886 -0.02155 0.64923
 C3486 C -0.07534 -0.00986 0.64456
 C3487 C -0.06847 0.00095 0.65810
 C3488 C -0.07551 0.00054 0.67531
 C3489 C -0.08960 -0.01053 0.67966
 C3490 C -0.09579 -0.02183 0.66630
 C3491 C -0.05473 0.01233 0.65437
 C3492 C -0.04753 0.01319 0.63753
 C3493 C -0.05398 0.00284 0.62351
 C3494 C -0.06837 -0.00862 0.62702
 C3495 C -0.07553 -0.01821 0.61282
 C3496 C -0.06861 -0.01707 0.59590
 C3497 C -0.05422 -0.00647 0.59236
 C3498 C -0.04663 0.00364 0.60607
 C3499 C -0.03185 0.01394 0.60172
 C3500 C -0.02492 0.01403 0.58462
 C3501 C -0.03245 0.00399 0.57115
 C3502 C -0.04726 -0.00609 0.57513
 H3503 H -0.09426 -0.03090 0.64008
 H3504 H -0.07046 0.00966 0.68500
 H3505 H -0.10575 -0.03149 0.66897
 H3506 H -0.04941 0.02067 0.66463
 H3507 H -0.03702 0.02241 0.63591
 H3508 H -0.08675 -0.02659 0.61425
 H3509 H -0.07456 -0.02472 0.58546
 H3510 H -0.02506 0.02187 0.61123
 H3511 H -0.01347 0.02198 0.58199
 H3512 H -0.05316 -0.01404 0.56488
 C3513 C -0.14182 0.91329 1.01612
 C3514 C -0.13730 0.92656 1.00410
 C3515 C -0.15068 0.93269 0.99269
 C3516 C -0.16751 0.92514 0.99283
 C3517 C -0.17153 0.91160 1.00443
 C3518 C -0.15859 0.90599 1.01621
 C3519 C -0.14717 0.94624 0.98110
 C3520 C -0.13071 0.95404 0.98065
 C3521 C -0.11685 0.94830 0.99159
 C3522 C -0.12007 0.93399 1.00315
 C3523 C -0.10587 0.92733 1.01311
 C3524 C -0.08923 0.93462 1.01220
 C3525 C -0.08605 0.94897 1.00154
 C3526 C -0.09978 0.95618 0.99118
 C3527 C -0.09581 0.97110 0.98101
 C3528 C -0.07894 0.97832 0.98109
 C3529 C -0.06541 0.97091 0.99117
 C3530 C -0.06912 0.95618 1.00132
 H3531 H -0.13282 0.90840 1.02583
 H3532 H -0.17740 0.92961 0.98363
 H3533 H -0.16148 0.89597 1.02572
 H3534 H -0.15733 0.95097 0.97232
 H3535 H -0.12916 0.96434 0.97125
 H3536 H -0.10702 0.91616 1.02153
 H3537 H -0.07873 0.92899 1.02005
 H3538 H -0.10550 0.97773 0.97308
 H3539 H -0.07650 0.98977 0.97319
 H3540 H -0.05885 0.95043 1.00938
 C3541 C 0.35411 0.40978 0.51688
 C3542 C 0.35904 0.42229 0.50423
 C3543 C 0.34577 0.42849 0.49272
 C3544 C 0.32861 0.42170 0.49342
 C3545 C 0.32416 0.40888 0.50566
 C3546 C 0.33702 0.40323 0.51751
 C3547 C 0.34969 0.44135 0.48051
 C3548 C 0.36645 0.44846 0.47956
 C3549 C 0.38019 0.44269 0.49062
 C3550 C 0.37656 0.42897 0.50275
 C3551 C 0.39064 0.42215 0.51278
 C3552 C 0.40752 0.42889 0.51153
 C3553 C 0.41106 0.44283 0.50045
 C3554 C 0.39750 0.45004 0.48987
 C3555 C 0.40181 0.46453 0.47924
 C3556 C 0.41878 0.47151 0.47929
 C3557 C 0.43208 0.46425 0.48976
 C3558 C 0.42813 0.44975 0.50014
 H3559 H 0.36304 0.40495 0.52668
 H3560 H 0.31879 0.42617 0.48415
 H3561 H 0.33382 0.39375 0.52748
 H3562 H 0.33962 0.44609 0.47163
 H3563 H 0.36831 0.45827 0.46970
 H3564 H 0.38917 0.41130 0.52156
 H3565 H 0.41789 0.42322 0.51951
 H3566 H 0.39230 0.47109 0.47106
 H3567 H 0.42143 0.48275 0.47116
 H3568 H 0.43824 0.44412 0.50846
 C3569 C 0.35614 0.59409 -0.01532
 C3570 C 0.36021 0.57888 -0.00549
 C3571 C 0.34621 0.57132 0.00423
 C3572 C 0.32910 0.57908 0.00445
 C3573 C 0.32555 0.59450 -0.00485
 C3574 C 0.33916 0.60172 -0.01491
 C3575 C 0.34938 0.55619 0.01391
 C3576 C 0.36618 0.54837 0.01434
 C3577 C 0.38067 0.55549 0.00514
 C3578 C 0.37765 0.57104 -0.00490
 C3579 C 0.39220 0.57838 -0.01381
 C3580 C 0.40906 0.57083 -0.01307
 C3581 C 0.41222 0.55563 -0.00350
 C3582 C 0.39813 0.54766 0.00572
 C3583 C 0.40219 0.53216 0.01511
 C3584 C 0.41939 0.52498 0.01523
 C3585 C 0.43323 0.53296 0.00608
 C3586 C 0.42949 0.54836 -0.00320
 H3587 H 0.36571 0.60052 -0.02345
 H3588 H 0.31867 0.57342 0.01233
 H3589 H 0.33665 0.61341 -0.02253
 H3590 H 0.33873 0.55032 0.02134
 H3591 H 0.36735 0.53678 0.02221
 H3592 H 0.39111 0.59014 -0.02144
 H3593 H 0.41979 0.57699 -0.02012
 H3594 H 0.39241 0.52511 0.02244
 H3595 H 0.42182 0.51306 0.02253
 H3596 H 0.44002 0.55466 -0.01042
 C3597 C -0.14648 0.08933 0.47737
 C3598 C -0.14161 0.07700 0.49029
 C3599 C -0.15479 0.07229 0.50271
 C3600 C -0.17175 0.08037 0.50264
 C3601 C -0.17607 0.09311 0.49019
 C3602 C -0.16336 0.09721 0.47740
 C3603 C -0.15095 0.05972 0.51530
 C3604 C -0.13430 0.05160 0.51589
 C3605 C -0.12058 0.05599 0.50404
 C3606 C -0.12419 0.06920 0.49128
 C3607 C -0.11016 0.07449 0.48023
 C3608 C -0.09329 0.06699 0.48135
 C3609 C -0.08969 0.05373 0.49329
 C3610 C -0.10328 0.04785 0.50469
 C3611 C -0.09894 0.03393 0.51615
 C3612 C -0.08187 0.02642 0.51632
 C3613 C -0.06847 0.03251 0.50522
 C3614 C -0.07251 0.04625 0.49377
 H3615 H -0.13764 0.09311 0.46694
 H3616 H -0.18143 0.07708 0.51265
 H3617 H -0.16648 0.10661 0.46729
 H3618 H -0.16096 0.05607 0.52485
 H3619 H -0.13250 0.04217 0.52615
 H3620 H -0.11165 0.08476 0.47075
 H3621 H -0.08294 0.07158 0.47265
 H3622 H -0.10846 0.02830 0.52496
 H3623 H -0.07918 0.01576 0.52525
 H3624 H -0.06233 0.05094 0.48493
 C3625 C 0.65216 0.09705 0.51009
 C3626 C 0.64945 0.07992 0.50307
 C3627 C 0.66444 0.07053 0.49591
 C3628 C 0.68128 0.07805 0.49594
 C3629 C 0.68367 0.09507 0.50284
 C3630 C 0.66894 0.10443 0.50993
 C3631 C 0.66259 0.05369 0.48868
 C3632 C 0.64616 0.04589 0.48819
 C3633 C 0.63077 0.05461 0.49506
 C3634 C 0.63247 0.07184 0.50281
 C3635 C 0.61716 0.08034 0.51014
 C3636 C 0.60080 0.07238 0.50997
 C3637 C 0.59889 0.05569 0.50239
 C3638 C 0.61375 0.04660 0.49465
 C3639 C 0.61091 0.02983 0.48685
 C3640 C 0.59422 0.02229 0.48726
 C3641 C 0.57969 0.03114 0.49536
 C3642 C 0.58213 0.04798 0.50270
 H3643 H 0.64161 0.10528 0.51561
 H3644 H 0.69259 0.07057 0.49060
 H3645 H 0.67027 0.11773 0.51505
 H3646 H 0.67401 0.04644 0.48324
 H3647 H 0.64607 0.03283 0.48243
 H3648 H 0.61734 0.09319 0.51636
 H3649 H 0.58948 0.07940 0.51590
 H3650 H 0.62125 0.02210 0.48030
 H3651 H 0.59279 0.00934 0.48131
 H3652 H 0.57102 0.05507 0.50894
 C3653 C 0.15229 0.59846 1.00929
 C3654 C 0.14877 0.58289 0.99964
 C3655 C 0.16313 0.57446 0.99041
 C3656 C 0.18017 0.58166 0.99066
 C3657 C 0.18357 0.59715 1.00045
 C3658 C 0.16922 0.60535 1.00967
 C3659 C 0.16050 0.55873 0.98113
 C3660 C 0.14400 0.55095 0.98107
 C3661 C 0.12927 0.55877 0.99013
 C3662 C 0.13158 0.57529 0.99911
 C3663 C 0.11663 0.58371 1.00722
 C3664 C 0.10017 0.57600 1.00725
 C3665 C 0.09787 0.55955 0.99932
 C3666 C 0.11229 0.55065 0.99057
 C3667 C 0.10909 0.53386 0.98293
 C3668 C 0.09241 0.52628 0.98420
 C3669 C 0.07830 0.53512 0.99303
 C3670 C 0.08116 0.55189 1.00035
 H3671 H 0.14232 0.60567 1.01692
 H3672 H 0.19089 0.57457 0.98382
 H3673 H 0.17068 0.61768 1.01681
 H3674 H 0.17139 0.55221 0.97397
 H3675 H 0.14322 0.53881 0.97361
 H3676 H 0.11708 0.59647 1.01360
 H3677 H 0.08914 0.58295 1.01377
 H3678 H 0.11924 0.52605 0.97616
 H3679 H 0.09065 0.51332 0.97837
 H3680 H 0.07042 0.55892 1.00726
 C3681 C 0.16637 0.44818 0.50266
 C3682 C 0.15024 0.43932 0.50534
 C3683 C 0.15130 0.42090 0.50822
 C3684 C 0.16775 0.41205 0.50892
 C3685 C 0.18354 0.42104 0.50645
 C3686 C 0.18271 0.43913 0.50314
 C3687 C 0.13593 0.41132 0.51035
 C3688 C 0.11939 0.41947 0.50931
 C3689 C 0.11750 0.43773 0.50635
 C3690 C 0.13316 0.44795 0.50502
 C3691 C 0.13119 0.46644 0.50370
 C3692 C 0.11454 0.47463 0.50330
 C3693 C 0.09918 0.46476 0.50373
 C3694 C 0.10044 0.44614 0.50496
 C3695 C 0.08453 0.43665 0.50443
 C3696 C 0.06816 0.44533 0.50317
 C3697 C 0.06693 0.46375 0.50246
 C3698 C 0.08253 0.47342 0.50280
 H3699 H 0.16683 0.46203 0.49985
 H3700 H 0.16828 0.39795 0.51107
 H3701 H 0.19477 0.44633 0.50108
 H3702 H 0.13670 0.39727 0.51271
 H3703 H 0.10828 0.41106 0.51134
 H3704 H 0.14232 0.47506 0.50334
 H3705 H 0.11369 0.48888 0.50242
 H3706 H 0.08422 0.42248 0.50457
 H3707 H 0.05635 0.43749 0.50287
 H3708 H 0.08175 0.48767 0.50199
 C3709 C 0.67164 0.94832 0.00086
 C3710 C 0.65549 0.93952 0.00361
 C3711 C 0.65646 0.92111 0.00654
 C3712 C 0.67289 0.91220 0.00726
 C3713 C 0.68870 0.92114 0.00472
 C3714 C 0.68794 0.93920 0.00133
 C3715 C 0.64105 0.91159 0.00866
 C3716 C 0.62454 0.91980 0.00754
 C3717 C 0.62275 0.93806 0.00451
 C3718 C 0.63845 0.94822 0.00327
 C3719 C 0.63657 0.96672 0.00201
 C3720 C 0.61996 0.97498 0.00151
 C3721 C 0.60457 0.96515 0.00175
 C3722 C 0.60574 0.94652 0.00296
 C3723 C 0.58980 0.93709 0.00219
 C3724 C 0.57349 0.94583 0.00063
 C3725 C 0.57238 0.96425 -0.00009
 C3726 C 0.58798 0.97386 0.00058
 H3727 H 0.67215 0.96215 -0.00203
 H3728 H 0.67337 0.89811 0.00947
 H3729 H 0.70003 0.94634 -0.00079
 H3730 H 0.64175 0.89755 0.01107
 H3731 H 0.61337 0.91145 0.00954
 H3732 H 0.64774 0.97529 0.00179
 H3733 H 0.61917 0.98922 0.00067
 H3734 H 0.58945 0.92291 0.00230
 H3735 H 0.56164 0.93806 0.00007
 H3736 H 0.58726 0.98812 -0.00026
 C3737 C -0.01921 0.83738 0.94476
 C3738 C -0.01268 0.85220 0.93594
 C3739 C -0.00735 0.84980 0.91813
 C3740 C -0.00866 0.83329 0.90964
 C3741 C -0.01512 0.81858 0.91852
 C3742 C -0.02036 0.82101 0.93626
 C3743 C -0.00059 0.86385 0.90881
 C3744 C 0.00107 0.88033 0.91673
 C3745 C -0.00407 0.88349 0.93444
 C3746 C -0.01121 0.86922 0.94417
 C3747 C -0.01667 0.87246 0.96179
 C3748 C -0.01518 0.88896 0.96968
 C3749 C -0.00814 0.90292 0.96046
 C3750 C -0.00240 0.90047 0.94275
 C3751 C 0.00480 0.91517 0.93416
 C3752 C 0.00601 0.93150 0.94278
 C3753 C 0.00014 0.93382 0.96023
 C3754 C -0.00688 0.91938 0.96897
 H3755 H -0.02363 0.83787 0.95827
 H3756 H -0.00381 0.83192 0.89622
 H3757 H -0.02609 0.81047 0.94367
 H3758 H 0.00352 0.86210 0.89516
 H3759 H 0.00637 0.89036 0.90848
 H3760 H -0.02229 0.86254 0.96995
 H3761 H -0.01961 0.89078 0.98322
 H3762 H 0.00966 0.91458 0.92079
 H3763 H 0.01152 0.94238 0.93565
 H3764 H -0.01144 0.92092 0.98250
 C3765 C 0.48339 0.33173 0.44428
 C3766 C 0.48846 0.34702 0.43521
 C3767 C 0.49386 0.34487 0.41736
 C3768 C 0.49389 0.32818 0.40906
 C3769 C 0.48870 0.31324 0.41822
 C3770 C 0.48350 0.31521 0.43588
 C3771 C 0.49919 0.35937 0.40781
 C3772 C 0.49949 0.37606 0.41556
 C3773 C 0.49430 0.37900 0.43329
 C3774 C 0.48845 0.36427 0.44322
 C3775 C 0.48272 0.36730 0.46078
 C3776 C 0.48297 0.38397 0.46852
 C3777 C 0.48899 0.39835 0.45920
 C3778 C 0.49473 0.39617 0.44146
 C3779 C 0.50081 0.41130 0.43274
 C3780 C 0.50126 0.42770 0.44136
 C3781 C 0.49565 0.42970 0.45892
 C3782 C 0.48940 0.41491 0.46768
 H3783 H 0.47940 0.33196 0.45791
 H3784 H 0.49774 0.32686 0.39531
 H3785 H 0.47970 0.30385 0.44337
 H3786 H 0.50328 0.35780 0.39414
 H3787 H 0.50378 0.38643 0.40716
 H3788 H 0.47781 0.35705 0.46899
 H3789 H 0.47848 0.38560 0.48207
 H3790 H 0.50552 0.41096 0.41932
 H3791 H 0.50615 0.43885 0.43421
 H3792 H 0.48503 0.41619 0.48129
 C3793 C 0.01598 0.33394 0.55375
 C3794 C 0.01098 0.35025 0.56194
 C3795 C 0.00599 0.34999 0.57993
 C3796 C 0.00621 0.33419 0.58919
 C3797 C 0.01149 0.31802 0.58109
 C3798 C 0.01617 0.31822 0.56311
 C3799 C 0.00069 0.36551 0.58875
 C3800 C 0.00029 0.38145 0.58019
 C3801 C 0.00522 0.38259 0.56229
 C3802 C 0.01067 0.36674 0.55298
 C3803 C 0.01561 0.36794 0.53507
 C3804 C 0.01514 0.38397 0.52651
 C3805 C 0.00977 0.39949 0.53536
 C3806 C 0.00479 0.39906 0.55339
 C3807 C -0.00048 0.41521 0.56174
 C3808 C -0.00101 0.43090 0.55255
 C3809 C 0.00373 0.43125 0.53469
 C3810 C 0.00926 0.41545 0.52621
 H3811 H 0.01996 0.33280 0.54013
 H3812 H 0.00150 0.33461 0.60269
 H3813 H 0.02075 0.30637 0.55619
 H3814 H -0.00319 0.36536 0.60252
 H3815 H -0.00400 0.39266 0.58813
 H3816 H 0.01994 0.35668 0.52720
 H3817 H 0.01901 0.38420 0.51274
 H3818 H -0.00436 0.41631 0.57538
 H3819 H -0.00520 0.44286 0.55957
 H3820 H 0.01300 0.41550 0.51240
 C3821 C 0.52081 0.83457 0.04944
 C3822 C 0.51270 0.85037 0.05625
 C3823 C 0.50432 0.84969 0.07301
 C3824 C 0.50429 0.83402 0.08245
 C3825 C 0.51275 0.81867 0.07575
 C3826 C 0.52079 0.81901 0.05907
 C3827 C 0.49606 0.86468 0.08046
 C3828 C 0.49627 0.88061 0.07190
 C3829 C 0.50479 0.88225 0.05539
 C3830 C 0.51275 0.86680 0.04719
 C3831 C 0.52044 0.86834 0.03027
 C3832 C 0.52053 0.88438 0.02171
 C3833 C 0.51323 0.89962 0.02971
 C3834 C 0.50544 0.89882 0.04675
 C3835 C 0.49878 0.91475 0.05453
 C3836 C 0.49934 0.93056 0.04559
 C3837 C 0.50663 0.93128 0.02859
 C3838 C 0.51370 0.91571 0.02076
 H3839 H 0.52754 0.83381 0.03687
 H3840 H 0.49768 0.83379 0.09519
 H3841 H 0.52749 0.80732 0.05362
 H3842 H 0.48945 0.86413 0.09318
 H3843 H 0.48938 0.89138 0.07862
 H3844 H 0.52641 0.85729 0.02313
 H3845 H 0.52650 0.88487 0.00869
 H3846 H 0.49318 0.91562 0.06761
 H3847 H 0.49395 0.94233 0.05216
 H3848 H 0.51953 0.91606 0.00767
 C3849 C 0.51169 0.64820 0.09655
 C3850 C 0.50497 0.64416 0.07972
 C3851 C 0.49881 0.65844 0.06949
 C3852 C 0.49985 0.67592 0.07577
 C3853 C 0.50697 0.67965 0.09227
 C3854 C 0.51266 0.66560 0.10263
 C3855 C 0.49178 0.65527 0.05296
 C3856 C 0.49083 0.63824 0.04616
 C3857 C 0.49704 0.62354 0.05561
 C3858 C 0.50427 0.62654 0.07266
 C3859 C 0.51082 0.61188 0.08196
 C3860 C 0.51054 0.59492 0.07484
 C3861 C 0.50364 0.59176 0.05824
 C3862 C 0.49657 0.60595 0.04845
 C3863 C 0.48944 0.60189 0.03180
 C3864 C 0.48985 0.58467 0.02507
 C3865 C 0.49729 0.57078 0.03460
 C3866 C 0.50397 0.57444 0.05132
 H3867 H 0.51630 0.63828 0.10543
 H3868 H 0.49547 0.68669 0.06760
 H3869 H 0.51780 0.66805 0.11563
 H3870 H 0.48701 0.66613 0.04511
 H3871 H 0.48533 0.63714 0.03324
 H3872 H 0.51654 0.61301 0.09477
 H3873 H 0.51591 0.58413 0.08242
 H3874 H 0.48346 0.61166 0.02355
 H3875 H 0.48442 0.58232 0.01217
 H3876 H 0.50965 0.56383 0.05893
 C3877 C 0.01387 0.14664 0.59521
 C3878 C 0.00677 0.14268 0.57852
 C3879 C 0.00053 0.15702 0.56843
 C3880 C 0.00168 0.17447 0.57477
 C3881 C 0.00894 0.17812 0.59123
 C3882 C 0.01489 0.16401 0.60138
 C3883 C -0.00681 0.15393 0.55202
 C3884 C -0.00813 0.13691 0.54527
 C3885 C -0.00202 0.12213 0.55467
 C3886 C 0.00567 0.12506 0.57152
 C3887 C 0.01220 0.11032 0.58071
 C3888 C 0.01138 0.09335 0.57372
 C3889 C 0.00393 0.09025 0.55735
 C3890 C -0.00309 0.10453 0.54765
 C3891 C -0.01080 0.10052 0.53126
 C3892 C -0.01099 0.08326 0.52465
 C3893 C -0.00360 0.06927 0.53409
 C3894 C 0.00364 0.07289 0.55057
 H3895 H 0.01863 0.13667 0.60397
 H3896 H -0.00288 0.18527 0.56673
 H3897 H 0.02017 0.16637 0.61434
 H3898 H -0.01160 0.16484 0.54425
 H3899 H -0.01387 0.13586 0.53246
 H3900 H 0.01830 0.11140 0.59336
 H3901 H 0.01674 0.08249 0.58121
 H3902 H -0.01681 0.11037 0.52311
 H3903 H -0.01684 0.08094 0.51194
 H3904 H 0.00932 0.06222 0.55810
 C3905 C 0.49877 0.16065 0.45062
 C3906 C 0.50375 0.14466 0.44174
 C3907 C 0.50513 0.14493 0.42315
 C3908 C 0.50188 0.16055 0.41404
 C3909 C 0.49679 0.17621 0.42299
 C3910 C 0.49535 0.17610 0.44136
 C3911 C 0.50962 0.12957 0.41364
 C3912 C 0.51216 0.11369 0.42207
 C3913 C 0.51052 0.11253 0.44051
 C3914 C 0.50705 0.12840 0.45057
 C3915 C 0.50706 0.12746 0.46909
 C3916 C 0.50962 0.11151 0.47749
 C3917 C 0.51188 0.09579 0.46785
 C3918 C 0.51228 0.09603 0.44921
 C3919 C 0.51385 0.07964 0.44006
 C3920 C 0.51481 0.06381 0.44904
 C3921 C 0.51446 0.06366 0.46743
 C3922 C 0.51332 0.07974 0.47678
 H3923 H 0.49696 0.16161 0.46467
 H3924 H 0.50338 0.16050 0.39985
 H3925 H 0.49121 0.18793 0.44863
 H3926 H 0.51095 0.12977 0.39944
 H3927 H 0.51568 0.10254 0.41368
 H3928 H 0.50533 0.13893 0.47754
 H3929 H 0.50945 0.11145 0.49173
 H3930 H 0.51378 0.07847 0.42595
 H3931 H 0.51569 0.05155 0.44150
 H3932 H 0.51281 0.07973 0.49102
 C3933 C 0.00838 0.66581 0.94888
 C3934 C 0.00320 0.64942 0.94171
 C3935 C -0.00597 0.64963 0.92562
 C3936 C -0.01025 0.66559 0.91751
 C3937 C -0.00509 0.68185 0.92470
 C3938 C 0.00441 0.68163 0.94049
 C3939 C -0.01078 0.63388 0.91751
 C3940 C -0.00658 0.61781 0.92491
 C3941 C 0.00241 0.61680 0.94100
 C3942 C 0.00690 0.63286 0.94984
 C3943 C 0.01453 0.63182 0.96663
 C3944 C 0.01753 0.61570 0.97459
 C3945 C 0.01354 0.59993 0.96599
 C3946 C 0.00646 0.60023 0.94884
 C3947 C 0.00365 0.58387 0.94026
 C3948 C 0.00637 0.56804 0.94887
 C3949 C 0.01216 0.56782 0.96627
 C3950 C 0.01624 0.58384 0.97458
 H3951 H 0.01573 0.66692 0.96084
 H3952 H -0.01682 0.66507 0.90498
 H3953 H 0.00837 0.69373 0.94688
 H3954 H -0.01786 0.63397 0.90523
 H3955 H -0.01110 0.60637 0.91787
 H3956 H 0.01783 0.64332 0.97430
 H3957 H 0.02300 0.61558 0.98767
 H3958 H -0.00062 0.58278 0.92686
 H3959 H 0.00357 0.55589 0.94186
 H3960 H 0.02102 0.58386 0.98794
 C3961 C 0.23296 0.69997 0.91486
 C3962 C 0.23659 0.69035 0.89900
 C3963 C 0.24322 0.67280 0.90040
 C3964 C 0.24618 0.66544 0.91691
 C3965 C 0.24278 0.67522 0.93244
 C3966 C 0.23600 0.69248 0.93124
 C3967 C 0.24696 0.66261 0.88534
 C3968 C 0.24459 0.66946 0.86876
 C3969 C 0.23832 0.68694 0.86650
 C3970 C 0.23404 0.69751 0.88187
 C3971 C 0.22747 0.71488 0.87957
 C3972 C 0.22544 0.72184 0.86296
 C3973 C 0.22988 0.71187 0.84790
 C3974 C 0.23629 0.69425 0.84938
 C3975 C 0.24060 0.68479 0.83359
 C3976 C 0.23888 0.69262 0.81723
 C3977 C 0.23275 0.71010 0.81587
 C3978 C 0.22810 0.71957 0.83134
 H3979 H 0.22791 0.71336 0.91515
 H3980 H 0.25107 0.65192 0.91767
 H3981 H 0.23331 0.70036 0.94303
 H3982 H 0.25192 0.64914 0.88637
 H3983 H 0.24787 0.66060 0.85794
 H3984 H 0.22377 0.72358 0.89041
 H3985 H 0.22045 0.73529 0.86191
 H3986 H 0.24554 0.67137 0.83334
 H3987 H 0.24254 0.68489 0.80556
 H3988 H 0.22332 0.73312 0.83056
 C3989 C 0.72869 0.19757 0.40995
 C3990 C 0.73739 0.19143 0.39430
 C3991 C 0.74948 0.17695 0.39561
 C3992 C 0.75288 0.16933 0.41191
 C3993 C 0.74397 0.17537 0.42724
 C3994 C 0.73192 0.18962 0.42606
 C3995 C 0.75809 0.16998 0.38064
 C3996 C 0.75472 0.17676 0.36421
 C3997 C 0.74274 0.19111 0.36208
 C3998 C 0.73441 0.19898 0.37743
 C3999 C 0.72365 0.21427 0.37540
 C4000 C 0.72109 0.22161 0.35900
 C4001 C 0.72871 0.21380 0.34389
 C4002 C 0.73925 0.19817 0.34514
 C4003 C 0.74583 0.19023 0.32931
 C4004 C 0.74300 0.19808 0.31316
 C4005 C 0.73347 0.21409 0.31207
 C4006 C 0.72604 0.22169 0.32752
 H4007 H 0.71896 0.20818 0.41015
 H4008 H 0.76250 0.15855 0.41259
 H4009 H 0.72456 0.19440 0.43757
 H4010 H 0.76746 0.15900 0.38160
 H4011 H 0.76214 0.17069 0.35344
 H4012 H 0.71736 0.22123 0.38635
 H4013 H 0.71299 0.23354 0.35816
 H4014 H 0.75314 0.17786 0.32889
 H4015 H 0.74869 0.19169 0.30147
 H4016 H 0.71836 0.23391 0.32688
 C4017 C 0.25409 0.30497 0.41798
 C4018 C 0.24850 0.31374 0.40265
 C4019 C 0.24282 0.33164 0.40457
 C4020 C 0.24273 0.34018 0.42106
 C4021 C 0.24829 0.33131 0.43602
 C4022 C 0.25400 0.31366 0.43432
 C4023 C 0.23729 0.34104 0.39004
 C4024 C 0.23721 0.33315 0.37349
 C4025 C 0.24268 0.31537 0.37075
 C4026 C 0.24837 0.30546 0.38558
 C4027 C 0.25366 0.28763 0.38283
 C4028 C 0.25333 0.27968 0.36626
 C4029 C 0.24781 0.28912 0.35172
 C4030 C 0.24251 0.30712 0.35368
 C4031 C 0.23722 0.31610 0.33842
 C4032 C 0.23686 0.30748 0.32213
 C4033 C 0.24181 0.28961 0.32031
 C4034 C 0.24745 0.28056 0.33519
 H4035 H 0.25865 0.29142 0.41786
 H4036 H 0.23859 0.35395 0.42219
 H4037 H 0.25826 0.30647 0.44573
 H4038 H 0.23293 0.35472 0.39146
 H4039 H 0.23264 0.34146 0.36312
 H4040 H 0.25808 0.27930 0.39326
 H4041 H 0.25743 0.26593 0.36485
 H4042 H 0.23322 0.32981 0.33849
 H4043 H 0.23262 0.31494 0.31089
 H4044 H 0.25138 0.26674 0.33398
 C4045 C 0.75794 0.80441 0.91730
 C4046 C 0.75111 0.81288 0.90230
 C4047 C 0.74488 0.83059 0.90448
 C4048 C 0.74547 0.83923 0.92089
 C4049 C 0.75221 0.83063 0.93556
 C4050 C 0.75848 0.81318 0.93359
 C4051 C 0.73810 0.83970 0.89028
 C4052 C 0.73724 0.83169 0.87383
 C4053 C 0.74318 0.81408 0.87084
 C4054 C 0.75023 0.80450 0.88531
 C4055 C 0.75613 0.78688 0.88228
 C4056 C 0.75512 0.77884 0.86579
 C4057 C 0.74824 0.78796 0.85160
 C4058 C 0.74222 0.80572 0.85387
 C4059 C 0.73545 0.81437 0.83899
 C4060 C 0.73456 0.80570 0.82275
 C4061 C 0.74038 0.78811 0.82059
 C4062 C 0.74730 0.77934 0.83513
 H4063 H 0.76296 0.79101 0.91697
 H4064 H 0.74090 0.85285 0.92218
 H4065 H 0.76365 0.80620 0.94476
 H4066 H 0.73335 0.85324 0.89189
 H4067 H 0.73176 0.83980 0.86373
 H4068 H 0.76161 0.77881 0.89243
 H4069 H 0.75978 0.76527 0.86415
 H4070 H 0.73067 0.82784 0.83931
 H4071 H 0.72923 0.81294 0.81181
 H4072 H 0.75192 0.76574 0.83367
 C4073 C 0.74091 0.81143 0.09141
 C4074 C 0.75170 0.81617 0.10573
 C4075 C 0.76397 0.82979 0.10311
 C4076 C 0.76551 0.83791 0.08677
 C4077 C 0.75460 0.83321 0.07280
 C4078 C 0.74234 0.81986 0.07529
 C4079 C 0.77460 0.83538 0.11682
 C4080 C 0.77310 0.82808 0.13332
 C4081 C 0.76104 0.81457 0.13673
 C4082 C 0.75061 0.80808 0.12256
 C4083 C 0.73968 0.79355 0.12563
 C4084 C 0.73883 0.78572 0.14196
 C4085 C 0.74848 0.79226 0.15602
 C4086 C 0.75940 0.80703 0.15375
 C4087 C 0.76816 0.81369 0.16869
 C4088 C 0.76686 0.80544 0.18486
 C4089 C 0.75677 0.79031 0.18681
 C4090 C 0.74737 0.78397 0.17235
 H4091 H 0.73089 0.80160 0.09231
 H4092 H 0.77526 0.84802 0.08498
 H4093 H 0.73346 0.81618 0.06488
 H4094 H 0.78411 0.84569 0.11483
 H4095 H 0.78197 0.83309 0.14306
 H4096 H 0.73188 0.78757 0.11551
 H4097 H 0.73046 0.77443 0.14361
 H4098 H 0.77603 0.82534 0.16843
 H4099 H 0.77410 0.81084 0.19582
 H4100 H 0.73926 0.77245 0.17373
 C4101 C 0.23749 0.30649 0.58989
 C4102 C 0.24940 0.31014 0.60363
 C4103 C 0.26177 0.32365 0.60093
 C4104 C 0.26225 0.33280 0.58511
 C4105 C 0.25022 0.32921 0.57176
 C4106 C 0.23791 0.31591 0.57428
 C4107 C 0.27357 0.32814 0.61406
 C4108 C 0.27306 0.31993 0.63015
 C4109 C 0.26081 0.30663 0.63371
 C4110 C 0.24929 0.30112 0.62000
 C4111 C 0.23824 0.28668 0.62308
 C4112 C 0.23816 0.27815 0.63908
 C4113 C 0.24872 0.28390 0.65282
 C4114 C 0.25994 0.29844 0.65046
 C4115 C 0.26963 0.30437 0.66509
 C4116 C 0.26872 0.29582 0.68108
 C4117 C 0.25816 0.28103 0.68318
 C4118 C 0.24809 0.27519 0.66898
 H4119 H 0.22736 0.29678 0.59094
 H4120 H 0.27206 0.34284 0.58322
 H4121 H 0.22826 0.31304 0.56432
 H4122 H 0.28320 0.33830 0.61196
 H4123 H 0.28280 0.32411 0.63944
 H4124 H 0.22970 0.28136 0.61321
 H4125 H 0.22958 0.26702 0.64078
 H4126 H 0.27782 0.31580 0.66478
 H4127 H 0.27652 0.30078 0.69185
 H4128 H 0.23962 0.26396 0.67052
 C4129 C 0.75840 0.20437 0.58412
 C4130 C 0.76169 0.19464 0.59952
 C4131 C 0.76340 0.17604 0.59771
 C4132 C 0.76259 0.16778 0.58110
 C4133 C 0.75957 0.17764 0.56602
 C4134 C 0.75729 0.19595 0.56770
 C4135 C 0.76583 0.16571 0.61246
 C4136 C 0.76620 0.17335 0.62915
 C4137 C 0.76453 0.19179 0.63174
 C4138 C 0.76301 0.20266 0.61662
 C4139 C 0.76316 0.22115 0.61909
 C4140 C 0.76415 0.22879 0.63575
 C4141 C 0.76459 0.21840 0.65066
 C4142 C 0.76456 0.19975 0.64894
 C4143 C 0.76413 0.18988 0.66456
 C4144 C 0.76384 0.19822 0.68107
 C4145 C 0.76420 0.21662 0.68264
 C4146 C 0.76477 0.22662 0.66735
 H4147 H 0.75627 0.21846 0.58434
 H4148 H 0.76397 0.15354 0.57994
 H4149 H 0.75482 0.20380 0.55621
 H4150 H 0.76728 0.15149 0.61113
 H4151 H 0.76825 0.16439 0.63977
 H4152 H 0.76291 0.23014 0.60831
 H4153 H 0.76429 0.24305 0.63697
 H4154 H 0.76348 0.17572 0.66453
 H4155 H 0.76330 0.19020 0.69268
 H4156 H 0.76473 0.24090 0.66843
 C4157 C 0.24814 0.66770 0.10479
 C4158 C 0.25756 0.68298 0.10942
 C4159 C 0.26624 0.69200 0.09569
 C4160 C 0.26574 0.68562 0.07822
 C4161 C 0.25677 0.67017 0.07405
 C4162 C 0.24784 0.66146 0.08747
 C4163 C 0.27551 0.70725 0.09947
 C4164 C 0.27642 0.71384 0.11657
 C4165 C 0.26813 0.70535 0.13076
 C4166 C 0.25864 0.68958 0.12713
 C4167 C 0.25065 0.68087 0.14135
 C4168 C 0.25152 0.68743 0.15842
 C4169 C 0.26039 0.70292 0.16215
 C4170 C 0.26894 0.71210 0.14846
 C4171 C 0.27777 0.72774 0.15313
 C4172 C 0.27769 0.73410 0.17048
 C4173 C 0.26891 0.72512 0.18386
 C4174 C 0.26052 0.70936 0.17957
 H4175 H 0.24081 0.66018 0.11416
 H4176 H 0.27273 0.69244 0.06791
 H4177 H 0.24049 0.64969 0.08454
 H4178 H 0.28217 0.71421 0.08905
 H4179 H 0.28386 0.72567 0.11819
 H4180 H 0.24356 0.66881 0.13980
 H4181 H 0.24506 0.68031 0.16884
 H4182 H 0.28471 0.73556 0.14372
 H4183 H 0.28438 0.74627 0.17335
 H4184 H 0.25366 0.70224 0.18974
 C4185 C 0.18699 0.57755 0.75799
 C4186 C 0.17872 0.59279 0.75094
 C4187 C 0.16243 0.59057 0.74222
 C4188 C 0.15501 0.57385 0.74053
 C4189 C 0.16334 0.55897 0.74764
 C4190 C 0.17935 0.56100 0.75639
 C4191 C 0.15347 0.60506 0.73532
 C4192 C 0.16016 0.62186 0.73698
 C4193 C 0.17629 0.62490 0.74556
 C4194 C 0.18591 0.61008 0.75236
 C4195 C 0.20245 0.61304 0.76019
 C4196 C 0.20936 0.62982 0.76140
 C4197 C 0.20004 0.64441 0.75510
 C4198 C 0.18327 0.64225 0.74731
 C4199 C 0.17418 0.65761 0.74163
 C4200 C 0.18172 0.67418 0.74306
 C4201 C 0.19855 0.67616 0.75026
 C4202 C 0.20753 0.66117 0.75645
 H4203 H 0.19924 0.57794 0.76503
 H4204 H 0.14241 0.57247 0.73404
 H4205 H 0.18606 0.54969 0.76198
 H4206 H 0.14105 0.60342 0.72858
 H4207 H 0.15239 0.63219 0.73111
 H4208 H 0.21062 0.60259 0.76533
 H4209 H 0.22219 0.63138 0.76737
 H4210 H 0.16117 0.65739 0.73605
 H4211 H 0.17433 0.68548 0.73830
 H4212 H 0.22049 0.66248 0.76221
 C4213 C 0.68427 0.08468 0.25495
 C4214 C 0.67649 0.10024 0.24817
 C4215 C 0.65999 0.09870 0.23977
 C4216 C 0.65184 0.08232 0.23818
 C4217 C 0.65944 0.06689 0.24525
 C4218 C 0.67594 0.06845 0.25350
 C4219 C 0.65155 0.11353 0.23293
 C4220 C 0.65888 0.13004 0.23458
 C4221 C 0.67519 0.13244 0.24303
 C4222 C 0.68440 0.11723 0.24952
 C4223 C 0.70126 0.11952 0.25693
 C4224 C 0.70882 0.13603 0.25806
 C4225 C 0.69983 0.15101 0.25218
 C4226 C 0.68275 0.14950 0.24488
 C4227 C 0.67391 0.16521 0.23979
 C4228 C 0.68201 0.18149 0.24116
 C4229 C 0.69918 0.18285 0.24772
 C4230 C 0.70792 0.16751 0.25345
 H4231 H 0.69661 0.08461 0.26185
 H4232 H 0.63969 0.08175 0.23087
 H4233 H 0.68228 0.05733 0.25973
 H4234 H 0.63899 0.11241 0.22632
 H4235 H 0.65148 0.14066 0.22874
 H4236 H 0.70918 0.10871 0.26175
 H4237 H 0.72188 0.13707 0.26366
 H4238 H 0.66064 0.16549 0.23480
 H4239 H 0.67476 0.19307 0.23685
 H4240 H 0.72113 0.16835 0.25875
 C4241 C 0.80191 0.08295 0.74848
 C4242 C 0.81176 0.09828 0.74518
 C4243 C 0.83036 0.09615 0.74281
 C4244 C 0.83848 0.07935 0.74308
 C4245 C 0.82852 0.06435 0.74614
 C4246 C 0.81023 0.06630 0.74903
 C4247 C 0.84084 0.11079 0.74026
 C4248 C 0.83338 0.12766 0.74043
 C4249 C 0.81496 0.13058 0.74282
 C4250 C 0.80389 0.11561 0.74446
 C4251 C 0.78534 0.11845 0.74506
 C4252 C 0.77786 0.13534 0.74463
 C4253 C 0.78851 0.15010 0.74405
 C4254 C 0.80722 0.14799 0.74338
 C4255 C 0.81741 0.16344 0.74371
 C4256 C 0.80931 0.18015 0.74448
 C4257 C 0.79083 0.18212 0.74476
 C4258 C 0.78050 0.16701 0.74439
 H4259 H 0.78784 0.08339 0.75106
 H4260 H 0.85272 0.07797 0.74125
 H4261 H 0.80230 0.05487 0.75155
 H4262 H 0.85505 0.10920 0.73830
 H4263 H 0.84245 0.13817 0.73822
 H4264 H 0.77615 0.10781 0.74547
 H4265 H 0.76354 0.13686 0.74503
 H4266 H 0.83167 0.16312 0.74389
 H4267 H 0.81759 0.19163 0.74485
 H4268 H 0.76617 0.16840 0.74490
 C4269 C 0.30406 0.58732 0.24799
 C4270 C 0.31432 0.60253 0.24545
 C4271 C 0.33296 0.60013 0.24392
 C4272 C 0.34076 0.58317 0.24415
 C4273 C 0.33038 0.56828 0.24635
 C4274 C 0.31203 0.57052 0.24850
 C4275 C 0.34380 0.61464 0.24224
 C4276 C 0.33663 0.63164 0.24239
 C4277 C 0.31816 0.63482 0.24384
 C4278 C 0.30678 0.62000 0.24466
 C4279 C 0.28828 0.62311 0.24434
 C4280 C 0.28110 0.64010 0.24381
 C4281 C 0.29198 0.65470 0.24402
 C4282 C 0.31066 0.65234 0.24427
 C4283 C 0.32102 0.66766 0.24534
 C4284 C 0.31311 0.68449 0.24602
 C4285 C 0.29468 0.68669 0.24544
 C4286 C 0.28421 0.67171 0.24426
 H4287 H 0.28990 0.58796 0.24995
 H4288 H 0.35504 0.58154 0.24289
 H4289 H 0.30379 0.55918 0.25036
 H4290 H 0.35806 0.61285 0.24095
 H4291 H 0.34596 0.64205 0.24089
 H4292 H 0.27893 0.61261 0.24408
 H4293 H 0.26681 0.64183 0.24351
 H4294 H 0.33525 0.66713 0.24620
 H4295 H 0.32150 0.69585 0.24705
 H4296 H 0.26989 0.67326 0.24412
 C4297 C 0.33073 0.39780 0.23663
 C4298 C 0.31721 0.39339 0.24875
 C4299 C 0.31095 0.40675 0.26072
 C4300 C 0.31865 0.42347 0.26101
 C4301 C 0.33251 0.42733 0.24934
 C4302 C 0.33820 0.41443 0.23699
 C4303 C 0.29714 0.40334 0.27244
 C4304 C 0.28919 0.38700 0.27247
 C4305 C 0.29502 0.37318 0.26094
 C4306 C 0.30961 0.37628 0.24925
 C4307 C 0.31637 0.36210 0.23869
 C4308 C 0.30882 0.34562 0.23906
 C4309 C 0.29412 0.34259 0.24976
 C4310 C 0.28690 0.35628 0.26081
 C4311 C 0.27167 0.35249 0.27106
 C4312 C 0.26404 0.33590 0.27024
 C4313 C 0.27133 0.32245 0.25933
 C4314 C 0.28651 0.32588 0.24927
 H4315 H 0.33572 0.38882 0.22651
 H4316 H 0.31409 0.43336 0.27061
 H4317 H 0.34847 0.41722 0.22742
 H4318 H 0.29232 0.41347 0.28166
 H4319 H 0.27868 0.38553 0.28201
 H4320 H 0.32778 0.36316 0.23016
 H4321 H 0.31449 0.33515 0.23070
 H4322 H 0.26506 0.36213 0.27957
 H4323 H 0.25230 0.33364 0.27817
 H4324 H 0.29220 0.31565 0.24064
 C4325 C 0.83365 0.89464 0.74241
 C4326 C 0.81856 0.89102 0.75288
 C4327 C 0.81132 0.90492 0.76367
 C4328 C 0.81934 0.92148 0.76428
 C4329 C 0.83453 0.92465 0.75410
 C4330 C 0.84142 0.91112 0.74306
 C4331 C 0.79612 0.90225 0.77381
 C4332 C 0.78773 0.88615 0.77337
 C4333 C 0.79439 0.87185 0.76290
 C4334 C 0.81033 0.87420 0.75285
 C4335 C 0.81765 0.85960 0.74327
 C4336 C 0.80947 0.84343 0.74302
 C4337 C 0.79360 0.84110 0.75215
 C4338 C 0.78575 0.85522 0.76222
 C4339 C 0.76945 0.85208 0.77097
 C4340 C 0.76143 0.83570 0.76970
 C4341 C 0.76932 0.82183 0.75976
 C4342 C 0.78551 0.82466 0.75113
 H4343 H 0.83967 0.88518 0.73332
 H4344 H 0.81386 0.93184 0.77287
 H4345 H 0.85281 0.91334 0.73463
 H4346 H 0.79055 0.91280 0.78213
 H4347 H 0.77611 0.88529 0.78164
 H4348 H 0.82993 0.86009 0.73595
 H4349 H 0.81561 0.83263 0.73544
 H4350 H 0.76236 0.86205 0.77868
 H4351 H 0.74891 0.83395 0.77653
 H4352 H 0.79176 0.81410 0.74330
 C4353 C 0.65777 0.89485 0.24524
 C4354 C 0.67630 0.89250 0.24717
 C4355 C 0.68672 0.90783 0.24761
 C4356 C 0.67871 0.92472 0.24681
 C4357 C 0.66035 0.92672 0.24502
 C4358 C 0.65002 0.91165 0.24415
 C4359 C 0.70510 0.90625 0.24874
 C4360 C 0.71349 0.88977 0.24913
 C4361 C 0.70375 0.87409 0.24878
 C4362 C 0.68482 0.87551 0.24843
 C4363 C 0.67501 0.85993 0.24964
 C4364 C 0.68335 0.84351 0.25072
 C4365 C 0.70177 0.84183 0.25030
 C4366 C 0.71229 0.85703 0.24908
 C4367 C 0.73092 0.85443 0.24795
 C4368 C 0.73865 0.83753 0.24841
 C4369 C 0.72817 0.82265 0.25012
 C4370 C 0.70970 0.82494 0.25105
 H4371 H 0.64887 0.88401 0.24419
 H4372 H 0.68681 0.93634 0.24723
 H4373 H 0.63578 0.91288 0.24279
 H4374 H 0.71314 0.91790 0.24916
 H4375 H 0.72770 0.88980 0.25011
 H4376 H 0.66075 0.85997 0.25020
 H4377 H 0.67525 0.83195 0.25174
 H4378 H 0.73992 0.86511 0.24638
 H4379 H 0.75295 0.83616 0.24752
 H4380 H 0.70142 0.81350 0.25206
 C4381 C 0.16402 0.39181 0.76487
 C4382 C 0.17822 0.38673 0.75336
 C4383 C 0.18425 0.39937 0.74129
 C4384 C 0.17574 0.41601 0.74030
 C4385 C 0.16129 0.42056 0.75140
 C4386 C 0.15576 0.40838 0.76385
 C4387 C 0.19866 0.39532 0.73015
 C4388 C 0.20736 0.37901 0.73074
 C4389 C 0.20175 0.36585 0.74233
 C4390 C 0.18665 0.36963 0.75351
 C4391 C 0.18022 0.35606 0.76417
 C4392 C 0.18839 0.33952 0.76423
 C4393 C 0.20345 0.33580 0.75389
 C4394 C 0.21052 0.34891 0.74293
 C4395 C 0.22618 0.34447 0.73315
 C4396 C 0.23418 0.32772 0.73409
 C4397 C 0.22687 0.31477 0.74469
 C4398 C 0.21146 0.31896 0.75454
 H4399 H 0.15907 0.38343 0.77500
 H4400 H 0.18017 0.42529 0.73060
 H4401 H 0.14502 0.41172 0.77299
 H4402 H 0.20332 0.40491 0.72087
 H4403 H 0.21827 0.37701 0.72159
 H4404 H 0.16855 0.35765 0.77241
 H4405 H 0.18288 0.32951 0.77255
 H4406 H 0.23276 0.35369 0.72483
 H4407 H 0.24612 0.32489 0.72638
 H4408 H 0.20578 0.30914 0.76299
 C4409 C 0.06562 0.74519 0.80408
 C4410 C 0.08198 0.74267 0.81273
 C4411 C 0.08144 0.74098 0.83125
 C4412 C 0.06520 0.74112 0.84044
 C4413 C 0.04918 0.74331 0.83165
 C4414 C 0.04953 0.74556 0.81345
 C4415 C 0.09708 0.73917 0.84058
 C4416 C 0.11341 0.73928 0.83202
 C4417 C 0.11478 0.74090 0.81361
 C4418 C 0.09880 0.74199 0.80373
 C4419 C 0.10018 0.74204 0.78521
 C4420 C 0.11656 0.74142 0.77663
 C4421 C 0.13223 0.74116 0.78608
 C4422 C 0.13161 0.74117 0.80471
 C4423 C 0.14791 0.74174 0.81365
 C4424 C 0.16403 0.74194 0.80446
 C4425 C 0.16455 0.74147 0.78607
 C4426 C 0.14856 0.74102 0.77696
 H4427 H 0.06478 0.74718 0.79015
 H4428 H 0.06504 0.73978 0.85461
 H4429 H 0.03728 0.74739 0.80641
 H4430 H 0.09671 0.73777 0.85473
 H4431 H 0.12477 0.73763 0.84026
 H4432 H 0.08878 0.74215 0.77688
 H4433 H 0.11694 0.74135 0.76238
 H4434 H 0.14873 0.74242 0.82776
 H4435 H 0.17617 0.74239 0.81184
 H4436 H 0.14880 0.74094 0.76271
 C4437 C 0.56866 0.24270 0.30271
 C4438 C 0.58515 0.24035 0.31114
 C4439 C 0.58483 0.23796 0.32957
 C4440 C 0.56868 0.23739 0.33889
 C4441 C 0.55252 0.23958 0.33031
 C4442 C 0.55267 0.24239 0.31219
 C4443 C 0.60062 0.23627 0.33870
 C4444 C 0.61686 0.23725 0.33004
 C4445 C 0.61799 0.23965 0.31172
 C4446 C 0.60189 0.24056 0.30201
 C4447 C 0.60308 0.24139 0.28352
 C4448 C 0.61936 0.24182 0.27481
 C4449 C 0.63511 0.24181 0.28413
 C4450 C 0.63471 0.24095 0.30273
 C4451 C 0.65108 0.24174 0.31154
 C4452 C 0.66705 0.24309 0.30224
 C4453 C 0.66737 0.24357 0.28386
 C4454 C 0.65131 0.24283 0.27490
 H4455 H 0.56763 0.24515 0.28887
 H4456 H 0.56868 0.23561 0.35300
 H4457 H 0.54033 0.24421 0.30530
 H4458 H 0.60043 0.23433 0.35278
 H4459 H 0.62835 0.23569 0.33812
 H4460 H 0.59161 0.24137 0.27528
 H4461 H 0.61959 0.24237 0.26059
 H4462 H 0.65203 0.24175 0.32564
 H4463 H 0.67925 0.24372 0.30952
 H4464 H 0.65135 0.24345 0.26067
 C4465 C 0.61449 0.74431 0.15997
 C4466 C 0.61867 0.75457 0.17499
 C4467 C 0.60475 0.76470 0.18324
 C4468 C 0.58760 0.76494 0.17622
 C4469 C 0.58394 0.75515 0.16097
 C4470 C 0.59748 0.74467 0.15313
 C4471 C 0.60802 0.77463 0.19838
 C4472 C 0.62478 0.77469 0.20568
 C4473 C 0.63915 0.76494 0.19794
 C4474 C 0.63611 0.75501 0.18213
 C4475 C 0.65064 0.74602 0.17384
 C4476 C 0.66741 0.74620 0.18097
 C4477 C 0.67048 0.75524 0.19667
 C4478 C 0.65648 0.76481 0.20542
 C4479 C 0.66044 0.77360 0.22142
 C4480 C 0.67743 0.77263 0.22843
 C4481 C 0.69112 0.76298 0.21977
 C4482 C 0.68754 0.75453 0.20374
 H4483 H 0.62396 0.73569 0.15321
 H4484 H 0.57720 0.77308 0.18241
 H4485 H 0.59489 0.73658 0.14163
 H4486 H 0.59746 0.78242 0.20474
 H4487 H 0.62606 0.78274 0.21736
 H4488 H 0.64960 0.73881 0.16161
 H4489 H 0.67811 0.73902 0.17414
 H4490 H 0.65069 0.78110 0.22905
 H4491 H 0.67978 0.77935 0.24083
 H4492 H 0.69795 0.74696 0.19690
 C4493 C 0.09443 0.26174 0.69560
 C4494 C 0.11086 0.25753 0.68714
 C4495 C 0.11049 0.25252 0.66916
 C4496 C 0.09442 0.25169 0.66022
 C4497 C 0.07809 0.25607 0.66861
 C4498 C 0.07846 0.26099 0.68654
 C4499 C 0.12616 0.24821 0.66003
 C4500 C 0.14236 0.24886 0.66826
 C4501 C 0.14360 0.25380 0.68616
 C4502 C 0.12759 0.25803 0.69584
 C4503 C 0.12885 0.26239 0.71390
 C4504 C 0.14509 0.26243 0.72226
 C4505 C 0.16078 0.25836 0.71301
 C4506 C 0.16032 0.25428 0.69477
 C4507 C 0.17668 0.25075 0.68591
 C4508 C 0.19258 0.25044 0.69494
 C4509 C 0.19292 0.25380 0.71308
 C4510 C 0.17696 0.25811 0.72199
 H4511 H 0.09340 0.26591 0.70917
 H4512 H 0.09484 0.24688 0.64675
 H4513 H 0.06651 0.26503 0.69366
 H4514 H 0.12593 0.24427 0.64626
 H4515 H 0.15367 0.24512 0.66015
 H4516 H 0.11745 0.26562 0.72209
 H4517 H 0.14535 0.26564 0.73619
 H4518 H 0.17778 0.24813 0.67199
 H4519 H 0.20471 0.24742 0.68759
 H4520 H 0.17703 0.26088 0.73601
 C4521 C 0.90525 0.25525 0.65654
 C4522 C 0.90129 0.24883 0.67347
 C4523 C 0.91568 0.24276 0.68369
 C4524 C 0.93321 0.24359 0.67729
 C4525 C 0.93686 0.25037 0.66065
 C4526 C 0.92268 0.25597 0.65033
 C4527 C 0.91256 0.23598 0.70030
 C4528 C 0.89546 0.23516 0.70717
 C4529 C 0.88066 0.24128 0.69770
 C4530 C 0.88363 0.24833 0.68060
 C4531 C 0.86889 0.25492 0.67134
 C4532 C 0.85190 0.25486 0.67854
 C4533 C 0.84878 0.24812 0.69516
 C4534 C 0.86301 0.24095 0.70491
 C4535 C 0.85893 0.23390 0.72155
 C4536 C 0.84168 0.23463 0.72839
 C4537 C 0.82778 0.24231 0.71896
 C4538 C 0.83144 0.24876 0.70218
 H4539 H 0.89524 0.25972 0.64763
 H4540 H 0.94407 0.23924 0.68543
 H4541 H 0.92503 0.26080 0.63721
 H4542 H 0.92349 0.23128 0.70816
 H4543 H 0.89439 0.22987 0.72015
 H4544 H 0.86999 0.26056 0.65852
 H4545 H 0.84106 0.26030 0.67100
 H4546 H 0.86873 0.22776 0.72971
 H4547 H 0.83929 0.22931 0.74131
 H4548 H 0.82083 0.25459 0.69462
 C4549 C 0.40841 0.76285 0.15858
 C4550 C 0.40462 0.75676 0.17567
 C4551 C 0.41909 0.75053 0.18570
 C4552 C 0.43653 0.75086 0.17894
 C4553 C 0.44002 0.75722 0.16209
 C4554 C 0.42574 0.76304 0.15199
 C4555 C 0.41612 0.74403 0.20246
 C4556 C 0.39911 0.74348 0.20957
 C4557 C 0.38422 0.74962 0.20024
 C4558 C 0.38705 0.75660 0.18309
 C4559 C 0.37226 0.76342 0.17406
 C4560 C 0.35533 0.76344 0.18142
 C4561 C 0.35231 0.75653 0.19800
 C4562 C 0.36663 0.74930 0.20759
 C4563 C 0.36267 0.74209 0.22418
 C4564 C 0.34542 0.74256 0.23106
 C4565 C 0.33140 0.75017 0.22174
 C4566 C 0.33498 0.75697 0.20508
 H4567 H 0.39830 0.76739 0.14980
 H4568 H 0.44745 0.74635 0.18693
 H4569 H 0.42792 0.76754 0.13873
 H4570 H 0.42711 0.73926 0.21020
 H4571 H 0.39815 0.73836 0.22263
 H4572 H 0.37330 0.76917 0.16127
 H4573 H 0.34445 0.76898 0.17401
 H4574 H 0.37254 0.73591 0.23223
 H4575 H 0.34314 0.73703 0.24390
 H4576 H 0.32427 0.76276 0.19761
 C4577 C 0.38202 0.23138 0.34293
 C4578 C 0.37754 0.24350 0.32967
 C4579 C 0.39113 0.25443 0.32333
 C4580 C 0.40822 0.25351 0.33040
 C4581 C 0.41230 0.24167 0.34376
 C4582 C 0.39906 0.23055 0.34980
 C4583 C 0.38763 0.26630 0.30999
 C4584 C 0.37098 0.26749 0.30257
 C4585 C 0.35694 0.25694 0.30836
 C4586 C 0.36017 0.24504 0.32243
 C4587 C 0.34587 0.23525 0.32891
 C4588 C 0.32915 0.23661 0.32166
 C4589 C 0.32595 0.24762 0.30755
 C4590 C 0.33976 0.25793 0.30062
 C4591 C 0.33578 0.26860 0.28604
 C4592 C 0.31894 0.26886 0.27870
 C4593 C 0.30538 0.25862 0.28561
 C4594 C 0.30898 0.24818 0.30019
 H4595 H 0.37278 0.22217 0.34818
 H4596 H 0.41829 0.26230 0.32568
 H4597 H 0.40191 0.22097 0.35981
 H4598 H 0.39794 0.27475 0.30515
 H4599 H 0.36951 0.27707 0.29241
 H4600 H 0.34706 0.22648 0.33981
 H4601 H 0.31861 0.22880 0.32709
 H4602 H 0.34543 0.27668 0.27972
 H4603 H 0.31659 0.27708 0.26744
 H4604 H 0.29866 0.24007 0.30561
 C4605 C 0.87814 0.73793 0.84782
 C4606 C 0.87452 0.74674 0.83196
 C4607 C 0.88890 0.75483 0.82330
 C4608 C 0.90600 0.75412 0.83034
 C4609 C 0.90924 0.74551 0.84612
 C4610 C 0.89517 0.73740 0.85472
 C4611 C 0.88619 0.76371 0.80769
 C4612 C 0.86951 0.76480 0.80034
 C4613 C 0.85469 0.75700 0.80836
 C4614 C 0.85724 0.74781 0.82444
 C4615 C 0.84242 0.73998 0.83243
 C4616 C 0.82578 0.74087 0.82494
 C4617 C 0.82311 0.74963 0.80924
 C4618 C 0.83744 0.75796 0.80076
 C4619 C 0.83387 0.76681 0.78493
 C4620 C 0.81700 0.76692 0.77772
 C4621 C 0.80298 0.75834 0.78595
 C4622 C 0.80613 0.74990 0.80188
 H4623 H 0.86816 0.73132 0.85530
 H4624 H 0.91676 0.76063 0.82368
 H4625 H 0.89735 0.73047 0.86685
 H4626 H 0.89713 0.76992 0.80101
 H4627 H 0.86875 0.77188 0.78825
 H4628 H 0.84319 0.73292 0.84454
 H4629 H 0.81487 0.73454 0.83153
 H4630 H 0.84378 0.77372 0.77766
 H4631 H 0.81501 0.77371 0.76548
 H4632 H 0.79542 0.74324 0.80846
   
