data_POSCAR
  _audit_creation_date              2014-09-24
  _audit_creation_method            'ToBaCCo'
  _symmetry_space_group_name_H-M    'P1'
  _symmetry_Int_Tables_number       1
  _symmetry_cell_setting            triclinic
  loop_
  _symmetry_equiv_pos_as_xyz
 x,y,z
_cell_length_a 79.0920
_cell_length_b 79.2689
_cell_length_c 79.9179
_cell_angle_alpha 92.297400
_cell_angle_beta 92.020200
_cell_angle_gamma 91.981700
loop_
  _atom_site_label
  _atom_site_type_symbol
  _atom_site_fract_x
  _atom_site_fract_y
  _atom_site_fract_z
N1 N 0.18103 0.22021 0.22388
 N2 N 0.18681 0.20792 0.23275
 C3 C 0.17654 0.20539 0.24557
 C4 C 0.16360 0.21672 0.24470
 C5 C 0.16693 0.22593 0.23073
 H6 H 0.17839 0.19599 0.25481
 H7 H 0.15956 0.23593 0.22575
 Cu8 Cu 0.20696 0.19603 0.22671
 Cu9 Cu 0.19212 0.22785 0.20414
 Cu10 Cu 0.22641 0.20561 0.19114
 N11 N 0.22528 0.18285 0.21809
 N12 N 0.23276 0.18657 0.20423
 C13 C 0.24486 0.17542 0.20128
 C14 C 0.24500 0.16402 0.21398
 C15 C 0.23236 0.16917 0.22442
 H16 H 0.25285 0.17558 0.19060
 H17 H 0.22863 0.16348 0.23584
 N18 N 0.21810 0.22527 0.17955
 N19 N 0.20499 0.23374 0.18449
 C20 C 0.20245 0.24645 0.17412
 C21 C 0.21457 0.24602 0.16201
 C22 C 0.22426 0.23238 0.16591
 H23 H 0.19252 0.25538 0.17537
 H24 H 0.23506 0.22793 0.15935
 H25 H 0.20148 0.20435 0.19809
 H26 H 0.21612 0.21977 0.21025
 N27 N 0.68015 0.72006 0.72392
 N28 N 0.68514 0.70708 0.73227
 C29 C 0.67469 0.70462 0.74495
 C30 C 0.66242 0.71669 0.74453
 C31 C 0.66635 0.72628 0.73097
 H32 H 0.67594 0.69474 0.75377
 H33 H 0.65974 0.73702 0.72650
 Cu34 Cu 0.70470 0.69454 0.72570
 Cu35 Cu 0.69191 0.72800 0.70463
 Cu36 Cu 0.72745 0.70660 0.69315
 N37 N 0.72493 0.68300 0.71933
 N38 N 0.73372 0.68772 0.70658
 C39 C 0.74682 0.67750 0.70479
 C40 C 0.74628 0.66569 0.71711
 C41 C 0.73218 0.66963 0.72612
 H42 H 0.75601 0.67863 0.69517
 H43 H 0.72742 0.66318 0.73673
 N44 N 0.71905 0.72603 0.68114
 N45 N 0.70550 0.73413 0.68549
 C46 C 0.70294 0.74662 0.67486
 C47 C 0.71550 0.74641 0.66320
 C48 C 0.72549 0.73316 0.66763
 H49 H 0.69263 0.75516 0.67555
 H50 H 0.73664 0.72897 0.66150
 H51 H 0.70195 0.70518 0.69758
 H52 H 0.71542 0.71951 0.71208
 N53 N 0.31572 0.77387 0.72996
 N54 N 0.31128 0.78762 0.73816
 C55 C 0.32146 0.79019 0.75196
 C56 C 0.33285 0.77728 0.75251
 C57 C 0.32877 0.76718 0.73828
 H58 H 0.32059 0.80064 0.76094
 H59 H 0.33468 0.75569 0.73430
 Cu60 Cu 0.29219 0.80037 0.73030
 Cu61 Cu 0.30419 0.76548 0.70922
 Cu62 Cu 0.27058 0.78828 0.69458
 N63 N 0.27352 0.81326 0.72169
 N64 N 0.26498 0.80835 0.70786
 C65 C 0.25229 0.81891 0.70524
 C66 C 0.25282 0.83123 0.71815
 C67 C 0.26663 0.82720 0.72829
 H68 H 0.24324 0.81747 0.69480
 H69 H 0.27119 0.83367 0.73980
 N70 N 0.27817 0.76766 0.68289
 N71 N 0.29099 0.75901 0.68849
 C72 C 0.29312 0.74571 0.67788
 C73 C 0.28108 0.74592 0.66487
 C74 C 0.27181 0.76006 0.66853
 H75 H 0.30272 0.73651 0.67957
 H76 H 0.26124 0.76455 0.66127
 H77 H 0.29588 0.78863 0.70215
 H78 H 0.28100 0.77537 0.71424
 N79 N 0.81635 0.27371 0.23014
 N80 N 0.81188 0.28741 0.23838
 C81 C 0.82201 0.28993 0.25222
 C82 C 0.83350 0.27706 0.25276
 C83 C 0.82943 0.26703 0.23842
 H84 H 0.82095 0.30032 0.26124
 H85 H 0.83545 0.25569 0.23419
 Cu86 Cu 0.79289 0.30020 0.23034
 Cu87 Cu 0.80492 0.26542 0.20927
 Cu88 Cu 0.77135 0.28837 0.19461
 N89 N 0.77404 0.31303 0.22205
 N90 N 0.76561 0.30827 0.20810
 C91 C 0.75291 0.31884 0.20553
 C92 C 0.75330 0.33091 0.21860
 C93 C 0.76696 0.32679 0.22883
 H94 H 0.74394 0.31762 0.19500
 H95 H 0.77126 0.33312 0.24050
 N96 N 0.77907 0.26787 0.18277
 N97 N 0.79179 0.25911 0.18842
 C98 C 0.79389 0.24583 0.17775
 C99 C 0.78193 0.24618 0.16469
 C100 C 0.77276 0.26038 0.16835
 H101 H 0.80341 0.23655 0.17946
 H102 H 0.76225 0.26496 0.16106
 H103 H 0.79664 0.28849 0.20215
 H104 H 0.78173 0.27529 0.21416
 N105 N 0.81559 0.72167 0.27452
 N106 N 0.81085 0.70721 0.26688
 C107 C 0.82148 0.70390 0.25446
 C108 C 0.83355 0.71701 0.25427
 C109 C 0.82936 0.72804 0.26724
 H110 H 0.82043 0.69283 0.24610
 H111 H 0.83558 0.74003 0.27091
 Cu112 Cu 0.79084 0.69440 0.27343
 Cu113 Cu 0.80333 0.73147 0.29301
 Cu114 Cu 0.76702 0.70979 0.30425
 N115 N 0.76997 0.68281 0.27960
 N116 N 0.76074 0.68894 0.29160
 C117 C 0.74701 0.67870 0.29312
 C118 C 0.74757 0.66536 0.28144
 C119 C 0.76238 0.66843 0.27307
 H120 H 0.73724 0.68096 0.30197
 H121 H 0.76730 0.66075 0.26301
 N122 N 0.77538 0.73109 0.31562
 N123 N 0.78923 0.73937 0.31140
 C124 C 0.79151 0.75339 0.32144
 C125 C 0.77845 0.75400 0.33256
 C126 C 0.76849 0.73960 0.32844
 H127 H 0.80192 0.76247 0.32068
 H128 H 0.75705 0.73554 0.33432
 H129 H 0.79284 0.70904 0.30095
 H130 H 0.78013 0.72059 0.28523
 N131 N 0.31515 0.22149 -0.22578
 N132 N 0.31007 0.20731 -0.23375
 C133 C 0.32055 0.20409 -0.24633
 C134 C 0.33294 0.21699 -0.24630
 C135 C 0.32901 0.22777 -0.23296
 H136 H 0.31905 0.19327 -0.25496
 H137 H 0.33552 0.23947 -0.22881
 Cu138 Cu 0.28997 0.19462 -0.22720
 Cu139 Cu 0.30307 0.23128 -0.20716
 Cu140 Cu 0.26656 0.20987 -0.19602
 N141 N 0.26908 0.18310 -0.22096
 N142 N 0.26006 0.18914 -0.20875
 C143 C 0.24632 0.17894 -0.20711
 C144 C 0.24663 0.16574 -0.21897
 C145 C 0.26131 0.16883 -0.22755
 H146 H 0.23672 0.18115 -0.19807
 H147 H 0.26602 0.16124 -0.23778
 N148 N 0.27511 0.23103 -0.18455
 N149 N 0.28907 0.23917 -0.18868
 C150 C 0.29146 0.25313 -0.17856
 C151 C 0.27835 0.25383 -0.16750
 C152 C 0.26825 0.23957 -0.17174
 H153 H 0.30200 0.26208 -0.17920
 H154 H 0.25668 0.23567 -0.16599
 H155 H 0.29235 0.20893 -0.19955
 H156 H 0.27973 0.22087 -0.21503
 N157 N 0.68263 0.27695 -0.23098
 N158 N 0.68842 0.28974 -0.23931
 C159 C 0.67797 0.29192 -0.25265
 C160 C 0.66481 0.27982 -0.25279
 C161 C 0.66829 0.27055 -0.23873
 H162 H 0.67988 0.30162 -0.26156
 H163 H 0.66103 0.25992 -0.23435
 Cu164 Cu 0.70902 0.30235 -0.23183
 Cu165 Cu 0.69428 0.26946 -0.21083
 Cu166 Cu 0.73109 0.29192 -0.19732
 N167 N 0.72963 0.31485 -0.22421
 N168 N 0.73813 0.31082 -0.21062
 C169 C 0.75174 0.32141 -0.20818
 C170 C 0.75186 0.33273 -0.22098
 C171 C 0.73757 0.32813 -0.23089
 H172 H 0.76087 0.32083 -0.19785
 H173 H 0.73326 0.33395 -0.24218
 N174 N 0.72185 0.27237 -0.18564
 N175 N 0.70787 0.26384 -0.19075
 C176 C 0.70505 0.25121 -0.18029
 C177 C 0.71787 0.25178 -0.16797
 C178 C 0.72827 0.26540 -0.17182
 H179 H 0.69446 0.24224 -0.18162
 H180 H 0.73976 0.26989 -0.16514
 H181 H 0.70547 0.29283 -0.20338
 H182 H 0.71818 0.27827 -0.21636
 N183 N 0.18349 0.77822 0.26888
 N184 N 0.18796 0.79252 0.26224
 C185 C 0.17777 0.79490 0.24876
 C186 C 0.16618 0.78136 0.24680
 C187 C 0.17026 0.77103 0.25987
 H188 H 0.17874 0.80577 0.24106
 H189 H 0.16413 0.75914 0.26267
 Cu190 Cu 0.20658 0.80679 0.27179
 Cu191 Cu 0.19515 0.77009 0.28874
 Cu192 Cu 0.23194 0.79222 0.30221
 N193 N 0.22891 0.81694 0.27711
 N194 N 0.23875 0.81130 0.28906
 C195 C 0.25330 0.82065 0.29016
 C196 C 0.25264 0.83291 0.27820
 C197 C 0.23686 0.83004 0.27014
 H198 H 0.26352 0.81859 0.29908
 H199 H 0.23140 0.83690 0.25999
 N200 N 0.22283 0.77256 0.31375
 N201 N 0.20885 0.76406 0.30860
 C202 C 0.20598 0.75141 0.31901
 C203 C 0.21877 0.75194 0.33137
 C204 C 0.22922 0.76556 0.32756
 H205 H 0.19530 0.74254 0.31770
 H206 H 0.24068 0.77005 0.33429
 H207 H 0.20591 0.79270 0.29834
 H208 H 0.21794 0.78096 0.28213
 N209 N 0.47361 0.43134 0.47416
 N210 N 0.46027 0.43512 0.48270
 C211 C 0.45872 0.42430 0.49518
 C212 C 0.47180 0.41309 0.49448
 C213 C 0.48099 0.41801 0.48091
 H214 H 0.44879 0.42462 0.50411
 H215 H 0.49226 0.41241 0.47627
 Cu216 Cu 0.44629 0.45394 0.47683
 Cu217 Cu 0.48046 0.44405 0.45497
 Cu218 Cu 0.45624 0.47800 0.44463
 N219 N 0.43306 0.47334 0.47111
 N220 N 0.43706 0.48269 0.45853
 C221 C 0.42606 0.49519 0.45733
 C222 C 0.41443 0.49368 0.46983
 C223 C 0.41933 0.47961 0.47833
 H224 H 0.42656 0.50466 0.44799
 H225 H 0.41339 0.47431 0.48899
 N226 N 0.47611 0.47131 0.43205
 N227 N 0.48534 0.45841 0.43600
 C228 C 0.49796 0.45712 0.42519
 C229 C 0.49667 0.46983 0.41382
 C230 C 0.48262 0.47855 0.41861
 H231 H 0.50740 0.44761 0.42561
 H232 H 0.47747 0.48941 0.41278
 H233 H 0.47033 0.46651 0.46294
 H234 H 0.45673 0.45234 0.44844
 N235 N -0.02599 -0.06769 0.97446
 N236 N -0.03906 -0.06370 0.98331
 C237 C -0.04065 -0.07464 0.99567
 C238 C -0.02788 -0.08618 0.99456
 C239 C -0.01883 -0.08130 0.98088
 H240 H -0.05039 -0.07421 1.00478
 H241 H -0.00782 -0.08714 0.97593
 Cu242 Cu -0.05266 -0.04449 0.97784
 Cu243 Cu -0.01922 -0.05494 0.95527
 Cu244 Cu -0.04355 -0.02101 0.94501
 N245 N -0.06640 -0.02555 0.97180
 N246 N -0.06272 -0.01645 0.95896
 C247 C -0.07402 -0.00424 0.95752
 C248 C -0.08550 -0.00569 0.97016
 C249 C -0.08021 -0.01942 0.97898
 H250 H -0.07383 0.00497 0.94793
 H251 H -0.08594 -0.02456 0.98982
 N252 N -0.02365 -0.02762 0.93240
 N253 N -0.01441 -0.04053 0.93631
 C254 C -0.00176 -0.04173 0.92553
 C255 C -0.00302 -0.02895 0.91424
 C256 C -0.01711 -0.02028 0.91903
 H257 H 0.00767 -0.05125 0.92590
 H258 H -0.02223 -0.00938 0.91327
 H259 H -0.02900 -0.03222 0.96311
 H260 H -0.04303 -0.04654 0.94919
 N261 N 1.03463 0.57185 0.97436
 N262 N 1.04877 0.56886 0.98268
 C263 C 1.05152 0.58090 0.99496
 C264 C 1.03841 0.59208 0.99427
 C265 C 1.02794 0.58584 0.98102
 H266 H 1.06232 0.58154 1.00366
 H267 H 1.01623 0.59100 0.97654
 Cu268 Cu 1.06203 0.54945 0.97651
 Cu269 Cu 1.02592 0.55759 0.95536
 Cu270 Cu 1.04944 0.52314 0.94413
 N271 N 1.07534 0.53023 0.96985
 N272 N 1.07013 0.51995 0.95729
 C273 C 1.08125 0.50766 0.95534
 C274 C 1.09426 0.51030 0.96731
 C275 C 1.09005 0.52479 0.97634
 H276 H 1.07982 0.49747 0.94596
 H277 H 1.09714 0.53094 0.98680
 N278 N 1.02820 0.52851 0.93230
 N279 N 1.01927 0.54166 0.93650
 C280 C 1.00586 0.54225 0.92572
 C281 C 1.00633 0.52880 0.91412
 C282 C 1.02070 0.52037 0.91876
 H283 H 0.99660 0.55194 0.92616
 H284 H 1.02555 0.50928 0.91259
 H285 H 1.03683 0.53576 0.96284
 H286 H 1.04906 0.54903 0.94838
 N287 N 0.53512 0.07171 0.47508
 N288 N 0.54938 0.06897 0.48330
 C289 C 0.55207 0.08111 0.49550
 C290 C 0.53878 0.09208 0.49487
 C291 C 0.52828 0.08563 0.48173
 H292 H 0.56292 0.08194 0.50413
 H293 H 0.51644 0.09058 0.47734
 Cu294 Cu 0.56277 0.04963 0.47717
 Cu295 Cu 0.52640 0.05720 0.45624
 Cu296 Cu 0.55014 0.02279 0.44528
 N297 N 0.57617 0.03038 0.47079
 N298 N 0.57092 0.01987 0.45842
 C299 C 0.58208 0.00759 0.45662
 C300 C 0.59515 0.01048 0.46849
 C301 C 0.59094 0.02510 0.47730
 H302 H 0.58063 -0.00278 0.44744
 H303 H 0.59810 0.03143 0.48762
 N304 N 0.52881 0.02791 0.43344
 N305 N 0.51980 0.04104 0.43755
 C306 C 0.50634 0.04144 0.42679
 C307 C 0.50687 0.02790 0.41530
 C308 C 0.52132 0.01961 0.41998
 H309 H 0.49701 0.05106 0.42718
 H310 H 0.52625 0.00852 0.41387
 H311 H 0.53756 0.03557 0.46391
 H312 H 0.54952 0.04872 0.44914
 N313 N -0.02963 0.07838 0.53015
 N314 N -0.04208 0.07260 0.51995
 C315 C -0.04432 0.08347 0.50762
 C316 C -0.03266 0.09686 0.51019
 C317 C -0.02353 0.09314 0.52464
 H318 H -0.05369 0.08169 0.49749
 H319 H -0.01326 0.10061 0.53079
 Cu320 Cu -0.05432 0.05158 0.52393
 Cu321 Cu -0.02226 0.06629 0.54980
 Cu322 Cu -0.04400 0.02858 0.55678
 N323 N -0.06648 0.03049 0.52791
 N324 N -0.06231 0.02155 0.54080
 C325 C -0.07283 0.00787 0.54102
 C326 C -0.08432 0.00822 0.52753
 C327 C -0.07984 0.02281 0.51948
 H328 H -0.07223 -0.00146 0.55047
 H329 H -0.08601 0.02766 0.50850
 N330 N -0.02514 0.03779 0.57153
 N331 N -0.01683 0.05211 0.56894
 C332 C -0.00478 0.05489 0.58119
 C333 C -0.00557 0.04171 0.59207
 C334 C -0.01864 0.03112 0.58548
 H335 H 0.00385 0.06579 0.58219
 H336 H -0.02302 0.01932 0.59038
 H337 H -0.03005 0.04261 0.54046
 H338 H -0.04531 0.05431 0.55343
 N339 N 0.47048 0.57800 0.03048
 N340 N 0.45811 0.57224 0.02018
 C341 C 0.45598 0.58312 0.00785
 C342 C 0.46762 0.59651 0.01052
 C343 C 0.47663 0.59278 0.02504
 H344 H 0.44670 0.58134 -0.00236
 H345 H 0.48685 0.60024 0.03128
 Cu346 Cu 0.44580 0.55122 0.02404
 Cu347 Cu 0.47769 0.56587 0.05015
 Cu348 Cu 0.45586 0.52814 0.05690
 N349 N 0.43359 0.53013 0.02789
 N350 N 0.43764 0.52115 0.04079
 C351 C 0.42709 0.50749 0.04091
 C352 C 0.41569 0.50788 0.02735
 C353 C 0.42027 0.52248 0.01936
 H354 H 0.42759 0.49814 0.05036
 H355 H 0.41418 0.52737 0.00835
 N356 N 0.47463 0.53730 0.07179
 N357 N 0.48297 0.55164 0.06928
 C358 C 0.49491 0.55441 0.08164
 C359 C 0.49403 0.54121 0.09248
 C360 C 0.48102 0.53062 0.08577
 H361 H 0.50352 0.56532 0.08273
 H362 H 0.47660 0.51880 0.09063
 H363 H 0.46997 0.54221 0.04072
 H364 H 0.45461 0.55389 0.05359
 N365 N 0.52814 -0.06799 0.03074
 N366 N 0.54192 -0.06415 0.02280
 C367 C 0.54269 -0.07457 0.00914
 C368 C 0.52863 -0.08557 0.00848
 C369 C 0.51969 -0.08095 0.02244
 H370 H 0.55286 -0.07431 0.00047
 H371 H 0.50794 -0.08661 0.02638
 Cu372 Cu 0.55760 -0.04604 0.03120
 Cu373 Cu 0.52246 -0.05633 0.05151
 Cu374 Cu 0.54968 -0.02356 0.06660
 N375 N 0.57237 -0.02714 0.03948
 N376 N 0.56925 -0.01840 0.05328
 C377 C 0.58132 -0.00609 0.05597
 C378 C 0.59269 -0.00713 0.04316
 C379 C 0.58651 -0.02067 0.03293
 H380 H 0.58171 0.00294 0.06647
 H381 H 0.59179 -0.02540 0.02146
 N382 N 0.52919 -0.03074 0.07822
 N383 N 0.51881 -0.04314 0.07234
 C384 C 0.50613 -0.04512 0.08294
 C385 C 0.50857 -0.03343 0.09621
 C386 C 0.52333 -0.02449 0.09276
 H387 H 0.49579 -0.05434 0.08106
 H388 H 0.52946 -0.01432 0.10036
 H389 H 0.53479 -0.03361 0.04669
 H390 H 0.54693 -0.04879 0.05928
 N391 N 1.02890 0.43168 0.52997
 N392 N 1.04168 0.43658 0.52106
 C393 C 1.04205 0.42648 0.50713
 C394 C 1.02878 0.41457 0.50729
 C395 C 1.02072 0.41834 0.52204
 H396 H 1.05143 0.42762 0.49771
 H397 H 1.00984 0.41177 0.52683
 Cu398 Cu 1.05686 0.45538 0.52875
 Cu399 Cu 1.02408 0.44264 0.55138
 Cu400 Cu 1.05140 0.47550 0.56602
 N401 N 1.07233 0.47357 0.53739
 N402 N 1.07016 0.48137 0.55193
 C403 C 1.08260 0.49328 0.55482
 C404 C 1.09321 0.49293 0.54137
 C405 C 1.08624 0.48023 0.53055
 H406 H 1.08385 0.50148 0.56595
 H407 H 1.09085 0.47625 0.51851
 N408 N 1.03166 0.46769 0.57841
 N409 N 1.02126 0.45522 0.57275
 C410 C 1.00906 0.45290 0.58383
 C411 C 1.01185 0.46444 0.59718
 C412 C 1.02631 0.47363 0.59328
 H413 H 0.99874 0.44364 0.58216
 H414 H 1.03253 0.48385 0.60074
 H415 H 1.03511 0.46605 0.54690
 H416 H 1.04885 0.45062 0.55739
 C417 C 0.36290 0.01847 0.24582
 C418 C 0.35289 0.00230 0.24975
 C419 C 0.36255 -0.01133 0.25213
 C420 C 0.38162 -0.00752 0.25056
 C421 C 0.37581 0.02094 0.26066
 C422 C 0.38566 0.00742 0.26311
 C423 C 0.37347 0.01351 0.23086
 C424 C 0.38334 0.00003 0.23325
 H425 H 0.33924 0.00174 0.25047
 H426 H 0.38952 -0.01860 0.25251
 H427 H 0.37623 0.03167 0.26946
 H428 H 0.37390 0.02087 0.21974
 C429 C 0.13330 -0.02408 0.74771
 C430 C 0.14385 -0.00757 0.75041
 C431 C 0.13473 0.00629 0.75391
 C432 C 0.11555 0.00237 0.75447
 C433 C 0.12300 -0.02541 0.76346
 C434 C 0.11355 -0.01178 0.76703
 C435 C 0.12027 -0.02013 0.73377
 C436 C 0.11095 -0.00635 0.73728
 H437 H 0.15746 -0.00695 0.74929
 H438 H 0.10793 0.01355 0.75730
 H439 H 0.12312 -0.03646 0.77100
 H440 H 0.11949 -0.02643 0.72152
 C441 C 0.63276 0.47592 0.24801
 C442 C 0.64353 0.49239 0.24967
 C443 C 0.63469 0.50644 0.25321
 C444 C 0.61558 0.50277 0.25465
 C445 C 0.62319 0.47530 0.26430
 C446 C 0.61415 0.48922 0.26785
 C447 C 0.61913 0.47949 0.23450
 C448 C 0.61013 0.49351 0.23793
 H449 H 0.65710 0.49280 0.24824
 H450 H 0.60832 0.51419 0.25753
 H451 H 0.62290 0.46425 0.27185
 H452 H 0.61772 0.47277 0.22249
 C453 C 0.86372 0.51828 0.74284
 C454 C 0.85329 0.50212 0.74559
 C455 C 0.86259 0.48836 0.74856
 C456 C 0.88184 0.49211 0.74872
 C457 C 0.87564 0.52059 0.75837
 C458 C 0.88519 0.50701 0.76153
 C459 C 0.87558 0.51352 0.72871
 C460 C 0.88499 0.49981 0.73169
 H461 H 0.83959 0.50177 0.74532
 H462 H 0.88949 0.48091 0.75100
 H463 H 0.87651 0.53218 0.76604
 H464 H 0.87785 0.52125 0.71813
 C465 C 0.24462 0.36333 0.01735
 C466 C 0.24586 0.35390 0.00036
 C467 C 0.24812 0.36406 -0.01277
 C468 C 0.24932 0.38302 -0.00760
 C469 C 0.26111 0.37418 0.01898
 C470 C 0.26351 0.38477 0.00617
 C471 C 0.23065 0.37592 0.01474
 C472 C 0.23303 0.38628 0.00179
 H473 H 0.24603 0.34026 -0.00101
 H474 H 0.25111 0.39143 -0.01818
 H475 H 0.27047 0.37302 0.02901
 H476 H 0.21972 0.37641 0.02250
 C477 C 0.74815 0.13228 -0.02430
 C478 C 0.75369 0.14325 -0.00877
 C479 C 0.75710 0.13449 0.00517
 C480 C 0.75476 0.11524 0.00229
 C481 C 0.76227 0.11965 -0.02647
 C482 C 0.76586 0.11079 -0.01259
 C483 C 0.73313 0.12129 -0.01873
 C484 C 0.73646 0.11249 -0.00475
 H485 H 0.75394 0.15693 -0.00869
 H486 H 0.75761 0.10807 0.01362
 H487 H 0.76879 0.11780 -0.03804
 H488 H 0.72129 0.11960 -0.02589
 C489 C 0.24882 0.63277 0.47526
 C490 C 0.25420 0.64369 0.49087
 C491 C 0.25758 0.63486 0.50478
 C492 C 0.25536 0.61561 0.50178
 C493 C 0.26304 0.62024 0.47310
 C494 C 0.26660 0.61132 0.48695
 C495 C 0.23383 0.62165 0.48066
 C496 C 0.23713 0.61279 0.49459
 H497 H 0.25438 0.65736 0.49102
 H498 H 0.25817 0.60838 0.51307
 H499 H 0.26961 0.61846 0.46155
 H500 H 0.22204 0.61995 0.47341
 C501 C 0.74532 0.86292 0.51787
 C502 C 0.74646 0.85351 0.50085
 C503 C 0.74864 0.86369 0.48773
 C504 C 0.74987 0.88265 0.49292
 C505 C 0.76181 0.87376 0.51942
 C506 C 0.76413 0.88437 0.50662
 C507 C 0.73134 0.87552 0.51536
 C508 C 0.73364 0.88591 0.50242
 H509 H 0.74662 0.83988 0.49946
 H510 H 0.75161 0.89108 0.48234
 H511 H 0.77124 0.87257 0.52938
 H512 H 0.72047 0.87603 0.52321
 C513 C 0.01815 0.24432 0.36325
 C514 C 0.00122 0.24435 0.35342
 C515 C -0.01236 0.24713 0.36300
 C516 C -0.00780 0.24948 0.38182
 C517 C 0.01921 0.26122 0.37346
 C518 C 0.00563 0.26400 0.38309
 C519 C 0.01560 0.23117 0.37657
 C520 C 0.00203 0.23374 0.38627
 H521 H 0.00030 0.24331 0.33986
 H522 H -0.01888 0.25167 0.38965
 H523 H 0.03040 0.26948 0.37443
 H524 H 0.02393 0.22077 0.37821
 C525 C -0.02391 0.75047 0.13319
 C526 C -0.00751 0.75259 0.14393
 C527 C 0.00667 0.75546 0.13517
 C528 C 0.00315 0.75606 0.11616
 C529 C -0.02443 0.76647 0.12294
 C530 C -0.01029 0.76949 0.11409
 C531 C -0.02049 0.73641 0.12011
 C532 C -0.00630 0.73917 0.11128
 H533 H -0.00731 0.75218 0.15747
 H534 H 0.01466 0.75843 0.10895
 H535 H -0.03555 0.77384 0.12126
 H536 H -0.02842 0.72502 0.11840
 C537 C 0.47519 0.25018 0.63349
 C538 C 0.49149 0.25208 0.64441
 C539 C 0.50578 0.25496 0.63583
 C540 C 0.50248 0.25582 0.61682
 C541 C 0.47489 0.26631 0.62344
 C542 C 0.48914 0.26935 0.61476
 C543 C 0.47867 0.23624 0.62030
 C544 C 0.49298 0.23904 0.61165
 H545 H 0.49154 0.25149 0.65793
 H546 H 0.51409 0.25822 0.60976
 H547 H 0.46382 0.27374 0.62171
 H548 H 0.47070 0.22490 0.61838
 C549 C 0.51764 0.74477 0.86397
 C550 C 0.50066 0.74465 0.85423
 C551 C 0.48710 0.74732 0.86387
 C552 C 0.49175 0.74974 0.88267
 C553 C 0.51862 0.76167 0.87415
 C554 C 0.50507 0.76437 0.88384
 C555 C 0.51527 0.73161 0.87733
 C556 C 0.50173 0.73409 0.88710
 H557 H 0.49969 0.74361 0.84067
 H558 H 0.48069 0.75185 0.89055
 H559 H 0.52975 0.77002 0.87503
 H560 H 0.52372 0.72130 0.87898
 C561 C 0.12504 0.23396 0.26555
 C562 C 0.12211 0.22202 0.27762
 C563 C 0.13267 0.20832 0.27895
 C564 C 0.14617 0.20657 0.26825
 C565 C 0.14927 0.21853 0.25606
 C566 C 0.13851 0.23225 0.25484
 C567 C 0.10839 0.22398 0.28877
 C568 C 0.09694 0.22585 0.29813
 C569 C 0.08361 0.22836 0.30909
 C570 C 0.07228 0.23081 0.31846
 C571 C 0.05884 0.23414 0.32963
 C572 C 0.05604 0.25074 0.33508
 C573 C 0.04299 0.25414 0.34590
 C574 C 0.03272 0.24089 0.35177
 C575 C 0.03532 0.22428 0.34565
 C576 C 0.04839 0.22092 0.33482
 H577 H 0.11695 0.24465 0.26445
 H578 H 0.13050 0.19900 0.28827
 H579 H 0.15404 0.19579 0.26954
 H580 H 0.14050 0.24178 0.24574
 H581 H 0.06386 0.26110 0.33084
 H582 H 0.04087 0.26720 0.34929
 H583 H 0.02717 0.21386 0.34918
 H584 H 0.05027 0.20804 0.33043
 C585 C 0.63308 0.71052 0.78059
 C586 C 0.62137 0.72302 0.77786
 C587 C 0.62300 0.73343 0.76426
 C588 C 0.63631 0.73138 0.75341
 C589 C 0.64822 0.71886 0.75602
 C590 C 0.64641 0.70843 0.76976
 C591 C 0.60775 0.72525 0.78909
 C592 C 0.59636 0.72724 0.79849
 C593 C 0.58306 0.72976 0.80950
 C594 C 0.57174 0.73213 0.81889
 C595 C 0.55828 0.73525 0.83010
 C596 C 0.55500 0.75181 0.83529
 C597 C 0.54196 0.75498 0.84619
 C598 C 0.53219 0.74155 0.85241
 C599 C 0.53523 0.72495 0.84652
 C600 C 0.54829 0.72183 0.83561
 H601 H 0.63193 0.70240 0.79111
 H602 H 0.61399 0.74316 0.76205
 H603 H 0.63717 0.73963 0.74301
 H604 H 0.65525 0.69868 0.77227
 H605 H 0.56243 0.76233 0.83080
 H606 H 0.53944 0.76800 0.84939
 H607 H 0.52744 0.71437 0.85027
 H608 H 0.55053 0.70896 0.83139
 C609 C 0.36081 0.78289 0.79218
 C610 C 0.37214 0.76991 0.78984
 C611 C 0.37053 0.75925 0.77547
 C612 C 0.35774 0.76161 0.76339
 C613 C 0.34632 0.77470 0.76549
 C614 C 0.34797 0.78527 0.78010
 C615 C 0.38568 0.76761 0.80193
 C616 C 0.39733 0.76536 0.81160
 C617 C 0.41134 0.76234 0.82231
 C618 C 0.42366 0.75942 0.83086
 C619 C 0.43881 0.75553 0.84017
 C620 C 0.44894 0.74276 0.83399
 C621 C 0.46437 0.73966 0.84207
 C622 C 0.46992 0.74935 0.85647
 C623 C 0.45941 0.76178 0.86297
 C624 C 0.44395 0.76490 0.85481
 H625 H 0.36194 0.79120 0.80329
 H626 H 0.37924 0.74916 0.77354
 H627 H 0.35696 0.75319 0.75239
 H628 H 0.33939 0.79538 0.78229
 H629 H 0.44507 0.73543 0.82267
 H630 H 0.47209 0.72985 0.83691
 H631 H 0.46346 0.76957 0.87392
 H632 H 0.43623 0.77488 0.85966
 C633 C -0.13030 0.25834 0.27582
 C634 C -0.12757 0.26998 0.28931
 C635 C -0.13784 0.28391 0.29083
 C636 C -0.15077 0.28625 0.27883
 C637 C -0.15362 0.27467 0.26503
 C638 C -0.14316 0.26063 0.26380
 C639 C -0.11394 0.26768 0.30130
 C640 C -0.10223 0.26539 0.31089
 C641 C -0.08815 0.26232 0.32151
 C642 C -0.07579 0.25937 0.32999
 C643 C -0.06061 0.25549 0.33926
 C644 C -0.05541 0.26490 0.35385
 C645 C -0.03995 0.26176 0.36201
 C646 C -0.02951 0.24925 0.35555
 C647 C -0.03510 0.23953 0.34118
 C648 C -0.05054 0.24265 0.33310
 H649 H -0.12240 0.24749 0.27453
 H650 H -0.13582 0.29301 0.30124
 H651 H -0.15836 0.29723 0.28046
 H652 H -0.14474 0.25128 0.25359
 H653 H -0.06309 0.27493 0.35868
 H654 H -0.03587 0.26957 0.37292
 H655 H -0.02743 0.22967 0.33606
 H656 H -0.05445 0.23528 0.32183
 C657 C -0.12707 0.73435 0.23405
 C658 C -0.12661 0.72390 0.21957
 C659 C -0.13898 0.71099 0.21654
 C660 C -0.15184 0.70862 0.22788
 C661 C -0.15254 0.71917 0.24242
 C662 C -0.13991 0.73201 0.24540
 C663 C -0.11355 0.72661 0.20775
 C664 C -0.10261 0.72911 0.19791
 C665 C -0.08977 0.73227 0.18649
 C666 C -0.07875 0.73516 0.17685
 C667 C -0.06552 0.73885 0.16548
 C668 C -0.05344 0.72687 0.16194
 C669 C -0.04028 0.73070 0.15135
 C670 C -0.03904 0.74651 0.14391
 C671 C -0.05120 0.75854 0.14779
 C672 C -0.06436 0.75466 0.15838
 H673 H -0.11754 0.74436 0.23655
 H674 H -0.13875 0.70283 0.20535
 H675 H -0.16132 0.69865 0.22508
 H676 H -0.13986 0.74028 0.25650
 H677 H -0.05407 0.71465 0.16754
 H678 H -0.03088 0.72133 0.14912
 H679 H -0.05050 0.77113 0.14317
 H680 H -0.07350 0.76413 0.16125
 C681 C 0.37046 0.23537 0.73275
 C682 C 0.37230 0.22352 0.71959
 C683 C 0.36131 0.20932 0.71789
 C684 C 0.34840 0.20704 0.72921
 C685 C 0.34622 0.21900 0.74247
 C686 C 0.35759 0.23316 0.74409
 C687 C 0.38534 0.22612 0.70773
 C688 C 0.39626 0.22858 0.69786
 C689 C 0.40908 0.23174 0.68641
 C690 C 0.42008 0.23466 0.67675
 C691 C 0.43333 0.23838 0.66540
 C692 C 0.44537 0.22639 0.66181
 C693 C 0.45860 0.23027 0.65131
 C694 C 0.45994 0.24615 0.64402
 C695 C 0.44778 0.25818 0.64791
 C696 C 0.43455 0.25425 0.65841
 H697 H 0.37893 0.24641 0.73422
 H698 H 0.36265 0.20003 0.70775
 H699 H 0.34016 0.19591 0.72736
 H700 H 0.35665 0.24271 0.75401
 H701 H 0.44468 0.21412 0.66730
 H702 H 0.46798 0.22089 0.64905
 H703 H 0.44854 0.27080 0.64338
 H704 H 0.42542 0.26372 0.66131
 C705 C 0.63570 0.28589 0.71019
 C706 C 0.62357 0.27291 0.71193
 C707 C 0.62513 0.26217 0.72531
 C708 C 0.63872 0.26441 0.73696
 C709 C 0.65108 0.27749 0.73544
 C710 C 0.64933 0.28818 0.72179
 C711 C 0.60933 0.27077 0.70021
 C712 C 0.59719 0.26892 0.69066
 C713 C 0.58266 0.26663 0.67991
 C714 C 0.56993 0.26448 0.67122
 C715 C 0.55429 0.26159 0.66160
 C716 C 0.54231 0.24976 0.66690
 C717 C 0.52669 0.24740 0.65831
 C718 C 0.52276 0.25688 0.64427
 C719 C 0.53500 0.26848 0.63875
 C720 C 0.55067 0.27086 0.64742
 H721 H 0.63460 0.29431 0.69989
 H722 H 0.61578 0.25208 0.72680
 H723 H 0.63937 0.25582 0.74710
 H724 H 0.65835 0.29841 0.71994
 H725 H 0.54498 0.24248 0.67781
 H726 H 0.51767 0.23814 0.66269
 H727 H 0.53228 0.27605 0.62808
 H728 H 0.55983 0.28011 0.64324
 C729 C 0.13719 0.78752 0.20867
 C730 C 0.12536 0.77412 0.20977
 C731 C 0.12708 0.76287 0.22272
 C732 C 0.14042 0.76511 0.23464
 C733 C 0.15229 0.77868 0.23381
 C734 C 0.15056 0.78979 0.22057
 C735 C 0.11112 0.77214 0.19801
 C736 C 0.09889 0.77034 0.18857
 C737 C 0.08419 0.76802 0.17805
 C738 C 0.07129 0.76578 0.16961
 C739 C 0.05547 0.76275 0.16028
 C740 C 0.04364 0.75098 0.16593
 C741 C 0.02791 0.74841 0.15757
 C742 C 0.02374 0.75763 0.14341
 C743 C 0.03582 0.76919 0.13757
 C744 C 0.05160 0.77179 0.14601
 H745 H 0.13599 0.79631 0.19869
 H746 H 0.11798 0.75246 0.22372
 H747 H 0.14122 0.75628 0.24457
 H748 H 0.15945 0.80031 0.21938
 H749 H 0.04650 0.74388 0.17693
 H750 H 0.01900 0.73918 0.16220
 H751 H 0.03291 0.77658 0.12680
 H752 H 0.06064 0.78099 0.14156
 C753 C 0.26387 0.12416 0.23019
 C754 C 0.27792 0.12252 0.22019
 C755 C 0.28118 0.13433 0.20806
 C756 C 0.27044 0.14778 0.20597
 C757 C 0.25629 0.14962 0.21602
 C758 C 0.25312 0.13760 0.22813
 C759 C 0.28914 0.10888 0.22262
 C760 C 0.29855 0.09750 0.22490
 C761 C 0.30956 0.08426 0.22786
 C762 C 0.31897 0.07300 0.23061
 C763 C 0.33019 0.05961 0.23415
 C764 C 0.32684 0.04341 0.22703
 C765 C 0.33756 0.03034 0.23077
 C766 C 0.35163 0.03315 0.24199
 C767 C 0.35517 0.04971 0.24861
 C768 C 0.34444 0.06277 0.24481
 H769 H 0.26125 0.11508 0.23962
 H770 H 0.29207 0.13320 0.20029
 H771 H 0.27340 0.15680 0.19662
 H772 H 0.24233 0.13847 0.23602
 H773 H 0.31594 0.04086 0.21861
 H774 H 0.33480 0.01793 0.22494
 H775 H 0.36626 0.05286 0.25651
 H776 H 0.34729 0.07537 0.25016
 C777 C 0.78178 0.63517 0.71113
 C778 C 0.77987 0.62495 0.72484
 C779 C 0.76713 0.62810 0.73612
 C780 C 0.75627 0.64138 0.73368
 C781 C 0.75799 0.65172 0.71986
 C782 C 0.77093 0.64846 0.70864
 C783 C 0.79087 0.61114 0.72726
 C784 C 0.80003 0.59951 0.72926
 C785 C 0.81070 0.58586 0.73156
 C786 C 0.81981 0.57418 0.73348
 C787 C 0.83070 0.56024 0.73570
 C788 C 0.83351 0.55399 0.75162
 C789 C 0.84415 0.54048 0.75376
 C790 C 0.85243 0.53319 0.74006
 C791 C 0.84900 0.53928 0.72399
 C792 C 0.83835 0.55279 0.72189
 H793 H 0.79161 0.63282 0.70232
 H794 H 0.76556 0.62026 0.74680
 H795 H 0.74657 0.64346 0.74265
 H796 H 0.77269 0.65604 0.69785
 H797 H 0.82744 0.55950 0.76237
 H798 H 0.84590 0.53569 0.76618
 H799 H 0.85415 0.53355 0.71289
 H800 H 0.83598 0.55735 0.70945
 C801 C 0.79059 0.36249 0.78482
 C802 C 0.78836 0.37299 0.77133
 C803 C 0.77429 0.37034 0.76034
 C804 C 0.76246 0.35727 0.76282
 C805 C 0.76450 0.34661 0.77638
 C806 C 0.77876 0.34938 0.78734
 C807 C 0.80024 0.38674 0.76886
 C808 C 0.80977 0.39854 0.76653
 C809 C 0.82034 0.41270 0.76349
 C810 C 0.82876 0.42514 0.76064
 C811 C 0.83799 0.44042 0.75694
 C812 C 0.83099 0.45124 0.74539
 C813 C 0.83922 0.46661 0.74239
 C814 C 0.85458 0.47147 0.75097
 C815 C 0.86178 0.46028 0.76218
 C816 C 0.85349 0.44487 0.76521
 H817 H 0.80143 0.36446 0.79343
 H818 H 0.77242 0.37843 0.74987
 H819 H 0.75172 0.35566 0.75409
 H820 H 0.78086 0.34150 0.79788
 H821 H 0.81903 0.44789 0.73887
 H822 H 0.83350 0.47472 0.73337
 H823 H 0.87351 0.46361 0.76901
 H824 H 0.85901 0.43658 0.77420
 C825 C 0.29237 -0.14004 0.28207
 C826 C 0.28932 -0.12840 0.26974
 C827 C 0.27433 -0.12984 0.25992
 C828 C 0.26231 -0.14272 0.26254
 C829 C 0.26503 -0.15443 0.27513
 C830 C 0.28039 -0.15296 0.28474
 C831 C 0.30118 -0.11453 0.26760
 C832 C 0.31072 -0.10257 0.26593
 C833 C 0.32132 -0.08812 0.26409
 C834 C 0.32978 -0.07535 0.26261
 C835 C 0.33900 -0.05957 0.26095
 C836 C 0.33290 -0.04484 0.26842
 C837 C 0.34089 -0.02922 0.26595
 C838 C 0.35510 -0.02808 0.25590
 C839 C 0.36153 -0.04297 0.24888
 C840 C 0.35346 -0.05865 0.25134
 H841 H 0.30393 -0.13901 0.28978
 H842 H 0.27181 -0.12087 0.25034
 H843 H 0.25086 -0.14325 0.25471
 H844 H 0.28325 -0.16158 0.29450
 H845 H 0.32176 -0.04539 0.27591
 H846 H 0.33584 -0.01800 0.27179
 H847 H 0.37237 -0.04244 0.24099
 H848 H 0.35826 -0.06998 0.24545
 C849 C 0.23251 -0.13113 0.73732
 C850 C 0.21880 -0.12932 0.72610
 C851 C 0.21643 -0.14048 0.71217
 C852 C 0.22770 -0.15343 0.70945
 C853 C 0.24159 -0.15550 0.72069
 C854 C 0.24380 -0.14406 0.73468
 C855 C 0.20718 -0.11603 0.72895
 C856 C 0.19752 -0.10485 0.73143
 C857 C 0.18631 -0.09169 0.73442
 C858 C 0.17681 -0.08038 0.73697
 C859 C 0.16554 -0.06680 0.73993
 C860 C 0.15127 -0.06520 0.72936
 C861 C 0.14058 -0.05171 0.73184
 C862 C 0.14416 -0.03940 0.74485
 C863 C 0.15819 -0.04163 0.75582
 C864 C 0.16886 -0.05511 0.75329
 H865 H 0.23444 -0.12256 0.74818
 H866 H 0.20583 -0.13921 0.70341
 H867 H 0.22532 -0.16179 0.69855
 H868 H 0.25418 -0.14497 0.74372
 H869 H 0.14842 -0.07437 0.71915
 H870 H 0.12955 -0.05123 0.72358
 H871 H 0.16104 -0.03275 0.76628
 H872 H 0.17977 -0.05632 0.76169
 C873 C 0.73265 0.36938 0.23777
 C874 C 0.71858 0.37083 0.22689
 C875 C 0.71590 0.35935 0.21323
 C876 C 0.72721 0.34644 0.21047
 C877 C 0.74140 0.34480 0.22137
 C878 C 0.74398 0.35649 0.23504
 C879 C 0.70689 0.38407 0.22979
 C880 C 0.69714 0.39518 0.23227
 C881 C 0.68579 0.40824 0.23520
 C882 C 0.67618 0.41947 0.23768
 C883 C 0.66484 0.43301 0.24057
 C884 C 0.65057 0.43454 0.22998
 C885 C 0.63989 0.44807 0.23235
 C886 C 0.64347 0.46046 0.24528
 C887 C 0.65753 0.45832 0.25625
 C888 C 0.66819 0.44482 0.25383
 H889 H 0.73484 0.37820 0.24840
 H890 H 0.70503 0.36034 0.20474
 H891 H 0.72469 0.33773 0.19985
 H892 H 0.75471 0.35576 0.24371
 H893 H 0.64772 0.42531 0.21982
 H894 H 0.62890 0.44853 0.22403
 H895 H 0.66041 0.46733 0.26659
 H896 H 0.67912 0.44369 0.26221
 C897 C 0.71055 0.63458 0.28736
 C898 C 0.71138 0.62378 0.27317
 C899 C 0.72395 0.62661 0.26161
 C900 C 0.73569 0.64013 0.26425
 C901 C 0.73504 0.65105 0.27853
 C902 C 0.72227 0.64812 0.29003
 C903 C 0.69959 0.60957 0.27064
 C904 C 0.68997 0.59748 0.26849
 C905 C 0.67910 0.58303 0.26586
 C906 C 0.67028 0.57040 0.26344
 C907 C 0.66045 0.55489 0.26027
 C908 C 0.66536 0.54337 0.24781
 C909 C 0.65668 0.52781 0.24524
 C910 C 0.64296 0.52349 0.25515
 C911 C 0.63775 0.53532 0.26732
 C912 C 0.64651 0.55093 0.26991
 H913 H 0.70092 0.63248 0.29644
 H914 H 0.72471 0.61831 0.25057
 H915 H 0.74520 0.64202 0.25504
 H916 H 0.72139 0.65613 0.30122
 H917 H 0.67609 0.54631 0.24024
 H918 H 0.66079 0.51911 0.23554
 H919 H 0.62731 0.53228 0.27520
 H920 H 0.64263 0.55974 0.27962
 C921 C 0.20955 0.13510 0.78717
 C922 C 0.21009 0.12447 0.77282
 C923 C 0.22246 0.12738 0.76108
 C924 C 0.23432 0.14081 0.76371
 C925 C 0.23397 0.15155 0.77814
 C926 C 0.22138 0.14855 0.78982
 C927 C 0.19827 0.11029 0.77033
 C928 C 0.18868 0.09818 0.76822
 C929 C 0.17792 0.08366 0.76565
 C930 C 0.16924 0.07092 0.76332
 C931 C 0.15966 0.05525 0.76030
 C932 C 0.16501 0.04352 0.74826
 C933 C 0.15661 0.02780 0.74592
 C934 C 0.14274 0.02350 0.75566
 C935 C 0.13707 0.03555 0.76736
 C936 C 0.14554 0.05133 0.76972
 H937 H 0.20007 0.13293 0.79638
 H938 H 0.22301 0.11921 0.74993
 H939 H 0.24368 0.14276 0.75437
 H940 H 0.22074 0.15641 0.80113
 H941 H 0.17586 0.04643 0.74085
 H942 H 0.16105 0.01897 0.73651
 H943 H 0.12647 0.03260 0.77505
 H944 H 0.14131 0.06033 0.77909
 C945 C 0.23199 0.26645 0.12372
 C946 C 0.22100 0.27970 0.12164
 C947 C 0.20787 0.28197 0.13269
 C948 C 0.20575 0.27103 0.14580
 C949 C 0.21675 0.25764 0.14805
 C950 C 0.22990 0.25549 0.13681
 C951 C 0.22328 0.29098 0.10820
 C952 C 0.22537 0.30037 0.09692
 C953 C 0.22802 0.31127 0.08370
 C954 C 0.23048 0.32051 0.07236
 C955 C 0.23365 0.33141 0.05879
 C956 C 0.22687 0.32716 0.04273
 C957 C 0.23034 0.33750 0.02944
 C958 C 0.24104 0.35206 0.03191
 C959 C 0.24708 0.35661 0.04834
 C960 C 0.24358 0.34625 0.06161
 H961 H 0.24221 0.26459 0.11523
 H962 H 0.19929 0.29221 0.13118
 H963 H 0.19548 0.27316 0.15411
 H964 H 0.23865 0.24541 0.13804
 H965 H 0.21889 0.31585 0.04048
 H966 H 0.22457 0.33408 0.01725
 H967 H 0.25437 0.36824 0.05108
 H968 H 0.24859 0.34983 0.07409
 C969 C 0.73274 0.76604 0.62441
 C970 C 0.72196 0.77946 0.62234
 C971 C 0.70904 0.78211 0.63354
 C972 C 0.70692 0.77138 0.64682
 C973 C 0.71771 0.75782 0.64908
 C974 C 0.73065 0.75528 0.63767
 C975 C 0.72428 0.79059 0.60878
 C976 C 0.72639 0.79989 0.59744
 C977 C 0.72905 0.81074 0.58418
 C978 C 0.73151 0.81996 0.57284
 C979 C 0.73464 0.83087 0.55927
 C980 C 0.74469 0.84563 0.56206
 C981 C 0.74810 0.85604 0.54881
 C982 C 0.74183 0.85162 0.53242
 C983 C 0.73104 0.83712 0.52999
 C984 C 0.72766 0.82673 0.54327
 H985 H 0.74279 0.76389 0.61579
 H986 H 0.70063 0.79249 0.63204
 H987 H 0.69684 0.77383 0.65528
 H988 H 0.73919 0.74502 0.63887
 H989 H 0.74986 0.84913 0.57450
 H990 H 0.75548 0.86761 0.55154
 H991 H 0.72513 0.83380 0.51784
 H992 H 0.71959 0.81549 0.54105
 C993 C 0.78472 0.79295 0.36186
 C994 C 0.77060 0.79143 0.37183
 C995 C 0.75899 0.77785 0.36886
 C996 C 0.76148 0.76578 0.35606
 C997 C 0.77570 0.76706 0.34599
 C998 C 0.78726 0.78087 0.34902
 C999 C 0.76812 0.80344 0.38543
 C1000 C 0.76568 0.81299 0.39714
 C1001 C 0.76247 0.82353 0.41124
 C1002 C 0.75949 0.83188 0.42366
 C1003 C 0.75573 0.84095 0.43896
 C1004 C 0.74371 0.83408 0.44941
 C1005 C 0.74096 0.84188 0.46499
 C1006 C 0.75028 0.85666 0.47042
 C1007 C 0.76184 0.86387 0.45957
 C1008 C 0.76461 0.85601 0.44394
 H1009 H 0.79383 0.80339 0.36409
 H1010 H 0.74804 0.77652 0.37653
 H1011 H 0.75224 0.75546 0.35420
 H1012 H 0.79833 0.78236 0.34160
 H1013 H 0.73672 0.82246 0.44567
 H1014 H 0.73173 0.83618 0.47292
 H1015 H 0.76925 0.87513 0.46339
 H1016 H 0.77398 0.86142 0.43596
 C1017 C 0.25986 0.27696 -0.13022
 C1018 C 0.27078 0.29119 -0.12810
 C1019 C 0.28413 0.29335 -0.13893
 C1020 C 0.28658 0.28128 -0.15181
 C1021 C 0.27570 0.26684 -0.15400
 C1022 C 0.26227 0.26490 -0.14305
 C1023 C 0.26832 0.30330 -0.11457
 C1024 C 0.26589 0.31295 -0.10294
 C1025 C 0.26264 0.32360 -0.08893
 C1026 C 0.25957 0.33204 -0.07660
 C1027 C 0.25564 0.34118 -0.06139
 C1028 C 0.26440 0.35632 -0.05643
 C1029 C 0.26146 0.36423 -0.04087
 C1030 C 0.24988 0.35700 -0.03006
 C1031 C 0.24066 0.34216 -0.03549
 C1032 C 0.24357 0.33431 -0.05101
 H1033 H 0.24951 0.27513 -0.12188
 H1034 H 0.29269 0.30432 -0.13738
 H1035 H 0.29700 0.28333 -0.15997
 H1036 H 0.25362 0.25403 -0.14420
 H1037 H 0.27380 0.36175 -0.06437
 H1038 H 0.26878 0.37556 -0.03706
 H1039 H 0.23139 0.33645 -0.02761
 H1040 H 0.23667 0.32264 -0.05474
 C1041 C 0.71111 0.21537 -0.13905
 C1042 C 0.72485 0.21795 -0.12763
 C1043 C 0.73618 0.23168 -0.12924
 C1044 C 0.73386 0.24272 -0.14226
 C1045 C 0.72015 0.24019 -0.15393
 C1046 C 0.70876 0.22639 -0.15210
 C1047 C 0.72749 0.20644 -0.11438
 C1048 C 0.72988 0.19684 -0.10329
 C1049 C 0.73283 0.18565 -0.09029
 C1050 C 0.73542 0.17615 -0.07914
 C1051 C 0.73851 0.16490 -0.06576
 C1052 C 0.75484 0.15939 -0.06241
 C1053 C 0.75790 0.14873 -0.04919
 C1054 C 0.74457 0.14305 -0.03933
 C1055 C 0.72829 0.14918 -0.04253
 C1056 C 0.72527 0.15984 -0.05574
 H1057 H 0.70224 0.20478 -0.13792
 H1058 H 0.74686 0.23382 -0.12046
 H1059 H 0.74290 0.25315 -0.14312
 H1060 H 0.69805 0.22395 -0.16075
 H1061 H 0.76527 0.16351 -0.06986
 H1062 H 0.77078 0.14520 -0.04657
 H1063 H 0.71788 0.14611 -0.03466
 H1064 H 0.71264 0.16434 -0.05799
 C1065 C 0.21211 0.71535 0.36007
 C1066 C 0.22536 0.71840 0.37198
 C1067 C 0.23631 0.73249 0.37078
 C1068 C 0.23412 0.74344 0.35766
 C1069 C 0.22092 0.74045 0.34549
 C1070 C 0.20989 0.72628 0.34692
 C1071 C 0.22793 0.70694 0.38527
 C1072 C 0.23026 0.69735 0.39638
 C1073 C 0.23318 0.68616 0.40938
 C1074 C 0.23578 0.67665 0.42051
 C1075 C 0.23894 0.66541 0.43387
 C1076 C 0.25527 0.65984 0.43707
 C1077 C 0.25842 0.64919 0.45027
 C1078 C 0.24518 0.64359 0.46028
 C1079 C 0.22889 0.64978 0.45722
 C1080 C 0.22578 0.66042 0.44402
 H1081 H 0.20355 0.70448 0.36089
 H1082 H 0.24660 0.73499 0.37995
 H1083 H 0.24283 0.75420 0.35714
 H1084 H 0.19960 0.72348 0.33787
 H1085 H 0.26563 0.66390 0.42950
 H1086 H 0.27131 0.64563 0.45277
 H1087 H 0.21855 0.64674 0.46520
 H1088 H 0.21315 0.66495 0.44187
 C1089 C 0.28821 0.70950 0.63378
 C1090 C 0.27469 0.71095 0.62224
 C1091 C 0.26315 0.72373 0.62468
 C1092 C 0.26515 0.73505 0.63855
 C1093 C 0.27877 0.73377 0.65022
 C1094 C 0.29025 0.72080 0.64765
 C1095 C 0.27290 0.69959 0.60770
 C1096 C 0.27151 0.69026 0.59539
 C1097 C 0.26994 0.67964 0.58075
 C1098 C 0.26859 0.67094 0.56800
 C1099 C 0.26689 0.66111 0.55244
 C1100 C 0.27394 0.66738 0.53803
 C1101 C 0.27135 0.65857 0.52261
 C1102 C 0.26163 0.64334 0.52138
 C1103 C 0.25501 0.63684 0.53599
 C1104 C 0.25759 0.64571 0.55143
 H1105 H 0.29727 0.69970 0.63199
 H1106 H 0.25265 0.72501 0.61580
 H1107 H 0.25602 0.74478 0.64003
 H1108 H 0.30094 0.71937 0.65621
 H1109 H 0.28120 0.67925 0.53865
 H1110 H 0.27681 0.66377 0.51161
 H1111 H 0.24730 0.62526 0.53540
 H1112 H 0.25202 0.64076 0.56250
 C1113 C 0.78863 0.20953 0.13373
 C1114 C 0.77520 0.21117 0.12213
 C1115 C 0.76389 0.22417 0.12446
 C1116 C 0.76601 0.23551 0.13830
 C1117 C 0.77953 0.23403 0.15004
 C1118 C 0.79080 0.22085 0.14757
 C1119 C 0.77326 0.19976 0.10765
 C1120 C 0.77173 0.19038 0.09539
 C1121 C 0.77000 0.17969 0.08082
 C1122 C 0.76852 0.17092 0.06813
 C1123 C 0.76669 0.16099 0.05263
 C1124 C 0.77374 0.16713 0.03816
 C1125 C 0.77106 0.15823 0.02280
 C1126 C 0.76126 0.14304 0.02170
 C1127 C 0.75465 0.13668 0.03638
 C1128 C 0.75731 0.14565 0.05176
 H1129 H 0.79752 0.19955 0.13202
 H1130 H 0.75345 0.22560 0.11553
 H1131 H 0.75703 0.24540 0.13971
 H1132 H 0.80139 0.21925 0.15621
 H1133 H 0.78105 0.17896 0.03868
 H1134 H 0.77650 0.16333 0.01175
 H1135 H 0.74687 0.12515 0.03588
 H1136 H 0.75174 0.14081 0.06287
 C1137 C 0.46796 0.38283 0.53003
 C1138 C 0.48149 0.37230 0.52725
 C1139 C 0.49193 0.37510 0.51379
 C1140 C 0.48883 0.38835 0.50314
 C1141 C 0.47521 0.39902 0.50580
 C1142 C 0.46483 0.39607 0.51943
 C1143 C 0.48453 0.35863 0.53822
 C1144 C 0.48670 0.34728 0.54761
 C1145 C 0.48879 0.33410 0.55883
 C1146 C 0.49011 0.32297 0.56863
 C1147 C 0.49102 0.30985 0.58058
 C1148 C 0.49879 0.29465 0.57664
 C1149 C 0.49865 0.28159 0.58796
 C1150 C 0.49064 0.28358 0.60332
 C1151 C 0.48329 0.29908 0.60733
 C1152 C 0.48346 0.31208 0.59604
 H1153 H 0.45979 0.38081 0.54042
 H1154 H 0.50246 0.36703 0.51150
 H1155 H 0.49713 0.39012 0.49284
 H1156 H 0.45427 0.40394 0.52201
 H1157 H 0.50464 0.29276 0.56469
 H1158 H 0.50425 0.26977 0.58442
 H1159 H 0.47726 0.30110 0.61916
 H1160 H 0.47744 0.32379 0.59927
 C1161 C -0.00821 0.87519 0.01307
 C1162 C -0.01842 0.87250 0.02672
 C1163 C -0.03173 0.88324 0.02982
 C1164 C -0.03481 0.89662 0.01939
 C1165 C -0.02461 0.89951 0.00561
 C1166 C -0.01127 0.88858 0.00259
 C1167 C -0.01534 0.85879 0.03763
 C1168 C -0.01310 0.84742 0.04698
 C1169 C -0.01094 0.83424 0.05818
 C1170 C -0.00957 0.82310 0.06795
 C1171 C -0.00862 0.80997 0.07989
 C1172 C -0.01612 0.81219 0.09538
 C1173 C -0.01626 0.79918 0.10666
 C1174 C -0.00892 0.78369 0.10261
 C1175 C -0.00099 0.78170 0.08721
 C1176 C -0.00089 0.79476 0.07589
 H1177 H 0.00212 0.86695 0.01052
 H1178 H -0.03973 0.88129 0.04035
 H1179 H -0.04518 0.90466 0.02222
 H1180 H -0.00314 0.89029 -0.00785
 H1181 H -0.02212 0.82390 0.09864
 H1182 H -0.02223 0.80120 0.11852
 H1183 H 0.00460 0.76987 0.08364
 H1184 H 0.00491 0.79287 0.06392
 C1185 C 0.02094 0.63301 0.01150
 C1186 C 0.03096 0.63608 0.02614
 C1187 C 0.04362 0.62490 0.03030
 C1188 C 0.04615 0.61063 0.01991
 C1189 C 0.03601 0.60735 0.00522
 C1190 C 0.02343 0.61878 0.00112
 C1191 C 0.02783 0.65044 0.03705
 C1192 C 0.02470 0.66237 0.04611
 C1193 C 0.02046 0.67619 0.05665
 C1194 C 0.01635 0.68779 0.06566
 C1195 C 0.01085 0.70134 0.07648
 C1196 C 0.02261 0.71145 0.08621
 C1197 C 0.01706 0.72407 0.09726
 C1198 C -0.00033 0.72664 0.09876
 C1199 C -0.01202 0.71663 0.08867
 C1200 C -0.00646 0.70407 0.07763
 H1201 H 0.01110 0.64157 0.00816
 H1202 H 0.05142 0.62712 0.04164
 H1203 H 0.05589 0.60212 0.02355
 H1204 H 0.01546 0.61685 -0.01011
 H1205 H 0.03604 0.70940 0.08546
 H1206 H 0.02635 0.73142 0.10501
 H1207 H -0.02548 0.71848 0.08934
 H1208 H -0.01568 0.69636 0.07013
 C1209 C 0.52090 0.13285 0.51204
 C1210 C 0.53087 0.13601 0.52670
 C1211 C 0.54360 0.12494 0.53090
 C1212 C 0.54629 0.11070 0.52052
 C1213 C 0.53622 0.10733 0.50580
 C1214 C 0.52354 0.11865 0.50167
 C1215 C 0.52763 0.15039 0.53757
 C1216 C 0.52442 0.16234 0.54657
 C1217 C 0.52010 0.17618 0.55705
 C1218 C 0.51594 0.18781 0.56601
 C1219 C 0.51037 0.20137 0.57678
 C1220 C 0.52207 0.21139 0.58669
 C1221 C 0.51645 0.22397 0.59775
 C1222 C 0.49904 0.22659 0.59908
 C1223 C 0.48743 0.21670 0.58880
 C1224 C 0.49307 0.20419 0.57775
 H1225 H 0.51100 0.14133 0.50866
 H1226 H 0.55137 0.12722 0.54226
 H1227 H 0.55609 0.10227 0.52419
 H1228 H 0.51562 0.11664 0.49041
 H1229 H 0.53550 0.20929 0.58608
 H1230 H 0.52569 0.23123 0.60564
 H1231 H 0.47396 0.21860 0.58933
 H1232 H 0.48389 0.19655 0.57011
 C1233 C -0.03956 0.12806 0.47595
 C1234 C -0.02576 0.13939 0.47899
 C1235 C -0.01436 0.13706 0.49242
 C1236 C -0.01666 0.12334 0.50268
 C1237 C -0.03041 0.11172 0.49962
 C1238 C -0.04189 0.11435 0.48618
 C1239 C -0.02303 0.15305 0.46797
 C1240 C -0.02064 0.16423 0.45846
 C1241 C -0.01760 0.17700 0.44704
 C1242 C -0.01468 0.18764 0.43708
 C1243 C -0.01064 0.19996 0.42497
 C1244 C 0.00631 0.20367 0.42172
 C1245 C 0.01042 0.21491 0.40938
 C1246 C -0.00239 0.22256 0.40001
 C1247 C -0.01940 0.21906 0.40359
 C1248 C -0.02350 0.20778 0.41598
 H1249 H -0.04844 0.12973 0.46557
 H1250 H -0.00360 0.14574 0.49485
 H1251 H -0.00753 0.12179 0.51284
 H1252 H -0.05270 0.10585 0.48344
 H1253 H 0.01636 0.19771 0.42861
 H1254 H 0.02365 0.21759 0.40717
 H1255 H -0.02954 0.22462 0.39648
 H1256 H -0.03667 0.20493 0.41836
 C1257 C 0.48610 0.63669 0.99285
 C1258 C 0.47467 0.63915 0.97948
 C1259 C 0.46082 0.62788 0.97642
 C1260 C 0.45845 0.61413 0.98658
 C1261 C 0.46995 0.61139 0.99999
 C1262 C 0.48376 0.62293 1.00306
 C1263 C 0.47740 0.65290 0.96855
 C1264 C 0.47977 0.66417 0.95913
 C1265 C 0.48275 0.67706 0.94782
 C1266 C 0.48560 0.68780 0.93793
 C1267 C 0.48950 0.70023 0.92587
 C1268 C 0.47654 0.70788 0.91687
 C1269 C 0.48049 0.71920 0.90447
 C1270 C 0.49746 0.72290 0.90088
 C1271 C 0.51038 0.71543 0.91027
 C1272 C 0.50641 0.70416 0.92263
 H1273 H 0.49690 0.64532 0.99530
 H1274 H 0.45191 0.62964 0.96608
 H1275 H 0.44759 0.60569 0.98385
 H1276 H 0.49290 0.62128 1.01318
 H1277 H 0.46340 0.70487 0.91924
 H1278 H 0.47028 0.72463 0.89735
 H1279 H 0.52358 0.71827 0.90805
 H1280 H 0.51654 0.69833 0.92953
 C1281 C 0.52995 0.88520 0.96974
 C1282 C 0.51685 0.87347 0.97255
 C1283 C 0.50737 0.87527 0.98691
 C1284 C 0.51107 0.88867 0.99851
 C1285 C 0.52437 0.90046 0.99593
 C1286 C 0.53369 0.89861 0.98132
 C1287 C 0.51343 0.85936 0.96089
 C1288 C 0.51086 0.84749 0.95114
 C1289 C 0.50825 0.83356 0.93969
 C1290 C 0.50645 0.82167 0.92984
 C1291 C 0.50491 0.80754 0.91795
 C1292 C 0.49769 0.79208 0.92248
 C1293 C 0.49729 0.77808 0.91120
 C1294 C 0.50420 0.77941 0.89532
 C1295 C 0.51102 0.79512 0.89075
 C1296 C 0.51139 0.80907 0.90200
 H1297 H 0.53737 0.88393 0.95865
 H1298 H 0.49721 0.86624 0.98921
 H1299 H 0.50363 0.88957 1.00958
 H1300 H 0.54389 0.90746 0.97877
 H1301 H 0.49271 0.79075 0.93483
 H1302 H 0.49214 0.76612 0.91516
 H1303 H 0.51619 0.79660 0.87851
 H1304 H 0.51699 0.82098 0.89836
 C1305 C 0.00688 0.37586 0.48539
 C1306 C 0.01700 0.37335 0.47159
 C1307 C 0.03073 0.38448 0.46922
 C1308 C 0.03446 0.39797 0.48070
 C1309 C 0.02451 0.40053 0.49479
 C1310 C 0.01057 0.38935 0.49690
 C1311 C 0.01359 0.35915 0.46004
 C1312 C 0.01106 0.34721 0.45035
 C1313 C 0.00855 0.33322 0.43896
 C1314 C 0.00684 0.32130 0.42912
 C1315 C 0.00542 0.30716 0.41724
 C1316 C 0.01210 0.30866 0.40137
 C1317 C 0.01178 0.29472 0.39011
 C1318 C 0.00481 0.27904 0.39460
 C1319 C -0.00227 0.27773 0.41041
 C1320 C -0.00192 0.29173 0.42168
 H1321 H -0.00380 0.36732 0.48734
 H1322 H 0.03866 0.38265 0.45856
 H1323 H 0.04524 0.40625 0.47853
 H1324 H 0.00253 0.39086 0.50747
 H1325 H 0.01780 0.32055 0.39780
 H1326 H 0.01708 0.29618 0.37793
 H1327 H -0.00754 0.26579 0.41429
 H1328 H -0.00706 0.29042 0.43397
 C1329 C 0.38323 0.52899 0.46657
 C1330 C 0.37234 0.52543 0.47949
 C1331 C 0.37523 0.51155 0.48935
 C1332 C 0.38891 0.50125 0.48628
 C1333 C 0.39994 0.50468 0.47326
 C1334 C 0.39690 0.51873 0.46347
 C1335 C 0.35812 0.53594 0.48237
 C1336 C 0.34624 0.54488 0.48436
 C1337 C 0.33235 0.55550 0.48613
 C1338 C 0.32053 0.56467 0.48710
 C1339 C 0.30645 0.57575 0.48751
 C1340 C 0.30316 0.58533 0.50208
 C1341 C 0.28994 0.59666 0.50203
 C1342 C 0.27994 0.59861 0.48738
 C1343 C 0.28315 0.58865 0.47293
 C1344 C 0.29630 0.57735 0.47301
 H1345 H 0.38112 0.53968 0.45883
 H1346 H 0.36687 0.50864 0.49938
 H1347 H 0.39074 0.49061 0.49410
 H1348 H 0.40501 0.52188 0.45336
 H1349 H 0.31096 0.58425 0.51337
 H1350 H 0.28790 0.60426 0.51329
 H1351 H 0.27548 0.58960 0.46154
 H1352 H 0.29868 0.56998 0.46168
 C1353 C 0.88264 0.02895 -0.03361
 C1354 C 0.87203 0.02558 -0.02042
 C1355 C 0.87527 0.01200 -0.01026
 C1356 C 0.88906 0.00184 -0.01328
 C1357 C 0.89984 0.00510 -0.02654
 C1358 C 0.89641 0.01882 -0.03665
 C1359 C 0.85775 0.03599 -0.01752
 C1360 C 0.84582 0.04484 -0.01549
 C1361 C 0.83187 0.05535 -0.01364
 C1362 C 0.81997 0.06441 -0.01261
 C1363 C 0.80580 0.07536 -0.01212
 C1364 C 0.80259 0.08500 0.00243
 C1365 C 0.78931 0.09626 0.00243
 C1366 C 0.77919 0.09807 -0.01216
 C1367 C 0.78230 0.08805 -0.02658
 C1368 C 0.79551 0.07681 -0.02655
 H1369 H 0.88024 0.03940 -0.04158
 H1370 H 0.86713 0.00924 -0.00003
 H1371 H 0.89118 -0.00857 -0.00521
 H1372 H 0.90430 0.02183 -0.04697
 H1373 H 0.81050 0.08402 0.01366
 H1374 H 0.78735 0.10393 0.01367
 H1375 H 0.77455 0.08891 -0.03792
 H1376 H 0.79783 0.06939 -0.03787
 C1377 C 0.62577 0.02890 0.04869
 C1378 C 0.63628 0.02539 0.03536
 C1379 C 0.63275 0.01111 0.02481
 C1380 C 0.61871 0.00047 0.02744
 C1381 C 0.60790 0.00396 0.04068
 C1382 C 0.61169 0.01827 0.05136
 C1383 C 0.65032 0.03670 0.03206
 C1384 C 0.66189 0.04620 0.02884
 C1385 C 0.67519 0.05739 0.02453
 C1386 C 0.68627 0.06704 0.02041
 C1387 C 0.69907 0.07874 0.01491
 C1388 C 0.69425 0.09382 0.00792
 C1389 C 0.70644 0.10488 0.00176
 C1390 C 0.72367 0.10101 0.00245
 C1391 C 0.72847 0.08597 0.00977
 C1392 C 0.71622 0.07488 0.01593
 H1393 H 0.62835 0.03995 0.05693
 H1394 H 0.64078 0.00827 0.01443
 H1395 H 0.61638 -0.01041 0.01899
 H1396 H 0.60374 0.02144 0.06167
 H1397 H 0.68103 0.09695 0.00708
 H1398 H 0.70235 0.11649 -0.00354
 H1399 H 0.74160 0.08253 0.01031
 H1400 H 0.72010 0.06321 0.02124
 C1401 C 0.13383 0.51035 0.52354
 C1402 C 0.13704 0.52502 0.53363
 C1403 C 0.12614 0.52903 0.54650
 C1404 C 0.11199 0.51852 0.54916
 C1405 C 0.10850 0.50385 0.53893
 C1406 C 0.11969 0.49984 0.52615
 C1407 C 0.15112 0.53624 0.53029
 C1408 C 0.16271 0.54573 0.52710
 C1409 C 0.17600 0.55697 0.52288
 C1410 C 0.18704 0.56670 0.51887
 C1411 C 0.19981 0.57853 0.51356
 C1412 C 0.19494 0.59369 0.50676
 C1413 C 0.20711 0.60492 0.50083
 C1414 C 0.22437 0.60115 0.50158
 C1415 C 0.22921 0.58603 0.50870
 C1416 C 0.21698 0.57476 0.51461
 H1417 H 0.14217 0.50711 0.51353
 H1418 H 0.12846 0.54039 0.55436
 H1419 H 0.10366 0.52209 0.55905
 H1420 H 0.11758 0.48860 0.51813
 H1421 H 0.18170 0.59675 0.50589
 H1422 H 0.20299 0.61658 0.49567
 H1423 H 0.24235 0.58266 0.50926
 H1424 H 0.22089 0.56303 0.51978
 C1425 C 0.13369 0.49187 -0.01318
 C1426 C 0.13685 0.47888 -0.02491
 C1427 C 0.12631 0.47635 -0.03926
 C1428 C 0.11260 0.48667 -0.04185
 C1429 C 0.10915 0.49969 -0.03008
 C1430 C 0.11994 0.50223 -0.01574
 C1431 C 0.15056 0.46778 -0.02207
 C1432 C 0.16180 0.45818 -0.01972
 C1433 C 0.17465 0.44664 -0.01682
 C1434 C 0.18537 0.43659 -0.01405
 C1435 C 0.19783 0.42440 -0.01022
 C1436 C 0.20622 0.41595 -0.02304
 C1437 C 0.21786 0.40366 -0.01916
 C1438 C 0.22115 0.39964 -0.00241
 C1439 C 0.21281 0.40838 0.01037
 C1440 C 0.20123 0.42064 0.00647
 H1441 H 0.14174 0.49388 -0.00199
 H1442 H 0.12863 0.46631 -0.04841
 H1443 H 0.10474 0.48435 -0.05311
 H1444 H 0.11769 0.51203 -0.00637
 H1445 H 0.20362 0.41873 -0.03603
 H1446 H 0.22394 0.39702 -0.02927
 H1447 H 0.21529 0.40581 0.02342
 H1448 H 0.19482 0.42711 0.01649
 C1449 C 0.63437 0.99199 0.48838
 C1450 C 0.63784 0.97922 0.47651
 C1451 C 0.62760 0.97691 0.46194
 C1452 C 0.61386 0.98718 0.45926
 C1453 C 0.61010 0.99995 0.47118
 C1454 C 0.62060 1.00231 0.48573
 C1455 C 0.65155 0.96812 0.47942
 C1456 C 0.66277 0.95849 0.48178
 C1457 C 0.67559 0.94688 0.48462
 C1458 C 0.68628 0.93675 0.48728
 C1459 C 0.69869 0.92444 0.49094
 C1460 C 0.70692 0.91601 0.47800
 C1461 C 0.71847 0.90357 0.48171
 C1462 C 0.72182 0.89940 0.49840
 C1463 C 0.71366 0.90812 0.51131
 C1464 C 0.70216 0.92052 0.50758
 H1465 H 0.64219 0.99384 0.49976
 H1466 H 0.63016 0.96706 0.45267
 H1467 H 0.60624 0.98505 0.44783
 H1468 H 0.61808 1.01193 0.49522
 H1469 H 0.70426 0.91890 0.46506
 H1470 H 0.72442 0.89696 0.47150
 H1471 H 0.71621 0.90544 0.52431
 H1472 H 0.69589 0.92699 0.51770
 C1473 C 0.87700 0.98681 0.50510
 C1474 C 0.87364 0.97343 0.51551
 C1475 C 0.88417 0.97121 0.52961
 C1476 C 0.89791 0.98240 0.53341
 C1477 C 0.90135 0.99605 0.52316
 C1478 C 0.89076 0.99804 0.50887
 C1479 C 0.85916 0.96221 0.51215
 C1480 C 0.84700 0.95271 0.50996
 C1481 C 0.83278 0.94150 0.50813
 C1482 C 0.82067 0.93183 0.50720
 C1483 C 0.80631 0.92019 0.50685
 C1484 C 0.79992 0.91491 0.52193
 C1485 C 0.78618 0.90338 0.52182
 C1486 C 0.77864 0.89682 0.50657
 C1487 C 0.78501 0.90245 0.49147
 C1488 C 0.79879 0.91402 0.49161
 H1489 H 0.86890 0.98865 0.49415
 H1490 H 0.88165 0.96090 0.53778
 H1491 H 0.90566 0.98036 0.54450
 H1492 H 0.89296 1.00830 0.50061
 H1493 H 0.80556 0.91971 0.53381
 H1494 H 0.78137 0.89981 0.53373
 H1495 H 0.77960 0.89782 0.47952
 H1496 H 0.80362 0.91809 0.47986
 C1497 C 0.38398 0.47099 0.02918
 C1498 C 0.37349 0.47335 0.01508
 C1499 C 0.37697 0.48674 0.00472
 C1500 C 0.39080 0.49787 0.00855
 C1501 C 0.40133 0.49577 0.02286
 C1502 C 0.39779 0.48208 0.03304
 C1503 C 0.35890 0.46225 0.01170
 C1504 C 0.34666 0.45284 0.00951
 C1505 C 0.33235 0.44172 0.00770
 C1506 C 0.32019 0.43211 0.00679
 C1507 C 0.30577 0.42052 0.00644
 C1508 C 0.29829 0.41433 -0.00879
 C1509 C 0.28448 0.40279 -0.00895
 C1510 C 0.27805 0.39720 0.00615
 C1511 C 0.28555 0.40379 0.02139
 C1512 C 0.29932 0.41530 0.02152
 H1513 H 0.38138 0.46067 0.03730
 H1514 H 0.36891 0.48868 -0.00623
 H1515 H 0.39308 0.50815 0.00034
 H1516 H 0.40551 0.47995 0.04413
 H1517 H 0.30317 0.41834 -0.02055
 H1518 H 0.27910 0.39814 -0.02091
 H1519 H 0.28069 0.40025 0.03329
 H1520 H 0.30494 0.42011 0.03340
 C1521 C 0.53219 0.46635 0.38313
 C1522 C 0.52905 0.47980 0.37280
 C1523 C 0.51535 0.49004 0.37585
 C1524 C 0.50483 0.48684 0.38916
 C1525 C 0.50785 0.47330 0.39966
 C1526 C 0.52171 0.46311 0.39644
 C1527 C 0.53988 0.48298 0.35907
 C1528 C 0.54911 0.48533 0.34761
 C1529 C 0.56009 0.48764 0.33427
 C1530 C 0.56963 0.48916 0.32293
 C1531 C 0.58122 0.49033 0.30948
 C1532 C 0.57655 0.49811 0.29466
 C1533 C 0.58748 0.49820 0.28125
 C1534 C 0.60316 0.49042 0.28248
 C1535 C 0.60790 0.48302 0.29758
 C1536 C 0.59699 0.48296 0.31095
 H1537 H 0.54276 0.45832 0.38088
 H1538 H 0.51277 0.50050 0.36792
 H1539 H 0.49436 0.49500 0.39115
 H1540 H 0.52454 0.45259 0.40414
 H1541 H 0.56434 0.50379 0.29336
 H1542 H 0.58337 0.50381 0.26973
 H1543 H 0.61999 0.47714 0.29902
 H1544 H 0.60075 0.47692 0.32235
 C1545 C 0.01540 -0.00902 0.87598
 C1546 C 0.02937 -0.01898 0.87321
 C1547 C 0.03286 -0.03205 0.88392
 C1548 C 0.02242 -0.03523 0.89727
 C1549 C 0.00823 -0.02539 0.90014
 C1550 C 0.00491 -0.01218 0.88933
 C1551 C 0.03998 -0.01610 0.85923
 C1552 C 0.04895 -0.01414 0.84752
 C1553 C 0.05956 -0.01241 0.83377
 C1554 C 0.06867 -0.01151 0.82202
 C1555 C 0.07959 -0.01124 0.80797
 C1556 C 0.08240 -0.02632 0.79898
 C1557 C 0.09329 -0.02642 0.78561
 C1558 C 0.10165 -0.01142 0.78102
 C1559 C 0.09855 0.00375 0.78994
 C1560 C 0.08763 0.00382 0.80338
 H1561 H 0.01255 0.00113 0.86776
 H1562 H 0.04364 -0.03986 0.88189
 H1563 H 0.02552 -0.04546 0.90524
 H1564 H -0.00582 -0.00429 0.89105
 H1565 H 0.07620 -0.03804 0.80235
 H1566 H 0.09503 -0.03827 0.77879
 H1567 H 0.10481 0.01548 0.78681
 H1568 H 0.08556 0.01557 0.81027
 C1569 C 0.01107 0.02418 0.63278
 C1570 C 0.02604 0.03388 0.63589
 C1571 C 0.03054 0.04642 0.62486
 C1572 C 0.02021 0.04912 0.61070
 C1573 C 0.00522 0.03926 0.60734
 C1574 C 0.00074 0.02683 0.61865
 C1575 C 0.03697 0.03049 0.65010
 C1576 C 0.04604 0.02714 0.66188
 C1577 C 0.05661 0.02261 0.67549
 C1578 C 0.06563 0.01820 0.68689
 C1579 C 0.07642 0.01224 0.70015
 C1580 C 0.08586 0.02362 0.71097
 C1581 C 0.09684 0.01761 0.72334
 C1582 C 0.09856 0.00014 0.72496
 C1583 C 0.08878 -0.01116 0.71423
 C1584 C 0.07782 -0.00515 0.70193
 H1585 H 0.00744 0.01443 0.64122
 H1586 H 0.04213 0.05398 0.62710
 H1587 H 0.02413 0.05873 0.60228
 H1588 H -0.01075 0.01911 0.61667
 H1589 H 0.08492 0.03711 0.70969
 H1590 H 0.10434 0.02662 0.73127
 H1591 H 0.08963 -0.02468 0.71532
 H1592 H 0.07056 -0.01408 0.69368
 C1593 C 0.52985 0.54591 0.12555
 C1594 C 0.52519 0.53343 0.13659
 C1595 C 0.51020 0.52378 0.13340
 C1596 C 0.50001 0.52642 0.11917
 C1597 C 0.50466 0.53878 0.10785
 C1598 C 0.51966 0.54859 0.11129
 C1599 C 0.53599 0.53005 0.15087
 C1600 C 0.54498 0.52669 0.16270
 C1601 C 0.55548 0.52216 0.17635
 C1602 C 0.56446 0.51777 0.18778
 C1603 C 0.57523 0.51189 0.20107
 C1604 C 0.57623 0.49453 0.20329
 C1605 C 0.58727 0.48858 0.21556
 C1606 C 0.59753 0.49993 0.22579
 C1607 C 0.59617 0.51738 0.22376
 C1608 C 0.58511 0.52331 0.21143
 H1609 H 0.54146 0.55342 0.12785
 H1610 H 0.50645 0.51409 0.14185
 H1611 H 0.48850 0.51874 0.11712
 H1612 H 0.52371 0.55814 0.10286
 H1613 H 0.56863 0.48556 0.19539
 H1614 H 0.58785 0.47508 0.21698
 H1615 H 0.60405 0.52642 0.23128
 H1616 H 0.58449 0.53678 0.20979
 C1617 C 0.48872 -0.01415 0.13478
 C1618 C 0.47623 -0.02646 0.13787
 C1619 C 0.47454 -0.04114 0.12759
 C1620 C 0.48516 -0.04347 0.11416
 C1621 C 0.49765 -0.03110 0.11079
 C1622 C 0.49939 -0.01645 0.12134
 C1623 C 0.46478 -0.02389 0.15125
 C1624 C 0.45487 -0.02180 0.16218
 C1625 C 0.44295 -0.01929 0.17468
 C1626 C 0.43254 -0.01696 0.18510
 C1627 C 0.41989 -0.01379 0.19721
 C1628 C 0.40389 -0.00872 0.19185
 C1629 C 0.39183 -0.00468 0.20356
 C1630 C 0.39562 -0.00562 0.22082
 C1631 C 0.41158 -0.01114 0.22610
 C1632 C 0.42366 -0.01517 0.21434
 H1633 H 0.49008 -0.00269 0.14264
 H1634 H 0.46492 -0.05076 0.12987
 H1635 H 0.48354 -0.05500 0.10649
 H1636 H 0.50877 -0.00662 0.11910
 H1637 H 0.40083 -0.00765 0.17863
 H1638 H 0.37957 -0.00068 0.19911
 H1639 H 0.41496 -0.01175 0.23929
 H1640 H 0.43603 -0.01903 0.21862
 C1641 C 0.99296 0.48349 0.63639
 C1642 C 0.98049 0.47123 0.63964
 C1643 C 0.97858 0.45657 0.62932
 C1644 C 0.98893 0.45427 0.61567
 C1645 C 1.00135 0.46663 0.61210
 C1646 C 1.00336 0.48121 0.62273
 C1647 C 0.96912 0.47394 0.65308
 C1648 C 0.95921 0.47625 0.66397
 C1649 C 0.94716 0.47910 0.67628
 C1650 C 0.93651 0.48176 0.68638
 C1651 C 0.92337 0.48534 0.69787
 C1652 C 0.90779 0.49071 0.69166
 C1653 C 0.89518 0.49501 0.70266
 C1654 C 0.89797 0.49404 0.72007
 C1655 C 0.91352 0.48825 0.72622
 C1656 C 0.92617 0.48396 0.71515
 H1657 H 0.99449 0.49493 0.64426
 H1658 H 0.96895 0.44700 0.63171
 H1659 H 0.98711 0.44279 0.60794
 H1660 H 1.01270 0.49103 0.62036
 H1661 H 0.90547 0.49178 0.67831
 H1662 H 0.88324 0.49919 0.69755
 H1663 H 0.91611 0.48757 0.73956
 H1664 H 0.93821 0.47985 0.72008
 C1665 C 0.98629 0.50738 0.87449
 C1666 C 0.97271 0.51775 0.87127
 C1667 C 0.96989 0.53151 0.88219
 C1668 C 0.98069 0.53500 0.89620
 C1669 C 0.99453 0.52478 0.89951
 C1670 C 0.99711 0.51083 0.88851
 C1671 C 0.96187 0.51458 0.85658
 C1672 C 0.95274 0.51233 0.84425
 C1673 C 0.94198 0.51023 0.82982
 C1674 C 0.93269 0.50895 0.81754
 C1675 C 0.92144 0.50812 0.80297
 C1676 C 0.91817 0.52287 0.79461
 C1677 C 0.90666 0.52243 0.78095
 C1678 C 0.89812 0.50721 0.77548
 C1679 C 0.90186 0.49234 0.78369
 C1680 C 0.91340 0.49281 0.79740
 H1681 H 0.98859 0.49669 0.86610
 H1682 H 0.95942 0.53964 0.87980
 H1683 H 0.97818 0.54580 0.90430
 H1684 H 1.00754 0.50261 0.89055
 H1685 H 0.92440 0.53478 0.79875
 H1686 H 0.90451 0.53405 0.77466
 H1687 H 0.89561 0.48044 0.77986
 H1688 H 0.91587 0.48130 0.80378
 C1689 C 0.48645 0.00563 0.37627
 C1690 C 0.47299 0.01607 0.37280
 C1691 C 0.47042 0.03020 0.38332
 C1692 C 0.48132 0.03397 0.39720
 C1693 C 0.49502 0.02365 0.40078
 C1694 C 0.49738 0.00936 0.39016
 C1695 C 0.46204 0.01266 0.35822
 C1696 C 0.45283 0.01034 0.34596
 C1697 C 0.44198 0.00832 0.33158
 C1698 C 0.43265 0.00726 0.31931
 C1699 C 0.42143 0.00689 0.30473
 C1700 C 0.41261 -0.00804 0.29921
 C1701 C 0.40116 -0.00799 0.28545
 C1702 C 0.39837 0.00703 0.27714
 C1703 C 0.40754 0.02187 0.28262
 C1704 C 0.41895 0.02179 0.29632
 H1705 H 0.48858 -0.00533 0.36817
 H1706 H 0.46006 0.03841 0.38072
 H1707 H 0.47901 0.04506 0.40498
 H1708 H 0.50770 0.00106 0.39242
 H1709 H 0.41440 -0.01963 0.30568
 H1710 H 0.39416 -0.01956 0.28165
 H1711 H 0.40588 0.03357 0.27631
 H1712 H 0.42573 0.03341 0.30047
   
