data_POSCAR
  _audit_creation_date              2014-09-24
  _audit_creation_method            'ToBaCCo'
  _symmetry_space_group_name_H-M    'P1'
  _symmetry_Int_Tables_number       1
  _symmetry_cell_setting            triclinic
  loop_
  _symmetry_equiv_pos_as_xyz
 x,y,z
_cell_length_a 55.4244
_cell_length_b 58.6901
_cell_length_c 57.5985
_cell_angle_alpha 88.786300
_cell_angle_beta 90.832800
_cell_angle_gamma 90.766600
loop_
  _atom_site_label
  _atom_site_type_symbol
  _atom_site_fract_x
  _atom_site_fract_y
  _atom_site_fract_z
C1 C 0.37395 0.32062 0.33409
 C2 C 0.35815 0.31723 0.35266
 C3 C 0.33960 0.33228 0.35596
 C4 C 0.33662 0.35101 0.34065
 C5 C 0.35233 0.35438 0.32237
 C6 C 0.37110 0.33901 0.31900
 C7 C 0.39306 0.30829 0.32646
 N8 N 0.40203 0.31873 0.30702
 C9 C 0.38862 0.33753 0.30232
 C10 C 0.34493 0.37350 0.31020
 N11 N 0.32516 0.38190 0.32066
 C12 C 0.31986 0.36814 0.33918
 C13 C 0.32699 0.32450 0.37507
 N14 N 0.33755 0.30510 0.38340
 C15 C 0.35656 0.30058 0.36974
 H16 H 0.39936 0.29256 0.33437
 H17 H 0.39128 0.34913 0.28769
 H18 H 0.35305 0.38031 0.29452
 H19 H 0.30480 0.37037 0.35064
 H20 H 0.31123 0.33238 0.38208
 H21 H 0.36831 0.28609 0.37203
 C22 C 0.36461 0.82923 -0.15907
 C23 C 0.34826 0.82512 -0.14111
 C24 C 0.32968 0.84005 -0.13786
 C25 C 0.32709 0.85920 -0.15250
 C26 C 0.34307 0.86323 -0.17039
 C27 C 0.36205 0.84804 -0.17376
 C28 C 0.38396 0.81720 -0.16646
 N29 N 0.39342 0.82813 -0.18543
 C30 C 0.37999 0.84697 -0.19005
 C31 C 0.33557 0.88271 -0.18203
 N32 N 0.31544 0.89047 -0.17150
 C33 C 0.31026 0.87612 -0.15346
 C34 C 0.31598 0.83145 -0.12000
 N35 N 0.32583 0.81155 -0.11223
 C36 C 0.34558 0.80754 -0.12510
 H37 H 0.39000 0.80132 -0.15868
 H38 H 0.38297 0.85896 -0.20431
 H39 H 0.34419 0.89033 -0.19708
 H40 H 0.29509 0.87774 -0.14197
 H41 H 0.29956 0.83887 -0.11387
 H42 H 0.35683 0.79264 -0.12326
 C43 C 0.87085 0.34140 -0.16192
 C44 C 0.85527 0.33766 -0.14341
 C45 C 0.83637 0.35221 -0.13996
 C46 C 0.83296 0.37097 -0.15507
 C47 C 0.84848 0.37481 -0.17344
 C48 C 0.86759 0.35970 -0.17704
 C49 C 0.88959 0.32885 -0.16971
 N50 N 0.89807 0.33887 -0.18954
 C51 C 0.88471 0.35782 -0.19412
 C52 C 0.84032 0.39387 -0.18540
 N53 N 0.82023 0.40160 -0.17471
 C54 C 0.81566 0.38754 -0.15625
 C55 C 0.82349 0.34347 -0.12145
 N56 N 0.83432 0.32398 -0.11378
 C57 C 0.85374 0.32040 -0.12711
 H58 H 0.89574 0.31314 -0.16167
 H59 H 0.88690 0.36910 -0.20909
 H60 H 0.84837 0.40105 -0.20094
 H61 H 0.80067 0.38916 -0.14456
 H62 H 0.80718 0.35052 -0.11464
 H63 H 0.86554 0.30587 -0.12543
 C64 C 0.86726 0.81712 0.33154
 C65 C 0.84857 0.81846 0.34740
 C66 C 0.83290 0.83665 0.34656
 C67 C 0.83606 0.85399 0.32937
 C68 C 0.85470 0.85245 0.31366
 C69 C 0.87037 0.83391 0.31474
 C70 C 0.88452 0.80100 0.32838
 N71 N 0.89814 0.80748 0.30997
 C72 C 0.88962 0.82772 0.30144
 C73 C 0.85334 0.87087 0.29864
 N74 N 0.83443 0.88385 0.30458
 C75 C 0.82370 0.87368 0.32344
 C76 C 0.81627 0.83254 0.36405
 N77 N 0.82182 0.81240 0.37509
 C78 C 0.84148 0.80386 0.36490
 H79 H 0.88689 0.78549 0.33866
 H80 H 0.89660 0.83728 0.28670
 H81 H 0.86519 0.87447 0.28419
 H82 H 0.80789 0.87969 0.33210
 H83 H 0.80120 0.84321 0.36809
 H84 H 0.84992 0.78788 0.36977
 C85 C 0.63116 0.67141 0.32956
 C86 C 0.64846 0.67374 0.34772
 C87 C 0.66628 0.65750 0.35043
 C88 C 0.66736 0.63910 0.33552
 C89 C 0.65063 0.63686 0.31783
 C90 C 0.63248 0.65303 0.31486
 C91 C 0.61176 0.68429 0.32168
 N92 N 0.60168 0.67398 0.30278
 C93 C 0.61435 0.65500 0.29860
 C94 C 0.65663 0.61792 0.30555
 N95 N 0.67676 0.60869 0.31550
 C96 C 0.68336 0.62154 0.33387
 C97 C 0.68103 0.66377 0.36844
 N98 N 0.67299 0.68345 0.37713
 C99 C 0.65299 0.68986 0.36465
 H100 H 0.60577 0.70003 0.32900
 H101 H 0.61067 0.64345 0.28452
 H102 H 0.64721 0.61173 0.29032
 H103 H 0.69901 0.61857 0.34494
 H104 H 0.69686 0.65474 0.37467
 H105 H 0.64278 0.70514 0.36735
 C106 C 0.64724 0.17887 -0.16714
 C107 C 0.66660 0.17521 -0.15174
 C108 C 0.68048 0.15603 -0.15355
 C109 C 0.67520 0.14022 -0.17074
 C110 C 0.65625 0.14375 -0.18621
 C111 C 0.64195 0.16326 -0.18423
 C112 C 0.63097 0.19625 -0.16938
 N113 N 0.61559 0.19161 -0.18721
 C114 C 0.62224 0.17143 -0.19650
 C115 C 0.65642 0.12597 -0.20157
 N116 N 0.67480 0.11176 -0.19552
 C117 C 0.68632 0.12052 -0.17659
 C118 C 0.69843 0.15721 -0.13691
 N119 N 0.69563 0.17659 -0.12494
 C120 C 0.67619 0.18778 -0.13394
 H121 H 0.63026 0.21116 -0.15865
 H122 H 0.61383 0.16324 -0.21124
 H123 H 0.64422 0.12367 -0.21622
 H124 H 0.70227 0.11383 -0.16800
 H125 H 0.71265 0.14498 -0.13382
 H126 H 0.66976 0.20411 -0.12848
 C127 C 0.12913 0.66920 -0.16810
 C128 C 0.14787 0.67076 -0.15125
 C129 C 0.16514 0.65387 -0.14986
 C130 C 0.16417 0.63546 -0.16477
 C131 C 0.14592 0.63387 -0.18109
 C132 C 0.12836 0.65076 -0.18277
 C133 C 0.11020 0.68320 -0.17491
 N134 N 0.09832 0.67350 -0.19325
 C135 C 0.10941 0.65372 -0.19797
 C136 C 0.15030 0.61501 -0.19407
 N137 N 0.17100 0.60516 -0.18595
 C138 C 0.17948 0.61759 -0.16793
 C139 C 0.18173 0.65972 -0.13320
 N140 N 0.17524 0.67968 -0.12401
 C141 C 0.15452 0.68676 -0.13487
 H142 H 0.10589 0.69932 -0.16731
 H143 H 0.10428 0.64241 -0.21188
 H144 H 0.13946 0.60959 -0.20875
 H145 H 0.19602 0.61426 -0.15827
 H146 H 0.19766 0.65020 -0.12821
 H147 H 0.14532 0.70248 -0.13155
 C148 C 0.13410 0.17230 0.33927
 C149 C 0.15062 0.17615 0.35766
 C150 C 0.16982 0.16151 0.36130
 C151 C 0.17282 0.14290 0.34670
 C152 C 0.15649 0.13921 0.32886
 C153 C 0.13718 0.15390 0.32510
 C154 C 0.11415 0.18382 0.33070
 N155 N 0.10536 0.17271 0.31168
 C156 C 0.11942 0.15441 0.30832
 C157 C 0.16376 0.12054 0.31709
 N158 N 0.18439 0.11256 0.32726
 C159 C 0.19007 0.12621 0.34541
 C160 C 0.18314 0.16953 0.37980
 N161 N 0.17258 0.18867 0.38766
 C162 C 0.15274 0.19284 0.37414
 H163 H 0.10707 0.19929 0.33768
 H164 H 0.11711 0.14245 0.29435
 H165 H 0.15466 0.11382 0.30194
 H166 H 0.20573 0.12429 0.35671
 H167 H 0.19952 0.16197 0.38661
 H168 H 0.14081 0.20712 0.37606
 C169 C 0.65125 0.33141 0.66557
 C170 C 0.67208 0.32857 0.65230
 C171 C 0.68902 0.34597 0.65109
 C172 C 0.68556 0.36627 0.66239
 C173 C 0.66546 0.36933 0.67579
 C174 C 0.64800 0.35157 0.67739
 C175 C 0.63184 0.31722 0.67046
 N176 N 0.61686 0.32813 0.68492
 C177 C 0.62662 0.34905 0.68923
 C178 C 0.66799 0.39096 0.68502
 N179 N 0.68891 0.40057 0.67694
 C180 C 0.69952 0.38555 0.66309
 C181 C 0.70770 0.33901 0.63794
 N182 N 0.70259 0.31780 0.63063
 C183 C 0.68078 0.31107 0.63918
 H184 H 0.62927 0.30005 0.66432
 H185 H 0.61883 0.36150 0.70044
 H186 H 0.65555 0.39909 0.69643
 H187 H 0.71651 0.38842 0.65435
 H188 H 0.72380 0.34879 0.63364
 H189 H 0.67211 0.29472 0.63627
 C190 C 0.62195 0.83030 1.17086
 C191 C 0.64103 0.82782 1.15559
 C192 C 0.66157 0.84148 1.15732
 C193 C 0.66294 0.85818 1.17478
 C194 C 0.64386 0.86020 1.18993
 C195 C 0.62339 0.84628 1.18794
 C196 C 0.60069 0.81840 1.17378
 N197 N 0.58918 0.82677 1.19248
 C198 C 0.60297 0.84396 1.20112
 C199 C 0.64981 0.87651 1.20565
 N200 N 0.67190 0.88507 1.20057
 C201 C 0.68030 0.87400 1.18173
 C202 C 0.67721 0.83405 1.14047
 N203 N 0.66638 0.81644 1.12895
 C204 C 0.64434 0.81270 1.13818
 H205 H 0.59482 0.80417 1.16340
 H206 H 0.59886 0.85358 1.21638
 H207 H 0.63883 0.88185 1.21990
 H208 H 0.69780 0.87689 1.17404
 H209 H 0.69511 0.84082 1.13719
 H210 H 0.63168 0.79955 1.13279
 C211 C 0.13680 0.32672 1.16755
 C212 C 0.15416 0.32399 1.15045
 C213 C 0.17422 0.33835 1.14925
 C214 C 0.17694 0.35604 1.16554
 C215 C 0.15954 0.35845 1.18239
 C216 C 0.13949 0.34375 1.18344
 C217 C 0.11612 0.31467 1.17301
 N218 N 0.10615 0.32398 1.19209
 C219 C 0.12041 0.34184 1.19849
 C220 C 0.16639 0.37625 1.19605
 N221 N 0.18750 0.38513 1.18825
 C222 C 0.19429 0.37292 1.16954
 C223 C 0.18793 0.33074 1.13097
 N224 N 0.17645 0.31235 1.12143
 C225 C 0.15589 0.30830 1.13331
 H226 H 0.10945 0.29993 1.16387
 H227 H 0.11735 0.35247 1.21328
 H228 H 0.15667 0.38235 1.21082
 H229 H 0.21054 0.37591 1.15969
 H230 H 0.20493 0.33801 1.12526
 H231 H 0.14310 0.29464 1.12981
 C232 C 0.13830 0.83047 0.66670
 C233 C 0.15707 0.82781 0.65071
 C234 C 0.17545 0.84392 0.64954
 C235 C 0.17556 0.86268 0.66399
 C236 C 0.15744 0.86530 0.67984
 C237 C 0.13860 0.84910 0.68116
 C238 C 0.11811 0.81751 0.67230
 N239 N 0.10628 0.82786 0.68972
 C240 C 0.11877 0.84710 0.69519
 C241 C 0.16297 0.88473 0.69204
 N242 N 0.18401 0.89382 0.68372
 C243 C 0.19165 0.88041 0.66652
 C244 C 0.19155 0.83717 0.63334
 N245 N 0.18361 0.81730 0.62433
 C246 C 0.16245 0.81131 0.63482
 H247 H 0.11284 0.80159 0.66446
 H248 H 0.11385 0.85875 0.70861
 H249 H 0.15243 0.89147 0.70591
 H250 H 0.20807 0.88313 0.65679
 H251 H 0.20806 0.84602 0.62849
 H252 H 0.15193 0.79604 0.63153
 C253 C 0.36136 0.67504 0.66335
 C254 C 0.34387 0.67308 0.64562
 C255 C 0.32717 0.65554 0.64648
 C256 C 0.32763 0.63977 0.66484
 C257 C 0.34467 0.64144 0.68252
 C258 C 0.36190 0.65941 0.68178
 C259 C 0.37936 0.69084 0.66711
 N260 N 0.39106 0.68544 0.68728
 C261 C 0.38054 0.66620 0.69648
 C262 C 0.33958 0.62381 0.69816
 N263 N 0.32001 0.61185 0.69015
 C264 C 0.31278 0.62166 0.66972
 C265 C 0.31181 0.65798 0.62771
 N266 N 0.31883 0.67677 0.61535
 C267 C 0.33847 0.68607 0.62610
 H268 H 0.38356 0.70546 0.65603
 H269 H 0.38573 0.65788 0.71269
 H270 H 0.34917 0.62013 0.71428
 H271 H 0.29763 0.61647 0.65899
 H272 H 0.29666 0.64692 0.62358
 H273 H 0.34783 0.70143 0.62031
 C274 C 0.36634 0.16648 1.17019
 C275 C 0.35010 0.16830 1.15139
 C276 C 0.33061 0.15319 1.14945
 C277 C 0.32734 0.13579 1.16665
 C278 C 0.34362 0.13454 1.18504
 C279 C 0.36285 0.14969 1.18681
 C280 C 0.38652 0.17879 1.17702
 N281 N 0.39494 0.16948 1.19739
 C282 C 0.38045 0.15178 1.20346
 C283 C 0.33692 0.11722 1.19961
 N284 N 0.31683 0.10717 1.19096
 C285 C 0.31053 0.11829 1.17066
 C286 C 0.31779 0.15997 1.12970
 N287 N 0.32909 0.17860 1.11997
 C288 C 0.34880 0.18361 1.13314
 H289 H 0.39410 0.19356 1.16808
 H290 H 0.38258 0.14124 1.21900
 H291 H 0.34611 0.11225 1.21564
 H292 H 0.29497 0.11427 1.15987
 H293 H 0.30136 0.15206 1.12325
 H294 H 0.36112 0.19776 1.12989
 C295 C 0.88362 0.66225 1.16177
 C296 C 0.86449 0.66718 1.14652
 C297 C 0.84298 0.65494 1.14789
 C298 C 0.84054 0.63735 1.16484
 C299 C 0.85962 0.63280 1.17998
 C300 C 0.88119 0.64523 1.17841
 C301 C 0.90527 0.67313 1.16586
 N302 N 0.91601 0.66306 1.18474
 C303 C 0.90140 0.64593 1.19245
 C304 C 0.85215 0.61650 1.19570
 N305 N 0.82910 0.61054 1.19049
 C306 C 0.82165 0.62319 1.17167
 C307 C 0.82725 0.66498 1.13198
 N308 N 0.83890 0.68287 1.12127
 C309 C 0.86158 0.68422 1.13015
 H310 H 0.91172 0.68821 1.15667
 H311 H 0.90457 0.63571 1.20806
 H312 H 0.86264 0.60958 1.21014
 H313 H 0.80371 0.62269 1.16400
 H314 H 0.80858 0.66006 1.12913
 H315 H 0.87484 0.69718 1.12544
 C316 C 0.86065 0.17129 0.66218
 C317 C 0.84339 0.16688 0.64489
 C318 C 0.83174 0.14606 0.64424
 C319 C 0.83716 0.12935 0.66101
 C320 C 0.85391 0.13357 0.67861
 C321 C 0.86617 0.15487 0.67898
 C322 C 0.87479 0.19013 0.66619
 N323 N 0.88933 0.18580 0.68481
 C324 C 0.88413 0.16425 0.69297
 C325 C 0.85384 0.11434 0.69304
 N326 N 0.83773 0.09896 0.68415
 C327 C 0.82777 0.10796 0.66455
 C328 C 0.81537 0.14682 0.62604
 N329 N 0.81712 0.16761 0.61551
 C330 C 0.83417 0.18005 0.62705
 H331 H 0.87485 0.20582 0.65593
 H332 H 0.89278 0.15581 0.70768
 H333 H 0.86439 0.11184 0.70883
 H334 H 0.81391 0.09978 0.65408
 H335 H 0.80298 0.13336 0.62092
 H336 H 0.83899 0.19766 0.62335
 C337 C 0.31972 0.37164 0.65377
 C338 C 0.31888 0.35399 0.63771
 C339 C 0.33693 0.33784 0.63771
 C340 C 0.35611 0.33920 0.65405
 C341 C 0.35674 0.35673 0.66973
 C342 C 0.33857 0.37290 0.66960
 C343 C 0.30421 0.38901 0.65864
 N344 N 0.31341 0.40059 0.67708
 C345 C 0.33436 0.39078 0.68386
 C346 C 0.37631 0.35371 0.68417
 N347 N 0.38785 0.33470 0.67794
 C348 C 0.37570 0.32560 0.65946
 C349 C 0.33081 0.32253 0.62058
 N350 N 0.30960 0.32913 0.61034
 C351 C 0.30223 0.34823 0.62085
 H352 H 0.28718 0.39233 0.64989
 H353 H 0.34546 0.39600 0.69849
 H354 H 0.38149 0.36430 0.69864
 H355 H 0.38026 0.31005 0.65087
 H356 H 0.34087 0.30755 0.61631
 H357 H 0.28577 0.35724 0.61658
 C358 C 0.30092 0.86109 0.15315
 C359 C 0.30132 0.84490 0.13583
 C360 C 0.31789 0.82750 0.13675
 C361 C 0.33458 0.82629 0.15540
 C362 C 0.33416 0.84251 0.17261
 C363 C 0.31715 0.86009 0.17150
 C364 C 0.28604 0.87913 0.15647
 N365 N 0.29270 0.88935 0.17644
 C366 C 0.31183 0.87789 0.18587
 C367 C 0.35207 0.83715 0.18844
 N368 N 0.36344 0.81820 0.18144
 C369 C 0.35286 0.81135 0.16122
 C370 C 0.31334 0.81426 0.11750
 N371 N 0.29449 0.82352 0.10528
 C372 C 0.28718 0.84219 0.11644
 H373 H 0.27112 0.88430 0.14530
 H374 H 0.32085 0.88177 0.20212
 H375 H 0.35656 0.84638 0.20403
 H376 H 0.35797 0.79672 0.15141
 H377 H 0.32297 0.79913 0.11291
 H378 H 0.27236 0.85295 0.11088
 C379 C 0.81648 0.36423 0.14801
 C380 C 0.81774 0.34712 0.13171
 C381 C 0.83497 0.33043 0.13387
 C382 C 0.85131 0.33077 0.15270
 C383 C 0.85010 0.34781 0.16899
 C384 C 0.83243 0.36478 0.16664
 C385 C 0.80054 0.38159 0.15026
 N386 N 0.80621 0.39296 0.16979
 C387 C 0.82576 0.38287 0.18009
 C388 C 0.86755 0.34323 0.18564
 N389 N 0.87924 0.32397 0.17990
 C390 C 0.86937 0.31622 0.15975
 C391 C 0.83074 0.31538 0.11610
 N392 N 0.81130 0.32281 0.10352
 C393 C 0.80333 0.34214 0.11300
 H394 H 0.78545 0.38543 0.13872
 H395 H 0.83411 0.38780 0.19635
 H396 H 0.87131 0.35304 0.20101
 H397 H 0.87458 0.30105 0.15088
 H398 H 0.84045 0.29986 0.11319
 H399 H 0.78766 0.35154 0.10702
 C400 C 0.81332 0.87149 0.64495
 C401 C 0.81105 0.85400 0.62900
 C402 C 0.82671 0.83572 0.62972
 C403 C 0.84512 0.83490 0.64705
 C404 C 0.84714 0.85247 0.66276
 C405 C 0.83120 0.87077 0.66172
 C406 C 0.79978 0.89050 0.64864
 N407 N 0.80896 0.90132 0.66742
 C408 C 0.82832 0.88938 0.67553
 C409 C 0.86552 0.84740 0.67801
 N410 N 0.87508 0.82719 0.67236
 C411 C 0.86278 0.81924 0.65340
 C412 C 0.81901 0.82124 0.61223
 N413 N 0.79924 0.83054 0.60145
 C414 C 0.79437 0.85040 0.61172
 H415 H 0.78394 0.89575 0.63880
 H416 H 0.83931 0.89350 0.69057
 H417 H 0.87137 0.85760 0.69255
 H418 H 0.86610 0.80326 0.64506
 H419 H 0.82675 0.80500 0.60818
 H420 H 0.77942 0.86138 0.60710
 C421 C 0.67736 0.65030 0.65728
 C422 C 0.67830 0.66404 0.63689
 C423 C 0.66183 0.68144 0.63351
 C424 C 0.64433 0.68543 0.65026
 C425 C 0.64362 0.67198 0.67014
 C426 C 0.66013 0.65449 0.67373
 C427 C 0.69092 0.63231 0.66594
 N428 N 0.68212 0.62580 0.68711
 C429 C 0.66345 0.63941 0.69196
 C430 C 0.62544 0.67970 0.68361
 N431 N 0.61477 0.69760 0.67239
 C432 C 0.62635 0.70135 0.65200
 C433 C 0.66726 0.69243 0.61292
 N434 N 0.68664 0.68226 0.60349
 C435 C 0.69353 0.66492 0.61808
 H436 H 0.70624 0.62490 0.65762
 H437 H 0.65301 0.63837 0.70770
 H438 H 0.62092 0.67293 0.70062
 H439 H 0.62208 0.71475 0.63946
 H440 H 0.65808 0.70724 0.60591
 H441 H 0.70880 0.65401 0.61540
 C442 C 0.68904 0.13927 0.14487
 C443 C 0.68455 0.15450 0.12632
 C444 C 0.66720 0.17086 0.12834
 C445 C 0.65433 0.17256 0.14878
 C446 C 0.65838 0.15759 0.16727
 C447 C 0.67601 0.14054 0.16524
 C448 C 0.70547 0.12213 0.14776
 N449 N 0.70278 0.11254 0.16915
 C450 C 0.68488 0.12369 0.18011
 C451 C 0.64347 0.16445 0.18493
 N452 N 0.63105 0.18315 0.17722
 C453 C 0.63772 0.18809 0.15523
 C454 C 0.66709 0.18388 0.10836
 N455 N 0.68413 0.17597 0.09417
 C456 C 0.69500 0.15789 0.10493
 H457 H 0.71855 0.11698 0.13517
 H458 H 0.67910 0.12023 0.19772
 H459 H 0.64234 0.15688 0.20218
 H460 H 0.63112 0.20229 0.14474
 H461 H 0.65598 0.19861 0.10469
 H462 H 0.70963 0.14819 0.09804
 C463 C 0.18161 0.62790 0.15339
 C464 C 0.18231 0.64172 0.13319
 C465 C 0.16850 0.66110 0.13175
 C466 C 0.15417 0.66716 0.15031
 C467 C 0.15345 0.65369 0.17024
 C468 C 0.16725 0.63380 0.17177
 C469 C 0.19365 0.60846 0.16003
 N470 N 0.18696 0.60236 0.18199
 C471 C 0.17082 0.61778 0.18924
 C472 C 0.13860 0.66435 0.18554
 N473 N 0.13045 0.68391 0.17516
 C474 C 0.13994 0.68568 0.15367
 C475 C 0.17341 0.67197 0.11107
 N476 N 0.18998 0.65973 0.09967
 C477 C 0.19567 0.64122 0.11314
 H478 H 0.20652 0.59976 0.14957
 H479 H 0.16261 0.61758 0.20619
 H480 H 0.13437 0.65835 0.20291
 H481 H 0.13678 0.69960 0.14139
 H482 H 0.16629 0.68829 0.10548
 H483 H 0.20905 0.62873 0.10895
 C484 C 0.17750 0.14034 0.65435
 C485 C 0.17577 0.15872 0.63846
 C486 C 0.15866 0.17535 0.64150
 C487 C 0.14306 0.17381 0.66051
 C488 C 0.14489 0.15567 0.67610
 C489 C 0.16213 0.13890 0.67300
 C490 C 0.19289 0.12215 0.65641
 N491 N 0.18720 0.10985 0.67586
 C492 C 0.16831 0.12001 0.68608
 C493 C 0.12847 0.15884 0.69329
 N494 N 0.11655 0.17843 0.68861
 C495 C 0.12534 0.18780 0.66856
 C496 C 0.16171 0.19140 0.62398
 N497 N 0.18019 0.18499 0.61045
 C498 C 0.18890 0.16496 0.61920
 H499 H 0.20749 0.11836 0.64487
 H500 H 0.15977 0.11445 0.70201
 H501 H 0.12563 0.14786 0.70838
 H502 H 0.11983 0.20381 0.66064
 H503 H 0.15145 0.20686 0.62144
 H504 H 0.20382 0.15562 0.61239
 C505 C 0.31075 0.63551 0.35578
 C506 C 0.31161 0.65180 0.37361
 C507 C 0.32863 0.66927 0.37256
 C508 C 0.34447 0.67118 0.35406
 C509 C 0.34363 0.65550 0.33661
 C510 C 0.32677 0.63749 0.33752
 C511 C 0.29652 0.61641 0.35150
 N512 N 0.30370 0.60688 0.33138
 C513 C 0.32209 0.61989 0.32273
 C514 C 0.36070 0.66222 0.32060
 N515 N 0.37166 0.68166 0.32813
 C516 C 0.36178 0.68720 0.34855
 C517 C 0.32589 0.68269 0.39142
 N518 N 0.30740 0.67428 0.40415
 C519 C 0.29841 0.65531 0.39353
 H520 H 0.28203 0.60987 0.36226
 H521 H 0.33137 0.61714 0.30666
 H522 H 0.36424 0.65389 0.30444
 H523 H 0.36664 0.70208 0.35849
 H524 H 0.33640 0.69782 0.39545
 H525 H 0.28355 0.64484 0.39975
 C526 C 0.32108 0.14450 0.85167
 C527 C 0.32360 0.16371 0.86564
 C528 C 0.34085 0.18038 0.86050
 C529 C 0.35589 0.17796 0.84103
 C530 C 0.35314 0.15888 0.82748
 C531 C 0.33580 0.14220 0.83282
 C532 C 0.30554 0.12593 0.85198
 N533 N 0.31058 0.11257 0.83373
 C534 C 0.32918 0.12247 0.82196
 C535 C 0.36921 0.16063 0.80969
 N536 N 0.38200 0.18029 0.81169
 C537 C 0.37407 0.19116 0.83086
 C538 C 0.33875 0.19689 0.87713
 N539 N 0.32080 0.19065 0.89201
 C540 C 0.31148 0.17033 0.88501
 H541 H 0.29130 0.12258 0.86431
 H542 H 0.33723 0.11622 0.80639
 H543 H 0.37137 0.14845 0.79603
 H544 H 0.38072 0.20743 0.83689
 H545 H 0.34950 0.21237 0.87833
 H546 H 0.29704 0.16082 0.89331
 C547 C 0.80934 0.65086 0.85119
 C548 C 0.80612 0.66717 0.86822
 C549 C 0.82089 0.68634 0.86895
 C550 C 0.83906 0.68951 0.85219
 C551 C 0.84206 0.67333 0.83532
 C552 C 0.82711 0.65382 0.83480
 C553 C 0.79755 0.63069 0.84664
 N554 N 0.80757 0.62126 0.82784
 C555 C 0.82576 0.63527 0.82039
 C556 C 0.86060 0.68077 0.82134
 N557 N 0.86912 0.70113 0.82917
 C558 C 0.85599 0.70658 0.84801
 C559 C 0.81335 0.69898 0.88749
 N560 N 0.79440 0.68784 0.89775
 C561 C 0.78985 0.66851 0.88594
 H562 H 0.78257 0.62341 0.85627
 H563 H 0.83718 0.63230 0.80572
 H564 H 0.86703 0.67190 0.80643
 H565 H 0.85849 0.72195 0.85788
 H566 H 0.82087 0.71520 0.89276
 H567 H 0.77571 0.65622 0.89003
 C568 C 0.81387 0.14136 0.35360
 C569 C 0.81542 0.15757 0.37101
 C570 C 0.83192 0.17526 0.36936
 C571 C 0.84715 0.17702 0.35030
 C572 C 0.84598 0.16098 0.33298
 C573 C 0.82902 0.14282 0.33465
 C574 C 0.79856 0.12309 0.35056
 N575 N 0.80392 0.11305 0.33038
 C576 C 0.82253 0.12495 0.32040
 C577 C 0.86275 0.16783 0.31655
 N578 N 0.87368 0.18749 0.32375
 C579 C 0.86410 0.19315 0.34425
 C580 C 0.82890 0.18888 0.38818
 N581 N 0.81084 0.17976 0.40123
 C582 C 0.80254 0.16060 0.39086
 H583 H 0.78426 0.11761 0.36211
 H584 H 0.83031 0.12139 0.30377
 H585 H 0.86625 0.15944 0.30042
 H586 H 0.86904 0.20812 0.35401
 H587 H 0.83891 0.20438 0.39175
 H588 H 0.78786 0.14989 0.39714
 C589 C 0.68572 0.36055 0.35142
 C590 C 0.68482 0.34148 0.36664
 C591 C 0.66754 0.32466 0.36311
 C592 C 0.65094 0.32661 0.34488
 C593 C 0.65161 0.34523 0.32997
 C594 C 0.66913 0.36232 0.33325
 C595 C 0.70112 0.37914 0.34949
 N596 N 0.69421 0.39201 0.33072
 C597 C 0.67464 0.38173 0.32071
 C598 C 0.63373 0.34196 0.31347
 N599 N 0.62235 0.32182 0.31829
 C600 C 0.63288 0.31232 0.33752
 C601 C 0.67095 0.30779 0.37948
 N602 N 0.68972 0.31392 0.39328
 C603 C 0.69853 0.33447 0.38561
 H604 H 0.71656 0.38279 0.36059
 H605 H 0.66541 0.38729 0.30498
 H606 H 0.62950 0.35318 0.29886
 H607 H 0.62833 0.29602 0.34548
 H608 H 0.66054 0.29212 0.38130
 H609 H 0.71397 0.34341 0.39292
 C610 C 0.69831 0.85301 0.84253
 C611 C 0.69887 0.84136 0.86385
 C612 C 0.67995 0.82721 0.87021
 C613 C 0.66024 0.82421 0.85486
 C614 C 0.65953 0.83591 0.83366
 C615 C 0.67869 0.85082 0.82754
 C616 C 0.71461 0.86767 0.83245
 N617 N 0.70536 0.87508 0.81188
 C618 C 0.68338 0.86495 0.80848
 C619 C 0.63896 0.82859 0.82201
 N620 N 0.62735 0.81271 0.83558
 C621 C 0.64020 0.81013 0.85569
 C622 C 0.68581 0.81812 0.89185
 N623 N 0.70780 0.82661 0.89851
 C624 C 0.71593 0.84068 0.88136
 H625 H 0.73182 0.87303 0.83978
 H626 H 0.67185 0.86758 0.79335
 H627 H 0.63354 0.83385 0.80462
 H628 H 0.63568 0.79824 0.86963
 H629 H 0.67510 0.80587 0.90167
 H630 H 0.73310 0.84970 0.88161
 C631 C 0.18669 0.36493 0.84477
 C632 C 0.19025 0.34889 0.86283
 C633 C 0.17463 0.33043 0.86514
 C634 C 0.15538 0.32765 0.84925
 C635 C 0.15196 0.34348 0.83142
 C636 C 0.16769 0.36225 0.82919
 C637 C 0.19913 0.38434 0.83813
 N638 N 0.18819 0.39349 0.81894
 C639 C 0.16889 0.38005 0.81331
 C640 C 0.13246 0.33627 0.81834
 N641 N 0.12392 0.31637 0.82778
 C642 C 0.13783 0.31102 0.84668
 C643 C 0.18264 0.31758 0.88392
 N644 N 0.20272 0.32784 0.89303
 C645 C 0.20759 0.34689 0.88011
 H646 H 0.21513 0.39127 0.84654
 H647 H 0.15667 0.38277 0.79875
 H648 H 0.12545 0.34481 0.80291
 H649 H 0.13553 0.29591 0.85759
 H650 H 0.17473 0.30165 0.89005
 H651 H 0.22269 0.35841 0.88307
 C652 C 0.18858 0.85724 0.35762
 C653 C 0.18337 0.83657 0.36972
 C654 C 0.16559 0.82212 0.36111
 C655 C 0.15263 0.82793 0.34107
 C656 C 0.15743 0.84804 0.32929
 C657 C 0.17543 0.86272 0.33763
 C658 C 0.20509 0.87492 0.36081
 N659 N 0.20170 0.89075 0.34349
 C660 C 0.18372 0.88320 0.32927
 C661 C 0.14174 0.84922 0.31053
 N662 N 0.12738 0.83035 0.31117
 C663 C 0.13414 0.81713 0.32968
 C664 C 0.16392 0.80345 0.37554
 N665 N 0.17994 0.80600 0.39315
 C666 C 0.19211 0.82617 0.38990
 H667 H 0.21853 0.87615 0.37457
 H668 H 0.17754 0.89168 0.31344
 H669 H 0.14056 0.86285 0.29762
 H670 H 0.12641 0.80069 0.33446
 H671 H 0.15167 0.78905 0.37358
 H672 H 0.20627 0.83269 0.40116
 O673 O 0.23482 1.02724 0.27768
 O674 O 0.27258 0.98258 0.25426
 O675 O 0.26250 1.02478 0.24188
 O676 O 0.23907 0.98356 0.28577
 O677 O 0.20954 0.97560 0.26094
 O678 O 0.23372 1.01508 0.21696
 O679 O 0.24323 0.97322 0.22981
 O680 O 0.20579 1.01900 0.25243
 Cu681 Cu 0.25524 1.00540 0.26724
 Cu682 Cu 0.22020 0.99470 0.23766
 C683 C 0.21404 1.03092 0.26902
 C684 C 0.26438 0.97015 0.23820
 C685 C 0.25197 1.02718 0.22213
 C686 C 0.21972 0.97280 0.28060
 O687 O 0.21539 0.52345 0.75379
 O688 O 0.24949 0.48225 0.71997
 O689 O 0.25147 0.52621 0.72544
 O690 O 0.21894 0.47925 0.75365
 O691 O 0.19088 0.47949 0.72606
 O692 O 0.22355 0.52779 0.69773
 O693 O 0.22145 0.48389 0.69236
 O694 O 0.18735 0.52384 0.72614
 Cu695 Cu 0.23657 0.50266 0.74095
 Cu696 Cu 0.20303 0.50394 0.70788
 C697 C 0.19539 0.53062 0.74548
 C698 C 0.24108 0.47605 0.70035
 C699 C 0.24317 0.53512 0.70684
 C700 C 0.19968 0.47112 0.74486
 O701 O 0.75480 -0.02354 0.28283
 O702 O 0.72237 0.01896 0.24893
 O703 O 0.72794 -0.02519 0.24522
 O704 O 0.75945 0.02121 0.27764
 O705 O 0.78875 0.02005 0.25213
 O706 O 0.75628 -0.02242 0.21874
 O707 O 0.75170 0.02184 0.22347
 O708 O 0.78345 -0.02479 0.25667
 Cu709 Cu 0.73860 -0.00216 0.26604
 Cu710 Cu 0.77273 -0.00132 0.23547
 C711 C 0.77407 -0.03200 0.27569
 C712 C 0.73128 0.02819 0.23096
 C713 C 0.73707 -0.03155 0.22617
 C714 C 0.77977 0.02848 0.26998
 O715 O 0.73223 0.53512 0.74029
 O716 O 0.76726 0.49113 0.77400
 O717 O 0.76659 0.53592 0.77191
 O718 O 0.72553 0.49173 0.75187
 O719 O 0.74849 0.48607 0.72159
 O720 O 0.78953 0.53294 0.74120
 O721 O 0.79052 0.48822 0.74344
 O722 O 0.75512 0.52874 0.71010
 Cu723 Cu 0.74575 0.51391 0.76236
 Cu724 Cu 0.77310 0.50844 0.72635
 C725 C 0.73806 0.53922 0.71917
 C726 C 0.78525 0.48238 0.76397
 C727 C 0.78467 0.54247 0.76027
 C728 C 0.72978 0.48118 0.73355
 O729 O 0.27902 0.47263 0.26635
 O730 O 0.24508 0.51508 0.23070
 O731 O 0.24852 0.47051 0.23153
 O732 O 0.27345 0.51723 0.26721
 O733 O 0.30379 0.52091 0.24295
 O734 O 0.27946 0.47348 0.20792
 O735 O 0.27566 0.51757 0.20657
 O736 O 0.30976 0.47693 0.24260
 Cu737 Cu 0.25845 0.49351 0.25136
 Cu738 Cu 0.29523 0.49761 0.22272
 C739 C 0.30024 0.46751 0.26026
 C740 C 0.25475 0.52345 0.21246
 C741 C 0.25972 0.46390 0.21382
 C742 C 0.29281 0.52723 0.26091
 O743 O 0.77192 1.02625 0.73791
 O744 O 0.72650 0.98222 0.75308
 O745 O 0.73188 1.02566 0.76155
 O746 O 0.76677 0.98300 0.73044
 O747 O 0.78888 0.97650 0.76206
 O748 O 0.75172 1.01630 0.79380
 O749 O 0.74875 0.97277 0.78386
 O750 O 0.79173 1.01967 0.77087
 Cu751 Cu 0.74713 1.00519 0.74255
 Cu752 Cu 0.77219 0.99557 0.78099
 C753 C 0.78944 1.03054 0.75170
 C754 C 0.73051 0.96938 0.77065
 C755 C 0.73594 1.02814 0.78312
 C756 C 0.78386 0.97261 0.74095
 O757 O 0.73085 0.52580 0.26594
 O758 O 0.77423 0.48434 0.24580
 O759 O 0.76529 0.52732 0.23590
 O760 O 0.73520 0.48176 0.27062
 O761 O 0.70956 0.47670 0.24137
 O762 O 0.74029 0.52061 0.20653
 O763 O 0.74978 0.47669 0.21635
 O764 O 0.70666 0.51950 0.23588
 Cu765 Cu 0.75388 0.50549 0.25749
 Cu766 Cu 0.72492 0.49709 0.22196
 C767 C 0.71161 0.52996 0.25450
 C768 C 0.76927 0.47316 0.22778
 C769 C 0.75761 0.53190 0.21537
 C770 C 0.71688 0.47169 0.26175
 O771 O 0.26001 -0.02116 0.78449
 O772 O 0.21891 0.02388 0.76268
 O773 O 0.21726 -0.02055 0.76496
 O774 O 0.25893 0.02335 0.78678
 O775 O 0.27792 0.02446 0.75332
 O776 O 0.23636 -0.02005 0.73157
 O777 O 0.23804 0.02423 0.72931
 O778 O 0.27900 -0.01973 0.75102
 Cu779 Cu 0.23692 0.00127 0.77810
 Cu780 Cu 0.25970 0.00227 0.73799
 C781 C 0.27652 -0.02808 0.77129
 C782 C 0.22172 0.03178 0.74215
 C783 C 0.21969 -0.02785 0.74461
 C784 C 0.27527 0.03162 0.77379
 O785 O 0.24771 0.27212 0.98629
 O786 O 0.27655 0.23365 1.03082
 O787 O 0.27550 0.23662 0.98500
 O788 O 0.25657 0.27402 1.03149
 O789 O 0.22254 0.25451 1.03554
 O790 O 0.24128 0.21718 0.98762
 O791 O 0.24225 0.21424 1.03315
 O792 O 0.21376 0.25256 0.99102
 Cu793 Cu 0.26737 0.25602 1.00816
 Cu794 Cu 0.22678 0.23274 1.01219
 C795 C 0.22553 0.26848 0.98112
 C796 C 0.26394 0.21726 1.03949
 C797 C 0.26160 0.22082 0.97798
 C798 C 0.23659 0.27085 1.04152
 O799 O 0.23243 0.76432 0.49631
 O800 O 0.25464 0.72094 0.53561
 O801 O 0.25145 0.72349 0.49028
 O802 O 0.22506 0.75434 0.53967
 O803 O 0.19140 0.73437 0.53456
 O804 O 0.21777 0.70315 0.48776
 O805 O 0.22102 0.70059 0.53298
 O806 O 0.19903 0.74431 0.49008
 Cu807 Cu 0.24409 0.74251 0.51558
 Cu808 Cu 0.20405 0.71897 0.51070
 C809 C 0.21224 0.76200 0.48631
 C810 C 0.24214 0.70372 0.54158
 C811 C 0.23886 0.70765 0.48090
 C812 C 0.20340 0.74930 0.54541
 O813 O 0.20146 0.75650 -0.02926
 O814 O 0.24165 0.77404 0.01879
 O815 O 0.23816 0.78416 -0.02512
 O816 O 0.20455 0.74674 0.01479
 O817 O 0.22941 0.71851 0.00837
 O818 O 0.26314 0.75620 -0.03219
 O819 O 0.26639 0.74585 0.01195
 O820 O 0.22629 0.72841 -0.03616
 Cu821 Cu 0.21900 0.76818 -0.00444
 Cu822 Cu 0.24875 0.73435 -0.01282
 C823 C 0.20717 0.73940 -0.04100
 C824 C 0.26077 0.76304 0.02359
 C825 C 0.25632 0.77663 -0.03547
 C826 C 0.21124 0.72641 0.01857
 O827 O 0.23091 0.23743 0.47712
 O828 O 0.26413 0.26946 0.52303
 O829 O 0.25834 0.27399 0.47783
 O830 O 0.23408 0.23495 0.52260
 O831 O 0.26571 0.21281 0.51951
 O832 O 0.28949 0.25149 0.47347
 O833 O 0.29559 0.24738 0.51851
 O834 O 0.26236 0.21498 0.47445
 Cu835 Cu 0.24376 0.25621 0.50050
 Cu836 Cu 0.28141 0.22950 0.49610
 C837 C 0.24123 0.22056 0.46809
 C838 C 0.28557 0.26365 0.52859
 C839 C 0.27781 0.26933 0.46779
 C840 C 0.24578 0.21739 0.52890
 O841 O 0.74943 0.78531 1.00034
 O842 O 0.77918 0.74669 1.04394
 O843 O 0.78375 0.75510 0.99945
 O844 O 0.75639 0.78557 1.04609
 O845 O 0.72459 0.76255 1.04596
 O846 O 0.75179 0.73254 0.99592
 O847 O 0.74738 0.72380 1.04142
 O848 O 0.71737 0.76249 1.00132
 Cu849 Cu 0.76994 0.77036 1.02261
 Cu850 Cu 0.73267 0.74314 1.02102
 C851 C 0.72798 0.78011 0.99348
 C852 C 0.76793 0.72837 1.04989
 C853 C 0.77273 0.73917 0.98921
 C854 C 0.73620 0.77961 1.05426
 O855 O 0.76707 0.23364 0.48561
 O856 O 0.72758 0.25188 0.53080
 O857 O 0.73509 0.26595 0.48730
 O858 O 0.76714 0.22877 0.52983
 O859 O 0.79303 0.25713 0.53556
 O860 O 0.75940 0.29452 0.49665
 O861 O 0.75332 0.27960 0.53949
 O862 O 0.79182 0.26297 0.49079
 Cu863 Cu 0.74659 0.24280 0.50752
 Cu864 Cu 0.77673 0.27638 0.51631
 C865 C 0.78591 0.24482 0.48018
 C866 C 0.73384 0.26834 0.54336
 C867 C 0.74212 0.28662 0.48468
 C868 C 0.78612 0.23687 0.53956
 O869 O 0.78426 0.25899 -0.03586
 O870 O 0.76467 0.21236 0.00323
 O871 O 0.75401 0.22491 -0.03925
 O872 O 0.79445 0.24660 0.00684
 O873 O 0.76470 0.26809 0.01839
 O874 O 0.72481 0.24708 -0.02765
 O875 O 0.73486 0.23403 0.01437
 O876 O 0.75488 0.28083 -0.02410
 Cu877 Cu 0.77735 0.23355 -0.01758
 Cu878 Cu 0.74187 0.25970 -0.00344
 C879 C 0.77302 0.27773 -0.03673
 C880 C 0.74621 0.21536 0.01546
 C881 C 0.73261 0.23233 -0.04129
 C882 C 0.78620 0.26107 0.02062
 O883 O 0.75803 0.76868 0.46083
 O884 O 0.72658 0.73520 0.50714
 O885 O 0.72388 0.73872 0.46055
 O886 O 0.76754 0.75917 0.50388
 O887 O 0.74297 0.78715 0.51182
 O888 O 0.69969 0.76755 0.46639
 O889 O 0.70146 0.76372 0.51082
 O890 O 0.73380 0.79746 0.46680
 Cu891 Cu 0.74580 0.74747 0.48294
 Cu892 Cu 0.71779 0.78190 0.49003
 C893 C 0.75103 0.78888 0.45590
 C894 C 0.70846 0.74398 0.51681
 C895 C 0.70471 0.74952 0.45561
 C896 C 0.76259 0.77644 0.51561
 O897 O 0.96892 0.23785 0.20971
 O898 O 1.01582 0.21605 0.25101
 O899 O 0.96953 0.20662 0.24183
 O900 O 1.01529 0.23984 0.21127
 O901 O 1.01131 0.26869 0.23490
 O902 O 0.96319 0.23522 0.26522
 O903 O 1.00889 0.24491 0.27381
 O904 O 0.96401 0.26695 0.23273
 Cu905 Cu 0.99332 0.22230 0.22675
 Cu906 Cu 0.98629 0.25671 0.25390
 C907 C 0.95850 0.25640 0.21441
 C908 C 1.02028 0.22702 0.26952
 C909 C 0.95819 0.21510 0.25837
 C910 C 1.02134 0.25963 0.21759
 O911 O 0.51467 0.21372 0.73950
 O912 O 0.47189 0.24622 0.70524
 O913 O 0.51923 0.24489 0.70692
 O914 O 0.46957 0.22480 0.74603
 O915 O 0.47737 0.25444 0.76801
 O916 O 0.52447 0.27473 0.72919
 O917 O 0.47711 0.27612 0.72748
 O918 O 0.52287 0.24307 0.76179
 Cu919 Cu 0.49309 0.22975 0.72247
 Cu920 Cu 0.50099 0.26479 0.74872
 C921 C 0.52649 0.22250 0.75598
 C922 C 0.46686 0.26640 0.71020
 C923 C 0.53043 0.26345 0.71174
 C924 C 0.46529 0.23650 0.76399
 O925 O 0.03502 0.26285 0.77668
 O926 O -0.01124 0.22246 0.75681
 O927 O 0.03312 0.23205 0.74490
 O928 O -0.01095 0.25757 0.78392
 O929 O -0.02124 0.28200 0.75594
 O930 O 0.02194 0.25629 0.71707
 O931 O -0.02260 0.24664 0.72900
 O932 O 0.02487 0.28739 0.74878
 Cu933 Cu 0.01250 0.24132 0.76829
 Cu934 Cu -0.00032 0.27044 0.73492
 C935 C 0.03802 0.28190 0.76628
 C936 C -0.02490 0.22751 0.73973
 C937 C 0.03506 0.24005 0.72427
 C938 C -0.02348 0.27432 0.77653
 O939 O 0.49464 0.26275 0.26151
 O940 O 0.54374 0.22999 0.23462
 O941 O 0.49852 0.23852 0.22391
 O942 O 0.54149 0.26197 0.26514
 O943 O 0.53593 0.23308 0.28976
 O944 O 0.49079 0.21014 0.24855
 O945 O 0.53672 0.20160 0.25950
 O946 O 0.49016 0.23421 0.28680
 Cu947 Cu 0.52022 0.25103 0.24386
 Cu948 Cu 0.51239 0.21680 0.27296
 C949 C 0.48437 0.25381 0.27928
 C950 C 0.54858 0.21012 0.24281
 C951 C 0.48693 0.22060 0.22925
 C952 C 0.54620 0.25192 0.28428
 O953 O 0.96432 0.74208 0.70787
 O954 O 1.01076 0.72211 0.75025
 O955 O 0.96401 0.71681 0.74558
 O956 O 1.01124 0.74543 0.71138
 O957 O 1.00791 0.77642 0.73209
 O958 O 0.95896 0.74769 0.76611
 O959 O 1.00594 0.75293 0.77090
 O960 O 0.96047 0.77324 0.72818
 Cu961 Cu 0.98800 0.72854 0.72681
 Cu962 Cu 0.98280 0.76570 0.75129
 C963 C 0.95444 0.76118 0.71091
 C964 C 1.01637 0.73417 0.76769
 C965 C 0.95328 0.72716 0.76146
 C966 C 1.01798 0.76556 0.71601
 O967 O 0.45667 0.73435 0.20824
 O968 O 0.50666 0.71531 0.24746
 O969 O 0.46184 0.70230 0.24104
 O970 O 0.50410 0.73771 0.20834
 O971 O 0.49802 0.76682 0.23119
 O972 O 0.45414 0.73114 0.26369
 O973 O 0.49967 0.74431 0.27011
 O974 O 0.45144 0.76352 0.23108
 Cu975 Cu 0.48262 0.71991 0.22412
 Cu976 Cu 0.47486 0.75387 0.25135
 C977 C 0.44568 0.75257 0.21307
 C978 C 0.51174 0.72690 0.26547
 C979 C 0.45058 0.71052 0.25776
 C980 C 0.50857 0.75802 0.21406
 O981 O -0.00147 0.78227 0.23727
 O982 O 0.04980 0.74542 0.22445
 O983 O 0.00564 0.74872 0.20939
 O984 O 0.04306 0.77967 0.25154
 O985 O 0.03178 0.75557 0.27944
 O986 O -0.00472 0.72419 0.23723
 O987 O 0.03915 0.72146 0.25270
 O988 O -0.01237 0.75771 0.26486
 Cu989 Cu 0.02544 0.76650 0.22784
 Cu990 Cu 0.01228 0.73729 0.26136
 C991 C -0.01562 0.77620 0.25345
 C992 C 0.05312 0.72714 0.23628
 C993 C -0.00578 0.73102 0.21618
 C994 C 0.04370 0.77296 0.27263
 O995 O 0.53551 0.75516 0.78990
 O996 O 0.48682 0.71610 0.76968
 O997 O 0.53298 0.71965 0.76345
 O998 O 0.48914 0.75092 0.79675
 O999 O 0.48194 0.77373 0.76653
 O1000 O 0.52674 0.74242 0.73298
 O1001 O 0.48028 0.73881 0.73926
 O1002 O 0.52849 0.77782 0.75953
 Cu1003 Cu 0.51182 0.73325 0.78301
 Cu1004 Cu 0.50370 0.76054 0.74656
 C1005 C 0.54035 0.77312 0.77799
 C1006 C 0.47528 0.72081 0.75099
 C1007 C 0.53736 0.72557 0.74264
 C1008 C 0.47783 0.76739 0.78736
 C1009 C 0.42152 0.31113 0.29290
 C1010 C 0.43564 0.29386 0.29968
 C1011 C 0.45476 0.28474 0.28505
 C1012 C 0.46570 0.26561 0.29211
 H1013 H 0.43292 0.28571 0.31646
 H1014 H 0.45932 0.29302 0.26867
 H1015 H 0.42459 0.31953 0.27623
 H1016 H 0.46018 0.25746 0.30830
 C1017 C 0.41244 0.82151 0.80163
 C1018 C 0.42627 0.80378 0.80787
 C1019 C 0.44583 0.79565 0.79328
 C1020 C 0.45944 0.77845 0.80115
 H1021 H 0.42326 0.79468 0.82408
 H1022 H 0.44855 0.80305 0.77610
 H1023 H 0.41660 0.83098 0.78577
 H1024 H 0.45641 0.77141 0.81845
 C1025 C -0.08413 0.33110 0.79662
 C1026 C -0.07134 0.31235 0.80200
 C1027 C -0.05335 0.30331 0.78616
 C1028 C -0.04085 0.28463 0.79213
 H1029 H -0.07412 0.30304 0.81812
 H1030 H -0.05062 0.31172 0.76944
 H1031 H -0.08034 0.34028 0.78051
 H1032 H -0.04354 0.27651 0.80899
 C1033 C -0.08328 0.79488 0.30227
 C1034 C -0.06984 0.80079 0.28391
 C1035 C -0.05007 0.78592 0.27721
 C1036 C -0.03583 0.79098 0.25926
 H1037 H -0.07312 0.81629 0.27394
 H1038 H -0.04692 0.77052 0.28750
 H1039 H -0.07918 0.77908 0.31156
 H1040 H -0.03871 0.80643 0.24901
 C1041 C 0.58160 0.68087 0.28829
 C1042 C 0.56716 0.69814 0.29300
 C1043 C 0.54676 0.70357 0.27711
 C1044 C 0.53186 0.72062 0.28128
 H1045 H 0.57015 0.70810 0.30842
 H1046 H 0.54402 0.69356 0.26166
 H1047 H 0.57780 0.67110 0.27284
 H1048 H 0.53476 0.73071 0.29665
 C1049 C 0.59717 0.20555 0.80607
 C1050 C 0.58074 0.19981 0.78996
 C1051 C 0.56145 0.21547 0.78240
 C1052 C 0.54476 0.20810 0.76737
 H1053 H 0.58128 0.18330 0.78203
 H1054 H 0.56144 0.23291 0.78821
 H1055 H 0.59552 0.22186 0.81440
 H1056 H 0.54537 0.19057 0.76178
 C1057 C 1.07916 0.68123 0.79387
 C1058 C 1.06770 0.70077 0.79752
 C1059 C 1.04771 0.70759 0.78164
 C1060 C 1.03545 0.72679 0.78431
 H1061 H 1.07301 0.71173 0.81162
 H1062 H 1.04320 0.69675 0.76714
 H1063 H 1.07287 0.67091 0.77950
 H1064 H 1.03989 0.73770 0.79876
 C1065 C 1.08649 0.17822 0.29729
 C1066 C 1.07242 0.19623 0.30025
 C1067 C 1.05296 0.20167 0.28334
 C1068 C 1.03900 0.21967 0.28634
 H1069 H 1.07527 0.20726 0.31487
 H1070 H 1.05039 0.19123 0.26817
 H1071 H 1.08278 0.16750 0.28248
 H1072 H 1.04181 0.22998 0.30158
 C1073 C 0.59507 0.31939 0.69547
 C1074 C 0.58431 0.29957 0.68970
 C1075 C 0.56270 0.29134 0.70238
 C1076 C 0.55088 0.27181 0.69742
 H1077 H 0.59142 0.28932 0.67608
 H1078 H 0.55663 0.30145 0.71665
 H1079 H 0.58710 0.32942 0.70891
 H1080 H 0.55673 0.26160 0.68313
 C1081 C 0.56853 0.81884 0.20252
 C1082 C 0.55585 0.80119 0.19423
 C1083 C 0.53567 0.79094 0.20718
 C1084 C 0.52655 0.77092 0.20062
 H1085 H 0.56101 0.79314 0.17839
 H1086 H 0.52938 0.79891 0.22274
 H1087 H 0.56266 0.82658 0.21839
 H1088 H 0.53359 0.76288 0.18539
 C1089 C 1.08614 0.31679 0.20386
 C1090 C 1.07239 0.29910 0.19714
 C1091 C 1.05190 0.29036 0.21097
 C1092 C 1.04039 0.27142 0.20429
 H1093 H 1.07647 0.29023 0.18145
 H1094 H 1.04701 0.29864 0.22684
 H1095 H 1.08135 0.32551 0.21953
 H1096 H 1.04609 0.26319 0.18863
 C1097 C 1.08485 0.82023 0.70166
 C1098 C 1.07143 0.80232 0.69499
 C1099 C 1.05010 0.79457 0.70835
 C1100 C 1.03799 0.77565 0.70243
 H1101 H 1.07630 0.79299 0.67979
 H1102 H 1.04488 0.80384 0.72352
 H1103 H 1.07944 0.82947 0.71680
 H1104 H 1.04386 0.76628 0.68755
 C1105 C 0.41068 0.69909 0.69636
 C1106 C 0.42311 0.69394 0.71585
 C1107 C 0.44285 0.70933 0.72368
 C1108 C 0.45585 0.70515 0.74305
 H1109 H 0.41887 0.67870 0.72595
 H1110 H 0.44672 0.72456 0.71334
 H1111 H 0.41563 0.71447 0.68668
 H1112 H 0.45207 0.68995 0.75346
 C1113 C 0.41505 0.17644 0.21145
 C1114 C 0.43206 0.19075 0.20380
 C1115 C 0.45214 0.19686 0.21934
 C1116 C 0.46839 0.21252 0.21299
 H1117 H 0.43119 0.19798 0.18637
 H1118 H 0.45305 0.18913 0.23661
 H1119 H 0.41667 0.16915 0.22887
 H1120 H 0.46709 0.22069 0.19597
 C1121 C -0.06314 0.67100 0.19733
 C1122 C -0.04967 0.68859 0.18983
 C1123 C -0.03180 0.69903 0.20537
 C1124 C -0.02080 0.71859 0.19945
 H1125 H -0.05289 0.69641 0.17292
 H1126 H -0.02888 0.69147 0.22252
 H1127 H -0.05930 0.66337 0.21428
 H1128 H -0.02366 0.72613 0.18230
 C1129 C -0.09380 0.20118 0.69237
 C1130 C -0.07797 0.19703 0.70965
 C1131 C -0.05976 0.21458 0.71594
 C1132 C -0.04343 0.21062 0.73275
 H1133 H -0.07799 0.18080 0.71891
 H1134 H -0.05968 0.23086 0.70668
 H1135 H -0.09278 0.21766 0.68347
 H1136 H -0.04370 0.19434 0.74199
 C1137 C 0.31109 0.40117 0.31308
 C1138 C 0.31991 0.41710 0.29847
 C1139 C 0.30503 0.43583 0.28898
 C1140 C 0.31433 0.45018 0.27305
 H1141 H 0.33840 0.41608 0.29284
 H1142 H 0.28632 0.43713 0.29397
 H1143 H 0.29287 0.40271 0.31941
 H1144 H 0.33292 0.44817 0.26791
 C1145 C 0.30177 -0.09110 0.82269
 C1146 C 0.30629 -0.07729 0.80446
 C1147 C 0.29008 -0.05829 0.79855
 C1148 C 0.29308 -0.04615 0.77896
 H1149 H 0.32150 -0.08014 0.79339
 H1150 H 0.27517 -0.05473 0.80984
 H1151 H 0.28615 -0.08767 0.83316
 H1152 H 0.30773 -0.05020 0.76754
 C1153 C 0.80610 0.41970 0.81909
 C1154 C 0.81136 0.43404 0.80146
 C1155 C 0.79510 0.45266 0.79402
 C1156 C 0.80080 0.46521 0.77527
 H1157 H 0.82772 0.43193 0.79178
 H1158 H 0.77829 0.45530 0.80291
 H1159 H 0.78984 0.42257 0.82882
 H1160 H 0.81745 0.46165 0.76642
 C1161 C 0.82802 -0.09687 0.29242
 C1162 C 0.80970 -0.08362 0.29821
 C1163 C 0.80274 -0.06364 0.28358
 C1164 C 0.78444 -0.05070 0.28994
 H1165 H 0.79932 -0.08754 0.31358
 H1166 H 0.81185 -0.06006 0.26736
 H1167 H 0.83827 -0.09205 0.27711
 H1168 H 0.77549 -0.05480 0.30613
 C1169 C 0.30864 0.59262 0.70174
 C1170 C 0.28881 0.58240 0.69294
 C1171 C 0.27660 0.56315 0.70475
 C1172 C 0.25629 0.55418 0.69563
 H1173 H 0.28094 0.58828 0.67669
 H1174 H 0.28409 0.55645 0.72094
 H1175 H 0.31620 0.58649 0.71814
 H1176 H 0.24891 0.56115 0.67949
 C1177 C 0.30633 1.08936 0.20258
 C1178 C 0.28713 1.07744 0.19527
 C1179 C 0.27831 1.05895 0.21084
 C1180 C 0.26054 1.04455 0.20519
 H1181 H 0.27837 1.08103 0.17870
 H1182 H 0.28672 1.05721 0.22791
 H1183 H 0.31447 1.08430 0.21916
 H1184 H 0.25173 1.04595 0.18831
 C1185 C 0.81576 0.59413 0.20410
 C1186 C 0.79679 0.58253 0.19577
 C1187 C 0.78569 0.56425 0.21009
 C1188 C 0.76853 0.55057 0.20148
 H1189 H 0.79027 0.58574 0.17820
 H1190 H 0.79203 0.56167 0.22784
 H1191 H 0.82259 0.58984 0.22138
 H1192 H 0.76217 0.55318 0.18375
 C1193 C 0.83016 1.07722 0.69339
 C1194 C 0.82668 1.07334 0.71602
 C1195 C 0.81144 1.05374 0.72324
 C1196 C 0.80718 1.04847 0.74546
 H1197 H 0.83260 1.08573 0.72865
 H1198 H 0.80249 1.04387 0.70982
 H1199 H 0.82311 1.06490 0.68115
 H1200 H 0.81675 1.05736 0.75916
 C1201 C 0.69022 0.58948 0.30807
 C1202 C 0.68423 0.57753 0.28928
 C1203 C 0.69979 0.55899 0.28191
 C1204 C 0.69503 0.54738 0.26262
 H1205 H 0.66836 0.58164 0.27898
 H1206 H 0.71584 0.55521 0.29220
 H1207 H 0.70633 0.58492 0.31794
 H1208 H 0.67903 0.55115 0.25227
 C1209 C 0.68103 1.09288 0.79259
 C1210 C 0.69783 1.07833 0.80062
 C1211 C 0.70679 1.05946 0.78681
 C1212 C 0.72315 1.04534 0.79624
 H1213 H 0.70581 1.08041 0.81769
 H1214 H 0.70112 1.05788 0.76882
 H1215 H 0.67218 1.08956 0.77607
 H1216 H 0.72847 1.04723 0.81431
 C1217 C 0.18273 0.58698 0.80549
 C1218 C 0.17450 0.57531 0.78725
 C1219 C 0.18883 0.55719 0.77719
 C1220 C 0.18114 0.54726 0.75780
 H1221 H 0.15747 0.57948 0.77894
 H1222 H 0.20608 0.55269 0.78501
 H1223 H 0.19982 0.58209 0.81344
 H1224 H 0.16401 0.55220 0.75000
 C1225 C 0.19779 1.09456 0.32060
 C1226 C 0.19122 1.08120 0.30290
 C1227 C 0.20641 1.06242 0.29545
 C1228 C 0.19920 1.04929 0.27787
 H1229 H 0.17451 1.08394 0.29343
 H1230 H 0.22365 1.05957 0.30409
 H1231 H 0.21448 1.09093 0.32995
 H1232 H 0.18189 1.05229 0.26943
 C1233 C 0.69969 0.42242 0.68135
 C1234 C 0.69739 0.43310 0.70135
 C1235 C 0.71347 0.45266 0.70652
 C1236 C 0.71277 0.46288 0.72690
 H1237 H 0.68526 0.42637 0.71446
 H1238 H 0.72670 0.45821 0.69383
 H1239 H 0.71276 0.42902 0.66898
 H1240 H 0.69927 0.45753 0.73940
 C1241 C 0.68335 -0.09754 0.21427
 C1242 C 0.70029 -0.08333 0.20602
 C1243 C 0.70961 -0.06457 0.22045
 C1244 C 0.72606 -0.04985 0.21226
 H1245 H 0.70667 -0.08508 0.18847
 H1246 H 0.70319 -0.06293 0.23806
 H1247 H 0.67655 -0.09489 0.23153
 H1248 H 0.73282 -0.05199 0.19490
 C1249 C 0.19925 0.40407 0.19947
 C1250 C 0.21968 0.41426 0.19233
 C1251 C 0.22962 0.43366 0.20569
 C1252 C 0.24996 0.44481 0.19991
 H1253 H 0.22884 0.40852 0.17709
 H1254 H 0.21994 0.43889 0.22087
 H1255 H 0.19071 0.41056 0.21478
 H1256 H 0.25984 0.43970 0.18482
 C1257 C 0.19658 -0.08745 0.69083
 C1258 C 0.19049 -0.07511 0.70904
 C1259 C 0.20614 -0.05599 0.71622
 C1260 C 0.20306 -0.04578 0.73642
 H1261 H 0.17478 -0.07945 0.71923
 H1262 H 0.22103 -0.05080 0.70522
 H1263 H 0.21292 -0.08269 0.68161
 H1264 H 0.18850 -0.05131 0.74767
 C1265 C 0.33047 0.29086 0.40285
 C1266 C 0.31218 0.29586 0.41668
 C1267 C 0.30526 0.28035 0.43601
 C1268 C 0.28635 0.28489 0.44918
 H1269 H 0.30200 0.31127 0.41371
 H1270 H 0.31536 0.26486 0.43913
 H1271 H 0.34043 0.27535 0.40632
 H1272 H 0.27617 0.30028 0.44572
 C1273 C 0.31648 0.79618 -0.09471
 C1274 C 0.29868 0.80210 -0.08074
 C1275 C 0.28786 0.78582 -0.06405
 C1276 C 0.26911 0.79213 -0.05152
 H1277 H 0.29152 0.81914 -0.08179
 H1278 H 0.29470 0.76863 -0.06251
 H1279 H 0.32394 0.77923 -0.09305
 H1280 H 0.26239 0.80935 -0.05347
 C1281 C 0.82678 0.30831 -0.09582
 C1282 C 0.80733 0.31144 -0.08297
 C1283 C 0.80020 0.29381 -0.06590
 C1284 C 0.78079 0.29605 -0.05279
 H1285 H 0.79646 0.32651 -0.08525
 H1286 H 0.81083 0.27846 -0.06437
 H1287 H 0.83726 0.29299 -0.09297
 H1288 H 0.77017 0.31141 -0.05415
 C1289 C 0.80983 0.80046 0.39381
 C1290 C 0.79134 0.80874 0.40550
 C1291 C 0.78049 0.79488 0.42451
 C1292 C 0.76249 0.80265 0.43720
 H1293 H 0.78434 0.82546 0.40123
 H1294 H 0.78735 0.77793 0.42814
 H1295 H 0.81651 0.78374 0.39885
 H1296 H 0.75565 0.81960 0.43359
 C1297 C 0.71830 0.30601 0.61569
 C1298 C 0.70993 0.29265 0.59897
 C1299 C 0.72627 0.28583 0.58059
 C1300 C 0.71811 0.27415 0.56252
 H1301 H 0.69083 0.28860 0.59768
 H1302 H 0.74510 0.29108 0.58144
 H1303 H 0.73728 0.31082 0.61591
 H1304 H 0.69950 0.26821 0.56199
 C1305 C 0.67524 0.80285 1.11042
 C1306 C 0.69737 0.80511 1.10170
 C1307 C 0.70518 0.79030 1.08272
 C1308 C 0.72700 0.79307 1.07356
 H1309 H 0.70979 0.81780 1.10845
 H1310 H 0.69295 0.77733 1.07609
 H1311 H 0.66325 0.78991 1.10330
 H1312 H 0.73887 0.80632 1.08024
 C1313 C 0.18336 0.29834 1.10241
 C1314 C 0.20408 0.30071 1.09091
 C1315 C 0.20960 0.28487 1.07199
 C1316 C 0.23023 0.28650 1.06026
 H1317 H 0.21697 0.31395 1.09546
 H1318 H 0.19662 0.27157 1.06771
 H1319 H 0.17100 0.28476 1.09737
 H1320 H 0.24314 0.29984 1.06459
 C1321 C 0.19667 0.80555 0.60692
 C1322 C 0.18763 0.78768 0.59565
 C1323 C 0.20140 0.77708 0.57707
 C1324 C 0.19140 0.76041 0.56469
 H1325 H 0.16977 0.78115 0.59961
 H1326 H 0.21948 0.78319 0.57322
 H1327 H 0.21439 0.81208 0.60225
 H1328 H 0.17321 0.75470 0.56866
 C1329 C 0.30770 0.68610 0.59470
 C1330 C 0.28604 0.67914 0.58664
 C1331 C 0.27531 0.69118 0.56654
 C1332 C 0.25245 0.68797 0.55925
 H1333 H 0.27583 0.66573 0.59533
 H1334 H 0.28637 0.70426 0.55819
 H1335 H 0.31694 0.70013 0.58587
 H1336 H 0.24111 0.67488 0.56716
 C1337 C 0.32213 0.19223 1.09993
 C1338 C 0.30188 0.18858 1.08763
 C1339 C 0.29484 0.20422 1.06827
 C1340 C 0.27365 0.20138 1.05736
 H1341 H 0.28997 0.17451 1.09223
 H1342 H 0.30649 0.21853 1.06360
 H1343 H 0.33362 0.20661 1.09505
 H1344 H 0.26207 0.18719 1.06259
 C1345 C 0.82975 0.69907 1.10436
 C1346 C 0.80791 0.69723 1.09450
 C1347 C 0.79950 0.71442 1.07730
 C1348 C 0.77803 0.71192 1.06693
 H1349 H 0.79614 0.68298 1.09900
 H1350 H 0.81081 0.72913 1.07315
 H1351 H 0.84131 0.71331 1.09930
 H1352 H 0.76702 0.69706 1.07122
 C1353 C 0.80238 0.17535 0.59632
 C1354 C 0.80949 0.19292 0.58299
 C1355 C 0.79382 0.20343 0.56516
 C1356 C 0.80081 0.22332 0.55577
 H1357 H 0.82714 0.20053 0.58594
 H1358 H 0.77644 0.19586 0.56079
 H1359 H 0.78516 0.16699 0.59297
 H1360 H 0.81795 0.23084 0.56113
 C1361 C 0.68555 0.69450 0.39588
 C1362 C 0.67839 0.71348 0.40610
 C1363 C 0.69362 0.72259 0.42517
 C1364 C 0.68831 0.74121 0.43701
 H1365 H 0.66197 0.72196 0.40066
 H1366 H 0.71006 0.71358 0.42962
 H1367 H 0.70207 0.68661 0.40219
 H1368 H 0.67200 0.75051 0.43288
 C1369 C 0.71158 0.18383 -0.10664
 C1370 C 0.70587 0.20052 -0.09246
 C1371 C 0.72267 0.20786 -0.07413
 C1372 C 0.71636 0.22406 -0.05963
 H1373 H 0.68860 0.20882 -0.09417
 H1374 H 0.74028 0.20009 -0.07256
 H1375 H 0.72860 0.17515 -0.10414
 H1376 H 0.69864 0.23160 -0.06124
 C1377 C 0.18957 0.69048 -0.10634
 C1378 C 0.18198 0.70760 -0.09355
 C1379 C 0.19779 0.71585 -0.07461
 C1380 C 0.19130 0.73225 -0.06036
 H1381 H 0.16427 0.71480 -0.09639
 H1382 H 0.21523 0.70792 -0.07204
 H1383 H 0.20723 0.68342 -0.10250
 H1384 H 0.17407 0.74053 -0.06289
 C1385 C 0.18076 0.20288 0.40646
 C1386 C 0.19967 0.19740 0.42013
 C1387 C 0.20891 0.21232 0.43874
 C1388 C 0.22933 0.20676 0.45004
 H1389 H 0.20904 0.18166 0.41747
 H1390 H 0.19959 0.22785 0.44268
 H1391 H 0.17135 0.21860 0.40945
 H1392 H 0.23856 0.19140 0.44526
 C1393 C 0.30287 0.41903 0.68916
 C1394 C 0.28391 0.43044 0.68081
 C1395 C 0.27315 0.44847 0.69445
 C1396 C 0.25362 0.45928 0.68656
 H1397 H 0.27604 0.42637 0.66408
 H1398 H 0.28078 0.45238 0.71137
 H1399 H 0.31077 0.42379 0.70574
 H1400 H 0.24595 0.45507 0.66974
 C1401 C 0.27978 0.90817 0.18551
 C1402 C 0.28730 0.92003 0.20383
 C1403 C 0.27246 0.93882 0.21200
 C1404 C 0.27962 0.95188 0.22956
 H1405 H 0.30411 0.91602 0.21270
 H1406 H 0.25520 0.94195 0.20350
 H1407 H 0.26308 0.91301 0.17677
 H1408 H 0.29700 0.94901 0.23792
 C1409 C 0.79201 0.41152 0.17754
 C1410 C 0.79780 0.42413 0.19585
 C1411 C 0.78150 0.44246 0.20243
 C1412 C 0.78627 0.45569 0.22051
 H1413 H 0.81412 0.42097 0.20589
 H1414 H 0.76496 0.44490 0.19244
 H1415 H 0.77565 0.41546 0.16777
 H1416 H 0.80272 0.45327 0.23061
 C1417 C 0.79831 0.92114 0.67705
 C1418 C 0.80538 0.92961 0.69744
 C1419 C 0.79235 0.94853 0.70768
 C1420 C 0.79790 0.95541 0.72906
 H1421 H 0.82011 0.92200 0.70723
 H1422 H 0.77745 0.95619 0.69808
 H1423 H 0.78319 0.92885 0.66782
 H1424 H 0.81259 0.94740 0.73867
 C1425 C 0.69066 0.60823 0.70281
 C1426 C 0.70385 0.59094 0.69576
 C1427 C 0.71240 0.57304 0.71218
 C1428 C 0.72584 0.55629 0.70433
 H1429 H 0.70845 0.58991 0.67760
 H1430 H 0.70870 0.57409 0.73055
 H1431 H 0.68535 0.60865 0.72084
 H1432 H 0.72978 0.55602 0.68594
 C1433 C 0.71749 0.09418 0.17794
 C1434 C 0.71038 0.08010 0.19507
 C1435 C 0.72557 0.06097 0.20338
 C1436 C 0.71721 0.04658 0.21970
 H1437 H 0.69295 0.08248 0.20289
 H1438 H 0.74358 0.05901 0.19669
 H1439 H 0.73445 0.09102 0.16947
 H1440 H 0.69922 0.04914 0.22629
 C1441 C 0.19567 0.58361 0.19615
 C1442 C 0.21273 0.56961 0.18897
 C1443 C 0.22277 0.55155 0.20425
 C1444 C 0.24222 0.54032 0.19764
 H1445 H 0.22022 0.57185 0.17184
 H1446 H 0.21501 0.54816 0.22117
 H1447 H 0.18860 0.58125 0.21350
 H1448 H 0.25019 0.54451 0.18097
 C1449 C 0.20006 0.09009 0.68404
 C1450 C 0.19513 0.07940 0.70423
 C1451 C 0.20963 0.06000 0.71242
 C1452 C 0.20613 0.05019 0.73331
 H1453 H 0.18084 0.08517 0.71514
 H1454 H 0.22386 0.05407 0.70141
 H1455 H 0.21472 0.08403 0.67363
 H1456 H 0.19208 0.05629 0.74442
 C1457 C 0.29304 0.58678 0.32109
 C1458 C 0.30330 0.57617 0.30335
 C1459 C 0.29217 0.55606 0.29210
 C1460 C 0.30300 0.54658 0.27404
 H1461 H 0.32037 0.58235 0.29673
 H1462 H 0.27503 0.54935 0.29820
 H1463 H 0.27627 0.58004 0.32803
 H1464 H 0.32001 0.55373 0.26807
 C1465 C 0.29734 0.09220 0.82777
 C1466 C 0.30235 0.08016 0.80897
 C1467 C 0.28741 0.06043 0.80223
 C1468 C 0.29113 0.05007 0.78214
 H1469 H 0.31711 0.08517 0.79785
 H1470 H 0.27269 0.05493 0.81330
 H1471 H 0.28235 0.08687 0.83859
 H1472 H 0.30558 0.05599 0.77095
 C1473 C 0.79906 0.60012 0.81836
 C1474 C 0.80659 0.59165 0.79830
 C1475 C 0.79477 0.57080 0.78953
 C1476 C 0.79952 0.56174 0.76893
 H1477 H 0.82032 0.60032 0.78814
 H1478 H 0.78077 0.56304 0.80017
 H1479 H 0.78498 0.59098 0.82775
 H1480 H 0.81357 0.56904 0.75808
 C1481 C 0.79047 0.09388 0.32158
 C1482 C 0.79885 0.08044 0.30521
 C1483 C 0.78446 0.06072 0.29693
 C1484 C 0.79342 0.04718 0.28095
 H1485 H 0.81649 0.08381 0.29796
 H1486 H 0.76640 0.05770 0.30336
 H1487 H 0.77315 0.08973 0.32922
 H1488 H 0.81141 0.05077 0.27446
 C1489 C 0.70687 0.41201 0.32225
 C1490 C 0.69799 0.42503 0.30489
 C1491 C 0.71180 0.44410 0.29441
 C1492 C 0.70361 0.45389 0.27473
 H1493 H 0.68040 0.42121 0.29749
 H1494 H 0.72893 0.44935 0.30202
 H1495 H 0.72435 0.41624 0.32980
 H1496 H 0.68680 0.44783 0.26704
 C1497 C 0.71775 0.89135 0.79744
 C1498 C 0.70745 0.91070 0.79020
 C1499 C 0.72298 0.93008 0.78294
 C1500 C 0.71411 0.95003 0.77557
 H1501 H 0.68824 0.91304 0.79221
 H1502 H 0.74241 0.92826 0.78450
 H1503 H 0.73722 0.88994 0.79643
 H1504 H 0.69490 0.95195 0.77256
 C1505 C 0.19674 0.41372 0.80709
 C1506 C 0.18629 0.42228 0.78776
 C1507 C 0.19684 0.44259 0.77627
 C1508 C 0.18772 0.45153 0.75650
 H1509 H 0.17044 0.41429 0.78017
 H1510 H 0.21289 0.45016 0.78406
 H1511 H 0.21266 0.42221 0.81411
 H1512 H 0.17170 0.44409 0.74857
 C1513 C 0.21572 0.91116 0.33913
 C1514 C 0.20548 0.92873 0.32775
 C1515 C 0.21918 0.94650 0.31501
 C1516 C 0.20804 0.95702 0.29712
 H1517 H 0.18608 0.92835 0.32515
 H1518 H 0.23823 0.94936 0.31855
 H1519 H 0.23493 0.91125 0.34287
 H1520 H 0.18938 0.95258 0.29315
 C1521 C 0.40847 0.32612 0.69059
 C1522 C 0.41937 0.30685 0.68534
 C1523 C 0.43927 0.29795 0.70004
 C1524 C 0.44862 0.27779 0.69549
 H1525 H 0.41318 0.29711 0.67061
 H1526 H 0.44555 0.30734 0.71500
 H1527 H 0.41499 0.33551 0.70551
 H1528 H 0.44178 0.26849 0.68064
 C1529 C 0.38330 0.80818 0.19414
 C1530 C 0.39437 0.78913 0.18790
 C1531 C 0.41439 0.78022 0.20247
 C1532 C 0.42602 0.76104 0.19771
 H1533 H 0.38877 0.78014 0.17249
 H1534 H 0.41963 0.78968 0.21774
 H1535 H 0.38949 0.81659 0.20978
 H1536 H 0.42098 0.75142 0.18250
 C1537 C 0.89838 0.31398 0.19367
 C1538 C 0.90930 0.29461 0.18811
 C1539 C 0.92850 0.28518 0.20329
 C1540 C 0.93971 0.26573 0.19861
 H1541 H 0.90411 0.28556 0.17263
 H1542 H 0.93343 0.29438 0.21883
 H1543 H 0.90404 0.32255 0.20937
 H1544 H 0.93486 0.25645 0.18312
 C1545 C 0.89451 0.81721 0.68577
 C1546 C 0.90473 0.79723 0.68140
 C1547 C 0.92425 0.78895 0.69714
 C1548 C 0.93556 0.76921 0.69430
 H1549 H 0.89879 0.78716 0.66681
 H1550 H 0.92935 0.79937 0.71180
 H1551 H 0.90118 0.82664 0.70061
 H1552 H 0.93065 0.75858 0.67977
 C1553 C 0.60329 0.31217 0.30443
 C1554 C 0.59231 0.29253 0.31035
 C1555 C 0.57400 0.28247 0.29508
 C1556 C 0.56382 0.26225 0.30020
 H1557 H 0.59698 0.28344 0.32626
 H1558 H 0.56916 0.29159 0.27914
 H1559 H 0.59800 0.32101 0.28847
 H1560 H 0.56862 0.25315 0.31613
 C1561 C 0.60634 0.79903 0.82995
 C1562 C 0.59363 0.80150 0.81011
 C1563 C 0.57315 0.78597 0.80462
 C1564 C 0.56012 0.78878 0.78504
 H1565 H 0.59845 0.81472 0.79759
 H1566 H 0.56899 0.77193 0.81649
 H1567 H 0.60085 0.78581 0.84230
 H1568 H 0.56431 0.80300 0.77341
 C1569 C 0.10429 0.30233 0.81944
 C1570 C 0.09046 0.30809 0.80100
 C1571 C 0.07108 0.29260 0.79296
 C1572 C 0.05702 0.29775 0.77452
 H1573 H 0.09338 0.32404 0.79167
 H1574 H 0.06845 0.27652 0.80225
 H1575 H 0.10073 0.28628 0.82851
 H1576 H 0.05959 0.31383 0.76521
 C1577 C 0.10866 0.82502 0.29473
 C1578 C 0.09059 0.81098 0.30069
 C1579 C 0.07356 0.80202 0.28348
 C1580 C 0.05869 0.78497 0.28958
 H1581 H 0.08913 0.80485 0.31849
 H1582 H 0.07439 0.80814 0.26561
 H1583 H 0.10969 0.83202 0.27720
 H1584 H 0.05846 0.77871 0.30744
 C1585 C 0.59535 0.71107 0.68079
 C1586 C 0.58262 0.70436 0.69932
 C1587 C 0.56409 0.71858 0.70958
 C1588 C 0.55501 0.71228 0.73012
 H1589 H 0.58621 0.68810 0.70773
 H1590 H 0.55858 0.73430 0.70095
 H1591 H 0.59124 0.72712 0.67205
 H1592 H 0.56140 0.69683 0.73872
 C1593 C 0.61437 0.19705 0.18922
 C1594 C 0.60157 0.18956 0.20730
 C1595 C 0.58278 0.20419 0.21679
 C1596 C 0.56803 0.19640 0.23329
 H1597 H 0.60408 0.17246 0.21428
 H1598 H 0.58065 0.22137 0.20982
 H1599 H 0.61073 0.21390 0.18200
 H1600 H 0.57027 0.17922 0.24020
 C1601 C 0.11446 0.70052 0.18412
 C1602 C 0.10383 0.69822 0.20470
 C1603 C 0.08616 0.71513 0.21172
 C1604 C 0.07289 0.71183 0.23066
 H1605 H 0.10728 0.68357 0.21591
 H1606 H 0.08307 0.72993 0.20053
 H1607 H 0.11030 0.71529 0.17320
 H1608 H 0.07565 0.69681 0.24161
 C1609 C 0.09864 0.18728 0.70366
 C1610 C 0.08506 0.20521 0.69790
 C1611 C 0.06713 0.21354 0.71421
 C1612 C 0.05277 0.23084 0.70829
 H1613 H 0.08698 0.21374 0.68117
 H1614 H 0.06575 0.20549 0.73127
 H1615 H 0.09592 0.17876 0.72033
 H1616 H 0.05418 0.23873 0.69116
 C1617 C 0.38967 0.69543 0.31673
 C1618 C 0.40193 0.68825 0.29860
 C1619 C 0.41999 0.70322 0.28746
 C1620 C 0.43303 0.69584 0.26996
 H1621 H 0.39882 0.67133 0.29199
 H1622 H 0.42246 0.72050 0.29348
 H1623 H 0.39365 0.71221 0.32347
 H1624 H 0.43047 0.67855 0.26404
 C1625 C 0.40022 0.18704 0.79520
 C1626 C 0.41383 0.20591 0.79680
 C1627 C 0.43234 0.21132 0.77908
 C1628 C 0.44634 0.22992 0.78075
 H1629 H 0.41153 0.21730 0.81112
 H1630 H 0.43458 0.19997 0.76467
 H1631 H 0.40312 0.17594 0.78070
 H1632 H 0.44391 0.24105 0.79531
 C1633 C 0.88828 0.71514 0.81943
 C1634 C 0.90163 0.70841 0.80162
 C1635 C 0.92102 0.72277 0.79123
 C1636 C 0.93395 0.71458 0.77386
 H1637 H 0.89833 0.69184 0.79428
 H1638 H 0.92455 0.73978 0.79753
 H1639 H 0.89202 0.73164 0.82687
 H1640 H 0.93005 0.69744 0.76804
 C1641 C 0.89172 0.20135 0.31239
 C1642 C 0.90545 0.19383 0.29541
 C1643 C 0.92452 0.20868 0.28545
 C1644 C 0.93906 0.20104 0.26919
 H1645 H 0.90309 0.17662 0.28928
 H1646 H 0.92668 0.22599 0.29145
 H1647 H 0.89503 0.21839 0.31875
 H1648 H 0.93663 0.18375 0.26320
 C1649 C 0.29600 0.31826 0.59205
 C1650 C 0.30489 0.30177 0.57909
 C1651 C 0.29022 0.29144 0.56029
 C1652 C 0.29940 0.27534 0.54704
 H1653 H 0.32314 0.29594 0.58211
 H1654 H 0.27176 0.29684 0.55743
 H1655 H 0.27788 0.32419 0.58829
 H1656 H 0.31783 0.26999 0.55021
 C1657 C 0.28282 0.81596 0.08438
 C1658 C 0.28760 0.79631 0.07425
 C1659 C 0.27301 0.78954 0.05391
 C1660 C 0.27655 0.77006 0.04302
 H1661 H 0.30139 0.78509 0.08120
 H1662 H 0.25864 0.80069 0.04794
 H1663 H 0.26870 0.82660 0.07692
 H1664 H 0.29114 0.75899 0.04855
 C1665 C 0.79893 0.31209 0.08462
 C1666 C 0.80801 0.29501 0.07273
 C1667 C 0.79344 0.28551 0.05369
 C1668 C 0.80169 0.26983 0.03947
 H1669 H 0.82577 0.28841 0.07672
 H1670 H 0.77525 0.29180 0.05114
 H1671 H 0.78136 0.31867 0.07955
 H1672 H 0.81988 0.26350 0.04164
 C1673 C 0.78404 0.82169 0.58325
 C1674 C 0.79074 0.80569 0.56860
 C1675 C 0.77401 0.79911 0.54959
 C1676 C 0.77972 0.78361 0.53402
 H1677 H 0.80836 0.79803 0.57024
 H1678 H 0.75646 0.80704 0.54845
 H1679 H 0.76652 0.82944 0.58058
 H1680 H 0.79706 0.77532 0.53531
 C1681 C 0.29979 0.68505 0.42496
 C1682 C 0.27793 0.68200 0.43397
 C1683 C 0.27041 0.69581 0.45374
 C1684 C 0.24800 0.69404 0.46174
 H1685 H 0.26521 0.67018 0.42613
 H1686 H 0.28308 0.70778 0.46145
 H1687 H 0.31185 0.69760 0.43264
 H1688 H 0.23556 0.68189 0.45393
 C1689 C 0.31366 0.20369 0.91173
 C1690 C 0.29493 0.19778 0.92532
 C1691 C 0.28831 0.21169 0.94538
 C1692 C 0.26883 0.20669 0.95827
 H1693 H 0.28417 0.18273 0.92171
 H1694 H 0.29942 0.22646 0.94946
 H1695 H 0.32388 0.21907 0.91561
 H1696 H 0.25748 0.19219 0.95388
 C1697 C 0.78048 0.69474 0.91729
 C1698 C 0.78917 0.70919 0.93311
 C1699 C 0.77496 0.71581 0.95347
 C1700 C 0.78514 0.72930 0.96935
 H1701 H 0.80728 0.71607 0.93121
 H1702 H 0.75630 0.71030 0.95510
 H1703 H 0.76276 0.68711 0.91981
 H1704 H 0.80375 0.73471 0.96698
 C1705 C 0.80079 0.18855 0.42194
 C1706 C 0.80799 0.20826 0.43122
 C1707 C 0.79538 0.21662 0.45148
 C1708 C 0.80068 0.23664 0.46113
 H1709 H 0.82236 0.21848 0.42367
 H1710 H 0.78071 0.20618 0.45831
 H1711 H 0.78617 0.17892 0.42998
 H1712 H 0.81547 0.24715 0.45471
 C1713 C 0.69828 0.29991 0.41218
 C1714 C 0.71041 0.30847 0.43014
 C1715 C 0.71829 0.29339 0.44932
 C1716 C 0.73109 0.30162 0.46703
 H1717 H 0.71443 0.32656 0.43074
 H1718 H 0.71461 0.27523 0.44840
 H1719 H 0.69356 0.28190 0.41230
 H1720 H 0.73542 0.31969 0.46748
 C1721 C 0.72154 0.82105 0.91914
 C1722 C 0.71120 0.81267 0.93828
 C1723 C 0.72578 0.80481 0.95847
 C1724 C 0.71491 0.79366 0.97590
 H1725 H 0.69179 0.81055 0.93874
 H1726 H 0.74529 0.80607 0.95807
 H1727 H 0.74093 0.82390 0.91904
 H1728 H 0.69540 0.79159 0.97535
 C1729 C 0.21728 0.31979 0.91232
 C1730 C 0.20818 0.30582 0.92868
 C1731 C 0.22304 0.29610 0.94784
 C1732 C 0.21257 0.28196 0.96323
 H1733 H 0.18925 0.30107 0.92776
 H1734 H 0.24231 0.29944 0.94863
 H1735 H 0.23592 0.32550 0.91372
 H1736 H 0.19331 0.27867 0.96166
 C1737 C 0.18271 0.78913 0.41128
 C1738 C 0.19119 0.79410 0.43230
 C1739 C 0.19330 0.77604 0.45030
 C1740 C 0.20501 0.78022 0.47005
 H1741 H 0.19686 0.81137 0.43613
 H1742 H 0.18701 0.75888 0.44669
 H1743 H 0.17647 0.77189 0.40797
 H1744 H 0.21254 0.79711 0.47288
 C1745 C 0.69912 0.68927 0.58265
 C1746 C 0.69012 0.70491 0.56771
 C1747 C 0.70377 0.71395 0.54759
 C1748 C 0.69519 0.73183 0.53539
 H1749 H 0.67252 0.71193 0.57065
 H1750 H 0.72118 0.70695 0.54359
 H1751 H 0.71656 0.68197 0.57928
 H1752 H 0.67815 0.73907 0.54032
 C1753 C 0.68995 0.18699 0.07253
 C1754 C 0.71022 0.18307 0.06118
 C1755 C 0.71690 0.19841 0.04186
 C1756 C 0.73824 0.19723 0.03163
 H1757 H 0.72268 0.17012 0.06720
 H1758 H 0.70471 0.21207 0.03699
 H1759 H 0.67825 0.20055 0.06630
 H1760 H 0.75042 0.18344 0.03598
 C1761 C 0.20171 0.66655 0.07847
 C1762 C 0.19221 0.68248 0.06429
 C1763 C 0.20577 0.69318 0.04511
 C1764 C 0.19753 0.71246 0.03532
 H1765 H 0.17448 0.68902 0.06776
 H1766 H 0.22310 0.68650 0.04033
 H1767 H 0.21911 0.65942 0.07462
 H1768 H 0.18065 0.71936 0.04114
 C1769 C 0.18875 0.19816 0.59080
 C1770 C 0.20796 0.19233 0.57849
 C1771 C 0.21646 0.20703 0.55914
 C1772 C 0.23644 0.20221 0.54751
 H1773 H 0.21781 0.17701 0.58282
 H1774 H 0.20647 0.22231 0.55468
 H1775 H 0.17940 0.21375 0.58611
 H1776 H 0.24655 0.18706 0.55215
   
