data_POSCAR
  _audit_creation_date              2014-09-24
  _audit_creation_method            'ToBaCCo'
  _symmetry_space_group_name_H-M    'P1'
  _symmetry_Int_Tables_number       1
  _symmetry_cell_setting            triclinic
  loop_
  _symmetry_equiv_pos_as_xyz
 x,y,z
_cell_length_a 69.3233
_cell_length_b 69.1903
_cell_length_c 69.3005
_cell_angle_alpha 89.991900
_cell_angle_beta 90.025400
_cell_angle_gamma 90.019600
loop_
  _atom_site_label
  _atom_site_type_symbol
  _atom_site_fract_x
  _atom_site_fract_y
  _atom_site_fract_z
C1 C 0.19331 0.21174 0.22096
 N2 N 0.20550 0.19665 0.22388
 C3 C 0.22064 0.19351 0.21183
 N4 N 0.22350 0.20568 0.19671
 C5 C 0.21145 0.22084 0.19356
 N6 N 0.19639 0.22376 0.20576
 C7 C 0.69333 0.71173 0.72084
 N8 N 0.70546 0.69657 0.72366
 C9 C 0.72056 0.69342 0.71157
 N10 N 0.72346 0.70566 0.69651
 C11 C 0.71147 0.72089 0.69346
 N12 N 0.69644 0.72382 0.70570
 C13 C 0.30678 0.78884 0.72069
 N14 N 0.30366 0.77671 0.70559
 C15 C 0.28860 0.77958 0.69337
 N16 N 0.27659 0.79479 0.69641
 C17 C 0.27945 0.80710 0.71144
 N18 N 0.29462 0.80397 0.72350
 C19 C 0.80661 0.28810 0.22139
 N20 N 0.80342 0.27596 0.20629
 C21 C 0.78831 0.27875 0.19412
 N22 N 0.77626 0.29393 0.19716
 C23 C 0.77919 0.30624 0.21216
 N24 N 0.79438 0.30321 0.22418
 C25 C 0.80671 0.71202 0.27905
 N26 N 0.79448 0.69693 0.27621
 C27 C 0.77936 0.69384 0.28830
 N28 N 0.77655 0.70607 0.30338
 C29 C 0.78863 0.72124 0.30644
 N30 N 0.80367 0.72410 0.29420
 C31 C 0.30696 0.21163 -0.22126
 N32 N 0.29471 0.19655 -0.22416
 C33 C 0.27947 0.19342 -0.21220
 N34 N 0.27658 0.20568 -0.19714
 C35 C 0.28864 0.22083 -0.19398
 N36 N 0.30377 0.22369 -0.20610
 C37 C 0.69417 0.28734 -0.22066
 N38 N 0.70633 0.30248 -0.22349
 C39 C 0.72157 0.30557 -0.21150
 N40 N 0.72450 0.29321 -0.19652
 C41 C 0.71249 0.27799 -0.19346
 N42 N 0.69736 0.27517 -0.20560
 C43 C 0.19339 0.78844 0.27911
 N44 N 0.19643 0.77637 0.29427
 C45 C 0.21148 0.77925 0.30650
 N46 N 0.22356 0.79441 0.30342
 C47 C 0.22077 0.80666 0.28832
 N48 N 0.20561 0.80352 0.27625
 C49 C 0.46152 0.44325 0.47113
 N50 N 0.47359 0.44637 0.45600
 C51 C 0.47071 0.46145 0.44378
 N52 N 0.45554 0.47349 0.44683
 C53 C 0.44332 0.47060 0.46188
 N54 N 0.44642 0.45544 0.47396
 C55 C -0.03702 -0.05584 0.97049
 N56 N -0.05200 -0.04352 0.97340
 C57 C -0.05505 -0.02827 0.96140
 N58 N -0.04282 -0.02547 0.94632
 C59 C -0.02776 -0.03763 0.94317
 N60 N -0.02497 -0.05278 0.95533
 C61 C 1.03789 0.55674 0.97092
 N62 N 1.05299 0.54451 0.97371
 C63 C 1.05608 0.52935 0.96164
 N64 N 1.04385 0.52645 0.94659
 C65 C 1.02868 0.53850 0.94355
 N66 N 1.02582 0.55358 0.95577
 C67 C 0.53850 0.05600 0.47101
 N68 N 0.55362 0.04383 0.47383
 C69 C 0.55679 0.02867 0.46176
 N70 N 0.54453 0.02580 0.44670
 C71 C 0.52933 0.03782 0.44365
 N72 N 0.52643 0.05288 0.45588
 C73 C -0.03867 0.05657 0.52909
 N74 N -0.05377 0.04436 0.52629
 C75 C -0.05686 0.02915 0.53833
 N76 N -0.04454 0.02628 0.55334
 C77 C -0.02936 0.03834 0.55637
 N78 N -0.02654 0.05345 0.54417
 C79 C 0.46155 0.55667 0.02936
 N80 N 0.47359 0.55357 0.04452
 C81 C 0.47070 0.53846 0.05672
 N82 N 0.45555 0.52639 0.05361
 C83 C 0.44337 0.52927 0.03851
 N84 N 0.44648 0.54445 0.02646
 C85 C 0.53713 -0.05559 0.02836
 N86 N 0.52516 -0.05257 0.04362
 C87 C 0.52795 -0.03743 0.05579
 N88 N 0.54294 -0.02518 0.05259
 C89 C 0.55505 -0.02794 0.03743
 N90 N 0.55204 -0.04316 0.02542
 C91 C 1.03782 0.44303 0.52919
 N92 N 1.05289 0.45531 0.52640
 C93 C 1.05599 0.47043 0.53852
 N94 N 1.04380 0.47325 0.55360
 C95 C 1.02866 0.46115 0.55665
 N96 N 1.02579 0.44610 0.54438
 C97 C 0.40419 0.00868 0.22434
 H98 H 0.40503 0.02173 0.23290
 C99 C 0.41673 0.00604 0.20880
 H100 H 0.42729 0.01711 0.20557
 C101 C 0.38976 -0.02184 0.21863
 H102 H 0.37941 -0.03278 0.22263
 C103 C 0.40204 -0.02508 0.20299
 H104 H 0.40069 -0.03839 0.19487
 N105 N 0.39089 -0.00506 0.22880
 C106 C 0.34525 0.02563 0.25937
 H107 H 0.34444 0.01711 0.27244
 C108 C 0.33267 0.04116 0.25667
 H109 H 0.32211 0.04442 0.26771
 C110 C 0.35961 0.03124 0.22886
 H111 H 0.36994 0.02720 0.21794
 C112 C 0.34729 0.04686 0.22555
 H113 H 0.34859 0.05492 0.21222
 Zn114 Zn 0.37471 -0.00042 0.25031
 N115 N 0.35852 0.02112 0.24566
 C116 C 0.38988 0.02103 0.28191
 N117 N 0.39093 0.00422 0.27180
 C118 C 0.40421 -0.00953 0.27628
 C119 C 0.41682 -0.00685 0.29176
 C120 C 0.40223 0.02433 0.29749
 C121 C 0.34518 -0.02640 0.24123
 C122 C 0.33256 -0.04190 0.24392
 C123 C 0.34725 -0.04772 0.27499
 C124 C 0.35958 -0.03210 0.27172
 N125 N 0.35849 -0.02194 0.25494
 H126 H 0.37954 0.03199 0.27789
 H127 H 0.40498 -0.02261 0.26776
 H128 H 0.42738 -0.01792 0.29500
 H129 H 0.40097 0.03767 0.30555
 H130 H 0.34444 -0.01791 0.22814
 H131 H 0.32230 -0.04542 0.23267
 H132 H 0.34822 -0.05551 0.28851
 H133 H 0.36988 -0.02803 0.28268
 C134 C 0.33362 0.05203 0.23958
 C135 C 0.41571 -0.01101 0.19785
 C136 C 0.33353 -0.05283 0.26097
 C137 C 0.41591 0.01025 0.30263
 C138 C 0.09641 -0.00888 0.72327
 H139 H 0.09568 -0.02197 0.73179
 C140 C 0.08376 -0.00622 0.70782
 H141 H 0.07321 -0.01731 0.70461
 C142 C 0.11067 0.02173 0.71761
 H143 H 0.12100 0.03270 0.72161
 C144 C 0.09827 0.02500 0.70206
 H145 H 0.09949 0.03835 0.69401
 N146 N 0.10967 0.00490 0.72772
 C147 C 0.15550 -0.02565 0.75822
 H148 H 0.15624 -0.01717 0.77131
 C149 C 0.16811 -0.04115 0.75553
 H150 H 0.17837 -0.04467 0.76677
 C151 C 0.14106 -0.03135 0.72774
 H152 H 0.13076 -0.02729 0.71679
 C153 C 0.15339 -0.04697 0.72446
 H154 H 0.15241 -0.05476 0.71095
 Zn155 Zn 0.12594 0.00029 0.74918
 N156 N 0.14217 -0.02120 0.74452
 C157 C 0.11092 -0.02120 0.78083
 N158 N 0.10979 -0.00440 0.77071
 C159 C 0.09650 0.00933 0.77521
 C160 C 0.08397 0.00664 0.79074
 C161 C 0.09865 -0.02451 0.79646
 C162 C 0.15535 0.02641 0.74007
 C163 C 0.16793 0.04194 0.74276
 C164 C 0.15334 0.04760 0.77390
 C165 C 0.14104 0.03195 0.77062
 N166 N 0.14211 0.02186 0.75381
 H167 H 0.12127 -0.03213 0.77679
 H168 H 0.09567 0.02240 0.76668
 H169 H 0.07340 0.01768 0.79400
 H170 H 0.09998 -0.03784 0.80453
 H171 H 0.15606 0.01796 0.72695
 H172 H 0.17813 0.04553 0.73149
 H173 H 0.15240 0.05534 0.78745
 H174 H 0.13081 0.02781 0.78160
 C175 C 0.16712 -0.05208 0.73848
 C176 C 0.08461 0.01089 0.69696
 C177 C 0.16698 0.05281 0.75985
 C178 C 0.08497 -0.01045 0.80163
 C179 C 0.59544 0.49094 0.22432
 H180 H 0.59474 0.47779 0.23275
 C181 C 0.58284 0.49364 0.20884
 H182 H 0.57263 0.48235 0.20526
 C183 C 0.60975 0.52154 0.21877
 H184 H 0.62000 0.53254 0.22289
 C185 C 0.59743 0.52484 0.20317
 H186 H 0.59836 0.53841 0.19544
 N187 N 0.60870 0.50470 0.22884
 C188 C 0.65444 0.47402 0.25935
 H189 H 0.65517 0.48247 0.27246
 C190 C 0.66705 0.45853 0.25664
 H191 H 0.67728 0.45497 0.26789
 C192 C 0.64006 0.46841 0.22883
 H193 H 0.62979 0.47252 0.21786
 C194 C 0.65239 0.45280 0.22553
 H195 H 0.65143 0.44505 0.21199
 Zn196 Zn 0.62493 0.50002 0.25032
 N197 N 0.64115 0.47852 0.24563
 C198 C 0.60984 0.47847 0.28188
 N199 N 0.60876 0.49532 0.27182
 C200 C 0.59550 0.50907 0.27637
 C201 C 0.58294 0.50634 0.29187
 C202 C 0.59753 0.47513 0.29748
 C203 C 0.65439 0.52607 0.24123
 C204 C 0.66700 0.54158 0.24392
 C205 C 0.65242 0.54730 0.27505
 C206 C 0.64009 0.53167 0.27177
 N207 N 0.64114 0.52156 0.25497
 H208 H 0.62016 0.46753 0.27781
 H209 H 0.59471 0.52217 0.26789
 H210 H 0.57239 0.51740 0.29516
 H211 H 0.59881 0.46176 0.30549
 H212 H 0.65509 0.51762 0.22812
 H213 H 0.67721 0.54514 0.23264
 H214 H 0.65149 0.55505 0.28859
 H215 H 0.62985 0.52755 0.28276
 C216 C 0.66608 0.44764 0.23956
 C217 C 0.58377 0.51076 0.19799
 C218 C 0.66608 0.55246 0.26100
 C219 C 0.58387 0.48920 0.30268
 C220 C 0.90385 0.50836 0.72411
 H221 H 0.90461 0.52148 0.73256
 C222 C 0.91644 0.50563 0.70863
 H223 H 0.92696 0.51672 0.70533
 C224 C 0.88959 0.47772 0.71865
 H225 H 0.87928 0.46676 0.72273
 C226 C 0.90192 0.47438 0.70307
 H227 H 0.90066 0.46100 0.69508
 N228 N 0.89061 0.49459 0.72867
 C229 C 0.84484 0.52532 0.75903
 H230 H 0.84411 0.51691 0.77217
 C231 C 0.83224 0.54081 0.75626
 H232 H 0.82200 0.54441 0.76749
 C233 C 0.85922 0.53083 0.72850
 H234 H 0.86950 0.52669 0.71756
 C235 C 0.84690 0.54644 0.72514
 H236 H 0.84787 0.55415 0.71158
 Zn237 Zn 0.87439 0.49932 0.75013
 N238 N 0.85813 0.52078 0.74534
 C239 C 0.88945 0.52102 0.78162
 N240 N 0.89057 0.50414 0.77161
 C241 C 0.90388 0.49046 0.77620
 C242 C 0.91644 0.49326 0.79169
 C243 C 0.90176 0.52443 0.79721
 C244 C 0.84498 0.47314 0.74118
 C245 C 0.83244 0.45758 0.74394
 C246 C 0.84711 0.45205 0.77508
 C247 C 0.85936 0.46772 0.77173
 N248 N 0.85824 0.47776 0.75489
 H249 H 0.87909 0.53191 0.77751
 H250 H 0.90471 0.47733 0.76775
 H251 H 0.92702 0.48224 0.79502
 H252 H 0.90043 0.53782 0.80519
 H253 H 0.84422 0.48154 0.72803
 H254 H 0.82223 0.45393 0.73269
 H255 H 0.84810 0.44435 0.78865
 H256 H 0.86961 0.47192 0.78269
 C257 C 0.83321 0.55165 0.73914
 C258 C 0.91555 0.48847 0.69785
 C259 C 0.83345 0.44677 0.76106
 C260 C 0.91545 0.51043 0.80246
 C261 C 0.22375 0.40453 0.00873
 H262 H 0.23225 0.40532 0.02180
 C263 C 0.20827 0.41715 0.00602
 H264 H 0.20501 0.42771 0.01707
 C265 C 0.21818 0.39018 -0.02181
 H266 H 0.22223 0.37983 -0.03274
 C267 C 0.20260 0.40254 -0.02513
 H268 H 0.19457 0.40125 -0.03847
 N269 N 0.22826 0.39124 -0.00500
 C270 C 0.25869 0.34538 0.02565
 H271 H 0.27176 0.34458 0.01715
 C272 C 0.25598 0.33277 0.04113
 H273 H 0.26700 0.32218 0.04440
 C274 C 0.22821 0.35981 0.03123
 H275 H 0.21731 0.37019 0.02719
 C276 C 0.22488 0.34746 0.04681
 H277 H 0.21156 0.34877 0.05485
 Zn278 Zn 0.24973 0.37499 -0.00031
 N279 N 0.24500 0.35871 0.02114
 C280 C 0.28127 0.39007 0.02128
 N281 N 0.27121 0.39121 0.00446
 C282 C 0.27576 0.40454 -0.00922
 C283 C 0.29126 0.41713 -0.00646
 C284 C 0.29687 0.40240 0.02465
 C285 C 0.24074 0.34549 -0.02639
 C286 C 0.24348 0.33291 -0.04189
 C287 C 0.27458 0.34763 -0.04750
 C288 C 0.27125 0.35992 -0.03187
 N289 N 0.25444 0.35880 -0.02182
 H290 H 0.27720 0.37969 0.03217
 H291 H 0.26728 0.40538 -0.02231
 H292 H 0.29455 0.42773 -0.01747
 H293 H 0.30489 0.40106 0.03799
 H294 H 0.22762 0.34473 -0.01797
 H295 H 0.23224 0.32266 -0.04550
 H296 H 0.28813 0.34862 -0.05521
 H297 H 0.28220 0.37021 -0.02772
 C298 C 0.23890 0.33374 0.05199
 C299 C 0.19743 0.41622 -0.01108
 C300 C 0.26057 0.33391 -0.05272
 C301 C 0.30208 0.41612 0.01065
 C302 C 0.72982 0.08922 -0.00145
 H303 H 0.74267 0.08366 -0.00828
 C304 C 0.71398 0.07704 0.00118
 H305 H 0.71502 0.06208 -0.00327
 C306 C 0.71281 0.11540 0.01249
 H307 H 0.71230 0.13039 0.01673
 C308 C 0.69664 0.10372 0.01541
 H309 H 0.68381 0.10995 0.02178
 N310 N 0.72906 0.10800 0.00435
 C311 C 0.75939 0.15475 -0.02459
 H312 H 0.77161 0.15675 -0.01508
 C313 C 0.75662 0.16720 -0.04019
 H314 H 0.76673 0.17891 -0.04252
 C315 C 0.73110 0.13729 -0.03271
 H316 H 0.72124 0.12556 -0.02973
 C317 C 0.72777 0.14942 -0.04847
 H318 H 0.71540 0.14678 -0.05763
 Zn319 Zn 0.75102 0.12400 0.00037
 N320 N 0.74673 0.14013 -0.02119
 C321 C 0.78333 0.10988 -0.02058
 N322 N 0.77287 0.10803 -0.00407
 C323 C 0.77736 0.09435 0.00930
 C324 C 0.79304 0.08203 0.00646
 C325 C 0.79915 0.09787 -0.02399
 C326 C 0.74302 0.15533 0.02478
 C327 C 0.74556 0.16795 0.04028
 C328 C 0.77353 0.14953 0.04990
 C329 C 0.77047 0.13727 0.03418
 N330 N 0.75523 0.14017 0.02214
 H331 H 0.77935 0.12056 -0.03122
 H332 H 0.76865 0.09297 0.02218
 H333 H 0.79650 0.07142 0.01741
 H334 H 0.80715 0.09942 -0.03732
 H335 H 0.73142 0.15781 0.01464
 H336 H 0.73550 0.17975 0.04225
 H337 H 0.78584 0.14707 0.05920
 H338 H 0.78043 0.12559 0.03161
 C339 C 0.74063 0.16462 -0.05238
 C340 C 0.69711 0.08423 0.00977
 C341 C 0.76095 0.16509 0.05315
 C342 C 0.80419 0.08371 -0.01037
 C343 C 0.22359 0.59527 0.49119
 H344 H 0.23205 0.59446 0.47811
 C345 C 0.20808 0.58269 0.49393
 H346 H 0.20478 0.57211 0.48290
 C347 C 0.21811 0.60968 0.52172
 H348 H 0.22220 0.62003 0.53263
 C349 C 0.20251 0.59735 0.52507
 H350 H 0.19450 0.59866 0.53841
 N351 N 0.22815 0.60858 0.50490
 C352 C 0.25865 0.65431 0.47413
 H353 H 0.27173 0.65510 0.48261
 C354 C 0.25594 0.66692 0.45864
 H355 H 0.26698 0.67748 0.45535
 C356 C 0.22811 0.63995 0.46861
 H357 H 0.21718 0.62961 0.47268
 C358 C 0.22478 0.65230 0.45302
 H359 H 0.21144 0.65101 0.44500
 Zn360 Zn 0.24964 0.62480 0.50016
 N361 N 0.24493 0.64102 0.47867
 C362 C 0.28114 0.60963 0.47863
 N363 N 0.27110 0.60855 0.49545
 C364 C 0.27564 0.59526 0.50917
 C365 C 0.29112 0.58265 0.50644
 C366 C 0.29674 0.59731 0.47531
 C367 C 0.24070 0.65436 0.52615
 C368 C 0.24346 0.66699 0.54161
 C369 C 0.27456 0.65231 0.54726
 C370 C 0.27121 0.63996 0.53168
 N371 N 0.25438 0.64104 0.52163
 H372 H 0.27700 0.61990 0.46766
 H373 H 0.26723 0.59453 0.52230
 H374 H 0.29471 0.57241 0.51770
 H375 H 0.30445 0.59826 0.46175
 H376 H 0.22756 0.65509 0.51774
 H377 H 0.23222 0.67725 0.54519
 H378 H 0.28812 0.65135 0.55497
 H379 H 0.28215 0.62966 0.52755
 C380 C 0.23883 0.66598 0.44781
 C381 C 0.19728 0.58366 0.51104
 C382 C 0.26056 0.66603 0.55244
 C383 C 0.30194 0.58361 0.48934
 C384 C 0.72404 0.90505 0.50900
 H385 H 0.73250 0.90587 0.52210
 C386 C 0.70852 0.91762 0.50625
 H387 H 0.70520 0.92818 0.51728
 C388 C 0.71860 0.89066 0.47846
 H389 H 0.72270 0.88032 0.46755
 C390 C 0.70298 0.90296 0.47510
 H391 H 0.69498 0.90164 0.46174
 N392 N 0.72862 0.89177 0.49530
 C393 C 0.75908 0.84602 0.52610
 H394 H 0.77218 0.84525 0.51764
 C395 C 0.75634 0.83340 0.54158
 H396 H 0.76738 0.82284 0.54488
 C397 C 0.72853 0.86036 0.53156
 H398 H 0.71762 0.87071 0.52747
 C399 C 0.72519 0.84800 0.54714
 H400 H 0.71183 0.84927 0.55513
 Zn401 Zn 0.75011 0.87556 0.50007
 N402 N 0.74537 0.85931 0.52153
 C403 C 0.78160 0.89072 0.52168
 N404 N 0.77157 0.89181 0.50484
 C405 C 0.77613 0.90512 0.49114
 C406 C 0.79161 0.91772 0.49390
 C407 C 0.79720 0.90304 0.52503
 C408 C 0.74119 0.84601 0.47403
 C409 C 0.74396 0.83341 0.45855
 C410 C 0.77506 0.84813 0.45296
 C411 C 0.77170 0.86045 0.46856
 N412 N 0.75488 0.85933 0.47859
 H413 H 0.77744 0.88043 0.53263
 H414 H 0.76774 0.90585 0.47799
 H415 H 0.79522 0.92797 0.48266
 H416 H 0.80490 0.90207 0.53860
 H417 H 0.72806 0.84526 0.48243
 H418 H 0.73273 0.82315 0.45494
 H419 H 0.78862 0.84912 0.44527
 H420 H 0.78265 0.87075 0.47272
 C421 C 0.73922 0.83432 0.55236
 C422 C 0.69773 0.91663 0.48913
 C423 C 0.76107 0.83440 0.44774
 C424 C 0.80242 0.91674 0.51102
 C425 C 0.00863 0.22443 0.40438
 H426 H 0.02174 0.23289 0.40514
 C427 C 0.00589 0.20893 0.41698
 H428 H 0.01712 0.20536 0.42724
 C429 C -0.02185 0.21883 0.38993
 H430 H -0.03279 0.22295 0.37963
 C431 C -0.02518 0.20321 0.40224
 H432 H -0.03871 0.19545 0.40125
 N433 N -0.00505 0.22894 0.39106
 C434 C 0.02576 0.25951 0.34545
 H435 H 0.01730 0.27262 0.34464
 C436 C 0.04127 0.25678 0.33289
 H437 H 0.04459 0.26784 0.32235
 C438 C 0.03122 0.22891 0.35979
 H439 H 0.02712 0.21796 0.37011
 C440 C 0.04682 0.22557 0.34750
 H441 H 0.05481 0.21219 0.34880
 Zn442 Zn -0.00033 0.25046 0.37486
 N443 N 0.02118 0.24577 0.35870
 C444 C 0.02113 0.28209 0.39006
 N445 N 0.00433 0.27198 0.39109
 C446 C -0.00941 0.27646 0.40435
 C447 C -0.00672 0.29194 0.41699
 C448 C 0.02441 0.29768 0.40242
 C449 C -0.02628 0.24141 0.34532
 C450 C -0.04177 0.24409 0.33273
 C451 C -0.04746 0.27528 0.34733
 C452 C -0.03187 0.27198 0.35967
 N453 N -0.02178 0.25516 0.35860
 H454 H 0.03211 0.27799 0.37981
 H455 H -0.02252 0.26800 0.40503
 H456 H -0.01798 0.29548 0.42721
 H457 H 0.03795 0.30543 0.40151
 H458 H -0.01777 0.22832 0.34454
 H459 H -0.04503 0.23303 0.32217
 H460 H -0.05551 0.28862 0.34862
 H461 H -0.02784 0.28293 0.37001
 C462 C 0.05206 0.23963 0.33385
 C463 C -0.01119 0.19804 0.41597
 C464 C -0.05263 0.26120 0.33367
 C465 C 0.01037 0.30282 0.41610
 C466 C -0.00902 0.72379 0.09513
 H467 H -0.02207 0.73233 0.09431
 C468 C -0.00635 0.70826 0.08256
 H469 H -0.01739 0.70500 0.07200
 C470 C 0.02148 0.71818 0.10952
 H471 H 0.03241 0.72223 0.11986
 C472 C 0.02476 0.70254 0.09721
 H473 H 0.03807 0.69447 0.09852
 N474 N 0.00470 0.72831 0.10841
 C475 C -0.02590 0.75908 0.15400
 H476 H -0.01743 0.77220 0.15469
 C477 C -0.04138 0.75644 0.16660
 H478 H -0.04492 0.76775 0.17680
 C479 C -0.03156 0.72849 0.13972
 H480 H -0.02748 0.71746 0.12948
 C481 C -0.04716 0.72525 0.15204
 H482 H -0.05493 0.71170 0.15112
 Zn483 Zn 0.00007 0.74989 0.12456
 N484 N -0.02143 0.74530 0.14076
 C485 C -0.02128 0.78156 0.10934
 N486 N -0.00453 0.77138 0.10828
 C487 C 0.00921 0.77582 0.09500
 C488 C 0.00658 0.79133 0.08239
 C489 C -0.02450 0.79719 0.09700
 C490 C 0.02604 0.74087 0.15410
 C491 C 0.04152 0.74360 0.16671
 C492 C 0.04724 0.77473 0.15200
 C493 C 0.03166 0.77140 0.13966
 N494 N 0.02156 0.75458 0.14077
 H495 H -0.03227 0.77750 0.11960
 H496 H 0.02228 0.76731 0.09430
 H497 H 0.01786 0.79484 0.07217
 H498 H -0.03800 0.80501 0.09795
 H499 H 0.01752 0.72779 0.15492
 H500 H 0.04476 0.73256 0.17730
 H501 H 0.05529 0.78808 0.15069
 H502 H 0.02764 0.78232 0.12929
 C503 C -0.05228 0.73935 0.16569
 C504 C 0.01072 0.69737 0.08353
 C505 C 0.05238 0.76071 0.16573
 C506 C -0.01044 0.80229 0.08333
 C507 C 0.49101 0.22354 0.59607
 H508 H 0.47790 0.23200 0.59535
 C509 C 0.49370 0.20805 0.58345
 H510 H 0.48244 0.20450 0.57322
 C511 C 0.52153 0.21793 0.61042
 H512 H 0.53250 0.22204 0.62069
 C513 C 0.52481 0.20232 0.59809
 H514 H 0.53834 0.19457 0.59903
 N515 N 0.50473 0.22804 0.60935
 C516 C 0.47413 0.25863 0.65507
 H517 H 0.48264 0.27171 0.65587
 C518 C 0.45864 0.25594 0.66765
 H519 H 0.45539 0.26701 0.67821
 C520 C 0.46851 0.22806 0.64072
 H521 H 0.47254 0.21711 0.63038
 C522 C 0.45292 0.22476 0.65304
 H523 H 0.44487 0.21142 0.65175
 Zn524 Zn 0.50009 0.24956 0.62558
 N525 N 0.47862 0.24488 0.64180
 C526 C 0.47862 0.28120 0.61047
 N527 N 0.49541 0.27109 0.60938
 C528 C 0.50911 0.27560 0.59608
 C529 C 0.50639 0.29110 0.58347
 C530 C 0.47531 0.29683 0.59815
 C531 C 0.52611 0.24046 0.65504
 C532 C 0.54163 0.24314 0.66760
 C533 C 0.54732 0.27433 0.65300
 C534 C 0.53170 0.27104 0.64069
 N535 N 0.52160 0.25422 0.64177
 H536 H 0.46767 0.27709 0.62075
 H537 H 0.52221 0.26714 0.59534
 H538 H 0.51763 0.29466 0.57322
 H539 H 0.46179 0.30458 0.59912
 H540 H 0.51759 0.22738 0.65583
 H541 H 0.54490 0.23206 0.67814
 H542 H 0.55538 0.28767 0.65170
 H543 H 0.52765 0.28200 0.63036
 C544 C 0.44777 0.23883 0.66671
 C545 C 0.51077 0.19717 0.58440
 C546 C 0.55250 0.26024 0.66665
 C547 C 0.48932 0.30199 0.58444
 C548 C 0.50910 0.72463 0.90480
 H549 H 0.52220 0.73310 0.90557
 C550 C 0.50637 0.70912 0.91740
 H551 H 0.51759 0.70556 0.92767
 C552 C 0.47864 0.71900 0.89034
 H553 H 0.46770 0.72310 0.88003
 C554 C 0.47531 0.70337 0.90264
 H555 H 0.46179 0.69560 0.90164
 N556 N 0.49542 0.72912 0.89147
 C557 C 0.52619 0.75965 0.84580
 H558 H 0.51770 0.77274 0.84497
 C559 C 0.54167 0.75690 0.83322
 H560 H 0.54495 0.76794 0.82264
 C561 C 0.53171 0.72909 0.86022
 H562 H 0.52765 0.71817 0.87057
 C563 C 0.54729 0.72574 0.84790
 H564 H 0.55531 0.71238 0.84922
 Zn565 Zn 0.50014 0.75063 0.87525
 N566 N 0.52165 0.74593 0.85910
 C567 C 0.52153 0.78234 0.89037
 N568 N 0.50477 0.77218 0.89145
 C569 C 0.49103 0.77666 0.90471
 C570 C 0.49366 0.79222 0.91727
 C571 C 0.52477 0.79800 0.90267
 C572 C 0.47419 0.74155 0.84571
 C573 C 0.45873 0.74425 0.83308
 C574 C 0.45304 0.77544 0.84767
 C575 C 0.46860 0.77213 0.86003
 N576 N 0.47868 0.75530 0.85899
 H577 H 0.53247 0.77832 0.88005
 H578 H 0.47799 0.76810 0.90550
 H579 H 0.48260 0.79546 0.92780
 H580 H 0.53807 0.80611 0.90138
 H581 H 0.48269 0.72846 0.84494
 H582 H 0.45548 0.73319 0.82252
 H583 H 0.44500 0.78879 0.84894
 H584 H 0.47263 0.78308 0.87038
 C585 C 0.55249 0.73977 0.83420
 C586 C 0.48931 0.69821 0.91638
 C587 C 0.44788 0.76137 0.83400
 C588 C 0.51070 0.80316 0.91631
 C589 C 0.14547 0.22128 0.25927
 C590 C 0.14860 0.23375 0.24369
 C591 C 0.16415 0.23067 0.23123
 C592 C 0.17681 0.21504 0.23418
 C593 C 0.17352 0.20258 0.24992
 C594 C 0.15796 0.20570 0.26236
 C595 C 0.12944 0.22445 0.27207
 C596 C 0.11601 0.22710 0.28279
 C597 C 0.09997 0.23024 0.29559
 C598 C 0.09693 0.24850 0.30371
 C599 C 0.08135 0.25157 0.31615
 C600 C 0.06860 0.23638 0.32063
 C601 C 0.07180 0.21808 0.31237
 C602 C 0.08738 0.21505 0.29994
 H603 H 0.13901 0.24586 0.24117
 H604 H 0.16623 0.24055 0.21928
 H605 H 0.18295 0.19041 0.25264
 H606 H 0.15566 0.19595 0.27438
 H607 H 0.10663 0.26035 0.30048
 H608 H 0.07943 0.26575 0.32246
 H609 H 0.06210 0.20617 0.31533
 H610 H 0.08957 0.20087 0.29368
 C611 C 0.64563 0.72131 0.75931
 C612 C 0.64878 0.73385 0.74379
 C613 C 0.66429 0.73076 0.73127
 C614 C 0.67688 0.71504 0.73411
 C615 C 0.67356 0.70252 0.74979
 C616 C 0.65804 0.70566 0.76229
 C617 C 0.62966 0.72451 0.77217
 C618 C 0.61627 0.72717 0.78295
 C619 C 0.60028 0.73033 0.79580
 C620 C 0.59725 0.74861 0.80389
 C621 C 0.58171 0.75169 0.81637
 C622 C 0.56900 0.73651 0.82094
 C623 C 0.57218 0.71818 0.81273
 C624 C 0.58772 0.71514 0.80024
 H625 H 0.63926 0.74602 0.74136
 H626 H 0.66638 0.74068 0.71937
 H627 H 0.68294 0.69029 0.75243
 H628 H 0.65573 0.69586 0.77426
 H629 H 0.60692 0.76046 0.80059
 H630 H 0.57980 0.76589 0.82265
 H631 H 0.56251 0.70627 0.81574
 H632 H 0.58990 0.70094 0.79401
 C633 C 0.35460 0.77946 0.75910
 C634 C 0.35144 0.76688 0.74362
 C635 C 0.33589 0.76990 0.73112
 C636 C 0.32328 0.78559 0.73394
 C637 C 0.32660 0.79816 0.74958
 C638 C 0.34216 0.79509 0.76206
 C639 C 0.37061 0.77633 0.77195
 C640 C 0.38403 0.77372 0.78271
 C641 C 0.40005 0.77062 0.79556
 C642 C 0.40313 0.75237 0.80369
 C643 C 0.41868 0.74934 0.81618
 C644 C 0.43137 0.76457 0.82071
 C645 C 0.42814 0.78286 0.81245
 C646 C 0.41258 0.78585 0.79996
 H647 H 0.36099 0.75472 0.74120
 H648 H 0.33379 0.75994 0.71925
 H649 H 0.31721 0.81037 0.75221
 H650 H 0.34448 0.80492 0.77400
 H651 H 0.39348 0.74049 0.80043
 H652 H 0.42063 0.73516 0.82250
 H653 H 0.43779 0.79480 0.81544
 H654 H 0.41036 0.80003 0.79369
 C655 C -0.14617 0.27906 0.25903
 C656 C -0.14933 0.26648 0.24357
 C657 C -0.16492 0.26943 0.23111
 C658 C -0.17766 0.28509 0.23393
 C659 C -0.17426 0.29766 0.24962
 C660 C -0.15865 0.29464 0.26203
 C661 C -0.13011 0.27598 0.27184
 C662 C -0.11665 0.27341 0.28256
 C663 C -0.10059 0.27035 0.29537
 C664 C -0.09746 0.25211 0.30350
 C665 C -0.08186 0.24912 0.31594
 C666 C -0.06919 0.26437 0.32043
 C667 C -0.07247 0.28266 0.31217
 C668 C -0.08807 0.28561 0.29972
 H669 H -0.13974 0.25436 0.24113
 H670 H -0.16691 0.25939 0.21929
 H671 H -0.18362 0.30988 0.25239
 H672 H -0.15632 0.30447 0.27397
 H673 H -0.10710 0.24021 0.30027
 H674 H -0.07987 0.23494 0.32226
 H675 H -0.06284 0.29461 0.31513
 H676 H -0.09034 0.29978 0.29345
 C677 C -0.14554 0.72138 0.24058
 C678 C -0.14856 0.73387 0.25617
 C679 C -0.16409 0.73085 0.26869
 C680 C -0.17682 0.71526 0.26577
 C681 C -0.17364 0.70279 0.25004
 C682 C -0.15810 0.70585 0.23755
 C683 C -0.12954 0.72449 0.22772
 C684 C -0.11614 0.72709 0.21695
 C685 C -0.10014 0.73018 0.20410
 C686 C -0.08322 0.73888 0.21089
 C687 C -0.06766 0.74188 0.19842
 C688 C -0.06881 0.73619 0.17896
 C689 C -0.08589 0.72745 0.17227
 C690 C -0.10144 0.72448 0.18477
 H691 H -0.13892 0.74594 0.25865
 H692 H -0.16608 0.74073 0.28063
 H693 H -0.18313 0.69065 0.24734
 H694 H -0.15589 0.69609 0.22552
 H695 H -0.08204 0.74330 0.22585
 H696 H -0.05463 0.74840 0.20407
 H697 H -0.08732 0.72314 0.15732
 H698 H -0.11449 0.71778 0.17934
 C699 C 0.35422 0.22084 0.74122
 C700 C 0.34171 0.20529 0.73812
 C701 C 0.32608 0.20222 0.75050
 C702 C 0.32270 0.21470 0.76625
 C703 C 0.33546 0.23033 0.76917
 C704 C 0.35107 0.23334 0.75675
 C705 C 0.37029 0.22395 0.72846
 C706 C 0.38376 0.22655 0.71776
 C707 C 0.39982 0.22964 0.70498
 C708 C 0.41234 0.21439 0.70063
 C709 C 0.42793 0.21736 0.68819
 C710 C 0.43122 0.23566 0.67994
 C711 C 0.41855 0.25090 0.68443
 C712 C 0.40295 0.24789 0.69686
 H713 H 0.34403 0.19552 0.72613
 H714 H 0.31670 0.19002 0.74764
 H715 H 0.33348 0.24031 0.78104
 H716 H 0.36068 0.24543 0.75927
 H717 H 0.41008 0.20022 0.70689
 H718 H 0.43757 0.20541 0.68523
 H719 H 0.42054 0.26507 0.67812
 H720 H 0.39332 0.25978 0.70009
 C721 C 0.64614 0.27810 0.74116
 C722 C 0.65859 0.29374 0.73818
 C723 C 0.67422 0.29676 0.75058
 C724 C 0.67761 0.28415 0.76617
 C725 C 0.66498 0.26846 0.76902
 C726 C 0.64937 0.26548 0.75659
 C727 C 0.63006 0.27502 0.72838
 C728 C 0.61659 0.27245 0.71768
 C729 C 0.60052 0.26938 0.70489
 C730 C 0.58800 0.28464 0.70055
 C731 C 0.57238 0.28169 0.68812
 C732 C 0.56908 0.26340 0.67986
 C733 C 0.58175 0.24816 0.68433
 C734 C 0.59736 0.25115 0.69676
 H735 H 0.65622 0.30360 0.72626
 H736 H 0.68362 0.30897 0.74793
 H737 H 0.66713 0.25846 0.78085
 H738 H 0.63981 0.25332 0.75903
 H739 H 0.59028 0.29881 0.70682
 H740 H 0.56275 0.29365 0.68518
 H741 H 0.57975 0.23398 0.67801
 H742 H 0.60700 0.23925 0.69998
 C743 C 0.14562 0.77900 0.24064
 C744 C 0.14870 0.76650 0.25620
 C745 C 0.16423 0.76955 0.26872
 C746 C 0.17691 0.78518 0.26583
 C747 C 0.17366 0.79767 0.25012
 C748 C 0.15812 0.79458 0.23763
 C749 C 0.12962 0.77585 0.22778
 C750 C 0.11622 0.77321 0.21701
 C751 C 0.10021 0.77007 0.20415
 C752 C 0.09712 0.75180 0.19608
 C753 C 0.08157 0.74873 0.18359
 C754 C 0.06890 0.76394 0.17900
 C755 C 0.07214 0.78227 0.18720
 C756 C 0.08769 0.78529 0.19970
 H757 H 0.13910 0.75439 0.25867
 H758 H 0.16627 0.75964 0.28065
 H759 H 0.18311 0.80984 0.24744
 H760 H 0.15586 0.80436 0.22562
 H761 H 0.10676 0.73993 0.19939
 H762 H 0.07961 0.73453 0.17733
 H763 H 0.06250 0.79420 0.18417
 H764 H 0.08992 0.79949 0.20591
 C765 C 0.25895 0.14558 0.22137
 C766 C 0.24344 0.14876 0.23387
 C767 C 0.23097 0.16434 0.23080
 C768 C 0.23387 0.17698 0.21513
 C769 C 0.24954 0.17364 0.20265
 C770 C 0.26198 0.15805 0.20576
 C771 C 0.27175 0.12952 0.22454
 C772 C 0.28248 0.11607 0.22717
 C773 C 0.29529 0.10000 0.23029
 C774 C 0.30339 0.09690 0.24853
 C775 C 0.31584 0.08130 0.25157
 C776 C 0.32037 0.06859 0.23638
 C777 C 0.31213 0.07184 0.21809
 C778 C 0.29967 0.08744 0.21509
 H779 H 0.24097 0.13920 0.24600
 H780 H 0.21908 0.16646 0.24069
 H781 H 0.25221 0.18305 0.19045
 H782 H 0.27395 0.15571 0.19599
 H783 H 0.30013 0.10657 0.26038
 H784 H 0.32214 0.07933 0.26574
 H785 H 0.31512 0.06218 0.20618
 H786 H 0.29343 0.08968 0.20093
 C787 C 0.75871 0.64532 0.72086
 C788 C 0.76181 0.65788 0.70535
 C789 C 0.74942 0.67353 0.70231
 C790 C 0.73372 0.67683 0.71477
 C791 C 0.73075 0.66408 0.73034
 C792 C 0.74316 0.64845 0.73334
 C793 C 0.77148 0.62922 0.72397
 C794 C 0.78219 0.61574 0.72659
 C795 C 0.79497 0.59966 0.72972
 C796 C 0.81431 0.60089 0.72407
 C797 C 0.82675 0.58528 0.72711
 C798 C 0.82000 0.56822 0.73588
 C799 C 0.80052 0.56714 0.74151
 C800 C 0.78810 0.58277 0.73844
 H801 H 0.77381 0.65559 0.69560
 H802 H 0.75215 0.68302 0.69019
 H803 H 0.71883 0.66616 0.74022
 H804 H 0.74064 0.63880 0.74539
 H805 H 0.81979 0.61393 0.71736
 H806 H 0.84171 0.58666 0.72285
 H807 H 0.79482 0.55413 0.74805
 H808 H 0.77314 0.58165 0.74282
 C809 C 0.75915 0.35289 0.77935
 C810 C 0.76232 0.34026 0.79478
 C811 C 0.74993 0.32461 0.79783
 C812 C 0.73409 0.32132 0.78545
 C813 C 0.73110 0.33420 0.76993
 C814 C 0.74354 0.34983 0.76695
 C815 C 0.77192 0.36900 0.77624
 C816 C 0.78261 0.38250 0.77363
 C817 C 0.79535 0.39862 0.77049
 C818 C 0.81469 0.39747 0.77617
 C819 C 0.82708 0.41312 0.77312
 C820 C 0.82028 0.43014 0.76432
 C821 C 0.80081 0.43114 0.75867
 C822 C 0.78844 0.41548 0.76174
 H823 H 0.77439 0.34251 0.80447
 H824 H 0.75284 0.31514 0.80993
 H825 H 0.71916 0.33230 0.76003
 H826 H 0.74096 0.35954 0.75495
 H827 H 0.82020 0.38446 0.78291
 H828 H 0.84205 0.41180 0.77741
 H829 H 0.79507 0.44413 0.75210
 H830 H 0.77348 0.41654 0.75734
 C831 C 0.25860 -0.14623 0.27909
 C832 C 0.26161 -0.15875 0.29464
 C833 C 0.24913 -0.17433 0.29772
 C834 C 0.23337 -0.17765 0.28524
 C835 C 0.23054 -0.16488 0.26961
 C836 C 0.24306 -0.14932 0.26659
 C837 C 0.27146 -0.13020 0.27595
 C838 C 0.28224 -0.11678 0.27334
 C839 C 0.29510 -0.10075 0.27023
 C840 C 0.31444 -0.10207 0.27585
 C841 C 0.32695 -0.08650 0.27285
 C842 C 0.32025 -0.06938 0.26416
 C843 C 0.30077 -0.06820 0.25856
 C844 C 0.28829 -0.08379 0.26159
 H845 H 0.27361 -0.15648 0.30440
 H846 H 0.25191 -0.18372 0.30991
 H847 H 0.21867 -0.16681 0.25964
 H848 H 0.24061 -0.13970 0.25450
 H849 H 0.31987 -0.11515 0.28251
 H850 H 0.34191 -0.08795 0.27709
 H851 H 0.29511 -0.05514 0.25208
 H852 H 0.27332 -0.08259 0.25724
 C853 C 0.24181 -0.14563 0.72052
 C854 C 0.23874 -0.15821 0.70503
 C855 C 0.25115 -0.17384 0.70200
 C856 C 0.26692 -0.17716 0.71446
 C857 C 0.26982 -0.16432 0.73003
 C858 C 0.25737 -0.14871 0.73300
 C859 C 0.22901 -0.12956 0.72360
 C860 C 0.21828 -0.11610 0.72619
 C861 C 0.20545 -0.10005 0.72926
 C862 C 0.18611 -0.10135 0.72365
 C863 C 0.17363 -0.08576 0.72663
 C864 C 0.18036 -0.06864 0.73529
 C865 C 0.19985 -0.06748 0.74088
 C866 C 0.21230 -0.08309 0.73788
 H867 H 0.22672 -0.15595 0.69528
 H868 H 0.24831 -0.18327 0.68986
 H869 H 0.28171 -0.16625 0.73999
 H870 H 0.25987 -0.13905 0.74504
 H871 H 0.18065 -0.11444 0.71702
 H872 H 0.15867 -0.08720 0.72240
 H873 H 0.20553 -0.05442 0.74734
 H874 H 0.22727 -0.08191 0.74223
 C875 C 0.74086 0.35419 0.22144
 C876 C 0.73773 0.34154 0.20600
 C877 C 0.75018 0.32594 0.20296
 C878 C 0.76596 0.32278 0.21536
 C879 C 0.76897 0.33560 0.23085
 C880 C 0.75649 0.35119 0.23385
 C881 C 0.72803 0.37024 0.22453
 C882 C 0.71728 0.38368 0.22714
 C883 C 0.70445 0.39971 0.23025
 C884 C 0.68511 0.39842 0.22461
 C885 C 0.67262 0.41400 0.22762
 C886 C 0.67934 0.43109 0.23634
 C887 C 0.69881 0.43224 0.24197
 C888 C 0.71127 0.41665 0.23893
 H889 H 0.72566 0.34373 0.19630
 H890 H 0.74741 0.31639 0.19090
 H891 H 0.78095 0.33362 0.24068
 H892 H 0.75905 0.36090 0.24585
 H893 H 0.67966 0.38536 0.21792
 H894 H 0.65766 0.41257 0.22335
 H895 H 0.70448 0.44528 0.24849
 H896 H 0.72623 0.41782 0.24331
 C897 C 0.74093 0.64595 0.27900
 C898 C 0.73791 0.65851 0.29452
 C899 C 0.75040 0.67410 0.29756
 C900 C 0.76610 0.67732 0.28509
 C901 C 0.76899 0.66458 0.26951
 C902 C 0.75649 0.64901 0.26651
 C903 C 0.72808 0.62991 0.27590
 C904 C 0.71731 0.61647 0.27331
 C905 C 0.70447 0.60042 0.27022
 C906 C 0.68514 0.60170 0.27591
 C907 C 0.67265 0.58611 0.27293
 C908 C 0.67934 0.56902 0.26419
 C909 C 0.69880 0.56789 0.25852
 C910 C 0.71127 0.58349 0.26153
 H911 H 0.72591 0.65627 0.30427
 H912 H 0.74772 0.68359 0.30968
 H913 H 0.78091 0.66661 0.25962
 H914 H 0.75895 0.63936 0.25445
 H915 H 0.67972 0.61476 0.28260
 H916 H 0.65771 0.58753 0.27722
 H917 H 0.70445 0.55485 0.25200
 H918 H 0.72622 0.58233 0.25713
 C919 C 0.24171 0.14630 0.77831
 C920 C 0.25733 0.14940 0.76593
 C921 C 0.26983 0.16495 0.76903
 C922 C 0.26689 0.17774 0.78463
 C923 C 0.25104 0.17441 0.79699
 C924 C 0.23860 0.15883 0.79382
 C925 C 0.22888 0.13027 0.77509
 C926 C 0.21813 0.11683 0.77241
 C927 C 0.20530 0.10079 0.76923
 C928 C 0.21213 0.08390 0.76049
 C929 C 0.19969 0.06829 0.75742
 C930 C 0.18022 0.06939 0.76306
 C931 C 0.17350 0.08645 0.77183
 C932 C 0.18597 0.10204 0.77488
 H933 H 0.25987 0.13977 0.75387
 H934 H 0.28177 0.16689 0.75915
 H935 H 0.24818 0.18381 0.80915
 H936 H 0.22653 0.15656 0.80349
 H937 H 0.22709 0.08276 0.75611
 H938 H 0.20536 0.05527 0.75087
 H939 H 0.15854 0.08784 0.77611
 H940 H 0.18052 0.11508 0.78160
 C941 C 0.22080 0.25907 0.14555
 C942 C 0.23331 0.24353 0.14873
 C943 C 0.23029 0.23109 0.16434
 C944 C 0.21468 0.23404 0.17700
 C945 C 0.20219 0.24973 0.17365
 C946 C 0.20525 0.26215 0.15803
 C947 C 0.22392 0.27186 0.12947
 C948 C 0.22653 0.28259 0.11601
 C949 C 0.22963 0.29539 0.09994
 C950 C 0.24786 0.30350 0.09682
 C951 C 0.25089 0.31596 0.08123
 C952 C 0.23569 0.32048 0.06854
 C953 C 0.21742 0.31225 0.07180
 C954 C 0.21443 0.29978 0.08740
 H955 H 0.24539 0.24103 0.13915
 H956 H 0.24019 0.21918 0.16646
 H957 H 0.19004 0.25245 0.18308
 H958 H 0.19548 0.27414 0.15569
 H959 H 0.25972 0.30024 0.10648
 H960 H 0.26506 0.32225 0.07925
 H961 H 0.20550 0.31524 0.06215
 H962 H 0.20027 0.29354 0.08965
 C963 C 0.72094 0.75936 0.64565
 C964 C 0.73337 0.74374 0.64873
 C965 C 0.73032 0.73122 0.66427
 C966 C 0.71474 0.73417 0.67697
 C967 C 0.70232 0.74994 0.67373
 C968 C 0.70542 0.76243 0.65818
 C969 C 0.72409 0.77222 0.62964
 C970 C 0.72672 0.78300 0.61623
 C971 C 0.72986 0.79587 0.60021
 C972 C 0.74808 0.80403 0.59719
 C973 C 0.75114 0.81653 0.58163
 C974 C 0.73598 0.82104 0.56889
 C975 C 0.71771 0.81275 0.57206
 C976 C 0.71469 0.80024 0.58762
 H977 H 0.74543 0.74123 0.63911
 H978 H 0.74016 0.71925 0.66631
 H979 H 0.69020 0.75267 0.68320
 H980 H 0.69570 0.77449 0.65592
 H981 H 0.75990 0.80078 0.60688
 H982 H 0.76529 0.82287 0.57973
 H983 H 0.70583 0.81572 0.56236
 H984 H 0.70054 0.79395 0.58979
 C985 C 0.77936 0.75966 0.35431
 C986 C 0.76689 0.74405 0.35125
 C987 C 0.76988 0.73155 0.33569
 C988 C 0.78543 0.73450 0.32295
 C989 C 0.79788 0.75026 0.32617
 C990 C 0.79485 0.76273 0.34175
 C991 C 0.77626 0.77250 0.37034
 C992 C 0.77364 0.78325 0.38378
 C993 C 0.77051 0.79608 0.39982
 C994 C 0.76179 0.78920 0.41669
 C995 C 0.75871 0.80164 0.43228
 C996 C 0.76434 0.82116 0.43120
 C997 C 0.77310 0.82792 0.41417
 C998 C 0.77616 0.81545 0.39860
 H999 H 0.75485 0.74154 0.36090
 H1000 H 0.76001 0.71959 0.33367
 H1001 H 0.80998 0.75297 0.31668
 H1002 H 0.80459 0.77478 0.34399
 H1003 H 0.75741 0.77420 0.41781
 H1004 H 0.75217 0.79593 0.44527
 H1005 H 0.77737 0.84292 0.41280
 H1006 H 0.78287 0.82094 0.38558
 C1007 C 0.27906 0.25923 -0.14615
 C1008 C 0.26660 0.24363 -0.14931
 C1009 C 0.26969 0.23114 -0.16486
 C1010 C 0.28533 0.23409 -0.17749
 C1011 C 0.29777 0.24983 -0.17417
 C1012 C 0.29464 0.26230 -0.15861
 C1013 C 0.27587 0.27206 -0.13013
 C1014 C 0.27320 0.28280 -0.11670
 C1015 C 0.27002 0.29562 -0.10066
 C1016 C 0.26130 0.28873 -0.08380
 C1017 C 0.25821 0.30116 -0.06821
 C1018 C 0.26382 0.32069 -0.06928
 C1019 C 0.27259 0.32746 -0.08630
 C1020 C 0.27565 0.31500 -0.10188
 H1021 H 0.25449 0.24113 -0.13975
 H1022 H 0.25983 0.21919 -0.16696
 H1023 H 0.30994 0.25255 -0.18357
 H1024 H 0.30438 0.27433 -0.15629
 H1025 H 0.25694 0.27373 -0.08269
 H1026 H 0.25167 0.29544 -0.05522
 H1027 H 0.27684 0.34246 -0.08767
 H1028 H 0.28236 0.32050 -0.11489
 C1029 C 0.72214 0.23933 -0.14584
 C1030 C 0.73462 0.25492 -0.14895
 C1031 C 0.73151 0.26749 -0.16443
 C1032 C 0.71584 0.26464 -0.17705
 C1033 C 0.70338 0.24889 -0.17379
 C1034 C 0.70653 0.23634 -0.15829
 C1035 C 0.72533 0.22643 -0.12986
 C1036 C 0.72798 0.21564 -0.11646
 C1037 C 0.73115 0.20279 -0.10045
 C1038 C 0.74982 0.19654 -0.09600
 C1039 C 0.75292 0.18412 -0.08039
 C1040 C 0.73735 0.17776 -0.06902
 C1041 C 0.71862 0.18410 -0.07364
 C1042 C 0.71556 0.19653 -0.08925
 H1043 H 0.74675 0.25736 -0.13939
 H1044 H 0.74139 0.27944 -0.16649
 H1045 H 0.69118 0.24624 -0.18319
 H1046 H 0.69678 0.22432 -0.15601
 H1047 H 0.76199 0.20126 -0.10461
 H1048 H 0.76747 0.17930 -0.07737
 H1049 H 0.70637 0.17967 -0.06502
 H1050 H 0.70104 0.20133 -0.09253
 C1051 C 0.22076 0.74086 0.35441
 C1052 C 0.20521 0.73784 0.34190
 C1053 C 0.20218 0.75031 0.32631
 C1054 C 0.21469 0.76600 0.32303
 C1055 C 0.23029 0.76890 0.33572
 C1056 C 0.23329 0.75641 0.35129
 C1057 C 0.22385 0.72802 0.37046
 C1058 C 0.22645 0.71726 0.38389
 C1059 C 0.22955 0.70440 0.39992
 C1060 C 0.21436 0.70003 0.41248
 C1061 C 0.21736 0.68754 0.42805
 C1062 C 0.23562 0.67925 0.43127
 C1063 C 0.25079 0.68375 0.41856
 C1064 C 0.24776 0.69624 0.40299
 H1065 H 0.19542 0.72584 0.34419
 H1066 H 0.19003 0.74763 0.31686
 H1067 H 0.24021 0.78081 0.33365
 H1068 H 0.24537 0.75888 0.36090
 H1069 H 0.20022 0.70632 0.41027
 H1070 H 0.20546 0.68457 0.43772
 H1071 H 0.26494 0.67742 0.42050
 H1072 H 0.25960 0.69949 0.39331
 C1073 C 0.27907 0.74103 0.64564
 C1074 C 0.26666 0.75668 0.64867
 C1075 C 0.26974 0.76922 0.66419
 C1076 C 0.28531 0.76627 0.67691
 C1077 C 0.29770 0.75047 0.67372
 C1078 C 0.29458 0.73795 0.65819
 C1079 C 0.27589 0.72814 0.62966
 C1080 C 0.27323 0.71736 0.61626
 C1081 C 0.27005 0.70449 0.60026
 C1082 C 0.26132 0.71132 0.58338
 C1083 C 0.25822 0.69883 0.56782
 C1084 C 0.26383 0.67932 0.56896
 C1085 C 0.27261 0.67260 0.58600
 C1086 C 0.27568 0.68511 0.60154
 H1087 H 0.25461 0.75919 0.63904
 H1088 H 0.25991 0.78122 0.66619
 H1089 H 0.30981 0.74775 0.68321
 H1090 H 0.30428 0.72587 0.65598
 H1091 H 0.25696 0.72631 0.58221
 H1092 H 0.25168 0.70451 0.55481
 H1093 H 0.27686 0.65761 0.58742
 H1094 H 0.28240 0.67966 0.61457
 C1095 C 0.77879 0.24010 0.14647
 C1096 C 0.76633 0.25571 0.14952
 C1097 C 0.76940 0.26828 0.16501
 C1098 C 0.78501 0.26540 0.17770
 C1099 C 0.79745 0.24964 0.17450
 C1100 C 0.79434 0.23709 0.15899
 C1101 C 0.77565 0.22720 0.13049
 C1102 C 0.77303 0.21641 0.11709
 C1103 C 0.76993 0.20353 0.10108
 C1104 C 0.76420 0.21089 0.08317
 C1105 C 0.76124 0.19841 0.06758
 C1106 C 0.76400 0.17837 0.06971
 C1107 C 0.76976 0.17112 0.08780
 C1108 C 0.77269 0.18363 0.10337
 H1109 H 0.75425 0.25817 0.13990
 H1110 H 0.75954 0.28024 0.16701
 H1111 H 0.80960 0.24697 0.18395
 H1112 H 0.80408 0.22505 0.15677
 H1113 H 0.76208 0.22628 0.08122
 H1114 H 0.75708 0.20447 0.05379
 H1115 H 0.77176 0.15575 0.08997
 H1116 H 0.77708 0.17778 0.11719
 C1117 C 0.47096 0.39539 0.50957
 C1118 C 0.48343 0.39848 0.49400
 C1119 C 0.48038 0.41404 0.48149
 C1120 C 0.46478 0.42674 0.48439
 C1121 C 0.45233 0.42349 0.50012
 C1122 C 0.45542 0.40791 0.51260
 C1123 C 0.47411 0.37936 0.52243
 C1124 C 0.47676 0.36594 0.53320
 C1125 C 0.47993 0.34991 0.54605
 C1126 C 0.48861 0.33298 0.53922
 C1127 C 0.49168 0.31740 0.55169
 C1128 C 0.48609 0.31854 0.57118
 C1129 C 0.47737 0.33563 0.57789
 C1130 C 0.47433 0.35120 0.56540
 H1131 H 0.49551 0.38886 0.49152
 H1132 H 0.49025 0.41609 0.46956
 H1133 H 0.44019 0.43295 0.50280
 H1134 H 0.44568 0.40565 0.52462
 H1135 H 0.49295 0.33181 0.52425
 H1136 H 0.49818 0.30436 0.54602
 H1137 H 0.47314 0.33705 0.59286
 H1138 H 0.46764 0.36426 0.57085
 C1139 C -0.02794 0.89606 0.00871
 C1140 C -0.04335 0.90873 0.01183
 C1141 C -0.04632 0.92438 -0.00058
 C1142 C -0.03388 0.92757 -0.01632
 C1143 C -0.01841 0.91473 -0.01932
 C1144 C -0.01548 0.89909 -0.00688
 C1145 C -0.02492 0.87995 0.02150
 C1146 C -0.02240 0.86646 0.03222
 C1147 C -0.01941 0.85037 0.04503
 C1148 C -0.02507 0.85164 0.06436
 C1149 C -0.02218 0.83602 0.07682
 C1150 C -0.01355 0.81889 0.07009
 C1151 C -0.00790 0.81776 0.05062
 C1152 C -0.01083 0.83340 0.03818
 H1153 H -0.05308 0.90651 0.02386
 H1154 H -0.05836 0.93395 0.00217
 H1155 H -0.00855 0.91673 -0.03126
 H1156 H -0.00351 0.88937 -0.00942
 H1157 H -0.03169 0.86473 0.06982
 H1158 H -0.02645 0.83743 0.09178
 H1159 H -0.00146 0.80469 0.04493
 H1160 H -0.00644 0.83224 0.02322
 C1161 C 0.02868 0.60387 0.00872
 C1162 C 0.04424 0.59137 0.01171
 C1163 C 0.04732 0.57579 -0.00075
 C1164 C 0.03482 0.57243 -0.01649
 C1165 C 0.01917 0.58518 -0.01930
 C1166 C 0.01616 0.60074 -0.00680
 C1167 C 0.02557 0.61991 0.02156
 C1168 C 0.02298 0.63335 0.03232
 C1169 C 0.01991 0.64940 0.04516
 C1170 C 0.03513 0.66194 0.04957
 C1171 C 0.03216 0.67753 0.06204
 C1172 C 0.01390 0.68080 0.07028
 C1173 C -0.00131 0.66811 0.06575
 C1174 C 0.00169 0.65251 0.05327
 H1175 H 0.05403 0.59368 0.02369
 H1176 H 0.05952 0.56642 0.00202
 H1177 H 0.00918 0.58321 -0.03116
 H1178 H 0.00406 0.61034 -0.00924
 H1179 H 0.04927 0.65969 0.04332
 H1180 H 0.04409 0.68718 0.06504
 H1181 H -0.01547 0.67008 0.07205
 H1182 H -0.01018 0.64286 0.05000
 C1183 C 0.52901 0.10382 0.50948
 C1184 C 0.51654 0.10072 0.49391
 C1185 C 0.51960 0.08517 0.48139
 C1186 C 0.53522 0.07249 0.48429
 C1187 C 0.54768 0.07576 0.50001
 C1188 C 0.54458 0.09131 0.51250
 C1189 C 0.52585 0.11983 0.52234
 C1190 C 0.52321 0.13325 0.53311
 C1191 C 0.52007 0.14927 0.54597
 C1192 C 0.51138 0.16620 0.53917
 C1193 C 0.50834 0.18178 0.55164
 C1194 C 0.51397 0.18062 0.57112
 C1195 C 0.52270 0.16353 0.57782
 C1196 C 0.52572 0.14797 0.56532
 H1197 H 0.50444 0.11031 0.49144
 H1198 H 0.50972 0.08311 0.46946
 H1199 H 0.55984 0.06631 0.50269
 H1200 H 0.55433 0.09359 0.52451
 H1201 H 0.50700 0.16738 0.52420
 H1202 H 0.50182 0.19482 0.54599
 H1203 H 0.52697 0.16210 0.59278
 H1204 H 0.53242 0.13490 0.57075
 C1205 C -0.02940 0.10451 0.49071
 C1206 C -0.01688 0.10140 0.50623
 C1207 C -0.01987 0.08582 0.51872
 C1208 C -0.03548 0.07311 0.51585
 C1209 C -0.04799 0.07638 0.50017
 C1210 C -0.04496 0.09198 0.48771
 C1211 C -0.02630 0.12056 0.47787
 C1212 C -0.02369 0.13401 0.46712
 C1213 C -0.02057 0.15007 0.45430
 C1214 C -0.01190 0.16700 0.46115
 C1215 C -0.00884 0.18260 0.44871
 C1216 C -0.01443 0.18148 0.42921
 C1217 C -0.02314 0.16439 0.42247
 C1218 C -0.02618 0.14879 0.43494
 H1219 H -0.00479 0.11103 0.50869
 H1220 H -0.00995 0.08376 0.53062
 H1221 H -0.06014 0.06691 0.49751
 H1222 H -0.05474 0.09426 0.47573
 H1223 H -0.00755 0.16816 0.47613
 H1224 H -0.00234 0.19564 0.45440
 H1225 H -0.02738 0.16298 0.40750
 H1226 H -0.03285 0.13573 0.42948
 C1227 C 0.47100 0.60463 0.99103
 C1228 C 0.45549 0.59206 0.98793
 C1229 C 0.45240 0.57646 1.00037
 C1230 C 0.46482 0.57321 1.01613
 C1231 C 0.48039 0.58595 1.01911
 C1232 C 0.48343 0.60154 1.00664
 C1233 C 0.47415 0.62069 0.97822
 C1234 C 0.47678 0.63415 0.96749
 C1235 C 0.47993 0.65021 0.95467
 C1236 C 0.47434 0.64894 0.93531
 C1237 C 0.47738 0.66454 0.92285
 C1238 C 0.48607 0.68163 0.92961
 C1239 C 0.49165 0.68275 0.94911
 C1240 C 0.48858 0.66714 0.96154
 H1241 H 0.44577 0.59433 0.97588
 H1242 H 0.44029 0.56697 0.99763
 H1243 H 0.49023 0.58390 1.03107
 H1244 H 0.49549 0.61119 1.00917
 H1245 H 0.46768 0.63588 0.92983
 H1246 H 0.47316 0.66313 0.90787
 H1247 H 0.49813 0.69579 0.95481
 H1248 H 0.49291 0.66829 0.97652
 C1249 C 0.52820 0.89705 0.99077
 C1250 C 0.51578 0.90004 1.00638
 C1251 C 0.51869 0.91568 1.01882
 C1252 C 0.53414 0.92865 1.01584
 C1253 C 0.54653 0.92542 1.00000
 C1254 C 0.54355 0.90976 0.98761
 C1255 C 0.52518 0.88093 0.97800
 C1256 C 0.52266 0.86742 0.96730
 C1257 C 0.51966 0.85131 0.95452
 C1258 C 0.50147 0.84809 0.94637
 C1259 C 0.49854 0.83243 0.93396
 C1260 C 0.51380 0.81978 0.92951
 C1261 C 0.53204 0.82316 0.93778
 C1262 C 0.53493 0.83881 0.95021
 H1263 H 0.50384 0.89028 1.00896
 H1264 H 0.50879 0.91754 1.03076
 H1265 H 0.55858 0.93496 0.99710
 H1266 H 0.55325 0.90756 0.97555
 H1267 H 0.48957 0.85770 0.94957
 H1268 H 0.48441 0.83038 0.92763
 H1269 H 0.54401 0.81354 0.93486
 H1270 H 0.54906 0.84114 0.95648
 C1271 C 0.02854 0.39603 0.49123
 C1272 C 0.04406 0.40858 0.48824
 C1273 C 0.04716 0.42412 0.50075
 C1274 C 0.03472 0.42738 0.51655
 C1275 C 0.01912 0.41457 0.51937
 C1276 C 0.01609 0.39906 0.50681
 C1277 C 0.02540 0.38004 0.47834
 C1278 C 0.02278 0.36664 0.46753
 C1279 C 0.01966 0.35064 0.45463
 C1280 C 0.02534 0.35198 0.43530
 C1281 C 0.02233 0.33644 0.42277
 C1282 C 0.01357 0.31933 0.42941
 C1283 C 0.00791 0.31814 0.44887
 C1284 C 0.01095 0.33370 0.46139
 H1285 H 0.05380 0.40636 0.47621
 H1286 H 0.05933 0.43354 0.49797
 H1287 H 0.00917 0.41646 0.53127
 H1288 H 0.00402 0.38941 0.50925
 H1289 H 0.03205 0.36505 0.42991
 H1290 H 0.02662 0.33790 0.40782
 H1291 H 0.00138 0.30509 0.45449
 H1292 H 0.00655 0.33249 0.47634
 C1293 C 0.39539 0.50892 0.47117
 C1294 C 0.39848 0.49332 0.48364
 C1295 C 0.41406 0.48085 0.48064
 C1296 C 0.42679 0.48382 0.46509
 C1297 C 0.42353 0.49957 0.45263
 C1298 C 0.40794 0.51201 0.45567
 C1299 C 0.37934 0.52173 0.47427
 C1300 C 0.36590 0.53247 0.47688
 C1301 C 0.34986 0.54529 0.48000
 C1302 C 0.33300 0.53842 0.48872
 C1303 C 0.31741 0.55086 0.49177
 C1304 C 0.31849 0.57037 0.48612
 C1305 C 0.33552 0.57713 0.47735
 C1306 C 0.35109 0.56466 0.47433
 H1307 H 0.38884 0.49079 0.49569
 H1308 H 0.41611 0.46890 0.49052
 H1309 H 0.43301 0.50231 0.44052
 H1310 H 0.40567 0.52405 0.44592
 H1311 H 0.33188 0.52343 0.49312
 H1312 H 0.30442 0.54516 0.49831
 H1313 H 0.33689 0.59212 0.47307
 H1314 H 0.36410 0.57014 0.46761
 C1315 C 0.89803 0.00970 -0.02924
 C1316 C 0.90109 -0.00592 -0.01681
 C1317 C 0.91659 -0.01847 -0.01985
 C1318 C 0.92935 -0.01560 -0.03547
 C1319 C 0.92608 0.00025 -0.04788
 C1320 C 0.91055 0.01276 -0.04476
 C1321 C 0.88201 0.02253 -0.02610
 C1322 C 0.86855 0.03322 -0.02343
 C1323 C 0.85242 0.04590 -0.02018
 C1324 C 0.83541 0.03867 -0.01207
 C1325 C 0.81972 0.05095 -0.00887
 C1326 C 0.82085 0.07066 -0.01377
 C1327 C 0.83802 0.07778 -0.02195
 C1328 C 0.85370 0.06547 -0.02512
 H1329 H 0.89147 -0.00841 -0.00474
 H1330 H 0.91849 -0.03041 -0.00993
 H1331 H 0.93546 0.00306 -0.06005
 H1332 H 0.90830 0.02482 -0.05448
 H1333 H 0.83425 0.02352 -0.00825
 H1334 H 0.80662 0.04496 -0.00281
 H1335 H 0.83942 0.09292 -0.02565
 H1336 H 0.86682 0.07123 -0.03136
 C1337 C 0.60260 0.01080 0.02779
 C1338 C 0.59949 -0.00477 0.01530
 C1339 C 0.58402 -0.01736 0.01840
 C1340 C 0.57142 -0.01453 0.03408
 C1341 C 0.57466 0.00122 0.04653
 C1342 C 0.59015 0.01378 0.04340
 C1343 C 0.61862 0.02365 0.02465
 C1344 C 0.63209 0.03435 0.02201
 C1345 C 0.64825 0.04702 0.01885
 C1346 C 0.65889 0.04574 0.00175
 C1347 C 0.67473 0.05788 -0.00125
 C1348 C 0.68014 0.07149 0.01284
 C1349 C 0.66929 0.07272 0.02996
 C1350 C 0.65346 0.06055 0.03293
 H1351 H 0.60905 -0.00721 0.00318
 H1352 H 0.58197 -0.02931 0.00851
 H1353 H 0.56527 0.00384 0.05874
 H1354 H 0.59243 0.02579 0.05316
 H1355 H 0.65495 0.03535 -0.00927
 H1356 H 0.68262 0.05676 -0.01469
 H1357 H 0.67323 0.08286 0.04118
 H1358 H 0.64535 0.06162 0.04625
 C1359 C 0.10385 0.50887 0.52923
 C1360 C 0.09138 0.51185 0.54481
 C1361 C 0.07580 0.49937 0.54785
 C1362 C 0.07249 0.48370 0.53531
 C1363 C 0.08514 0.48085 0.51967
 C1364 C 0.10069 0.49336 0.51667
 C1365 C 0.11987 0.52173 0.52612
 C1366 C 0.13330 0.53249 0.52351
 C1367 C 0.14934 0.54532 0.52039
 C1368 C 0.15241 0.55344 0.50215
 C1369 C 0.16800 0.56590 0.49910
 C1370 C 0.18072 0.57041 0.51428
 C1371 C 0.17750 0.56217 0.53256
 C1372 C 0.16191 0.54970 0.53557
 H1373 H 0.09369 0.52382 0.55462
 H1374 H 0.06639 0.50201 0.56003
 H1375 H 0.08305 0.46896 0.50973
 H1376 H 0.11027 0.49093 0.50455
 H1377 H 0.14274 0.55019 0.49031
 H1378 H 0.16994 0.57221 0.48493
 H1379 H 0.18717 0.56514 0.54446
 H1380 H 0.15970 0.54344 0.54973
 C1381 C 0.10402 0.49103 -0.02909
 C1382 C 0.10090 0.50657 -0.01657
 C1383 C 0.08532 0.51905 -0.01956
 C1384 C 0.07261 0.51612 -0.03516
 C1385 C 0.07590 0.50042 -0.04766
 C1386 C 0.09149 0.48798 -0.04463
 C1387 C 0.12007 0.47821 -0.02599
 C1388 C 0.13351 0.46746 -0.02340
 C1389 C 0.14954 0.45462 -0.02031
 C1390 C 0.16207 0.45025 -0.03552
 C1391 C 0.17765 0.43777 -0.03254
 C1392 C 0.18089 0.42949 -0.01427
 C1393 C 0.16821 0.43399 0.00093
 C1394 C 0.15264 0.44647 -0.00209
 H1395 H 0.11051 0.50906 -0.00449
 H1396 H 0.08325 0.53096 -0.00965
 H1397 H 0.06644 0.49773 -0.05980
 H1398 H 0.09378 0.47598 -0.05441
 H1399 H 0.15984 0.45653 -0.04966
 H1400 H 0.18730 0.43480 -0.04445
 H1401 H 0.17017 0.42766 0.01508
 H1402 H 0.14299 0.44971 0.00977
 C1403 C 0.60405 0.99106 0.47089
 C1404 C 0.60090 1.00660 0.48339
 C1405 C 0.58530 1.01904 0.48041
 C1406 C 0.57252 1.01614 0.46480
 C1407 C 0.57591 1.00038 0.45231
 C1408 C 0.59154 0.98798 0.45536
 C1409 C 0.62013 0.97828 0.47400
 C1410 C 0.63360 0.96758 0.47662
 C1411 C 0.64968 0.95482 0.47975
 C1412 C 0.66227 0.95049 0.46458
 C1413 C 0.67790 0.93808 0.46760
 C1414 C 0.68114 0.92983 0.48588
 C1415 C 0.66840 0.93429 0.50105
 C1416 C 0.65278 0.94670 0.49798
 H1417 H 0.61051 1.00911 0.49547
 H1418 H 0.58332 1.03092 0.49039
 H1419 H 0.56653 0.99755 0.44014
 H1420 H 0.59386 0.97598 0.44559
 H1421 H 0.66004 0.95674 0.45041
 H1422 H 0.68758 0.93514 0.45571
 H1423 H 0.67036 0.92799 0.51522
 H1424 H 0.64309 0.94991 0.50982
 C1425 C 0.89596 0.99141 0.52926
 C1426 C 0.90854 0.98831 0.54472
 C1427 C 0.92415 1.00075 0.54775
 C1428 C 0.92743 1.01657 0.53531
 C1429 C 0.91459 1.01949 0.51976
 C1430 C 0.89901 1.00700 0.51680
 C1431 C 0.87990 0.97858 0.52617
 C1432 C 0.86645 0.96784 0.52356
 C1433 C 0.85039 0.95504 0.52044
 C1434 C 0.85159 0.93566 0.52610
 C1435 C 0.83600 0.92321 0.52306
 C1436 C 0.81898 0.92998 0.51428
 C1437 C 0.81793 0.94949 0.50864
 C1438 C 0.83353 0.96192 0.51171
 H1439 H 0.90630 0.97626 0.55445
 H1440 H 0.93359 0.99790 0.55988
 H1441 H 0.91649 1.03142 0.50982
 H1442 H 0.88934 1.00953 0.50477
 H1443 H 0.86459 0.93017 0.53283
 H1444 H 0.83735 0.90822 0.52734
 H1445 H 0.80495 0.95520 0.50208
 H1446 H 0.83243 0.97691 0.50731
 C1447 C 0.39551 0.49088 0.02903
 C1448 C 0.40797 0.48784 0.04462
 C1449 C 0.42354 0.50031 0.04772
 C1450 C 0.42686 0.51602 0.03524
 C1451 C 0.41422 0.51893 0.01959
 C1452 C 0.39866 0.50644 0.01653
 C1453 C 0.37948 0.47804 0.02586
 C1454 C 0.36605 0.46729 0.02322
 C1455 C 0.35001 0.45446 0.02007
 C1456 C 0.33745 0.45004 0.03524
 C1457 C 0.32187 0.43758 0.03220
 C1458 C 0.31863 0.42937 0.01390
 C1459 C 0.33134 0.43392 -0.00126
 C1460 C 0.34693 0.44637 0.00182
 H1461 H 0.40566 0.47583 0.05439
 H1462 H 0.43296 0.49762 0.05990
 H1463 H 0.41632 0.53086 0.00970
 H1464 H 0.38910 0.50892 0.00441
 H1465 H 0.33968 0.45627 0.04942
 H1466 H 0.31220 0.43458 0.04410
 H1467 H 0.32939 0.42764 -0.01544
 H1468 H 0.35659 0.44966 -0.01002
 C1469 C 0.50911 0.47092 0.39599
 C1470 C 0.51214 0.45534 0.40850
 C1471 C 0.49967 0.45225 0.42405
 C1472 C 0.48396 0.46472 0.42730
 C1473 C 0.48106 0.48036 0.41461
 C1474 C 0.49355 0.48342 0.39908
 C1475 C 0.52195 0.47407 0.37998
 C1476 C 0.53270 0.47671 0.36657
 C1477 C 0.54553 0.47984 0.35055
 C1478 C 0.54990 0.46464 0.33798
 C1479 C 0.56237 0.46766 0.32242
 C1480 C 0.57063 0.48596 0.31922
 C1481 C 0.56614 0.50115 0.33194
 C1482 C 0.55367 0.49809 0.34751
 H1483 H 0.52415 0.44558 0.40623
 H1484 H 0.50236 0.44007 0.43349
 H1485 H 0.46913 0.49025 0.41666
 H1486 H 0.49108 0.49553 0.38948
 H1487 H 0.54363 0.45046 0.34018
 H1488 H 0.56533 0.45574 0.31274
 H1489 H 0.57246 0.51534 0.33002
 H1490 H 0.55043 0.50995 0.35718
 C1491 C 0.01051 -0.02838 0.89524
 C1492 C 0.01346 -0.04401 0.90770
 C1493 C 0.00104 -0.04704 0.92330
 C1494 C -0.01455 -0.03443 0.92665
 C1495 C -0.01737 -0.01874 0.91402
 C1496 C -0.00492 -0.01575 0.89844
 C1497 C 0.02330 -0.02530 0.87919
 C1498 C 0.03401 -0.02273 0.86573
 C1499 C 0.04679 -0.01965 0.84966
 C1500 C 0.05115 -0.03491 0.83715
 C1501 C 0.06357 -0.03194 0.82153
 C1502 C 0.07178 -0.01364 0.81822
 C1503 C 0.06729 0.00161 0.83088
 C1504 C 0.05488 -0.00140 0.84649
 H1505 H 0.02537 -0.05388 0.90536
 H1506 H 0.00366 -0.05926 0.93270
 H1507 H -0.02920 -0.00874 0.91614
 H1508 H -0.00733 -0.00360 0.88887
 H1509 H 0.04492 -0.04909 0.83943
 H1510 H 0.06653 -0.04390 0.81190
 H1511 H 0.07357 0.01580 0.82887
 H1512 H 0.05164 0.01050 0.85612
 C1513 C 0.00926 0.02887 0.60400
 C1514 C -0.00629 0.01635 0.60096
 C1515 C -0.01887 0.01940 0.58547
 C1516 C -0.01603 0.03506 0.57280
 C1517 C -0.00032 0.04756 0.57601
 C1518 C 0.01222 0.04446 0.59150
 C1519 C 0.02218 0.02573 0.61996
 C1520 C 0.03301 0.02313 0.63333
 C1521 C 0.04594 0.02005 0.64928
 C1522 C 0.05413 0.00182 0.65233
 C1523 C 0.06670 -0.00117 0.66782
 C1524 C 0.07126 0.01406 0.68049
 C1525 C 0.06295 0.03234 0.67729
 C1526 C 0.05037 0.03530 0.66179
 H1527 H -0.00872 0.00422 0.61055
 H1528 H -0.03079 0.00949 0.58345
 H1529 H 0.00231 0.05974 0.56657
 H1530 H 0.02423 0.05425 0.59374
 H1531 H 0.05084 -0.01006 0.64270
 H1532 H 0.07305 -0.01534 0.66975
 H1533 H 0.06596 0.04429 0.68692
 H1534 H 0.04407 0.04946 0.65960
 C1535 C 0.50902 0.52901 0.10461
 C1536 C 0.49344 0.51654 0.10151
 C1537 C 0.48096 0.51959 0.08594
 C1538 C 0.48392 0.53520 0.07324
 C1539 C 0.49966 0.54765 0.07650
 C1540 C 0.51211 0.54456 0.09208
 C1541 C 0.52184 0.52585 0.12064
 C1542 C 0.53259 0.52321 0.13406
 C1543 C 0.54542 0.52008 0.15009
 C1544 C 0.53860 0.51134 0.16697
 C1545 C 0.55105 0.50829 0.18255
 C1546 C 0.57052 0.51397 0.18145
 C1547 C 0.57723 0.52275 0.16440
 C1548 C 0.56475 0.52577 0.14883
 H1549 H 0.49092 0.50445 0.11112
 H1550 H 0.46902 0.50971 0.08389
 H1551 H 0.50239 0.55980 0.06704
 H1552 H 0.52413 0.55430 0.09435
 H1553 H 0.52365 0.50693 0.16811
 H1554 H 0.54539 0.50174 0.19556
 H1555 H 0.59218 0.52706 0.16300
 H1556 H 0.57019 0.53250 0.13581
 C1557 C 0.48989 -0.02847 0.10394
 C1558 C 0.50525 -0.01576 0.10069
 C1559 C 0.51763 -0.01865 0.08503
 C1560 C 0.51481 -0.03433 0.07239
 C1561 C 0.49930 -0.04702 0.07580
 C1562 C 0.48695 -0.04410 0.09148
 C1563 C 0.47717 -0.02549 0.12008
 C1564 C 0.46652 -0.02299 0.13359
 C1565 C 0.45379 -0.01998 0.14971
 C1566 C 0.44571 -0.00174 0.15297
 C1567 C 0.43334 0.00119 0.16862
 C1568 C 0.42887 -0.01411 0.18123
 C1569 C 0.43708 -0.03240 0.17783
 C1570 C 0.44945 -0.03530 0.16217
 H1571 H 0.50766 -0.00361 0.11026
 H1572 H 0.52940 -0.00859 0.08286
 H1573 H 0.49668 -0.05924 0.06639
 H1574 H 0.47510 -0.05403 0.09387
 H1575 H 0.44893 0.01020 0.14338
 H1576 H 0.42707 0.01537 0.17071
 H1577 H 0.43413 -0.04440 0.18741
 H1578 H 0.45568 -0.04946 0.15981
 C1579 C 0.99031 0.47038 0.60452
 C1580 C 0.98729 0.45483 0.59197
 C1581 C 0.99975 0.45181 0.57640
 C1582 C 1.01543 0.46434 0.57316
 C1583 C 1.01833 0.47994 0.58588
 C1584 C 1.00585 0.48292 0.60144
 C1585 C 0.97748 0.47347 0.62054
 C1586 C 0.96673 0.47606 0.63396
 C1587 C 0.95390 0.47917 0.64998
 C1588 C 0.94956 0.46397 0.66257
 C1589 C 0.93709 0.46697 0.67813
 C1590 C 0.92880 0.48525 0.68132
 C1591 C 0.93326 0.50045 0.66857
 C1592 C 0.94573 0.49741 0.65301
 H1593 H 0.97530 0.44503 0.59422
 H1594 H 0.99707 0.43967 0.56692
 H1595 H 1.03023 0.48987 0.58385
 H1596 H 1.00831 0.49501 0.61107
 H1597 H 0.95586 0.44980 0.66039
 H1598 H 0.93415 0.45505 0.68783
 H1599 H 0.92692 0.51462 0.67048
 H1600 H 0.94895 0.50927 0.64332
 C1601 C 0.99022 0.52901 0.89577
 C1602 C 1.00578 0.51652 0.89887
 C1603 C 1.01829 0.51959 0.91440
 C1604 C 1.01540 0.53523 0.92707
 C1605 C 0.99969 0.54770 0.92381
 C1606 C 0.98720 0.54460 0.90827
 C1607 C 0.97736 0.52584 0.87977
 C1608 C 0.96660 0.52317 0.86636
 C1609 C 0.95377 0.51998 0.85035
 C1610 C 0.94568 0.50170 0.84733
 C1611 C 0.93323 0.49857 0.83176
 C1612 C 0.92868 0.51373 0.81900
 C1613 C 0.93689 0.53207 0.82218
 C1614 C 0.94935 0.53515 0.83775
 H1615 H 1.00825 0.50441 0.88928
 H1616 H 1.03022 0.50969 0.91645
 H1617 H 0.99702 0.55988 0.93325
 H1618 H 0.97519 0.55436 0.90600
 H1619 H 0.94897 0.48987 0.85703
 H1620 H 0.92696 0.48437 0.82986
 H1621 H 0.93389 0.54396 0.81247
 H1622 H 0.95558 0.54935 0.83992
 C1623 C 0.49090 0.02834 0.39586
 C1624 C 0.48785 0.04389 0.40838
 C1625 C 0.50033 0.04699 0.42393
 C1626 C 0.51607 0.03454 0.42717
 C1627 C 0.51899 0.01893 0.41446
 C1628 C 0.50648 0.01587 0.39893
 C1629 C 0.47804 0.02519 0.37985
 C1630 C 0.46727 0.02257 0.36644
 C1631 C 0.45440 0.01948 0.35044
 C1632 C 0.44998 0.03472 0.33792
 C1633 C 0.43747 0.03174 0.32237
 C1634 C 0.42920 0.01344 0.31914
 C1635 C 0.43375 -0.00179 0.33181
 C1636 C 0.44626 0.00123 0.34735
 H1637 H 0.47582 0.05364 0.40613
 H1638 H 0.49763 0.05914 0.43339
 H1639 H 0.53094 0.00906 0.41650
 H1640 H 0.50897 0.00378 0.38931
 H1641 H 0.45625 0.04889 0.34014
 H1642 H 0.43446 0.04369 0.31274
 H1643 H 0.42744 -0.01597 0.32985
 H1644 H 0.44954 -0.01066 0.35699
   
