data_POSCAR
  _audit_creation_date              2014-09-24
  _audit_creation_method            'ToBaCCo'
  _symmetry_space_group_name_H-M    'P1'
  _symmetry_Int_Tables_number       1
  _symmetry_cell_setting            triclinic
  loop_
  _symmetry_equiv_pos_as_xyz
 x,y,z
_cell_length_a 88.9163
_cell_length_b 88.4024
_cell_length_c 89.3551
_cell_angle_alpha 89.998400
_cell_angle_beta 90.016900
_cell_angle_gamma 90.014500
loop_
  _atom_site_label
  _atom_site_type_symbol
  _atom_site_fract_x
  _atom_site_fract_y
  _atom_site_fract_z
C1 C 0.35632 0.33805 0.33838
 N2 N 0.34986 0.35058 0.33235
 C3 C 0.33738 0.35680 0.33861
 N4 N 0.33136 0.35033 0.35103
 C5 C 0.33767 0.33780 0.35721
 N6 N 0.35014 0.33173 0.35080
 C7 C 0.35660 0.83675 -0.16232
 N8 N 0.35008 0.84921 -0.16845
 C9 C 0.33760 0.85553 -0.16225
 N10 N 0.33165 0.84918 -0.14971
 C11 C 0.33799 0.83674 -0.14341
 N12 N 0.35044 0.83060 -0.14979
 C13 C 0.85642 0.33732 -0.16258
 N14 N 0.85021 0.33115 -0.15011
 C15 C 0.83774 0.33731 -0.14378
 N16 N 0.83147 0.34978 -0.15011
 C17 C 0.83749 0.35613 -0.16261
 N18 N 0.84999 0.34979 -0.16876
 C19 C 0.85649 0.83794 0.33793
 N20 N 0.85006 0.85045 0.33181
 C21 C 0.83762 0.85680 0.33802
 N22 N 0.83156 0.85048 0.35050
 C23 C 0.83781 0.83799 0.35679
 N24 N 0.85025 0.83180 0.35043
 C25 C 0.64420 0.66291 0.33761
 N26 N 0.65063 0.65043 0.33145
 C27 C 0.66309 0.64411 0.33766
 N28 N 0.66913 0.65044 0.35015
 C29 C 0.66284 0.66292 0.35646
 N30 N 0.65039 0.66908 0.35010
 C31 C 0.64330 0.16264 -0.16286
 N32 N 0.64948 0.16888 -0.15037
 C33 C 0.66196 0.16281 -0.14399
 N34 N 0.66832 0.15035 -0.15025
 C35 C 0.66235 0.14391 -0.16273
 N36 N 0.64984 0.15016 -0.16892
 C37 C 0.14385 0.66231 -0.16217
 N38 N 0.15002 0.66860 -0.14973
 C39 C 0.16251 0.66253 -0.14335
 N40 N 0.16885 0.65005 -0.14959
 C41 C 0.16286 0.64359 -0.16206
 N42 N 0.15035 0.64984 -0.16825
 C43 C 0.14399 0.16322 0.33720
 N44 N 0.15043 0.15073 0.33104
 C45 C 0.16288 0.14433 0.33722
 N46 N 0.16887 0.15061 0.34977
 C47 C 0.16261 0.16306 0.35612
 N48 N 0.15019 0.16929 0.34975
 C49 C 0.64336 0.33745 0.66195
 N50 N 0.64980 0.34993 0.66809
 C51 C 0.66224 0.35627 0.66187
 N52 N 0.66827 0.34993 0.64938
 C53 C 0.66199 0.33745 0.64309
 N54 N 0.64955 0.33127 0.64946
 C55 C 0.64374 0.83807 1.16259
 N56 N 0.65004 0.83203 1.15008
 C57 C 0.66247 0.83832 1.14380
 N58 N 0.66864 0.85080 1.15020
 C59 C 0.66256 0.85704 1.16271
 N60 N 0.65010 0.85058 1.16881
 C61 C 0.14367 0.33724 1.16183
 N62 N 0.15008 0.33116 1.14939
 C63 C 0.16259 0.33740 1.14321
 N64 N 0.16874 0.34989 1.14962
 C65 C 0.16251 0.35615 1.16205
 N66 N 0.15000 0.34975 1.16807
 C67 C 0.14339 0.83644 0.66252
 N68 N 0.14983 0.84889 0.66876
 C69 C 0.16232 0.85531 0.66266
 N70 N 0.16835 0.84907 0.65012
 C71 C 0.16209 0.83664 0.64370
 N72 N 0.14964 0.83041 0.64998
 C73 C 0.35667 0.66299 0.66180
 N74 N 0.35018 0.65048 0.66784
 C75 C 0.33771 0.64425 0.66157
 N76 N 0.33171 0.65070 0.64912
 C77 C 0.33804 0.66321 0.64292
 N78 N 0.35051 0.66929 0.64935
 C79 C 0.35658 0.16334 1.16246
 N80 N 0.35036 0.16948 1.14996
 C81 C 0.33791 0.16329 1.14360
 N82 N 0.33163 0.15081 1.14991
 C83 C 0.33766 0.14447 1.16241
 N84 N 0.35013 0.15083 1.16857
 C85 C 0.85631 0.66292 1.16190
 N86 N 0.85007 0.66910 1.14944
 C87 C 0.83762 0.66292 1.14310
 N88 N 0.83139 0.65040 1.14938
 C89 C 0.83745 0.64403 1.16186
 N90 N 0.84993 0.65040 1.16803
 C91 C 0.85669 0.16312 0.66221
 N92 N 0.85019 0.15060 0.66825
 C93 C 0.83771 0.14431 0.66203
 N94 N 0.83172 0.15075 0.64955
 C95 C 0.83804 0.16325 0.64333
 N96 N 0.85050 0.16936 0.64974
 C97 C 0.33751 0.35630 0.66189
 N98 N 0.34998 0.35010 0.66819
 C99 C 0.35647 0.33758 0.66220
 N100 N 0.35033 0.33123 0.64977
 C101 C 0.33787 0.33728 0.64331
 N102 N 0.33153 0.34981 0.64945
 C103 C 0.33773 0.85665 0.16185
 N104 N 0.35021 0.85042 0.16809
 C105 C 0.35667 0.83790 0.16205
 N106 N 0.35047 0.83159 0.14963
 C107 C 0.33799 0.83766 0.14323
 N108 N 0.33169 0.85019 0.14942
 C109 C 0.83801 0.35589 0.16160
 N110 N 0.85047 0.34949 0.16771
 C111 C 0.85677 0.33696 0.16152
 N112 N 0.85042 0.33081 0.14909
 C113 C 0.83796 0.33706 0.14283
 N114 N 0.83183 0.34959 0.14917
 C115 C 0.83813 0.85682 0.66200
 N116 N 0.85058 0.85044 0.66814
 C117 C 0.85688 0.83788 0.66203
 N118 N 0.85055 0.83166 0.64962
 C119 C 0.83809 0.83790 0.64332
 N120 N 0.83195 0.85046 0.64960
 C121 C 0.66271 0.64420 0.66237
 N122 N 0.65026 0.65061 0.66850
 C123 C 0.64392 0.66311 0.66227
 N124 N 0.65021 0.66921 0.64979
 C125 C 0.66266 0.66295 0.64352
 N126 N 0.66884 0.65046 0.64990
 C127 C 0.66171 0.14430 0.16164
 N128 N 0.66784 0.15057 0.14916
 C129 C 0.66158 0.16302 0.14276
 N130 N 0.64909 0.16921 0.14901
 C131 C 0.64281 0.16309 0.16148
 N132 N 0.64921 0.15064 0.16773
 C133 C 0.16170 0.64431 0.16213
 N134 N 0.14923 0.65065 0.16828
 C135 C 0.14285 0.66315 0.16214
 N136 N 0.14911 0.66935 0.14970
 C137 C 0.16157 0.66316 0.14338
 N138 N 0.16781 0.65065 0.14968
 C139 C 0.16245 0.14299 0.66219
 N140 N 0.15000 0.14943 0.66829
 C141 C 0.14372 0.16195 0.66206
 N142 N 0.15006 0.16805 0.64961
 C143 C 0.16250 0.16176 0.64336
 N144 N 0.16863 0.14924 0.64974
 C145 C 0.33766 0.64469 0.33769
 N146 N 0.35014 0.65090 0.33142
 C147 C 0.35666 0.66339 0.33746
 N148 N 0.35053 0.66970 0.34991
 C149 C 0.33805 0.66365 0.35634
 N150 N 0.33168 0.65115 0.35014
 C151 C 0.33738 0.14322 0.83781
 N152 N 0.33128 0.14962 0.85023
 C153 C 0.33756 0.16213 0.85650
 N154 N 0.35005 0.16826 0.85017
 C155 C 0.35630 0.16201 0.83775
 N156 N 0.34988 0.14950 0.83164
 C157 C 0.83745 0.64408 0.83841
 N158 N 0.83127 0.65041 0.85083
 C159 C 0.83741 0.66295 0.85715
 N160 N 0.84988 0.66919 0.85089
 C161 C 0.85622 0.66301 0.83847
 N162 N 0.84992 0.65047 0.83230
 C163 C 0.83833 0.14438 0.33799
 N164 N 0.85086 0.15068 0.33191
 C165 C 0.85728 0.16312 0.33813
 N166 N 0.85100 0.16930 0.35057
 C167 C 0.83848 0.16316 0.35682
 N168 N 0.83220 0.15071 0.35044
 C169 C 0.66277 0.35648 0.33770
 N170 N 0.66878 0.35010 0.35018
 C171 C 0.66244 0.33763 0.35645
 N172 N 0.64997 0.33152 0.35007
 C173 C 0.64381 0.33775 0.33759
 N174 N 0.65029 0.35022 0.33147
 C175 C 0.66243 0.85726 0.83808
 N176 N 0.66844 0.85093 0.85059
 C177 C 0.66212 0.83847 0.85689
 N178 N 0.64966 0.83232 0.85052
 C179 C 0.64350 0.83849 0.83802
 N180 N 0.64996 0.85096 0.83186
 C181 C 0.16250 0.35632 0.83790
 N182 N 0.16855 0.34996 0.85037
 C183 C 0.16228 0.33746 0.85664
 N184 N 0.14983 0.33129 0.85026
 C185 C 0.14363 0.33749 0.83779
 N186 N 0.15004 0.35000 0.83167
 C187 C 0.16222 0.85705 0.33785
 N188 N 0.16834 0.85073 0.35031
 C189 C 0.16208 0.83828 0.35668
 N190 N 0.14957 0.83212 0.35042
 C191 C 0.14330 0.83828 0.33796
 N192 N 0.14971 0.85074 0.33174
 O193 O 0.23089 0.98612 0.25122
 O194 O 0.25146 1.01565 0.23052
 O195 O 0.25135 0.98616 0.23041
 O196 O 0.23095 1.01562 0.25128
 O197 O 0.24866 1.01551 0.26857
 O198 O 0.26906 0.98604 0.24770
 O199 O 0.26915 1.01552 0.24782
 O200 O 0.24861 0.98604 0.26849
 Cu201 Cu 0.23939 1.00089 0.23913
 Cu202 Cu 0.26065 1.00077 0.25987
 C203 C 0.23626 0.98099 0.26338
 C204 C 0.26381 1.02069 0.23566
 C205 C 0.26367 0.98101 0.23550
 C206 C 0.23634 1.02066 0.26348
 O207 O 0.26898 0.48565 0.74776
 O208 O 0.24878 0.51510 0.76882
 O209 O 0.24873 0.48563 0.76875
 O210 O 0.26900 0.51513 0.74779
 O211 O 0.25110 0.51517 0.73070
 O212 O 0.23083 0.48567 0.75166
 O213 O 0.23088 0.51516 0.75173
 O214 O 0.25109 0.48569 0.73067
 Cu215 Cu 0.26067 0.50037 0.75999
 Cu216 Cu 0.23918 0.50043 0.73948
 C217 C 0.26348 0.48058 0.73564
 C218 C 0.23639 0.52021 0.76386
 C219 C 0.23632 0.48056 0.76377
 C220 C 0.26351 0.52024 0.73568
 O221 O 0.75125 -0.01391 0.26918
 O222 O 0.73066 0.01550 0.24844
 O223 O 0.73065 -0.01398 0.24852
 O224 O 0.75130 0.01557 0.26908
 O225 O 0.76890 0.01547 0.25169
 O226 O 0.74823 -0.01401 0.23112
 O227 O 0.74826 0.01547 0.23105
 O228 O 0.76884 -0.01401 0.25177
 Cu229 Cu 0.73920 0.00080 0.26054
 Cu230 Cu 0.76032 0.00072 0.23966
 C231 C 0.76354 -0.01904 0.26401
 C232 C 0.73596 0.02057 0.23622
 C233 C 0.73593 -0.01910 0.23631
 C234 C 0.76362 0.02061 0.26388
 O235 O 0.75156 0.48509 0.76917
 O236 O 0.73112 0.51467 0.74850
 O237 O 0.73111 0.48519 0.74835
 O238 O 0.75159 0.51457 0.76929
 O239 O 0.76932 0.51465 0.75203
 O240 O 0.74885 0.48527 0.73110
 O241 O 0.74884 0.51474 0.73124
 O242 O 0.76929 0.48516 0.75192
 Cu243 Cu 0.73957 0.49987 0.76056
 Cu244 Cu 0.76085 0.49996 0.73984
 C245 C 0.76390 0.48001 0.76406
 C246 C 0.73650 0.51982 0.73635
 C247 C 0.73650 0.48016 0.73616
 C248 C 0.76393 0.51969 0.76422
 O249 O 0.24801 0.48568 0.23148
 O250 O 0.26846 0.51526 0.25218
 O251 O 0.26847 0.48577 0.25230
 O252 O 0.24797 0.51518 0.23139
 O253 O 0.23027 0.51520 0.24867
 O254 O 0.25075 0.48584 0.26957
 O255 O 0.25075 0.51530 0.26945
 O256 O 0.23030 0.48573 0.24876
 Cu257 Cu 0.26000 0.50047 0.24010
 Cu258 Cu 0.23874 0.50052 0.26084
 C259 C 0.23568 0.48059 0.23660
 C260 C 0.26309 0.52039 0.26434
 C261 C 0.26309 0.48073 0.26450
 C262 C 0.23563 0.52027 0.23649
 O263 O 0.76957 0.98626 0.74806
 O264 O 0.74901 1.01571 0.76874
 O265 O 0.74910 0.98624 0.76884
 O266 O 0.76943 1.01573 0.74792
 O267 O 0.75171 1.01557 0.73065
 O268 O 0.73137 0.98610 0.75157
 O269 O 0.73128 1.01559 0.75148
 O270 O 0.75185 0.98608 0.73079
 Cu271 Cu 0.76106 1.00100 0.76012
 Cu272 Cu 0.73977 1.00082 0.73939
 C273 C 0.76422 0.98108 0.73592
 C274 C 0.73665 1.02073 0.76364
 C275 C 0.73677 0.98108 0.76376
 C276 C 0.76403 1.02074 0.73572
 O277 O 0.74956 0.51498 0.26862
 O278 O 0.76996 0.48547 0.24780
 O279 O 0.76992 0.51497 0.24773
 O280 O 0.74956 0.48550 0.26866
 O281 O 0.73177 0.48545 0.25146
 O282 O 0.75212 0.51491 0.23053
 O283 O 0.75216 0.48543 0.23060
 O284 O 0.73176 0.51493 0.25142
 Cu285 Cu 0.76153 0.50023 0.25992
 Cu286 Cu 0.74017 0.50017 0.23928
 C287 C 0.73719 0.52005 0.26356
 C288 C 0.76453 0.48035 0.23566
 C289 C 0.76447 0.52003 0.23557
 C290 C 0.73719 0.48039 0.26362
 O291 O 0.26872 0.01352 0.75209
 O292 O 0.24818 -0.01601 0.73144
 O293 O 0.24819 0.01347 0.73136
 O294 O 0.26872 -0.01596 0.75216
 O295 O 0.25107 -0.01590 0.76950
 O296 O 0.23052 0.01353 0.74868
 O297 O 0.23051 -0.01598 0.74876
 O298 O 0.25105 0.01360 0.76941
 Cu299 Cu 0.26022 -0.00125 0.74003
 Cu300 Cu 0.23902 -0.00119 0.76082
 C301 C 0.26338 0.01866 0.76426
 C302 C 0.23586 -0.02109 0.73659
 C303 C 0.23587 0.01858 0.73648
 C304 C 0.26339 -0.02101 0.76437
 O305 O 0.24848 0.26928 0.98519
 O306 O 0.26955 0.24881 1.01432
 O307 O 0.26941 0.24873 0.98515
 O308 O 0.24864 0.26936 1.01437
 O309 O 0.23131 0.25151 1.01448
 O310 O 0.25209 0.23088 0.98527
 O311 O 0.25222 0.23096 1.01445
 O312 O 0.23116 0.25142 0.98531
 Cu313 Cu 0.26076 0.26084 0.99974
 Cu314 Cu 0.23996 0.23940 0.99989
 C315 C 0.23624 0.26383 0.98022
 C316 C 0.26446 0.23641 1.01943
 C317 C 0.26428 0.23630 0.98016
 C318 C 0.23644 0.26394 1.01948
 O319 O 0.24843 0.77019 0.48523
 O320 O 0.26950 0.74970 0.51434
 O321 O 0.26952 0.74981 0.48517
 O322 O 0.24838 0.77004 0.51441
 O323 O 0.23121 0.75203 0.51430
 O324 O 0.25234 0.73181 0.48508
 O325 O 0.25233 0.73169 0.51425
 O326 O 0.23126 0.75218 0.48514
 Cu327 Cu 0.26068 0.76174 0.49980
 Cu328 Cu 0.24006 0.74013 0.49968
 C329 C 0.23626 0.76467 0.48015
 C330 C 0.26450 0.73721 0.51933
 C331 C 0.26452 0.73736 0.48007
 C332 C 0.23620 0.76447 0.51941
 O333 O 0.26925 0.75109 -0.01440
 O334 O 0.24808 0.73078 0.01476
 O335 O 0.24815 0.73072 -0.01442
 O336 O 0.26919 0.75114 0.01477
 O337 O 0.25202 0.76914 0.01469
 O338 O 0.23098 0.74872 -0.01449
 O339 O 0.23091 0.74878 0.01467
 O340 O 0.25208 0.76909 -0.01448
 Cu341 Cu 0.26039 0.73913 0.00018
 Cu342 Cu 0.23978 0.76073 0.00009
 C343 C 0.26427 0.76354 -0.01948
 C344 C 0.23590 0.73632 0.01976
 C345 C 0.23599 0.73625 -0.01951
 C346 C 0.26418 0.76362 0.01977
 O347 O 0.25219 0.26843 0.51483
 O348 O 0.23114 0.24804 0.48565
 O349 O 0.23130 0.24783 0.51483
 O350 O 0.25207 0.26858 0.48566
 O351 O 0.26942 0.25075 0.48550
 O352 O 0.24864 0.23000 0.51462
 O353 O 0.24849 0.23021 0.48544
 O354 O 0.26953 0.25060 0.51467
 Cu355 Cu 0.23994 0.26001 0.50026
 Cu356 Cu 0.26075 0.23860 0.50004
 C357 C 0.26444 0.26299 0.51979
 C358 C 0.23623 0.23566 0.48049
 C359 C 0.23645 0.23539 0.51976
 C360 C 0.26428 0.26319 0.48055
 O361 O 0.73067 0.75242 1.01492
 O362 O 0.75122 0.73159 0.98568
 O363 O 0.75141 0.73168 1.01484
 O364 O 0.73045 0.75230 0.98575
 O365 O 0.74793 0.77001 0.98555
 O366 O 0.76889 0.74939 1.01465
 O367 O 0.76869 0.74930 0.98549
 O368 O 0.74814 0.77012 1.01472
 Cu369 Cu 0.73918 0.74022 1.00031
 Cu370 Cu 0.76016 0.76148 1.00008
 C371 C 0.73592 0.76481 1.01988
 C372 C 0.76345 0.73691 0.98053
 C373 C 0.76371 0.73703 1.01978
 C374 C 0.73562 0.76465 0.98062
 O375 O 0.74823 0.26953 0.48528
 O376 O 0.76930 0.24918 0.51449
 O377 O 0.76930 0.24913 0.48532
 O378 O 0.74819 0.26954 0.51446
 O379 O 0.73101 0.25155 0.51445
 O380 O 0.75210 0.23114 0.48532
 O381 O 0.75211 0.23119 0.51450
 O382 O 0.73104 0.25154 0.48529
 Cu383 Cu 0.76048 0.26115 0.49989
 Cu384 Cu 0.73984 0.23955 0.49989
 C385 C 0.73605 0.26400 0.48024
 C386 C 0.76429 0.23673 0.51954
 C387 C 0.76428 0.23667 0.48029
 C388 C 0.73601 0.26401 0.51949
 O389 O 0.74778 0.23092 0.01405
 O390 O 0.76884 0.25140 -0.01507
 O391 O 0.76876 0.25142 0.01411
 O392 O 0.74781 0.23095 -0.01514
 O393 O 0.73055 0.24886 -0.01516
 O394 O 0.75149 0.26933 0.01404
 O395 O 0.75157 0.26930 -0.01513
 O396 O 0.73052 0.24883 0.01401
 Cu397 Cu 0.76003 0.23938 -0.00051
 Cu398 Cu 0.73930 0.26087 -0.00057
 C399 C 0.73557 0.23639 0.01906
 C400 C 0.76379 0.26383 -0.02013
 C401 C 0.76367 0.26386 0.01913
 C402 C 0.73561 0.23642 -0.02019
 O403 O 0.73112 0.74886 0.48549
 O404 O 0.75193 0.76950 0.51465
 O405 O 0.75195 0.76951 0.48548
 O406 O 0.73115 0.74881 0.51466
 O407 O 0.74858 0.73106 0.51461
 O408 O 0.76939 0.75178 0.48550
 O409 O 0.76936 0.75175 0.51468
 O410 O 0.74856 0.73113 0.48543
 Cu411 Cu 0.73979 0.76095 0.50007
 Cu412 Cu 0.76072 0.73965 0.50005
 C413 C 0.73630 0.73649 0.48041
 C414 C 0.76418 0.76414 0.51972
 C415 C 0.76421 0.76416 0.48045
 C416 C 0.73634 0.73641 0.51968
 O417 O 1.01547 0.23082 0.25132
 O418 O 0.98602 0.25111 0.23044
 O419 O 1.01534 0.25120 0.23034
 O420 O 0.98615 0.23079 0.25148
 O421 O 0.98621 0.24880 0.26855
 O422 O 1.01538 0.26920 0.24742
 O423 O 0.98606 0.26913 0.24751
 O424 O 1.01552 0.24882 0.26841
 Cu425 Cu 1.00074 0.23917 0.23919
 Cu426 Cu 1.00080 0.26080 0.25968
 C427 C 1.02058 0.23637 0.26342
 C428 C 0.98096 0.26357 0.23542
 C429 C 1.02040 0.26367 0.23528
 C430 C 0.98114 0.23633 0.26362
 O431 O 0.48533 0.24823 0.76914
 O432 O 0.51470 0.26892 0.74847
 O433 O 0.48537 0.26907 0.74859
 O434 O 0.51466 0.24813 0.76907
 O435 O 0.51453 0.23051 0.75160
 O436 O 0.48521 0.25143 0.73114
 O437 O 0.51451 0.25129 0.73101
 O438 O 0.48522 0.23060 0.75168
 Cu439 Cu 0.50003 0.26036 0.76057
 Cu440 Cu 0.49985 0.23919 0.73961
 C441 C 0.48021 0.23589 0.76392
 C442 C 0.51967 0.26362 0.73622
 C443 C 0.48023 0.26382 0.73638
 C444 C 0.51966 0.23576 0.76381
 O445 O -0.01455 0.26908 0.75136
 O446 O 0.01474 0.24852 0.73052
 O447 O -0.01458 0.24846 0.73060
 O448 O 0.01478 0.26912 0.75132
 O449 O 0.01482 0.25131 0.76860
 O450 O -0.01449 0.23066 0.74790
 O451 O 0.01483 0.23072 0.74782
 O452 O -0.01448 0.25128 0.76864
 Cu453 Cu 0.00009 0.26058 0.73922
 Cu454 Cu 0.00018 0.23921 0.75997
 C455 C -0.01958 0.26367 0.76354
 C456 C 0.01985 0.23613 0.73563
 C457 C -0.01961 0.23604 0.73574
 C458 C 0.01987 0.26372 0.76349
 O459 O 0.48505 0.27011 0.25154
 O460 O 0.51419 0.24946 0.23064
 O461 O 0.48488 0.24946 0.23081
 O462 O 0.51437 0.27005 0.25142
 O463 O 0.51439 0.25226 0.26873
 O464 O 0.48499 0.23167 0.24811
 O465 O 0.51430 0.23167 0.24794
 O466 O 0.48508 0.25231 0.26884
 Cu467 Cu 0.49961 0.26155 0.23937
 Cu468 Cu 0.49969 0.24019 0.26014
 C469 C 0.48002 0.26472 0.26374
 C470 C 0.51928 0.23706 0.23573
 C471 C 0.47985 0.23705 0.23596
 C472 C 0.51947 0.26464 0.26359
 O473 O 1.01489 0.76881 0.74822
 O474 O 0.98553 0.74854 0.76923
 O475 O 1.01484 0.74822 0.76901
 O476 O 0.98558 0.76904 0.74836
 O477 O 0.98529 0.75119 0.73113
 O478 O 1.01455 0.73038 0.75176
 O479 O 0.98523 0.73068 0.75200
 O480 O 1.01460 0.75097 0.73097
 Cu481 Cu 1.00024 0.76044 0.76043
 Cu482 Cu 0.99989 0.73901 0.73974
 C483 C 1.01982 0.76334 0.73603
 C484 C 0.98031 0.73617 0.76419
 C485 C 1.01975 0.73576 0.76389
 C486 C 0.98038 0.76366 0.73623
 O487 O 0.51529 0.76970 0.24798
 O488 O 0.48593 0.74901 0.26865
 O489 O 0.51524 0.74903 0.26869
 O490 O 0.48597 0.76975 0.24803
 O491 O 0.48591 0.75203 0.23065
 O492 O 0.51527 0.73131 0.25131
 O493 O 0.48594 0.73128 0.25128
 O494 O 0.51523 0.75198 0.23060
 Cu495 Cu 0.50061 0.76115 0.26008
 Cu496 Cu 0.50058 0.73988 0.23922
 C497 C 0.52032 0.76435 0.23577
 C498 C 0.48087 0.73662 0.26347
 C499 C 0.52032 0.73666 0.26352
 C500 C 0.48087 0.76442 0.23584
 O501 O 0.01417 0.74947 0.23124
 O502 O -0.01519 0.77005 0.25199
 O503 O 0.01414 0.77004 0.25205
 O504 O -0.01514 0.74948 0.23118
 O505 O -0.01521 0.73165 0.24845
 O506 O 0.01409 0.75220 0.26930
 O507 O -0.01521 0.75221 0.26925
 O508 O 0.01410 0.73163 0.24850
 Cu509 Cu -0.00050 0.76155 0.23989
 Cu510 Cu -0.00056 0.74014 0.26060
 C511 C 0.01920 0.73705 0.23635
 C512 C -0.02027 0.76463 0.26415
 C513 C 0.01918 0.76461 0.26423
 C514 C -0.02023 0.73707 0.23626
 O515 O 0.48535 0.76967 0.75176
 O516 O 0.51475 0.74928 0.73090
 O517 O 0.48543 0.74907 0.73098
 O518 O 0.51469 0.76986 0.75170
 O519 O 0.51482 0.75204 0.76897
 O520 O 0.48561 0.73126 0.74825
 O521 O 0.51492 0.73146 0.74819
 O522 O 0.48552 0.75184 0.76903
 Cu523 Cu 0.50004 0.76126 0.73961
 Cu524 Cu 0.50023 0.73987 0.76034
 C525 C 0.48035 0.76422 0.76394
 C526 C 0.51991 0.73690 0.73600
 C527 C 0.48047 0.73663 0.73610
 C528 C 0.51981 0.76448 0.76387
 C529 C 0.39482 0.31757 0.31718
 C530 C 0.38861 0.31122 0.33020
 C531 C 0.37622 0.31793 0.33716
 C532 C 0.36975 0.33116 0.33126
 C533 C 0.37609 0.33761 0.31833
 C534 C 0.38847 0.33090 0.31138
 C535 C 0.40771 0.31020 0.30953
 C536 C 0.40815 0.30930 0.29383
 C537 C 0.42015 0.30219 0.28659
 C538 C 0.43199 0.29581 0.29488
 C539 C 0.43158 0.29675 0.31058
 C540 C 0.41958 0.30387 0.31782
 C541 C 0.44461 0.28807 0.28715
 C542 C 0.45053 0.27449 0.29283
 C543 C 0.46212 0.26698 0.28531
 C544 C 0.46806 0.27290 0.27196
 C545 C 0.46226 0.28657 0.26638
 C546 C 0.45067 0.29407 0.27389
 H547 H 0.39314 0.30086 0.33484
 H548 H 0.37162 0.31263 0.34708
 H549 H 0.37145 0.34784 0.31351
 H550 H 0.39314 0.33619 0.30149
 H551 H 0.39906 0.31383 0.28713
 H552 H 0.42000 0.30142 0.27450
 H553 H 0.44065 0.29214 0.31727
 H554 H 0.41967 0.30458 0.32992
 H555 H 0.44599 0.26949 0.30293
 H556 H 0.46632 0.25646 0.28989
 H557 H 0.46661 0.29146 0.25615
 H558 H 0.44649 0.30462 0.26935
 C559 C 0.39460 0.81638 0.81721
 C560 C 0.38814 0.82948 0.81109
 C561 C 0.37569 0.83628 0.81788
 C562 C 0.36937 0.83014 0.83101
 C563 C 0.37603 0.81709 0.83721
 C564 C 0.38846 0.81031 0.83039
 C565 C 0.40756 0.80891 0.80976
 C566 C 0.40823 0.79306 0.80870
 C567 C 0.42030 0.78600 0.80154
 C568 C 0.43199 0.79462 0.79527
 C569 C 0.43135 0.81047 0.79636
 C570 C 0.41927 0.81754 0.80353
 C571 C 0.44469 0.78708 0.78746
 C572 C 0.45049 0.79307 0.77409
 C573 C 0.46216 0.78574 0.76653
 C574 C 0.46830 0.77224 0.77218
 C575 C 0.46262 0.76634 0.78564
 C576 C 0.45095 0.77367 0.79319
 H577 H 0.39252 0.83433 0.80085
 H578 H 0.37098 0.84629 0.81269
 H579 H 0.37164 0.81198 0.84733
 H580 H 0.39333 0.80035 0.83550
 H581 H 0.39926 0.78611 0.81317
 H582 H 0.42032 0.77378 0.80066
 H583 H 0.44029 0.81741 0.79183
 H584 H 0.41918 0.82976 0.80435
 H585 H 0.44579 0.80328 0.76929
 H586 H 0.46626 0.79057 0.75616
 H587 H 0.46713 0.75600 0.79033
 H588 H 0.44687 0.76889 0.80359
 C589 C -0.10504 0.31640 0.81671
 C590 C -0.11143 0.32954 0.81055
 C591 C -0.12385 0.33641 0.81733
 C592 C -0.13015 0.33030 0.83043
 C593 C -0.12363 0.31725 0.83668
 C594 C -0.11123 0.31039 0.82990
 C595 C -0.09212 0.30885 0.80928
 C596 C -0.09154 0.29299 0.80826
 C597 C -0.07951 0.28585 0.80111
 C598 C -0.06777 0.29439 0.79482
 C599 C -0.06832 0.31025 0.79589
 C600 C -0.08036 0.31740 0.80303
 C601 C -0.05511 0.28676 0.78703
 C602 C -0.04928 0.29271 0.77365
 C603 C -0.03765 0.28530 0.76610
 C604 C -0.03158 0.27178 0.77177
 C605 C -0.03730 0.26593 0.78524
 C606 C -0.04893 0.27334 0.79279
 H607 H -0.10702 0.33435 0.80030
 H608 H -0.12858 0.34643 0.81219
 H609 H -0.12814 0.31226 0.84680
 H610 H -0.10643 0.30040 0.83503
 H611 H -0.10055 0.28610 0.81273
 H612 H -0.07954 0.27363 0.80025
 H613 H -0.05934 0.31713 0.79134
 H614 H -0.08039 0.32962 0.80383
 H615 H -0.05392 0.30293 0.76883
 H616 H -0.03352 0.29009 0.75573
 H617 H -0.03284 0.25557 0.78995
 H618 H -0.05303 0.26859 0.80318
 C619 C -0.10564 0.81735 0.31746
 C620 C -0.11200 0.83052 0.31136
 C621 C -0.12440 0.83739 0.31816
 C622 C -0.13078 0.83126 0.33127
 C623 C -0.12422 0.81815 0.33745
 C624 C -0.11183 0.81130 0.33062
 C625 C -0.09274 0.80980 0.30999
 C626 C -0.09220 0.79395 0.30889
 C627 C -0.08020 0.78681 0.30171
 C628 C -0.06844 0.79535 0.29545
 C629 C -0.06895 0.81120 0.29659
 C630 C -0.08097 0.81835 0.30378
 C631 C -0.05579 0.78772 0.28765
 C632 C -0.04993 0.79369 0.27428
 C633 C -0.03831 0.78628 0.26672
 C634 C -0.03228 0.77273 0.27237
 C635 C -0.03802 0.76686 0.28582
 C636 C -0.04964 0.77427 0.29337
 H637 H -0.10758 0.83536 0.30114
 H638 H -0.12903 0.84744 0.31299
 H639 H -0.12865 0.81305 0.34755
 H640 H -0.10704 0.80129 0.33571
 H641 H -0.10123 0.78706 0.31334
 H642 H -0.08027 0.77460 0.30079
 H643 H -0.05995 0.81808 0.29207
 H644 H -0.08096 0.83056 0.30463
 H645 H -0.05455 0.80394 0.26949
 H646 H -0.03416 0.79108 0.25637
 H647 H -0.03358 0.75648 0.29051
 H648 H -0.05376 0.76950 0.30375
 C649 C 0.60573 0.68383 0.31674
 C650 C 0.61214 0.67069 0.31061
 C651 C 0.62453 0.66382 0.31744
 C652 C 0.63079 0.66993 0.33058
 C653 C 0.62424 0.68297 0.33680
 C654 C 0.61187 0.68984 0.32996
 C655 C 0.59284 0.69138 0.30926
 C656 C 0.59225 0.70724 0.30825
 C657 C 0.58024 0.71438 0.30106
 C658 C 0.56853 0.70584 0.29472
 C659 C 0.56909 0.68999 0.29575
 C660 C 0.58111 0.68283 0.30294
 C661 C 0.55587 0.71348 0.28693
 C662 C 0.55004 0.70759 0.27352
 C663 C 0.53841 0.71502 0.26598
 C664 C 0.53233 0.72851 0.27171
 C665 C 0.53804 0.73431 0.28521
 C666 C 0.54967 0.72688 0.29274
 H667 H 0.60778 0.66589 0.30034
 H668 H 0.62929 0.65381 0.31232
 H669 H 0.62871 0.68796 0.34694
 H670 H 0.60704 0.69982 0.33508
 H671 H 0.60124 0.71413 0.31277
 H672 H 0.58028 0.72660 0.30022
 H673 H 0.56013 0.68311 0.29116
 H674 H 0.58114 0.67061 0.30372
 H675 H 0.55470 0.69739 0.26867
 H676 H 0.53429 0.71028 0.25559
 H677 H 0.53357 0.74464 0.28996
 H678 H 0.55376 0.73158 0.30316
 C679 C 0.60522 0.18267 0.81648
 C680 C 0.61136 0.18892 0.82958
 C681 C 0.62382 0.18226 0.83648
 C682 C 0.63050 0.16915 0.83043
 C683 C 0.62417 0.16283 0.81739
 C684 C 0.61171 0.16951 0.81052
 C685 C 0.59225 0.19000 0.80892
 C686 C 0.59179 0.19111 0.79323
 C687 C 0.57973 0.19822 0.78609
 C688 C 0.56784 0.20438 0.79446
 C689 C 0.56826 0.20322 0.81015
 C690 C 0.58032 0.19610 0.81729
 C691 C 0.55518 0.21219 0.78684
 C692 C 0.54922 0.22565 0.79272
 C693 C 0.53760 0.23323 0.78532
 C694 C 0.53166 0.22750 0.77189
 C695 C 0.53751 0.21393 0.76610
 C696 C 0.54914 0.20637 0.77349
 H697 H 0.60671 0.19916 0.83435
 H698 H 0.62827 0.18755 0.84648
 H699 H 0.62883 0.15272 0.81236
 H700 H 0.60710 0.16430 0.80056
 H701 H 0.60092 0.18676 0.78648
 H702 H 0.57987 0.19916 0.77401
 H703 H 0.55916 0.20766 0.81689
 H704 H 0.58024 0.19523 0.82938
 H705 H 0.55376 0.23052 0.80289
 H706 H 0.53337 0.24367 0.79006
 H707 H 0.53315 0.20918 0.75580
 H708 H 0.55335 0.19591 0.76880
 C709 C 1.10522 0.68272 0.81678
 C710 C 1.11158 0.66943 0.81094
 C711 C 1.12401 0.66273 0.81784
 C712 C 1.13039 0.66918 0.83075
 C713 C 1.12391 0.68240 0.83669
 C714 C 1.11147 0.68908 0.82978
 C715 C 1.09227 0.69007 0.80919
 C716 C 1.08044 0.69637 0.81756
 C717 C 1.06839 0.70350 0.81038
 C718 C 1.06790 0.70446 0.79469
 C719 C 1.07969 0.69809 0.78633
 C720 C 1.09173 0.69098 0.79350
 C721 C 1.05525 0.71225 0.78704
 C722 C 1.04909 0.70630 0.77380
 C723 C 1.03747 0.71385 0.76638
 C724 C 1.03175 0.72753 0.77201
 C725 C 1.03779 0.73340 0.78534
 C726 C 1.04941 0.72584 0.79278
 H727 H 1.10688 0.66413 0.80106
 H728 H 1.12865 0.65253 0.81299
 H729 H 1.12853 0.68770 0.84660
 H730 H 1.10694 0.69942 0.83445
 H731 H 1.08042 0.69565 0.82965
 H732 H 1.05937 0.70810 0.81712
 H733 H 1.07976 0.69888 0.77424
 H734 H 1.10079 0.68646 0.78675
 H735 H 1.05321 0.69575 0.76922
 H736 H 1.03303 0.70899 0.75617
 H737 H 1.03366 0.74393 0.78997
 H738 H 1.05404 0.73081 0.80285
 C739 C 1.10609 0.18386 0.31679
 C740 C 1.11230 0.18988 0.32997
 C741 C 1.12469 0.18301 0.33677
 C742 C 1.13126 0.16992 0.33055
 C743 C 1.12487 0.16384 0.31742
 C744 C 1.11246 0.17072 0.31065
 C745 C 1.09316 0.19141 0.30937
 C746 C 1.08138 0.18285 0.30317
 C747 C 1.06934 0.18998 0.29599
 C748 C 1.06882 0.20584 0.29485
 C749 C 1.08057 0.21439 0.30111
 C750 C 1.09260 0.20726 0.30828
 C751 C 1.05617 0.21344 0.28701
 C752 C 1.05001 0.22692 0.29267
 C753 C 1.03838 0.23429 0.28509
 C754 C 1.03262 0.22834 0.27167
 C755 C 1.03867 0.21478 0.26609
 C756 C 1.05031 0.20741 0.27367
 H757 H 1.10749 0.19987 0.33509
 H758 H 1.12912 0.18808 0.34689
 H759 H 1.12951 0.15380 0.31222
 H760 H 1.10803 0.16591 0.30041
 H761 H 1.08139 0.17063 0.30401
 H762 H 1.06035 0.18309 0.29149
 H763 H 1.08063 0.22660 0.30019
 H764 H 1.10162 0.21415 0.31272
 H765 H 1.05414 0.23174 0.30303
 H766 H 1.03393 0.24469 0.28973
 H767 H 1.03452 0.20991 0.25576
 H768 H 1.05493 0.19715 0.26892
 C769 C 0.60495 0.31649 0.68286
 C770 C 0.61105 0.31050 0.66962
 C771 C 0.62341 0.31738 0.66277
 C772 C 0.62997 0.33041 0.66900
 C773 C 0.62375 0.33650 0.68215
 C774 C 0.61138 0.32962 0.68900
 C775 C 0.59208 0.30892 0.69036
 C776 C 0.58037 0.31746 0.69672
 C777 C 0.56837 0.31030 0.70393
 C778 C 0.56781 0.29444 0.70495
 C779 C 0.57950 0.28591 0.69856
 C780 C 0.59149 0.29307 0.69135
 C781 C 0.55517 0.28679 0.71276
 C782 C 0.54893 0.27342 0.70694
 C783 C 0.53732 0.26599 0.71448
 C784 C 0.53167 0.27175 0.72802
 C785 C 0.53780 0.28522 0.73376
 C786 C 0.54941 0.29266 0.72620
 H787 H 0.60620 0.30052 0.66450
 H788 H 0.62785 0.31241 0.65261
 H789 H 0.62852 0.34651 0.68728
 H790 H 0.60705 0.33441 0.69928
 H791 H 0.58040 0.32969 0.69596
 H792 H 0.55943 0.31717 0.70856
 H793 H 0.57953 0.27369 0.69938
 H794 H 0.60046 0.28619 0.68680
 H795 H 0.55298 0.26874 0.69649
 H796 H 0.53281 0.25567 0.70972
 H797 H 0.53372 0.28995 0.74417
 H798 H 0.55410 0.30284 0.73106
 C799 C 0.60580 0.81730 0.18279
 C800 C 0.61207 0.81132 0.16963
 C801 C 0.62448 0.81822 0.16290
 C802 C 0.63099 0.83131 0.16917
 C803 C 0.62455 0.83737 0.18228
 C804 C 0.61212 0.83044 0.18898
 C805 C 0.59286 0.80971 0.19016
 C806 C 0.58108 0.81823 0.19638
 C807 C 0.56904 0.81105 0.20352
 C808 C 0.56852 0.79519 0.20459
 C809 C 0.58028 0.78668 0.19831
 C810 C 0.59231 0.79385 0.19118
 C811 C 0.55586 0.78754 0.21236
 C812 C 0.54970 0.77411 0.20658
 C813 C 0.53807 0.76668 0.21410
 C814 C 0.53233 0.77249 0.22758
 C815 C 0.53838 0.78601 0.23328
 C816 C 0.55001 0.79345 0.22575
 H817 H 0.60730 0.80133 0.16447
 H818 H 0.62896 0.81319 0.15279
 H819 H 0.62914 0.84740 0.18752
 H820 H 0.60765 0.83522 0.19921
 H821 H 0.58107 0.83045 0.19559
 H822 H 0.56004 0.81791 0.20805
 H823 H 0.58034 0.77446 0.19917
 H824 H 0.60134 0.78698 0.18673
 H825 H 0.55381 0.76939 0.19618
 H826 H 0.53362 0.75632 0.20937
 H827 H 0.53424 0.79078 0.24365
 H828 H 0.55464 0.80367 0.23058
 C829 C 1.10560 0.31649 0.18179
 C830 C 1.11198 0.31048 0.16870
 C831 C 1.12443 0.31738 0.16203
 C832 C 1.13087 0.33050 0.16831
 C833 C 1.12431 0.33659 0.18135
 C834 C 1.11185 0.32967 0.18798
 C835 C 1.09265 0.30888 0.18910
 C836 C 1.08079 0.31740 0.19520
 C837 C 1.06876 0.31022 0.20235
 C838 C 1.06832 0.29437 0.20356
 C839 C 1.08014 0.28586 0.19738
 C840 C 1.09216 0.29303 0.19023
 C841 C 1.05574 0.28673 0.21145
 C842 C 1.04964 0.27318 0.20587
 C843 C 1.03808 0.26578 0.21352
 C844 C 1.03235 0.27175 0.22694
 C845 C 1.03833 0.28538 0.23244
 C846 C 1.04989 0.29278 0.22478
 H847 H 1.10728 0.30045 0.16354
 H848 H 1.12900 0.31232 0.15198
 H849 H 1.12885 0.34665 0.18660
 H850 H 1.10729 0.33448 0.19816
 H851 H 1.08073 0.32961 0.19431
 H852 H 1.05971 0.31707 0.20680
 H853 H 1.08026 0.27365 0.19835
 H854 H 1.10124 0.28618 0.18586
 H855 H 1.05376 0.26834 0.19552
 H856 H 1.03368 0.25533 0.20895
 H857 H 1.03419 0.29026 0.24276
 H858 H 1.05447 0.30309 0.22947
 C859 C 1.10536 0.81579 0.68268
 C860 C 1.11160 0.80982 0.66951
 C861 C 1.12404 0.81668 0.66279
 C862 C 1.13062 0.82973 0.66909
 C863 C 1.12421 0.83577 0.68222
 C864 C 1.11175 0.82889 0.68891
 C865 C 1.09239 0.80825 0.69003
 C866 C 1.08064 0.81681 0.69626
 C867 C 1.06858 0.80969 0.70340
 C868 C 1.06800 0.79383 0.70448
 C869 C 1.07971 0.78527 0.69818
 C870 C 1.09176 0.79239 0.69104
 C871 C 1.05536 0.78624 0.71234
 C872 C 1.04912 0.77280 0.70665
 C873 C 1.03749 0.76545 0.71426
 C874 C 1.03184 0.77136 0.72773
 C875 C 1.03797 0.78488 0.73334
 C876 C 1.04959 0.79223 0.72573
 H877 H 1.10679 0.79986 0.66432
 H878 H 1.12850 0.81166 0.65267
 H879 H 1.12885 0.84577 0.68749
 H880 H 1.10730 0.83366 0.69915
 H881 H 1.08069 0.82904 0.69547
 H882 H 1.05961 0.81658 0.70794
 H883 H 1.07972 0.77305 0.69904
 H884 H 1.10076 0.78549 0.68657
 H885 H 1.05317 0.76802 0.69625
 H886 H 1.03298 0.75509 0.70960
 H887 H 1.03390 0.78971 0.74371
 H888 H 1.05429 0.80246 0.73050
 C889 C 0.39520 0.68348 0.68296
 C890 C 0.38898 0.68982 0.66994
 C891 C 0.37657 0.68311 0.66299
 C892 C 0.37009 0.66988 0.66891
 C893 C 0.37644 0.66345 0.68185
 C894 C 0.38884 0.67017 0.68879
 C895 C 0.40812 0.69085 0.69059
 C896 C 0.40860 0.69178 0.70628
 C897 C 0.42061 0.69892 0.71348
 C898 C 0.43242 0.70530 0.70516
 C899 C 0.43198 0.70433 0.68946
 C900 C 0.41996 0.69718 0.68226
 C901 C 0.44504 0.71311 0.71284
 C902 C 0.45090 0.72670 0.70712
 C903 C 0.46249 0.73426 0.71459
 C904 C 0.46850 0.72840 0.72794
 C905 C 0.46275 0.71471 0.73356
 C906 C 0.45116 0.70716 0.72610
 H907 H 0.39351 0.70017 0.66528
 H908 H 0.37197 0.68840 0.65307
 H909 H 0.37180 0.65323 0.68669
 H910 H 0.39352 0.66489 0.69868
 H911 H 0.39953 0.68725 0.71300
 H912 H 0.42049 0.69971 0.72557
 H913 H 0.44102 0.70895 0.68275
 H914 H 0.42002 0.69646 0.67016
 H915 H 0.44631 0.73166 0.69703
 H916 H 0.46664 0.74479 0.70997
 H917 H 0.46716 0.70986 0.74379
 H918 H 0.44702 0.69661 0.73067
 C919 C 0.39445 0.18381 0.18310
 C920 C 0.38809 0.17059 0.18908
 C921 C 0.37571 0.16376 0.18222
 C922 C 0.36932 0.16999 0.16915
 C923 C 0.37589 0.18315 0.16308
 C924 C 0.38827 0.18995 0.16997
 C925 C 0.40734 0.19130 0.19067
 C926 C 0.41921 0.19752 0.18231
 C927 C 0.43122 0.20473 0.18948
 C928 C 0.43162 0.20585 0.20516
 C929 C 0.41977 0.19960 0.21352
 C930 C 0.40776 0.19241 0.20636
 C931 C 0.44427 0.21365 0.21282
 C932 C 0.45034 0.20774 0.22612
 C933 C 0.46198 0.21526 0.23354
 C934 C 0.46781 0.22887 0.22784
 C935 C 0.46186 0.23470 0.21445
 C936 C 0.45022 0.22716 0.20702
 H937 H 0.39274 0.16544 0.19906
 H938 H 0.37113 0.15361 0.18727
 H939 H 0.37140 0.18836 0.15306
 H940 H 0.39282 0.20023 0.16518
 H941 H 0.41931 0.19666 0.17022
 H942 H 0.44030 0.20925 0.18275
 H943 H 0.41962 0.20051 0.22560
 H944 H 0.39866 0.18797 0.21310
 H945 H 0.44614 0.19724 0.23075
 H946 H 0.46635 0.21044 0.24380
 H947 H 0.46608 0.24517 0.20978
 H948 H 0.44567 0.23208 0.19689
 C949 C -0.10529 0.68399 0.18272
 C950 C -0.11162 0.67080 0.18884
 C951 C -0.12399 0.66388 0.18202
 C952 C -0.13030 0.66998 0.16891
 C953 C -0.12383 0.68308 0.16270
 C954 C -0.11148 0.68999 0.16953
 C955 C -0.09243 0.69161 0.19021
 C956 C -0.09194 0.70746 0.19127
 C957 C -0.07998 0.71466 0.19847
 C958 C -0.06821 0.70618 0.20478
 C959 C -0.06866 0.69032 0.20368
 C960 C -0.08064 0.68312 0.19647
 C961 C -0.05562 0.71387 0.21264
 C962 C -0.04980 0.70793 0.22603
 C963 C -0.03822 0.71538 0.23363
 C964 C -0.03220 0.72894 0.22800
 C965 C -0.03791 0.73479 0.21452
 C966 C -0.04949 0.72734 0.20693
 H967 H -0.10721 0.66600 0.19909
 H968 H -0.12868 0.65383 0.18713
 H969 H -0.12834 0.68806 0.15259
 H970 H -0.10671 0.70002 0.16443
 H971 H -0.10098 0.71431 0.18679
 H972 H -0.08009 0.72688 0.19937
 H973 H -0.05965 0.68349 0.20823
 H974 H -0.08059 0.67090 0.19564
 H975 H -0.05440 0.69767 0.23081
 H976 H -0.03410 0.71059 0.24400
 H977 H -0.03348 0.74518 0.20985
 H978 H -0.05358 0.73208 0.19653
 C979 C -0.10528 0.18326 0.68290
 C980 C -0.11173 0.17005 0.68883
 C981 C -0.12417 0.16334 0.68196
 C982 C -0.13053 0.16967 0.66893
 C983 C -0.12390 0.18282 0.66292
 C984 C -0.11146 0.18951 0.66982
 C985 C -0.09233 0.19061 0.69047
 C986 C -0.08043 0.19679 0.68209
 C987 C -0.06836 0.20390 0.68925
 C988 C -0.06791 0.20498 0.70494
 C989 C -0.07978 0.19875 0.71330
 C990 C -0.09184 0.19166 0.70615
 C991 C -0.05522 0.21271 0.71258
 C992 C -0.04915 0.20678 0.72586
 C993 C -0.03749 0.21426 0.73328
 C994 C -0.03164 0.22787 0.72760
 C995 C -0.03759 0.23372 0.71423
 C996 C -0.04925 0.22622 0.70679
 H997 H -0.10709 0.16483 0.69877
 H998 H -0.12880 0.15319 0.68696
 H999 H -0.12838 0.18811 0.65293
 H1000 H -0.10685 0.19978 0.66507
 H1001 H -0.08037 0.19598 0.67000
 H1002 H -0.05929 0.20840 0.68251
 H1003 H -0.07989 0.19963 0.72539
 H1004 H -0.10095 0.18725 0.71291
 H1005 H -0.05337 0.19628 0.73048
 H1006 H -0.03312 0.20942 0.74353
 H1007 H -0.03335 0.24420 0.70956
 H1008 H -0.05380 0.23117 0.69668
 C1009 C 0.31612 0.39545 0.31815
 C1010 C 0.31018 0.38903 0.33127
 C1011 C 0.31715 0.37660 0.33799
 C1012 C 0.33022 0.37027 0.33173
 C1013 C 0.33625 0.37680 0.31870
 C1014 C 0.32928 0.38924 0.31199
 C1015 C 0.30847 0.40839 0.31077
 C1016 C 0.31686 0.42033 0.30458
 C1017 C 0.30965 0.43234 0.29736
 C1018 C 0.29389 0.43268 0.29617
 C1019 C 0.28551 0.42079 0.30244
 C1020 C 0.29271 0.40878 0.30965
 C1021 C 0.28622 0.44528 0.28826
 C1022 C 0.27276 0.45138 0.29389
 C1023 C 0.26534 0.46297 0.28625
 C1024 C 0.27119 0.46873 0.27279
 C1025 C 0.28472 0.46274 0.26723
 C1026 C 0.29215 0.45115 0.27488
 H1027 H 0.30016 0.39369 0.33640
 H1028 H 0.31222 0.37191 0.34805
 H1029 H 0.34629 0.37222 0.31355
 H1030 H 0.33403 0.39381 0.30179
 H1031 H 0.32901 0.42047 0.30546
 H1032 H 0.31641 0.44145 0.29285
 H1033 H 0.27337 0.42059 0.30149
 H1034 H 0.28595 0.39963 0.31408
 H1035 H 0.26802 0.44724 0.30428
 H1036 H 0.25497 0.46738 0.29087
 H1037 H 0.28951 0.46690 0.25688
 H1038 H 0.30239 0.44656 0.27016
 C1039 C 0.31662 -0.10652 0.81751
 C1040 C 0.32973 -0.11277 0.81131
 C1041 C 0.33673 -0.12520 0.81803
 C1042 C 0.33078 -0.13172 0.83116
 C1043 C 0.31772 -0.12527 0.83743
 C1044 C 0.31075 -0.11285 0.83068
 C1045 C 0.30896 -0.09358 0.81014
 C1046 C 0.29319 -0.09315 0.80913
 C1047 C 0.28595 -0.08111 0.80200
 C1048 C 0.29432 -0.06922 0.79570
 C1049 C 0.31009 -0.06960 0.79677
 C1050 C 0.31733 -0.08165 0.80390
 C1051 C 0.28660 -0.05658 0.78789
 C1052 C 0.29246 -0.05067 0.77450
 C1053 C 0.28500 -0.03904 0.76693
 C1054 C 0.27151 -0.03305 0.77260
 C1055 C 0.26573 -0.03884 0.78607
 C1056 C 0.27320 -0.05047 0.79363
 H1057 H 0.33443 -0.10825 0.80107
 H1058 H 0.34673 -0.12975 0.81278
 H1059 H 0.31277 -0.12981 0.84755
 H1060 H 0.30078 -0.10814 0.83585
 H1061 H 0.28644 -0.10229 0.81360
 H1062 H 0.27381 -0.08128 0.80114
 H1063 H 0.31683 -0.06050 0.79222
 H1064 H 0.32948 -0.08154 0.80469
 H1065 H 0.30266 -0.05526 0.76969
 H1066 H 0.28973 -0.03486 0.75656
 H1067 H 0.25540 -0.03444 0.79077
 H1068 H 0.26851 -0.05464 0.80403
 C1069 C 0.81671 0.39416 0.81708
 C1070 C 0.82984 0.38788 0.81094
 C1071 C 0.83677 0.37542 0.81768
 C1072 C 0.83074 0.36891 0.83077
 C1073 C 0.81766 0.37538 0.83698
 C1074 C 0.81075 0.38782 0.83021
 C1075 C 0.80912 0.40713 0.80968
 C1076 C 0.79336 0.40759 0.80860
 C1077 C 0.78619 0.41967 0.80146
 C1078 C 0.79461 0.43156 0.79524
 C1079 C 0.81037 0.43113 0.79637
 C1080 C 0.81755 0.41905 0.80351
 C1081 C 0.78696 0.44426 0.78746
 C1082 C 0.79288 0.45023 0.77412
 C1083 C 0.78547 0.46192 0.76660
 C1084 C 0.77198 0.46791 0.77225
 C1085 C 0.76614 0.46206 0.78567
 C1086 C 0.77355 0.45037 0.79319
 H1087 H 0.83461 0.39240 0.80073
 H1088 H 0.84679 0.37086 0.81248
 H1089 H 0.81264 0.37084 0.84707
 H1090 H 0.80077 0.39255 0.83533
 H1091 H 0.78656 0.39846 0.81301
 H1092 H 0.77405 0.41953 0.80055
 H1093 H 0.81716 0.44023 0.79189
 H1094 H 0.82970 0.41912 0.80436
 H1095 H 0.80309 0.44564 0.76933
 H1096 H 0.79025 0.46615 0.75626
 H1097 H 0.75580 0.46647 0.79035
 H1098 H 0.76882 0.44617 0.80355
 C1099 C 0.81650 -0.10459 0.31732
 C1100 C 0.82959 -0.11093 0.31115
 C1101 C 0.83652 -0.12336 0.31792
 C1102 C 0.83052 -0.12974 0.33105
 C1103 C 0.81751 -0.12328 0.33731
 C1104 C 0.81059 -0.11086 0.33052
 C1105 C 0.80890 -0.09166 0.30989
 C1106 C 0.79313 -0.09117 0.30888
 C1107 C 0.78595 -0.07913 0.30170
 C1108 C 0.79436 -0.06730 0.29535
 C1109 C 0.81013 -0.06775 0.29640
 C1110 C 0.81732 -0.07980 0.30359
 C1111 C 0.78669 -0.05464 0.28753
 C1112 C 0.79254 -0.04880 0.27410
 C1113 C 0.78510 -0.03715 0.26653
 C1114 C 0.77166 -0.03109 0.27223
 C1115 C 0.76590 -0.03682 0.28573
 C1116 C 0.77334 -0.04846 0.29329
 H1117 H 0.83432 -0.10648 0.30089
 H1118 H 0.84650 -0.12806 0.31277
 H1119 H 0.81261 -0.12784 0.34744
 H1120 H 0.80064 -0.10609 0.33567
 H1121 H 0.78634 -0.10026 0.31339
 H1122 H 0.77380 -0.07925 0.30085
 H1123 H 0.81691 -0.05869 0.29182
 H1124 H 0.82947 -0.07974 0.30438
 H1125 H 0.80271 -0.05344 0.26928
 H1126 H 0.78981 -0.03302 0.25614
 H1127 H 0.75560 -0.03236 0.29046
 H1128 H 0.76867 -0.05257 0.30372
 C1129 C 0.31639 0.60562 0.68201
 C1130 C 0.31042 0.61208 0.66892
 C1131 C 0.31741 0.62451 0.66221
 C1132 C 0.33052 0.63079 0.66844
 C1133 C 0.33657 0.62422 0.68146
 C1134 C 0.32959 0.61178 0.68815
 C1135 C 0.30874 0.59266 0.68938
 C1136 C 0.31713 0.58068 0.69548
 C1137 C 0.30992 0.56866 0.70269
 C1138 C 0.29417 0.56835 0.70395
 C1139 C 0.28578 0.58028 0.69775
 C1140 C 0.29298 0.59230 0.69055
 C1141 C 0.28650 0.55575 0.71188
 C1142 C 0.27299 0.54970 0.70632
 C1143 C 0.26560 0.53809 0.71398
 C1144 C 0.27154 0.53227 0.72737
 C1145 C 0.28512 0.53823 0.73286
 C1146 C 0.29252 0.54983 0.72520
 H1147 H 0.30038 0.60745 0.66381
 H1148 H 0.31246 0.62923 0.65217
 H1149 H 0.34664 0.62877 0.68659
 H1150 H 0.33435 0.60718 0.69833
 H1151 H 0.32927 0.58053 0.69456
 H1152 H 0.31668 0.55952 0.70714
 H1153 H 0.27365 0.58050 0.69875
 H1154 H 0.28622 0.60147 0.68617
 H1155 H 0.26818 0.55388 0.69598
 H1156 H 0.25518 0.53372 0.70942
 H1157 H 0.28999 0.53403 0.74316
 H1158 H 0.30281 0.55439 0.72987
 C1159 C 0.31697 1.10649 0.18292
 C1160 C 0.31093 1.11278 0.16980
 C1161 C 0.31780 1.12521 0.16295
 C1162 C 0.33093 1.13169 0.16905
 C1163 C 0.33705 1.12519 0.18211
 C1164 C 0.33016 1.11278 0.18894
 C1165 C 0.30943 1.09357 0.19046
 C1166 C 0.30832 1.09311 0.20614
 C1167 C 0.30114 1.08105 0.21327
 C1168 C 0.29487 1.06917 0.20489
 C1169 C 0.29597 1.06961 0.18921
 C1170 C 0.30318 1.08168 0.18207
 C1171 C 0.28712 1.05644 0.21252
 C1172 C 0.27366 1.05049 0.20674
 C1173 C 0.26616 1.03879 0.21417
 C1174 C 0.27196 1.03277 0.22754
 C1175 C 0.28551 1.03860 0.23322
 C1176 C 0.29300 1.05030 0.22580
 H1177 H 0.30068 1.10829 0.16498
 H1178 H 0.31267 1.12979 0.15293
 H1179 H 0.34717 1.12970 0.18719
 H1180 H 0.33523 1.10803 0.19891
 H1181 H 0.31278 1.10223 0.21291
 H1182 H 0.30024 1.08118 0.22536
 H1183 H 0.29144 1.06051 0.18246
 H1184 H 0.30403 1.08160 0.16998
 H1185 H 0.26876 1.05509 0.19662
 H1186 H 0.25572 1.03457 0.20950
 H1187 H 0.29032 1.03418 0.24346
 H1188 H 0.30346 1.05450 0.23042
 C1189 C 0.81685 0.60586 0.18211
 C1190 C 0.82997 0.61219 0.18824
 C1191 C 0.83683 0.62468 0.18152
 C1192 C 0.83075 0.63120 0.16845
 C1193 C 0.81769 0.62469 0.16224
 C1194 C 0.81084 0.61220 0.16899
 C1195 C 0.80932 0.59286 0.18950
 C1196 C 0.79356 0.59233 0.19063
 C1197 C 0.78646 0.58025 0.19781
 C1198 C 0.79494 0.56840 0.20403
 C1199 C 0.81070 0.56888 0.20284
 C1200 C 0.81781 0.58097 0.19566
 C1201 C 0.78736 0.55570 0.21189
 C1202 C 0.79336 0.54983 0.22524
 C1203 C 0.78601 0.53816 0.23285
 C1204 C 0.77250 0.53209 0.22728
 C1205 C 0.76660 0.53786 0.21385
 C1206 C 0.77394 0.54953 0.20625
 H1207 H 0.83477 0.60766 0.19844
 H1208 H 0.84685 0.62928 0.18672
 H1209 H 0.81264 0.62923 0.15216
 H1210 H 0.80087 0.60744 0.16388
 H1211 H 0.78672 0.60144 0.18622
 H1212 H 0.77432 0.58034 0.19876
 H1213 H 0.81753 0.55981 0.20732
 H1214 H 0.82995 0.58094 0.19478
 H1215 H 0.80358 0.55446 0.22997
 H1216 H 0.79084 0.53399 0.24319
 H1217 H 0.75624 0.53341 0.20923
 H1218 H 0.76916 0.55367 0.19588
 C1219 C 0.81684 1.10623 0.68215
 C1220 C 0.81090 1.11262 0.66903
 C1221 C 0.81784 1.12508 0.66231
 C1222 C 0.83092 1.13151 0.66857
 C1223 C 0.83693 1.12493 0.68164
 C1224 C 0.82997 1.11247 0.68833
 C1225 C 0.80922 1.09326 0.68952
 C1226 C 0.81763 1.08133 0.69570
 C1227 C 0.81045 1.06929 0.70289
 C1228 C 0.79469 1.06891 0.70407
 C1229 C 0.78627 1.08079 0.69780
 C1230 C 0.79346 1.09282 0.69061
 C1231 C 0.78704 1.05629 0.71197
 C1232 C 0.77360 1.05015 0.70634
 C1233 C 0.76620 1.03852 0.71397
 C1234 C 0.77208 1.03278 0.72742
 C1235 C 0.78559 1.03882 0.73299
 C1236 C 0.79299 1.05044 0.72535
 H1237 H 0.80091 1.10792 0.66388
 H1238 H 0.81284 1.12967 0.65223
 H1239 H 0.84695 1.12946 0.68688
 H1240 H 0.83472 1.10791 0.69853
 H1241 H 0.82978 1.08124 0.69484
 H1242 H 0.81722 1.06020 0.70741
 H1243 H 0.77413 1.08094 0.69874
 H1244 H 0.78667 1.10195 0.68618
 H1245 H 0.76884 1.05427 0.69595
 H1246 H 0.75584 1.03409 0.70935
 H1247 H 0.79040 1.03467 0.74334
 H1248 H 0.80322 1.05505 0.73008
 C1249 C 0.68429 0.60556 0.31698
 C1250 C 0.69024 0.61189 0.33014
 C1251 C 0.68329 0.62430 0.33692
 C1252 C 0.67023 0.63068 0.33069
 C1253 C 0.66420 0.62424 0.31761
 C1254 C 0.67115 0.61182 0.31084
 C1255 C 0.69191 0.59262 0.30956
 C1256 C 0.68350 0.58070 0.30336
 C1257 C 0.69070 0.56867 0.29617
 C1258 C 0.70646 0.56828 0.29502
 C1259 C 0.71486 0.58017 0.30129
 C1260 C 0.70767 0.59220 0.30847
 C1261 C 0.71413 0.55564 0.28717
 C1262 C 0.72757 0.54954 0.29283
 C1263 C 0.73498 0.53790 0.28525
 C1264 C 0.72912 0.53210 0.27181
 C1265 C 0.71560 0.53810 0.26621
 C1266 C 0.70819 0.54973 0.27381
 H1267 H 0.70024 0.60718 0.33526
 H1268 H 0.68823 0.62891 0.34702
 H1269 H 0.65417 0.62887 0.31248
 H1270 H 0.66639 0.60731 0.30062
 H1271 H 0.67136 0.58060 0.30421
 H1272 H 0.68393 0.55956 0.29166
 H1273 H 0.72700 0.58034 0.30037
 H1274 H 0.71445 0.60133 0.31292
 H1275 H 0.73231 0.55370 0.30321
 H1276 H 0.74534 0.53350 0.28989
 H1277 H 0.71080 0.53391 0.25587
 H1278 H 0.69796 0.55432 0.26905
 C1279 C 0.68336 1.10599 0.81704
 C1280 C 0.67019 1.11218 0.81089
 C1281 C 0.66318 1.12459 0.81761
 C1282 C 0.66918 1.13116 0.83070
 C1283 C 0.68229 1.12477 0.83693
 C1284 C 0.68928 1.11237 0.83017
 C1285 C 0.69103 1.09308 0.80963
 C1286 C 0.70679 1.09274 0.80852
 C1287 C 0.71404 1.08076 0.80132
 C1288 C 0.70569 1.06883 0.79507
 C1289 C 0.68993 1.06912 0.79624
 C1290 C 0.68268 1.08112 0.80344
 C1291 C 0.71341 1.05623 0.78721
 C1292 C 0.70751 1.05030 0.77384
 C1293 C 0.71498 1.03870 0.76625
 C1294 C 0.72852 1.03276 0.77186
 C1295 C 0.73434 1.03858 0.78531
 C1296 C 0.72687 1.05019 0.79289
 H1297 H 0.66545 1.10762 0.80068
 H1298 H 0.65314 1.12908 0.81240
 H1299 H 0.68728 1.12935 0.84702
 H1300 H 0.69929 1.10771 0.83530
 H1301 H 0.71353 1.10191 0.81295
 H1302 H 0.72618 1.08099 0.80039
 H1303 H 0.68320 1.05999 0.79173
 H1304 H 0.67053 1.08095 0.80431
 H1305 H 0.69726 1.05484 0.76908
 H1306 H 0.71021 1.03448 0.75590
 H1307 H 0.74471 1.03422 0.78997
 H1308 H 0.73159 1.05437 0.80327
 C1309 C 0.18376 0.60556 0.81777
 C1310 C 0.18973 0.61199 0.83087
 C1311 C 0.18279 0.62443 0.83760
 C1312 C 0.16967 0.63082 0.83139
 C1313 C 0.16363 0.62421 0.81834
 C1314 C 0.17059 0.61176 0.81164
 C1315 C 0.19137 0.59260 0.81039
 C1316 C 0.18295 0.58065 0.80427
 C1317 C 0.19011 0.56863 0.79703
 C1318 C 0.20587 0.56829 0.79575
 C1319 C 0.21429 0.58019 0.80197
 C1320 C 0.20712 0.59220 0.80921
 C1321 C 0.21349 0.55570 0.78778
 C1322 C 0.22699 0.54960 0.79331
 C1323 C 0.23435 0.53800 0.78562
 C1324 C 0.22839 0.53224 0.77221
 C1325 C 0.21481 0.53824 0.76675
 C1326 C 0.20745 0.54984 0.77445
 H1327 H 0.19976 0.60732 0.83598
 H1328 H 0.18782 0.62904 0.84766
 H1329 H 0.15358 0.62871 0.81314
 H1330 H 0.16581 0.60718 0.80146
 H1331 H 0.17081 0.58052 0.80520
 H1332 H 0.18333 0.55952 0.79256
 H1333 H 0.22642 0.58039 0.80096
 H1334 H 0.21391 0.60136 0.81360
 H1335 H 0.23182 0.55374 0.80366
 H1336 H 0.24476 0.53359 0.79016
 H1337 H 0.20993 0.53408 0.75644
 H1338 H 0.19717 0.55442 0.76980
 C1339 C 0.18362 1.10632 0.31685
 C1340 C 0.18955 1.11258 0.33003
 C1341 C 0.18265 1.12501 0.33682
 C1342 C 0.16962 1.13155 0.33058
 C1343 C 0.16362 1.12511 0.31744
 C1344 C 0.17053 1.11267 0.31068
 C1345 C 0.19120 1.09336 0.30943
 C1346 C 0.18276 1.08149 0.30317
 C1347 C 0.18992 1.06943 0.29600
 C1348 C 0.20568 1.06896 0.29492
 C1349 C 0.21412 1.08079 0.30123
 C1350 C 0.20696 1.09285 0.30840
 C1351 C 0.21332 1.05629 0.28707
 C1352 C 0.22671 1.05011 0.29279
 C1353 C 0.23410 1.03846 0.28521
 C1354 C 0.22828 1.03271 0.27173
 C1355 C 0.21481 1.03878 0.26609
 C1356 C 0.20741 1.05043 0.27368
 H1357 H 0.19949 1.10779 0.33518
 H1358 H 0.18765 1.12949 0.34695
 H1359 H 0.15363 1.12973 0.31221
 H1360 H 0.16579 1.10820 0.30043
 H1361 H 0.17060 1.08145 0.30397
 H1362 H 0.18312 1.06037 0.29144
 H1363 H 0.22627 1.08090 0.30036
 H1364 H 0.21377 1.10194 0.31288
 H1365 H 0.23143 1.05423 0.30319
 H1366 H 0.24442 1.03400 0.28988
 H1367 H 0.21004 1.03464 0.25572
 H1368 H 0.19722 1.05508 0.26889
 C1369 C 0.68346 0.39484 0.68253
 C1370 C 0.67033 0.38855 0.68869
 C1371 C 0.66337 0.37613 0.68192
 C1372 C 0.66938 0.36971 0.66882
 C1373 C 0.68242 0.37612 0.66257
 C1374 C 0.68938 0.38853 0.66935
 C1375 C 0.69110 0.40776 0.68995
 C1376 C 0.70687 0.40819 0.69101
 C1377 C 0.71407 0.42020 0.69822
 C1378 C 0.70568 0.43207 0.70453
 C1379 C 0.68992 0.43168 0.70341
 C1380 C 0.68271 0.41966 0.69620
 C1381 C 0.71336 0.44468 0.71243
 C1382 C 0.70746 0.45052 0.72582
 C1383 C 0.71489 0.46212 0.73346
 C1384 C 0.72840 0.46815 0.72786
 C1385 C 0.73423 0.46241 0.71439
 C1386 C 0.72679 0.45081 0.70676
 H1387 H 0.66560 0.39304 0.69893
 H1388 H 0.65336 0.37148 0.68707
 H1389 H 0.68733 0.37152 0.65246
 H1390 H 0.69936 0.39325 0.66422
 H1391 H 0.71363 0.39907 0.68654
 H1392 H 0.72621 0.42004 0.69912
 H1393 H 0.68316 0.44076 0.70796
 H1394 H 0.67056 0.41976 0.69537
 H1395 H 0.69724 0.44591 0.73057
 H1396 H 0.71013 0.46626 0.74383
 H1397 H 0.74458 0.46684 0.70975
 H1398 H 0.73151 0.44669 0.69636
 C1399 C 0.68312 -0.10494 0.18327
 C1400 C 0.67002 -0.11134 0.18937
 C1401 C 0.66315 -0.12378 0.18254
 C1402 C 0.66922 -0.13017 0.16940
 C1403 C 0.68226 -0.12357 0.16323
 C1404 C 0.68910 -0.11114 0.17008
 C1405 C 0.69067 -0.09200 0.19076
 C1406 C 0.70643 -0.09148 0.19181
 C1407 C 0.71358 -0.07942 0.19898
 C1408 C 0.70513 -0.06758 0.20526
 C1409 C 0.68937 -0.06808 0.20420
 C1410 C 0.68221 -0.08016 0.19703
 C1411 C 0.71278 -0.05485 0.21301
 C1412 C 0.70694 -0.04894 0.22641
 C1413 C 0.71437 -0.03724 0.23390
 C1414 C 0.72780 -0.03118 0.22817
 C1415 C 0.73355 -0.03698 0.21468
 C1416 C 0.72612 -0.04868 0.20720
 H1417 H 0.66524 -0.10691 0.19961
 H1418 H 0.65316 -0.12844 0.18771
 H1419 H 0.68730 -0.12800 0.15311
 H1420 H 0.69905 -0.10631 0.16499
 H1421 H 0.71325 -0.10056 0.18733
 H1422 H 0.72573 -0.07950 0.19984
 H1423 H 0.68256 -0.05902 0.20875
 H1424 H 0.67006 -0.08014 0.19622
 H1425 H 0.69678 -0.05357 0.23126
 H1426 H 0.70966 -0.03305 0.24428
 H1427 H 0.74384 -0.03253 0.20992
 H1428 H 0.73078 -0.05284 0.19679
 C1429 C 0.18311 0.39475 0.18328
 C1430 C 0.16983 0.38844 0.18907
 C1431 C 0.16308 0.37602 0.18211
 C1432 C 0.16945 0.36960 0.16918
 C1433 C 0.18266 0.37603 0.16330
 C1434 C 0.18940 0.38847 0.17026
 C1435 C 0.19049 0.40770 0.19093
 C1436 C 0.19684 0.41961 0.18263
 C1437 C 0.20392 0.43168 0.18987
 C1438 C 0.20483 0.43212 0.20557
 C1439 C 0.19845 0.42023 0.21386
 C1440 C 0.19137 0.40817 0.20663
 C1441 C 0.21253 0.44483 0.21329
 C1442 C 0.20656 0.45096 0.22654
 C1443 C 0.21399 0.46265 0.23402
 C1444 C 0.22758 0.46849 0.22844
 C1445 C 0.23348 0.46248 0.21511
 C1446 C 0.22603 0.45078 0.20762
 H1447 H 0.16458 0.39316 0.19895
 H1448 H 0.15288 0.37142 0.18692
 H1449 H 0.18790 0.37138 0.15338
 H1450 H 0.19973 0.39297 0.16563
 H1451 H 0.19615 0.41968 0.17053
 H1452 H 0.20854 0.44078 0.18318
 H1453 H 0.19919 0.42011 0.22596
 H1454 H 0.18683 0.39904 0.21333
 H1455 H 0.19606 0.44676 0.23107
 H1456 H 0.20911 0.46707 0.24423
 H1457 H 0.24395 0.46670 0.21053
 H1458 H 0.23102 0.44619 0.19755
 C1459 C 0.18304 -0.10679 0.68328
 C1460 C 0.18900 -0.11300 0.67009
 C1461 C 0.18212 -0.12540 0.66322
 C1462 C 0.16905 -0.13196 0.66938
 C1463 C 0.16301 -0.12556 0.68253
 C1464 C 0.16992 -0.11315 0.68937
 C1465 C 0.19062 -0.09387 0.69078
 C1466 C 0.18218 -0.08201 0.69705
 C1467 C 0.18934 -0.06996 0.70425
 C1468 C 0.20511 -0.06950 0.70535
 C1469 C 0.21354 -0.08134 0.69905
 C1470 C 0.20638 -0.09338 0.69185
 C1471 C 0.21276 -0.05681 0.71316
 C1472 C 0.22613 -0.05065 0.70740
 C1473 C 0.23355 -0.03897 0.71493
 C1474 C 0.22776 -0.03318 0.72840
 C1475 C 0.21430 -0.03923 0.73408
 C1476 C 0.20688 -0.05090 0.72654
 H1477 H 0.19898 -0.10821 0.66501
 H1478 H 0.18714 -0.12984 0.65310
 H1479 H 0.15300 -0.13019 0.68769
 H1480 H 0.16515 -0.10872 0.69962
 H1481 H 0.17003 -0.08196 0.69622
 H1482 H 0.18255 -0.06090 0.70880
 H1483 H 0.22568 -0.08145 0.69994
 H1484 H 0.21318 -0.10247 0.68737
 H1485 H 0.23083 -0.05480 0.69700
 H1486 H 0.24386 -0.03453 0.71022
 H1487 H 0.20955 -0.03504 0.74444
 H1488 H 0.19669 -0.05553 0.73135
 C1489 C 0.31732 0.31651 0.39561
 C1490 C 0.31108 0.32972 0.38945
 C1491 C 0.31774 0.33670 0.37709
 C1492 C 0.33082 0.33064 0.37059
 C1493 C 0.33716 0.31751 0.37686
 C1494 C 0.33048 0.31053 0.38922
 C1495 C 0.30999 0.30884 0.40848
 C1496 C 0.30891 0.29299 0.40893
 C1497 C 0.30178 0.28576 0.42089
 C1498 C 0.29557 0.29421 0.43268
 C1499 C 0.29671 0.31007 0.43228
 C1500 C 0.30384 0.31730 0.42031
 C1501 C 0.28778 0.28650 0.44525
 C1502 C 0.27438 0.29244 0.45118
 C1503 C 0.26682 0.28496 0.46273
 C1504 C 0.27250 0.27137 0.46862
 C1505 C 0.28599 0.26552 0.46281
 C1506 C 0.29353 0.27300 0.45126
 H1507 H 0.30084 0.33449 0.39401
 H1508 H 0.31254 0.34677 0.37254
 H1509 H 0.34726 0.31256 0.37220
 H1510 H 0.33568 0.30048 0.39384
 H1511 H 0.31330 0.28617 0.39986
 H1512 H 0.30087 0.27355 0.42074
 H1513 H 0.29224 0.31688 0.44131
 H1514 H 0.30469 0.32952 0.42039
 H1515 H 0.26956 0.30273 0.44667
 H1516 H 0.25644 0.28975 0.46693
 H1517 H 0.29070 0.25510 0.46713
 H1518 H 0.30394 0.26825 0.44708
 C1519 C 0.31778 0.81586 -0.10472
 C1520 C 0.31154 0.82903 -0.11097
 C1521 C 0.31816 0.83587 -0.12343
 C1522 C 0.33120 0.82972 -0.12993
 C1523 C 0.33754 0.81664 -0.12355
 C1524 C 0.33090 0.80980 -0.11110
 C1525 C 0.31047 0.80833 -0.09175
 C1526 C 0.30933 0.79249 -0.09117
 C1527 C 0.30218 0.78539 -0.07915
 C1528 C 0.29601 0.79397 -0.06742
 C1529 C 0.29725 0.80981 -0.06794
 C1530 C 0.30439 0.81692 -0.07998
 C1531 C 0.28812 0.78640 -0.05482
 C1532 C 0.27475 0.79250 -0.04899
 C1533 C 0.26709 0.78516 -0.03743
 C1534 C 0.27262 0.77156 -0.03142
 C1535 C 0.28608 0.76555 -0.03714
 C1536 C 0.29374 0.77289 -0.04871
 H1537 H 0.30133 0.83387 -0.10641
 H1538 H 0.31296 0.84592 -0.12804
 H1539 H 0.34760 0.81162 -0.12822
 H1540 H 0.33609 0.79978 -0.10641
 H1541 H 0.31368 0.78557 -0.10019
 H1542 H 0.30120 0.77318 -0.07920
 H1543 H 0.29281 0.81672 -0.05897
 H1544 H 0.30529 0.82913 -0.07999
 H1545 H 0.27003 0.80279 -0.05359
 H1546 H 0.25673 0.79007 -0.03331
 H1547 H 0.29069 0.75512 -0.03273
 H1548 H 0.30412 0.76803 -0.05282
 C1549 C 0.81729 0.31640 -0.10523
 C1550 C 0.81107 0.32957 -0.11152
 C1551 C 0.81777 0.33643 -0.12393
 C1552 C 0.83086 0.33029 -0.13035
 C1553 C 0.83717 0.31722 -0.12394
 C1554 C 0.83046 0.31036 -0.11153
 C1555 C 0.80991 0.30886 -0.09232
 C1556 C 0.80881 0.29301 -0.09175
 C1557 C 0.80164 0.28588 -0.07976
 C1558 C 0.79541 0.29444 -0.06804
 C1559 C 0.79658 0.31029 -0.06856
 C1560 C 0.80375 0.31742 -0.08057
 C1561 C 0.78754 0.28684 -0.05545
 C1562 C 0.77413 0.29286 -0.04963
 C1563 C 0.76650 0.28548 -0.03807
 C1564 C 0.77211 0.27191 -0.03207
 C1565 C 0.78561 0.26598 -0.03777
 C1566 C 0.79323 0.27336 -0.04933
 H1567 H 0.80083 0.33439 -0.10703
 H1568 H 0.81259 0.34646 -0.12858
 H1569 H 0.84728 0.31221 -0.12853
 H1570 H 0.83563 0.30035 -0.10681
 H1571 H 0.81322 0.28611 -0.10075
 H1572 H 0.80071 0.27367 -0.07981
 H1573 H 0.79209 0.31718 -0.05960
 H1574 H 0.80461 0.32964 -0.08058
 H1575 H 0.76936 0.30312 -0.05424
 H1576 H 0.75611 0.29033 -0.03396
 H1577 H 0.79026 0.25558 -0.03335
 H1578 H 0.80365 0.26855 -0.05343
 C1579 C 0.81735 0.81705 0.39532
 C1580 C 0.81112 0.83020 0.38903
 C1581 C 0.81783 0.83708 0.37663
 C1582 C 0.83094 0.83097 0.37022
 C1583 C 0.83726 0.81791 0.37664
 C1584 C 0.83055 0.81103 0.38904
 C1585 C 0.80997 0.80948 0.40822
 C1586 C 0.80893 0.79362 0.40878
 C1587 C 0.80179 0.78647 0.42077
 C1588 C 0.79552 0.79499 0.43249
 C1589 C 0.79661 0.81085 0.43196
 C1590 C 0.80376 0.81801 0.41996
 C1591 C 0.78773 0.78735 0.44510
 C1592 C 0.77429 0.79328 0.45094
 C1593 C 0.76673 0.78584 0.46251
 C1594 C 0.77245 0.77231 0.46851
 C1595 C 0.78598 0.76648 0.46279
 C1596 C 0.79353 0.77392 0.45122
 H1597 H 0.80087 0.83501 0.39351
 H1598 H 0.81263 0.84711 0.37197
 H1599 H 0.84738 0.81292 0.37206
 H1600 H 0.83574 0.80104 0.39376
 H1601 H 0.81337 0.78674 0.39978
 H1602 H 0.80091 0.77425 0.42072
 H1603 H 0.79209 0.81772 0.44093
 H1604 H 0.80458 0.83023 0.41995
 H1605 H 0.76944 0.80350 0.44634
 H1606 H 0.75631 0.79061 0.46665
 H1607 H 0.79073 0.75612 0.46720
 H1608 H 0.80397 0.76919 0.44710
 C1609 C 0.68239 0.31652 0.60452
 C1610 C 0.66926 0.31044 0.61088
 C1611 C 0.66256 0.31731 0.62328
 C1612 C 0.66884 0.33042 0.62965
 C1613 C 0.68189 0.33659 0.62318
 C1614 C 0.68858 0.32972 0.61076
 C1615 C 0.68975 0.30897 0.59161
 C1616 C 0.69586 0.31753 0.57983
 C1617 C 0.70304 0.31040 0.56783
 C1618 C 0.70428 0.29456 0.56735
 C1619 C 0.69810 0.28601 0.57910
 C1620 C 0.69092 0.29313 0.59108
 C1621 C 0.71218 0.28697 0.55478
 C1622 C 0.70655 0.27344 0.54870
 C1623 C 0.71420 0.26607 0.53715
 C1624 C 0.72767 0.27206 0.53142
 C1625 C 0.73321 0.28567 0.53739
 C1626 C 0.72555 0.29304 0.54894
 H1627 H 0.66410 0.30040 0.60620
 H1628 H 0.65248 0.31227 0.62792
 H1629 H 0.68706 0.34666 0.62778
 H1630 H 0.69879 0.33458 0.60623
 H1631 H 0.69495 0.32975 0.57981
 H1632 H 0.70750 0.31729 0.55885
 H1633 H 0.69909 0.27380 0.57918
 H1634 H 0.68655 0.28623 0.60011
 H1635 H 0.69616 0.26859 0.55281
 H1636 H 0.70959 0.25564 0.53276
 H1637 H 0.74357 0.29057 0.53325
 H1638 H 0.73028 0.30334 0.55351
 C1639 C 0.68330 0.81786 1.10522
 C1640 C 0.68923 0.83116 1.11150
 C1641 C 0.68240 0.83787 1.12392
 C1642 C 0.66945 0.83144 1.13035
 C1643 C 0.66342 0.81823 1.12394
 C1644 C 0.67026 0.81153 1.11152
 C1645 C 0.69084 0.81050 1.09230
 C1646 C 0.68236 0.80421 1.08056
 C1647 C 0.68949 0.79708 1.06853
 C1648 C 0.70526 0.79609 1.06797
 C1649 C 0.71373 0.80243 1.07967
 C1650 C 0.70660 0.80955 1.09169
 C1651 C 0.71286 0.78831 1.05533
 C1652 C 0.72617 0.79423 1.04918
 C1653 C 0.73356 0.78669 1.03757
 C1654 C 0.72783 0.77304 1.03186
 C1655 C 0.71443 0.76720 1.03790
 C1656 C 0.70703 0.77475 1.04950
 H1657 H 0.69914 0.83643 1.10677
 H1658 H 0.68732 0.84807 1.12850
 H1659 H 0.65348 0.81295 1.12861
 H1660 H 0.66552 0.80120 1.10704
 H1661 H 0.67020 0.80495 1.08060
 H1662 H 0.68266 0.79250 1.05958
 H1663 H 0.72588 0.80162 1.07970
 H1664 H 0.71344 0.81404 1.10068
 H1665 H 0.73082 0.80476 1.05328
 H1666 H 0.74382 0.79152 1.03313
 H1667 H 0.70973 0.75669 1.03377
 H1668 H 0.69691 0.76980 1.05412
 C1669 C 0.18341 0.31660 1.10480
 C1670 C 0.17018 0.31054 1.11097
 C1671 C 0.16336 0.31737 1.12333
 C1672 C 0.16961 0.33043 1.12983
 C1673 C 0.18276 0.33659 1.12354
 C1674 C 0.18957 0.32976 1.11117
 C1675 C 0.19087 0.30908 1.09193
 C1676 C 0.19709 0.31764 1.08021
 C1677 C 0.20423 0.31052 1.06819
 C1678 C 0.20531 0.29466 1.06762
 C1679 C 0.19907 0.28610 1.07933
 C1680 C 0.19193 0.29323 1.09134
 C1681 C 0.21305 0.28704 1.05496
 C1682 C 0.20724 0.27361 1.04885
 C1683 C 0.21474 0.26620 1.03723
 C1684 C 0.22824 0.27206 1.03146
 C1685 C 0.23397 0.28559 1.03745
 C1686 C 0.22646 0.29300 1.04907
 H1687 H 0.16504 0.30055 1.10618
 H1688 H 0.15321 0.31235 1.12781
 H1689 H 0.18790 0.34662 1.12826
 H1690 H 0.19985 0.33460 1.10677
 H1691 H 0.19627 0.32987 1.08025
 H1692 H 0.20874 0.31741 1.05923
 H1693 H 0.19995 0.27389 1.07936
 H1694 H 0.18749 0.28632 1.10032
 H1695 H 0.19681 0.26886 1.05300
 H1696 H 0.20999 0.25584 1.03283
 H1697 H 0.24437 0.29038 1.03327
 H1698 H 0.23133 0.30322 1.05365
 C1699 C 0.18257 0.81613 0.60496
 C1700 C 0.18874 0.82927 0.61134
 C1701 C 0.18203 0.83600 0.62382
 C1702 C 0.16898 0.82975 0.63020
 C1703 C 0.16271 0.81670 0.62370
 C1704 C 0.16943 0.80997 0.61123
 C1705 C 0.18995 0.80872 0.59197
 C1706 C 0.19112 0.79288 0.59128
 C1707 C 0.19831 0.78589 0.57922
 C1708 C 0.20449 0.79457 0.56757
 C1709 C 0.20325 0.81041 0.56822
 C1710 C 0.19607 0.81741 0.58028
 C1711 C 0.21238 0.78711 0.55491
 C1712 C 0.22575 0.79324 0.54912
 C1713 C 0.23341 0.78598 0.53749
 C1714 C 0.22786 0.77243 0.53140
 C1715 C 0.21439 0.76639 0.53707
 C1716 C 0.20674 0.77365 0.54870
 H1717 H 0.19896 0.83418 0.60687
 H1718 H 0.18719 0.84602 0.62853
 H1719 H 0.15263 0.81161 0.62827
 H1720 H 0.16429 0.79998 0.60644
 H1721 H 0.18676 0.78589 0.60023
 H1722 H 0.19930 0.77368 0.57918
 H1723 H 0.20771 0.81739 0.55930
 H1724 H 0.19515 0.82962 0.58039
 H1725 H 0.23048 0.80350 0.55379
 H1726 H 0.24377 0.79091 0.53340
 H1727 H 0.20977 0.75600 0.53259
 H1728 H 0.19636 0.76876 0.55277
 C1729 C 0.31781 0.68439 0.60440
 C1730 C 0.31157 0.67117 0.61054
 C1731 C 0.31820 0.66423 0.62295
 C1732 C 0.33123 0.67034 0.62951
 C1733 C 0.33756 0.68348 0.62325
 C1734 C 0.33092 0.69042 0.61085
 C1735 C 0.31052 0.69200 0.59147
 C1736 C 0.30937 0.70784 0.59099
 C1737 C 0.30224 0.71502 0.57900
 C1738 C 0.29610 0.70651 0.56720
 C1739 C 0.29733 0.69066 0.56762
 C1740 C 0.30446 0.68349 0.57963
 C1741 C 0.28824 0.71415 0.55462
 C1742 C 0.27489 0.70809 0.54871
 C1743 C 0.26726 0.71549 0.53716
 C1744 C 0.27281 0.72913 0.53125
 C1745 C 0.28626 0.73511 0.53705
 C1746 C 0.29388 0.72770 0.54861
 H1747 H 0.30137 0.66635 0.60594
 H1748 H 0.31300 0.65414 0.62748
 H1749 H 0.34763 0.68847 0.62796
 H1750 H 0.33611 0.70047 0.60624
 H1751 H 0.31370 0.71470 0.60006
 H1752 H 0.30126 0.72722 0.57913
 H1753 H 0.29292 0.68381 0.55859
 H1754 H 0.30537 0.67127 0.57956
 H1755 H 0.27015 0.69777 0.55323
 H1756 H 0.25691 0.71060 0.53297
 H1757 H 0.29087 0.74556 0.53272
 H1758 H 0.30425 0.73255 0.55278
 C1759 C 0.31761 0.18411 1.10491
 C1760 C 0.33075 0.19017 1.11126
 C1761 C 0.33741 0.18334 1.12371
 C1762 C 0.33107 0.17029 1.13013
 C1763 C 0.31800 0.16414 1.12368
 C1764 C 0.31135 0.17097 1.11122
 C1765 C 0.31030 0.19161 1.09194
 C1766 C 0.30418 0.18300 1.08019
 C1767 C 0.29707 0.19009 1.06812
 C1768 C 0.29593 0.20594 1.06752
 C1769 C 0.30213 0.21453 1.07923
 C1770 C 0.30923 0.20745 1.09129
 C1771 C 0.28812 0.21349 1.05487
 C1772 C 0.29385 0.22694 1.04871
 C1773 C 0.28626 0.23429 1.03710
 C1774 C 0.27276 0.22836 1.03139
 C1775 C 0.26712 0.21481 1.03742
 C1776 C 0.27472 0.20746 1.04903
 H1777 H 0.33596 0.20015 1.10653
 H1778 H 0.34751 0.18836 1.12833
 H1779 H 0.31279 0.15412 1.12834
 H1780 H 0.30112 0.16613 1.10670
 H1781 H 0.30502 0.17078 1.08025
 H1782 H 0.29261 0.18316 1.05916
 H1783 H 0.30121 0.22675 1.07923
 H1784 H 0.31361 0.21439 1.10029
 H1785 H 0.30426 0.23175 1.05283
 H1786 H 0.29094 0.24467 1.03267
 H1787 H 0.25674 0.20996 1.03330
 H1788 H 0.26992 0.19722 1.05366
 C1789 C 0.81709 0.68396 1.10466
 C1790 C 0.81084 0.67081 1.11094
 C1791 C 0.81757 0.66389 1.12331
 C1792 C 0.83071 0.66997 1.12969
 C1793 C 0.83705 0.68303 1.12328
 C1794 C 0.83031 0.68994 1.11092
 C1795 C 0.80969 0.69157 1.09179
 C1796 C 0.80869 0.70743 1.09126
 C1797 C 0.80153 0.71463 1.07930
 C1798 C 0.79521 0.70613 1.06759
 C1799 C 0.79627 0.69028 1.06807
 C1800 C 0.80343 0.68308 1.08005
 C1801 C 0.78737 0.71381 1.05502
 C1802 C 0.77390 0.70790 1.04923
 C1803 C 0.76629 0.71536 1.03770
 C1804 C 0.77200 0.72889 1.03169
 C1805 C 0.78556 0.73471 1.03736
 C1806 C 0.79316 0.72725 1.04890
 H1807 H 0.80056 0.66603 1.10648
 H1808 H 0.81236 0.65387 1.12797
 H1809 H 0.84720 0.68799 1.12785
 H1810 H 0.83551 0.69993 1.10620
 H1811 H 0.81317 0.71429 1.10027
 H1812 H 0.80068 0.72684 1.07938
 H1813 H 0.79171 0.68343 1.05911
 H1814 H 0.80422 0.67085 1.08003
 H1815 H 0.76905 0.69767 1.05384
 H1816 H 0.75585 0.71060 1.03360
 H1817 H 0.79029 0.74507 1.03295
 H1818 H 0.80362 0.73197 1.05298
 C1819 C 0.81776 0.18428 0.60475
 C1820 C 0.81154 0.17108 0.61094
 C1821 C 0.81818 0.16419 0.62337
 C1822 C 0.83122 0.17034 0.62990
 C1823 C 0.83752 0.18346 0.62359
 C1824 C 0.83086 0.19035 0.61117
 C1825 C 0.81044 0.19184 0.59181
 C1826 C 0.80928 0.20768 0.59127
 C1827 C 0.80212 0.21480 0.57926
 C1828 C 0.79597 0.20625 0.56750
 C1829 C 0.79722 0.19040 0.56798
 C1830 C 0.80438 0.18328 0.58000
 C1831 C 0.78808 0.21383 0.55491
 C1832 C 0.77472 0.20773 0.54904
 C1833 C 0.76708 0.21509 0.53747
 C1834 C 0.77262 0.22870 0.53150
 C1835 C 0.78606 0.23471 0.53726
 C1836 C 0.79370 0.22736 0.54883
 H1837 H 0.80134 0.16623 0.60637
 H1838 H 0.81300 0.15411 0.62794
 H1839 H 0.84759 0.18848 0.62828
 H1840 H 0.83604 0.20040 0.60653
 H1841 H 0.81361 0.21458 0.60031
 H1842 H 0.80112 0.22701 0.57935
 H1843 H 0.79280 0.18351 0.55898
 H1844 H 0.80530 0.17107 0.57998
 H1845 H 0.77000 0.19743 0.55361
 H1846 H 0.75673 0.21017 0.53331
 H1847 H 0.79067 0.24515 0.53288
 H1848 H 0.80408 0.23223 0.55298
 C1849 C 0.68324 0.68382 0.39506
 C1850 C 0.67005 0.68984 0.38876
 C1851 C 0.66336 0.68298 0.37634
 C1852 C 0.66970 0.66994 0.36991
 C1853 C 0.68281 0.66383 0.37632
 C1854 C 0.68949 0.67069 0.38875
 C1855 C 0.69059 0.69137 0.40799
 C1856 C 0.69680 0.68280 0.41972
 C1857 C 0.70393 0.68994 0.43175
 C1858 C 0.70501 0.70579 0.43232
 C1859 C 0.69875 0.71435 0.42062
 C1860 C 0.69162 0.70722 0.40860
 C1861 C 0.71280 0.71340 0.44496
 C1862 C 0.70700 0.72682 0.45111
 C1863 C 0.71454 0.73422 0.46271
 C1864 C 0.72807 0.72838 0.46844
 C1865 C 0.73379 0.71487 0.46241
 C1866 C 0.72624 0.70746 0.45080
 H1867 H 0.66485 0.69982 0.39349
 H1868 H 0.65324 0.68797 0.37174
 H1869 H 0.68803 0.65381 0.37166
 H1870 H 0.69975 0.66588 0.39324
 H1871 H 0.69599 0.67058 0.41968
 H1872 H 0.70845 0.68304 0.44070
 H1873 H 0.69962 0.72656 0.42060
 H1874 H 0.68719 0.71412 0.39961
 H1875 H 0.69656 0.73156 0.44699
 H1876 H 0.70980 0.74457 0.46714
 H1877 H 0.74420 0.71008 0.46654
 H1878 H 0.73109 0.69724 0.44619
 C1879 C 0.68225 0.18385 -0.10541
 C1880 C 0.66911 0.18988 -0.11180
 C1881 C 0.66245 0.18298 -0.12421
 C1882 C 0.66878 0.16989 -0.13055
 C1883 C 0.68185 0.16378 -0.12406
 C1884 C 0.68850 0.17067 -0.11164
 C1885 C 0.68958 0.19141 -0.09247
 C1886 C 0.69570 0.18285 -0.08069
 C1887 C 0.70286 0.18999 -0.06868
 C1888 C 0.70405 0.20584 -0.06818
 C1889 C 0.69785 0.21439 -0.07992
 C1890 C 0.69069 0.20726 -0.09192
 C1891 C 0.71192 0.21344 -0.05558
 C1892 C 0.70623 0.22693 -0.04948
 C1893 C 0.71384 0.23430 -0.03790
 C1894 C 0.72732 0.22836 -0.03216
 C1895 C 0.73293 0.21478 -0.03814
 C1896 C 0.72531 0.20740 -0.04972
 H1897 H 0.66392 0.19990 -0.10712
 H1898 H 0.65236 0.18797 -0.12887
 H1899 H 0.68706 0.15373 -0.12865
 H1900 H 0.69872 0.16586 -0.10709
 H1901 H 0.69482 0.17064 -0.08069
 H1902 H 0.70732 0.18310 -0.05970
 H1903 H 0.69881 0.22660 -0.07999
 H1904 H 0.68631 0.21415 -0.10094
 H1905 H 0.69584 0.23175 -0.05361
 H1906 H 0.70919 0.24471 -0.03351
 H1907 H 0.74330 0.20992 -0.03400
 H1908 H 0.73007 0.19713 -0.05431
 C1909 C 0.18276 0.68363 -0.10478
 C1910 C 0.18901 0.67044 -0.11097
 C1911 C 0.18238 0.66353 -0.12340
 C1912 C 0.16933 0.66964 -0.12992
 C1913 C 0.16300 0.68275 -0.12362
 C1914 C 0.16964 0.68967 -0.11120
 C1915 C 0.19005 0.69121 -0.09183
 C1916 C 0.19119 0.70706 -0.09130
 C1917 C 0.19831 0.71420 -0.07928
 C1918 C 0.20445 0.70566 -0.06751
 C1919 C 0.20323 0.68981 -0.06798
 C1920 C 0.19612 0.68267 -0.08001
 C1921 C 0.21230 0.71327 -0.05490
 C1922 C 0.22565 0.70720 -0.04899
 C1923 C 0.23326 0.71458 -0.03741
 C1924 C 0.22769 0.72819 -0.03147
 C1925 C 0.21425 0.73417 -0.03726
 C1926 C 0.20664 0.72680 -0.04885
 H1927 H 0.19921 0.66562 -0.10639
 H1928 H 0.18758 0.65346 -0.12796
 H1929 H 0.15293 0.68775 -0.12831
 H1930 H 0.16445 0.69970 -0.10656
 H1931 H 0.18685 0.71394 -0.10035
 H1932 H 0.19928 0.72641 -0.07937
 H1933 H 0.20765 0.68294 -0.05897
 H1934 H 0.19522 0.67045 -0.07999
 H1935 H 0.23039 0.69690 -0.05354
 H1936 H 0.24360 0.70969 -0.03322
 H1937 H 0.20962 0.74461 -0.03290
 H1938 H 0.19627 0.73164 -0.05302
 C1939 C 0.18293 0.18369 0.39490
 C1940 C 0.16978 0.18979 0.38858
 C1941 C 0.16311 0.18302 0.37610
 C1942 C 0.16944 0.16999 0.36962
 C1943 C 0.18250 0.16380 0.37605
 C1944 C 0.18916 0.17057 0.38854
 C1945 C 0.19026 0.19114 0.40789
 C1946 C 0.19640 0.18249 0.41960
 C1947 C 0.20354 0.18952 0.43168
 C1948 C 0.20470 0.20537 0.43232
 C1949 C 0.19849 0.21401 0.42066
 C1950 C 0.19135 0.20698 0.40859
 C1951 C 0.21253 0.21287 0.44499
 C1952 C 0.20681 0.22629 0.45121
 C1953 C 0.21442 0.23360 0.46284
 C1954 C 0.22792 0.22765 0.46851
 C1955 C 0.23356 0.21413 0.46241
 C1956 C 0.22594 0.20683 0.45079
 H1957 H 0.16459 0.19976 0.39335
 H1958 H 0.15303 0.18806 0.37150
 H1959 H 0.18770 0.15380 0.37136
 H1960 H 0.19938 0.16571 0.39304
 H1961 H 0.19554 0.17027 0.41949
 H1962 H 0.20801 0.18256 0.44060
 H1963 H 0.19942 0.22623 0.42070
 H1964 H 0.18696 0.21395 0.39963
 H1965 H 0.19640 0.23112 0.44713
 H1966 H 0.20974 0.24396 0.46732
 H1967 H 0.24395 0.20927 0.46651
 H1968 H 0.23073 0.19660 0.44612
 C1969 C 0.31621 0.39505 0.68212
 C1970 C 0.31025 0.38853 0.66906
 C1971 C 0.31723 0.37606 0.66242
 C1972 C 0.33033 0.36979 0.66869
 C1973 C 0.33637 0.37642 0.68169
 C1974 C 0.32939 0.38890 0.68831
 C1975 C 0.30858 0.40805 0.68942
 C1976 C 0.31699 0.42004 0.69548
 C1977 C 0.30980 0.43210 0.70264
 C1978 C 0.29405 0.43243 0.70390
 C1979 C 0.28564 0.42049 0.69773
 C1980 C 0.29282 0.40844 0.69057
 C1981 C 0.28641 0.44505 0.71182
 C1982 C 0.27290 0.45111 0.70627
 C1983 C 0.26552 0.46273 0.71392
 C1984 C 0.27149 0.46854 0.72731
 C1985 C 0.28507 0.46258 0.73279
 C1986 C 0.29244 0.45096 0.72512
 H1987 H 0.30022 0.39314 0.66391
 H1988 H 0.31229 0.37129 0.65239
 H1989 H 0.34642 0.37189 0.68685
 H1990 H 0.33416 0.39355 0.69847
 H1991 H 0.32913 0.42018 0.69456
 H1992 H 0.31657 0.44124 0.70707
 H1993 H 0.27351 0.42029 0.69873
 H1994 H 0.28605 0.39925 0.68623
 H1995 H 0.26807 0.44693 0.69594
 H1996 H 0.25511 0.46711 0.70937
 H1997 H 0.28995 0.46678 0.74309
 H1998 H 0.30273 0.44640 0.72979
 C1999 C 0.31651 0.89537 0.18223
 C2000 C 0.31057 0.88894 0.16911
 C2001 C 0.31752 0.87648 0.16243
 C2002 C 0.33058 0.87014 0.16871
 C2003 C 0.33661 0.87667 0.18175
 C2004 C 0.32965 0.88914 0.18842
 C2005 C 0.30889 0.90836 0.18956
 C2006 C 0.31731 0.92029 0.19572
 C2007 C 0.31012 0.93236 0.20287
 C2008 C 0.29436 0.93276 0.20402
 C2009 C 0.28595 0.92086 0.19777
 C2010 C 0.29313 0.90881 0.19063
 C2011 C 0.28671 0.94541 0.21187
 C2012 C 0.27327 0.95153 0.20620
 C2013 C 0.26588 0.96317 0.21379
 C2014 C 0.27173 0.96896 0.22724
 C2015 C 0.28524 0.96294 0.23283
 C2016 C 0.29265 0.95130 0.22523
 H2017 H 0.30057 0.89361 0.16395
 H2018 H 0.31260 0.87178 0.15236
 H2019 H 0.34663 0.87208 0.18691
 H2020 H 0.33441 0.89372 0.19862
 H2021 H 0.32945 0.92038 0.19488
 H2022 H 0.31690 0.94147 0.20736
 H2023 H 0.27381 0.92071 0.19869
 H2024 H 0.28634 0.89966 0.18622
 H2025 H 0.26853 0.94737 0.19583
 H2026 H 0.25552 0.96759 0.20915
 H2027 H 0.29004 0.96712 0.24318
 H2028 H 0.30287 0.94670 0.22999
 C2029 C 0.81712 0.39457 0.18238
 C2030 C 0.81111 0.38829 0.16922
 C2031 C 0.81796 0.37586 0.16241
 C2032 C 0.83100 0.36938 0.16860
 C2033 C 0.83711 0.37577 0.18167
 C2034 C 0.83025 0.38822 0.18847
 C2035 C 0.80957 0.40752 0.18983
 C2036 C 0.81804 0.41941 0.19603
 C2037 C 0.81090 0.43149 0.20320
 C2038 C 0.79514 0.43195 0.20434
 C2039 C 0.78668 0.42009 0.19810
 C2040 C 0.79381 0.40802 0.19094
 C2041 C 0.78752 0.44465 0.21215
 C2042 C 0.77411 0.45079 0.20645
 C2043 C 0.76673 0.46247 0.21400
 C2044 C 0.77259 0.46828 0.22744
 C2045 C 0.78609 0.46226 0.23306
 C2046 C 0.79347 0.45058 0.22550
 H2047 H 0.80112 0.39307 0.16413
 H2048 H 0.81297 0.37129 0.15232
 H2049 H 0.84713 0.37106 0.18676
 H2050 H 0.83506 0.39269 0.19869
 H2051 H 0.83019 0.41945 0.19517
 H2052 H 0.81771 0.44057 0.20770
 H2053 H 0.77454 0.41998 0.19903
 H2054 H 0.78699 0.39891 0.18651
 H2055 H 0.76936 0.44662 0.19608
 H2056 H 0.75638 0.46689 0.20934
 H2057 H 0.79088 0.46645 0.24339
 H2058 H 0.80368 0.44597 0.23027
 C2059 C 0.81737 0.89548 0.68292
 C2060 C 0.81113 0.88910 0.66991
 C2061 C 0.81794 0.87665 0.66304
 C2062 C 0.83115 0.87031 0.66900
 C2063 C 0.83748 0.87683 0.68191
 C2064 C 0.83067 0.88926 0.68877
 C2065 C 0.80989 0.90840 0.69050
 C2066 C 0.80897 0.90890 0.70619
 C2067 C 0.80179 0.92094 0.71337
 C2068 C 0.79536 0.93276 0.70502
 C2069 C 0.79630 0.93228 0.68932
 C2070 C 0.80349 0.92023 0.68214
 C2071 C 0.78759 0.94544 0.71269
 C2072 C 0.77404 0.95128 0.70700
 C2073 C 0.76652 0.96294 0.71446
 C2074 C 0.77238 0.96903 0.72777
 C2075 C 0.78601 0.96330 0.73337
 C2076 C 0.79353 0.95165 0.72592
 H2077 H 0.80080 0.89352 0.66523
 H2078 H 0.81274 0.87192 0.65313
 H2079 H 0.84768 0.87230 0.68678
 H2080 H 0.83587 0.89407 0.69865
 H2081 H 0.81355 0.89983 0.71294
 H2082 H 0.80103 0.92085 0.72546
 H2083 H 0.79164 0.94133 0.68260
 H2084 H 0.80420 0.92027 0.67005
 H2085 H 0.76909 0.94662 0.69693
 H2086 H 0.75602 0.96707 0.70986
 H2087 H 0.79087 0.96778 0.74356
 H2088 H 0.80405 0.94754 0.73047
 C2089 C 0.68371 0.60562 0.68322
 C2090 C 0.67059 0.61197 0.68934
 C2091 C 0.66370 0.62440 0.68252
 C2092 C 0.66976 0.63075 0.66941
 C2093 C 0.68279 0.62427 0.66321
 C2094 C 0.68968 0.61186 0.67004
 C2095 C 0.69129 0.59268 0.69069
 C2096 C 0.70705 0.59219 0.69175
 C2097 C 0.71421 0.58013 0.69891
 C2098 C 0.70578 0.56827 0.70518
 C2099 C 0.69002 0.56873 0.70409
 C2100 C 0.68285 0.58080 0.69693
 C2101 C 0.71343 0.55557 0.71296
 C2102 C 0.70754 0.54963 0.72632
 C2103 C 0.71495 0.53794 0.73385
 C2104 C 0.72842 0.53191 0.72817
 C2105 C 0.73423 0.53774 0.71472
 C2106 C 0.72682 0.54943 0.70721
 H2107 H 0.66582 0.60752 0.69958
 H2108 H 0.65369 0.62911 0.68762
 H2109 H 0.68774 0.62881 0.65309
 H2110 H 0.69965 0.60708 0.66494
 H2111 H 0.71385 0.60129 0.68728
 H2112 H 0.72636 0.58024 0.69979
 H2113 H 0.68322 0.55966 0.70862
 H2114 H 0.67070 0.58075 0.69611
 H2115 H 0.69735 0.55424 0.73114
 H2116 H 0.71020 0.53373 0.74420
 H2117 H 0.74455 0.53331 0.71002
 H2118 H 0.73153 0.55361 0.69683
 C2119 C 0.68270 0.10591 0.18285
 C2120 C 0.66941 0.11215 0.18871
 C2121 C 0.66254 0.12450 0.18175
 C2122 C 0.66879 0.13091 0.16876
 C2123 C 0.68199 0.12455 0.16281
 C2124 C 0.68886 0.11219 0.16977
 C2125 C 0.69022 0.09305 0.19050
 C2126 C 0.69658 0.08115 0.18221
 C2127 C 0.70378 0.06915 0.18945
 C2128 C 0.70479 0.06878 0.20514
 C2129 C 0.69841 0.08067 0.21343
 C2130 C 0.69121 0.09266 0.20619
 C2131 C 0.71258 0.05614 0.21288
 C2132 C 0.70670 0.05005 0.22617
 C2133 C 0.71421 0.03842 0.23367
 C2134 C 0.72779 0.03261 0.22804
 C2135 C 0.73360 0.03859 0.21466
 C2136 C 0.72608 0.05022 0.20716
 H2137 H 0.66427 0.10742 0.19864
 H2138 H 0.65234 0.12904 0.18662
 H2139 H 0.68713 0.12921 0.15284
 H2140 H 0.69918 0.10775 0.16508
 H2141 H 0.69581 0.08102 0.17011
 H2142 H 0.70840 0.06005 0.18277
 H2143 H 0.69923 0.08086 0.22552
 H2144 H 0.68667 0.10179 0.21289
 H2145 H 0.69621 0.05422 0.23075
 H2146 H 0.70940 0.03402 0.24392
 H2147 H 0.74406 0.03439 0.21004
 H2148 H 0.73099 0.05479 0.19704
 C2149 C 0.18265 0.60579 0.18314
 C2150 C 0.16934 0.61198 0.18899
 C2151 C 0.16247 0.62436 0.18209
 C2152 C 0.16876 0.63087 0.16916
 C2153 C 0.18198 0.62455 0.16320
 C2154 C 0.18884 0.61216 0.17011
 C2155 C 0.19017 0.59291 0.19075
 C2156 C 0.19658 0.58106 0.18243
 C2157 C 0.20375 0.56902 0.18965
 C2158 C 0.20468 0.56858 0.20535
 C2159 C 0.19827 0.58044 0.21366
 C2160 C 0.19110 0.59246 0.20645
 C2161 C 0.21240 0.55589 0.21308
 C2162 C 0.20642 0.54975 0.22631
 C2163 C 0.21389 0.53810 0.23382
 C2164 C 0.22751 0.53230 0.22827
 C2165 C 0.23340 0.53832 0.21493
 C2166 C 0.22593 0.54997 0.20742
 H2167 H 0.16417 0.60718 0.19888
 H2168 H 0.15226 0.62886 0.18696
 H2169 H 0.18715 0.62928 0.15327
 H2170 H 0.19918 0.60775 0.16542
 H2171 H 0.19586 0.58098 0.17034
 H2172 H 0.20840 0.55995 0.18296
 H2173 H 0.19903 0.58056 0.22576
 H2174 H 0.18653 0.60155 0.21316
 H2175 H 0.19591 0.55391 0.23083
 H2176 H 0.20901 0.53368 0.24402
 H2177 H 0.24389 0.53413 0.21037
 H2178 H 0.23090 0.55458 0.19734
 C2179 C 0.18329 0.10434 0.68309
 C2180 C 0.17019 0.11075 0.68919
 C2181 C 0.16335 0.12320 0.68235
 C2182 C 0.16944 0.12952 0.66924
 C2183 C 0.18244 0.12297 0.66304
 C2184 C 0.18928 0.11054 0.66989
 C2185 C 0.19082 0.09139 0.69058
 C2186 C 0.20658 0.09084 0.69163
 C2187 C 0.21370 0.07878 0.69882
 C2188 C 0.20523 0.06697 0.70513
 C2189 C 0.18946 0.06748 0.70405
 C2190 C 0.18234 0.07956 0.69686
 C2191 C 0.21284 0.05426 0.71295
 C2192 C 0.20695 0.04840 0.72634
 C2193 C 0.21434 0.03672 0.73391
 C2194 C 0.22779 0.03064 0.72824
 C2195 C 0.23358 0.03638 0.71476
 C2196 C 0.22619 0.04806 0.70720
 H2197 H 0.16540 0.10634 0.69944
 H2198 H 0.15337 0.12795 0.68745
 H2199 H 0.18741 0.12748 0.65292
 H2200 H 0.19923 0.10571 0.66480
 H2201 H 0.21342 0.09991 0.68714
 H2202 H 0.22585 0.07884 0.69970
 H2203 H 0.18264 0.05845 0.70862
 H2204 H 0.17019 0.07956 0.69604
 H2205 H 0.19678 0.05306 0.73115
 H2206 H 0.20959 0.03258 0.74429
 H2207 H 0.24389 0.03191 0.71005
 H2208 H 0.23090 0.05218 0.69679
 C2209 C 0.31626 0.60605 0.31733
 C2210 C 0.31036 0.61251 0.33045
 C2211 C 0.31737 0.62494 0.33713
 C2212 C 0.33045 0.63124 0.33083
 C2213 C 0.33643 0.62468 0.31779
 C2214 C 0.32941 0.61223 0.31112
 C2215 C 0.30858 0.59308 0.31001
 C2216 C 0.31695 0.58111 0.30386
 C2217 C 0.30971 0.56906 0.29674
 C2218 C 0.29395 0.56870 0.29560
 C2219 C 0.28558 0.58063 0.30183
 C2220 C 0.29282 0.59268 0.30895
 C2221 C 0.28624 0.55605 0.28779
 C2222 C 0.27279 0.54999 0.29349
 C2223 C 0.26535 0.53833 0.28595
 C2224 C 0.27118 0.53247 0.27253
 C2225 C 0.28470 0.53844 0.26690
 C2226 C 0.29214 0.55009 0.27445
 H2227 H 0.30035 0.60787 0.33561
 H2228 H 0.31248 0.62965 0.34720
 H2229 H 0.34646 0.62923 0.31261
 H2230 H 0.33413 0.60763 0.30092
 H2231 H 0.32910 0.58098 0.30470
 H2232 H 0.31645 0.55992 0.29226
 H2233 H 0.27344 0.58082 0.30092
 H2234 H 0.28607 0.60185 0.31335
 H2235 H 0.26807 0.55419 0.30386
 H2236 H 0.25499 0.53395 0.29062
 H2237 H 0.28947 0.53420 0.25657
 H2238 H 0.30238 0.55465 0.26967
 C2239 C 0.31638 0.10461 0.81699
 C2240 C 0.32968 0.11078 0.81109
 C2241 C 0.33656 0.12320 0.81792
 C2242 C 0.33030 0.12976 0.83083
 C2243 C 0.31708 0.12347 0.83684
 C2244 C 0.31021 0.11104 0.82999
 C2245 C 0.30886 0.09167 0.80945
 C2246 C 0.30248 0.07986 0.81785
 C2247 C 0.29531 0.06777 0.81071
 C2248 C 0.29436 0.06723 0.79502
 C2249 C 0.30075 0.07904 0.78663
 C2250 C 0.30791 0.09112 0.79376
 C2251 C 0.28663 0.05448 0.78739
 C2252 C 0.29258 0.04827 0.77417
 C2253 C 0.28511 0.03655 0.76676
 C2254 C 0.27151 0.03077 0.77238
 C2255 C 0.26564 0.03686 0.78568
 C2256 C 0.27312 0.04858 0.79311
 H2257 H 0.33484 0.10594 0.80121
 H2258 H 0.34676 0.12768 0.81302
 H2259 H 0.31193 0.12824 0.84675
 H2260 H 0.29987 0.10665 0.83471
 H2261 H 0.30321 0.07986 0.82995
 H2262 H 0.29068 0.05873 0.81747
 H2263 H 0.29997 0.07909 0.77454
 H2264 H 0.31248 0.10017 0.78698
 H2265 H 0.30308 0.05242 0.76961
 H2266 H 0.28998 0.03207 0.75657
 H2267 H 0.25517 0.03268 0.79030
 H2268 H 0.26816 0.05324 0.80317
 C2269 C 0.81656 0.60537 0.81768
 C2270 C 0.81056 0.61164 0.83083
 C2271 C 0.81742 0.62409 0.83763
 C2272 C 0.83044 0.63059 0.83143
 C2273 C 0.83654 0.62420 0.81836
 C2274 C 0.82968 0.61173 0.81157
 C2275 C 0.80901 0.59241 0.81023
 C2276 C 0.81748 0.58054 0.80402
 C2277 C 0.81034 0.56846 0.79683
 C2278 C 0.79458 0.56798 0.79569
 C2279 C 0.78612 0.57983 0.80195
 C2280 C 0.79325 0.59189 0.80914
 C2281 C 0.78696 0.55530 0.78785
 C2282 C 0.77356 0.54913 0.79355
 C2283 C 0.76617 0.53747 0.78596
 C2284 C 0.77201 0.53172 0.77249
 C2285 C 0.78549 0.53778 0.76688
 C2286 C 0.79289 0.54943 0.77448
 H2287 H 0.80059 0.60686 0.83593
 H2288 H 0.81244 0.62866 0.84772
 H2289 H 0.84654 0.62891 0.81325
 H2290 H 0.83448 0.60726 0.80134
 H2291 H 0.82963 0.58051 0.80487
 H2292 H 0.81715 0.55940 0.79231
 H2293 H 0.77398 0.57992 0.80104
 H2294 H 0.78643 0.60099 0.81358
 H2295 H 0.76883 0.55326 0.80393
 H2296 H 0.75583 0.53302 0.79062
 H2297 H 0.79027 0.53362 0.75652
 H2298 H 0.80309 0.55407 0.76971
 C2299 C 0.81724 0.10598 0.31689
 C2300 C 0.83054 0.11217 0.31102
 C2301 C 0.83745 0.12452 0.31794
 C2302 C 0.83122 0.13099 0.33091
 C2303 C 0.81800 0.12468 0.33688
 C2304 C 0.81109 0.11232 0.32995
 C2305 C 0.80967 0.09312 0.30928
 C2306 C 0.80328 0.08126 0.31762
 C2307 C 0.79602 0.06926 0.31043
 C2308 C 0.79500 0.06885 0.29473
 C2309 C 0.80142 0.08069 0.28640
 C2310 C 0.80867 0.09268 0.29359
 C2311 C 0.78714 0.05621 0.28705
 C2312 C 0.79299 0.05005 0.27377
 C2313 C 0.78543 0.03841 0.26633
 C2314 C 0.77183 0.03267 0.27199
 C2315 C 0.76605 0.03873 0.28535
 C2316 C 0.77363 0.05036 0.29280
 H2317 H 0.83567 0.10740 0.30109
 H2318 H 0.84766 0.12903 0.31306
 H2319 H 0.81286 0.12938 0.34683
 H2320 H 0.80076 0.10791 0.33465
 H2321 H 0.80405 0.08117 0.32972
 H2322 H 0.79137 0.06020 0.31714
 H2323 H 0.80059 0.08083 0.27431
 H2324 H 0.81325 0.10176 0.28687
 H2325 H 0.80349 0.05416 0.26918
 H2326 H 0.79022 0.03396 0.25610
 H2327 H 0.75558 0.03458 0.28999
 H2328 H 0.76874 0.05500 0.30291
 C2329 C 0.68412 0.39502 0.31713
 C2330 C 0.67096 0.38881 0.31096
 C2331 C 0.66396 0.37639 0.31770
 C2332 C 0.66996 0.36990 0.33077
 C2333 C 0.68305 0.37624 0.33702
 C2334 C 0.69004 0.38864 0.33027
 C2335 C 0.69179 0.40796 0.30974
 C2336 C 0.70755 0.40835 0.30866
 C2337 C 0.71477 0.42036 0.30148
 C2338 C 0.70640 0.43227 0.29522
 C2339 C 0.69064 0.43193 0.29638
 C2340 C 0.68341 0.41990 0.30356
 C2341 C 0.71410 0.44487 0.28733
 C2342 C 0.70816 0.45077 0.27396
 C2343 C 0.71559 0.46237 0.26634
 C2344 C 0.72912 0.46836 0.27190
 C2345 C 0.73499 0.46257 0.28534
 C2346 C 0.72756 0.45096 0.29296
 H2347 H 0.66623 0.39336 0.30074
 H2348 H 0.65392 0.37180 0.31255
 H2349 H 0.68795 0.37158 0.34711
 H2350 H 0.70005 0.39331 0.33541
 H2351 H 0.71430 0.39919 0.31310
 H2352 H 0.72691 0.42016 0.30055
 H2353 H 0.68390 0.44105 0.29186
 H2354 H 0.67127 0.42004 0.30441
 H2355 H 0.69791 0.44619 0.26923
 H2356 H 0.71078 0.46655 0.25600
 H2357 H 0.74537 0.46697 0.28996
 H2358 H 0.73232 0.44680 0.30334
 C2359 C 0.68374 0.89577 0.81740
 C2360 C 0.68964 0.88945 0.83058
 C2361 C 0.68266 0.87706 0.83736
 C2362 C 0.66960 0.87068 0.83111
 C2363 C 0.66361 0.87710 0.81800
 C2364 C 0.67059 0.88951 0.81124
 C2365 C 0.69139 0.90869 0.80998
 C2366 C 0.68301 0.92060 0.80373
 C2367 C 0.69023 0.93261 0.79652
 C2368 C 0.70600 0.93297 0.79540
 C2369 C 0.71437 0.92110 0.80172
 C2370 C 0.70716 0.90910 0.80893
 C2371 C 0.71369 0.94557 0.78749
 C2372 C 0.72712 0.95170 0.79315
 C2373 C 0.73454 0.96331 0.78552
 C2374 C 0.72870 0.96905 0.77205
 C2375 C 0.71520 0.96301 0.76646
 C2376 C 0.70777 0.95141 0.77409
 H2377 H 0.69964 0.89416 0.83572
 H2378 H 0.68756 0.87246 0.84748
 H2379 H 0.65359 0.87248 0.81286
 H2380 H 0.66587 0.89400 0.80099
 H2381 H 0.67086 0.92071 0.80455
 H2382 H 0.68348 0.94170 0.79196
 H2383 H 0.72652 0.92093 0.80082
 H2384 H 0.71391 0.89998 0.81341
 H2385 H 0.73185 0.94759 0.80355
 H2386 H 0.74490 0.96775 0.79016
 H2387 H 0.71041 0.96716 0.75609
 H2388 H 0.69755 0.94680 0.76935
 C2389 C 0.18364 0.39498 0.81732
 C2390 C 0.18962 0.38860 0.83044
 C2391 C 0.18269 0.37616 0.83719
 C2392 C 0.16961 0.36978 0.83097
 C2393 C 0.16355 0.37627 0.81792
 C2394 C 0.17048 0.38872 0.81118
 C2395 C 0.19124 0.40794 0.80992
 C2396 C 0.18281 0.41987 0.80378
 C2397 C 0.18998 0.43193 0.79659
 C2398 C 0.20574 0.43231 0.79538
 C2399 C 0.21416 0.42042 0.80159
 C2400 C 0.20699 0.40837 0.80878
 C2401 C 0.21337 0.44496 0.78749
 C2402 C 0.22684 0.45105 0.79309
 C2403 C 0.23422 0.46269 0.78547
 C2404 C 0.22830 0.46850 0.77206
 C2405 C 0.21474 0.46251 0.76653
 C2406 C 0.20737 0.45087 0.77416
 H2407 H 0.19963 0.39329 0.83555
 H2408 H 0.18765 0.37151 0.84725
 H2409 H 0.15351 0.37165 0.81280
 H2410 H 0.16569 0.39327 0.80098
 H2411 H 0.17066 0.41997 0.80468
 H2412 H 0.18319 0.44104 0.79212
 H2413 H 0.22630 0.42025 0.80062
 H2414 H 0.21379 0.39923 0.81317
 H2415 H 0.23164 0.44689 0.80344
 H2416 H 0.24461 0.46710 0.79006
 H2417 H 0.20990 0.46670 0.75622
 H2418 H 0.19711 0.44629 0.76946
 C2419 C 0.18335 0.89553 0.31692
 C2420 C 0.18935 0.88926 0.33009
 C2421 C 0.18242 0.87688 0.33695
 C2422 C 0.16933 0.87046 0.33080
 C2423 C 0.16325 0.87684 0.31771
 C2424 C 0.17018 0.88923 0.31086
 C2425 C 0.19095 0.90842 0.30941
 C2426 C 0.18253 0.92031 0.30317
 C2427 C 0.18971 0.93233 0.29593
 C2428 C 0.20548 0.93272 0.29477
 C2429 C 0.21389 0.92085 0.30105
 C2430 C 0.20671 0.90885 0.30829
 C2431 C 0.21314 0.94537 0.28692
 C2432 C 0.22656 0.95149 0.29262
 C2433 C 0.23398 0.96313 0.28505
 C2434 C 0.22816 0.96893 0.27160
 C2435 C 0.21465 0.96293 0.26597
 C2436 C 0.20723 0.95128 0.27355
 H2437 H 0.19936 0.89399 0.33515
 H2438 H 0.18739 0.87231 0.34705
 H2439 H 0.15320 0.87218 0.31265
 H2440 H 0.16538 0.89369 0.30063
 H2441 H 0.17039 0.92041 0.30404
 H2442 H 0.18294 0.94141 0.29139
 H2443 H 0.22603 0.92070 0.30012
 H2444 H 0.21350 0.89974 0.31275
 H2445 H 0.23128 0.94733 0.30301
 H2446 H 0.24433 0.96755 0.28973
 H2447 H 0.20988 0.96712 0.25562
 H2448 H 0.19701 0.94668 0.26878
 C2449 C 0.39502 0.31719 0.68343
 C2450 C 0.38859 0.33045 0.68928
 C2451 C 0.37619 0.33714 0.68232
 C2452 C 0.36990 0.33072 0.66935
 C2453 C 0.37643 0.31753 0.66342
 C2454 C 0.38885 0.31085 0.67038
 C2455 C 0.40794 0.30985 0.69106
 C2456 C 0.41983 0.30360 0.68273
 C2457 C 0.43184 0.29645 0.68992
 C2458 C 0.43223 0.29537 0.70562
 C2459 C 0.42039 0.30170 0.71394
 C2460 C 0.40839 0.30885 0.70675
 C2461 C 0.44482 0.28750 0.71328
 C2462 C 0.45091 0.29334 0.72661
 C2463 C 0.46249 0.28573 0.73403
 C2464 C 0.46825 0.27210 0.72829
 C2465 C 0.46227 0.26635 0.71489
 C2466 C 0.45069 0.27397 0.70747
 H2467 H 0.39322 0.33573 0.69920
 H2468 H 0.37150 0.34733 0.68717
 H2469 H 0.37188 0.31225 0.65347
 H2470 H 0.39343 0.30053 0.66570
 H2471 H 0.41992 0.30439 0.67063
 H2472 H 0.44090 0.29189 0.68321
 H2473 H 0.42024 0.30083 0.72603
 H2474 H 0.39929 0.31332 0.71347
 H2475 H 0.44676 0.30385 0.73126
 H2476 H 0.46688 0.29050 0.74430
 H2477 H 0.46643 0.25586 0.71019
 H2478 H 0.44612 0.26909 0.69732
 C2479 C 0.39528 0.81742 0.18308
 C2480 C 0.38903 0.81110 0.17006
 C2481 C 0.37659 0.81780 0.16317
 C2482 C 0.37012 0.83100 0.16913
 C2483 C 0.37649 0.83742 0.18207
 C2484 C 0.38892 0.83070 0.18896
 C2485 C 0.40824 0.81006 0.19065
 C2486 C 0.40877 0.80909 0.20634
 C2487 C 0.42082 0.80196 0.21348
 C2488 C 0.43262 0.79563 0.20510
 C2489 C 0.43212 0.79665 0.18941
 C2490 C 0.42007 0.80378 0.18226
 C2491 C 0.44529 0.78786 0.21273
 C2492 C 0.45120 0.77431 0.20695
 C2493 C 0.46284 0.76678 0.21436
 C2494 C 0.46885 0.77262 0.22772
 C2495 C 0.46307 0.78626 0.23340
 C2496 C 0.45142 0.79378 0.22599
 H2497 H 0.39356 0.80077 0.16536
 H2498 H 0.37198 0.81253 0.15324
 H2499 H 0.37184 0.84761 0.18694
 H2500 H 0.39361 0.83597 0.19885
 H2501 H 0.39971 0.81357 0.21310
 H2502 H 0.42074 0.80114 0.22557
 H2503 H 0.44116 0.79208 0.18266
 H2504 H 0.42009 0.80455 0.17017
 H2505 H 0.44659 0.76936 0.19685
 H2506 H 0.46702 0.75628 0.20971
 H2507 H 0.46748 0.79110 0.24363
 H2508 H 0.44726 0.80431 0.23060
 C2509 C 0.89535 0.31594 0.18207
 C2510 C 0.88910 0.32917 0.18818
 C2511 C 0.87666 0.33605 0.18145
 C2512 C 0.87020 0.32988 0.16845
 C2513 C 0.87657 0.31673 0.16226
 C2514 C 0.88899 0.30984 0.16900
 C2515 C 0.90831 0.30840 0.18945
 C2516 C 0.90884 0.29256 0.19064
 C2517 C 0.92088 0.28544 0.19781
 C2518 C 0.93269 0.29401 0.20395
 C2519 C 0.93221 0.30985 0.20269
 C2520 C 0.92015 0.31697 0.19553
 C2521 C 0.94535 0.28642 0.21180
 C2522 C 0.95126 0.29252 0.22508
 C2523 C 0.96290 0.28518 0.23268
 C2524 C 0.96891 0.27158 0.22716
 C2525 C 0.96310 0.26556 0.21379
 C2526 C 0.95146 0.27290 0.20620
 H2527 H 0.89363 0.33404 0.19834
 H2528 H 0.87205 0.34615 0.18655
 H2529 H 0.87193 0.31168 0.15223
 H2530 H 0.89368 0.29978 0.16392
 H2531 H 0.89977 0.28565 0.18630
 H2532 H 0.92080 0.27324 0.19881
 H2533 H 0.94125 0.31675 0.20711
 H2534 H 0.92018 0.32918 0.19459
 H2535 H 0.94667 0.30283 0.22978
 H2536 H 0.96710 0.29010 0.24297
 H2537 H 0.96751 0.25513 0.20920
 H2538 H 0.94729 0.26803 0.19588
 C2539 C 0.89527 0.81699 0.68305
 C2540 C 0.88912 0.83040 0.68884
 C2541 C 0.87677 0.83724 0.68194
 C2542 C 0.87027 0.83083 0.66906
 C2543 C 0.87655 0.81751 0.66316
 C2544 C 0.88891 0.81067 0.67007
 C2545 C 0.90812 0.80949 0.69066
 C2546 C 0.91989 0.80303 0.68233
 C2547 C 0.93188 0.79585 0.68955
 C2548 C 0.93237 0.79497 0.70525
 C2549 C 0.92062 0.80147 0.71357
 C2550 C 0.90864 0.80865 0.70636
 C2551 C 0.94497 0.78717 0.71295
 C2552 C 0.95115 0.79317 0.72616
 C2553 C 0.96274 0.78562 0.73364
 C2554 C 0.96841 0.77188 0.72807
 C2555 C 0.96234 0.76597 0.71477
 C2556 C 0.95076 0.77353 0.70730
 H2557 H 0.89391 0.83566 0.69869
 H2558 H 0.87229 0.84753 0.68677
 H2559 H 0.87183 0.81225 0.65327
 H2560 H 0.89330 0.80025 0.66543
 H2561 H 0.91992 0.80369 0.67023
 H2562 H 0.94087 0.79114 0.68284
 H2563 H 0.92053 0.80076 0.72567
 H2564 H 0.89962 0.81328 0.71309
 H2565 H 0.94707 0.80376 0.73069
 H2566 H 0.96720 0.79051 0.74382
 H2567 H 0.96644 0.75539 0.71021
 H2568 H 0.94612 0.76852 0.69724
 C2569 C 0.60524 0.31703 0.31669
 C2570 C 0.61170 0.33016 0.31059
 C2571 C 0.62413 0.33696 0.31743
 C2572 C 0.63037 0.33079 0.33054
 C2573 C 0.62378 0.31775 0.33673
 C2574 C 0.61137 0.31095 0.32988
 C2575 C 0.59231 0.30954 0.30920
 C2576 C 0.59167 0.29369 0.30814
 C2577 C 0.57961 0.28661 0.30096
 C2578 C 0.56791 0.29521 0.29469
 C2579 C 0.56853 0.31106 0.29577
 C2580 C 0.58060 0.31815 0.30294
 C2581 C 0.55519 0.28764 0.28693
 C2582 C 0.54933 0.29359 0.27355
 C2583 C 0.53764 0.28621 0.26605
 C2584 C 0.53154 0.27273 0.27175
 C2585 C 0.53727 0.26688 0.28522
 C2586 C 0.54896 0.27425 0.29272
 H2587 H 0.60734 0.33501 0.30034
 H2588 H 0.62891 0.34698 0.31234
 H2589 H 0.62824 0.31272 0.34685
 H2590 H 0.60651 0.30097 0.33497
 H2591 H 0.60064 0.28676 0.31261
 H2592 H 0.57959 0.27440 0.30009
 H2593 H 0.55958 0.31799 0.29123
 H2594 H 0.58068 0.33037 0.30376
 H2595 H 0.55401 0.30379 0.26871
 H2596 H 0.53350 0.29100 0.25568
 H2597 H 0.53279 0.25654 0.28996
 H2598 H 0.55307 0.26950 0.30312
 C2599 C 0.60506 0.81754 0.81712
 C2600 C 0.61146 0.83070 0.81100
 C2601 C 0.62384 0.83758 0.81784
 C2602 C 0.63009 0.83147 0.83098
 C2603 C 0.62356 0.81841 0.83719
 C2604 C 0.61120 0.81153 0.83034
 C2605 C 0.59219 0.80996 0.80963
 C2606 C 0.59166 0.79410 0.80859
 C2607 C 0.57966 0.78693 0.80140
 C2608 C 0.56791 0.79544 0.79509
 C2609 C 0.56843 0.81129 0.79614
 C2610 C 0.58044 0.81848 0.80333
 C2611 C 0.55527 0.78776 0.78730
 C2612 C 0.54941 0.79366 0.77391
 C2613 C 0.53780 0.78619 0.76637
 C2614 C 0.53178 0.77266 0.77207
 C2615 C 0.53752 0.76686 0.78556
 C2616 C 0.54913 0.77433 0.79308
 H2617 H 0.60709 0.83550 0.80074
 H2618 H 0.62858 0.84761 0.81273
 H2619 H 0.62803 0.81343 0.84733
 H2620 H 0.60638 0.80154 0.83545
 H2621 H 0.60067 0.78724 0.81309
 H2622 H 0.57973 0.77471 0.80055
 H2623 H 0.55944 0.81815 0.79158
 H2624 H 0.58043 0.83070 0.80413
 H2625 H 0.55402 0.80389 0.76908
 H2626 H 0.53365 0.79095 0.75599
 H2627 H 0.53310 0.75649 0.79028
 H2628 H 0.55325 0.76961 0.80349
 C2629 C 0.10519 0.31655 0.81687
 C2630 C 0.11158 0.32973 0.81078
 C2631 C 0.12395 0.33660 0.81763
 C2632 C 0.13023 0.33046 0.83074
 C2633 C 0.12372 0.31737 0.83691
 C2634 C 0.11136 0.31050 0.83006
 C2635 C 0.09232 0.30899 0.80936
 C2636 C 0.09178 0.29314 0.80828
 C2637 C 0.07978 0.28599 0.80107
 C2638 C 0.06804 0.29452 0.79477
 C2639 C 0.06856 0.31037 0.79588
 C2640 C 0.08057 0.31753 0.80309
 C2641 C 0.05539 0.28687 0.78696
 C2642 C 0.04954 0.29281 0.77358
 C2643 C 0.03792 0.28538 0.76603
 C2644 C 0.03188 0.27185 0.77169
 C2645 C 0.03761 0.26601 0.78517
 C2646 C 0.04923 0.27343 0.79271
 H2647 H 0.10719 0.33456 0.80053
 H2648 H 0.12868 0.34665 0.81254
 H2649 H 0.12820 0.31236 0.84703
 H2650 H 0.10655 0.30049 0.83514
 H2651 H 0.10079 0.28626 0.81276
 H2652 H 0.07985 0.27377 0.80017
 H2653 H 0.05957 0.31724 0.79133
 H2654 H 0.08056 0.32975 0.80393
 H2655 H 0.05417 0.30305 0.76877
 H2656 H 0.03378 0.29017 0.75566
 H2657 H 0.03317 0.25564 0.78987
 H2658 H 0.05334 0.26869 0.80311
 C2659 C 0.10466 0.81735 0.31741
 C2660 C 0.11091 0.81134 0.33057
 C2661 C 0.12334 0.81821 0.33731
 C2662 C 0.12983 0.83126 0.33104
 C2663 C 0.12347 0.83736 0.31796
 C2664 C 0.11102 0.83049 0.31123
 C2665 C 0.09172 0.80979 0.31002
 C2666 C 0.07994 0.81833 0.30381
 C2667 C 0.06788 0.81118 0.29667
 C2668 C 0.06735 0.79533 0.29558
 C2669 C 0.07910 0.78679 0.30184
 C2670 C 0.09114 0.79394 0.30898
 C2671 C 0.05469 0.78770 0.28777
 C2672 C 0.04853 0.77425 0.29350
 C2673 C 0.03690 0.76684 0.28594
 C2674 C 0.03118 0.77271 0.27247
 C2675 C 0.03723 0.78625 0.26683
 C2676 C 0.04885 0.79366 0.27440
 H2677 H 0.10613 0.80135 0.33572
 H2678 H 0.12789 0.81322 0.34741
 H2679 H 0.12818 0.84739 0.31280
 H2680 H 0.10657 0.83530 0.30100
 H2681 H 0.07995 0.83055 0.30463
 H2682 H 0.05889 0.81806 0.29215
 H2683 H 0.07915 0.77458 0.30096
 H2684 H 0.10017 0.78705 0.31342
 H2685 H 0.05264 0.76949 0.30389
 H2686 H 0.03246 0.75646 0.29062
 H2687 H 0.03310 0.79106 0.25647
 H2688 H 0.05348 0.80390 0.26960
 C2689 C 0.60539 0.68421 0.68281
 C2690 C 0.61167 0.69021 0.66965
 C2691 C 0.62408 0.68329 0.66292
 C2692 C 0.63051 0.67021 0.66919
 C2693 C 0.62412 0.66413 0.68228
 C2694 C 0.61170 0.67105 0.68899
 C2695 C 0.59245 0.69179 0.69017
 C2696 C 0.58065 0.68326 0.69637
 C2697 C 0.56861 0.69042 0.70351
 C2698 C 0.56810 0.70628 0.70461
 C2699 C 0.57986 0.71480 0.69835
 C2700 C 0.59189 0.70765 0.69121
 C2701 C 0.55546 0.71391 0.71244
 C2702 C 0.54929 0.72736 0.70674
 C2703 C 0.53766 0.73475 0.71430
 C2704 C 0.53194 0.72885 0.72776
 C2705 C 0.53801 0.71531 0.73338
 C2706 C 0.54963 0.70793 0.72581
 H2707 H 0.60693 0.70022 0.66450
 H2708 H 0.62865 0.68826 0.65283
 H2709 H 0.62878 0.65409 0.68743
 H2710 H 0.60723 0.66626 0.69922
 H2711 H 0.58065 0.67104 0.69555
 H2712 H 0.55961 0.68355 0.70803
 H2713 H 0.57993 0.72702 0.69924
 H2714 H 0.60093 0.71453 0.68677
 H2715 H 0.55340 0.73214 0.69635
 H2716 H 0.53320 0.74512 0.70963
 H2717 H 0.53388 0.71049 0.74374
 H2718 H 0.55427 0.69769 0.73059
 C2719 C 0.60429 0.18410 0.18210
 C2720 C 0.61064 0.17095 0.18827
 C2721 C 0.62304 0.16405 0.18151
 C2722 C 0.62938 0.17014 0.16841
 C2723 C 0.62289 0.18319 0.16214
 C2724 C 0.61050 0.19009 0.16891
 C2725 C 0.59140 0.19170 0.18954
 C2726 C 0.59088 0.20755 0.19057
 C2727 C 0.57891 0.21473 0.19779
 C2728 C 0.56718 0.20622 0.20414
 C2729 C 0.56766 0.19036 0.20304
 C2730 C 0.57964 0.18318 0.19582
 C2731 C 0.55460 0.21388 0.21202
 C2732 C 0.54884 0.20794 0.22544
 C2733 C 0.53728 0.21539 0.23307
 C2734 C 0.53122 0.22893 0.22744
 C2735 C 0.53687 0.23477 0.21393
 C2736 C 0.54842 0.22733 0.20631
 H2737 H 0.60622 0.16617 0.19852
 H2738 H 0.62775 0.15403 0.18667
 H2739 H 0.62742 0.18816 0.15202
 H2740 H 0.60572 0.20009 0.16377
 H2741 H 0.59989 0.21442 0.18607
 H2742 H 0.57900 0.22694 0.19867
 H2743 H 0.55868 0.18351 0.20763
 H2744 H 0.57962 0.17096 0.19501
 H2745 H 0.55348 0.19770 0.23022
 H2746 H 0.53321 0.21061 0.24346
 H2747 H 0.53241 0.24514 0.20926
 H2748 H 0.55247 0.23206 0.19589
 C2749 C 0.10443 0.68398 0.18316
 C2750 C 0.11073 0.69025 0.17014
 C2751 C 0.12310 0.68343 0.16323
 C2752 C 0.12945 0.67016 0.16918
 C2753 C 0.12301 0.66379 0.18210
 C2754 C 0.11066 0.67062 0.18900
 C2755 C 0.09158 0.69146 0.19077
 C2756 C 0.09111 0.69238 0.20646
 C2757 C 0.07912 0.69954 0.21366
 C2758 C 0.06733 0.70596 0.20534
 C2759 C 0.06778 0.70503 0.18964
 C2760 C 0.07977 0.69785 0.18243
 C2761 C 0.05469 0.71372 0.21304
 C2762 C 0.04881 0.72731 0.20736
 C2763 C 0.03720 0.73482 0.21485
 C2764 C 0.03120 0.72889 0.22817
 C2765 C 0.03697 0.71520 0.23375
 C2766 C 0.04858 0.70771 0.22627
 H2767 H 0.10629 0.70063 0.16546
 H2768 H 0.12776 0.68867 0.15331
 H2769 H 0.12755 0.65354 0.18697
 H2770 H 0.10592 0.66538 0.19889
 H2771 H 0.10016 0.68780 0.21319
 H2772 H 0.07924 0.70031 0.22576
 H2773 H 0.05875 0.70968 0.18293
 H2774 H 0.07971 0.69714 0.17034
 H2775 H 0.05340 0.73232 0.19729
 H2776 H 0.03303 0.74536 0.21027
 H2777 H 0.03256 0.71029 0.24395
 H2778 H 0.05273 0.69714 0.23081
 C2779 C 0.10520 0.18315 0.68254
 C2780 C 0.11153 0.18913 0.66940
 C2781 C 0.12393 0.18218 0.66269
 C2782 C 0.13031 0.16908 0.66897
 C2783 C 0.12388 0.16302 0.68203
 C2784 C 0.11147 0.16996 0.68873
 C2785 C 0.09228 0.19077 0.68989
 C2786 C 0.08045 0.18227 0.69607
 C2787 C 0.06842 0.18946 0.70320
 C2788 C 0.06795 0.20532 0.70430
 C2789 C 0.07975 0.21381 0.69805
 C2790 C 0.09177 0.20662 0.69093
 C2791 C 0.05533 0.21299 0.71211
 C2792 C 0.04920 0.22646 0.70639
 C2793 C 0.03760 0.23389 0.71394
 C2794 C 0.03184 0.22802 0.72739
 C2795 C 0.03786 0.21446 0.73303
 C2796 C 0.04946 0.20703 0.72547
 H2797 H 0.10682 0.19915 0.66424
 H2798 H 0.12853 0.18714 0.65260
 H2799 H 0.12851 0.15296 0.68720
 H2800 H 0.10697 0.16518 0.69895
 H2801 H 0.08041 0.17005 0.69525
 H2802 H 0.05939 0.18262 0.70770
 H2803 H 0.07985 0.22603 0.69894
 H2804 H 0.10083 0.21347 0.68650
 H2805 H 0.05334 0.23122 0.69601
 H2806 H 0.03318 0.24428 0.70926
 H2807 H 0.03371 0.20966 0.74339
 H2808 H 0.05406 0.19678 0.73026
 C2809 C 0.39528 0.68378 0.31636
 C2810 C 0.38885 0.67052 0.31049
 C2811 C 0.37642 0.66383 0.31740
 C2812 C 0.37010 0.67026 0.33035
 C2813 C 0.37664 0.68344 0.33631
 C2814 C 0.38908 0.69011 0.32939
 C2815 C 0.40823 0.69111 0.30877
 C2816 C 0.42011 0.69734 0.31713
 C2817 C 0.43217 0.70445 0.30997
 C2818 C 0.43262 0.70548 0.29427
 C2819 C 0.42078 0.69918 0.28592
 C2820 C 0.40873 0.69209 0.29308
 C2821 C 0.44530 0.71323 0.28663
 C2822 C 0.45138 0.70730 0.27335
 C2823 C 0.46302 0.71481 0.26593
 C2824 C 0.46885 0.72843 0.27161
 C2825 C 0.46288 0.73428 0.28497
 C2826 C 0.45124 0.72676 0.29240
 H2827 H 0.39350 0.66525 0.30058
 H2828 H 0.37173 0.65366 0.31253
 H2829 H 0.37207 0.68871 0.34625
 H2830 H 0.39366 0.70042 0.33409
 H2831 H 0.42016 0.69657 0.32923
 H2832 H 0.44123 0.70899 0.31670
 H2833 H 0.42068 0.70002 0.27383
 H2834 H 0.39963 0.68763 0.28633
 H2835 H 0.44718 0.69679 0.26874
 H2836 H 0.46740 0.70997 0.25569
 H2837 H 0.46710 0.74477 0.28963
 H2838 H 0.44668 0.73171 0.30251
 C2839 C 0.39483 0.18270 0.81679
 C2840 C 0.38858 0.18895 0.82984
 C2841 C 0.37617 0.18217 0.83672
 C2842 C 0.36973 0.16897 0.83072
 C2843 C 0.37611 0.16262 0.81776
 C2844 C 0.38851 0.16941 0.81088
 C2845 C 0.40773 0.19015 0.80922
 C2846 C 0.40820 0.19117 0.79353
 C2847 C 0.42021 0.19834 0.78638
 C2848 C 0.43204 0.20466 0.79474
 C2849 C 0.43159 0.20360 0.81043
 C2850 C 0.41957 0.19643 0.81759
 C2851 C 0.44468 0.21245 0.78709
 C2852 C 0.45063 0.22598 0.79287
 C2853 C 0.46225 0.23352 0.78544
 C2854 C 0.46820 0.22769 0.77205
 C2855 C 0.46238 0.21407 0.76636
 C2856 C 0.45076 0.20654 0.77379
 H2857 H 0.39308 0.19928 0.83457
 H2858 H 0.37155 0.18739 0.84667
 H2859 H 0.37150 0.15242 0.81285
 H2860 H 0.39321 0.16419 0.80097
 H2861 H 0.39912 0.18668 0.78678
 H2862 H 0.42009 0.19920 0.77429
 H2863 H 0.44064 0.20817 0.81716
 H2864 H 0.41964 0.19563 0.82968
 H2865 H 0.44607 0.23091 0.80300
 H2866 H 0.46646 0.24400 0.79010
 H2867 H 0.46675 0.20925 0.75611
 H2868 H 0.44657 0.19603 0.76917
 C2869 C 0.89483 0.68396 0.81788
 C2870 C 0.88852 0.69005 0.83098
 C2871 C 0.87609 0.68319 0.83774
 C2872 C 0.86966 0.67007 0.83154
 C2873 C 0.87607 0.66390 0.81851
 C2874 C 0.88850 0.67077 0.81177
 C2875 C 0.90779 0.69148 0.81048
 C2876 C 0.91956 0.68288 0.80433
 C2877 C 0.93160 0.68997 0.79712
 C2878 C 0.93214 0.70582 0.79590
 C2879 C 0.92041 0.71441 0.80213
 C2880 C 0.90838 0.70732 0.80934
 C2881 C 0.94478 0.71337 0.78799
 C2882 C 0.95100 0.72684 0.79360
 C2883 C 0.96262 0.73416 0.78595
 C2884 C 0.96829 0.72817 0.77251
 C2885 C 0.96217 0.71462 0.76698
 C2886 C 0.95055 0.70730 0.77464
 H2887 H 0.89327 0.70009 0.83608
 H2888 H 0.87150 0.68822 0.84779
 H2889 H 0.87140 0.65383 0.81340
 H2890 H 0.89299 0.66591 0.80158
 H2891 H 0.91954 0.67067 0.80522
 H2892 H 0.94058 0.68306 0.79263
 H2893 H 0.92038 0.72662 0.80116
 H2894 H 0.89937 0.71425 0.81375
 H2895 H 0.94694 0.73169 0.80396
 H2896 H 0.96712 0.74455 0.79055
 H2897 H 0.96625 0.70973 0.75664
 H2898 H 0.94587 0.69704 0.76993
 C2899 C 0.89594 0.18395 0.31753
 C2900 C 0.88958 0.17077 0.31142
 C2901 C 0.87714 0.16393 0.31817
 C2902 C 0.87076 0.17012 0.33121
 C2903 C 0.87724 0.18321 0.33742
 C2904 C 0.88967 0.19004 0.33065
 C2905 C 0.90887 0.19147 0.31010
 C2906 C 0.90943 0.20732 0.30893
 C2907 C 0.92143 0.21441 0.30170
 C2908 C 0.93317 0.20584 0.29547
 C2909 C 0.93267 0.18999 0.29670
 C2910 C 0.92065 0.18289 0.30394
 C2911 C 0.94578 0.21341 0.28753
 C2912 C 0.95156 0.20733 0.27419
 C2913 C 0.96313 0.21469 0.26650
 C2914 C 0.96919 0.22829 0.27199
 C2915 C 0.96352 0.23428 0.28542
 C2916 C 0.95195 0.22692 0.29310
 H2917 H 0.89404 0.16590 0.30123
 H2918 H 0.87244 0.15388 0.31306
 H2919 H 0.87267 0.18825 0.34748
 H2920 H 0.89444 0.20007 0.33575
 H2921 H 0.90040 0.21423 0.31334
 H2922 H 0.92136 0.22662 0.30071
 H2923 H 0.94165 0.18309 0.29221
 H2924 H 0.92065 0.17068 0.30485
 H2925 H 0.94692 0.19704 0.26951
 H2926 H 0.96722 0.20979 0.25616
 H2927 H 0.96798 0.24471 0.28999
 H2928 H 0.94788 0.23178 0.30346
 C2929 C 0.31770 0.31596 0.60482
 C2930 C 0.33084 0.30999 0.61127
 C2931 C 0.33746 0.31698 0.62366
 C2932 C 0.33108 0.33010 0.62991
 C2933 C 0.31801 0.33614 0.62336
 C2934 C 0.31141 0.32915 0.61095
 C2935 C 0.31044 0.30831 0.59189
 C2936 C 0.30434 0.31679 0.58006
 C2937 C 0.29722 0.30958 0.56806
 C2938 C 0.29605 0.29373 0.56764
 C2939 C 0.30226 0.28525 0.57942
 C2940 C 0.30937 0.29246 0.59141
 C2941 C 0.28818 0.28606 0.55509
 C2942 C 0.29386 0.27255 0.54903
 C2943 C 0.28624 0.26513 0.53748
 C2944 C 0.27275 0.27106 0.53174
 C2945 C 0.26715 0.28465 0.53770
 C2946 C 0.27478 0.29207 0.54924
 H2947 H 0.33607 0.29996 0.60667
 H2948 H 0.34755 0.31204 0.62837
 H2949 H 0.31277 0.34620 0.62788
 H2950 H 0.30119 0.33392 0.60635
 H2951 H 0.30519 0.32901 0.57999
 H2952 H 0.29276 0.31642 0.55904
 H2953 H 0.30133 0.27304 0.57955
 H2954 H 0.31375 0.28562 0.60047
 H2955 H 0.30427 0.26775 0.55316
 H2956 H 0.29089 0.25471 0.53310
 H2957 H 0.25677 0.28950 0.53355
 H2958 H 0.27001 0.30235 0.55379
 C2959 C 0.31763 0.81644 0.10479
 C2960 C 0.33075 0.81041 0.11121
 C2961 C 0.33743 0.81736 0.12359
 C2962 C 0.33114 0.83051 0.12985
 C2963 C 0.31809 0.83663 0.12332
 C2964 C 0.31142 0.82967 0.11093
 C2965 C 0.31030 0.80883 0.09188
 C2966 C 0.30422 0.81733 0.08004
 C2967 C 0.29707 0.81015 0.06806
 C2968 C 0.29582 0.79430 0.06764
 C2969 C 0.30198 0.78580 0.07944
 C2970 C 0.30913 0.79298 0.09142
 C2971 C 0.28794 0.78666 0.05508
 C2972 C 0.29357 0.77310 0.04906
 C2973 C 0.28594 0.76570 0.03751
 C2974 C 0.27250 0.77169 0.03172
 C2975 C 0.26695 0.78532 0.03763
 C2976 C 0.27459 0.79272 0.04918
 H2977 H 0.33591 0.80035 0.10660
 H2978 H 0.34750 0.81237 0.12828
 H2979 H 0.31291 0.84672 0.12785
 H2980 H 0.30122 0.83450 0.10635
 H2981 H 0.30514 0.82955 0.07997
 H2982 H 0.29264 0.81700 0.05903
 H2983 H 0.30098 0.77360 0.07958
 H2984 H 0.31348 0.78613 0.10049
 H2985 H 0.30394 0.76826 0.05323
 H2986 H 0.29055 0.75525 0.03317
 H2987 H 0.25661 0.79021 0.03344
 H2988 H 0.26986 0.80304 0.05370
 C2989 C 0.81694 0.31642 0.10443
 C2990 C 0.82996 0.31007 0.11075
 C2991 C 0.83687 0.31683 0.12311
 C2992 C 0.83091 0.33010 0.12944
 C2993 C 0.81798 0.33654 0.12299
 C2994 C 0.81108 0.32978 0.11064
 C2995 C 0.80933 0.30901 0.09156
 C2996 C 0.79356 0.30816 0.09099
 C2997 C 0.78636 0.30107 0.07898
 C2998 C 0.79476 0.29467 0.06727
 C2999 C 0.81054 0.29553 0.06782
 C3000 C 0.81775 0.30262 0.07984
 C3001 C 0.78706 0.28700 0.05462
 C3002 C 0.79274 0.27340 0.04874
 C3003 C 0.78523 0.26596 0.03712
 C3004 C 0.77190 0.27197 0.03111
 C3005 C 0.76633 0.28566 0.03686
 C3006 C 0.77383 0.29309 0.04848
 H3007 H 0.83465 0.29969 0.10632
 H3008 H 0.84680 0.31154 0.12780
 H3009 H 0.81311 0.34679 0.12751
 H3010 H 0.80119 0.33507 0.10588
 H3011 H 0.78677 0.31272 0.09997
 H3012 H 0.77420 0.30036 0.07902
 H3013 H 0.81732 0.29089 0.05887
 H3014 H 0.82991 0.30329 0.07986
 H3015 H 0.80281 0.26833 0.05334
 H3016 H 0.78980 0.25541 0.03296
 H3017 H 0.75612 0.29063 0.03245
 H3018 H 0.76930 0.30366 0.05262
 C3019 C 0.81714 0.81710 0.60496
 C3020 C 0.81123 0.83044 0.61115
 C3021 C 0.81810 0.83726 0.62350
 C3022 C 0.83106 0.83089 0.62995
 C3023 C 0.83707 0.81762 0.62365
 C3024 C 0.83019 0.81082 0.61129
 C3025 C 0.80957 0.80964 0.59210
 C3026 C 0.81802 0.80329 0.58039
 C3027 C 0.81085 0.79614 0.56838
 C3028 C 0.79508 0.79519 0.56783
 C3029 C 0.78664 0.80157 0.57953
 C3030 C 0.79380 0.80871 0.59153
 C3031 C 0.78742 0.78746 0.55518
 C3032 C 0.77415 0.79345 0.54905
 C3033 C 0.76669 0.78597 0.53744
 C3034 C 0.77235 0.77231 0.53169
 C3035 C 0.78573 0.76639 0.53771
 C3036 C 0.79318 0.77389 0.54932
 H3037 H 0.80131 0.83568 0.60639
 H3038 H 0.81319 0.84750 0.62800
 H3039 H 0.84702 0.81239 0.62834
 H3040 H 0.83492 0.80045 0.60689
 H3041 H 0.83018 0.80401 0.58041
 H3042 H 0.81765 0.79153 0.55943
 H3043 H 0.77449 0.80079 0.57957
 H3044 H 0.78699 0.81325 0.60050
 H3045 H 0.76955 0.80400 0.55318
 H3046 H 0.75645 0.79086 0.53302
 H3047 H 0.79036 0.75588 0.53355
 H3048 H 0.80329 0.76889 0.55392
 C3049 C 0.31790 0.68482 0.39490
 C3050 C 0.31164 0.67162 0.38875
 C3051 C 0.31824 0.66468 0.37632
 C3052 C 0.33127 0.67079 0.36976
 C3053 C 0.33762 0.68392 0.37602
 C3054 C 0.33100 0.69085 0.38844
 C3055 C 0.31065 0.69241 0.40786
 C3056 C 0.30461 0.68388 0.41969
 C3057 C 0.29748 0.69103 0.43171
 C3058 C 0.29624 0.70687 0.43216
 C3059 C 0.30238 0.71541 0.42038
 C3060 C 0.30950 0.70826 0.40837
 C3061 C 0.28834 0.71448 0.44473
 C3062 C 0.29395 0.72803 0.45079
 C3063 C 0.28630 0.73538 0.46236
 C3064 C 0.27286 0.72936 0.46812
 C3065 C 0.26734 0.71573 0.46215
 C3066 C 0.27499 0.70838 0.45059
 H3067 H 0.30145 0.66680 0.39336
 H3068 H 0.31302 0.65461 0.37179
 H3069 H 0.34768 0.68890 0.37130
 H3070 H 0.33621 0.70090 0.39305
 H3071 H 0.30552 0.67167 0.41973
 H3072 H 0.29307 0.68416 0.44072
 H3073 H 0.30139 0.72761 0.42027
 H3074 H 0.31383 0.71513 0.39931
 H3075 H 0.30432 0.73290 0.44665
 H3076 H 0.29089 0.74583 0.46674
 H3077 H 0.25700 0.71081 0.46631
 H3078 H 0.27028 0.69806 0.44603
 C3079 C 0.31712 0.18327 0.89493
 C3080 C 0.31087 0.17008 0.88871
 C3081 C 0.31756 0.16315 0.87633
 C3082 C 0.33067 0.16924 0.86989
 C3083 C 0.33700 0.18233 0.87623
 C3084 C 0.33030 0.18926 0.88860
 C3085 C 0.30978 0.19088 0.90783
 C3086 C 0.30873 0.20673 0.90834
 C3087 C 0.30165 0.21392 0.92034
 C3088 C 0.29544 0.20543 0.93212
 C3089 C 0.29654 0.18957 0.93164
 C3090 C 0.30363 0.18238 0.91963
 C3091 C 0.28769 0.21310 0.94474
 C3092 C 0.27430 0.20715 0.95067
 C3093 C 0.26678 0.21460 0.96226
 C3094 C 0.27249 0.22816 0.96819
 C3095 C 0.28597 0.23403 0.96237
 C3096 C 0.29348 0.22658 0.95078
 H3097 H 0.30063 0.16529 0.89322
 H3098 H 0.31236 0.15310 0.87173
 H3099 H 0.34712 0.18730 0.87162
 H3100 H 0.33550 0.19928 0.89328
 H3101 H 0.31313 0.21358 0.89930
 H3102 H 0.30075 0.22614 0.92025
 H3103 H 0.29207 0.18273 0.94065
 H3104 H 0.30446 0.17016 0.91966
 H3105 H 0.26945 0.19689 0.94614
 H3106 H 0.25640 0.20979 0.96647
 H3107 H 0.29070 0.24443 0.96672
 H3108 H 0.30388 0.23134 0.94659
 C3109 C 0.81638 0.68367 0.89549
 C3110 C 0.82945 0.68997 0.88921
 C3111 C 0.83636 0.68319 0.87686
 C3112 C 0.83036 0.66993 0.87051
 C3113 C 0.81738 0.66355 0.87692
 C3114 C 0.81048 0.67034 0.88925
 C3115 C 0.80879 0.69111 0.90834
 C3116 C 0.79302 0.69205 0.90887
 C3117 C 0.78584 0.69920 0.92084
 C3118 C 0.79427 0.70558 0.93256
 C3119 C 0.81004 0.70460 0.93206
 C3120 C 0.81722 0.69744 0.92008
 C3121 C 0.78660 0.71339 0.94515
 C3122 C 0.79240 0.72696 0.95098
 C3123 C 0.78497 0.73452 0.96255
 C3124 C 0.77156 0.72867 0.96857
 C3125 C 0.76585 0.71502 0.96285
 C3126 C 0.77328 0.70747 0.95127
 H3127 H 0.83417 0.70033 0.89365
 H3128 H 0.84632 0.68843 0.87221
 H3129 H 0.81248 0.65332 0.87238
 H3130 H 0.80055 0.66509 0.89398
 H3131 H 0.78622 0.68752 0.89987
 H3132 H 0.77369 0.70000 0.92077
 H3133 H 0.81682 0.70921 0.94103
 H3134 H 0.82938 0.69670 0.92010
 H3135 H 0.80254 0.73190 0.94638
 H3136 H 0.78965 0.74503 0.96668
 H3137 H 0.75558 0.71018 0.96727
 H3138 H 0.76865 0.69693 0.94717
 C3139 C 0.81788 0.18409 0.39527
 C3140 C 0.83108 0.19013 0.38901
 C3141 C 0.83783 0.18326 0.37664
 C3142 C 0.83154 0.17019 0.37021
 C3143 C 0.81843 0.16405 0.37659
 C3144 C 0.81168 0.17092 0.38897
 C3145 C 0.81048 0.19164 0.40816
 C3146 C 0.80430 0.18309 0.41991
 C3147 C 0.79712 0.19022 0.43190
 C3148 C 0.79595 0.20607 0.43240
 C3149 C 0.80219 0.21462 0.42069
 C3150 C 0.80937 0.20749 0.40871
 C3151 C 0.78807 0.21368 0.44498
 C3152 C 0.79374 0.22718 0.45109
 C3153 C 0.78610 0.23456 0.46264
 C3154 C 0.77261 0.22861 0.46835
 C3155 C 0.76702 0.21502 0.46236
 C3156 C 0.77467 0.20764 0.45081
 H3157 H 0.83624 0.20014 0.39374
 H3158 H 0.84796 0.18827 0.37208
 H3159 H 0.81325 0.15401 0.37193
 H3160 H 0.80143 0.16610 0.39343
 H3161 H 0.80517 0.17087 0.41991
 H3162 H 0.79262 0.18334 0.44086
 H3163 H 0.80125 0.22683 0.42062
 H3164 H 0.81379 0.21438 0.39971
 H3165 H 0.80415 0.23200 0.44699
 H3166 H 0.79075 0.24497 0.46705
 H3167 H 0.75664 0.21015 0.46648
 H3168 H 0.76991 0.19736 0.44622
 C3169 C 0.68271 0.31659 0.39504
 C3170 C 0.66957 0.31055 0.38864
 C3171 C 0.66292 0.31745 0.37622
 C3172 C 0.66926 0.33055 0.36989
 C3173 C 0.68232 0.33667 0.37640
 C3174 C 0.68895 0.32978 0.38883
 C3175 C 0.69001 0.30902 0.40798
 C3176 C 0.69610 0.31756 0.41979
 C3177 C 0.70323 0.31041 0.43180
 C3178 C 0.70444 0.29456 0.43228
 C3179 C 0.69827 0.28603 0.42052
 C3180 C 0.69113 0.29317 0.40851
 C3181 C 0.71231 0.28696 0.44487
 C3182 C 0.70665 0.27343 0.45095
 C3183 C 0.71428 0.26606 0.46252
 C3184 C 0.72774 0.27204 0.46828
 C3185 C 0.73331 0.28565 0.46232
 C3186 C 0.72568 0.29302 0.45075
 H3187 H 0.66438 0.30053 0.39330
 H3188 H 0.65284 0.31245 0.37155
 H3189 H 0.68752 0.34673 0.37182
 H3190 H 0.69917 0.33460 0.39340
 H3191 H 0.69522 0.32977 0.41981
 H3192 H 0.70768 0.31729 0.44081
 H3193 H 0.69923 0.27382 0.42043
 H3194 H 0.68678 0.28629 0.39947
 H3195 H 0.69627 0.26859 0.44680
 H3196 H 0.70965 0.25563 0.46690
 H3197 H 0.74366 0.29054 0.46648
 H3198 H 0.73042 0.30332 0.44619
 C3199 C 0.68243 0.81750 0.89549
 C3200 C 0.68873 0.83062 0.88919
 C3201 C 0.68207 0.83751 0.87677
 C3202 C 0.66895 0.83144 0.87035
 C3203 C 0.66256 0.81841 0.87677
 C3204 C 0.66922 0.81153 0.88919
 C3205 C 0.68976 0.80992 0.90841
 C3206 C 0.69074 0.79407 0.90900
 C3207 C 0.69786 0.78691 0.92101
 C3208 C 0.70416 0.79544 0.93271
 C3209 C 0.70311 0.81129 0.93217
 C3210 C 0.69599 0.81846 0.92015
 C3211 C 0.71199 0.78780 0.94530
 C3212 C 0.72546 0.79372 0.95109
 C3213 C 0.73305 0.78629 0.96265
 C3214 C 0.72734 0.77278 0.96869
 C3215 C 0.71378 0.76695 0.96302
 C3216 C 0.70619 0.77438 0.95146
 H3217 H 0.69900 0.83539 0.89369
 H3218 H 0.68732 0.84751 0.87211
 H3219 H 0.65242 0.81346 0.87217
 H3220 H 0.66398 0.80156 0.89392
 H3221 H 0.68628 0.78719 0.90001
 H3222 H 0.69871 0.77469 0.92097
 H3223 H 0.70766 0.81816 0.94112
 H3224 H 0.69521 0.83068 0.92013
 H3225 H 0.73031 0.80394 0.94647
 H3226 H 0.74349 0.79106 0.96674
 H3227 H 0.70904 0.75659 0.96746
 H3228 H 0.69573 0.76965 0.94738
 C3229 C 0.18271 0.31647 0.89517
 C3230 C 0.16954 0.31043 0.88883
 C3231 C 0.16284 0.31731 0.87643
 C3232 C 0.16915 0.33040 0.87006
 C3233 C 0.18223 0.33653 0.87651
 C3234 C 0.18893 0.32965 0.88892
 C3235 C 0.19007 0.30890 0.90808
 C3236 C 0.19623 0.31745 0.91984
 C3237 C 0.20341 0.31031 0.93184
 C3238 C 0.20458 0.29446 0.93234
 C3239 C 0.19834 0.28592 0.92061
 C3240 C 0.19117 0.29305 0.90862
 C3241 C 0.21246 0.28684 0.94492
 C3242 C 0.20677 0.27336 0.95103
 C3243 C 0.21440 0.26597 0.96259
 C3244 C 0.22791 0.27190 0.96829
 C3245 C 0.23352 0.28547 0.96228
 C3246 C 0.22587 0.29286 0.95073
 H3247 H 0.16437 0.30041 0.89352
 H3248 H 0.15274 0.31231 0.87181
 H3249 H 0.18742 0.34658 0.87189
 H3250 H 0.19916 0.33447 0.89343
 H3251 H 0.19537 0.32967 0.91985
 H3252 H 0.20790 0.31719 0.94082
 H3253 H 0.19928 0.27370 0.92054
 H3254 H 0.18676 0.28617 0.89961
 H3255 H 0.19635 0.26855 0.94693
 H3256 H 0.20975 0.25557 0.96700
 H3257 H 0.24391 0.29032 0.96640
 H3258 H 0.23064 0.30313 0.94614
 C3259 C 0.18268 0.81735 0.39514
 C3260 C 0.16950 0.81129 0.38887
 C3261 C 0.16274 0.81816 0.37650
 C3262 C 0.16901 0.83125 0.37009
 C3263 C 0.18212 0.83740 0.37648
 C3264 C 0.18887 0.83053 0.38886
 C3265 C 0.19010 0.80979 0.40802
 C3266 C 0.19627 0.81833 0.41979
 C3267 C 0.20345 0.81119 0.43178
 C3268 C 0.20464 0.79534 0.43227
 C3269 C 0.19841 0.78680 0.42053
 C3270 C 0.19122 0.79394 0.40856
 C3271 C 0.21251 0.78772 0.44485
 C3272 C 0.20683 0.77421 0.45093
 C3273 C 0.21446 0.76681 0.46248
 C3274 C 0.22794 0.77275 0.46822
 C3275 C 0.23353 0.78635 0.46226
 C3276 C 0.22590 0.79375 0.45071
 H3277 H 0.16435 0.80127 0.39359
 H3278 H 0.15262 0.81314 0.37192
 H3279 H 0.18728 0.84745 0.37183
 H3280 H 0.19911 0.83536 0.39334
 H3281 H 0.19539 0.83055 0.41980
 H3282 H 0.20794 0.81806 0.44076
 H3283 H 0.19936 0.77459 0.42045
 H3284 H 0.18681 0.78705 0.39954
 H3285 H 0.19643 0.76939 0.44680
 H3286 H 0.20982 0.75638 0.46686
 H3287 H 0.24390 0.79122 0.46641
 H3288 H 0.23065 0.80404 0.44615
 C3289 C 0.68351 0.68351 0.60499
 C3290 C 0.68944 0.67021 0.61125
 C3291 C 0.68260 0.66346 0.62365
 C3292 C 0.66965 0.66987 0.63009
 C3293 C 0.66362 0.68309 0.62371
 C3294 C 0.67047 0.68983 0.61131
 C3295 C 0.69105 0.69091 0.59209
 C3296 C 0.68258 0.69721 0.58036
 C3297 C 0.68972 0.70434 0.56833
 C3298 C 0.70549 0.70531 0.56777
 C3299 C 0.71395 0.69897 0.57948
 C3300 C 0.70682 0.69186 0.59150
 C3301 C 0.71313 0.71304 0.55512
 C3302 C 0.72641 0.70706 0.54898
 C3303 C 0.73384 0.71456 0.53737
 C3304 C 0.72817 0.72822 0.53163
 C3305 C 0.71479 0.73411 0.53764
 C3306 C 0.70735 0.72660 0.54925
 H3307 H 0.69934 0.66494 0.60651
 H3308 H 0.68752 0.65325 0.62821
 H3309 H 0.65368 0.68835 0.62839
 H3310 H 0.66573 0.70017 0.60685
 H3311 H 0.67043 0.69648 0.58039
 H3312 H 0.68291 0.70892 0.55938
 H3313 H 0.72611 0.69977 0.57951
 H3314 H 0.71365 0.68735 0.60049
 H3315 H 0.73102 0.69653 0.55311
 H3316 H 0.74409 0.70968 0.53296
 H3317 H 0.71014 0.74463 0.53350
 H3318 H 0.69723 0.73159 0.55386
 C3319 C 0.68217 0.18385 0.10424
 C3320 C 0.68838 0.17071 0.11058
 C3321 C 0.68164 0.16387 0.12298
 C3322 C 0.66852 0.17000 0.12934
 C3323 C 0.66221 0.18305 0.12286
 C3324 C 0.66896 0.18989 0.11047
 C3325 C 0.68957 0.19138 0.09133
 C3326 C 0.69064 0.20723 0.09074
 C3327 C 0.69779 0.21434 0.07873
 C3328 C 0.70404 0.20578 0.06703
 C3329 C 0.70292 0.18993 0.06759
 C3330 C 0.69576 0.18281 0.07961
 C3331 C 0.71188 0.21338 0.05442
 C3332 C 0.72530 0.20738 0.04860
 C3333 C 0.73291 0.21476 0.03702
 C3334 C 0.72727 0.22832 0.03100
 C3335 C 0.71376 0.23422 0.03671
 C3336 C 0.70616 0.22684 0.04828
 H3337 H 0.69864 0.16588 0.10613
 H3338 H 0.68682 0.15385 0.12768
 H3339 H 0.65208 0.18806 0.12741
 H3340 H 0.66379 0.19987 0.10571
 H3341 H 0.68621 0.21413 0.09972
 H3342 H 0.69870 0.22656 0.07876
 H3343 H 0.70743 0.18303 0.05864
 H3344 H 0.69492 0.17059 0.07964
 H3345 H 0.73009 0.19713 0.05321
 H3346 H 0.74330 0.20993 0.03291
 H3347 H 0.70908 0.24461 0.03228
 H3348 H 0.69574 0.23163 0.05238
 C3349 C 0.18213 0.68405 0.10487
 C3350 C 0.18829 0.67085 0.11114
 C3351 C 0.18156 0.66400 0.12354
 C3352 C 0.16850 0.67019 0.12997
 C3353 C 0.16225 0.68331 0.12359
 C3354 C 0.16900 0.69016 0.11119
 C3355 C 0.18953 0.69157 0.09196
 C3356 C 0.19072 0.70741 0.09140
 C3357 C 0.19792 0.71450 0.07940
 C3358 C 0.20410 0.70592 0.06768
 C3359 C 0.20284 0.69008 0.06820
 C3360 C 0.19564 0.68298 0.08020
 C3361 C 0.21202 0.71348 0.05509
 C3362 C 0.22539 0.70738 0.04927
 C3363 C 0.23306 0.71471 0.03771
 C3364 C 0.22753 0.72831 0.03170
 C3365 C 0.21407 0.73433 0.03741
 C3366 C 0.20640 0.72699 0.04897
 H3367 H 0.19850 0.66598 0.10664
 H3368 H 0.18670 0.65393 0.12817
 H3369 H 0.15217 0.68835 0.12819
 H3370 H 0.16387 0.70020 0.10649
 H3371 H 0.18635 0.71433 0.10040
 H3372 H 0.19892 0.72671 0.07946
 H3373 H 0.20729 0.68317 0.05923
 H3374 H 0.19471 0.67077 0.08020
 H3375 H 0.23010 0.69708 0.05388
 H3376 H 0.24342 0.70979 0.03359
 H3377 H 0.20948 0.74475 0.03299
 H3378 H 0.19602 0.73186 0.05307
 C3379 C 0.18348 0.18232 0.60490
 C3380 C 0.18936 0.16899 0.61115
 C3381 C 0.18248 0.16224 0.62352
 C3382 C 0.16954 0.16868 0.62996
 C3383 C 0.16356 0.18193 0.62359
 C3384 C 0.17045 0.18866 0.61121
 C3385 C 0.19106 0.18972 0.59202
 C3386 C 0.18262 0.19608 0.58030
 C3387 C 0.18979 0.20323 0.56830
 C3388 C 0.20556 0.20416 0.56775
 C3389 C 0.21399 0.19775 0.57945
 C3390 C 0.20683 0.19062 0.59144
 C3391 C 0.21322 0.21194 0.55514
 C3392 C 0.22648 0.20595 0.54898
 C3393 C 0.23393 0.21348 0.53740
 C3394 C 0.22829 0.22717 0.53171
 C3395 C 0.21492 0.23308 0.53776
 C3396 C 0.20747 0.22554 0.54934
 H3397 H 0.19926 0.16370 0.60641
 H3398 H 0.18737 0.15201 0.62807
 H3399 H 0.15363 0.18721 0.62826
 H3400 H 0.16575 0.19903 0.60676
 H3401 H 0.17046 0.19538 0.58032
 H3402 H 0.18299 0.20787 0.55936
 H3403 H 0.22615 0.19851 0.57948
 H3404 H 0.21364 0.18606 0.60042
 H3405 H 0.23107 0.19539 0.55306
 H3406 H 0.24417 0.20860 0.53295
 H3407 H 0.21029 0.24362 0.53365
 H3408 H 0.19737 0.23052 0.55396
   
