data_POSCAR
  _audit_creation_date              2014-09-24
  _audit_creation_method            'ToBaCCo'
  _symmetry_space_group_name_H-M    'P1'
  _symmetry_Int_Tables_number       1
  _symmetry_cell_setting            triclinic
  loop_
  _symmetry_equiv_pos_as_xyz
 x,y,z
_cell_length_a 84.1692
_cell_length_b 84.1738
_cell_length_c 84.9656
_cell_angle_alpha 89.948100
_cell_angle_beta 89.992400
_cell_angle_gamma 89.995000
loop_
  _atom_site_label
  _atom_site_type_symbol
  _atom_site_fract_x
  _atom_site_fract_y
  _atom_site_fract_z
N1 N 0.36270 0.31852 0.33059
 N2 N 0.36264 0.32970 0.31981
 C3 C 0.37496 0.32737 0.30996
 C4 C 0.38328 0.31401 0.31486
 C5 C 0.37505 0.30872 0.32801
 H6 H 0.37772 0.33494 0.30007
 H7 H 0.37780 0.29854 0.33525
 Cu8 Cu 0.34663 0.34639 0.31984
 Cu9 Cu 0.34696 0.31760 0.34736
 Cu10 Cu 0.31786 0.34672 0.34734
 N11 N 0.32994 0.36240 0.31978
 N12 N 0.31877 0.36246 0.33057
 C13 C 0.30896 0.37481 0.32797
 C14 C 0.31423 0.38302 0.31480
 C15 C 0.32759 0.37471 0.30992
 H16 H 0.29878 0.37755 0.33521
 H17 H 0.33515 0.37746 0.30002
 N18 N 0.31895 0.32978 0.36333
 N19 N 0.33002 0.31870 0.36334
 C20 C 0.32759 0.30894 0.37567
 C21 C 0.31431 0.31408 0.38389
 C22 C 0.30919 0.32736 0.37566
 H23 H 0.33498 0.29883 0.37842
 H24 H 0.29909 0.33477 0.37840
 H25 H 0.32922 0.32896 0.33491
 H26 H 0.34192 0.34164 0.34782
 N27 N 0.36296 0.81867 -0.16987
 N28 N 0.36262 0.82952 -0.18097
 C29 C 0.37502 0.82725 -0.19072
 C30 C 0.38369 0.81420 -0.18548
 C31 C 0.37554 0.80910 -0.17217
 H32 H 0.37750 0.83464 -0.20081
 H33 H 0.37846 0.79923 -0.16458
 Cu34 Cu 0.34606 0.84567 -0.18156
 Cu35 Cu 0.34726 0.81778 -0.15311
 Cu36 Cu 0.31819 0.84688 -0.15314
 N37 N 0.32993 0.86224 -0.18101
 N38 N 0.31908 0.86259 -0.16992
 C39 C 0.30950 0.87516 -0.17226
 C40 C 0.31457 0.88328 -0.18560
 C41 C 0.32764 0.87462 -0.19080
 H42 H 0.29962 0.87807 -0.16468
 H43 H 0.33501 0.87708 -0.20091
 N44 N 0.31928 0.82997 -0.13715
 N45 N 0.33035 0.81888 -0.13714
 C46 C 0.32798 0.80919 -0.12475
 C47 C 0.31477 0.81439 -0.11649
 C48 C 0.30959 0.82762 -0.12476
 H49 H 0.33540 0.79910 -0.12198
 H50 H 0.29952 0.83505 -0.12200
 H51 H 0.32909 0.82872 -0.16541
 H52 H 0.34225 0.84186 -0.15339
 N53 N 0.86298 0.31947 -0.16942
 N54 N 0.86234 0.33006 -0.18077
 C55 C 0.87452 0.32758 -0.19075
 C56 C 0.88332 0.31471 -0.18538
 C57 C 0.87556 0.30991 -0.17177
 H58 H 0.87679 0.33467 -0.20110
 H59 H 0.87870 0.30015 -0.16412
 Cu60 Cu 0.84590 0.34629 -0.18092
 Cu61 Cu 0.84732 0.31859 -0.15252
 Cu62 Cu 0.81561 0.34477 -0.15540
 N63 N 0.82924 0.36230 -0.18110
 N64 N 0.81754 0.36173 -0.17090
 C65 C 0.80780 0.37417 -0.17329
 C66 C 0.81367 0.38317 -0.18574
 C67 C 0.82736 0.37515 -0.19036
 H68 H 0.79720 0.37630 -0.16644
 H69 H 0.83547 0.37841 -0.19966
 N70 N 0.81786 0.32931 -0.13809
 N71 N 0.83007 0.31956 -0.13684
 C72 C 0.82825 0.31064 -0.12381
 C73 C 0.81420 0.31493 -0.11643
 C74 C 0.80798 0.32687 -0.12586
 H75 H 0.83657 0.30165 -0.12002
 H76 H 0.79700 0.33327 -0.12406
 H77 H 0.82959 0.32746 -0.16621
 H78 H 0.83987 0.34211 -0.15326
 N79 N 0.86307 0.82031 0.33115
 N80 N 0.86134 0.82949 0.31876
 C81 C 0.87359 0.82709 0.30886
 C82 C 0.88356 0.81568 0.31535
 C83 C 0.87645 0.81173 0.32955
 H84 H 0.87493 0.83303 0.29765
 H85 H 0.88053 0.80310 0.33806
 Cu86 Cu 0.84313 0.84348 0.31655
 Cu87 Cu 0.84734 0.81926 0.34787
 Cu88 Cu 0.81457 0.84392 0.34409
 N89 N 0.82844 0.86123 0.31854
 N90 N 0.81725 0.86130 0.32929
 C91 C 0.80830 0.87441 0.32758
 C92 C 0.81417 0.88322 0.31498
 C93 C 0.82708 0.87439 0.30963
 H94 H 0.79816 0.87706 0.33492
 H95 H 0.83480 0.87703 0.29981
 N96 N 0.81728 0.82897 0.36171
 N97 N 0.82992 0.81987 0.36336
 C98 C 0.82832 0.81118 0.37657
 C99 C 0.81398 0.81501 0.38365
 C100 C 0.80734 0.82639 0.37384
 H101 H 0.83696 0.80264 0.38067
 H102 H 0.79604 0.83231 0.37531
 H103 H 0.82844 0.82583 0.33446
 H104 H 0.83884 0.84228 0.34488
 N105 N 0.63725 0.68126 0.33092
 N106 N 0.63741 0.67016 0.32008
 C107 C 0.62506 0.67245 0.31026
 C108 C 0.61665 0.68571 0.31522
 C109 C 0.62482 0.69096 0.32840
 H110 H 0.62242 0.66496 0.30028
 H111 H 0.62199 0.70107 0.33570
 Cu112 Cu 0.65370 0.65374 0.31997
 Cu113 Cu 0.65307 0.68226 0.34760
 Cu114 Cu 0.68222 0.65316 0.34765
 N115 N 0.67012 0.63747 0.32014
 N116 N 0.68122 0.63732 0.33099
 C117 C 0.69095 0.62489 0.32847
 C118 C 0.68570 0.61673 0.31528
 C119 C 0.67242 0.62513 0.31032
 H120 H 0.70107 0.62207 0.33577
 H121 H 0.66493 0.62249 0.30034
 N122 N 0.68119 0.67021 0.36351
 N123 N 0.67009 0.68127 0.36349
 C124 C 0.67250 0.69106 0.37578
 C125 C 0.68576 0.68594 0.38403
 C126 C 0.69094 0.67267 0.37583
 H127 H 0.66507 0.70114 0.37852
 H128 H 0.70104 0.66528 0.37862
 H129 H 0.67102 0.67107 0.33526
 H130 H 0.65821 0.65825 0.34795
 N131 N 0.63883 0.18182 -0.17085
 N132 N 0.63780 0.16970 -0.18052
 C133 C 0.62475 0.17144 -0.18953
 C134 C 0.61717 0.18544 -0.18531
 C135 C 0.62652 0.19170 -0.17338
 H136 H 0.62106 0.16309 -0.19846
 H137 H 0.62470 0.20269 -0.16708
 Cu138 Cu 0.65383 0.15305 -0.18040
 Cu139 Cu 0.65622 0.18410 -0.15587
 Cu140 Cu 0.68203 0.15207 -0.15255
 N141 N 0.67005 0.13660 -0.18031
 N142 N 0.68090 0.13618 -0.16922
 C143 C 0.69056 0.12370 -0.17169
 C144 C 0.68556 0.11573 -0.18515
 C145 C 0.67244 0.12438 -0.19025
 H146 H 0.70054 0.12083 -0.16423
 H147 H 0.66513 0.12206 -0.20045
 N148 N 0.68131 0.16959 -0.13716
 N149 N 0.67175 0.18193 -0.13862
 C150 C 0.67424 0.19191 -0.12650
 C151 C 0.68600 0.18562 -0.11691
 C152 C 0.69017 0.17143 -0.12410
 H153 H 0.66796 0.20298 -0.12485
 H154 H 0.69898 0.16302 -0.12012
 H155 H 0.67317 0.16956 -0.16661
 H156 H 0.65855 0.15991 -0.15309
 N157 N 0.13715 0.68111 -0.16949
 N158 N 0.13716 0.66987 -0.18020
 C159 C 0.12481 0.67216 -0.19002
 C160 C 0.11657 0.68559 -0.18523
 C161 C 0.12483 0.69093 -0.17212
 H162 H 0.12203 0.66457 -0.19988
 H163 H 0.12215 0.70118 -0.16496
 Cu164 Cu 0.15332 0.65334 -0.18014
 Cu165 Cu 0.15297 0.68211 -0.15278
 Cu166 Cu 0.18210 0.65299 -0.15276
 N167 N 0.16981 0.63714 -0.18012
 N168 N 0.18107 0.63715 -0.16943
 C169 C 0.19088 0.62482 -0.17202
 C170 C 0.18551 0.61651 -0.18507
 C171 C 0.17207 0.62474 -0.18988
 H172 H 0.20114 0.62216 -0.16485
 H173 H 0.16446 0.62193 -0.19972
 N174 N 0.18108 0.67001 -0.13689
 N175 N 0.16998 0.68107 -0.13688
 C176 C 0.17239 0.69081 -0.12454
 C177 C 0.18567 0.68566 -0.11632
 C178 C 0.19084 0.67243 -0.12457
 H179 H 0.16496 0.70088 -0.12177
 H180 H 0.20095 0.66503 -0.12183
 H181 H 0.17080 0.67084 -0.16520
 H182 H 0.15812 0.65814 -0.15227
 N183 N 0.13664 0.18067 0.33112
 N184 N 0.13713 0.16992 0.31994
 C185 C 0.12486 0.17229 0.31004
 C186 C 0.11619 0.18528 0.31527
 C187 C 0.12409 0.19026 0.32872
 H188 H 0.12249 0.16511 0.29978
 H189 H 0.12106 0.20014 0.33623
 Cu190 Cu 0.15363 0.15378 0.31979
 Cu191 Cu 0.15250 0.18176 0.34779
 Cu192 Cu 0.18455 0.15601 0.34449
 N193 N 0.17030 0.13780 0.31961
 N194 N 0.18236 0.13873 0.32938
 C195 C 0.19221 0.12642 0.32684
 C196 C 0.18598 0.11714 0.31483
 C197 C 0.17202 0.12478 0.31057
 H198 H 0.20313 0.12450 0.33324
 H199 H 0.16369 0.12115 0.30160
 N200 N 0.18231 0.17147 0.36178
 N201 N 0.16996 0.18101 0.36320
 C202 C 0.17173 0.18984 0.37627
 C203 C 0.18588 0.18569 0.38352
 C204 C 0.19224 0.17395 0.37396
 H205 H 0.16328 0.19863 0.38021
 H206 H 0.20330 0.16767 0.37567
 H207 H 0.17004 0.17297 0.33379
 H208 H 0.16033 0.15826 0.34717
 N209 N 0.63723 0.31892 0.66950
 N210 N 0.63724 0.33015 0.68023
 C211 C 0.62487 0.32786 0.69002
 C212 C 0.61662 0.31445 0.68519
 C213 C 0.62489 0.30912 0.67210
 H214 H 0.62209 0.33544 0.69988
 H215 H 0.62221 0.29888 0.66493
 Cu216 Cu 0.65339 0.34668 0.68021
 Cu217 Cu 0.65305 0.31791 0.65283
 Cu218 Cu 0.68219 0.34700 0.65281
 N219 N 0.66998 0.36278 0.68026
 N220 N 0.68120 0.36280 0.66952
 C221 C 0.69102 0.37513 0.67214
 C222 C 0.68570 0.38337 0.68526
 C223 C 0.67228 0.37511 0.69008
 H224 H 0.70126 0.37782 0.66496
 H225 H 0.66470 0.37787 0.69996
 N226 N 0.68115 0.33000 0.63691
 N227 N 0.67007 0.31892 0.63693
 C228 C 0.67246 0.30917 0.62461
 C229 C 0.68570 0.31432 0.61634
 C230 C 0.69087 0.32758 0.62455
 H231 H 0.66503 0.29909 0.62186
 H232 H 0.70095 0.33500 0.62176
 H233 H 0.67084 0.32923 0.66525
 H234 H 0.65817 0.34192 0.65230
 N235 N 0.63899 0.81737 1.17073
 N236 N 0.63901 0.82864 1.18140
 C237 C 0.62580 0.82736 1.19024
 C238 C 0.61702 0.81446 1.18491
 C239 C 0.62586 0.80845 1.17246
 H240 H 0.62304 0.83511 1.19999
 H241 H 0.62320 0.79818 1.16529
 Cu242 Cu 0.65681 0.84323 1.18344
 Cu243 Cu 0.65650 0.81457 1.15610
 Cu244 Cu 0.68097 0.84751 1.15211
 N245 N 0.67077 0.86144 1.18127
 N246 N 0.67991 0.86325 1.16887
 C247 C 0.68851 0.87660 1.17054
 C248 C 0.68459 0.88361 1.18480
 C249 C 0.67320 0.87361 1.19124
 H250 H 0.69714 0.88073 1.16205
 H251 H 0.66729 0.87487 1.20247
 N252 N 0.68039 0.83002 1.13668
 N253 N 0.67141 0.81730 1.13847
 C254 C 0.67407 0.80727 1.12643
 C255 C 0.68536 0.81394 1.11655
 C256 C 0.68907 0.82837 1.12348
 H257 H 0.66827 0.79590 1.12509
 H258 H 0.69754 0.83704 1.11929
 H259 H 0.67457 0.82860 1.16560
 H260 H 0.65803 0.83882 1.15514
 N261 N 0.13683 0.31948 1.16900
 N262 N 0.13730 0.33025 1.18018
 C263 C 0.12500 0.32791 1.19005
 C264 C 0.11633 0.31492 1.18482
 C265 C 0.12426 0.30992 1.17139
 H266 H 0.12262 0.33510 1.20030
 H267 H 0.12124 0.30004 1.16386
 Cu268 Cu 0.15399 0.34619 1.18037
 Cu269 Cu 0.15272 0.31837 1.15234
 Cu270 Cu 0.18478 0.34413 1.15560
 N271 N 0.17053 0.36230 1.18053
 N272 N 0.18258 0.36139 1.17075
 C273 C 0.19242 0.37372 1.17329
 C274 C 0.18618 0.38297 1.18531
 C275 C 0.17223 0.37531 1.18958
 H276 H 0.20332 0.37567 1.16684
 H277 H 0.16393 0.37892 1.19858
 N278 N 0.18254 0.32865 1.13830
 N279 N 0.17020 0.31908 1.13691
 C280 C 0.17196 0.31026 1.12383
 C281 C 0.18609 0.31444 1.11654
 C282 C 0.19245 0.32618 1.12609
 H283 H 0.16354 0.30144 1.11992
 H284 H 0.20349 0.33248 1.12435
 H285 H 0.17041 0.32704 1.16624
 H286 H 0.16063 0.34180 1.15300
 N287 N 0.13904 0.81744 0.67066
 N288 N 0.13902 0.82874 0.68129
 C289 C 0.12581 0.82746 0.69012
 C290 C 0.11706 0.81453 0.68482
 C291 C 0.12592 0.80850 0.67240
 H292 H 0.12303 0.83524 0.69985
 H293 H 0.12327 0.79822 0.66525
 Cu294 Cu 0.15678 0.84339 0.68329
 Cu295 Cu 0.15654 0.81468 0.65599
 Cu296 Cu 0.18104 0.84759 0.65204
 N297 N 0.17084 0.86154 0.68117
 N298 N 0.18003 0.86329 0.66880
 C299 C 0.18866 0.87663 0.67047
 C300 C 0.18471 0.88368 0.68469
 C301 C 0.17327 0.87373 0.69113
 H302 H 0.19733 0.88071 0.66199
 H303 H 0.16733 0.87503 0.70233
 N304 N 0.18042 0.83014 0.63658
 N305 N 0.17143 0.81744 0.63834
 C306 C 0.17406 0.80745 0.62626
 C307 C 0.18534 0.81414 0.61638
 C308 C 0.18908 0.82854 0.62335
 H309 H 0.16826 0.79608 0.62489
 H310 H 0.19754 0.83722 0.61918
 H311 H 0.17459 0.82868 0.66555
 H312 H 0.15809 0.83891 0.65503
 N313 N 0.36301 0.68154 0.66951
 N314 N 0.36295 0.67034 0.68028
 C315 C 0.37526 0.67267 0.69014
 C316 C 0.38354 0.68607 0.68530
 C317 C 0.37533 0.69136 0.67214
 H318 H 0.37800 0.66510 0.70003
 H319 H 0.37807 0.70157 0.66491
 Cu320 Cu 0.34687 0.65374 0.68025
 Cu321 Cu 0.34724 0.68248 0.65274
 Cu322 Cu 0.31813 0.65336 0.65280
 N323 N 0.33030 0.63761 0.68029
 N324 N 0.31909 0.63760 0.66954
 C325 C 0.30928 0.62526 0.67213
 C326 C 0.31459 0.61698 0.68524
 C327 C 0.32800 0.62525 0.69009
 H328 H 0.29908 0.62256 0.66491
 H329 H 0.33559 0.62245 0.69995
 N330 N 0.31917 0.67031 0.63684
 N331 N 0.33026 0.68138 0.63678
 C332 C 0.32781 0.69110 0.62442
 C333 C 0.31453 0.68593 0.61623
 C334 C 0.30939 0.67270 0.62453
 H335 H 0.33521 0.70120 0.62161
 H336 H 0.29928 0.66529 0.62183
 H337 H 0.32942 0.67121 0.66523
 H338 H 0.34211 0.65850 0.65233
 N339 N 0.36288 0.18115 1.16952
 N340 N 0.36275 0.17003 1.18037
 C341 C 0.37512 0.17232 1.19017
 C342 C 0.38349 0.18562 1.18520
 C343 C 0.37529 0.19088 1.17203
 H344 H 0.37783 0.16481 1.20013
 H345 H 0.37809 0.20100 1.16472
 Cu346 Cu 0.34648 0.15362 1.18045
 Cu347 Cu 0.34710 0.18214 1.15278
 Cu348 Cu 0.31803 0.15297 1.15272
 N349 N 0.33011 0.13732 1.18032
 N350 N 0.31902 0.13717 1.16945
 C351 C 0.30929 0.12476 1.17198
 C352 C 0.31451 0.11659 1.18519
 C353 C 0.32779 0.12497 1.19016
 H354 H 0.29918 0.12195 1.16467
 H355 H 0.33525 0.12231 1.20016
 N356 N 0.31908 0.16998 1.13681
 N357 N 0.33013 0.18108 1.13684
 C358 C 0.32772 0.19085 1.12451
 C359 C 0.31450 0.18568 1.11624
 C360 C 0.30935 0.17239 1.12446
 H361 H 0.33511 0.20096 1.12178
 H362 H 0.29929 0.16496 1.12167
 H363 H 0.32916 0.17090 1.16513
 H364 H 0.34204 0.15811 1.15247
 N365 N 0.86353 0.68086 1.16882
 N366 N 0.86306 0.67007 1.17999
 C367 C 0.87528 0.67246 1.18993
 C368 C 0.88394 0.68548 1.18473
 C369 C 0.87605 0.69047 1.17126
 H370 H 0.87763 0.66527 1.20020
 H371 H 0.87906 0.70039 1.16377
 Cu372 Cu 0.84658 0.65391 1.18013
 Cu373 Cu 0.84764 0.68198 1.15213
 Cu374 Cu 0.81564 0.65616 1.15546
 N375 N 0.82994 0.63789 1.18030
 N376 N 0.81787 0.63886 1.17055
 C377 C 0.80801 0.62655 1.17309
 C378 C 0.81422 0.61726 1.18511
 C379 C 0.82819 0.62488 1.18936
 H380 H 0.79708 0.62467 1.16670
 H381 H 0.83650 0.62124 1.19836
 N382 N 0.81780 0.67166 1.13818
 N383 N 0.83013 0.68123 1.13672
 C384 C 0.82826 0.69010 1.12366
 C385 C 0.81408 0.68592 1.11647
 C386 C 0.80781 0.67414 1.12605
 H387 H 0.83666 0.69894 1.11969
 H388 H 0.79675 0.66784 1.12440
 H389 H 0.83013 0.67315 1.16614
 H390 H 0.83987 0.65848 1.15275
 N391 N 0.86329 0.17991 0.66886
 N392 N 0.86168 0.17058 0.68115
 C393 C 0.87390 0.17302 0.69108
 C394 C 0.88372 0.18461 0.68470
 C395 C 0.87656 0.18864 0.67055
 H396 H 0.87533 0.16697 0.70221
 H397 H 0.88052 0.19742 0.66213
 Cu398 Cu 0.84369 0.15628 0.68315
 Cu399 Cu 0.84755 0.18093 0.65213
 Cu400 Cu 0.81472 0.15638 0.65604
 N401 N 0.82882 0.13871 0.68124
 N402 N 0.81744 0.13887 0.67068
 C403 C 0.80837 0.12584 0.67245
 C404 C 0.81440 0.11689 0.68482
 C405 C 0.82746 0.12549 0.69006
 H406 H 0.79801 0.12332 0.66538
 H407 H 0.83528 0.12258 0.69972
 N408 N 0.81744 0.17129 0.63841
 N409 N 0.83013 0.18030 0.63666
 C410 C 0.82852 0.18898 0.62345
 C411 C 0.81412 0.18524 0.61647
 C412 C 0.80744 0.17393 0.62633
 H413 H 0.83719 0.19746 0.61929
 H414 H 0.79607 0.16813 0.62495
 H415 H 0.82882 0.17430 0.66575
 H416 H 0.83899 0.15794 0.65495
 N417 N 0.31890 0.36252 0.66944
 N418 N 0.32964 0.36204 0.68064
 C419 C 0.32733 0.37438 0.69044
 C420 C 0.31440 0.38311 0.68514
 C421 C 0.30938 0.37514 0.67175
 H422 H 0.33457 0.37681 0.70065
 H423 H 0.29957 0.37824 0.66415
 Cu424 Cu 0.34571 0.34544 0.68132
 Cu425 Cu 0.31807 0.34686 0.65265
 Cu426 Cu 0.34712 0.31777 0.65270
 N427 N 0.36230 0.32935 0.68068
 N428 N 0.36278 0.31860 0.66950
 C429 C 0.37539 0.30907 0.67184
 C430 C 0.38336 0.31409 0.68524
 C431 C 0.37464 0.32704 0.69050
 H432 H 0.37849 0.29924 0.66427
 H433 H 0.37707 0.33429 0.70070
 N434 N 0.33025 0.31890 0.63667
 N435 N 0.31919 0.32999 0.63666
 C436 C 0.30945 0.32759 0.62432
 C437 C 0.31459 0.31432 0.61610
 C438 C 0.32784 0.30915 0.62435
 H439 H 0.29934 0.33499 0.62158
 H440 H 0.33521 0.29903 0.62163
 H441 H 0.32888 0.32862 0.66494
 H442 H 0.34214 0.34185 0.65310
 N443 N 0.31881 0.86297 0.16931
 N444 N 0.32956 0.86248 0.18049
 C445 C 0.32729 0.87484 0.19028
 C446 C 0.31436 0.88358 0.18499
 C447 C 0.30931 0.87561 0.17161
 H448 H 0.33455 0.87726 0.20048
 H449 H 0.29949 0.87872 0.16403
 Cu450 Cu 0.34560 0.84584 0.18121
 Cu451 Cu 0.31795 0.84729 0.15254
 Cu452 Cu 0.34699 0.81820 0.15256
 N453 N 0.36218 0.82974 0.18053
 N454 N 0.36264 0.81900 0.16934
 C455 C 0.37526 0.80948 0.17163
 C456 C 0.38325 0.81448 0.18502
 C457 C 0.37454 0.82742 0.19032
 H458 H 0.37836 0.79968 0.16403
 H459 H 0.37699 0.83465 0.20053
 N460 N 0.33013 0.81934 0.13655
 N461 N 0.31905 0.83041 0.13655
 C462 C 0.30934 0.82803 0.12418
 C463 C 0.31453 0.81480 0.11593
 C464 C 0.32777 0.80963 0.12419
 H465 H 0.29923 0.83542 0.12143
 H466 H 0.33519 0.79954 0.12145
 H467 H 0.32877 0.82904 0.16480
 H468 H 0.34203 0.84229 0.15297
 N469 N 0.81870 0.36295 0.16899
 N470 N 0.82993 0.36292 0.17973
 C471 C 0.82764 0.37528 0.18952
 C472 C 0.81424 0.38355 0.18467
 C473 C 0.80890 0.37529 0.17158
 H474 H 0.83523 0.37805 0.19938
 H475 H 0.79868 0.37800 0.16438
 Cu476 Cu 0.84648 0.34679 0.17970
 Cu477 Cu 0.81770 0.34714 0.15232
 Cu478 Cu 0.84679 0.31798 0.15235
 N479 N 0.86262 0.33024 0.17974
 N480 N 0.86262 0.31899 0.16904
 C481 C 0.87496 0.30919 0.17166
 C482 C 0.88324 0.31455 0.18474
 C483 C 0.87498 0.32797 0.18954
 H484 H 0.87765 0.29894 0.16450
 H485 H 0.87778 0.33558 0.19938
 N486 N 0.82976 0.31903 0.13644
 N487 N 0.81871 0.33014 0.13643
 C488 C 0.80898 0.32778 0.12408
 C489 C 0.81410 0.31452 0.11585
 C490 C 0.82733 0.30931 0.12410
 H491 H 0.79893 0.33524 0.12130
 H492 H 0.83473 0.29921 0.12134
 H493 H 0.82904 0.32935 0.16475
 H494 H 0.84174 0.34201 0.15179
 N495 N 0.81737 0.86134 0.67068
 N496 N 0.82874 0.86145 0.68125
 C497 C 0.82742 0.87466 0.69006
 C498 C 0.81439 0.88331 0.68481
 C499 C 0.80834 0.87440 0.67245
 H500 H 0.83525 0.87752 0.69973
 H501 H 0.79799 0.87696 0.66536
 Cu502 Cu 0.84354 0.84379 0.68320
 Cu503 Cu 0.81463 0.84383 0.65605
 Cu504 Cu 0.84752 0.81932 0.65212
 N505 N 0.86163 0.82964 0.68114
 N506 N 0.86327 0.82036 0.66884
 C507 C 0.87657 0.81166 0.67052
 C508 C 0.88371 0.81566 0.68469
 C509 C 0.87385 0.82721 0.69107
 H510 H 0.88056 0.80292 0.66210
 H511 H 0.87525 0.83322 0.70221
 N512 N 0.83005 0.81993 0.63668
 N513 N 0.81735 0.82893 0.63842
 C514 C 0.80736 0.82632 0.62633
 C515 C 0.81405 0.81503 0.61646
 C516 C 0.82845 0.81128 0.62345
 H517 H 0.79601 0.83214 0.62494
 H518 H 0.83714 0.80283 0.61928
 H519 H 0.82870 0.82586 0.66569
 H520 H 0.83886 0.84229 0.65498
 N521 N 0.68110 0.63714 0.66943
 N522 N 0.67005 0.63730 0.68034
 C523 C 0.67236 0.62491 0.69011
 C524 C 0.68560 0.61649 0.68508
 C525 C 0.69080 0.62469 0.67188
 H526 H 0.66491 0.62224 0.70012
 H527 H 0.70088 0.62186 0.66453
 Cu528 Cu 0.65362 0.65358 0.68057
 Cu529 Cu 0.68208 0.65301 0.65278
 Cu530 Cu 0.65297 0.68208 0.65281
 N531 N 0.63737 0.67004 0.68042
 N532 N 0.63717 0.68109 0.66949
 C533 C 0.62474 0.69081 0.67198
 C534 C 0.61660 0.68562 0.68522
 C535 C 0.62503 0.67238 0.69025
 H536 H 0.62188 0.70088 0.66463
 H537 H 0.62241 0.66494 0.70028
 N538 N 0.66997 0.68110 0.63691
 N539 N 0.68108 0.67006 0.63691
 C540 C 0.69086 0.67255 0.62461
 C541 C 0.68569 0.68582 0.61640
 C542 C 0.67239 0.69091 0.62461
 H543 H 0.70098 0.66518 0.62186
 H544 H 0.66497 0.70099 0.62187
 H545 H 0.67088 0.67089 0.66523
 H546 H 0.65804 0.65804 0.65259
 N547 N 0.68156 0.13685 0.16946
 N548 N 0.67033 0.13686 0.18019
 C549 C 0.67263 0.12450 0.19001
 C550 C 0.68604 0.11623 0.18518
 C551 C 0.69138 0.12451 0.17207
 H552 H 0.66504 0.12171 0.19987
 H553 H 0.70160 0.12181 0.16487
 Cu554 Cu 0.65375 0.15298 0.18016
 Cu555 Cu 0.68253 0.15267 0.15273
 Cu556 Cu 0.65336 0.18174 0.15274
 N557 N 0.63758 0.16952 0.18019
 N558 N 0.63756 0.18074 0.16944
 C559 C 0.62524 0.19057 0.17205
 C560 C 0.61699 0.18526 0.18517
 C561 C 0.62524 0.17184 0.19002
 H562 H 0.62256 0.20080 0.16485
 H563 H 0.62247 0.16427 0.19991
 N564 N 0.67034 0.18074 0.13682
 N565 N 0.68145 0.16969 0.13680
 C566 C 0.69115 0.17213 0.12443
 C567 C 0.68593 0.18538 0.11620
 C568 C 0.67269 0.19049 0.12447
 H569 H 0.70123 0.16473 0.12162
 H570 H 0.66522 0.20055 0.12172
 H571 H 0.67120 0.17042 0.16517
 H572 H 0.65853 0.15772 0.15226
 N573 N 0.18096 0.63742 0.16930
 N574 N 0.16972 0.63739 0.18002
 C575 C 0.17202 0.62500 0.18980
 C576 C 0.18545 0.61677 0.18496
 C577 C 0.19078 0.62509 0.17188
 H578 H 0.16442 0.62218 0.19966
 H579 H 0.20102 0.62243 0.16469
 Cu580 Cu 0.15316 0.65354 0.18002
 Cu581 Cu 0.18194 0.65327 0.15264
 Cu582 Cu 0.15278 0.68236 0.15261
 N583 N 0.13702 0.67010 0.18007
 N584 N 0.13697 0.68134 0.16933
 C585 C 0.12466 0.69117 0.17199
 C586 C 0.11644 0.68585 0.18513
 C587 C 0.12471 0.67242 0.18993
 H588 H 0.12196 0.70142 0.16481
 H589 H 0.12196 0.66484 0.19983
 N590 N 0.16980 0.68134 0.13670
 N591 N 0.18091 0.67029 0.13674
 C592 C 0.19067 0.67271 0.12441
 C593 C 0.18550 0.68594 0.11614
 C594 C 0.17221 0.69108 0.12434
 H595 H 0.20076 0.66529 0.12167
 H596 H 0.16477 0.70114 0.12154
 H597 H 0.17056 0.67107 0.16506
 H598 H 0.15790 0.65836 0.15213
 N599 N 0.18044 0.13623 0.66912
 N600 N 0.16970 0.13671 0.68033
 C601 C 0.17212 0.12447 0.69025
 C602 C 0.18512 0.11581 0.68500
 C603 C 0.19006 0.12371 0.67154
 H604 H 0.16494 0.12209 0.70052
 H605 H 0.20004 0.12078 0.66410
 Cu606 Cu 0.15349 0.15315 0.68044
 Cu607 Cu 0.18157 0.15210 0.65244
 Cu608 Cu 0.15586 0.18419 0.65580
 N609 N 0.13754 0.16985 0.68061
 N610 N 0.13852 0.18192 0.67085
 C611 C 0.12622 0.19180 0.67339
 C612 C 0.11691 0.18557 0.68537
 C613 C 0.12452 0.17160 0.68964
 H614 H 0.12442 0.20281 0.66710
 H615 H 0.12083 0.16326 0.69859
 N616 N 0.17136 0.18198 0.63851
 N617 N 0.18086 0.16960 0.63706
 C618 C 0.18972 0.17139 0.62400
 C619 C 0.18563 0.18559 0.61679
 C620 C 0.17390 0.19195 0.62636
 H621 H 0.19847 0.16291 0.62003
 H622 H 0.16767 0.20305 0.62469
 H623 H 0.17284 0.16965 0.66651
 H624 H 0.15812 0.16000 0.65311
 N625 N 0.31881 0.63727 0.33053
 N626 N 0.33002 0.63732 0.31979
 C627 C 0.32774 0.62498 0.30997
 C628 C 0.31435 0.61668 0.31481
 C629 C 0.30902 0.62492 0.32793
 H630 H 0.33532 0.62224 0.30009
 H631 H 0.29881 0.62218 0.33514
 Cu632 Cu 0.34656 0.65347 0.31982
 Cu633 Cu 0.31778 0.65306 0.34724
 Cu634 Cu 0.34692 0.68217 0.34727
 N635 N 0.36271 0.67000 0.31980
 N636 N 0.36277 0.68118 0.33057
 C637 C 0.37511 0.69098 0.32796
 C638 C 0.38335 0.68570 0.31482
 C639 C 0.37506 0.67231 0.30997
 H640 H 0.37784 0.70118 0.33517
 H641 H 0.37779 0.66476 0.30007
 N642 N 0.32988 0.68113 0.36317
 N643 N 0.31879 0.67006 0.36315
 C644 C 0.30902 0.67245 0.37547
 C645 C 0.31416 0.68570 0.38372
 C646 C 0.32744 0.69086 0.37551
 H647 H 0.29893 0.66503 0.37822
 H648 H 0.33487 0.70092 0.37831
 H649 H 0.32911 0.67086 0.33485
 H650 H 0.34180 0.65814 0.34775
 N651 N 0.31880 0.13694 0.83079
 N652 N 0.32988 0.13712 0.81990
 C653 C 0.32762 0.12472 0.81014
 C654 C 0.31440 0.11628 0.81516
 C655 C 0.30914 0.12446 0.82833
 H656 H 0.33510 0.12206 0.80015
 H657 H 0.29906 0.12162 0.83567
 Cu658 Cu 0.34623 0.15344 0.81976
 Cu659 Cu 0.31773 0.15277 0.84745
 Cu660 Cu 0.34679 0.18195 0.84739
 N661 N 0.36248 0.16988 0.81984
 N662 N 0.36261 0.18096 0.83071
 C663 C 0.37504 0.19067 0.82825
 C664 C 0.38326 0.18545 0.81509
 C665 C 0.37487 0.17219 0.81007
 H666 H 0.37785 0.20075 0.83560
 H667 H 0.37758 0.16472 0.80010
 N668 N 0.32978 0.18092 0.86326
 N669 N 0.31872 0.16983 0.86330
 C670 C 0.30897 0.17226 0.87563
 C671 C 0.31413 0.18553 0.88383
 C672 C 0.32737 0.19069 0.87557
 H673 H 0.29890 0.16483 0.87843
 H674 H 0.33478 0.20078 0.87829
 H675 H 0.32888 0.17069 0.83502
 H676 H 0.34175 0.15790 0.84771
 N677 N 0.81900 0.63737 0.83069
 N678 N 0.83019 0.63742 0.81992
 C679 C 0.82788 0.62508 0.81011
 C680 C 0.81449 0.61681 0.81498
 C681 C 0.80919 0.62504 0.82811
 H682 H 0.83544 0.62233 0.80021
 H683 H 0.79899 0.62231 0.83533
 Cu684 Cu 0.84673 0.65357 0.81994
 Cu685 Cu 0.81801 0.65312 0.84741
 Cu686 Cu 0.84709 0.68228 0.84739
 N687 N 0.86285 0.67012 0.81990
 N688 N 0.86289 0.68133 0.83065
 C689 C 0.87522 0.69114 0.82802
 C690 C 0.88347 0.68583 0.81489
 C691 C 0.87519 0.67243 0.81007
 H692 H 0.87793 0.70136 0.83521
 H693 H 0.87795 0.66486 0.80019
 N694 N 0.83008 0.68119 0.86333
 N695 N 0.81904 0.67008 0.86333
 C696 C 0.80928 0.67243 0.87567
 C697 C 0.81438 0.68569 0.88391
 C698 C 0.82763 0.69091 0.87568
 H699 H 0.79922 0.66498 0.87842
 H700 H 0.83501 0.70102 0.87845
 H701 H 0.82927 0.67096 0.83497
 H702 H 0.84200 0.65826 0.84785
 N703 N 0.81872 0.13712 0.33052
 N704 N 0.82996 0.13712 0.31981
 C705 C 0.82771 0.12473 0.31005
 C706 C 0.81430 0.11646 0.31489
 C707 C 0.80894 0.12476 0.32796
 H708 H 0.83533 0.12192 0.30021
 H709 H 0.79871 0.12206 0.33516
 Cu710 Cu 0.84649 0.15328 0.31981
 Cu711 Cu 0.81771 0.15291 0.34722
 Cu712 Cu 0.84677 0.18208 0.34717
 N713 N 0.86257 0.16987 0.31975
 N714 N 0.86255 0.18112 0.33045
 C715 C 0.87487 0.19094 0.32784
 C716 C 0.88317 0.18560 0.31477
 C717 C 0.87495 0.17217 0.30996
 H718 H 0.87754 0.20119 0.33502
 H719 H 0.87778 0.16455 0.30013
 N720 N 0.82979 0.18099 0.36310
 N721 N 0.81873 0.16990 0.36311
 C722 C 0.80903 0.17225 0.37549
 C723 C 0.81420 0.18548 0.38374
 C724 C 0.82741 0.19069 0.37547
 H725 H 0.79898 0.16479 0.37829
 H726 H 0.83483 0.20077 0.37823
 H727 H 0.82899 0.17073 0.33475
 H728 H 0.84170 0.15808 0.34770
 N729 N 0.68145 0.36280 0.33050
 N730 N 0.67073 0.36229 0.31930
 C731 C 0.67302 0.37464 0.30947
 C732 C 0.68592 0.38340 0.31477
 C733 C 0.69094 0.37544 0.32818
 H734 H 0.66578 0.37705 0.29925
 H735 H 0.70073 0.37858 0.33579
 Cu736 Cu 0.65467 0.34567 0.31862
 Cu737 Cu 0.68228 0.34712 0.34733
 Cu738 Cu 0.65326 0.31801 0.34729
 N739 N 0.63811 0.32956 0.31927
 N740 N 0.63763 0.31881 0.33047
 C741 C 0.62501 0.30930 0.32817
 C742 C 0.61703 0.31432 0.31478
 C743 C 0.62575 0.32725 0.30947
 H744 H 0.62191 0.29949 0.33578
 H745 H 0.62331 0.33451 0.29926
 N746 N 0.67009 0.31914 0.36333
 N747 N 0.68115 0.33023 0.36336
 C748 C 0.69086 0.32782 0.37572
 C749 C 0.68569 0.31454 0.38394
 C750 C 0.67247 0.30939 0.37567
 H751 H 0.70096 0.33522 0.37849
 H752 H 0.66509 0.29926 0.37837
 H753 H 0.67152 0.32887 0.33506
 H754 H 0.65822 0.34209 0.34686
 N755 N 0.68009 0.86360 0.83112
 N756 N 0.67078 0.86192 0.81884
 C757 C 0.67318 0.87412 0.80886
 C758 C 0.68473 0.88400 0.81519
 C759 C 0.68877 0.87690 0.82938
 H760 H 0.66713 0.87548 0.79772
 H761 H 0.69751 0.88093 0.83778
 Cu762 Cu 0.65663 0.84383 0.81683
 Cu763 Cu 0.68112 0.84785 0.84790
 Cu764 Cu 0.65653 0.81498 0.84402
 N765 N 0.63893 0.82911 0.81880
 N766 N 0.63901 0.81775 0.82939
 C767 C 0.62594 0.80874 0.82762
 C768 C 0.61705 0.81478 0.81522
 C769 C 0.62572 0.82780 0.80996
 H770 H 0.62337 0.79839 0.83472
 H771 H 0.62289 0.83561 0.80027
 N772 N 0.67146 0.81768 0.86163
 N773 N 0.68049 0.83036 0.86337
 C774 C 0.68916 0.82870 0.87659
 C775 C 0.68539 0.81429 0.88356
 C776 C 0.67408 0.80766 0.87371
 H777 H 0.69765 0.83735 0.88076
 H778 H 0.66823 0.79631 0.87508
 H779 H 0.67455 0.82900 0.83440
 H780 H 0.65814 0.83921 0.84507
 N781 N 0.18098 0.36276 0.83036
 N782 N 0.17020 0.36234 0.81921
 C783 C 0.17246 0.37475 0.80945
 C784 C 0.18541 0.38343 0.81473
 C785 C 0.19049 0.37539 0.82807
 H786 H 0.16519 0.37723 0.79927
 H787 H 0.20034 0.37844 0.83562
 Cu788 Cu 0.15416 0.34571 0.81847
 Cu789 Cu 0.18186 0.34704 0.84710
 Cu790 Cu 0.15280 0.31798 0.84714
 N791 N 0.13756 0.32964 0.81921
 N792 N 0.13710 0.31887 0.83038
 C793 C 0.12446 0.30937 0.82808
 C794 C 0.11646 0.31444 0.81472
 C795 C 0.12518 0.32738 0.80943
 H796 H 0.12139 0.29952 0.83564
 H797 H 0.12273 0.33466 0.79924
 N798 N 0.16970 0.31907 0.86311
 N799 N 0.18079 0.33013 0.86308
 C800 C 0.19049 0.32777 0.87546
 C801 C 0.18530 0.31457 0.88376
 C802 C 0.17206 0.30938 0.87552
 H803 H 0.20058 0.33520 0.87820
 H804 H 0.16463 0.29931 0.87831
 H805 H 0.17096 0.32884 0.83484
 H806 H 0.15773 0.34208 0.84671
 N807 N 0.17971 0.86330 0.33113
 N808 N 0.17059 0.86156 0.31871
 C809 C 0.17300 0.87383 0.30882
 C810 C 0.18435 0.88382 0.31536
 C811 C 0.18827 0.87670 0.32957
 H812 H 0.16712 0.87516 0.29760
 H813 H 0.19689 0.88076 0.33807
 Cu814 Cu 0.15672 0.84330 0.31638
 Cu815 Cu 0.18081 0.84750 0.34779
 Cu816 Cu 0.15644 0.81458 0.34382
 N817 N 0.13891 0.82870 0.31855
 N818 N 0.13892 0.81741 0.32922
 C819 C 0.12576 0.80852 0.32757
 C820 C 0.11686 0.81457 0.31518
 C821 C 0.12565 0.82746 0.30979
 H822 H 0.12312 0.79824 0.33474
 H823 H 0.12286 0.83523 0.30005
 N824 N 0.17133 0.81727 0.36144
 N825 N 0.18030 0.82999 0.36319
 C826 C 0.18894 0.82840 0.37643
 C827 C 0.18520 0.81399 0.38343
 C828 C 0.17394 0.80729 0.37355
 H829 H 0.19736 0.83711 0.38061
 H830 H 0.16809 0.79594 0.37495
 H831 H 0.17443 0.82868 0.33427
 H832 H 0.15786 0.83888 0.34471
 O833 O 0.22978 0.98443 0.25195
 O834 O 0.25140 1.01565 0.23047
 O835 O 0.25144 0.98459 0.23032
 O836 O 0.22977 1.01552 0.25213
 O837 O 0.24838 1.01543 0.27040
 O838 O 0.27007 0.98450 0.24857
 O839 O 0.27002 1.01559 0.24873
 O840 O 0.24840 0.98434 0.27021
 Cu841 Cu 0.23873 1.00006 0.23939
 Cu842 Cu 0.26108 0.99995 0.26131
 C843 C 0.23550 0.97886 0.26464
 C844 C 0.26429 1.02113 0.23603
 C845 C 0.26436 0.97908 0.23582
 C846 C 0.23548 1.02094 0.26488
 O847 O 0.25175 0.51558 0.72987
 O848 O 0.23000 0.48451 0.75143
 O849 O 0.23008 0.51560 0.75150
 O850 O 0.25171 0.48452 0.72987
 O851 O 0.27031 0.48446 0.74815
 O852 O 0.24867 0.51553 0.76979
 O853 O 0.24860 0.48446 0.76972
 O854 O 0.27033 0.51554 0.74816
 Cu855 Cu 0.23902 0.50006 0.73883
 Cu856 Cu 0.26134 0.49999 0.76079
 C857 C 0.26464 0.52105 0.73543
 C858 C 0.23570 0.47899 0.76416
 C859 C 0.23579 0.52106 0.76424
 C860 C 0.26459 0.47899 0.73542
 O861 O 0.75171 -0.01605 0.27043
 O862 O 0.73006 0.01492 0.24858
 O863 O 0.73005 -0.01618 0.24872
 O864 O 0.75163 0.01500 0.27029
 O865 O 0.77026 0.01498 0.25204
 O866 O 0.74872 -0.01624 0.23051
 O867 O 0.74870 0.01485 0.23034
 O868 O 0.77039 -0.01607 0.25222
 Cu869 Cu 0.73899 -0.00059 0.26133
 Cu870 Cu 0.76138 -0.00064 0.23945
 C871 C 0.76467 -0.02150 0.26498
 C872 C 0.73580 0.02038 0.23584
 C873 C 0.73579 -0.02170 0.23602
 C874 C 0.76452 0.02051 0.26474
 O875 O 0.75168 0.48447 0.77042
 O876 O 0.73004 0.51550 0.74867
 O877 O 0.73007 0.48438 0.74872
 O878 O 0.75166 0.51550 0.77032
 O879 O 0.77030 0.51550 0.75207
 O880 O 0.74873 0.48436 0.73050
 O881 O 0.74868 0.51546 0.73043
 O882 O 0.77036 0.48447 0.75222
 Cu883 Cu 0.73898 0.49995 0.76136
 Cu884 Cu 0.76138 0.49993 0.73946
 C885 C 0.76462 0.47901 0.76496
 C886 C 0.73579 0.52098 0.73595
 C887 C 0.73582 0.47886 0.73603
 C888 C 0.76457 0.52099 0.76478
 O889 O 0.27027 0.51551 0.25154
 O890 O 0.24860 0.48457 0.22977
 O891 O 0.24862 0.51562 0.22989
 O892 O 0.27018 0.48442 0.25151
 O893 O 0.25154 0.48442 0.26975
 O894 O 0.22998 0.51559 0.24814
 O895 O 0.22997 0.48453 0.24802
 O896 O 0.25162 0.51548 0.26978
 Cu897 Cu 0.26129 0.50003 0.23885
 Cu898 Cu 0.23891 0.50000 0.26075
 C899 C 0.26453 0.52097 0.26426
 C900 C 0.23568 0.47909 0.23527
 C901 C 0.23571 0.52111 0.23543
 C902 C 0.26443 0.47891 0.26422
 O903 O 0.74841 1.01563 0.76945
 O904 O 0.77000 0.98455 0.74776
 O905 O 0.77002 1.01558 0.74773
 O906 O 0.74836 0.98455 0.76948
 O907 O 0.72971 0.98457 0.75126
 O908 O 0.75138 1.01560 0.72949
 O909 O 0.75136 0.98457 0.72952
 O910 O 0.72977 1.01569 0.75121
 Cu911 Cu 0.76106 1.00007 0.76044
 Cu912 Cu 0.73868 1.00010 0.73855
 C913 C 0.73552 1.02116 0.76393
 C914 C 0.76430 0.97910 0.73501
 C915 C 0.76432 1.02104 0.73498
 C916 C 0.73543 0.97908 0.76399
 O917 O 0.74868 0.51586 0.26963
 O918 O 0.77004 0.48464 0.24798
 O919 O 0.77018 0.51570 0.24787
 O920 O 0.74847 0.48480 0.26969
 O921 O 0.72977 0.48484 0.25151
 O922 O 0.75149 0.51577 0.22968
 O923 O 0.75135 0.48470 0.22978
 O924 O 0.72998 0.51594 0.25146
 Cu925 Cu 0.76122 0.50024 0.26062
 Cu926 Cu 0.73877 0.50032 0.23878
 C927 C 0.73579 0.52142 0.26414
 C928 C 0.76425 0.47916 0.23529
 C929 C 0.76444 0.52121 0.23515
 C930 C 0.73553 0.47935 0.26423
 O931 O 0.25185 -0.01605 0.77011
 O932 O 0.23009 0.01501 0.74851
 O933 O 0.23010 -0.01607 0.74851
 O934 O 0.25168 0.01501 0.77017
 O935 O 0.27027 0.01511 0.75188
 O936 O 0.24869 -0.01601 0.73022
 O937 O 0.24868 0.01506 0.73022
 O938 O 0.27044 -0.01597 0.75182
 Cu939 Cu 0.23906 -0.00055 0.76116
 Cu940 Cu 0.26139 -0.00046 0.73920
 C941 C 0.26477 -0.02148 0.76456
 C942 C 0.23578 0.02053 0.73578
 C943 C 0.23579 -0.02152 0.73576
 C944 C 0.26454 0.02057 0.76461
 O945 O 0.24843 0.27032 0.98450
 O946 O 0.27016 0.24870 1.01543
 O947 O 0.27015 0.24855 0.98462
 O948 O 0.24845 0.27047 1.01532
 O949 O 0.22991 0.25196 1.01541
 O950 O 0.25160 0.23005 0.98471
 O951 O 0.25161 0.23020 1.01551
 O952 O 0.22988 0.25182 0.98460
 Cu953 Cu 0.26116 0.26137 0.99995
 Cu954 Cu 0.23889 0.23915 1.00007
 C955 C 0.23557 0.26464 0.97907
 C956 C 0.26447 0.23587 1.02095
 C957 C 0.26447 0.23567 0.97923
 C958 C 0.23560 0.26483 1.02082
 O959 O 0.25112 0.72980 0.48458
 O960 O 0.22934 0.75151 0.51539
 O961 O 0.22929 0.75147 0.48457
 O962 O 0.25116 0.72986 0.51543
 O963 O 0.26962 0.74845 0.51535
 O964 O 0.24776 0.77005 0.48452
 O965 O 0.24781 0.77009 0.51532
 O966 O 0.26958 0.74839 0.48453
 Cu967 Cu 0.23838 0.73879 0.50000
 Cu968 Cu 0.26055 0.76111 0.49992
 C969 C 0.26394 0.73552 0.47908
 C970 C 0.23498 0.76439 0.52082
 C971 C 0.23491 0.76435 0.47908
 C972 C 0.26400 0.73560 0.52088
 O973 O 0.27034 0.75170 -0.01555
 O974 O 0.24853 0.73001 0.01526
 O975 O 0.24860 0.73002 -0.01557
 O976 O 0.27026 0.75175 0.01527
 O977 O 0.25175 0.77029 0.01520
 O978 O 0.23009 0.74856 -0.01563
 O979 O 0.23002 0.74856 0.01520
 O980 O 0.25183 0.77024 -0.01561
 Cu981 Cu 0.26129 0.73900 -0.00013
 Cu982 Cu 0.23906 0.76127 -0.00021
 C983 C 0.26468 0.76454 -0.02105
 C984 C 0.23568 0.73571 0.02070
 C985 C 0.23578 0.73571 -0.02108
 C986 C 0.26458 0.76461 0.02070
 O987 O 0.26989 0.25125 0.48481
 O988 O 0.24807 0.22949 0.51558
 O989 O 0.24821 0.22948 0.48478
 O990 O 0.26986 0.25118 0.51565
 O991 O 0.25133 0.26971 0.51562
 O992 O 0.22969 0.24802 0.48473
 O993 O 0.22954 0.24802 0.51554
 O994 O 0.25137 0.26978 0.48478
 Cu995 Cu 0.26087 0.23850 0.50022
 Cu996 Cu 0.23863 0.26075 0.50017
 C997 C 0.26422 0.26409 0.47931
 C998 C 0.23519 0.23515 0.52101
 C999 C 0.23538 0.23517 0.47928
 C1000 C 0.26418 0.26403 0.52112
 O1001 O 0.75098 0.72969 0.98458
 O1002 O 0.72914 0.75131 1.01543
 O1003 O 0.72920 0.75138 0.98460
 O1004 O 0.75097 0.72962 1.01543
 O1005 O 0.76944 0.74820 1.01543
 O1006 O 0.74770 0.76993 0.98463
 O1007 O 0.74764 0.76987 1.01543
 O1008 O 0.76946 0.74826 0.98462
 Cu1009 Cu 0.73822 0.73863 1.00001
 Cu1010 Cu 0.76041 0.76092 1.00004
 C1011 C 0.76382 0.73541 0.97912
 C1012 C 0.73479 0.76417 1.02089
 C1013 C 0.73486 0.76425 0.97914
 C1014 C 0.76381 0.73532 1.02090
 O1015 O 0.72983 0.25131 0.51556
 O1016 O 0.75148 0.22958 0.48470
 O1017 O 0.75153 0.22951 0.51551
 O1018 O 0.72983 0.25136 0.48474
 O1019 O 0.74841 0.26984 0.48474
 O1020 O 0.77010 0.24799 0.51551
 O1021 O 0.77005 0.24806 0.48472
 O1022 O 0.74840 0.26978 0.51555
 Cu1023 Cu 0.73880 0.23859 0.50013
 Cu1024 Cu 0.76110 0.26077 0.50014
 C1025 C 0.73553 0.26414 0.52102
 C1026 C 0.76434 0.23524 0.47923
 C1027 C 0.76441 0.23513 0.52096
 C1028 C 0.73555 0.26420 0.47926
 O1029 O 0.76968 0.25190 -0.01577
 O1030 O 0.74808 0.23003 0.01505
 O1031 O 0.74805 0.23007 -0.01576
 O1032 O 0.76966 0.25188 0.01504
 O1033 O 0.75106 0.27033 0.01507
 O1034 O 0.72942 0.24850 -0.01577
 O1035 O 0.72946 0.24847 0.01507
 O1036 O 0.75108 0.27035 -0.01577
 Cu1037 Cu 0.76073 0.23912 -0.00037
 Cu1038 Cu 0.73838 0.26126 -0.00036
 C1039 C 0.76397 0.26474 -0.02123
 C1040 C 0.73521 0.23565 0.02055
 C1041 C 0.73516 0.23568 -0.02123
 C1042 C 0.76393 0.26469 0.02053
 O1043 O 0.77003 0.75241 0.48473
 O1044 O 0.74842 0.73060 0.51561
 O1045 O 0.74836 0.73060 0.48480
 O1046 O 0.77004 0.75247 0.51553
 O1047 O 0.75144 0.77092 0.51552
 O1048 O 0.72975 0.74905 0.48479
 O1049 O 0.72982 0.74905 0.51561
 O1050 O 0.75143 0.77087 0.48471
 Cu1051 Cu 0.76107 0.73967 0.50017
 Cu1052 Cu 0.73874 0.76182 0.50016
 C1053 C 0.76431 0.76524 0.47925
 C1054 C 0.73554 0.73622 0.52108
 C1055 C 0.73547 0.73621 0.47934
 C1056 C 0.76433 0.76531 0.52097
 O1057 O 1.01541 0.27022 0.24823
 O1058 O 0.98436 0.24854 0.26985
 O1059 O 1.01540 0.24855 0.26984
 O1060 O 0.98431 0.27020 0.24821
 O1061 O 0.98436 0.25161 0.22994
 O1062 O 1.01543 0.22995 0.25157
 O1063 O 0.98436 0.22995 0.25158
 O1064 O 1.01543 0.25162 0.22996
 Cu1065 Cu 0.99987 0.26125 0.26086
 Cu1066 Cu 0.99989 0.23892 0.23892
 C1067 C 1.02093 0.26451 0.23552
 C1068 C 0.97887 0.23565 0.26430
 C1069 C 1.02091 0.23566 0.26430
 C1070 C 0.97884 0.26449 0.23548
 O1071 O 0.48451 0.24841 0.77025
 O1072 O 0.51571 0.26991 0.74868
 O1073 O 0.48463 0.26998 0.74853
 O1074 O 0.51559 0.24821 0.77029
 O1075 O 0.51557 0.22960 0.75204
 O1076 O 0.48464 0.25135 0.73029
 O1077 O 0.51569 0.25130 0.73043
 O1078 O 0.48449 0.22978 0.75201
 Cu1079 Cu 0.50011 0.26100 0.76127
 Cu1080 Cu 0.50010 0.23864 0.73936
 C1081 C 0.47898 0.23553 0.76471
 C1082 C 0.52121 0.26418 0.73597
 C1083 C 0.47916 0.26427 0.73580
 C1084 C 0.52106 0.23530 0.76477
 O1085 O 0.01540 0.25156 0.76956
 O1086 O -0.01565 0.22989 0.74798
 O1087 O 0.01542 0.22989 0.74798
 O1088 O -0.01564 0.25160 0.76957
 O1089 O -0.01564 0.27019 0.75127
 O1090 O 0.01542 0.24846 0.72965
 O1091 O -0.01565 0.24847 0.72966
 O1092 O 0.01545 0.27015 0.75124
 Cu1093 Cu -0.00012 0.23887 0.76061
 Cu1094 Cu -0.00011 0.26118 0.73862
 C1095 C 0.02092 0.26444 0.76399
 C1096 C -0.02113 0.23556 0.73522
 C1097 C 0.02090 0.23556 0.73523
 C1098 C -0.02112 0.26450 0.76401
 O1099 O 0.48477 0.22979 0.24831
 O1100 O 0.51576 0.25150 0.27000
 O1101 O 0.48471 0.25139 0.26998
 O1102 O 0.51587 0.22980 0.24841
 O1103 O 0.51587 0.24842 0.23013
 O1104 O 0.48469 0.27001 0.25171
 O1105 O 0.51577 0.27012 0.25172
 O1106 O 0.48479 0.24841 0.23003
 Cu1107 Cu 0.50028 0.23875 0.26101
 Cu1108 Cu 0.50029 0.26110 0.23906
 C1109 C 0.47930 0.23551 0.23557
 C1110 C 0.52122 0.26442 0.26448
 C1111 C 0.47920 0.26427 0.26443
 C1112 C 0.52138 0.23552 0.23569
 O1113 O 1.01562 0.73016 0.75120
 O1114 O 0.98444 0.75180 0.72964
 O1115 O 1.01550 0.75185 0.72951
 O1116 O 0.98453 0.73014 0.75132
 O1117 O 0.98459 0.74875 0.76957
 O1118 O 1.01557 0.77044 0.74778
 O1119 O 0.98450 0.77041 0.74790
 O1120 O 1.01565 0.74877 0.76946
 Cu1121 Cu 1.00002 0.73912 0.73859
 Cu1122 Cu 1.00008 0.76146 0.76051
 C1123 C 1.02113 0.73587 0.76392
 C1124 C 0.97897 0.76470 0.73519
 C1125 C 1.02099 0.76476 0.73501
 C1126 C 0.97908 0.73585 0.76407
 O1127 O 0.48458 0.75159 0.22979
 O1128 O 0.51574 0.73007 0.25147
 O1129 O 0.48462 0.72992 0.25145
 O1130 O 0.51562 0.75162 0.22968
 O1131 O 0.51561 0.77026 0.24790
 O1132 O 0.48459 0.74858 0.26966
 O1133 O 0.51569 0.74872 0.26969
 O1134 O 0.48456 0.77024 0.24801
 Cu1135 Cu 0.50015 0.73892 0.23878
 Cu1136 Cu 0.50011 0.76131 0.26065
 C1137 C 0.47908 0.76450 0.23530
 C1138 C 0.52123 0.73583 0.26418
 C1139 C 0.47910 0.73566 0.26415
 C1140 C 0.52107 0.76456 0.23516
 O1141 O -0.01567 0.77046 0.25212
 O1142 O 0.01555 0.74890 0.23061
 O1143 O -0.01551 0.74883 0.23049
 O1144 O 0.01541 0.77057 0.25225
 O1145 O 0.01536 0.75196 0.27054
 O1146 O -0.01553 0.73019 0.24875
 O1147 O 0.01556 0.73029 0.24889
 O1148 O -0.01573 0.75183 0.27039
 Cu1149 Cu -0.00005 0.76156 0.23954
 Cu1150 Cu -0.00008 0.73920 0.26147
 C1151 C -0.02122 0.76472 0.26482
 C1152 C 0.02106 0.73601 0.23616
 C1153 C -0.02098 0.73590 0.23600
 C1154 C 0.02084 0.76487 0.26502
 O1155 O 0.51582 0.74885 0.73068
 O1156 O 0.48464 0.77043 0.75218
 O1157 O 0.51570 0.77051 0.75230
 O1158 O 0.48475 0.74881 0.73054
 O1159 O 0.48469 0.73018 0.74880
 O1160 O 0.51567 0.75189 0.77057
 O1161 O 0.48461 0.75182 0.77046
 O1162 O 0.51581 0.73021 0.74894
 Cu1163 Cu 0.50023 0.76151 0.73959
 Cu1164 Cu 0.50020 0.73915 0.76153
 C1165 C 0.52132 0.73595 0.73623
 C1166 C 0.47913 0.76472 0.76490
 C1167 C 0.52114 0.76482 0.76506
 C1168 C 0.47924 0.73591 0.73606
 C1169 C 0.42514 0.29362 0.29409
 C1170 C 0.41820 0.30708 0.28717
 C1171 C 0.40456 0.31371 0.29400
 C1172 C 0.39781 0.30699 0.30768
 C1173 C 0.40503 0.29348 0.31445
 C1174 C 0.41866 0.28675 0.30770
 C1175 C 0.43939 0.28649 0.28685
 C1176 C 0.44620 0.27290 0.29366
 C1177 C 0.45948 0.26591 0.28650
 C1178 C 0.46592 0.27238 0.27257
 C1179 C 0.45906 0.28618 0.26606
 C1180 C 0.44577 0.29325 0.27313
 C1181 C 0.42591 0.27324 0.31427
 C1182 C 0.43944 0.26642 0.30736
 C1183 C 0.42501 0.31360 0.27351
 C1184 C 0.43856 0.30680 0.26660
 H1185 H 0.42103 0.26784 0.32479
 H1186 H 0.44458 0.25594 0.31274
 H1187 H 0.41978 0.32400 0.26806
 H1188 H 0.44336 0.31215 0.25602
 H1189 H 0.39924 0.32404 0.28856
 H1190 H 0.40011 0.28810 0.32494
 H1191 H 0.46462 0.25528 0.29162
 H1192 H 0.46387 0.29126 0.25534
 C1193 C 0.42507 0.79421 0.79438
 C1194 C 0.41814 0.80763 0.78741
 C1195 C 0.40446 0.81427 0.79416
 C1196 C 0.39759 0.80760 0.80785
 C1197 C 0.40489 0.79411 0.81468
 C1198 C 0.41856 0.78739 0.80800
 C1199 C 0.43931 0.78704 0.78719
 C1200 C 0.44611 0.77347 0.79406
 C1201 C 0.45940 0.76645 0.78695
 C1202 C 0.46586 0.77287 0.77302
 C1203 C 0.45902 0.78665 0.76644
 C1204 C 0.44571 0.79375 0.77345
 C1205 C 0.42578 0.77389 0.81462
 C1206 C 0.43932 0.76705 0.80777
 C1207 C 0.42497 0.81410 0.77373
 C1208 C 0.43852 0.80727 0.76687
 H1209 H 0.42088 0.76852 0.82515
 H1210 H 0.44445 0.75658 0.81319
 H1211 H 0.41975 0.82448 0.76823
 H1212 H 0.44334 0.81258 0.75627
 H1213 H 0.39926 0.82458 0.78858
 H1214 H 0.40003 0.78864 0.82514
 H1215 H 0.46452 0.75584 0.79211
 H1216 H 0.46384 0.79167 0.75570
 C1217 C -0.07497 0.29411 0.79377
 C1218 C -0.08147 0.28726 0.80738
 C1219 C -0.09505 0.29407 0.81416
 C1220 C -0.10220 0.30763 0.80743
 C1221 C -0.09541 0.31435 0.79376
 C1222 C -0.08183 0.30763 0.78689
 C1223 C -0.06079 0.28689 0.78649
 C1224 C -0.05439 0.29364 0.77277
 C1225 C -0.04115 0.28650 0.76567
 C1226 C -0.03435 0.27267 0.77218
 C1227 C -0.04081 0.26621 0.78610
 C1228 C -0.05405 0.27326 0.79328
 C1229 C -0.07501 0.31412 0.77322
 C1230 C -0.06153 0.30724 0.76628
 C1231 C -0.07431 0.27369 0.81391
 C1232 C -0.06083 0.26680 0.80698
 H1233 H -0.08019 0.32456 0.76779
 H1234 H -0.05673 0.31256 0.75568
 H1235 H -0.07921 0.26829 0.82443
 H1236 H -0.05575 0.25627 0.81233
 H1237 H -0.10002 0.28866 0.82461
 H1238 H -0.10064 0.32476 0.78838
 H1239 H -0.03633 0.29157 0.75496
 H1240 H -0.03572 0.25556 0.79120
 C1241 C -0.07486 0.79477 0.29461
 C1242 C -0.08146 0.80849 0.28785
 C1243 C -0.09493 0.81540 0.29477
 C1244 C -0.10186 0.80866 0.30834
 C1245 C -0.09495 0.79493 0.31499
 C1246 C -0.08149 0.78793 0.30817
 C1247 C -0.06082 0.78734 0.28726
 C1248 C -0.05433 0.77352 0.29393
 C1249 C -0.04115 0.76635 0.28673
 C1250 C -0.03451 0.77287 0.27293
 C1251 C -0.04112 0.78683 0.26650
 C1252 C -0.05430 0.79409 0.27360
 C1253 C -0.07461 0.77414 0.31454
 C1254 C -0.06126 0.76706 0.30755
 C1255 C -0.07454 0.81494 0.27422
 C1256 C -0.06119 0.80787 0.26721
 H1257 H -0.07963 0.76873 0.32500
 H1258 H -0.05638 0.75639 0.31281
 H1259 H -0.07952 0.82552 0.26887
 H1260 H -0.05628 0.81319 0.25666
 H1261 H -0.09995 0.82600 0.28954
 H1262 H -0.10013 0.78947 0.32532
 H1263 H -0.03623 0.75558 0.29175
 H1264 H -0.03619 0.79192 0.25584
 C1265 C 0.57504 0.70633 0.29416
 C1266 C 0.58151 0.71321 0.30776
 C1267 C 0.59503 0.70638 0.31463
 C1268 C 0.60216 0.69277 0.30799
 C1269 C 0.59540 0.68602 0.29435
 C1270 C 0.58188 0.69275 0.28739
 C1271 C 0.56093 0.71357 0.28678
 C1272 C 0.55456 0.70679 0.27307
 C1273 C 0.54133 0.71390 0.26593
 C1274 C 0.53451 0.72776 0.27236
 C1275 C 0.54099 0.73429 0.28622
 C1276 C 0.55421 0.72726 0.29346
 C1277 C 0.57510 0.68624 0.27372
 C1278 C 0.56168 0.69314 0.26668
 C1279 C 0.57438 0.72684 0.31417
 C1280 C 0.56097 0.73376 0.30714
 H1281 H 0.58026 0.67576 0.26838
 H1282 H 0.55689 0.68779 0.25610
 H1283 H 0.57926 0.73227 0.32468
 H1284 H 0.55591 0.74433 0.31241
 H1285 H 0.59995 0.71178 0.32510
 H1286 H 0.60063 0.67559 0.28903
 H1287 H 0.53652 0.70881 0.25523
 H1288 H 0.53591 0.74498 0.29124
 C1289 C 0.57507 0.20573 0.79433
 C1290 C 0.58159 0.21254 0.80794
 C1291 C 0.59526 0.20580 0.81462
 C1292 C 0.60249 0.19236 0.80775
 C1293 C 0.59567 0.18566 0.79411
 C1294 C 0.58199 0.19230 0.78736
 C1295 C 0.56083 0.21292 0.78712
 C1296 C 0.55443 0.20622 0.77339
 C1297 C 0.54113 0.21333 0.76637
 C1298 C 0.53429 0.22712 0.77293
 C1299 C 0.54076 0.23353 0.78685
 C1300 C 0.55405 0.22650 0.79397
 C1301 C 0.57517 0.18586 0.77368
 C1302 C 0.56162 0.19270 0.76682
 C1303 C 0.57438 0.22604 0.81454
 C1304 C 0.56086 0.23291 0.80767
 H1305 H 0.58040 0.17549 0.76819
 H1306 H 0.55680 0.18741 0.75622
 H1307 H 0.57930 0.23141 0.82505
 H1308 H 0.55574 0.24338 0.81307
 H1309 H 0.60021 0.21107 0.82514
 H1310 H 0.60104 0.17542 0.78857
 H1311 H 0.53632 0.20832 0.75563
 H1312 H 0.53566 0.24415 0.79198
 C1313 C 1.07494 0.70623 0.79376
 C1314 C 1.08140 0.71305 0.80740
 C1315 C 1.09495 0.70623 0.81423
 C1316 C 1.10211 0.69268 0.80752
 C1317 C 1.09538 0.68599 0.79383
 C1318 C 1.08182 0.69272 0.78691
 C1319 C 1.06081 0.71348 0.78643
 C1320 C 1.05445 0.70676 0.77269
 C1321 C 1.04120 0.71390 0.76558
 C1322 C 1.03438 0.72772 0.77208
 C1323 C 1.04082 0.73416 0.78600
 C1324 C 1.05405 0.72711 0.79320
 C1325 C 1.07506 0.68627 0.77321
 C1326 C 1.06160 0.69317 0.76622
 C1327 C 1.07424 0.72663 0.81389
 C1328 C 1.06080 0.73354 0.80691
 H1329 H 1.08025 0.67584 0.76779
 H1330 H 1.05682 0.68787 0.75561
 H1331 H 1.07912 0.73201 0.82441
 H1332 H 1.05571 0.74406 0.81224
 H1333 H 1.09983 0.71157 0.82474
 H1334 H 1.10064 0.67560 0.78845
 H1335 H 1.03641 0.70886 0.75485
 H1336 H 1.03571 0.74480 0.79109
 C1337 C 1.07465 0.20599 0.29421
 C1338 C 1.08145 0.19241 0.28743
 C1339 C 1.09496 0.18564 0.29439
 C1340 C 1.10174 0.19238 0.30803
 C1341 C 1.09464 0.20600 0.31468
 C1342 C 1.08113 0.21285 0.30781
 C1343 C 1.06055 0.21327 0.28685
 C1344 C 1.05385 0.22697 0.29355
 C1345 C 1.04064 0.23402 0.28634
 C1346 C 1.03415 0.22752 0.27247
 C1347 C 1.04093 0.21365 0.26602
 C1348 C 1.05415 0.20651 0.27314
 C1349 C 1.07405 0.22651 0.31423
 C1350 C 1.06064 0.23345 0.30722
 C1351 C 1.07466 0.18592 0.27376
 C1352 C 1.06125 0.19285 0.26673
 H1353 H 1.07895 0.23192 0.32473
 H1354 H 1.05560 0.24402 0.31250
 H1355 H 1.07980 0.17543 0.26840
 H1356 H 1.05644 0.18752 0.25615
 H1357 H 1.10014 0.17517 0.28908
 H1358 H 1.09959 0.21141 0.32512
 H1359 H 1.03559 0.24471 0.29138
 H1360 H 1.03611 0.20858 0.25532
 C1361 C 0.57503 0.29377 0.70616
 C1362 C 0.58189 0.30729 0.71302
 C1363 C 0.59543 0.31404 0.70610
 C1364 C 0.60216 0.30736 0.69240
 C1365 C 0.59501 0.29381 0.68568
 C1366 C 0.58148 0.28696 0.69252
 C1367 C 0.56090 0.28651 0.71349
 C1368 C 0.55416 0.27287 0.70673
 C1369 C 0.54093 0.26582 0.71393
 C1370 C 0.53448 0.27228 0.72783
 C1371 C 0.54130 0.28609 0.73434
 C1372 C 0.55454 0.29323 0.72724
 C1373 C 0.57433 0.27338 0.68602
 C1374 C 0.56090 0.26645 0.69301
 C1375 C 0.57512 0.31374 0.72672
 C1376 C 0.56168 0.30682 0.73371
 H1377 H 0.57919 0.26802 0.67548
 H1378 H 0.55581 0.25593 0.68767
 H1379 H 0.58029 0.32418 0.73213
 H1380 H 0.55689 0.31212 0.74432
 H1381 H 0.60068 0.32442 0.71150
 H1382 H 0.59990 0.28848 0.67517
 H1383 H 0.53584 0.25517 0.70884
 H1384 H 0.53650 0.29114 0.74507
 C1385 C 0.57469 0.79445 0.20516
 C1386 C 0.58115 0.78768 0.19151
 C1387 C 0.59478 0.79445 0.18477
 C1388 C 0.60207 0.80786 0.19165
 C1389 C 0.59524 0.81460 0.20527
 C1390 C 0.58159 0.80792 0.21209
 C1391 C 0.56055 0.78717 0.21248
 C1392 C 0.55423 0.79381 0.22627
 C1393 C 0.54104 0.78661 0.23341
 C1394 C 0.53423 0.77278 0.22691
 C1395 C 0.54062 0.76642 0.21293
 C1396 C 0.55380 0.77354 0.20569
 C1397 C 0.57483 0.81431 0.22582
 C1398 C 0.56138 0.80737 0.23279
 C1399 C 0.57397 0.77413 0.18497
 C1400 C 0.56054 0.76718 0.19194
 H1401 H 0.58004 0.82469 0.23130
 H1402 H 0.55662 0.81261 0.24344
 H1403 H 0.57885 0.76877 0.17443
 H1404 H 0.55544 0.75667 0.18657
 H1405 H 0.59972 0.78911 0.17429
 H1406 H 0.60058 0.82488 0.21076
 H1407 H 0.53628 0.79159 0.24419
 H1408 H 0.53553 0.75577 0.20783
 C1409 C 1.07482 0.29412 0.20585
 C1410 C 1.08129 0.28734 0.19221
 C1411 C 1.09477 0.29424 0.18535
 C1412 C 1.10187 0.30783 0.19205
 C1413 C 1.09515 0.31447 0.20576
 C1414 C 1.08166 0.30765 0.21272
 C1415 C 1.06068 0.28686 0.21315
 C1416 C 1.05429 0.29356 0.22689
 C1417 C 1.04103 0.28642 0.23395
 C1418 C 1.03421 0.27263 0.22741
 C1419 C 1.04069 0.26619 0.21351
 C1420 C 1.05394 0.27323 0.20635
 C1421 C 1.07488 0.31406 0.22643
 C1422 C 1.06143 0.30713 0.23340
 C1423 C 1.07417 0.27375 0.18570
 C1424 C 1.06073 0.26681 0.19265
 H1425 H 1.08005 0.32450 0.23186
 H1426 H 1.05664 0.31240 0.24402
 H1427 H 1.07907 0.26840 0.17516
 H1428 H 1.05567 0.25629 0.18730
 H1429 H 1.09970 0.28888 0.17487
 H1430 H 1.10037 0.32487 0.21114
 H1431 H 1.03621 0.29145 0.24468
 H1432 H 1.03560 0.25555 0.20839
 C1433 C 1.07465 0.79461 0.70501
 C1434 C 1.08112 0.78782 0.69137
 C1435 C 1.09478 0.79456 0.68466
 C1436 C 1.10209 0.80795 0.69155
 C1437 C 1.09524 0.81471 0.70515
 C1438 C 1.08157 0.80806 0.71194
 C1439 C 1.06049 0.78735 0.71232
 C1440 C 1.05416 0.79400 0.72611
 C1441 C 1.04097 0.78681 0.73326
 C1442 C 1.03416 0.77298 0.72676
 C1443 C 1.04054 0.76662 0.71277
 C1444 C 1.05373 0.77373 0.70553
 C1445 C 1.07480 0.81447 0.72566
 C1446 C 1.06133 0.80756 0.73262
 C1447 C 1.07392 0.77429 0.68482
 C1448 C 1.06046 0.76736 0.69178
 H1449 H 1.08002 0.82485 0.73114
 H1450 H 1.05656 0.81282 0.74326
 H1451 H 1.07880 0.76893 0.67428
 H1452 H 1.05535 0.75687 0.68641
 H1453 H 1.09973 0.78920 0.67419
 H1454 H 1.10060 0.82498 0.71065
 H1455 H 1.03622 0.79179 0.74403
 H1456 H 1.03544 0.75598 0.70767
 C1457 C 0.42527 0.70654 0.70625
 C1458 C 0.41880 0.71343 0.69265
 C1459 C 0.40520 0.70669 0.68584
 C1460 C 0.39802 0.69313 0.69254
 C1461 C 0.40475 0.68638 0.70622
 C1462 C 0.41835 0.69304 0.71312
 C1463 C 0.43948 0.71369 0.71353
 C1464 C 0.44586 0.70689 0.72724
 C1465 C 0.45915 0.71395 0.73434
 C1466 C 0.46600 0.72778 0.72786
 C1467 C 0.45956 0.73428 0.71395
 C1468 C 0.44629 0.72730 0.70676
 C1469 C 0.42514 0.68651 0.72678
 C1470 C 0.43866 0.69332 0.73372
 C1471 C 0.42601 0.72699 0.68615
 C1472 C 0.43952 0.73381 0.69308
 H1473 H 0.41992 0.67609 0.73220
 H1474 H 0.44345 0.68796 0.74431
 H1475 H 0.42113 0.73243 0.67564
 H1476 H 0.44465 0.74432 0.68774
 H1477 H 0.40029 0.71209 0.67536
 H1478 H 0.39946 0.67601 0.71162
 H1479 H 0.46394 0.70886 0.74505
 H1480 H 0.46469 0.74492 0.70886
 C1481 C 0.42533 0.20606 0.20591
 C1482 C 0.41843 0.19257 0.21282
 C1483 C 0.40481 0.18590 0.20598
 C1484 C 0.39803 0.19263 0.19232
 C1485 C 0.40522 0.20616 0.18555
 C1486 C 0.41883 0.21292 0.19230
 C1487 C 0.43953 0.21324 0.21316
 C1488 C 0.44631 0.22685 0.20636
 C1489 C 0.45959 0.23385 0.21351
 C1490 C 0.46605 0.22737 0.22741
 C1491 C 0.45921 0.21357 0.23394
 C1492 C 0.44592 0.20648 0.22688
 C1493 C 0.42602 0.22646 0.18576
 C1494 C 0.43952 0.23332 0.19267
 C1495 C 0.42524 0.18607 0.22649
 C1496 C 0.43875 0.19291 0.23340
 H1497 H 0.42113 0.23187 0.17524
 H1498 H 0.44464 0.24381 0.18729
 H1499 H 0.42004 0.17565 0.23193
 H1500 H 0.44357 0.18758 0.24399
 H1501 H 0.39954 0.17555 0.21141
 H1502 H 0.40028 0.21155 0.17508
 H1503 H 0.46469 0.24449 0.20840
 H1504 H 0.46402 0.20851 0.24466
 C1505 C -0.07461 0.70622 0.20593
 C1506 C -0.08109 0.71312 0.19233
 C1507 C -0.09458 0.70626 0.18543
 C1508 C -0.10166 0.69260 0.19204
 C1509 C -0.09490 0.68584 0.20570
 C1510 C -0.08141 0.69261 0.21269
 C1511 C -0.06053 0.71349 0.21333
 C1512 C -0.05415 0.70670 0.22703
 C1513 C -0.04094 0.71384 0.23420
 C1514 C -0.03418 0.72774 0.22778
 C1515 C -0.04064 0.73427 0.21390
 C1516 C -0.05384 0.72721 0.20665
 C1517 C -0.07463 0.68609 0.22637
 C1518 C -0.06123 0.69302 0.23342
 C1519 C -0.07401 0.72679 0.18594
 C1520 C -0.06062 0.73373 0.19298
 H1521 H -0.07976 0.67559 0.23171
 H1522 H -0.05643 0.68767 0.24400
 H1523 H -0.07890 0.73223 0.17544
 H1524 H -0.05558 0.74432 0.18772
 H1525 H -0.09952 0.71169 0.17498
 H1526 H -0.10008 0.67536 0.21098
 H1527 H -0.03613 0.70874 0.24490
 H1528 H -0.03560 0.74498 0.20887
 C1529 C -0.07465 0.20545 0.70538
 C1530 C -0.08126 0.21228 0.69181
 C1531 C -0.09476 0.20534 0.68503
 C1532 C -0.10172 0.19166 0.69173
 C1533 C -0.09482 0.18493 0.70532
 C1534 C -0.08131 0.19180 0.71220
 C1535 C -0.06058 0.21284 0.71270
 C1536 C -0.05409 0.20612 0.72639
 C1537 C -0.04093 0.21338 0.73350
 C1538 C -0.03431 0.22733 0.72705
 C1539 C -0.04087 0.23379 0.71318
 C1540 C -0.05403 0.22661 0.70598
 C1541 C -0.07440 0.18534 0.72584
 C1542 C -0.06102 0.19238 0.73281
 C1543 C -0.07431 0.22600 0.68536
 C1544 C -0.06092 0.23304 0.69232
 H1545 H -0.07942 0.17480 0.73123
 H1546 H -0.05612 0.18708 0.74338
 H1547 H -0.07929 0.23139 0.67488
 H1548 H -0.05598 0.24366 0.68702
 H1549 H -0.09992 0.21080 0.67469
 H1550 H -0.09989 0.17439 0.71061
 H1551 H -0.03605 0.20833 0.74419
 H1552 H -0.03593 0.24453 0.70813
 C1553 C 0.29380 0.42486 0.29397
 C1554 C 0.30728 0.41795 0.28709
 C1555 C 0.31392 0.40431 0.29394
 C1556 C 0.30719 0.39754 0.30761
 C1557 C 0.29365 0.40474 0.31434
 C1558 C 0.28692 0.41837 0.30757
 C1559 C 0.28665 0.43909 0.28670
 C1560 C 0.27304 0.44589 0.29348
 C1561 C 0.26605 0.45917 0.28630
 C1562 C 0.27254 0.46562 0.27239
 C1563 C 0.28636 0.45879 0.26591
 C1564 C 0.29344 0.44549 0.27300
 C1565 C 0.27338 0.42559 0.31410
 C1566 C 0.26656 0.43911 0.30717
 C1567 C 0.31382 0.42477 0.27344
 C1568 C 0.30701 0.43830 0.26651
 H1569 H 0.26797 0.42071 0.32461
 H1570 H 0.25606 0.44424 0.31252
 H1571 H 0.32424 0.41956 0.26802
 H1572 H 0.31237 0.44312 0.25594
 H1573 H 0.32428 0.39902 0.28852
 H1574 H 0.28826 0.39980 0.32481
 H1575 H 0.25541 0.46429 0.29139
 H1576 H 0.29145 0.46360 0.25520
 C1577 C 0.29445 -0.07543 0.79414
 C1578 C 0.30788 -0.08233 0.78718
 C1579 C 0.31457 -0.09598 0.79397
 C1580 C 0.30792 -0.10286 0.80768
 C1581 C 0.29441 -0.09558 0.81448
 C1582 C 0.28765 -0.08194 0.80776
 C1583 C 0.28724 -0.06120 0.78692
 C1584 C 0.27365 -0.05444 0.79378
 C1585 C 0.26659 -0.04117 0.78665
 C1586 C 0.27298 -0.03471 0.77270
 C1587 C 0.28679 -0.04151 0.76614
 C1588 C 0.29392 -0.05480 0.77318
 C1589 C 0.27413 -0.07475 0.81436
 C1590 C 0.26725 -0.06124 0.80749
 C1591 C 0.31433 -0.07550 0.77350
 C1592 C 0.30747 -0.06196 0.76661
 H1593 H 0.26876 -0.07966 0.82489
 H1594 H 0.25677 -0.05613 0.81290
 H1595 H 0.32471 -0.08070 0.76800
 H1596 H 0.31275 -0.05714 0.75600
 H1597 H 0.32490 -0.10116 0.78842
 H1598 H 0.28895 -0.10044 0.82495
 H1599 H 0.25598 -0.03607 0.79180
 H1600 H 0.29180 -0.03668 0.75540
 C1601 C 0.79401 0.42495 0.79456
 C1602 C 0.80787 0.41847 0.78803
 C1603 C 0.81442 0.40469 0.79467
 C1604 C 0.80720 0.39722 0.80777
 C1605 C 0.79330 0.40410 0.81419
 C1606 C 0.78669 0.41791 0.80765
 C1607 C 0.78691 0.43927 0.78743
 C1608 C 0.77293 0.44564 0.79386
 C1609 C 0.76594 0.45895 0.78674
 C1610 C 0.77277 0.46582 0.77320
 C1611 C 0.78698 0.45944 0.76709
 C1612 C 0.79408 0.44615 0.77415
 C1613 C 0.77281 0.42474 0.81388
 C1614 C 0.76605 0.43837 0.80711
 C1615 C 0.81482 0.42582 0.77486
 C1616 C 0.80804 0.43941 0.76803
 H1617 H 0.76706 0.41944 0.82401
 H1618 H 0.75527 0.44317 0.81220
 H1619 H 0.82554 0.42094 0.76970
 H1620 H 0.81371 0.44460 0.75779
 H1621 H 0.82506 0.39983 0.78939
 H1622 H 0.78746 0.39882 0.82425
 H1623 H 0.75501 0.46372 0.79155
 H1624 H 0.79236 0.46461 0.75669
 C1625 C 0.79459 -0.07499 0.29519
 C1626 C 0.80840 -0.08155 0.28861
 C1627 C 0.81505 -0.09523 0.29539
 C1628 C 0.80794 -0.10253 0.30865
 C1629 C 0.79419 -0.09547 0.31520
 C1630 C 0.78746 -0.08180 0.30849
 C1631 C 0.78731 -0.06085 0.28785
 C1632 C 0.77334 -0.05446 0.29429
 C1633 C 0.76621 -0.04131 0.28700
 C1634 C 0.77290 -0.03461 0.27330
 C1635 C 0.78707 -0.04104 0.26716
 C1636 C 0.79430 -0.05419 0.27437
 C1637 C 0.77358 -0.07495 0.31471
 C1638 C 0.76664 -0.06152 0.30773
 C1639 C 0.81516 -0.07441 0.27522
 C1640 C 0.80823 -0.06097 0.26823
 H1641 H 0.76796 -0.08010 0.32499
 H1642 H 0.75587 -0.05670 0.31283
 H1643 H 0.82583 -0.07933 0.27003
 H1644 H 0.81376 -0.05593 0.25784
 H1645 H 0.82563 -0.10018 0.29010
 H1646 H 0.78844 -0.10060 0.32539
 H1647 H 0.75530 -0.03651 0.29182
 H1648 H 0.79232 -0.03602 0.25662
 C1649 C 0.29410 0.57513 0.70593
 C1650 C 0.30758 0.58201 0.71285
 C1651 C 0.31425 0.59566 0.70605
 C1652 C 0.30754 0.60247 0.69239
 C1653 C 0.29400 0.59531 0.68563
 C1654 C 0.28724 0.58168 0.69235
 C1655 C 0.28694 0.56088 0.71313
 C1656 C 0.27334 0.55412 0.70630
 C1657 C 0.26634 0.54081 0.71341
 C1658 C 0.27280 0.53431 0.72730
 C1659 C 0.28661 0.54111 0.73384
 C1660 C 0.29370 0.55443 0.72682
 C1661 C 0.27371 0.57451 0.68578
 C1662 C 0.26687 0.56096 0.69264
 C1663 C 0.31408 0.57514 0.72649
 C1664 C 0.30726 0.56158 0.73336
 H1665 H 0.26831 0.57945 0.67529
 H1666 H 0.25638 0.55586 0.68726
 H1667 H 0.32449 0.58033 0.73195
 H1668 H 0.31259 0.55673 0.74393
 H1669 H 0.32460 0.60092 0.71149
 H1670 H 0.28862 0.60028 0.67517
 H1671 H 0.25571 0.53572 0.70828
 H1672 H 0.29167 0.53625 0.74454
 C1673 C 0.29387 1.07498 0.20618
 C1674 C 0.30742 1.08181 0.21300
 C1675 C 0.31416 1.09535 0.20607
 C1676 C 0.30743 1.10212 0.19240
 C1677 C 0.29384 1.09499 0.18572
 C1678 C 0.28702 1.08146 0.19256
 C1679 C 0.28662 1.06085 0.21353
 C1680 C 0.27296 1.05413 0.20679
 C1681 C 0.26592 1.04089 0.21400
 C1682 C 0.27241 1.03441 0.22789
 C1683 C 0.28625 1.04121 0.23437
 C1684 C 0.29338 1.05446 0.22725
 C1685 C 0.27340 1.07434 0.18610
 C1686 C 0.26649 1.06090 0.19310
 C1687 C 0.31391 1.07502 0.22669
 C1688 C 0.30701 1.06158 0.23369
 H1689 H 0.26800 1.07923 0.17559
 H1690 H 0.25594 1.05583 0.18779
 H1691 H 0.32438 1.08018 0.23207
 H1692 H 0.31234 1.05677 0.24429
 H1693 H 0.32457 1.10057 0.21142
 H1694 H 0.28846 1.09992 0.17524
 H1695 H 0.25526 1.03582 0.20892
 H1696 H 0.29132 1.03639 0.24508
 C1697 C 0.79396 0.57518 0.20550
 C1698 C 0.80747 0.58202 0.21240
 C1699 C 0.81410 0.59570 0.20564
 C1700 C 0.80732 0.60258 0.19206
 C1701 C 0.79381 0.59543 0.18526
 C1702 C 0.78707 0.58177 0.19195
 C1703 C 0.78678 0.56095 0.21272
 C1704 C 0.77313 0.55424 0.20595
 C1705 C 0.76611 0.54095 0.21309
 C1706 C 0.77260 0.53443 0.22696
 C1707 C 0.78645 0.54119 0.23344
 C1708 C 0.79356 0.55448 0.22640
 C1709 C 0.77350 0.57463 0.18543
 C1710 C 0.76664 0.56111 0.19231
 C1711 C 0.81399 0.57514 0.22603
 C1712 C 0.80715 0.56160 0.23291
 H1713 H 0.76806 0.57961 0.17496
 H1714 H 0.75610 0.55605 0.18697
 H1715 H 0.82442 0.58032 0.23147
 H1716 H 0.81250 0.55673 0.24346
 H1717 H 0.82441 0.60101 0.21112
 H1718 H 0.78847 0.60043 0.17479
 H1719 H 0.75543 0.53590 0.20801
 H1720 H 0.79153 0.53633 0.24414
 C1721 C 0.79431 1.07458 0.70499
 C1722 C 0.80784 1.08139 0.71188
 C1723 C 0.81454 1.09504 0.70509
 C1724 C 0.80775 1.10197 0.69153
 C1725 C 0.79428 1.09477 0.68469
 C1726 C 0.78749 1.08114 0.69139
 C1727 C 0.78700 1.06046 0.71230
 C1728 C 0.77330 1.05381 0.70556
 C1729 C 0.76614 1.04065 0.71280
 C1730 C 0.77255 1.03419 0.72674
 C1731 C 0.78645 1.04089 0.73319
 C1732 C 0.79369 1.05405 0.72604
 C1733 C 0.77388 1.07404 0.68488
 C1734 C 0.76691 1.06061 0.69184
 C1735 C 0.81430 1.07454 0.72554
 C1736 C 0.80734 1.06110 0.73250
 H1737 H 0.76850 1.07898 0.67437
 H1738 H 0.75636 1.05558 0.68650
 H1739 H 0.82475 1.07967 0.73097
 H1740 H 0.81264 1.05625 0.74309
 H1741 H 0.82486 1.10033 0.71057
 H1742 H 0.78889 1.09980 0.67425
 H1743 H 0.75543 1.03565 0.70775
 H1744 H 0.79146 1.03608 0.74394
 C1745 C 0.70635 0.57520 0.29415
 C1746 C 0.71326 0.58168 0.30774
 C1747 C 0.70643 0.59517 0.31463
 C1748 C 0.69277 0.60227 0.30804
 C1749 C 0.68599 0.59551 0.29440
 C1750 C 0.69273 0.58201 0.28742
 C1751 C 0.71359 0.56111 0.28675
 C1752 C 0.70676 0.55473 0.27307
 C1753 C 0.71386 0.54151 0.26592
 C1754 C 0.72774 0.53471 0.27232
 C1755 C 0.73433 0.54119 0.28615
 C1756 C 0.72732 0.55441 0.29340
 C1757 C 0.68618 0.57524 0.27377
 C1758 C 0.69308 0.56183 0.26672
 C1759 C 0.72695 0.57458 0.31410
 C1760 C 0.73386 0.56118 0.30705
 H1761 H 0.67567 0.58038 0.26845
 H1762 H 0.68770 0.55704 0.25616
 H1763 H 0.73240 0.57946 0.32459
 H1764 H 0.74445 0.55613 0.31229
 H1765 H 0.71185 0.60010 0.32508
 H1766 H 0.67552 0.60071 0.28911
 H1767 H 0.70873 0.53670 0.25524
 H1768 H 0.74504 0.53613 0.29115
 C1769 C 0.70597 1.07493 0.79396
 C1770 C 0.71278 1.08129 0.80763
 C1771 C 0.70594 1.09478 0.81455
 C1772 C 0.69233 1.10205 0.80791
 C1773 C 0.68570 1.09533 0.79413
 C1774 C 0.69246 1.08183 0.78715
 C1775 C 0.71323 1.06083 0.78655
 C1776 C 0.70650 1.05454 0.77278
 C1777 C 0.71361 1.04132 0.76563
 C1778 C 0.72742 1.03443 0.77211
 C1779 C 0.73389 1.04082 0.78604
 C1780 C 0.72686 1.05403 0.79328
 C1781 C 0.68600 1.07514 0.77340
 C1782 C 0.69290 1.06174 0.76634
 C1783 C 0.72638 1.07410 0.81408
 C1784 C 0.73330 1.06071 0.80702
 H1785 H 0.67556 1.08035 0.76802
 H1786 H 0.68759 1.05701 0.75572
 H1787 H 0.73176 1.07890 0.82464
 H1788 H 0.74382 1.05558 0.81234
 H1789 H 0.71139 1.09953 0.82507
 H1790 H 0.67529 1.10049 0.78869
 H1791 H 0.70855 1.03658 0.75488
 H1792 H 0.74454 1.03569 0.79111
 C1793 C 0.20617 0.57488 0.79400
 C1794 C 0.19266 0.58175 0.78713
 C1795 C 0.18591 0.59530 0.79403
 C1796 C 0.19260 0.60204 0.80772
 C1797 C 0.20615 0.59488 0.81445
 C1798 C 0.21299 0.58135 0.80764
 C1799 C 0.21342 0.56074 0.78670
 C1800 C 0.22705 0.55399 0.79348
 C1801 C 0.23409 0.54074 0.78631
 C1802 C 0.22764 0.53430 0.77240
 C1803 C 0.21383 0.54113 0.76588
 C1804 C 0.20670 0.55438 0.77296
 C1805 C 0.22657 0.57420 0.81414
 C1806 C 0.23349 0.56076 0.80718
 C1807 C 0.18621 0.57499 0.77342
 C1808 C 0.19312 0.56154 0.76646
 H1809 H 0.23195 0.57909 0.82466
 H1810 H 0.24402 0.55567 0.81253
 H1811 H 0.17579 0.58018 0.76799
 H1812 H 0.18782 0.55676 0.75585
 H1813 H 0.17553 0.60056 0.78862
 H1814 H 0.21149 0.59978 0.82496
 H1815 H 0.24474 0.53565 0.79141
 H1816 H 0.20878 0.53633 0.75515
 C1817 C 0.20606 1.07495 0.29451
 C1818 C 0.21294 1.08148 0.30809
 C1819 C 0.20625 1.09517 0.31476
 C1820 C 0.19282 1.10243 0.30791
 C1821 C 0.18604 1.09559 0.29431
 C1822 C 0.19262 1.08189 0.28757
 C1823 C 0.21320 1.06070 0.28730
 C1824 C 0.20645 1.05431 0.27359
 C1825 C 0.21352 1.04101 0.26655
 C1826 C 0.22733 1.03417 0.27307
 C1827 C 0.23379 1.04062 0.28698
 C1828 C 0.22680 1.05391 0.29412
 C1829 C 0.18611 1.07507 0.27392
 C1830 C 0.19291 1.06151 0.26705
 C1831 C 0.22645 1.07425 0.31466
 C1832 C 0.23327 1.06071 0.30779
 H1833 H 0.17573 1.08031 0.26845
 H1834 H 0.18758 1.05670 0.25647
 H1835 H 0.23186 1.07917 0.32515
 H1836 H 0.24375 1.05558 0.31317
 H1837 H 0.21159 1.10012 0.32525
 H1838 H 0.17578 1.10097 0.28879
 H1839 H 0.20847 1.03621 0.25583
 H1840 H 0.24443 1.03550 0.29209
 C1841 C 0.70631 0.42499 0.70624
 C1842 C 0.69280 0.41811 0.71309
 C1843 C 0.68608 0.40455 0.70618
 C1844 C 0.69279 0.39782 0.69249
 C1845 C 0.70635 0.40499 0.68579
 C1846 C 0.71316 0.41854 0.69261
 C1847 C 0.71354 0.43914 0.71355
 C1848 C 0.72717 0.44590 0.70679
 C1849 C 0.73420 0.45914 0.71398
 C1850 C 0.72772 0.46559 0.72788
 C1851 C 0.71390 0.45875 0.73438
 C1852 C 0.70679 0.44550 0.72728
 C1853 C 0.72673 0.42572 0.68611
 C1854 C 0.73363 0.43916 0.69308
 C1855 C 0.68631 0.42488 0.72678
 C1856 C 0.69319 0.43834 0.73375
 H1857 H 0.73212 0.42085 0.67558
 H1858 H 0.74415 0.44427 0.68774
 H1859 H 0.67587 0.41969 0.73218
 H1860 H 0.68786 0.44312 0.74435
 H1861 H 0.67569 0.39929 0.71157
 H1862 H 0.71170 0.40011 0.67528
 H1863 H 0.74485 0.46425 0.70889
 H1864 H 0.70883 0.46354 0.74510
 C1865 C 0.70559 -0.07503 0.20586
 C1866 C 0.71238 -0.08153 0.19223
 C1867 C 0.70535 -0.09491 0.18530
 C1868 C 0.69165 -0.10188 0.19192
 C1869 C 0.68495 -0.09508 0.20558
 C1870 C 0.69190 -0.08170 0.21260
 C1871 C 0.71306 -0.06107 0.21332
 C1872 C 0.70636 -0.05467 0.22705
 C1873 C 0.71365 -0.04157 0.23424
 C1874 C 0.72759 -0.03491 0.22783
 C1875 C 0.73405 -0.04141 0.21394
 C1876 C 0.72685 -0.05451 0.20666
 C1877 C 0.68549 -0.07490 0.22631
 C1878 C 0.69260 -0.06162 0.23341
 C1879 C 0.72615 -0.07459 0.18587
 C1880 C 0.73326 -0.06131 0.19296
 H1881 H 0.67494 -0.07992 0.23165
 H1882 H 0.68732 -0.05680 0.24401
 H1883 H 0.73152 -0.07950 0.17535
 H1884 H 0.74390 -0.05637 0.18770
 H1885 H 0.71077 -0.09999 0.17491
 H1886 H 0.67438 -0.10016 0.21080
 H1887 H 0.70860 -0.03674 0.24495
 H1888 H 0.74480 -0.03645 0.20892
 C1889 C 0.20626 0.42512 0.20566
 C1890 C 0.19286 0.41814 0.21265
 C1891 C 0.18627 0.40445 0.20589
 C1892 C 0.19299 0.39768 0.19224
 C1893 C 0.20641 0.40495 0.18536
 C1894 C 0.21310 0.41863 0.19204
 C1895 C 0.21337 0.43939 0.21284
 C1896 C 0.22692 0.44622 0.20598
 C1897 C 0.23392 0.45951 0.21311
 C1898 C 0.22751 0.46590 0.22707
 C1899 C 0.21374 0.45903 0.23363
 C1900 C 0.20665 0.44574 0.22659
 C1901 C 0.22655 0.42591 0.18541
 C1902 C 0.23335 0.43947 0.19226
 C1903 C 0.18638 0.42493 0.22633
 C1904 C 0.19316 0.43850 0.23317
 H1905 H 0.23193 0.42103 0.17489
 H1906 H 0.24380 0.44463 0.18684
 H1907 H 0.17602 0.41968 0.23184
 H1908 H 0.18786 0.44329 0.24378
 H1909 H 0.17606 0.39902 0.21145
 H1910 H 0.21172 0.40003 0.17485
 H1911 H 0.24452 0.46466 0.20796
 H1912 H 0.20872 0.46380 0.24438
 C1913 C 0.20562 -0.07486 0.70563
 C1914 C 0.21240 -0.08136 0.69199
 C1915 C 0.20541 -0.09478 0.68511
 C1916 C 0.19175 -0.10179 0.69178
 C1917 C 0.18506 -0.09499 0.70543
 C1918 C 0.19197 -0.08156 0.71242
 C1919 C 0.21306 -0.06088 0.71305
 C1920 C 0.20638 -0.05449 0.72680
 C1921 C 0.21366 -0.04138 0.73398
 C1922 C 0.22759 -0.03470 0.72756
 C1923 C 0.23402 -0.04118 0.71364
 C1924 C 0.22682 -0.05429 0.70637
 C1925 C 0.18557 -0.07477 0.72613
 C1926 C 0.19265 -0.06147 0.73319
 C1927 C 0.22613 -0.07438 0.68559
 C1928 C 0.23322 -0.06107 0.69265
 H1929 H 0.17504 -0.07982 0.73150
 H1930 H 0.18738 -0.05665 0.74380
 H1931 H 0.23150 -0.07928 0.67506
 H1932 H 0.24383 -0.05610 0.68737
 H1933 H 0.21083 -0.09985 0.67471
 H1934 H 0.17451 -0.10009 0.71069
 H1935 H 0.20862 -0.03657 0.74470
 H1936 H 0.24476 -0.03620 0.70860
 C1937 C 0.29358 0.29339 0.42537
 C1938 C 0.30717 0.28646 0.41872
 C1939 C 0.31392 0.29328 0.40521
 C1940 C 0.30716 0.30695 0.39828
 C1941 C 0.29350 0.31372 0.40519
 C1942 C 0.28666 0.30699 0.41870
 C1943 C 0.28638 0.28621 0.43951
 C1944 C 0.27269 0.29307 0.44607
 C1945 C 0.26572 0.28603 0.45936
 C1946 C 0.27231 0.27217 0.46604
 C1947 C 0.28616 0.26557 0.45938
 C1948 C 0.29322 0.27252 0.44610
 C1949 C 0.27300 0.31355 0.42563
 C1950 C 0.26612 0.30670 0.43908
 C1951 C 0.31371 0.27279 0.42568
 C1952 C 0.30685 0.26594 0.43913
 H1953 H 0.26753 0.32404 0.42059
 H1954 H 0.25555 0.31210 0.44400
 H1955 H 0.32420 0.26731 0.42066
 H1956 H 0.31223 0.25536 0.44408
 H1957 H 0.32438 0.28784 0.40016
 H1958 H 0.28807 0.32419 0.40012
 H1959 H 0.25503 0.29118 0.46430
 H1960 H 0.29130 0.25487 0.46435
 C1961 C 0.29416 0.79387 -0.07489
 C1962 C 0.30774 0.78691 -0.08153
 C1963 C 0.31447 0.79370 -0.09506
 C1964 C 0.30770 0.80734 -0.10201
 C1965 C 0.29407 0.81416 -0.09509
 C1966 C 0.28725 0.80746 -0.08156
 C1967 C 0.28694 0.78668 -0.06075
 C1968 C 0.27324 0.79354 -0.05422
 C1969 C 0.26624 0.78649 -0.04097
 C1970 C 0.27280 0.77262 -0.03430
 C1971 C 0.28666 0.76601 -0.04093
 C1972 C 0.29375 0.77297 -0.05418
 C1973 C 0.27360 0.81405 -0.07463
 C1974 C 0.26670 0.80720 -0.06119
 C1975 C 0.31428 0.77325 -0.07456
 C1976 C 0.30740 0.76639 -0.06112
 H1977 H 0.26814 0.82454 -0.07967
 H1978 H 0.25613 0.81261 -0.05628
 H1979 H 0.32477 0.76776 -0.07957
 H1980 H 0.31277 0.75580 -0.05618
 H1981 H 0.32493 0.78825 -0.10011
 H1982 H 0.28864 0.82462 -0.10017
 H1983 H 0.25553 0.79163 -0.03604
 H1984 H 0.29177 0.75529 -0.03598
 C1985 C 0.79359 0.29441 -0.07484
 C1986 C 0.80718 0.28748 -0.08148
 C1987 C 0.81392 0.29429 -0.09499
 C1988 C 0.80717 0.30796 -0.10191
 C1989 C 0.79354 0.31478 -0.09498
 C1990 C 0.78670 0.30804 -0.08148
 C1991 C 0.78633 0.28715 -0.06076
 C1992 C 0.77261 0.29397 -0.05423
 C1993 C 0.76555 0.28683 -0.04104
 C1994 C 0.77210 0.27292 -0.03442
 C1995 C 0.78599 0.26637 -0.04104
 C1996 C 0.79313 0.27341 -0.05423
 C1997 C 0.77303 0.31458 -0.07455
 C1998 C 0.76609 0.30766 -0.06116
 C1999 C 0.81370 0.27378 -0.07456
 C2000 C 0.80679 0.26686 -0.06117
 H2001 H 0.76758 0.32510 -0.07956
 H2002 H 0.75549 0.31303 -0.05626
 H2003 H 0.82419 0.26830 -0.07959
 H2004 H 0.81214 0.25625 -0.05627
 H2005 H 0.82430 0.28877 -0.10014
 H2006 H 0.78820 0.32530 -0.10003
 H2007 H 0.75483 0.29194 -0.03611
 H2008 H 0.79110 0.25564 -0.03613
 C2009 C 0.79375 0.79477 0.42549
 C2010 C 0.80729 0.78779 0.41878
 C2011 C 0.81392 0.79452 0.40519
 C2012 C 0.80710 0.80815 0.39825
 C2013 C 0.79356 0.81503 0.40525
 C2014 C 0.78682 0.80838 0.41884
 C2015 C 0.78657 0.78758 0.43964
 C2016 C 0.77289 0.79443 0.44622
 C2017 C 0.76589 0.78732 0.45945
 C2018 C 0.77243 0.77340 0.46605
 C2019 C 0.78629 0.76683 0.45939
 C2020 C 0.79338 0.77384 0.44616
 C2021 C 0.77322 0.81498 0.42584
 C2022 C 0.76636 0.80812 0.43929
 C2023 C 0.81384 0.77411 0.42571
 C2024 C 0.80700 0.76726 0.43917
 H2025 H 0.76775 0.82548 0.42082
 H2026 H 0.75580 0.81352 0.44425
 H2027 H 0.82428 0.76861 0.42064
 H2028 H 0.81237 0.75665 0.44408
 H2029 H 0.82423 0.78896 0.39995
 H2030 H 0.78822 0.82556 0.40020
 H2031 H 0.75519 0.79245 0.46441
 H2032 H 0.79140 0.75609 0.46430
 C2033 C 0.70618 0.29368 0.57477
 C2034 C 0.71317 0.30724 0.58142
 C2035 C 0.70640 0.31397 0.59494
 C2036 C 0.69274 0.30723 0.60189
 C2037 C 0.68589 0.29362 0.59496
 C2038 C 0.69257 0.28680 0.58143
 C2039 C 0.71335 0.28646 0.56064
 C2040 C 0.70647 0.27278 0.55410
 C2041 C 0.71353 0.26576 0.54087
 C2042 C 0.72744 0.27228 0.53423
 C2043 C 0.73405 0.28613 0.54086
 C2044 C 0.72708 0.29324 0.55409
 C2045 C 0.68595 0.27317 0.57450
 C2046 C 0.69279 0.26627 0.56107
 C2047 C 0.72685 0.31375 0.57446
 C2048 C 0.73370 0.30686 0.56103
 H2049 H 0.67545 0.26774 0.57953
 H2050 H 0.68737 0.25571 0.55615
 H2051 H 0.73237 0.32421 0.57949
 H2052 H 0.74430 0.31220 0.55610
 H2053 H 0.71189 0.32439 0.60001
 H2054 H 0.67542 0.28821 0.60003
 H2055 H 0.70837 0.25506 0.53595
 H2056 H 0.74478 0.29122 0.53592
 C2057 C 0.70549 0.79359 1.07474
 C2058 C 0.71255 0.80708 1.08145
 C2059 C 0.70586 0.81374 1.09504
 C2060 C 0.69221 0.80699 1.10198
 C2061 C 0.68527 0.79347 1.09500
 C2062 C 0.69188 0.78671 1.08141
 C2063 C 0.71261 0.78642 1.06055
 C2064 C 0.70568 0.77279 1.05396
 C2065 C 0.71273 0.76580 1.04070
 C2066 C 0.72666 0.77230 1.03409
 C2067 C 0.73330 0.78612 1.04076
 C2068 C 0.72635 0.79319 1.05401
 C2069 C 0.68519 0.77315 1.07440
 C2070 C 0.69198 0.76630 1.06091
 C2071 C 0.72624 0.81359 1.07450
 C2072 C 0.73302 0.80676 1.06102
 H2073 H 0.67468 0.76772 1.07943
 H2074 H 0.68652 0.75578 1.05596
 H2075 H 0.73181 0.82400 1.07958
 H2076 H 0.74364 0.81209 1.05609
 H2077 H 0.71148 0.82402 1.10027
 H2078 H 0.67472 0.78818 1.10006
 H2079 H 0.70753 0.75514 1.03573
 H2080 H 0.74404 0.79120 1.03584
 C2081 C 0.20625 0.29431 1.07460
 C2082 C 0.19273 0.28732 1.08134
 C2083 C 0.18614 0.29402 1.09495
 C2084 C 0.19297 0.30762 1.10190
 C2085 C 0.20649 0.31453 1.09487
 C2086 C 0.21320 0.30790 1.08125
 C2087 C 0.21341 0.28713 1.06044
 C2088 C 0.22708 0.29399 1.05384
 C2089 C 0.23406 0.28689 1.04060
 C2090 C 0.22749 0.27299 1.03402
 C2091 C 0.21364 0.26641 1.04070
 C2092 C 0.20658 0.27341 1.05394
 C2093 C 0.22680 0.31451 1.07422
 C2094 C 0.23363 0.30766 1.06076
 C2095 C 0.18616 0.27366 1.07441
 C2096 C 0.19297 0.26682 1.06095
 H2097 H 0.23228 0.32499 1.07923
 H2098 H 0.24419 0.31306 1.05579
 H2099 H 0.17572 0.26815 1.07951
 H2100 H 0.18759 0.25622 1.05605
 H2101 H 0.17582 0.28844 1.10016
 H2102 H 0.21185 0.32504 1.09991
 H2103 H 0.24475 0.29202 1.03564
 H2104 H 0.20852 0.25568 1.03581
 C2105 C 0.20558 0.79382 0.57460
 C2106 C 0.19195 0.78693 0.58125
 C2107 C 0.18530 0.79369 0.59482
 C2108 C 0.19221 0.80723 0.60180
 C2109 C 0.20585 0.81401 0.59488
 C2110 C 0.21259 0.80734 0.58131
 C2111 C 0.21275 0.78664 0.56046
 C2112 C 0.22650 0.79342 0.55394
 C2113 C 0.23348 0.78634 0.54070
 C2114 C 0.22686 0.77251 0.53403
 C2115 C 0.21293 0.76599 0.54064
 C2116 C 0.20585 0.77299 0.55387
 C2117 C 0.22628 0.81386 0.57439
 C2118 C 0.23312 0.80701 0.56094
 C2119 C 0.18531 0.77335 0.57425
 C2120 C 0.19216 0.76648 0.56081
 H2121 H 0.23181 0.82429 0.57946
 H2122 H 0.24375 0.81235 0.55604
 H2123 H 0.17480 0.76791 0.57927
 H2124 H 0.18673 0.75593 0.55586
 H2125 H 0.17474 0.78839 0.59985
 H2126 H 0.21143 0.82431 0.60010
 H2127 H 0.24422 0.79143 0.53579
 H2128 H 0.20776 0.75532 0.53567
 C2129 C 0.29369 0.70641 0.57470
 C2130 C 0.30727 0.71340 0.58130
 C2131 C 0.31407 0.70664 0.59481
 C2132 C 0.30736 0.69298 0.60180
 C2133 C 0.29372 0.68612 0.59492
 C2134 C 0.28684 0.69279 0.58141
 C2135 C 0.28640 0.71356 0.56058
 C2136 C 0.27271 0.70665 0.55409
 C2137 C 0.26565 0.71368 0.54085
 C2138 C 0.27215 0.72756 0.53414
 C2139 C 0.28601 0.73421 0.54073
 C2140 C 0.29316 0.72728 0.55397
 C2141 C 0.27319 0.68617 0.57452
 C2142 C 0.26624 0.69298 0.56110
 C2143 C 0.31375 0.72708 0.57430
 C2144 C 0.30681 0.73390 0.56087
 H2145 H 0.26778 0.67566 0.57959
 H2146 H 0.25566 0.68755 0.55622
 H2147 H 0.32423 0.73260 0.57927
 H2148 H 0.31213 0.74450 0.55590
 H2149 H 0.32452 0.71213 0.59983
 H2150 H 0.28835 0.67564 0.60001
 H2151 H 0.25495 0.70850 0.53595
 H2152 H 0.29108 0.74493 0.53575
 C2153 C 0.29391 0.20637 1.07471
 C2154 C 0.30753 0.21325 1.08135
 C2155 C 0.31424 0.20642 1.09486
 C2156 C 0.30742 0.19279 1.10181
 C2157 C 0.29374 0.18605 1.09490
 C2158 C 0.28695 0.19280 1.08139
 C2159 C 0.28671 0.21360 1.06060
 C2160 C 0.27298 0.20680 1.05407
 C2161 C 0.26598 0.21391 1.04084
 C2162 C 0.27258 0.22777 1.03418
 C2163 C 0.28648 0.23430 1.04080
 C2164 C 0.29357 0.22728 1.05402
 C2165 C 0.27327 0.18627 1.07446
 C2166 C 0.26639 0.19316 1.06104
 C2167 C 0.31413 0.22688 1.07437
 C2168 C 0.30726 0.23379 1.06095
 H2169 H 0.26778 0.17579 1.07950
 H2170 H 0.25579 0.18780 1.05612
 H2171 H 0.32465 0.23231 1.07938
 H2172 H 0.31268 0.24435 1.05601
 H2173 H 0.32473 0.21182 1.09990
 H2174 H 0.28827 0.17562 1.09998
 H2175 H 0.25526 0.20880 1.03592
 H2176 H 0.29163 0.24500 1.03584
 C2177 C 0.79351 0.70604 1.07467
 C2178 C 0.80703 0.71310 1.08133
 C2179 C 0.81375 0.70642 1.09490
 C2180 C 0.80705 0.69276 1.10189
 C2181 C 0.79351 0.68580 1.09494
 C2182 C 0.78668 0.69241 1.08137
 C2183 C 0.78625 0.71317 1.06053
 C2184 C 0.77259 0.70624 1.05400
 C2185 C 0.76552 0.71329 1.04076
 C2186 C 0.77198 0.72722 1.03411
 C2187 C 0.78583 0.73387 1.04072
 C2188 C 0.79298 0.72693 1.05395
 C2189 C 0.77308 0.68573 1.07442
 C2190 C 0.76615 0.69254 1.06098
 C2191 C 0.81349 0.72680 1.07435
 C2192 C 0.80658 0.73359 1.06089
 H2193 H 0.76769 0.67520 1.07947
 H2194 H 0.75560 0.68707 1.05606
 H2195 H 0.82393 0.73236 1.07937
 H2196 H 0.81188 0.74421 1.05595
 H2197 H 0.82406 0.71205 1.10006
 H2198 H 0.78823 0.67526 1.10002
 H2199 H 0.75484 0.70810 1.03585
 H2200 H 0.79089 0.74462 1.03578
 C2201 C 0.79383 0.20557 0.57469
 C2202 C 0.80737 0.21254 0.58140
 C2203 C 0.81402 0.20578 0.59497
 C2204 C 0.80720 0.19214 0.60190
 C2205 C 0.79364 0.18528 0.59491
 C2206 C 0.78689 0.19196 0.58134
 C2207 C 0.78666 0.21277 0.56054
 C2208 C 0.77298 0.20593 0.55396
 C2209 C 0.76599 0.21304 0.54073
 C2210 C 0.77254 0.22696 0.53414
 C2211 C 0.78641 0.23352 0.54079
 C2212 C 0.79348 0.22650 0.55402
 C2213 C 0.77328 0.18538 0.57434
 C2214 C 0.76643 0.19225 0.56089
 C2215 C 0.81392 0.22622 0.57448
 C2216 C 0.80709 0.23309 0.56103
 H2217 H 0.76780 0.17488 0.57936
 H2218 H 0.75586 0.18687 0.55594
 H2219 H 0.82437 0.23172 0.57956
 H2220 H 0.81246 0.24370 0.55613
 H2221 H 0.82434 0.21132 0.60020
 H2222 H 0.78831 0.17474 0.59995
 H2223 H 0.75530 0.20791 0.53577
 H2224 H 0.79153 0.24425 0.53588
 C2225 C 0.70617 0.70659 0.42563
 C2226 C 0.71320 0.69306 0.41897
 C2227 C 0.70647 0.68634 0.40542
 C2228 C 0.69280 0.69305 0.39847
 C2229 C 0.68592 0.70664 0.40541
 C2230 C 0.69256 0.71345 0.41896
 C2231 C 0.71331 0.71381 0.43977
 C2232 C 0.70639 0.72747 0.44632
 C2233 C 0.71344 0.73451 0.45954
 C2234 C 0.72737 0.72803 0.46617
 C2235 C 0.73400 0.71418 0.45956
 C2236 C 0.72705 0.70705 0.44633
 C2237 C 0.68589 0.72705 0.42592
 C2238 C 0.69269 0.73395 0.43936
 C2239 C 0.72687 0.68655 0.42595
 C2240 C 0.73368 0.69343 0.43939
 H2241 H 0.67537 0.73245 0.42089
 H2242 H 0.68724 0.74449 0.44429
 H2243 H 0.73241 0.67609 0.42092
 H2244 H 0.74429 0.68810 0.44433
 H2245 H 0.71199 0.67593 0.40035
 H2246 H 0.67544 0.71203 0.40034
 H2247 H 0.70825 0.74519 0.46447
 H2248 H 0.74474 0.70911 0.46450
 C2249 C 0.70602 0.20607 -0.07506
 C2250 C 0.71311 0.19258 -0.08173
 C2251 C 0.70646 0.18589 -0.09532
 C2252 C 0.69281 0.19260 -0.10231
 C2253 C 0.68582 0.20611 -0.09534
 C2254 C 0.69240 0.21291 -0.08175
 C2255 C 0.71312 0.21330 -0.06089
 C2256 C 0.70616 0.22693 -0.05434
 C2257 C 0.71317 0.23397 -0.04110
 C2258 C 0.72710 0.22751 -0.03445
 C2259 C 0.73379 0.21369 -0.04108
 C2260 C 0.72687 0.20657 -0.05432
 C2261 C 0.68569 0.22648 -0.07479
 C2262 C 0.69246 0.23338 -0.06133
 C2263 C 0.72681 0.18612 -0.07476
 C2264 C 0.73358 0.19300 -0.06129
 H2265 H 0.67518 0.23189 -0.07985
 H2266 H 0.68698 0.24392 -0.05641
 H2267 H 0.73241 0.17571 -0.07981
 H2268 H 0.74421 0.18771 -0.05636
 H2269 H 0.71210 0.17559 -0.10050
 H2270 H 0.67528 0.21139 -0.10042
 H2271 H 0.70795 0.24464 -0.03616
 H2272 H 0.74454 0.20865 -0.03613
 C2273 C 0.20635 0.70630 -0.07484
 C2274 C 0.19273 0.71321 -0.08148
 C2275 C 0.18599 0.70639 -0.09497
 C2276 C 0.19277 0.69274 -0.10189
 C2277 C 0.20643 0.68596 -0.09497
 C2278 C 0.21326 0.69270 -0.08148
 C2279 C 0.21358 0.71352 -0.06075
 C2280 C 0.22729 0.70669 -0.05421
 C2281 C 0.23429 0.71378 -0.04098
 C2282 C 0.22771 0.72764 -0.03434
 C2283 C 0.21384 0.73422 -0.04099
 C2284 C 0.20674 0.72722 -0.05421
 C2285 C 0.22693 0.68614 -0.07454
 C2286 C 0.23384 0.69303 -0.06115
 C2287 C 0.18618 0.72687 -0.07454
 C2288 C 0.19307 0.73377 -0.06114
 H2289 H 0.23239 0.67564 -0.07955
 H2290 H 0.24443 0.68766 -0.05623
 H2291 H 0.17566 0.73232 -0.07954
 H2292 H 0.18770 0.74435 -0.05622
 H2293 H 0.17552 0.71182 -0.10002
 H2294 H 0.21185 0.67550 -0.10003
 H2295 H 0.24501 0.70866 -0.03605
 H2296 H 0.20871 0.74492 -0.03605
 C2297 C 0.20611 0.20585 0.42539
 C2298 C 0.19260 0.21287 0.41866
 C2299 C 0.18598 0.20616 0.40506
 C2300 C 0.19278 0.19253 0.39813
 C2301 C 0.20631 0.18562 0.40515
 C2302 C 0.21303 0.19225 0.41875
 C2303 C 0.21326 0.21301 0.43956
 C2304 C 0.22690 0.20612 0.44618
 C2305 C 0.23387 0.21318 0.45943
 C2306 C 0.22731 0.22708 0.46603
 C2307 C 0.21349 0.23370 0.45934
 C2308 C 0.20644 0.22674 0.44608
 C2309 C 0.22662 0.18562 0.42578
 C2310 C 0.23345 0.19245 0.43925
 C2311 C 0.18605 0.22654 0.42558
 C2312 C 0.19285 0.23336 0.43905
 H2313 H 0.23208 0.17512 0.42077
 H2314 H 0.24399 0.18703 0.44423
 H2315 H 0.17562 0.23207 0.42048
 H2316 H 0.18749 0.24397 0.44395
 H2317 H 0.17568 0.21175 0.39984
 H2318 H 0.21166 0.17510 0.40012
 H2319 H 0.24454 0.20802 0.46442
 H2320 H 0.20837 0.24443 0.46424
 C2321 C 0.29401 0.42499 0.70581
 C2322 C 0.28709 0.41843 0.69227
 C2323 C 0.29384 0.40481 0.68553
 C2324 C 0.30743 0.39769 0.69223
 C2325 C 0.31422 0.40452 0.70582
 C2326 C 0.30755 0.41815 0.71265
 C2327 C 0.28685 0.43921 0.71304
 C2328 C 0.29366 0.44566 0.72670
 C2329 C 0.28657 0.45895 0.73375
 C2330 C 0.27272 0.46573 0.72728
 C2331 C 0.26619 0.45922 0.71343
 C2332 C 0.27319 0.44594 0.70629
 C2333 C 0.31411 0.42501 0.72626
 C2334 C 0.30727 0.43853 0.73317
 C2335 C 0.27349 0.42557 0.68578
 C2336 C 0.26665 0.43909 0.69268
 H2337 H 0.32456 0.41985 0.73166
 H2338 H 0.31264 0.44339 0.74371
 H2339 H 0.26804 0.42062 0.67533
 H2340 H 0.25610 0.44415 0.68736
 H2341 H 0.28838 0.39980 0.67515
 H2342 H 0.32464 0.39930 0.71119
 H2343 H 0.29168 0.46381 0.74442
 H2344 H 0.25551 0.46429 0.70836
 C2345 C 0.29394 0.92537 0.20582
 C2346 C 0.30751 0.91853 0.21261
 C2347 C 0.31420 0.90495 0.20571
 C2348 C 0.30739 0.89815 0.19211
 C2349 C 0.29379 0.90528 0.18545
 C2350 C 0.28702 0.91886 0.19226
 C2351 C 0.28672 0.93951 0.21316
 C2352 C 0.27302 0.94622 0.20647
 C2353 C 0.26598 0.95943 0.21371
 C2354 C 0.27251 0.96589 0.22758
 C2355 C 0.28641 0.95912 0.23398
 C2356 C 0.29353 0.94590 0.22684
 C2357 C 0.27338 0.92598 0.18584
 C2358 C 0.26649 0.93943 0.19283
 C2359 C 0.31406 0.92534 0.22624
 C2360 C 0.30719 0.93879 0.23324
 H2361 H 0.26792 0.92108 0.17536
 H2362 H 0.25592 0.94449 0.18755
 H2363 H 0.32454 0.92018 0.23160
 H2364 H 0.31256 0.94360 0.24380
 H2365 H 0.32464 0.89973 0.21104
 H2366 H 0.28832 0.90030 0.17505
 H2367 H 0.25528 0.96449 0.20869
 H2368 H 0.29151 0.96393 0.24468
 C2369 C 0.79368 0.42524 0.20554
 C2370 C 0.80720 0.41837 0.21239
 C2371 C 0.81390 0.40479 0.20551
 C2372 C 0.80718 0.39804 0.19185
 C2373 C 0.79363 0.40521 0.18512
 C2374 C 0.78683 0.41877 0.19193
 C2375 C 0.78647 0.43940 0.21283
 C2376 C 0.77283 0.44616 0.20608
 C2377 C 0.76581 0.45941 0.21326
 C2378 C 0.77232 0.46587 0.22714
 C2379 C 0.78614 0.45904 0.23362
 C2380 C 0.79324 0.44578 0.22654
 C2381 C 0.77325 0.42594 0.18543
 C2382 C 0.76636 0.43940 0.19239
 C2383 C 0.81370 0.42515 0.22606
 C2384 C 0.80684 0.43863 0.23301
 H2385 H 0.76785 0.42107 0.17491
 H2386 H 0.75584 0.44450 0.18705
 H2387 H 0.82415 0.41997 0.23146
 H2388 H 0.81218 0.44343 0.24359
 H2389 H 0.82428 0.39952 0.21091
 H2390 H 0.78825 0.40030 0.17464
 H2391 H 0.75515 0.46451 0.20818
 H2392 H 0.79122 0.46385 0.24433
 C2393 C 0.79432 0.92561 0.70500
 C2394 C 0.80781 0.91874 0.71192
 C2395 C 0.81451 0.90511 0.70513
 C2396 C 0.80776 0.89824 0.69153
 C2397 C 0.79432 0.90550 0.68466
 C2398 C 0.78753 0.91912 0.69137
 C2399 C 0.78700 0.93972 0.71232
 C2400 C 0.77334 0.94642 0.70554
 C2401 C 0.76617 0.95957 0.71279
 C2402 C 0.77254 0.96597 0.72677
 C2403 C 0.78641 0.95922 0.73325
 C2404 C 0.79365 0.94606 0.72610
 C2405 C 0.77395 0.92627 0.68483
 C2406 C 0.76698 0.93968 0.69179
 C2407 C 0.81422 0.92553 0.72563
 C2408 C 0.80726 0.93896 0.73259
 H2409 H 0.76860 0.92138 0.67429
 H2410 H 0.75645 0.94475 0.68643
 H2411 H 0.82464 0.92036 0.73109
 H2412 H 0.81252 0.94375 0.74322
 H2413 H 0.82481 0.89978 0.71063
 H2414 H 0.78896 0.90053 0.67419
 H2415 H 0.75549 0.96462 0.70771
 H2416 H 0.79140 0.96398 0.74401
 C2417 C 0.70625 0.57483 0.70604
 C2418 C 0.69266 0.58163 0.71282
 C2419 C 0.68591 0.59516 0.70588
 C2420 C 0.69267 0.60198 0.69225
 C2421 C 0.70630 0.59489 0.68560
 C2422 C 0.71314 0.58135 0.69245
 C2423 C 0.71350 0.56071 0.71340
 C2424 C 0.72721 0.55402 0.70671
 C2425 C 0.73424 0.54079 0.71393
 C2426 C 0.72769 0.53427 0.72778
 C2427 C 0.71382 0.54105 0.73422
 C2428 C 0.70670 0.55429 0.72709
 C2429 C 0.72680 0.57426 0.68604
 C2430 C 0.73373 0.56084 0.69306
 C2431 C 0.68613 0.57481 0.72647
 C2432 C 0.69304 0.56138 0.73349
 H2433 H 0.73225 0.57918 0.67555
 H2434 H 0.74432 0.55581 0.68779
 H2435 H 0.67564 0.57995 0.73183
 H2436 H 0.68769 0.55656 0.74407
 H2437 H 0.67546 0.60035 0.71121
 H2438 H 0.71171 0.59985 0.67514
 H2439 H 0.74494 0.53574 0.70890
 H2440 H 0.70871 0.53621 0.74491
 C2441 C 0.70647 0.07441 0.20605
 C2442 C 0.71334 0.08088 0.19243
 C2443 C 0.70660 0.09449 0.18564
 C2444 C 0.69307 0.10171 0.19237
 C2445 C 0.68634 0.09496 0.20605
 C2446 C 0.69299 0.08134 0.21292
 C2447 C 0.71363 0.06020 0.21334
 C2448 C 0.70685 0.05383 0.22706
 C2449 C 0.71391 0.04052 0.23414
 C2450 C 0.72770 0.03364 0.22764
 C2451 C 0.73420 0.04009 0.21374
 C2452 C 0.72723 0.05339 0.20656
 C2453 C 0.68648 0.07456 0.22660
 C2454 C 0.69330 0.06104 0.23355
 C2455 C 0.72688 0.07366 0.18592
 C2456 C 0.73371 0.06015 0.19287
 H2457 H 0.67607 0.07978 0.23203
 H2458 H 0.68796 0.05624 0.24415
 H2459 H 0.73230 0.07854 0.17540
 H2460 H 0.74421 0.05502 0.18752
 H2461 H 0.71198 0.09940 0.17514
 H2462 H 0.67599 0.10026 0.21146
 H2463 H 0.70883 0.03573 0.24487
 H2464 H 0.74484 0.03496 0.20865
 C2465 C 0.20608 0.57503 0.20576
 C2466 C 0.21286 0.58151 0.19210
 C2467 C 0.20603 0.59508 0.18532
 C2468 C 0.19252 0.60226 0.19212
 C2469 C 0.18587 0.59550 0.20583
 C2470 C 0.19260 0.58191 0.21269
 C2471 C 0.21334 0.56087 0.21304
 C2472 C 0.20665 0.55449 0.22680
 C2473 C 0.21378 0.54121 0.23385
 C2474 C 0.22757 0.53438 0.22729
 C2475 C 0.23400 0.54085 0.21337
 C2476 C 0.22694 0.55411 0.20621
 C2477 C 0.18618 0.57512 0.22640
 C2478 C 0.19309 0.56164 0.23334
 C2479 C 0.22640 0.57434 0.18554
 C2480 C 0.23333 0.56088 0.19248
 H2481 H 0.17578 0.58031 0.23187
 H2482 H 0.18781 0.55683 0.24396
 H2483 H 0.23174 0.57923 0.17499
 H2484 H 0.24382 0.55578 0.18709
 H2485 H 0.21134 0.59998 0.17480
 H2486 H 0.17553 0.60077 0.21128
 H2487 H 0.20877 0.53641 0.24460
 H2488 H 0.24463 0.53576 0.20824
 C2489 C 0.20604 0.07435 0.70604
 C2490 C 0.19248 0.08114 0.71290
 C2491 C 0.18568 0.09466 0.70598
 C2492 C 0.19234 0.10143 0.69229
 C2493 C 0.20596 0.09437 0.68559
 C2494 C 0.21285 0.08086 0.69242
 C2495 C 0.21336 0.06025 0.71338
 C2496 C 0.22703 0.05357 0.70661
 C2497 C 0.23409 0.04032 0.71378
 C2498 C 0.22762 0.03379 0.72765
 C2499 C 0.21380 0.04058 0.73418
 C2500 C 0.20665 0.05384 0.72712
 C2501 C 0.22648 0.07379 0.68593
 C2502 C 0.23346 0.06038 0.69292
 C2503 C 0.18605 0.07434 0.72660
 C2504 C 0.19302 0.06093 0.73360
 H2505 H 0.23186 0.07870 0.67541
 H2506 H 0.24401 0.05534 0.68759
 H2507 H 0.17559 0.07948 0.73202
 H2508 H 0.18773 0.05611 0.74420
 H2509 H 0.17522 0.09981 0.71132
 H2510 H 0.21130 0.09931 0.67509
 H2511 H 0.24477 0.03528 0.70868
 H2512 H 0.20876 0.03575 0.74490
 C2513 C 0.29390 0.57493 0.29397
 C2514 C 0.28702 0.58140 0.30756
 C2515 C 0.29377 0.59500 0.31434
 C2516 C 0.30732 0.60218 0.30762
 C2517 C 0.31406 0.59543 0.29397
 C2518 C 0.30740 0.58183 0.28710
 C2519 C 0.28673 0.56073 0.28669
 C2520 C 0.29352 0.55435 0.27299
 C2521 C 0.28645 0.54106 0.26593
 C2522 C 0.27265 0.53421 0.27243
 C2523 C 0.26613 0.54067 0.28631
 C2524 C 0.27311 0.55395 0.29347
 C2525 C 0.31392 0.57504 0.27344
 C2526 C 0.30710 0.56153 0.26650
 C2527 C 0.27346 0.57421 0.31407
 C2528 C 0.26661 0.56072 0.30714
 H2529 H 0.32435 0.58025 0.26803
 H2530 H 0.31245 0.55673 0.25593
 H2531 H 0.26804 0.57910 0.32458
 H2532 H 0.25611 0.55560 0.31249
 H2533 H 0.28838 0.59991 0.32482
 H2534 H 0.32443 0.60072 0.28857
 H2535 H 0.29153 0.53626 0.25522
 H2536 H 0.25548 0.53556 0.29139
 C2537 C 0.29393 0.07452 0.79434
 C2538 C 0.30746 0.08138 0.78750
 C2539 C 0.31415 0.09496 0.79439
 C2540 C 0.30739 0.10174 0.80802
 C2541 C 0.29382 0.09458 0.81472
 C2542 C 0.28704 0.08101 0.80792
 C2543 C 0.28673 0.06035 0.78704
 C2544 C 0.27307 0.05360 0.79378
 C2545 C 0.26608 0.04034 0.78660
 C2546 C 0.27261 0.03387 0.77274
 C2547 C 0.28643 0.04070 0.76626
 C2548 C 0.29352 0.05396 0.77334
 C2549 C 0.27344 0.07386 0.81440
 C2550 C 0.26657 0.06039 0.80744
 C2551 C 0.31398 0.07459 0.77385
 C2552 C 0.30713 0.06111 0.76688
 H2553 H 0.26801 0.07876 0.82489
 H2554 H 0.25602 0.05532 0.81276
 H2555 H 0.32443 0.07978 0.76845
 H2556 H 0.31248 0.05632 0.75630
 H2557 H 0.32455 0.10020 0.78902
 H2558 H 0.28841 0.09951 0.82518
 H2559 H 0.25541 0.03525 0.79168
 H2560 H 0.29153 0.03587 0.75556
 C2561 C 0.79398 0.57503 0.79427
 C2562 C 0.80744 0.58194 0.78733
 C2563 C 0.81412 0.59556 0.79414
 C2564 C 0.80743 0.60232 0.80782
 C2565 C 0.79392 0.59513 0.81461
 C2566 C 0.78715 0.58152 0.80788
 C2567 C 0.78680 0.56081 0.78706
 C2568 C 0.77322 0.55402 0.79391
 C2569 C 0.76623 0.54072 0.78680
 C2570 C 0.77269 0.53425 0.77290
 C2571 C 0.78647 0.54110 0.76634
 C2572 C 0.79354 0.55441 0.77334
 C2573 C 0.77363 0.57432 0.81447
 C2574 C 0.76677 0.56081 0.80759
 C2575 C 0.81391 0.57513 0.77366
 C2576 C 0.80708 0.56160 0.76678
 H2577 H 0.76824 0.57923 0.82498
 H2578 H 0.75629 0.55569 0.81299
 H2579 H 0.82430 0.58035 0.76818
 H2580 H 0.81238 0.55678 0.75619
 H2581 H 0.82446 0.60085 0.78869
 H2582 H 0.78857 0.60005 0.82510
 H2583 H 0.75561 0.53560 0.79194
 H2584 H 0.79151 0.53629 0.75562
 C2585 C 0.79388 0.07461 0.29422
 C2586 C 0.78704 0.08110 0.30783
 C2587 C 0.79380 0.09471 0.31456
 C2588 C 0.80730 0.10192 0.30777
 C2589 C 0.81399 0.09517 0.29409
 C2590 C 0.80733 0.08153 0.28728
 C2591 C 0.78671 0.06038 0.28700
 C2592 C 0.79346 0.05399 0.27329
 C2593 C 0.78639 0.04067 0.26628
 C2594 C 0.77261 0.03381 0.27284
 C2595 C 0.76615 0.04027 0.28674
 C2596 C 0.77313 0.05358 0.29385
 C2597 C 0.81381 0.07473 0.27361
 C2598 C 0.80699 0.06119 0.26673
 C2599 C 0.77353 0.07388 0.31441
 C2600 C 0.76668 0.06036 0.30753
 H2601 H 0.82420 0.07996 0.26813
 H2602 H 0.81231 0.05638 0.25614
 H2603 H 0.76814 0.07878 0.32493
 H2604 H 0.75621 0.05523 0.31294
 H2605 H 0.78844 0.09963 0.32505
 H2606 H 0.82432 0.10047 0.28863
 H2607 H 0.79144 0.03586 0.25556
 H2608 H 0.75553 0.03514 0.29188
 C2609 C 0.70617 0.42536 0.29404
 C2610 C 0.69262 0.41850 0.28723
 C2611 C 0.68600 0.40486 0.29408
 C2612 C 0.69284 0.39800 0.30765
 C2613 C 0.70643 0.40515 0.31432
 C2614 C 0.71313 0.41879 0.30756
 C2615 C 0.71331 0.43959 0.28676
 C2616 C 0.72699 0.44632 0.29346
 C2617 C 0.73396 0.45960 0.28629
 C2618 C 0.72739 0.46612 0.27244
 C2619 C 0.71352 0.45934 0.26602
 C2620 C 0.70646 0.44604 0.27311
 C2621 C 0.72675 0.42594 0.31400
 C2622 C 0.73356 0.43946 0.30707
 C2623 C 0.68603 0.42537 0.27363
 C2624 C 0.69283 0.43890 0.26669
 H2625 H 0.73224 0.42098 0.32444
 H2626 H 0.74412 0.44453 0.31236
 H2627 H 0.67557 0.42020 0.26825
 H2628 H 0.68743 0.44376 0.25615
 H2629 H 0.67557 0.39963 0.28875
 H2630 H 0.71193 0.40013 0.32469
 H2631 H 0.74465 0.46467 0.29132
 H2632 H 0.70839 0.46419 0.25535
 C2633 C 0.70548 0.92557 0.79418
 C2634 C 0.69180 0.91887 0.78745
 C2635 C 0.68496 0.90540 0.79445
 C2636 C 0.69172 0.89856 0.80806
 C2637 C 0.70542 0.90557 0.81466
 C2638 C 0.71234 0.91904 0.80776
 C2639 C 0.71284 0.93961 0.78675
 C2640 C 0.72662 0.94621 0.79338
 C2641 C 0.73375 0.95937 0.78610
 C2642 C 0.72724 0.96589 0.77223
 C2643 C 0.71329 0.95921 0.76586
 C2644 C 0.70607 0.94605 0.77305
 C2645 C 0.72609 0.92602 0.81411
 C2646 C 0.73310 0.93938 0.80705
 C2647 C 0.68532 0.92571 0.77379
 C2648 C 0.69233 0.93906 0.76672
 H2649 H 0.73151 0.92109 0.82459
 H2650 H 0.74372 0.94436 0.81229
 H2651 H 0.67477 0.92065 0.76848
 H2652 H 0.68698 0.94391 0.75615
 H2653 H 0.67440 0.90030 0.78924
 H2654 H 0.71090 0.90047 0.82502
 H2655 H 0.74450 0.96435 0.79110
 H2656 H 0.70820 0.96406 0.75517
 C2657 C 0.20599 0.42518 0.79392
 C2658 C 0.19242 0.41839 0.78709
 C2659 C 0.18567 0.40483 0.79398
 C2660 C 0.19242 0.39799 0.80761
 C2661 C 0.20601 0.40509 0.81431
 C2662 C 0.21284 0.41864 0.80751
 C2663 C 0.21325 0.43932 0.78662
 C2664 C 0.22694 0.44599 0.79335
 C2665 C 0.23402 0.45921 0.78617
 C2666 C 0.22754 0.46574 0.77229
 C2667 C 0.21367 0.45899 0.76582
 C2668 C 0.20651 0.44576 0.77291
 C2669 C 0.22648 0.42572 0.81398
 C2670 C 0.23342 0.43916 0.80702
 C2671 C 0.18593 0.42524 0.77343
 C2672 C 0.19286 0.43869 0.76646
 H2673 H 0.23188 0.42078 0.82448
 H2674 H 0.24398 0.44418 0.81232
 H2675 H 0.17546 0.42012 0.76803
 H2676 H 0.18755 0.44353 0.75588
 H2677 H 0.17524 0.39964 0.78863
 H2678 H 0.21142 0.40009 0.82474
 H2679 H 0.24471 0.46424 0.79124
 H2680 H 0.20861 0.46385 0.75512
 C2681 C 0.20537 0.92531 0.29453
 C2682 C 0.19170 0.91867 0.28774
 C2683 C 0.18474 0.90525 0.29471
 C2684 C 0.19141 0.89839 0.30834
 C2685 C 0.20510 0.90533 0.31503
 C2686 C 0.21214 0.91875 0.30816
 C2687 C 0.21283 0.93931 0.28714
 C2688 C 0.22661 0.94584 0.29383
 C2689 C 0.23381 0.95900 0.28661
 C2690 C 0.22734 0.96558 0.27275
 C2691 C 0.21343 0.95893 0.26629
 C2692 C 0.20615 0.94578 0.27342
 C2693 C 0.22590 0.92565 0.31455
 C2694 C 0.23302 0.93896 0.30751
 C2695 C 0.18532 0.92552 0.27404
 C2696 C 0.19243 0.93884 0.26699
 H2697 H 0.23127 0.92068 0.32505
 H2698 H 0.24368 0.94386 0.31277
 H2699 H 0.17479 0.92050 0.26866
 H2700 H 0.18719 0.94368 0.25638
 H2701 H 0.17417 0.90021 0.28946
 H2702 H 0.21049 0.90021 0.32542
 H2703 H 0.24454 0.96395 0.29166
 H2704 H 0.20838 0.96382 0.25560
 C2705 C 0.42522 0.29371 0.70601
 C2706 C 0.41836 0.30724 0.71283
 C2707 C 0.40474 0.31390 0.70597
 C2708 C 0.39792 0.30711 0.69237
 C2709 C 0.40506 0.29353 0.68570
 C2710 C 0.41868 0.28678 0.69247
 C2711 C 0.43943 0.28654 0.71329
 C2712 C 0.44616 0.27288 0.70657
 C2713 C 0.45944 0.26589 0.71375
 C2714 C 0.46593 0.27241 0.72760
 C2715 C 0.45914 0.28627 0.73404
 C2716 C 0.44585 0.29335 0.72696
 C2717 C 0.42582 0.27317 0.68602
 C2718 C 0.43933 0.26634 0.69295
 C2719 C 0.42520 0.31380 0.72645
 C2720 C 0.43871 0.30697 0.73339
 H2721 H 0.42088 0.26771 0.67556
 H2722 H 0.44440 0.25579 0.68765
 H2723 H 0.42002 0.32425 0.73184
 H2724 H 0.44355 0.31234 0.74394
 H2725 H 0.39951 0.32433 0.71131
 H2726 H 0.40006 0.28806 0.67530
 H2727 H 0.46451 0.25521 0.70870
 H2728 H 0.46398 0.29138 0.74472
 C2729 C 0.42517 0.79407 0.20561
 C2730 C 0.41860 0.78718 0.19207
 C2731 C 0.40497 0.79394 0.18535
 C2732 C 0.39785 0.80751 0.19208
 C2733 C 0.40471 0.81428 0.20567
 C2734 C 0.41834 0.80760 0.21248
 C2735 C 0.43937 0.78686 0.21286
 C2736 C 0.44582 0.79363 0.22653
 C2737 C 0.45909 0.78651 0.23359
 C2738 C 0.46584 0.77264 0.22713
 C2739 C 0.45933 0.76615 0.21327
 C2740 C 0.44607 0.77319 0.20611
 C2741 C 0.42522 0.81412 0.22609
 C2742 C 0.43872 0.80725 0.23300
 C2743 C 0.42572 0.77359 0.18557
 C2744 C 0.43923 0.76671 0.19247
 H2745 H 0.42006 0.82457 0.23151
 H2746 H 0.44359 0.81260 0.24355
 H2747 H 0.42077 0.76816 0.17510
 H2748 H 0.44428 0.75617 0.18714
 H2749 H 0.39995 0.78851 0.17495
 H2750 H 0.39949 0.82469 0.21104
 H2751 H 0.46394 0.79159 0.24428
 H2752 H 0.46438 0.75547 0.20820
 C2753 C 0.92493 0.29399 0.20569
 C2754 C 0.91850 0.28718 0.19204
 C2755 C 0.90494 0.29398 0.18522
 C2756 C 0.89773 0.30750 0.19196
 C2757 C 0.90443 0.31417 0.20567
 C2758 C 0.91800 0.30747 0.21258
 C2759 C 0.93909 0.28678 0.21301
 C2760 C 0.94544 0.29350 0.22675
 C2761 C 0.95871 0.28640 0.23384
 C2762 C 0.96558 0.27262 0.22732
 C2763 C 0.95915 0.26617 0.21340
 C2764 C 0.94590 0.27319 0.20621
 C2765 C 0.92475 0.31392 0.22629
 C2766 C 0.93823 0.30706 0.23325
 C2767 C 0.92571 0.27364 0.18552
 C2768 C 0.93917 0.26676 0.19249
 H2769 H 0.91953 0.32433 0.23172
 H2770 H 0.94301 0.31236 0.24386
 H2771 H 0.92086 0.26828 0.17498
 H2772 H 0.94431 0.25627 0.18713
 H2773 H 0.90007 0.28864 0.17470
 H2774 H 0.89912 0.32451 0.21109
 H2775 H 0.96348 0.29144 0.24459
 H2776 H 0.96428 0.25554 0.20830
 C2777 C 0.92531 0.79476 0.70544
 C2778 C 0.91872 0.78796 0.69185
 C2779 C 0.90523 0.79493 0.68505
 C2780 C 0.89827 0.80860 0.69174
 C2781 C 0.90515 0.81529 0.70535
 C2782 C 0.91864 0.80840 0.71225
 C2783 C 0.93938 0.78735 0.71275
 C2784 C 0.94587 0.79405 0.72644
 C2785 C 0.95906 0.78680 0.73353
 C2786 C 0.96572 0.77289 0.72706
 C2787 C 0.95914 0.76644 0.71320
 C2788 C 0.94595 0.77361 0.70603
 C2789 C 0.92553 0.81481 0.72590
 C2790 C 0.93891 0.80776 0.73288
 C2791 C 0.92567 0.77425 0.68541
 C2792 C 0.93906 0.76719 0.69238
 H2793 H 0.92050 0.82533 0.73129
 H2794 H 0.94380 0.81304 0.74345
 H2795 H 0.92069 0.76887 0.67493
 H2796 H 0.94401 0.75659 0.68707
 H2797 H 0.90010 0.78951 0.67469
 H2798 H 0.90007 0.82583 0.71063
 H2799 H 0.96396 0.79185 0.74421
 H2800 H 0.96411 0.75572 0.70814
 C2801 C 0.57507 0.29399 0.29420
 C2802 C 0.58163 0.28708 0.30775
 C2803 C 0.59527 0.29382 0.31446
 C2804 C 0.60243 0.30737 0.30772
 C2805 C 0.59557 0.31416 0.29413
 C2806 C 0.58193 0.30752 0.28732
 C2807 C 0.56087 0.28681 0.28695
 C2808 C 0.55443 0.29360 0.27327
 C2809 C 0.54117 0.28648 0.26620
 C2810 C 0.53441 0.27261 0.27267
 C2811 C 0.54090 0.26612 0.28656
 C2812 C 0.55415 0.27315 0.29372
 C2813 C 0.57506 0.31406 0.27370
 C2814 C 0.56155 0.30722 0.26679
 C2815 C 0.57449 0.27350 0.31427
 C2816 C 0.56098 0.26664 0.30737
 H2817 H 0.58023 0.32450 0.26828
 H2818 H 0.55669 0.31258 0.25624
 H2819 H 0.57944 0.26806 0.32474
 H2820 H 0.55591 0.25611 0.31271
 H2821 H 0.60029 0.28836 0.32486
 H2822 H 0.60081 0.32456 0.28873
 H2823 H 0.53633 0.29156 0.25550
 H2824 H 0.53584 0.25543 0.29163
 C2825 C 0.57477 0.79471 0.79498
 C2826 C 0.58125 0.78791 0.80862
 C2827 C 0.59487 0.79470 0.81534
 C2828 C 0.60213 0.80814 0.80847
 C2829 C 0.59529 0.81488 0.79485
 C2830 C 0.58165 0.80819 0.78804
 C2831 C 0.56063 0.78742 0.78768
 C2832 C 0.55428 0.79409 0.77390
 C2833 C 0.54108 0.78689 0.76678
 C2834 C 0.53430 0.77305 0.77329
 C2835 C 0.54071 0.76666 0.78726
 C2836 C 0.55390 0.77378 0.79447
 C2837 C 0.57487 0.81460 0.77432
 C2838 C 0.56141 0.80767 0.76737
 C2839 C 0.57410 0.77434 0.81517
 C2840 C 0.56066 0.76739 0.80822
 H2841 H 0.58006 0.82501 0.76884
 H2842 H 0.55663 0.81293 0.75674
 H2843 H 0.57899 0.76898 0.82571
 H2844 H 0.55558 0.75687 0.81359
 H2845 H 0.59983 0.78934 0.82582
 H2846 H 0.60062 0.82517 0.78934
 H2847 H 0.53631 0.79189 0.75601
 H2848 H 0.53564 0.75600 0.79236
 C2849 C 0.07468 0.29401 0.79388
 C2850 C 0.08117 0.28713 0.80749
 C2851 C 0.09474 0.29391 0.81429
 C2852 C 0.10189 0.30748 0.80759
 C2853 C 0.09510 0.31426 0.79396
 C2854 C 0.08153 0.30756 0.78706
 C2855 C 0.06054 0.28679 0.78655
 C2856 C 0.05417 0.29356 0.77282
 C2857 C 0.04095 0.28642 0.76569
 C2858 C 0.03416 0.27256 0.77215
 C2859 C 0.04061 0.26606 0.78605
 C2860 C 0.05382 0.27311 0.79327
 C2861 C 0.07474 0.31408 0.77339
 C2862 C 0.06129 0.30720 0.76639
 C2863 C 0.07403 0.27352 0.81395
 C2864 C 0.06059 0.26662 0.80696
 H2865 H 0.07991 0.32455 0.76801
 H2866 H 0.05650 0.31254 0.75580
 H2867 H 0.07892 0.26810 0.82446
 H2868 H 0.05552 0.25607 0.81227
 H2869 H 0.09969 0.28848 0.82474
 H2870 H 0.10033 0.32468 0.78861
 H2871 H 0.03614 0.29150 0.75498
 H2872 H 0.03553 0.25539 0.79111
 C2873 C 0.07449 0.79465 0.29500
 C2874 C 0.08094 0.78785 0.30866
 C2875 C 0.09457 0.79461 0.31539
 C2876 C 0.10189 0.80801 0.30849
 C2877 C 0.09506 0.81476 0.29486
 C2878 C 0.08142 0.80810 0.28805
 C2879 C 0.06035 0.78739 0.28768
 C2880 C 0.05405 0.79405 0.27387
 C2881 C 0.04085 0.78688 0.26673
 C2882 C 0.03402 0.77306 0.27325
 C2883 C 0.04040 0.76666 0.28723
 C2884 C 0.05358 0.77376 0.29447
 C2885 C 0.07469 0.81450 0.27430
 C2886 C 0.06124 0.80760 0.26733
 C2887 C 0.07374 0.77430 0.31520
 C2888 C 0.06031 0.76736 0.30822
 H2889 H 0.07994 0.82486 0.26880
 H2890 H 0.05652 0.81283 0.25665
 H2891 H 0.07862 0.76891 0.32573
 H2892 H 0.05522 0.75683 0.31357
 H2893 H 0.09949 0.78927 0.32589
 H2894 H 0.10042 0.82503 0.28935
 H2895 H 0.03611 0.79188 0.25595
 H2896 H 0.03529 0.75602 0.29233
 C2897 C 0.57503 0.70631 0.70625
 C2898 C 0.58150 0.71318 0.69263
 C2899 C 0.59501 0.70633 0.68576
 C2900 C 0.60212 0.69270 0.69242
 C2901 C 0.59535 0.68597 0.70608
 C2902 C 0.58184 0.69272 0.71304
 C2903 C 0.56093 0.71358 0.71363
 C2904 C 0.55456 0.70681 0.72736
 C2905 C 0.54136 0.71396 0.73451
 C2906 C 0.53458 0.72783 0.72807
 C2907 C 0.54105 0.73435 0.71418
 C2908 C 0.55424 0.72729 0.70693
 C2909 C 0.57506 0.68622 0.72672
 C2910 C 0.56165 0.69314 0.73376
 C2911 C 0.57440 0.72683 0.68620
 C2912 C 0.56100 0.73377 0.69324
 H2913 H 0.58020 0.67572 0.73207
 H2914 H 0.55686 0.68780 0.74435
 H2915 H 0.57928 0.73225 0.67569
 H2916 H 0.55595 0.74435 0.68796
 H2917 H 0.59994 0.71172 0.67528
 H2918 H 0.60055 0.67552 0.71142
 H2919 H 0.53655 0.70887 0.74522
 H2920 H 0.53599 0.74504 0.70914
 C2921 C 0.57532 0.20594 0.20605
 C2922 C 0.58177 0.21271 0.19237
 C2923 C 0.59532 0.20588 0.18558
 C2924 C 0.60252 0.19237 0.19238
 C2925 C 0.59580 0.18574 0.20611
 C2926 C 0.58223 0.19248 0.21299
 C2927 C 0.56116 0.21319 0.21332
 C2928 C 0.55480 0.20650 0.22710
 C2929 C 0.54152 0.21362 0.23414
 C2930 C 0.53466 0.22739 0.22756
 C2931 C 0.54110 0.23381 0.21362
 C2932 C 0.55437 0.22677 0.20647
 C2933 C 0.57547 0.18607 0.22672
 C2934 C 0.56199 0.19296 0.23366
 C2935 C 0.57457 0.22624 0.18579
 C2936 C 0.56111 0.23316 0.19273
 H2937 H 0.58068 0.17567 0.23220
 H2938 H 0.55721 0.18769 0.24429
 H2939 H 0.57943 0.23158 0.17522
 H2940 H 0.55599 0.24364 0.18732
 H2941 H 0.60020 0.21118 0.17504
 H2942 H 0.60109 0.17540 0.21157
 H2943 H 0.53674 0.20861 0.24490
 H2944 H 0.53598 0.24442 0.20847
 C2945 C 0.07485 0.70645 0.20622
 C2946 C 0.08123 0.71325 0.19252
 C2947 C 0.09476 0.70644 0.18566
 C2948 C 0.10199 0.69292 0.19240
 C2949 C 0.09533 0.68625 0.20615
 C2950 C 0.08179 0.69297 0.21310
 C2951 C 0.06073 0.71368 0.21358
 C2952 C 0.05443 0.70698 0.22738
 C2953 C 0.04120 0.71409 0.23451
 C2954 C 0.03431 0.72788 0.22799
 C2955 C 0.04068 0.73431 0.21402
 C2956 C 0.05390 0.72728 0.20679
 C2957 C 0.07508 0.68652 0.22685
 C2958 C 0.06164 0.69341 0.23386
 C2959 C 0.07400 0.72679 0.18600
 C2960 C 0.06057 0.73369 0.19302
 H2961 H 0.08031 0.67610 0.23227
 H2962 H 0.05690 0.68811 0.24450
 H2963 H 0.07879 0.73214 0.17542
 H2964 H 0.05541 0.74417 0.18765
 H2965 H 0.09960 0.71177 0.17511
 H2966 H 0.10065 0.67591 0.21156
 H2967 H 0.03646 0.70906 0.24528
 H2968 H 0.03554 0.74493 0.20891
 C2969 C 0.07485 0.20590 0.70570
 C2970 C 0.08135 0.21267 0.69205
 C2971 C 0.09502 0.20592 0.68539
 C2972 C 0.10225 0.19250 0.69231
 C2973 C 0.09545 0.18585 0.70599
 C2974 C 0.08178 0.19249 0.71273
 C2975 C 0.06064 0.21312 0.71291
 C2976 C 0.05427 0.20647 0.72670
 C2977 C 0.04098 0.21360 0.73371
 C2978 C 0.03413 0.22736 0.72709
 C2979 C 0.04057 0.23373 0.71313
 C2980 C 0.05385 0.22668 0.70602
 C2981 C 0.07498 0.18609 0.72645
 C2982 C 0.06146 0.19297 0.73332
 C2983 C 0.07413 0.22615 0.68540
 C2984 C 0.06063 0.23305 0.69227
 H2985 H 0.08022 0.17573 0.73198
 H2986 H 0.05666 0.18771 0.74395
 H2987 H 0.07903 0.23148 0.67484
 H2988 H 0.05550 0.24350 0.68682
 H2989 H 0.09993 0.21115 0.67483
 H2990 H 0.10082 0.17561 0.71157
 H2991 H 0.03619 0.20863 0.74448
 H2992 H 0.03546 0.24434 0.70795
 C2993 C 0.42506 0.70626 0.29387
 C2994 C 0.41817 0.69276 0.28702
 C2995 C 0.40458 0.68606 0.29391
 C2996 C 0.39783 0.69277 0.30759
 C2997 C 0.40499 0.70634 0.31428
 C2998 C 0.41857 0.71312 0.30747
 C2999 C 0.43926 0.71345 0.28658
 C3000 C 0.44603 0.72707 0.29334
 C3001 C 0.45932 0.73406 0.28618
 C3002 C 0.46581 0.72755 0.27231
 C3003 C 0.45897 0.71374 0.26581
 C3004 C 0.44566 0.70667 0.27288
 C3005 C 0.42575 0.72669 0.31396
 C3006 C 0.43924 0.73356 0.30701
 C3007 C 0.42497 0.68626 0.27335
 C3008 C 0.43848 0.69310 0.26641
 H3009 H 0.42085 0.73210 0.32446
 H3010 H 0.44434 0.74407 0.31234
 H3011 H 0.41978 0.67583 0.26794
 H3012 H 0.44330 0.68775 0.25583
 H3013 H 0.39931 0.67568 0.28853
 H3014 H 0.40007 0.71171 0.32476
 H3015 H 0.46443 0.74470 0.29126
 H3016 H 0.46379 0.70866 0.25511
 C3017 C 0.42502 0.20604 0.79435
 C3018 C 0.41846 0.21291 0.80791
 C3019 C 0.40489 0.20609 0.81469
 C3020 C 0.39779 0.19250 0.80798
 C3021 C 0.40464 0.18575 0.79438
 C3022 C 0.41822 0.19248 0.78751
 C3023 C 0.43918 0.21327 0.78707
 C3024 C 0.44564 0.20649 0.77340
 C3025 C 0.45891 0.21360 0.76634
 C3026 C 0.46568 0.22745 0.77282
 C3027 C 0.45913 0.23398 0.78666
 C3028 C 0.44587 0.22695 0.79381
 C3029 C 0.42507 0.18597 0.77389
 C3030 C 0.43855 0.19286 0.76695
 C3031 C 0.42555 0.22653 0.81438
 C3032 C 0.43901 0.23344 0.80745
 H3033 H 0.41994 0.17550 0.76850
 H3034 H 0.44341 0.18752 0.75639
 H3035 H 0.42060 0.23194 0.82486
 H3036 H 0.44405 0.24400 0.81276
 H3037 H 0.39990 0.21149 0.82512
 H3038 H 0.39944 0.17534 0.78900
 H3039 H 0.46378 0.20851 0.75567
 H3040 H 0.46417 0.24467 0.79172
 C3041 C 0.92519 0.70634 0.79394
 C3042 C 0.91875 0.71318 0.80758
 C3043 C 0.90517 0.70641 0.81439
 C3044 C 0.89795 0.69289 0.80766
 C3045 C 0.90467 0.68619 0.79396
 C3046 C 0.91827 0.69287 0.78706
 C3047 C 0.93938 0.71354 0.78663
 C3048 C 0.94572 0.70681 0.77289
 C3049 C 0.95899 0.71390 0.76578
 C3050 C 0.96585 0.72770 0.77228
 C3051 C 0.95944 0.73415 0.78621
 C3052 C 0.94618 0.72714 0.79341
 C3053 C 0.92503 0.68640 0.77336
 C3054 C 0.93852 0.69325 0.76640
 C3055 C 0.92597 0.72671 0.81409
 C3056 C 0.93944 0.73358 0.80712
 H3057 H 0.91981 0.67600 0.76793
 H3058 H 0.94330 0.68794 0.75579
 H3059 H 0.92111 0.73210 0.82462
 H3060 H 0.94458 0.74407 0.81248
 H3061 H 0.90028 0.71175 0.82490
 H3062 H 0.89937 0.67584 0.78855
 H3063 H 0.96376 0.70886 0.75505
 H3064 H 0.96456 0.74478 0.79130
 C3065 C 0.92493 0.20613 0.29397
 C3066 C 0.91848 0.21292 0.30762
 C3067 C 0.90489 0.20613 0.31439
 C3068 C 0.89768 0.19265 0.30760
 C3069 C 0.90440 0.18599 0.29389
 C3070 C 0.91800 0.19269 0.28703
 C3071 C 0.93912 0.21333 0.28671
 C3072 C 0.94548 0.20664 0.27295
 C3073 C 0.95876 0.21374 0.26590
 C3074 C 0.96563 0.22750 0.27245
 C3075 C 0.95920 0.23392 0.28639
 C3076 C 0.94593 0.22690 0.29354
 C3077 C 0.92477 0.18626 0.27332
 C3078 C 0.93828 0.19312 0.26640
 C3079 C 0.92569 0.22643 0.31419
 C3080 C 0.93918 0.23331 0.30727
 H3081 H 0.91955 0.17587 0.26785
 H3082 H 0.94306 0.18784 0.25578
 H3083 H 0.92083 0.23178 0.32474
 H3084 H 0.94431 0.24378 0.31266
 H3085 H 0.90000 0.21145 0.32491
 H3086 H 0.89909 0.17568 0.28843
 H3087 H 0.96355 0.20872 0.25515
 H3088 H 0.96433 0.24453 0.29152
 C3089 C 0.29377 0.29356 0.57475
 C3090 C 0.28687 0.30717 0.58138
 C3091 C 0.29374 0.31394 0.59484
 C3092 C 0.30744 0.30719 0.60172
 C3093 C 0.31419 0.29353 0.59481
 C3094 C 0.30741 0.28667 0.58136
 C3095 C 0.28649 0.28631 0.56069
 C3096 C 0.29331 0.27260 0.55415
 C3097 C 0.28618 0.26557 0.54096
 C3098 C 0.27228 0.27213 0.53434
 C3099 C 0.26572 0.28600 0.54098
 C3100 C 0.27276 0.29311 0.55418
 C3101 C 0.31394 0.27299 0.57442
 C3102 C 0.30701 0.26607 0.56106
 C3103 C 0.27317 0.31370 0.57448
 C3104 C 0.26622 0.30678 0.56111
 H3105 H 0.32447 0.26755 0.57941
 H3106 H 0.31238 0.25548 0.55614
 H3107 H 0.26772 0.32421 0.57949
 H3108 H 0.25562 0.31215 0.55622
 H3109 H 0.28832 0.32441 0.59989
 H3110 H 0.32469 0.28812 0.59983
 H3111 H 0.29131 0.25486 0.53603
 H3112 H 0.25499 0.29112 0.53607
 C3113 C 0.29396 0.79413 0.07443
 C3114 C 0.28703 0.80774 0.08104
 C3115 C 0.29383 0.81448 0.09454
 C3116 C 0.30746 0.80770 0.10150
 C3117 C 0.31425 0.79404 0.09462
 C3118 C 0.30754 0.78721 0.08112
 C3119 C 0.28677 0.78690 0.06032
 C3120 C 0.29361 0.77318 0.05382
 C3121 C 0.28653 0.76616 0.04060
 C3122 C 0.27267 0.77273 0.03392
 C3123 C 0.26609 0.78662 0.04052
 C3124 C 0.27308 0.79373 0.05374
 C3125 C 0.31411 0.77353 0.07422
 C3126 C 0.30725 0.76663 0.06080
 C3127 C 0.27339 0.81429 0.07406
 C3128 C 0.26652 0.80740 0.06064
 H3129 H 0.32459 0.76807 0.07927
 H3130 H 0.31264 0.75604 0.05591
 H3131 H 0.26792 0.82480 0.07905
 H3132 H 0.25595 0.81279 0.05569
 H3133 H 0.28840 0.82496 0.09956
 H3134 H 0.32470 0.78860 0.09970
 H3135 H 0.29166 0.75544 0.03570
 H3136 H 0.25539 0.79175 0.03556
 C3137 C 0.79341 0.29402 0.07432
 C3138 C 0.80703 0.28709 0.08092
 C3139 C 0.81378 0.29387 0.09443
 C3140 C 0.80699 0.30748 0.10141
 C3141 C 0.79331 0.31426 0.09454
 C3142 C 0.78647 0.30757 0.08103
 C3143 C 0.78618 0.28685 0.06020
 C3144 C 0.77244 0.29368 0.05370
 C3145 C 0.76543 0.28663 0.04046
 C3146 C 0.77203 0.27279 0.03376
 C3147 C 0.78593 0.26623 0.04036
 C3148 C 0.79303 0.27318 0.05360
 C3149 C 0.77277 0.31412 0.07414
 C3150 C 0.76587 0.30729 0.06072
 C3151 C 0.81359 0.27346 0.07394
 C3152 C 0.80670 0.26661 0.06051
 H3153 H 0.76729 0.32458 0.07922
 H3154 H 0.75525 0.31266 0.05585
 H3155 H 0.82409 0.26798 0.07894
 H3156 H 0.81208 0.25604 0.05557
 H3157 H 0.82426 0.28843 0.09945
 H3158 H 0.78786 0.32469 0.09964
 H3159 H 0.75470 0.29175 0.03555
 H3160 H 0.79108 0.25555 0.03538
 C3161 C 0.79379 0.79484 0.57464
 C3162 C 0.80734 0.78786 0.58135
 C3163 C 0.81397 0.79457 0.59493
 C3164 C 0.80715 0.80818 0.60187
 C3165 C 0.79359 0.81507 0.59488
 C3166 C 0.78686 0.80843 0.58130
 C3167 C 0.78662 0.78766 0.56050
 C3168 C 0.77293 0.79451 0.55392
 C3169 C 0.76592 0.78740 0.54071
 C3170 C 0.77247 0.77349 0.53412
 C3171 C 0.78635 0.76693 0.54077
 C3172 C 0.79344 0.77394 0.55398
 C3173 C 0.77324 0.81503 0.57429
 C3174 C 0.76639 0.80819 0.56084
 C3175 C 0.81389 0.77419 0.57442
 C3176 C 0.80707 0.76735 0.56097
 H3177 H 0.76778 0.82552 0.57931
 H3178 H 0.75582 0.81359 0.55589
 H3179 H 0.82435 0.76869 0.57949
 H3180 H 0.81244 0.75676 0.55606
 H3181 H 0.82429 0.78901 0.60016
 H3182 H 0.78825 0.82559 0.59993
 H3183 H 0.75522 0.79253 0.53575
 H3184 H 0.79147 0.75620 0.53587
 C3185 C 0.29344 0.70624 0.42525
 C3186 C 0.30701 0.71322 0.41859
 C3187 C 0.31376 0.70644 0.40508
 C3188 C 0.30703 0.69277 0.39815
 C3189 C 0.29339 0.68596 0.40507
 C3190 C 0.28655 0.69265 0.41858
 C3191 C 0.28621 0.71341 0.43938
 C3192 C 0.27252 0.70653 0.44593
 C3193 C 0.26552 0.71357 0.45918
 C3194 C 0.27206 0.72745 0.46584
 C3195 C 0.28591 0.73407 0.45918
 C3196 C 0.29301 0.72712 0.44593
 C3197 C 0.27289 0.68605 0.42552
 C3198 C 0.26599 0.69288 0.43895
 C3199 C 0.31352 0.72690 0.42553
 C3200 C 0.30663 0.73374 0.43897
 H3201 H 0.26744 0.67557 0.42047
 H3202 H 0.25541 0.68747 0.44386
 H3203 H 0.32398 0.73241 0.42049
 H3204 H 0.31197 0.74434 0.44388
 H3205 H 0.32421 0.71191 0.40002
 H3206 H 0.28798 0.67549 0.40001
 H3207 H 0.25483 0.70841 0.46412
 H3208 H 0.29102 0.74479 0.46413
 C3209 C 0.29375 0.20610 0.92548
 C3210 C 0.28673 0.19257 0.91881
 C3211 C 0.29344 0.18588 0.90524
 C3212 C 0.30710 0.19262 0.89828
 C3213 C 0.31398 0.20620 0.90524
 C3214 C 0.30735 0.21298 0.91880
 C3215 C 0.28662 0.21329 0.93964
 C3216 C 0.29354 0.22695 0.94620
 C3217 C 0.28650 0.23397 0.95943
 C3218 C 0.27258 0.22748 0.96606
 C3219 C 0.26595 0.21362 0.95945
 C3220 C 0.27290 0.20651 0.94621
 C3221 C 0.31401 0.22658 0.92576
 C3222 C 0.30722 0.23345 0.93923
 C3223 C 0.27306 0.18605 0.92579
 C3224 C 0.26626 0.19291 0.93925
 H3225 H 0.32452 0.23201 0.92072
 H3226 H 0.31267 0.24399 0.94416
 H3227 H 0.26752 0.17561 0.92075
 H3228 H 0.25566 0.18756 0.94420
 H3229 H 0.28793 0.17547 0.90016
 H3230 H 0.32446 0.21160 0.90016
 H3231 H 0.29169 0.24464 0.96437
 H3232 H 0.25522 0.20854 0.96440
 C3233 C 0.79352 0.70618 0.92538
 C3234 C 0.78666 0.69258 0.91869
 C3235 C 0.79355 0.68590 0.90520
 C3236 C 0.80722 0.69273 0.89833
 C3237 C 0.81393 0.70638 0.90531
 C3238 C 0.80713 0.71315 0.91880
 C3239 C 0.78623 0.71334 0.93948
 C3240 C 0.79300 0.72705 0.94608
 C3241 C 0.78585 0.73399 0.95929
 C3242 C 0.77197 0.72737 0.96588
 C3243 C 0.76545 0.71350 0.95919
 C3244 C 0.77251 0.70646 0.94597
 C3245 C 0.81362 0.72682 0.92578
 C3246 C 0.80667 0.73365 0.93918
 C3247 C 0.77298 0.68598 0.92557
 C3248 C 0.76602 0.69281 0.93897
 H3249 H 0.82412 0.73232 0.92080
 H3250 H 0.81200 0.74425 0.94413
 H3251 H 0.76756 0.67549 0.92050
 H3252 H 0.75542 0.68740 0.94384
 H3253 H 0.78816 0.67544 0.90011
 H3254 H 0.82441 0.71185 0.90029
 H3255 H 0.79094 0.74470 0.96426
 H3256 H 0.75473 0.70833 0.96408
 C3257 C 0.79370 0.20592 0.42539
 C3258 C 0.78673 0.19238 0.41869
 C3259 C 0.79351 0.18571 0.40515
 C3260 C 0.80717 0.19249 0.39823
 C3261 C 0.81400 0.20607 0.40522
 C3262 C 0.80731 0.21283 0.41876
 C3263 C 0.78651 0.21309 0.43953
 C3264 C 0.79338 0.22674 0.44612
 C3265 C 0.78631 0.23371 0.45937
 C3266 C 0.77242 0.22715 0.46599
 C3267 C 0.76580 0.21332 0.45931
 C3268 C 0.77278 0.20627 0.44606
 C3269 C 0.81391 0.22644 0.42575
 C3270 C 0.80706 0.23329 0.43919
 C3271 C 0.77304 0.18583 0.42561
 C3272 C 0.76618 0.19266 0.43906
 H3273 H 0.82442 0.23190 0.42074
 H3274 H 0.81246 0.24384 0.44415
 H3275 H 0.76755 0.17538 0.42055
 H3276 H 0.75558 0.18730 0.44396
 H3277 H 0.78803 0.17530 0.40004
 H3278 H 0.82448 0.21150 0.40018
 H3279 H 0.79147 0.24438 0.46434
 H3280 H 0.75507 0.20821 0.46423
 C3281 C 0.70628 0.29374 0.42543
 C3282 C 0.69267 0.28687 0.41877
 C3283 C 0.68596 0.29374 0.40527
 C3284 C 0.69278 0.30738 0.39835
 C3285 C 0.70646 0.31409 0.40528
 C3286 C 0.71325 0.30732 0.41878
 C3287 C 0.71345 0.28650 0.43955
 C3288 C 0.72717 0.29329 0.44612
 C3289 C 0.73412 0.28618 0.45937
 C3290 C 0.72749 0.27233 0.46602
 C3291 C 0.71360 0.26580 0.45936
 C3292 C 0.70656 0.27282 0.44611
 C3293 C 0.72694 0.31382 0.42573
 C3294 C 0.73378 0.30692 0.43916
 C3295 C 0.68606 0.27323 0.42571
 C3296 C 0.69289 0.26631 0.43914
 H3297 H 0.73244 0.32430 0.42071
 H3298 H 0.74438 0.31227 0.44410
 H3299 H 0.67555 0.26780 0.42068
 H3300 H 0.68747 0.25574 0.44406
 H3301 H 0.67547 0.28835 0.40022
 H3302 H 0.71193 0.32454 0.40022
 H3303 H 0.74484 0.29127 0.46432
 H3304 H 0.70843 0.25510 0.46429
 C3305 C 0.70558 0.79381 0.92532
 C3306 C 0.69195 0.78696 0.91866
 C3307 C 0.68531 0.79377 0.90510
 C3308 C 0.69225 0.80732 0.89813
 C3309 C 0.70591 0.81404 0.90506
 C3310 C 0.71262 0.80734 0.91863
 C3311 C 0.71272 0.78659 0.93947
 C3312 C 0.72647 0.79334 0.94601
 C3313 C 0.73342 0.78622 0.95925
 C3314 C 0.72677 0.77239 0.96592
 C3315 C 0.71285 0.76590 0.95930
 C3316 C 0.70580 0.77293 0.94605
 C3317 C 0.72633 0.81381 0.92555
 C3318 C 0.73313 0.80693 0.93901
 C3319 C 0.68529 0.77336 0.92565
 C3320 C 0.69210 0.76646 0.93910
 H3321 H 0.73188 0.82424 0.92049
 H3322 H 0.74376 0.81224 0.94393
 H3323 H 0.67477 0.76795 0.92063
 H3324 H 0.68665 0.75591 0.94405
 H3325 H 0.67475 0.78850 0.90006
 H3326 H 0.71151 0.82435 0.89984
 H3327 H 0.74416 0.79129 0.96417
 H3328 H 0.70765 0.75523 0.96426
 C3329 C 0.20594 0.29406 0.92536
 C3330 C 0.21286 0.30764 0.91865
 C3331 C 0.20603 0.31433 0.90513
 C3332 C 0.19237 0.30754 0.89824
 C3333 C 0.18558 0.29392 0.90524
 C3334 C 0.19232 0.28714 0.91876
 C3335 C 0.21320 0.28686 0.93946
 C3336 C 0.20639 0.27316 0.94605
 C3337 C 0.21353 0.26616 0.95926
 C3338 C 0.22743 0.27273 0.96584
 C3339 C 0.23399 0.28659 0.95916
 C3340 C 0.22694 0.29368 0.94594
 C3341 C 0.18578 0.27349 0.92576
 C3342 C 0.19270 0.26661 0.93917
 C3343 C 0.22654 0.31420 0.92554
 C3344 C 0.23347 0.30733 0.93895
 H3345 H 0.17526 0.26803 0.92078
 H3346 H 0.18733 0.25603 0.94413
 H3347 H 0.23200 0.32468 0.92048
 H3348 H 0.24408 0.31271 0.94382
 H3349 H 0.21146 0.32478 0.90003
 H3350 H 0.17510 0.28848 0.90021
 H3351 H 0.20841 0.25546 0.96423
 H3352 H 0.24472 0.29172 0.96404
 C3353 C 0.20535 0.79380 0.42533
 C3354 C 0.21235 0.80732 0.41859
 C3355 C 0.20564 0.81394 0.40498
 C3356 C 0.19203 0.80713 0.39805
 C3357 C 0.18511 0.79361 0.40509
 C3358 C 0.19174 0.78689 0.41870
 C3359 C 0.21254 0.78663 0.43949
 C3360 C 0.20567 0.77297 0.44611
 C3361 C 0.21279 0.76595 0.45933
 C3362 C 0.22673 0.77247 0.46589
 C3363 C 0.23331 0.78633 0.45920
 C3364 C 0.22629 0.79342 0.44598
 C3365 C 0.18510 0.77332 0.42576
 C3366 C 0.19195 0.76647 0.43922
 C3367 C 0.22602 0.81388 0.42551
 C3368 C 0.23287 0.80704 0.43898
 H3369 H 0.17457 0.76789 0.42078
 H3370 H 0.18652 0.75594 0.44421
 H3371 H 0.23153 0.82432 0.42043
 H3372 H 0.24348 0.81241 0.44388
 H3373 H 0.21123 0.82423 0.39971
 H3374 H 0.17457 0.78828 0.40005
 H3375 H 0.20764 0.75527 0.46431
 H3376 H 0.24406 0.79143 0.46408
 C3377 C 0.70622 0.70657 0.57485
 C3378 C 0.71322 0.69301 0.58152
 C3379 C 0.70645 0.68627 0.59505
 C3380 C 0.69277 0.69298 0.60198
 C3381 C 0.68592 0.70659 0.59504
 C3382 C 0.69260 0.71343 0.58151
 C3383 C 0.71338 0.71381 0.56071
 C3384 C 0.70647 0.72748 0.55416
 C3385 C 0.71353 0.73453 0.54092
 C3386 C 0.72745 0.72804 0.53429
 C3387 C 0.73408 0.71418 0.54093
 C3388 C 0.72711 0.70705 0.55416
 C3389 C 0.68595 0.72705 0.57455
 C3390 C 0.69278 0.73396 0.56111
 C3391 C 0.72690 0.68651 0.57456
 C3392 C 0.73373 0.69341 0.56111
 H3393 H 0.67543 0.73245 0.57957
 H3394 H 0.68733 0.74451 0.55617
 H3395 H 0.73241 0.67604 0.57958
 H3396 H 0.74433 0.68807 0.55618
 H3397 H 0.71195 0.67583 0.60012
 H3398 H 0.67544 0.71198 0.60010
 H3399 H 0.70835 0.74521 0.53598
 H3400 H 0.74481 0.70910 0.53599
 C3401 C 0.70621 0.20609 0.07452
 C3402 C 0.69262 0.21295 0.08124
 C3403 C 0.68602 0.20611 0.09481
 C3404 C 0.69292 0.19251 0.10173
 C3405 C 0.70657 0.18580 0.09474
 C3406 C 0.71326 0.19255 0.08117
 C3407 C 0.71329 0.21331 0.06034
 C3408 C 0.72700 0.20655 0.05372
 C3409 C 0.73388 0.21366 0.04044
 C3410 C 0.72720 0.22749 0.03381
 C3411 C 0.71332 0.23400 0.04051
 C3412 C 0.70634 0.22697 0.05380
 C3413 C 0.72692 0.18606 0.07416
 C3414 C 0.73368 0.19294 0.06067
 C3415 C 0.68595 0.22656 0.07430
 C3416 C 0.69269 0.23346 0.06082
 H3417 H 0.73248 0.17561 0.07918
 H3418 H 0.74426 0.18761 0.05570
 H3419 H 0.67545 0.23198 0.07938
 H3420 H 0.68722 0.24401 0.05590
 H3421 H 0.67556 0.21150 0.09991
 H3422 H 0.71210 0.17539 0.09980
 H3423 H 0.74459 0.20859 0.03546
 H3424 H 0.70811 0.24467 0.03558
 C3425 C 0.20618 0.70645 0.07457
 C3426 C 0.19260 0.71342 0.08120
 C3427 C 0.18586 0.70665 0.09473
 C3428 C 0.19261 0.69300 0.10170
 C3429 C 0.20626 0.68619 0.09480
 C3430 C 0.21308 0.69287 0.08127
 C3431 C 0.21340 0.71361 0.06042
 C3432 C 0.22710 0.70674 0.05390
 C3433 C 0.23410 0.71378 0.04064
 C3434 C 0.22755 0.72764 0.03395
 C3435 C 0.21368 0.73425 0.04056
 C3436 C 0.20659 0.72731 0.05382
 C3437 C 0.22674 0.68627 0.07435
 C3438 C 0.23364 0.69310 0.06090
 C3439 C 0.18606 0.72707 0.07421
 C3440 C 0.19294 0.73391 0.06076
 H3441 H 0.23219 0.67579 0.07942
 H3442 H 0.24422 0.68769 0.05601
 H3443 H 0.17558 0.73257 0.07922
 H3444 H 0.18758 0.74449 0.05581
 H3445 H 0.17541 0.71211 0.09978
 H3446 H 0.21168 0.67573 0.09989
 H3447 H 0.24481 0.70862 0.03572
 H3448 H 0.20857 0.74496 0.03559
 C3449 C 0.20576 0.20577 0.57484
 C3450 C 0.19217 0.21271 0.58150
 C3451 C 0.18555 0.20601 0.59513
 C3452 C 0.19247 0.19248 0.60217
 C3453 C 0.20609 0.18567 0.59522
 C3454 C 0.21277 0.19227 0.58159
 C3455 C 0.21290 0.21291 0.56064
 C3456 C 0.22663 0.20609 0.55412
 C3457 C 0.23361 0.21315 0.54087
 C3458 C 0.22702 0.22701 0.53419
 C3459 C 0.21310 0.23354 0.54077
 C3460 C 0.20602 0.22656 0.55403
 C3461 C 0.22644 0.18571 0.57465
 C3462 C 0.23325 0.19250 0.56115
 C3463 C 0.18553 0.22629 0.57446
 C3464 C 0.19235 0.23311 0.56096
 H3465 H 0.23196 0.17528 0.57976
 H3466 H 0.24385 0.18713 0.55625
 H3467 H 0.17504 0.23177 0.57949
 H3468 H 0.18693 0.24365 0.55599
 H3469 H 0.17505 0.21137 0.60019
 H3470 H 0.21168 0.17538 0.60045
 H3471 H 0.24435 0.20805 0.53597
 H3472 H 0.20795 0.24422 0.53580
   
