data_POSCAR
  _audit_creation_date              2014-09-24
  _audit_creation_method            'ToBaCCo'
  _symmetry_space_group_name_H-M    'P1'
  _symmetry_Int_Tables_number       1
  _symmetry_cell_setting            triclinic
  loop_
  _symmetry_equiv_pos_as_xyz
 x,y,z
_cell_length_a 42.5865
_cell_length_b 42.6321
_cell_length_c 42.2047
_cell_angle_alpha 90.790300
_cell_angle_beta 89.493600
_cell_angle_gamma 89.387600
loop_
  _atom_site_label
  _atom_site_type_symbol
  _atom_site_fract_x
  _atom_site_fract_y
  _atom_site_fract_z
C1 C 0.09914 0.00062 0.21510
 C2 C 0.12000 0.02901 0.22072
 C3 C 0.13815 0.02706 0.24702
 C4 C 0.13383 -0.00370 0.26538
 C5 C 0.12146 -0.02779 0.21449
 C6 C 0.13950 -0.03032 0.24090
 C7 C 0.08030 -0.00253 0.24585
 C8 C 0.09815 -0.00512 0.27223
 H9 H 0.12070 0.04864 0.20472
 H10 H 0.14903 -0.00531 0.28650
 H11 H 0.12230 -0.04461 0.19504
 H12 H 0.05488 -0.00346 0.24655
 C13 C 0.39297 -0.00404 0.72718
 C14 C 0.36951 -0.03060 0.72320
 C15 C 0.34694 -0.03110 0.74623
 C16 C 0.34950 -0.00398 0.77066
 C17 C 0.37312 0.02602 0.72827
 C18 C 0.35044 0.02651 0.75121
 C19 C 0.40509 -0.00733 0.75886
 C20 C 0.38118 -0.00747 0.78309
 H21 H 0.37197 -0.04862 0.70496
 H22 H 0.33066 -0.00399 0.78907
 H23 H 0.37698 0.04508 0.71207
 H24 H 0.42986 -0.01082 0.76293
 C25 C 0.88924 0.49772 0.22260
 C26 C 0.86551 0.47169 0.22657
 C27 C 0.84948 0.47259 0.25464
 C28 C 0.85841 0.50080 0.27615
 C29 C 0.87046 0.52809 0.22717
 C30 C 0.85433 0.53008 0.25522
 C31 C 0.91013 0.49571 0.25162
 C32 C 0.89448 0.49761 0.27973
 H33 H 0.86165 0.45423 0.20818
 H34 H 0.84503 0.50204 0.29881
 H35 H 0.86954 0.54597 0.20923
 H36 H 0.93551 0.49396 0.25000
 C37 C 0.60622 0.50807 0.73512
 C38 C 0.62984 0.53478 0.73260
 C39 C 0.65320 0.53384 0.75439
 C40 C 0.65109 0.50560 0.77658
 C41 C 0.62586 0.47787 0.73318
 C42 C 0.64902 0.47612 0.75511
 C43 C 0.59455 0.50981 0.76971
 C44 C 0.61824 0.50859 0.79143
 H45 H 0.62556 0.55496 0.71788
 H46 H 0.67025 0.50448 0.79426
 H47 H 0.62093 0.45916 0.71641
 H48 H 0.57000 0.51227 0.77627
 C49 C 0.22421 0.10210 0.99852
 C50 C 0.22468 0.12185 1.02895
 C51 C 0.24841 0.14286 1.03014
 C52 C 0.26948 0.14259 1.00052
 C53 C 0.22358 0.12568 0.97166
 C54 C 0.24744 0.14656 0.97231
 C55 C 0.25719 0.08700 0.99624
 C56 C 0.28091 0.10847 0.99738
 H57 H 0.20783 0.11900 1.04805
 H58 H 0.28874 0.15997 1.00137
 H59 H 0.20638 0.12478 0.95292
 H60 H 0.26127 0.06191 0.99497
 C61 C 0.71984 0.38715 1.00588
 C62 C 0.71951 0.36556 0.97896
 C63 C 0.74544 0.34402 0.97789
 C64 C 0.76666 0.34773 1.00467
 C65 C 0.72153 0.36777 1.03397
 C66 C 0.74753 0.34605 1.03366
 C67 C 0.75044 0.40239 1.00394
 C68 C 0.77665 0.38049 1.00292
 H69 H 0.70186 0.36653 0.96063
 H70 H 0.78661 0.33062 1.00404
 H71 H 0.70455 0.36974 1.05315
 H72 H 0.75275 0.42753 1.00215
 C73 C 0.24412 0.89608 0.49280
 C74 C 0.24076 0.87391 0.46449
 C75 C 0.26286 0.85067 0.46278
 C76 C 0.28614 0.85122 0.49063
 C77 C 0.24380 0.87509 0.52180
 C78 C 0.26581 0.85174 0.52111
 C79 C 0.27786 0.90785 0.49060
 C80 C 0.30009 0.88437 0.48979
 H81 H 0.22252 0.87687 0.44702
 H82 H 0.30403 0.83206 0.48966
 H83 H 0.22735 0.87877 0.54123
 H84 H 0.28335 0.93252 0.48932
 C85 C 0.72437 0.60568 0.50548
 C86 C 0.72718 0.62966 0.53245
 C87 C 0.75315 0.64791 0.53047
 C88 C 0.77429 0.64015 0.50150
 C89 C 0.72608 0.62471 0.47510
 C90 C 0.75229 0.64275 0.47277
 C91 C 0.75504 0.58700 0.50595
 C92 C 0.78124 0.60466 0.50380
 H93 H 0.71101 0.63060 0.55240
 H94 H 0.79536 0.65512 0.49979
 H95 H 0.70764 0.62443 0.45762
 H96 H 0.75593 0.56161 0.50699
 C97 C 0.00208 0.23282 0.09546
 C98 C 0.03160 0.23262 0.11586
 C99 C 0.03229 0.25582 0.13832
 C100 C 0.00330 0.27743 0.13825
 C101 C -0.02538 0.23217 0.11912
 C102 C -0.02484 0.25562 0.14138
 C103 C 0.00058 0.26606 0.08162
 C104 C 0.00107 0.28947 0.10417
 H105 H 0.04954 0.21453 0.11353
 H106 H 0.00376 0.29638 0.15659
 H107 H -0.04391 0.21502 0.11779
 H108 H -0.00080 0.27046 0.05647
 C109 C -0.00456 0.73058 0.39537
 C110 C -0.03318 0.73250 0.37721
 C111 C -0.03361 0.75721 0.35472
 C112 C -0.00500 0.77573 0.35462
 C113 C 0.02231 0.72852 0.37099
 C114 C 0.02242 0.75234 0.34981
 C115 C -0.00112 0.76331 0.41069
 C116 C -0.00125 0.78719 0.38924
 H117 H -0.05193 0.71573 0.37970
 H118 H -0.00503 0.79505 0.33717
 H119 H 0.04028 0.71037 0.37144
 H120 H 0.00045 0.76692 0.43604
 C121 C 0.49799 0.20379 0.90014
 C122 C 0.46940 0.20892 0.87911
 C123 C 0.47005 0.23611 0.86256
 C124 C 0.49948 0.25580 0.86860
 C125 C 0.52657 0.20620 0.87795
 C126 C 0.52740 0.23355 0.86147
 C127 C 0.49948 0.23315 0.92107
 C128 C 0.50023 0.26034 0.90490
 H129 H 0.45073 0.19198 0.87699
 H130 H 0.50022 0.27786 0.85496
 H131 H 0.54455 0.18812 0.87587
 H132 H 0.50074 0.23244 0.94670
 C133 C 0.50098 0.72614 0.59347
 C134 C 0.52796 0.73045 0.61666
 C135 C 0.52652 0.75785 0.63361
 C136 C 0.49787 0.77865 0.62564
 C137 C 0.47110 0.72988 0.61352
 C138 C 0.46924 0.75733 0.63041
 C139 C 0.50161 0.75538 0.57285
 C140 C 0.49980 0.78300 0.58933
 H141 H 0.54755 0.71411 0.61781
 H142 H 0.49658 0.80061 0.63998
 H143 H 0.45356 0.71174 0.61486
 H144 H 0.50263 0.75425 0.54719
 C145 C 0.89533 1.00256 0.76617
 C146 C 0.87700 1.03135 0.76486
 C147 C 0.85518 1.03217 0.73927
 C148 C 0.85566 1.00371 0.71978
 C149 C 0.87135 0.97601 0.76706
 C150 C 0.85050 0.97656 0.74279
 C151 C 0.91096 0.99942 0.73327
 C152 C 0.89010 1.00034 0.70883
 H153 H 0.87926 1.05001 0.78233
 H154 H 0.83875 1.00401 0.69984
 H155 H 0.87247 0.95718 0.78401
 H156 H 0.93613 0.99757 0.72974
 C157 C 0.38126 0.50162 0.29351
 C158 C 0.35861 0.52734 0.28315
 C159 C 0.34785 0.52363 0.25314
 C160 C 0.36033 0.49398 0.23615
 C161 C 0.36345 0.47106 0.28849
 C162 C 0.35260 0.46696 0.25851
 C163 C 0.40724 0.50101 0.26798
 C164 C 0.39653 0.49696 0.23779
 H165 H 0.35230 0.54738 0.29805
 H166 H 0.35028 0.49069 0.21226
 H167 H 0.35925 0.45452 0.30728
 H168 H 0.43190 0.50366 0.27339
 C169 C 0.59862 1.00581 0.27837
 C170 C 0.61913 0.97616 0.27591
 C171 C 0.63767 0.97474 0.24941
 C172 C 0.63394 1.00351 0.22793
 C173 C 0.62019 1.03175 0.27598
 C174 C 0.63916 1.03095 0.24794
 C175 C 0.57997 1.00592 0.24713
 C176 C 0.59875 1.00461 0.22059
 H177 H 0.61901 0.95818 0.29377
 H178 H 0.64930 1.00235 0.20648
 H179 H 0.61870 1.05210 0.29163
 H180 H 0.55462 1.00741 0.24642
 C181 C 0.09308 0.50286 0.77729
 C182 C 0.11621 0.47512 0.77900
 C183 C 0.13621 0.47279 0.75354
 C184 C 0.13130 0.49844 0.72886
 C185 C 0.11363 0.53169 0.77279
 C186 C 0.13379 0.52934 0.74760
 C187 C 0.07659 0.49831 0.74567
 C188 C 0.09631 0.49605 0.72031
 H189 H 0.11668 0.45907 0.79866
 H190 H 0.14774 0.49647 0.70835
 H191 H 0.11336 0.55137 0.78930
 H192 H 0.05132 0.49653 0.74358
 C193 C 0.77431 0.90946 0.00321
 C194 C 0.77246 0.88703 0.03125
 C195 C 0.74590 0.86931 0.03178
 C196 C 0.72369 0.87572 0.00390
 C197 C 0.77060 0.88869 -0.02633
 C198 C 0.74419 0.87093 -0.02621
 C199 C 0.74388 0.92875 0.00527
 C200 C 0.71737 0.91142 0.00609
 H201 H 0.79078 0.88525 0.04878
 H202 H 0.70226 0.86114 0.00396
 H203 H 0.78651 0.88973 -0.04644
 H204 H 0.74340 0.95414 0.00707
 C205 C 0.28561 0.40199 0.50264
 C206 C 0.28116 0.38159 0.53181
 C207 C 0.25365 0.36545 0.53211
 C208 C 0.23313 0.37106 0.50276
 C209 C 0.28210 0.37973 0.47428
 C210 C 0.25470 0.36354 0.47412
 C211 C 0.25620 0.42292 0.50207
 C212 C 0.22865 0.40705 0.50204
 H213 H 0.29858 0.37984 0.55025
 H214 H 0.21105 0.35750 0.50290
 H215 H 0.30018 0.37671 0.45625
 H216 H 0.25715 0.44831 0.50197
 C217 C 0.27368 0.58494 -0.00978
 C218 C 0.27267 0.60813 -0.03718
 C219 C 0.24578 0.62594 -0.03796
 C220 C 0.22254 0.61901 -0.01069
 C221 C 0.26828 0.60498 0.02017
 C222 C 0.24177 0.62310 0.01981
 C223 C 0.24378 0.56584 -0.01329
 C224 C 0.21700 0.58330 -0.01351
 H225 H 0.29181 0.61034 -0.05401
 H226 H 0.20073 0.63350 -0.01116
 H227 H 0.28520 0.60604 0.03913
 H228 H 0.24376 0.54046 -0.01524
 C229 C 0.79606 0.09582 0.50554
 C230 C 0.79327 0.11544 0.47757
 C231 C 0.76413 0.13278 0.47630
 C232 C 0.74338 0.12677 0.50342
 C233 C 0.79086 0.11667 0.53273
 C234 C 0.76186 0.13408 0.53161
 C235 C 0.76876 0.07578 0.50445
 C236 C 0.73958 0.09242 0.50351
 H237 H 0.81147 0.11664 0.45964
 H238 H 0.72101 0.14029 0.50248
 H239 H 0.80836 0.12035 0.55085
 H240 H 0.77014 0.05033 0.50409
 C241 C 0.99498 0.78045 0.88910
 C242 C 1.02400 0.77848 0.86760
 C243 C 1.02373 0.75415 0.84638
 C244 C 0.99387 0.73426 0.84825
 C245 C 0.96700 0.78164 0.86673
 C246 C 0.96618 0.75747 0.84537
 C247 C 0.99314 0.74806 0.90437
 C248 C 0.99270 0.72376 0.88288
 H249 H 1.04326 0.79475 0.86960
 H250 H 0.99343 0.71457 0.83073
 H251 H 0.94781 0.79824 0.87015
 H252 H 0.99154 0.74501 0.92973
 C253 C 0.50430 0.27537 0.39231
 C254 C 0.53355 0.27385 0.37093
 C255 C 0.53231 0.25166 0.34749
 C256 C 0.50134 0.23344 0.34699
 C257 C 0.47663 0.28019 0.37009
 C258 C 0.47466 0.25800 0.34674
 C259 C 0.50069 0.24183 0.40410
 C260 C 0.49941 0.21982 0.38028
 H261 H 0.55428 0.28762 0.37553
 H262 H 0.50004 0.21548 0.32773
 H263 H 0.45876 0.29811 0.37417
 H264 H 0.49964 0.23609 0.42900
 C265 C 1.00074 0.28553 0.60311
 C266 C 0.97066 0.28398 0.62313
 C267 C 0.97105 0.26089 0.64514
 C268 C 1.00177 0.24171 0.64540
 C269 C 1.02745 0.28860 0.62692
 C270 C 1.02820 0.26560 0.64888
 C271 C 1.00485 0.25236 0.58899
 C272 C 1.00559 0.22927 0.61124
 H273 H 0.95086 0.29969 0.61983
 H274 H 1.00225 0.22308 0.66356
 H275 H 1.04500 0.30674 0.62551
 H276 H 1.00664 0.24805 0.56374
 C277 C 0.49725 0.76313 0.10054
 C278 C 0.46733 0.75740 0.11953
 C279 C 0.46866 0.73174 0.13831
 C280 C 0.50057 0.71414 0.13649
 C281 C 0.52333 0.76490 0.12485
 C282 C 0.52575 0.73916 0.14344
 C283 C 0.50342 0.73265 0.08225
 C284 C 0.50494 0.70686 0.10069
 H285 H 0.44696 0.77275 0.11831
 H286 H 0.50208 0.69348 0.15211
 H287 H 0.53900 0.78469 0.12651
 H288 H 0.50524 0.73146 0.05663
 O289 O -0.08767 0.97753 0.98635
 O290 O -0.09331 1.02600 1.01155
 O291 O -0.03110 0.99885 0.90362
 O292 O 0.01588 1.01845 0.89340
 O293 O -0.00768 0.91870 0.96195
 O294 O 0.01762 0.91370 1.01202
 O295 O 0.05616 1.07864 0.98624
 O296 O 0.02468 1.08526 0.94185
 O297 O -0.00209 1.06496 1.06328
 O298 O -0.04572 1.02956 1.07555
 O299 O 0.07348 1.00277 1.04558
 O300 O 0.08234 0.95822 1.00890
 O301 O 0.08592 1.03553 0.99726
 O302 O 0.09234 0.98376 0.97066
 O303 O 0.03167 1.01598 1.07701
 O304 O -0.02032 0.99163 1.08552
 O305 O 0.00900 1.09408 1.01993
 O306 O -0.02284 1.09633 0.97168
 O307 O -0.05722 0.93501 0.99800
 O308 O -0.02121 0.92637 1.04029
 O309 O 0.00321 0.94763 0.91840
 O310 O 0.04794 0.98330 0.90987
 O311 O -0.07346 1.01047 0.93502
 O312 O -0.07850 1.05694 0.97081
 Zr313 Zr -0.05506 1.01411 0.98111
 O314 O -0.02749 1.04390 1.00951
 Zr315 Zr 0.00618 0.99404 0.93557
 O316 O 0.03602 1.02342 0.96175
 Zr317 Zr -0.01112 0.95208 0.99902
 O318 O 0.01833 0.97926 1.02794
 Zr319 Zr 0.01039 1.06070 0.98270
 O320 O -0.01901 1.03346 0.95307
 Zr321 Zr -0.00661 1.01849 1.04602
 O322 O -0.03714 0.98927 1.01989
 Zr323 Zr 0.05425 0.99838 1.00009
 O324 O 0.02704 0.96783 0.97183
 O325 O -0.03096 0.97583 0.96138
 O326 O 0.03065 1.03691 1.02039
 C327 C -0.08390 0.94838 0.99332
 C328 C -0.06043 1.00518 0.90787
 C329 C -0.00172 0.92149 0.93222
 C330 C 0.08256 1.06493 0.99191
 C331 C 0.00352 1.09119 1.04971
 C332 C 0.06090 1.00934 1.07260
 H333 H -0.04079 1.06140 1.01773
 H334 H 0.02669 0.96595 1.04497
 H335 H -0.04464 0.96233 0.94830
 H336 H 0.05278 1.03137 0.94773
 H337 H 0.00877 1.08101 0.92541
 H338 H 0.02706 1.03775 0.89959
 H339 H -0.00621 0.97309 1.08636
 H340 H -0.03620 0.93931 1.05305
 H341 H -0.01218 1.11688 0.97298
 H342 H -0.09953 1.05219 0.96213
 H343 H 0.07298 0.94721 1.02710
 H344 H 0.03717 0.91512 0.99927
 H345 H -0.08927 1.01568 1.03200
 H346 H -0.05759 1.04683 1.06559
 H347 H 0.05832 0.96561 0.92073
 H348 H 0.09333 0.99807 0.95244
 O349 O 0.42555 0.46181 0.49008
 O350 O 0.41261 0.50960 0.50935
 O351 O 0.49306 0.48034 0.41507
 O352 O 0.53760 0.50682 0.41073
 O353 O 0.51015 0.40730 0.47811
 O354 O 0.53007 0.40472 0.53075
 O355 O 0.55851 0.57386 0.50374
 O356 O 0.53232 0.57615 0.45675
 O357 O 0.49429 0.55584 0.57568
 O358 O 0.45171 0.51787 0.58275
 O359 O 0.57501 0.50142 0.56910
 O360 O 0.59409 0.45954 0.53934
 O361 O 0.59030 0.53426 0.52055
 O362 O 0.60352 0.47920 0.49692
 O363 O 0.52891 0.51036 0.59539
 O364 O 0.47787 0.48113 0.59630
 O365 O 0.50899 0.58424 0.53295
 O366 O 0.48142 0.58338 0.48116
 O367 O 0.45590 0.42196 0.50884
 O368 O 0.48881 0.41658 0.55515
 O369 O 0.52835 0.43592 0.43687
 O370 O 0.57058 0.47566 0.43335
 O371 O 0.44583 0.49210 0.43828
 O372 O 0.43259 0.54064 0.47176
 Zr373 Zr 0.45634 0.49960 0.48703
 O374 O 0.47688 0.53175 0.51888
 Zr375 Zr 0.52476 0.48271 0.45223
 O376 O 0.54769 0.51581 0.48068
 Zr377 Zr 0.50118 0.44140 0.51393
 O378 O 0.52492 0.47170 0.54534
 Zr379 Zr 0.51610 0.55096 0.49646
 O380 O 0.49424 0.52058 0.46355
 Zr381 Zr 0.49493 0.50903 0.55893
 O382 O 0.47024 0.47739 0.52928
 Zr383 Zr 0.56243 0.49359 0.52195
 O384 O 0.54184 0.45932 0.49211
 O385 O 0.48553 0.46255 0.47302
 O386 O 0.53327 0.53019 0.53744
 C387 C 0.42942 0.43370 0.50004
 C388 C 0.46335 0.48472 0.41411
 C389 C 0.52111 0.40994 0.44976
 C390 C 0.58504 0.56296 0.51276
 C391 C 0.50052 0.58184 0.56207
 C392 C 0.55900 0.50708 0.59439
 H393 H 0.46138 0.54829 0.52482
 H394 H 0.53225 0.45961 0.56373
 H395 H 0.47458 0.44744 0.45908
 H396 H 0.56533 0.52476 0.46853
 H397 H 0.51895 0.56995 0.43868
 H398 H 0.54505 0.52769 0.41759
 H399 H 0.49408 0.46506 0.60087
 H400 H 0.47087 0.42808 0.56505
 H401 H 0.48989 0.60482 0.48386
 H402 H 0.41471 0.53434 0.45826
 H403 H 0.58124 0.44268 0.54849
 H404 H 0.55087 0.40719 0.52048
 H405 H 0.41517 0.50424 0.53193
 H406 H 0.44039 0.53445 0.57115
 H407 H 0.58024 0.45808 0.44501
 H408 H 0.60844 0.49552 0.48125
 O409 O 0.53885 0.02460 0.42207
 O410 O 0.48955 0.00841 0.41373
 O411 O 0.52685 0.10161 0.49029
 O412 O 0.50523 0.10873 0.53804
 O413 O 0.59895 0.03452 0.50327
 O414 O 0.59968 -0.01815 0.52391
 O415 O 0.43522 0.02301 0.56553
 O416 O 0.43466 0.06997 0.53900
 O417 O 0.44355 -0.04989 0.50101
 O418 O 0.47878 -0.06092 0.45459
 O419 O 0.50534 -0.04785 0.57740
 O420 O 0.54994 -0.02036 0.59210
 O421 O 0.47494 0.00178 0.59433
 O422 O 0.53137 0.02258 0.60346
 O423 O 0.49102 -0.07300 0.53202
 O424 O 0.51538 -0.07791 0.47834
 O425 O 0.41979 -0.00454 0.51789
 O426 O 0.42204 0.04565 0.48885
 O427 O 0.57943 0.00390 0.45006
 O428 O 0.58499 -0.04128 0.48321
 O429 O 0.57347 0.07843 0.52135
 O430 O 0.53842 0.08437 0.56817
 O431 O 0.51209 0.07833 0.44392
 O432 O 0.46182 0.04900 0.43508
 Zr433 Zr 0.50328 0.03118 0.45620
 O434 O 0.47049 0.00338 0.48030
 Zr435 Zr 0.52628 0.06579 0.52318
 O436 O 0.49349 0.04078 0.54981
 Zr437 Zr 0.56261 0.00122 0.49726
 O438 O 0.53190 -0.02709 0.52381
 Zr439 Zr 0.45573 0.02808 0.52106
 O440 O 0.48627 0.05716 0.49560
 Zr441 Zr 0.49173 -0.03781 0.49717
 O442 O 0.52391 -0.01191 0.46943
 Zr443 Zr 0.51408 -0.00179 0.56329
 O444 O 0.54844 0.02480 0.53924
 O445 O 0.54271 0.04289 0.48233
 O446 O 0.47480 -0.01407 0.53719
 C447 C 0.56665 0.01283 0.42409
 C448 C 0.52071 0.10216 0.46071
 C449 C 0.59839 0.06340 0.51296
 C450 C 0.44652 0.01183 0.59103
 C451 C 0.41926 -0.03352 0.50970
 C452 C 0.49707 -0.07239 0.56187
 H453 H 0.45256 -0.00120 0.46631
 H454 H 0.54341 -0.04619 0.53026
 H455 H 0.55767 0.05535 0.46972
 H456 H 0.48634 0.05360 0.56825
 H457 H 0.44100 0.08694 0.52457
 H458 H 0.48544 0.10363 0.54912
 H459 H 0.53327 -0.08260 0.49237
 H460 H 0.57127 -0.05117 0.46720
 H461 H 0.40117 0.04543 0.49946
 H462 H 0.46771 0.06071 0.41580
 H463 H 0.56439 -0.03239 0.57794
 H464 H 0.59948 -0.00690 0.54460
 H465 H 0.49434 -0.01415 0.41642
 H466 H 0.46148 -0.04873 0.44504
 H467 H 0.55558 0.07104 0.57643
 H468 H 0.51578 0.03897 0.60961
 O469 O 0.00799 0.59738 0.99414
 O470 O -0.01921 0.59557 1.04279
 O471 O 0.07492 0.52342 0.99790
 O472 O 0.07279 0.47119 1.01157
 O473 O 0.01863 0.52908 0.91556
 O474 O -0.03435 0.51953 0.90354
 O475 O -0.02324 0.43550 1.05474
 O476 O 0.02189 0.45679 1.07131
 O477 O -0.09006 0.51292 1.05507
 O478 O -0.08857 0.56614 1.03254
 O479 O -0.08624 0.45130 0.98336
 O480 O -0.05181 0.44858 0.93172
 O481 O -0.03985 0.42058 1.00569
 O482 O -0.01865 0.42206 0.95287
 O483 O -0.10751 0.49801 0.99919
 O484 O -0.10214 0.55384 0.98919
 O485 O -0.05270 0.48395 1.07992
 O486 O 0.00033 0.50392 1.09310
 O487 O -0.00755 0.58206 0.94474
 O488 O -0.05492 0.55829 0.92515
 O489 O 0.05716 0.50368 0.94242
 O490 O 0.05530 0.45251 0.96517
 O491 O 0.05214 0.56618 1.02184
 O492 O 0.01728 0.56552 1.06857
 Zr493 Zr 0.00397 0.55660 1.02095
 O494 O -0.03078 0.52949 1.04261
 Zr495 Zr 0.03669 0.49410 0.98633
 O496 O 0.00301 0.46428 1.00631
 Zr497 Zr -0.01870 0.53395 0.94875
 O498 O -0.05493 0.50618 0.96764
 Zr499 Zr -0.01363 0.48365 1.04926
 O500 O 0.02278 0.51192 1.03096
 Zr501 Zr -0.06885 0.52479 1.01189
 O502 O -0.03548 0.55457 0.99129
 Zr503 Zr -0.03746 0.46127 0.97805
 O504 O -0.00179 0.48799 0.95562
 O505 O 0.02016 0.53897 0.97747
 O506 O -0.05351 0.47918 1.02126
 C507 C 0.00175 0.60284 0.96501
 C508 C 0.07613 0.55070 1.01147
 C509 C 0.04620 0.51656 0.91760
 C510 C -0.03266 0.41476 1.03455
 C511 C -0.07982 0.49740 1.07868
 C512 C -0.10989 0.46920 0.99088
 H513 H -0.03699 0.53944 1.06305
 H514 H -0.07258 0.50528 0.95261
 H515 H 0.03612 0.55238 0.96740
 H516 H 0.01307 0.44355 1.00929
 H517 H 0.04128 0.46938 1.07047
 H518 H 0.06316 0.45367 1.02315
 H519 H -0.10437 0.54596 0.96718
 H520 H -0.06459 0.57293 0.94092
 H521 H -0.00564 0.48944 1.11028
 H522 H 0.02907 0.58546 1.06954
 H523 H -0.07233 0.45883 0.92774
 H524 H -0.03022 0.49667 0.90202
 H525 H -0.03807 0.60018 1.03005
 H526 H -0.07880 0.56949 1.05347
 H527 H 0.04230 0.44788 0.94638
 H528 H 0.00138 0.41638 0.96312
 O529 O 0.00953 0.42026 0.52638
 O530 O -0.01827 0.41513 0.48006
 O531 O 0.09046 0.47338 0.49916
 O532 O 0.09692 0.52355 0.47259
 O533 O 0.04028 0.49908 0.58213
 O534 O -0.00721 0.52655 0.59367
 O535 O 0.00319 0.56294 0.42403
 O536 O 0.04436 0.53132 0.41179
 O537 O -0.07335 0.50801 0.44836
 O538 O -0.08279 0.46621 0.48441
 O539 O -0.04809 0.58418 0.50647
 O540 O -0.00804 0.59177 0.54739
 O541 O -0.00305 0.59405 0.46798
 O542 O 0.02800 0.59979 0.51732
 O543 O -0.08042 0.54321 0.49674
 O544 O -0.08644 0.49095 0.52528
 O545 O -0.03302 0.51677 0.41408
 O546 O 0.01597 0.48369 0.40593
 O547 O 0.00119 0.45149 0.56999
 O548 O -0.03803 0.49058 0.58382
 O549 O 0.08112 0.51042 0.54932
 O550 O 0.08901 0.55171 0.51196
 O551 O 0.05836 0.43221 0.48908
 O552 O 0.01956 0.42935 0.44482
 Zr553 Zr 0.01280 0.45257 0.48922
 O554 O -0.01786 0.48085 0.46262
 Zr555 Zr 0.06007 0.51239 0.50431
 O556 O 0.03199 0.54274 0.47735
 Zr557 Zr 0.00067 0.49776 0.55314
 O558 O -0.02961 0.52837 0.52913
 Zr559 Zr 0.00758 0.51753 0.44246
 O560 O 0.03927 0.48746 0.46658
 Zr561 Zr -0.05115 0.50342 0.49225
 O562 O -0.02319 0.47196 0.51835
 Zr563 Zr -0.00326 0.56300 0.50631
 O564 O 0.02670 0.53488 0.53417
 O565 O 0.03548 0.47637 0.52553
 O566 O -0.02703 0.53945 0.47032
 C567 C 0.00432 0.42453 0.55623
 C568 C 0.08566 0.44416 0.49319
 C569 C 0.06941 0.50479 0.57678
 C570 C -0.00051 0.58983 0.43785
 C571 C -0.06230 0.51263 0.42051
 C572 C -0.07535 0.57245 0.50221
 H573 H -0.02781 0.46773 0.44609
 H574 H -0.04509 0.53751 0.54430
 H575 H 0.04897 0.46232 0.53816
 H576 H 0.04551 0.55868 0.46749
 H577 H 0.06226 0.51701 0.41575
 H578 H 0.09624 0.50817 0.45485
 H579 H -0.08823 0.50794 0.54142
 H580 H -0.05205 0.47571 0.57280
 H581 H 0.01052 0.49338 0.38544
 H582 H 0.02861 0.40818 0.44851
 H583 H -0.02492 0.58296 0.56071
 H584 H 0.00470 0.54604 0.59018
 H585 H -0.03788 0.42000 0.49198
 H586 H -0.07388 0.45270 0.46727
 H587 H 0.07851 0.56479 0.52856
 H588 H 0.04449 0.60002 0.50067
 O589 O 0.57205 0.96352 0.03471
 O590 O 0.58017 1.01235 0.01592
 O591 O 0.48659 0.98120 0.09367
 O592 O 0.43745 0.99712 0.08472
 O593 O 0.49466 0.89831 0.03423
 O594 O 0.48937 0.88823 -0.02105
 O595 O 0.42494 1.04829 -0.01471
 O596 O 0.44155 1.06153 0.03480
 O597 O 0.50972 1.03738 -0.07037
 O598 O 0.55888 1.00795 -0.06266
 O599 O 0.44044 0.97387 -0.07736
 O600 O 0.42526 0.92608 -0.04566
 O601 O 0.40724 1.00261 -0.03639
 O602 O 0.39840 0.95086 -0.01461
 O603 O 0.49028 0.98597 -0.09192
 O604 O 0.54393 0.96623 -0.07851
 O605 O 0.47920 1.06608 -0.03601
 O606 O 0.49330 1.07577 0.02055
 O607 O 0.55165 0.91745 0.01663
 O608 O 0.53356 0.90345 -0.03490
 O609 O 0.46633 0.92701 0.07038
 O610 O 0.41795 0.95715 0.06025
 O611 O 0.53611 0.99499 0.07933
 O612 O 0.54759 1.04204 0.04553
 Zr613 Zr 0.53509 0.99651 0.02931
 O614 O 0.51653 1.02228 -0.00863
 Zr615 Zr 0.46436 0.97175 0.05048
 O616 O 0.44298 0.99677 0.01387
 Zr617 Zr 0.50738 0.92993 -0.00094
 O618 O 0.48773 0.95275 -0.03999
 Zr619 Zr 0.46996 1.03587 0.00196
 O620 O 0.48959 1.01293 0.04158
 Zr621 Zr 0.51337 0.99341 -0.04904
 O622 O 0.53519 0.96866 -0.01231
 Zr623 Zr 0.44253 0.96919 -0.02781
 O624 O 0.46070 0.94260 0.01001
 O625 O 0.50999 0.95661 0.04050
 O626 O 0.46762 1.00903 -0.03953
 C627 C 0.57408 0.93397 0.02786
 C628 C 0.51468 0.98952 0.10019
 C629 C 0.47885 0.90133 0.06015
 C630 C 0.40392 1.03165 -0.02868
 C631 C 0.49548 1.06271 -0.06169
 C632 C 0.46159 0.98003 -0.09821
 H633 H 0.52970 1.04082 -0.01254
 H634 H 0.48759 0.93825 -0.05845
 H635 H 0.51981 0.94491 0.05800
 H636 H 0.42162 1.00300 0.02100
 H637 H 0.45110 1.05866 0.05590
 H638 H 0.42726 1.01475 0.07368
 H639 H 0.53261 0.94712 -0.08514
 H640 H 0.55093 0.91697 -0.04203
 H641 H 0.48217 1.09482 0.01309
 H642 H 0.56290 1.04006 0.06299
 H643 H 0.44012 0.91806 -0.06207
 H644 H 0.46632 0.88922 -0.01787
 H645 H 0.58410 1.00426 -0.00586
 H646 H 0.56339 1.02783 -0.05130
 H647 H 0.41428 0.93813 0.04714
 H648 H 0.39032 0.96362 0.00350
 O649 O 0.55195 0.40975 0.00636
 O650 O 0.52046 0.40038 0.05005
 O651 O 0.48162 0.42778 -0.06706
 O652 O 0.44247 0.46193 -0.07366
 O653 O 0.56254 0.48650 -0.05813
 O654 O 0.57385 0.53038 -0.02119
 O655 O 0.40882 0.51400 0.02075
 O656 O 0.40070 0.46705 -0.00493
 O657 O 0.47076 0.49099 0.09683
 O658 O 0.52283 0.46259 0.09775
 O659 O 0.49021 0.56824 0.04111
 O660 O 0.51243 0.57548 -0.01342
 O661 O 0.43934 0.55625 0.01008
 O662 O 0.47197 0.56767 -0.03529
 O663 O 0.50401 0.53732 0.08223
 O664 O 0.54872 0.50015 0.08642
 O665 O 0.42602 0.48320 0.06892
 O666 O 0.41919 0.43467 0.03662
 O667 O 0.58149 0.45226 -0.00572
 O668 O 0.59063 0.50199 0.01409
 O669 O 0.51715 0.47405 -0.08320
 O670 O 0.46844 0.50503 -0.08275
 O671 O 0.50024 0.39730 -0.02748
 O672 O 0.47445 0.39239 0.02535
 Zr673 Zr 0.50590 0.42812 0.01151
 O674 O 0.47947 0.45508 0.04470
 Zr675 Zr 0.48318 0.47318 -0.04765
 O676 O 0.45645 0.50217 -0.01718
 Zr677 Zr 0.54885 0.48951 -0.00934
 O678 O 0.52466 0.51875 0.02379
 Zr679 Zr 0.44133 0.47653 0.02197
 O680 O 0.46539 0.44631 -0.01041
 Zr681 Zr 0.50647 0.49239 0.06156
 O682 O 0.53413 0.46387 0.03050
 Zr683 Zr 0.48470 0.53763 0.00208
 O684 O 0.51072 0.51099 -0.03204
 O685 O 0.52256 0.45273 -0.02718
 O686 O 0.46744 0.51333 0.04084
 C687 C 0.57847 0.42311 0.00113
 C688 C 0.48988 0.40127 -0.05573
 C689 C 0.54645 0.48003 -0.08317
 C690 C 0.41274 0.54342 0.01561
 C691 C 0.44078 0.48779 0.09488
 C692 C 0.49767 0.56401 0.07021
 H693 H 0.47216 0.44154 0.06205
 H694 H 0.53896 0.53527 0.03140
 H695 H 0.53507 0.43899 -0.04171
 H696 H 0.43860 0.51081 -0.02919
 H697 H 0.40550 0.44806 -0.01794
 H698 H 0.42431 0.47177 -0.06251
 H699 H 0.55892 0.51873 0.07725
 H700 H 0.58835 0.49447 0.03606
 H701 H 0.39817 0.44031 0.04541
 H702 H 0.48345 0.37170 0.01883
 H703 H 0.53142 0.57623 -0.00012
 H704 H 0.56110 0.54165 -0.03698
 H705 H 0.53478 0.41344 0.06285
 H706 H 0.50710 0.44600 0.10092
 H707 H 0.48379 0.52231 -0.08300
 H708 H 0.45548 0.55704 -0.04767
 O709 O -0.06406 0.03681 0.51120
 O710 O -0.07103 -0.01529 0.50005
 O711 O 0.00231 0.03807 0.58755
 O712 O 0.05198 0.02614 0.59597
 O713 O 0.01497 0.09851 0.50355
 O714 O 0.03267 0.08887 0.45165
 O715 O 0.08220 -0.06177 0.52124
 O716 O 0.05599 -0.05493 0.56878
 O717 O 0.01732 -0.06975 0.44959
 O718 O -0.02642 -0.04217 0.43197
 O719 O 0.09185 -0.00598 0.44023
 O720 O 0.10331 0.04499 0.46063
 O721 O 0.10954 -0.02483 0.49437
 O722 O 0.11549 0.03390 0.50518
 O723 O 0.04764 -0.02580 0.41814
 O724 O -0.00826 -0.00394 0.41156
 O725 O 0.03398 -0.08466 0.49821
 O726 O 0.00619 -0.07251 0.54933
 O727 O -0.03760 0.07319 0.48271
 O728 O -0.00693 0.06686 0.43365
 O729 O 0.02980 0.08455 0.55307
 O730 O 0.07877 0.05263 0.56506
 O731 O -0.04203 0.01622 0.56772
 O732 O -0.05022 -0.03627 0.54398
 Zr733 Zr -0.02966 0.00252 0.52085
 O734 O -0.00382 -0.03400 0.49839
 Zr735 Zr 0.03492 0.03512 0.55010
 O736 O 0.06305 -0.00136 0.53063
 Zr737 Zr 0.00881 0.05580 0.47961
 O738 O 0.03731 0.02170 0.45671
 Zr739 Zr 0.03696 -0.04249 0.52445
 O740 O 0.01011 -0.00748 0.54848
 Zr741 Zr 0.01256 -0.02054 0.45357
 O742 O -0.01716 0.01451 0.47412
 Zr743 Zr 0.07660 0.01098 0.48464
 O744 O 0.05054 0.04886 0.50507
 O745 O -0.00577 0.04465 0.52525
 O746 O 0.05274 -0.03114 0.47913
 C747 C -0.06271 0.06254 0.49559
 C748 C -0.02607 0.02862 0.59032
 C749 C 0.02273 0.10505 0.53209
 C750 C 0.10735 -0.05131 0.50844
 C751 C 0.02560 -0.09067 0.46964
 C752 C 0.07688 -0.01845 0.41718
 H753 H -0.01697 -0.05295 0.49701
 H754 H 0.04340 0.02968 0.43567
 H755 H -0.01863 0.06111 0.53609
 H756 H 0.08127 -0.00519 0.54446
 H757 H 0.04203 -0.04538 0.58522
 H758 H 0.05839 0.00380 0.59599
 H759 H 0.00633 0.01122 0.40197
 H760 H -0.02481 0.05292 0.42901
 H761 H 0.01705 -0.09300 0.55196
 H762 H -0.07007 -0.02933 0.55455
 H763 H 0.09048 0.05272 0.44289
 H764 H 0.05426 0.09008 0.46006
 H765 H -0.06938 -0.01150 0.47701
 H766 H -0.04038 -0.04929 0.44922
 H767 H 0.08569 0.06785 0.54900
 H768 H 0.12078 0.02307 0.52504
 O769 O 0.75477 0.21390 0.34503
 O770 O 0.77358 0.26423 0.35075
 O771 O 0.67312 0.22381 0.28641
 O772 O 0.66072 0.23609 0.23816
 O773 O 0.74555 0.15287 0.27197
 O774 O 0.79195 0.15227 0.23989
 O775 O 0.73958 0.31298 0.19961
 O776 O 0.69728 0.31460 0.23265
 O777 O 0.82007 0.30953 0.25538
 O778 O 0.83842 0.28072 0.29789
 O779 O 0.81204 0.24604 0.18058
 O780 O 0.78595 0.20016 0.17022
 O781 O 0.75920 0.27303 0.16877
 O782 O 0.74041 0.21569 0.16476
 O783 O 0.84132 0.26271 0.22218
 O784 O 0.85144 0.23922 0.27705
 O785 O 0.77287 0.33312 0.24639
 O786 O 0.72415 0.32816 0.27989
 O787 O 0.78132 0.17729 0.31529
 O788 O 0.82119 0.17119 0.27362
 O789 O 0.69951 0.17202 0.25296
 O790 O 0.68461 0.20747 0.20707
 O791 O 0.70044 0.24221 0.32875
 O792 O 0.73079 0.29124 0.33488
 Zr793 Zr 0.74653 0.24944 0.31152
 O794 O 0.77020 0.28232 0.28330
 Zr795 Zr 0.70664 0.22130 0.24973
 O796 O 0.72674 0.25509 0.21998
 Zr797 Zr 0.77578 0.19077 0.26789
 O798 O 0.79884 0.22096 0.23654
 Zr799 Zr 0.74114 0.29505 0.24565
 O800 O 0.71640 0.26343 0.27478
 Zr801 Zr 0.81015 0.26209 0.26139
 O802 O 0.78935 0.23069 0.29357
 Zr803 Zr 0.76834 0.23610 0.20066
 O804 O 0.74705 0.20118 0.22886
 O805 O 0.73427 0.20849 0.28778
 O806 O 0.78192 0.27690 0.22429
 C807 C 0.77046 0.18802 0.34184
 C808 C 0.67495 0.23342 0.31529
 C809 C 0.71701 0.14961 0.26348
 C810 C 0.74759 0.30089 0.17261
 C811 C 0.80283 0.33369 0.25021
 C812 C 0.83773 0.25551 0.19275
 H813 H 0.77563 0.30083 0.29645
 H814 H 0.81759 0.20996 0.22773
 H815 H 0.72325 0.19421 0.30235
 H816 H 0.71146 0.26088 0.20349
 H817 H 0.68153 0.30630 0.24766
 H818 H 0.66195 0.25887 0.23435
 H819 H 0.85815 0.22404 0.26032
 H820 H 0.83197 0.18435 0.28958
 H821 H 0.72370 0.34912 0.26997
 H822 H 0.72165 0.28581 0.35578
 H823 H 0.79671 0.18482 0.18384
 H824 H 0.77743 0.15036 0.22178
 H825 H 0.79529 0.25651 0.34684
 H826 H 0.82405 0.28928 0.31445
 H827 H 0.69690 0.18955 0.19811
 H828 H 0.72256 0.23009 0.16077
 O829 O 0.74889 0.71377 0.66901
 O830 O 0.79984 0.71270 0.68621
 O831 O 0.69875 0.68091 0.75322
 O832 O 0.68838 0.69795 0.80231
 O833 O 0.66356 0.76373 0.70087
 O834 O 0.67991 0.81590 0.69805
 O835 O 0.77530 0.77075 0.83559
 O836 O 0.76492 0.71764 0.83258
 O837 O 0.82651 0.79643 0.75773
 O838 O 0.82241 0.78795 0.70013
 O839 O 0.74799 0.84726 0.78361
 O840 O 0.69057 0.84083 0.77535
 O841 O 0.73832 0.80911 0.82935
 O842 O 0.68345 0.81092 0.81083
 O843 O 0.78736 0.84086 0.74731
 O844 O 0.79090 0.82183 0.69167
 O845 O 0.82061 0.76112 0.79722
 O846 O 0.80461 0.70567 0.79326
 O847 O 0.71283 0.75284 0.66162
 O848 O 0.71907 0.80940 0.66856
 O849 O 0.65681 0.72831 0.74011
 O850 O 0.66294 0.73978 0.79835
 O851 O 0.73718 0.67516 0.71572
 O852 O 0.79332 0.68303 0.73014
 Zr853 Zr 0.76062 0.71838 0.71702
 O854 O 0.78955 0.74691 0.74509
 Zr855 Zr 0.69945 0.72910 0.76546
 O856 O 0.72630 0.75728 0.79625
 Zr857 Zr 0.71055 0.77744 0.70546
 O858 O 0.73698 0.80827 0.73383
 Zr859 Zr 0.77417 0.74542 0.79242
 O860 O 0.74680 0.71418 0.76490
 Zr861 Zr 0.78431 0.79400 0.73229
 O862 O 0.75832 0.76505 0.70140
 Zr863 Zr 0.72381 0.80423 0.78179
 O864 O 0.69423 0.77645 0.75271
 O865 O 0.71317 0.73062 0.71823
 O866 O 0.77140 0.79253 0.77998
 C867 C 0.72969 0.72936 0.65175
 C868 C 0.71452 0.66458 0.73257
 C869 C 0.64693 0.74404 0.71630
 C870 C 0.75907 0.79452 0.84575
 C871 C 0.83666 0.78119 0.78164
 C872 C 0.77172 0.85726 0.76781
 H873 H 0.81151 0.73938 0.74287
 H874 H 0.73406 0.82989 0.72614
 H875 H 0.70041 0.71688 0.70445
 H876 H 0.71871 0.75474 0.81827
 H877 H 0.75703 0.69733 0.82446
 H878 H 0.70471 0.70068 0.81857
 H879 H 0.77319 0.83699 0.69077
 H880 H 0.74002 0.80400 0.65957
 H881 H 0.81769 0.70723 0.81254
 H882 H 0.79191 0.66517 0.71491
 H883 H 0.69672 0.85239 0.75615
 H884 H 0.66937 0.82033 0.71865
 H885 H 0.80349 0.73335 0.67648
 H886 H 0.83421 0.76887 0.70616
 H887 H 0.65210 0.75885 0.79069
 H888 H 0.68245 0.79315 0.82561
 O889 O 0.30577 0.25292 0.82615
 O890 O 0.27353 0.29702 0.83559
 O891 O 0.24258 0.17888 0.80528
 O892 O 0.20503 0.16806 0.77036
 O893 O 0.32257 0.19482 0.74402
 O894 O 0.33285 0.23257 0.70321
 O895 O 0.16333 0.26429 0.72350
 O896 O 0.15699 0.23418 0.76760
 O897 O 0.21977 0.33996 0.74822
 O898 O 0.27143 0.34521 0.77430
 O899 O 0.24319 0.28642 0.66595
 O900 O 0.26666 0.23621 0.65567
 O901 O 0.19390 0.25491 0.67975
 O902 O 0.23072 0.20837 0.66762
 O903 O 0.25514 0.32733 0.69861
 O904 O 0.29791 0.33577 0.73615
 O905 O 0.17751 0.30951 0.75882
 O906 O 0.17345 0.27407 0.80451
 O907 O 0.33681 0.24351 0.78268
 O908 O 0.34402 0.27001 0.73318
 O909 O 0.27997 0.16518 0.75556
 O910 O 0.23035 0.16295 0.72600
 O911 O 0.25639 0.21955 0.83758
 O912 O 0.22825 0.26987 0.84423
 Zr913 Zr 0.26058 0.25788 0.80730
 O914 O 0.23224 0.28902 0.78174
 Zr915 Zr 0.24290 0.19789 0.75958
 O916 O 0.21340 0.22658 0.73238
 Zr917 Zr 0.30523 0.24151 0.74427
 O918 O 0.27847 0.27194 0.71585
 Zr919 Zr 0.19586 0.26388 0.76036
 O920 O 0.22220 0.23302 0.78866
 Zr921 Zr 0.25788 0.30783 0.74402
 O922 O 0.28764 0.27935 0.77187
 Zr923 Zr 0.23993 0.24803 0.69669
 O924 O 0.26916 0.21645 0.72181
 O925 O 0.28006 0.22106 0.78064
 O926 O 0.22023 0.28491 0.72322
 C927 C 0.33257 0.24783 0.81272
 C928 C 0.24854 0.19093 0.83261
 C929 C 0.30922 0.16833 0.74891
 C930 C 0.16731 0.26063 0.69347
 C931 C 0.19039 0.33610 0.75438
 C932 C 0.24959 0.31541 0.67115
 H933 H 0.22387 0.30545 0.79638
 H934 H 0.29223 0.28037 0.69910
 H935 H 0.29307 0.20685 0.79358
 H936 H 0.19610 0.21397 0.72359
 H937 H 0.16221 0.22087 0.78592
 H938 H 0.18571 0.17840 0.76270
 H939 H 0.31031 0.32579 0.71876
 H940 H 0.34175 0.28925 0.74644
 H941 H 0.15170 0.28132 0.80026
 H942 H 0.23801 0.26505 0.86490
 H943 H 0.28719 0.24663 0.65769
 H944 H 0.32087 0.21771 0.68989
 H945 H 0.28875 0.30921 0.82303
 H946 H 0.25741 0.34522 0.79311
 H947 H 0.24552 0.16421 0.70816
 H948 H 0.21058 0.19933 0.67466
 O949 O 0.18829 0.74426 0.31383
 O950 O 0.22020 0.70133 0.32257
 O951 O 0.25211 0.81883 0.29443
 O952 O 0.28978 0.82938 0.25907
 O953 O 0.17233 0.80274 0.23271
 O954 O 0.16180 0.76510 0.19223
 O955 O 0.33134 0.73136 0.20941
 O956 O 0.33765 0.76228 0.25390
 O957 O 0.27364 0.65721 0.23198
 O958 O 0.22242 0.65220 0.25907
 O959 O 0.25081 0.71063 0.15204
 O960 O 0.22863 0.76164 0.14343
 O961 O 0.30139 0.74207 0.16635
 O962 O 0.26493 0.78844 0.15525
 O963 O 0.24019 0.66976 0.18433
 O964 O 0.19520 0.66307 0.22203
 O965 O 0.31624 0.68715 0.24275
 O966 O 0.32051 0.72239 0.29001
 O967 O 0.15776 0.75459 0.27104
 O968 O 0.15095 0.72757 0.22119
 O969 O 0.21474 0.83251 0.24452
 O970 O 0.26517 0.83445 0.21547
 O971 O 0.23977 0.77796 0.32619
 O972 O 0.26601 0.72685 0.33051
 Zr973 Zr 0.23386 0.73990 0.29468
 O974 O 0.26182 0.70827 0.26780
 Zr975 Zr 0.25185 0.79965 0.24813
 O976 O 0.28134 0.77052 0.21979
 Zr977 Zr 0.18958 0.75626 0.23246
 O978 O 0.21611 0.72566 0.20273
 Zr979 Zr 0.29846 0.73301 0.24648
 O980 O 0.27237 0.76436 0.27587
 Zr981 Zr 0.23611 0.68977 0.22990
 O982 O 0.20679 0.71856 0.25903
 Zr983 Zr 0.25497 0.74919 0.18371
 O984 O 0.22587 0.78102 0.21013
 O985 O 0.21449 0.77681 0.26926
 O986 O 0.27403 0.71228 0.20914
 C987 C 0.16159 0.74920 0.30071
 C988 C 0.24754 0.80660 0.32175
 C989 C 0.18563 0.82926 0.23754
 C990 C 0.32778 0.73549 0.17959
 C991 C 0.30309 0.66076 0.23731
 C992 C 0.24544 0.68146 0.15700
 H993 H 0.27002 0.69167 0.28174
 H994 H 0.20237 0.71730 0.18593
 H995 H 0.20152 0.79115 0.28276
 H996 H 0.29886 0.78292 0.21117
 H997 H 0.33267 0.77543 0.27285
 H998 H 0.30916 0.81828 0.25206
 H999 H 0.18468 0.67141 0.20306
 H1000 H 0.15313 0.70843 0.23404
 H1001 H 0.34212 0.71474 0.28517
 H1002 H 0.25672 0.73208 0.35161
 H1003 H 0.20818 0.75097 0.14503
 H1004 H 0.17423 0.77901 0.17846
 H1005 H 0.20646 0.68812 0.30925
 H1006 H 0.23647 0.65196 0.27760
 H1007 H 0.25057 0.83292 0.19741
 H1008 H 0.28468 0.79779 0.16287
 O1009 O 0.21761 0.65943 0.74888
 O1010 O 0.26498 0.65286 0.72094
 O1011 O 0.24211 0.71431 0.83082
 O1012 O 0.26416 0.76084 0.84045
 O1013 O 0.16116 0.74083 0.77372
 O1014 O 0.15583 0.76620 0.72409
 O1015 O 0.32192 0.80106 0.74820
 O1016 O 0.32949 0.76796 0.79092
 O1017 O 0.30490 0.74209 0.66956
 O1018 O 0.26758 0.69930 0.65865
 O1019 O 0.24686 0.81914 0.68844
 O1020 O 0.20096 0.82852 0.72666
 O1021 O 0.27917 0.83184 0.73836
 O1022 O 0.22876 0.84013 0.76278
 O1023 O 0.25862 0.77705 0.65670
 O1024 O 0.23049 0.72697 0.64889
 O1025 O 0.33500 0.75586 0.71166
 O1026 O 0.33906 0.72172 0.75889
 O1027 O 0.17568 0.69115 0.73808
 O1028 O 0.16697 0.72686 0.69550
 O1029 O 0.19130 0.75089 0.81683
 O1030 O 0.22859 0.79367 0.82598
 O1031 O 0.25392 0.67268 0.79838
 O1032 O 0.29797 0.66627 0.76079
 Zr1033 Zr 0.25536 0.69101 0.75238
 O1034 O 0.28513 0.71801 0.72367
 Zr1035 Zr 0.23772 0.75220 0.79913
 O1036 O 0.26688 0.78164 0.77232
 Zr1037 Zr 0.19384 0.73658 0.73628
 O1038 O 0.22090 0.76534 0.70677
 Zr1039 Zr 0.30327 0.75554 0.75033
 O1040 O 0.27622 0.72648 0.78027
 Zr1041 Zr 0.25899 0.73926 0.68791
 O1042 O 0.22970 0.70955 0.71444
 Zr1043 Zr 0.24157 0.80066 0.73440
 O1044 O 0.21132 0.77409 0.76348
 O1045 O 0.21809 0.71587 0.77326
 O1046 O 0.27892 0.77615 0.71328
 C1047 C 0.18830 0.66421 0.74304
 C1048 C 0.24910 0.68516 0.82588
 C1049 C 0.16467 0.74687 0.80336
 C1050 C 0.30857 0.82784 0.74368
 C1051 C 0.33124 0.74930 0.68212
 C1052 C 0.25354 0.80646 0.66133
 H1053 H 0.30223 0.70449 0.71494
 H1054 H 0.20752 0.77411 0.68999
 H1055 H 0.20469 0.70261 0.78676
 H1056 H 0.27539 0.79814 0.78641
 H1057 H 0.32531 0.75171 0.80691
 H1058 H 0.28326 0.77203 0.83375
 H1059 H 0.21276 0.74211 0.64824
 H1060 H 0.17929 0.71152 0.68253
 H1061 H 0.35964 0.73216 0.75664
 H1062 H 0.29301 0.64517 0.76901
 H1063 H 0.19163 0.82169 0.70637
 H1064 H 0.15838 0.78592 0.73642
 H1065 H 0.25276 0.65658 0.70149
 H1066 H 0.28523 0.68734 0.66786
 H1067 H 0.21141 0.80503 0.81524
 H1068 H 0.24056 0.83871 0.78280
 O1069 O 0.25353 0.17007 0.19968
 O1070 O 0.29558 0.16232 0.23384
 O1071 O 0.17561 0.19210 0.25966
 O1072 O 0.16360 0.22714 0.29834
 O1073 O 0.19533 0.24833 0.17910
 O1074 O 0.23055 0.28959 0.16888
 O1075 O 0.25698 0.27905 0.34106
 O1076 O 0.23003 0.23372 0.34866
 O1077 O 0.33615 0.25342 0.28325
 O1078 O 0.34379 0.22680 0.23348
 O1079 O 0.28061 0.33227 0.25913
 O1080 O 0.23025 0.33986 0.23457
 O1081 O 0.24816 0.32048 0.30868
 O1082 O 0.20247 0.32944 0.27154
 O1083 O 0.32314 0.30049 0.25055
 O1084 O 0.33126 0.26170 0.20412
 O1085 O 0.30561 0.24709 0.32709
 O1086 O 0.27196 0.19911 0.33297
 O1087 O 0.24537 0.21203 0.16777
 O1088 O 0.27041 0.26200 0.16000
 O1089 O 0.16342 0.24140 0.22191
 O1090 O 0.15849 0.27004 0.27343
 O1091 O 0.21757 0.15984 0.24964
 O1092 O 0.26727 0.15667 0.27960
 Zr1093 Zr 0.25581 0.19070 0.24518
 O1094 O 0.28600 0.21848 0.27286
 Zr1095 Zr 0.19448 0.23756 0.26056
 O1096 O 0.22186 0.26632 0.29022
 Zr1097 Zr 0.24035 0.25106 0.19834
 O1098 O 0.26878 0.28159 0.22464
 Zr1099 Zr 0.25980 0.24093 0.30905
 O1100 O 0.22967 0.21091 0.28305
 Zr1101 Zr 0.30438 0.25516 0.24593
 O1102 O 0.27766 0.22492 0.21708
 Zr1103 Zr 0.24290 0.30117 0.26280
 O1104 O 0.21307 0.27418 0.23351
 O1105 O 0.21949 0.21558 0.22407
 O1106 O 0.28002 0.27695 0.28329
 C1107 C 0.25015 0.18262 0.17237
 C1108 C 0.18819 0.16481 0.25530
 C1109 C 0.16823 0.24533 0.19206
 C1110 C 0.25295 0.30849 0.33602
 C1111 C 0.33233 0.25100 0.31326
 C1112 C 0.31022 0.32753 0.25518
 H1113 H 0.30277 0.20505 0.28170
 H1114 H 0.27725 0.29784 0.21055
 H1115 H 0.20610 0.20194 0.21082
 H1116 H 0.20846 0.27530 0.30738
 H1117 H 0.21739 0.21496 0.34364
 H1118 H 0.17444 0.23323 0.31806
 H1119 H 0.32524 0.28220 0.19515
 H1120 H 0.28959 0.24895 0.16232
 H1121 H 0.27968 0.20508 0.35429
 H1122 H 0.26275 0.13549 0.27081
 H1123 H 0.24219 0.33788 0.21442
 H1124 H 0.21555 0.30331 0.18076
 H1125 H 0.30860 0.17430 0.21879
 H1126 H 0.34257 0.20744 0.24606
 H1127 H 0.15972 0.28751 0.25827
 H1128 H 0.19284 0.32272 0.29171
 O1129 O 0.82109 0.69700 0.24577
 O1130 O 0.82901 0.73040 0.20355
 O1131 O 0.80164 0.75571 0.32541
 O1132 O 0.76826 0.79543 0.33784
 O1133 O 0.74122 0.67858 0.30573
 O1134 O 0.70096 0.66903 0.26782
 O1135 O 0.71539 0.83945 0.24448
 O1136 O 0.75995 0.84551 0.27381
 O1137 O 0.73887 0.78481 0.16448
 O1138 O 0.76440 0.73471 0.15528
 O1139 O 0.65954 0.75865 0.22124
 O1140 O 0.65239 0.73509 0.27139
 O1141 O 0.67355 0.80850 0.25558
 O1142 O 0.66397 0.77043 0.29996
 O1143 O 0.69063 0.75011 0.17783
 O1144 O 0.72939 0.70599 0.16692
 O1145 O 0.74952 0.82632 0.19691
 O1146 O 0.79577 0.83000 0.23201
 O1147 O 0.77908 0.66603 0.25643
 O1148 O 0.73026 0.65980 0.22863
 O1149 O 0.75271 0.72002 0.33792
 O1150 O 0.72422 0.77024 0.34406
 O1151 O 0.83314 0.74791 0.28215
 O1152 O 0.83674 0.77540 0.23143
 Zr1153 Zr 0.80166 0.74269 0.24411
 O1154 O 0.77420 0.77146 0.21476
 Zr1155 Zr 0.75602 0.75817 0.30690
 O1156 O 0.72737 0.78836 0.28028
 Zr1157 Zr 0.74058 0.69742 0.25986
 O1158 O 0.71054 0.72473 0.23169
 Zr1159 Zr 0.75291 0.80714 0.24238
 O1160 O 0.78280 0.78021 0.27155
 Zr1161 Zr 0.73658 0.74636 0.19563
 O1162 O 0.76626 0.71630 0.22195
 Zr1163 Zr 0.69166 0.76233 0.25867
 O1164 O 0.71846 0.73241 0.28802
 O1165 O 0.77693 0.72192 0.28085
 O1166 O 0.71578 0.78318 0.22138
 C1167 C 0.80845 0.67014 0.25056
 C1168 C 0.82875 0.75253 0.31206
 C1169 C 0.74620 0.69099 0.33311
 C1170 C 0.68605 0.83529 0.25024
 C1171 C 0.74453 0.81407 0.16948
 C1172 C 0.66370 0.75398 0.19137
 H1173 H 0.78781 0.78026 0.19806
 H1174 H 0.69397 0.71105 0.22312
 H1175 H 0.79040 0.70853 0.29420
 H1176 H 0.71882 0.80528 0.29420
 H1177 H 0.77857 0.84016 0.28662
 H1178 H 0.75901 0.81482 0.32916
 H1179 H 0.71071 0.69510 0.17522
 H1180 H 0.74345 0.66260 0.20947
 H1181 H 0.79076 0.85178 0.22561
 H1182 H 0.85775 0.76619 0.23581
 H1183 H 0.65405 0.71502 0.25943
 H1184 H 0.68765 0.68029 0.28372
 H1185 H 0.81604 0.71641 0.19023
 H1186 H 0.78416 0.74659 0.15692
 H1187 H 0.70638 0.75563 0.34243
 H1188 H 0.67167 0.78963 0.31062
 O1189 O 0.74950 0.32330 0.80983
 O1190 O 0.79348 0.33175 0.77609
 O1191 O 0.67419 0.30605 0.74797
 O1192 O 0.66199 0.27211 0.70911
 O1193 O 0.69345 0.24203 0.82564
 O1194 O 0.73159 0.20169 0.83321
 O1195 O 0.75651 0.22168 0.66196
 O1196 O 0.72729 0.26688 0.65761
 O1197 O 0.83494 0.24522 0.71844
 O1198 O 0.84228 0.27011 0.76941
 O1199 O 0.78207 0.16516 0.74061
 O1200 O 0.73056 0.15709 0.76672
 O1201 O 0.75129 0.17891 0.69315
 O1202 O 0.70475 0.16738 0.72829
 O1203 O 0.82330 0.19633 0.75274
 O1204 O 0.83192 0.23426 0.79746
 O1205 O 0.80359 0.25580 0.67645
 O1206 O 0.76765 0.30210 0.67409
 O1207 O 0.74328 0.27957 0.83953
 O1208 O 0.76859 0.23015 0.84451
 O1209 O 0.66178 0.25384 0.78424
 O1210 O 0.65746 0.22822 0.73235
 O1211 O 0.71564 0.33673 0.76085
 O1212 O 0.76471 0.34188 0.73154
 Zr1213 Zr 0.75362 0.30525 0.76322
 O1214 O 0.78383 0.27934 0.73274
 Zr1215 Zr 0.69309 0.25986 0.74579
 O1216 O 0.72095 0.23220 0.71431
 Zr1217 Zr 0.73917 0.24253 0.80647
 O1218 O 0.76880 0.21400 0.77796
 Zr1219 Zr 0.75793 0.25864 0.69591
 O1220 O 0.72786 0.28747 0.72449
 Zr1221 Zr 0.80372 0.24162 0.75713
 O1222 O 0.77617 0.26953 0.78869
 Zr1223 Zr 0.74344 0.19623 0.73937
 O1224 O 0.71269 0.22166 0.77023
 O1225 O 0.71743 0.27949 0.78335
 O1226 O 0.77977 0.22163 0.71923
 C1227 C 0.74668 0.30932 0.83654
 C1228 C 0.68671 0.33291 0.75379
 C1229 C 0.66632 0.24604 0.81320
 C1230 C 0.75518 0.19181 0.66612
 C1231 C 0.83058 0.25115 0.68901
 C1232 C 0.81126 0.16953 0.74647
 H1233 H 0.80000 0.29349 0.72422
 H1234 H 0.77770 0.19716 0.79113
 H1235 H 0.70346 0.29224 0.79744
 H1236 H 0.70785 0.22385 0.69699
 H1237 H 0.71412 0.28530 0.66373
 H1238 H 0.67210 0.26528 0.68897
 H1239 H 0.82432 0.21520 0.80809
 H1240 H 0.78817 0.24220 0.84190
 H1241 H 0.77476 0.29766 0.65202
 H1242 H 0.76099 0.36239 0.74242
 H1243 H 0.74508 0.15597 0.78485
 H1244 H 0.71693 0.18853 0.82089
 H1245 H 0.80537 0.31933 0.79169
 H1246 H 0.84013 0.29001 0.75783
 H1247 H 0.66079 0.20895 0.74475
 H1248 H 0.69508 0.17526 0.70868
 C1249 C 0.07871 1.00334 1.18639
 C1250 C 0.09080 1.00598 1.15727
 C1251 C 0.07004 1.00883 1.12984
 C1252 C 0.08155 1.00855 1.10031
 H1253 H 0.11606 1.00576 1.15379
 H1254 H 0.04488 1.01029 1.13390
 H1255 H 0.05341 1.00349 1.18960
 H1256 H 0.10666 1.00618 1.09635
 C1257 C 0.58095 0.50940 0.71012
 C1258 C 0.58912 0.51027 0.67944
 C1259 C 0.56644 0.51005 0.65312
 C1260 C 0.57775 0.50969 0.62344
 H1261 H 0.61395 0.51057 0.67344
 H1262 H 0.54141 0.50925 0.65780
 H1263 H 0.55641 0.50853 0.71701
 H1264 H 0.60302 0.50992 0.61992
 C1265 C 0.41786 -0.00409 0.70179
 C1266 C 0.40986 0.00028 0.67178
 C1267 C 0.43341 0.00132 0.64648
 C1268 C 0.42471 0.01032 0.61780
 H1269 H 0.38532 0.00386 0.66595
 H1270 H 0.45766 -0.00479 0.65135
 H1271 H 0.44234 -0.00757 0.70785
 H1272 H 0.40043 0.01697 0.61369
 C1273 C -0.09254 0.49532 1.19217
 C1274 C -0.10668 0.49498 1.16415
 C1275 C -0.08778 0.49166 1.13522
 C1276 C -0.10015 0.49623 1.10677
 H1277 H -0.13201 0.49742 1.16273
 H1278 H -0.06279 0.48715 1.13743
 H1279 H -0.06715 0.49332 1.19315
 H1280 H -0.12481 0.50235 1.10459
 C1281 C -0.08720 0.49780 0.30924
 C1282 C -0.09813 0.50612 0.33788
 C1283 C -0.07577 0.50793 0.36435
 C1284 C -0.08502 0.51259 0.39433
 H1285 H -0.12263 0.51218 0.34167
 H1286 H -0.05095 0.50459 0.35915
 H1287 H -0.06236 0.49217 0.30679
 H1288 H -0.10984 0.51465 0.39995
 C1289 C 0.38691 0.98791 -0.18465
 C1290 C 0.41712 0.98511 -0.17252
 C1291 C 0.42267 0.98061 -0.14055
 C1292 C 0.45352 0.98115 -0.12989
 H1293 H 0.43734 0.98739 -0.18787
 H1294 H 0.40320 0.97818 -0.12407
 H1295 H 0.36703 0.98674 -0.16850
 H1296 H 0.47234 0.98490 -0.14692
 C1297 C 0.61350 0.50980 -0.17387
 C1298 C 0.58982 0.49476 -0.16029
 C1299 C 0.58397 0.49526 -0.12573
 C1300 C 0.56103 0.47732 -0.11470
 H1301 H 0.57406 0.48147 -0.17529
 H1302 H 0.59619 0.51144 -0.11027
 H1303 H 0.63081 0.52143 -0.15932
 H1304 H 0.54885 0.46221 -0.13136
 C1305 C 0.08286 -0.00968 0.30332
 C1306 C 0.09787 -0.01804 0.32956
 C1307 C 0.08002 -0.02102 0.35940
 C1308 C 0.09445 -0.02269 0.38726
 H1309 H 0.12303 -0.02182 0.32947
 H1310 H 0.05461 -0.01903 0.35881
 H1311 H 0.05757 -0.00636 0.30450
 H1312 H 0.11990 -0.02275 0.38801
 C1313 C 0.19675 1.08014 0.99740
 C1314 C 0.16741 1.09184 0.99695
 C1315 C 0.13970 1.07173 0.99574
 C1316 C 0.11093 1.08429 0.99253
 H1317 H 0.16381 1.11708 0.99726
 H1318 H 0.14293 1.04656 0.99742
 H1319 H 0.20084 1.05501 0.99723
 H1320 H 0.10811 1.10947 0.99029
 C1321 C 0.69633 0.58489 0.50809
 C1322 C 0.66721 0.59630 0.51085
 C1323 C 0.64090 0.57465 0.51368
 C1324 C 0.61129 0.58492 0.51317
 H1325 H 0.66296 0.62142 0.51082
 H1326 H 0.64590 0.54969 0.51496
 H1327 H 0.70004 0.55967 0.50759
 H1328 H 0.60630 0.60976 0.51073
 C1329 C 0.69316 0.40824 0.00590
 C1330 C 0.66226 0.39696 0.00635
 C1331 C 0.63610 0.41659 0.00257
 C1332 C 0.60560 0.40447 0.00350
 H1333 H 0.65865 0.37198 0.00901
 H1334 H 0.63957 0.44149 -0.00074
 H1335 H 0.69678 0.43324 0.00337
 H1336 H 0.60268 0.37965 0.00788
 C1337 C 0.21908 -0.07872 0.49391
 C1338 C 0.18921 -0.08644 0.49930
 C1339 C 0.16351 -0.06332 0.49961
 C1340 C 0.13506 -0.07192 0.50952
 H1341 H 0.18355 -0.11079 0.50358
 H1342 H 0.16768 -0.03971 0.49146
 H1343 H 0.22518 -0.05460 0.48919
 H1344 H 0.13170 -0.09545 0.51832
 C1345 C 0.33434 -0.10991 0.48882
 C1346 C 0.34622 -0.08377 0.50147
 C1347 C 0.37973 -0.07545 0.49967
 C1348 C 0.38791 -0.04744 0.51128
 H1349 H 0.33046 -0.06733 0.51352
 H1350 H 0.39682 -0.09094 0.48823
 H1351 H 0.34982 -0.12759 0.47834
 H1352 H 0.36976 -0.03252 0.52192
 C1353 C -0.19157 0.38841 0.99821
 C1354 C -0.18106 0.41915 0.99497
 C1355 C -0.14930 0.42645 0.99042
 C1356 C -0.14058 0.45792 0.99104
 H1357 H -0.19778 0.43835 0.99682
 H1358 H -0.13165 0.40802 0.98828
 H1359 H -0.17432 0.36955 0.99686
 H1360 H -0.15907 0.47533 0.99499
 C1361 C -0.18793 0.58881 0.50167
 C1362 C -0.16014 0.60290 0.50268
 C1363 C -0.13175 0.58299 0.50029
 C1364 C -0.10273 0.59394 0.50386
 H1365 H -0.15826 0.62805 0.50565
 H1366 H -0.13494 0.55810 0.49591
 H1367 H -0.18830 0.56341 0.49946
 H1368 H -0.09910 0.61871 0.50844
 C1369 C 0.31472 1.10073 -0.00276
 C1370 C 0.32698 1.07675 -0.01946
 C1371 C 0.36082 1.06930 -0.01803
 C1372 C 0.37280 1.04533 -0.03498
 H1373 H 0.31186 1.06216 -0.03387
 H1374 H 0.37536 1.08179 -0.00120
 H1375 H 0.33014 1.11627 0.01019
 H1376 H 0.35762 1.03244 -0.05091
 C1377 C 0.00179 1.20594 1.07160
 C1378 C 0.00276 1.17606 1.08127
 C1379 C 0.00369 1.14893 1.05908
 C1380 C 0.00336 1.11958 1.07020
 H1381 H 0.00307 1.17152 1.10650
 H1382 H 0.00436 1.15296 1.03378
 H1383 H 0.00156 1.21098 1.04651
 H1384 H 0.00200 1.11613 1.09559
 C1385 C 0.50294 0.69597 0.57458
 C1386 C 0.50022 0.66796 0.58813
 C1387 C 0.50263 0.63906 0.56884
 C1388 C 0.49795 0.61083 0.58137
 H1389 H 0.49606 0.66648 0.61344
 H1390 H 0.50820 0.64104 0.54383
 H1391 H 0.50736 0.69714 0.54928
 H1392 H 0.49203 0.60895 0.60630
 C1393 C -0.00420 0.70358 0.41821
 C1394 C -0.00461 0.67382 0.40753
 C1395 C -0.00367 0.64696 0.42905
 C1396 C -0.00192 0.61757 0.41744
 H1397 H -0.00525 0.66926 0.38220
 H1398 H -0.00406 0.65129 0.45442
 H1399 H -0.00363 0.70845 0.44347
 H1400 H -0.00113 0.61368 0.39200
 C1401 C 0.49613 1.17465 -0.08041
 C1402 C 0.49711 1.14588 -0.09307
 C1403 C 0.49256 1.11877 -0.07253
 C1404 C 0.49843 1.08962 -0.08282
 H1405 H 0.50110 1.14250 -0.11830
 H1406 H 0.48515 1.12288 -0.04815
 H1407 H 0.49186 1.17734 -0.05512
 H1408 H 0.50719 1.08557 -0.10675
 C1409 C 0.50371 0.29011 -0.07769
 C1410 C 0.49577 0.31797 -0.08913
 C1411 C 0.49833 0.34573 -0.06840
 C1412 C 0.48779 0.37382 -0.07703
 H1413 H 0.48635 0.32017 -0.11276
 H1414 H 0.50868 0.34290 -0.04520
 H1415 H 0.51173 0.28874 -0.05340
 H1416 H 0.47756 0.37679 -0.10025
 C1417 C 0.00142 -0.17900 0.39739
 C1418 C 0.01233 -0.16830 0.42513
 C1419 C 0.01413 -0.13433 0.43221
 C1420 C 0.02515 -0.12409 0.46006
 H1421 H 0.02017 -0.18458 0.44292
 H1422 H 0.00573 -0.11773 0.41491
 H1423 H -0.00518 -0.16232 0.37942
 H1424 H 0.03319 -0.14106 0.47719
 C1425 C 0.49867 -0.18692 0.57214
 C1426 C 0.49535 -0.15868 0.58597
 C1427 C 0.49463 -0.13007 0.56657
 C1428 C 0.49504 -0.10158 0.58014
 H1429 H 0.49355 -0.15630 0.61145
 H1430 H 0.49495 -0.13236 0.54095
 H1431 H 0.50054 -0.18819 0.54650
 H1432 H 0.49585 -0.09958 0.60577
 C1433 C -0.00104 0.32351 1.09779
 C1434 C -0.01644 0.33546 1.07314
 C1435 C -0.01834 0.36975 1.06826
 C1436 C -0.03416 0.38149 1.04378
 H1437 H -0.02791 0.31990 1.05646
 H1438 H -0.00544 0.38530 1.08384
 H1439 H 0.00891 0.33936 1.11520
 H1440 H -0.04618 0.36552 1.02789
 C1441 C 0.75557 0.32659 0.05916
 C1442 C 0.74342 0.33094 0.08993
 C1443 C 0.75168 0.31148 0.11506
 C1444 C 0.74250 0.31959 0.14610
 H1445 H 0.72819 0.35086 0.09511
 H1446 H 0.76558 0.29042 0.11050
 H1447 H 0.77367 0.30884 0.05531
 H1448 H 0.73064 0.34198 0.15010
 C1449 C 0.27050 0.83024 0.54804
 C1450 C 0.26289 0.83901 0.57786
 C1451 C 0.26402 0.81734 0.60472
 C1452 C 0.25518 0.82731 0.63380
 H1453 H 0.25495 0.86281 0.58279
 H1454 H 0.27106 0.79312 0.60052
 H1455 H 0.28031 0.80710 0.54329
 H1456 H 0.24844 0.85169 0.63755
 C1457 C 0.76180 0.67008 0.55604
 C1458 C 0.73985 0.68565 0.57308
 C1459 C 0.74726 0.70143 0.60327
 C1460 C 0.72545 0.71866 0.61879
 H1461 H 0.71549 0.68481 0.56589
 H1462 H 0.76994 0.69710 0.61394
 H1463 H 0.78639 0.67227 0.56194
 H1464 H 0.70334 0.72405 0.60744
 C1465 C 0.25450 0.16275 0.05808
 C1466 C 0.24950 0.15232 0.08739
 C1467 C 0.25305 0.17295 0.11512
 C1468 C 0.25063 0.16171 0.14445
 H1469 H 0.24207 0.12838 0.09099
 H1470 H 0.25655 0.19780 0.11145
 H1471 H 0.26396 0.18594 0.05449
 H1472 H 0.24818 0.13671 0.14799
 C1473 C 0.25405 0.16778 0.94592
 C1474 C 0.24767 0.15919 0.91610
 C1475 C 0.25278 0.18008 0.88938
 C1476 C 0.24609 0.17032 0.85999
 H1477 H 0.23831 0.13612 0.91111
 H1478 H 0.26114 0.20364 0.89386
 H1479 H 0.26541 0.18991 0.95088
 H1480 H 0.23791 0.14661 0.85593
 C1481 C 0.75890 0.66327 0.44555
 C1482 C 0.74783 0.65714 0.41652
 C1483 C 0.75285 0.67849 0.38981
 C1484 C 0.74400 0.67009 0.36056
 H1485 H 0.73467 0.63592 0.41219
 H1486 H 0.76320 0.70124 0.39419
 H1487 H 0.77371 0.68345 0.44939
 H1488 H 0.73444 0.64691 0.35651
 C1489 C 0.26517 0.82869 0.43539
 C1490 C 0.25715 0.83788 0.40624
 C1491 C 0.25603 0.81616 0.37886
 C1492 C 0.25091 0.82721 0.34975
 H1493 H 0.25071 0.86218 0.40235
 H1494 H 0.25873 0.79117 0.38259
 H1495 H 0.27380 0.80506 0.43914
 H1496 H 0.24961 0.85233 0.34619
 C1497 C 0.75276 0.32536 0.95122
 C1498 C 0.74358 0.33428 0.92087
 C1499 C 0.74915 0.31547 0.89422
 C1500 C 0.74620 0.32793 0.86390
 H1501 H 0.73319 0.35730 0.91749
 H1502 H 0.75618 0.29117 0.89714
 H1503 H 0.76902 0.30582 0.95361
 H1504 H 0.74394 0.35315 0.86137
 C1505 C 0.82713 0.44746 0.26339
 C1506 C 0.83168 0.41814 0.25207
 C1507 C 0.81016 0.39160 0.25671
 C1508 C 0.82012 0.36311 0.24701
 H1509 H 0.85294 0.41302 0.23858
 H1510 H 0.78729 0.39502 0.26774
 H1511 H 0.80750 0.45289 0.27906
 H1512 H 0.84385 0.36051 0.23769
 C1513 C 0.32613 0.94175 0.75042
 C1514 C 0.33672 0.91246 0.74470
 C1515 C 0.31634 0.88496 0.74690
 C1516 C 0.32845 0.85586 0.74431
 H1517 H 0.36110 0.90856 0.73799
 H1518 H 0.29124 0.88858 0.74990
 H1519 H 0.30250 0.94575 0.75941
 H1520 H 0.35368 0.85250 0.74247
 C1521 C 0.16066 0.94265 0.24687
 C1522 C 0.15432 0.91374 0.23599
 C1523 C 0.17511 0.88657 0.24187
 C1524 C 0.16567 0.85752 0.23444
 H1525 H 0.13295 0.90976 0.22284
 H1526 H 0.19814 0.89034 0.25187
 H1527 H 0.18081 0.94629 0.26192
 H1528 H 0.14222 0.85425 0.22520
 C1529 C 0.66830 0.44744 0.76009
 C1530 C 0.65786 0.41851 0.75317
 C1531 C 0.67757 0.39026 0.75772
 C1532 C 0.66657 0.36131 0.75193
 H1533 H 0.63438 0.41541 0.74409
 H1534 H 0.70165 0.39334 0.76517
 H1535 H 0.69108 0.45018 0.77095
 H1536 H 0.64241 0.35846 0.74466
 C1537 C 0.67253 0.56161 0.76181
 C1538 C 0.68017 0.58264 0.73985
 C1539 C 0.69280 0.61364 0.74851
 C1540 C 0.70530 0.63191 0.72633
 H1541 H 0.67548 0.57767 0.71509
 H1542 H 0.69072 0.62206 0.77280
 H1543 H 0.67891 0.56574 0.78629
 H1544 H 0.70896 0.62259 0.70253
 C1545 C 0.16011 0.05219 0.25649
 C1546 C 0.15336 0.08249 0.25133
 C1547 C 0.17616 0.10788 0.25649
 C1548 C 0.16666 0.13791 0.25507
 H1549 H 0.13049 0.08884 0.24215
 H1550 H 0.20071 0.10207 0.26001
 H1551 H 0.18196 0.04568 0.26770
 H1552 H 0.14182 0.14313 0.25271
 C1553 C 0.33006 0.05435 0.75771
 C1554 C 0.33925 0.08345 0.75043
 C1555 C 0.31865 0.11124 0.75451
 C1556 C 0.32911 0.13983 0.74701
 H1557 H 0.36259 0.08714 0.74093
 H1558 H 0.29478 0.10821 0.76296
 H1559 H 0.30746 0.05087 0.76903
 H1560 H 0.35318 0.14244 0.73895
 C1561 C 0.83486 0.55785 0.26430
 C1562 C 0.84167 0.58657 0.25376
 C1563 C 0.82069 0.61392 0.25896
 C1564 C 0.82936 0.64236 0.24911
 H1565 H 0.86299 0.59003 0.24011
 H1566 H 0.79779 0.61059 0.26973
 H1567 H 0.81469 0.55456 0.27966
 H1568 H 0.85267 0.64538 0.23915
 C1569 C 0.94986 0.26130 0.16484
 C1570 C 0.91993 0.25644 0.15736
 C1571 C 0.89417 0.26092 0.18041
 C1572 C 0.86469 0.25671 0.17096
 H1573 H 0.91418 0.24870 0.13353
 H1574 H 0.89935 0.26590 0.20506
 H1575 H 0.95577 0.27105 0.18784
 H1576 H 0.86025 0.25148 0.14617
 C1577 C 0.44251 0.76538 0.65182
 C1578 C 0.41365 0.75448 0.64631
 C1579 C 0.38721 0.75902 0.66874
 C1580 C 0.35867 0.74898 0.66063
 H1581 H 0.40935 0.74117 0.62474
 H1582 H 0.39123 0.76936 0.69193
 H1583 H 0.44664 0.78041 0.67222
 H1584 H 0.35521 0.73934 0.63701
 C1585 C 0.44492 0.24560 0.84064
 C1586 C 0.41483 0.23904 0.84669
 C1587 C 0.38951 0.24604 0.82423
 C1588 C 0.35960 0.24499 0.83400
 H1589 H 0.40859 0.22801 0.86884
 H1590 H 0.39523 0.25112 0.79976
 H1591 H 0.45118 0.25870 0.81975
 H1592 H 0.35453 0.24123 0.85888
 C1593 C 0.94089 0.76327 0.33479
 C1594 C 0.91048 0.75343 0.34209
 C1595 C 0.88560 0.75660 0.32110
 C1596 C 0.85472 0.75322 0.33193
 H1597 H 0.90555 0.74425 0.36541
 H1598 H 0.89024 0.76241 0.29658
 H1599 H 0.94447 0.77793 0.31431
 H1600 H 0.85045 0.75209 0.35728
 C1601 C 0.04840 0.75736 0.32702
 C1602 C 0.07803 0.74956 0.33413
 C1603 C 0.10449 0.75388 0.31199
 C1604 C 0.13383 0.74821 0.32167
 H1605 H 0.08313 0.73993 0.35718
 H1606 H 0.09997 0.76089 0.28785
 H1607 H 0.04336 0.76907 0.30500
 H1608 H 0.13772 0.74163 0.34607
 C1609 C 0.55336 0.24232 0.83999
 C1610 C 0.58324 0.23464 0.84594
 C1611 C 0.60918 0.24393 0.82478
 C1612 C 0.63899 0.24048 0.83399
 H1613 H 0.58882 0.22173 0.86716
 H1614 H 0.60390 0.25297 0.80152
 H1615 H 0.54796 0.25714 0.82008
 H1616 H 0.64368 0.23193 0.85759
 C1617 C 0.55223 0.76823 0.65453
 C1618 C 0.57001 0.74782 0.67054
 C1619 C 0.59931 0.75740 0.68613
 C1620 C 0.61492 0.73766 0.70495
 H1621 H 0.56380 0.72323 0.67076
 H1622 H 0.60909 0.78011 0.68072
 H1623 H 0.55725 0.79307 0.65586
 H1624 H 0.60437 0.71557 0.71134
 C1625 C 0.05756 0.25899 0.16188
 C1626 C 0.08677 0.24876 0.15579
 C1627 C 0.11184 0.25048 0.17949
 C1628 C 0.14152 0.24517 0.17035
 H1629 H 0.09267 0.23917 0.13256
 H1630 H 0.10614 0.25601 0.20403
 H1631 H 0.05212 0.27053 0.18432
 H1632 H 0.14675 0.24110 0.14541
 C1633 C -0.08195 1.00173 0.79342
 C1634 C -0.09211 1.00377 0.82349
 C1635 C -0.07030 1.00271 0.85031
 C1636 C -0.08104 1.00607 0.88006
 H1637 H -0.11708 1.00630 0.82829
 H1638 H -0.04541 0.99926 0.84567
 H1639 H -0.05703 0.99927 0.78844
 H1640 H -0.10597 1.00984 0.88425
 C1641 C 0.39209 0.50669 0.32705
 C1642 C 0.41273 0.48750 0.34049
 C1643 C 0.42305 0.49284 0.37329
 C1644 C 0.44937 0.47912 0.38296
 H1645 H 0.42284 0.46818 0.32670
 H1646 H 0.41027 0.50906 0.38879
 H1647 H 0.38233 0.52618 0.34083
 H1648 H 0.46277 0.46453 0.36633
 C1649 C 0.57861 0.00764 0.30810
 C1650 C 0.59154 0.00705 0.33694
 C1651 C 0.57242 0.01118 0.36595
 C1652 C 0.58537 0.00926 0.39469
 H1653 H 0.61676 0.00405 0.33903
 H1654 H 0.54743 0.01566 0.36372
 H1655 H 0.55345 0.01089 0.30591
 H1656 H 0.61020 0.00384 0.39671
 C1657 C 0.07034 0.50595 0.80470
 C1658 C 0.07998 0.51206 0.83408
 C1659 C 0.05735 0.51572 0.86043
 C1660 C 0.06753 0.51677 0.89016
 H1661 H 0.10490 0.51405 0.83869
 H1662 H 0.03237 0.51597 0.85567
 H1663 H 0.04543 0.50347 0.80031
 H1664 H 0.09250 0.51467 0.89463
 C1665 C 0.08354 0.49022 0.68861
 C1666 C 0.09821 0.49708 0.66155
 C1667 C 0.08064 0.49359 0.63195
 C1668 C 0.09056 0.50479 0.60424
 H1669 H 0.12148 0.50707 0.66141
 H1670 H 0.05766 0.48292 0.63339
 H1671 H 0.05962 0.48172 0.68768
 H1672 H 0.11368 0.51495 0.60207
 C1673 C 0.58814 1.00489 0.18736
 C1674 C 0.55861 1.00026 0.17818
 C1675 C 0.55119 0.99927 0.14413
 C1676 C 0.52247 0.99215 0.13408
 H1677 H 0.54018 0.99623 0.19541
 H1678 H 0.56972 1.00374 0.12704
 H1679 H 0.60614 1.00793 0.16936
 H1680 H 0.50412 0.98745 0.15129
 C1681 C 0.41857 0.49598 0.21026
 C1682 C 0.40920 0.49378 0.18014
 C1683 C 0.43172 0.49271 0.15323
 C1684 C 0.42094 0.48949 0.12370
 H1685 H 0.38451 0.49272 0.17472
 H1686 H 0.45671 0.49431 0.15751
 H1687 H 0.44351 0.49724 0.21501
 H1688 H 0.39581 0.48769 0.12023
 C1689 C -0.10074 0.00079 0.67499
 C1690 C -0.07489 0.01536 0.66504
 C1691 C -0.06566 0.01582 0.63128
 C1692 C -0.04016 0.03154 0.62224
 H1693 H -0.06014 0.02724 0.68213
 H1694 H -0.07861 0.00193 0.61423
 H1695 H -0.11660 -0.00937 0.65784
 H1696 H -0.02721 0.04477 0.63985
 C1697 C -0.19708 0.92999 1.00239
 C1698 C -0.16796 0.91836 0.99961
 C1699 C -0.14096 0.93953 0.99685
 C1700 C -0.11164 0.92818 0.99575
 H1701 H -0.16420 0.89316 0.99887
 H1702 H -0.14512 0.96463 0.99591
 H1703 H -0.20045 0.95525 1.00312
 H1704 H -0.10771 0.90309 0.99752
 C1705 C 0.31565 0.42033 0.50204
 C1706 C 0.34406 0.40660 0.50226
 C1707 C 0.37246 0.42584 0.49975
 C1708 C 0.40146 0.41359 0.50169
 H1709 H 0.34620 0.38131 0.50388
 H1710 H 0.36941 0.45090 0.49662
 H1711 H 0.31400 0.44566 0.50036
 H1712 H 0.40464 0.38873 0.50582
 C1713 C 0.30269 0.56441 -0.00869
 C1714 C 0.33035 0.57512 0.00118
 C1715 C 0.35716 0.55355 0.00516
 C1716 C 0.38501 0.56413 0.01450
 H1717 H 0.33290 0.59974 0.00726
 H1718 H 0.35428 0.52882 -0.00033
 H1719 H 0.30071 0.53986 -0.01538
 H1720 H 0.38822 0.58907 0.01848
 C1721 C -0.17537 0.07792 0.50779
 C1722 C -0.14581 0.08954 0.50004
 C1723 C -0.11910 0.07086 0.50351
 C1724 C -0.08988 0.08073 0.49271
 H1725 H -0.14359 0.11297 0.49069
 H1726 H -0.12135 0.04787 0.51395
 H1727 H -0.17638 0.05486 0.51839
 H1728 H -0.08819 0.10311 0.48091
 C1729 C 0.71161 0.07545 0.50251
 C1730 C 0.68166 0.08819 0.50666
 C1731 C 0.65549 0.06874 0.50606
 C1732 C 0.62593 0.08076 0.51382
 H1733 H 0.67847 0.11297 0.51174
 H1734 H 0.65828 0.04403 0.50009
 H1735 H 0.71363 0.05014 0.49988
 H1736 H 0.62397 0.10529 0.52094
 C1737 C 0.18645 0.56778 0.98316
 C1738 C 0.16061 0.57752 0.99853
 C1739 C 0.13167 0.55881 0.99693
 C1740 C 0.10647 0.56672 1.01438
 H1741 H 0.16116 0.59852 1.01329
 H1742 H 0.13081 0.53874 0.98091
 H1743 H 0.18599 0.54574 0.97002
 H1744 H 0.10738 0.58729 1.02975
 C1745 C 0.19850 0.42464 0.50229
 C1746 C 0.17024 0.41218 0.49721
 C1747 C 0.14226 0.43300 0.49769
 C1748 C 0.11323 0.42270 0.49191
 H1749 H 0.16769 0.38736 0.49237
 H1750 H 0.14567 0.45767 0.50309
 H1751 H 0.19987 0.44979 0.50626
 H1752 H 0.10958 0.39807 0.48660
 C1753 C 0.68650 0.92716 0.00992
 C1754 C 0.66097 0.91340 0.02159
 C1755 C 0.63138 0.93151 0.02501
 C1756 C 0.60429 0.91749 0.03165
 H1757 H 0.66168 0.88899 0.02835
 H1758 H 0.63131 0.95629 0.01948
 H1759 H 0.68517 0.95187 0.00417
 H1760 H 0.60404 0.89233 0.03506
 C1761 C -0.00459 0.80766 0.91220
 C1762 C -0.00279 0.83704 0.90176
 C1763 C -0.00349 0.86424 0.92347
 C1764 C -0.00094 0.89317 0.91201
 H1765 H -0.00108 0.84101 0.87646
 H1766 H -0.00613 0.86062 0.94873
 H1767 H -0.00645 0.80334 0.93739
 H1768 H 0.00207 0.89627 0.88670
 C1769 C 0.50562 0.29967 0.41847
 C1770 C 0.51433 0.32892 0.41235
 C1771 C 0.51376 0.35387 0.43668
 C1772 C 0.52451 0.38209 0.42923
 H1773 H 0.52151 0.33476 0.38844
 H1774 H 0.50350 0.34964 0.45980
 H1775 H 0.49757 0.29375 0.44207
 H1776 H 0.53453 0.38560 0.40583
 C1777 C 0.00066 0.31142 0.57908
 C1778 C -0.00083 0.34149 0.58845
 C1779 C 0.00176 0.36747 0.56598
 C1780 C 0.00193 0.39708 0.57684
 H1781 H -0.00304 0.34701 0.61355
 H1782 H 0.00376 0.36241 0.54080
 H1783 H 0.00307 0.30554 0.55411
 H1784 H -0.00031 0.40156 0.60213
 C1785 C 0.49572 0.79103 0.07964
 C1786 C 0.48625 0.81890 0.09081
 C1787 C 0.48684 0.84598 0.07021
 C1788 C 0.47588 0.87379 0.08011
 H1789 H 0.47856 0.82170 0.11526
 H1790 H 0.49697 0.84312 0.04665
 H1791 H 0.50404 0.78868 0.05534
 H1792 H 0.46527 0.87648 0.10345
 C1793 C 0.50854 0.67588 0.08536
 C1794 C 0.50285 0.64868 0.09931
 C1795 C 0.50254 0.62017 0.07939
 C1796 C 0.49913 0.59164 0.09132
 H1797 H 0.49688 0.64753 0.12424
 H1798 H 0.50491 0.62269 0.05393
 H1799 H 0.51410 0.67567 0.06020
 H1800 H 0.49812 0.58851 0.11675
 C1801 C 0.00979 0.19531 0.60452
 C1802 C 0.01746 0.18357 0.57595
 C1803 C 0.02032 0.14951 0.57019
 C1804 C 0.02275 0.13857 0.54051
 H1805 H 0.02116 0.19898 0.55616
 H1806 H 0.01895 0.13348 0.58986
 H1807 H 0.00660 0.17938 0.62405
 H1808 H 0.02261 0.15501 0.52111
 C1809 C 0.49845 0.18592 0.38585
 C1810 C 0.51434 0.17385 0.40983
 C1811 C 0.51203 0.14092 0.41882
 C1812 C 0.52484 0.13262 0.44611
 H1813 H 0.52872 0.18918 0.42427
 H1814 H 0.49839 0.12452 0.40489
 H1815 H 0.48538 0.17094 0.36990
 H1816 H 0.53726 0.15004 0.46005
 C1817 C -0.00916 0.69025 0.89106
 C1818 C -0.00060 0.67928 0.91921
 C1819 C -0.00303 0.64573 0.92656
 C1820 C 0.00572 0.63543 0.95491
 H1821 H 0.00848 0.69506 0.93715
 H1822 H -0.01273 0.62969 0.90916
 H1823 H -0.01685 0.67399 0.87283
 H1824 H 0.01504 0.65194 0.97211
 C1825 C 0.23905 0.64958 0.93735
 C1826 C 0.25105 0.64717 0.90792
 C1827 C 0.24452 0.67045 0.88298
 C1828 C 0.25265 0.66371 0.85289
 H1829 H 0.26564 0.62703 0.90159
 H1830 H 0.23340 0.69271 0.88914
 H1831 H 0.22277 0.66853 0.94316
 H1832 H 0.26279 0.64079 0.84745
 C1833 C 0.75561 0.15302 0.45164
 C1834 C 0.77171 0.15383 0.42263
 C1835 C 0.76317 0.17402 0.39825
 C1836 C 0.77670 0.16963 0.36820
 H1837 H 0.79054 0.13717 0.41790
 H1838 H 0.74542 0.19208 0.40232
 H1839 H 0.73460 0.16738 0.45462
 H1840 H 0.79233 0.14960 0.36449
 C1841 C 0.24663 0.34099 0.44863
 C1842 C 0.25577 0.34561 0.41864
 C1843 C 0.25056 0.32244 0.39309
 C1844 C 0.25482 0.33067 0.36291
 H1845 H 0.26772 0.36709 0.41264
 H1846 H 0.24397 0.29870 0.39892
 H1847 H 0.23264 0.32077 0.45450
 H1848 H 0.25989 0.35491 0.35753
 C1849 C 0.73432 0.85201 0.94587
 C1850 C 0.75511 0.83864 0.92559
 C1851 C 0.74550 0.82405 0.89522
 C1852 C 0.76578 0.80632 0.87808
 H1853 H 0.77994 0.83930 0.93091
 H1854 H 0.72215 0.82879 0.88632
 H1855 H 0.70940 0.84960 0.94166
 H1856 H 0.78849 0.80050 0.88796
 C1857 C 0.73850 0.84649 0.05696
 C1858 C 0.74789 0.85066 0.08694
 C1859 C 0.74128 0.82784 0.11222
 C1860 C 0.74691 0.83566 0.14248
 H1861 H 0.76062 0.87168 0.09326
 H1862 H 0.73267 0.80473 0.10608
 H1863 H 0.72391 0.82666 0.05096
 H1864 H 0.75483 0.85923 0.14787
 C1865 C 0.24425 0.34459 0.55822
 C1866 C 0.25286 0.35020 0.58819
 C1867 C 0.24567 0.32852 0.61416
 C1868 C 0.25212 0.33679 0.64411
 H1869 H 0.26588 0.37123 0.59382
 H1870 H 0.23631 0.30555 0.60870
 H1871 H 0.22946 0.32475 0.55275
 H1872 H 0.26091 0.36014 0.64900
 C1873 C 0.75251 0.15651 0.55464
 C1874 C 0.76378 0.15576 0.58562
 C1875 C 0.75605 0.17854 0.60862
 C1876 C 0.75921 0.17103 0.64054
 H1877 H 0.77725 0.13542 0.59291
 H1878 H 0.74617 0.20099 0.60189
 H1879 H 0.73404 0.17315 0.54901
 H1880 H 0.76374 0.14663 0.64622
 C1881 C 0.23403 0.64638 0.04521
 C1882 C 0.24350 0.64225 0.07508
 C1883 C 0.24014 0.66657 0.10016
 C1884 C 0.24611 0.65901 0.13020
 H1885 H 0.25469 0.62028 0.08138
 H1886 H 0.23350 0.69035 0.09414
 H1887 H 0.22091 0.66731 0.03911
 H1888 H 0.25116 0.63471 0.13575
 C1889 C 0.15733 0.55334 0.74026
 C1890 C 0.15160 0.58360 0.74653
 C1891 C 0.17543 0.60784 0.74223
 C1892 C 0.16651 0.63788 0.74372
 H1893 H 0.12861 0.59085 0.75535
 H1894 H 0.19989 0.60130 0.73875
 H1895 H 0.17938 0.54603 0.72934
 H1896 H 0.14170 0.64369 0.74592
 C1897 C 0.65603 0.05698 0.23779
 C1898 C 0.66832 0.07849 0.25933
 C1899 C 0.68097 0.10691 0.25003
 C1900 C 0.70450 0.12011 0.26829
 H1901 H 0.67026 0.07183 0.28397
 H1902 H 0.67450 0.11727 0.22767
 H1903 H 0.66121 0.05947 0.21276
 H1904 H 0.71605 0.10527 0.28547
 C1905 C 0.83611 0.05810 0.73238
 C1906 C 0.84237 0.08815 0.74403
 C1907 C 0.82230 0.11340 0.73867
 C1908 C 0.83144 0.14369 0.74709
 H1909 H 0.86390 0.09247 0.75674
 H1910 H 0.79956 0.10940 0.72807
 H1911 H 0.81714 0.05509 0.71568
 H1912 H 0.85533 0.14744 0.75493
 C1913 C 0.32830 0.54774 0.23800
 C1914 C 0.33545 0.57792 0.24206
 C1915 C 0.31432 0.60377 0.23341
 C1916 C 0.32375 0.63313 0.23871
 H1917 H 0.35704 0.58382 0.25416
 H1918 H 0.29074 0.59893 0.22536
 H1919 H 0.30802 0.54083 0.22439
 H1920 H 0.34762 0.63714 0.24647
 C1921 C 0.33419 0.43950 0.24872
 C1922 C 0.34115 0.41081 0.25910
 C1923 C 0.32082 0.38395 0.25243
 C1924 C 0.33110 0.35468 0.25714
 H1925 H 0.36186 0.40718 0.27343
 H1926 H 0.29696 0.38822 0.24470
 H1927 H 0.31490 0.44292 0.23252
 H1928 H 0.35545 0.35052 0.26327
 C1929 C 0.82828 0.95101 0.73640
 C1930 C 0.81518 0.93425 0.75950
 C1931 C 0.79868 0.90499 0.75201
 C1932 C 0.78246 0.88946 0.77400
 H1933 H 0.81836 0.94100 0.78411
 H1934 H 0.80153 0.89494 0.72839
 H1935 H 0.82349 0.94520 0.71185
 H1936 H 0.77813 0.89999 0.79716
 C1937 C 0.65879 0.94787 0.24159
 C1938 C 0.65213 0.91867 0.25062
 C1939 C 0.67382 0.89197 0.24486
 C1940 C 0.66487 0.86285 0.25192
 H1941 H 0.63016 0.91421 0.26284
 H1942 H 0.69730 0.89625 0.23590
 H1943 H 0.67970 0.95212 0.22756
 H1944 H 0.64107 0.85907 0.26027
 C1945 C 0.15998 0.44767 0.74893
 C1946 C 0.15521 0.41863 0.75914
 C1947 C 0.17799 0.39301 0.75295
 C1948 C 0.16932 0.36348 0.75780
 H1949 H 0.13343 0.41323 0.77129
 H1950 H 0.20149 0.39822 0.74461
 H1951 H 0.18065 0.45261 0.73477
 H1952 H 0.14540 0.35898 0.76540
 C1953 C 0.05065 0.74610 0.82535
 C1954 C 0.08022 0.75178 0.83412
 C1955 C 0.10734 0.74529 0.81311
 C1956 C 0.13651 0.74983 0.82370
 H1957 H 0.08471 0.76159 0.85745
 H1958 H 0.10342 0.73779 0.78883
 H1959 H 0.04615 0.73438 0.80294
 H1960 H 0.13991 0.75700 0.84818
 C1961 C 0.56007 0.24207 0.32825
 C1962 C 0.58905 0.24231 0.34045
 C1963 C 0.61720 0.23420 0.32141
 C1964 C 0.64581 0.23580 0.33431
 H1965 H 0.59225 0.24911 0.36504
 H1966 H 0.61463 0.22884 0.29639
 H1967 H 0.55647 0.23338 0.30433
 H1968 H 0.64795 0.24191 0.35922
 C1969 C 0.55217 0.73491 0.16568
 C1970 C 0.58066 0.74639 0.15892
 C1971 C 0.60730 0.74526 0.18095
 C1972 C 0.63602 0.75316 0.17076
 H1973 H 0.58467 0.75724 0.13618
 H1974 H 0.60345 0.73840 0.20530
 H1975 H 0.54836 0.72189 0.18720
 H1976 H 0.63968 0.75839 0.14594
 C1977 C 0.05431 0.26151 0.67120
 C1978 C 0.08387 0.26765 0.66255
 C1979 C 0.11035 0.26314 0.68411
 C1980 C 0.13982 0.26364 0.67292
 H1981 H 0.08885 0.27546 0.63870
 H1982 H 0.10575 0.25940 0.70907
 H1983 H 0.04946 0.25134 0.69409
 H1984 H 0.14398 0.26615 0.64770
 C1985 C 0.94414 0.25363 0.66603
 C1986 C 0.91438 0.25812 0.65706
 C1987 C 0.88774 0.25134 0.67831
 C1988 C 0.85821 0.25398 0.66801
 H1989 H 0.90946 0.26688 0.63362
 H1990 H 0.89233 0.24521 0.70269
 H1991 H 0.94896 0.24301 0.68867
 H1992 H 0.85407 0.26000 0.64350
 C1993 C 0.44142 0.72207 0.15781
 C1994 C 0.41195 0.72793 0.14832
 C1995 C 0.38433 0.72491 0.16926
 C1996 C 0.35580 0.73335 0.15889
 H1997 H 0.40805 0.73705 0.12481
 H1998 H 0.38759 0.71780 0.19358
 H1999 H 0.44566 0.71119 0.18043
 H2000 H 0.35304 0.74020 0.13441
 C2001 C 0.44646 0.25407 0.32718
 C2002 C 0.41756 0.25802 0.33951
 C2003 C 0.38947 0.25348 0.32010
 C2004 C 0.36058 0.25336 0.33303
 H2005 H 0.41453 0.26426 0.36435
 H2006 H 0.39258 0.25053 0.29470
 H2007 H 0.44946 0.24555 0.30303
 H2008 H 0.35763 0.25544 0.35851
 C2009 C 0.93808 0.75054 0.82635
 C2010 C 0.91797 0.77303 0.81748
 C2011 C 0.88697 0.76537 0.80460
 C2012 C 0.86883 0.78759 0.79195
 H2013 H 0.92373 0.79750 0.82115
 H2014 H 0.87849 0.74155 0.80637
 H2015 H 0.93308 0.72619 0.82094
 H2016 H 0.87801 0.81092 0.78848
   
