data_POSCAR
  _audit_creation_date              2014-09-24
  _audit_creation_method            'ToBaCCo'
  _symmetry_space_group_name_H-M    'P1'
  _symmetry_Int_Tables_number       1
  _symmetry_cell_setting            triclinic
  loop_
  _symmetry_equiv_pos_as_xyz
 x,y,z
_cell_length_a 46.4202
_cell_length_b 46.4222
_cell_length_c 46.4079
_cell_angle_alpha 89.896600
_cell_angle_beta 90.173500
_cell_angle_gamma 89.805800
loop_
  _atom_site_label
  _atom_site_type_symbol
  _atom_site_fract_x
  _atom_site_fract_y
  _atom_site_fract_z
C1 C 0.24698 0.96613 -0.02425
 C2 C 0.24885 0.96608 0.00610
 C3 C 0.25152 0.99222 0.02080
 C4 C 0.25223 1.01847 0.00603
 C5 C 0.25009 1.01873 -0.02427
 C6 C 0.24755 0.99253 -0.03912
 H7 H 0.24603 0.99270 -0.06250
 H8 H 0.25303 0.99208 0.04418
 C9 C 0.75308 0.51678 0.50569
 C10 C 0.75084 0.51690 0.47551
 C11 C 0.74805 0.49073 0.46075
 C12 C 0.74733 0.46444 0.47576
 C13 C 0.74932 0.46452 0.50606
 C14 C 0.75224 0.49068 0.52064
 H15 H 0.75383 0.49075 0.54400
 H16 H 0.74645 0.49082 0.43741
 C17 C 0.74977 0.97622 1.01766
 C18 C 0.74791 1.00646 1.01722
 C19 C 0.74855 1.02105 0.99088
 C20 C 0.75106 1.00610 0.96487
 C21 C 0.75302 0.97582 0.96516
 C22 C 0.75233 0.96115 0.99163
 H23 H 0.75378 0.93781 0.99198
 H24 H 0.74710 1.04443 0.99057
 C25 C 0.25062 0.50672 0.46521
 C26 C 0.25241 0.47641 0.46535
 C27 C 0.25177 0.46162 0.49178
 C28 C 0.24944 0.47659 0.51790
 C29 C 0.24776 0.50681 0.51760
 C30 C 0.24835 0.52154 0.49134
 H31 H 0.24702 0.54490 0.49125
 H32 H 0.25310 0.43828 0.49203
 C33 C 0.96467 0.24594 0.02310
 C34 C 0.96449 0.24788 -0.00724
 C35 C 0.99061 0.25032 -0.02205
 C36 C 1.01689 0.25095 -0.00730
 C37 C 1.01719 0.24914 0.02295
 C38 C 0.99110 0.24662 0.03788
 H39 H 0.99137 0.24520 0.06123
 H40 H 0.99049 0.25176 -0.04545
 C41 C 0.46544 0.74614 0.52438
 C42 C 0.46524 0.74797 0.49407
 C43 C 0.49133 0.75020 0.47923
 C44 C 0.51759 0.75072 0.49395
 C45 C 0.51796 0.74902 0.52417
 C46 C 0.49189 0.74670 0.53916
 H47 H 0.49218 0.74537 0.56251
 H48 H 0.49119 0.75157 0.45587
 C49 C 0.00557 0.75267 0.03515
 C50 C -0.02477 0.75449 0.03516
 C51 C -0.03974 0.75389 0.00878
 C52 C -0.02493 0.75137 -0.01742
 C53 C 0.00530 0.74930 -0.01721
 C54 C 0.02018 0.75005 0.00897
 H55 H 0.04354 0.74856 0.00895
 H56 H -0.06310 0.75535 0.00863
 C57 C 0.47586 0.25385 0.53514
 C58 C 0.50616 0.25184 0.53508
 C59 C 0.52074 0.24908 0.50889
 C60 C 0.50580 0.24839 0.48275
 C61 C 0.47562 0.25068 0.48261
 C62 C 0.46087 0.25332 0.50881
 H63 H 0.43754 0.25493 0.50870
 H64 H 0.54409 0.24744 0.50883
 C65 C 0.98237 -0.00749 0.25251
 C66 C 0.98209 0.02273 0.25023
 C67 C 1.00822 0.03757 0.24764
 C68 C 1.03464 0.02272 0.24712
 C69 C 1.03475 -0.00762 0.24911
 C70 C 1.00861 -0.02231 0.25186
 H71 H 1.00867 -0.04569 0.25347
 H72 H 1.00799 0.06089 0.24601
 C73 C 0.48259 0.49404 0.75319
 C74 C 0.48248 0.52421 0.75094
 C75 C 0.50867 0.53891 0.74821
 C76 C 0.53496 0.52385 0.74753
 C77 C 0.53487 0.49356 0.74951
 C78 C 0.50869 0.47904 0.75239
 H79 H 0.50861 0.45569 0.75399
 H80 H 0.50859 0.56223 0.74660
 C81 C 1.02358 0.98332 0.74906
 C82 C 0.99339 0.98340 0.74718
 C83 C 0.97841 1.00951 0.74768
 C84 C 0.99297 1.03576 0.75012
 C85 C 1.02330 1.03582 0.75216
 C86 C 1.03831 1.00951 0.75156
 H87 H 1.06165 1.00941 0.75306
 H88 H 0.95503 1.00933 0.74619
 C89 C 0.52373 0.48231 0.24850
 C90 C 0.49352 0.48277 0.24673
 C91 C 0.47889 0.50909 0.24729
 C92 C 0.49379 0.53512 0.24966
 C93 C 0.52410 0.53483 0.25159
 C94 C 0.53879 0.50834 0.25093
 H95 H 0.56213 0.50796 0.25235
 H96 H 0.45553 0.50930 0.24589
 O97 O 0.26822 0.17580 0.19066
 O98 O 0.30079 0.16756 0.23102
 O99 O 0.19332 0.20949 0.23319
 O100 O 0.18285 0.24700 0.26169
 O101 O 0.22757 0.25125 0.15678
 O102 O 0.26785 0.28314 0.14937
 O103 O 0.26760 0.28981 0.30613
 O104 O 0.23430 0.25023 0.31310
 O105 O 0.34214 0.25013 0.27181
 O106 O 0.35050 0.21725 0.23056
 O107 O 0.30771 0.32391 0.23334
 O108 O 0.26605 0.33254 0.19929
 O109 O 0.26803 0.32440 0.27133
 O110 O 0.23641 0.33379 0.23069
 O111 O 0.34227 0.28902 0.23317
 O112 O 0.35114 0.24846 0.20034
 O113 O 0.30741 0.25158 0.30628
 O114 O 0.27295 0.21925 0.31589
 O115 O 0.26794 0.21094 0.15633
 O116 O 0.29951 0.25057 0.14861
 O117 O 0.19311 0.25000 0.19160
 O118 O 0.18594 0.28291 0.23189
 O119 O 0.22820 0.17495 0.23145
 O120 O 0.26965 0.16546 0.26189
 Zr121 Zr 0.26699 0.19821 0.23020
 O122 O 0.29343 0.22281 0.25762
 Zr123 Zr 0.21614 0.24864 0.23071
 O124 O 0.24074 0.27570 0.25762
 Zr125 Zr 0.26662 0.24939 0.17999
 O126 O 0.29370 0.27586 0.20489
 Zr127 Zr 0.26855 0.25067 0.28311
 O128 O 0.24158 0.22304 0.25863
 Zr129 Zr 0.31907 0.25034 0.23263
 O130 O 0.29466 0.22360 0.20493
 Zr131 Zr 0.26842 0.30124 0.23248
 O132 O 0.24103 0.27683 0.20535
 O133 O 0.24003 0.22230 0.20365
 O134 O 0.29550 0.27756 0.25953
 C135 C 0.26853 0.18451 0.16436
 C136 C 0.20185 0.18312 0.23316
 C137 C 0.20126 0.25132 0.16523
 C138 C 0.26756 0.31619 0.29771
 C139 C 0.33376 0.25092 0.29812
 C140 C 0.33405 0.31538 0.23356
 H141 H 0.30503 0.20970 0.26986
 H142 H 0.30563 0.28776 0.19193
 H143 H 0.22763 0.21005 0.19138
 H144 H 0.22767 0.28744 0.26964
 H145 H 0.22193 0.23361 0.30811
 H146 H 0.18978 0.25729 0.27899
 H147 H 0.34682 0.26366 0.18599
 H148 H 0.31495 0.23748 0.15551
 H149 H 0.26346 0.20171 0.30862
 H150 H 0.25385 0.16884 0.27576
 H151 H 0.28283 0.32977 0.18650
 H152 H 0.25405 0.29799 0.15602
 H153 H 0.31521 0.17400 0.21673
 H154 H 0.34645 0.20333 0.24618
 H155 H 0.19192 0.29702 0.21707
 H156 H 0.22121 0.32860 0.24463
 O157 O 0.74897 0.84276 0.22811
 O158 O 0.71726 0.85039 0.26843
 O159 O 0.82474 0.80861 0.26938
 O160 O 0.83494 0.77149 0.29916
 O161 O 0.79077 0.76739 0.19379
 O162 O 0.75032 0.73584 0.18558
 O163 O 0.75075 0.72780 0.34272
 O164 O 0.78422 0.76687 0.34976
 O165 O 0.67646 0.76627 0.30843
 O166 O 0.66764 0.80042 0.26740
 O167 O 0.71062 0.69375 0.26839
 O168 O 0.75270 0.68551 0.23565
 O169 O 0.74966 0.69350 0.30775
 O170 O 0.78195 0.68419 0.26737
 O171 O 0.67594 0.72851 0.26845
 O172 O 0.66665 0.76961 0.23701
 O173 O 0.71134 0.76540 0.34300
 O174 O 0.74544 0.79838 0.35226
 O175 O 0.74977 0.80803 0.19350
 O176 O 0.71881 0.76813 0.18486
 O177 O 0.82529 0.76800 0.22877
 O178 O 0.83245 0.73531 0.26880
 O179 O 0.78967 0.84303 0.26796
 O180 O 0.74861 0.85168 0.29959
 Zr181 Zr 0.75097 0.81968 0.26724
 O182 O 0.72464 0.79474 0.29434
 Zr183 Zr 0.80205 0.76941 0.26757
 O184 O 0.77757 0.74203 0.29418
 Zr185 Zr 0.75152 0.76910 0.21663
 O186 O 0.72455 0.74228 0.24121
 Zr187 Zr 0.74985 0.76687 0.31970
 O188 O 0.77669 0.79476 0.29551
 Zr189 Zr 0.69908 0.76730 0.26910
 O190 O 0.72337 0.79441 0.24168
 Zr191 Zr 0.74986 0.71666 0.26880
 O192 O 0.77714 0.74142 0.24194
 O193 O 0.77798 0.79596 0.24057
 O194 O 0.72286 0.74001 0.29592
 C195 C 0.74863 0.83437 0.20176
 C196 C 0.81608 0.83493 0.26913
 C197 C 0.81713 0.76691 0.20236
 C198 C 0.75027 0.70154 0.33417
 C199 C 0.68499 0.76541 0.33477
 C200 C 0.68422 0.70215 0.26816
 H201 H 0.71299 0.80763 0.30665
 H202 H 0.71268 0.73054 0.22802
 H203 H 0.79019 0.80826 0.22821
 H204 H 0.79062 0.73018 0.30623
 H205 H 0.79658 0.78356 0.34499
 H206 H 0.82858 0.75990 0.31586
 H207 H 0.67156 0.75545 0.22190
 H208 H 0.70323 0.78099 0.19175
 H209 H 0.75597 0.81553 0.34550
 H210 H 0.76522 0.84875 0.31269
 H211 H 0.73656 0.68893 0.22209
 H212 H 0.76413 0.72090 0.19214
 H213 H 0.70231 0.84366 0.25478
 H214 H 0.67101 0.81347 0.28389
 H215 H 0.82603 0.72085 0.25452
 H216 H 0.79676 0.68897 0.28195
 O217 O 0.75064 0.17433 0.78819
 O218 O 0.72119 0.16526 0.74861
 O219 O 0.82581 0.21195 0.74915
 O220 O 0.83735 0.25009 0.72393
 O221 O 0.78803 0.24956 0.82600
 O222 O 0.74854 0.27922 0.83470
 O223 O 0.74876 0.28857 0.67475
 O224 O 0.78070 0.25214 0.66596
 O225 O 0.67521 0.25103 0.71096
 O226 O 0.66477 0.22088 0.74968
 O227 O 0.71129 0.32496 0.74874
 O228 O 0.75002 0.33533 0.77897
 O229 O 0.74900 0.32368 0.70891
 O230 O 0.78413 0.33081 0.75196
 O231 O 0.67621 0.29085 0.74890
 O232 O 0.66921 0.24773 0.78387
 O233 O 0.70931 0.25122 0.67583
 O234 O 0.75078 0.21594 0.66858
 O235 O 0.74902 0.20807 0.82374
 O236 O 0.71533 0.24920 0.83090
 O237 O 0.82358 0.25065 0.79233
 O238 O 0.82941 0.28603 0.75066
 O239 O 0.79219 0.17631 0.74899
 O240 O 0.75121 0.16899 0.71542
 Zr241 Zr 0.75221 0.19844 0.75013
 O242 O 0.72409 0.22306 0.72424
 Zr243 Zr 0.80170 0.24992 0.75213
 O244 O 0.77701 0.27560 0.72374
 Zr245 Zr 0.75015 0.24803 0.80162
 O246 O 0.72432 0.27610 0.77680
 Zr247 Zr 0.74899 0.25040 0.69851
 O248 O 0.77752 0.22439 0.72310
 Zr249 Zr 0.69876 0.25109 0.74937
 O250 O 0.72326 0.22267 0.77558
 Zr251 Zr 0.74960 0.30128 0.74877
 O252 O 0.77569 0.27686 0.77744
 O253 O 0.77796 0.22223 0.77789
 O254 O 0.72230 0.27775 0.72207
 C255 C 0.74926 0.18188 0.81466
 C256 C 0.81834 0.18545 0.74843
 C257 C 0.81450 0.25063 0.81851
 C258 C 0.74871 0.31494 0.68261
 C259 C 0.68303 0.25129 0.68457
 C260 C 0.68492 0.31713 0.74868
 H261 H 0.71195 0.20999 0.71265
 H262 H 0.71262 0.28821 0.78982
 H263 H 0.79035 0.20983 0.79013
 H264 H 0.78996 0.28715 0.71145
 H265 H 0.79718 0.24044 0.67292
 H266 H 0.82984 0.25557 0.70473
 H267 H 0.66996 0.26588 0.79498
 H268 H 0.70236 0.23311 0.82574
 H269 H 0.73293 0.20451 0.67032
 H270 H 0.76689 0.17454 0.70213
 H271 H 0.73983 0.32842 0.79631
 H272 H 0.76010 0.29575 0.82790
 H273 H 0.70458 0.17209 0.76008
 H274 H 0.67181 0.20345 0.73967
 H275 H 0.82576 0.29749 0.76826
 H276 H 0.79495 0.33024 0.73364
 O277 O 0.23293 0.80714 0.79123
 O278 O 0.26430 0.81534 0.75074
 O279 O 0.15738 0.77289 0.74872
 O280 O 0.14738 0.73566 0.71993
 O281 O 0.19157 0.73248 0.82521
 O282 O 0.23176 0.70004 0.83343
 O283 O 0.23381 0.69260 0.67662
 O284 O 0.19903 0.73070 0.66895
 O285 O 0.30645 0.73211 0.71101
 O286 O 0.31496 0.76470 0.75296
 O287 O 0.27200 0.65815 0.75067
 O288 O 0.23032 0.64995 0.78333
 O289 O 0.23367 0.65814 0.71157
 O290 O 0.20059 0.64934 0.75177
 O291 O 0.30652 0.69283 0.75011
 O292 O 0.31585 0.73339 0.78250
 O293 O 0.27178 0.73187 0.67623
 O294 O 0.23296 0.76375 0.66663
 O295 O 0.23273 0.77228 0.82584
 O296 O 0.26350 0.73212 0.83435
 O297 O 0.15719 0.73311 0.79008
 O298 O 0.15080 0.69931 0.75060
 O299 O 0.19214 0.80740 0.75022
 O300 O 0.23218 0.81599 0.71923
 Zr301 Zr 0.23114 0.78426 0.75195
 O302 O 0.25797 0.75955 0.72505
 Zr303 Zr 0.18048 0.73387 0.75137
 O304 O 0.20530 0.70680 0.72466
 Zr305 Zr 0.23086 0.73356 0.80252
 O306 O 0.25805 0.70678 0.77800
 Zr307 Zr 0.23303 0.73182 0.69937
 O308 O 0.20585 0.75927 0.72365
 Zr309 Zr 0.28352 0.73187 0.75026
 O310 O 0.25892 0.75894 0.77754
 Zr311 Zr 0.23293 0.68135 0.75030
 O312 O 0.20548 0.70594 0.77718
 O313 O 0.20422 0.76047 0.77844
 O314 O 0.26002 0.70481 0.72328
 C315 C 0.23366 0.79866 0.81762
 C316 C 0.16581 0.79922 0.74868
 C317 C 0.16527 0.73239 0.81650
 C318 C 0.23409 0.66629 0.68519
 C319 C 0.29811 0.73215 0.68458
 C320 C 0.29832 0.66649 0.75042
 H321 H 0.26988 0.77266 0.71331
 H322 H 0.26993 0.69490 0.79117
 H323 H 0.19196 0.77297 0.79059
 H324 H 0.19250 0.69497 0.71246
 H325 H 0.18496 0.74570 0.67472
 H326 H 0.15325 0.72323 0.70368
 H327 H 0.31123 0.71863 0.79715
 H328 H 0.27927 0.74455 0.82730
 H329 H 0.24538 0.77975 0.67307
 H330 H 0.21896 0.80937 0.70385
 H331 H 0.24608 0.65362 0.79721
 H332 H 0.21772 0.68542 0.82689
 H333 H 0.27942 0.80861 0.76427
 H334 H 0.31140 0.77846 0.73703
 H335 H 0.15697 0.68545 0.76566
 H336 H 0.18628 0.65381 0.73657
 O337 O 0.24839 0.34332 0.72875
 O338 O 0.21651 0.35101 0.76907
 O339 O 0.32395 0.30903 0.77031
 O340 O 0.33406 0.27193 0.80008
 O341 O 0.29003 0.26778 0.69466
 O342 O 0.24950 0.23631 0.68646
 O343 O 0.24973 0.22845 0.84362
 O344 O 0.28327 0.26756 0.85063
 O345 O 0.17554 0.26711 0.80916
 O346 O 0.16694 0.30130 0.76804
 O347 O 0.20960 0.19449 0.76931
 O348 O 0.25165 0.18604 0.73663
 O349 O 0.24862 0.19412 0.80869
 O350 O 0.28095 0.18475 0.76831
 O351 O 0.17501 0.22934 0.76923
 O352 O 0.16581 0.27033 0.73779
 O353 O 0.21035 0.26615 0.84379
 O354 O 0.24451 0.29905 0.85309
 O355 O 0.24917 0.30853 0.69420
 O356 O 0.21807 0.26869 0.68563
 O357 O 0.32450 0.26838 0.72970
 O358 O 0.33150 0.23571 0.76980
 O359 O 0.28897 0.34353 0.76877
 O360 O 0.24790 0.35243 0.80017
 Zr361 Zr 0.25022 0.32029 0.76795
 O362 O 0.22383 0.29545 0.79510
 Zr363 Zr 0.30119 0.26989 0.76846
 O364 O 0.27662 0.24260 0.79510
 Zr365 Zr 0.25075 0.26963 0.71743
 O366 O 0.22369 0.24293 0.74205
 Zr367 Zr 0.24892 0.26752 0.82055
 O368 O 0.27582 0.29533 0.79633
 Zr369 Zr 0.19824 0.26805 0.76987
 O370 O 0.22261 0.29505 0.74240
 Zr371 Zr 0.24890 0.21727 0.76971
 O372 O 0.27626 0.24193 0.74283
 O373 O 0.27724 0.29647 0.74138
 O374 O 0.22190 0.24072 0.79675
 C375 C 0.24809 0.33489 0.70240
 C376 C 0.31534 0.33536 0.77003
 C377 C 0.31638 0.26726 0.70328
 C378 C 0.24921 0.20217 0.83510
 C379 C 0.18401 0.26622 0.83551
 C380 C 0.18322 0.20297 0.76902
 H381 H 0.21220 0.30839 0.80738
 H382 H 0.21181 0.23120 0.72886
 H383 H 0.28950 0.30872 0.72903
 H384 H 0.28964 0.23074 0.80718
 H385 H 0.29563 0.28423 0.84585
 H386 H 0.32764 0.26043 0.81681
 H387 H 0.17080 0.25627 0.72261
 H388 H 0.20254 0.28164 0.69245
 H389 H 0.25494 0.31624 0.84627
 H390 H 0.26436 0.34936 0.81343
 H391 H 0.23556 0.18952 0.72302
 H392 H 0.26327 0.22135 0.69307
 H393 H 0.20166 0.34437 0.75526
 H394 H 0.17025 0.31430 0.78458
 H395 H 0.32509 0.22127 0.75550
 H396 H 0.29571 0.18948 0.78295
 O397 O 0.76982 0.67526 0.69096
 O398 O 0.80226 0.66696 0.73136
 O399 O 0.69485 0.70902 0.73334
 O400 O 0.68432 0.74653 0.76179
 O401 O 0.72921 0.75069 0.65698
 O402 O 0.76956 0.78262 0.64967
 O403 O 0.76905 0.78920 0.80638
 O404 O 0.73570 0.74967 0.81331
 O405 O 0.84362 0.74955 0.77225
 O406 O 0.85199 0.71657 0.73099
 O407 O 0.80928 0.82327 0.73364
 O408 O 0.76769 0.83195 0.69955
 O409 O 0.76959 0.82379 0.77158
 O410 O 0.73804 0.83324 0.73093
 O411 O 0.84384 0.78837 0.73356
 O412 O 0.85278 0.74781 0.70081
 O413 O 0.80881 0.75101 0.80664
 O414 O 0.77433 0.71863 0.81614
 O415 O 0.76962 0.71040 0.65662
 O416 O 0.80115 0.75000 0.64889
 O417 O 0.69471 0.74949 0.69175
 O418 O 0.68754 0.78244 0.73204
 O419 O 0.72969 0.67444 0.73164
 O420 O 0.77107 0.66490 0.76217
 Zr421 Zr 0.76850 0.69766 0.73047
 O422 O 0.79492 0.72220 0.75795
 Zr423 Zr 0.71769 0.74813 0.73089
 O424 O 0.74226 0.77514 0.75784
 Zr425 Zr 0.76824 0.74884 0.68026
 O426 O 0.79532 0.77525 0.70521
 Zr427 Zr 0.77001 0.75008 0.78338
 O428 O 0.74305 0.72250 0.75885
 Zr429 Zr 0.82062 0.74971 0.73301
 O430 O 0.79622 0.72303 0.70525
 Zr431 Zr 0.76999 0.80065 0.73274
 O432 O 0.74263 0.77629 0.70555
 O433 O 0.74160 0.72177 0.70387
 O434 O 0.79701 0.77695 0.75985
 C435 C 0.77020 0.68398 0.66466
 C436 C 0.70335 0.68265 0.73332
 C437 C 0.70288 0.75078 0.66539
 C438 C 0.76906 0.81557 0.79794
 C439 C 0.83518 0.75037 0.79855
 C440 C 0.83562 0.81473 0.73390
 H441 H 0.80649 0.70909 0.77022
 H442 H 0.80728 0.78714 0.69227
 H443 H 0.72922 0.70953 0.69158
 H444 H 0.72919 0.78689 0.76984
 H445 H 0.72332 0.73307 0.80830
 H446 H 0.69125 0.75677 0.77913
 H447 H 0.84846 0.76296 0.68641
 H448 H 0.81661 0.73698 0.65585
 H449 H 0.76475 0.70113 0.80889
 H450 H 0.75524 0.66827 0.77600
 H451 H 0.78447 0.82914 0.68676
 H452 H 0.75567 0.79742 0.65624
 H453 H 0.81674 0.67342 0.71715
 H454 H 0.84799 0.70273 0.74669
 H455 H 0.69351 0.79652 0.71719
 H456 H 0.72280 0.82805 0.74483
 O457 O 0.25035 0.67501 0.28806
 O458 O 0.22074 0.66606 0.24853
 O459 O 0.32553 0.71240 0.24883
 O460 O 0.33714 0.75048 0.22355
 O461 O 0.28804 0.75017 0.32574
 O462 O 0.24866 0.77993 0.33452
 O463 O 0.24859 0.78926 0.17449
 O464 O 0.28039 0.75270 0.16570
 O465 O 0.17497 0.75195 0.21092
 O466 O 0.16450 0.72190 0.24965
 O467 O 0.21139 0.82583 0.24857
 O468 O 0.25019 0.83608 0.27869
 O469 O 0.24904 0.82439 0.20863
 O470 O 0.28427 0.83138 0.25165
 O471 O 0.17621 0.79183 0.24883
 O472 O 0.16915 0.74874 0.28385
 O473 O 0.20899 0.75200 0.17572
 O474 O 0.25034 0.71662 0.16838
 O475 O 0.24891 0.70877 0.32359
 O476 O 0.21532 0.75004 0.33076
 O477 O 0.32353 0.75113 0.29199
 O478 O 0.32938 0.78646 0.25030
 O479 O 0.29182 0.67686 0.24876
 O480 O 0.25073 0.66966 0.21527
 Zr481 Zr 0.25190 0.69912 0.24997
 O482 O 0.22381 0.72384 0.22412
 Zr483 Zr 0.30155 0.75045 0.25183
 O484 O 0.27689 0.77620 0.22347
 Zr485 Zr 0.25010 0.74874 0.30143
 O486 O 0.22433 0.77691 0.27664
 Zr487 Zr 0.24872 0.75109 0.19830
 O488 O 0.27721 0.72499 0.22287
 Zr489 Zr 0.19862 0.75198 0.24928
 O490 O 0.22307 0.72347 0.27546
 Zr491 Zr 0.24962 0.80200 0.24852
 O492 O 0.27567 0.77749 0.27718
 O493 O 0.27778 0.72285 0.27767
 O494 O 0.22218 0.77855 0.22190
 C495 C 0.24905 0.68257 0.31454
 C496 C 0.31799 0.68591 0.24813
 C497 C 0.31451 0.75115 0.31820
 C498 C 0.24866 0.81565 0.18233
 C499 C 0.18272 0.75215 0.18451
 C500 C 0.18499 0.81809 0.24857
 H501 H 0.21159 0.71081 0.21257
 H502 H 0.21269 0.78907 0.28967
 H503 H 0.29016 0.71041 0.28989
 H504 H 0.28985 0.78770 0.21114
 H505 H 0.29684 0.74094 0.17264
 H506 H 0.32961 0.75600 0.20438
 H507 H 0.16996 0.76691 0.29493
 H508 H 0.20233 0.73396 0.32566
 H509 H 0.23248 0.70521 0.17022
 H510 H 0.26640 0.67518 0.20195
 H511 H 0.24009 0.82917 0.29609
 H512 H 0.26023 0.79644 0.32767
 H513 H 0.20420 0.67293 0.26008
 H514 H 0.17150 0.70440 0.23975
 H515 H 0.32580 0.79794 0.26790
 H516 H 0.29504 0.83079 0.23329
 O517 O 0.73198 0.30507 0.28988
 O518 O 0.76326 0.31340 0.24939
 O519 O 0.65637 0.27092 0.24742
 O520 O 0.64638 0.23370 0.21853
 O521 O 0.69065 0.23042 0.32380
 O522 O 0.73082 0.19788 0.33188
 O523 O 0.73286 0.19078 0.17514
 O524 O 0.69806 0.22879 0.16748
 O525 O 0.80547 0.23026 0.20952
 O526 O 0.81399 0.26277 0.25153
 O527 O 0.77110 0.15619 0.24912
 O528 O 0.72933 0.14800 0.28182
 O529 O 0.73273 0.15625 0.21002
 O530 O 0.69976 0.14726 0.25012
 O531 O 0.80559 0.19090 0.24856
 O532 O 0.81489 0.23144 0.28103
 O533 O 0.77079 0.23010 0.17476
 O534 O 0.73186 0.26197 0.16528
 O535 O 0.73183 0.27013 0.32442
 O536 O 0.76254 0.22997 0.33290
 O537 O 0.65622 0.23109 0.28871
 O538 O 0.64982 0.19731 0.24919
 O539 O 0.69114 0.30542 0.24895
 O540 O 0.73113 0.31404 0.21789
 Zr541 Zr 0.73013 0.28227 0.25057
 O542 O 0.75699 0.25764 0.22364
 Zr543 Zr 0.67949 0.23188 0.24996
 O544 O 0.70433 0.20488 0.22321
 Zr545 Zr 0.72991 0.23147 0.30106
 O546 O 0.75712 0.20477 0.27650
 Zr547 Zr 0.73204 0.22995 0.19793
 O548 O 0.70483 0.25733 0.22226
 Zr549 Zr 0.78256 0.22993 0.24879
 O550 O 0.75794 0.25692 0.27611
 Zr551 Zr 0.73200 0.17939 0.24878
 O552 O 0.70452 0.20389 0.27570
 O553 O 0.70325 0.25843 0.27705
 O554 O 0.75906 0.20290 0.22178
 C555 C 0.73275 0.29651 0.31624
 C556 C 0.66479 0.29725 0.24743
 C557 C 0.66433 0.23036 0.31513
 C558 C 0.73315 0.16445 0.18366
 C559 C 0.79712 0.23038 0.18310
 C560 C 0.79742 0.16455 0.24886
 H561 H 0.76888 0.27078 0.21191
 H562 H 0.76902 0.19288 0.28964
 H563 H 0.69101 0.27092 0.28923
 H564 H 0.69153 0.19306 0.21099
 H565 H 0.68393 0.24371 0.17331
 H566 H 0.65224 0.22126 0.20228
 H567 H 0.81033 0.21659 0.29562
 H568 H 0.77835 0.24235 0.32584
 H569 H 0.74440 0.27790 0.17168
 H570 H 0.71788 0.30744 0.20252
 H571 H 0.74519 0.15156 0.29562
 H572 H 0.71670 0.18332 0.32538
 H573 H 0.77842 0.30664 0.26287
 H574 H 0.81041 0.27656 0.23563
 H575 H 0.65601 0.18344 0.26423
 H576 H 0.68530 0.15191 0.23511
 C577 C 0.26011 0.08549 0.06020
 C578 C 0.28926 0.08485 0.07593
 C579 C 0.29168 0.10512 0.09698
 C580 C 0.26472 0.12401 0.10024
 C581 C 0.23993 0.10283 0.10511
 C582 C 0.23751 0.08260 0.08409
 C583 C 0.25685 0.11645 0.04899
 C584 C 0.25928 0.13675 0.07009
 C585 C 0.25737 0.06303 0.03827
 C586 C 0.25497 0.04292 0.02208
 C587 C 0.26705 0.14557 0.12314
 C588 C 0.26820 0.16320 0.14210
 H589 H 0.30652 0.06986 0.07090
 H590 H 0.31100 0.10748 0.11001
 H591 H 0.22550 0.10366 0.12347
 H592 H 0.22098 0.06610 0.08444
 H593 H 0.25302 0.12193 0.02655
 H594 H 0.25753 0.15967 0.06572
 C595 C 0.76156 0.58514 0.56051
 C596 C 0.79050 0.58401 0.57659
 C597 C 0.79302 0.60424 0.59766
 C598 C 0.76634 0.62359 0.60056
 C599 C 0.74112 0.60284 0.60515
 C600 C 0.73861 0.58265 0.58412
 C601 C 0.75897 0.61613 0.54924
 C602 C 0.76149 0.63640 0.57035
 C603 C 0.75870 0.56273 0.53858
 C604 C 0.75617 0.54267 0.52241
 C605 C 0.76874 0.64509 0.62346
 C606 C 0.76990 0.66270 0.64242
 H607 H 0.80756 0.56871 0.57178
 H608 H 0.81220 0.60628 0.61093
 H609 H 0.72649 0.60394 0.62333
 H610 H 0.72180 0.56644 0.58426
 H611 H 0.75551 0.62166 0.52675
 H612 H 0.76019 0.65935 0.56595
 C613 C 0.74828 0.92690 0.09123
 C614 C 0.74834 0.94292 0.12016
 C615 C 0.74805 0.92500 0.14352
 C616 C 0.74773 0.89290 0.13555
 C617 C 0.77399 0.88860 0.11601
 C618 C 0.77428 0.90646 0.09273
 C619 C 0.72182 0.90721 0.09235
 C620 C 0.72153 0.88934 0.11565
 C621 C 0.74867 0.94563 0.06580
 C622 C 0.74913 0.96004 0.04420
 C623 C 0.74756 0.87315 0.16022
 C624 C 0.74780 0.85592 0.17965
 H625 H 0.74858 0.96622 0.12213
 H626 H 0.74804 0.93294 0.16551
 H627 H 0.79093 0.87292 0.12013
 H628 H 0.79147 0.90609 0.07691
 H629 H 0.70476 0.90734 0.07629
 H630 H 0.70422 0.87416 0.11954
 C631 C 0.24797 0.42728 0.59156
 C632 C 0.24792 0.44334 0.62047
 C633 C 0.24761 0.42546 0.64386
 C634 C 0.24738 0.39334 0.63597
 C635 C 0.27371 0.38907 0.61650
 C636 C 0.27402 0.40689 0.59318
 C637 C 0.22156 0.40752 0.59266
 C638 C 0.22125 0.38968 0.61599
 C639 C 0.24838 0.44599 0.56607
 C640 C 0.24882 0.46041 0.54445
 C641 C 0.24718 0.37362 0.66071
 C642 C 0.24736 0.35642 0.68021
 H643 H 0.24810 0.46664 0.62239
 H644 H 0.24752 0.43344 0.66583
 H645 H 0.29067 0.37344 0.62069
 H646 H 0.29124 0.40652 0.57740
 H647 H 0.20454 0.40757 0.57656
 H648 H 0.20397 0.37447 0.61987
 C649 C 0.75077 0.06656 0.90121
 C650 C 0.78054 0.07551 0.89014
 C651 C 0.77994 0.09956 0.87325
 C652 C 0.74962 0.11230 0.86912
 C653 C 0.73830 0.11744 0.89964
 C654 C 0.73890 0.09344 0.91649
 C655 C 0.73204 0.06325 0.87415
 C656 C 0.73144 0.08733 0.85724
 C657 C 0.75131 0.04149 0.92045
 C658 C 0.75143 0.02342 0.93911
 C659 C 0.74904 0.13818 0.85097
 C660 C 0.74889 0.15884 0.83522
 H661 H 0.80032 0.06393 0.89502
 H662 H 0.79923 0.10861 0.86370
 H663 H 0.73049 0.13810 0.90736
 H664 H 0.73157 0.09359 0.93869
 H665 H 0.72040 0.04375 0.86871
 H666 H 0.71922 0.08846 0.83729
 C667 C 0.25032 0.56739 0.40156
 C668 C 0.22222 0.58484 0.40377
 C669 C 0.22168 0.60880 0.38680
 C670 C 0.24928 0.61304 0.36926
 C671 C 0.25315 0.58477 0.35238
 C672 C 0.25369 0.56075 0.36939
 C673 C 0.27430 0.58905 0.40847
 C674 C 0.27376 0.61301 0.39151
 C675 C 0.25081 0.54233 0.42088
 C676 C 0.25093 0.52421 0.43952
 C677 C 0.24877 0.63888 0.35098
 C678 C 0.24865 0.65952 0.33515
 H679 H 0.20427 0.57882 0.41743
 H680 H 0.20331 0.62332 0.38596
 H681 H 0.25527 0.58375 0.32911
 H682 H 0.25627 0.53918 0.36076
 H683 H 0.29039 0.58580 0.42521
 H684 H 0.28933 0.63027 0.39374
 C685 C 0.24131 0.89860 0.92161
 C686 C 0.24149 0.91101 0.89090
 C687 C 0.23986 0.89065 0.86990
 C688 C 0.23820 0.85978 0.88155
 C689 C 0.21227 0.85983 0.90206
 C690 C 0.21391 0.88024 0.92313
 C691 C 0.26630 0.87687 0.92231
 C692 C 0.26467 0.85647 0.90125
 C693 C 0.24316 0.92125 0.94363
 C694 C 0.24487 0.94148 0.95984
 C695 C 0.23650 0.83801 0.85864
 C696 C 0.23518 0.82019 0.83977
 H697 H 0.24278 0.93386 0.88607
 H698 H 0.23975 0.89607 0.84713
 H699 H 0.19425 0.84510 0.90023
 H700 H 0.19731 0.88298 0.93933
 H701 H 0.28369 0.87741 0.93800
 H702 H 0.28068 0.83954 0.89891
 C703 C 0.74095 0.39583 0.42060
 C704 C 0.73732 0.40852 0.39020
 C705 C 0.73554 0.38830 0.36909
 C706 C 0.73757 0.35729 0.38034
 C707 C 0.71369 0.35489 0.40308
 C708 C 0.71547 0.37518 0.42425
 C709 C 0.76765 0.37634 0.41871
 C710 C 0.76587 0.35607 0.39755
 C711 C 0.74297 0.41831 0.44271
 C712 C 0.74485 0.43841 0.45903
 C713 C 0.73573 0.33568 0.35735
 C714 C 0.73434 0.31796 0.33841
 H715 H 0.73621 0.43146 0.38566
 H716 H 0.73292 0.39390 0.34651
 H717 H 0.69690 0.33868 0.40260
 H718 H 0.70023 0.37632 0.44192
 H719 H 0.78625 0.37822 0.43280
 H720 H 0.78298 0.34061 0.39350
 C721 C 0.09063 0.25093 0.07260
 C722 C 0.09153 0.27735 0.09241
 C723 C 0.11481 0.27779 0.11033
 C724 C 0.13493 0.25176 0.10669
 C725 C 0.14290 0.25158 0.07459
 C726 C 0.11957 0.25115 0.05663
 C727 C 0.09234 0.22489 0.09294
 C728 C 0.11560 0.22532 0.11085
 C729 C 0.06522 0.25040 0.05379
 C730 C 0.04367 0.24986 0.03929
 C731 C 0.15960 0.25208 0.12648
 C732 C 0.17907 0.25198 0.14371
 H733 H 0.07533 0.29428 0.09233
 H734 H 0.11855 0.29508 0.12560
 H735 H 0.16489 0.25178 0.06669
 H736 H 0.12154 0.25098 0.03333
 H737 H 0.07666 0.20759 0.09322
 H738 H 0.11985 0.20838 0.12648
 C739 C 0.59177 0.75059 0.57330
 C740 C 0.59179 0.77587 0.59457
 C741 C 0.61520 0.77625 0.61231
 C742 C 0.63633 0.75132 0.60707
 C743 C 0.64398 0.75327 0.57495
 C744 C 0.62051 0.75289 0.55715
 C745 C 0.59472 0.72354 0.59213
 C746 C 0.61813 0.72392 0.60987
 C747 C 0.56620 0.75012 0.55468
 C748 C 0.54453 0.74964 0.54032
 C749 C 0.66114 0.75159 0.62670
 C750 C 0.68068 0.75146 0.64386
 H751 H 0.57492 0.79209 0.59557
 H752 H 0.61839 0.79279 0.62851
 H753 H 0.66586 0.75481 0.56690
 H754 H 0.62226 0.75411 0.53386
 H755 H 0.57977 0.70561 0.59154
 H756 H 0.62322 0.70631 0.62447
 C757 C 0.06067 0.74117 0.91481
 C758 C 0.07745 0.71266 0.91666
 C759 C 0.09867 0.71019 0.89660
 C760 C 0.10100 0.73646 0.87668
 C761 C 0.10487 0.76227 0.89689
 C762 C 0.08368 0.76474 0.91692
 C763 C 0.04950 0.74276 0.88370
 C764 C 0.07075 0.74028 0.86360
 C765 C 0.03856 0.74396 0.93705
 C766 C 0.02222 0.74639 0.95698
 C767 C 0.12403 0.73408 0.85533
 C768 C 0.14305 0.73285 0.83779
 H769 H 0.07300 0.69585 0.93231
 H770 H 0.11241 0.69129 0.89506
 H771 H 0.12268 0.77732 0.89557
 H772 H 0.08333 0.78193 0.93276
 H773 H 0.02696 0.74554 0.87798
 H774 H 0.06643 0.74094 0.84060
 C775 C 0.56054 0.23983 0.41429
 C776 C 0.54914 0.24209 0.38330
 C777 C 0.57017 0.23944 0.36298
 C778 C 0.60044 0.23481 0.37574
 C779 C 0.59771 0.20831 0.39531
 C780 C 0.57673 0.21094 0.41559
 C781 C 0.58407 0.26287 0.41653
 C782 C 0.60503 0.26023 0.39628
 C783 C 0.53867 0.24278 0.43676
 C784 C 0.52252 0.24534 0.45684
 C785 C 0.62326 0.23225 0.35416
 C786 C 0.64216 0.23091 0.33649
 H787 H 0.52662 0.24542 0.37781
 H788 H 0.56567 0.24052 0.34003
 H789 H 0.61103 0.18914 0.39338
 H790 H 0.57205 0.19401 0.43104
 H791 H 0.58422 0.27983 0.43261
 H792 H 0.62314 0.27491 0.39502
 C793 C 0.92123 0.75989 0.10271
 C794 C 0.90750 0.73068 0.10975
 C795 C 0.88645 0.73220 0.13009
 C796 C 0.88114 0.76279 0.14144
 C797 C 0.87482 0.78102 0.11456
 C798 C 0.89585 0.77950 0.09423
 C799 C 0.93184 0.77158 0.13176
 C800 C 0.91074 0.77310 0.15216
 C801 C 0.94323 0.75815 0.08009
 C802 C 0.95940 0.75652 0.05984
 C803 C 0.85822 0.76435 0.16316
 C804 C 0.83932 0.76554 0.18091
 H805 H 0.91382 0.71054 0.09969
 H806 H 0.87475 0.71337 0.13743
 H807 H 0.85553 0.79403 0.11174
 H808 H 0.89455 0.79123 0.07400
 H809 H 0.95391 0.77804 0.13595
 H810 H 0.91476 0.78090 0.17383
 C811 C 0.42070 0.25972 0.60384
 C812 C 0.40894 0.23026 0.61309
 C813 C 0.38784 0.23189 0.63338
 C814 C 0.38051 0.26283 0.64247
 C815 C 0.37300 0.27857 0.61434
 C816 C 0.39409 0.27694 0.59407
 C817 C 0.43050 0.27419 0.63191
 C818 C 0.40935 0.27583 0.65224
 C819 C 0.44280 0.25786 0.58131
 C820 C 0.45912 0.25613 0.56119
 C821 C 0.35754 0.26451 0.66413
 C822 C 0.33860 0.26579 0.68185
 H823 H 0.41659 0.20988 0.60451
 H824 H 0.37740 0.21292 0.64215
 H825 H 0.35290 0.29004 0.61067
 H826 H 0.39201 0.28704 0.57304
 H827 H 0.45209 0.28238 0.63551
 H828 H 0.41284 0.28545 0.67326
 C829 C 0.90172 0.24850 0.93354
 C830 C 0.91852 0.25015 0.90508
 C831 C 0.90147 0.25086 0.88120
 C832 C 0.86924 0.24987 0.88802
 C833 C 0.86399 0.27510 0.90876
 C834 C 0.88109 0.27439 0.93271
 C835 C 0.88241 0.22194 0.93046
 C836 C 0.86531 0.22265 0.90651
 C837 C 0.92119 0.24784 0.95847
 C838 C 0.94009 0.24764 0.97633
 C839 C 0.85090 0.25057 0.86223
 C840 C 0.83507 0.25085 0.84159
 H841 H 0.94187 0.25070 0.90381
 H842 H 0.91017 0.25203 0.85954
 H843 H 0.84821 0.29201 0.90499
 H844 H 0.87994 0.29063 0.94947
 H845 H 0.88210 0.20421 0.94574
 H846 H 0.85037 0.20549 0.90126
 C847 C 0.40153 0.74883 0.43343
 C848 C 0.41846 0.74981 0.40502
 C849 C 0.40151 0.75055 0.38106
 C850 C 0.36924 0.75026 0.38776
 C851 C 0.36441 0.77584 0.40818
 C852 C 0.38140 0.77509 0.43220
 C853 C 0.38172 0.72261 0.43059
 C854 C 0.36472 0.72336 0.40656
 C855 C 0.42085 0.74811 0.45850
 C856 C 0.43951 0.74783 0.47662
 C857 C 0.35096 0.75100 0.36190
 C858 C 0.33513 0.75131 0.34126
 H859 H 0.44183 0.74990 0.40384
 H860 H 0.41031 0.75128 0.35942
 H861 H 0.34896 0.79300 0.40414
 H862 H 0.38050 0.79156 0.44876
 H863 H 0.38103 0.70508 0.44608
 H864 H 0.34948 0.70641 0.40147
 C865 C 0.10288 0.07844 0.24111
 C866 C 0.10626 0.09584 0.26902
 C867 C 0.12638 0.11706 0.26732
 C868 C 0.14122 0.11886 0.23787
 C869 C 0.11661 0.12221 0.21598
 C870 C 0.09649 0.10100 0.21768
 C871 C 0.13324 0.06722 0.23432
 C872 C 0.15342 0.08849 0.23261
 C873 C 0.08052 0.05619 0.24304
 C874 C 0.06055 0.03970 0.24480
 C875 C 0.16275 0.14195 0.23611
 C876 C 0.18041 0.16093 0.23474
 H877 H 0.09395 0.09179 0.28846
 H878 H 0.13129 0.13118 0.28529
 H879 H 0.11513 0.13969 0.20047
 H880 H 0.07778 0.10033 0.20359
 H881 H 0.13843 0.04463 0.23114
 H882 H 0.17592 0.08409 0.22796
 C883 C 0.60372 0.57875 0.74132
 C884 C 0.59273 0.60681 0.72750
 C885 C 0.61304 0.62781 0.72577
 C886 C 0.64243 0.61878 0.73802
 C887 C 0.65046 0.59114 0.72165
 C888 C 0.63008 0.57007 0.72339
 C889 C 0.61594 0.58782 0.77069
 C890 C 0.63628 0.60885 0.76896
 C891 C 0.58115 0.55675 0.74329
 C892 C 0.56101 0.54051 0.74512
 C893 C 0.66413 0.64166 0.73623
 C894 C 0.68189 0.66052 0.73487
 H895 H 0.57085 0.60990 0.71970
 H896 H 0.60857 0.64886 0.71650
 H897 H 0.67039 0.58837 0.70978
 H898 H 0.63255 0.54926 0.71304
 H899 H 0.60927 0.57847 0.79106
 H900 H 0.64701 0.61753 0.78785
 C901 C 0.93344 0.09830 0.74963
 C902 C 0.91257 0.09273 0.77463
 C903 C 0.88865 0.10977 0.77403
 C904 C 0.88790 0.13076 0.74848
 C905 C 0.89118 0.11183 0.72166
 C906 C 0.91510 0.09478 0.72226
 C907 C 0.94029 0.13054 0.75119
 C908 C 0.91631 0.14765 0.75059
 C909 C 0.95840 0.07886 0.75019
 C910 C 0.97635 0.06004 0.75036
 C911 C 0.86209 0.14909 0.74793
 C912 C 0.84145 0.16490 0.74787
 H913 H 0.91630 0.07681 0.79141
 H914 H 0.87190 0.10844 0.79025
 H915 H 0.87608 0.11183 0.70374
 H916 H 0.92049 0.08019 0.70480
 H917 H 0.96196 0.13916 0.75264
 H918 H 0.91745 0.17098 0.75152
 C919 C 0.43324 0.59890 0.24922
 C920 C 0.40483 0.58205 0.25088
 C921 C 0.38088 0.59900 0.25030
 C922 C 0.38756 0.63120 0.24811
 C923 C 0.40653 0.63423 0.22121
 C924 C 0.43056 0.61723 0.22179
 C925 C 0.43184 0.62044 0.27420
 C926 C 0.40781 0.63744 0.27361
 C927 C 0.45830 0.57957 0.24977
 C928 C 0.47640 0.56089 0.24993
 C929 C 0.36170 0.64947 0.24759
 C930 C 0.34105 0.66530 0.24754
 H931 H 0.40365 0.55873 0.25240
 H932 H 0.35924 0.59025 0.25132
 H933 H 0.40155 0.64851 0.20330
 H934 H 0.44617 0.61697 0.20442
 H935 H 0.44827 0.62225 0.29079
 H936 H 0.40365 0.65381 0.28977
 C937 C 0.07327 0.90992 0.74782
 C938 C 0.09236 0.90749 0.77476
 C939 C 0.11024 0.88419 0.77455
 C940 C 0.10731 0.86557 0.74741
 C941 C 0.11218 0.88635 0.72215
 C942 C 0.09429 0.90965 0.72236
 C943 C 0.05730 0.88105 0.74604
 C944 C 0.07523 0.85768 0.74582
 C945 C 0.05449 0.93535 0.74813
 C946 C 0.03997 0.95690 0.74851
 C947 C 0.12707 0.84087 0.74734
 C948 C 0.14429 0.82140 0.74769
 H949 H 0.09184 0.92270 0.79250
 H950 H 0.12504 0.87945 0.79211
 H951 H 0.12824 0.88301 0.70551
 H952 H 0.09502 0.92628 0.70590
 H953 H 0.03401 0.87914 0.74503
 H954 H 0.06732 0.83574 0.74463
 C955 C 0.57274 0.40842 0.24700
 C956 C 0.59378 0.40812 0.22156
 C957 C 0.61152 0.38469 0.22126
 C958 C 0.60650 0.36384 0.24643
 C959 C 0.57437 0.35617 0.24478
 C960 C 0.55658 0.37966 0.24508
 C961 C 0.59180 0.40573 0.27395
 C962 C 0.60953 0.38232 0.27364
 C963 C 0.55414 0.43400 0.24741
 C964 C 0.53981 0.45569 0.24787
 C965 C 0.62612 0.33901 0.24626
 C966 C 0.64328 0.31947 0.24653
 H967 H 0.59463 0.42481 0.20518
 H968 H 0.62756 0.38133 0.20461
 H969 H 0.56631 0.33428 0.24349
 H970 H 0.53328 0.37790 0.24405
 H971 H 0.59137 0.42087 0.29175
 H972 H 0.62428 0.37741 0.29119
 C973 C 0.91523 0.93871 0.26053
 C974 C 0.91537 0.92358 0.28999
 C975 C 0.89507 0.90260 0.29247
 C976 C 0.87666 0.89882 0.26524
 C977 C 0.89829 0.89341 0.24092
 C978 C 0.91855 0.91436 0.23844
 C979 C 0.88433 0.94987 0.25652
 C980 C 0.86400 0.92884 0.25901
 C981 C 0.93773 0.96054 0.25774
 C982 C 0.95788 0.97662 0.25529
 C983 C 0.85508 0.87600 0.26762
 C984 C 0.83742 0.85710 0.26880
 H985 H 0.93005 0.92895 0.30741
 H986 H 0.89238 0.88998 0.31198
 H987 H 0.89773 0.87477 0.22683
 H988 H 0.93534 0.91366 0.22222
 H989 H 0.87891 0.97222 0.25217
 H990 H 0.84111 0.93320 0.25677
 C991 C 0.41425 0.43928 0.76154
 C992 C 0.41551 0.42307 0.79039
 C993 C 0.39530 0.40201 0.79287
 C994 C 0.37584 0.39926 0.76626
 C995 C 0.39649 0.39477 0.74092
 C996 C 0.41666 0.41579 0.73844
 C997 C 0.38324 0.45060 0.75916
 C998 C 0.36299 0.42950 0.76164
 C999 C 0.43664 0.46120 0.75873
 C1000 C 0.45670 0.47736 0.75623
 C1001 C 0.35434 0.37640 0.76862
 C1002 C 0.33671 0.35749 0.76976
 H1003 H 0.43088 0.42777 0.80741
 H1004 H 0.39335 0.38866 0.81199
 H1005 H 0.39534 0.37667 0.72617
 H1006 H 0.43281 0.41571 0.72155
 H1007 H 0.37769 0.47310 0.75586
 H1008 H 0.34004 0.43393 0.76047
 C1009 C 0.08420 0.25745 0.93882
 C1010 C 0.11511 0.25569 0.95051
 C1011 C 0.13557 0.25774 0.92955
 C1012 C 0.12302 0.26133 0.89905
 C1013 C 0.10327 0.28781 0.90083
 C1014 C 0.08285 0.28577 0.92173
 C1015 C 0.08227 0.23363 0.91599
 C1016 C 0.10267 0.23567 0.89510
 C1017 C 0.06158 0.25519 0.96062
 C1018 C 0.04138 0.25324 0.97671
 C1019 C 0.14475 0.26342 0.87632
 C1020 C 0.16252 0.26488 0.85753
 H1021 H 0.12044 0.25310 0.97316
 H1022 H 0.15848 0.25689 0.93425
 H1023 H 0.10517 0.30655 0.88693
 H1024 H 0.06728 0.30278 0.92576
 H1025 H 0.06630 0.21660 0.91625
 H1026 H 0.10417 0.22041 0.87746
 C1027 C 0.58584 0.75693 0.43867
 C1028 C 0.58227 0.78355 0.41929
 C1029 C 0.60251 0.78550 0.39822
 C1030 C 0.62434 0.76063 0.39858
 C1031 C 0.60616 0.73316 0.39685
 C1032 C 0.58592 0.73121 0.41792
 C1033 C 0.61674 0.75865 0.45035
 C1034 C 0.63704 0.76060 0.42922
 C1035 C 0.56342 0.75479 0.46066
 C1036 C 0.54340 0.75296 0.47698
 C1037 C 0.64589 0.76264 0.37570
 C1038 C 0.66357 0.76406 0.35683
 H1039 H 0.56535 0.79952 0.42194
 H1040 H 0.60293 0.80311 0.38281
 H1041 H 0.60896 0.71665 0.38054
 H1042 H 0.57139 0.71302 0.41967
 H1043 H 0.62219 0.75837 0.47311
 H1044 H 0.65992 0.76199 0.43389
 C1045 C 0.92683 0.75081 0.91010
 C1046 C 0.94312 0.74962 0.88136
 C1047 C 0.92544 0.74957 0.85779
 C1048 C 0.89326 0.75071 0.86536
 C1049 C 0.88983 0.77753 0.88435
 C1050 C 0.90747 0.77758 0.90785
 C1051 C 0.90609 0.72516 0.90923
 C1052 C 0.88845 0.72511 0.88573
 C1053 C 0.94535 0.75088 0.93575
 C1054 C 0.95967 0.75104 0.95747
 C1055 C 0.87374 0.75064 0.84043
 C1056 C 0.85666 0.75054 0.82082
 H1057 H 0.96643 0.74888 0.87967
 H1058 H 0.93360 0.74880 0.83591
 H1059 H 0.87490 0.79500 0.87970
 H1060 H 0.90763 0.79509 0.92333
 H1061 H 0.90535 0.70845 0.92561
 H1062 H 0.87262 0.70836 0.88199
 C1063 C 0.42610 0.25058 0.40904
 C1064 C 0.44216 0.24957 0.38017
 C1065 C 0.42430 0.24971 0.35675
 C1066 C 0.39219 0.25085 0.36458
 C1067 C 0.38894 0.27754 0.38378
 C1068 C 0.40676 0.27740 0.40714
 C1069 C 0.40532 0.22497 0.40817
 C1070 C 0.38750 0.22511 0.38481
 C1071 C 0.44481 0.25046 0.43455
 C1072 C 0.45928 0.25047 0.45615
 C1073 C 0.37249 0.25097 0.33982
 C1074 C 0.35530 0.25100 0.32031
 H1075 H 0.46546 0.24881 0.37830
 H1076 H 0.43228 0.24908 0.33480
 H1077 H 0.37399 0.29505 0.37937
 H1078 H 0.40707 0.29479 0.42274
 H1079 H 0.40469 0.20815 0.42444
 H1080 H 0.37161 0.20840 0.38108
 C1081 C 0.06704 0.75363 0.09812
 C1082 C 0.06344 0.77003 0.12654
 C1083 C 0.08768 0.76984 0.14327
 C1084 C 0.11309 0.75327 0.12990
 C1085 C 0.11756 0.76715 0.10029
 C1086 C 0.09339 0.76734 0.08360
 C1087 C 0.07704 0.72329 0.10686
 C1088 C 0.10123 0.72310 0.12357
 C1089 C 0.04173 0.75368 0.07909
 C1090 C 0.02336 0.75340 0.06067
 C1091 C 0.13912 0.75298 0.14794
 C1092 C 0.15980 0.75262 0.16373
 H1093 H 0.04367 0.78076 0.13296
 H1094 H 0.08865 0.78047 0.16407
 H1095 H 0.13788 0.77608 0.09305
 H1096 H 0.09307 0.77647 0.06204
 H1097 H 0.06603 0.70368 0.10057
 H1098 H 0.11096 0.70333 0.13154
 C1099 C 0.56749 0.25277 0.59809
 C1100 C 0.56361 0.26843 0.62688
 C1101 C 0.58783 0.26823 0.64363
 C1102 C 0.61351 0.25240 0.62989
 C1103 C 0.61778 0.26705 0.60062
 C1104 C 0.59362 0.26725 0.58392
 C1105 C 0.57797 0.22240 0.60612
 C1106 C 0.60215 0.22220 0.62284
 C1107 C 0.54221 0.25284 0.57905
 C1108 C 0.52388 0.25256 0.56061
 C1109 C 0.63951 0.25209 0.64794
 C1110 C 0.66016 0.25174 0.66376
 H1111 H 0.54366 0.27869 0.63354
 H1112 H 0.58862 0.27837 0.66468
 H1113 H 0.63796 0.27647 0.59362
 H1114 H 0.59316 0.27689 0.56258
 H1115 H 0.56728 0.20276 0.59936
 H1116 H 0.61219 0.20240 0.63035
 C1117 C 0.89649 0.23878 0.07881
 C1118 C 0.88485 0.20813 0.08293
 C1119 C 0.86466 0.20600 0.10412
 C1120 C 0.85809 0.23473 0.11913
 C1121 C 0.84955 0.25545 0.09465
 C1122 C 0.86974 0.25758 0.07346
 C1123 C 0.90750 0.24774 0.10871
 C1124 C 0.88736 0.24561 0.12986
 C1125 C 0.91886 0.24120 0.05661
 C1126 C 0.93881 0.24333 0.04013
 C1127 C 0.83650 0.23263 0.14214
 C1128 C 0.81874 0.23134 0.16103
 H1129 H 0.89179 0.18974 0.07027
 H1130 H 0.85434 0.18578 0.10962
 H1131 H 0.82938 0.26735 0.09401
 H1132 H 0.86688 0.27128 0.05467
 H1133 H 0.92928 0.25512 0.11292
 H1134 H 0.89189 0.25116 0.15213
 C1135 C 0.39728 0.73966 0.58009
 C1136 C 0.39314 0.70895 0.59168
 C1137 C 0.37302 0.70703 0.61293
 C1138 C 0.35898 0.73601 0.62053
 C1139 C 0.34698 0.74761 0.59183
 C1140 C 0.36714 0.74953 0.57056
 C1141 C 0.40425 0.75789 0.60678
 C1142 C 0.38416 0.75597 0.62799
 C1143 C 0.41961 0.74184 0.55784
 C1144 C 0.43956 0.74377 0.54135
 C1145 C 0.33745 0.73412 0.64359
 C1146 C 0.31971 0.73298 0.66252
 H1147 H 0.40494 0.69033 0.58383
 H1148 H 0.36759 0.68677 0.62328
 H1149 H 0.32462 0.75373 0.58851
 H1150 H 0.36206 0.75728 0.54904
 H1151 H 0.42334 0.77119 0.60884
 H1152 H 0.38605 0.76760 0.64818
 C1153 C 0.25012 0.09097 0.92714
 C1154 C 0.27556 0.09173 0.90611
 C1155 C 0.27537 0.11510 0.88835
 C1156 C 0.24976 0.13548 0.89331
 C1157 C 0.25121 0.14325 0.92544
 C1158 C 0.25140 0.11981 0.94326
 C1159 C 0.22315 0.09307 0.90803
 C1160 C 0.22296 0.11645 0.89026
 C1161 C 0.25028 0.06543 0.94581
 C1162 C 0.25028 0.04380 0.96024
 C1163 C 0.24956 0.16029 0.87366
 C1164 C 0.24939 0.17987 0.85654
 H1165 H 0.29230 0.07536 0.90529
 H1166 H 0.29195 0.11875 0.87231
 H1167 H 0.25201 0.16518 0.93348
 H1168 H 0.25237 0.12165 0.96656
 H1169 H 0.20569 0.07757 0.90846
 H1170 H 0.20534 0.12097 0.87548
 C1171 C 0.75112 0.59043 0.42610
 C1172 C 0.75196 0.61927 0.44225
 C1173 C 0.75181 0.64271 0.42445
 C1174 C 0.75083 0.63492 0.39230
 C1175 C 0.72422 0.61569 0.38890
 C1176 C 0.72437 0.59231 0.40666
 C1177 C 0.77682 0.59139 0.40541
 C1178 C 0.77666 0.61477 0.38765
 C1179 C 0.75123 0.56493 0.44475
 C1180 C 0.75116 0.54334 0.45919
 C1181 C 0.75065 0.65971 0.37268
 C1182 C 0.75048 0.67926 0.35557
 H1183 H 0.75262 0.62111 0.46556
 H1184 H 0.75233 0.66465 0.43249
 H1185 H 0.70675 0.62007 0.37390
 H1186 H 0.70703 0.57667 0.40687
 H1187 H 0.79370 0.57516 0.40480
 H1188 H 0.79342 0.61856 0.37182
 C1189 C 0.74148 0.06067 0.08429
 C1190 C 0.74362 0.04919 0.11525
 C1191 C 0.74164 0.07027 0.13562
 C1192 C 0.73772 0.10065 0.12293
 C1193 C 0.71104 0.09861 0.10346
 C1194 C 0.71302 0.07758 0.08314
 C1195 C 0.76511 0.08360 0.08198
 C1196 C 0.76313 0.10461 0.10229
 C1197 C 0.74368 0.03876 0.06177
 C1198 C 0.74562 0.02256 0.04164
 C1199 C 0.73570 0.12349 0.14454
 C1200 C 0.73435 0.14236 0.16224
 H1201 H 0.74642 0.02660 0.12068
 H1202 H 0.74275 0.06573 0.15855
 H1203 H 0.69223 0.11241 0.10549
 H1204 H 0.69588 0.07336 0.06776
 H1205 H 0.78198 0.08332 0.06583
 H1206 H 0.77829 0.12233 0.10353
 C1207 C 0.24179 0.56216 0.58597
 C1208 C 0.24356 0.55073 0.61697
 C1209 C 0.24174 0.57188 0.63728
 C1210 C 0.23834 0.60229 0.62452
 C1211 C 0.21178 0.60059 0.60487
 C1212 C 0.21359 0.57949 0.58460
 C1213 C 0.26577 0.58474 0.58378
 C1214 C 0.26396 0.60583 0.60404
 C1215 C 0.24380 0.54013 0.56350
 C1216 C 0.24556 0.52380 0.54345
 C1217 C 0.23649 0.62522 0.64610
 C1218 C 0.23522 0.64414 0.66378
 H1219 H 0.24599 0.52811 0.62246
 H1220 H 0.24263 0.56737 0.66023
 H1221 H 0.19315 0.61467 0.60674
 H1222 H 0.19649 0.57548 0.56911
 H1223 H 0.28275 0.58419 0.56775
 H1224 H 0.27936 0.62333 0.60535
 C1225 C 0.76027 0.92010 0.89704
 C1226 C 0.76645 0.93145 0.86660
 C1227 C 0.76863 0.91019 0.84642
 C1228 C 0.76442 0.87971 0.85870
 C1229 C 0.73508 0.88068 0.87381
 C1230 C 0.73290 0.90189 0.89394
 C1231 C 0.78444 0.89825 0.90325
 C1232 C 0.78662 0.87704 0.88312
 C1233 C 0.75782 0.94232 0.91938
 C1234 C 0.75566 0.95880 0.93933
 C1235 C 0.76658 0.85666 0.83717
 C1236 C 0.76795 0.83771 0.81947
 H1237 H 0.76888 0.95411 0.86137
 H1238 H 0.77295 0.91466 0.82388
 H1239 H 0.71752 0.86603 0.86908
 H1240 H 0.71346 0.90539 0.90642
 H1241 H 0.79867 0.89938 0.92182
 H1242 H 0.80268 0.86003 0.88445
 C1243 C 0.25919 0.42074 0.39701
 C1244 C 0.26426 0.43216 0.36640
 C1245 C 0.26632 0.41092 0.34618
 C1246 C 0.26311 0.38036 0.35859
 C1247 C 0.23420 0.38075 0.37453
 C1248 C 0.23214 0.40194 0.39469
 C1249 C 0.28398 0.39941 0.40255
 C1250 C 0.28603 0.37822 0.38238
 C1251 C 0.25687 0.44297 0.41942
 C1252 C 0.25486 0.45944 0.43942
 C1253 C 0.26516 0.35730 0.33700
 C1254 C 0.26648 0.33835 0.31927
 H1255 H 0.26607 0.45487 0.36107
 H1256 H 0.26991 0.41546 0.32352
 H1257 H 0.21683 0.36572 0.37032
 H1258 H 0.21300 0.40504 0.40772
 H1259 H 0.29869 0.40088 0.42072
 H1260 H 0.30248 0.36156 0.38328
 C1261 C 0.24769 0.90279 0.06723
 C1262 C 0.24387 0.91962 0.09548
 C1263 C 0.24396 0.90275 0.11948
 C1264 C 0.24786 0.87064 0.11300
 C1265 C 0.27578 0.86869 0.09540
 C1266 C 0.27569 0.88560 0.07134
 C1267 C 0.22361 0.88024 0.06742
 C1268 C 0.22371 0.86332 0.09150
 C1269 C 0.24773 0.92200 0.04206
 C1270 C 0.24807 0.94051 0.02380
 C1271 C 0.24805 0.85240 0.13888
 C1272 C 0.24831 0.83649 0.15946
 H1273 H 0.24129 0.94286 0.09651
 H1274 H 0.24147 0.91148 0.14102
 H1275 H 0.29401 0.85518 0.10130
 H1276 H 0.29380 0.88653 0.05662
 H1277 H 0.20796 0.87773 0.05019
 H1278 H 0.20807 0.84631 0.09490
 C1279 C 0.74783 0.40151 0.56727
 C1280 C 0.74247 0.41834 0.59527
 C1281 C 0.74252 0.40162 0.61938
 C1282 C 0.74791 0.36967 0.61321
 C1283 C 0.77641 0.36874 0.59649
 C1284 C 0.77637 0.38550 0.57234
 C1285 C 0.72469 0.37802 0.56687
 C1286 C 0.72473 0.36124 0.59105
 C1287 C 0.74794 0.42057 0.54204
 C1288 C 0.74838 0.43901 0.52374
 C1289 C 0.74806 0.35159 0.63916
 C1290 C 0.74832 0.33576 0.65978
 H1291 H 0.73892 0.44146 0.59607
 H1292 H 0.73902 0.41036 0.64077
 H1293 H 0.79498 0.35600 0.60303
 H1294 H 0.79486 0.38708 0.55816
 H1295 H 0.70968 0.37479 0.54919
 H1296 H 0.70970 0.34364 0.59409
 C1297 C 0.07869 0.10410 0.75973
 C1298 C 0.06814 0.13498 0.75423
 C1299 C 0.08938 0.15512 0.75655
 C1300 C 0.11907 0.14235 0.76414
 C1301 C 0.12481 0.11969 0.74084
 C1302 C 0.10363 0.09961 0.73852
 C1303 C 0.09302 0.10496 0.78959
 C1304 C 0.11423 0.12506 0.79191
 C1305 C 0.05650 0.08177 0.75713
 C1306 C 0.04011 0.06179 0.75487
 C1307 C 0.14212 0.16383 0.76644
 C1308 C 0.16108 0.18149 0.76789
 H1309 H 0.04599 0.14055 0.74903
 H1310 H 0.08541 0.17796 0.75333
 H1311 H 0.14385 0.11943 0.72731
 H1312 H 0.10455 0.08218 0.72298
 H1313 H 0.08697 0.09105 0.80739
 H1314 H 0.12635 0.12835 0.81167
 C1315 C 0.57983 0.60295 0.25900
 C1316 C 0.57274 0.63128 0.24339
 C1317 C 0.59396 0.65145 0.24566
 C1318 C 0.62017 0.64130 0.26333
 C1319 C 0.63003 0.61334 0.24878
 C1320 C 0.60888 0.59323 0.24651
 C1321 C 0.58657 0.61168 0.29020
 C1322 C 0.60777 0.63184 0.29247
 C1323 C 0.55762 0.58060 0.25645
 C1324 C 0.54113 0.56067 0.25424
 C1325 C 0.64320 0.66285 0.26559
 C1326 C 0.66211 0.68058 0.26702
 H1327 H 0.55284 0.63518 0.23167
 H1328 H 0.59219 0.67263 0.23586
 H1329 H 0.65174 0.60964 0.24093
 H1330 H 0.61251 0.57231 0.23670
 H1331 H 0.57560 0.60287 0.30885
 H1332 H 0.61496 0.64026 0.31307
 C1333 C 0.09738 0.93291 0.24788
 C1334 C 0.10595 0.92264 0.27819
 C1335 C 0.12303 0.89871 0.27822
 C1336 C 0.12986 0.88735 0.24795
 C1337 C 0.14302 0.91318 0.23192
 C1338 C 0.12590 0.93717 0.23188
 C1339 C 0.08343 0.90653 0.23361
 C1340 C 0.10048 0.88263 0.23365
 C1341 C 0.07792 0.95789 0.24798
 C1342 C 0.05908 0.97583 0.24836
 C1343 C 0.14824 0.86156 0.24808
 C1344 C 0.16418 0.84100 0.24829
 H1345 H 0.09929 0.93330 0.29789
 H1346 H 0.13094 0.88885 0.29796
 H1347 H 0.16394 0.91266 0.22154
 H1348 H 0.13213 0.95717 0.22153
 H1349 H 0.06197 0.90664 0.22421
 H1350 H 0.09367 0.86231 0.22433
 C1351 C 0.59799 0.43234 0.74803
 C1352 C 0.61451 0.42787 0.71980
 C1353 C 0.63136 0.40374 0.71981
 C1354 C 0.63001 0.38648 0.74806
 C1355 C 0.59800 0.38016 0.75261
 C1356 C 0.58119 0.40422 0.75259
 C1357 C 0.62110 0.43232 0.77173
 C1358 C 0.63795 0.40820 0.77174
 C1359 C 0.57886 0.45755 0.74817
 C1360 C 0.56038 0.47584 0.74860
 C1361 C 0.64819 0.36057 0.74817
 C1362 C 0.66407 0.33997 0.74838
 H1363 H 0.61316 0.44238 0.70147
 H1364 H 0.64444 0.39757 0.70146
 H1365 H 0.58927 0.35869 0.75556
 H1366 H 0.55801 0.40331 0.75556
 H1367 H 0.62403 0.44972 0.78705
 H1368 H 0.65532 0.40493 0.78713
 C1369 C 0.90844 0.07224 0.25000
 C1370 C 0.90689 0.09239 0.27613
 C1371 C 0.88351 0.11019 0.27585
 C1372 C 0.86393 0.10612 0.24947
 C1373 C 0.85614 0.07398 0.24956
 C1374 C 0.87958 0.05614 0.24984
 C1375 C 0.90715 0.09224 0.22365
 C1376 C 0.88377 0.11003 0.22337
 C1377 C 0.93397 0.05355 0.25026
 C1378 C 0.95558 0.03908 0.25034
 C1379 C 0.83914 0.12580 0.24918
 C1380 C 0.81961 0.14299 0.24900
 H1381 H 0.92274 0.09262 0.29338
 H1382 H 0.87934 0.12566 0.29286
 H1383 H 0.83420 0.06597 0.24942
 H1384 H 0.87774 0.03283 0.24995
 H1385 H 0.92318 0.09236 0.20666
 H1386 H 0.87978 0.12539 0.20613
 C1387 C 0.40903 0.57388 0.75113
 C1388 C 0.38013 0.55791 0.75232
 C1389 C 0.35676 0.57583 0.75216
 C1390 C 0.36466 0.60791 0.75082
 C1391 C 0.38374 0.61092 0.72405
 C1392 C 0.40705 0.59304 0.72421
 C1393 C 0.40831 0.59485 0.77664
 C1394 C 0.38500 0.61273 0.77648
 C1395 C 0.43448 0.55511 0.75126
 C1396 C 0.45604 0.54059 0.75121
 C1397 C 0.33995 0.62768 0.75065
 C1398 C 0.32048 0.64491 0.75053
 H1399 H 0.37821 0.53462 0.75321
 H1400 H 0.33479 0.56792 0.75290
 H1401 H 0.37929 0.62576 0.70646
 H1402 H 0.42257 0.59257 0.70676
 H1403 H 0.42466 0.59555 0.79341
 H1404 H 0.38139 0.62874 0.79312
 C1405 C 0.93886 0.91457 0.74123
 C1406 C 0.91785 0.91491 0.76671
 C1407 C 0.89699 0.89446 0.76497
 C1408 C 0.89915 0.87567 0.73791
 C1409 C 0.92988 0.86322 0.73855
 C1410 C 0.95081 0.88373 0.74030
 C1411 C 0.91973 0.91738 0.71432
 C1412 C 0.89886 0.89693 0.71257
 C1413 C 0.96061 0.93722 0.74318
 C1414 C 0.97670 0.95742 0.74494
 C1415 C 0.87646 0.85392 0.73614
 C1416 C 0.85767 0.83615 0.73495
 H1417 H 0.91929 0.92987 0.78461
 H1418 H 0.88054 0.89191 0.78135
 H1419 H 0.93476 0.84035 0.73770
 H1420 H 0.97361 0.87848 0.74094
 H1421 H 0.92240 0.93395 0.69801
 H1422 H 0.88363 0.89597 0.69480
 C1423 C 0.43805 0.41458 0.24086
 C1424 C 0.41771 0.41441 0.26688
 C1425 C 0.39663 0.39417 0.26514
 C1426 C 0.39793 0.37607 0.23756
 C1427 C 0.42857 0.36339 0.23709
 C1428 C 0.44971 0.38368 0.23883
 C1429 C 0.41826 0.41822 0.21453
 C1430 C 0.39717 0.39798 0.21280
 C1431 C 0.46008 0.43700 0.24279
 C1432 C 0.47645 0.45700 0.24452
 C1433 C 0.37503 0.35449 0.23580
 C1434 C 0.35615 0.33680 0.23461
 H1435 H 0.41973 0.42889 0.28511
 H1436 H 0.38059 0.39132 0.28188
 H1437 H 0.43323 0.34051 0.23553
 H1438 H 0.47247 0.37824 0.23876
 H1439 H 0.42064 0.43519 0.19859
 H1440 H 0.38148 0.39761 0.19540
   
