data_POSCAR
  _audit_creation_date              2014-09-24
  _audit_creation_method            'ToBaCCo'
  _symmetry_space_group_name_H-M    'P1'
  _symmetry_Int_Tables_number       1
  _symmetry_cell_setting            triclinic
  loop_
  _symmetry_equiv_pos_as_xyz
 x,y,z
_cell_length_a 35.6140
_cell_length_b 34.7152
_cell_length_c 39.8119
_cell_angle_alpha 88.236300
_cell_angle_beta 88.666100
_cell_angle_gamma 91.105800
loop_
  _atom_site_label
  _atom_site_type_symbol
  _atom_site_fract_x
  _atom_site_fract_y
  _atom_site_fract_z
C1 C 0.44070 0.00632 0.27459
 C2 C 0.41191 0.03875 0.26744
 C3 C 0.39880 0.03849 0.23494
 C4 C 0.41506 0.00591 0.21408
 C5 C 0.41967 -0.03074 0.26628
 C6 C 0.40416 -0.03049 0.23573
 C7 C 0.47075 0.01254 0.24684
 C8 C 0.45797 0.01284 0.21516
 H9 H 0.40303 0.05925 0.28580
 H10 H 0.40510 0.00376 0.18806
 H11 H 0.41016 -0.05102 0.28611
 H12 H 0.49964 0.01935 0.25252
 C13 C 0.06135 0.00623 0.79223
 C14 C 0.08702 -0.02827 0.78593
 C15 C 0.09871 -0.03056 0.75284
 C16 C 0.08439 0.00354 0.72994
 C17 C 0.08477 0.04163 0.78000
 C18 C 0.09654 0.04111 0.74756
 C19 C 0.03150 0.00190 0.76810
 C20 C 0.04347 0.00139 0.73379
 H21 H 0.09186 -0.05073 0.80470
 H22 H 0.09450 0.00280 0.70344
 H23 H 0.08960 0.06633 0.79547
 H24 H 0.00232 -0.00152 0.77599
 C25 C 0.55178 0.48984 0.29295
 C26 C 0.58019 0.45753 0.28702
 C27 C 0.59477 0.45771 0.25467
 C28 C 0.58011 0.49173 0.23204
 C29 C 0.57323 0.52741 0.28334
 C30 C 0.58789 0.52911 0.25168
 C31 C 0.52314 0.48428 0.26527
 C32 C 0.53704 0.48592 0.23345
 H33 H 0.58494 0.43449 0.30527
 H34 H 0.59207 0.49305 0.20608
 H35 H 0.57474 0.55163 0.29983
 H36 H 0.49360 0.47900 0.27096
 C37 C 0.93634 0.50018 0.77189
 C38 C 0.90651 0.53111 0.76372
 C39 C 0.89385 0.52912 0.73120
 C40 C 0.91128 0.49644 0.71137
 C41 C 0.91684 0.46188 0.76460
 C42 C 0.90158 0.46044 0.73393
 C43 C 0.96632 0.50677 0.74402
 C44 C 0.95378 0.50515 0.71239
 H45 H 0.89710 0.55230 0.78125
 H46 H 0.90151 0.49319 0.68539
 H47 H 0.90788 0.44199 0.78490
 H48 H 0.99457 0.51623 0.74950
 C49 C 0.25965 0.36638 0.98889
 C50 C 0.25961 0.33554 1.01711
 C51 C 0.23372 0.30701 1.01431
 C52 C 0.21004 0.31095 0.98293
 C53 C 0.26445 0.34385 0.95584
 C54 C 0.23794 0.31465 0.95275
 C55 C 0.21868 0.37981 0.98800
 C56 C 0.19296 0.35087 0.98486
 H57 H 0.27742 0.33743 1.03876
 H58 H 0.18838 0.28777 0.98164
 H59 H 0.28497 0.35174 0.93624
 H60 H 0.21098 0.40986 0.98773
 C61 C 0.81020 0.15280 1.00865
 C62 C 0.80309 0.18276 0.98079
 C63 C 0.76645 0.19074 0.97639
 C64 C 0.73929 0.16762 1.00099
 C65 C 0.79060 0.16817 1.04020
 C66 C 0.75354 0.17592 1.03655
 C67 C 0.78762 0.11927 0.99996
 C68 C 0.74813 0.12708 0.99632
 H69 H 0.82535 0.19541 0.96471
 H70 H 0.70929 0.17433 0.99729
 H71 H 0.80471 0.17112 1.06383
 H72 H 0.79914 0.09072 0.99888
 C73 C 0.29699 0.65200 0.50347
 C74 C 0.29165 0.68371 0.47657
 C75 C 0.25594 0.69596 0.47384
 C76 C 0.22773 0.67474 0.49861
 C77 C 0.28030 0.66795 0.53609
 C78 C 0.24413 0.67975 0.53392
 C79 C 0.26936 0.61991 0.49423
 C80 C 0.23295 0.63152 0.49188
 H81 H 0.31433 0.69473 0.46013
 H82 H 0.19834 0.68417 0.49591
 H83 H 0.29568 0.66870 0.55923
 H84 H 0.27793 0.59077 0.48953
 C85 C 0.77838 0.85303 0.49051
 C86 C 0.76739 0.82510 0.51974
 C87 C 0.73379 0.80722 0.51691
 C88 C 0.71276 0.81944 0.48567
 C89 C 0.77388 0.82900 0.45831
 C90 C 0.73925 0.81130 0.45588
 C91 C 0.74577 0.88154 0.48925
 C92 C 0.71144 0.86366 0.48659
 H93 H 0.78528 0.81939 0.54092
 H94 H 0.68443 0.80574 0.48465
 H95 H 0.79575 0.82700 0.43915
 H96 H 0.74981 0.91247 0.48647
 C97 C -0.02234 0.27732 0.40216
 C98 C 0.01465 0.29355 0.38658
 C99 C 0.02835 0.27362 0.36022
 C100 C 0.00336 0.23895 0.35169
 C101 C -0.04808 0.27549 0.37476
 C102 C -0.03413 0.25465 0.34679
 C103 C -0.01383 0.23548 0.41133
 C104 C -0.00003 0.21540 0.38520
 H105 H 0.02989 0.31714 0.39751
 H106 H 0.01454 0.22222 0.33052
 H107 H -0.07544 0.28862 0.37544
 H108 H -0.01619 0.22312 0.43655
 C109 C 0.00174 0.78475 0.12990
 C110 C -0.03367 0.76504 0.14385
 C111 C -0.03136 0.72615 0.14631
 C112 C 0.00588 0.71030 0.13413
 C113 C 0.03305 0.77057 0.15227
 C114 C 0.03555 0.73151 0.15396
 C115 C 0.00928 0.76637 0.09594
 C116 C 0.01126 0.72737 0.09849
 H117 H -0.05798 0.78081 0.15222
 H118 H 0.00723 0.67840 0.13610
 H119 H 0.05406 0.78982 0.16224
 H120 H 0.01254 0.78248 0.07229
 C121 C 0.52334 0.29326 0.64023
 C122 C 0.48295 0.27914 0.64598
 C123 C 0.47850 0.24042 0.64340
 C124 C 0.51437 0.21951 0.63451
 C125 C 0.54607 0.26941 0.66506
 C126 C 0.54170 0.23067 0.66153
 C127 C 0.53488 0.27891 0.60548
 C128 C 0.52970 0.24040 0.60264
 H129 H 0.46069 0.29770 0.65434
 H130 H 0.51052 0.18795 0.63216
 H131 H 0.56737 0.28168 0.68067
 H132 H 0.54516 0.29772 0.58494
 C133 C 0.48175 0.77478 0.90733
 C134 C 0.51828 0.78545 0.88720
 C135 C 0.52426 0.76261 0.86065
 C136 C 0.49425 0.73150 0.85647
 C137 C 0.45083 0.77663 0.88109
 C138 C 0.45785 0.75427 0.85414
 C139 C 0.48470 0.73415 0.91638
 C140 C 0.49250 0.71051 0.88861
 H141 H 0.53629 0.81001 0.89221
 H142 H 0.49939 0.71340 0.83440
 H143 H 0.42757 0.79623 0.88230
 H144 H 0.48616 0.72297 0.94194
 C145 C -0.26118 0.66629 0.95926
 C146 C -0.22725 0.64247 0.96998
 C147 C -0.22639 0.63355 1.00327
 C148 C -0.26028 0.64821 1.02308
 C149 C -0.29589 0.64362 0.97257
 C150 C -0.29477 0.63223 1.00505
 C151 C -0.25915 0.70188 0.98138
 C152 C -0.25859 0.69210 1.01522
 H153 H -0.20388 0.63688 0.95299
 H154 H -0.26033 0.64047 1.05029
 H155 H -0.31766 0.63340 0.95623
 H156 H -0.25538 0.73107 0.97139
 C157 C -0.23897 0.31712 0.47068
 C158 C -0.27504 0.34080 0.47740
 C159 C -0.27723 0.35428 0.50979
 C160 C -0.24292 0.34289 0.53122
 C161 C -0.20694 0.34483 0.47886
 C162 C -0.20901 0.35926 0.50986
 C163 C -0.23986 0.28747 0.49696
 C164 C -0.24182 0.30075 0.53023
 H165 H -0.29632 0.34592 0.45893
 H166 H -0.24305 0.35354 0.55714
 H167 H -0.18742 0.35643 0.45964
 H168 H -0.24050 0.25723 0.49117
 C169 C 0.26914 -0.17752 -0.03056
 C170 C 0.23208 -0.15662 -0.02245
 C171 C 0.23062 -0.14309 0.00972
 C172 C 0.26663 -0.15129 0.02983
 C173 C 0.29995 -0.14769 -0.02405
 C174 C 0.29876 -0.13332 0.00704
 C175 C 0.27189 -0.20689 -0.00413
 C176 C 0.27054 -0.19318 0.02917
 H177 H 0.20896 -0.15455 -0.03953
 H178 H 0.26625 -0.13999 0.05559
 H179 H 0.31883 -0.13611 -0.04377
 H180 H 0.27293 -0.23716 -0.00968
 C181 C 0.24546 1.17277 0.45571
 C182 C 0.28046 1.14950 0.46470
 C183 C 0.28310 1.14090 0.49822
 C184 C 0.24937 1.15436 0.51922
 C185 C 0.21180 1.14904 0.47003
 C186 C 0.21450 1.13749 0.50228
 C187 C 0.24739 1.20790 0.47797
 C188 C 0.24961 1.19824 0.51140
 H189 H 0.30337 1.14520 0.44692
 H190 H 0.25044 1.14667 0.54640
 H191 H 0.18808 1.14026 0.45537
 H192 H 0.24955 1.23727 0.46806
 C193 C 0.10956 0.53717 0.24853
 C194 C 0.08700 0.53322 0.21682
 C195 C 0.06945 0.49864 0.21420
 C196 C 0.07656 0.46995 0.24367
 C197 C 0.08205 0.52633 0.27779
 C198 C 0.06453 0.49134 0.27547
 C199 C 0.13701 0.50394 0.24790
 C200 C 0.11998 0.46848 0.24559
 H201 H 0.08345 0.55682 0.19876
 H202 H 0.06268 0.44130 0.24122
 H203 H 0.07784 0.54453 0.29913
 H204 H 0.16629 0.50744 0.25417
 C205 C -0.11396 1.01644 0.26810
 C206 C -0.08902 1.01440 0.29908
 C207 C -0.06127 0.98829 0.29745
 C208 C -0.06146 0.96541 0.26494
 C209 C -0.08570 1.02362 0.23823
 C210 C -0.05783 0.99683 0.23696
 C211 C -0.12808 0.97695 0.26450
 C212 C -0.09935 0.94877 0.26170
 H213 H -0.09121 1.03447 0.31933
 H214 H -0.03917 0.94368 0.26476
 H215 H -0.08713 1.04780 0.22051
 H216 H -0.15736 0.97021 0.26015
 C217 C 0.39095 0.53163 -0.23631
 C218 C 0.41491 0.52622 -0.20500
 C219 C 0.44265 0.50024 -0.20806
 C220 C 0.44403 0.48138 -0.24240
 C221 C 0.41965 0.54175 -0.26504
 C222 C 0.44777 0.51557 -0.26777
 C223 C 0.37658 0.49075 -0.24373
 C224 C 0.40418 0.46447 -0.24736
 H225 H 0.41115 0.54298 -0.18269
 H226 H 0.46637 0.45972 -0.24479
 H227 H 0.41834 0.56745 -0.28103
 H228 H 0.34730 0.48397 -0.24803
 C229 C 0.63428 0.01520 -0.24994
 C230 C 0.61182 0.02797 -0.28026
 C231 C 0.58097 0.00555 -0.28518
 C232 C 0.57521 -0.02815 -0.25882
 C233 C 0.60607 0.01367 -0.22001
 C234 C 0.57525 -0.00932 -0.22424
 C235 C 0.64335 -0.02687 -0.25611
 C236 C 0.61261 -0.05001 -0.25971
 H237 H 0.61937 0.05285 -0.29628
 H238 H 0.55029 -0.04680 -0.26330
 H239 H 0.61165 0.02738 -0.19650
 H240 H 0.67097 -0.03846 -0.25189
 C241 C 0.03316 0.27443 0.84279
 C242 C 0.02153 0.30049 0.87161
 C243 C 0.00090 0.28124 0.89652
 C244 C -0.00597 0.23865 0.88998
 C245 C 0.05399 0.24162 0.86008
 C246 C 0.03356 0.22327 0.88476
 C247 C -0.00105 0.25699 0.83114
 C248 C -0.02393 0.23949 0.85759
 H249 H 0.02757 0.33119 0.87151
 H250 H -0.02198 0.22215 0.91003
 H251 H 0.08351 0.23600 0.85583
 H252 H -0.01205 0.26471 0.80671
 C253 C 0.51584 0.21886 0.15665
 C254 C 0.53855 0.21420 0.12406
 C255 C 0.52026 0.22512 0.09611
 C256 C 0.48055 0.23913 0.10307
 C257 C 0.50363 0.26084 0.15628
 C258 C 0.48496 0.27103 0.12823
 C259 C 0.47931 0.19563 0.15210
 C260 C 0.46064 0.20673 0.12398
 H261 H 0.56491 0.19911 0.12300
 H262 H 0.46517 0.24782 0.08017
 H263 H 0.50800 0.28011 0.17680
 H264 H 0.46542 0.17889 0.17232
 C265 C 0.01323 0.72002 0.65481
 C266 C 0.03319 0.71342 0.62112
 C267 C 0.01379 0.72573 0.59415
 C268 C -0.02401 0.74316 0.60320
 C269 C 0.00442 0.76283 0.65483
 C270 C -0.01521 0.77453 0.62790
 C271 C -0.02531 0.69987 0.65251
 C272 C -0.04476 0.71239 0.62530
 H273 H 0.05813 0.69618 0.61879
 H274 H -0.04029 0.75336 0.58127
 H275 H 0.01177 0.78178 0.67490
 H276 H -0.03855 0.68290 0.67291
 C277 C 0.53299 0.78019 0.35447
 C278 C 0.53789 0.79856 0.38853
 C279 C 0.51250 0.78522 0.41246
 C280 C 0.48538 0.75433 0.40031
 C281 C 0.53515 0.73673 0.36146
 C282 C 0.51016 0.72361 0.38534
 C283 C 0.49222 0.78675 0.34552
 C284 C 0.46753 0.77361 0.36980
 H285 H 0.55565 0.82381 0.39177
 H286 H 0.46467 0.74271 0.41950
 H287 H 0.55254 0.71755 0.34715
 H288 H 0.48370 0.80120 0.32249
 Zr289 Zr 0.05664 -0.01619 1.06698
 O290 O 0.10379 -0.00441 1.09668
 O291 O 0.03639 -0.06680 1.09006
 O292 O 0.03960 -0.00862 1.11740
 O293 O 0.10947 -0.05306 1.00054
 O294 O -0.00960 0.03250 1.11449
 O295 O 0.10077 -0.05456 1.05762
 O296 O -0.01693 -0.08027 1.06147
 O297 O -0.00170 -0.01119 1.06577
 O298 O 0.03911 -0.04503 1.02448
 O299 O 0.04637 0.04299 1.06716
 O300 O 0.08682 0.01013 1.02625
 Zr301 Zr -0.00217 0.04858 0.98045
 Zr302 Zr -0.01208 0.04772 1.06315
 Zr303 Zr 0.06620 -0.01662 0.98334
 Zr304 Zr -0.01860 -0.03793 1.02248
 O305 O 0.11798 0.00062 0.95983
 O306 O -0.07218 -0.04201 1.04688
 O307 O 0.00760 -0.01130 0.97983
 O308 O -0.03162 0.02055 1.02057
 O309 O 0.01545 0.07728 1.02284
 O310 O 0.05619 0.04245 0.98152
 C311 C 0.00617 -0.08608 1.08534
 C312 C 0.11806 -0.06463 1.03046
 C313 C 0.01230 0.01004 1.13067
 O314 O -0.06628 0.03266 1.08295
 O315 O -0.05206 0.08749 1.04647
 O316 O -0.04722 0.08639 0.98930
 C317 C -0.06244 0.09779 1.01688
 O318 O 0.11923 0.06622 1.05832
 Zr319 Zr 0.07347 0.06866 1.02504
 O320 O 0.01771 0.10234 0.96117
 O321 O -0.00219 0.09913 1.08899
 O322 O 0.06930 0.11868 1.05405
 O323 O 0.12503 0.07636 0.99767
 O324 O 0.06977 0.11549 0.99154
 C325 C 0.04659 0.12308 0.96833
 O326 O -0.04947 0.03943 0.95010
 O327 O 0.05781 -0.07064 0.96125
 O328 O 0.01180 0.03768 0.93049
 O329 O 0.05732 -0.00766 0.93093
 O330 O -0.01397 -0.09143 0.99856
 O331 O -0.05937 -0.04070 0.98444
 C332 C 0.03470 0.01522 0.91565
 H333 H 0.04499 -0.07279 1.02555
 H334 H -0.05910 0.02295 1.01830
 H335 H 0.06958 0.05423 0.96159
 H336 H 0.05555 0.05475 1.08786
 H337 H -0.08124 -0.06908 1.04552
 H338 H -0.07333 0.05272 1.09900
 H339 H -0.02488 0.10313 1.10323
 H340 H 0.08922 0.13715 1.04576
 H341 H -0.03399 -0.10879 1.00843
 H342 H 0.08021 -0.07479 0.94668
 H343 H 0.12487 -0.02004 0.94433
 H344 H 0.13483 0.10268 1.00180
 H345 H -0.07577 -0.06379 0.98861
 H346 H -0.05082 0.06163 0.93385
 H347 H 0.10580 -0.02629 1.11312
 H348 H 0.13186 0.09185 1.05871
 Zr349 Zr 0.55487 0.49452 0.56119
 O350 O 0.60322 0.52188 0.58004
 O351 O 0.54826 0.44767 0.59439
 O352 O 0.54274 0.51032 0.61124
 O353 O 0.60132 0.44594 0.49671
 O354 O 0.48661 0.54081 0.60810
 O355 O 0.60226 0.45977 0.55243
 O356 O 0.49462 0.41847 0.57641
 O357 O 0.49652 0.48989 0.56773
 O358 O 0.53599 0.45332 0.52785
 O359 O 0.53480 0.55031 0.55254
 O360 O 0.57410 0.51483 0.51333
 Zr361 Zr 0.47324 0.52471 0.47589
 Zr362 Zr 0.47611 0.54458 0.55659
 Zr363 Zr 0.55253 0.47438 0.48000
 Zr364 Zr 0.47792 0.45042 0.53345
 O365 O 0.60002 0.49307 0.45053
 O366 O 0.43089 0.44579 0.56707
 O367 O 0.49347 0.46853 0.48407
 O368 O 0.45460 0.50440 0.52352
 O369 O 0.49183 0.56638 0.50881
 O370 O 0.53182 0.52920 0.46962
 C371 C 0.52230 0.42170 0.59650
 C372 C 0.61549 0.44299 0.52618
 C373 C 0.51362 0.52608 0.62458
 O374 O 0.42590 0.52843 0.58336
 O375 O 0.43193 0.57777 0.53836
 O376 O 0.42703 0.56200 0.48338
 C377 C 0.41684 0.58095 0.50944
 O378 O 0.60082 0.58418 0.52743
 Zr379 Zr 0.55011 0.56903 0.50356
 O380 O 0.47963 0.57209 0.44312
 O381 O 0.48271 0.60111 0.57433
 O382 O 0.54126 0.62364 0.52445
 O383 O 0.59414 0.57892 0.46735
 O384 O 0.52935 0.60502 0.46456
 C385 C 0.50274 0.60075 0.44348
 O386 O 0.42334 0.49902 0.45832
 O387 O 0.54757 0.41621 0.46617
 O388 O 0.48258 0.50400 0.42754
 O389 O 0.53862 0.47305 0.42855
 O390 O 0.48615 0.39297 0.51863
 O391 O 0.43213 0.43140 0.50452
 C392 C 0.51036 0.48723 0.41314
 H393 H 0.54592 0.42728 0.53231
 H394 H 0.42681 0.50273 0.52483
 H395 H 0.54049 0.53834 0.44693
 H396 H 0.54484 0.56823 0.56916
 H397 H 0.42655 0.41801 0.57260
 H398 H 0.41849 0.55083 0.59668
 H399 H 0.46106 0.60543 0.58975
 H400 H 0.55442 0.64311 0.50948
 H401 H 0.47062 0.37593 0.53406
 H402 H 0.56866 0.41174 0.45018
 H403 H 0.60778 0.47089 0.43709
 H404 H 0.59751 0.60721 0.46412
 H405 H 0.41876 0.40970 0.51664
 H406 H 0.41529 0.51525 0.43895
 H407 H 0.61158 0.50536 0.59909
 H408 H 0.60824 0.61104 0.52081
 Zr409 Zr 0.48349 1.05671 0.54118
 O410 O 0.44562 1.05481 0.58315
 O411 O 0.50415 1.11339 0.54641
 O412 O 0.50706 1.05295 0.58962
 O413 O 0.41252 1.07336 0.48303
 O414 O 0.55659 1.01256 0.58455
 O415 O 0.43259 1.08638 0.53562
 O416 O 0.54603 1.12426 0.50280
 O417 O 0.54089 1.05446 0.52875
 O418 O 0.48858 1.07699 0.49120
 O419 O 0.49756 0.99849 0.54840
 O420 O 0.44761 1.02137 0.51318
 Zr421 Zr 0.52645 0.97987 0.45650
 Zr422 Zr 0.55466 0.99588 0.53388
 Zr423 Zr 0.45577 1.04015 0.46262
 Zr424 Zr 0.54522 1.07234 0.47793
 O425 O 0.40296 1.01467 0.45236
 O426 O 0.60138 1.08406 0.49172
 O427 O 0.51245 1.03767 0.44745
 O428 O 0.56207 1.01539 0.48376
 O429 O 0.52117 0.95907 0.50609
 O430 O 0.46932 0.98205 0.46845
 C431 C 0.52814 1.13452 0.52911
 C432 C 0.40844 1.08831 0.51200
 C433 C 0.53426 1.03337 0.60196
 O434 O 0.60862 1.02021 0.54110
 O435 O 0.59491 0.95702 0.51413
 O436 O 0.57302 0.94524 0.46200
 C437 C 0.59667 0.94046 0.48546
 O438 O 0.42439 0.97276 0.55825
 Zr439 Zr 0.46423 0.96412 0.51874
 O440 O 0.51030 0.92184 0.45293
 O441 O 0.55675 0.94660 0.56634
 O442 O 0.47335 0.92246 0.55767
 O443 O 0.41090 0.94730 0.50090
 O444 O 0.47147 0.90979 0.49853
 C445 C 0.49057 0.89927 0.47287
 O446 O 0.56585 0.98616 0.41582
 O447 O 0.45200 1.09101 0.43228
 O448 O 0.50176 0.98037 0.40944
 O449 O 0.45683 1.02612 0.41092
 O450 O 0.53171 1.11743 0.44338
 O451 O 0.57870 1.06822 0.43332
 C452 C 0.47692 1.00144 0.39540
 H453 H 0.48003 1.10383 0.48826
 H454 H 0.58855 1.01385 0.47591
 H455 H 0.45401 0.96553 0.45398
 H456 H 0.49277 0.98900 0.57181
 H457 H 0.60846 1.11020 0.48273
 H458 H 0.62118 1.00272 0.55725
 H459 H 0.58214 0.94658 0.57603
 H460 H 0.45267 0.90298 0.55721
 H461 H 0.55251 1.13684 0.44315
 H462 H 0.42692 1.09030 0.42204
 H463 H 0.39116 1.03172 0.43539
 H464 H 0.40507 0.92114 0.51051
 H465 H 0.59533 1.09133 0.43051
 H466 H 0.56602 0.96161 0.40365
 H467 H 0.44653 1.08043 0.59366
 H468 H 0.40876 0.94908 0.56211
 Zr469 Zr -0.03243 0.53680 1.04314
 O470 O -0.07141 0.53481 1.08435
 O471 O -0.00984 0.59257 1.05062
 O472 O -0.01100 0.52844 1.09205
 O473 O -0.10066 0.56055 0.98483
 O474 O 0.03766 0.48737 1.08566
 O475 O -0.08126 0.56924 1.03837
 O476 O 0.03372 0.60293 1.00825
 O477 O 0.02500 0.53198 1.03224
 O478 O -0.02447 0.55953 0.99409
 O479 O -0.02236 0.47741 1.04800
 O480 O -0.06904 0.50532 1.01245
 Zr481 Zr 0.00948 0.46287 0.95620
 Zr482 Zr 0.03479 0.47246 1.03500
 Zr483 Zr -0.05826 0.52684 0.96298
 Zr484 Zr 0.03228 0.55215 0.98222
 O485 O -0.11161 0.50526 0.94946
 O486 O 0.08781 0.55993 0.99929
 O487 O -0.00128 0.52175 0.94936
 O488 O 0.04587 0.49408 0.98609
 O489 O 0.00083 0.43925 1.00453
 O490 O -0.04790 0.46791 0.96634
 C491 C 0.01489 0.61348 1.03389
 C492 C -0.10475 0.57366 1.01462
 C493 C 0.01569 0.50766 1.10362
 O494 O 0.09032 0.49169 1.04374
 O495 O 0.07205 0.43154 1.01550
 O496 O 0.05090 0.42145 0.96278
 C497 C 0.07289 0.41448 0.98722
 O498 O -0.09686 0.45408 1.05447
 Zr499 Zr -0.05606 0.44675 1.01549
 O500 O -0.01217 0.40868 0.94651
 O501 O 0.03231 0.42236 1.06671
 O502 O -0.04967 0.40191 1.05221
 O503 O -0.10965 0.43489 0.99564
 O504 O -0.05118 0.39382 0.99144
 C505 C -0.03302 0.38535 0.96452
 O506 O 0.05266 0.46864 0.91873
 O507 O -0.05878 0.57988 0.93535
 O508 O -0.01146 0.46930 0.90808
 O509 O -0.05508 0.51637 0.91037
 O510 O 0.02350 0.59943 0.94847
 O511 O 0.06768 0.54813 0.93879
 C512 C -0.03445 0.49257 0.89419
 H513 H -0.03165 0.58688 0.99192
 H514 H 0.07246 0.49083 0.97911
 H515 H -0.06360 0.45377 0.95041
 H516 H -0.02830 0.46695 1.07094
 H517 H 0.09669 0.58604 0.99164
 H518 H 0.10111 0.47269 1.05971
 H519 H 0.05745 0.41968 1.07660
 H520 H -0.07067 0.38312 1.04974
 H521 H 0.04553 0.61723 0.94947
 H522 H -0.08355 0.58121 0.92460
 H523 H -0.12178 0.52428 0.93318
 H524 H -0.11700 0.40830 1.00323
 H525 H 0.08656 0.56946 0.93820
 H526 H 0.05204 0.44501 0.90532
 H527 H -0.06933 0.55957 1.09617
 H528 H -0.11291 0.43053 1.05707
 Zr529 Zr -0.04017 0.47690 0.45484
 O530 O -0.08222 0.49322 0.42090
 O531 O -0.04036 0.41725 0.44983
 O532 O -0.02214 0.46687 0.40409
 O533 O -0.09974 0.48225 0.52477
 O534 O 0.03659 0.49462 0.40032
 O535 O -0.09389 0.45544 0.47332
 O536 O 0.00108 0.39671 0.48922
 O537 O 0.01696 0.46381 0.45843
 O538 O -0.03172 0.45896 0.50474
 O539 O -0.01034 0.52836 0.44149
 O540 O -0.05807 0.52278 0.48480
 Zr541 Zr 0.04014 0.54325 0.52706
 Zr542 Zr 0.04643 0.51585 0.44782
 Zr543 Zr -0.04647 0.50490 0.53420
 Zr544 Zr 0.02489 0.44741 0.50860
 O545 O -0.08752 0.54481 0.54879
 O546 O 0.06961 0.41916 0.48413
 O547 O 0.01026 0.49178 0.54074
 O548 O 0.05709 0.49741 0.49711
 O549 O 0.03217 0.56226 0.47735
 O550 O -0.01686 0.55619 0.52334
 C551 C -0.02345 0.39094 0.46656
 C552 C -0.11195 0.46115 0.50139
 C553 C 0.00866 0.47687 0.38769
 O554 O 0.09059 0.47863 0.43519
 O555 O 0.09814 0.54357 0.45618
 O556 O 0.09398 0.56473 0.50978
 C557 C 0.11174 0.56089 0.48142
 O558 O -0.07074 0.57757 0.44001
 Zr559 Zr -0.02513 0.57262 0.47327
 O560 O 0.03872 0.60326 0.53194
 O561 O 0.05581 0.55993 0.41046
 O562 O -0.00686 0.60731 0.43098
 O563 O -0.06873 0.60344 0.49692
 O564 O -0.00019 0.62341 0.49041
 C565 C 0.02228 0.62953 0.51451
 O566 O 0.08430 0.52997 0.55994
 O567 O -0.05977 0.45978 0.56986
 O568 O 0.02481 0.54536 0.57911
 O569 O -0.03451 0.51938 0.58324
 O570 O 0.00616 0.41154 0.54998
 O571 O 0.06757 0.44062 0.54464
 C572 C -0.00492 0.53352 0.59609
 H573 H -0.04674 0.43589 0.51225
 H574 H 0.08400 0.49184 0.50002
 H575 H -0.02477 0.57620 0.53908
 H576 H -0.01547 0.53684 0.41811
 H577 H 0.06865 0.39183 0.49210
 H578 H 0.10415 0.49055 0.41535
 H579 H 0.07836 0.55289 0.39711
 H580 H -0.01835 0.63294 0.43301
 H581 H 0.01705 0.38575 0.54708
 H582 H -0.08246 0.46733 0.58279
 H583 H -0.10116 0.53321 0.56872
 H584 H -0.06744 0.63025 0.48761
 H585 H 0.07614 0.41365 0.54490
 H586 H 0.09213 0.55434 0.57043
 H587 H -0.09195 0.46908 0.41130
 H588 H -0.07621 0.60514 0.43580
 Zr589 Zr 0.47485 -0.02216 -0.04243
 O590 O 0.43344 -0.00611 -0.07714
 O591 O 0.47526 -0.08199 -0.04763
 O592 O 0.49323 -0.03061 -0.09307
 O593 O 0.41321 -0.01585 0.02583
 O594 O 0.55265 -0.00430 -0.09613
 O595 O 0.42025 -0.04287 -0.02539
 O596 O 0.51509 -0.10248 -0.00691
 O597 O 0.53176 -0.03582 -0.03747
 O598 O 0.48154 -0.03998 0.00771
 O599 O 0.50575 0.02890 -0.05528
 O600 O 0.45649 0.02413 -0.01326
 Zr601 Zr 0.55329 0.04386 0.03148
 Zr602 Zr 0.56227 0.01579 -0.04775
 Zr603 Zr 0.46627 0.00636 0.03651
 Zr604 Zr 0.53793 -0.05187 0.01309
 O605 O 0.42502 0.04671 0.04964
 O606 O 0.58362 -0.08043 -0.00956
 O607 O 0.52259 -0.00722 0.04471
 O608 O 0.57080 -0.00235 0.00212
 O609 O 0.54739 0.06254 -0.01867
 O610 O 0.49667 0.05734 0.02610
 C611 C 0.49155 -0.10833 -0.03032
 C612 C 0.40130 -0.03664 0.00212
 C613 C 0.52410 -0.02071 -0.10928
 O614 O 0.60526 -0.02293 -0.06006
 O615 O 0.61504 0.04097 -0.03720
 O616 O 0.60821 0.06366 0.01581
 C617 C 0.62767 0.05817 -0.01140
 O618 O 0.44563 0.07824 -0.05852
 Zr619 Zr 0.49035 0.07347 -0.02427
 O620 O 0.55260 0.10405 0.03551
 O621 O 0.57422 0.06048 -0.08397
 O622 O 0.50967 0.10774 -0.06648
 O623 O 0.44669 0.10527 -0.00174
 O624 O 0.51555 0.12413 -0.00739
 C625 C 0.53711 0.13030 0.01731
 O626 O 0.59569 0.03050 0.06616
 O627 O 0.45178 -0.03850 0.07208
 O628 O 0.53562 0.04726 0.08308
 O629 O 0.47619 0.02145 0.08574
 O630 O 0.51741 -0.08788 0.05374
 O631 O 0.57872 -0.05835 0.05090
 C632 C 0.50511 0.03602 0.09931
 H633 H 0.46612 -0.06294 0.01478
 H634 H 0.59741 -0.00850 0.00599
 H635 H 0.48849 0.07764 0.04145
 H636 H 0.50126 0.03770 -0.07869
 H637 H 0.58235 -0.10767 -0.00133
 H638 H 0.61975 -0.01104 -0.07939
 H639 H 0.59681 0.05282 -0.09695
 H640 H 0.49802 0.13335 -0.06498
 H641 H 0.52882 -0.11352 0.05143
 H642 H 0.42861 -0.03088 0.08426
 H643 H 0.41046 0.03531 0.06914
 H644 H 0.44848 0.13191 -0.01140
 H645 H 0.58765 -0.08520 0.05142
 H646 H 0.60336 0.05497 0.07657
 H647 H 0.42397 -0.03026 -0.08693
 H648 H 0.44011 0.10578 -0.06284
 Zr649 Zr 0.53425 0.50968 -0.02966
 O650 O 0.58005 0.48295 -0.05366
 O651 O 0.53455 0.56254 -0.05619
 O652 O 0.52365 0.50122 -0.08119
 O653 O 0.58479 0.52894 0.04169
 O654 O 0.46169 0.48268 -0.08099
 O655 O 0.58698 0.53466 -0.01554
 O656 O 0.48627 0.59442 -0.03145
 O657 O 0.47746 0.52380 -0.03349
 O658 O 0.52120 0.54477 0.01060
 O659 O 0.50359 0.45699 -0.02889
 O660 O 0.54613 0.47607 0.01366
 Zr661 Zr 0.44335 0.47393 0.05332
 Zr662 Zr 0.44676 0.47185 -0.03030
 Zr663 Zr 0.53019 0.51078 0.05374
 Zr664 Zr 0.46457 0.55729 0.00754
 O665 O 0.57053 0.47911 0.08082
 O666 O 0.41937 0.57620 -0.02214
 O667 O 0.47368 0.52676 0.05306
 O668 O 0.43162 0.50669 0.00971
 O669 O 0.45511 0.43789 0.01314
 O670 O 0.49986 0.45909 0.05654
 C671 C 0.51236 0.59107 -0.05403
 C672 C 0.60147 0.53841 0.01384
 C673 C 0.49291 0.49233 -0.09601
 O674 O 0.40306 0.50209 -0.05397
 O675 O 0.39448 0.44518 -0.01760
 O676 O 0.39030 0.45097 0.03938
 C677 C 0.37671 0.44141 0.01080
 O678 O 0.55590 0.40015 -0.01204
 Zr679 Zr 0.51198 0.42565 0.01575
 O680 O 0.43849 0.42002 0.07728
 O681 O 0.44292 0.41933 -0.05573
 O682 O 0.49363 0.37838 -0.01241
 O683 O 0.55492 0.40469 0.04696
 O684 O 0.48462 0.38685 0.05064
 C685 C 0.45818 0.39006 0.07297
 O686 O 0.39930 0.50266 0.07803
 O687 O 0.53728 0.56552 0.07496
 O688 O 0.45574 0.47982 0.10503
 O689 O 0.51486 0.50655 0.10481
 O690 O 0.48401 0.60779 0.03088
 O691 O 0.42213 0.57662 0.04107
 C692 C 0.48549 0.49209 0.11992
 H693 H 0.53621 0.56908 0.01017
 H694 H 0.40473 0.51335 0.00926
 H695 H 0.50625 0.44460 0.07734
 H696 H 0.51090 0.44109 -0.04811
 H697 H 0.41991 0.60476 -0.02254
 H698 H 0.39247 0.48488 -0.07092
 H699 H 0.42238 0.42210 -0.07194
 H700 H 0.50241 0.35463 -0.00082
 H701 H 0.47278 0.63007 0.01896
 H702 H 0.55819 0.56334 0.09087
 H703 H 0.58198 0.49663 0.09713
 H704 H 0.55251 0.37617 0.04769
 H705 H 0.41500 0.60311 0.03427
 H706 H 0.38730 0.48359 0.09416
 H707 H 0.59143 0.50232 -0.06988
 H708 H 0.57592 0.42017 -0.01529
 Zr709 Zr 0.04137 1.01528 0.47097
 O710 O 0.08664 0.98777 0.44694
 O711 O 0.04256 1.06758 0.44396
 O712 O 0.02933 1.00551 0.41949
 O713 O 0.09194 1.03768 0.54195
 O714 O -0.03264 0.98708 0.42136
 O715 O 0.09438 1.04046 0.48459
 O716 O -0.00725 1.09881 0.46694
 O717 O -0.01558 1.02904 0.46723
 O718 O 0.02811 1.05131 0.51063
 O719 O 0.01102 0.96251 0.47326
 O720 O 0.05399 0.98332 0.51508
 Zr721 Zr -0.04876 0.98054 0.55546
 Zr722 Zr -0.04596 0.97717 0.47210
 Zr723 Zr 0.03769 1.01883 0.55453
 Zr724 Zr -0.02867 1.06328 0.50757
 O725 O 0.07885 0.98852 0.58177
 O726 O -0.07457 1.08037 0.47796
 O727 O -0.01907 1.03391 0.55368
 O728 O -0.06157 1.01235 0.51156
 O729 O -0.03615 0.94441 0.51577
 O730 O 0.00808 0.96682 0.55873
 C731 C 0.01972 1.09558 0.44501
 C732 C 0.10879 1.04569 0.51387
 C733 C -0.00191 0.99604 0.40548
 O734 O -0.09064 1.00659 0.44912
 O735 O -0.09713 0.94914 0.48515
 O736 O -0.09728 0.94705 0.54253
 C737 C -0.11062 0.93731 0.51382
 O738 O 0.06492 0.90734 0.49106
 Zr739 Zr 0.02055 0.93256 0.51849
 O740 O -0.05107 0.92838 0.58206
 O741 O -0.04953 0.92425 0.44717
 O742 O 0.00292 0.88428 0.49123
 O743 O 0.06337 0.91269 0.55033
 O744 O -0.00710 0.89411 0.55363
 C745 C -0.03258 0.89789 0.57678
 O746 O -0.09567 1.00783 0.57694
 O747 O 0.04386 1.07423 0.57468
 O748 O -0.03698 0.99017 0.60696
 O749 O 0.02284 1.01527 0.60580
 O750 O -0.00939 1.11493 0.52914
 O751 O -0.07053 1.08422 0.54088
 C752 C -0.00697 1.00261 0.62145
 H753 H 0.04298 1.07573 0.50960
 H754 H -0.08872 1.01800 0.51135
 H755 H 0.01477 0.95314 0.57985
 H756 H 0.01816 0.94616 0.45429
 H757 H -0.07376 1.10891 0.47599
 H758 H -0.10142 0.98914 0.43245
 H759 H -0.07028 0.92645 0.43109
 H760 H 0.01234 0.86098 0.50309
 H761 H -0.02042 1.13663 0.51625
 H762 H 0.06480 1.07282 0.59060
 H763 H 0.09003 1.00654 0.59782
 H764 H 0.06128 0.88416 0.55133
 H765 H -0.07827 1.11011 0.53291
 H766 H -0.10693 0.98898 0.59365
 H767 H 0.09780 1.00680 0.43031
 H768 H 0.08516 0.92722 0.48849
 Zr769 Zr 0.70106 0.26122 0.21145
 O770 O 0.70588 0.30018 0.16946
 O771 O 0.64468 0.24204 0.20801
 O772 O 0.69827 0.23459 0.16430
 O773 O 0.68598 0.33350 0.27004
 O774 O 0.74030 0.18578 0.16766
 O775 O 0.67186 0.31349 0.21769
 O776 O 0.63584 0.19782 0.25119
 O777 O 0.70249 0.20231 0.22443
 O778 O 0.68321 0.25637 0.26175
 O779 O 0.75720 0.24488 0.20297
 O780 O 0.73859 0.29663 0.23777
 Zr781 Zr 0.77847 0.21328 0.29505
 Zr782 Zr 0.75879 0.18634 0.21775
 Zr783 Zr 0.72133 0.28917 0.28844
 Zr784 Zr 0.68685 0.19821 0.27553
 O785 O 0.74785 0.34343 0.29478
 O786 O 0.67306 0.14068 0.26323
 O787 O 0.72293 0.23082 0.30464
 O788 O 0.74126 0.17888 0.26829
 O789 O 0.79755 0.21820 0.24500
 O790 O 0.77727 0.27218 0.28212
 C791 C 0.62474 0.21689 0.22548
 C792 C 0.66960 0.33784 0.24163
 C793 C 0.71699 0.20690 0.15147
 O794 O 0.73283 0.13203 0.21054
 O795 O 0.79488 0.14242 0.23570
 O796 O 0.80717 0.16064 0.28906
 C797 C 0.80948 0.13677 0.26478
 O798 O 0.78829 0.31848 0.19216
 Zr799 Zr 0.79397 0.27678 0.23186
 O800 O 0.83521 0.22890 0.29920
 O801 O 0.80569 0.18340 0.18440
 O802 O 0.83216 0.26320 0.19247
 O803 O 0.81328 0.33109 0.24825
 O804 O 0.84734 0.26762 0.25272
 C805 C 0.85739 0.24889 0.27933
 O806 O 0.77295 0.17417 0.33687
 O807 O 0.67460 0.29339 0.32188
 O808 O 0.77949 0.24002 0.34176
 O809 O 0.73866 0.28993 0.33868
 O810 O 0.64421 0.21349 0.31045
 O811 O 0.69193 0.16473 0.32075
 C812 C 0.76210 0.26867 0.35437
 H813 H 0.65738 0.26565 0.26551
 H814 H 0.74139 0.15151 0.27598
 H815 H 0.79432 0.28774 0.29586
 H816 H 0.76505 0.24947 0.17916
 H817 H 0.64802 0.13413 0.27347
 H818 H 0.74833 0.11911 0.19340
 H819 H 0.80425 0.15782 0.17405
 H820 H 0.85361 0.28177 0.19301
 H821 H 0.62484 0.19256 0.31123
 H822 H 0.67587 0.31949 0.33128
 H823 H 0.73305 0.35645 0.31233
 H824 H 0.83899 0.33551 0.23867
 H825 H 0.66912 0.14828 0.32454
 H826 H 0.79762 0.17349 0.34799
 H827 H 0.68094 0.30119 0.15885
 H828 H 0.81303 0.33087 0.18665
 Zr829 Zr 0.74783 0.68909 0.68261
 O830 O 0.72392 0.64441 0.65454
 O831 O 0.79730 0.69967 0.65491
 O832 O 0.73332 0.70894 0.63422
 O833 O 0.78470 0.62676 0.74317
 O834 O 0.70909 0.76824 0.64347
 O835 O 0.77929 0.63810 0.68676
 O836 O 0.82891 0.74334 0.68612
 O837 O 0.75666 0.74887 0.68525
 O838 O 0.78442 0.69840 0.72198
 O839 O 0.69411 0.71166 0.69021
 O840 O 0.72147 0.66161 0.72490
 Zr841 Zr 0.71299 0.75450 0.77901
 Zr842 Zr 0.70378 0.77105 0.69603
 Zr843 Zr 0.75761 0.67367 0.76435
 Zr844 Zr 0.79129 0.75727 0.72597
 O845 O 0.73178 0.62247 0.78460
 O846 O 0.80160 0.80938 0.69784
 O847 O 0.76724 0.73274 0.77089
 O848 O 0.73919 0.78182 0.73622
 O849 O 0.67694 0.74690 0.73879
 O850 O 0.70438 0.69505 0.77498
 C851 C 0.82611 0.72058 0.66120
 C852 C 0.79191 0.61916 0.71242
 C853 C 0.71971 0.74126 0.62422
 O854 O 0.72621 0.82446 0.67704
 O855 O 0.67513 0.81647 0.71859
 O856 O 0.68067 0.80485 0.77513
 C857 C 0.66833 0.82410 0.74956
 O858 O 0.65507 0.63522 0.71218
 Zr859 Zr 0.66949 0.68785 0.73452
 O860 O 0.66084 0.74608 0.80368
 O861 O 0.64936 0.77400 0.67600
 O862 O 0.62162 0.69495 0.70443
 O863 O 0.64807 0.64440 0.76872
 O864 O 0.62846 0.71704 0.76264
 C865 C 0.63023 0.73601 0.78984
 O866 O 0.73899 0.79759 0.80738
 O867 O 0.81237 0.66669 0.78310
 O868 O 0.72345 0.73166 0.82818
 O869 O 0.75957 0.68016 0.81601
 O870 O 0.84281 0.74185 0.74789
 O871 O 0.80900 0.79915 0.76040
 C872 C 0.74178 0.70124 0.83664
 H873 H 0.80964 0.68742 0.71898
 H874 H 0.74257 0.80984 0.73942
 H875 H 0.69260 0.68280 0.79546
 H876 H 0.67780 0.70644 0.67102
 H877 H 0.82917 0.81233 0.69448
 H878 H 0.70655 0.83638 0.66315
 H879 H 0.64854 0.79851 0.66264
 H880 H 0.60067 0.68029 0.71600
 H881 H 0.86307 0.75736 0.73615
 H882 H 0.81235 0.64223 0.79668
 H883 H 0.75144 0.60855 0.79698
 H884 H 0.62032 0.64561 0.76811
 H885 H 0.83246 0.81204 0.75170
 H886 H 0.72087 0.80370 0.82564
 H887 H 0.74195 0.63918 0.63593
 H888 H 0.66181 0.63857 0.68801
 Zr889 Zr 0.20262 0.23257 0.76837
 O890 O 0.19141 0.18891 0.80579
 O891 O 0.15112 0.25929 0.77644
 O892 O 0.20778 0.24804 0.81974
 O893 O 0.17721 0.18052 0.69814
 O894 O 0.25414 0.29431 0.82068
 O895 O 0.16970 0.18239 0.75499
 O896 O 0.15175 0.31463 0.74393
 O897 O 0.21564 0.29188 0.76504
 O898 O 0.18659 0.25232 0.72067
 O899 O 0.26077 0.23776 0.77653
 O900 O 0.23267 0.19935 0.73394
 Zr901 Zr 0.29036 0.28502 0.68896
 Zr902 Zr 0.27403 0.29704 0.77056
 Zr903 Zr 0.21871 0.22202 0.68637
 Zr904 Zr 0.20209 0.31067 0.71638
 O905 O 0.23272 0.16745 0.66776
 O906 O 0.20079 0.36517 0.73905
 O907 O 0.23219 0.28081 0.67996
 O908 O 0.25980 0.31834 0.72287
 O909 O 0.30647 0.26563 0.73674
 O910 O 0.27628 0.22625 0.69245
 C911 C 0.13689 0.29114 0.76598
 C912 C 0.16320 0.16722 0.72613
 C913 C 0.22884 0.27244 0.83518
 O914 O 0.25985 0.35274 0.78625
 O915 O 0.31837 0.33661 0.75801
 O916 O 0.33272 0.32478 0.70319
 C917 C 0.33791 0.34271 0.73071
 O918 O 0.27674 0.16216 0.77642
 Zr919 Zr 0.29025 0.20728 0.74059
 O920 O 0.34121 0.25785 0.67845
 O921 O 0.31912 0.28444 0.80251
 O922 O 0.33387 0.20902 0.77590
 O923 O 0.29343 0.15278 0.71813
 O924 O 0.34070 0.20431 0.71331
 C925 C 0.35532 0.22647 0.69010
 O926 O 0.29557 0.33452 0.65656
 O927 O 0.17230 0.23439 0.65586
 O928 O 0.28595 0.27286 0.63732
 O929 O 0.23713 0.22937 0.63620
 O930 O 0.15762 0.31000 0.68185
 O931 O 0.21344 0.35273 0.67735
 C932 C 0.26322 0.25043 0.62191
 H933 H 0.15952 0.24780 0.71677
 H934 H 0.26626 0.34608 0.71962
 H935 H 0.28866 0.21093 0.67497
 H936 H 0.26772 0.22747 0.79894
 H937 H 0.17760 0.37814 0.73194
 H938 H 0.27765 0.35978 0.80395
 H939 H 0.32351 0.30759 0.81596
 H940 H 0.35032 0.18689 0.77170
 H941 H 0.14204 0.33282 0.68594
 H942 H 0.16837 0.21184 0.64158
 H943 H 0.21593 0.16235 0.64881
 H944 H 0.31656 0.14025 0.72598
 H945 H 0.19351 0.37222 0.67747
 H946 H 0.31991 0.33300 0.64404
 H947 H 0.16563 0.19305 0.81490
 H948 H 0.29961 0.14740 0.78122
 Zr949 Zr 0.27062 0.80272 0.29437
 O950 O 0.24258 0.84848 0.31739
 O951 O 0.32015 0.80224 0.32067
 O952 O 0.25930 0.78829 0.34649
 O953 O 0.29632 0.85719 0.22218
 O954 O 0.24245 0.72443 0.34649
 O955 O 0.29689 0.85709 0.27960
 O956 O 0.35260 0.75367 0.29652
 O957 O 0.28380 0.74417 0.29901
 O958 O 0.30708 0.79048 0.25414
 O959 O 0.21912 0.77208 0.29381
 O960 O 0.24166 0.81792 0.25036
 Zr961 Zr 0.24048 0.71413 0.21230
 Zr962 Zr 0.23318 0.71355 0.29592
 Zr963 Zr 0.27739 0.80245 0.21045
 Zr964 Zr 0.31867 0.73218 0.25819
 O965 O 0.24825 0.84558 0.18344
 O966 O 0.33383 0.68458 0.28931
 O967 O 0.29231 0.74427 0.21232
 O968 O 0.26912 0.69876 0.25614
 O969 O 0.20416 0.72628 0.25249
 O970 O 0.22662 0.77229 0.20776
 C971 C 0.34806 0.77978 0.31849
 C972 C 0.30347 0.87293 0.24997
 C973 C 0.25031 0.75557 0.36161
 O974 O 0.25873 0.66445 0.31751
 O975 O 0.20120 0.66540 0.28173
 O976 O 0.21122 0.66185 0.22503
 C977 C 0.19523 0.65054 0.25311
 O978 O 0.17512 0.83424 0.27416
 Zr979 Zr 0.19214 0.78433 0.24873
 O980 O 0.18805 0.70895 0.19105
 O981 O 0.18177 0.71003 0.32379
 O982 O 0.14439 0.76818 0.27914
 O983 O 0.17175 0.82541 0.21346
 O984 O 0.15423 0.75379 0.21900
 C985 C 0.15749 0.72568 0.19883
 O986 O 0.26945 0.66842 0.19007
 O987 O 0.33196 0.81010 0.18879
 O988 O 0.25133 0.72780 0.16047
 O989 O 0.27614 0.78895 0.15946
 O990 O 0.36996 0.75179 0.23482
 O991 O 0.33967 0.68977 0.22569
 C992 C 0.26479 0.75856 0.14493
 H993 H 0.33103 0.80539 0.25437
 H994 H 0.27449 0.67087 0.25665
 H995 H 0.21350 0.77871 0.18673
 H996 H 0.20270 0.77893 0.31303
 H997 H 0.36158 0.68512 0.29065
 H998 H 0.24017 0.65260 0.33383
 H999 H 0.18282 0.68695 0.33901
 H1000 H 0.12204 0.77854 0.26786
 H1001 H 0.39058 0.73932 0.24713
 H1002 H 0.33089 0.83215 0.17245
 H1003 H 0.26637 0.85807 0.16702
 H1004 H 0.14397 0.82305 0.21432
 H1005 H 0.36414 0.68071 0.23381
 H1006 H 0.25220 0.65709 0.17368
 H1007 H 0.26018 0.85919 0.33381
 H1008 H 0.14814 0.83859 0.27035
 Zr1009 Zr 0.19708 0.76840 0.71064
 O1010 O 0.20065 0.80789 0.66895
 O1011 O 0.14125 0.74742 0.70669
 O1012 O 0.19513 0.74246 0.66309
 O1013 O 0.18168 0.84026 0.76969
 O1014 O 0.23761 0.69407 0.66586
 O1015 O 0.16767 0.82044 0.71723
 O1016 O 0.13333 0.70228 0.74924
 O1017 O 0.19958 0.70949 0.72300
 O1018 O 0.17904 0.76266 0.76090
 O1019 O 0.25355 0.75343 0.70195
 O1020 O 0.23388 0.80396 0.73761
 Zr1021 Zr 0.27449 0.72073 0.79371
 Zr1022 Zr 0.25615 0.69478 0.71597
 Zr1023 Zr 0.21656 0.79568 0.78827
 Zr1024 Zr 0.18375 0.70438 0.77407
 O1025 O 0.24161 0.85043 0.79574
 O1026 O 0.17098 0.64651 0.76206
 O1027 O 0.21886 0.73720 0.80388
 O1028 O 0.23841 0.68601 0.76636
 O1029 O 0.29414 0.72681 0.74388
 O1030 O 0.27254 0.77973 0.78149
 C1031 C 0.12205 0.72113 0.72354
 C1032 C 0.16568 0.84486 0.74111
 C1033 C 0.21396 0.71503 0.64992
 O1034 O 0.23142 0.63994 0.70848
 O1035 O 0.29364 0.65208 0.73358
 O1036 O 0.30553 0.67005 0.78709
 C1037 C 0.30863 0.64679 0.76253
 O1038 O 0.28421 0.82699 0.69163
 Zr1039 Zr 0.28963 0.78543 0.73147
 O1040 O 0.33019 0.73769 0.79957
 O1041 O 0.30284 0.69322 0.68224
 O1042 O 0.32903 0.77182 0.69309
 O1043 O 0.30708 0.84051 0.74753
 O1044 O 0.34235 0.77833 0.75432
 C1045 C 0.35204 0.75938 0.78097
 O1046 O 0.26792 0.68015 0.83439
 O1047 O 0.16956 0.79824 0.82154
 O1048 O 0.27639 0.74637 0.84048
 O1049 O 0.23560 0.79635 0.83839
 O1050 O 0.14029 0.71891 0.80849
 O1051 O 0.18950 0.67068 0.81908
 C1052 C 0.25983 0.77519 0.85341
 H1053 H 0.15301 0.77146 0.76448
 H1054 H 0.23930 0.65856 0.77372
 H1055 H 0.28920 0.79560 0.79532
 H1056 H 0.26138 0.75848 0.67819
 H1057 H 0.14624 0.63937 0.77261
 H1058 H 0.24740 0.62742 0.69146
 H1059 H 0.30212 0.66758 0.67197
 H1060 H 0.35046 0.79033 0.69428
 H1061 H 0.12134 0.69759 0.80913
 H1062 H 0.17060 0.82402 0.83154
 H1063 H 0.22646 0.86264 0.81354
 H1064 H 0.33291 0.84549 0.73841
 H1065 H 0.16634 0.65496 0.82359
 H1066 H 0.29220 0.67912 0.84612
 H1067 H 0.17566 0.80824 0.65839
 H1068 H 0.30917 0.83862 0.68564
 Zr1069 Zr 0.25461 0.20174 0.18747
 O1070 O 0.22465 0.15666 0.16471
 O1071 O 0.30256 0.20563 0.15653
 O1072 O 0.23878 0.21874 0.13886
 O1073 O 0.29404 0.14226 0.24928
 O1074 O 0.21818 0.28020 0.14505
 O1075 O 0.28371 0.14923 0.19309
 O1076 O 0.33881 0.25055 0.18217
 O1077 O 0.26667 0.26124 0.18537
 O1078 O 0.29502 0.21197 0.22350
 O1079 O 0.20300 0.22868 0.19653
 O1080 O 0.23027 0.17935 0.23276
 Zr1081 Zr 0.23233 0.27684 0.27974
 Zr1082 Zr 0.21606 0.28799 0.19766
 Zr1083 Zr 0.27070 0.19222 0.26877
 Zr1084 Zr 0.30551 0.27071 0.22266
 O1085 O 0.24575 0.14269 0.29277
 O1086 O 0.31611 0.31930 0.19005
 O1087 O 0.28439 0.25118 0.27036
 O1088 O 0.25600 0.29943 0.23414
 O1089 O 0.19148 0.26876 0.24346
 O1090 O 0.21951 0.21782 0.28022
 C1091 C 0.33307 0.22517 0.15972
 C1092 C 0.29811 0.13183 0.21882
 C1093 C 0.22663 0.25101 0.12720
 O1094 O 0.23939 0.33895 0.17453
 O1095 O 0.19110 0.33665 0.22009
 O1096 O 0.20688 0.33055 0.27529
 C1097 C 0.19107 0.34824 0.25069
 O1098 O 0.15936 0.15965 0.22047
 Zr1099 Zr 0.18055 0.20967 0.24334
 O1100 O 0.18138 0.27799 0.30604
 O1101 O 0.16084 0.29259 0.17973
 O1102 O 0.13054 0.22445 0.21869
 O1103 O 0.16266 0.16419 0.27710
 O1104 O 0.14421 0.23472 0.27963
 C1105 C 0.14969 0.26121 0.30116
 O1106 O 0.26541 0.31743 0.30512
 O1107 O 0.32666 0.18511 0.28447
 O1108 O 0.24090 0.25551 0.32941
 O1109 O 0.27674 0.20319 0.31985
 O1110 O 0.35854 0.25522 0.24150
 O1111 O 0.32806 0.31415 0.25328
 C1112 C 0.25751 0.22459 0.33914
 H1113 H 0.31933 0.19934 0.21982
 H1114 H 0.26150 0.32742 0.23532
 H1115 H 0.20769 0.20744 0.30136
 H1116 H 0.18497 0.22317 0.17869
 H1117 H 0.34350 0.32044 0.18504
 H1118 H 0.21923 0.35071 0.16115
 H1119 H 0.16049 0.31651 0.16553
 H1120 H 0.10988 0.20947 0.23037
 H1121 H 0.37806 0.26955 0.22775
 H1122 H 0.32696 0.16178 0.29948
 H1123 H 0.26474 0.13210 0.30813
 H1124 H 0.13487 0.16494 0.27892
 H1125 H 0.35018 0.32661 0.24162
 H1126 H 0.24947 0.32688 0.32376
 H1127 H 0.24054 0.14809 0.14566
 H1128 H 0.16068 0.16462 0.19587
 Zr1129 Zr 0.69785 0.71968 0.27573
 O1130 O 0.68990 0.67516 0.31291
 O1131 O 0.64698 0.74749 0.28403
 O1132 O 0.70118 0.73787 0.32666
 O1133 O 0.67246 0.66696 0.20613
 O1134 O 0.75121 0.78000 0.32757
 O1135 O 0.66202 0.67152 0.26257
 O1136 O 0.65211 0.80401 0.25321
 O1137 O 0.71289 0.77849 0.27170
 O1138 O 0.68282 0.73938 0.22764
 O1139 O 0.75598 0.72350 0.28422
 O1140 O 0.72716 0.68539 0.24156
 Zr1141 Zr 0.78794 0.76909 0.19644
 Zr1142 Zr 0.77107 0.78226 0.27764
 Zr1143 Zr 0.71444 0.70798 0.19364
 Zr1144 Zr 0.69999 0.79718 0.22299
 O1145 O 0.72772 0.65335 0.17478
 O1146 O 0.70058 0.85318 0.24293
 O1147 O 0.72972 0.76637 0.18713
 O1148 O 0.75772 0.80347 0.22969
 O1149 O 0.80303 0.74953 0.24446
 O1150 O 0.77212 0.71070 0.20017
 C1151 C 0.63582 0.78121 0.27505
 C1152 C 0.65640 0.65544 0.23391
 C1153 C 0.72370 0.76113 0.34192
 O1154 O 0.75702 0.83799 0.29341
 O1155 O 0.81501 0.82223 0.26567
 O1156 O 0.82999 0.80975 0.21115
 C1157 C 0.83470 0.82832 0.23854
 O1158 O 0.76878 0.64739 0.28469
 Zr1159 Zr 0.78478 0.69162 0.24877
 O1160 O 0.83755 0.73889 0.18742
 O1161 O 0.81638 0.76894 0.30911
 O1162 O 0.82751 0.69187 0.28501
 O1163 O 0.78648 0.63706 0.22627
 O1164 O 0.83583 0.68614 0.22321
 C1165 C 0.85107 0.70751 0.19987
 O1166 O 0.79833 0.81682 0.16279
 O1167 O 0.66792 0.72086 0.16341
 O1168 O 0.78157 0.75845 0.14449
 O1169 O 0.73232 0.71554 0.14311
 O1170 O 0.65394 0.79666 0.19014
 O1171 O 0.71168 0.83719 0.18243
 C1172 C 0.75819 0.73695 0.12875
 H1173 H 0.65561 0.73572 0.22391
 H1174 H 0.76457 0.83108 0.22610
 H1175 H 0.78422 0.69502 0.18278
 H1176 H 0.76219 0.71341 0.30690
 H1177 H 0.67751 0.86626 0.23564
 H1178 H 0.77457 0.84494 0.31133
 H1179 H 0.82075 0.79171 0.32302
 H1180 H 0.84284 0.66870 0.28174
 H1181 H 0.63875 0.81956 0.19493
 H1182 H 0.66337 0.69816 0.14946
 H1183 H 0.71048 0.64843 0.15612
 H1184 H 0.80854 0.62329 0.23499
 H1185 H 0.69143 0.85630 0.18121
 H1186 H 0.82296 0.81290 0.15129
 H1187 H 0.66453 0.67838 0.32320
 H1188 H 0.79076 0.63132 0.28961
 Zr1189 Zr 0.77869 0.28845 0.79327
 O1190 O 0.75581 0.33459 0.81998
 O1191 O 0.83092 0.28480 0.81578
 O1192 O 0.77102 0.27411 0.84561
 O1193 O 0.78868 0.34709 0.72160
 O1194 O 0.75530 0.20994 0.84688
 O1195 O 0.80253 0.34349 0.77728
 O1196 O 0.86275 0.24198 0.78394
 O1197 O 0.79551 0.23092 0.79389
 O1198 O 0.80936 0.28015 0.74858
 O1199 O 0.72884 0.25467 0.79747
 O1200 O 0.74153 0.30258 0.75437
 Zr1201 Zr 0.74105 0.20032 0.71260
 Zr1202 Zr 0.74661 0.19734 0.79632
 Zr1203 Zr 0.77187 0.29148 0.70994
 Zr1204 Zr 0.82456 0.22283 0.74854
 O1205 O 0.73587 0.33266 0.68817
 O1206 O 0.84831 0.17446 0.77338
 O1207 O 0.79040 0.23459 0.70737
 O1208 O 0.77721 0.18660 0.75200
 O1209 O 0.70975 0.20757 0.75725
 O1210 O 0.72292 0.25734 0.71172
 C1211 C 0.85908 0.26357 0.80932
 C1212 C 0.80239 0.36122 0.74808
 C1213 C 0.76275 0.24167 0.86135
 O1214 O 0.78225 0.15576 0.81789
 O1215 O 0.72708 0.14233 0.78425
 O1216 O 0.72149 0.14411 0.72714
 C1217 C 0.71863 0.12706 0.75636
 O1218 O 0.66974 0.31053 0.78327
 Zr1219 Zr 0.69429 0.26503 0.75681
 O1220 O 0.68619 0.19066 0.69803
 O1221 O 0.69651 0.18507 0.82455
 O1222 O 0.65267 0.24590 0.79277
 O1223 O 0.66796 0.30703 0.72619
 O1224 O 0.65451 0.23229 0.73105
 C1225 C 0.65611 0.20540 0.70959
 O1226 O 0.76911 0.15863 0.68421
 O1227 O 0.82221 0.30482 0.68233
 O1228 O 0.74371 0.21713 0.66061
 O1229 O 0.76528 0.27958 0.65921
 O1230 O 0.87059 0.24803 0.72045
 O1231 O 0.84155 0.18428 0.71089
 C1232 C 0.75389 0.24908 0.64492
 H1233 H 0.83261 0.29618 0.74640
 H1234 H 0.78527 0.15952 0.75107
 H1235 H 0.70639 0.26336 0.69269
 H1236 H 0.71405 0.25977 0.81814
 H1237 H 0.87592 0.17640 0.76977
 H1238 H 0.76695 0.14072 0.83499
 H1239 H 0.70172 0.16297 0.83998
 H1240 H 0.62793 0.25340 0.78398
 H1241 H 0.89373 0.23634 0.72918
 H1242 H 0.81722 0.32750 0.66748
 H1243 H 0.75065 0.34719 0.67038
 H1244 H 0.64063 0.30101 0.72727
 H1245 H 0.86836 0.17808 0.71357
 H1246 H 0.75006 0.14676 0.66974
 H1247 H 0.77574 0.34410 0.83482
 H1248 H 0.68969 0.32130 0.79729
 C1249 C 0.45942 0.99966 0.30807
 C1250 C 0.48645 0.97174 0.31058
 C1251 C 0.49536 0.96934 0.34309
 C1252 C 0.47326 0.99579 0.35893
 O1253 O 0.45092 1.01453 0.33772
 H1254 H 0.49771 0.95438 0.29073
 H1255 H 0.51570 0.95019 0.35405
 C1256 C -0.04487 0.49646 0.80560
 C1257 C -0.01353 0.47379 0.80821
 C1258 C -0.00634 0.47079 0.84099
 C1259 C -0.03398 0.49113 0.85705
 O1260 O -0.05803 0.50687 0.83560
 H1261 H 0.00158 0.45963 0.78833
 H1262 H 0.01624 0.45464 0.85199
 C1263 C 0.04460 0.01381 0.82678
 C1264 C 0.01766 0.04167 0.83000
 C1265 C 0.01047 0.04413 0.86306
 C1266 C 0.03388 0.01820 0.87852
 O1267 O 0.05514 -0.00047 0.85652
 H1268 H 0.00525 0.05892 0.81020
 H1269 H -0.00901 0.06357 0.87465
 C1270 C 0.53025 0.49324 0.32606
 C1271 C 0.49879 0.51593 0.32777
 C1272 C 0.48572 0.51253 0.35964
 C1273 C 0.51081 0.48941 0.37614
 O1274 O 0.53832 0.47751 0.35585
 H1275 H 0.48682 0.53329 0.30781
 H1276 H 0.46200 0.52747 0.37017
 C1277 C 0.51144 0.48153 0.20456
 C1278 C 0.47565 0.46511 0.20752
 C1279 C 0.46063 0.46835 0.17651
 C1280 C 0.48805 0.48647 0.15661
 O1281 O 0.51911 0.49429 0.17339
 H1282 H 0.46198 0.45166 0.22953
 H1283 H 0.43336 0.45778 0.16908
 C1284 C 0.01766 0.99959 0.70718
 C1285 C -0.02090 0.99403 0.71149
 C1286 C -0.03530 0.99442 0.68005
 C1287 C -0.00494 1.00069 0.65854
 O1288 O 0.02728 1.00362 0.67481
 H1289 H -0.03711 0.98964 0.73462
 H1290 H -0.06446 0.99060 0.67358
 C1291 C -0.02264 0.51928 0.68287
 C1292 C 0.01295 0.53602 0.68458
 C1293 C 0.02399 0.54519 0.65225
 C1294 C -0.00547 0.53358 0.63305
 O1295 O -0.03379 0.51798 0.65147
 H1296 H 0.02934 0.54106 0.70659
 H1297 H 0.05064 0.55788 0.64367
 C1298 C 0.48245 0.02637 0.18590
 C1299 C 0.51728 0.04456 0.18843
 C1300 C 0.53017 0.05183 0.15628
 C1301 C 0.50245 0.03782 0.13627
 O1302 O 0.47340 0.02256 0.15409
 H1303 H 0.53186 0.05190 0.21094
 H1304 H 0.55682 0.06510 0.14840
 C1305 C 0.28677 0.39891 -0.00209
 C1306 C 0.27780 0.42320 0.02377
 C1307 C 0.31019 0.44148 0.03177
 C1308 C 0.33717 0.42747 0.01046
 O1309 O 0.32332 0.40129 -0.01012
 H1310 H 0.25099 0.42546 0.03684
 H1311 H 0.31386 0.46236 0.05113
 C1312 C -0.18216 0.86907 0.49646
 C1313 C -0.15272 0.84478 0.50290
 C1314 C -0.12430 0.86754 0.51358
 C1315 C -0.13759 0.90449 0.51255
 O1316 O -0.17274 0.90583 0.50159
 H1317 H -0.15265 0.81373 0.50117
 H1318 H -0.09629 0.85855 0.51982
 C1319 C -0.14782 0.14769 1.01320
 C1320 C -0.12452 0.17759 1.02261
 C1321 C -0.08949 0.16286 1.02410
 C1322 C -0.09349 0.12514 1.01503
 O1323 O -0.12892 0.11552 1.00854
 H1324 H -0.13246 0.20672 1.02809
 H1325 H -0.06405 0.17761 1.03143
 C1326 C 0.33803 0.64143 0.50609
 C1327 C 0.36529 0.66834 0.51368
 C1328 C 0.39804 0.64906 0.51405
 C1329 C 0.38890 0.61170 0.50631
 O1330 O 0.35227 0.60664 0.50160
 H1331 H 0.36144 0.69846 0.51883
 H1332 H 0.42543 0.66056 0.52017
 C1333 C 0.20268 0.60515 0.48088
 C1334 C 0.20841 0.57925 0.45584
 C1335 C 0.17509 0.56023 0.45292
 C1336 C 0.15113 0.57530 0.47668
 O1337 O 0.16778 0.60294 0.49380
 H1338 H 0.23393 0.57500 0.44124
 H1339 H 0.16902 0.53754 0.43568
 C1340 C 0.72059 0.09809 -0.00913
 C1341 C 0.72886 0.06149 -0.01944
 C1342 C 0.69515 0.04286 -0.02220
 C1343 C 0.66837 0.06871 -0.01267
 O1344 O 0.68359 0.10253 -0.00483
 H1345 H 0.75611 0.04976 -0.02512
 H1346 H 0.69054 0.01351 -0.02980
 C1347 C 0.67718 0.88328 0.47632
 C1348 C 0.65864 0.87263 0.44805
 C1349 C 0.62654 0.89267 0.44835
 C1350 C 0.62736 0.91411 0.47703
 O1351 O 0.65833 0.90849 0.49434
 H1352 H 0.66730 0.85198 0.42971
 H1353 H 0.60472 0.89146 0.42989
 C1354 C 0.15271 0.35776 0.98092
 C1355 C 0.12905 0.33483 0.96276
 C1356 C 0.09548 0.35294 0.96314
 C1357 C 0.10113 0.38513 0.98197
 O1358 O 0.13583 0.38831 0.99268
 H1359 H 0.13581 0.30891 0.94965
 H1360 H 0.07007 0.34413 0.95082
 C1361 C -0.03474 0.30173 0.43076
 C1362 C -0.03990 0.28930 0.46402
 C1363 C -0.03793 0.32180 0.48225
 C1364 C -0.03256 0.35137 0.45879
 O1365 O -0.03123 0.33957 0.42776
 H1366 H -0.04199 0.26018 0.47433
 H1367 H -0.03855 0.32361 0.50935
 C1368 C 0.47619 -0.19870 -0.06382
 C1369 C 0.47162 -0.20963 -0.03014
 C1370 C 0.47610 -0.17664 -0.01300
 C1371 C 0.48224 -0.14816 -0.03736
 O1372 O 0.48193 -0.16115 -0.06807
 H1373 H 0.46722 -0.23813 -0.01892
 H1374 H 0.47574 -0.17373 0.01399
 C1375 C -0.00150 -0.17291 1.12839
 C1376 C -0.00519 -0.15013 1.15605
 C1377 C -0.00476 -0.11344 1.14315
 C1378 C -0.00175 -0.11734 1.10888
 O1379 O 0.00034 -0.15311 1.09980
 H1380 H -0.00663 -0.15926 1.18229
 H1381 H -0.00534 -0.08707 1.15693
 C1382 C 0.52718 0.33585 0.64151
 C1383 C 0.55016 0.35683 0.66204
 C1384 C 0.54942 0.39362 0.64920
 C1385 C 0.52585 0.39190 0.62229
 O1386 O 0.51205 0.35727 0.61791
 H1387 H 0.56720 0.34660 0.68244
 H1388 H 0.56582 0.41816 0.65712
 C1389 C 0.53641 1.21939 0.57213
 C1390 C 0.55658 1.23225 0.54383
 C1391 C 0.55625 1.20171 0.52305
 C1392 C 0.53568 1.17315 0.54047
 O1393 O 0.52374 1.18380 0.57003
 H1394 H 0.57040 1.25999 0.53919
 H1395 H 0.56953 1.20028 0.49840
 C1396 C 0.01844 0.70284 1.07038
 C1397 C 0.03703 0.71391 1.04081
 C1398 C 0.03902 0.68110 1.02315
 C1399 C 0.02122 0.65300 1.04342
 O1400 O 0.00878 0.66606 1.07203
 H1401 H 0.04832 0.74213 1.03337
 H1402 H 0.05150 0.67804 0.99835
 C1403 C 0.50379 0.67263 -0.10617
 C1404 C 0.52136 0.64993 -0.12954
 C1405 C 0.52906 0.61647 -0.11240
 C1406 C 0.51526 0.62130 -0.08020
 O1407 O 0.49997 0.65510 -0.07640
 H1408 H 0.52845 0.65681 -0.15562
 H1409 H 0.54194 0.59113 -0.12242
 C1410 C 0.01336 1.17633 0.39138
 C1411 C 0.03886 1.15716 0.37177
 C1412 C 0.04564 1.12384 0.38965
 C1413 C 0.02364 1.12559 0.41859
 O1414 O 0.00410 1.15717 0.41955
 H1415 H 0.05172 1.16670 0.34799
 H1416 H 0.06417 1.10101 0.38244
 C1417 C 0.73763 0.66813 0.92143
 C1418 C 0.73440 0.63379 0.90505
 C1419 C 0.73399 0.64330 0.87241
 C1420 C 0.73778 0.68287 0.87030
 O1421 O 0.73973 0.69873 0.90032
 H1422 H 0.73251 0.60487 0.91605
 H1423 H 0.73175 0.62337 0.85221
 C1424 C 0.24172 0.18033 0.41853
 C1425 C 0.22325 0.15462 0.39851
 C1426 C 0.22390 0.17116 0.36772
 C1427 C 0.24453 0.20478 0.37016
 O1428 O 0.25585 0.21076 0.40108
 H1429 H 0.21098 0.12662 0.40524
 H1430 H 0.21209 0.15903 0.34558
 C1431 C 0.77079 0.29897 0.43750
 C1432 C 0.80373 0.27866 0.43415
 C1433 C 0.80403 0.26497 0.40292
 C1434 C 0.77153 0.27797 0.38889
 O1435 O 0.75097 0.29893 0.40968
 H1436 H 0.82492 0.27411 0.45285
 H1437 H 0.82556 0.24764 0.39156
 C1438 C 0.27639 0.80523 0.93559
 C1439 C 0.30975 0.78681 0.92911
 C1440 C 0.30712 0.77359 0.89785
 C1441 C 0.27248 0.78496 0.88697
 O1442 O 0.25346 0.80455 0.90976
 H1443 H 0.33314 0.78319 0.94574
 H1444 H 0.32814 0.75760 0.88436
 C1445 C 0.26954 0.78131 0.05769
 C1446 C 0.26809 0.74137 0.05625
 C1447 C 0.26580 0.72775 0.08864
 C1448 C 0.26656 0.75992 0.10785
 O1449 O 0.26874 0.79253 0.08929
 H1450 H 0.26793 0.72364 0.03442
 H1451 H 0.26398 0.69788 0.09727
 C1452 C 0.75499 0.27460 0.55829
 C1453 C 0.75025 0.23492 0.55602
 C1454 C 0.74832 0.22037 0.58811
 C1455 C 0.75238 0.25173 0.60796
 O1456 O 0.75623 0.28477 0.59011
 H1457 H 0.74796 0.21791 0.53387
 H1458 H 0.74497 0.19039 0.59609
 C1459 C 0.25847 0.22611 0.53742
 C1460 C 0.27752 0.26091 0.53207
 C1461 C 0.28297 0.27487 0.56339
 C1462 C 0.26653 0.24767 0.58529
 O1463 O 0.25186 0.21814 0.56964
 H1464 H 0.28726 0.27397 0.50834
 H1465 H 0.29685 0.30167 0.56950
 C1466 C 0.75032 0.71878 0.04245
 C1467 C 0.77003 0.75334 0.03864
 C1468 C 0.77655 0.76487 0.07066
 C1469 C 0.76012 0.73663 0.09161
 O1470 O 0.74431 0.70877 0.07454
 H1471 H 0.77975 0.76766 0.01543
 H1472 H 0.79136 0.79073 0.07786
 C1473 C 0.12577 0.57733 0.25092
 C1474 C 0.10304 0.60887 0.25380
 C1475 C 0.12674 0.63969 0.25470
 C1476 C 0.16222 0.62498 0.25192
 O1477 O 0.16210 0.58697 0.24961
 H1478 H 0.07265 0.60910 0.25510
 H1479 H 0.11920 0.66957 0.25707
 C1480 C 0.66844 0.03949 0.75684
 C1481 C 0.69328 0.03023 0.78177
 C1482 C 0.71683 0.06127 0.78329
 C1483 C 0.70481 0.08712 0.75907
 O1484 O 0.67536 0.07413 0.74292
 H1485 H 0.69294 0.00462 0.79799
 H1486 H 0.73906 0.06543 0.80099
 C1487 C 0.85531 0.04622 0.27328
 C1488 C 0.83082 0.04336 0.30070
 C1489 C 0.81175 0.07685 0.30077
 C1490 C 0.82510 0.09816 0.27315
 O1491 O 0.85170 0.07968 0.25609
 H1492 H 0.82842 0.02003 0.31935
 H1493 H 0.79039 0.08492 0.31887
 C1494 C 0.35954 0.55988 0.77010
 C1495 C 0.33491 0.55472 0.79723
 C1496 C 0.31375 0.58676 0.79762
 C1497 C 0.32613 0.60928 0.77039
 O1498 O 0.35405 0.59313 0.75330
 H1499 H 0.33353 0.53075 0.81529
 H1500 H 0.29160 0.59304 0.81560
 C1501 C 0.39647 0.42480 0.74116
 C1502 C 0.42031 0.40506 0.72029
 C1503 C 0.40146 0.37166 0.71332
 C1504 C 0.36775 0.37301 0.73094
 O1505 O 0.36452 0.40534 0.74771
 H1506 H 0.44760 0.41452 0.71033
 H1507 H 0.41112 0.34902 0.69735
 C1508 C 0.89332 0.91057 0.25122
 C1509 C 0.91982 0.88716 0.23658
 C1510 C 0.90098 0.85416 0.22850
 C1511 C 0.86446 0.85893 0.23936
 O1512 O 0.85958 0.89320 0.25296
 H1513 H 0.94922 0.89358 0.23116
 H1514 H 0.91268 0.82917 0.21683
 C1515 C 0.61591 0.90883 0.74928
 C1516 C 0.60148 0.89267 0.77904
 C1517 C 0.61992 0.85894 0.78360
 C1518 C 0.64365 0.85662 0.75594
 O1519 O 0.64163 0.88702 0.73526
 H1520 H 0.58224 0.90541 0.79672
 H1521 H 0.61702 0.83884 0.80485
 C1522 C 0.13967 0.43403 0.25772
 C1523 C 0.15034 0.42987 0.29059
 C1524 C 0.17095 0.39748 0.29179
 C1525 C 0.17147 0.38392 0.25952
 O1526 O 0.15244 0.40625 0.23850
 H1527 H 0.14445 0.44889 0.31102
 H1528 H 0.18449 0.38538 0.31365
 C1529 C 0.05651 0.29346 0.81542
 C1530 C 0.04932 0.32711 0.79748
 C1531 C 0.07908 0.33179 0.77513
 C1532 C 0.10124 0.30032 0.78146
 O1533 O 0.08757 0.27747 0.80547
 H1534 H 0.02559 0.34581 0.80050
 H1535 H 0.08407 0.35510 0.75680
 C1536 C 0.55979 0.79498 0.32797
 C1537 C 0.56136 0.83208 0.31445
 C1538 C 0.58974 0.83196 0.29088
 C1539 C 0.60287 0.79482 0.29234
 O1540 O 0.58489 0.77258 0.31468
 H1541 H 0.54407 0.85609 0.32116
 H1542 H 0.60034 0.85611 0.27537
 C1543 C 0.53905 0.20918 0.18611
 C1544 C 0.53146 0.18125 0.21089
 C1545 C 0.56261 0.18116 0.23011
 C1546 C 0.58653 0.20886 0.21531
 O1547 O 0.57227 0.22592 0.18888
 H1548 H 0.50699 0.16247 0.21413
 H1549 H 0.56779 0.16236 0.25163
 C1550 C 0.03748 0.70949 0.68320
 C1551 C 0.03011 0.68214 0.70847
 C1552 C 0.06110 0.68325 0.72785
 C1553 C 0.08458 0.71114 0.71268
 O1554 O 0.07036 0.72696 0.68573
 H1555 H 0.00564 0.66346 0.71223
 H1556 H 0.06625 0.66552 0.75005
 C1557 C 0.91453 0.70915 0.62452
 C1558 C 0.89432 0.70220 0.59620
 C1559 C 0.85770 0.70594 0.60607
 C1560 C 0.85888 0.71611 0.63928
 O1561 O 0.89325 0.71796 0.65056
 H1562 H 0.90508 0.69545 0.57146
 H1563 H 0.83313 0.70201 0.59096
 C1564 C 0.41983 0.20418 0.12382
 C1565 C 0.39868 0.19160 0.09766
 C1566 C 0.36236 0.19823 0.10729
 C1567 C 0.36473 0.21549 0.13798
 O1568 O 0.39948 0.21904 0.14801
 H1569 H 0.40859 0.17927 0.07452
 H1570 H 0.33725 0.19144 0.09367
 C1571 C 0.42756 0.77825 0.36648
 C1572 C 0.40315 0.78848 0.39186
 C1573 C 0.36942 0.79208 0.37673
 C1574 C 0.37639 0.78315 0.34366
 O1575 O 0.41151 0.77481 0.33737
 H1576 H 0.40939 0.79341 0.41787
 H1577 H 0.34284 0.79930 0.38844
 C1578 C 0.93734 0.24235 0.85516
 C1579 C 0.91188 0.24348 0.88197
 C1580 C 0.87924 0.25522 0.86829
 C1581 C 0.88727 0.25959 0.83440
 O1582 O 0.92197 0.25125 0.82630
 H1583 H 0.91646 0.23797 0.90839
 H1584 H 0.85242 0.25846 0.88117
 C1585 C 0.55552 1.01479 0.68712
 C1586 C 0.51902 1.02602 0.69199
 C1587 C 0.50711 1.03687 0.66081
 C1588 C 0.53714 1.03115 0.63904
 O1589 O 0.56671 1.01785 0.65506
 H1590 H 0.50336 1.02704 0.71556
 H1591 H 0.47936 1.04654 0.65450
 C1592 C 0.04270 0.49336 1.18724
 C1593 C 0.00450 0.48947 1.19281
 C1594 C -0.01091 0.49622 1.16214
 C1595 C 0.01913 0.50350 1.14022
 O1596 O 0.05169 0.50185 1.15536
 H1597 H -0.01031 0.48457 1.21665
 H1598 H -0.04044 0.49541 1.15629
 C1599 C -0.02630 -0.00271 1.21207
 C1600 C 0.00658 -0.02257 1.21667
 C1601 C 0.02647 -0.01824 1.18731
 C1602 C 0.00434 0.00367 1.16668
 O1603 O -0.02768 0.01339 1.18158
 H1604 H 0.01491 -0.03966 1.23819
 H1605 H 0.05300 -0.03127 1.18107
 C1606 C 0.47945 0.51904 0.70760
 C1607 C 0.51470 0.50457 0.71312
 C1608 C 0.53364 0.50811 0.68304
 C1609 C 0.50855 0.52438 0.66128
 O1610 O 0.47570 0.53121 0.67611
 H1611 H 0.52498 0.49135 0.73589
 H1612 H 0.56144 0.49776 0.67718
 C1613 C 0.46970 0.49363 -0.18100
 C1614 C 0.50650 0.48261 -0.18528
 C1615 C 0.52133 0.48251 -0.15387
 C1616 C 0.49220 0.49274 -0.13282
 O1617 O 0.46102 0.49952 -0.14917
 H1618 H 0.52098 0.47566 -0.20833
 H1619 H 0.54942 0.47457 -0.14698
 C1620 C -0.03125 0.98742 0.32265
 C1621 C 0.00635 0.98071 0.31640
 C1622 C 0.02371 0.98538 0.34645
 C1623 C -0.00469 0.99423 0.36878
 O1624 O -0.03781 0.99562 0.35437
 H1625 H 0.01976 0.97373 0.29288
 H1626 H 0.05307 0.98131 0.35169
 C1627 C 0.03913 0.47572 0.30301
 C1628 C 0.01232 0.44662 0.30097
 C1629 C -0.00437 0.44303 0.33252
 C1630 C 0.01390 0.46990 0.35143
 O1631 O 0.04001 0.48957 0.33351
 H1632 H 0.00549 0.43026 0.27916
 H1633 H -0.02648 0.42287 0.34081
 C1634 C 0.54888 -0.01990 -0.19572
 C1635 C 0.51589 -0.04124 -0.19773
 C1636 C 0.50182 -0.04509 -0.16540
 C1637 C 0.52739 -0.02615 -0.14598
 O1638 O 0.55578 -0.01086 -0.16433
 H1639 H 0.50345 -0.05262 -0.21997
 H1640 H 0.47604 -0.05979 -0.15706
 C1641 C 0.68092 0.59964 0.01726
 C1642 C 0.68769 0.57690 0.04530
 C1643 C 0.66026 0.54905 0.04586
 C1644 C 0.63882 0.55648 0.01794
 O1645 O 0.65133 0.58727 0.00052
 H1646 H 0.70988 0.58006 0.06316
 H1647 H 0.65544 0.52674 0.06516
 C1648 C 0.18960 1.10576 0.51557
 C1649 C 0.19578 1.08420 0.54439
 C1650 C 0.16769 1.05697 0.54583
 C1651 C 0.14647 1.06351 0.51760
 O1652 O 0.15975 1.09323 0.49918
 H1653 H 0.21794 1.08779 0.56222
 H1654 H 0.16235 1.03565 0.56587
 C1655 C 0.19735 -0.12516 1.02578
 C1656 C 0.18997 -0.12835 1.05993
 C1657 C 0.15926 -0.10673 1.06566
 C1658 C 0.14968 -0.09157 1.03468
 O1659 O 0.17270 -0.10289 1.01014
 H1660 H 0.20520 -0.14456 1.07864
 H1661 H 0.14561 -0.10220 1.08976
 C1662 C 0.69177 0.37759 0.52459
 C1663 C 0.68651 0.38045 0.55893
 C1664 C 0.65839 0.40567 0.56333
 C1665 C 0.64759 0.41668 0.53154
 O1666 O 0.66764 0.39942 0.50765
 H1667 H 0.70102 0.36562 0.57889
 H1668 H 0.64653 0.41443 0.58712
 C1669 C -0.18713 0.39471 0.51662
 C1670 C -0.19631 0.42026 0.54110
 C1671 C -0.17073 0.44978 0.53688
 C1672 C -0.14778 0.44039 0.50994
 O1673 O -0.15773 0.40687 0.49760
 H1674 H -0.21900 0.41792 0.55964
 H1675 H -0.16827 0.47474 0.55239
 C1676 C 0.32225 -0.09918 0.01443
 C1677 C 0.31421 -0.07406 0.03953
 C1678 C 0.34149 -0.04610 0.03646
 C1679 C 0.36438 -0.05593 0.00960
 O1680 O 0.35265 -0.08827 -0.00389
 H1681 H 0.29121 -0.07572 0.05777
 H1682 H 0.34506 -0.02192 0.05271
 C1683 C 0.31849 1.12854 0.51362
 C1684 C 0.32743 1.13473 0.54663
 C1685 C 0.36281 1.12134 0.55015
 C1686 C 0.37299 1.10792 0.51909
 O1687 O 0.34623 1.11235 0.49678
 H1688 H 0.31065 1.14816 0.56582
 H1689 H 0.37913 1.12103 0.57276
 C1690 C -0.19262 0.61769 1.01866
 C1691 C -0.18415 0.62025 1.05215
 C1692 C -0.14946 0.60482 1.05492
 C1693 C -0.13940 0.59395 1.02294
 O1694 O -0.16550 0.60176 1.00087
 H1695 H -0.20069 0.63265 1.07207
 H1696 H -0.13351 0.60158 1.07761
 C1697 C 0.02208 0.71176 0.56068
 C1698 C 0.00987 0.72870 0.53124
 C1699 C 0.01259 0.70076 0.50803
 C1700 C 0.02614 0.66906 0.52531
 O1701 O 0.03233 0.67591 0.55700
 H1702 H -0.00276 0.75661 0.52789
 H1703 H 0.00229 0.70205 0.48267
 C1704 C 0.53217 0.21214 0.06319
 C1705 C 0.52186 0.22895 0.03308
 C1706 C 0.52739 0.20133 0.00997
 C1707 C 0.54044 0.16990 0.02799
 O1708 O 0.54389 0.17672 0.06004
 H1709 H 0.50837 0.25633 0.02911
 H1710 H 0.51878 0.20240 -0.01593
 C1711 C 0.05060 0.19826 0.90954
 C1712 C 0.08690 0.20250 0.92049
 C1713 C 0.08987 0.17528 0.94540
 C1714 C 0.05521 0.15679 0.94729
 O1715 O 0.03128 0.17073 0.92576
 H1716 H 0.10824 0.22338 0.91188
 H1717 H 0.11446 0.16910 0.95994
 C1718 C 0.50297 0.68300 0.39195
 C1719 C 0.48296 0.65983 0.37107
 C1720 C 0.48003 0.62519 0.38787
 C1721 C 0.49877 0.63036 0.41742
 O1722 O 0.51259 0.66547 0.42006
 H1723 H 0.47127 0.66764 0.34701
 H1724 H 0.46590 0.59937 0.37971
 C1725 C 0.50271 0.80846 0.44107
 C1726 C 0.47944 0.79679 0.46783
 C1727 C 0.47180 0.82969 0.48429
 C1728 C 0.49080 0.85854 0.46593
 O1729 O 0.50968 0.84576 0.44003
 H1730 H 0.46824 0.76816 0.47388
 H1731 H 0.45388 0.83249 0.50637
 C1732 C -0.01683 0.30082 0.92436
 C1733 C -0.03697 0.28400 0.95128
 C1734 C -0.04815 0.31407 0.97022
 C1735 C -0.03382 0.34634 0.95308
 O1736 O -0.01501 0.33834 0.92556
 H1737 H -0.04228 0.25370 0.95697
 H1738 H -0.06343 0.31259 0.99405
 C1739 C 0.46811 0.30819 0.12258
 C1740 C 0.44859 0.32862 0.14616
 C1741 C 0.43864 0.36159 0.12942
 C1742 C 0.45326 0.35831 0.09722
 O1743 O 0.47083 0.32588 0.09303
 H1744 H 0.44295 0.32071 0.17232
 H1745 H 0.42482 0.38611 0.13996
 C1746 C -0.02888 0.81311 0.62343
 C1747 C -0.04637 0.83400 0.64791
 C1748 C -0.05307 0.86870 0.63260
 C1749 C -0.03863 0.86579 0.60031
 O1750 O -0.02422 0.83209 0.59466
 H1751 H -0.05279 0.82517 0.67375
 H1752 H -0.06488 0.89377 0.64406
 C1753 C 0.22594 0.27885 0.04196
 C1754 C 0.21378 0.24133 0.03829
 C1755 C 0.21228 0.22549 0.07015
 C1756 C 0.22279 0.25491 0.09071
 O1757 O 0.23123 0.28721 0.07369
 H1758 H 0.20784 0.22703 0.01517
 H1759 H 0.20455 0.19609 0.07755
 C1760 C 0.72041 0.77835 0.54205
 C1761 C 0.70539 0.74266 0.53510
 C1762 C 0.70325 0.72304 0.56542
 C1763 C 0.71655 0.74875 0.58825
 O1764 O 0.72707 0.78211 0.57418
 H1765 H 0.69875 0.73167 0.51076
 H1766 H 0.69341 0.69367 0.57032
 C1767 C 0.22290 0.69402 0.56359
 C1768 C 0.18880 0.71219 0.56228
 C1769 C 0.18037 0.72180 0.59462
 C1770 C 0.20965 0.70844 0.61354
 O1771 O 0.23553 0.69167 0.59474
 H1772 H 0.17239 0.71865 0.54037
 H1773 H 0.15606 0.73723 0.60331
 C1774 C 0.72978 0.18790 0.06542
 C1775 C 0.69461 0.20370 0.06323
 C1776 C 0.68435 0.21226 0.09548
 C1777 C 0.71370 0.20046 0.11508
 O1778 O 0.74125 0.18583 0.09688
 H1779 H 0.67882 0.20947 0.04081
 H1780 H 0.65886 0.22604 0.10365
 C1781 C 0.75613 0.21657 0.94802
 C1782 C 0.75071 0.25557 0.95086
 C1783 C 0.75296 0.27081 0.91868
 C1784 C 0.75982 0.23999 0.89853
 O1785 O 0.76202 0.20719 0.91632
 H1786 H 0.74772 0.27130 0.97379
 H1787 H 0.75023 0.30074 0.91087
 C1788 C 0.24671 0.72452 0.44696
 C1789 C 0.23834 0.76256 0.45211
 C1790 C 0.23958 0.78033 0.42076
 C1791 C 0.24852 0.75176 0.39880
 O1792 O 0.25309 0.71807 0.41472
 H1793 H 0.23347 0.77601 0.47594
 H1794 H 0.23427 0.81029 0.41465
 C1795 C 0.72639 0.78755 0.42733
 C1796 C 0.69627 0.76171 0.42992
 C1797 C 0.69132 0.74829 0.39847
 C1798 C 0.71864 0.76668 0.37857
 O1799 O 0.74014 0.79048 0.39600
 H1800 H 0.67953 0.75350 0.45208
 H1801 H 0.67018 0.72770 0.39091
 C1802 C 0.23176 0.29080 0.92252
 C1803 C 0.21124 0.25648 0.92413
 C1804 C 0.20683 0.24592 0.89185
 C1805 C 0.22522 0.27405 0.87235
 O1806 O 0.24066 0.30142 0.89084
 H1807 H 0.20033 0.24076 0.94622
 H1808 H 0.19231 0.22038 0.88351
 C1809 C 0.86573 0.43837 0.73098
 C1810 C 0.83692 0.45030 0.71089
 C1811 C 0.80806 0.42499 0.71789
 C1812 C 0.82091 0.39925 0.74195
 O1813 O 0.85609 0.40732 0.74999
 H1814 H 0.83673 0.47463 0.69327
 H1815 H 0.78137 0.42396 0.70545
 C1816 C 0.36748 0.94890 0.23315
 C1817 C 0.33809 0.96253 0.21463
 C1818 C 0.30869 0.93798 0.22231
 C1819 C 0.32183 0.91112 0.24527
 O1820 O 0.35771 0.91759 0.25172
 H1821 H 0.33796 0.98738 0.19757
 H1822 H 0.28145 0.93801 0.21079
 C1823 C 0.11668 0.93429 0.73884
 C1824 C 0.11463 0.92521 0.70542
 C1825 C 0.13204 0.89088 0.70249
 C1826 C 0.14400 0.88079 0.73420
 O1827 O 0.13456 0.90715 0.75658
 H1828 H 0.10117 0.94112 0.68542
 H1829 H 0.13571 0.87502 0.67969
 C1830 C 0.61597 0.42455 0.24037
 C1831 C 0.61661 0.41712 0.20650
 C1832 C 0.63628 0.38420 0.20313
 C1833 C 0.64690 0.37321 0.23504
 O1834 O 0.63442 0.39767 0.25798
 H1835 H 0.60336 0.43309 0.18642
 H1836 H 0.64218 0.36975 0.17994
 C1837 C 0.60449 0.56574 0.23658
 C1838 C 0.60232 0.57505 0.20291
 C1839 C 0.61907 0.61039 0.19880
 C1840 C 0.63083 0.62088 0.23021
 O1841 O 0.62171 0.59362 0.25354
 H1842 H 0.58972 0.55821 0.18355
 H1843 H 0.62333 0.62631 0.17517
 C1844 C 0.11401 0.07620 0.73073
 C1845 C 0.11356 0.08305 0.69657
 C1846 C 0.13000 0.11842 0.69135
 C1847 C 0.13970 0.13129 0.72265
 O1848 O 0.12979 0.10552 0.74687
 H1849 H 0.10215 0.06477 0.67763
 H1850 H 0.13513 0.13292 0.66717
 C1851 C 0.37070 0.06450 0.21963
 C1852 C 0.36645 0.06859 0.18522
 C1853 C 0.33685 0.09197 0.18076
 C1854 C 0.32504 0.10110 0.21260
 O1855 O 0.34568 0.08473 0.23643
 H1856 H 0.38340 0.05686 0.16526
 H1857 H 0.32642 0.10280 0.15703
 C1858 C 0.86601 0.55425 0.71484
 C1859 C 0.86337 0.55853 0.68029
 C1860 C 0.83356 0.58144 0.67492
 C1861 C 0.82009 0.58978 0.70645
 O1862 O 0.83983 0.57358 0.73088
 H1863 H 0.88150 0.54721 0.66097
 H1864 H 0.82390 0.59227 0.65091
 C1865 C 0.93793 0.70355 0.16145
 C1866 C 0.94000 0.66795 0.17759
 C1867 C 0.90600 0.66297 0.19400
 C1868 C 0.88665 0.69598 0.18605
 O1869 O 0.90569 0.72001 0.16624
 H1870 H 0.96399 0.64940 0.17925
 H1871 H 0.89717 0.63932 0.21089
 C1872 C 0.44377 0.22077 0.65406
 C1873 C 0.44003 0.18221 0.66338
 C1874 C 0.40507 0.17853 0.67774
 C1875 C 0.39066 0.21507 0.67564
 O1876 O 0.41378 0.24051 0.66120
 H1877 H 0.46081 0.15998 0.66197
 H1878 H 0.39215 0.15281 0.68936
 C1879 C 0.43611 0.75670 0.82332
 C1880 C 0.45116 0.75469 0.79115
 C1881 C 0.42154 0.75863 0.77034
 C1882 C 0.39078 0.76184 0.79153
 O1883 O 0.39943 0.76072 0.82362
 H1884 H 0.48007 0.75024 0.78368
 H1885 H 0.42194 0.75694 0.74324
 C1886 C 0.94425 0.25004 0.31829
 C1887 C 0.95687 0.23783 0.28735
 C1888 C 0.92603 0.23823 0.26751
 C1889 C 0.89701 0.24988 0.28804
 O1890 O 0.90791 0.25708 0.31866
 H1891 H 0.98501 0.22996 0.27984
 H1892 H 0.92449 0.22945 0.24172
 C1893 C 0.06572 0.28246 0.34479
 C1894 C 0.08585 0.31595 0.35046
 C1895 C 0.11964 0.31153 0.33516
 C1896 C 0.11788 0.27598 0.32073
 O1897 O 0.08498 0.25813 0.32627
 H1898 H 0.07735 0.34067 0.36443
 H1899 H 0.14298 0.33194 0.33453
 C1900 C 0.55331 0.76920 0.83499
 C1901 C 0.54583 0.78688 0.80451
 C1902 C 0.57349 0.77553 0.78321
 C1903 C 0.59583 0.75232 0.80260
 O1904 O 0.58370 0.74813 0.83399
 H1905 H 0.52171 0.80389 0.79817
 H1906 H 0.57720 0.78335 0.75679
 C1907 C 0.56880 0.20430 0.67568
 C1908 C 0.58053 0.17086 0.66103
 C1909 C 0.61486 0.16389 0.67430
 C1910 C 0.62067 0.19350 0.69599
 O1911 O 0.59267 0.21720 0.69733
 H1912 H 0.56811 0.15614 0.64032
 H1913 H 0.63459 0.14230 0.66671
 C1914 C 0.06926 0.71357 0.16632
 C1915 C 0.08252 0.67815 0.15722
 C1916 C 0.11827 0.67724 0.16871
 C1917 C 0.12342 0.71209 0.18381
 O1918 O 0.09388 0.73383 0.18265
 H1919 H 0.06890 0.65669 0.14230
 H1920 H 0.13836 0.65451 0.16581
   
