data_POSCAR
  _audit_creation_date              2014-09-24
  _audit_creation_method            'ToBaCCo'
  _symmetry_space_group_name_H-M    'P1'
  _symmetry_Int_Tables_number       1
  _symmetry_cell_setting            triclinic
  loop_
  _symmetry_equiv_pos_as_xyz
 x,y,z
_cell_length_a 41.9917
_cell_length_b 41.2791
_cell_length_c 52.8179
_cell_angle_alpha 90.166800
_cell_angle_beta 89.896200
_cell_angle_gamma 89.873500
loop_
  _atom_site_label
  _atom_site_type_symbol
  _atom_site_fract_x
  _atom_site_fract_y
  _atom_site_fract_z
B1 B 0.26660 0.23852 0.21996
 B2 B 0.27321 0.27709 0.22876
 B3 B 0.23582 0.26455 0.22326
 B4 B 0.23224 0.22618 0.23352
 B5 B 0.26818 0.21492 0.24572
 B6 B 0.29389 0.24671 0.24260
 B7 B 0.24505 0.26593 0.27372
 B8 B 0.23839 0.22739 0.26494
 B9 B 0.27583 0.23976 0.27047
 B10 B 0.27942 0.27820 0.26027
 B11 B 0.24351 0.28943 0.24802
 B12 B 0.21786 0.25770 0.25106
 B13 B 0.72438 0.75732 0.27352
 B14 B 0.76080 0.77199 0.26715
 B15 B 0.75664 0.73297 0.27558
 B16 B 0.72268 0.71867 0.26280
 B17 B 0.70583 0.74962 0.24618
 B18 B 0.72967 0.78289 0.24887
 B19 B 0.76386 0.73566 0.22477
 B20 B 0.72760 0.72060 0.23132
 B21 B 0.73158 0.75966 0.22280
 B22 B 0.76561 0.77399 0.23551
 B23 B 0.78245 0.74326 0.25239
 B24 B 0.75890 0.70994 0.24942
 B25 B 0.73200 0.24293 -0.27810
 B26 B 0.76988 0.23497 -0.26999
 B27 B 0.75892 0.27324 -0.27630
 B28 B 0.72161 0.27892 -0.26530
 B29 B 0.70967 0.24340 -0.25181
 B30 B 0.73985 0.21595 -0.25490
 B31 B 0.76147 0.26602 -0.22563
 B32 B 0.72359 0.27399 -0.23369
 B33 B 0.73465 0.23569 -0.22748
 B34 B 0.77188 0.23011 -0.23848
 B35 B 0.78385 0.26558 -0.25193
 B36 B 0.75364 0.29311 -0.24882
 B37 B 0.26708 0.75266 -0.27359
 B38 B 0.22919 0.76060 -0.26544
 B39 B 0.24015 0.72233 -0.27205
 B40 B 0.27744 0.71657 -0.26119
 B41 B 0.28934 0.75195 -0.24737
 B42 B 0.25916 0.77944 -0.25011
 B43 B 0.23749 0.72919 -0.22132
 B44 B 0.27540 0.72120 -0.22955
 B45 B 0.26434 0.75947 -0.22293
 B46 B 0.22705 0.76525 -0.23386
 B47 B 0.21512 0.72986 -0.24760
 B48 B 0.24534 0.70228 -0.24476
 B49 B 1.24032 1.27108 0.72417
 B50 B 1.23329 1.23245 0.73227
 B51 B 1.27080 1.24438 0.72624
 B52 B 1.27520 1.28254 0.73717
 B53 B 1.23977 1.29405 0.75043
 B54 B 1.21360 1.26271 0.74721
 B55 B 1.26289 1.24202 0.77688
 B56 B 1.26994 1.28069 0.76878
 B57 B 1.23244 1.26860 0.77479
 B58 B 1.22807 1.23052 0.76378
 B59 B 1.26345 1.21905 0.75064
 B60 B 1.28968 1.25037 0.75385
 B61 B 0.77043 0.73269 0.77523
 B62 B 0.73294 0.72022 0.76977
 B63 B 0.73973 0.75876 0.77859
 B64 B 0.77403 0.77111 0.76500
 B65 B 0.78842 0.73962 0.74739
 B66 B 0.76275 0.70784 0.75049
 B67 B 0.73040 0.75767 0.72809
 B68 B 0.76784 0.77005 0.73358
 B69 B 0.76116 0.73154 0.72475
 B70 B 0.72677 0.71920 0.73825
 B71 B 0.71240 0.75066 0.75596
 B72 B 0.73816 0.78240 0.75293
 B73 B 1.24474 0.73478 0.22143
 B74 B 1.28256 0.72702 0.22986
 B75 B 1.27115 0.76535 0.22402
 B76 B 1.23367 0.77033 0.23467
 B77 B 1.22185 0.73445 0.24743
 B78 B 1.25239 0.70729 0.24434
 B79 B 1.27284 0.75705 0.27461
 B80 B 1.23507 0.76482 0.26614
 B81 B 1.24631 0.72647 0.27201
 B82 B 1.28390 0.72145 0.26144
 B83 B 1.29575 0.75741 0.24857
 B84 B 1.26522 0.78449 0.25167
 B85 B 0.75558 1.27187 0.27451
 B86 B 0.76697 1.23354 0.26842
 B87 B 0.72913 1.24124 0.27687
 B88 B 0.71802 1.27687 0.26391
 B89 B 0.74964 1.29111 0.24694
 B90 B 0.78024 1.26400 0.24991
 B91 B 0.73111 1.23306 0.22629
 B92 B 0.71958 1.27135 0.23230
 B93 B 0.75749 1.26368 0.22389
 B94 B 0.76857 1.22811 0.23691
 B95 B 0.73694 1.21388 0.25379
 B96 B 0.70636 1.24092 0.25085
 O97 O 0.54405 1.06039 0.04069
 O98 O 0.58033 1.02841 0.01958
 C99 C 0.57294 1.05156 0.03530
 O100 O 0.45408 0.94406 0.04188
 O101 O 0.41897 0.97421 0.01832
 C102 C 0.42555 0.95178 0.03477
 O103 O 0.54192 0.94800 0.04731
 O104 O 0.57935 0.97266 0.02219
 C105 C 0.57112 0.95451 0.04120
 O106 O 0.45625 1.06548 0.03591
 O107 O 0.41995 1.03262 0.01598
 C108 C 0.42734 1.05725 0.03023
 Zr109 Zr 0.50004 1.04303 0.02744
 O110 O 0.49741 1.04008 0.06731
 O111 O 0.50149 1.09418 0.02987
 Zr112 Zr 0.49863 0.96251 0.03090
 O113 O 0.49351 0.96668 0.07068
 O114 O 0.50143 0.91144 0.03383
 O115 O 0.52808 1.00268 0.03455
 O116 O 0.47082 1.00372 0.03339
 O117 O 0.45853 1.05875 -0.04846
 O118 O 0.42116 1.03000 -0.02611
 C119 C 0.42936 1.05233 -0.04218
 O120 O 0.54426 0.93833 -0.04465
 O121 O 0.58041 0.96899 -0.02249
 C122 C 0.57311 0.94592 -0.03831
 O123 O 0.45624 0.93713 -0.04267
 O124 O 0.42001 0.97136 -0.02383
 C125 C 0.42733 0.94639 -0.03777
 O126 O 0.54650 1.05369 -0.04970
 O127 O 0.58154 1.02519 -0.02479
 C128 C 0.57502 1.04611 -0.04243
 Zr129 Zr 0.50180 1.03817 -0.03641
 O130 O 0.49953 1.03200 -0.07619
 O131 O 0.50551 1.08894 -0.04087
 Zr132 Zr 0.50033 0.95778 -0.03285
 O133 O 0.50010 0.96101 -0.07276
 O134 O 0.50008 0.90660 -0.03515
 Zr135 Zr 0.54853 0.99943 -0.00193
 Zr136 Zr 0.45204 1.00138 -0.00345
 O137 O 0.47269 0.99817 -0.03970
 O138 O 0.53025 0.99698 -0.03909
 O139 O 0.47291 1.04775 -0.00522
 O140 O 0.52719 0.95343 -0.00016
 O141 O 0.52868 1.04621 -0.00429
 O142 O 0.47116 0.95418 -0.00114
 H143 H 0.45566 1.00510 0.04776
 H144 H 0.54100 0.93405 0.00132
 H145 H 0.45820 0.99740 -0.05449
 H146 H 0.54285 1.06534 -0.00492
 H147 H 0.48645 0.90224 0.02130
 H148 H 0.50708 0.89832 -0.01853
 H149 H 0.49876 0.93844 -0.07908
 H150 H 0.51926 1.02076 -0.08162
 H151 H 0.49266 1.09904 -0.02725
 H152 H 0.50919 1.10226 0.01338
 H153 H 0.49671 1.06273 0.07354
 H154 H 0.51052 0.98125 0.07684
 O155 O 1.04635 0.55588 0.54297
 O156 O 1.08149 0.52523 0.51955
 C157 C 1.07493 0.54723 0.53651
 O158 O 0.95455 0.44131 0.54021
 O159 O 0.91922 0.47384 0.51888
 C160 C 0.92589 0.45025 0.53430
 O161 O 1.04274 0.44076 0.54216
 O162 O 1.07972 0.46905 0.51898
 C163 C 1.07183 0.44741 0.53574
 O164 O 0.95856 0.56237 0.54044
 O165 O 0.92118 0.53209 0.51935
 C166 C 0.92934 0.55525 0.53478
 Zr167 Zr 1.00176 0.54014 0.52976
 O168 O 1.00049 0.53353 0.56939
 O169 O 1.00420 0.59093 0.53476
 Zr170 Zr 0.99918 0.45953 0.52897
 O171 O 0.99648 0.46152 0.56900
 O172 O 1.00025 0.40828 0.52987
 O173 O 1.02951 0.49880 0.53413
 O174 O 0.97212 0.50085 0.53418
 O175 O 0.95786 0.56247 0.45519
 O176 O 0.92085 0.53253 0.47698
 C177 C 0.92878 0.55564 0.46148
 O178 O 1.04213 0.44165 0.45129
 O179 O 1.07945 0.46959 0.47437
 C180 C 1.07132 0.44810 0.45748
 O181 O 0.95412 0.44119 0.45511
 O182 O 0.91902 0.47413 0.47652
 C183 C 0.92551 0.45032 0.46114
 O184 O 1.04583 0.55663 0.45212
 O185 O 1.08124 0.52578 0.47489
 C186 C 1.07451 0.54795 0.45823
 Zr187 Zr 1.00134 0.54102 0.46585
 O188 O 0.99778 0.53918 0.42587
 O189 O 1.00578 0.59207 0.46483
 Zr190 Zr 0.99878 0.46046 0.46505
 O191 O 0.99727 0.46720 0.42544
 O192 O 0.99804 0.40963 0.45991
 Zr193 Zr 1.04861 0.49855 0.49713
 Zr194 Zr 0.95212 0.50200 0.49771
 O195 O 0.97160 0.50172 0.46099
 O196 O 1.02904 0.49972 0.46034
 O197 O 0.97354 0.54817 0.49803
 O198 O 1.02647 0.45285 0.49680
 O199 O 1.02945 0.54573 0.49769
 O200 O 0.97056 0.45442 0.49714
 H201 H 0.95749 0.50131 0.54893
 H202 H 1.03970 0.43296 0.49661
 H203 H 0.95673 0.50230 0.44645
 H204 H 1.04394 0.56463 0.49770
 H205 H 0.98510 0.40042 0.51691
 H206 H 1.00311 0.39982 0.47645
 H207 H 0.99539 0.44526 0.41796
 H208 H 1.01636 0.52686 0.41942
 H209 H 0.99148 0.60102 0.47803
 H210 H 1.01018 0.60029 0.51825
 H211 H 1.00021 0.55556 0.57688
 H212 H 1.01583 0.47267 0.57517
 O213 O 0.94390 0.54804 -0.04164
 O214 O 0.97621 0.58269 -0.01934
 C215 C 0.95330 0.57679 -0.03524
 O216 O 0.93536 0.45872 0.04489
 O217 O 0.96356 0.41991 0.02300
 C218 C 0.94153 0.42886 0.03891
 O219 O 0.93902 0.54851 0.04282
 O220 O 0.97403 0.58282 0.02291
 C221 C 0.94959 0.57716 0.03741
 O222 O 0.94179 0.45876 -0.04549
 O223 O 0.96655 0.41990 -0.02141
 C224 C 0.94664 0.42893 -0.03890
 Zr225 Zr 0.96116 0.50212 -0.03134
 O226 O 0.91169 0.50459 -0.03853
 O227 O 0.97046 0.50319 -0.07065
 Zr228 Zr 0.95618 0.50230 0.03249
 O229 O 0.90579 0.50311 0.03192
 O230 O 0.95604 0.50583 0.07252
 O231 O 0.95420 0.53126 0.00045
 O232 O 0.95071 0.47458 0.00019
 O233 O 1.05534 0.45056 -0.04023
 O234 O 1.02188 0.41589 -0.01909
 C235 C 1.04523 0.42182 -0.03466
 O236 O 1.05749 0.53951 0.04788
 O237 O 1.03116 0.57847 0.02504
 C238 C 1.05260 0.56933 0.04130
 O239 O 1.04533 0.45067 0.05168
 O240 O 1.01806 0.41586 0.02556
 C241 C 1.03631 0.42195 0.04485
 O242 O 1.06410 0.53958 -0.03658
 O243 O 1.03356 0.57864 -0.01713
 C244 C 1.05734 0.56953 -0.03130
 Zr245 Zr 1.03992 0.49643 -0.02782
 O246 O 1.09000 0.49185 -0.03016
 O247 O 1.03847 0.49999 -0.06782
 Zr248 Zr 1.03540 0.49637 0.03599
 O249 O 1.08511 0.48851 0.03874
 O250 O 1.03220 0.50116 0.07584
 Zr251 Zr 1.00150 0.54813 0.00266
 Zr252 Zr 0.99476 0.45025 0.00215
 O253 O 1.04176 0.46773 0.00432
 O254 O 1.04606 0.52453 0.00452
 O255 O 0.99885 0.46972 -0.03465
 O256 O 0.99748 0.52797 0.03905
 O257 O 1.00277 0.52824 -0.03406
 O258 O 0.99332 0.47011 0.03905
 H259 H 0.93067 0.46202 -0.00065
 H260 H 0.99759 0.54288 0.05378
 H261 H 1.05949 0.45196 0.00557
 H262 H 1.00472 0.54343 -0.04848
 H263 H 0.96230 0.48447 0.07940
 H264 H 1.01700 0.48467 0.08197
 H265 H 1.09561 0.50372 0.02694
 H266 H 1.09752 0.48470 -0.01337
 H267 H 1.02912 0.47969 -0.07449
 H268 H 0.94951 0.50606 -0.07894
 H269 H 0.90080 0.50114 -0.02217
 H270 H 0.89927 0.51838 0.01847
 O271 O 0.55836 1.04465 0.54359
 O272 O 0.52876 1.08123 0.52086
 C273 C 0.55140 1.07391 0.53665
 O274 O 0.55494 0.95121 0.45779
 O275 O 0.52462 0.91615 0.48138
 C276 C 0.54654 0.92231 0.46458
 O277 O 0.56007 1.04070 0.45876
 O278 O 0.52931 1.07927 0.47859
 C279 C 0.55259 1.07057 0.46375
 O280 O 0.55035 0.95554 0.55053
 O281 O 0.52358 0.91818 0.52631
 C282 C 0.54224 0.92608 0.54498
 Zr283 Zr 0.53784 0.99987 0.53364
 O284 O 0.58799 0.99477 0.53503
 O285 O 0.53455 1.00454 0.57343
 Zr286 Zr 0.53860 0.99688 0.46992
 O287 O 0.58872 0.99485 0.46606
 O288 O 0.53334 0.99660 0.43015
 O289 O 0.54527 1.02696 0.50110
 O290 O 0.54353 0.96982 0.50268
 O291 O 0.44325 0.95832 0.54954
 O292 O 0.46996 0.91946 0.52657
 C293 C 0.45055 0.92841 0.54456
 O294 O 0.44003 1.04372 0.45792
 O295 O 0.47196 1.08077 0.47809
 C296 C 0.44876 1.07319 0.46288
 O297 O 0.44077 0.95410 0.45736
 O298 O 0.46905 0.91753 0.48116
 C299 C 0.44768 0.92481 0.46426
 O300 O 0.44023 1.04776 0.54339
 O301 O 0.47153 1.08278 0.52060
 C302 C 0.44861 1.07664 0.53652
 Zr303 Zr 0.45830 1.00200 0.53302
 O304 O 0.40794 0.99952 0.53270
 O305 O 0.45810 1.00746 0.57288
 Zr306 Zr 0.45932 0.99896 0.46926
 O307 O 0.40935 0.99906 0.46452
 O308 O 0.46451 1.00010 0.42935
 Zr309 Zr 0.49961 1.04839 0.50030
 Zr310 Zr 0.49730 0.95024 0.50276
 O311 O 0.45206 0.97227 0.50199
 O312 O 0.45300 1.02941 0.50037
 O313 O 0.49734 0.97209 0.53892
 O314 O 0.49972 1.02664 0.46421
 O315 O 0.49873 1.02983 0.53730
 O316 O 0.49835 0.96817 0.46537
 H317 H 0.56195 0.95486 0.50368
 H318 H 0.50029 1.04110 0.44927
 H319 H 0.43296 0.95826 0.50281
 H320 H 0.49897 1.04530 0.55168
 H321 H 0.55521 0.99692 0.42311
 H322 H 0.47257 0.97865 0.42381
 H323 H 0.39989 0.99455 0.48127
 H324 H 0.40014 1.01651 0.52105
 H325 H 0.47474 0.99287 0.57967
 H326 H 0.55671 1.00423 0.57987
 H327 H 0.59701 1.00941 0.52207
 H328 H 0.59739 0.98741 0.48242
 O329 O 1.05630 0.93736 0.53309
 O330 O 1.02841 0.96800 0.56183
 C331 C 1.04934 0.94608 0.55604
 O332 O 1.06120 1.05299 0.46378
 O333 O 1.03077 1.02468 0.43536
 C334 C 1.05241 1.04586 0.44094
 O335 O 1.06587 1.04725 0.53401
 O336 O 1.03291 1.02181 0.56229
 C337 C 1.05730 1.03973 0.55684
 O338 O 1.05053 0.93351 0.46285
 O339 O 1.02579 0.96775 0.43496
 C340 C 1.04317 0.94266 0.44014
 Zr341 Zr 1.03879 0.95396 0.49817
 O342 O 1.08887 0.95014 0.49419
 O343 O 1.03559 0.90296 0.50128
 Zr344 Zr 1.04552 1.03514 0.49885
 O345 O 1.09561 1.03153 0.49512
 O346 O 1.04923 1.08606 0.50278
 O347 O 1.04863 0.99373 0.52105
 O348 O 1.04795 0.99422 0.47629
 O349 O 0.94311 0.94427 0.46319
 O350 O 0.97307 0.97329 0.43486
 C351 C 0.95151 0.95199 0.44035
 O352 O 0.94738 1.05649 0.53451
 O353 O 0.97662 1.02634 0.56254
 C354 C 0.95478 1.04742 0.55721
 O355 O 0.95259 1.06250 0.46439
 O356 O 0.97764 1.02939 0.43567
 C357 C 0.95974 1.05397 0.44144
 O358 O 0.93913 0.94806 0.53376
 O359 O 0.97235 0.97296 0.56214
 C360 C 0.94782 0.95529 0.55662
 Zr361 Zr 0.95910 0.96091 0.49863
 O362 O 0.90893 0.96421 0.49550
 O363 O 0.95546 0.90989 0.50166
 Zr364 Zr 0.96598 1.04220 0.49929
 O365 O 0.91619 1.04904 0.49608
 O366 O 0.97183 1.09289 0.50358
 Zr367 Zr 1.00253 0.99760 0.53676
 Zr368 Zr 1.00202 0.99839 0.46078
 O369 O 0.95635 1.00232 0.47695
 O370 O 0.95631 1.00184 0.52144
 O371 O 0.99823 0.95123 0.47576
 O372 O 1.00632 1.04442 0.52143
 O373 O 0.99856 0.95117 0.52056
 O374 O 1.00612 1.04527 0.47645
 H375 H 1.06638 0.99261 0.46460
 H376 H 1.00781 1.06299 0.53330
 H377 H 0.93761 1.00415 0.46566
 H378 H 0.99703 0.93221 0.53196
 H379 H 1.03728 1.09605 0.48868
 H380 H 0.98316 1.10097 0.48843
 H381 H 0.90587 1.03285 0.50711
 H382 H 0.90130 0.97881 0.50910
 H383 H 0.96603 0.90022 0.48669
 H384 H 1.01973 0.89554 0.48875
 H385 H 1.09870 0.96141 0.50875
 H386 H 1.10318 1.01610 0.50808
 O387 O 0.42546 0.47637 0.03428
 O388 O 0.46531 0.48814 0.06247
 C389 C 0.43659 0.47900 0.05712
 O390 O 0.52534 0.42089 -0.03618
 O391 O 0.51394 0.46194 -0.06393
 C392 C 0.52284 0.43260 -0.05889
 O393 O 0.52104 0.41951 0.03471
 O394 O 0.51092 0.46096 0.06256
 C395 C 0.51838 0.43116 0.05748
 O396 O 0.42503 0.48060 -0.03651
 O397 O 0.46627 0.48972 -0.06408
 C398 C 0.43680 0.48262 -0.05919
 Zr399 Zr 0.44764 0.48490 -0.00101
 O400 O 0.42038 0.44198 -0.00367
 O401 O 0.40619 0.51403 -0.00006
 Zr402 Zr 0.51681 0.44295 -0.00068
 O403 O 0.49037 0.39947 -0.00383
 O404 O 0.55961 0.41606 0.00204
 O405 O 0.47872 0.45831 0.02167
 O406 O 0.47958 0.45883 -0.02284
 O407 O 0.48040 0.57706 -0.03596
 O408 O 0.49305 0.53633 -0.06388
 C409 C 0.48347 0.56547 -0.05873
 O410 O 0.57899 0.52154 0.03578
 O411 O 0.53819 0.50946 0.06306
 C412 C 0.56701 0.51879 0.05838
 O413 O 0.58128 0.51805 -0.03530
 O414 O 0.54092 0.50846 -0.06348
 C415 C 0.57016 0.51582 -0.05815
 O416 O 0.48398 0.57835 0.03503
 O417 O 0.49297 0.53669 0.06274
 C418 C 0.48615 0.56663 0.05775
 Zr419 Zr 0.48852 0.55504 -0.00047
 O420 O 0.51442 0.59887 -0.00304
 O421 O 0.44532 0.58143 0.00178
 Zr422 Zr 0.55783 0.51328 -0.00006
 O423 O 0.58411 0.55689 -0.00227
 O424 O 0.60067 0.48637 0.00290
 Zr425 Zr 0.50218 0.49892 0.03701
 Zr426 Zr 0.50325 0.49910 -0.03818
 O427 O 0.52643 0.53941 -0.02219
 O428 O 0.52602 0.53963 0.02229
 O429 O 0.46304 0.52317 -0.02337
 O430 O 0.54210 0.47503 0.02161
 O431 O 0.46270 0.52290 0.02131
 O432 O 0.54309 0.47492 -0.02294
 H433 H 0.47025 0.44237 -0.03432
 H434 H 0.55815 0.46550 0.03313
 H435 H 0.53585 0.55594 -0.03351
 H436 H 0.44643 0.53245 0.03273
 H437 H 0.57443 0.42461 -0.01087
 H438 H 0.60222 0.47227 -0.01224
 H439 H 0.57585 0.57157 0.01105
 H440 H 0.52900 0.59985 0.01163
 H441 H 0.43009 0.57076 -0.00981
 H442 H 0.38795 0.49883 0.00014
 H443 H 0.42990 0.42619 0.00816
 H444 H 0.47658 0.39781 0.01132
 C445 C 0.30248 1.18976 0.15041
 C446 C 0.27341 1.18046 0.16133
 C447 C 0.26156 1.19654 0.18274
 C448 C 0.27834 1.22253 0.19377
 C449 C 0.30761 1.23151 0.18288
 C450 C 0.31925 1.21572 0.16131
 C451 C 0.31623 1.17156 0.12865
 N452 N 0.34154 1.18361 0.11577
 N453 N 0.35526 1.16661 0.09727
 C454 C 0.34440 1.13674 0.09079
 N455 N 0.31881 1.12477 0.10346
 N456 N 0.30496 1.14187 0.12195
 C457 C 0.36193 1.11695 0.07172
 C458 C 0.35483 1.08397 0.06764
 C459 C 0.37474 1.06457 0.05242
 C460 C 0.40208 1.07788 0.04126
 C461 C 0.40785 1.11119 0.04394
 C462 C 0.38800 1.13049 0.05885
 H463 H 0.26000 1.16039 0.15358
 H464 H 0.23964 1.18779 0.19101
 H465 H 0.32211 1.25024 0.19135
 H466 H 0.34202 1.22321 0.15369
 H467 H 0.33484 1.07278 0.07716
 H468 H 0.36994 1.03888 0.05075
 H469 H 0.42865 1.12209 0.03532
 H470 H 0.39402 1.15582 0.06116
 C471 C 0.79914 0.68388 0.65540
 C472 C 0.81585 0.70909 0.66734
 C473 C 0.80348 0.72445 0.68878
 C474 C 0.77346 0.71595 0.69856
 C475 C 0.75660 0.69079 0.68647
 C476 C 0.76927 0.67497 0.66516
 C477 C 0.81393 0.66624 0.63377
 N478 N 0.80309 0.63676 0.62609
 N479 N 0.81813 0.62018 0.60787
 C480 C 0.84457 0.63247 0.59651
 N481 N 0.85495 0.66214 0.60395
 N482 N 0.84003 0.67860 0.62214
 C483 C 0.86341 0.61336 0.57776
 C484 C 0.89134 0.62670 0.56750
 C485 C 0.91167 0.60803 0.55251
 C486 C 0.90461 0.57553 0.54707
 C487 C 0.87575 0.56252 0.55585
 C488 C 0.85536 0.58125 0.57122
 H489 H 0.83917 0.71631 0.66067
 H490 H 0.81805 0.74251 0.69803
 H491 H 0.73402 0.68250 0.69388
 H492 H 0.75588 0.65545 0.65657
 H493 H 0.89828 0.65136 0.57178
 H494 H 0.93357 0.61883 0.54575
 H495 H 0.86981 0.53747 0.55197
 H496 H 0.83395 0.57024 0.57869
 C497 C 0.69222 0.81128 0.15646
 C498 C 0.67256 0.79249 0.17214
 C499 C 0.68530 0.77472 0.19211
 C500 C 0.71817 0.77499 0.19705
 C501 C 0.73813 0.79248 0.18051
 C502 C 0.72530 0.81028 0.16033
 C503 C 0.67747 0.83375 0.13795
 N504 N 0.69440 0.84749 0.11878
 N505 N 0.68068 0.86873 0.10312
 C506 C 0.64963 0.87734 0.10630
 N507 N 0.63288 0.86347 0.12538
 N508 N 0.64644 0.84217 0.14079
 C509 C 0.63358 0.90135 0.08982
 C510 C 0.60699 0.91800 0.09940
 C511 C 0.58830 0.93707 0.08366
 C512 C 0.59552 0.94003 0.05783
 C513 C 0.62345 0.92549 0.04839
 C514 C 0.64246 0.90621 0.06437
 H515 H 0.64698 0.79240 0.16958
 H516 H 0.66891 0.76213 0.20436
 H517 H 0.76358 0.79341 0.18367
 H518 H 0.74112 0.82447 0.14856
 H519 H 0.59987 0.91541 0.11901
 H520 H 0.56721 0.94849 0.09152
 H521 H 0.62944 0.92739 0.02850
 H522 H 0.66296 0.89375 0.05653
 C523 C 1.20202 0.31959 0.65571
 C524 C 1.23297 0.32657 0.66418
 C525 C 1.24565 0.31054 0.68529
 C526 C 1.22760 0.28730 0.69851
 C527 C 1.19649 0.28083 0.69006
 C528 C 1.18413 0.29627 0.66879
 C529 C 1.18745 0.33711 0.63410
 N530 N 1.16097 0.32506 0.62287
 N531 N 1.14614 0.34147 0.60475
 C532 C 1.15696 0.37078 0.59699
 N533 N 1.18381 0.38275 0.60793
 N534 N 1.19880 0.36620 0.62608
 C535 C 1.13808 0.38986 0.57840
 C536 C 1.14628 0.42180 0.57159
 C537 C 1.12576 0.44044 0.55637
 C538 C 1.09664 0.42750 0.54812
 C539 C 1.08946 0.39515 0.55383
 C540 C 1.10989 0.37658 0.56859
 H541 H 1.24728 0.34457 0.65461
 H542 H 1.26927 0.31709 0.69159
 H543 H 1.18128 0.26402 0.70006
 H544 H 1.16003 0.29058 0.66308
 H545 H 1.16792 0.43273 0.57869
 H546 H 1.13186 0.46528 0.55213
 H547 H 1.06740 0.38436 0.54738
 H548 H 1.10284 0.35203 0.57304
 C549 C 0.69757 1.17795 -0.16312
 C550 C 0.73013 1.17703 -0.16918
 C551 C 0.74211 1.19566 -0.18920
 C552 C 0.72172 1.21533 -0.20376
 C553 C 0.68898 1.21522 -0.19802
 C554 C 0.67720 1.19729 -0.17775
 C555 C 0.68431 1.15894 -0.14183
 N556 N 0.65720 1.16903 -0.13025
 N557 N 0.64403 1.15160 -0.11190
 C558 C 0.65720 1.12316 -0.10436
 N559 N 0.68450 1.11302 -0.11584
 N560 N 0.69790 1.13068 -0.13414
 C561 C 0.64055 1.10324 -0.08510
 C562 C 0.64603 1.06966 -0.08272
 C563 C 0.62614 1.05064 -0.06730
 C564 C 0.60069 1.06510 -0.05419
 C565 C 0.59676 1.09878 -0.05524
 C566 C 0.61645 1.11762 -0.07039
 H567 H 0.74635 1.16217 -0.15829
 H568 H 0.76727 1.19420 -0.19341
 H569 H 0.67225 1.22924 -0.20909
 H570 H 0.65189 1.19814 -0.17382
 H571 H 0.66445 1.05789 -0.09380
 H572 H 0.62936 1.02462 -0.06687
 H573 H 0.57738 1.11042 -0.04511
 H574 H 0.61183 1.14341 -0.07138
 C575 C 1.20584 0.67027 0.33600
 C576 C 1.23875 0.66920 0.33116
 C577 C 1.25189 0.68707 0.31108
 C578 C 1.23229 0.70600 0.29530
 C579 C 1.19923 0.70579 0.29976
 C580 C 1.18633 0.68868 0.31999
 C581 C 1.19115 0.65289 0.35758
 N582 N 1.16352 0.66418 0.36762
 N583 N 1.14881 0.64823 0.38604
 C584 C 1.16087 0.62012 0.39527
 N585 N 1.18874 0.60880 0.38540
 N586 N 1.20369 0.62498 0.36699
 C587 C 1.14241 0.60183 0.41457
 C588 C 1.14842 0.56892 0.41991
 C589 C 1.12750 0.55125 0.43550
 C590 C 1.10028 0.56628 0.44572
 C591 C 1.09557 0.59950 0.44161
 C592 C 1.11635 0.61703 0.42640
 H593 H 1.25435 0.65505 0.34314
 H594 H 1.27730 0.68587 0.30790
 H595 H 1.18306 0.71940 0.28789
 H596 H 1.16081 0.68967 0.32293
 H597 H 1.16836 0.55652 0.41116
 H598 H 1.13157 0.52563 0.43838
 H599 H 1.07502 0.61179 0.44956
 H600 H 1.11119 0.64240 0.42318
 C601 C 0.30220 0.81547 -0.15778
 C602 C 0.32228 0.79621 -0.17286
 C603 C 0.31026 0.77901 -0.19345
 C604 C 0.27751 0.77946 -0.19906
 C605 C 0.25742 0.79919 -0.18415
 C606 C 0.26967 0.81714 -0.16379
 C607 C 0.31581 0.83369 -0.13617
 N608 N 0.30244 0.86170 -0.12757
 N609 N 0.31632 0.87879 -0.10913
 C610 C 0.34393 0.86834 -0.09843
 N611 N 0.35684 0.84010 -0.10684
 N612 N 0.34317 0.82322 -0.12530
 C613 C 0.36131 0.88792 -0.07931
 C614 C 0.38732 0.87401 -0.06662
 C615 C 0.40739 0.89298 -0.05183
 C616 C 0.40197 0.92635 -0.04911
 C617 C 0.37464 0.94008 -0.06006
 C618 C 0.35444 0.92096 -0.07516
 H619 H 0.34758 0.79480 -0.16902
 H620 H 0.32682 0.76503 -0.20481
 H621 H 0.23231 0.80119 -0.18833
 H622 H 0.25368 0.83203 -0.15260
 H623 H 0.39307 0.84859 -0.06896
 H624 H 0.42806 0.88170 -0.04330
 H625 H 0.37005 0.96581 -0.05828
 H626 H 0.33450 0.93237 -0.08459
 C627 C 0.79508 0.32737 0.33935
 C628 C 0.76225 0.32850 0.33430
 C629 C 0.74945 0.31093 0.31390
 C630 C 0.76930 0.29223 0.29801
 C631 C 0.80229 0.29242 0.30267
 C632 C 0.81487 0.30924 0.32322
 C633 C 0.80939 0.34448 0.36125
 N634 N 0.83683 0.33309 0.37141
 N635 N 0.85125 0.34891 0.39008
 C636 C 0.83905 0.37698 0.39943
 N637 N 0.81134 0.38837 0.38946
 N638 N 0.79669 0.37232 0.37080
 C639 C 0.85730 0.39534 0.41882
 C640 C 0.85124 0.42830 0.42404
 C641 C 0.87220 0.44625 0.43939
 C642 C 0.89950 0.43143 0.44951
 C643 C 0.90418 0.39812 0.44568
 C644 C 0.88334 0.38031 0.43068
 H645 H 0.74646 0.34247 0.34636
 H646 H 0.72408 0.31216 0.31058
 H647 H 0.81863 0.27898 0.29073
 H648 H 0.84034 0.30825 0.32633
 H649 H 0.83131 0.44058 0.41528
 H650 H 0.86818 0.47196 0.44203
 H651 H 0.92483 0.38602 0.45354
 H652 H 0.88851 0.35490 0.42754
 C653 C 1.17203 0.30189 0.16315
 C654 C 1.17956 0.26876 0.16404
 C655 C 1.20016 0.25682 0.18272
 C656 C 1.21422 0.27785 0.20051
 C657 C 1.20733 0.31117 0.19888
 C658 C 1.18648 0.32294 0.18057
 C659 C 1.14816 0.31481 0.14517
 N660 N 1.13205 0.34232 0.15108
 N661 N 1.11078 0.35469 0.13520
 C662 C 1.10466 0.34024 0.11262
 N663 N 1.12074 0.31262 0.10660
 N664 N 1.14194 0.30000 0.12267
 C665 C 1.08222 0.35595 0.09476
 C666 C 1.08363 0.35025 0.06846
 C667 C 1.06633 0.36998 0.05169
 C668 C 1.04753 0.39546 0.06114
 C669 C 1.04419 0.39930 0.08738
 C670 C 1.06119 0.37973 0.10398
 H671 H 1.16862 0.25193 0.15093
 H672 H 1.20430 0.23104 0.18355
 H673 H 1.21769 0.32838 0.21196
 H674 H 1.18148 0.34868 0.18020
 H675 H 1.09958 0.33204 0.06080
 H676 H 1.06944 0.36690 0.03146
 H677 H 1.02971 0.41879 0.09503
 H678 H 1.05904 0.38441 0.12410
 C679 C 0.66915 0.79841 0.66742
 C680 C 0.67493 0.76487 0.66831
 C681 C 0.69450 0.75170 0.68728
 C682 C 0.70911 0.77186 0.70541
 C683 C 0.70375 0.80547 0.70388
 C684 C 0.68410 0.81845 0.68529
 C685 C 0.64690 0.81316 0.64889
 N686 N 0.63361 0.84236 0.65420
 N687 N 0.61429 0.85673 0.63780
 C688 C 0.60734 0.84272 0.61521
 N689 N 0.62049 0.81332 0.60980
 N690 N 0.63979 0.79873 0.62639
 C691 C 0.58689 0.86051 0.59692
 C692 C 0.58532 0.85217 0.57103
 C693 C 0.56908 0.87231 0.55380
 C694 C 0.55450 0.90101 0.56233
 C695 C 0.55451 0.90808 0.58830
 C696 C 0.57031 0.88813 0.60533
 H697 H 0.66364 0.74879 0.65484
 H698 H 0.69763 0.72574 0.68796
 H699 H 0.71464 0.82213 0.71712
 H700 H 0.68058 0.84445 0.68500
 H701 H 0.59775 0.83099 0.56395
 H702 H 0.56940 0.86645 0.53380
 H703 H 0.54304 0.92985 0.59539
 H704 H 0.57041 0.89512 0.62511
 C705 C 1.18877 0.69230 -0.15255
 C706 C 1.18295 0.72394 -0.16110
 C707 C 1.19891 0.73598 -0.18240
 C708 C 1.22103 0.71665 -0.19573
 C709 C 1.22640 0.68483 -0.18723
 C710 C 1.21086 0.67301 -0.16578
 C711 C 1.17118 0.67871 -0.13061
 N712 N 1.18175 0.65132 -0.11921
 N713 N 1.16520 0.63773 -0.10057
 C714 C 1.13726 0.65081 -0.09247
 N715 N 1.12681 0.67849 -0.10364
 N716 N 1.14349 0.69222 -0.12227
 C717 C 1.11773 0.63347 -0.07332
 C718 C 1.08607 0.64270 -0.06794
 C719 C 1.06661 0.62311 -0.05268
 C720 C 1.07851 0.59399 -0.04276
 C721 C 1.11062 0.58599 -0.04680
 C722 C 1.12999 0.60549 -0.06176
 H723 H 1.16589 0.73934 -0.15145
 H724 H 1.19321 0.76021 -0.18868
 H725 H 1.24248 0.66878 -0.19728
 H726 H 1.21558 0.64832 -0.15998
 H727 H 1.07590 0.66417 -0.07646
 H728 H 1.04184 0.62967 -0.04995
 H729 H 1.12048 0.56381 -0.03914
 H730 H 1.15430 0.59777 -0.06512
 C731 C 0.68108 1.20252 0.34532
 C732 C 0.67442 1.23411 0.33697
 C733 C 0.69038 1.24698 0.31592
 C734 C 0.71322 1.22848 0.30264
 C735 C 0.71943 1.19676 0.31101
 C736 C 0.70406 1.18422 0.33222
 C737 C 0.66349 1.18766 0.36674
 N738 N 0.67507 1.16054 0.37791
 N739 N 0.65855 1.14540 0.39580
 C740 C 0.62960 1.15654 0.40336
 N741 N 0.61811 1.18402 0.39248
 N742 N 0.63477 1.19932 0.37458
 C743 C 0.61040 1.13740 0.42169
 C744 C 0.57870 1.14568 0.42780
 C745 C 0.55998 1.12493 0.44275
 C746 C 0.57263 1.09550 0.45153
 C747 C 0.60468 1.08820 0.44650
 C748 C 0.62332 1.10887 0.43193
 H749 H 0.65666 1.24875 0.34656
 H750 H 0.68405 1.27108 0.30968
 H751 H 0.73592 1.18116 0.30094
 H752 H 0.70949 1.15961 0.33782
 H753 H 0.56804 1.16754 0.42031
 H754 H 0.53529 1.13107 0.44635
 H755 H 0.61520 1.06590 0.45334
 H756 H 0.64766 1.10176 0.42798
 C757 C 0.82269 0.70534 0.15854
 C758 C 0.78964 0.70979 0.15602
 C759 C 0.77111 0.71989 0.17667
 C760 C 0.78500 0.72542 0.20053
 C761 C 0.81824 0.72156 0.20279
 C762 C 0.83678 0.71177 0.18211
 C763 C 0.84216 0.69261 0.13714
 N764 N 0.87448 0.69166 0.13858
 N765 N 0.89181 0.67822 0.12014
 C766 C 0.87757 0.66508 0.09945
 N767 N 0.84528 0.66646 0.09786
 N768 N 0.82797 0.68000 0.11624
 C769 C 0.89644 0.64677 0.08030
 C770 C 0.88104 0.62516 0.06378
 C771 C 0.89865 0.60397 0.04858
 C772 C 0.93205 0.60434 0.04907
 C773 C 0.94766 0.62744 0.06408
 C774 C 0.92998 0.64836 0.07975
 H775 H 0.77795 0.70518 0.13812
 H776 H 0.74574 0.72259 0.17395
 H777 H 0.83020 0.72571 0.22062
 H778 H 0.86214 0.70855 0.18481
 H779 H 0.85533 0.62327 0.06360
 H780 H 0.88616 0.58623 0.03718
 H781 H 0.97343 0.62783 0.06496
 H782 H 0.94258 0.66489 0.09212
 C783 C 0.32638 1.20534 0.66105
 C784 C 0.30854 1.18491 0.67680
 C785 C 0.29166 1.19732 0.69742
 C786 C 0.29107 1.23082 0.70255
 C787 C 0.30941 1.25131 0.68701
 C788 C 0.32704 1.23868 0.66655
 C789 C 0.34369 1.19125 0.63904
 N790 N 0.37068 1.20491 0.62957
 N791 N 0.38671 1.19070 0.61064
 C792 C 0.37617 1.16249 0.60023
 N793 N 0.34900 1.14926 0.60955
 N794 N 0.33321 1.16323 0.62852
 C795 C 0.39436 1.14488 0.58021
 C796 C 0.37956 1.11934 0.56714
 C797 C 0.39713 1.09881 0.55145
 C798 C 0.42999 1.10329 0.54813
 C799 C 0.44460 1.13026 0.55948
 C800 C 0.42687 1.15095 0.57547
 H801 H 0.30786 1.15904 0.67335
 H802 H 0.27851 1.18046 0.70908
 H803 H 0.31036 1.27707 0.69067
 H804 H 0.34072 1.25502 0.65482
 H805 H 0.35451 1.11422 0.56989
 H806 H 0.38524 1.07833 0.54278
 H807 H 0.46997 1.13404 0.55737
 H808 H 0.43898 1.17050 0.58517
 C809 C 0.81234 0.30372 -0.15813
 C810 C 0.81803 0.27203 -0.16678
 C811 C 0.80113 0.25955 -0.18748
 C812 C 0.77821 0.27852 -0.20013
 C813 C 0.77277 0.31029 -0.19140
 C814 C 0.78920 0.32251 -0.17052
 C815 C 0.83107 0.31798 -0.13705
 N816 N 0.82097 0.34567 -0.12569
 N817 N 0.83839 0.35990 -0.10787
 C818 C 0.86679 0.34724 -0.10056
 N819 N 0.87685 0.31927 -0.11169
 N820 N 0.85928 0.30488 -0.12953
 C821 C 0.88686 0.36517 -0.08205
 C822 C 0.91829 0.35557 -0.07627
 C823 C 0.93778 0.37524 -0.06097
 C824 C 0.92614 0.40484 -0.05158
 C825 C 0.89436 0.41341 -0.05630
 C826 C 0.87498 0.39384 -0.07116
 H827 H 0.83579 0.25697 -0.15773
 H828 H 0.80684 0.23536 -0.19396
 H829 H 0.75609 0.32609 -0.20094
 H830 H 0.78442 0.34718 -0.16460
 H831 H 0.92816 0.33354 -0.08426
 H832 H 0.96223 0.36816 -0.05753
 H833 H 0.88466 0.43591 -0.04895
 H834 H 0.85087 0.40192 -0.07478
 C835 C 0.32114 0.79466 0.34347
 C836 C 0.32778 0.76325 0.33455
 C837 C 0.31170 0.75076 0.31340
 C838 C 0.28876 0.76946 0.30053
 C839 C 0.28253 0.80100 0.30947
 C840 C 0.29804 0.81317 0.33081
 C841 C 0.33873 0.80899 0.36517
 N842 N 0.32689 0.83551 0.37716
 N843 N 0.34325 0.85005 0.39548
 C844 C 0.37230 0.83890 0.40267
 N845 N 0.38410 0.81205 0.39091
 N846 N 0.36759 0.79734 0.37258
 C847 C 0.39121 0.85746 0.42162
 C848 C 0.42330 0.84996 0.42698
 C849 C 0.44168 0.87061 0.44237
 C850 C 0.42827 0.89914 0.45233
 C851 C 0.39586 0.90544 0.44818
 C852 C 0.37757 0.88487 0.43321
 H853 H 0.34557 0.74843 0.34380
 H854 H 0.31801 0.72677 0.30679
 H855 H 0.26595 0.81673 0.29975
 H856 H 0.29259 0.83764 0.33689
 H857 H 0.43454 0.82894 0.41849
 H858 H 0.46664 0.86529 0.44529
 H859 H 0.38483 0.92710 0.45588
 H860 H 0.35291 0.89131 0.42993
 C861 C 1.18485 1.16164 0.31492
 C862 C 1.20760 1.18296 0.32489
 C863 C 1.22502 1.20299 0.30907
 C864 C 1.22037 1.20228 0.28275
 C865 C 1.19848 1.17991 0.27264
 C866 C 1.18088 1.15977 0.28859
 C867 C 1.16431 1.14322 0.33230
 N868 N 1.14359 1.12042 0.32376
 N869 N 1.12433 1.10507 0.33983
 C870 C 1.12498 1.11221 0.36495
 N871 N 1.14579 1.13484 0.37334
 N872 N 1.16501 1.15002 0.35739
 C873 C 1.10393 1.09596 0.38324
 C874 C 1.10153 1.10856 0.40786
 C875 C 1.08404 1.09253 0.42619
 C876 C 1.06842 1.06346 0.42042
 C877 C 1.06943 1.05141 0.39552
 C878 C 1.08718 1.06758 0.37699
 H879 H 1.21149 1.18488 0.34510
 H880 H 1.24139 1.21980 0.31778
 H881 H 1.19426 1.17835 0.25247
 H882 H 1.16356 1.14348 0.28035
 H883 H 1.11360 1.13070 0.41321
 H884 H 1.08314 1.10283 0.44507
 H885 H 1.05741 1.02907 0.39062
 H886 H 1.08852 1.05745 0.35809
 C887 C 0.68760 0.64572 -0.18207
 C888 C 0.68185 0.64635 -0.20823
 C889 C 0.69576 0.67017 -0.22337
 C890 C 0.71547 0.69415 -0.21267
 C891 C 0.72040 0.69378 -0.18635
 C892 C 0.70692 0.66976 -0.17131
 C893 C 0.67341 0.62043 -0.16586
 N894 N 0.68456 0.61553 -0.14208
 N895 N 0.67101 0.59387 -0.12693
 C896 C 0.64571 0.57618 -0.13490
 N897 N 0.63475 0.58079 -0.15882
 N898 N 0.64842 0.60238 -0.17405
 C899 C 0.62865 0.55490 -0.11695
 C900 C 0.59807 0.54321 -0.12265
 C901 C 0.57967 0.52828 -0.10396
 C902 C 0.59158 0.52472 -0.07925
 C903 C 0.62316 0.53382 -0.07425
 C904 C 0.64149 0.54877 -0.09288
 H905 H 0.66703 0.62813 -0.21708
 H906 H 0.69120 0.66942 -0.24352
 H907 H 0.73511 0.71178 -0.17720
 H908 H 0.71160 0.67015 -0.15116
 H909 H 0.58759 0.54731 -0.14110
 H910 H 0.55550 0.52127 -0.10852
 H911 H 0.63323 0.53102 -0.05553
 H912 H 0.66518 0.55694 -0.08799
 C913 C 0.83171 1.17550 0.68119
 C914 C 0.81055 1.19796 0.67055
 C915 C 0.79173 1.21739 0.68597
 C916 C 0.79340 1.21474 0.71243
 C917 C 0.81556 1.19304 0.72306
 C918 C 0.83459 1.17364 0.70755
 C919 C 0.84956 1.15347 0.66456
 N920 N 0.87531 1.13671 0.67300
 N921 N 0.89126 1.11699 0.65748
 C922 C 0.88177 1.11315 0.63309
 N923 N 0.85588 1.12971 0.62488
 N924 N 0.84010 1.14943 0.64028
 C925 C 0.89977 1.09297 0.61512
 C926 C 0.88697 1.08736 0.59100
 C927 C 0.90489 1.07193 0.57255
 C928 C 0.93594 1.06149 0.57781
 C929 C 0.94832 1.06524 0.60229
 C930 C 0.93032 1.08109 0.62089
 H931 H 0.80816 1.20031 0.65023
 H932 H 0.77538 1.23396 0.67694
 H933 H 0.81793 1.19043 0.74334
 H934 H 0.85084 1.15656 0.71621
 H935 H 0.86330 1.09562 0.58605
 H936 H 0.89449 1.06852 0.55397
 H937 H 0.97218 1.05703 0.60672
 H938 H 0.94067 1.08498 0.63941
 C939 C 0.35618 0.68122 0.18186
 C940 C 0.35553 0.67540 0.20799
 C941 C 0.33163 0.68899 0.22306
 C942 C 0.30766 0.70846 0.21227
 C943 C 0.30774 0.71295 0.18590
 C944 C 0.33182 0.69976 0.17093
 C945 C 0.38203 0.66810 0.16592
 N946 N 0.38708 0.68010 0.14238
 N947 N 0.40935 0.66741 0.12742
 C948 C 0.42753 0.64220 0.13538
 N949 N 0.42283 0.63050 0.15910
 N950 N 0.40062 0.64333 0.17414
 C951 C 0.44900 0.62552 0.11742
 C952 C 0.46059 0.59433 0.12275
 C953 C 0.47496 0.57583 0.10373
 C954 C 0.47799 0.58825 0.07910
 C955 C 0.46923 0.62057 0.07450
 C956 C 0.45483 0.63900 0.09347
 H957 H 0.37392 0.66099 0.21692
 H958 H 0.33252 0.68466 0.24324
 H959 H 0.28974 0.72750 0.17672
 H960 H 0.33138 0.70425 0.15074
 H961 H 0.45673 0.58339 0.14110
 H962 H 0.48185 0.55113 0.10797
 H963 H 0.47178 0.63108 0.05585
 H964 H 0.44669 0.66321 0.08893
 C965 C 1.16883 0.81940 0.68408
 C966 C 1.16561 0.82241 0.71043
 C967 C 1.18423 0.80338 0.72655
 C968 C 1.20623 0.78091 0.71655
 C969 C 1.20851 0.77752 0.69015
 C970 C 1.19016 0.79644 0.67419
 C971 C 1.15108 0.84038 0.66653
 N972 N 1.15963 0.84113 0.64181
 N973 N 1.14398 0.85954 0.62549
 C974 C 1.11907 0.87808 0.63312
 N975 N 1.11047 0.87759 0.65795
 N976 N 1.12628 0.85912 0.67439
 C977 C 1.10148 0.89728 0.61423
 C978 C 1.07363 0.91453 0.62053
 C979 C 1.05655 0.93092 0.60174
 C980 C 1.06707 0.93003 0.57647
 C981 C 1.09525 0.91341 0.57045
 C982 C 1.11225 0.89737 0.58906
 H983 H 1.14928 0.83991 0.71858
 H984 H 1.18166 0.80675 0.74678
 H985 H 1.22497 0.76066 0.68149
 H986 H 1.19305 0.79320 0.65396
 H987 H 1.06482 0.91494 0.63981
 H988 H 1.03491 0.94370 0.60686
 H989 H 1.10430 0.91270 0.55124
 H990 H 1.13376 0.88469 0.58350
 C991 C 0.64707 0.31740 0.18345
 C992 C 0.67146 0.29841 0.17286
 C993 C 0.69503 0.28506 0.18812
 C994 C 0.69465 0.28978 0.21450
 C995 C 0.67055 0.30947 0.22501
 C996 C 0.64714 0.32328 0.20963
 C997 C 0.62191 0.33084 0.16702
 N998 N 0.60309 0.35569 0.17496
 N999 N 0.58151 0.36863 0.15949
 C1000 C 0.57770 0.35700 0.13559
 N1001 N 0.59616 0.33180 0.12789
 N1002 N 0.61778 0.31900 0.14327
 C1003 C 0.55651 0.37340 0.11731
 C1004 C 0.55153 0.35981 0.09323
 C1005 C 0.53689 0.37780 0.07420
 C1006 C 0.52696 0.40979 0.07884
 C1007 C 0.52938 0.42234 0.10355
 C1008 C 0.54401 0.40429 0.12262
 H1009 H 0.67235 0.29373 0.15269
 H1010 H 0.71308 0.27031 0.17909
 H1011 H 0.66929 0.31387 0.24519
 H1012 H 0.62871 0.33798 0.21832
 H1013 H 0.56038 0.33583 0.08865
 H1014 H 0.53505 0.36720 0.05547
 H1015 H 0.52175 0.44683 0.10782
 H1016 H 0.54722 0.41534 0.14106
 C1017 C 0.81383 0.83904 0.31650
 C1018 C 0.79232 0.81670 0.32682
 C1019 C 0.77498 0.79626 0.31121
 C1020 C 0.77840 0.79765 0.28479
 C1021 C 0.79897 0.82104 0.27439
 C1022 C 0.81653 0.84154 0.29011
 C1023 C 0.83467 0.85770 0.33353
 N1024 N 0.85547 0.88014 0.32457
 N1025 N 0.87547 0.89523 0.34023
 C1026 C 0.87549 0.88815 0.36533
 N1027 N 0.85447 0.86603 0.37418
 N1028 N 0.83453 0.85113 0.35863
 C1029 C 0.89772 0.90366 0.38310
 C1030 C 0.90208 0.88975 0.40704
 C1031 C 0.92046 0.90518 0.42513
 C1032 C 0.93504 0.93491 0.41980
 C1033 C 0.93220 0.94822 0.39545
 C1034 C 0.91355 0.93264 0.37715
 H1035 H 0.78944 0.81422 0.34709
 H1036 H 0.75963 0.77868 0.32013
 H1037 H 0.80227 0.82308 0.25413
 H1038 H 0.83285 0.85864 0.28160
 H1039 H 0.89079 0.86708 0.41205
 H1040 H 0.92276 0.89398 0.44356
 H1041 H 0.94333 0.97113 0.39092
 H1042 H 0.91067 0.94375 0.35874
 C1043 C 0.31801 0.35321 -0.18277
 C1044 C 0.32346 0.35259 -0.20897
 C1045 C 0.30870 0.32935 -0.22418
 C1046 C 0.28841 0.30591 -0.21351
 C1047 C 0.28394 0.30605 -0.18711
 C1048 C 0.29826 0.32958 -0.17199
 C1049 C 0.33286 0.37823 -0.16665
 N1050 N 0.32174 0.38384 -0.14291
 N1051 N 0.33570 0.40553 -0.12796
 C1052 C 0.36137 0.42254 -0.13610
 N1053 N 0.37232 0.41719 -0.15997
 N1054 N 0.35824 0.39558 -0.17499
 C1055 C 0.37871 0.44388 -0.11836
 C1056 C 0.40993 0.45401 -0.12371
 C1057 C 0.42835 0.46877 -0.10493
 C1058 C 0.41579 0.47377 -0.08052
 C1059 C 0.38370 0.46618 -0.07595
 C1060 C 0.36537 0.45141 -0.09466
 H1061 H 0.33869 0.37041 -0.21784
 H1062 H 0.31306 0.33016 -0.24437
 H1063 H 0.26897 0.28829 -0.17799
 H1064 H 0.29389 0.32914 -0.15178
 H1065 H 0.42081 0.44880 -0.14188
 H1066 H 0.45298 0.47448 -0.10913
 H1067 H 0.37314 0.47003 -0.05747
 H1068 H 0.34117 0.44448 -0.09010
 C1069 C 1.17411 0.30397 -0.16043
 C1070 C 1.19278 0.32540 -0.17473
 C1071 C 1.21078 0.31424 -0.19525
 C1072 C 1.21170 0.28107 -0.20149
 C1073 C 1.19267 0.25967 -0.18727
 C1074 C 1.17394 0.27103 -0.16709
 C1075 C 1.15516 0.31635 -0.13873
 N1076 N 1.12762 0.30179 -0.13133
 N1077 N 1.11023 0.31405 -0.11235
 C1078 C 1.11995 0.34109 -0.09982
 N1079 N 1.14762 0.35531 -0.10712
 N1080 N 1.16477 0.34330 -0.12617
 C1081 C 1.10045 0.35634 -0.07951
 C1082 C 1.11499 0.37823 -0.06277
 C1083 C 1.09669 0.39736 -0.04655
 C1084 C 1.06336 0.39513 -0.04654
 C1085 C 1.04868 0.37149 -0.06168
 C1086 C 1.06718 0.35209 -0.07807
 H1087 H 1.19309 0.35104 -0.17030
 H1088 H 1.22431 0.33172 -0.20605
 H1089 H 1.19186 0.23415 -0.19183
 H1090 H 1.15967 0.25397 -0.15647
 H1091 H 1.14054 0.38173 -0.06302
 H1092 H 1.10853 0.41538 -0.03498
 H1093 H 1.02298 0.36966 -0.06220
 H1094 H 1.05530 0.33535 -0.09071
 C1095 C 0.66759 0.79447 0.33874
 C1096 C 0.68450 0.81545 0.32280
 C1097 C 0.70164 0.80356 0.30216
 C1098 C 0.70346 0.77008 0.29714
 C1099 C 0.68578 0.74901 0.31271
 C1100 C 0.66789 0.76111 0.33324
 C1101 C 0.65046 0.80817 0.36097
 N1102 N 0.62354 0.79442 0.37047
 N1103 N 0.60760 0.80850 0.38952
 C1104 C 0.61818 0.83667 0.39999
 N1105 N 0.64531 0.84994 0.39066
 N1106 N 0.66100 0.83611 0.37159
 C1107 C 0.60011 0.85420 0.42012
 C1108 C 0.61506 0.87961 0.43325
 C1109 C 0.59766 0.90006 0.44910
 C1110 C 0.56481 0.89572 0.45250
 C1111 C 0.55003 0.86890 0.44108
 C1112 C 0.56759 0.84825 0.42493
 H1113 H 0.68431 0.84134 0.32617
 H1114 H 0.71405 0.82089 0.29041
 H1115 H 0.68560 0.72324 0.30902
 H1116 H 0.65482 0.74437 0.34508
 H1117 H 0.64012 0.88466 0.43045
 H1118 H 0.60971 0.92037 0.45790
 H1119 H 0.52470 0.86515 0.44332
 H1120 H 0.55537 0.82882 0.41518
 C1121 C 0.82866 0.69662 -0.16076
 C1122 C 0.81099 0.67518 -0.17586
 C1123 C 0.79327 0.68656 -0.19631
 C1124 C 0.79168 0.71989 -0.20167
 C1125 C 0.80996 0.74128 -0.18681
 C1126 C 0.82841 0.72973 -0.16667
 C1127 C 0.84673 0.68408 -0.13884
 N1128 N 0.87373 0.69880 -0.13049
 N1129 N 0.89033 0.68637 -0.11126
 C1130 C 0.88027 0.65900 -0.09944
 N1131 N 0.85312 0.64465 -0.10768
 N1132 N 0.83677 0.65684 -0.12697
 C1133 C 0.89904 0.64340 -0.07906
 C1134 C 0.88409 0.62062 -0.06337
 C1135 C 0.90198 0.60092 -0.04747
 C1136 C 0.93524 0.60358 -0.04671
 C1137 C 0.95023 0.62815 -0.06062
 C1138 C 0.93216 0.64805 -0.07676
 H1139 H 0.81108 0.64942 -0.17200
 H1140 H 0.78028 0.66914 -0.20762
 H1141 H 0.81024 0.76696 -0.19071
 H1142 H 0.84198 0.74676 -0.15542
 H1143 H 0.85861 0.61682 -0.06431
 H1144 H 0.88995 0.58220 -0.03678
 H1145 H 0.97592 0.63035 -0.06046
 H1146 H 0.94432 0.66548 -0.08859
 C1147 C 0.33124 1.20016 0.33496
 C1148 C 0.31457 1.17973 0.31838
 C1149 C 0.29795 1.19233 0.29783
 C1150 C 0.29659 1.22596 0.29357
 C1151 C 0.31395 1.24645 0.30983
 C1152 C 0.33126 1.23365 0.33026
 C1153 C 0.34773 1.18591 0.35713
 N1154 N 0.37353 1.20024 0.36795
 N1155 N 0.38877 1.18603 0.38717
 C1156 C 0.37855 1.15714 0.39649
 N1157 N 0.35257 1.14322 0.38580
 N1158 N 0.33757 1.15721 0.36656
 C1159 C 0.39584 1.13969 0.41689
 C1160 C 0.38097 1.11337 0.42882
 C1161 C 0.39795 1.09325 0.44504
 C1162 C 0.43030 1.09885 0.44998
 C1163 C 0.44482 1.12652 0.43970
 C1164 C 0.42769 1.14682 0.42320
 H1165 H 0.31441 1.15376 0.32122
 H1166 H 0.28543 1.17553 0.28565
 H1167 H 0.31419 1.27235 0.30686
 H1168 H 0.34405 1.24998 0.34266
 H1169 H 0.35636 1.10744 0.42486
 H1170 H 0.38602 1.07236 0.45299
 H1171 H 0.46979 1.13129 0.44316
 H1172 H 0.43979 1.16701 0.41440
 C1173 C 1.19344 0.69699 0.15419
 C1174 C 1.18728 0.72843 0.16320
 C1175 C 1.20453 0.74108 0.18365
 C1176 C 1.22835 0.72257 0.19567
 C1177 C 1.23453 0.69120 0.18639
 C1178 C 1.21768 0.67880 0.16577
 C1179 C 1.17384 0.68226 0.13378
 N1180 N 1.18342 0.65431 0.12253
 N1181 N 1.16515 0.63959 0.10550
 C1182 C 1.13636 0.65202 0.09891
 N1183 N 1.12684 0.68027 0.10990
 N1184 N 1.14525 0.69512 0.12695
 C1185 C 1.11531 0.63358 0.08142
 C1186 C 1.08387 0.64356 0.07606
 C1187 C 1.06345 0.62364 0.06176
 C1188 C 1.07415 0.59338 0.05294
 C1189 C 1.10589 0.58432 0.05726
 C1190 C 1.12620 0.60414 0.07114
 H1191 H 1.16872 0.74307 0.15477
 H1192 H 1.19823 0.76493 0.19055
 H1193 H 1.25188 0.67570 0.19546
 H1194 H 1.22292 0.65435 0.15953
 H1195 H 1.07474 0.66617 0.08359
 H1196 H 1.03903 0.63111 0.05868
 H1197 H 1.11489 0.56130 0.05036
 H1198 H 1.15025 0.59570 0.07450
 C1199 C 0.68195 1.20422 0.65422
 C1200 C 0.67693 1.23641 0.66203
 C1201 C 0.69353 1.24917 0.68283
 C1202 C 0.71536 1.22997 0.69643
 C1203 C 0.71992 1.19766 0.68861
 C1204 C 0.70391 1.18518 0.66764
 C1205 C 0.66389 1.18971 0.63286
 N1206 N 0.67472 1.16225 0.62158
 N1207 N 0.65789 1.14766 0.60357
 C1208 C 0.62935 1.15971 0.59600
 N1209 N 0.61855 1.18745 0.60706
 N1210 N 0.63555 1.20222 0.62507
 C1211 C 0.60983 1.14125 0.57740
 C1212 C 0.57766 1.14900 0.57262
 C1213 C 0.55863 1.12833 0.55778
 C1214 C 0.57151 1.09960 0.54774
 C1215 C 0.60401 1.09309 0.55121
 C1216 C 0.62293 1.11365 0.56570
 H1217 H 0.66004 1.25166 0.65217
 H1218 H 0.68852 1.27382 0.68859
 H1219 H 0.73571 1.18164 0.69886
 H1220 H 0.70809 1.16014 0.66241
 H1221 H 0.56685 1.17016 0.58124
 H1222 H 0.53357 1.13376 0.55543
 H1223 H 0.61460 1.07125 0.54343
 H1224 H 0.64763 1.10706 0.56853
 C1225 C 0.80727 0.30114 0.15585
 C1226 C 0.78353 0.31951 0.16803
 C1227 C 0.76743 0.30733 0.18908
 C1228 C 0.77379 0.27598 0.19815
 C1229 C 0.79732 0.25741 0.18569
 C1230 C 0.81387 0.26985 0.16483
 C1231 C 0.82582 0.31553 0.13475
 N1232 N 0.85463 0.30332 0.12768
 N1233 N 0.87211 0.31800 0.10996
 C1234 C 0.86138 0.34539 0.09851
 N1235 N 0.83237 0.35714 0.10534
 N1236 N 0.81502 0.34261 0.12305
 C1237 C 0.88145 0.36376 0.08032
 C1238 C 0.86923 0.39208 0.06925
 C1239 C 0.88868 0.41214 0.05485
 C1240 C 0.92083 0.40437 0.05082
 C1241 C 0.93284 0.37511 0.06039
 C1242 C 0.91330 0.35498 0.07518
 H1243 H 0.77807 0.34388 0.16186
 H1244 H 0.75036 0.32292 0.19851
 H1245 H 0.80381 0.23361 0.19248
 H1246 H 0.83214 0.25513 0.15594
 H1247 H 0.84480 0.39952 0.07243
 H1248 H 0.87873 0.43439 0.04738
 H1249 H 0.95763 0.36871 0.05757
 H1250 H 0.92344 0.33325 0.08333
 C1251 C 0.31864 0.79482 0.66095
 C1252 C 0.32202 0.76167 0.66646
 C1253 C 0.30479 0.74766 0.68647
 C1254 C 0.28363 0.76645 0.70120
 C1255 C 0.27979 0.79934 0.69499
 C1256 C 0.29673 0.81316 0.67514
 C1257 C 0.33916 0.81152 0.64212
 N1258 N 0.34058 0.84432 0.64239
 N1259 N 0.35977 0.86014 0.62674
 C1260 C 0.37847 0.84401 0.60996
 N1261 N 0.37689 0.81108 0.60928
 N1262 N 0.35769 0.79512 0.62518
 C1263 C 0.40036 0.86283 0.59357
 C1264 C 0.41066 0.85182 0.56963
 C1265 C 0.42834 0.87238 0.55363
 C1266 C 0.43581 0.90407 0.56148
 C1267 C 0.42710 0.91396 0.58600
 C1268 C 0.40967 0.89375 0.60172
 H1269 H 0.33885 0.74689 0.65600
 H1270 H 0.30905 0.72249 0.69095
 H1271 H 0.26414 0.81496 0.70585
 H1272 H 0.29322 0.83870 0.67142
 H1273 H 0.40394 0.82799 0.56291
 H1274 H 0.43492 0.86409 0.53486
 H1275 H 0.43314 0.93789 0.59294
 H1276 H 0.40287 0.90277 0.62025
 C1277 C 0.30061 1.19077 -0.15579
 C1278 C 0.31836 1.21520 -0.16773
 C1279 C 0.30604 1.23191 -0.18847
 C1280 C 0.27520 1.22544 -0.19748
 C1281 C 0.25715 1.20143 -0.18513
 C1282 C 0.26974 1.18425 -0.16459
 C1283 C 0.31521 1.17143 -0.13516
 N1284 N 0.30344 1.14199 -0.12842
 N1285 N 0.31830 1.12381 -0.11118
 C1286 C 0.34544 1.13445 -0.09990
 N1287 N 0.35675 1.16409 -0.10639
 N1288 N 0.34204 1.18213 -0.12362
 C1289 C 0.36402 1.11368 -0.08227
 C1290 C 0.39205 1.12599 -0.07144
 C1291 C 0.41222 1.10604 -0.05757
 C1292 C 0.40490 1.07326 -0.05381
 C1293 C 0.37596 1.06112 -0.06311
 C1294 C 0.35570 1.08119 -0.07740
 H1295 H 0.34237 1.22068 -0.16166
 H1296 H 0.32116 1.24943 -0.19778
 H1297 H 0.23367 1.19498 -0.19179
 H1298 H 0.25547 1.16553 -0.15585
 H1299 H 0.39914 1.15089 -0.07438
 H1300 H 0.43416 1.11614 -0.05026
 H1301 H 0.36985 1.03589 -0.06043
 H1302 H 0.33418 1.07098 -0.08535
 C1303 C 0.79750 0.68584 0.34373
 C1304 C 0.76642 0.67846 0.33582
 C1305 C 0.75297 0.69419 0.31490
 C1306 C 0.77030 0.71762 0.30129
 C1307 C 0.80141 0.72487 0.30935
 C1308 C 0.81461 0.70960 0.33044
 C1309 C 0.81284 0.66809 0.36492
 N1310 N 0.84022 0.67941 0.37525
 N1311 N 0.85534 0.66278 0.39312
 C1312 C 0.84390 0.63397 0.40150
 N1313 N 0.81626 0.62272 0.39140
 N1314 N 0.80101 0.63949 0.37353
 C1315 C 0.86270 0.61462 0.41996
 C1316 C 0.85438 0.58258 0.42639
 C1317 C 0.87482 0.56354 0.44134
 C1318 C 0.90394 0.57620 0.44982
 C1319 C 0.91121 0.60868 0.44461
 C1320 C 0.89088 0.62764 0.43002
 H1321 H 0.75261 0.66023 0.34559
 H1322 H 0.72934 0.68713 0.30903
 H1323 H 0.81595 0.74210 0.29915
 H1324 H 0.83872 0.71574 0.33582
 H1325 H 0.83276 0.57184 0.41908
 H1326 H 0.86872 0.53852 0.44507
 H1327 H 0.93331 0.61923 0.45121
 H1328 H 0.89796 0.65227 0.42588
 C1329 C 0.69418 1.17660 0.16119
 C1330 C 0.67357 1.19432 0.17696
 C1331 C 0.68528 1.21149 0.19767
 C1332 C 0.71814 1.21244 0.20274
 C1333 C 0.73875 1.19409 0.18723
 C1334 C 0.72687 1.17621 0.16672
 C1335 C 0.68106 1.15902 0.13912
 N1336 N 0.69522 1.13185 0.12970
 N1337 N 0.68198 1.11547 0.11058
 C1338 C 0.65430 1.12590 0.09999
 N1339 N 0.64056 1.15327 0.10926
 N1340 N 0.65357 1.16941 0.12841
 C1341 C 0.63782 1.10725 0.07988
 C1342 C 0.61298 1.12211 0.06644
 C1343 C 0.59340 1.10400 0.05064
 C1344 C 0.59819 1.07057 0.04769
 C1345 C 0.62450 1.05589 0.05939
 C1346 C 0.64423 1.07416 0.07548
 H1347 H 0.64817 1.19469 0.17343
 H1348 H 0.66843 1.22457 0.20941
 H1349 H 0.76405 1.19331 0.19092
 H1350 H 0.74327 1.16256 0.15496
 H1351 H 0.60771 1.14762 0.06894
 H1352 H 0.57352 1.11594 0.04149
 H1353 H 0.62854 1.03009 0.05741
 H1354 H 0.66330 1.06207 0.08551
 C1355 C 1.20164 0.66780 0.66224
 C1356 C 1.18188 0.68733 0.67739
 C1357 C 1.19411 0.70396 0.69817
 C1358 C 1.22676 0.70255 0.70403
 C1359 C 1.24651 0.68244 0.68914
 C1360 C 1.23403 0.66511 0.66851
 C1361 C 1.18783 0.65075 0.64010
 N1362 N 1.20051 0.62269 0.63092
 N1363 N 1.18647 0.60685 0.61187
 C1364 C 1.15941 0.61866 0.60112
 N1365 N 1.14720 0.64690 0.61014
 N1366 N 1.16101 0.66253 0.62919
 C1367 C 1.14187 0.60064 0.58114
 C1368 C 1.11678 0.61618 0.56844
 C1369 C 1.09649 0.59878 0.55270
 C1370 C 1.10077 0.56541 0.54898
 C1371 C 1.12719 0.55006 0.55999
 C1372 C 1.14762 0.56758 0.57607
 H1373 H 1.15669 0.68952 0.67336
 H1374 H 1.17781 0.71838 0.70944
 H1375 H 1.27153 0.67981 0.69347
 H1376 H 1.24978 0.65001 0.65728
 H1377 H 1.11190 0.64167 0.57144
 H1378 H 1.07649 0.61126 0.54416
 H1379 H 1.13086 0.52431 0.55742
 H1380 H 1.16683 0.55492 0.58549
 C1381 C 0.70285 0.80889 -0.15285
 C1382 C 0.68536 0.78400 -0.16451
 C1383 C 0.69747 0.76756 -0.18559
 C1384 C 0.72790 0.77475 -0.19524
 C1385 C 0.74570 0.79923 -0.18315
 C1386 C 0.73330 0.81613 -0.16227
 C1387 C 0.68836 0.82806 -0.13192
 N1388 N 0.69952 0.85793 -0.12557
 N1389 N 0.68472 0.87594 -0.10807
 C1390 C 0.65826 0.86473 -0.09610
 N1391 N 0.64757 0.83467 -0.10220
 N1392 N 0.66222 0.81678 -0.11970
 C1393 C 0.63968 0.88532 -0.07818
 C1394 C 0.61256 0.87238 -0.06637
 C1395 C 0.59213 0.89211 -0.05238
 C1396 C 0.59830 0.92530 -0.04948
 C1397 C 0.62647 0.93813 -0.05968
 C1398 C 0.64698 0.91827 -0.07408
 H1399 H 0.66165 0.77800 -0.15798
 H1400 H 0.68248 0.74974 -0.19470
 H1401 H 0.76879 0.80632 -0.19029
 H1402 H 0.74735 0.83524 -0.15378
 H1403 H 0.60630 0.84712 -0.06869
 H1404 H 0.57075 0.88153 -0.04441
 H1405 H 0.63167 0.96368 -0.05770
 H1406 H 0.66778 0.92899 -0.08278
 C1407 C 1.20576 0.31544 0.34179
 C1408 C 1.23670 0.32261 0.33331
 C1409 C 1.24992 0.30594 0.31257
 C1410 C 1.23244 0.28185 0.29972
 C1411 C 1.20148 0.27494 0.30839
 C1412 C 1.18861 0.29102 0.32928
 C1413 C 1.19029 0.33400 0.36264
 N1414 N 1.16346 0.32234 0.37362
 N1415 N 1.14772 0.33962 0.39086
 C1416 C 1.15792 0.36948 0.39796
 N1417 N 1.18512 0.38109 0.38730
 N1418 N 1.20101 0.36366 0.37001
 C1419 C 1.13812 0.38934 0.41559
 C1420 C 1.14675 0.42100 0.42300
 C1421 C 1.12588 0.44011 0.43773
 C1422 C 1.09594 0.42797 0.44486
 C1423 C 1.08811 0.39598 0.43834
 C1424 C 1.10887 0.37695 0.42409
 H1425 H 1.25051 0.34139 0.34247
 H1426 H 1.27340 0.31282 0.30612
 H1427 H 1.18662 0.25752 0.29867
 H1428 H 1.16457 0.28505 0.33502
 H1429 H 1.16919 0.43126 0.41692
 H1430 H 1.13253 0.46465 0.44263
 H1431 H 1.06544 0.38572 0.44392
 H1432 H 1.10135 0.35269 0.41910
 C1433 C 0.30726 0.82278 0.15920
 C1434 C 0.27470 0.82314 0.16523
 C1435 C 0.26312 0.80484 0.18556
 C1436 C 0.28391 0.78608 0.20048
 C1437 C 0.31667 0.78690 0.19488
 C1438 C 0.32808 0.80449 0.17427
 C1439 C 0.31992 0.84110 0.13733
 N1440 N 0.34723 0.83124 0.12592
 N1441 N 0.35959 0.84794 0.10681
 C1442 C 0.34534 0.87537 0.09829
 N1443 N 0.31789 0.88531 0.10963
 N1444 N 0.30531 0.86837 0.12869
 C1445 C 0.36106 0.89465 0.07817
 C1446 C 0.35480 0.92796 0.07498
 C1447 C 0.37417 0.94679 0.05903
 C1448 C 0.39990 0.93242 0.04620
 C1449 C 0.40439 0.89883 0.04787
 C1450 C 0.38518 0.88016 0.06356
 H1451 H 0.25812 0.83715 0.15400
 H1452 H 0.23790 0.80571 0.18961
 H1453 H 0.33363 0.77350 0.20619
 H1454 H 0.35339 0.80407 0.17033
 H1455 H 0.33630 0.93978 0.08594
 H1456 H 0.37048 0.97274 0.05813
 H1457 H 0.42398 0.88722 0.03797
 H1458 H 0.39029 0.85452 0.06515
 C1459 C 0.79798 0.32779 0.65825
 C1460 C 0.76550 0.33039 0.66442
 C1461 C 0.75283 0.31302 0.68493
 C1462 C 0.77246 0.29297 0.69983
 C1463 C 0.80516 0.29155 0.69402
 C1464 C 0.81757 0.30820 0.67334
 C1465 C 0.81208 0.34505 0.63633
 N1466 N 0.83914 0.33349 0.62554
 N1467 N 0.85322 0.34930 0.60672
 C1468 C 0.84103 0.37754 0.59783
 N1469 N 0.81373 0.38915 0.60847
 N1470 N 0.79944 0.37312 0.62728
 C1471 C 0.85881 0.39576 0.57808
 C1472 C 0.85259 0.42867 0.57290
 C1473 C 0.87308 0.44643 0.55703
 C1474 C 0.90006 0.43149 0.54634
 C1475 C 0.90482 0.39822 0.55015
 C1476 C 0.88447 0.38059 0.56568
 H1477 H 0.74985 0.34547 0.65321
 H1478 H 0.72775 0.31557 0.68918
 H1479 H 0.82139 0.27717 0.70526
 H1480 H 0.84280 0.30601 0.66938
 H1481 H 0.83293 0.44105 0.58206
 H1482 H 0.86900 0.47212 0.55443
 H1483 H 0.92523 0.38602 0.54187
 H1484 H 0.88975 0.35522 0.56877
 C1485 C 1.18167 1.16373 0.68292
 C1486 C 1.20304 1.18618 0.67256
 C1487 C 1.21897 1.20803 0.68806
 C1488 C 1.21443 1.20778 0.71443
 C1489 C 1.19281 1.18533 0.72476
 C1490 C 1.17651 1.16364 0.70915
 C1491 C 1.16475 1.14102 0.66611
 N1492 N 1.13803 1.12535 0.67387
 N1493 N 1.12210 1.10619 0.65799
 C1494 C 1.13243 1.10184 0.63382
 N1495 N 1.15938 1.11714 0.62631
 N1496 N 1.17518 1.13632 0.64209
 C1497 C 1.11397 1.08272 0.61530
 C1498 C 1.12614 1.07829 0.59077
 C1499 C 1.10787 1.06356 0.57215
 C1500 C 1.07697 1.05269 0.57756
 C1501 C 1.06518 1.05555 0.60238
 C1502 C 1.08354 1.07058 0.62114
 H1503 H 1.20723 1.18721 0.65234
 H1504 H 1.23479 1.22519 0.67915
 H1505 H 1.18833 1.18437 0.74492
 H1506 H 1.16009 1.14662 0.71764
 H1507 H 1.14960 1.08694 0.58564
 H1508 H 1.11787 1.06115 0.55332
 H1509 H 1.04145 1.04722 0.60705
 H1510 H 1.07356 1.07354 0.63992
 C1511 C 0.68182 0.64331 0.18673
 C1512 C 0.71487 0.64335 0.19025
 C1513 C 0.72924 0.66771 0.20445
 C1514 C 0.71104 0.69327 0.21469
 C1515 C 0.67779 0.69257 0.21176
 C1516 C 0.66334 0.66790 0.19788
 C1517 C 0.66677 0.61827 0.17092
 N1518 N 0.63498 0.61287 0.17243
 N1519 N 0.62102 0.59185 0.15691
 C1520 C 0.63825 0.57548 0.13925
 N1521 N 0.67015 0.58052 0.13800
 N1522 N 0.68416 0.60140 0.15363
 C1523 C 0.62196 0.55562 0.12007
 C1524 C 0.63677 0.54883 0.09677
 C1525 C 0.61930 0.53540 0.07690
 C1526 C 0.58687 0.52819 0.08014
 C1527 C 0.57279 0.53277 0.10405
 C1528 C 0.59015 0.54645 0.12378
 H1529 H 0.72964 0.62437 0.18223
 H1530 H 0.75471 0.66638 0.20734
 H1531 H 0.66271 0.71073 0.22045
 H1532 H 0.63771 0.66833 0.19564
 H1533 H 0.66132 0.55557 0.09340
 H1534 H 0.63087 0.53186 0.05875
 H1535 H 0.54787 0.52736 0.10721
 H1536 H 0.57825 0.55107 0.14164
 C1537 C 1.16630 0.81707 0.31466
 C1538 C 1.18828 0.79542 0.32528
 C1539 C 1.21031 0.77943 0.31006
 C1540 C 1.21062 0.78415 0.28372
 C1541 C 1.18865 0.80611 0.27315
 C1542 C 1.16683 0.82253 0.28849
 C1543 C 1.14329 0.83395 0.33110
 N1544 N 1.12846 0.86151 0.32344
 N1545 N 1.10901 0.87749 0.33908
 C1546 C 1.10353 0.86632 0.36285
 N1547 N 1.11797 0.83849 0.37023
 N1548 N 1.13745 0.82265 0.35471
 C1549 C 1.08439 0.88500 0.38122
 C1550 C 1.07841 0.87184 0.40523
 C1551 C 1.06423 0.89051 0.42402
 C1552 C 1.05544 0.92270 0.41923
 C1553 C 1.05965 0.93548 0.39485
 C1554 C 1.07416 0.91675 0.37595
 H1555 H 1.18875 0.79104 0.34548
 H1556 H 1.22703 0.76327 0.31912
 H1557 H 1.18806 0.81069 0.25300
 H1558 H 1.15015 0.83917 0.27983
 H1559 H 1.08553 0.84734 0.40985
 H1560 H 1.06066 0.87982 0.44252
 H1561 H 1.05291 0.96024 0.39071
 H1562 H 1.07837 0.92749 0.35757
 C1563 C 0.65125 0.32012 -0.18513
 C1564 C 0.65118 0.32565 -0.21129
 C1565 C 0.67483 0.31213 -0.22659
 C1566 C 0.69918 0.29302 -0.21597
 C1567 C 0.69987 0.28895 -0.18957
 C1568 C 0.67610 0.30213 -0.17436
 C1569 C 0.62560 0.33282 -0.16894
 N1570 N 0.62073 0.32015 -0.14560
 N1571 N 0.59881 0.33262 -0.13025
 C1572 C 0.58081 0.35824 -0.13761
 N1573 N 0.58523 0.37052 -0.16119
 N1574 N 0.60709 0.35792 -0.17663
 C1575 C 0.56006 0.37474 -0.11912
 C1576 C 0.54787 0.40575 -0.12421
 C1577 C 0.53395 0.42402 -0.10490
 C1578 C 0.53197 0.41150 -0.08023
 C1579 C 0.54167 0.37947 -0.07573
 C1580 C 0.55558 0.36126 -0.09500
 H1581 H 0.63234 0.33962 -0.22004
 H1582 H 0.67338 0.31604 -0.24680
 H1583 H 0.71809 0.27453 -0.18054
 H1584 H 0.67707 0.29794 -0.15415
 H1585 H 0.55071 0.41668 -0.14268
 H1586 H 0.52629 0.44851 -0.10899
 H1587 H 0.53994 0.36894 -0.05703
 H1588 H 0.56429 0.33721 -0.09062
 C1589 C 0.83451 1.18026 0.31722
 C1590 C 0.81259 1.20219 0.32776
 C1591 C 0.79115 1.21868 0.31243
 C1592 C 0.79122 1.21409 0.28606
 C1593 C 0.81311 1.19188 0.27553
 C1594 C 0.83444 1.17506 0.29097
 C1595 C 0.85692 1.16288 0.33384
 N1596 N 0.87274 1.13600 0.32575
 N1597 N 0.89181 1.11976 0.34141
 C1598 C 0.89591 1.12993 0.36568
 N1599 N 0.88040 1.15703 0.37353
 N1600 N 0.86131 1.17313 0.35798
 C1601 C 0.91523 1.11124 0.38388
 C1602 C 0.91986 1.12358 0.40838
 C1603 C 0.93509 1.10514 0.42668
 C1604 C 0.94624 1.07389 0.42098
 C1605 C 0.94310 1.06194 0.39618
 C1606 C 0.92758 1.08048 0.37774
 H1607 H 0.81170 1.20645 0.34799
 H1608 H 0.77444 1.23496 0.32149
 H1609 H 0.81393 1.18734 0.25536
 H1610 H 0.85104 1.15823 0.28232
 H1611 H 0.91104 1.14731 0.41373
 H1612 H 0.93769 1.11529 0.44550
 H1613 H 0.95163 1.03794 0.39129
 H1614 H 0.92445 1.07036 0.35898
 C1615 C 0.34780 0.67404 -0.18181
 C1616 C 0.32314 0.69217 -0.17075
 C1617 C 0.29933 0.70563 -0.18568
 C1618 C 0.29983 0.70181 -0.21213
 C1619 C 0.32396 0.68254 -0.22306
 C1620 C 0.34758 0.66863 -0.20803
 C1621 C 0.37376 0.66142 -0.16595
 N1622 N 0.39328 0.63744 -0.17441
 N1623 N 0.41596 0.62545 -0.15953
 C1624 C 0.42022 0.63727 -0.13575
 N1625 N 0.40105 0.66162 -0.12753
 N1626 N 0.37832 0.67348 -0.14232
 C1627 C 0.44252 0.62166 -0.11803
 C1628 C 0.44835 0.63581 -0.09428
 C1629 C 0.46374 0.61825 -0.07542
 C1630 C 0.47362 0.58623 -0.07999
 C1631 C 0.47039 0.57317 -0.10445
 C1632 C 0.45499 0.59078 -0.12334
 H1633 H 0.32239 0.69639 -0.15052
 H1634 H 0.28130 0.72013 -0.17639
 H1635 H 0.32529 0.67879 -0.24332
 H1636 H 0.36620 0.65451 -0.21705
 H1637 H 0.43959 0.65985 -0.08979
 H1638 H 0.46633 0.62922 -0.05689
 H1639 H 0.47798 0.54865 -0.10861
 H1640 H 0.45113 0.57936 -0.14156
 C1641 C 0.81822 0.83967 0.68435
 C1642 C 0.79491 0.81900 0.67435
 C1643 C 0.77906 0.79713 0.68984
 C1644 C 0.78565 0.79560 0.71589
 C1645 C 0.80886 0.81660 0.72593
 C1646 C 0.82507 0.83829 0.71030
 C1647 C 0.83592 0.86149 0.66735
 N1648 N 0.86397 0.87506 0.67452
 N1649 N 0.88082 0.89285 0.65830
 C1650 C 0.87016 0.89783 0.63435
 N1651 N 0.84186 0.88472 0.62745
 N1652 N 0.82512 0.86693 0.64358
 C1653 C 0.88958 0.91518 0.61541
 C1654 C 0.87805 0.91847 0.59062
 C1655 C 0.89697 0.93191 0.57183
 C1656 C 0.92789 0.94264 0.57731
 C1657 C 0.93917 0.94066 0.60228
 C1658 C 0.92017 0.92688 0.62121
 H1659 H 0.78940 0.81906 0.65433
 H1660 H 0.76228 0.78086 0.68103
 H1661 H 0.81492 0.81617 0.74583
 H1662 H 0.84299 0.85392 0.71853
 H1663 H 0.85455 0.91001 0.58547
 H1664 H 0.88735 0.93362 0.55287
 H1665 H 0.96290 0.94893 0.60701
 H1666 H 0.92968 0.92478 0.64018
 C1667 C 0.31709 0.35253 0.18118
 C1668 C 0.29652 0.32957 0.17045
 C1669 C 0.28342 0.30516 0.18527
 C1670 C 0.29016 0.30335 0.21129
 C1671 C 0.31115 0.32620 0.22190
 C1672 C 0.32453 0.35044 0.20699
 C1673 C 0.33137 0.37787 0.16527
 N1674 N 0.35741 0.39449 0.17318
 N1675 N 0.37157 0.41575 0.15799
 C1676 C 0.36006 0.42142 0.13441
 N1677 N 0.33362 0.40529 0.12676
 N1678 N 0.31956 0.38397 0.14188
 C1679 C 0.37779 0.44169 0.11631
 C1680 C 0.36484 0.44816 0.09235
 C1681 C 0.38351 0.46201 0.07349
 C1682 C 0.41551 0.46970 0.07820
 C1683 C 0.42777 0.46557 0.10273
 C1684 C 0.40905 0.45168 0.12164
 H1685 H 0.29076 0.33019 0.15048
 H1686 H 0.26808 0.28773 0.17614
 H1687 H 0.31719 0.32572 0.24180
 H1688 H 0.34045 0.36775 0.21575
 H1689 H 0.34068 0.44116 0.08777
 H1690 H 0.37320 0.46539 0.05490
 H1691 H 0.45229 0.47150 0.10698
 H1692 H 0.41965 0.44718 0.13998
   
