data_POSCAR
  _audit_creation_date              2014-09-24
  _audit_creation_method            'ToBaCCo'
  _symmetry_space_group_name_H-M    'P1'
  _symmetry_Int_Tables_number       1
  _symmetry_cell_setting            triclinic
  loop_
  _symmetry_equiv_pos_as_xyz
 x,y,z
_cell_length_a 70.9658
_cell_length_b 71.1005
_cell_length_c 71.8037
_cell_angle_alpha 89.941100
_cell_angle_beta 89.996800
_cell_angle_gamma 90.099100
loop_
  _atom_site_label
  _atom_site_type_symbol
  _atom_site_fract_x
  _atom_site_fract_y
  _atom_site_fract_z
N1 N 0.17681 0.22272 0.22590
 N2 N 0.18211 0.20821 0.23595
 C3 C 0.16989 0.20590 0.25013
 C4 C 0.15616 0.21973 0.24894
 C5 C 0.16109 0.23013 0.23334
 H6 H 0.17090 0.19492 0.26049
 H7 H 0.15387 0.24225 0.22775
 Cu8 Cu 0.20449 0.19381 0.22950
 Cu9 Cu 0.19053 0.23095 0.20387
 Cu10 Cu 0.22981 0.20499 0.19146
 N11 N 0.22638 0.17914 0.22206
 N12 N 0.23616 0.18363 0.20716
 C13 C 0.25048 0.17145 0.20519
 C14 C 0.24976 0.15854 0.21964
 C15 C 0.23421 0.16390 0.23008
 H16 H 0.26077 0.17213 0.19412
 H17 H 0.22894 0.15718 0.24254
 N18 N 0.22119 0.22709 0.17732
 N19 N 0.20626 0.23701 0.18204
 C20 C 0.20405 0.25111 0.16970
 C21 C 0.21829 0.25005 0.15651
 C22 C 0.22887 0.23460 0.16187
 H23 H 0.19284 0.26135 0.17026
 H24 H 0.24130 0.22920 0.15507
 H25 H 0.20129 0.20477 0.19748
 H26 H 0.21648 0.22061 0.21184
 N27 N 0.67770 0.72250 0.72589
 N28 N 0.68249 0.70726 0.73508
 C29 C 0.67034 0.70470 0.74928
 C30 C 0.65718 0.71911 0.74896
 C31 C 0.66237 0.73012 0.73387
 H32 H 0.67112 0.69326 0.75916
 H33 H 0.65549 0.74271 0.72891
 Cu34 Cu 0.70420 0.69231 0.72765
 Cu35 Cu 0.69154 0.73138 0.70423
 Cu36 Cu 0.73086 0.70587 0.69115
 N37 N 0.72685 0.67866 0.72048
 N38 N 0.73720 0.68410 0.70629
 C39 C 0.75198 0.67243 0.70450
 C40 C 0.75091 0.65886 0.71832
 C41 C 0.73472 0.66328 0.72820
 H42 H 0.76262 0.67367 0.69380
 H43 H 0.72920 0.65600 0.74024
 N44 N 0.72218 0.72833 0.67759
 N45 N 0.70730 0.73814 0.68269
 C46 C 0.70510 0.75267 0.67085
 C47 C 0.71924 0.75195 0.65759
 C48 C 0.72979 0.73630 0.66232
 H49 H 0.69387 0.76288 0.67165
 H50 H 0.74223 0.73121 0.65526
 H51 H 0.70222 0.70553 0.69633
 H52 H 0.71713 0.72005 0.71228
 N53 N 0.32344 0.77756 0.72468
 N54 N 0.31869 0.79282 0.73385
 C55 C 0.33095 0.79544 0.74792
 C56 C 0.34411 0.78104 0.74762
 C57 C 0.33883 0.76999 0.73260
 H58 H 0.33017 0.80683 0.75780
 H59 H 0.34566 0.75734 0.72775
 Cu60 Cu 0.29672 0.80749 0.72667
 Cu61 Cu 0.30916 0.76848 0.70340
 Cu62 Cu 0.26950 0.79390 0.69068
 N63 N 0.27468 0.82183 0.71914
 N64 N 0.26377 0.81616 0.70546
 C65 C 0.24925 0.82819 0.70369
 C66 C 0.25117 0.84236 0.71689
 C67 C 0.26759 0.83776 0.72638
 H68 H 0.23831 0.82680 0.69332
 H69 H 0.27377 0.84517 0.73798
 N70 N 0.27779 0.77102 0.67744
 N71 N 0.29295 0.76146 0.68226
 C72 C 0.29519 0.74698 0.67041
 C73 C 0.28078 0.74736 0.65743
 C74 C 0.26999 0.76282 0.66237
 H75 H 0.30652 0.73689 0.67121
 H76 H 0.25758 0.76795 0.65531
 H77 H 0.29811 0.79420 0.69536
 H78 H 0.28352 0.77969 0.71147
 N79 N 0.82248 0.27745 0.22550
 N80 N 0.81723 0.29222 0.23515
 C81 C 0.82940 0.29480 0.24932
 C82 C 0.84315 0.28091 0.24853
 C83 C 0.83819 0.27019 0.23311
 H84 H 0.82829 0.30603 0.25938
 H85 H 0.84522 0.25783 0.22784
 Cu86 Cu 0.79497 0.30658 0.22819
 Cu87 Cu 0.80838 0.26836 0.20405
 Cu88 Cu 0.76852 0.29348 0.19156
 N89 N 0.77264 0.32067 0.22088
 N90 N 0.76236 0.31538 0.20659
 C91 C 0.74776 0.32726 0.20466
 C92 C 0.74889 0.34081 0.21846
 C93 C 0.76492 0.33616 0.22849
 H94 H 0.73719 0.32616 0.19388
 H95 H 0.77042 0.34339 0.24056
 N96 N 0.77706 0.27094 0.17808
 N97 N 0.79224 0.26138 0.18280
 C98 C 0.79419 0.24672 0.17110
 C99 C 0.77952 0.24701 0.15837
 C100 C 0.76897 0.26262 0.16326
 H101 H 0.80535 0.23645 0.17196
 H102 H 0.75633 0.26761 0.15651
 H103 H 0.79719 0.29410 0.19665
 H104 H 0.78259 0.27893 0.21228
 N105 N 0.82050 0.72504 0.27083
 N106 N 0.81558 0.70974 0.26178
 C107 C 0.82745 0.70723 0.24734
 C108 C 0.84037 0.72185 0.24726
 C109 C 0.83552 0.73286 0.26239
 H110 H 0.82654 0.69588 0.23738
 H111 H 0.84249 0.74555 0.26702
 Cu112 Cu 0.79363 0.69518 0.26947
 Cu113 Cu 0.80724 0.73373 0.29296
 Cu114 Cu 0.76876 0.70738 0.30738
 N115 N 0.77192 0.68052 0.27764
 N116 N 0.76233 0.68539 0.29253
 C117 C 0.74806 0.67318 0.29506
 C118 C 0.74862 0.65990 0.28098
 C119 C 0.76399 0.66504 0.27016
 H120 H 0.73787 0.67411 0.30620
 H121 H 0.76908 0.65798 0.25783
 N122 N 0.77746 0.73010 0.32055
 N123 N 0.79205 0.74019 0.31503
 C124 C 0.79437 0.75474 0.32681
 C125 C 0.78058 0.75381 0.34045
 C126 C 0.77013 0.73797 0.33597
 H127 H 0.80541 0.76515 0.32563
 H128 H 0.75798 0.73260 0.34333
 H129 H 0.79714 0.70765 0.30088
 H130 H 0.78134 0.72241 0.28611
 N131 N 0.32421 0.22183 -0.22513
 N132 N 0.31921 0.20705 -0.23491
 C133 C 0.33131 0.20493 -0.24920
 C134 C 0.34478 0.21914 -0.24833
 C135 C 0.33969 0.22958 -0.23276
 H136 H 0.33039 0.19376 -0.25934
 H137 H 0.34656 0.24199 -0.22734
 Cu138 Cu 0.29751 0.19187 -0.22781
 Cu139 Cu 0.31022 0.23008 -0.20328
 Cu140 Cu 0.27098 0.20380 -0.19088
 N141 N 0.27530 0.17739 -0.22083
 N142 N 0.26502 0.18213 -0.20637
 C143 C 0.25074 0.16981 -0.20453
 C144 C 0.25206 0.15654 -0.21861
 C145 C 0.26787 0.16187 -0.22869
 H146 H 0.24028 0.17044 -0.19361
 H147 H 0.27356 0.15501 -0.24087
 N148 N 0.27930 0.22620 -0.17697
 N149 N 0.29425 0.23618 -0.18165
 C150 C 0.29630 0.25041 -0.16944
 C151 C 0.28194 0.24938 -0.15638
 C152 C 0.27145 0.23382 -0.16167
 H153 H 0.30750 0.26070 -0.17002
 H154 H 0.25899 0.22837 -0.15489
 H155 H 0.29960 0.20399 -0.19611
 H156 H 0.28459 0.21897 -0.21148
 N157 N 0.67727 0.27735 -0.22529
 N158 N 0.68340 0.29129 -0.23570
 C159 C 0.67158 0.29361 -0.25020
 C160 C 0.65708 0.28050 -0.24877
 C161 C 0.66127 0.27046 -0.23267
 H162 H 0.67330 0.30426 -0.26079
 H163 H 0.65353 0.25877 -0.22683
 Cu164 Cu 0.70596 0.30525 -0.22878
 Cu165 Cu 0.69087 0.26857 -0.20333
 Cu166 Cu 0.73163 0.29287 -0.19159
 N167 N 0.72853 0.31921 -0.22185
 N168 N 0.73838 0.31429 -0.20714
 C169 C 0.75286 0.32632 -0.20500
 C170 C 0.75213 0.33957 -0.21913
 C171 C 0.73648 0.33456 -0.22960
 H172 H 0.76315 0.32545 -0.19394
 H173 H 0.73106 0.34180 -0.24170
 N174 N 0.72247 0.27086 -0.17758
 N175 N 0.70675 0.26184 -0.18176
 C176 C 0.70437 0.24758 -0.16960
 C177 C 0.71937 0.24754 -0.15728
 C178 C 0.73054 0.26250 -0.16277
 H179 H 0.69283 0.23764 -0.16994
 H180 H 0.74355 0.26703 -0.15636
 H181 H 0.70300 0.29408 -0.19680
 H182 H 0.71709 0.27783 -0.21168
 N183 N 0.17814 0.77516 0.27070
 N184 N 0.18364 0.78994 0.26114
 C185 C 0.17211 0.79223 0.24643
 C186 C 0.15859 0.77811 0.24674
 C187 C 0.16294 0.76755 0.26241
 H188 H 0.17354 0.80329 0.23621
 H189 H 0.15561 0.75525 0.26750
 Cu190 Cu 0.20536 0.80472 0.26884
 Cu191 Cu 0.19121 0.76681 0.29309
 Cu192 Cu 0.22980 0.79321 0.30728
 N193 N 0.22749 0.81889 0.27649
 N194 N 0.23653 0.81483 0.29193
 C195 C 0.25083 0.82708 0.29419
 C196 C 0.25100 0.83942 0.27916
 C197 C 0.23592 0.83367 0.26821
 H198 H 0.26067 0.82661 0.30567
 H199 H 0.23115 0.83994 0.25534
 N200 N 0.22083 0.77076 0.32082
 N201 N 0.20624 0.76065 0.31534
 C202 C 0.20395 0.74609 0.32714
 C203 C 0.21777 0.74701 0.34074
 C204 C 0.22820 0.76288 0.33625
 H205 H 0.19298 0.73562 0.32593
 H206 H 0.24045 0.76814 0.34350
 H207 H 0.20152 0.79292 0.30054
 H208 H 0.21734 0.77781 0.28617
 N209 N 0.47331 0.42805 0.47646
 N210 N 0.45862 0.43326 0.48630
 C211 C 0.45613 0.42100 0.50041
 C212 C 0.47004 0.40735 0.49941
 C213 C 0.48067 0.41236 0.48397
 H214 H 0.44503 0.42200 0.51065
 H215 H 0.49299 0.40528 0.47863
 Cu216 Cu 0.44439 0.45571 0.47980
 Cu217 Cu 0.48207 0.44217 0.45484
 Cu218 Cu 0.45703 0.48232 0.44315
 N219 N 0.43002 0.47787 0.47265
 N220 N 0.43521 0.48834 0.45846
 C221 C 0.42319 0.50285 0.45671
 C222 C 0.40965 0.50142 0.47054
 C223 C 0.41444 0.48534 0.48037
 H224 H 0.42413 0.51353 0.44603
 H225 H 0.40726 0.47967 0.49241
 N226 N 0.47945 0.47385 0.42933
 N227 N 0.48874 0.45835 0.43351
 C228 C 0.50303 0.45622 0.42135
 C229 C 0.50283 0.47117 0.40900
 C230 C 0.48769 0.48207 0.41450
 H231 H 0.51308 0.44481 0.42162
 H232 H 0.48291 0.49492 0.40800
 H233 H 0.47190 0.46795 0.46339
 H234 H 0.45623 0.45366 0.44801
 N235 N -0.02814 -0.07191 0.97624
 N236 N -0.04285 -0.06632 0.98586
 C237 C -0.04540 -0.07801 1.00041
 C238 C -0.03149 -0.09166 0.99996
 C239 C -0.02079 -0.08730 0.98439
 H240 H -0.05640 -0.07658 1.01071
 H241 H -0.00867 -0.09485 0.97922
 Cu242 Cu -0.05708 -0.04414 0.97854
 Cu243 Cu -0.01965 -0.05890 0.95380
 Cu244 Cu -0.04538 -0.01982 0.94015
 N245 N -0.07146 -0.02225 0.97063
 N246 N -0.06683 -0.01289 0.95552
 C247 C -0.07892 0.00147 0.95315
 C248 C -0.09185 0.00119 0.96758
 C249 C -0.08666 -0.01409 0.97843
 H250 H -0.07817 0.01151 0.94186
 H251 H -0.09353 -0.01900 0.99095
 N252 N -0.02323 -0.02895 0.92638
 N253 N -0.01339 -0.04380 0.93152
 C254 C 0.00082 -0.04631 0.91932
 C255 C -0.00010 -0.03237 0.90582
 C256 C -0.01557 -0.02165 0.91083
 H257 H 0.01104 -0.05752 0.92020
 H258 H -0.02083 -0.00932 0.90378
 H259 H -0.02991 -0.03280 0.96099
 H260 H -0.04566 -0.04820 0.94679
 N261 N 1.02753 0.57230 0.97590
 N262 N 1.04267 0.56725 0.98515
 C263 C 1.04524 0.57909 0.99954
 C264 C 1.03091 0.59233 0.99940
 C265 C 1.01996 0.58752 0.98411
 H266 H 1.05659 0.57801 1.00948
 H267 H 1.00729 0.59443 0.97936
 Cu268 Cu 1.05719 0.54537 0.97775
 Cu269 Cu 1.01848 0.55835 0.95424
 Cu270 Cu 1.04399 0.51870 0.94157
 N271 N 1.07171 0.52347 0.97036
 N272 N 1.06632 0.51295 0.95630
 C273 C 1.07854 0.49865 0.95426
 C274 C 1.09242 0.50029 0.96774
 C275 C 1.08759 0.51624 0.97770
 H276 H 1.07751 0.48799 0.94359
 H277 H 1.09496 0.52199 0.98956
 N278 N 1.02109 0.52695 0.92837
 N279 N 1.01166 0.54228 0.93284
 C280 C 0.99713 0.54432 0.92093
 C281 C 0.99733 0.52947 0.90849
 C282 C 1.01270 0.51875 0.91364
 H283 H 0.98693 0.55558 0.92144
 H284 H 1.01757 0.50605 0.90694
 H285 H 1.02938 0.53271 0.96225
 H286 H 1.04419 0.54735 0.94639
 N287 N 0.52677 0.07453 0.47594
 N288 N 0.54166 0.06931 0.48548
 C289 C 0.54436 0.08147 0.49961
 C290 C 0.53038 0.09507 0.49892
 C291 C 0.51948 0.09013 0.48366
 H292 H 0.55568 0.08048 0.50962
 H293 H 0.50706 0.09723 0.47855
 Cu294 Cu 0.55592 0.04703 0.47852
 Cu295 Cu 0.51778 0.06070 0.45430
 Cu296 Cu 0.54303 0.02110 0.44145
 N297 N 0.57032 0.02512 0.47077
 N298 N 0.56497 0.01485 0.45650
 C299 C 0.57702 0.00042 0.45439
 C300 C 0.59076 0.00173 0.46800
 C301 C 0.58608 0.01762 0.47812
 H302 H 0.57600 -0.01011 0.44359
 H303 H 0.59345 0.02311 0.49012
 N304 N 0.52045 0.02977 0.42799
 N305 N 0.51089 0.04488 0.43285
 C306 C 0.49639 0.04717 0.42097
 C307 C 0.49678 0.03280 0.40795
 C308 C 0.51228 0.02205 0.41289
 H309 H 0.48637 0.05855 0.42170
 H310 H 0.51722 0.00946 0.40606
 H311 H 0.52835 0.03481 0.46219
 H312 H 0.54368 0.04962 0.44691
 N313 N -0.02750 0.07385 0.52465
 N314 N -0.04221 0.06862 0.51481
 C315 C -0.04466 0.08082 0.50067
 C316 C -0.03072 0.09449 0.50164
 C317 C -0.02010 0.08953 0.51710
 H318 H -0.05582 0.07984 0.49048
 H319 H -0.00781 0.09669 0.52248
 Cu320 Cu -0.05664 0.04631 0.52146
 Cu321 Cu -0.01902 0.05996 0.54652
 Cu322 Cu -0.04489 0.02040 0.55879
 N323 N -0.07118 0.02422 0.52860
 N324 N -0.06647 0.01417 0.54323
 C325 C -0.07865 -0.00022 0.54510
 C326 C -0.09178 0.00078 0.53086
 C327 C -0.08656 0.01652 0.52065
 H328 H -0.07786 -0.01072 0.55596
 H329 H -0.09350 0.02205 0.50843
 N330 N -0.02262 0.02898 0.57278
 N331 N -0.01276 0.04402 0.56816
 C332 C 0.00146 0.04614 0.58041
 C333 C 0.00055 0.03173 0.59342
 C334 C -0.01493 0.02114 0.58806
 H335 H 0.01166 0.05742 0.57994
 H336 H -0.02020 0.00857 0.59473
 H337 H -0.02948 0.03412 0.53840
 H338 H -0.04505 0.04896 0.55329
 N339 N 0.47299 0.57276 0.02409
 N340 N 0.45792 0.56782 0.01466
 C341 C 0.45535 0.58005 0.00057
 C342 C 0.46959 0.59342 0.00115
 C343 C 0.48052 0.58828 0.01632
 H344 H 0.44404 0.57918 -0.00946
 H345 H 0.49300 0.59529 0.02143
 Cu346 Cu 0.44327 0.54579 0.02169
 Cu347 Cu 0.48187 0.55865 0.04562
 Cu348 Cu 0.45581 0.51944 0.05855
 N349 N 0.42850 0.52406 0.02935
 N350 N 0.43360 0.51369 0.04364
 C351 C 0.42124 0.49947 0.04573
 C352 C 0.40757 0.50101 0.03204
 C353 C 0.41265 0.51682 0.02191
 H354 H 0.42205 0.48891 0.05653
 H355 H 0.40549 0.52244 0.00986
 N356 N 0.47869 0.52761 0.07187
 N357 N 0.48856 0.54255 0.06698
 C358 C 0.50329 0.54440 0.07866
 C359 C 0.50274 0.52992 0.09159
 C360 C 0.48689 0.51957 0.08680
 H361 H 0.51368 0.55547 0.07772
 H362 H 0.48166 0.50708 0.09365
 H363 H 0.47068 0.53299 0.03776
 H364 H 0.45582 0.54799 0.05320
 N365 N 0.52520 -0.07294 0.02338
 N366 N 0.54055 -0.06802 0.01439
 C367 C 0.54325 -0.07999 0.00010
 C368 C 0.52881 -0.09316 0.00015
 C369 C 0.51762 -0.08817 0.01516
 H370 H 0.55484 -0.07916 -0.00961
 H371 H 0.50504 -0.09523 0.01997
 Cu372 Cu 0.55559 -0.04658 0.02240
 Cu373 Cu 0.51633 -0.05958 0.04534
 Cu374 Cu 0.54293 -0.02145 0.06000
 N375 N 0.56987 -0.02458 0.03029
 N376 N 0.56489 -0.01494 0.04508
 C377 C 0.57689 -0.00047 0.04737
 C378 C 0.59021 -0.00096 0.03324
 C379 C 0.58525 -0.01653 0.02267
 H380 H 0.57583 0.00973 0.05845
 H381 H 0.59221 -0.02158 0.01027
 N382 N 0.52018 -0.03017 0.07318
 N383 N 0.50973 -0.04434 0.06728
 C384 C 0.49491 -0.04645 0.07882
 C385 C 0.49617 -0.03307 0.09273
 C386 C 0.51238 -0.02303 0.08873
 H387 H 0.48414 -0.05713 0.07743
 H388 H 0.51790 -0.01119 0.09645
 H389 H 0.52817 -0.03392 0.03849
 H390 H 0.54243 -0.04981 0.05365
 N391 N 1.02669 0.42775 0.52330
 N392 N 1.04114 0.43333 0.51326
 C393 C 1.04352 0.42132 0.49896
 C394 C 1.02987 0.40742 0.50013
 C395 C 1.01945 0.41198 0.51579
 H396 H 1.05449 0.42247 0.48858
 H397 H 1.00732 0.40455 0.52119
 Cu398 Cu 1.05553 0.45561 0.52007
 Cu399 Cu 1.01804 0.44152 0.54511
 Cu400 Cu 1.04330 0.48141 0.55737
 N401 N 1.06968 0.47794 0.52720
 N402 N 1.06484 0.48791 0.54182
 C403 C 1.07681 0.50249 0.54362
 C404 C 1.08994 0.50170 0.52934
 C405 C 1.08492 0.48586 0.51921
 H406 H 1.07590 0.51292 0.55451
 H407 H 1.09183 0.48046 0.50693
 N408 N 1.02108 0.47253 0.57132
 N409 N 1.01149 0.45734 0.56668
 C410 C 0.99703 0.45517 0.57863
 C411 C 0.99746 0.46972 0.59148
 C412 C 1.01297 0.48042 0.58636
 H413 H 0.98685 0.44390 0.57790
 H414 H 1.01796 0.49312 0.59298
 H415 H 1.02824 0.46752 0.53693
 H416 H 1.04396 0.45290 0.55194
 C417 C 0.37346 -0.00028 0.25048
 C418 C 0.12623 -0.00138 0.74957
 C419 C 0.62561 0.49988 0.24982
 C420 C 0.87453 0.50005 0.74955
 C421 C 0.25013 0.37528 -0.00033
 C422 C 0.74863 0.12375 0.00086
 C423 C 0.24994 0.62470 0.49906
 C424 C 0.74902 0.87617 0.49949
 C425 C -0.00097 0.25086 0.37469
 C426 C -0.00031 0.74982 0.12343
 C427 C 0.50089 0.25097 0.62607
 C428 C 0.50009 0.74976 0.87460
 C429 C 0.10878 0.22881 0.28561
 C430 C 0.12222 0.21491 0.28967
 C431 C 0.13754 0.21192 0.27779
 C432 C 0.13981 0.22278 0.26155
 C433 C 0.12630 0.23664 0.25749
 C434 C 0.11099 0.23960 0.26935
 C435 C 0.09258 0.23214 0.29831
 C436 C 0.08630 0.25052 0.30190
 C437 C 0.07109 0.25369 0.31384
 C438 C 0.06186 0.23857 0.32261
 C439 C 0.06813 0.22018 0.31900
 C440 C 0.08328 0.21700 0.30696
 C441 C 0.04592 0.24197 0.33563
 C442 C 0.03037 0.22975 0.33613
 C443 C 0.01561 0.23278 0.34864
 C444 C 0.01600 0.24794 0.36134
 C445 C 0.03125 0.26069 0.36002
 C446 C 0.04608 0.25755 0.34763
 H447 H 0.12108 0.20652 0.30221
 H448 H 0.14763 0.20118 0.28151
 H449 H 0.12739 0.24523 0.24511
 H450 H 0.10074 0.25023 0.26566
 H451 H 0.09328 0.26251 0.29565
 H452 H 0.06649 0.26802 0.31609
 H453 H 0.06150 0.20822 0.32567
 H454 H 0.08761 0.20266 0.30431
 H455 H 0.02948 0.21792 0.32668
 H456 H 0.00382 0.22309 0.34857
 H457 H 0.03191 0.27335 0.36827
 H458 H 0.05779 0.26733 0.34757
 C459 C 0.61031 0.72792 0.78623
 C460 C 0.62098 0.71133 0.78723
 C461 C 0.63621 0.70848 0.77521
 C462 C 0.64107 0.72214 0.76185
 C463 C 0.63033 0.73872 0.76088
 C464 C 0.61516 0.74159 0.77294
 C465 C 0.59415 0.73097 0.79897
 C466 C 0.59139 0.74853 0.80747
 C467 C 0.57618 0.75140 0.81950
 C468 C 0.56331 0.73680 0.82319
 C469 C 0.56606 0.71926 0.81458
 C470 C 0.58134 0.71636 0.80266
 C471 C 0.54720 0.73983 0.83609
 C472 C 0.54129 0.72548 0.84821
 C473 C 0.52627 0.72832 0.86045
 C474 C 0.51702 0.74589 0.86146
 C475 C 0.52264 0.75995 0.84869
 C476 C 0.53754 0.75704 0.83634
 H477 H 0.61767 0.70064 0.79748
 H478 H 0.64406 0.69552 0.77642
 H479 H 0.63357 0.74961 0.75085
 H480 H 0.60705 0.75442 0.77171
 H481 H 0.60119 0.75997 0.80506
 H482 H 0.57469 0.76498 0.82614
 H483 H 0.55625 0.70781 0.81683
 H484 H 0.58298 0.70276 0.79608
 H485 H 0.54836 0.71201 0.84836
 H486 H 0.52198 0.71645 0.86882
 H487 H 0.51547 0.77339 0.84843
 H488 H 0.54135 0.76823 0.82680
 C489 C 0.39083 0.77206 0.78510
 C490 C 0.38598 0.75843 0.77180
 C491 C 0.37088 0.76136 0.75967
 C492 C 0.36019 0.77798 0.76056
 C493 C 0.36505 0.79160 0.77395
 C494 C 0.38022 0.78869 0.78604
 C495 C 0.40694 0.76894 0.79790
 C496 C 0.41979 0.78349 0.80164
 C497 C 0.43500 0.78051 0.81364
 C498 C 0.43762 0.76295 0.82230
 C499 C 0.42472 0.74840 0.81853
 C500 C 0.40960 0.75135 0.80642
 C501 C 0.45358 0.75987 0.83538
 C502 C 0.46316 0.74262 0.83580
 C503 C 0.47788 0.73964 0.84838
 C504 C 0.48334 0.75367 0.86123
 C505 C 0.47422 0.77129 0.86000
 C506 C 0.45940 0.77419 0.84754
 H507 H 0.39405 0.74556 0.77061
 H508 H 0.36763 0.75050 0.74966
 H509 H 0.35723 0.80458 0.77514
 H510 H 0.38352 0.79936 0.79630
 H511 H 0.41824 0.79711 0.79505
 H512 H 0.44485 0.79192 0.81594
 H513 H 0.42612 0.73481 0.82519
 H514 H 0.39976 0.73995 0.80397
 H515 H 0.45945 0.73145 0.82624
 H516 H 0.48500 0.72618 0.84824
 H517 H 0.47847 0.78316 0.86836
 H518 H 0.45241 0.78771 0.84754
 C519 C -0.11065 0.27233 0.28528
 C520 C -0.11299 0.26100 0.26945
 C521 C -0.12817 0.26381 0.25737
 C522 C -0.14145 0.27815 0.26069
 C523 C -0.13893 0.28960 0.27654
 C524 C -0.12380 0.28668 0.28867
 C525 C -0.09462 0.26911 0.29824
 C526 C -0.08526 0.28433 0.30666
 C527 C -0.07024 0.28126 0.31888
 C528 C -0.06411 0.26290 0.32289
 C529 C -0.07341 0.24769 0.31438
 C530 C -0.08852 0.25075 0.30229
 C531 C -0.04816 0.25962 0.33596
 C532 C -0.04830 0.24415 0.34813
 C533 C -0.03339 0.24105 0.36044
 C534 C -0.01807 0.25375 0.36150
 C535 C -0.01777 0.26886 0.34871
 C536 C -0.03259 0.27182 0.33626
 H537 H -0.10294 0.25004 0.26622
 H538 H -0.12922 0.25471 0.24538
 H539 H -0.14869 0.30075 0.27988
 H540 H -0.12259 0.29549 0.30090
 H541 H -0.08942 0.29866 0.30368
 H542 H -0.06356 0.29330 0.32535
 H543 H -0.06892 0.23337 0.31692
 H544 H -0.09555 0.23868 0.29626
 H545 H -0.06003 0.23440 0.34825
 H546 H -0.03402 0.22845 0.36881
 H547 H -0.00596 0.27853 0.34848
 H548 H -0.03171 0.28357 0.32669
 C549 C -0.11421 0.73188 0.20859
 C550 C -0.12131 0.71358 0.21136
 C551 C -0.13621 0.71034 0.22373
 C552 C -0.14416 0.72525 0.23382
 C553 C -0.13714 0.74352 0.23105
 C554 C -0.12246 0.74681 0.21849
 C555 C -0.09810 0.73537 0.19569
 C556 C -0.08464 0.74932 0.19973
 C557 C -0.06946 0.75257 0.18778
 C558 C -0.06704 0.74170 0.17159
 C559 C -0.08053 0.72778 0.16750
 C560 C -0.09592 0.72475 0.17931
 C561 C -0.05028 0.74452 0.15935
 C562 C -0.05147 0.74187 0.13999
 C563 C -0.03550 0.74373 0.12873
 C564 C -0.01770 0.74804 0.13642
 C565 C -0.01698 0.75205 0.15569
 C566 C -0.03283 0.74984 0.16697
 H567 H -0.11514 0.70167 0.20426
 H568 H -0.14120 0.69608 0.22569
 H569 H -0.14316 0.75536 0.23839
 H570 H -0.11772 0.76114 0.21645
 H571 H -0.08563 0.75761 0.21233
 H572 H -0.05962 0.76366 0.19128
 H573 H -0.07908 0.71895 0.15532
 H574 H -0.10614 0.71409 0.17554
 H575 H -0.06479 0.73846 0.13346
 H576 H -0.03696 0.74149 0.11388
 H577 H -0.00427 0.75702 0.16233
 H578 H -0.03127 0.75212 0.18179
 C579 C 0.39108 0.22855 0.71522
 C580 C 0.38845 0.23987 0.73101
 C581 C 0.37320 0.23683 0.74296
 C582 C 0.36015 0.22225 0.73955
 C583 C 0.36293 0.21087 0.72371
 C584 C 0.37813 0.21402 0.71171
 C585 C 0.40724 0.23194 0.70243
 C586 C 0.41681 0.21681 0.69412
 C587 C 0.43190 0.22003 0.68201
 C588 C 0.43790 0.23846 0.67800
 C589 C 0.42841 0.25358 0.68642
 C590 C 0.41323 0.25036 0.69840
 C591 C 0.45385 0.24190 0.66497
 C592 C 0.45356 0.25729 0.65272
 C593 C 0.46843 0.26050 0.64037
 C594 C 0.48386 0.24799 0.63936
 C595 C 0.48432 0.23298 0.65227
 C596 C 0.46953 0.22990 0.66474
 H597 H 0.39834 0.25098 0.73431
 H598 H 0.37193 0.24594 0.75493
 H599 H 0.35335 0.19956 0.72028
 H600 H 0.37955 0.20522 0.69950
 H601 H 0.41273 0.20244 0.69709
 H602 H 0.43872 0.20806 0.67561
 H603 H 0.43279 0.26794 0.68388
 H604 H 0.40604 0.26235 0.70435
 H605 H 0.44173 0.26689 0.65255
 H606 H 0.46765 0.27302 0.63191
 H607 H 0.49622 0.22346 0.65253
 H608 H 0.47052 0.21821 0.67437
 C609 C 0.61077 0.27245 0.71460
 C610 C 0.61175 0.26262 0.73151
 C611 C 0.62704 0.26517 0.74352
 C612 C 0.64166 0.27788 0.73906
 C613 C 0.64045 0.28784 0.72210
 C614 C 0.62528 0.28503 0.70998
 C615 C 0.59470 0.26947 0.70177
 C616 C 0.59786 0.26623 0.68274
 C617 C 0.58272 0.26305 0.67069
 C618 C 0.56413 0.26334 0.67741
 C619 C 0.56095 0.26680 0.69641
 C620 C 0.57612 0.26969 0.70851
 C621 C 0.54813 0.25995 0.66462
 C622 C 0.53240 0.27183 0.66470
 C623 C 0.51754 0.26881 0.65229
 C624 C 0.51798 0.25390 0.63928
 C625 C 0.53350 0.24144 0.64010
 C626 C 0.54847 0.24467 0.65231
 H627 H 0.60079 0.25272 0.73532
 H628 H 0.62711 0.25724 0.75636
 H629 H 0.65126 0.29768 0.71788
 H630 H 0.62479 0.29284 0.69703
 H631 H 0.61207 0.26587 0.67724
 H632 H 0.58550 0.26053 0.65608
 H633 H 0.54675 0.26698 0.70193
 H634 H 0.57333 0.27227 0.72311
 H635 H 0.53172 0.28365 0.67418
 H636 H 0.50564 0.27833 0.65264
 H637 H 0.53422 0.22893 0.63165
 H638 H 0.56021 0.23496 0.65242
 C639 C 0.11345 0.76896 0.20742
 C640 C 0.11687 0.75596 0.22178
 C641 C 0.13146 0.75893 0.23452
 C642 C 0.14302 0.77497 0.23322
 C643 C 0.13956 0.78797 0.21884
 C644 C 0.12496 0.78499 0.20611
 C645 C 0.09784 0.76587 0.19397
 C646 C 0.08652 0.78097 0.18815
 C647 C 0.07163 0.77804 0.17574
 C648 C 0.06771 0.75994 0.16890
 C649 C 0.07912 0.74486 0.17459
 C650 C 0.09403 0.74780 0.18698
 C651 C 0.05137 0.75679 0.15636
 C652 C 0.03956 0.74115 0.15884
 C653 C 0.02345 0.73892 0.14791
 C654 C 0.01825 0.75257 0.13455
 C655 C 0.03112 0.76736 0.13108
 C656 C 0.04722 0.76961 0.14208
 H657 H 0.10808 0.74359 0.22333
 H658 H 0.13361 0.74858 0.24534
 H659 H 0.14805 0.80051 0.21732
 H660 H 0.12282 0.79518 0.19509
 H661 H 0.08889 0.79501 0.19351
 H662 H 0.06289 0.78988 0.17185
 H663 H 0.07660 0.73081 0.16935
 H664 H 0.10270 0.73594 0.19096
 H665 H 0.04246 0.73089 0.16961
 H666 H 0.01453 0.72680 0.15036
 H667 H 0.02907 0.77724 0.11985
 H668 H 0.05653 0.78137 0.13932
 C669 C 0.28811 0.11263 0.22983
 C670 C 0.27468 0.11771 0.24329
 C671 C 0.26219 0.13254 0.23999
 C672 C 0.26288 0.14267 0.22316
 C673 C 0.27634 0.13754 0.20972
 C674 C 0.28878 0.12272 0.21302
 C675 C 0.30132 0.09682 0.23322
 C676 C 0.30572 0.08418 0.21884
 C677 C 0.31819 0.06934 0.22194
 C678 C 0.32653 0.06676 0.23950
 C679 C 0.32214 0.07938 0.25391
 C680 C 0.30967 0.09427 0.25080
 C681 C 0.33946 0.05071 0.24276
 C682 C 0.33832 0.04010 0.25919
 C683 C 0.34958 0.02420 0.26160
 C684 C 0.36198 0.01806 0.24745
 C685 C 0.36406 0.02974 0.23163
 C686 C 0.35276 0.04562 0.22923
 H687 H 0.27366 0.11006 0.25630
 H688 H 0.25210 0.13607 0.25071
 H689 H 0.27730 0.14487 0.19656
 H690 H 0.29911 0.11930 0.20245
 H691 H 0.29927 0.08557 0.20524
 H692 H 0.32103 0.05964 0.21067
 H693 H 0.32852 0.07787 0.26753
 H694 H 0.30678 0.10394 0.26207
 H695 H 0.32831 0.04375 0.26998
 H696 H 0.34810 0.01614 0.27433
 H697 H 0.37440 0.02695 0.22098
 H698 H 0.35449 0.05402 0.21675
 C699 C 0.78928 0.61284 0.72770
 C700 C 0.79439 0.62793 0.71611
 C701 C 0.78198 0.64286 0.71312
 C702 C 0.76415 0.64309 0.72168
 C703 C 0.75910 0.62804 0.73339
 C704 C 0.77151 0.61308 0.73634
 C705 C 0.80234 0.59681 0.73059
 C706 C 0.79547 0.57827 0.73081
 C707 C 0.80773 0.56315 0.73338
 C708 C 0.82715 0.56620 0.73577
 C709 C 0.83404 0.58474 0.73559
 C710 C 0.82176 0.59989 0.73301
 C711 C 0.84006 0.55002 0.73861
 C712 C 0.85477 0.55097 0.75166
 C713 C 0.86620 0.53534 0.75506
 C714 C 0.86287 0.51808 0.74588
 C715 C 0.84895 0.51778 0.73182
 C716 C 0.83757 0.53338 0.72843
 H717 H 0.80790 0.62806 0.70910
 H718 H 0.78645 0.65424 0.70413
 H719 H 0.74548 0.62765 0.74015
 H720 H 0.76724 0.60175 0.74551
 H721 H 0.78061 0.57543 0.72879
 H722 H 0.80195 0.54904 0.73370
 H723 H 0.84894 0.58754 0.73725
 H724 H 0.82745 0.61403 0.73309
 H725 H 0.85724 0.56372 0.75954
 H726 H 0.87759 0.53701 0.76490
 H727 H 0.84653 0.50512 0.72378
 H728 H 0.82679 0.53240 0.71780
 C729 C 0.78963 0.38663 0.77239
 C730 C 0.77745 0.38069 0.75811
 C731 C 0.76528 0.36545 0.76085
 C732 C 0.76506 0.35573 0.77790
 C733 C 0.77729 0.36164 0.79215
 C734 C 0.78941 0.37691 0.78944
 C735 C 0.80236 0.40303 0.76962
 C736 C 0.82073 0.40305 0.77697
 C737 C 0.83257 0.41862 0.77455
 C738 C 0.82631 0.43451 0.76468
 C739 C 0.80798 0.43441 0.75723
 C740 C 0.79614 0.41890 0.75971
 C741 C 0.83875 0.45115 0.76204
 C742 C 0.83122 0.46937 0.76272
 C743 C 0.84250 0.48503 0.75908
 C744 C 0.86167 0.48299 0.75413
 C745 C 0.86948 0.46476 0.75519
 C746 C 0.85813 0.44905 0.75867
 H747 H 0.77747 0.38767 0.74470
 H748 H 0.75621 0.36119 0.74949
 H749 H 0.77737 0.35470 0.80555
 H750 H 0.79837 0.38131 0.80084
 H751 H 0.82605 0.39096 0.78449
 H752 H 0.84652 0.41830 0.78062
 H753 H 0.80280 0.44629 0.74932
 H754 H 0.78201 0.41946 0.75406
 H755 H 0.81655 0.47157 0.76624
 H756 H 0.83602 0.49870 0.76039
 H757 H 0.88436 0.46265 0.75263
 H758 H 0.86449 0.43523 0.75827
 C759 C 0.28883 -0.11534 0.26868
 C760 C 0.27641 -0.12172 0.25479
 C761 C 0.26388 -0.13646 0.25829
 C762 C 0.26366 -0.14567 0.27568
 C763 C 0.27641 -0.13954 0.28945
 C764 C 0.28863 -0.12447 0.28607
 C765 C 0.30163 -0.09904 0.26512
 C766 C 0.31941 -0.09785 0.27373
 C767 C 0.33108 -0.08225 0.27080
 C768 C 0.32548 -0.06756 0.25888
 C769 C 0.30791 -0.06902 0.24991
 C770 C 0.29607 -0.08437 0.25318
 C771 C 0.33760 -0.05059 0.25620
 C772 C 0.32944 -0.03290 0.25294
 C773 C 0.34061 -0.01691 0.25062
 C774 C 0.36041 -0.01775 0.25251
 C775 C 0.36854 -0.03570 0.25508
 C776 C 0.35736 -0.05181 0.25691
 H777 H 0.27644 -0.11547 0.24105
 H778 H 0.25469 -0.14080 0.24707
 H779 H 0.27668 -0.14593 0.30312
 H780 H 0.29766 -0.11976 0.29729
 H781 H 0.32440 -0.10899 0.28274
 H782 H 0.34436 -0.08162 0.27817
 H783 H 0.30318 -0.05830 0.24029
 H784 H 0.28240 -0.08451 0.24652
 H785 H 0.31431 -0.03123 0.25233
 H786 H 0.33335 -0.00405 0.24723
 H787 H 0.38370 -0.03718 0.25587
 H788 H 0.36427 -0.06523 0.25875
 C789 C 0.21490 -0.11118 0.72651
 C790 C 0.20977 -0.12536 0.71393
 C791 C 0.22178 -0.14055 0.71060
 C792 C 0.23915 -0.14214 0.72004
 C793 C 0.24413 -0.12782 0.73274
 C794 C 0.23222 -0.11249 0.73580
 C795 C 0.20217 -0.09509 0.73001
 C796 C 0.20915 -0.07658 0.72989
 C797 C 0.19709 -0.06141 0.73313
 C798 C 0.17790 -0.06449 0.73683
 C799 C 0.17095 -0.08300 0.73708
 C800 C 0.18294 -0.09814 0.73356
 C801 C 0.16511 -0.04847 0.74040
 C802 C 0.15277 -0.04886 0.75563
 C803 C 0.14047 -0.03392 0.75894
 C804 C 0.13960 -0.01840 0.74663
 C805 C 0.15270 -0.01789 0.73179
 C806 C 0.16518 -0.03272 0.72867
 H807 H 0.19650 -0.12459 0.70650
 H808 H 0.21715 -0.15113 0.70082
 H809 H 0.25730 -0.12817 0.74028
 H810 H 0.23644 -0.10176 0.74566
 H811 H 0.22390 -0.07387 0.72709
 H812 H 0.20279 -0.04726 0.73298
 H813 H 0.15617 -0.08571 0.73978
 H814 H 0.17726 -0.11229 0.73385
 H815 H 0.15289 -0.06063 0.76522
 H816 H 0.13199 -0.03468 0.77139
 H817 H 0.15302 -0.00598 0.72237
 H818 H 0.17468 -0.03201 0.71688
 C819 C 0.71081 0.38707 0.22779
 C820 C 0.70559 0.37200 0.21625
 C821 C 0.71793 0.35702 0.21324
 C822 C 0.73577 0.35670 0.22175
 C823 C 0.74095 0.37174 0.23339
 C824 C 0.72863 0.38677 0.23635
 C825 C 0.69779 0.40312 0.23075
 C826 C 0.70468 0.42165 0.23092
 C827 C 0.69245 0.43678 0.23356
 C828 C 0.67303 0.43376 0.23608
 C829 C 0.66614 0.41521 0.23596
 C830 C 0.67838 0.40006 0.23330
 C831 C 0.66015 0.44994 0.23896
 C832 C 0.64549 0.44899 0.25208
 C833 C 0.63405 0.46461 0.25547
 C834 C 0.63731 0.48186 0.24620
 C835 C 0.65119 0.48217 0.23211
 C836 C 0.66258 0.46658 0.22873
 H837 H 0.69205 0.37193 0.20930
 H838 H 0.71337 0.34565 0.20431
 H839 H 0.75459 0.37207 0.24010
 H840 H 0.73298 0.39809 0.24547
 H841 H 0.71953 0.42448 0.22879
 H842 H 0.69824 0.45088 0.23381
 H843 H 0.65124 0.41243 0.23772
 H844 H 0.67268 0.38593 0.23343
 H845 H 0.64307 0.43626 0.26001
 H846 H 0.62269 0.46293 0.26534
 H847 H 0.65357 0.49482 0.22402
 H848 H 0.67332 0.46755 0.21806
 C849 C 0.71066 0.61317 0.27263
 C850 C 0.72284 0.61906 0.25831
 C851 C 0.73514 0.63419 0.26101
 C852 C 0.73553 0.64385 0.27808
 C853 C 0.72326 0.63803 0.29235
 C854 C 0.71099 0.62287 0.28967
 C855 C 0.69787 0.59681 0.26989
 C856 C 0.67950 0.59683 0.27724
 C857 C 0.66761 0.58131 0.27480
 C858 C 0.67382 0.56542 0.26493
 C859 C 0.69215 0.56548 0.25748
 C860 C 0.70404 0.58094 0.25998
 C861 C 0.66136 0.54879 0.26229
 C862 C 0.66889 0.53057 0.26299
 C863 C 0.65763 0.51491 0.25933
 C864 C 0.63846 0.51695 0.25437
 C865 C 0.63064 0.53518 0.25541
 C866 C 0.64198 0.55089 0.25891
 H867 H 0.72272 0.61210 0.24491
 H868 H 0.74420 0.63838 0.24962
 H869 H 0.72327 0.64497 0.30575
 H870 H 0.70202 0.61852 0.30109
 H871 H 0.67423 0.60892 0.28477
 H872 H 0.65364 0.58166 0.28085
 H873 H 0.69730 0.55361 0.24956
 H874 H 0.71817 0.58034 0.25434
 H875 H 0.68356 0.52837 0.26652
 H876 H 0.66412 0.50124 0.26066
 H877 H 0.61576 0.53729 0.25284
 H878 H 0.63562 0.56471 0.25852
 C879 C 0.21552 0.10893 0.77161
 C880 C 0.23196 0.11146 0.76100
 C881 C 0.24378 0.12688 0.76413
 C882 C 0.23946 0.14017 0.77799
 C883 C 0.22298 0.13761 0.78860
 C884 C 0.21117 0.12219 0.78544
 C885 C 0.20292 0.09256 0.76822
 C886 C 0.19430 0.08311 0.78318
 C887 C 0.18229 0.06786 0.77998
 C888 C 0.17865 0.06164 0.76174
 C889 C 0.18740 0.07100 0.74680
 C890 C 0.19935 0.08631 0.75000
 C891 C 0.16558 0.04564 0.75833
 C892 C 0.15327 0.04584 0.74304
 C893 C 0.14077 0.03098 0.73994
 C894 C 0.13969 0.01563 0.75243
 C895 C 0.15273 0.01522 0.76730
 C896 C 0.16532 0.03002 0.77030
 H897 H 0.23586 0.10137 0.75040
 H898 H 0.25635 0.12822 0.75573
 H899 H 0.21903 0.14753 0.79930
 H900 H 0.19845 0.12082 0.79367
 H901 H 0.19695 0.08741 0.79740
 H902 H 0.17563 0.06111 0.79180
 H903 H 0.18512 0.06644 0.73259
 H904 H 0.20558 0.09341 0.73815
 H905 H 0.15315 0.05761 0.73347
 H906 H 0.13226 0.03170 0.72751
 H907 H 0.15297 0.00337 0.77679
 H908 H 0.17502 0.02912 0.78191
 C909 C 0.22777 0.28654 0.10929
 C910 C 0.23933 0.27082 0.11237
 C911 C 0.23626 0.25903 0.12764
 C912 C 0.22152 0.26262 0.14024
 C913 C 0.20992 0.27834 0.13711
 C914 C 0.21303 0.29015 0.12184
 C915 C 0.23116 0.29916 0.09310
 C916 C 0.21600 0.30693 0.08314
 C917 C 0.21922 0.31892 0.06803
 C918 C 0.23770 0.32333 0.06241
 C919 C 0.25286 0.31541 0.07229
 C920 C 0.24963 0.30356 0.08748
 C921 C 0.24115 0.33631 0.04649
 C922 C 0.25638 0.34893 0.04680
 C923 C 0.25960 0.36125 0.03198
 C924 C 0.24721 0.36192 0.01657
 C925 C 0.23235 0.34867 0.01610
 C926 C 0.22931 0.33617 0.03082
 H927 H 0.25064 0.26747 0.10283
 H928 H 0.24547 0.24708 0.12942
 H929 H 0.19848 0.28168 0.14646
 H930 H 0.20402 0.30229 0.12003
 H931 H 0.20160 0.30364 0.08694
 H932 H 0.20721 0.32493 0.06091
 H933 H 0.26727 0.31825 0.06822
 H934 H 0.26163 0.29801 0.09498
 H935 H 0.26585 0.34943 0.05861
 H936 H 0.27203 0.36996 0.03281
 H937 H 0.22292 0.34815 0.00425
 H938 H 0.21776 0.32625 0.02981
 C939 C 0.72810 0.78992 0.61158
 C940 C 0.73637 0.77197 0.61163
 C941 C 0.73356 0.75969 0.62658
 C942 C 0.72232 0.76502 0.64179
 C943 C 0.71403 0.78295 0.64174
 C944 C 0.71692 0.79528 0.62684
 C945 C 0.73109 0.80298 0.59566
 C946 C 0.71634 0.81444 0.58919
 C947 C 0.71914 0.82665 0.57417
 C948 C 0.73672 0.82763 0.56520
 C949 C 0.75147 0.81618 0.57170
 C950 C 0.74870 0.80405 0.58677
 C951 C 0.73967 0.84039 0.54904
 C952 C 0.75680 0.84996 0.54672
 C953 C 0.75989 0.86146 0.53123
 C954 C 0.74594 0.86380 0.51731
 C955 C 0.72850 0.85453 0.52027
 C956 C 0.72549 0.84296 0.53570
 H957 H 0.74480 0.76727 0.59996
 H958 H 0.73998 0.74591 0.62604
 H959 H 0.70550 0.78763 0.65333
 H960 H 0.71061 0.80911 0.62739
 H961 H 0.70254 0.81381 0.59558
 H962 H 0.70754 0.83543 0.56967
 H963 H 0.76512 0.81640 0.56497
 H964 H 0.76043 0.79561 0.59155
 H965 H 0.76787 0.84870 0.55703
 H966 H 0.77337 0.86837 0.53061
 H967 H 0.71715 0.85595 0.51028
 H968 H 0.71212 0.83570 0.53695
 C969 C 0.77240 0.79127 0.38699
 C970 C 0.76252 0.77418 0.38593
 C971 C 0.76510 0.76211 0.37082
 C972 C 0.77772 0.76678 0.35642
 C973 C 0.78758 0.78394 0.35750
 C974 C 0.78490 0.79607 0.37258
 C975 C 0.76974 0.80393 0.40317
 C976 C 0.76744 0.82339 0.40063
 C977 C 0.76437 0.83518 0.41592
 C978 C 0.76369 0.82777 0.43409
 C979 C 0.76639 0.80833 0.43658
 C980 C 0.76926 0.79655 0.42130
 C981 C 0.75985 0.84010 0.45040
 C982 C 0.74889 0.83349 0.46527
 C983 C 0.74547 0.84471 0.48083
 C984 C 0.75275 0.86321 0.48221
 C985 C 0.76330 0.86987 0.46675
 C986 C 0.76694 0.85850 0.45129
 H987 H 0.75263 0.77023 0.39674
 H988 H 0.75727 0.74905 0.37059
 H989 H 0.79735 0.78810 0.34670
 H990 H 0.79282 0.80909 0.37314
 H991 H 0.76758 0.82941 0.38678
 H992 H 0.76209 0.85002 0.41345
 H993 H 0.76640 0.80217 0.45037
 H994 H 0.77130 0.78165 0.42368
 H995 H 0.74267 0.81958 0.46484
 H996 H 0.73702 0.83836 0.49149
 H997 H 0.76874 0.88410 0.46649
 H998 H 0.77549 0.86411 0.44010
 C999 C 0.27229 0.28611 -0.10944
 C1000 C 0.28704 0.28972 -0.12201
 C1001 C 0.29018 0.27785 -0.13719
 C1002 C 0.27861 0.26205 -0.14024
 C1003 C 0.26383 0.25849 -0.12766
 C1004 C 0.26073 0.27034 -0.11246
 C1005 C 0.26891 0.29877 -0.09331
 C1006 C 0.25046 0.30313 -0.08769
 C1007 C 0.24726 0.31506 -0.07256
 C1008 C 0.26244 0.32308 -0.06277
 C1009 C 0.28090 0.31869 -0.06839
 C1010 C 0.28410 0.30664 -0.08343
 C1011 C 0.25904 0.33615 -0.04693
 C1012 C 0.27092 0.33614 -0.03130
 C1013 C 0.26792 0.34872 -0.01667
 C1014 C 0.25306 0.36191 -0.01719
 C1015 C 0.24064 0.36112 -0.03257
 C1016 C 0.24381 0.34873 -0.04731
 H1017 H 0.29605 0.30190 -0.12026
 H1018 H 0.30164 0.28120 -0.14654
 H1019 H 0.25462 0.24649 -0.12939
 H1020 H 0.24939 0.26699 -0.10291
 H1021 H 0.23844 0.29751 -0.09512
 H1022 H 0.23286 0.31788 -0.06849
 H1023 H 0.29293 0.32477 -0.06133
 H1024 H 0.29849 0.30338 -0.08722
 H1025 H 0.28246 0.32626 -0.03024
 H1026 H 0.27738 0.34828 -0.00483
 H1027 H 0.22822 0.36981 -0.03344
 H1028 H 0.23432 0.34914 -0.05910
 C1029 C 0.72991 0.20913 -0.11198
 C1030 C 0.71152 0.21179 -0.11880
 C1031 C 0.70811 0.22411 -0.13362
 C1032 C 0.72297 0.23422 -0.14181
 C1033 C 0.74135 0.23156 -0.13506
 C1034 C 0.74479 0.21908 -0.12041
 C1035 C 0.73355 0.19624 -0.09601
 C1036 C 0.74746 0.20058 -0.08273
 C1037 C 0.75075 0.18865 -0.06762
 C1038 C 0.74002 0.17218 -0.06516
 C1039 C 0.72617 0.16778 -0.07850
 C1040 C 0.72306 0.17959 -0.09377
 C1041 C 0.74291 0.15993 -0.04855
 C1042 C 0.74075 0.14032 -0.04975
 C1043 C 0.74271 0.12900 -0.03394
 C1044 C 0.74665 0.13688 -0.01631
 C1045 C 0.75007 0.15646 -0.01555
 C1046 C 0.74779 0.16779 -0.03127
 H1047 H 0.69965 0.20465 -0.11247
 H1048 H 0.69377 0.22599 -0.13839
 H1049 H 0.75316 0.23891 -0.14124
 H1050 H 0.75919 0.21712 -0.11582
 H1051 H 0.75565 0.21339 -0.08382
 H1052 H 0.76177 0.19238 -0.05787
 H1053 H 0.71746 0.15536 -0.07699
 H1054 H 0.71245 0.17561 -0.10386
 H1055 H 0.73766 0.13365 -0.06294
 H1056 H 0.74085 0.11396 -0.03539
 H1057 H 0.75464 0.16333 -0.00293
 H1058 H 0.74966 0.18282 -0.02974
 C1059 C 0.22640 0.70886 0.38674
 C1060 C 0.23601 0.72614 0.38597
 C1061 C 0.23325 0.73847 0.37106
 C1062 C 0.22081 0.73383 0.35652
 C1063 C 0.21129 0.71647 0.35725
 C1064 C 0.21406 0.70414 0.37218
 C1065 C 0.22913 0.69590 0.40276
 C1066 C 0.23034 0.67636 0.40003
 C1067 C 0.23297 0.66423 0.41515
 C1068 C 0.23444 0.67137 0.43335
 C1069 C 0.23319 0.69091 0.43605
 C1070 C 0.23055 0.70302 0.42096
 C1071 C 0.23755 0.65864 0.44948
 C1072 C 0.22854 0.66206 0.46653
 C1073 C 0.23238 0.65090 0.48206
 C1074 C 0.24581 0.63630 0.48125
 C1075 C 0.25355 0.63193 0.46365
 C1076 C 0.24974 0.64316 0.44810
 H1077 H 0.24580 0.73009 0.39685
 H1078 H 0.24080 0.75170 0.37107
 H1079 H 0.20171 0.71229 0.34630
 H1080 H 0.20630 0.69101 0.37245
 H1081 H 0.22949 0.67046 0.38616
 H1082 H 0.23369 0.64924 0.41261
 H1083 H 0.23452 0.69690 0.44985
 H1084 H 0.22945 0.71797 0.42357
 H1085 H 0.21848 0.67341 0.46789
 H1086 H 0.22516 0.65398 0.49499
 H1087 H 0.26253 0.61985 0.46168
 H1088 H 0.25664 0.63989 0.43505
 C1089 C 0.27269 0.70978 0.61089
 C1090 C 0.25845 0.72244 0.61613
 C1091 C 0.26102 0.73458 0.63123
 C1092 C 0.27790 0.73434 0.64149
 C1093 C 0.29209 0.72160 0.63628
 C1094 C 0.28952 0.70949 0.62118
 C1095 C 0.27012 0.69707 0.59465
 C1096 C 0.27676 0.67845 0.59515
 C1097 C 0.27450 0.66659 0.57978
 C1098 C 0.26551 0.67307 0.56355
 C1099 C 0.25883 0.69168 0.56309
 C1100 C 0.26114 0.70354 0.57842
 C1101 C 0.26285 0.66050 0.54721
 C1102 C 0.26459 0.66762 0.52905
 C1103 C 0.26086 0.65625 0.51365
 C1104 C 0.25466 0.63749 0.51589
 C1105 C 0.25474 0.62998 0.53411
 C1106 C 0.25834 0.64140 0.54955
 H1107 H 0.24520 0.72283 0.60866
 H1108 H 0.24969 0.74404 0.63488
 H1109 H 0.30536 0.72107 0.64366
 H1110 H 0.30089 0.70012 0.61735
 H1111 H 0.28357 0.67297 0.60751
 H1112 H 0.27998 0.65241 0.58054
 H1113 H 0.25161 0.69705 0.55092
 H1114 H 0.25608 0.71786 0.57748
 H1115 H 0.26899 0.68202 0.52671
 H1116 H 0.26297 0.66232 0.49999
 H1117 H 0.25134 0.61531 0.53643
 H1118 H 0.25713 0.63534 0.56333
 C1119 C 0.76876 0.20798 0.11361
 C1120 C 0.78578 0.20727 0.12356
 C1121 C 0.78929 0.21991 0.13806
 C1122 C 0.77581 0.23352 0.14300
 C1123 C 0.75873 0.23411 0.13307
 C1124 C 0.75527 0.22152 0.11854
 C1125 C 0.76516 0.19484 0.09796
 C1126 C 0.75702 0.20139 0.08136
 C1127 C 0.75383 0.18914 0.06650
 C1128 C 0.75860 0.17000 0.06792
 C1129 C 0.76665 0.16342 0.08459
 C1130 C 0.76994 0.17573 0.09943
 C1131 C 0.75557 0.15717 0.05185
 C1132 C 0.76884 0.14324 0.04741
 C1133 C 0.76662 0.13208 0.03155
 C1134 C 0.75140 0.13500 0.01918
 C1135 C 0.73740 0.14797 0.02464
 C1136 C 0.73955 0.15902 0.04055
 H1137 H 0.79655 0.19715 0.11989
 H1138 H 0.80267 0.21909 0.14520
 H1139 H 0.74790 0.24419 0.13654
 H1140 H 0.74192 0.22224 0.11128
 H1141 H 0.75346 0.21611 0.07971
 H1142 H 0.74797 0.19476 0.05374
 H1143 H 0.77024 0.14872 0.08625
 H1144 H 0.77602 0.17024 0.11216
 H1145 H 0.78121 0.14120 0.05600
 H1146 H 0.77696 0.12122 0.02923
 H1147 H 0.72494 0.14994 0.01615
 H1148 H 0.72867 0.16910 0.04395
 C1149 C 0.47909 0.36040 0.53659
 C1150 C 0.49011 0.36259 0.52048
 C1151 C 0.48715 0.37775 0.50843
 C1152 C 0.47307 0.39114 0.51218
 C1153 C 0.46201 0.38889 0.52829
 C1154 C 0.46498 0.37372 0.54034
 C1155 C 0.48237 0.34435 0.54948
 C1156 C 0.46715 0.33500 0.55797
 C1157 C 0.47027 0.31998 0.57015
 C1158 C 0.48869 0.31388 0.57409
 C1159 C 0.50390 0.32318 0.56552
 C1160 C 0.50078 0.33825 0.55341
 C1161 C 0.49201 0.29799 0.58719
 C1162 C 0.50742 0.29825 0.59944
 C1163 C 0.51054 0.28342 0.61183
 C1164 C 0.49794 0.26802 0.61284
 C1165 C 0.48290 0.26760 0.59994
 C1166 C 0.47990 0.28236 0.58746
 H1167 H 0.50090 0.35243 0.51702
 H1168 H 0.49590 0.37884 0.49616
 H1169 H 0.45111 0.39888 0.53178
 H1170 H 0.45642 0.37260 0.55277
 H1171 H 0.45279 0.33919 0.55506
 H1172 H 0.45824 0.31329 0.57667
 H1173 H 0.51825 0.31871 0.56803
 H1174 H 0.51283 0.34528 0.54730
 H1175 H 0.51710 0.31004 0.59958
 H1176 H 0.52307 0.28418 0.62029
 H1177 H 0.47330 0.25574 0.59968
 H1178 H 0.46820 0.28141 0.57783
 C1179 C -0.02339 0.86228 0.03833
 C1180 C -0.04061 0.87202 0.03775
 C1181 C -0.04321 0.88700 0.02538
 C1182 C -0.02868 0.89257 0.01324
 C1183 C -0.01144 0.88290 0.01389
 C1184 C -0.00881 0.86798 0.02631
 C1185 C -0.02074 0.84605 0.05116
 C1186 C -0.01061 0.83015 0.04532
 C1187 C -0.00813 0.81483 0.05724
 C1188 C -0.01582 0.81492 0.07529
 C1189 C -0.02594 0.83083 0.08118
 C1190 C -0.02836 0.84622 0.06925
 C1191 C -0.01320 0.79841 0.08777
 C1192 C -0.00984 0.80069 0.10692
 C1193 C -0.00623 0.78507 0.11824
 C1194 C -0.00503 0.76679 0.11064
 C1195 C -0.01006 0.76459 0.09171
 C1196 C -0.01381 0.78013 0.08046
 H1197 H -0.05223 0.86781 0.04660
 H1198 H -0.05674 0.89397 0.02515
 H1199 H 0.00015 0.88694 0.00494
 H1200 H 0.00474 0.86102 0.02661
 H1201 H -0.00476 0.82942 0.03141
 H1202 H -0.00002 0.80293 0.05234
 H1203 H -0.03219 0.83129 0.09492
 H1204 H -0.03607 0.85833 0.07426
 H1205 H -0.00954 0.81456 0.11310
 H1206 H -0.00367 0.78731 0.13294
 H1207 H -0.01134 0.75087 0.08538
 H1208 H -0.01734 0.77779 0.06598
 C1209 C 0.02214 0.63754 0.03860
 C1210 C 0.03745 0.62523 0.04061
 C1211 C 0.04030 0.61063 0.02792
 C1212 C 0.02789 0.60794 0.01286
 C1213 C 0.01254 0.62028 0.01089
 C1214 C 0.00969 0.63489 0.02360
 C1215 C 0.01926 0.65318 0.05201
 C1216 C 0.00107 0.65789 0.05817
 C1217 C -0.00164 0.67277 0.07058
 C1218 C 0.01378 0.68331 0.07709
 C1219 C 0.03199 0.67848 0.07109
 C1220 C 0.03470 0.66359 0.05870
 C1221 C 0.01079 0.69964 0.08963
 C1222 C 0.02103 0.71632 0.08703
 C1223 C 0.01757 0.73200 0.09818
 C1224 C 0.00334 0.73174 0.11194
 C1225 C -0.00599 0.71449 0.11528
 C1226 C -0.00250 0.69878 0.10410
 H1227 H 0.04716 0.62674 0.05215
 H1228 H 0.05224 0.60148 0.03006
 H1229 H 0.00267 0.61877 -0.00048
 H1230 H -0.00210 0.64430 0.02151
 H1231 H -0.01109 0.65000 0.05345
 H1232 H -0.01586 0.67627 0.07479
 H1233 H 0.04417 0.68620 0.07601
 H1234 H 0.04887 0.66044 0.05409
 H1235 H 0.03144 0.71745 0.07606
 H1236 H 0.02563 0.74470 0.09566
 H1237 H -0.01590 0.71285 0.12658
 H1238 H -0.01010 0.68587 0.10689
 C1239 C 0.52190 0.14191 0.53623
 C1240 C 0.51083 0.13992 0.52013
 C1241 C 0.51361 0.12479 0.50805
 C1242 C 0.52755 0.11125 0.51173
 C1243 C 0.53869 0.11331 0.52780
 C1244 C 0.53589 0.12845 0.53990
 C1245 C 0.51876 0.15791 0.54918
 C1246 C 0.53406 0.16711 0.55765
 C1247 C 0.53107 0.18209 0.56989
 C1248 C 0.51270 0.18828 0.57389
 C1249 C 0.49741 0.17913 0.56534
 C1250 C 0.50040 0.16410 0.55318
 C1251 C 0.50950 0.20411 0.58705
 C1252 C 0.49414 0.20382 0.59937
 C1253 C 0.49111 0.21861 0.61179
 C1254 C 0.50375 0.23397 0.61279
 C1255 C 0.51874 0.23442 0.59983
 C1256 C 0.52165 0.21970 0.58730
 H1257 H 0.50012 0.15020 0.51674
 H1258 H 0.50482 0.12387 0.49578
 H1259 H 0.54949 0.10318 0.53124
 H1260 H 0.54450 0.12943 0.55232
 H1261 H 0.54839 0.16283 0.55470
 H1262 H 0.54315 0.18868 0.57639
 H1263 H 0.48309 0.18367 0.56790
 H1264 H 0.48829 0.15717 0.54707
 H1265 H 0.48443 0.19207 0.59951
 H1266 H 0.47860 0.21784 0.62029
 H1267 H 0.52835 0.24627 0.59954
 H1268 H 0.53332 0.22066 0.57762
 C1269 C -0.02205 0.14163 0.46461
 C1270 C -0.03596 0.12810 0.46076
 C1271 C -0.03880 0.11286 0.47276
 C1272 C -0.02779 0.11076 0.48892
 C1273 C -0.01391 0.12436 0.49277
 C1274 C -0.01109 0.13960 0.48078
 C1275 C -0.01890 0.15774 0.45175
 C1276 C -0.00055 0.16411 0.44790
 C1277 C 0.00246 0.17918 0.43575
 C1278 C -0.01281 0.18819 0.42704
 C1279 C -0.03118 0.18183 0.43091
 C1280 C -0.03419 0.16682 0.44314
 C1281 C -0.00959 0.20403 0.41385
 C1282 C -0.02185 0.21949 0.41343
 C1283 C -0.01892 0.23421 0.40086
 C1284 C -0.00383 0.23387 0.38802
 C1285 C 0.00891 0.21865 0.38920
 C1286 C 0.00588 0.20387 0.40166
 H1287 H -0.04447 0.12910 0.44829
 H1288 H -0.04954 0.10269 0.46918
 H1289 H -0.00521 0.12338 0.50509
 H1290 H -0.00045 0.14993 0.48431
 H1291 H 0.01155 0.15729 0.45411
 H1292 H 0.01677 0.18385 0.43330
 H1293 H -0.04324 0.18830 0.42428
 H1294 H -0.04852 0.16241 0.44596
 H1295 H -0.03360 0.22036 0.42300
 H1296 H -0.02862 0.24596 0.40101
 H1297 H 0.02151 0.21801 0.38080
 H1298 H 0.01567 0.19221 0.40165
 C1299 C 0.47824 0.64025 0.96382
 C1300 C 0.46169 0.62946 0.96283
 C1301 C 0.45889 0.61428 0.97490
 C1302 C 0.47255 0.60957 0.98831
 C1303 C 0.48910 0.62045 0.98928
 C1304 C 0.49192 0.63558 0.97716
 C1305 C 0.48124 0.65632 0.95096
 C1306 C 0.49884 0.65915 0.94244
 C1307 C 0.50166 0.67423 0.93027
 C1308 C 0.48697 0.68692 0.92642
 C1309 C 0.46938 0.68410 0.93503
 C1310 C 0.46654 0.66894 0.94711
 C1311 C 0.48999 0.70294 0.91342
 C1312 C 0.47569 0.70864 0.90116
 C1313 C 0.47856 0.72357 0.88881
 C1314 C 0.49613 0.73294 0.88786
 C1315 C 0.51012 0.72755 0.90080
 C1316 C 0.50717 0.71274 0.91325
 H1317 H 0.45098 0.63262 0.95255
 H1318 H 0.44595 0.60633 0.97368
 H1319 H 0.49999 0.61731 0.99934
 H1320 H 0.50474 0.64378 0.97837
 H1321 H 0.51035 0.64949 0.94496
 H1322 H 0.51527 0.67578 0.92362
 H1323 H 0.45787 0.69377 0.93265
 H1324 H 0.45290 0.66724 0.95369
 H1325 H 0.46222 0.70145 0.90098
 H1326 H 0.46673 0.72769 0.88030
 H1327 H 0.52355 0.73482 0.90112
 H1328 H 0.51831 0.70911 0.92289
 C1329 C 0.52088 0.85987 0.96293
 C1330 C 0.53785 0.87010 0.96283
 C1331 C 0.54040 0.88536 0.97483
 C1332 C 0.52606 0.89076 0.98723
 C1333 C 0.50906 0.88056 0.98723
 C1334 C 0.50651 0.86530 0.97524
 C1335 C 0.51818 0.84358 0.95026
 C1336 C 0.50898 0.82722 0.95652
 C1337 C 0.50630 0.81196 0.94456
 C1338 C 0.51280 0.81270 0.92610
 C1339 C 0.52207 0.82901 0.91986
 C1340 C 0.52471 0.84429 0.93179
 C1341 C 0.50986 0.79658 0.91332
 C1342 C 0.52438 0.79065 0.90147
 C1343 C 0.52160 0.77571 0.88916
 C1344 C 0.50393 0.76656 0.88788
 C1345 C 0.48974 0.77212 0.90054
 C1346 C 0.49258 0.78698 0.91292
 H1347 H 0.54929 0.86611 0.95368
 H1348 H 0.55374 0.89273 0.97451
 H1349 H 0.49758 0.88439 0.99636
 H1350 H 0.49317 0.85789 0.97545
 H1351 H 0.50409 0.82612 0.97077
 H1352 H 0.49936 0.79946 0.94982
 H1353 H 0.52699 0.83008 0.90561
 H1354 H 0.53159 0.85680 0.92647
 H1355 H 0.53807 0.79738 0.90196
 H1356 H 0.53359 0.77131 0.88102
 H1357 H 0.47621 0.76504 0.90057
 H1358 H 0.48114 0.79116 0.92198
 C1359 C 0.02126 0.36051 0.46314
 C1360 C 0.03168 0.37627 0.45731
 C1361 C 0.03458 0.39144 0.46934
 C1362 C 0.02698 0.39126 0.48742
 C1363 C 0.01652 0.37550 0.49322
 C1364 C 0.01376 0.36026 0.48124
 C1365 C 0.01809 0.34445 0.45035
 C1366 C 0.01991 0.32585 0.45673
 C1367 C 0.01684 0.31073 0.44467
 C1368 C 0.01170 0.31391 0.42604
 C1369 C 0.00986 0.33251 0.41967
 C1370 C 0.01310 0.34762 0.43167
 C1371 C 0.00821 0.29792 0.41326
 C1372 C -0.00746 0.29800 0.40138
 C1373 C -0.01072 0.28310 0.38913
 C1374 C 0.00203 0.26788 0.38790
 C1375 C 0.01730 0.26761 0.40055
 C1376 C 0.02042 0.28244 0.41291
 H1377 H 0.03775 0.37677 0.44348
 H1378 H 0.04259 0.40340 0.46437
 H1379 H 0.01057 0.37482 0.50708
 H1380 H 0.00552 0.34837 0.48604
 H1381 H 0.02389 0.32301 0.47102
 H1382 H 0.01821 0.29653 0.44998
 H1383 H 0.00608 0.33535 0.40532
 H1384 H 0.01145 0.36181 0.42642
 H1385 H -0.01747 0.30948 0.40184
 H1386 H -0.02349 0.28362 0.38100
 H1387 H 0.02703 0.25590 0.40061
 H1388 H 0.03258 0.28194 0.42201
 C1389 C 0.36312 0.53888 0.48076
 C1390 C 0.36308 0.52057 0.48814
 C1391 C 0.37821 0.50845 0.48491
 C1392 C 0.39364 0.51431 0.47407
 C1393 C 0.39363 0.53262 0.46663
 C1394 C 0.37857 0.54479 0.47001
 C1395 C 0.34701 0.55168 0.48412
 C1396 C 0.35005 0.57058 0.48900
 C1397 C 0.33481 0.58260 0.49223
 C1398 C 0.31619 0.57601 0.49050
 C1399 C 0.31322 0.55711 0.48548
 C1400 C 0.32844 0.54508 0.48241
 C1401 C 0.29986 0.58870 0.49375
 C1402 C 0.28341 0.58181 0.50222
 C1403 C 0.26758 0.59323 0.50418
 C1404 C 0.26746 0.61186 0.49728
 C1405 C 0.28463 0.61919 0.49049
 C1406 C 0.30044 0.60768 0.48830
 H1407 H 0.35140 0.51570 0.49659
 H1408 H 0.37768 0.49443 0.49075
 H1409 H 0.40531 0.53765 0.45832
 H1410 H 0.37887 0.55877 0.46400
 H1411 H 0.36424 0.57597 0.49060
 H1412 H 0.33764 0.59697 0.49635
 H1413 H 0.29910 0.55164 0.48361
 H1414 H 0.32569 0.53065 0.47839
 H1415 H 0.28279 0.56755 0.50749
 H1416 H 0.25548 0.58733 0.51125
 H1417 H 0.28562 0.63379 0.48627
 H1418 H 0.31296 0.61359 0.48196
 C1419 C 0.86186 0.03935 -0.02342
 C1420 C 0.87084 0.03843 -0.04084
 C1421 C 0.88588 0.02612 -0.04373
 C1422 C 0.89228 0.01438 -0.02929
 C1423 C 0.88335 0.01535 -0.01185
 C1424 C 0.86835 0.02772 -0.00894
 C1425 C 0.84556 0.05210 -0.02046
 C1426 C 0.83006 0.04615 -0.00978
 C1427 C 0.81463 0.05798 -0.00709
 C1428 C 0.81421 0.07603 -0.01510
 C1429 C 0.82973 0.08204 -0.02573
 C1430 C 0.84524 0.07020 -0.02838
 C1431 C 0.79756 0.08836 -0.01230
 C1432 C 0.79962 0.10779 -0.00939
 C1433 C 0.78388 0.11900 -0.00565
 C1434 C 0.76572 0.11102 -0.00391
 C1435 C 0.76370 0.09178 -0.00848
 C1436 C 0.77937 0.08064 -0.01234
 H1437 H 0.86599 0.04697 -0.05238
 H1438 H 0.89226 0.02561 -0.05740
 H1439 H 0.88803 0.00672 -0.00034
 H1440 H 0.86195 0.02829 0.00474
 H1441 H 0.82973 0.03222 -0.00368
 H1442 H 0.80304 0.05300 0.00141
 H1443 H 0.82980 0.09579 -0.03221
 H1444 H 0.85704 0.07528 -0.03652
 H1445 H 0.81342 0.11428 -0.00955
 H1446 H 0.78595 0.13393 -0.00344
 H1447 H 0.75005 0.08511 -0.00935
 H1448 H 0.77719 0.06591 -0.01551
 C1449 C 0.63608 0.03796 0.02397
 C1450 C 0.63332 0.02258 0.01199
 C1451 C 0.61850 0.00995 0.01500
 C1452 C 0.60604 0.01241 0.03004
 C1453 C 0.60883 0.02785 0.04198
 C1454 C 0.62365 0.04044 0.03898
 C1455 C 0.65191 0.05130 0.02091
 C1456 C 0.66237 0.05820 0.03607
 C1457 C 0.67738 0.07061 0.03321
 C1458 C 0.68228 0.07642 0.01513
 C1459 C 0.67174 0.06961 -0.00002
 C1460 C 0.65674 0.05718 0.00284
 C1461 C 0.69860 0.08915 0.01202
 C1462 C 0.69771 0.10357 -0.00132
 C1463 C 0.71336 0.11499 -0.00485
 C1464 C 0.73061 0.11195 0.00451
 C1465 C 0.73090 0.09822 0.01874
 C1466 C 0.71527 0.08683 0.02224
 H1467 H 0.64282 0.02013 0.00044
 H1468 H 0.61694 -0.00173 0.00551
 H1469 H 0.59958 0.03036 0.05367
 H1470 H 0.62525 0.05229 0.04832
 H1471 H 0.65913 0.05377 0.05015
 H1472 H 0.68510 0.07575 0.04518
 H1473 H 0.67530 0.07366 -0.01413
 H1474 H 0.64883 0.05226 -0.00911
 H1475 H 0.68479 0.10616 -0.00893
 H1476 H 0.71166 0.12624 -0.01482
 H1477 H 0.74360 0.09593 0.02680
 H1478 H 0.71643 0.07589 0.03268
 C1479 C 0.13599 0.54001 0.51876
 C1480 C 0.13230 0.52505 0.50654
 C1481 C 0.11737 0.51267 0.50993
 C1482 C 0.10579 0.51491 0.52568
 C1483 C 0.10954 0.52992 0.53790
 C1484 C 0.12443 0.54234 0.53445
 C1485 C 0.15197 0.55302 0.51525
 C1486 C 0.14988 0.57250 0.51782
 C1487 C 0.16501 0.58471 0.51462
 C1488 C 0.18258 0.57769 0.50889
 C1489 C 0.18463 0.55818 0.50634
 C1490 C 0.16949 0.54601 0.50943
 C1491 C 0.19887 0.59051 0.50584
 C1492 C 0.21155 0.58724 0.49121
 C1493 C 0.22752 0.59849 0.48905
 C1494 C 0.23166 0.61308 0.50175
 C1495 C 0.21800 0.61727 0.51543
 C1496 C 0.20205 0.60592 0.51767
 H1497 H 0.14085 0.52304 0.49420
 H1498 H 0.11495 0.50142 0.50011
 H1499 H 0.10110 0.53212 0.55023
 H1500 H 0.12710 0.55360 0.54426
 H1501 H 0.13646 0.57832 0.52207
 H1502 H 0.16287 0.59966 0.51644
 H1503 H 0.19806 0.55227 0.50229
 H1504 H 0.17160 0.53104 0.50763
 H1505 H 0.20913 0.57595 0.48139
 H1506 H 0.23703 0.59549 0.47764
 H1507 H 0.21946 0.62929 0.52452
 H1508 H 0.19239 0.60904 0.52891
 C1509 C 0.13986 0.46371 -0.02296
 C1510 C 0.12466 0.45781 -0.03405
 C1511 C 0.10933 0.46972 -0.03716
 C1512 C 0.10880 0.48774 -0.02915
 C1513 C 0.12404 0.49362 -0.01806
 C1514 C 0.13942 0.48176 -0.01504
 C1515 C 0.15605 0.45102 -0.01954
 C1516 C 0.17462 0.45789 -0.02034
 C1517 C 0.18985 0.44589 -0.01713
 C1518 C 0.18680 0.42684 -0.01287
 C1519 C 0.16825 0.42000 -0.01199
 C1520 C 0.15303 0.43195 -0.01537
 C1521 C 0.20289 0.41408 -0.00935
 C1522 C 0.20252 0.40164 0.00580
 C1523 C 0.21748 0.38933 0.00903
 C1524 C 0.23306 0.38861 -0.00324
 C1525 C 0.23358 0.40182 -0.01797
 C1526 C 0.21870 0.41426 -0.02104
 H1527 H 0.12471 0.44403 -0.04048
 H1528 H 0.09782 0.46466 -0.04567
 H1529 H 0.12420 0.50742 -0.01176
 H1530 H 0.15087 0.48661 -0.00629
 H1531 H 0.17735 0.47251 -0.02366
 H1532 H 0.20402 0.45153 -0.01774
 H1533 H 0.16553 0.40534 -0.00887
 H1534 H 0.13886 0.42632 -0.01449
 H1535 H 0.19074 0.40167 0.01539
 H1536 H 0.21668 0.38073 0.02139
 H1537 H 0.24553 0.40225 -0.02735
 H1538 H 0.21941 0.42381 -0.03278
 C1539 C 0.63755 0.96423 0.47701
 C1540 C 0.62135 0.95811 0.46746
 C1541 C 0.60625 0.97032 0.46444
 C1542 C 0.60686 0.98888 0.47109
 C1543 C 0.62295 0.99501 0.48071
 C1544 C 0.63817 0.98288 0.48354
 C1545 C 0.65365 0.95121 0.48019
 C1546 C 0.66425 0.95214 0.49672
 C1547 C 0.67935 0.93992 0.49970
 C1548 C 0.68412 0.92624 0.48637
 C1549 C 0.67346 0.92527 0.46988
 C1550 C 0.65853 0.93767 0.46677
 C1551 C 0.70017 0.91314 0.48959
 C1552 C 0.71154 0.90719 0.47474
 C1553 C 0.72671 0.89507 0.47773
 C1554 C 0.73116 0.88836 0.49574
 C1555 C 0.71991 0.89498 0.51066
 C1556 C 0.70452 0.90677 0.50758
 H1557 H 0.62018 0.94377 0.46255
 H1558 H 0.59396 0.96508 0.45718
 H1559 H 0.62395 1.00930 0.48581
 H1560 H 0.65053 0.98823 0.49062
 H1561 H 0.66077 0.96218 0.50750
 H1562 H 0.68740 0.94137 0.51242
 H1563 H 0.67652 0.91480 0.45938
 H1564 H 0.65092 0.93672 0.45374
 H1565 H 0.70906 0.91229 0.46074
 H1566 H 0.73503 0.89145 0.46573
 H1567 H 0.72323 0.89144 0.52494
 H1568 H 0.69609 0.91097 0.51943
 C1569 C 0.86167 0.96308 0.52060
 C1570 C 0.87160 0.96236 0.53751
 C1571 C 0.88667 0.97457 0.54083
 C1572 C 0.89218 0.98782 0.52732
 C1573 C 0.88223 0.98853 0.51040
 C1574 C 0.86716 0.97630 0.50708
 C1575 C 0.84553 0.95022 0.51716
 C1576 C 0.82922 0.95677 0.50817
 C1577 C 0.81393 0.94477 0.50514
 C1578 C 0.81454 0.92593 0.51108
 C1579 C 0.83090 0.91933 0.51996
 C1580 C 0.84622 0.93134 0.52296
 C1581 C 0.79804 0.91334 0.50824
 C1582 C 0.80045 0.89439 0.50338
 C1583 C 0.78485 0.88267 0.50071
 C1584 C 0.76622 0.88953 0.50256
 C1585 C 0.76409 0.90860 0.50779
 C1586 C 0.77969 0.92022 0.51054
 H1587 H 0.86752 0.95255 0.54833
 H1588 H 0.89382 0.97371 0.55410
 H1589 H 0.88614 0.99837 0.49958
 H1590 H 0.85996 0.97704 0.49381
 H1591 H 0.82815 0.97129 0.50372
 H1592 H 0.80165 0.95024 0.49804
 H1593 H 0.83176 0.90496 0.52487
 H1594 H 0.85868 0.92580 0.52972
 H1595 H 0.81442 0.88861 0.50145
 H1596 H 0.78735 0.86806 0.49731
 H1597 H 0.75045 0.91487 0.50998
 H1598 H 0.77734 0.93464 0.51478
 C1599 C 0.36025 0.46427 0.02234
 C1600 C 0.36056 0.48249 0.01476
 C1601 C 0.37591 0.49440 0.01789
 C1602 C 0.39123 0.48841 0.02880
 C1603 C 0.39082 0.47023 0.03649
 C1604 C 0.37553 0.45827 0.03324
 C1605 C 0.34409 0.45153 0.01881
 C1606 C 0.34716 0.43256 0.01428
 C1607 C 0.33196 0.42054 0.01086
 C1608 C 0.31337 0.42720 0.01204
 C1609 C 0.31028 0.44615 0.01663
 C1610 C 0.32550 0.45822 0.01990
 C1611 C 0.29730 0.41435 0.00855
 C1612 C 0.28151 0.41441 0.02028
 C1613 C 0.26665 0.40190 0.01724
 C1614 C 0.26718 0.38869 0.00254
 C1615 C 0.28273 0.38952 -0.00977
 C1616 C 0.29766 0.40193 -0.00660
 H1617 H 0.34904 0.48742 0.00617
 H1618 H 0.37568 0.50835 0.01186
 H1619 H 0.40241 0.46510 0.04485
 H1620 H 0.37558 0.44436 0.03941
 H1621 H 0.36134 0.42707 0.01317
 H1622 H 0.33473 0.40596 0.00750
 H1623 H 0.29610 0.45168 0.01749
 H1624 H 0.32272 0.47274 0.02350
 H1625 H 0.28080 0.42392 0.03203
 H1626 H 0.25471 0.40225 0.02664
 H1627 H 0.28352 0.38092 -0.02211
 H1628 H 0.30940 0.40205 -0.01623
 C1629 C 0.54083 0.48177 0.36332
 C1630 C 0.53103 0.49662 0.37189
 C1631 C 0.51865 0.49315 0.38664
 C1632 C 0.51596 0.47480 0.39338
 C1633 C 0.52589 0.45997 0.38502
 C1634 C 0.53807 0.46339 0.37009
 C1635 C 0.55367 0.48542 0.34727
 C1636 C 0.57015 0.47476 0.34480
 C1637 C 0.58189 0.47785 0.32945
 C1638 C 0.57761 0.49188 0.31628
 C1639 C 0.56133 0.50280 0.31898
 C1640 C 0.54945 0.49951 0.33416
 C1641 C 0.58979 0.49474 0.29958
 C1642 C 0.58189 0.50006 0.28243
 C1643 C 0.59313 0.50218 0.26661
 C1644 C 0.61261 0.49811 0.26712
 C1645 C 0.62059 0.49385 0.28464
 C1646 C 0.60938 0.49207 0.30055
 H1647 H 0.53306 0.51100 0.36735
 H1648 H 0.51141 0.50492 0.39294
 H1649 H 0.52396 0.44564 0.38977
 H1650 H 0.54505 0.45154 0.36365
 H1651 H 0.57406 0.46401 0.35475
 H1652 H 0.59414 0.46897 0.32776
 H1653 H 0.55769 0.51396 0.30938
 H1654 H 0.53676 0.50785 0.33542
 H1655 H 0.56689 0.50239 0.28107
 H1656 H 0.58630 0.50714 0.25411
 H1657 H 0.63562 0.49160 0.28593
 H1658 H 0.61613 0.48868 0.31364
 C1659 C 0.03690 -0.02345 0.85883
 C1660 C 0.04087 -0.03749 0.87204
 C1661 C 0.02888 -0.04044 0.88724
 C1662 C 0.01262 -0.02941 0.88961
 C1663 C 0.00865 -0.01541 0.87630
 C1664 C 0.02062 -0.01249 0.86113
 C1665 C 0.04970 -0.02014 0.84275
 C1666 C 0.05352 -0.00175 0.83660
 C1667 C 0.06550 0.00142 0.82147
 C1668 C 0.07407 -0.01372 0.81218
 C1669 C 0.07023 -0.03212 0.81833
 C1670 C 0.05817 -0.03529 0.83341
 C1671 C 0.08712 -0.01032 0.79630
 C1672 C 0.08724 -0.02237 0.78082
 C1673 C 0.09975 -0.01931 0.76610
 C1674 C 0.11284 -0.00430 0.76645
 C1675 C 0.11189 0.00827 0.78167
 C1676 C 0.09949 0.00510 0.79645
 H1677 H 0.05343 -0.04602 0.87082
 H1678 H 0.03253 -0.05128 0.89717
 H1679 H -0.00375 -0.00669 0.87744
 H1680 H 0.01698 -0.00175 0.85106
 H1681 H 0.04742 0.01026 0.84361
 H1682 H 0.06792 0.01576 0.81697
 H1683 H 0.07675 -0.04410 0.81163
 H1684 H 0.05535 -0.04964 0.83766
 H1685 H 0.07750 -0.03407 0.77996
 H1686 H 0.09940 -0.02886 0.75437
 H1687 H 0.12044 0.02081 0.78235
 H1688 H 0.09973 0.01474 0.80811
 C1689 C 0.03745 0.02176 0.64022
 C1690 C 0.02104 0.01097 0.63777
 C1691 C 0.00911 0.01421 0.62264
 C1692 C 0.01326 0.02834 0.60953
 C1693 C 0.02968 0.03916 0.61202
 C1694 C 0.04163 0.03590 0.62716
 C1695 C 0.05015 0.01821 0.65630
 C1696 C 0.05870 0.03324 0.66581
 C1697 C 0.07066 0.02988 0.68092
 C1698 C 0.07431 0.01141 0.68692
 C1699 C 0.06567 -0.00361 0.67745
 C1700 C 0.05379 -0.00025 0.66230
 C1701 C 0.08723 0.00782 0.70285
 C1702 C 0.09947 -0.00766 0.70267
 C1703 C 0.11181 -0.01094 0.71746
 C1704 C 0.11282 0.00157 0.73273
 C1705 C 0.09984 0.01662 0.73312
 C1706 C 0.08739 0.01979 0.71839
 H1707 H 0.01725 0.00015 0.64772
 H1708 H -0.00343 0.00566 0.62139
 H1709 H 0.03349 0.05008 0.60222
 H1710 H 0.05430 0.04429 0.62849
 H1711 H 0.05601 0.04764 0.66169
 H1712 H 0.07724 0.04177 0.68774
 H1713 H 0.06795 -0.01800 0.68184
 H1714 H 0.04761 -0.01216 0.65515
 H1715 H 0.09968 -0.01725 0.69096
 H1716 H 0.12029 -0.02350 0.71675
 H1717 H 0.09955 0.02614 0.74488
 H1718 H 0.07774 0.03153 0.71927
 C1719 C 0.54171 0.51950 0.13664
 C1720 C 0.54398 0.53521 0.12497
 C1721 C 0.53140 0.53856 0.11038
 C1722 C 0.51619 0.52629 0.10707
 C1723 C 0.51398 0.51052 0.11875
 C1724 C 0.52659 0.50717 0.13333
 C1725 C 0.55492 0.51615 0.15233
 C1726 C 0.56121 0.49789 0.15653
 C1727 C 0.57348 0.49478 0.17146
 C1728 C 0.57973 0.50987 0.18250
 C1729 C 0.57350 0.52812 0.17823
 C1730 C 0.56124 0.53123 0.16333
 C1731 C 0.59233 0.50666 0.19870
 C1732 C 0.60704 0.51925 0.20263
 C1733 C 0.61807 0.51707 0.21859
 C1734 C 0.61428 0.50255 0.23153
 C1735 C 0.60056 0.48903 0.22655
 C1736 C 0.58953 0.49123 0.21058
 H1737 H 0.55562 0.54485 0.12702
 H1738 H 0.53369 0.55083 0.10177
 H1739 H 0.50250 0.50072 0.11676
 H1740 H 0.52433 0.49507 0.14223
 H1741 H 0.55681 0.48603 0.14814
 H1742 H 0.57823 0.48059 0.17424
 H1743 H 0.57778 0.53999 0.18668
 H1744 H 0.55640 0.54541 0.16065
 H1745 H 0.61011 0.53080 0.19325
 H1746 H 0.62963 0.52677 0.22050
 H1747 H 0.59791 0.47705 0.23550
 H1748 H 0.57846 0.48111 0.20785
 C1749 C 0.45812 -0.02432 0.13864
 C1750 C 0.45171 -0.03250 0.12196
 C1751 C 0.46409 -0.03550 0.10711
 C1752 C 0.48310 -0.03015 0.10851
 C1753 C 0.48954 -0.02196 0.12510
 C1754 C 0.47724 -0.01921 0.14004
 C1755 C 0.44501 -0.02109 0.15452
 C1756 C 0.44718 -0.00524 0.16604
 C1757 C 0.43537 -0.00250 0.18134
 C1758 C 0.42090 -0.01536 0.18529
 C1759 C 0.41833 -0.03096 0.17362
 C1760 C 0.43036 -0.03389 0.15847
 C1761 C 0.40890 -0.01261 0.20188
 C1762 C 0.38923 -0.01237 0.20039
 C1763 C 0.37811 -0.00860 0.21603
 C1764 C 0.38636 -0.00482 0.23358
 C1765 C 0.40617 -0.00663 0.23504
 C1766 C 0.41724 -0.01001 0.21935
 H1767 H 0.43704 -0.03631 0.12024
 H1768 H 0.45869 -0.04166 0.09440
 H1769 H 0.50417 -0.01796 0.12669
 H1770 H 0.48282 -0.01329 0.15279
 H1771 H 0.45796 0.00517 0.16320
 H1772 H 0.43743 0.00976 0.19006
 H1773 H 0.40733 -0.04113 0.17655
 H1774 H 0.42843 -0.04640 0.15010
 H1775 H 0.38249 -0.01463 0.18704
 H1776 H 0.36295 -0.00816 0.21439
 H1777 H 0.41343 -0.00563 0.24819
 H1778 H 0.43240 -0.01081 0.22089
 C1779 C 0.95854 0.47999 0.63657
 C1780 C 0.95631 0.46426 0.62496
 C1781 C 0.96890 0.46093 0.61037
 C1782 C 0.98408 0.47324 0.60703
 C1783 C 0.98627 0.48899 0.61870
 C1784 C 0.97365 0.49233 0.63327
 C1785 C 0.94526 0.48339 0.65220
 C1786 C 0.93897 0.50167 0.65628
 C1787 C 0.92667 0.50485 0.67116
 C1788 C 0.92039 0.48981 0.68227
 C1789 C 0.92660 0.47153 0.67812
 C1790 C 0.93889 0.46836 0.66326
 C1791 C 0.90778 0.49311 0.69845
 C1792 C 0.89301 0.48059 0.70240
 C1793 C 0.88199 0.48284 0.71835
 C1794 C 0.88586 0.49734 0.73126
 C1795 C 0.89964 0.51079 0.72625
 C1796 C 0.91066 0.50854 0.71029
 H1797 H 0.94467 0.45461 0.62701
 H1798 H 0.96661 0.44868 0.60176
 H1799 H 0.99775 0.49881 0.61671
 H1800 H 0.97590 0.50443 0.64214
 H1801 H 0.94340 0.51350 0.64783
 H1802 H 0.92192 0.51906 0.67385
 H1803 H 0.92228 0.45970 0.68662
 H1804 H 0.94372 0.45416 0.66067
 H1805 H 0.88988 0.46906 0.69304
 H1806 H 0.87037 0.47321 0.72027
 H1807 H 0.90234 0.52277 0.73517
 H1808 H 0.92178 0.51860 0.70752
 C1809 C 0.95914 0.51866 0.86303
 C1810 C 0.96898 0.50386 0.87166
 C1811 C 0.98139 0.50739 0.88636
 C1812 C 0.98405 0.52577 0.89301
 C1813 C 0.97406 0.54056 0.88463
 C1814 C 0.96186 0.53707 0.86973
 C1815 C 0.94634 0.51493 0.84699
 C1816 C 0.92984 0.52555 0.84442
 C1817 C 0.91813 0.52237 0.82908
 C1818 C 0.92244 0.50829 0.81601
 C1819 C 0.93874 0.49741 0.81880
 C1820 C 0.95060 0.50079 0.83397
 C1821 C 0.91029 0.50533 0.79932
 C1822 C 0.91821 0.49995 0.78221
 C1823 C 0.90699 0.49776 0.76639
 C1824 C 0.88751 0.50182 0.76685
 C1825 C 0.87950 0.50613 0.78434
 C1826 C 0.89069 0.50798 0.80026
 H1827 H 0.96698 0.48946 0.86720
 H1828 H 0.98868 0.49566 0.89270
 H1829 H 0.97598 0.55490 0.88931
 H1830 H 0.95484 0.54888 0.86324
 H1831 H 0.92589 0.53634 0.85430
 H1832 H 0.90586 0.53122 0.82732
 H1833 H 0.94240 0.48621 0.80928
 H1834 H 0.96329 0.49248 0.83528
 H1835 H 0.93322 0.49762 0.78087
 H1836 H 0.91383 0.49276 0.75392
 H1837 H 0.86447 0.50838 0.78560
 H1838 H 0.88392 0.51141 0.81332
 C1839 C 0.45827 0.02364 0.36231
 C1840 C 0.47476 0.01285 0.36396
 C1841 C 0.48724 0.01582 0.37872
 C1842 C 0.48353 0.02965 0.39222
 C1843 C 0.46702 0.04044 0.39054
 C1844 C 0.45456 0.03747 0.37575
 C1845 C 0.44503 0.02048 0.34661
 C1846 C 0.43662 0.03578 0.33740
 C1847 C 0.42434 0.03280 0.32247
 C1848 C 0.42016 0.01446 0.31645
 C1849 C 0.42845 -0.00083 0.32575
 C1850 C 0.44076 0.00214 0.34064
 C1851 C 0.40753 0.01123 0.30028
 C1852 C 0.39428 -0.00343 0.30053
 C1853 C 0.38304 -0.00711 0.28497
 C1854 C 0.38511 0.00347 0.26841
 C1855 C 0.39765 0.01894 0.26880
 C1856 C 0.40884 0.02261 0.28436
 H1857 H 0.47815 0.00227 0.35366
 H1858 H 0.49985 0.00734 0.37937
 H1859 H 0.46352 0.05110 0.40068
 H1860 H 0.44184 0.04584 0.37500
 H1861 H 0.43976 0.05008 0.34156
 H1862 H 0.41803 0.04485 0.31569
 H1863 H 0.42567 -0.01512 0.32130
 H1864 H 0.44686 -0.00993 0.34758
 H1865 H 0.39248 -0.01200 0.31288
 H1866 H 0.37272 -0.01819 0.28627
 H1867 H 0.39920 0.02787 0.25666
 H1868 H 0.41887 0.03408 0.28374
   
