data_POSCAR
  _audit_creation_date              2014-09-24
  _audit_creation_method            'ToBaCCo'
  _symmetry_space_group_name_H-M    'P1'
  _symmetry_Int_Tables_number       1
  _symmetry_cell_setting            triclinic
  loop_
  _symmetry_equiv_pos_as_xyz
 x,y,z
_cell_length_a 56.3912
_cell_length_b 56.4383
_cell_length_c 56.5237
_cell_angle_alpha 90.078900
_cell_angle_beta 89.915500
_cell_angle_gamma 89.998000
loop_
  _atom_site_label
  _atom_site_type_symbol
  _atom_site_fract_x
  _atom_site_fract_y
  _atom_site_fract_z
C1 C 0.26472 1.07210 -0.00901
 C2 C 0.26450 1.07097 0.01523
 C3 C 0.25168 1.05086 0.02125
 N4 N 0.24447 1.03946 0.00146
 C5 C 0.25238 1.05247 -0.01702
 C6 C 0.24612 1.04348 0.04461
 C7 C 0.23853 1.01991 0.04913
 C8 C 0.22603 1.01262 0.06902
 C9 C 0.22396 0.98841 0.06759
 C10 C 0.23484 0.98159 0.04667
 N11 N 0.24346 1.00088 0.03535
 C12 C 0.23812 0.95786 0.03946
 C13 C 0.24206 0.95154 0.01559
 C14 C 0.24735 0.92896 0.00762
 C15 C 0.24715 0.92992 -0.01660
 C16 C 0.24239 0.95329 -0.02278
 N17 N 0.23899 0.96632 -0.00295
 C18 C 0.23857 0.96185 -0.04613
 C19 C 0.23541 0.98642 -0.05100
 C20 C 0.22808 0.99595 -0.07248
 C21 C 0.23033 1.02011 -0.07079
 C22 C 0.23952 1.02487 -0.04860
 N23 N 0.24238 1.00434 -0.03659
 C24 C 0.24753 1.04739 -0.04098
 H25 H 0.27322 1.08568 -0.01953
 H26 H 0.27301 1.08345 0.02703
 H27 H 0.25177 1.00258 -0.02088
 H28 H 0.21921 1.02356 0.08321
 H29 H 0.21546 0.97709 0.08050
 H30 H 0.25044 0.91322 0.01808
 H31 H 0.24956 0.91479 -0.02809
 H32 H 0.22650 1.03265 -0.08474
 H33 H 0.25452 1.00072 0.02058
 H34 H 0.22257 0.98677 -0.08831
 C35 C 0.76478 0.47914 0.57321
 C36 C 0.76706 0.50327 0.57388
 C37 C 0.76801 0.51092 0.55059
 N38 N 0.76569 0.49222 0.53580
 C39 C 0.76355 0.47275 0.54955
 C40 C 0.77197 0.53464 0.54346
 C41 C 0.77426 0.54186 0.51956
 C42 C 0.78388 0.56338 0.51261
 C43 C 0.78283 0.56408 0.48840
 C44 C 0.77254 0.54300 0.48106
 N45 N 0.76725 0.52954 0.50020
 C46 C 0.76813 0.53719 0.45707
 C47 C 0.76198 0.51427 0.44897
 C48 C 0.75790 0.50837 0.42550
 C49 C 0.75426 0.48442 0.42483
 C50 C 0.75559 0.47644 0.44798
 N51 N 0.76039 0.49473 0.46264
 C52 C 0.75215 0.45265 0.45505
 C53 C 0.75223 0.44476 0.47886
 C54 C 0.74502 0.42232 0.48583
 C55 C 0.74731 0.42136 0.50993
 C56 C 0.75579 0.44325 0.51724
 N57 N 0.75896 0.45737 0.49814
 C58 C 0.75988 0.44935 0.54123
 H59 H 0.76385 0.46776 0.58856
 H60 H 0.76813 0.51381 0.58983
 H61 H 0.76697 0.47388 0.49812
 H62 H 0.79121 0.57710 0.52382
 H63 H 0.78916 0.57847 0.47743
 H64 H 0.75778 0.51997 0.41029
 H65 H 0.75094 0.47420 0.40898
 H66 H 0.74267 0.40633 0.52088
 H67 H 0.75735 0.51404 0.50024
 H68 H 0.73835 0.40816 0.47476
 C69 C 0.73859 1.00645 1.06947
 C70 C 0.73845 0.98223 1.06983
 C71 C 0.74930 0.97482 1.04908
 N72 N 0.75585 0.99371 1.03587
 C73 C 0.74961 1.01309 1.04855
 C74 C 0.75399 0.95091 1.04312
 C75 C 0.75699 0.94389 1.01918
 C76 C 0.76650 0.92250 1.01159
 C77 C 0.76415 0.92186 0.98742
 C78 C 0.75413 0.94326 0.98072
 N79 N 0.74979 0.95656 1.00019
 C80 C 0.74772 0.94947 0.95735
 C81 C 0.74402 0.97318 0.95031
 C82 C 0.73630 0.98023 0.92814
 C83 C 0.73741 1.00449 0.92780
 C84 C 0.74603 1.01147 0.94968
 N85 N 0.75006 0.99232 0.96341
 C86 C 0.75201 1.03497 0.95593
 C87 C 0.75754 1.04179 0.97937
 C88 C 0.76887 1.06268 0.98561
 C89 C 0.76974 1.06324 1.00993
 C90 C 0.75867 1.04279 1.01792
 N91 N 0.75145 1.02973 0.99915
 C92 C 0.75484 1.03674 1.04198
 H93 H 0.73129 1.01790 1.08303
 H94 H 0.73105 0.97128 1.08371
 H95 H 0.74086 1.01463 0.99988
 H96 H 0.77414 0.90859 1.02229
 H97 H 0.76933 0.90719 0.97625
 H98 H 0.73094 0.96912 0.91348
 H99 H 0.73283 1.01567 0.91295
 H100 H 0.77774 1.07710 1.02048
 H101 H 0.74006 0.97224 1.00071
 H102 H 0.77588 1.07609 0.97386
 C103 C 0.25016 0.42935 0.48449
 C104 C 0.25283 0.42803 0.50853
 C105 C 0.25146 0.45104 0.51707
 N106 N 0.24767 0.46629 0.49904
 C107 C 0.24715 0.45311 0.47906
 C108 C 0.25190 0.45735 0.54129
 C109 C 0.25161 0.48109 0.54942
 C110 C 0.24705 0.48800 0.57255
 C111 C 0.24943 0.51221 0.57336
 C112 C 0.25586 0.51948 0.55083
 N113 N 0.25722 0.50039 0.53637
 C114 C 0.26155 0.54306 0.54449
 C115 C 0.26376 0.55057 0.52075
 C116 C 0.27307 0.57217 0.51367
 C117 C 0.26987 0.57353 0.48967
 C118 C 0.25874 0.55272 0.48289
 N119 N 0.25504 0.53870 0.50191
 C120 C 0.25067 0.54766 0.45978
 C121 C 0.24340 0.52473 0.45265
 C122 C 0.23185 0.51955 0.43162
 C123 C 0.22978 0.49531 0.43044
 C124 C 0.23971 0.48631 0.45099
 N125 N 0.24812 0.50435 0.46433
 C126 C 0.24226 0.46194 0.45617
 H127 H 0.24989 0.41439 0.47250
 H128 H 0.25502 0.41186 0.51854
 H129 H 0.25896 0.50263 0.47907
 H130 H 0.24256 0.47687 0.58746
 H131 H 0.24694 0.52313 0.58892
 H132 H 0.28112 0.58564 0.52468
 H133 H 0.27502 0.58824 0.47852
 H134 H 0.22195 0.48551 0.41597
 H135 H 0.26414 0.50027 0.51932
 H136 H 0.22582 0.53189 0.41829
 C137 C 1.06149 0.23603 -0.00616
 C138 C 1.06105 0.23617 0.01809
 C139 C 1.04119 0.24908 0.02476
 N140 N 1.02933 0.25658 0.00541
 C141 C 1.04190 0.24887 -0.01351
 C142 C 1.03449 0.25437 0.04835
 C143 C 1.01079 0.26088 0.05394
 C144 C 1.00357 0.27218 0.07456
 C145 C 0.97922 0.27294 0.07416
 C146 C 0.97219 0.26274 0.05297
 N147 N 0.99154 0.25556 0.04069
 C148 C 0.94846 0.25819 0.04637
 C149 C 0.94198 0.25306 0.02284
 C150 C 0.92020 0.24429 0.01563
 C151 C 0.92077 0.24355 -0.00860
 C152 C 0.94253 0.25279 -0.01542
 N153 N 0.95555 0.25832 0.00386
 C154 C 0.95006 0.25706 -0.03893
 C155 C 0.97408 0.26243 -0.04376
 C156 C 0.98204 0.27517 -0.06319
 C157 C 1.00634 0.27440 -0.06266
 C158 C 1.01254 0.26116 -0.04295
 N159 N 0.99279 0.25446 -0.03113
 C160 C 1.03583 0.25387 -0.03725
 H161 H 1.07451 0.22713 -0.01708
 H162 H 1.07371 0.22744 0.02951
 H163 H 0.99212 0.24261 -0.01700
 H164 H 1.01463 0.27886 0.08870
 H165 H 0.96810 0.27995 0.08810
 H166 H 0.90538 0.23891 0.02651
 H167 H 0.90666 0.23700 -0.01978
 H168 H 1.01814 0.28234 -0.07552
 H169 H 0.99148 0.24511 0.02548
 H170 H 0.97138 0.28385 -0.07653
 C171 C 0.49660 0.75663 0.57002
 C172 C 0.52069 0.75343 0.57003
 C173 C 0.52673 0.74505 0.54776
 N174 N 0.50714 0.74309 0.53415
 C175 C 0.48870 0.75033 0.54766
 C176 C 0.54976 0.73787 0.54089
 C177 C 0.55601 0.73268 0.51719
 C178 C 0.57673 0.72138 0.51023
 C179 C 0.57683 0.72114 0.48587
 C180 C 0.55616 0.73226 0.47864
 N181 N 0.54361 0.73929 0.49783
 C182 C 0.54998 0.73691 0.45486
 C183 C 0.52673 0.74314 0.44799
 C184 C 0.52040 0.75138 0.42579
 C185 C 0.49617 0.75327 0.42576
 C186 C 0.48852 0.74621 0.44797
 N187 N 0.50722 0.74002 0.46154
 C188 C 0.46454 0.74390 0.45482
 C189 C 0.45744 0.74177 0.47877
 C190 C 0.43479 0.73587 0.48632
 C191 C 0.43468 0.73783 0.51058
 C192 C 0.45742 0.74437 0.51727
 N193 N 0.47110 0.74691 0.49776
 C194 C 0.46464 0.74936 0.54072
 H195 H 0.48615 0.76254 0.58496
 H196 H 0.53236 0.75668 0.58486
 H197 H 0.48793 0.75442 0.49729
 H198 H 0.59044 0.71420 0.52151
 H199 H 0.59062 0.71372 0.47477
 H200 H 0.53199 0.75547 0.41108
 H201 H 0.48540 0.75911 0.41104
 H202 H 0.41946 0.73489 0.52186
 H203 H 0.52886 0.75034 0.49765
 H204 H 0.41973 0.73104 0.47550
 C205 C 0.07720 0.78278 0.01226
 C206 C 0.07850 0.77952 -0.01171
 C207 C 0.05756 0.76852 -0.01845
 N208 N 0.04325 0.76564 0.00053
 C209 C 0.05521 0.77438 0.01932
 C210 C 0.05224 0.76020 -0.04149
 C211 C 0.02868 0.75403 -0.04783
 C212 C 0.02264 0.73900 -0.06632
 C213 C -0.00164 0.73885 -0.06763
 C214 C -0.00987 0.75367 -0.04982
 N215 N 0.00870 0.76255 -0.03752
 C216 C -0.03408 0.75928 -0.04594
 C217 C -0.04233 0.76611 -0.02318
 C218 C -0.06460 0.77523 -0.01816
 C219 C -0.06621 0.77697 0.00594
 C220 C -0.04444 0.76999 0.01504
 N221 N -0.02997 0.76320 -0.00289
 C222 C -0.03885 0.76742 0.03943
 C223 C -0.01507 0.76501 0.04759
 C224 C -0.00845 0.76123 0.07099
 C225 C 0.01582 0.76295 0.07197
 C226 C 0.02356 0.76785 0.04924
 N227 N 0.00466 0.76933 0.03457
 C228 C 0.04736 0.77285 0.04298
 H229 H 0.09099 0.79043 0.02312
 H230 H 0.09329 0.78457 -0.02282
 H231 H 0.00507 0.77571 0.01735
 H232 H 0.03451 0.72909 -0.07769
 H233 H -0.01210 0.72884 -0.08020
 H234 H -0.07850 0.77989 -0.03047
 H235 H -0.08191 0.78263 0.01531
 H236 H 0.02637 0.76160 0.08788
 H237 H 0.00781 0.77567 -0.02454
 H238 H -0.01978 0.75865 0.08620
 C239 C 0.48437 0.25153 0.43200
 C240 C 0.50852 0.24883 0.43274
 C241 C 0.51389 0.24034 0.45509
 N242 N 0.49389 0.23784 0.46805
 C243 C 0.47582 0.24464 0.45394
 C244 C 0.53664 0.23316 0.46261
 C245 C 0.54196 0.22880 0.48665
 C246 C 0.56197 0.21709 0.49472
 C247 C 0.56128 0.21807 0.51903
 C248 C 0.54083 0.23033 0.52514
 N249 N 0.52916 0.23679 0.50530
 C250 C 0.53426 0.23656 0.54849
 C251 C 0.51100 0.24369 0.55469
 C252 C 0.50432 0.25240 0.57665
 C253 C 0.48019 0.25528 0.57603
 C254 C 0.47288 0.24862 0.55356
 N255 N 0.49174 0.24134 0.54063
 C256 C 0.44899 0.24754 0.54594
 C257 C 0.44247 0.24281 0.52220
 C258 C 0.41986 0.23669 0.51468
 C259 C 0.42072 0.23499 0.49042
 C260 C 0.44367 0.24062 0.48366
 N261 N 0.45680 0.24537 0.50314
 C262 C 0.45159 0.24278 0.45997
 H263 H 0.47424 0.25770 0.41697
 H264 H 0.52069 0.25252 0.41839
 H265 H 0.47375 0.25259 0.50325
 H266 H 0.57575 0.20884 0.48420
 H267 H 0.57443 0.21072 0.53087
 H268 H 0.51558 0.25604 0.59171
 H269 H 0.46934 0.26131 0.59064
 H270 H 0.40594 0.23049 0.47908
 H271 H 0.51483 0.24836 0.50450
 H272 H 0.40420 0.23392 0.52537
 C273 C 1.06977 -0.01191 0.25916
 C274 C 1.07028 0.01224 0.26117
 C275 C 1.04872 0.02062 0.25275
 N276 N 1.03558 0.00219 0.24471
 C277 C 1.04846 -0.01772 0.24845
 C278 C 1.04222 0.04493 0.25061
 C279 C 1.01847 0.05240 0.24610
 C280 C 1.01133 0.07579 0.24297
 C281 C 0.98701 0.07592 0.24228
 C282 C 0.97966 0.05269 0.24511
 N283 N 0.99890 0.03852 0.24761
 C284 C 0.95566 0.04556 0.24747
 C285 C 0.94825 0.02163 0.24739
 C286 C 0.92535 0.01390 0.25204
 C287 C 0.92536 -0.01019 0.24898
 C288 C 0.94813 -0.01633 0.24211
 N289 N 0.96205 0.00312 0.24108
 C290 C 0.95550 -0.03926 0.23546
 C291 C 0.97949 -0.04484 0.23103
 C292 C 0.98707 -0.06444 0.21834
 C293 C 1.01135 -0.06487 0.21999
 C294 C 1.01791 -0.04567 0.23391
 N295 N 0.99838 -0.03329 0.24026
 C296 C 1.04135 -0.04093 0.24164
 H297 H 1.08371 -0.02370 0.26496
 H298 H 1.08512 0.02213 0.26808
 H299 H 0.99778 -0.01972 0.25275
 H300 H 1.02221 0.09154 0.24248
 H301 H 0.97608 0.09160 0.24081
 H302 H 0.91007 0.02440 0.25695
 H303 H 0.91023 -0.02175 0.25131
 H304 H 1.02286 -0.07805 0.21211
 H305 H 0.99858 0.02098 0.25301
 H306 H 0.97621 -0.07724 0.20908
 C307 C 0.48833 0.57557 0.71696
 C308 C 0.51261 0.57520 0.71621
 C309 C 0.51945 0.55163 0.71768
 N310 N 0.50002 0.53775 0.71999
 C311 C 0.48097 0.55231 0.71974
 C312 C 0.54329 0.54349 0.71678
 C313 C 0.55002 0.51922 0.71586
 C314 C 0.57286 0.51139 0.71102
 C315 C 0.57228 0.48708 0.71121
 C316 C 0.54910 0.48051 0.71611
 N317 N 0.53569 0.50023 0.71908
 C318 C 0.54127 0.45664 0.71739
 C319 C 0.51727 0.44955 0.71947
 C320 C 0.50954 0.42621 0.71929
 C321 C 0.48542 0.42681 0.72186
 C322 C 0.47914 0.45046 0.72406
 N323 N 0.49861 0.46428 0.72240
 C324 C 0.45596 0.45867 0.72903
 C325 C 0.44969 0.48295 0.73062
 C326 C 0.42830 0.49104 0.73969
 C327 C 0.42857 0.51526 0.73794
 C328 C 0.45018 0.52149 0.72798
 N329 N 0.46293 0.50166 0.72338
 C330 C 0.45714 0.54517 0.72337
 H331 H 0.47748 0.59134 0.71604
 H332 H 0.52376 0.59070 0.71468
 H333 H 0.47866 0.50090 0.71382
 H334 H 0.58835 0.52206 0.70724
 H335 H 0.58723 0.47556 0.70770
 H336 H 0.52006 0.41028 0.71757
 H337 H 0.47394 0.41146 0.72239
 H338 H 0.41454 0.52699 0.74377
 H339 H 0.51820 0.50072 0.72453
 H340 H 0.41398 0.48061 0.74705
 C341 C 1.01050 1.07180 0.74417
 C342 C 0.98621 1.07118 0.74325
 C343 C 0.97934 1.04994 0.75340
 N344 N 0.99859 1.03767 0.76074
 C345 C 1.01772 1.05106 0.75522
 C346 C 0.95558 1.04256 0.75645
 C347 C 0.94935 1.01889 0.76190
 C348 C 0.92694 1.01156 0.76889
 C349 C 0.92733 0.98723 0.76948
 C350 C 0.95013 0.98029 0.76334
 N351 N 0.96342 0.99972 0.75872
 C352 C 0.95758 0.95653 0.76031
 C353 C 0.98168 0.94963 0.75923
 C354 C 0.98948 0.92655 0.75610
 C355 C 1.01368 0.92708 0.75775
 C356 C 1.02007 0.95053 0.76167
 N357 N 1.00037 0.96416 0.76300
 C358 C 1.04343 0.95859 0.76649
 C359 C 1.04871 0.98292 0.77062
 C360 C 1.06965 0.99152 0.78036
 C361 C 1.06882 1.01571 0.77892
 C362 C 1.04786 1.02152 0.76754
 N363 N 1.03552 1.00147 0.76287
 C364 C 1.04156 1.04480 0.76029
 H365 H 1.02154 1.08581 0.73715
 H366 H 0.97492 1.08463 0.73559
 H367 H 1.02065 1.00044 0.75205
 H368 H 0.91164 1.02254 0.77259
 H369 H 0.91231 0.97608 0.77363
 H370 H 0.97887 0.91077 0.75368
 H371 H 1.02505 0.91166 0.75705
 H372 H 1.08253 1.02765 0.78504
 H373 H 0.98007 0.99981 0.75084
 H374 H 1.08453 0.98178 0.78735
 C375 C 0.42663 0.49553 0.28115
 C376 C 0.42867 0.51968 0.28313
 C377 C 0.45133 0.52544 0.27555
 N378 N 0.46315 0.50568 0.26894
 C379 C 0.44807 0.48738 0.27229
 C380 C 0.46009 0.54875 0.27301
 C381 C 0.48444 0.55384 0.26955
 C382 C 0.49338 0.57574 0.26293
 C383 C 0.51767 0.57387 0.26319
 C384 C 0.52300 0.55071 0.26949
 N385 N 0.50261 0.53871 0.27359
 C386 C 0.54619 0.54162 0.27267
 C387 C 0.55115 0.51711 0.27392
 C388 C 0.57316 0.50742 0.27895
 C389 C 0.57098 0.48338 0.27619
 C390 C 0.54780 0.47917 0.26923
 N391 N 0.53572 0.49980 0.26787
 C392 C 0.53875 0.45685 0.26228
 C393 C 0.51436 0.45274 0.25819
 C394 C 0.50523 0.43313 0.24653
 C395 C 0.48093 0.43506 0.24745
 C396 C 0.47589 0.45581 0.25964
 N397 N 0.49636 0.46648 0.26613
 C398 C 0.45283 0.46372 0.26559
 H399 H 0.41104 0.48522 0.28548
 H400 H 0.41499 0.53165 0.28929
 H401 H 0.49789 0.48086 0.27756
 H402 H 0.48350 0.59158 0.25860
 H403 H 0.52988 0.58811 0.25929
 H404 H 0.58930 0.51663 0.28367
 H405 H 0.58501 0.47054 0.27860
 H406 H 0.46843 0.42257 0.24002
 H407 H 0.50125 0.52199 0.28117
 H408 H 0.51502 0.41884 0.23827
 O409 O 0.24581 0.19322 0.21500
 O410 O 0.27061 0.18490 0.24705
 O411 O 0.18401 0.22435 0.24485
 O412 O 0.17551 0.25440 0.26969
 O413 O 0.21832 0.25786 0.18627
 O414 O 0.25293 0.28214 0.18244
 O415 O 0.24587 0.28440 0.31218
 O416 O 0.21591 0.25570 0.31536
 O417 O 0.30596 0.25093 0.28608
 O418 O 0.31472 0.22530 0.25218
 O419 O 0.28213 0.31377 0.25436
 O420 O 0.25051 0.32352 0.22601
 O421 O 0.24848 0.31373 0.28457
 O422 O 0.22362 0.32350 0.24935
 O423 O 0.30919 0.28400 0.25634
 O424 O 0.31644 0.25070 0.22712
 O425 O 0.27572 0.25369 0.31258
 O426 O 0.24355 0.22309 0.31388
 O427 O 0.24940 0.22279 0.18781
 O428 O 0.27789 0.25450 0.18357
 O429 O 0.18808 0.25793 0.21292
 O430 O 0.18153 0.28495 0.24669
 O431 O 0.21110 0.19447 0.24681
 O432 O 0.24275 0.18744 0.27617
 Zr433 Zr 0.24429 0.21168 0.24751
 O434 O 0.26604 0.23041 0.27138
 Zr435 Zr 0.20462 0.25537 0.24609
 O436 O 0.22444 0.27568 0.27026
 Zr437 Zr 0.24891 0.25452 0.20734
 O438 O 0.27066 0.27513 0.22957
 Zr439 Zr 0.24496 0.25338 0.29171
 O440 O 0.22272 0.23282 0.26960
 Zr441 Zr 0.28917 0.25278 0.25284
 O442 O 0.26940 0.23198 0.22875
 Zr443 Zr 0.24930 0.29623 0.25164
 O444 O 0.22761 0.27785 0.22717
 O445 O 0.22474 0.23310 0.22489
 O446 O 0.26916 0.27509 0.27427
 C447 C 0.24785 0.20079 0.19358
 C448 C 0.18974 0.20233 0.24565
 C449 C 0.19617 0.25870 0.19167
 C450 C 0.24747 0.30624 0.30600
 C451 C 0.29782 0.25239 0.30729
 C452 C 0.30345 0.30603 0.25647
 H453 H 0.27468 0.21911 0.28158
 H454 H 0.28152 0.28480 0.21983
 H455 H 0.21475 0.22375 0.21394
 H456 H 0.21367 0.28553 0.27996
 H457 H 0.20485 0.24279 0.31098
 H458 H 0.18080 0.26176 0.28466
 H459 H 0.31554 0.26506 0.21716
 H460 H 0.28940 0.24277 0.18969
 H461 H 0.24610 0.22844 0.33040
 H462 H 0.23744 0.17180 0.27013
 H463 H 0.26347 0.31975 0.21482
 H464 H 0.24243 0.29517 0.18775
 H465 H 0.28403 0.19107 0.23757
 H466 H 0.30937 0.21285 0.26327
 H467 H 0.18753 0.29630 0.23477
 H468 H 0.21152 0.32060 0.26171
 O469 O 0.75991 0.80136 0.21163
 O470 O 0.73490 0.81080 0.24274
 O471 O 0.82181 0.77291 0.24592
 O472 O 0.83121 0.74266 0.26929
 O473 O 0.79007 0.73809 0.18582
 O474 O 0.75736 0.71097 0.18238
 O475 O 0.75878 0.71556 0.31270
 O476 O 0.78818 0.74409 0.31539
 O477 O 0.69931 0.74370 0.28334
 O478 O 0.69086 0.76944 0.24909
 O479 O 0.72535 0.68207 0.25570
 O480 O 0.75620 0.67050 0.22996
 O481 O 0.75887 0.68471 0.28667
 O482 O 0.78500 0.67437 0.25099
 O483 O 0.69758 0.71101 0.25163
 O484 O 0.69074 0.74449 0.22397
 O485 O 0.72878 0.74714 0.31053
 O486 O 0.76113 0.77694 0.31081
 O487 O 0.75671 0.77081 0.18548
 O488 O 0.73066 0.73690 0.18172
 O489 O 0.81948 0.73757 0.21335
 O490 O 0.82500 0.71199 0.24905
 O491 O 0.79425 0.80217 0.24269
 O492 O 0.76247 0.80980 0.27231
 Zr493 Zr 0.76148 0.78437 0.24462
 O494 O 0.73918 0.76650 0.26857
 Zr495 Zr 0.80190 0.74140 0.24607
 O496 O 0.78172 0.72224 0.27088
 Zr497 Zr 0.75884 0.73985 0.20618
 O498 O 0.73703 0.71977 0.22883
 Zr499 Zr 0.76010 0.74523 0.29058
 O500 O 0.78282 0.76479 0.26814
 Zr501 Zr 0.71713 0.74266 0.25048
 O502 O 0.73725 0.76281 0.22610
 Zr503 Zr 0.75786 0.70023 0.25272
 O504 O 0.77979 0.71771 0.22764
 O505 O 0.78213 0.76245 0.22341
 O506 O 0.73679 0.72200 0.27375
 C507 C 0.75757 0.79303 0.19057
 C508 C 0.81577 0.79480 0.24414
 C509 C 0.81199 0.73704 0.19190
 C510 C 0.75874 0.69335 0.30776
 C511 C 0.70683 0.74582 0.30473
 C512 C 0.70382 0.68928 0.25401
 H513 H 0.73003 0.77815 0.27794
 H514 H 0.72683 0.70940 0.21907
 H515 H 0.79211 0.77171 0.21237
 H516 H 0.79245 0.71320 0.28133
 H517 H 0.79943 0.75678 0.31086
 H518 H 0.82496 0.73952 0.28532
 H519 H 0.69303 0.73079 0.21326
 H520 H 0.71885 0.74911 0.18613
 H521 H 0.75827 0.77276 0.32761
 H522 H 0.76771 0.82521 0.26568
 H523 H 0.74790 0.67562 0.21545
 H524 H 0.76885 0.69906 0.18820
 H525 H 0.72111 0.80348 0.23476
 H526 H 0.69504 0.78177 0.26081
 H527 H 0.82053 0.70062 0.23647
 H528 H 0.79562 0.67683 0.26469
 O529 O 0.74539 0.18642 0.78645
 O530 O 0.72144 0.17857 0.75373
 O531 O 0.80736 0.21892 0.75867
 O532 O 0.81632 0.24951 0.73524
 O533 O 0.77151 0.25065 0.81746
 O534 O 0.73683 0.27413 0.82169
 O535 O 0.74717 0.27978 0.69168
 O536 O 0.77611 0.25096 0.68804
 O537 O 0.68579 0.24533 0.71624
 O538 O 0.67613 0.21986 0.74889
 O539 O 0.70935 0.30787 0.75153
 O540 O 0.74086 0.31752 0.77807
 O541 O 0.74119 0.30809 0.71982
 O542 O 0.76811 0.31691 0.75516
 O543 O 0.68208 0.27856 0.74678
 O544 O 0.67472 0.24403 0.77519
 O545 O 0.71624 0.24859 0.69007
 O546 O 0.74871 0.21837 0.68866
 O547 O 0.73982 0.21515 0.81427
 O548 O 0.71191 0.24718 0.81891
 O549 O 0.80225 0.25207 0.79143
 O550 O 0.80906 0.27959 0.75787
 O551 O 0.78077 0.18872 0.75595
 O552 O 0.74985 0.18239 0.72520
 Zr553 Zr 0.74735 0.20572 0.75459
 O554 O 0.72564 0.22492 0.73103
 Zr555 Zr 0.78645 0.24964 0.75787
 O556 O 0.76699 0.27017 0.73368
 Zr557 Zr 0.74142 0.24746 0.79578
 O558 O 0.72021 0.26868 0.77376
 Zr559 Zr 0.74684 0.24829 0.71139
 O560 O 0.76903 0.22751 0.73338
 Zr561 Zr 0.70205 0.24696 0.74963
 O562 O 0.72157 0.22541 0.77330
 Zr563 Zr 0.74189 0.29017 0.75246
 O564 O 0.76297 0.27140 0.77701
 O565 O 0.76621 0.22670 0.77823
 O566 O 0.72231 0.26967 0.72893
 C567 C 0.74184 0.19335 0.80789
 C568 C 0.80206 0.19681 0.75760
 C569 C 0.79368 0.25241 0.81251
 C570 C 0.74386 0.30135 0.69823
 C571 C 0.69408 0.24681 0.69512
 C572 C 0.68806 0.30048 0.74868
 H573 H 0.71719 0.21374 0.72051
 H574 H 0.70931 0.27812 0.78372
 H575 H 0.77600 0.21722 0.78923
 H576 H 0.77787 0.28025 0.72436
 H577 H 0.78724 0.23813 0.69242
 H578 H 0.81097 0.25576 0.71982
 H579 H 0.67489 0.25857 0.78497
 H580 H 0.70053 0.23553 0.81240
 H581 H 0.74624 0.22394 0.67221
 H582 H 0.75537 0.16669 0.73086
 H583 H 0.72948 0.31262 0.79047
 H584 H 0.74744 0.28736 0.81718
 H585 H 0.70770 0.18435 0.76301
 H586 H 0.68242 0.20687 0.73894
 H587 H 0.80300 0.29056 0.77015
 H588 H 0.77845 0.31591 0.74104
 O589 O 0.25154 0.81769 0.77998
 O590 O 0.27897 0.82558 0.74993
 O591 O 0.19222 0.78810 0.74206
 O592 O 0.18430 0.75647 0.71967
 O593 O 0.21937 0.75437 0.80589
 O594 O 0.25221 0.72835 0.81264
 O595 O 0.25586 0.72734 0.68253
 O596 O 0.22970 0.75826 0.67693
 O597 O 0.31665 0.75785 0.71464
 O598 O 0.32267 0.78427 0.74871
 O599 O 0.28856 0.69668 0.74249
 O600 O 0.25509 0.68677 0.76785
 O601 O 0.25789 0.69779 0.70985
 O602 O 0.22919 0.68854 0.74321
 O603 O 0.31625 0.72571 0.74630
 O604 O 0.32116 0.75982 0.77438
 O605 O 0.28892 0.75518 0.68554
 O606 O 0.25926 0.78839 0.68129
 O607 O 0.25342 0.78808 0.80736
 O608 O 0.27834 0.75428 0.81435
 O609 O 0.19202 0.75496 0.77641
 O610 O 0.18859 0.72725 0.74214
 O611 O 0.21949 0.81739 0.74732
 O612 O 0.25277 0.82353 0.71887
 Zr613 Zr 0.25222 0.79935 0.74758
 O614 O 0.27588 0.78037 0.72570
 Zr615 Zr 0.21184 0.75657 0.74498
 O616 O 0.23339 0.73610 0.72255
 Zr617 Zr 0.25209 0.75628 0.78776
 O618 O 0.27539 0.73532 0.76739
 Zr619 Zr 0.25633 0.75808 0.70330
 O620 O 0.23245 0.77890 0.72339
 Zr621 Zr 0.29662 0.75738 0.74618
 O622 O 0.27502 0.77844 0.76846
 Zr623 Zr 0.25596 0.71483 0.74307
 O624 O 0.23244 0.73349 0.76574
 O625 O 0.23016 0.77832 0.76824
 O626 O 0.27832 0.73569 0.72265
 C627 C 0.25286 0.81007 0.80137
 C628 C 0.19817 0.80997 0.74425
 C629 C 0.19784 0.75415 0.79836
 C630 C 0.25712 0.70539 0.68841
 C631 C 0.31043 0.75571 0.69288
 C632 C 0.31010 0.70389 0.74426
 H633 H 0.28576 0.79146 0.71641
 H634 H 0.28503 0.72537 0.77806
 H635 H 0.21956 0.78799 0.77834
 H636 H 0.22315 0.72668 0.71191
 H637 H 0.21906 0.77175 0.68058
 H638 H 0.19183 0.75332 0.70419
 H639 H 0.31875 0.74592 0.78475
 H640 H 0.29101 0.76552 0.80977
 H641 H 0.26352 0.78289 0.66516
 H642 H 0.24746 0.83926 0.72468
 H643 H 0.26569 0.69111 0.78108
 H644 H 0.24200 0.71571 0.80601
 H645 H 0.29163 0.81899 0.76009
 H646 H 0.31904 0.79643 0.73667
 H647 H 0.19264 0.71625 0.75516
 H648 H 0.21895 0.69122 0.72928
 O649 O 0.23728 0.31667 0.71794
 O650 O 0.21470 0.32548 0.75104
 O651 O 0.30313 0.29168 0.74890
 O652 O 0.31446 0.26233 0.77307
 O653 O 0.27044 0.25121 0.69147
 O654 O 0.23656 0.22646 0.68895
 O655 O 0.24597 0.23106 0.81890
 O656 O 0.27452 0.26103 0.82004
 O657 O 0.18412 0.25828 0.79251
 O658 O 0.17366 0.28337 0.75750
 O659 O 0.21056 0.19671 0.76287
 O660 O 0.24304 0.18753 0.73453
 O661 O 0.24502 0.20027 0.79284
 O662 O 0.26940 0.18974 0.75799
 O663 O 0.18193 0.22503 0.76314
 O664 O 0.17205 0.25627 0.73430
 O665 O 0.21471 0.26119 0.81844
 O666 O 0.24560 0.29251 0.81739
 O667 O 0.23786 0.28607 0.69149
 O668 O 0.21059 0.25282 0.68948
 O669 O 0.30109 0.25648 0.71712
 O670 O 0.30947 0.23099 0.75179
 O671 O 0.27393 0.31937 0.74595
 O672 O 0.24447 0.32568 0.77830
 Zr673 Zr 0.24240 0.30014 0.75078
 O674 O 0.22225 0.28151 0.77599
 Zr675 Zr 0.28473 0.25918 0.75053
 O676 O 0.26648 0.23890 0.77600
 Zr677 Zr 0.23991 0.25528 0.71262
 O678 O 0.21978 0.23462 0.73631
 Zr679 Zr 0.24503 0.26097 0.79690
 O680 O 0.26566 0.28168 0.77340
 Zr681 Zr 0.20030 0.25696 0.75891
 O682 O 0.21836 0.27754 0.73341
 Zr683 Zr 0.24253 0.21592 0.75905
 O684 O 0.26277 0.23435 0.73330
 O685 O 0.26296 0.27897 0.72862
 O686 O 0.22181 0.23698 0.78109
 C687 C 0.23638 0.30822 0.69683
 C688 C 0.29583 0.31314 0.74636
 C689 C 0.29264 0.25264 0.69637
 C690 C 0.24581 0.20881 0.81396
 C691 C 0.19253 0.25981 0.81359
 C692 C 0.18878 0.20340 0.76422
 H693 H 0.21314 0.29284 0.78580
 H694 H 0.20940 0.22386 0.72719
 H695 H 0.27210 0.28823 0.71687
 H696 H 0.27796 0.23021 0.78594
 H697 H 0.28489 0.27424 0.81493
 H698 H 0.30960 0.25624 0.78873
 H699 H 0.17503 0.24307 0.72316
 H700 H 0.19886 0.26467 0.69497
 H701 H 0.24389 0.28802 0.83427
 H702 H 0.24865 0.34126 0.77131
 H703 H 0.22922 0.18940 0.72394
 H704 H 0.24708 0.21381 0.69500
 H705 H 0.20093 0.31799 0.74318
 H706 H 0.17698 0.29512 0.77007
 H707 H 0.30397 0.21886 0.74037
 H708 H 0.28212 0.19470 0.76895
 O709 O 0.76213 0.68467 0.71171
 O710 O 0.78716 0.67683 0.74299
 O711 O 0.69709 0.70721 0.74340
 O712 O 0.68555 0.73474 0.76971
 O713 O 0.72712 0.74822 0.68682
 O714 O 0.75899 0.77515 0.68376
 O715 O 0.75500 0.76931 0.81394
 O716 O 0.72707 0.73852 0.81600
 O717 O 0.81622 0.74548 0.78509
 O718 O 0.82752 0.72216 0.75050
 O719 O 0.78498 0.80565 0.75931
 O720 O 0.75270 0.81389 0.73054
 O721 O 0.75158 0.80022 0.78826
 O722 O 0.72577 0.80928 0.75357
 O723 O 0.81546 0.77953 0.75526
 O724 O 0.82548 0.74760 0.72576
 O725 O 0.78669 0.73998 0.81191
 O726 O 0.75653 0.70772 0.81143
 O727 O 0.76100 0.71570 0.68591
 O728 O 0.78682 0.75043 0.68375
 O729 O 0.69717 0.74270 0.71323
 O730 O 0.68843 0.76714 0.74891
 O731 O 0.72719 0.68029 0.74318
 O732 O 0.75970 0.67518 0.77239
 Zr733 Zr 0.75841 0.70089 0.74503
 O734 O 0.77859 0.72043 0.76956
 Zr735 Zr 0.71431 0.74009 0.74628
 O736 O 0.73222 0.76072 0.77174
 Zr737 Zr 0.75803 0.74616 0.70736
 O738 O 0.77752 0.76784 0.73062
 Zr739 Zr 0.75553 0.73959 0.79156
 O740 O 0.73501 0.71830 0.76844
 Zr741 Zr 0.79883 0.74631 0.75215
 O742 O 0.78103 0.72473 0.72725
 Zr743 Zr 0.75436 0.78498 0.75432
 O744 O 0.73462 0.76593 0.72871
 O745 O 0.73643 0.72133 0.72374
 O746 O 0.77693 0.76483 0.77527
 C747 C 0.76257 0.69345 0.69071
 C748 C 0.70508 0.68590 0.74272
 C749 C 0.70507 0.74617 0.69215
 C750 C 0.75322 0.79150 0.80918
 C751 C 0.80862 0.74273 0.80637
 C752 C 0.80713 0.80045 0.75857
 H753 H 0.78857 0.70949 0.77889
 H754 H 0.78703 0.77923 0.72134
 H755 H 0.72734 0.71166 0.71229
 H756 H 0.72064 0.76872 0.78219
 H757 H 0.71677 0.72519 0.81108
 H758 H 0.69044 0.74106 0.78527
 H759 H 0.82243 0.76169 0.71582
 H760 H 0.79881 0.73839 0.68810
 H761 H 0.75892 0.71198 0.82829
 H762 H 0.75568 0.65945 0.76563
 H763 H 0.76661 0.81290 0.71990
 H764 H 0.74864 0.78750 0.69073
 H765 H 0.80029 0.68529 0.73500
 H766 H 0.82372 0.70865 0.76096
 H767 H 0.69268 0.77939 0.73712
 H768 H 0.71412 0.80429 0.76569
 O769 O 0.25186 0.69240 0.28107
 O770 O 0.22468 0.68811 0.25006
 O771 O 0.31356 0.72173 0.25165
 O772 O 0.32326 0.75290 0.22898
 O773 O 0.28353 0.75405 0.31389
 O774 O 0.25059 0.77798 0.32174
 O775 O 0.25204 0.79036 0.19149
 O776 O 0.28001 0.76084 0.18440
 O777 O 0.19162 0.75759 0.21856
 O778 O 0.18228 0.73238 0.25088
 O779 O 0.22173 0.81772 0.25148
 O780 O 0.25435 0.82343 0.28011
 O781 O 0.25437 0.81759 0.22115
 O782 O 0.28089 0.82273 0.25637
 O783 O 0.19227 0.79031 0.25018
 O784 O 0.18459 0.75534 0.27816
 O785 O 0.22040 0.76048 0.19041
 O786 O 0.25138 0.72907 0.18550
 O787 O 0.25056 0.71942 0.31106
 O788 O 0.22370 0.75286 0.31853
 O789 O 0.31290 0.75345 0.28622
 O790 O 0.31966 0.78224 0.25363
 O791 O 0.28446 0.69398 0.24858
 O792 O 0.25146 0.69143 0.21984
 Zr793 Zr 0.25256 0.71329 0.25042
 O794 O 0.23084 0.73503 0.22944
 Zr795 Zr 0.29496 0.75399 0.25351
 O796 O 0.27552 0.77705 0.23156
 Zr797 Zr 0.25210 0.75283 0.29406
 O798 O 0.23125 0.77678 0.27445
 Zr799 Zr 0.25234 0.75794 0.20958
 O800 O 0.27445 0.73462 0.22901
 Zr801 Zr 0.21014 0.75747 0.25075
 O802 O 0.22945 0.73337 0.27190
 Zr803 Zr 0.25308 0.79780 0.25275
 O804 O 0.27413 0.77625 0.27502
 O805 O 0.27430 0.73154 0.27388
 O806 O 0.23057 0.77984 0.22977
 C807 C 0.25095 0.69797 0.30312
 C808 C 0.30635 0.70022 0.24959
 C809 C 0.30547 0.75413 0.30774
 C810 C 0.25314 0.81178 0.19916
 C811 C 0.19863 0.75922 0.19702
 C812 C 0.19979 0.81182 0.25023
 H813 H 0.22102 0.72487 0.21908
 H814 H 0.22155 0.78654 0.28530
 H815 H 0.28421 0.72098 0.28372
 H816 H 0.28653 0.78682 0.22206
 H817 H 0.29081 0.74730 0.18723
 H818 H 0.31747 0.76041 0.21429
 H819 H 0.18607 0.76968 0.28813
 H820 H 0.21195 0.74124 0.31266
 H821 H 0.24819 0.73552 0.16951
 H822 H 0.25595 0.67505 0.22437
 H823 H 0.24095 0.82038 0.29099
 H824 H 0.25955 0.79198 0.31612
 H825 H 0.21251 0.69376 0.26138
 H826 H 0.18729 0.71903 0.24067
 H827 H 0.31537 0.79270 0.26704
 H828 H 0.29206 0.82031 0.24307
 O829 O 0.73776 0.30315 0.28511
 O830 O 0.76032 0.31274 0.25195
 O831 O 0.67545 0.27017 0.25815
 O832 O 0.66632 0.23923 0.23495
 O833 O 0.71444 0.23905 0.31509
 O834 O 0.74872 0.21422 0.31661
 O835 O 0.73431 0.21373 0.18692
 O836 O 0.70484 0.24201 0.18574
 O837 O 0.79596 0.24893 0.21063
 O838 O 0.80590 0.27351 0.24435
 O839 O 0.77599 0.18425 0.24382
 O840 O 0.74626 0.17220 0.27076
 O841 O 0.74202 0.18422 0.21319
 O842 O 0.71725 0.17336 0.25000
 O843 O 0.80177 0.21490 0.23916
 O844 O 0.80947 0.24785 0.26876
 O845 O 0.76477 0.24441 0.18554
 O846 O 0.73184 0.27487 0.18663
 O847 O 0.74637 0.27374 0.31134
 O848 O 0.77381 0.24114 0.31405
 O849 O 0.68275 0.23607 0.29044
 O850 O 0.67540 0.20929 0.25610
 O851 O 0.70148 0.30087 0.25550
 O852 O 0.73095 0.30933 0.22448
 Zr853 Zr 0.73510 0.28492 0.25274
 O854 O 0.75631 0.26739 0.22753
 Zr855 Zr 0.69714 0.23987 0.25615
 O856 O 0.71624 0.22087 0.23023
 Zr857 Zr 0.74355 0.24194 0.29203
 O858 O 0.76443 0.22219 0.26826
 Zr859 Zr 0.73491 0.24415 0.20802
 O860 O 0.71306 0.26330 0.23178
 Zr861 Zr 0.78103 0.24544 0.24445
 O862 O 0.76197 0.26537 0.26977
 Zr863 Zr 0.74271 0.20076 0.24685
 O864 O 0.72205 0.21801 0.27316
 O865 O 0.71762 0.26274 0.27634
 O866 O 0.76071 0.22287 0.22359
 C867 C 0.74325 0.29564 0.30588
 C868 C 0.68038 0.29240 0.25718
 C869 C 0.69215 0.23656 0.31118
 C870 C 0.73827 0.19194 0.19205
 C871 C 0.78697 0.24695 0.18990
 C872 C 0.79683 0.19273 0.24033
 H873 H 0.76407 0.27915 0.21713
 H874 H 0.77600 0.21270 0.27734
 H875 H 0.70809 0.27184 0.28793
 H876 H 0.70525 0.21088 0.22095
 H877 H 0.69370 0.25448 0.19112
 H878 H 0.67152 0.23512 0.21875
 H879 H 0.81000 0.23295 0.27793
 H880 H 0.78511 0.25285 0.30750
 H881 H 0.73416 0.26998 0.16994
 H882 H 0.72556 0.32476 0.23100
 H883 H 0.75636 0.17780 0.28392
 H884 H 0.73757 0.20141 0.31216
 H885 H 0.77447 0.30707 0.26059
 H886 H 0.79934 0.28634 0.23441
 H887 H 0.68223 0.19817 0.26778
 H888 H 0.70624 0.17457 0.23644
 C889 C 0.25819 0.06899 0.10461
 C890 C 0.24978 0.09251 0.10241
 C891 C 0.24080 0.09952 0.08007
 C892 C 0.23948 0.08332 0.06124
 C893 C 0.24761 0.05991 0.06370
 C894 C 0.25714 0.05313 0.08565
 C895 C 0.23303 0.12267 0.07657
 C896 C 0.23439 0.13931 0.09460
 C897 C 0.24320 0.13332 0.11719
 C898 C 0.25018 0.10932 0.12143
 C899 C 0.25683 0.10286 0.14464
 C900 C 0.25709 0.11932 0.16296
 C901 C 0.25135 0.14299 0.15887
 C902 C 0.24478 0.15044 0.13583
 C903 C 0.24034 0.17486 0.13234
 C904 C 0.24165 0.19091 0.15103
 C905 C 0.24735 0.18336 0.17394
 C906 C 0.25221 0.15930 0.17773
 H907 H 0.26620 0.06239 0.12059
 H908 H 0.23148 0.08888 0.04472
 H909 H 0.26438 0.03552 0.08808
 H910 H 0.22596 0.12809 0.05959
 H911 H 0.22774 0.15667 0.09036
 H912 H 0.26139 0.08497 0.14942
 H913 H 0.26206 0.11345 0.18052
 H914 H 0.23622 0.18230 0.11530
 H915 H 0.23788 0.20939 0.14748
 H916 H 0.25696 0.15330 0.19531
 C917 C 0.79423 0.56950 0.59651
 C918 C 0.77749 0.58817 0.59805
 C919 C 0.75999 0.58967 0.58012
 C920 C 0.75825 0.57206 0.56270
 C921 C 0.77437 0.55322 0.56203
 C922 C 0.79278 0.55249 0.57858
 C923 C 0.74422 0.60868 0.57971
 C924 C 0.74550 0.62647 0.59662
 C925 C 0.76211 0.62545 0.61526
 C926 C 0.77763 0.60545 0.61657
 C927 C 0.79209 0.60291 0.63679
 C928 C 0.79149 0.61940 0.65505
 C929 C 0.77726 0.63954 0.65349
 C930 C 0.76303 0.64332 0.63318
 C931 C 0.75038 0.66494 0.63161
 C932 C 0.75091 0.68140 0.65003
 C933 C 0.76375 0.67678 0.67066
 C934 C 0.77707 0.65592 0.67223
 H935 H 0.80894 0.56788 0.60855
 H936 H 0.74435 0.57296 0.54949
 H937 H 0.80591 0.53850 0.57778
 H938 H 0.73081 0.60991 0.56603
 H939 H 0.73246 0.64034 0.59519
 H940 H 0.80334 0.58772 0.63950
 H941 H 0.80244 0.61642 0.67051
 H942 H 0.74025 0.66984 0.61622
 H943 H 0.74069 0.69757 0.64837
 H944 H 0.78747 0.65254 0.68801
 C945 C 0.77027 0.92327 0.10087
 C946 C 0.75955 0.90066 0.09940
 C947 C 0.74744 0.89485 0.07821
 C948 C 0.74547 0.91144 0.05982
 C949 C 0.75596 0.93396 0.06162
 C950 C 0.76847 0.93948 0.08239
 C951 C 0.73725 0.87253 0.07546
 C952 C 0.73907 0.85559 0.09313
 C953 C 0.75082 0.86047 0.11464
 C954 C 0.76058 0.88364 0.11812
 C955 C 0.77060 0.88916 0.14034
 C956 C 0.77143 0.87260 0.15842
 C957 C 0.76275 0.84975 0.15505
 C958 C 0.75270 0.84314 0.13302
 C959 C 0.74515 0.81936 0.13030
 C960 C 0.74692 0.80319 0.14888
 C961 C 0.75613 0.81011 0.17082
 C962 C 0.76412 0.83343 0.17371
 H963 H 0.78065 0.92890 0.11583
 H964 H 0.73518 0.90695 0.04424
 H965 H 0.77747 0.95635 0.08418
 H966 H 0.72787 0.86802 0.05934
 H967 H 0.73050 0.83892 0.08956
 H968 H 0.77749 0.90642 0.14463
 H969 H 0.77909 0.87775 0.17525
 H970 H 0.73812 0.81250 0.11396
 H971 H 0.74081 0.78521 0.14608
 H972 H 0.77172 0.83887 0.19048
 C973 C 0.27283 0.40575 0.57846
 C974 C 0.25238 0.39999 0.59185
 C975 C 0.23196 0.41439 0.58896
 C976 C 0.23175 0.43272 0.57220
 C977 C 0.25209 0.43797 0.55903
 C978 C 0.27265 0.42458 0.56248
 C979 C 0.21193 0.41052 0.60292
 C980 C 0.21192 0.39316 0.62030
 C981 C 0.23174 0.37828 0.62377
 C982 C 0.25170 0.38083 0.60836
 C983 C 0.27005 0.36385 0.60960
 C984 C 0.26938 0.34554 0.62599
 C985 C 0.25094 0.34395 0.64237
 C986 C 0.23209 0.36061 0.64187
 C987 C 0.21480 0.35938 0.66003
 C988 C 0.21617 0.34218 0.67769
 C989 C 0.23431 0.32534 0.67745
 C990 C 0.25151 0.32609 0.65964
 H991 H 0.28943 0.39651 0.58045
 H992 H 0.21587 0.44324 0.56960
 H993 H 0.28859 0.42865 0.55256
 H994 H 0.19622 0.42136 0.60069
 H995 H 0.19573 0.39125 0.63027
 H996 H 0.28489 0.36382 0.59756
 H997 H 0.28376 0.33279 0.62618
 H998 H 0.20059 0.37205 0.66164
 H999 H 0.20301 0.34205 0.69169
 H1000 H 0.26595 0.31338 0.65990
 C1001 C 0.76895 0.06623 0.89902
 C1002 C 0.75397 0.08639 0.89918
 C1003 C 0.73934 0.08994 0.91932
 C1004 C 0.73892 0.07328 0.93776
 C1005 C 0.75329 0.05309 0.93685
 C1006 C 0.76860 0.04996 0.91760
 C1007 C 0.72507 0.11002 0.92095
 C1008 C 0.72510 0.12693 0.90315
 C1009 C 0.73913 0.12419 0.88260
 C1010 C 0.75316 0.10318 0.88021
 C1011 C 0.76548 0.09942 0.85875
 C1012 C 0.76462 0.11582 0.84047
 C1013 C 0.75195 0.13688 0.84295
 C1014 C 0.73929 0.14158 0.86416
 C1015 C 0.72765 0.16372 0.86616
 C1016 C 0.72841 0.18022 0.84783
 C1017 C 0.74052 0.17526 0.82676
 C1018 C 0.75212 0.15343 0.82437
 H1019 H 0.78139 0.06265 0.88499
 H1020 H 0.72724 0.07585 0.95280
 H1021 H 0.78019 0.03467 0.91687
 H1022 H 0.71378 0.11278 0.93625
 H1023 H 0.71336 0.14174 0.90580
 H1024 H 0.77555 0.08359 0.85524
 H1025 H 0.77425 0.11206 0.82428
 H1026 H 0.71830 0.16918 0.88187
 H1027 H 0.71941 0.19702 0.85020
 H1028 H 0.76191 0.14960 0.80828
 C1029 C 0.23396 0.60638 0.43182
 C1030 C 0.24638 0.60583 0.41002
 C1031 C 0.25965 0.58515 0.40462
 C1032 C 0.26124 0.56648 0.42095
 C1033 C 0.24908 0.56753 0.44252
 C1034 C 0.23525 0.58747 0.44767
 C1035 C 0.27126 0.58314 0.38295
 C1036 C 0.26965 0.60099 0.36617
 C1037 C 0.25675 0.62198 0.37065
 C1038 C 0.24580 0.62488 0.39332
 C1039 C 0.23513 0.64689 0.39870
 C1040 C 0.23470 0.66526 0.38236
 C1041 C 0.24422 0.66228 0.35977
 C1042 C 0.25492 0.64042 0.35339
 C1043 C 0.26306 0.63783 0.32984
 C1044 C 0.26134 0.65640 0.31370
 C1045 C 0.25163 0.67826 0.32036
 C1046 C 0.24305 0.68107 0.34347
 H1047 H 0.22264 0.62089 0.43694
 H1048 H 0.27183 0.55096 0.41685
 H1049 H 0.22539 0.58840 0.46411
 H1050 H 0.28156 0.56745 0.37878
 H1051 H 0.27938 0.59806 0.35002
 H1052 H 0.22752 0.65077 0.41576
 H1053 H 0.22658 0.68193 0.38741
 H1054 H 0.27042 0.62155 0.32313
 H1055 H 0.26803 0.65366 0.29592
 H1056 H 0.23517 0.69781 0.34870
 C1057 C 0.21666 0.92656 0.90247
 C1058 C 0.23660 0.91240 0.89684
 C1059 C 0.25691 0.91444 0.91145
 C1060 C 0.25763 0.93124 0.92977
 C1061 C 0.23785 0.94541 0.93495
 C1062 C 0.21725 0.94252 0.92137
 C1063 C 0.27636 0.89962 0.90783
 C1064 C 0.27588 0.88224 0.89043
 C1065 C 0.25621 0.87969 0.87522
 C1066 C 0.23688 0.89593 0.87758
 C1067 C 0.21886 0.89562 0.86026
 C1068 C 0.21940 0.87957 0.84159
 C1069 C 0.23726 0.86255 0.84002
 C1070 C 0.25553 0.86187 0.85725
 C1071 C 0.27206 0.84302 0.85608
 C1072 C 0.27087 0.82610 0.83809
 C1073 C 0.25361 0.82774 0.82046
 C1074 C 0.23687 0.84600 0.82143
 H1075 H 0.20006 0.92506 0.89315
 H1076 H 0.27367 0.93324 0.94017
 H1077 H 0.20136 0.95248 0.92560
 H1078 H 0.29199 0.90117 0.91887
 H1079 H 0.29165 0.87159 0.88868
 H1080 H 0.20453 0.90826 0.86017
 H1081 H 0.20542 0.88024 0.82846
 H1082 H 0.28565 0.84044 0.86922
 H1083 H 0.28371 0.81182 0.83775
 H1084 H 0.22312 0.84689 0.80806
 C1085 C 0.72405 0.41847 0.40453
 C1086 C 0.74129 0.40081 0.39978
 C1087 C 0.76148 0.39986 0.41469
 C1088 C 0.76489 0.41692 0.43240
 C1089 C 0.74802 0.43463 0.43630
 C1090 C 0.72734 0.43496 0.42267
 C1091 C 0.77822 0.38192 0.41187
 C1092 C 0.77523 0.36453 0.39478
 C1093 C 0.75566 0.36486 0.37923
 C1094 C 0.73905 0.38393 0.38103
 C1095 C 0.72124 0.38591 0.36361
 C1096 C 0.71941 0.36955 0.34532
 C1097 C 0.73464 0.35012 0.34413
 C1098 C 0.75255 0.34711 0.36146
 C1099 C 0.76638 0.32620 0.36050
 C1100 C 0.76307 0.30953 0.34259
 C1101 C 0.74617 0.31324 0.32490
 C1102 C 0.73197 0.33357 0.32574
 H1103 H 0.70760 0.41965 0.39492
 H1104 H 0.78068 0.41643 0.44333
 H1105 H 0.71384 0.44822 0.42595
 H1106 H 0.79373 0.38118 0.42316
 H1107 H 0.78913 0.35148 0.39361
 H1108 H 0.70891 0.40049 0.36313
 H1109 H 0.70571 0.37200 0.33211
 H1110 H 0.77949 0.32187 0.37366
 H1111 H 0.77403 0.29376 0.34242
 H1112 H 0.71845 0.33620 0.31237
 C1113 C 0.06312 0.24257 0.10677
 C1114 C 0.08608 0.25222 0.10366
 C1115 C 0.09176 0.26175 0.08118
 C1116 C 0.07472 0.26245 0.06311
 C1117 C 0.05177 0.25335 0.06660
 C1118 C 0.04641 0.24314 0.08862
 C1119 C 0.11438 0.27067 0.07680
 C1120 C 0.13173 0.27017 0.09417
 C1121 C 0.12699 0.26109 0.11696
 C1122 C 0.10358 0.25258 0.12197
 C1123 C 0.09829 0.24519 0.14524
 C1124 C 0.11530 0.24563 0.16291
 C1125 C 0.13835 0.25310 0.15812
 C1126 C 0.14473 0.26063 0.13506
 C1127 C 0.16870 0.26715 0.13112
 C1128 C 0.18532 0.26656 0.14942
 C1129 C 0.17865 0.25967 0.17226
 C1130 C 0.15510 0.25294 0.17641
 H1131 H 0.05755 0.23400 0.12285
 H1132 H 0.07922 0.27076 0.04640
 H1133 H 0.02928 0.23501 0.09171
 H1134 H 0.11880 0.27804 0.05964
 H1135 H 0.14863 0.27759 0.08928
 H1136 H 0.08091 0.23941 0.15062
 H1137 H 0.11034 0.23993 0.18055
 H1138 H 0.17534 0.27239 0.11404
 H1139 H 0.20346 0.27162 0.14567
 H1140 H 0.14980 0.24711 0.19392
 C1141 C 0.58099 0.71850 0.59692
 C1142 C 0.60117 0.73346 0.59743
 C1143 C 0.60497 0.74859 0.57775
 C1144 C 0.58843 0.74961 0.55922
 C1145 C 0.56811 0.73541 0.55961
 C1146 C 0.56481 0.71951 0.57828
 C1147 C 0.62507 0.76289 0.57677
 C1148 C 0.64167 0.76256 0.59487
 C1149 C 0.63857 0.74819 0.61508
 C1150 C 0.61764 0.73392 0.61669
 C1151 C 0.61354 0.72111 0.63777
 C1152 C 0.62943 0.72192 0.65649
 C1153 C 0.65030 0.73505 0.65486
 C1154 C 0.65545 0.74802 0.63399
 C1155 C 0.67747 0.76004 0.63285
 C1156 C 0.69333 0.75948 0.65176
 C1157 C 0.68780 0.74721 0.67254
 C1158 C 0.66618 0.73508 0.67400
 H1159 H 0.57725 0.70568 0.61052
 H1160 H 0.59110 0.76177 0.54461
 H1161 H 0.54938 0.70808 0.57859
 H1162 H 0.62804 0.77451 0.56180
 H1163 H 0.65649 0.77440 0.59274
 H1164 H 0.59780 0.71072 0.64066
 H1165 H 0.62539 0.71198 0.67239
 H1166 H 0.68328 0.76961 0.61743
 H1167 H 0.71005 0.76880 0.65010
 H1168 H 0.66197 0.72510 0.68984
 C1169 C 0.11111 0.74528 0.93160
 C1170 C 0.10837 0.75307 0.90798
 C1171 C 0.08593 0.76222 0.90135
 C1172 C 0.06762 0.76451 0.91803
 C1173 C 0.07078 0.75740 0.94163
 C1174 C 0.09268 0.74736 0.94798
 C1175 C 0.08185 0.76927 0.87811
 C1176 C 0.09946 0.76726 0.86109
 C1177 C 0.12221 0.75849 0.86674
 C1178 C 0.12697 0.75197 0.89073
 C1179 C 0.15030 0.74515 0.89677
 C1180 C 0.16830 0.74448 0.87997
 C1181 C 0.16376 0.75002 0.85638
 C1182 C 0.14055 0.75661 0.84931
 C1183 C 0.13665 0.76095 0.82498
 C1184 C 0.15516 0.75971 0.80869
 C1185 C 0.17827 0.75411 0.81589
 C1186 C 0.18239 0.74910 0.83981
 H1187 H 0.12712 0.73704 0.93792
 H1188 H 0.05096 0.77250 0.91272
 H1189 H 0.09547 0.74058 0.96568
 H1190 H 0.06475 0.77638 0.87296
 H1191 H 0.09478 0.77343 0.84369
 H1192 H 0.15546 0.74085 0.91458
 H1193 H 0.18599 0.73946 0.88553
 H1194 H 0.11947 0.76506 0.81781
 H1195 H 0.15131 0.76352 0.79031
 H1196 H 0.20011 0.74441 0.84558
 C1197 C 0.56765 0.21168 0.40708
 C1198 C 0.58893 0.22501 0.40709
 C1199 C 0.59366 0.23942 0.42712
 C1200 C 0.57680 0.24172 0.44533
 C1201 C 0.55532 0.22933 0.44434
 C1202 C 0.55124 0.21382 0.42545
 C1203 C 0.61500 0.25176 0.42872
 C1204 C 0.63185 0.25024 0.41083
 C1205 C 0.62770 0.23678 0.39015
 C1206 C 0.60558 0.22455 0.38795
 C1207 C 0.60042 0.21307 0.36634
 C1208 C 0.61630 0.21341 0.34755
 C1209 C 0.63823 0.22460 0.34967
 C1210 C 0.64458 0.23585 0.37121
 C1211 C 0.66761 0.24570 0.37283
 C1212 C 0.68308 0.24534 0.35354
 C1213 C 0.67619 0.23531 0.33194
 C1214 C 0.65378 0.22475 0.33022
 H1215 H 0.56325 0.19926 0.39328
 H1216 H 0.58017 0.25350 0.46013
 H1217 H 0.53499 0.20361 0.42472
 H1218 H 0.61874 0.26277 0.44400
 H1219 H 0.64766 0.26063 0.41338
 H1220 H 0.58377 0.20435 0.36301
 H1221 H 0.61134 0.20477 0.33115
 H1222 H 0.67436 0.25360 0.38882
 H1223 H 0.70040 0.25345 0.35543
 H1224 H 0.64846 0.21653 0.31370
 C1225 C 0.90823 0.78362 0.07573
 C1226 C 0.90424 0.76266 0.08887
 C1227 C 0.92059 0.74380 0.08603
 C1228 C 0.93900 0.74538 0.06937
 C1229 C 0.94241 0.76608 0.05604
 C1230 C 0.92715 0.78532 0.05984
 C1231 C 0.91857 0.72348 0.09990
 C1232 C 0.90105 0.72169 0.11710
 C1233 C 0.88416 0.73985 0.12042
 C1234 C 0.88496 0.76001 0.10512
 C1235 C 0.86616 0.77649 0.10613
 C1236 C 0.84762 0.77384 0.12212
 C1237 C 0.84759 0.75528 0.13838
 C1238 C 0.86615 0.73831 0.13819
 C1239 C 0.86630 0.72096 0.15629
 C1240 C 0.84860 0.72045 0.17360
 C1241 C 0.82990 0.73667 0.17300
 C1242 C 0.82931 0.75389 0.15523
 H1243 H 0.89752 0.79930 0.07796
 H1244 H 0.95082 0.73043 0.06675
 H1245 H 0.93004 0.80191 0.05064
 H1246 H 0.93095 0.70893 0.09773
 H1247 H 0.90063 0.70539 0.12701
 H1248 H 0.86487 0.79126 0.09413
 H1249 H 0.83342 0.78679 0.12210
 H1250 H 0.88038 0.70818 0.15813
 H1251 H 0.84951 0.70734 0.18755
 H1252 H 0.81515 0.76690 0.15521
 C1253 C 0.40890 0.27685 0.59117
 C1254 C 0.39495 0.25769 0.59944
 C1255 C 0.39819 0.23528 0.58852
 C1256 C 0.41603 0.23197 0.57145
 C1257 C 0.42994 0.25105 0.56386
 C1258 C 0.42592 0.27353 0.57349
 C1259 C 0.38360 0.21631 0.59466
 C1260 C 0.36552 0.21913 0.61116
 C1261 C 0.36201 0.24088 0.62302
 C1262 C 0.37775 0.26009 0.61792
 C1263 C 0.37637 0.28071 0.63204
 C1264 C 0.35999 0.28262 0.65033
 C1265 C 0.34366 0.26458 0.65462
 C1266 C 0.34384 0.24380 0.64047
 C1267 C 0.32561 0.22693 0.64423
 C1268 C 0.30866 0.23019 0.66201
 C1269 C 0.30966 0.24998 0.67684
 C1270 C 0.32710 0.26719 0.67304
 H1271 H 0.40665 0.29471 0.59756
 H1272 H 0.41899 0.21458 0.56381
 H1273 H 0.43628 0.28854 0.56750
 H1274 H 0.38598 0.19912 0.58638
 H1275 H 0.35517 0.20355 0.61504
 H1276 H 0.38849 0.29534 0.63004
 H1277 H 0.35995 0.29855 0.66107
 H1278 H 0.32364 0.21135 0.63336
 H1279 H 0.29500 0.21692 0.66452
 H1280 H 0.32748 0.28283 0.68422
 C1281 C 0.92421 0.24410 0.90175
 C1282 C 0.90121 0.25393 0.90350
 C1283 C 0.89469 0.26474 0.92520
 C1284 C 0.91094 0.26626 0.94392
 C1285 C 0.93370 0.25627 0.94202
 C1286 C 0.94003 0.24528 0.92061
 C1287 C 0.87194 0.27392 0.92821
 C1288 C 0.85516 0.27201 0.91037
 C1289 C 0.86070 0.26131 0.88846
 C1290 C 0.88440 0.25305 0.88462
 C1291 C 0.89061 0.24456 0.86193
 C1292 C 0.87412 0.24347 0.84381
 C1293 C 0.85071 0.25032 0.84762
 C1294 C 0.84347 0.25900 0.87006
 C1295 C 0.81918 0.26463 0.87317
 C1296 C 0.80307 0.26231 0.85459
 C1297 C 0.81059 0.25448 0.83230
 C1298 C 0.83444 0.24845 0.82900
 H1299 H 0.93039 0.23471 0.88633
 H1300 H 0.90591 0.27562 0.95993
 H1301 H 0.95718 0.23684 0.91862
 H1302 H 0.86691 0.28238 0.94470
 H1303 H 0.83808 0.27966 0.91415
 H1304 H 0.90833 0.23911 0.85735
 H1305 H 0.87976 0.23697 0.82664
 H1306 H 0.81193 0.27044 0.88984
 H1307 H 0.78466 0.26688 0.85765
 H1308 H 0.84036 0.24192 0.81192
 C1309 C 0.43153 0.72550 0.39940
 C1310 C 0.41252 0.74186 0.39858
 C1311 C 0.41024 0.75817 0.41757
 C1312 C 0.42727 0.75895 0.43567
 C1313 C 0.44622 0.74294 0.43587
 C1314 C 0.44795 0.72601 0.41783
 C1315 C 0.39098 0.77363 0.41842
 C1316 C 0.37358 0.77298 0.40108
 C1317 C 0.37518 0.75730 0.38165
 C1318 C 0.39556 0.74233 0.37979
 C1319 C 0.39865 0.72884 0.35894
 C1320 C 0.38211 0.72949 0.34077
 C1321 C 0.36147 0.74292 0.34294
 C1322 C 0.35738 0.75655 0.36366
 C1323 C 0.33540 0.76850 0.36570
 C1324 C 0.31863 0.76746 0.34761
 C1325 C 0.32328 0.75486 0.32679
 C1326 C 0.34477 0.74264 0.32452
 H1327 H 0.43388 0.71171 0.38640
 H1328 H 0.42577 0.77198 0.44972
 H1329 H 0.46223 0.71316 0.41797
 H1330 H 0.38918 0.78621 0.43283
 H1331 H 0.35941 0.78565 0.40298
 H1332 H 0.41417 0.71816 0.35576
 H1333 H 0.38539 0.71909 0.32495
 H1334 H 0.33034 0.77827 0.38129
 H1335 H 0.30198 0.77681 0.34982
 H1336 H 0.34821 0.73239 0.30863
 C1337 C 0.09064 0.08233 0.27572
 C1338 C 0.09636 0.09731 0.25647
 C1339 C 0.08258 0.09523 0.23562
 C1340 C 0.06523 0.07752 0.23363
 C1341 C 0.06011 0.06241 0.25268
 C1342 C 0.07262 0.06546 0.27389
 C1343 C 0.08611 0.11091 0.21689
 C1344 C 0.10267 0.12905 0.21860
 C1345 C 0.11719 0.13153 0.23877
 C1346 C 0.11489 0.11456 0.25740
 C1347 C 0.13168 0.11488 0.27590
 C1348 C 0.14983 0.13153 0.27643
 C1349 C 0.15133 0.14914 0.25921
 C1350 C 0.13453 0.14992 0.24057
 C1351 C 0.13557 0.16932 0.22474
 C1352 C 0.15318 0.18659 0.22685
 C1353 C 0.17052 0.18479 0.24439
 C1354 C 0.16954 0.16607 0.26055
 H1355 H 0.09921 0.08384 0.29269
 H1356 H 0.05550 0.07552 0.21719
 H1357 H 0.06827 0.05484 0.28926
 H1358 H 0.07568 0.10939 0.20087
 H1359 H 0.10442 0.14034 0.20332
 H1360 H 0.13184 0.10176 0.28974
 H1361 H 0.16264 0.13080 0.29070
 H1362 H 0.12266 0.17197 0.21094
 H1363 H 0.15355 0.20118 0.21440
 H1364 H 0.18272 0.16500 0.27447
 C1365 C 0.58302 0.59464 0.69814
 C1366 C 0.59894 0.59642 0.71743
 C1367 C 0.59715 0.57923 0.73562
 C1368 C 0.57882 0.56240 0.73536
 C1369 C 0.56268 0.56148 0.71658
 C1370 C 0.56541 0.57721 0.69765
 C1371 C 0.61362 0.57893 0.75399
 C1372 C 0.63208 0.59520 0.75466
 C1373 C 0.63421 0.61316 0.73743
 C1374 C 0.61671 0.61445 0.71917
 C1375 C 0.61697 0.63420 0.70385
 C1376 C 0.63385 0.65198 0.70617
 C1377 C 0.65175 0.65032 0.72310
 C1378 C 0.65273 0.63044 0.73839
 C1379 C 0.67240 0.62862 0.75387
 C1380 C 0.68964 0.64637 0.75481
 C1381 C 0.68760 0.66663 0.74078
 C1382 C 0.66871 0.66847 0.72484
 H1383 H 0.58412 0.60606 0.68291
 H1384 H 0.57713 0.54980 0.74974
 H1385 H 0.55361 0.57619 0.68258
 H1386 H 0.61235 0.56581 0.76793
 H1387 H 0.64388 0.59391 0.76959
 H1388 H 0.60362 0.63693 0.69051
 H1389 H 0.63301 0.66712 0.69440
 H1390 H 0.67523 0.61344 0.76508
 H1391 H 0.70439 0.64450 0.76694
 H1392 H 0.66747 0.68390 0.71349
 C1393 C 0.89892 0.07240 0.73587
 C1394 C 0.89768 0.09274 0.75053
 C1395 C 0.91693 0.09704 0.76610
 C1396 C 0.93571 0.08076 0.76786
 C1397 C 0.93618 0.06035 0.75377
 C1398 C 0.91792 0.05661 0.73744
 C1399 C 0.91729 0.11747 0.77997
 C1400 C 0.89911 0.13400 0.77858
 C1401 C 0.87935 0.13043 0.76367
 C1402 C 0.87818 0.10901 0.75014
 C1403 C 0.85729 0.10427 0.73720
 C1404 C 0.83840 0.12009 0.73706
 C1405 C 0.83975 0.14158 0.74918
 C1406 C 0.86044 0.14732 0.76226
 C1407 C 0.86145 0.16993 0.77309
 C1408 C 0.84256 0.18580 0.77138
 C1409 C 0.82188 0.17970 0.75910
 C1410 C 0.82055 0.15748 0.74812
 H1411 H 0.88570 0.06838 0.72272
 H1412 H 0.94996 0.08384 0.78036
 H1413 H 0.91825 0.04118 0.72602
 H1414 H 0.93191 0.12082 0.79195
 H1415 H 0.90074 0.14913 0.79010
 H1416 H 0.85466 0.08804 0.72751
 H1417 H 0.82263 0.11554 0.72709
 H1418 H 0.87680 0.17618 0.78255
 H1419 H 0.84409 0.20292 0.77994
 H1420 H 0.80476 0.15278 0.73825
 C1421 C 0.42876 0.60661 0.28723
 C1422 C 0.41057 0.60732 0.26996
 C1423 C 0.40842 0.58763 0.25449
 C1424 C 0.42461 0.56879 0.25560
 C1425 C 0.44275 0.56865 0.27246
 C1426 C 0.44448 0.58750 0.28845
 C1427 C 0.39017 0.58680 0.23793
 C1428 C 0.37356 0.60487 0.23661
 C1429 C 0.37489 0.62493 0.25150
 C1430 C 0.39430 0.62667 0.26771
 C1431 C 0.39707 0.64787 0.28071
 C1432 C 0.38111 0.66648 0.27847
 C1433 C 0.36138 0.66450 0.26377
 C1434 C 0.35769 0.64354 0.25040
 C1435 C 0.33660 0.64187 0.23691
 C1436 C 0.32017 0.66034 0.23655
 C1437 C 0.32431 0.68123 0.24923
 C1438 C 0.34506 0.68328 0.26267
 H1439 H 0.43105 0.62028 0.30035
 H1440 H 0.42317 0.55412 0.24326
 H1441 H 0.45819 0.58748 0.30186
 H1442 H 0.38856 0.57186 0.22596
 H1443 H 0.36021 0.60290 0.22314
 H1444 H 0.41185 0.65092 0.29238
 H1445 H 0.38407 0.68249 0.28868
 H1446 H 0.33186 0.62624 0.22703
 H1447 H 0.30409 0.65828 0.22628
 H1448 H 0.34807 0.69922 0.27299
 C1449 C 0.09427 0.92158 0.78700
 C1450 C 0.10039 0.90900 0.76618
 C1451 C 0.08592 0.91221 0.74596
 C1452 C 0.06741 0.92883 0.74619
 C1453 C 0.06210 0.94184 0.76670
 C1454 C 0.07526 0.93745 0.78726
 C1455 C 0.08996 0.89884 0.72560
 C1456 C 0.10779 0.88188 0.72497
 C1457 C 0.12299 0.87833 0.74447
 C1458 C 0.12003 0.89303 0.76490
 C1459 C 0.13722 0.89182 0.78300
 C1460 C 0.15631 0.87632 0.78149
 C1461 C 0.15849 0.86075 0.76243
 C1462 C 0.14148 0.86102 0.74396
 C1463 C 0.14339 0.84355 0.72604
 C1464 C 0.16177 0.82698 0.72625
 C1465 C 0.17908 0.82767 0.74389
 C1466 C 0.17746 0.84463 0.76188
 H1467 H 0.10335 0.91894 0.80356
 H1468 H 0.05708 0.93176 0.73027
 H1469 H 0.07067 0.94620 0.80372
 H1470 H 0.07900 0.90127 0.71005
 H1471 H 0.10987 0.87243 0.70852
 H1472 H 0.13686 0.90335 0.79821
 H1473 H 0.16928 0.87625 0.79562
 H1474 H 0.13051 0.84171 0.71209
 H1475 H 0.16258 0.81365 0.71246
 H1476 H 0.19054 0.84470 0.77592
 C1477 C 0.59101 0.42228 0.23815
 C1478 C 0.59044 0.40116 0.25167
 C1479 C 0.57121 0.39803 0.26758
 C1480 C 0.55430 0.41606 0.27079
 C1481 C 0.55585 0.43721 0.25798
 C1482 C 0.57394 0.43989 0.24126
 C1483 C 0.56910 0.37707 0.28042
 C1484 C 0.58578 0.35910 0.27807
 C1485 C 0.60569 0.36160 0.26311
 C1486 C 0.60829 0.38319 0.25005
 C1487 C 0.62903 0.38644 0.23641
 C1488 C 0.64672 0.36940 0.23566
 C1489 C 0.64428 0.34815 0.24791
 C1490 C 0.62349 0.34356 0.26129
 C1491 C 0.62150 0.32104 0.27224
 C1492 C 0.63974 0.30433 0.27057
 C1493 C 0.66063 0.30956 0.25825
 C1494 C 0.66268 0.33146 0.24685
 H1495 H 0.60426 0.42574 0.22487
 H1496 H 0.54006 0.41382 0.28350
 H1497 H 0.57504 0.45591 0.23079
 H1498 H 0.55438 0.37452 0.29251
 H1499 H 0.58292 0.34368 0.28890
 H1500 H 0.63258 0.40239 0.22660
 H1501 H 0.66252 0.37292 0.22528
 H1502 H 0.60599 0.31564 0.28198
 H1503 H 0.63767 0.28739 0.27934
 H1504 H 0.67862 0.33545 0.23684
 C1505 C 0.90087 0.92627 0.21664
 C1506 C 0.90243 0.90555 0.23072
 C1507 C 0.92277 0.90285 0.24520
 C1508 C 0.93985 0.92087 0.24656
 C1509 C 0.93753 0.94156 0.23318
 C1510 C 0.91823 0.94388 0.21783
 C1511 C 0.92594 0.88230 0.25842
 C1512 C 0.90939 0.86414 0.25761
 C1513 C 0.88855 0.86609 0.24393
 C1514 C 0.88464 0.88746 0.23088
 C1515 C 0.86278 0.89034 0.21907
 C1516 C 0.84538 0.87296 0.21985
 C1517 C 0.84925 0.85174 0.23183
 C1518 C 0.87112 0.84767 0.24349
 C1519 C 0.87463 0.82524 0.25414
 C1520 C 0.85680 0.80810 0.25401
 C1521 C 0.83485 0.81272 0.24347
 C1522 C 0.83127 0.83453 0.23223
 H1523 H 0.88667 0.92926 0.20427
 H1524 H 0.95499 0.91891 0.25822
 H1525 H 0.91651 0.95951 0.20687
 H1526 H 0.94146 0.88017 0.26952
 H1527 H 0.91311 0.84905 0.26864
 H1528 H 0.85819 0.90628 0.20968
 H1529 H 0.82871 0.87615 0.21087
 H1530 H 0.89106 0.82018 0.26240
 H1531 H 0.86011 0.79124 0.26255
 H1532 H 0.81450 0.83804 0.22352
 C1533 C 0.42289 0.40766 0.75754
 C1534 C 0.40326 0.40460 0.74224
 C1535 C 0.40043 0.42103 0.72347
 C1536 C 0.41760 0.43855 0.71930
 C1537 C 0.43735 0.44066 0.73409
 C1538 C 0.43951 0.42554 0.75355
 C1539 C 0.38057 0.41983 0.70889
 C1540 C 0.36316 0.40286 0.71267
 C1541 C 0.36535 0.38581 0.73080
 C1542 C 0.38626 0.38601 0.74507
 C1543 C 0.38985 0.36722 0.76115
 C1544 C 0.37333 0.34913 0.76361
 C1545 C 0.35221 0.34945 0.75083
 C1546 C 0.34761 0.36813 0.73469
 C1547 C 0.32523 0.36855 0.72341
 C1548 C 0.30853 0.35081 0.72752
 C1549 C 0.31362 0.33191 0.74268
 C1550 C 0.33553 0.33125 0.75424
 H1551 H 0.42563 0.39686 0.77300
 H1552 H 0.41570 0.45059 0.70448
 H1553 H 0.45439 0.42738 0.76552
 H1554 H 0.37835 0.43229 0.69448
 H1555 H 0.34854 0.40302 0.70042
 H1556 H 0.40577 0.36553 0.77154
 H1557 H 0.37701 0.33488 0.77591
 H1558 H 0.31980 0.38266 0.71179
 H1559 H 0.29160 0.35173 0.71852
 H1560 H 0.33936 0.31685 0.76634
 C1561 C 0.06277 0.24138 0.90366
 C1562 C 0.08609 0.25022 0.90620
 C1563 C 0.09278 0.25904 0.92872
 C1564 C 0.07635 0.25988 0.94743
 C1565 C 0.05296 0.25187 0.94438
 C1566 C 0.04663 0.24227 0.92233
 C1567 C 0.11573 0.26735 0.93244
 C1568 C 0.13234 0.26717 0.91431
 C1569 C 0.12654 0.25894 0.89142
 C1570 C 0.10291 0.25068 0.88720
 C1571 C 0.09672 0.24367 0.86401
 C1572 C 0.11297 0.24452 0.84561
 C1573 C 0.13614 0.25209 0.84950
 C1574 C 0.14344 0.25911 0.87247
 C1575 C 0.16743 0.26591 0.87546
 C1576 C 0.18316 0.26613 0.85640
 C1577 C 0.17565 0.25971 0.83367
 C1578 C 0.15208 0.25264 0.83040
 H1579 H 0.05636 0.23344 0.88757
 H1580 H 0.08159 0.26778 0.96412
 H1581 H 0.02905 0.23504 0.91952
 H1582 H 0.12096 0.27412 0.94962
 H1583 H 0.14953 0.27414 0.91877
 H1584 H 0.07919 0.23783 0.85926
 H1585 H 0.10731 0.23913 0.82808
 H1586 H 0.17477 0.27090 0.89231
 H1587 H 0.20134 0.27148 0.85953
 H1588 H 0.14612 0.24725 0.81297
 C1589 C 0.58148 0.71811 0.39861
 C1590 C 0.60173 0.73297 0.39840
 C1591 C 0.60551 0.74779 0.41835
 C1592 C 0.58884 0.74869 0.43682
 C1593 C 0.56844 0.73461 0.43615
 C1594 C 0.56520 0.71895 0.41722
 C1595 C 0.62573 0.76190 0.41965
 C1596 C 0.64249 0.76162 0.40165
 C1597 C 0.63942 0.74754 0.38120
 C1598 C 0.61832 0.73358 0.37920
 C1599 C 0.61419 0.72126 0.35782
 C1600 C 0.63023 0.72220 0.33918
 C1601 C 0.65133 0.73491 0.34122
 C1602 C 0.65649 0.74737 0.36242
 C1603 C 0.67873 0.75889 0.36404
 C1604 C 0.69479 0.75838 0.34527
 C1605 C 0.68927 0.74666 0.32414
 C1606 C 0.66743 0.73502 0.32219
 H1607 H 0.57778 0.70548 0.38480
 H1608 H 0.59150 0.76065 0.45162
 H1609 H 0.54974 0.70757 0.41669
 H1610 H 0.62868 0.77330 0.43482
 H1611 H 0.65739 0.77331 0.40401
 H1612 H 0.59828 0.71120 0.35463
 H1613 H 0.62616 0.71266 0.32302
 H1614 H 0.68457 0.76797 0.37975
 H1615 H 0.71167 0.76732 0.34731
 H1616 H 0.66324 0.72546 0.30606
 C1617 C 0.93999 0.76464 0.89345
 C1618 C 0.91729 0.75427 0.89616
 C1619 C 0.91130 0.74519 0.91877
 C1620 C 0.92751 0.74635 0.93759
 C1621 C 0.94978 0.75721 0.93483
 C1622 C 0.95581 0.76602 0.91237
 C1623 C 0.88910 0.73506 0.92262
 C1624 C 0.87231 0.73427 0.90473
 C1625 C 0.87716 0.74336 0.88196
 C1626 C 0.90028 0.75283 0.87738
 C1627 C 0.90565 0.76038 0.85417
 C1628 C 0.88896 0.75923 0.83618
 C1629 C 0.86611 0.75089 0.84055
 C1630 C 0.85974 0.74306 0.86353
 C1631 C 0.83603 0.73558 0.86712
 C1632 C 0.81966 0.73553 0.84863
 C1633 C 0.82621 0.74282 0.82586
 C1634 C 0.84955 0.75050 0.82199
 H1635 H 0.94596 0.77239 0.87711
 H1636 H 0.92281 0.73846 0.95444
 H1637 H 0.97269 0.77477 0.90956
 H1638 H 0.88451 0.72789 0.93981
 H1639 H 0.85572 0.72603 0.90930
 H1640 H 0.92282 0.76702 0.84913
 H1641 H 0.89397 0.76517 0.81863
 H1642 H 0.82935 0.73002 0.88408
 H1643 H 0.80173 0.72966 0.85226
 H1644 H 0.85480 0.75651 0.80454
 C1645 C 0.42063 0.22450 0.40337
 C1646 C 0.40175 0.24094 0.40179
 C1647 C 0.39875 0.25726 0.42068
 C1648 C 0.41508 0.25801 0.43943
 C1649 C 0.43396 0.24193 0.44036
 C1650 C 0.43629 0.22495 0.42243
 C1651 C 0.37947 0.27271 0.42078
 C1652 C 0.36269 0.27199 0.40282
 C1653 C 0.36503 0.25627 0.38349
 C1654 C 0.38555 0.24142 0.38237
 C1655 C 0.38953 0.22805 0.36160
 C1656 C 0.37364 0.22857 0.34286
 C1657 C 0.35277 0.24172 0.34436
 C1658 C 0.34785 0.25532 0.36493
 C1659 C 0.32568 0.26700 0.36625
 C1660 C 0.30949 0.26568 0.34766
 C1661 C 0.31493 0.25308 0.32700
 C1662 C 0.33665 0.24119 0.32543
 H1663 H 0.42340 0.21068 0.39050
 H1664 H 0.41308 0.27104 0.45341
 H1665 H 0.45048 0.21202 0.42313
 H1666 H 0.37712 0.28532 0.43509
 H1667 H 0.34842 0.28462 0.40416
 H1668 H 0.40529 0.21758 0.35894
 H1669 H 0.37758 0.21825 0.32715
 H1670 H 0.32002 0.27674 0.38167
 H1671 H 0.29267 0.27480 0.34938
 H1672 H 0.34077 0.23102 0.30965
 C1673 C 0.09396 0.79750 0.08459
 C1674 C 0.10219 0.77681 0.09614
 C1675 C 0.09058 0.75511 0.09098
 C1676 C 0.07283 0.75407 0.07368
 C1677 C 0.06542 0.77457 0.06200
 C1678 C 0.07568 0.79634 0.06793
 C1679 C 0.09681 0.73451 0.10301
 C1680 C 0.11402 0.73496 0.12050
 C1681 C 0.12636 0.75600 0.12607
 C1682 C 0.12127 0.77693 0.11280
 C1683 C 0.13590 0.79699 0.11609
 C1684 C 0.15454 0.79676 0.13218
 C1685 C 0.15867 0.77698 0.14638
 C1686 C 0.14414 0.75658 0.14403
 C1687 C 0.14765 0.73774 0.16016
 C1688 C 0.16531 0.73892 0.17733
 C1689 C 0.18029 0.75856 0.17870
 C1690 C 0.17704 0.77756 0.16318
 H1691 H 0.10094 0.81487 0.08841
 H1692 H 0.06463 0.73725 0.06924
 H1693 H 0.06981 0.81241 0.05928
 H1694 H 0.08808 0.71785 0.09903
 H1695 H 0.11796 0.71821 0.12874
 H1696 H 0.13391 0.81290 0.10576
 H1697 H 0.16559 0.81240 0.13381
 H1698 H 0.13653 0.72222 0.16051
 H1699 H 0.16742 0.72430 0.18956
 H1700 H 0.18834 0.79304 0.16472
 C1701 C 0.56585 0.21993 0.60530
 C1702 C 0.58673 0.23388 0.60429
 C1703 C 0.59057 0.24768 0.58368
 C1704 C 0.57344 0.24847 0.56568
 C1705 C 0.55258 0.23515 0.56740
 C1706 C 0.54918 0.22053 0.58708
 C1707 C 0.61142 0.26070 0.58116
 C1708 C 0.62877 0.26025 0.59855
 C1709 C 0.62567 0.24719 0.61963
 C1710 C 0.60394 0.23447 0.62289
 C1711 C 0.59982 0.22334 0.64487
 C1712 C 0.61646 0.22422 0.66291
 C1713 C 0.63812 0.23567 0.65966
 C1714 C 0.64332 0.24690 0.63783
 C1715 C 0.66609 0.25720 0.63515
 C1716 C 0.68256 0.25687 0.65359
 C1717 C 0.67690 0.24652 0.67537
 C1718 C 0.65463 0.23590 0.67823
 H1719 H 0.56205 0.20803 0.61969
 H1720 H 0.57626 0.25956 0.55027
 H1721 H 0.53341 0.20965 0.58841
 H1722 H 0.61443 0.27130 0.56545
 H1723 H 0.64420 0.27100 0.59524
 H1724 H 0.58349 0.21435 0.64901
 H1725 H 0.61236 0.21567 0.67959
 H1726 H 0.67193 0.26528 0.61890
 H1727 H 0.69973 0.26506 0.65087
 H1728 H 0.65023 0.22745 0.69489
 C1729 C 0.90423 0.28348 0.09000
 C1730 C 0.89215 0.26300 0.09802
 C1731 C 0.89871 0.24086 0.08809
 C1732 C 0.91776 0.23930 0.07216
 C1733 C 0.92950 0.25975 0.06453
 C1734 C 0.92237 0.28181 0.07327
 C1735 C 0.88602 0.22045 0.09383
 C1736 C 0.86655 0.22156 0.10886
 C1737 C 0.85969 0.24307 0.11966
 C1738 C 0.87351 0.26383 0.11514
 C1739 C 0.86881 0.28447 0.12848
 C1740 C 0.85105 0.28489 0.14552
 C1741 C 0.83661 0.26519 0.14918
 C1742 C 0.84006 0.24429 0.13563
 C1743 C 0.82365 0.22552 0.13864
 C1744 C 0.80558 0.22699 0.15551
 C1745 C 0.80359 0.24696 0.16998
 C1746 C 0.81890 0.26612 0.16662
 H1747 H 0.89944 0.30110 0.09563
 H1748 H 0.92304 0.22224 0.06503
 H1749 H 0.93091 0.29784 0.06704
 H1750 H 0.89095 0.20347 0.08630
 H1751 H 0.85777 0.20500 0.11252
 H1752 H 0.87936 0.30031 0.12693
 H1753 H 0.84849 0.30091 0.15583
 H1754 H 0.82415 0.20964 0.12804
 H1755 H 0.79366 0.21211 0.15787
 H1756 H 0.81705 0.28172 0.17771
 C1757 C 0.42573 0.77879 0.58676
 C1758 C 0.41294 0.75944 0.59632
 C1759 C 0.41656 0.73677 0.58603
 C1760 C 0.43350 0.73357 0.56808
 C1761 C 0.44623 0.75287 0.55920
 C1762 C 0.44198 0.77549 0.56837
 C1763 C 0.40328 0.71742 0.59369
 C1764 C 0.38595 0.72011 0.61096
 C1765 C 0.38181 0.74223 0.62192
 C1766 C 0.39643 0.76187 0.61542
 C1767 C 0.39451 0.78305 0.62862
 C1768 C 0.37834 0.78522 0.64708
 C1769 C 0.36280 0.76679 0.65251
 C1770 C 0.36389 0.74522 0.63959
 C1771 C 0.34656 0.72774 0.64447
 C1772 C 0.32930 0.73144 0.66177
 C1773 C 0.32903 0.75232 0.67505
 C1774 C 0.34587 0.76991 0.67055
 H1775 H 0.42318 0.79676 0.59271
 H1776 H 0.43674 0.71606 0.56083
 H1777 H 0.45156 0.79062 0.56146
 H1778 H 0.40608 0.70003 0.58601
 H1779 H 0.37661 0.70424 0.61599
 H1780 H 0.40591 0.79808 0.62561
 H1781 H 0.37769 0.80171 0.65693
 H1782 H 0.34533 0.71139 0.63467
 H1783 H 0.31608 0.71784 0.66488
 H1784 H 0.34526 0.78630 0.68057
 C1785 C 0.26750 0.07945 0.90351
 C1786 C 0.25478 0.10107 0.90474
 C1787 C 0.24108 0.10544 0.92535
 C1788 C 0.23894 0.08806 0.94303
 C1789 C 0.25087 0.06638 0.94098
 C1790 C 0.26559 0.06252 0.92140
 C1791 C 0.22938 0.12702 0.92813
 C1792 C 0.23094 0.14450 0.91091
 C1793 C 0.24376 0.14081 0.88974
 C1794 C 0.25523 0.11843 0.88628
 C1795 C 0.26603 0.11382 0.86420
 C1796 C 0.26586 0.13050 0.84617
 C1797 C 0.25554 0.15268 0.84955
 C1798 C 0.24487 0.15846 0.87156
 C1799 C 0.23586 0.18173 0.87441
 C1800 C 0.23665 0.19810 0.85589
 C1801 C 0.24620 0.19184 0.83388
 C1802 C 0.25575 0.16912 0.83090
 H1803 H 0.27934 0.07518 0.88915
 H1804 H 0.22774 0.09124 0.95832
 H1805 H 0.27543 0.04610 0.91979
 H1806 H 0.21890 0.13049 0.94386
 H1807 H 0.22112 0.16050 0.91439
 H1808 H 0.27410 0.09705 0.85993
 H1809 H 0.27401 0.12597 0.82938
 H1810 H 0.22838 0.18799 0.89082
 H1811 H 0.22930 0.21562 0.85870
 H1812 H 0.26358 0.16427 0.81403
 C1813 C 0.78993 0.57145 0.40378
 C1814 C 0.77340 0.59030 0.40244
 C1815 C 0.75663 0.59260 0.42104
 C1816 C 0.75525 0.57544 0.43893
 C1817 C 0.77089 0.55621 0.43912
 C1818 C 0.78870 0.55479 0.42195
 C1819 C 0.74110 0.61180 0.42151
 C1820 C 0.74182 0.62893 0.40391
 C1821 C 0.75760 0.62703 0.38458
 C1822 C 0.77297 0.60689 0.38338
 C1823 C 0.78670 0.60348 0.36274
 C1824 C 0.78571 0.61933 0.34403
 C1825 C 0.77170 0.63962 0.34543
 C1826 C 0.75796 0.64417 0.36598
 C1827 C 0.74536 0.66586 0.36712
 C1828 C 0.74585 0.68184 0.34830
 C1829 C 0.75856 0.67660 0.32768
 C1830 C 0.77144 0.65547 0.32633
 H1831 H 0.80418 0.56926 0.39125
 H1832 H 0.74179 0.57679 0.45259
 H1833 H 0.80136 0.54035 0.42231
 H1834 H 0.72827 0.61367 0.43569
 H1835 H 0.72900 0.64300 0.40546
 H1836 H 0.79774 0.58812 0.36009
 H1837 H 0.79623 0.61575 0.32836
 H1838 H 0.73542 0.67128 0.38249
 H1839 H 0.73600 0.69826 0.34976
 H1840 H 0.78174 0.65163 0.31056
 C1841 C 0.76819 0.06550 0.10002
 C1842 C 0.75644 0.08756 0.09814
 C1843 C 0.74575 0.09312 0.07613
 C1844 C 0.74590 0.07669 0.05738
 C1845 C 0.75651 0.05430 0.05999
 C1846 C 0.76812 0.04930 0.08139
 C1847 C 0.73451 0.11487 0.07305
 C1848 C 0.73336 0.13125 0.09136
 C1849 C 0.74321 0.12643 0.11382
 C1850 C 0.75479 0.10413 0.11732
 C1851 C 0.76387 0.09892 0.14002
 C1852 C 0.76185 0.11486 0.15862
 C1853 C 0.75089 0.13674 0.15547
 C1854 C 0.74158 0.14300 0.13301
 C1855 C 0.73108 0.16568 0.13077
 C1856 C 0.72987 0.18123 0.14995
 C1857 C 0.73889 0.17483 0.17213
 C1858 C 0.74933 0.15246 0.17474
 H1859 H 0.77766 0.06009 0.11563
 H1860 H 0.73663 0.08092 0.04113
 H1861 H 0.77739 0.03265 0.08374
 H1862 H 0.72636 0.11928 0.05626
 H1863 H 0.72416 0.14746 0.08736
 H1864 H 0.77238 0.08239 0.14423
 H1865 H 0.76900 0.10997 0.17573
 H1866 H 0.72384 0.17218 0.11441
 H1867 H 0.72177 0.19843 0.14731
 H1868 H 0.75667 0.14740 0.19172
 C1869 C 0.28162 0.57569 0.59976
 C1870 C 0.26674 0.59593 0.59980
 C1871 C 0.25077 0.59869 0.58064
 C1872 C 0.24896 0.58123 0.56310
 C1873 C 0.26362 0.56124 0.56349
 C1874 C 0.28013 0.55875 0.58176
 C1875 C 0.23665 0.61886 0.57900
 C1876 C 0.23826 0.63674 0.59575
 C1877 C 0.25363 0.63481 0.61534
 C1878 C 0.26731 0.61362 0.61797
 C1879 C 0.28050 0.61053 0.63896
 C1880 C 0.28052 0.62763 0.65667
 C1881 C 0.26814 0.64883 0.65384
 C1882 C 0.25516 0.65307 0.63280
 C1883 C 0.24441 0.67556 0.63003
 C1884 C 0.24554 0.69255 0.64791
 C1885 C 0.25717 0.68769 0.66919
 C1886 C 0.26863 0.66586 0.67199
 H1887 H 0.29498 0.57272 0.61304
 H1888 H 0.23622 0.58324 0.54889
 H1889 H 0.29189 0.54357 0.58210
 H1890 H 0.22433 0.62098 0.56444
 H1891 H 0.22649 0.65157 0.59329
 H1892 H 0.29036 0.59461 0.64264
 H1893 H 0.29051 0.62429 0.67270
 H1894 H 0.23538 0.68078 0.61408
 H1895 H 0.23683 0.70944 0.64521
 H1896 H 0.27817 0.66222 0.68823
 C1897 C 0.72089 0.90656 0.91336
 C1898 C 0.74102 0.89451 0.90438
 C1899 C 0.76348 0.90035 0.91405
 C1900 C 0.76565 0.91870 0.93071
 C1901 C 0.74553 0.93043 0.93929
 C1902 C 0.72318 0.92405 0.93071
 C1903 C 0.78361 0.88774 0.90719
 C1904 C 0.78193 0.86902 0.89131
 C1905 C 0.76009 0.86285 0.88080
 C1906 C 0.73958 0.87666 0.88647
 C1907 C 0.71857 0.87272 0.87348
 C1908 C 0.71753 0.85566 0.85577
 C1909 C 0.73696 0.84112 0.85103
 C1910 C 0.75826 0.84390 0.86409
 C1911 C 0.77676 0.82741 0.86000
 C1912 C 0.77457 0.80981 0.84277
 C1913 C 0.75413 0.80833 0.82892
 C1914 C 0.73531 0.82389 0.83315
 H1915 H 0.70308 0.90235 0.90788
 H1916 H 0.78298 0.92361 0.93743
 H1917 H 0.70743 0.93278 0.93742
 H1918 H 0.80083 0.89215 0.91448
 H1919 H 0.79833 0.86027 0.88682
 H1920 H 0.70287 0.88334 0.87590
 H1921 H 0.70121 0.85365 0.84584
 H1922 H 0.79296 0.82741 0.87011
 H1923 H 0.78919 0.79769 0.83976
 H1924 H 0.71934 0.82245 0.82256
 C1925 C 0.21514 0.42118 0.41031
 C1926 C 0.23535 0.40955 0.40087
 C1927 C 0.25785 0.41570 0.41026
 C1928 C 0.25990 0.43338 0.42758
 C1929 C 0.23974 0.44460 0.43662
 C1930 C 0.21739 0.43829 0.42806
 C1931 C 0.27820 0.40400 0.40258
 C1932 C 0.27679 0.38579 0.38615
 C1933 C 0.25488 0.37894 0.37620
 C1934 C 0.23399 0.39174 0.38287
 C1935 C 0.21257 0.38662 0.37101
 C1936 C 0.21144 0.36929 0.35359
 C1937 C 0.23136 0.35587 0.34776
 C1938 C 0.25327 0.36009 0.35935
 C1939 C 0.27261 0.34504 0.35373
 C1940 C 0.27040 0.32729 0.33669
 C1941 C 0.24901 0.32402 0.32476
 C1942 C 0.22951 0.33821 0.33032
 H1943 H 0.19732 0.41696 0.40493
 H1944 H 0.27717 0.43805 0.43460
 H1945 H 0.20161 0.44653 0.43530
 H1946 H 0.29545 0.40874 0.40962
 H1947 H 0.29340 0.37784 0.38108
 H1948 H 0.19640 0.39626 0.37430
 H1949 H 0.19468 0.36620 0.34473
 H1950 H 0.28956 0.34623 0.36242
 H1951 H 0.28558 0.31626 0.33252
 H1952 H 0.21288 0.33540 0.32110
 C1953 C 0.22068 0.90199 0.07270
 C1954 C 0.23642 0.90223 0.09223
 C1955 C 0.25172 0.92203 0.09465
 C1956 C 0.25216 0.93989 0.07739
 C1957 C 0.23703 0.93893 0.05781
 C1958 C 0.22094 0.92015 0.05591
 C1959 C 0.26662 0.92391 0.11420
 C1960 C 0.26661 0.90666 0.13167
 C1961 C 0.25206 0.88636 0.12996
 C1962 C 0.23738 0.88369 0.10948
 C1963 C 0.22471 0.86229 0.10660
 C1964 C 0.22612 0.84423 0.12321
 C1965 C 0.23958 0.84697 0.14370
 C1966 C 0.25223 0.86832 0.14773
 C1967 C 0.26430 0.87078 0.16956
 C1968 C 0.26440 0.85251 0.18618
 C1969 C 0.25281 0.83109 0.18156
 C1970 C 0.24037 0.82846 0.16028
 H1971 H 0.20765 0.88828 0.07010
 H1972 H 0.26440 0.95463 0.07911
 H1973 H 0.20862 0.91946 0.04124
 H1974 H 0.27839 0.93898 0.11610
 H1975 H 0.27890 0.90938 0.14599
 H1976 H 0.21409 0.85860 0.09120
 H1977 H 0.21636 0.82797 0.12005
 H1978 H 0.27340 0.88679 0.17461
 H1979 H 0.27385 0.85507 0.20267
 H1980 H 0.23084 0.81212 0.15684
 C1981 C 0.77673 0.39363 0.57422
 C1982 C 0.75845 0.39155 0.59129
 C1983 C 0.74087 0.40954 0.59200
 C1984 C 0.74108 0.42803 0.57543
 C1985 C 0.75937 0.42976 0.55877
 C1986 C 0.77716 0.41252 0.55834
 C1987 C 0.72330 0.40909 0.60936
 C1988 C 0.72322 0.39164 0.62665
 C1989 C 0.74034 0.37339 0.62675
 C1990 C 0.75736 0.37259 0.60799
 C1991 C 0.77242 0.35266 0.60630
 C1992 C 0.77157 0.33459 0.62292
 C1993 C 0.75631 0.33601 0.64229
 C1994 C 0.74077 0.35564 0.64476
 C1995 C 0.72678 0.35701 0.66554
 C1996 C 0.72796 0.33942 0.68280
 C1997 C 0.74277 0.31974 0.67981
 C1998 C 0.75675 0.31802 0.65942
 H1999 H 0.79133 0.38137 0.57311
 H2000 H 0.72727 0.44140 0.57569
 H2001 H 0.79146 0.41372 0.54558
 H2002 H 0.70970 0.42266 0.60986
 H2003 H 0.70900 0.39254 0.63937
 H2004 H 0.78465 0.35016 0.59186
 H2005 H 0.78334 0.31955 0.62082
 H2006 H 0.71531 0.37180 0.66935
 H2007 H 0.71709 0.34114 0.69853
 H2008 H 0.76856 0.30300 0.65725
 C2009 C 0.09997 0.07284 0.74663
 C2010 C 0.09810 0.09517 0.75788
 C2011 C 0.07611 0.10098 0.76863
 C2012 C 0.05733 0.08459 0.76895
 C2013 C 0.05979 0.06211 0.75853
 C2014 C 0.08123 0.05673 0.74704
 C2015 C 0.07301 0.12302 0.77933
 C2016 C 0.09115 0.13963 0.77946
 C2017 C 0.11346 0.13475 0.76914
 C2018 C 0.11720 0.11191 0.75871
 C2019 C 0.13999 0.10644 0.74984
 C2020 C 0.15830 0.12287 0.75041
 C2021 C 0.15470 0.14552 0.75955
 C2022 C 0.13223 0.15187 0.76901
 C2023 C 0.12942 0.17530 0.77755
 C2024 C 0.14794 0.19161 0.77638
 C2025 C 0.17002 0.18526 0.76690
 C2026 C 0.17340 0.16202 0.75889
 H2027 H 0.11557 0.06726 0.73715
 H2028 H 0.04106 0.08903 0.77821
 H2029 H 0.08349 0.03985 0.73813
 H2030 H 0.05628 0.12754 0.78767
 H2031 H 0.08715 0.15608 0.78825
 H2032 H 0.14446 0.08937 0.74258
 H2033 H 0.17546 0.11784 0.74332
 H2034 H 0.11300 0.18187 0.78474
 H2035 H 0.14485 0.20945 0.78280
 H2036 H 0.19036 0.15699 0.75133
 C2037 C 0.59809 0.57830 0.29449
 C2038 C 0.60556 0.59014 0.27369
 C2039 C 0.59237 0.58623 0.25269
 C2040 C 0.57354 0.56998 0.25239
 C2041 C 0.56646 0.55846 0.27311
 C2042 C 0.57867 0.56290 0.29417
 C2043 C 0.59787 0.59869 0.23214
 C2044 C 0.61573 0.61561 0.23209
 C2045 C 0.62949 0.62005 0.25246
 C2046 C 0.62528 0.60609 0.27313
 C2047 C 0.64125 0.60812 0.29225
 C2048 C 0.66031 0.62376 0.29146
 C2049 C 0.66358 0.63873 0.27211
 C2050 C 0.64776 0.63759 0.25263
 C2051 C 0.65049 0.65451 0.23437
 C2052 C 0.66860 0.67130 0.23517
 C2053 C 0.68484 0.67147 0.25381
 C2054 C 0.68239 0.65512 0.27222
 H2055 H 0.60641 0.58115 0.31142
 H2056 H 0.56396 0.56661 0.23609
 H2057 H 0.57320 0.55428 0.31040
 H2058 H 0.58796 0.59566 0.21599
 H2059 H 0.61896 0.62437 0.21546
 H2060 H 0.63995 0.59716 0.30780
 H2061 H 0.67234 0.62445 0.30638
 H2062 H 0.63843 0.65575 0.21965
 H2063 H 0.67009 0.68412 0.22100
 H2064 H 0.69469 0.65566 0.28695
 C2065 C 0.06689 0.89920 0.25363
 C2066 C 0.09041 0.90136 0.24516
 C2067 C 0.09726 0.92345 0.23537
 C2068 C 0.08097 0.94220 0.23368
 C2069 C 0.05776 0.93995 0.24248
 C2070 C 0.05101 0.91810 0.25231
 C2071 C 0.12041 0.92683 0.22741
 C2072 C 0.13724 0.90905 0.22963
 C2073 C 0.13145 0.88681 0.23951
 C2074 C 0.10741 0.88256 0.24644
 C2075 C 0.10113 0.85958 0.25412
 C2076 C 0.11784 0.84159 0.25568
 C2077 C 0.14157 0.84580 0.25021
 C2078 C 0.14882 0.86855 0.24237
 C2079 C 0.17329 0.87215 0.23810
 C2080 C 0.18960 0.85383 0.24094
 C2081 C 0.18224 0.83121 0.24805
 C2082 C 0.15813 0.82733 0.25264
 H2083 H 0.06033 0.88339 0.26204
 H2084 H 0.08636 0.95859 0.22523
 H2085 H 0.03343 0.91578 0.25972
 H2086 H 0.12570 0.94359 0.21968
 H2087 H 0.15463 0.91317 0.22291
 H2088 H 0.08321 0.85472 0.25860
 H2089 H 0.11213 0.82420 0.26153
 H2090 H 0.18054 0.88903 0.23296
 H2091 H 0.20812 0.85740 0.23729
 H2092 H 0.15224 0.80998 0.25840
 C2093 C 0.57781 0.40315 0.69935
 C2094 C 0.59112 0.39862 0.72013
 C2095 C 0.58910 0.41507 0.73904
 C2096 C 0.57329 0.43419 0.73764
 C2097 C 0.55954 0.43768 0.71742
 C2098 C 0.56232 0.42245 0.69808
 C2099 C 0.60254 0.41220 0.75947
 C2100 C 0.61828 0.39348 0.76159
 C2101 C 0.62087 0.37644 0.74345
 C2102 C 0.60638 0.37851 0.72279
 C2103 C 0.60718 0.36010 0.70584
 C2104 C 0.62205 0.34064 0.70865
 C2105 C 0.63725 0.33906 0.72803
 C2106 C 0.63720 0.35717 0.74549
 C2107 C 0.65400 0.35557 0.76399
 C2108 C 0.66997 0.33680 0.76507
 C2109 C 0.66954 0.31877 0.74812
 C2110 C 0.65295 0.31973 0.72977
 H2111 H 0.57909 0.39223 0.68375
 H2112 H 0.57127 0.44621 0.75250
 H2113 H 0.55199 0.42521 0.68217
 H2114 H 0.60092 0.42464 0.77402
 H2115 H 0.62765 0.39244 0.77814
 H2116 H 0.59600 0.35990 0.69040
 H2117 H 0.62193 0.32687 0.69526
 H2118 H 0.65596 0.36897 0.77743
 H2119 H 0.68297 0.33648 0.77917
 H2120 H 0.65305 0.30604 0.71628
 C2121 C 0.90633 0.08337 0.27268
 C2122 C 0.89885 0.09656 0.25274
 C2123 C 0.91212 0.09424 0.23153
 C2124 C 0.93065 0.07768 0.22993
 C2125 C 0.93708 0.06410 0.24959
 C2126 C 0.92529 0.06756 0.27108
 C2127 C 0.90672 0.10830 0.21200
 C2128 C 0.88854 0.12490 0.21310
 C2129 C 0.87432 0.12732 0.23353
 C2130 C 0.87883 0.11207 0.25321
 C2131 C 0.86269 0.11215 0.27232
 C2132 C 0.84308 0.12701 0.27247
 C2133 C 0.83931 0.14306 0.25414
 C2134 C 0.85523 0.14398 0.23470
 C2135 C 0.85162 0.16188 0.21751
 C2136 C 0.83270 0.17775 0.21943
 C2137 C 0.81653 0.17588 0.23809
 C2138 C 0.81980 0.15844 0.25530
 H2139 H 0.89819 0.08522 0.28984
 H2140 H 0.94010 0.07526 0.21338
 H2141 H 0.93045 0.05750 0.28656
 H2142 H 0.91681 0.10663 0.19574
 H2143 H 0.88538 0.13493 0.19720
 H2144 H 0.86422 0.10016 0.28706
 H2145 H 0.83093 0.12618 0.28733
 H2146 H 0.86355 0.16456 0.20284
 H2147 H 0.83056 0.19145 0.20618
 H2148 H 0.80753 0.15742 0.27008
 C2149 C 0.40146 0.57919 0.70770
 C2150 C 0.40073 0.59722 0.72513
 C2151 C 0.41977 0.59839 0.74149
 C2152 C 0.43792 0.58134 0.74106
 C2153 C 0.43821 0.56359 0.72375
 C2154 C 0.41995 0.56276 0.70705
 C2155 C 0.42064 0.61658 0.75817
 C2156 C 0.40331 0.63406 0.75871
 C2157 C 0.38388 0.63360 0.74298
 C2158 C 0.38198 0.61427 0.72670
 C2159 C 0.36117 0.61229 0.71297
 C2160 C 0.34306 0.62889 0.71466
 C2161 C 0.34525 0.64855 0.72947
 C2162 C 0.36594 0.65154 0.74341
 C2163 C 0.36797 0.67263 0.75687
 C2164 C 0.34992 0.68956 0.75693
 C2165 C 0.32913 0.68594 0.74394
 C2166 C 0.32688 0.66537 0.73025
 H2167 H 0.38831 0.57760 0.69397
 H2168 H 0.45200 0.58193 0.75410
 H2169 H 0.41999 0.54919 0.69347
 H2170 H 0.43506 0.61750 0.77079
 H2171 H 0.40524 0.64734 0.77227
 H2172 H 0.35796 0.59759 0.70122
 H2173 H 0.32727 0.62647 0.70400
 H2174 H 0.38354 0.67689 0.76705
 H2175 H 0.35215 0.70549 0.76741
 H2176 H 0.31104 0.66274 0.71972
 C2177 C 0.92018 0.90809 0.73318
 C2178 C 0.90654 0.89997 0.75258
 C2179 C 0.90879 0.91217 0.77442
 C2180 C 0.92557 0.93040 0.77703
 C2181 C 0.93927 0.93776 0.75772
 C2182 C 0.93611 0.92681 0.73576
 C2183 C 0.89428 0.90611 0.79348
 C2184 C 0.87717 0.88851 0.79123
 C2185 C 0.87468 0.87548 0.77004
 C2186 C 0.89052 0.88043 0.75090
 C2187 C 0.89040 0.86523 0.73105
 C2188 C 0.87486 0.84621 0.72962
 C2189 C 0.85818 0.84217 0.74738
 C2190 C 0.85735 0.85714 0.76756
 C2191 C 0.83886 0.85339 0.78415
 C2192 C 0.82239 0.83517 0.78100
 C2193 C 0.82419 0.81984 0.76163
 C2194 C 0.84215 0.82331 0.74495
 H2195 H 0.91850 0.90074 0.71565
 H2196 H 0.92790 0.93903 0.79402
 H2197 H 0.94636 0.93257 0.72059
 H2198 H 0.89592 0.91533 0.81024
 H2199 H 0.86674 0.88482 0.80679
 H2200 H 0.90284 0.86702 0.71667
 H2201 H 0.87566 0.83477 0.71422
 H2202 H 0.83624 0.86470 0.79932
 H2203 H 0.80835 0.83282 0.79390
 H2204 H 0.84318 0.81168 0.72968
 C2205 C 0.39467 0.43579 0.24662
 C2206 C 0.39452 0.41411 0.25925
 C2207 C 0.41442 0.40894 0.27369
 C2208 C 0.43302 0.42533 0.27604
 C2209 C 0.43270 0.44674 0.26357
 C2210 C 0.41352 0.45168 0.24869
 C2211 C 0.41576 0.38739 0.28560
 C2212 C 0.39809 0.37045 0.28309
 C2213 C 0.37791 0.37466 0.26892
 C2214 C 0.37561 0.39725 0.25767
 C2215 C 0.35433 0.40238 0.24558
 C2216 C 0.33621 0.38581 0.24388
 C2217 C 0.33872 0.36327 0.25361
 C2218 C 0.35975 0.35718 0.26595
 C2219 C 0.36184 0.33367 0.27442
 C2220 C 0.34367 0.31721 0.27113
 C2221 C 0.32270 0.32356 0.25953
 C2222 C 0.32032 0.34669 0.25089
 H2223 H 0.38082 0.44074 0.23449
 H2224 H 0.44798 0.42135 0.28740
 H2225 H 0.41322 0.46793 0.23851
 H2226 H 0.43084 0.38340 0.29679
 H2227 H 0.40050 0.35437 0.29303
 H2228 H 0.35082 0.41938 0.23768
 H2229 H 0.32013 0.39062 0.23456
 H2230 H 0.37750 0.32722 0.28321
 H2231 H 0.34599 0.29942 0.27793
 H2232 H 0.30428 0.35168 0.24157
   
