data_POSCAR
  _audit_creation_date              2014-09-24
  _audit_creation_method            'ToBaCCo'
  _symmetry_space_group_name_H-M    'P1'
  _symmetry_Int_Tables_number       1
  _symmetry_cell_setting            triclinic
  loop_
  _symmetry_equiv_pos_as_xyz
 x,y,z
_cell_length_a 63.6801
_cell_length_b 63.6418
_cell_length_c 63.7452
_cell_angle_alpha 89.974100
_cell_angle_beta 89.999600
_cell_angle_gamma 89.995600
loop_
  _atom_site_label
  _atom_site_type_symbol
  _atom_site_fract_x
  _atom_site_fract_y
  _atom_site_fract_z
C1 C 0.35875 1.35978 0.33243
 N2 N 0.34130 1.36835 0.34128
 C3 C 0.33252 1.35984 0.35879
 N4 N 0.34147 1.34248 0.36744
 C5 C 0.35890 1.33368 0.35886
 N6 N 0.36741 1.34242 0.34137
 C7 C 0.35868 0.85963 0.83293
 N8 N 0.34125 0.86820 0.84174
 C9 C 0.33240 0.85958 0.85916
 N10 N 0.34129 0.84212 0.86770
 C11 C 0.35873 0.83334 0.85909
 N12 N 0.36730 0.84219 0.84169
 C13 C 0.85811 1.35916 0.83168
 N14 N 0.84065 1.36771 0.84054
 C15 C 0.83186 1.35917 0.85802
 N16 N 0.84081 1.34179 0.86664
 C17 C 0.85825 1.33301 0.85806
 N18 N 0.86677 1.34179 0.84059
 C19 C 0.86013 0.85994 0.33281
 N20 N 0.84270 0.86854 0.34168
 C21 C 0.83394 0.85999 0.35914
 N22 N 0.84278 0.84258 0.36777
 C23 C 0.86019 0.83376 0.35917
 N24 N 0.86874 0.84253 0.34171
 C25 C 0.63989 0.63985 0.33375
 N26 N 0.65735 0.63129 0.34252
 C27 C 0.66618 0.63992 0.35991
 N28 N 0.65736 0.65735 0.36849
 C29 C 0.63990 0.66613 0.35992
 N30 N 0.63129 0.65729 0.34254
 C31 C 0.64182 0.14079 0.83188
 N32 N 0.65932 0.13228 0.84071
 C33 C 0.66812 0.14084 0.85818
 N34 N 0.65913 0.15818 0.86681
 C35 C 0.64166 0.16692 0.85825
 N36 N 0.63313 0.15814 0.84081
 C37 C 1.13923 0.63933 0.83419
 N38 N 1.15668 0.63073 0.84296
 C39 C 1.16548 0.63930 0.86038
 N40 N 1.15666 0.65671 0.86900
 C41 C 1.13921 0.66552 0.86044
 N42 N 1.13062 0.65674 0.84302
 C43 C 1.14130 0.14050 0.33233
 N44 N 1.15885 0.13202 0.34110
 C45 C 1.16766 0.14056 0.35856
 N46 N 1.15865 0.15786 0.36726
 C47 C 1.14113 0.16657 0.35876
 N48 N 1.13259 0.15780 0.34132
 C49 C 0.64152 1.35956 0.66785
 N50 N 0.63280 1.34220 0.65898
 C51 C 0.64125 1.33340 0.64150
 N52 N 0.65868 1.34214 0.63287
 C53 C 0.66770 1.35949 0.64144
 N54 N 0.65898 1.36806 0.65894
 C55 C 0.64005 0.85999 1.16633
 N56 N 0.63139 0.84254 1.15762
 C57 C 0.63992 0.83367 1.14020
 N58 N 0.65734 0.84243 1.13153
 C59 C 0.66620 0.85988 1.14004
 N60 N 0.65746 0.86854 1.15745
 C61 C 1.14136 1.35959 1.16777
 N62 N 1.13269 1.34220 1.15890
 C63 C 1.14120 1.33342 1.14144
 N64 N 1.15862 1.34219 1.13283
 C65 C 1.16758 1.35957 1.14141
 N66 N 1.15880 1.36814 1.15888
 C67 C 1.14163 0.85924 0.66720
 N68 N 1.13298 0.84182 0.65844
 C69 C 1.14151 0.83298 0.64103
 N70 N 1.15894 0.84175 0.63240
 C71 C 1.16787 0.85918 0.64092
 N72 N 1.15907 0.86780 0.65836
 C73 C 0.35888 0.64039 0.66674
 N74 N 0.34142 0.63181 0.65800
 C75 C 0.33247 0.64042 0.64063
 N76 N 0.34130 0.65788 0.63204
 C77 C 0.35877 0.66668 0.64056
 N78 N 0.36744 0.65784 0.65793
 C79 C 0.35937 0.13973 1.16728
 N80 N 0.34188 0.13115 1.15851
 C81 C 0.33300 0.13968 1.14106
 N82 N 0.34190 0.15705 1.13238
 C83 C 0.35937 0.16585 1.14087
 N84 N 0.36798 0.15710 1.15830
 C85 C 0.86002 0.63961 1.16601
 N86 N 0.84257 0.63098 1.15729
 C87 C 0.83367 0.63957 1.13991
 N88 N 0.84240 0.65704 1.13129
 C89 C 0.85985 0.66588 1.13980
 N90 N 0.86853 0.65708 1.15718
 C91 C 0.85864 0.14054 0.66814
 N92 N 0.84116 0.13197 0.65936
 C93 C 0.83229 0.14049 0.64190
 N94 N 0.84119 0.15787 0.63323
 C95 C 0.85866 0.16667 0.64174
 N96 N 0.86725 0.15791 0.65918
 C97 C 1.35953 0.35857 0.66784
 N98 N 1.34209 0.36719 0.65902
 C99 C 1.33329 0.35866 0.64158
 N100 N 1.34209 0.34126 0.63293
 C101 C 1.35953 0.33236 0.64146
 N102 N 1.36810 0.34115 0.65892
 C103 C 1.36019 0.85924 1.16658
 N104 N 1.34280 0.86791 1.15777
 C105 C 1.33393 0.85929 1.14042
 N106 N 1.34262 0.84176 1.13191
 C107 C 1.36001 0.83281 1.14049
 N108 N 1.36867 0.84170 1.15786
 C109 C 0.85976 0.35993 1.16721
 N110 N 0.86843 0.34255 1.15832
 C111 C 0.85991 0.33375 1.14087
 N112 N 0.84246 0.34250 1.13228
 C113 C 0.83357 0.35988 1.14089
 N114 N 0.84230 0.36847 1.15834
 C115 C 0.86038 0.86024 0.66638
 N116 N 0.86893 0.84276 0.65761
 C117 C 0.86029 0.83394 0.64022
 N118 N 0.84286 0.84277 0.63164
 C119 C 0.83410 0.86024 0.64021
 N120 N 0.84295 0.86886 0.65758
 C121 C 0.64007 0.63992 0.66652
 N122 N 0.65748 0.63132 0.65769
 C123 C 0.66627 0.63995 0.64028
 N124 N 0.65747 0.65741 0.63172
 C125 C 0.64005 0.66622 0.64034
 N126 N 0.63147 0.65738 0.65775
 C127 C 0.64067 1.14096 1.16744
 N128 N 0.65805 1.13239 1.15848
 C129 C 0.66672 1.14098 1.14099
 N130 N 0.65784 1.15839 1.13244
 C131 C 0.64045 1.16725 1.14111
 N132 N 0.63201 1.15839 1.15861
 C133 C 0.14074 0.64124 1.16779
 N134 N 0.13216 0.65874 1.15902
 C135 C 0.14063 0.66761 1.14155
 N136 N 0.15797 0.65869 1.13283
 C137 C 0.16677 0.64120 1.14132
 N138 N 0.15807 0.63261 1.15878
 C139 C 0.14015 1.14048 0.66650
 N140 N 0.13153 1.15795 0.65775
 C141 C 0.14005 1.16685 0.64031
 N142 N 0.15745 1.15798 0.63167
 C143 C 0.16628 1.14051 0.64020
 N144 N 0.15754 1.13189 0.65763
 C145 C 1.35936 0.64078 0.33221
 N146 N 1.34201 0.63211 0.34115
 C147 C 1.33326 0.64063 0.35862
 N148 N 1.34204 0.65808 0.36720
 C149 C 1.35938 0.66698 0.35854
 N150 N 1.36792 0.65824 0.34106
 C151 C 1.35936 1.14109 0.83190
 N152 N 1.34200 1.13247 0.84085
 C153 C 1.33327 1.14104 0.85831
 N154 N 1.34208 1.15849 0.86685
 C155 C 1.35945 1.16740 0.85819
 N156 N 1.36795 1.15856 0.84072
 C157 C 0.85964 0.64024 0.83333
 N158 N 0.84220 0.63165 0.84211
 C159 C 0.83340 0.64024 0.85953
 N160 N 0.84222 0.65767 0.86813
 C161 C 0.85966 0.66647 0.85955
 N162 N 0.86826 0.65767 0.84214
 C163 C 0.85989 1.14092 0.33243
 N164 N 0.84252 1.13230 0.34137
 C165 C 0.83377 1.14088 0.35881
 N166 N 0.84256 1.15835 0.36733
 C167 C 0.85993 1.16726 0.35868
 N168 N 0.86845 1.15840 0.34123
 C169 C 0.64048 0.35902 0.33240
 N170 N 0.63193 0.34157 0.34129
 C171 C 0.64049 0.33276 0.35875
 N172 N 0.65789 0.34168 0.36732
 C173 C 0.66668 0.35911 0.35871
 N174 N 0.65789 0.36766 0.34126
 C175 C 0.64008 0.86006 0.83369
 N176 N 0.63144 0.84264 0.84250
 C177 C 0.64000 0.83382 0.85993
 N178 N 0.65744 0.84260 0.86851
 C179 C 0.66630 0.86002 0.85992
 N180 N 0.65752 0.86863 0.84249
 C181 C 0.13982 0.35940 0.83365
 N182 N 0.13123 0.34196 0.84246
 C183 C 0.13980 0.33310 0.85989
 N184 N 0.15722 0.34198 0.86846
 C185 C 0.16603 0.35942 0.85987
 N186 N 0.15724 0.36801 0.84245
 C187 C 0.14029 0.85995 0.33291
 N188 N 0.13170 0.84251 0.34178
 C189 C 0.14024 0.83375 0.35925
 N190 N 0.15763 0.84260 0.36787
 C191 C 0.16645 0.86002 0.35927
 N192 N 0.15769 0.86857 0.34180
 O193 O 0.97977 0.92431 0.89579
 O194 O 0.97973 0.89985 0.87130
 C195 C 0.97262 0.91697 0.87870
 C196 C 0.95554 0.92823 0.86764
 C197 C 0.94855 0.92139 0.84790
 H198 H 0.95633 0.90831 0.84030
 O199 O 1.02068 1.07605 0.89583
 O200 O 1.02078 1.10051 0.87132
 C201 C 1.02788 1.08340 0.87875
 C202 C 1.04501 1.07215 0.86774
 C203 C 1.05205 1.07903 0.84802
 H204 H 1.04429 1.09212 0.84041
 O205 O 0.89574 0.97980 0.92431
 O206 O 0.87122 0.97975 0.89987
 C207 C 0.87864 0.97262 0.91696
 C208 C 0.86758 0.95550 0.92819
 C209 C 0.84786 0.94845 0.92131
 H210 H 0.84026 0.95620 0.90821
 O211 O 1.10484 1.02051 0.92434
 O212 O 1.12939 1.02053 0.89993
 C213 C 1.12195 1.02768 0.91700
 C214 C 1.13299 1.04481 0.92822
 C215 C 1.15267 1.05199 0.92129
 H216 H 1.16004 1.04467 0.90784
 O217 O 0.92426 0.89572 0.97977
 O218 O 0.89980 0.87119 0.97976
 C219 C 0.91689 0.87862 0.97262
 C220 C 0.92809 0.86756 0.95551
 C221 C 0.92118 0.84783 0.94846
 H222 H 0.90809 0.84023 0.95622
 O223 O 1.07614 1.10452 0.97978
 O224 O 1.10058 1.12908 0.97974
 C225 C 1.08348 1.12165 0.97263
 C226 C 1.07225 1.13273 0.95554
 C227 C 1.07911 1.15249 0.94853
 H228 H 1.09220 1.16010 0.95628
 O229 O 0.92448 1.02077 0.89553
 O230 O 0.90010 1.02077 0.87096
 C231 C 0.91716 1.02794 0.87843
 C232 C 0.92837 1.04512 0.86744
 C233 C 0.92147 1.05230 0.84777
 H234 H 0.90805 1.04494 0.84037
 O235 O 1.07604 0.97956 0.89563
 O236 O 1.10044 0.97952 0.87108
 C237 C 1.08337 0.97237 0.87855
 C238 C 1.07216 0.95519 0.86758
 C239 C 1.07906 0.94801 0.84791
 H240 H 1.09248 0.95538 0.84050
 O241 O 1.02060 0.89544 0.92458
 O242 O 1.02060 0.87082 0.90025
 C243 C 1.02773 0.87828 0.91730
 C244 C 1.04480 0.86723 0.92859
 C245 C 1.05181 0.84742 0.92184
 H246 H 1.04440 0.83997 0.90848
 O247 O 0.97969 1.10491 0.92443
 O248 O 0.97974 1.12951 0.90006
 C249 C 0.97254 1.12203 0.91709
 C250 C 0.95534 1.13303 0.92825
 C251 C 0.94810 1.15269 0.92126
 H252 H 0.95543 1.16008 0.90782
 O253 O 0.89548 1.07603 0.97955
 O254 O 0.87095 1.10048 0.97956
 C255 C 0.87839 1.08341 0.97238
 C256 C 0.86742 1.07224 0.95517
 C257 C 0.84781 1.07925 0.94787
 H258 H 0.84041 1.09271 0.95516
 O259 O 1.10465 0.92422 0.97981
 O260 O 1.12918 0.89976 0.97979
 C261 C 1.12173 0.91685 0.97263
 C262 C 1.13274 0.92802 0.95545
 C263 C 1.15243 0.92107 0.94835
 H264 H 1.16004 0.90797 0.95610
 O265 O 0.97972 1.07615 0.89570
 O266 O 0.97978 1.10061 0.87119
 C267 C 0.97260 1.08352 0.87860
 C268 C 0.95546 1.07233 0.86756
 C269 C 0.94835 1.07929 0.84788
 H270 H 0.95608 1.09242 0.84030
 O271 O 1.02072 0.92417 0.89580
 O272 O 1.02073 0.89970 0.87132
 C273 C 1.02789 0.91679 0.87873
 C274 C 1.04506 0.92797 0.86770
 C275 C 1.05217 0.92103 0.84804
 H276 H 1.04444 0.90791 0.84046
 O277 O 1.10474 0.97954 0.92440
 O278 O 1.12930 0.97949 0.90000
 C279 C 1.12184 0.97234 0.91707
 C280 C 1.13283 0.95517 0.92830
 C281 C 1.15251 0.94798 0.92141
 H282 H 1.15991 0.95531 0.90797
 O283 O 0.89572 1.02078 0.92424
 O284 O 0.87120 1.02078 0.89980
 C285 C 0.87862 1.02794 0.91687
 C286 C 0.86759 1.04513 0.92801
 C287 C 0.84797 1.05233 0.92095
 H288 H 0.84043 1.04463 0.90781
 O289 O 0.92427 1.10477 0.97959
 O290 O 0.89987 1.12936 0.97961
 C291 C 0.91694 1.12190 0.97245
 C292 C 0.92813 1.13294 0.95530
 C293 C 0.92113 1.15259 0.94812
 H294 H 0.90798 1.16016 0.95580
 O295 O 1.07587 0.89546 0.97991
 O296 O 1.10027 0.87087 0.97990
 C297 C 1.08319 0.87833 0.97278
 C298 C 1.07194 0.86727 0.95570
 C299 C 1.07872 0.84747 0.94876
 H300 H 1.09174 0.83980 0.95656
 O301 O 1.07600 1.02056 0.89569
 O302 O 1.10040 1.02058 0.87113
 C303 C 1.08333 1.02774 0.87860
 C304 C 1.07210 1.04492 0.86762
 C305 C 1.07893 1.05204 0.84790
 H306 H 1.09232 1.04464 0.84046
 O307 O 0.92450 0.97978 0.89557
 O308 O 0.90012 0.97973 0.87100
 C309 C 0.91719 0.97259 0.87847
 C310 C 0.92844 0.95544 0.86750
 C311 C 0.92166 0.94836 0.84775
 H312 H 0.90829 0.95577 0.84029
 O313 O 1.02066 1.10481 0.92455
 O314 O 1.02077 1.12942 0.90018
 C315 C 1.02787 1.12192 0.91725
 C316 C 1.04503 1.13290 0.92849
 C317 C 1.05213 1.15266 0.92170
 H318 H 1.04473 1.16013 0.90833
 O319 O 0.97965 0.89552 0.92451
 O320 O 0.97960 0.87092 0.90016
 C321 C 0.97245 0.87841 0.91720
 C322 C 0.95527 0.86744 0.92842
 C323 C 0.94812 0.84771 0.92158
 H324 H 0.95549 0.84027 0.90819
 O325 O 1.10491 1.07575 0.97974
 O326 O 1.12948 1.10017 0.97970
 C327 C 1.12201 1.08309 0.97256
 C328 C 1.13299 1.07192 0.95539
 C329 C 1.15267 1.07886 0.94825
 H330 H 1.16030 1.09194 0.95599
 O331 O 0.89551 0.92450 0.97974
 O332 O 0.87091 0.90011 0.97973
 C333 C 0.87840 0.91718 0.97257
 C334 C 0.86743 0.92841 0.95540
 C335 C 0.84770 0.92157 0.94828
 H336 H 0.84024 0.90818 0.95567
 Cu337 Cu 1.00019 0.91231 0.91262
 Cu338 Cu 1.00016 0.88286 0.88330
 Cu339 Cu 1.00017 1.08803 0.91258
 Cu340 Cu 1.00028 1.11748 0.88323
 Cu341 Cu 0.91256 1.00028 0.91235
 Cu342 Cu 0.88320 1.00025 0.88295
 Cu343 Cu 1.08796 1.00005 0.91245
 Cu344 Cu 1.11734 1.00003 0.88308
 C345 C 0.94551 0.94539 0.87721
 H346 H 0.95064 0.95057 0.89256
 C347 C 0.93163 0.93135 0.83783
 C348 C 1.05501 1.05497 0.87731
 H349 H 1.04984 1.04976 0.89264
 C350 C 1.06899 1.06908 0.83797
 C351 C 0.87714 0.94551 0.94537
 H352 H 0.89247 0.95068 0.95059
 C353 C 0.83779 0.93150 0.93124
 C354 C 1.12339 1.05476 0.94539
 H355 H 1.10808 1.04950 0.95064
 C356 C 1.16263 1.06901 0.93121
 C357 C 0.94527 0.87713 0.94551
 H358 H 0.95051 0.89247 0.95068
 C359 C 0.93109 0.83778 0.93151
 C360 C 1.05507 1.12316 0.94555
 H361 H 1.04987 1.10779 0.95069
 C362 C 1.06915 1.16259 0.93163
 C363 C 0.94549 1.05512 0.87710
 H364 H 0.95071 1.04985 0.89240
 C365 C 0.93137 1.06937 0.83786
 C366 C 1.05503 0.94518 0.87724
 H367 H 1.04981 0.95045 0.89253
 C368 C 1.06916 0.93095 0.83801
 C369 C 1.05485 0.87692 0.94565
 H370 H 1.04972 0.89232 0.95074
 C371 C 1.06875 0.83741 0.93185
 C372 C 0.94537 1.12340 0.94539
 H373 H 0.95067 1.10811 0.95068
 C374 C 0.93099 1.16259 0.93110
 C375 C 0.87707 1.05506 0.94525
 H376 H 0.89233 1.04976 0.95059
 C377 C 0.83796 1.06939 0.93076
 C378 C 1.12318 0.94521 0.94545
 H379 H 1.10787 0.95048 0.95067
 C380 C 1.16244 0.93094 0.93134
 O381 O 1.02061 0.92427 1.10474
 O382 O 1.02057 0.89982 1.12927
 C383 C 1.02775 0.91691 1.12184
 C384 C 1.04491 0.92808 1.13286
 C385 C 1.05196 0.92117 1.15256
 H386 H 1.04417 0.90809 1.16017
 O387 O 0.97988 1.07603 1.10470
 O388 O 0.97985 1.10052 1.12916
 C389 C 0.97270 1.08342 1.12176
 C390 C 0.95553 1.07225 1.13279
 C391 C 0.94844 1.07920 1.15245
 H392 H 0.95621 1.09229 1.16004
 O393 O 0.89573 1.02081 1.07600
 O394 O 0.87118 1.02084 1.10040
 C395 C 0.87862 1.02797 1.08332
 C396 C 0.86757 1.04509 1.07209
 C397 C 0.84786 1.05217 1.07899
 H398 H 0.84028 1.04445 1.09211
 O399 O 1.10479 0.97951 1.07611
 O400 O 1.12935 0.97944 1.10050
 C401 C 1.12189 0.97232 1.08343
 C402 C 1.13290 0.95519 1.07218
 C403 C 1.15263 0.94805 1.07901
 H404 H 1.16006 0.95539 1.09242
 O405 O 1.07594 0.89549 1.02082
 O406 O 1.10036 0.87091 1.02085
 C407 C 1.08329 0.87837 1.02800
 C408 C 1.07210 0.86736 1.04517
 C409 C 1.07906 0.84768 1.05232
 H410 H 1.09217 0.84007 1.04462
 O411 O 0.92437 1.10462 1.02051
 O412 O 0.89998 1.12922 1.02057
 C413 C 0.91706 1.12174 1.02769
 C414 C 0.92831 1.13274 1.04482
 C415 C 0.92145 1.15248 1.05187
 H416 H 0.90837 1.16012 1.04412
 O417 O 0.92447 0.97980 1.10474
 O418 O 0.90004 0.97980 1.12927
 C419 C 0.91711 0.97263 1.12183
 C420 C 0.92828 0.95544 1.13283
 C421 C 0.92137 0.94837 1.15253
 H422 H 0.90832 0.95617 1.16015
 O423 O 1.07605 1.02054 1.10476
 O424 O 1.10047 1.02053 1.12929
 C425 C 1.08341 1.02772 1.12183
 C426 C 1.07226 1.04494 1.13279
 C427 C 1.07923 1.05210 1.15242
 H428 H 1.09231 1.04433 1.16003
 O429 O 0.97963 0.89560 1.07596
 O430 O 0.97955 0.87101 1.10035
 C431 C 0.97243 0.87849 1.08328
 C432 C 0.95527 0.86750 1.07207
 C433 C 0.94821 0.84774 1.07889
 H434 H 0.95599 0.84007 1.09192
 O435 O 1.02083 1.10475 1.07592
 O436 O 1.02085 1.12938 1.10025
 C437 C 1.02801 1.12188 1.08321
 C438 C 1.04517 1.13287 1.07199
 C439 C 1.05233 1.15258 1.07885
 H440 H 1.04496 1.16002 1.09224
 O441 O 0.89553 0.92454 1.02067
 O442 O 0.87093 0.90015 1.02071
 C443 C 0.87841 0.91722 1.02784
 C444 C 0.86742 0.92847 1.04496
 C445 C 0.84766 0.92166 1.05203
 H446 H 0.84021 0.90828 1.04463
 O447 O 1.10493 1.07573 1.02069
 O448 O 1.12950 1.10014 1.02068
 C449 C 1.12204 1.08306 1.02784
 C450 C 1.13304 1.07186 1.04500
 C451 C 1.15276 1.07874 1.05209
 H452 H 1.16041 1.09181 1.04433
 O453 O 1.02084 1.07603 1.10471
 O454 O 1.02087 1.10051 1.12918
 C455 C 1.02801 1.08340 1.12178
 C456 C 1.04517 1.07218 1.13280
 C457 C 1.05239 1.07913 1.15244
 H458 H 1.04509 1.09262 1.15980
 O459 O 0.97966 0.92426 1.10479
 O460 O 0.97957 0.89982 1.12932
 C461 C 0.97247 0.91693 1.12188
 C462 C 0.95535 0.92820 1.13288
 C463 C 0.94821 0.92134 1.15258
 H464 H 0.95553 0.90788 1.15998
 O465 O 1.10485 1.02047 1.07610
 O466 O 1.12942 1.02046 1.10048
 C467 C 1.12198 1.02761 1.08342
 C468 C 1.13303 1.04473 1.07217
 C469 C 1.15274 1.05185 1.07905
 H470 H 1.16012 1.04449 1.09248
 O471 O 0.89570 0.97984 1.07603
 O472 O 0.87114 0.97983 1.10042
 C473 C 0.87858 0.97269 1.08336
 C474 C 0.86753 0.95557 1.07214
 C475 C 0.84778 0.94855 1.07897
 H476 H 0.84015 0.95631 1.09203
 O477 O 1.07621 1.10455 1.02068
 O478 O 1.10066 1.12909 1.02068
 C479 C 1.08357 1.12166 1.02782
 C480 C 1.07237 1.13273 1.04493
 C481 C 1.07930 1.15244 1.05199
 H482 H 1.09241 1.16003 1.04426
 O483 O 0.92422 0.89570 1.02068
 O484 O 0.89978 0.87116 1.02072
 C485 C 0.91687 0.87859 1.02785
 C486 C 0.92811 0.86753 1.04495
 C487 C 0.92126 0.84776 1.05201
 H488 H 0.90785 0.84036 1.04463
 O489 O 1.07604 0.97954 1.10485
 O490 O 1.10045 0.97948 1.12939
 C491 C 1.08336 0.97235 1.12194
 C492 C 1.07209 0.95521 1.13295
 C493 C 1.07894 0.94806 1.15265
 H494 H 1.09237 0.95540 1.16006
 O495 O 0.92444 1.02080 1.10479
 O496 O 0.90003 1.02083 1.12932
 C497 C 0.91711 1.02798 1.12188
 C498 C 0.92835 1.04512 1.13287
 C499 C 0.92145 1.05231 1.15254
 H500 H 0.90800 1.04499 1.15994
 O501 O 0.97986 1.10469 1.07586
 O502 O 0.97983 1.12933 1.10017
 C503 C 0.97268 1.12182 1.08314
 C504 C 0.95552 1.13281 1.07189
 C505 C 0.94841 1.15256 1.07873
 H506 H 0.95580 1.15999 1.09211
 O507 O 1.02060 0.89545 1.07609
 O508 O 1.02057 0.87086 1.10047
 C509 C 1.02775 0.87832 1.08343
 C510 C 1.04492 0.86730 1.07225
 C511 C 1.05211 0.84762 1.07920
 H512 H 1.04476 0.84024 1.09263
 O513 O 1.10469 0.92426 1.02074
 O514 O 1.12923 0.89981 1.02075
 C515 C 1.12180 0.91691 1.02788
 C516 C 1.13283 0.92809 1.04501
 C517 C 1.15256 0.92119 1.05204
 H518 H 1.16019 0.90814 1.04425
 O519 O 0.89548 1.07599 1.02049
 O520 O 0.87094 1.10044 1.02055
 C521 C 0.87839 1.08335 1.02768
 C522 C 0.86741 1.07214 1.04485
 C523 C 0.84770 1.07902 1.05200
 H524 H 0.84026 1.09242 1.04461
 Cu525 Cu 1.00013 0.91235 1.08795
 Cu526 Cu 1.00005 0.88291 1.11731
 Cu527 Cu 1.00036 1.08792 1.08786
 Cu528 Cu 1.00035 1.11741 1.11714
 Cu529 Cu 0.91233 0.91256 1.00022
 Cu530 Cu 0.88289 0.88320 1.00023
 Cu531 Cu 1.08784 0.91231 1.00032
 Cu532 Cu 1.11722 0.88288 1.00032
 Cu533 Cu 0.91233 1.08789 1.00003
 Cu534 Cu 0.88297 1.11734 1.00008
 Cu535 Cu 1.08810 1.08768 1.00023
 Cu536 Cu 1.11752 1.11707 1.00020
 Cu537 Cu 0.91254 1.00032 1.08795
 Cu538 Cu 0.88314 1.00033 1.11731
 Cu539 Cu 1.08798 1.00001 1.08801
 Cu540 Cu 1.11737 0.99997 1.11738
 C541 C 1.05495 0.94524 1.12329
 H542 H 1.04978 0.95048 1.10796
 C543 C 1.06896 0.93105 1.16258
 C544 C 0.94552 1.05508 1.12323
 H545 H 0.95073 1.04981 1.10793
 C546 C 0.93141 1.06934 1.16245
 C547 C 0.87711 1.05504 1.05489
 H548 H 0.89243 1.04984 1.04966
 C549 C 0.83780 1.06913 1.06906
 C550 C 1.12324 0.94522 1.05505
 H551 H 1.10789 0.95045 1.04989
 C552 C 1.16259 0.93106 1.06903
 C553 C 1.05490 0.87694 1.05511
 H554 H 1.04964 0.89224 1.04985
 C555 C 1.06917 0.83768 1.06933
 C556 C 0.94548 1.12313 1.05481
 H557 H 0.95068 1.10778 1.04963
 C558 C 0.93139 1.16252 1.06881
 C559 C 0.94541 0.94538 1.12324
 H560 H 0.95064 0.95058 1.10793
 C561 C 0.93123 0.93133 1.16253
 C562 C 1.05509 1.05496 1.12321
 H563 H 1.04981 1.04969 1.10794
 C564 C 1.06942 1.06919 1.16237
 C565 C 0.94524 0.87716 1.05497
 H566 H 0.95042 0.89253 1.04980
 C567 C 0.93123 0.83774 1.06896
 C568 C 1.05517 1.12317 1.05491
 H569 H 1.04993 1.10784 1.04972
 C570 C 1.06938 1.16250 1.06894
 C571 C 0.87712 0.94556 1.05499
 H572 H 0.89248 0.95071 1.04981
 C573 C 0.83771 0.93161 1.06902
 C574 C 1.12341 1.05472 1.05502
 H575 H 1.10808 1.04951 1.04982
 C576 C 1.16274 1.06883 1.06910
 O577 O 1.07576 0.52003 0.60451
 O578 O 1.10009 0.51998 0.62913
 C579 C 1.08304 0.52716 0.62164
 C580 C 1.07180 0.54430 0.63264
 C581 C 1.07858 0.55127 0.65241
 H582 H 1.09159 0.54344 0.66007
 O583 O 0.92408 0.47913 0.60434
 O584 O 0.89965 0.47913 0.62885
 C585 C 0.91671 0.47195 0.62142
 C586 C 0.92788 0.45474 0.63240
 C587 C 0.92092 0.44754 0.65205
 H588 H 0.90749 0.45491 0.65943
 O589 O 1.02056 0.60434 0.57583
 O590 O 1.02058 0.62889 0.60023
 C591 C 1.02775 0.62143 0.58318
 C592 C 1.04495 0.63242 0.57201
 C593 C 1.05216 0.65209 0.57893
 H594 H 1.04482 0.65950 0.59235
 O595 O 0.97929 0.39498 0.57543
 O596 O 0.97925 0.37035 0.59978
 C597 C 0.97210 0.37785 0.58273
 C598 C 0.95493 0.36688 0.57151
 C599 C 0.94772 0.34719 0.57841
 H600 H 0.95505 0.33976 0.59183
 O601 O 1.10469 0.57540 0.52059
 O602 O 1.12927 0.59980 0.52064
 C603 C 1.12179 0.58273 0.52777
 C604 C 1.13277 0.57153 0.54495
 C605 C 1.15243 0.57848 0.55211
 H606 H 1.16005 0.59158 0.54438
 O607 O 0.89518 0.42396 0.52014
 O608 O 0.87059 0.39957 0.52010
 C609 C 0.87807 0.41662 0.52729
 C610 C 0.86709 0.42781 0.54448
 C611 C 0.84744 0.42085 0.55173
 H612 H 0.84003 0.40741 0.54441
 O613 O 0.97952 0.57557 0.60445
 O614 O 0.97946 0.59997 0.62900
 C615 C 0.97233 0.58289 0.62153
 C616 C 0.95518 0.57163 0.63251
 C617 C 0.94804 0.57846 0.65221
 H618 H 0.95540 0.59188 0.65964
 O619 O 1.02024 0.42372 0.60420
 O620 O 1.02024 0.39923 0.62869
 C621 C 1.02739 0.41634 0.62128
 C622 C 1.04453 0.42753 0.63234
 C623 C 1.05150 0.42064 0.65208
 H624 H 1.04369 0.40758 0.65968
 O625 O 1.10464 0.47909 0.57586
 O626 O 1.12912 0.47900 0.60033
 C627 C 1.12172 0.47190 0.58323
 C628 C 1.13277 0.45477 0.57201
 C629 C 1.15244 0.44758 0.57894
 H630 H 1.15980 0.45489 0.59241
 O631 O 0.89543 0.52017 0.57559
 O632 O 0.87083 0.52022 0.59994
 C633 C 0.87831 0.52736 0.58289
 C634 C 0.86732 0.54451 0.57164
 C635 C 0.84759 0.55164 0.57845
 H636 H 0.84015 0.54428 0.59185
 O637 O 0.92435 0.60431 0.52034
 O638 O 0.89993 0.62888 0.52031
 C639 C 0.91700 0.62142 0.52748
 C640 C 0.92818 0.63244 0.54464
 C641 C 0.92130 0.65219 0.55167
 H642 H 0.90825 0.65983 0.54388
 O643 O 1.07585 0.39524 0.52041
 O644 O 1.10026 0.37065 0.52042
 C645 C 1.08317 0.37810 0.52755
 C646 C 1.07192 0.36702 0.54463
 C647 C 1.07883 0.34730 0.55171
 H648 H 1.09196 0.33971 0.54400
 O649 O 0.92420 0.52013 0.60430
 O650 O 0.89975 0.52017 0.62879
 C651 C 0.91685 0.52731 0.62137
 C652 C 0.92804 0.54445 0.63240
 C653 C 0.92115 0.55149 0.65211
 H654 H 0.90808 0.54370 0.65972
 O655 O 1.07574 0.47904 0.60445
 O656 O 1.10007 0.47895 0.62907
 C657 C 1.08300 0.47182 0.62155
 C658 C 1.07171 0.45467 0.63250
 C659 C 1.07847 0.44754 0.65223
 H660 H 1.09186 0.45490 0.65970
 O661 O 1.02027 0.39495 0.57549
 O662 O 1.02027 0.37032 0.59984
 C663 C 1.02745 0.37782 0.58281
 C664 C 1.04464 0.36685 0.57162
 C665 C 1.05179 0.34713 0.57849
 H666 H 1.04438 0.33967 0.59185
 O667 O 0.97960 0.60435 0.57572
 O668 O 0.97954 0.62891 0.60012
 C669 C 0.97242 0.62147 0.58304
 C670 C 0.95530 0.63250 0.57179
 C671 C 0.94819 0.65225 0.57861
 H672 H 0.95555 0.65967 0.59201
 O673 O 0.89560 0.57553 0.52025
 O674 O 0.87105 0.59997 0.52023
 C675 C 0.87848 0.58287 0.52738
 C676 C 0.86743 0.57166 0.54450
 C677 C 0.84769 0.57856 0.55151
 H678 H 0.84008 0.59163 0.54373
 O679 O 1.10469 0.42394 0.52046
 O680 O 1.12922 0.39948 0.52047
 C681 C 1.12178 0.41655 0.52763
 C682 C 1.13278 0.42770 0.54482
 C683 C 1.15245 0.42074 0.55196
 H684 H 1.16008 0.40766 0.54421
 O685 O 0.97928 0.42366 0.60424
 O686 O 0.97923 0.39917 0.62872
 C687 C 0.97210 0.41628 0.62131
 C688 C 0.95494 0.42748 0.63232
 C689 C 0.94777 0.42052 0.65197
 H690 H 0.95546 0.40737 0.65956
 O691 O 1.02047 0.57551 0.60450
 O692 O 1.02047 0.59990 0.62906
 C693 C 1.02761 0.58281 0.62162
 C694 C 1.04469 0.57150 0.63266
 C695 C 1.05171 0.57826 0.65243
 H696 H 1.04431 0.59167 0.65985
 O697 O 0.89542 0.47920 0.57552
 O698 O 0.87085 0.47920 0.59991
 C699 C 0.87830 0.47205 0.58285
 C700 C 0.86725 0.45490 0.57166
 C701 C 0.84761 0.44775 0.57866
 H702 H 0.84005 0.45546 0.59179
 O703 O 1.10463 0.52006 0.57591
 O704 O 1.12911 0.52004 0.60037
 C705 C 1.12172 0.52722 0.58329
 C706 C 1.13276 0.54439 0.57211
 C707 C 1.15242 0.55159 0.57907
 H708 H 1.15978 0.54426 0.59253
 O709 O 0.92395 0.39520 0.52014
 O710 O 0.89950 0.37067 0.52009
 C711 C 0.91658 0.37808 0.52727
 C712 C 0.92775 0.36702 0.54441
 C713 C 0.92078 0.34733 0.55152
 H714 H 0.90766 0.33975 0.54380
 O715 O 1.07595 0.60419 0.52060
 O716 O 1.10041 0.62872 0.52065
 C717 C 1.08331 0.62129 0.52777
 C718 C 1.07213 0.63231 0.54492
 C719 C 1.07911 0.65199 0.55205
 H720 H 1.09223 0.65958 0.54433
 Cu721 Cu 1.08776 0.49956 0.58773
 Cu722 Cu 1.11705 0.49949 0.61720
 Cu723 Cu 0.91224 0.49966 0.58750
 Cu724 Cu 0.88281 0.49969 0.61683
 Cu725 Cu 1.00004 0.58750 0.58768
 Cu726 Cu 1.00001 0.61688 0.61706
 Cu727 Cu 0.99977 0.41177 0.58739
 Cu728 Cu 0.99975 0.38230 0.61671
 C729 C 1.05472 0.55439 0.62299
 H730 H 1.04958 0.54927 0.60762
 C731 C 1.06864 0.56823 0.66243
 C732 C 0.94501 0.44473 0.62278
 H733 H 0.95028 0.45000 0.60750
 C734 C 0.93078 0.43045 0.66196
 C735 C 1.05492 0.62277 0.55487
 H736 H 1.04963 0.60747 0.54963
 C737 C 1.06924 0.66200 0.56905
 C738 C 0.94496 0.37656 0.55438
 H739 H 0.95024 0.39187 0.54916
 C740 C 0.93066 0.33729 0.56851
 C741 C 1.12317 0.55435 0.55493
 H742 H 1.10788 0.54908 0.54966
 C743 C 1.16238 0.56863 0.56916
 C744 C 0.87676 0.44496 0.55444
 H745 H 0.89204 0.45022 0.54914
 C746 C 0.83758 0.43072 0.56882
 C747 C 0.94519 0.55450 0.62283
 H748 H 0.95042 0.54933 0.60751
 C749 C 0.93104 0.56848 0.66214
 C750 C 1.05460 0.44468 0.62278
 H751 H 1.04948 0.44990 0.60743
 C752 C 1.06846 0.43054 0.66215
 C753 C 1.12317 0.44485 0.55482
 H754 H 1.10787 0.45012 0.54958
 C755 C 1.16242 0.43057 0.56901
 C756 C 0.87701 0.55451 0.55453
 H757 H 0.89235 0.54928 0.54937
 C758 C 0.83764 0.56865 0.56848
 C759 C 0.94531 0.62283 0.55467
 H760 H 0.95052 0.60748 0.54951
 C761 C 0.93120 0.66222 0.56864
 C762 C 1.05470 0.37657 0.55457
 H763 H 1.04947 0.39191 0.54937
 C764 C 1.06886 0.33722 0.56862
 O765 O 1.07595 0.47933 0.39530
 O766 O 1.10041 0.47930 0.37081
 C767 C 1.08332 0.47214 0.37824
 C768 C 1.07212 0.45496 0.36725
 C769 C 1.07904 0.44780 0.34759
 H770 H 1.09247 0.45517 0.34020
 O771 O 0.92463 0.52033 0.39516
 O772 O 0.90026 0.52044 0.37058
 C773 C 0.91734 0.52755 0.37806
 C774 C 0.92861 0.54470 0.36710
 C775 C 0.92186 0.55179 0.34735
 H776 H 0.90849 0.54438 0.33987
 O777 O 0.97986 0.60451 0.42418
 O778 O 0.97986 0.62915 0.39984
 C779 C 0.97270 0.62164 0.41688
 C780 C 0.95555 0.63264 0.42810
 C781 C 0.94845 0.65240 0.42127
 H782 H 0.95584 0.65985 0.40789
 O783 O 1.02056 0.39513 0.42415
 O784 O 1.02063 0.37053 0.39980
 C785 C 1.02774 0.37801 0.41687
 C786 C 1.04487 0.36700 0.42812
 C787 C 1.05202 0.34728 0.42128
 H788 H 1.04467 0.33984 0.40788
 O789 O 1.10466 0.42404 0.47952
 O790 O 1.12920 0.39958 0.47950
 C791 C 1.12176 0.41668 0.47235
 C792 C 1.13278 0.42787 0.45519
 C793 C 1.15249 0.42096 0.44813
 H794 H 1.16012 0.40789 0.45589
 O795 O 0.89568 0.57559 0.47932
 O796 O 0.87111 0.60002 0.47927
 C797 C 0.87858 0.58294 0.47213
 C798 C 0.86761 0.57173 0.45496
 C799 C 0.84787 0.57857 0.44787
 H800 H 0.84041 0.59195 0.45527
 O801 O 1.02088 0.57581 0.39546
 O802 O 1.02093 0.60032 0.37099
 C803 C 1.02806 0.58321 0.37840
 C804 C 1.04522 0.57202 0.36737
 C805 C 1.05237 0.57903 0.34774
 H806 H 1.04466 0.59219 0.34018
 O807 O 0.97971 0.42391 0.39528
 O808 O 0.97972 0.39945 0.37079
 C809 C 0.97258 0.41656 0.37818
 C810 C 0.95547 0.42779 0.36712
 C811 C 0.94840 0.42090 0.34742
 H812 H 0.95614 0.40779 0.33984
 O813 O 1.10467 0.52027 0.42410
 O814 O 1.12928 0.52030 0.39976
 C815 C 1.12180 0.52743 0.41682
 C816 C 1.13282 0.54454 0.42810
 C817 C 1.15252 0.55171 0.42124
 H818 H 1.15992 0.54440 0.40779
 O819 O 0.89576 0.47936 0.42381
 O820 O 0.87125 0.47944 0.39937
 C821 C 0.87864 0.47225 0.41645
 C822 C 0.86753 0.45513 0.42762
 C823 C 0.84783 0.44809 0.42067
 H824 H 0.84028 0.45586 0.40755
 O825 O 1.07601 0.60430 0.47967
 O826 O 1.10047 0.62883 0.47970
 C827 C 1.08338 0.62142 0.47255
 C828 C 1.07220 0.63250 0.45542
 C829 C 1.07908 0.65226 0.44842
 H830 H 1.09214 0.65988 0.45622
 O831 O 0.92403 0.39527 0.47923
 O832 O 0.89958 0.37074 0.47912
 C833 C 0.91669 0.37818 0.47203
 C834 C 0.92793 0.36716 0.45491
 C835 C 0.92102 0.34746 0.44779
 H836 H 0.90789 0.33985 0.45547
 O837 O 0.92453 0.47934 0.39510
 O838 O 0.90016 0.47941 0.37052
 C839 C 0.91720 0.47221 0.37799
 C840 C 0.92840 0.45503 0.36700
 C841 C 0.92154 0.44791 0.34730
 H842 H 0.90815 0.45531 0.33988
 O843 O 1.07606 0.52034 0.39524
 O844 O 1.10052 0.52037 0.37075
 C845 C 1.08344 0.52754 0.37818
 C846 C 1.07228 0.54477 0.36721
 C847 C 1.07923 0.55202 0.34758
 H848 H 1.09266 0.54467 0.34017
 O849 O 0.97958 0.39518 0.42406
 O850 O 0.97960 0.37058 0.39971
 C851 C 0.97241 0.37806 0.41674
 C852 C 0.95520 0.36708 0.42790
 C853 C 0.94805 0.34737 0.42100
 H854 H 0.95545 0.33996 0.40761
 O855 O 1.02082 0.60449 0.42427
 O856 O 1.02086 0.62914 0.39994
 C857 C 1.02798 0.62163 0.41699
 C858 C 1.04509 0.63263 0.42827
 C859 C 1.05221 0.65239 0.42148
 H860 H 1.04485 0.65984 0.40808
 O861 O 0.89530 0.42407 0.47921
 O862 O 0.87070 0.39968 0.47910
 C863 C 0.87820 0.41676 0.47199
 C864 C 0.86728 0.42802 0.45481
 C865 C 0.84757 0.42119 0.44761
 H866 H 0.84009 0.40779 0.45496
 O867 O 1.10468 0.57543 0.47964
 O868 O 1.12926 0.59983 0.47966
 C869 C 1.12179 0.58277 0.47249
 C870 C 1.13279 0.57160 0.45531
 C871 C 1.15250 0.57852 0.44824
 H872 H 1.16013 0.59158 0.45603
 O873 O 1.02066 0.42389 0.39540
 O874 O 1.02072 0.39943 0.37091
 C875 C 1.02786 0.41653 0.37833
 C876 C 1.04503 0.42774 0.36733
 C877 C 1.05216 0.42081 0.34766
 H878 H 1.04445 0.40769 0.34007
 O879 O 0.97993 0.57576 0.39544
 O880 O 0.97993 0.60025 0.37096
 C881 C 0.97280 0.58313 0.37835
 C882 C 0.95571 0.57190 0.36727
 C883 C 0.94875 0.57876 0.34752
 H884 H 0.95654 0.59184 0.33992
 O885 O 0.89586 0.52033 0.42388
 O886 O 0.87135 0.52045 0.39944
 C887 C 0.87878 0.52754 0.41653
 C888 C 0.86774 0.54467 0.42776
 C889 C 0.84800 0.55171 0.42090
 H890 H 0.84039 0.54396 0.40783
 O891 O 1.10469 0.47931 0.42404
 O892 O 1.12930 0.47928 0.39971
 C893 C 1.12181 0.47213 0.41676
 C894 C 1.13282 0.45499 0.42802
 C895 C 1.15253 0.44785 0.42117
 H896 H 1.15993 0.45520 0.40774
 O897 O 1.07590 0.39527 0.47950
 O898 O 1.10031 0.37068 0.47949
 C899 C 1.08323 0.37814 0.47235
 C900 C 1.07202 0.36711 0.45523
 C901 C 1.07893 0.34738 0.44819
 H902 H 1.09202 0.33977 0.45594
 O903 O 0.92445 0.60435 0.47942
 O904 O 0.90002 0.62891 0.47936
 C905 C 0.91712 0.62147 0.47226
 C906 C 0.92836 0.63253 0.45516
 C907 C 0.92149 0.65229 0.44813
 H908 H 0.90841 0.65991 0.45588
 Cu909 Cu 1.08788 0.49981 0.41210
 Cu910 Cu 1.11734 0.49981 0.38280
 Cu911 Cu 0.91264 0.49983 0.41193
 Cu912 Cu 0.88329 0.49995 0.38251
 Cu913 Cu 1.08788 0.58738 0.50012
 Cu914 Cu 1.11732 0.61675 0.50016
 Cu915 Cu 1.08784 0.41208 0.49998
 Cu916 Cu 1.11721 0.38264 0.49997
 Cu917 Cu 0.91247 0.58749 0.49984
 Cu918 Cu 0.88306 0.61691 0.49979
 Cu919 Cu 0.91206 0.41208 0.49969
 Cu920 Cu 0.88263 0.38271 0.49959
 Cu921 Cu 1.00037 0.58769 0.41228
 Cu922 Cu 1.00040 0.61719 0.38298
 Cu923 Cu 1.00012 0.41197 0.41217
 Cu924 Cu 1.00017 0.38253 0.38285
 C925 C 1.05499 0.44494 0.37689
 H926 H 1.04975 0.45019 0.39218
 C927 C 1.06915 0.43074 0.33766
 C928 C 0.94567 0.55474 0.37683
 H929 H 0.95078 0.54955 0.39219
 C930 C 0.93184 0.56880 0.33742
 C931 C 0.94552 0.62294 0.44517
 H932 H 0.95072 0.60758 0.45034
 C933 C 0.93144 0.66235 0.43120
 C934 C 1.05486 0.37669 0.44523
 H935 H 1.04963 0.39203 0.45040
 C936 C 1.06904 0.33734 0.43122
 C937 C 1.12317 0.44502 0.44516
 H938 H 1.10784 0.45025 0.45035
 C939 C 1.16250 0.43085 0.43113
 C940 C 0.87731 0.55465 0.44492
 H941 H 0.89266 0.54947 0.45012
 C942 C 0.83794 0.56865 0.43085
 C943 C 1.05514 0.55476 0.37687
 H944 H 1.04988 0.54945 0.39214
 C945 C 1.06937 0.56914 0.33772
 C946 C 0.94550 0.44499 0.37668
 H947 H 0.95068 0.45021 0.39199
 C948 C 0.93145 0.43086 0.33738
 C949 C 1.12318 0.55448 0.44526
 H950 H 1.10785 0.54924 0.45045
 C951 C 1.16249 0.56868 0.43122
 C952 C 0.87702 0.44512 0.44483
 H953 H 0.89235 0.45029 0.45010
 C954 C 0.83772 0.43113 0.43055
 C955 C 1.05507 0.62292 0.44538
 H956 H 1.04986 0.60756 0.45051
 C957 C 1.06918 0.66234 0.43147
 C958 C 0.94515 0.37674 0.44499
 H959 H 0.95039 0.39206 0.45022
 C960 C 0.93098 0.33743 0.43084
 O961 O 0.47992 0.92451 0.39554
 O962 O 0.47998 0.90005 0.37104
 C963 C 0.47282 0.91715 0.37843
 C964 C 0.45572 0.92835 0.36734
 C965 C 0.44870 0.92140 0.34764
 H966 H 0.45649 0.90829 0.34009
 O967 O 0.52106 1.07618 0.39540
 O968 O 0.52115 1.10066 0.37090
 C969 C 0.52827 1.08356 0.37834
 C970 C 0.54545 1.07237 0.36735
 C971 C 0.55258 1.07931 0.34769
 H972 H 0.54483 1.09241 0.34008
 O973 O 0.39581 0.97997 0.42383
 O974 O 0.37135 0.97996 0.39934
 C975 C 0.37871 0.97283 0.41645
 C976 C 0.36760 0.95573 0.42766
 C977 C 0.34786 0.94874 0.42075
 H978 H 0.34030 0.95651 0.40766
 O979 O 0.60504 1.02082 0.42427
 O980 O 0.62965 1.02082 0.39993
 C981 C 0.62217 1.02797 0.41698
 C982 C 0.63319 1.04509 0.42825
 C983 C 0.65291 1.05224 0.42141
 H984 H 0.66032 1.04492 0.40797
 O985 O 0.42406 0.89582 0.47930
 O986 O 0.39961 0.87129 0.47917
 C987 C 0.41672 0.87872 0.47210
 C988 C 0.42801 0.86770 0.45501
 C989 C 0.42109 0.84803 0.44777
 H990 H 0.40758 0.84065 0.45501
 O991 O 0.57621 1.10477 0.47961
 O992 O 0.60064 1.12933 0.47965
 C993 C 0.58358 1.12188 0.47247
 C994 C 0.57242 1.13292 0.45530
 C995 C 0.57935 1.15265 0.44823
 H996 H 0.59243 1.16026 0.45599
 O997 O 0.42471 1.02088 0.39513
 O998 O 0.40040 1.02090 0.37049
 C999 C 0.41746 1.02804 0.37800
 C1000 C 0.42874 1.04517 0.36701
 C1001 C 0.42194 1.05228 0.34728
 H1002 H 0.40854 1.04490 0.33985
 O1003 O 0.57628 0.97988 0.39555
 O1004 O 0.60073 0.97979 0.37104
 C1005 C 0.58363 0.97268 0.37848
 C1006 C 0.57238 0.95553 0.36751
 C1007 C 0.57919 0.94841 0.34779
 H1008 H 0.59259 0.95579 0.34035
 O1009 O 0.52074 0.89569 0.42442
 O1010 O 0.52083 0.87110 0.40006
 C1011 C 0.52792 0.87856 0.41713
 C1012 C 0.54502 0.86754 0.42840
 C1013 C 0.55210 0.84777 0.42162
 H1014 H 0.54471 0.84031 0.40825
 O1015 O 0.48002 1.10492 0.42406
 O1016 O 0.48008 1.12952 0.39968
 C1017 C 0.47288 1.12205 0.41671
 C1018 C 0.45569 1.13307 0.42785
 C1019 C 0.44862 1.15279 0.42093
 H1020 H 0.45642 1.16042 0.40788
 O1021 O 0.39558 1.07626 0.47900
 O1022 O 0.37105 1.10073 0.47891
 C1023 C 0.37851 1.08364 0.47178
 C1024 C 0.36756 1.07245 0.45458
 C1025 C 0.34790 1.07939 0.44732
 H1026 H 0.34048 1.09284 0.45464
 O1027 O 0.60483 0.92461 0.47970
 O1028 O 0.62937 0.90015 0.47977
 C1029 C 0.62194 0.91724 0.47259
 C1030 C 0.63301 0.92841 0.45544
 C1031 C 0.65274 0.92148 0.44842
 H1032 H 0.66034 0.90841 0.45621
 O1033 O 0.48010 1.07619 0.39530
 O1034 O 0.48015 1.10066 0.37079
 C1035 C 0.47298 1.08356 0.37819
 C1036 C 0.45587 1.07235 0.36713
 C1037 C 0.44885 1.07923 0.34740
 H1038 H 0.45662 1.09232 0.33979
 O1039 O 0.52087 0.92452 0.39572
 O1040 O 0.52095 0.90005 0.37123
 C1041 C 0.52808 0.91716 0.37865
 C1042 C 0.54523 0.92836 0.36764
 C1043 C 0.55225 0.92149 0.34792
 H1044 H 0.54446 0.90842 0.34031
 O1045 O 0.60503 0.97986 0.42426
 O1046 O 0.62964 0.97978 0.39992
 C1047 C 0.62215 0.97266 0.41698
 C1048 C 0.63313 0.95552 0.42826
 C1049 C 0.65285 0.94836 0.42145
 H1050 H 0.66028 0.95570 0.40803
 O1051 O 0.39584 1.02095 0.42373
 O1052 O 0.37139 1.02098 0.39923
 C1053 C 0.37877 1.02814 0.41631
 C1054 C 0.36773 1.04533 0.42743
 C1055 C 0.34808 1.05246 0.42042
 H1056 H 0.34052 1.04472 0.40731
 O1057 O 0.42443 1.10495 0.47912
 O1058 O 0.40005 1.12956 0.47904
 C1059 C 0.41714 1.12208 0.47195
 C1060 C 0.42844 1.13311 0.45487
 C1061 C 0.42158 1.15283 0.44771
 H1062 H 0.40812 1.16024 0.45501
 O1063 O 0.57604 0.89586 0.47969
 O1064 O 0.60045 0.87127 0.47976
 C1065 C 0.58339 0.87872 0.47259
 C1066 C 0.57218 0.86765 0.45549
 C1067 C 0.57903 0.84787 0.44851
 H1068 H 0.59209 0.84025 0.45630
 O1069 O 0.57641 1.02086 0.39542
 O1070 O 0.60087 1.02085 0.37093
 C1071 C 0.58379 1.02802 0.37834
 C1072 C 0.57259 1.04520 0.36732
 C1073 C 0.57952 1.05238 0.34765
 H1074 H 0.59296 1.04502 0.34027
 O1075 O 0.42461 0.97989 0.39514
 O1076 O 0.40029 0.97986 0.37051
 C1077 C 0.41733 0.97270 0.37803
 C1078 C 0.42859 0.95552 0.36711
 C1079 C 0.42177 0.94833 0.34741
 H1080 H 0.40837 0.95568 0.33994
 O1081 O 0.52099 1.10490 0.42417
 O1082 O 0.52109 1.12951 0.39981
 C1083 C 0.52819 1.12202 0.41688
 C1084 C 0.54531 1.13302 0.42814
 C1085 C 0.55248 1.15273 0.42128
 H1086 H 0.54515 1.16016 0.40786
 O1087 O 0.47976 0.89581 0.42434
 O1088 O 0.47982 0.87122 0.39997
 C1089 C 0.47260 0.87870 0.41698
 C1090 C 0.45534 0.86772 0.42806
 C1091 C 0.44822 0.84805 0.42108
 H1092 H 0.45603 0.84043 0.40805
 O1093 O 0.60497 1.07599 0.47971
 O1094 O 0.62953 1.10042 0.47975
 C1095 C 0.62209 1.08334 0.47259
 C1096 C 0.63313 1.07216 0.45544
 C1097 C 0.65285 1.07908 0.44840
 H1098 H 0.66047 1.09214 0.45618
 O1099 O 0.39538 0.92467 0.47924
 O1100 O 0.37077 0.90029 0.47914
 C1101 C 0.37828 0.91737 0.47203
 C1102 C 0.36735 0.92864 0.45486
 C1103 C 0.34762 0.92185 0.44772
 H1104 H 0.34012 0.90847 0.45509
 Cu1105 Cu 0.50033 0.91258 0.41245
 Cu1106 Cu 0.50040 0.88314 0.38312
 Cu1107 Cu 0.50053 1.08810 0.41217
 Cu1108 Cu 0.50062 1.11756 0.38284
 Cu1109 Cu 0.41269 1.00042 0.41191
 Cu1110 Cu 0.38340 1.00042 0.38242
 Cu1111 Cu 0.58824 1.00037 0.41231
 Cu1112 Cu 0.61769 1.00030 0.38300
 C1113 C 0.44569 0.94554 0.37684
 H1114 H 0.45084 0.95080 0.39215
 C1115 C 0.43174 0.93128 0.33756
 C1116 C 0.55543 1.05518 0.37693
 H1117 H 0.55019 1.04993 0.39223
 C1118 C 0.56960 1.06942 0.33771
 C1119 C 0.37711 0.94571 0.44484
 H1120 H 0.39246 0.95085 0.45007
 C1121 C 0.33774 0.93181 0.43068
 C1122 C 0.62354 1.05503 0.44539
 H1123 H 0.60820 1.04980 0.45057
 C1124 C 0.66287 1.06922 0.43139
 C1125 C 0.44526 0.87731 0.44516
 H1126 H 0.45050 0.89261 0.45045
 C1127 C 0.43110 0.83808 0.43082
 C1128 C 0.55527 1.12334 0.44528
 H1129 H 0.55002 1.10801 0.45047
 C1130 C 0.56948 1.16268 0.43124
 C1131 C 0.44583 1.05519 0.37670
 H1132 H 0.45098 1.04997 0.39204
 C1133 C 0.43191 1.06929 0.33734
 C1134 C 0.55527 0.94551 0.37720
 H1135 H 0.55011 0.95072 0.39254
 C1136 C 0.56921 0.93141 0.33787
 C1137 C 0.55505 0.87725 0.44546
 H1138 H 0.54986 0.89262 0.45059
 C1139 C 0.56909 0.83780 0.43160
 C1140 C 0.44562 1.12346 0.44496
 H1141 H 0.45081 1.10813 0.45020
 C1142 C 0.43158 1.16280 0.43075
 C1143 C 0.37723 1.05530 0.44464
 H1144 H 0.39252 1.05004 0.44996
 C1145 C 0.33804 1.06949 0.43025
 C1146 C 0.62344 0.94556 0.44539
 H1147 H 0.60810 0.95080 0.45054
 C1148 C 0.66279 0.93136 0.43144
 O1149 O 0.52021 0.92439 0.60432
 O1150 O 0.52017 0.89993 0.62884
 C1151 C 0.52734 0.91703 0.62143
 C1152 C 0.54445 0.92824 0.63251
 C1153 C 0.55143 0.92135 0.65224
 H1154 H 0.54364 0.90826 0.65983
 O1155 O 0.47951 1.07619 0.60428
 O1156 O 0.47941 1.10067 0.62876
 C1157 C 0.47228 1.08357 0.62133
 C1158 C 0.45508 1.07240 0.63230
 C1159 C 0.44794 1.07935 0.65195
 H1160 H 0.45569 1.09244 0.65956
 O1161 O 0.39538 1.02090 0.57542
 O1162 O 0.37077 1.02098 0.59975
 C1163 C 0.37826 1.02809 0.58269
 C1164 C 0.36727 1.04522 0.57139
 C1165 C 0.34752 1.05234 0.57817
 H1166 H 0.34008 1.04500 0.59158
 O1167 O 0.60453 0.97985 0.57611
 O1168 O 0.62901 0.97975 0.60058
 C1169 C 0.62162 0.97266 0.58347
 C1170 C 0.63269 0.95556 0.57223
 C1171 C 0.65242 0.94847 0.57908
 H1172 H 0.65981 0.95581 0.59251
 O1173 O 0.57593 0.89589 0.52059
 O1174 O 0.60035 0.87131 0.52069
 C1175 C 0.58324 0.87876 0.52777
 C1176 C 0.57196 0.86770 0.54483
 C1177 C 0.57883 0.84796 0.55190
 H1178 H 0.59196 0.84036 0.54420
 O1179 O 0.42431 1.10491 0.52004
 O1180 O 0.39991 1.12950 0.52000
 C1181 C 0.41696 1.12202 0.52719
 C1182 C 0.42813 1.13302 0.54438
 C1183 C 0.42117 1.15272 0.55149
 H1184 H 0.40808 1.16033 0.54374
 O1185 O 0.42403 0.97992 0.60426
 O1186 O 0.39958 0.97994 0.62876
 C1187 C 0.41666 0.97275 0.62134
 C1188 C 0.42784 0.95556 0.63234
 C1189 C 0.42092 0.94841 0.65202
 H1190 H 0.40751 0.95580 0.65942
 O1191 O 0.57572 1.02082 0.60477
 O1192 O 0.60004 1.02078 0.62939
 C1193 C 0.58301 1.02798 0.62188
 C1194 C 0.57180 1.04518 0.63283
 C1195 C 0.57870 1.05238 0.65248
 H1196 H 0.59212 1.04502 0.65990
 O1197 O 0.47929 0.89561 0.57554
 O1198 O 0.47921 0.87101 0.59991
 C1199 C 0.47209 0.87849 0.58285
 C1200 C 0.45493 0.86750 0.57162
 C1201 C 0.44771 0.84781 0.57850
 H1202 H 0.45504 0.84037 0.59193
 O1203 O 0.52056 1.10494 0.57565
 O1204 O 0.52050 1.12956 0.59998
 C1205 C 0.52771 1.12207 0.58296
 C1206 C 0.54490 1.13306 0.57179
 C1207 C 0.55206 1.15276 0.57869
 H1208 H 0.54467 1.16018 0.59208
 O1209 O 0.39524 0.92458 0.52018
 O1210 O 0.37064 0.90019 0.52013
 C1211 C 0.37811 0.91725 0.52732
 C1212 C 0.36711 0.92845 0.54448
 C1213 C 0.34746 0.92148 0.55171
 H1214 H 0.34008 0.90802 0.54439
 O1215 O 0.60484 1.07600 0.52066
 O1216 O 0.62940 1.10043 0.52074
 C1217 C 0.62192 1.08336 0.52788
 C1218 C 0.63284 1.07219 0.54512
 C1219 C 0.65250 1.07911 0.55231
 H1220 H 0.66017 1.09219 0.54458
 O1221 O 0.52047 1.07624 0.60447
 O1222 O 0.52042 1.10073 0.62894
 C1223 C 0.52759 1.08362 0.62157
 C1224 C 0.54473 1.07243 0.63265
 C1225 C 0.55184 1.07940 0.65231
 H1226 H 0.54414 1.09255 0.65986
 O1227 O 0.47926 0.92442 0.60422
 O1228 O 0.47917 0.89996 0.62874
 C1229 C 0.47206 0.91707 0.62129
 C1230 C 0.45491 0.92830 0.63228
 C1231 C 0.44778 0.92140 0.65196
 H1232 H 0.45550 0.90828 0.65957
 O1233 O 0.60454 1.02081 0.57612
 O1234 O 0.62901 1.02078 0.60059
 C1235 C 0.62163 1.02795 0.58351
 C1236 C 0.63272 1.04509 0.57231
 C1237 C 0.65238 1.05225 0.57930
 H1238 H 0.65969 1.04492 0.59279
 O1239 O 0.39533 0.97992 0.57549
 O1240 O 0.37074 0.97994 0.59985
 C1241 C 0.37821 0.97276 0.58281
 C1242 C 0.36720 0.95558 0.57163
 C1243 C 0.34755 0.94840 0.57861
 H1244 H 0.33996 0.95612 0.59172
 O1245 O 0.57609 1.10478 0.52053
 O1246 O 0.60052 1.12934 0.52060
 C1247 C 0.58341 1.12190 0.52770
 C1248 C 0.57216 1.13295 0.54479
 C1249 C 0.57908 1.15265 0.55190
 H1250 H 0.59222 1.16024 0.54421
 O1251 O 0.42401 0.89583 0.52021
 O1252 O 0.39956 0.87129 0.52015
 C1253 C 0.41663 0.87871 0.52733
 C1254 C 0.42779 0.86765 0.54449
 C1255 C 0.42082 0.84795 0.55157
 H1256 H 0.40772 0.84037 0.54382
 O1257 O 0.57561 0.97982 0.60467
 O1258 O 0.59993 0.97972 0.62930
 C1259 C 0.58287 0.97260 0.62177
 C1260 C 0.57158 0.95543 0.63270
 C1261 C 0.57834 0.94830 0.65244
 H1262 H 0.59172 0.95567 0.65991
 O1263 O 0.42404 1.02091 0.60426
 O1264 O 0.39958 1.02099 0.62874
 C1265 C 0.41668 1.02811 0.62132
 C1266 C 0.42790 1.04527 0.63233
 C1267 C 0.42096 1.05246 0.65198
 H1268 H 0.40750 1.04513 0.65936
 O1269 O 0.47958 1.10495 0.57553
 O1270 O 0.47948 1.12956 0.59986
 C1271 C 0.47238 1.12207 0.58280
 C1272 C 0.45524 1.13307 0.57154
 C1273 C 0.44804 1.15277 0.57843
 H1274 H 0.45536 1.16016 0.59188
 O1275 O 0.52027 0.89563 0.57560
 O1276 O 0.52024 0.87103 0.59997
 C1277 C 0.52744 0.87852 0.58294
 C1278 C 0.54464 0.86753 0.57178
 C1279 C 0.55176 0.84779 0.57864
 H1280 H 0.54432 0.84033 0.59199
 O1281 O 0.60468 0.92467 0.52064
 O1282 O 0.62923 0.90022 0.52074
 C1283 C 0.62176 0.91731 0.52785
 C1284 C 0.63273 0.92850 0.54502
 C1285 C 0.65246 0.92164 0.55207
 H1286 H 0.66014 0.90862 0.54427
 O1287 O 0.39554 1.07615 0.51994
 O1288 O 0.37101 1.10061 0.51990
 C1289 C 0.37843 1.08351 0.52706
 C1290 C 0.36737 1.07232 0.54419
 C1291 C 0.34762 1.07920 0.55118
 H1292 H 0.34000 1.09226 0.54337
 Cu1293 Cu 0.49976 0.91245 0.58747
 Cu1294 Cu 0.49969 0.88302 0.61682
 Cu1295 Cu 0.50004 1.08813 0.58754
 Cu1296 Cu 0.49995 1.11760 0.61684
 Cu1297 Cu 0.41211 0.91267 0.49974
 Cu1298 Cu 0.38268 0.88331 0.49964
 Cu1299 Cu 0.58793 0.91271 0.50014
 Cu1300 Cu 0.61732 0.88328 0.50025
 Cu1301 Cu 0.41240 1.08811 0.49953
 Cu1302 Cu 0.38305 1.11756 0.49946
 Cu1303 Cu 0.58808 1.08793 0.50012
 Cu1304 Cu 0.61749 1.11734 0.50019
 Cu1305 Cu 0.41215 1.00042 0.58742
 Cu1306 Cu 0.38270 1.00047 0.61673
 Cu1307 Cu 0.58766 1.00033 0.58797
 Cu1308 Cu 0.61695 1.00024 0.61744
 C1309 C 0.55450 0.94542 0.62297
 H1310 H 0.54938 0.95065 0.60762
 C1311 C 0.56836 0.93128 0.66234
 C1312 C 0.44509 1.05523 0.62272
 H1313 H 0.45033 1.04996 0.60744
 C1314 C 0.43089 1.06949 0.66192
 C1315 C 0.37696 1.05519 0.55427
 H1316 H 0.39231 1.04997 0.54913
 C1317 C 0.33757 1.06932 0.56816
 C1318 C 0.62307 0.94559 0.55507
 H1319 H 0.60773 0.95079 0.54989
 C1320 C 0.66244 0.93152 0.56909
 C1321 C 0.55474 0.87725 0.55475
 H1322 H 0.54953 0.89260 0.54956
 C1323 C 0.56884 0.83788 0.56879
 C1324 C 0.44529 1.12343 0.55438
 H1325 H 0.45056 1.10812 0.54916
 C1326 C 0.43102 1.16271 0.56850
 C1327 C 0.44496 0.94552 0.62271
 H1328 H 0.45020 0.95075 0.60741
 C1329 C 0.43080 0.93134 0.66196
 C1330 C 0.55468 1.05518 0.62315
 H1331 H 0.54946 1.04990 0.60786
 C1332 C 0.56882 1.06948 0.66235
 C1333 C 0.44497 0.87719 0.55448
 H1334 H 0.45025 0.89251 0.54927
 C1335 C 0.43067 0.83790 0.56857
 C1336 C 0.55494 1.12339 0.55471
 H1337 H 0.54969 1.10807 0.54949
 C1338 C 0.56914 1.16268 0.56884
 C1339 C 0.37675 0.94562 0.55444
 H1340 H 0.39203 0.95090 0.54915
 C1341 C 0.33756 0.93136 0.56877
 C1342 C 0.62318 1.05504 0.55510
 H1343 H 0.60789 1.04980 0.54981
 C1344 C 0.66240 1.06924 0.56939
 O1345 O 0.47967 0.42378 0.89530
 O1346 O 0.47972 0.39935 0.87078
 C1347 C 0.47254 0.41644 0.87820
 C1348 C 0.45540 0.42766 0.86717
 C1349 C 0.44822 0.42072 0.84752
 H1350 H 0.45554 0.40725 0.84016
 O1351 O 0.52031 0.57576 0.89584
 O1352 O 0.52038 0.60023 0.87134
 C1353 C 0.52751 0.58312 0.87878
 C1354 C 0.54465 0.57191 0.86776
 C1355 C 0.55166 0.57877 0.84803
 H1356 H 0.54389 0.59185 0.84042
 O1357 O 0.39560 0.47916 0.92394
 O1358 O 0.37107 0.47916 0.89952
 C1359 C 0.37850 0.47200 0.91659
 C1360 C 0.36744 0.45486 0.92778
 C1361 C 0.34770 0.44785 0.92092
 H1362 H 0.34008 0.45565 0.90787
 O1363 O 0.60443 0.52024 0.92437
 O1364 O 0.62903 0.52041 0.90001
 C1365 C 0.62153 0.52748 0.91709
 C1366 C 0.63249 0.54461 0.92838
 C1367 C 0.65221 0.55179 0.92158
 H1368 H 0.65966 0.54447 0.90816
 O1369 O 0.42417 0.39499 0.97922
 O1370 O 0.39974 0.37044 0.97912
 C1371 C 0.41683 0.37790 0.97201
 C1372 C 0.42805 0.36690 0.95487
 C1373 C 0.42110 0.34723 0.94769
 H1374 H 0.40797 0.33962 0.95537
 O1375 O 0.57542 0.60429 0.97983
 O1376 O 0.59985 0.62885 0.97992
 C1377 C 0.58278 0.62143 0.97274
 C1378 C 0.57160 0.63253 0.95563
 C1379 C 0.57850 0.65229 0.94864
 H1380 H 0.59157 0.65988 0.95642
 O1381 O 0.42431 0.52021 0.89526
 O1382 O 0.39993 0.52024 0.87069
 C1383 C 0.41698 0.52741 0.87818
 C1384 C 0.42818 0.54461 0.86723
 C1385 C 0.42134 0.55177 0.84753
 H1386 H 0.40797 0.54436 0.84007
 O1387 O 0.57585 0.47926 0.89548
 O1388 O 0.60029 0.47938 0.87098
 C1389 C 0.58323 0.47215 0.87839
 C1390 C 0.57208 0.45496 0.86735
 C1391 C 0.57907 0.44782 0.84770
 H1392 H 0.59251 0.45521 0.84035
 O1393 O 0.52060 0.39508 0.92416
 O1394 O 0.52072 0.37050 0.89979
 C1395 C 0.52782 0.37798 0.91686
 C1396 C 0.54498 0.36701 0.92812
 C1397 C 0.55221 0.34733 0.92123
 H1398 H 0.54492 0.33992 0.90779
 O1399 O 0.47921 0.60448 0.92443
 O1400 O 0.47924 0.62910 0.90008
 C1401 C 0.47203 0.62160 0.91710
 C1402 C 0.45482 0.63256 0.92826
 C1403 C 0.44762 0.65225 0.92136
 H1404 H 0.45500 0.65970 0.90797
 O1405 O 0.39510 0.57536 0.97952
 O1406 O 0.37044 0.59968 0.97944
 C1407 C 0.37799 0.58263 0.97231
 C1408 C 0.36706 0.57137 0.95515
 C1409 C 0.34729 0.57811 0.94807
 H1410 H 0.33976 0.59145 0.95548
 O1411 O 0.60460 0.42402 0.97967
 O1412 O 0.62919 0.39963 0.97971
 C1413 C 0.62172 0.41670 0.97253
 C1414 C 0.63272 0.42788 0.95535
 C1415 C 0.65238 0.42091 0.94818
 H1416 H 0.66000 0.40780 0.95590
 O1417 O 0.47937 0.57578 0.89564
 O1418 O 0.47939 0.60026 0.87115
 C1419 C 0.47226 0.58314 0.87853
 C1420 C 0.45519 0.57190 0.86744
 C1421 C 0.44815 0.57882 0.84773
 H1422 H 0.45588 0.59196 0.84017
 O1423 O 0.52063 0.42381 0.89537
 O1424 O 0.52074 0.39937 0.87086
 C1425 C 0.52785 0.41647 0.87830
 C1426 C 0.54502 0.42771 0.86733
 C1427 C 0.55222 0.42080 0.84768
 H1428 H 0.54454 0.40767 0.84006
 O1429 O 0.60452 0.47927 0.92428
 O1430 O 0.62912 0.47937 0.89993
 C1431 C 0.62166 0.47216 0.91697
 C1432 C 0.63271 0.45500 0.92818
 C1433 C 0.65236 0.44780 0.92122
 H1434 H 0.65971 0.45511 0.90774
 O1435 O 0.39557 0.52013 0.92402
 O1436 O 0.37105 0.52015 0.89958
 C1437 C 0.37845 0.52727 0.91668
 C1438 C 0.36733 0.54434 0.92792
 C1439 C 0.34755 0.55128 0.92108
 H1440 H 0.33998 0.54350 0.90800
 O1441 O 0.42375 0.60423 0.97959
 O1442 O 0.39923 0.62870 0.97950
 C1443 C 0.41636 0.62132 0.97240
 C1444 C 0.42757 0.63239 0.95529
 C1445 C 0.42062 0.65209 0.94818
 H1446 H 0.40748 0.65966 0.95589
 O1447 O 0.57583 0.39526 0.97960
 O1448 O 0.60030 0.37073 0.97965
 C1449 C 0.58323 0.37816 0.97246
 C1450 C 0.57209 0.36712 0.95528
 C1451 C 0.57908 0.34744 0.94818
 H1452 H 0.59219 0.33986 0.95594
 O1453 O 0.57568 0.52026 0.89565
 O1454 O 0.60012 0.52043 0.87114
 C1455 C 0.58301 0.52752 0.87859
 C1456 C 0.57176 0.54469 0.86763
 C1457 C 0.57856 0.55180 0.84790
 H1458 H 0.59194 0.54441 0.84045
 O1459 O 0.42440 0.47920 0.89526
 O1460 O 0.40000 0.47919 0.87071
 C1461 C 0.41707 0.47203 0.87817
 C1462 C 0.42827 0.45485 0.86718
 C1463 C 0.42132 0.44770 0.84753
 H1464 H 0.40823 0.45544 0.83992
 O1465 O 0.52018 0.60457 0.92452
 O1466 O 0.52026 0.62919 0.90017
 C1467 C 0.52736 0.62170 0.91723
 C1468 C 0.54447 0.63270 0.92851
 C1469 C 0.55160 0.65245 0.92172
 H1470 H 0.54424 0.65992 0.90833
 O1471 O 0.47962 0.39499 0.92401
 O1472 O 0.47969 0.37041 0.89964
 C1473 C 0.47248 0.37787 0.91667
 C1474 C 0.45528 0.36685 0.92783
 C1475 C 0.44810 0.34718 0.92087
 H1476 H 0.45546 0.33980 0.90744
 O1477 O 0.60416 0.57549 0.97982
 O1478 O 0.62872 0.59992 0.97991
 C1479 C 0.62129 0.58285 0.97271
 C1480 C 0.63235 0.57170 0.95557
 C1481 C 0.65208 0.57864 0.94855
 H1482 H 0.65967 0.59170 0.95635
 O1483 O 0.39540 0.42376 0.97924
 O1484 O 0.37083 0.39935 0.97915
 C1485 C 0.37830 0.41645 0.97205
 C1486 C 0.36731 0.42772 0.95493
 C1487 C 0.34757 0.42091 0.94783
 H1488 H 0.34011 0.40752 0.95521
 Cu1489 Cu 0.50012 0.41186 0.91215
 Cu1490 Cu 0.50023 0.38244 0.88281
 Cu1491 Cu 0.49976 0.58770 0.91256
 Cu1492 Cu 0.49982 0.61717 0.88323
 Cu1493 Cu 0.41242 0.49968 0.91206
 Cu1494 Cu 0.38306 0.49969 0.88266
 Cu1495 Cu 0.58767 0.49974 0.91238
 Cu1496 Cu 0.61710 0.49991 0.88306
 C1497 C 0.44544 0.44485 0.87677
 H1498 H 0.45069 0.45011 0.89205
 C1499 C 0.43119 0.43064 0.83758
 C1500 C 0.55467 0.55473 0.87733
 H1501 H 0.54952 0.54952 0.89267
 C1502 C 0.56860 0.56882 0.83797
 C1503 C 0.37702 0.44482 0.94492
 H1504 H 0.39238 0.44997 0.95012
 C1505 C 0.33763 0.43090 0.93085
 C1506 C 0.62279 0.55455 0.94550
 H1507 H 0.60746 0.54930 0.95065
 C1508 C 0.66214 0.56878 0.93157
 C1509 C 0.44527 0.37648 0.94496
 H1510 H 0.45054 0.39177 0.95022
 C1511 C 0.43102 0.33724 0.93070
 C1512 C 0.55445 0.62297 0.94559
 H1513 H 0.54923 0.60761 0.95073
 C1514 C 0.56860 0.66238 0.93169
 C1515 C 0.44523 0.55467 0.87695
 H1516 H 0.45040 0.54942 0.89227
 C1517 C 0.43124 0.56886 0.83765
 C1518 C 0.55493 0.44492 0.87693
 H1519 H 0.54965 0.45016 0.89221
 C1520 C 0.56923 0.43075 0.83774
 C1521 C 0.55490 0.37667 0.94527
 H1522 H 0.54960 0.39198 0.95048
 C1523 C 0.56925 0.33742 0.93117
 C1524 C 0.44480 0.62286 0.94535
 H1525 H 0.45007 0.60754 0.95058
 C1526 C 0.43054 0.66215 0.93123
 C1527 C 0.37686 0.55435 0.94509
 H1528 H 0.39224 0.54926 0.95027
 C1529 C 0.33740 0.56815 0.93105
 C1530 C 0.62312 0.44506 0.94537
 H1531 H 0.60783 0.45033 0.95064
 C1532 C 0.66233 0.43076 0.93112
 O1533 O 0.52012 0.42354 1.10455
 O1534 O 0.52011 0.39902 1.12901
 C1535 C 0.52724 0.41615 1.12164
 C1536 C 0.54433 0.42737 1.13274
 C1537 C 0.55141 0.42040 1.15241
 H1538 H 0.54371 0.40724 1.15995
 O1539 O 0.47882 0.57554 1.10459
 O1540 O 0.47873 0.59996 1.12912
 C1541 C 0.47162 0.58286 1.12167
 C1542 C 0.45450 0.57158 1.13267
 C1543 C 0.44731 0.57846 1.15233
 H1544 H 0.45460 0.59194 1.15971
 O1545 O 0.39511 0.51992 1.07572
 O1546 O 0.37050 0.51983 1.10006
 C1547 C 0.37797 0.52704 1.08302
 C1548 C 0.36694 0.54421 1.07184
 C1549 C 0.34726 0.55132 1.07878
 H1550 H 0.33966 0.54357 1.09187
 O1551 O 0.60393 0.47918 1.07618
 O1552 O 0.62844 0.47918 1.10062
 C1553 C 0.62104 0.47204 1.08353
 C1554 C 0.63216 0.45496 1.07231
 C1555 C 0.65188 0.44794 1.07922
 H1556 H 0.65943 0.45568 1.09234
 O1557 O 0.57576 0.39518 1.02053
 O1558 O 0.60024 0.37067 1.02061
 C1559 C 0.58312 0.37807 1.02770
 C1560 C 0.57189 0.36699 1.04480
 C1561 C 0.57883 0.34728 1.05189
 H1562 H 0.59197 0.33970 1.04419
 O1563 O 0.42365 0.60422 1.02050
 O1564 O 0.39915 0.62871 1.02046
 C1565 C 0.41624 0.62131 1.02764
 C1566 C 0.42740 0.63237 1.04478
 C1567 C 0.42049 0.65211 1.05182
 H1568 H 0.40742 0.65972 1.04404
 O1569 O 0.42387 0.47893 1.10448
 O1570 O 0.39939 0.47881 1.12895
 C1571 C 0.41650 0.47170 1.12154
 C1572 C 0.42772 0.45453 1.13253
 C1573 C 0.42084 0.44739 1.15222
 H1574 H 0.40743 0.45478 1.15963
 O1575 O 0.57508 0.52009 1.10490
 O1576 O 0.59945 0.52014 1.12948
 C1577 C 0.58238 0.52728 1.12200
 C1578 C 0.57111 0.54443 1.13297
 C1579 C 0.57792 0.55154 1.15269
 H1580 H 0.59131 0.54415 1.16014
 O1581 O 0.47929 0.39479 1.07562
 O1582 O 0.47923 0.37014 1.09994
 C1583 C 0.47213 0.37764 1.08288
 C1584 C 0.45503 0.36663 1.07158
 C1585 C 0.44789 0.34689 1.07840
 H1586 H 0.45522 0.33945 1.09182
 O1587 O 0.51981 0.60431 1.07593
 O1588 O 0.51980 0.62889 1.10031
 C1589 C 0.52698 0.62143 1.08327
 C1590 C 0.54416 0.63242 1.07208
 C1591 C 0.55129 0.65215 1.07893
 H1592 H 0.54389 0.65959 1.09231
 O1593 O 0.39536 0.42369 1.02017
 O1594 O 0.37081 0.39925 1.02012
 C1595 C 0.37825 0.41632 1.02731
 C1596 C 0.36721 0.42748 1.04447
 C1597 C 0.34749 0.42055 1.05152
 H1598 H 0.33988 0.40748 1.04375
 O1599 O 0.60405 0.57538 1.02076
 O1600 O 0.62861 0.59981 1.02087
 C1601 C 0.62113 0.58272 1.02797
 C1602 C 0.63211 0.57150 1.04513
 C1603 C 0.65186 0.57833 1.05216
 H1604 H 0.65953 0.59136 1.04435
 O1605 O 0.51976 0.57553 1.10465
 O1606 O 0.51973 0.59996 1.12917
 C1607 C 0.52689 0.58287 1.12175
 C1608 C 0.54400 0.57163 1.13282
 C1609 C 0.55101 0.57851 1.15254
 H1610 H 0.54324 0.59159 1.16013
 O1611 O 0.47917 0.42351 1.10440
 O1612 O 0.47911 0.39900 1.12886
 C1613 C 0.47197 0.41611 1.12145
 C1614 C 0.45481 0.42731 1.13246
 C1615 C 0.44772 0.42041 1.15215
 H1616 H 0.45546 0.40730 1.15977
 O1617 O 0.60392 0.52013 1.07626
 O1618 O 0.62845 0.52019 1.10069
 C1619 C 0.62102 0.52731 1.08360
 C1620 C 0.63207 0.54442 1.07234
 C1621 C 0.65183 0.55149 1.07917
 H1622 H 0.65923 0.54413 1.09259
 O1623 O 0.39521 0.47893 1.07565
 O1624 O 0.37059 0.47881 1.09998
 C1625 C 0.37810 0.47171 1.08292
 C1626 C 0.36712 0.45458 1.07164
 C1627 C 0.34741 0.44742 1.07848
 H1628 H 0.33999 0.45475 1.09190
 O1629 O 0.57530 0.60418 1.02074
 O1630 O 0.59974 0.62873 1.02085
 C1631 C 0.58263 0.62128 1.02794
 C1632 C 0.57139 0.63231 1.04504
 C1633 C 0.57828 0.65204 1.05210
 H1634 H 0.59138 0.65965 1.04437
 O1635 O 0.42413 0.39492 1.02014
 O1636 O 0.39971 0.37035 1.02008
 C1637 C 0.41678 0.37779 1.02726
 C1638 C 0.42795 0.36673 1.04440
 C1639 C 0.42105 0.34699 1.05142
 H1640 H 0.40799 0.33937 1.04363
 O1641 O 0.57521 0.47909 1.10493
 O1642 O 0.59958 0.47909 1.12952
 C1643 C 0.58254 0.47190 1.12203
 C1644 C 0.57135 0.45466 1.13296
 C1645 C 0.57823 0.44746 1.15263
 H1646 H 0.59161 0.45485 1.16008
 O1647 O 0.42377 0.51994 1.10454
 O1648 O 0.39929 0.51986 1.12901
 C1649 C 0.41636 0.52708 1.12161
 C1650 C 0.42746 0.54430 1.13263
 C1651 C 0.42050 0.55139 1.15230
 H1652 H 0.40744 0.54359 1.15991
 O1653 O 0.47885 0.60433 1.07587
 O1654 O 0.47877 0.62890 1.10024
 C1655 C 0.47166 0.62144 1.08318
 C1656 C 0.45453 0.63246 1.07192
 C1657 C 0.44739 0.65219 1.07875
 H1658 H 0.45475 0.65962 1.09215
 O1659 O 0.52026 0.39489 1.07571
 O1660 O 0.52025 0.37024 1.10003
 C1661 C 0.52744 0.37777 1.08301
 C1662 C 0.54465 0.36682 1.07182
 C1663 C 0.55182 0.34711 1.07870
 H1664 H 0.54444 0.33966 1.09209
 O1665 O 0.60444 0.42403 1.02062
 O1666 O 0.62906 0.39966 1.02071
 C1667 C 0.62153 0.41672 1.02785
 C1668 C 0.63244 0.42794 1.04505
 C1669 C 0.65217 0.42112 1.05222
 H1670 H 0.65967 0.40776 1.04483
 O1671 O 0.39499 0.57535 1.02045
 O1672 O 0.37035 0.59970 1.02042
 C1673 C 0.37785 0.58264 1.02758
 C1674 C 0.36685 0.57138 1.04472
 C1675 C 0.34717 0.57829 1.05190
 H1676 H 0.33976 0.59174 1.04457
 Cu1677 Cu 0.49971 0.41164 1.08763
 Cu1678 Cu 0.49967 0.38213 1.11691
 Cu1679 Cu 0.49931 0.58748 1.08781
 Cu1680 Cu 0.49925 0.61690 1.11717
 Cu1681 Cu 0.41221 0.41179 0.99970
 Cu1682 Cu 0.38281 0.38238 0.99961
 Cu1683 Cu 0.58771 0.41207 1.00010
 Cu1684 Cu 0.61717 0.38272 1.00018
 Cu1685 Cu 0.41183 0.58735 1.00002
 Cu1686 Cu 0.38232 0.61665 0.99995
 Cu1687 Cu 0.58729 0.58738 1.00027
 Cu1688 Cu 0.61670 0.61678 1.00040
 Cu1689 Cu 0.41195 0.49944 1.08767
 Cu1690 Cu 0.38248 0.49931 1.11695
 Cu1691 Cu 0.58708 0.49962 1.08813
 Cu1692 Cu 0.61643 0.49965 1.11754
 C1693 C 0.55427 0.44463 1.12325
 H1694 H 0.54908 0.44991 1.10795
 C1695 C 0.56835 0.43034 1.16249
 C1696 C 0.44459 0.55438 1.12305
 H1697 H 0.44986 0.54917 1.10775
 C1698 C 0.43033 0.56845 1.16228
 C1699 C 0.37651 0.55421 1.05467
 H1700 H 0.39182 0.54899 1.04942
 C1701 C 0.33724 0.56835 1.06892
 C1702 C 0.62267 0.44499 1.05509
 H1703 H 0.60733 0.45014 1.04984
 C1704 C 0.66201 0.43103 1.06929
 C1705 C 0.55467 0.37653 1.05474
 H1706 H 0.54941 0.39186 1.04954
 C1707 C 0.56890 0.33721 1.06883
 C1708 C 0.44455 0.62278 1.05481
 H1709 H 0.44978 0.60744 1.04965
 C1710 C 0.43040 0.66215 1.06878
 C1711 C 0.44483 0.44451 1.12288
 H1712 H 0.45004 0.44974 1.10757
 C1713 C 0.43075 0.43035 1.16217
 C1714 C 0.55402 0.55446 1.12326
 H1715 H 0.54887 0.54925 1.10792
 C1716 C 0.56796 0.56856 1.16260
 C1717 C 0.44508 0.37632 1.05445
 H1718 H 0.45030 0.39167 1.04930
 C1719 C 0.43091 0.33694 1.06841
 C1720 C 0.55420 0.62274 1.05500
 H1721 H 0.54898 0.60739 1.04981
 C1722 C 0.56834 0.66209 1.06904
 C1723 C 0.37679 0.44463 1.05451
 H1724 H 0.39212 0.44988 1.04934
 C1725 C 0.33746 0.43043 1.06851
 C1726 C 0.62245 0.55441 1.05520
 H1727 H 0.60709 0.54924 1.05003
 C1728 C 0.66184 0.56843 1.06916
 C1729 C 1.11545 1.11487 1.27680
 C1730 C 1.13319 1.10569 1.28593
 C1731 C 1.14166 1.11401 1.30439
 C1732 C 1.13251 1.13176 1.31403
 C1733 C 1.11449 1.14071 1.30471
 C1734 C 1.10608 1.13232 1.28627
 C1735 C 1.10714 1.10667 1.25748
 C1736 C 1.10035 1.09993 1.24115
 C1737 C 1.09251 1.09202 1.22151
 C1738 C 1.10658 1.08599 1.20577
 C1739 C 1.09908 1.07853 1.18658
 C1740 C 1.07735 1.07699 1.18285
 C1741 C 1.06331 1.08308 1.19878
 C1742 C 1.07087 1.09054 1.21799
 H1743 H 1.14058 1.09217 1.27871
 H1744 H 1.15548 1.10656 1.31094
 H1745 H 1.10687 1.15431 1.31152
 H1746 H 1.09235 1.13956 1.27931
 H1747 H 1.12337 1.08717 1.20830
 H1748 H 1.11028 1.07426 1.17452
 H1749 H 1.04651 1.08187 1.19645
 H1750 H 1.05983 1.09516 1.23008
 C1751 C 1.11323 0.61341 0.77759
 C1752 C 1.13082 0.60410 0.78689
 C1753 C 1.13916 0.61238 0.80541
 C1754 C 1.13001 0.63014 0.81489
 C1755 C 1.11219 0.63926 0.80549
 C1756 C 1.10388 0.63094 0.78697
 C1757 C 1.10510 0.60528 0.75816
 C1758 C 1.09851 0.59858 0.74175
 C1759 C 1.09094 0.59070 0.72199
 C1760 C 1.10523 0.58481 0.70639
 C1761 C 1.09798 0.57743 0.68706
 C1762 C 1.07630 0.57584 0.68308
 C1763 C 1.06205 0.58176 0.69888
 C1764 C 1.06935 0.58914 0.71822
 H1765 H 1.13820 0.59054 0.77973
 H1766 H 1.15287 0.60495 0.81219
 H1767 H 1.10473 0.65292 0.81234
 H1768 H 1.09027 0.63829 0.77987
 H1769 H 1.12198 0.58605 0.70912
 H1770 H 1.10933 0.57329 0.67511
 H1771 H 1.04529 0.58050 0.69635
 H1772 H 1.05815 0.59364 0.73020
 C1773 C 0.61590 1.11500 0.77645
 C1774 C 0.63361 1.10580 0.78561
 C1775 C 0.64212 1.11419 0.80402
 C1776 C 0.63303 1.13201 0.81359
 C1777 C 0.61504 1.14098 0.80423
 C1778 C 0.60660 1.13253 0.78583
 C1779 C 0.60747 1.10672 0.75719
 C1780 C 0.60048 1.10003 0.74094
 C1781 C 0.59222 1.09231 0.72139
 C1782 C 0.59044 1.07067 0.71788
 C1783 C 0.58271 1.06322 0.69874
 C1784 C 0.57664 1.07734 0.68286
 C1785 C 0.57840 1.09906 0.68659
 C1786 C 0.58614 1.10647 0.70573
 H1787 H 0.64094 1.09222 0.77845
 H1788 H 0.65591 1.10672 0.81061
 H1789 H 0.60747 1.15463 0.81098
 H1790 H 0.59288 1.13979 0.77885
 H1791 H 0.59507 1.05957 0.72991
 H1792 H 0.58133 1.04642 0.69641
 H1793 H 0.57415 1.11032 0.67458
 H1794 H 0.58752 1.12325 0.70825
 C1795 C 0.61373 0.61369 1.27733
 C1796 C 0.63134 0.60441 1.28663
 C1797 C 0.63974 0.61277 1.30509
 C1798 C 0.63064 0.63059 1.31450
 C1799 C 0.61280 0.63968 1.30511
 C1800 C 0.60444 0.63128 1.28665
 C1801 C 0.60548 0.60548 1.25798
 C1802 C 0.59869 0.59883 1.24164
 C1803 C 0.59069 0.59116 1.22196
 C1804 C 0.58905 0.56954 1.21833
 C1805 C 0.58157 0.56215 1.19906
 C1806 C 0.57563 0.57634 1.18319
 C1807 C 0.57729 0.59804 1.18704
 C1808 C 0.58478 0.60538 1.20629
 H1809 H 0.63867 0.59080 1.27952
 H1810 H 0.65346 0.60535 1.31187
 H1811 H 0.60537 0.65339 1.31190
 H1812 H 0.59081 0.63861 1.27956
 H1813 H 0.59356 0.55840 1.23036
 H1814 H 0.58025 0.54537 1.19664
 H1815 H 0.57315 0.60934 1.17503
 H1816 H 0.58608 0.62216 1.20891
 C1817 C 0.88584 0.88560 1.27722
 C1818 C 0.89513 0.86804 1.28656
 C1819 C 0.88678 0.85964 1.30503
 C1820 C 0.86889 0.86869 1.31449
 C1821 C 0.85983 0.88656 1.30497
 C1822 C 0.86824 0.89489 1.28650
 C1823 C 0.89407 0.89383 1.25786
 C1824 C 0.90076 0.90060 1.24151
 C1825 C 0.90847 0.90856 1.22184
 C1826 C 0.93010 0.91010 1.21821
 C1827 C 0.93753 0.91757 1.19895
 C1828 C 0.92341 0.92361 1.18308
 C1829 C 0.90170 0.92204 1.18692
 C1830 C 0.89431 0.91456 1.20616
 H1831 H 0.90876 0.86072 1.27948
 H1832 H 0.89432 0.84595 1.31175
 H1833 H 0.84612 0.89410 1.31164
 H1834 H 0.86091 0.90850 1.27937
 H1835 H 0.94120 0.90551 1.23025
 H1836 H 0.95432 0.91881 1.19654
 H1837 H 0.89043 0.92627 1.17491
 H1838 H 0.87754 0.91335 1.20877
 C1839 C 0.88393 0.38494 0.77618
 C1840 C 0.86627 0.39417 0.78539
 C1841 C 0.85780 0.38579 0.80383
 C1842 C 0.86688 0.36794 0.81337
 C1843 C 0.88482 0.35894 0.80396
 C1844 C 0.89322 0.36738 0.78554
 C1845 C 0.89230 0.39321 0.75690
 C1846 C 0.89924 0.39991 0.74062
 C1847 C 0.90743 0.40763 0.72104
 C1848 C 0.90918 0.42927 0.71749
 C1849 C 0.91687 0.43672 0.69833
 C1850 C 0.92293 0.42259 0.68246
 C1851 C 0.92118 0.40087 0.68622
 C1852 C 0.91348 0.39347 0.70538
 H1853 H 0.85895 0.40777 0.77825
 H1854 H 0.84405 0.39328 0.81046
 H1855 H 0.89237 0.34526 0.81069
 H1856 H 0.90690 0.36010 0.77851
 H1857 H 0.90457 0.44037 0.72952
 H1858 H 0.91825 0.45351 0.69598
 H1859 H 0.92542 0.38961 0.67422
 H1860 H 0.91212 0.37669 0.70793
 C1861 C 0.38477 0.88592 0.77651
 C1862 C 0.36717 0.89519 0.78584
 C1863 C 0.35879 0.88678 0.80430
 C1864 C 0.36790 0.86893 0.81367
 C1865 C 0.38572 0.85986 0.80424
 C1866 C 0.39407 0.86830 0.78579
 C1867 C 0.39301 0.89419 0.75717
 C1868 C 0.39981 0.90089 0.74084
 C1869 C 0.40783 0.90860 0.72119
 C1870 C 0.40950 0.93024 0.71760
 C1871 C 0.41704 0.93767 0.69837
 C1872 C 0.42302 0.92352 0.68249
 C1873 C 0.42131 0.90181 0.68629
 C1874 C 0.41377 0.89442 0.70551
 H1875 H 0.35983 0.90882 0.77877
 H1876 H 0.34508 0.89418 0.81111
 H1877 H 0.39316 0.84613 0.81100
 H1878 H 0.40768 0.86099 0.77867
 H1879 H 0.40497 0.94135 0.72964
 H1880 H 0.41839 0.95446 0.69598
 H1881 H 0.42549 0.89053 0.67428
 H1882 H 0.41245 0.87764 0.70810
 C1883 C 0.38446 0.38536 1.27679
 C1884 C 0.39377 0.36783 1.28619
 C1885 C 0.38541 0.35946 1.30467
 C1886 C 0.36749 0.36850 1.31409
 C1887 C 0.35840 0.38632 1.30451
 C1888 C 0.36683 0.39463 1.28602
 C1889 C 0.39275 0.39354 1.25744
 C1890 C 0.39962 0.40016 1.24110
 C1891 C 0.40772 0.40780 1.22145
 C1892 C 0.41370 0.39356 1.20583
 C1893 C 0.42130 0.40088 1.18661
 C1894 C 0.42301 0.42259 1.18274
 C1895 C 0.41702 0.43678 1.19857
 C1896 C 0.40943 0.42942 1.21780
 H1897 H 0.40742 0.36051 1.27915
 H1898 H 0.39298 0.34580 1.31143
 H1899 H 0.34467 0.39384 1.31114
 H1900 H 0.35949 0.40821 1.27885
 H1901 H 0.41236 0.37679 1.20847
 H1902 H 0.42548 0.38957 1.17463
 H1903 H 0.41837 0.45357 1.19613
 H1904 H 0.40487 0.44057 1.22980
 C1905 C 0.88464 1.11482 0.72359
 C1906 C 0.89389 1.13238 0.71419
 C1907 C 0.88544 1.14080 0.69577
 C1908 C 0.86747 1.13178 0.68643
 C1909 C 0.85844 1.11393 0.69600
 C1910 C 0.86697 1.10557 0.71442
 C1911 C 0.89304 1.10658 0.74287
 C1912 C 0.89999 1.09989 0.75915
 C1913 C 0.90817 1.09217 0.77873
 C1914 C 0.91420 1.10634 0.79439
 C1915 C 0.92186 1.09894 0.81356
 C1916 C 0.92358 1.07722 0.81734
 C1917 C 0.91754 1.06309 0.80147
 C1918 C 0.90989 1.07054 0.78229
 H1919 H 0.90758 1.13968 0.72118
 H1920 H 0.89296 1.15448 0.68901
 H1921 H 0.84468 1.10642 0.68942
 H1922 H 0.85967 1.09197 0.72159
 H1923 H 0.91285 1.12312 0.79183
 H1924 H 0.92608 1.11020 0.82557
 H1925 H 0.91889 1.04629 0.80384
 H1926 H 0.90528 1.05943 0.77026
 C1927 C 0.88630 0.61363 0.22247
 C1928 C 0.86874 0.60425 0.21319
 C1929 C 0.86031 0.61255 0.19471
 C1930 C 0.86933 0.63040 0.18526
 C1931 C 0.88713 0.63958 0.19463
 C1932 C 0.89552 0.63125 0.21311
 C1933 C 0.89456 0.60549 0.24185
 C1934 C 0.90134 0.59889 0.25822
 C1935 C 0.90930 0.59127 0.27794
 C1936 C 0.91096 0.56966 0.28163
 C1937 C 0.91837 0.56231 0.30094
 C1938 C 0.92424 0.57653 0.31680
 C1939 C 0.92257 0.59823 0.31288
 C1940 C 0.91515 0.60553 0.29358
 H1941 H 0.86147 0.59062 0.22032
 H1942 H 0.84662 0.60507 0.18794
 H1943 H 0.89449 0.65332 0.18781
 H1944 H 0.90911 0.63865 0.22019
 H1945 H 0.90649 0.55849 0.26961
 H1946 H 0.91970 0.54553 0.30341
 H1947 H 0.92666 0.60955 0.32488
 H1948 H 0.91383 0.62229 0.29092
 C1949 C 0.38539 1.11415 0.22277
 C1950 C 0.36772 1.10487 0.21363
 C1951 C 0.35919 1.11317 0.19519
 C1952 C 0.36822 1.13100 0.18557
 C1953 C 0.38619 1.14004 0.19489
 C1954 C 0.39464 1.13168 0.21332
 C1955 C 0.39378 1.10599 0.24209
 C1956 C 0.40072 1.09939 0.25840
 C1957 C 0.40889 1.09178 0.27803
 C1958 C 0.41063 1.07017 0.28170
 C1959 C 0.41823 1.06282 0.30093
 C1960 C 0.42421 1.07703 0.31675
 C1961 C 0.42250 1.09873 0.31286
 C1962 C 0.41489 1.10603 0.29363
 H1963 H 0.36042 1.09129 0.22085
 H1964 H 0.34543 1.10564 0.18863
 H1965 H 0.39371 1.15371 0.18809
 H1966 H 0.40833 1.13900 0.22029
 H1967 H 0.40606 1.05900 0.26971
 H1968 H 0.41959 1.04604 0.30338
 H1969 H 0.42668 1.11005 0.32482
 H1970 H 0.41353 1.12280 0.29098
 C1971 C 0.38522 0.61419 0.72307
 C1972 C 0.36760 0.60489 0.71381
 C1973 C 0.35914 0.61327 0.69538
 C1974 C 0.36820 0.63112 0.68595
 C1975 C 0.38604 0.64022 0.69531
 C1976 C 0.39446 0.63181 0.71374
 C1977 C 0.39352 0.60596 0.74239
 C1978 C 0.40036 0.59928 0.75872
 C1979 C 0.40840 0.59158 0.77837
 C1980 C 0.41013 0.56995 0.78194
 C1981 C 0.41764 0.56252 0.80118
 C1982 C 0.42353 0.57667 0.81709
 C1983 C 0.42179 0.59839 0.81330
 C1984 C 0.41427 0.60577 0.79406
 H1985 H 0.36031 0.59126 0.72093
 H1986 H 0.34542 0.60584 0.68863
 H1987 H 0.39343 0.65395 0.68851
 H1988 H 0.40809 0.63915 0.72080
 H1989 H 0.40565 0.55883 0.76988
 H1990 H 0.41902 0.54573 0.80356
 H1991 H 0.42590 0.60966 0.82533
 H1992 H 0.41290 0.62254 0.79149
 C1993 C 1.11553 0.88550 0.72362
 C1994 C 1.10621 0.86792 0.71431
 C1995 C 1.11457 0.85948 0.69586
 C1996 C 1.13242 0.86853 0.68647
 C1997 C 1.14157 0.88633 0.69588
 C1998 C 1.13317 0.89473 0.71433
 C1999 C 1.10724 0.89377 0.74293
 C2000 C 1.10037 0.90046 0.75923
 C2001 C 1.09227 0.90818 0.77885
 C2002 C 1.08625 0.89400 0.79452
 C2003 C 1.07864 0.90139 0.81371
 C2004 C 1.07694 0.92311 0.81749
 C2005 C 1.08297 0.93725 0.80161
 C2006 C 1.09057 0.92981 0.78241
 H2007 H 1.09256 0.86063 0.72139
 H2008 H 1.10711 0.84579 0.68908
 H2009 H 1.15530 0.89371 0.68909
 H2010 H 1.14052 0.90834 0.72142
 H2011 H 1.08758 0.87722 0.79196
 H2012 H 1.07443 0.89012 0.82572
 H2013 H 1.08163 0.95404 0.80397
 H2014 H 1.09516 0.94092 0.77037
 C2015 C 1.11564 0.38538 0.22329
 C2016 C 1.10633 0.36782 0.21397
 C2017 C 1.11469 0.35938 0.19553
 C2018 C 1.13261 0.36838 0.18608
 C2019 C 1.14170 0.38624 0.19558
 C2020 C 1.13327 0.39461 0.21402
 C2021 C 1.10733 0.39364 0.24259
 C2022 C 1.10045 0.40033 0.25890
 C2023 C 1.09232 0.40802 0.27851
 C2024 C 1.08631 0.39383 0.29416
 C2025 C 1.07867 0.40121 0.31335
 C2026 C 1.07696 0.42292 0.31714
 C2027 C 1.08299 0.43707 0.30128
 C2028 C 1.09062 0.42965 0.28208
 H2029 H 1.09267 0.36054 0.22103
 H2030 H 1.10712 0.34570 0.18883
 H2031 H 1.15544 0.39373 0.18891
 H2032 H 1.14061 0.40822 0.22113
 H2033 H 1.08764 0.37706 0.29159
 H2034 H 1.07445 0.38993 0.32535
 H2035 H 1.08164 0.45387 0.30365
 H2036 H 1.09521 0.44078 0.27005
 C2037 C 0.61429 0.88623 0.22289
 C2038 C 0.60493 0.86863 0.21367
 C2039 C 0.61315 0.86020 0.19516
 C2040 C 0.63092 0.86928 0.18562
 C2041 C 0.64008 0.88713 0.19494
 C2042 C 0.63181 0.89551 0.21345
 C2043 C 0.60620 0.89446 0.24229
 C2044 C 0.59954 0.90113 0.25869
 C2045 C 0.59170 0.90881 0.27842
 C2046 C 0.58584 0.89459 0.29411
 C2047 C 0.57846 0.90193 0.31340
 C2048 C 0.57685 0.92364 0.31727
 C2049 C 0.58276 0.93782 0.30139
 C2050 C 0.59013 0.93043 0.28208
 H2051 H 0.59136 0.86130 0.22087
 H2052 H 0.60569 0.84648 0.18844
 H2053 H 0.65374 0.89454 0.18804
 H2054 H 0.63920 0.90914 0.22048
 H2055 H 0.58708 0.87781 0.29147
 H2056 H 0.57434 0.89063 0.32542
 H2057 H 0.58148 0.95461 0.30383
 H2058 H 0.59461 0.94157 0.27003
 C2059 C 0.61591 0.38540 0.72341
 C2060 C 0.60656 0.36786 0.71409
 C2061 C 0.61489 0.35940 0.69564
 C2062 C 0.63282 0.36836 0.68618
 C2063 C 0.64196 0.38619 0.69568
 C2064 C 0.63357 0.39458 0.71414
 C2065 C 0.60762 0.39368 0.74272
 C2066 C 0.60073 0.40037 0.75902
 C2067 C 0.59259 0.40806 0.77863
 C2068 C 0.58653 0.39386 0.79427
 C2069 C 0.57884 0.40123 0.81344
 C2070 C 0.57711 0.42294 0.81723
 C2071 C 0.58319 0.43710 0.80139
 C2072 C 0.59087 0.42969 0.78221
 H2073 H 0.59289 0.36061 0.72116
 H2074 H 0.60728 0.34574 0.68895
 H2075 H 0.65572 0.39365 0.68901
 H2076 H 0.64094 0.40817 0.72124
 H2077 H 0.58786 0.37709 0.79169
 H2078 H 0.57459 0.38995 0.82542
 H2079 H 0.58183 0.45389 0.80377
 H2080 H 0.59549 0.44082 0.77020
 C2081 C 1.27739 1.11393 1.11541
 C2082 C 1.28665 1.10470 1.13304
 C2083 C 1.30513 1.11306 1.14145
 C2084 C 1.31467 1.13089 1.13234
 C2085 C 1.30522 1.13988 1.11442
 C2086 C 1.28675 1.13146 1.10608
 C2087 C 1.25804 1.10570 1.10713
 C2088 C 1.24170 1.09905 1.10027
 C2089 C 1.22204 1.09140 1.09217
 C2090 C 1.21838 1.06978 1.09053
 C2091 C 1.19914 1.06241 1.08293
 C2092 C 1.18332 1.07660 1.07685
 C2093 C 1.18720 1.09830 1.07849
 C2094 C 1.20643 1.10563 1.08610
 H2095 H 1.27950 1.09111 1.14040
 H2096 H 1.31178 1.10558 1.15519
 H2097 H 1.31195 1.15355 1.10684
 H2098 H 1.27969 1.13874 1.09242
 H2099 H 1.23038 1.05863 1.09516
 H2100 H 1.19670 1.04562 1.08164
 H2101 H 1.17523 1.10961 1.07424
 H2102 H 1.20907 1.12240 1.08738
 C2103 C 1.27689 0.61451 0.61506
 C2104 C 1.28629 0.60524 0.63259
 C2105 C 1.30475 0.61366 0.64096
 C2106 C 1.31415 0.63160 0.63191
 C2107 C 1.30458 0.64064 0.61409
 C2108 C 1.28611 0.63216 0.60578
 C2109 C 1.25756 0.60619 0.60684
 C2110 C 1.24122 0.59942 0.60008
 C2111 C 1.22157 0.59162 0.59212
 C2112 C 1.21802 0.56996 0.59059
 C2113 C 1.19880 0.56245 0.58308
 C2114 C 1.18288 0.57652 0.57698
 C2115 C 1.18663 0.59826 0.57857
 C2116 C 1.20584 0.60573 0.58609
 H2117 H 1.27926 0.59157 0.63990
 H2118 H 1.31151 0.60613 0.65462
 H2119 H 1.31120 0.65439 0.60656
 H2120 H 1.27894 0.63947 0.59220
 H2121 H 1.23010 0.55890 0.59520
 H2122 H 1.19646 0.54564 0.58183
 H2123 H 1.17458 0.60949 0.57431
 H2124 H 1.20839 0.62252 0.58730
 C2125 C 0.77675 1.11466 0.61614
 C2126 C 0.78599 1.10545 0.63380
 C2127 C 0.80444 1.11384 0.64224
 C2128 C 0.81397 1.13169 0.63315
 C2129 C 0.80455 1.14067 0.61522
 C2130 C 0.78611 1.13222 0.60684
 C2131 C 0.75745 1.10638 0.60781
 C2132 C 0.74115 1.09969 0.60090
 C2133 C 0.72154 1.09198 0.59274
 C2134 C 0.71793 1.07035 0.59113
 C2135 C 0.69874 1.06292 0.58345
 C2136 C 0.68292 1.07707 0.57726
 C2137 C 0.68674 1.09878 0.57888
 C2138 C 0.70592 1.10617 0.58657
 H2139 H 0.77886 1.09185 0.64113
 H2140 H 0.81109 1.10637 0.65599
 H2141 H 0.81126 1.15435 0.60765
 H2142 H 0.77906 1.13948 0.59317
 H2143 H 0.72992 1.05923 0.59583
 H2144 H 0.69634 1.04612 0.58217
 H2145 H 0.67477 1.11006 0.57455
 H2146 H 0.70852 1.12294 0.58783
 C2147 C 0.77701 0.61340 1.11420
 C2148 C 0.78648 0.60408 1.13168
 C2149 C 0.80502 0.61244 1.13993
 C2150 C 0.81435 0.63030 1.13080
 C2151 C 0.80479 0.63943 1.11308
 C2152 C 0.78625 0.63103 1.10487
 C2153 C 0.75757 0.60520 1.10613
 C2154 C 0.74115 0.59856 1.09948
 C2155 C 0.72138 0.59092 1.09166
 C2156 C 0.71765 0.56930 1.09015
 C2157 C 0.69831 0.56195 1.08279
 C2158 C 0.68247 0.57616 1.07681
 C2159 C 0.68641 0.59786 1.07836
 C2160 C 0.70573 0.60517 1.08573
 H2161 H 0.77944 0.59044 1.13904
 H2162 H 0.81193 0.60500 1.15356
 H2163 H 0.81151 0.65316 1.10564
 H2164 H 0.77902 0.63839 1.09134
 H2165 H 0.72967 0.55814 1.09468
 H2166 H 0.69581 0.54516 1.08156
 H2167 H 0.67442 0.60919 1.07418
 H2168 H 0.70843 0.62194 1.08692
 C2169 C 1.27691 0.88535 0.88506
 C2170 C 1.28622 0.86772 0.89427
 C2171 C 1.30466 0.85928 0.88585
 C2172 C 1.31411 0.86836 0.86798
 C2173 C 1.30461 0.88628 0.85900
 C2174 C 1.28618 0.89465 0.86748
 C2175 C 1.25760 0.89361 0.89339
 C2176 C 1.24128 0.90032 0.90026
 C2177 C 1.22165 0.90807 0.90834
 C2178 C 1.20596 0.89392 0.91437
 C2179 C 1.18675 0.90135 0.92194
 C2180 C 1.18297 0.92307 0.92357
 C2181 C 1.19887 0.93718 0.91751
 C2182 C 1.21809 0.92971 0.90995
 H2183 H 1.27915 0.86038 0.90789
 H2184 H 1.31135 0.84554 0.89333
 H2185 H 1.31128 0.89384 0.84530
 H2186 H 1.27907 0.90831 0.86022
 H2187 H 1.20852 0.87713 0.91310
 H2188 H 1.17472 0.89010 0.92619
 H2189 H 1.19651 0.95398 0.91880
 H2190 H 1.23015 0.94080 0.90534
 C2191 C 1.27703 0.38562 0.38469
 C2192 C 1.28645 0.36809 0.39399
 C2193 C 1.30488 0.35966 0.38558
 C2194 C 1.31423 0.36864 0.36760
 C2195 C 1.30465 0.38646 0.35852
 C2196 C 1.28621 0.39483 0.36700
 C2197 C 1.25772 0.39385 0.39304
 C2198 C 1.24140 0.40052 0.39994
 C2199 C 1.22177 0.40819 0.40807
 C2200 C 1.20614 0.39399 0.41413
 C2201 C 1.18692 0.40135 0.42174
 C2202 C 1.18307 0.42306 0.42339
 C2203 C 1.19892 0.43722 0.41732
 C2204 C 1.21815 0.42982 0.40972
 H2205 H 1.27945 0.36083 0.40769
 H2206 H 1.31164 0.34601 0.39314
 H2207 H 1.31123 0.39393 0.34474
 H2208 H 1.27902 0.40840 0.35967
 H2209 H 1.20875 0.37721 0.41284
 H2210 H 1.17493 0.39006 0.42599
 H2211 H 1.19650 0.45401 0.41862
 H2212 H 1.23016 0.44095 0.40510
 C2213 C 0.77747 0.88612 0.38535
 C2214 C 0.78686 0.86856 0.39465
 C2215 C 0.80533 0.86017 0.38627
 C2216 C 0.81467 0.86924 0.36840
 C2217 C 0.80518 0.88702 0.35928
 C2218 C 0.78671 0.89538 0.36771
 C2219 C 0.75813 0.89433 0.39365
 C2220 C 0.74179 0.90099 0.40051
 C2221 C 0.72213 0.90867 0.40857
 C2222 C 0.70647 0.89448 0.41460
 C2223 C 0.68723 0.90184 0.42214
 C2224 C 0.68338 0.92356 0.42376
 C2225 C 0.69924 0.93771 0.41772
 C2226 C 0.71849 0.93030 0.41018
 H2227 H 0.77983 0.86125 0.40830
 H2228 H 0.81218 0.84649 0.39371
 H2229 H 0.81192 0.89442 0.34554
 H2230 H 0.77955 0.90896 0.36037
 H2231 H 0.70909 0.87770 0.41333
 H2232 H 0.67523 0.89056 0.42637
 H2233 H 0.69682 0.95451 0.41900
 H2234 H 0.73052 0.94143 0.40559
 C2235 C 0.77644 0.38501 0.88405
 C2236 C 0.78583 0.36743 0.89330
 C2237 C 0.80422 0.35897 0.88483
 C2238 C 0.81357 0.36796 0.86686
 C2239 C 0.80401 0.38582 0.85782
 C2240 C 0.78560 0.39422 0.86636
 C2241 C 0.75718 0.39331 0.89248
 C2242 C 0.74092 0.40004 0.89946
 C2243 C 0.72136 0.40781 0.90770
 C2244 C 0.70571 0.39369 0.91388
 C2245 C 0.68657 0.40114 0.92161
 C2246 C 0.68282 0.42287 0.92325
 C2247 C 0.69868 0.43696 0.91705
 C2248 C 0.71783 0.42946 0.90933
 H2249 H 0.77884 0.36017 0.90700
 H2250 H 0.81097 0.34529 0.89235
 H2251 H 0.81059 0.39330 0.84405
 H2252 H 0.77845 0.40783 0.85907
 H2253 H 0.70824 0.37690 0.91260
 H2254 H 0.67456 0.38990 0.92595
 H2255 H 0.69635 0.45376 0.91834
 H2256 H 0.72986 0.44054 0.90461
 C2257 C 0.72274 0.88586 1.11385
 C2258 C 0.71341 0.86824 1.10463
 C2259 C 0.69490 0.85989 1.11299
 C2260 C 0.68548 0.86907 1.13075
 C2261 C 0.69491 0.88692 1.13978
 C2262 C 0.71341 0.89523 1.13138
 C2263 C 0.74213 0.89406 1.10566
 C2264 C 0.75852 0.90085 1.09904
 C2265 C 0.77824 0.90884 1.09144
 C2266 C 0.78192 0.91054 1.06986
 C2267 C 0.80123 0.91803 1.06253
 C2268 C 0.81708 0.92394 1.07673
 C2269 C 0.81318 0.92223 1.09839
 C2270 C 0.79389 0.91473 1.10567
 H2271 H 0.72052 0.86085 1.09106
 H2272 H 0.68809 0.84616 1.10563
 H2273 H 0.68812 0.89441 1.15344
 H2274 H 0.72053 0.90886 1.13866
 H2275 H 0.76990 0.90604 1.05870
 H2276 H 0.80369 0.91938 1.04578
 H2277 H 0.82518 0.92636 1.10970
 H2278 H 0.79123 0.91340 1.12241
 C2279 C 0.72319 0.38503 0.61528
 C2280 C 0.71369 0.36752 0.60605
 C2281 C 0.69526 0.35917 0.61456
 C2282 C 0.68599 0.36821 0.63255
 C2283 C 0.69567 0.38601 0.64154
 C2284 C 0.71410 0.39430 0.63297
 C2285 C 0.74250 0.39321 0.60686
 C2286 C 0.75882 0.39993 0.60000
 C2287 C 0.77846 0.40784 0.59209
 C2288 C 0.78189 0.40940 0.57046
 C2289 C 0.80109 0.41687 0.56284
 C2290 C 0.81711 0.42289 0.57681
 C2291 C 0.81349 0.42126 0.59853
 C2292 C 0.79430 0.41378 0.60609
 H2293 H 0.72062 0.36021 0.59235
 H2294 H 0.68843 0.34552 0.60706
 H2295 H 0.68915 0.39353 0.65532
 H2296 H 0.72135 0.40787 0.64025
 H2297 H 0.76972 0.40485 0.55948
 H2298 H 0.80334 0.41816 0.54605
 H2299 H 0.82562 0.42545 0.60967
 H2300 H 0.79185 0.41254 0.62287
 C2301 C 0.22331 0.88495 0.61486
 C2302 C 0.21410 0.89422 0.63248
 C2303 C 0.19569 0.88585 0.64102
 C2304 C 0.18615 0.86795 0.63206
 C2305 C 0.19555 0.85889 0.61415
 C2306 C 0.21396 0.86733 0.60567
 C2307 C 0.24259 0.89324 0.60649
 C2308 C 0.25888 0.90010 0.59969
 C2309 C 0.27848 0.90817 0.59185
 C2310 C 0.29423 0.91422 0.60591
 C2311 C 0.31340 0.92184 0.59841
 C2312 C 0.31708 0.92350 0.57670
 C2313 C 0.30113 0.91740 0.56268
 C2314 C 0.28195 0.90980 0.57023
 H2315 H 0.22123 0.90786 0.63973
 H2316 H 0.18907 0.89339 0.65474
 H2317 H 0.18882 0.84517 0.60668
 H2318 H 0.22098 0.86002 0.59202
 H2319 H 0.29174 0.91295 0.62267
 H2320 H 0.32547 0.92610 0.60959
 H2321 H 0.30342 0.91871 0.54590
 H2322 H 0.26985 0.90517 0.55921
 C2323 C 0.22304 0.38525 1.11532
 C2324 C 0.21390 0.39451 1.13298
 C2325 C 0.19547 0.38618 1.14154
 C2326 C 0.18587 0.36833 1.13254
 C2327 C 0.19519 0.35930 1.11459
 C2328 C 0.21361 0.36769 1.10610
 C2329 C 0.24233 0.39345 1.10688
 C2330 C 0.25862 0.40010 1.09990
 C2331 C 0.27823 0.40776 1.09168
 C2332 C 0.28184 0.42939 1.08999
 C2333 C 0.30105 0.43679 1.08233
 C2334 C 0.31689 0.42262 1.07625
 C2335 C 0.31305 0.40091 1.07791
 C2336 C 0.29384 0.39355 1.08558
 H2337 H 0.22110 0.40811 1.14025
 H2338 H 0.18890 0.39369 1.15529
 H2339 H 0.18841 0.34562 1.10709
 H2340 H 0.22058 0.36039 1.09242
 H2341 H 0.26984 0.44052 1.09463
 H2342 H 0.30346 0.45358 1.08101
 H2343 H 0.32503 0.38962 1.07366
 H2344 H 0.29124 0.37678 1.08690
 C2345 C 0.72367 1.11524 0.88417
 C2346 C 0.71454 1.10600 0.86649
 C2347 C 0.69609 1.11431 0.85796
 C2348 C 0.68645 1.13212 0.86700
 C2349 C 0.69577 1.14114 0.88497
 C2350 C 0.71421 1.13276 0.89342
 C2351 C 0.74299 1.10702 0.89256
 C2352 C 0.75929 1.10028 0.89943
 C2353 C 0.77892 1.09236 0.90737
 C2354 C 0.79476 1.08637 0.89340
 C2355 C 0.81393 1.07887 0.90100
 C2356 C 0.81752 1.07725 0.92273
 C2357 C 0.80149 1.08331 0.93666
 C2358 C 0.78231 1.09081 0.92901
 H2359 H 0.72176 1.09243 0.85919
 H2360 H 0.68953 1.10681 0.84419
 H2361 H 0.68896 1.15478 0.89250
 H2362 H 0.72117 1.14005 0.90712
 H2363 H 0.79234 1.08760 0.87662
 H2364 H 0.82607 1.07463 0.88988
 H2365 H 0.80371 1.08205 0.95346
 H2366 H 0.77013 1.09539 0.93997
 C2367 C 0.72285 0.61400 0.38590
 C2368 C 0.71353 0.60467 0.36834
 C2369 C 0.69499 0.61295 0.36000
 C2370 C 0.68551 0.63074 0.36911
 C2371 C 0.69492 0.63987 0.38690
 C2372 C 0.71346 0.63155 0.39520
 C2373 C 0.74227 0.60584 0.39406
 C2374 C 0.75869 0.59914 0.40069
 C2375 C 0.77844 0.59125 0.40833
 C2376 C 0.79414 0.58543 0.39412
 C2377 C 0.81345 0.57801 0.40144
 C2378 C 0.81732 0.57632 0.42311
 C2379 C 0.80142 0.58219 0.43728
 C2380 C 0.78210 0.58960 0.42991
 H2381 H 0.72069 0.59109 0.36100
 H2382 H 0.68820 0.60551 0.34631
 H2383 H 0.68808 0.65355 0.39433
 H2384 H 0.72057 0.63890 0.40879
 H2385 H 0.79150 0.58674 0.37738
 H2386 H 0.82548 0.57392 0.39015
 H2387 H 0.80386 0.58085 0.45404
 H2388 H 0.77004 0.59405 0.44105
 C2389 C 0.22340 1.11507 0.38427
 C2390 C 0.21421 1.10584 0.36660
 C2391 C 0.19570 1.11411 0.35818
 C2392 C 0.18604 1.13187 0.36730
 C2393 C 0.19541 1.14087 0.38525
 C2394 C 0.21392 1.13253 0.39361
 C2395 C 0.24277 1.10688 0.39255
 C2396 C 0.25913 1.10016 0.39932
 C2397 C 0.27880 1.09227 0.40715
 C2398 C 0.29460 1.08632 0.39310
 C2399 C 0.31383 1.07887 0.40060
 C2400 C 0.31753 1.07726 0.42231
 C2401 C 0.30154 1.08327 0.43633
 C2402 C 0.28230 1.09072 0.42878
 H2403 H 0.22144 1.09231 0.35924
 H2404 H 0.18911 1.10663 0.34442
 H2405 H 0.18859 1.15448 0.39285
 H2406 H 0.22092 1.13980 0.40729
 H2407 H 0.29209 1.08755 0.37633
 H2408 H 0.32592 1.07467 0.38943
 H2409 H 0.30385 1.08201 0.45311
 H2410 H 0.27017 1.09527 0.43979
 C2411 C 0.22216 0.61331 0.88629
 C2412 C 0.21284 0.60404 0.86871
 C2413 C 0.19429 0.61234 0.86039
 C2414 C 0.18481 0.63009 0.86956
 C2415 C 0.19423 0.63917 0.88737
 C2416 C 0.21277 0.63083 0.89565
 C2417 C 0.24160 0.60515 0.89441
 C2418 C 0.25803 0.59844 0.90100
 C2419 C 0.27779 0.59056 0.90861
 C2420 C 0.29350 0.58480 0.89438
 C2421 C 0.31284 0.57743 0.90167
 C2422 C 0.31674 0.57573 0.92333
 C2423 C 0.30083 0.58151 0.93752
 C2424 C 0.28148 0.58888 0.93019
 H2425 H 0.22000 0.59048 0.86132
 H2426 H 0.18750 0.60493 0.84669
 H2427 H 0.18738 0.65283 0.89484
 H2428 H 0.21988 0.63815 0.90925
 H2429 H 0.29084 0.58613 0.87764
 H2430 H 0.32487 0.57340 0.89036
 H2431 H 0.30329 0.58016 0.95428
 H2432 H 0.26942 0.59328 0.94134
 C2433 C 1.11483 1.27707 1.11519
 C2434 C 1.13241 1.28640 1.10589
 C2435 C 1.14088 1.30483 1.11429
 C2436 C 1.13186 1.31419 1.13217
 C2437 C 1.11405 1.30476 1.14128
 C2438 C 1.10562 1.28633 1.13284
 C2439 C 1.10655 1.25775 1.10688
 C2440 C 1.09985 1.24142 1.10002
 C2441 C 1.09214 1.22178 1.09193
 C2442 C 1.10630 1.20608 1.08596
 C2443 C 1.09891 1.18685 1.07839
 C2444 C 1.07721 1.18307 1.07668
 C2445 C 1.06308 1.19898 1.08266
 C2446 C 1.07052 1.21821 1.09023
 H2447 H 1.13968 1.27934 1.09224
 H2448 H 1.15457 1.31163 1.10686
 H2449 H 1.10670 1.31152 1.15502
 H2450 H 1.09202 1.27921 1.14017
 H2451 H 1.12307 1.20864 1.08730
 H2452 H 1.11017 1.17481 1.07421
 H2453 H 1.04630 1.19661 1.08132
 H2454 H 1.05941 1.23028 1.09479
 C2455 C 1.11512 0.77653 0.61501
 C2456 C 1.10588 0.78590 0.63258
 C2457 C 1.11433 0.80437 0.64094
 C2458 C 1.13219 0.81371 0.63183
 C2459 C 1.14123 0.80423 0.61404
 C2460 C 1.13275 0.78577 0.60571
 C2461 C 1.10679 0.75720 0.60678
 C2462 C 1.10003 0.74086 0.59999
 C2463 C 1.09223 0.72121 0.59200
 C2464 C 1.07059 0.71770 0.59038
 C2465 C 1.06307 0.69848 0.58286
 C2466 C 1.07714 0.68252 0.57684
 C2467 C 1.09886 0.68624 0.57849
 C2468 C 1.10633 0.70546 0.58602
 H2469 H 1.09224 0.77886 0.63991
 H2470 H 1.10695 0.81121 0.65463
 H2471 H 1.15496 0.81097 0.60661
 H2472 H 1.14004 0.77862 0.59211
 H2473 H 1.05953 0.72981 0.59495
 H2474 H 1.04628 0.69616 0.58156
 H2475 H 1.11007 0.67417 0.57428
 H2476 H 1.12311 0.70798 0.58730
 C2477 C 0.61471 1.27713 0.61526
 C2478 C 0.60556 1.28639 0.63294
 C2479 C 0.61404 1.30481 0.64137
 C2480 C 0.63186 1.31420 0.63223
 C2481 C 0.64081 1.30484 0.61433
 C2482 C 0.63229 1.28643 0.60594
 C2483 C 0.60639 1.25783 0.60696
 C2484 C 0.59966 1.24152 0.60008
 C2485 C 0.59193 1.22189 0.59198
 C2486 C 0.57031 1.21836 0.59024
 C2487 C 0.56286 1.19914 0.58263
 C2488 C 0.57698 1.18322 0.57664
 C2489 C 0.59868 1.18697 0.57840
 C2490 C 0.60608 1.20618 0.58602
 H2491 H 0.59196 1.27929 0.64029
 H2492 H 0.60673 1.31156 0.65514
 H2493 H 0.65451 1.31162 0.60688
 H2494 H 0.63952 1.27937 0.59226
 H2495 H 0.55921 1.23043 0.59479
 H2496 H 0.54607 1.19680 0.58124
 H2497 H 0.60993 1.17492 0.57422
 H2498 H 0.62285 1.20872 0.58738
 C2499 C 0.61365 0.77706 1.11442
 C2500 C 0.63123 0.78632 1.10506
 C2501 C 0.63967 0.80484 1.11330
 C2502 C 0.63062 0.81435 1.13107
 C2503 C 0.61281 0.80499 1.14025
 C2504 C 0.60441 0.78647 1.13197
 C2505 C 0.60540 0.75765 1.10630
 C2506 C 0.59871 0.74125 1.09960
 C2507 C 0.59101 0.72152 1.09172
 C2508 C 0.60520 0.70579 1.08585
 C2509 C 0.59783 0.68651 1.07842
 C2510 C 0.57613 0.68268 1.07674
 C2511 C 0.56198 0.69860 1.08265
 C2512 C 0.56939 0.71790 1.09008
 H2513 H 0.63852 0.77914 1.09148
 H2514 H 0.65336 0.81159 1.10582
 H2515 H 0.60543 0.81186 1.15392
 H2516 H 0.59080 0.77941 1.13936
 H2517 H 0.62196 0.70840 1.08715
 H2518 H 0.60911 0.67446 1.07430
 H2519 H 0.54520 0.69620 1.08132
 H2520 H 0.55828 0.72998 1.09455
 C2521 C 0.88480 1.27677 0.88444
 C2522 C 0.89400 1.28606 0.86680
 C2523 C 0.88550 1.30446 0.85832
 C2524 C 0.86762 1.31381 0.86737
 C2525 C 0.85861 1.30441 0.88523
 C2526 C 0.86714 1.28602 0.89368
 C2527 C 0.89318 1.25750 0.89280
 C2528 C 0.89999 1.24123 0.89970
 C2529 C 0.90785 1.22164 0.90782
 C2530 C 0.92949 1.21820 0.90948
 C2531 C 0.93706 1.19903 0.91712
 C2532 C 0.92304 1.18306 0.92321
 C2533 C 0.90131 1.18672 0.92152
 C2534 C 0.89379 1.20587 0.91388
 H2535 H 0.90766 1.27901 0.85951
 H2536 H 0.89286 1.31124 0.84458
 H2537 H 0.84486 1.31116 0.89262
 H2538 H 0.85988 1.27893 0.90733
 H2539 H 0.94052 1.23031 0.90485
 H2540 H 0.95386 1.19676 0.91844
 H2541 H 0.89012 1.17463 0.92579
 H2542 H 0.87700 1.20834 0.91257
 C2543 C 0.88636 0.77727 0.38536
 C2544 C 0.89563 0.78655 0.36775
 C2545 C 0.88726 0.80504 0.35933
 C2546 C 0.86946 0.81449 0.36843
 C2547 C 0.86039 0.80510 0.38627
 C2548 C 0.86879 0.78662 0.39465
 C2549 C 0.89457 0.75789 0.39361
 C2550 C 0.90122 0.74151 0.40042
 C2551 C 0.90887 0.72180 0.40842
 C2552 C 0.93048 0.71815 0.41008
 C2553 C 0.93786 0.69885 0.41757
 C2554 C 0.92368 0.68297 0.42351
 C2555 C 0.90199 0.68684 0.42183
 C2556 C 0.89466 0.70612 0.41433
 H2557 H 0.90922 0.77942 0.36041
 H2558 H 0.89466 0.81182 0.34561
 H2559 H 0.84670 0.81192 0.39370
 H2560 H 0.86148 0.77954 0.40827
 H2561 H 0.94162 0.73020 0.40556
 H2562 H 0.95463 0.69642 0.41890
 H2563 H 0.89069 0.67482 0.42598
 H2564 H 0.87790 0.70876 0.41302
 C2565 C 0.38532 1.27737 0.38521
 C2566 C 0.36772 1.28669 0.39450
 C2567 C 0.35924 1.30511 0.38608
 C2568 C 0.36824 1.31447 0.36819
 C2569 C 0.38606 1.30506 0.35909
 C2570 C 0.39451 1.28664 0.36755
 C2571 C 0.39365 1.25806 0.39349
 C2572 C 0.40053 1.24174 0.40020
 C2573 C 0.40861 1.22209 0.40794
 C2574 C 0.41018 1.21849 0.42955
 C2575 C 0.41774 1.19925 0.43700
 C2576 C 0.42383 1.18337 0.42291
 C2577 C 0.42225 1.18718 0.40122
 C2578 C 0.41468 1.20641 0.39381
 H2579 H 0.36047 1.27962 0.40816
 H2580 H 0.34553 1.31191 0.39349
 H2581 H 0.39341 1.31181 0.34534
 H2582 H 0.40812 1.27953 0.36022
 H2583 H 0.40553 1.23054 0.44062
 H2584 H 0.41899 1.19686 0.45377
 H2585 H 0.42652 1.17516 0.38998
 H2586 H 0.41345 1.20900 0.37705
 C2587 C 0.38496 0.77681 0.88518
 C2588 C 0.39424 0.78617 0.86761
 C2589 C 0.38584 0.80466 0.85922
 C2590 C 0.36800 0.81404 0.86831
 C2591 C 0.35891 0.80458 0.88610
 C2592 C 0.36734 0.78610 0.89445
 C2593 C 0.39323 0.75746 0.89343
 C2594 C 0.39994 0.74111 0.90025
 C2595 C 0.40769 0.72144 0.90827
 C2596 C 0.42932 0.71789 0.90995
 C2597 C 0.43678 0.69865 0.91749
 C2598 C 0.42268 0.68270 0.92346
 C2599 C 0.40097 0.68646 0.92176
 C2600 C 0.39355 0.70570 0.91421
 H2601 H 0.40787 0.77909 0.86029
 H2602 H 0.39326 0.81149 0.84554
 H2603 H 0.34519 0.81135 0.89351
 H2604 H 0.36002 0.77897 0.90804
 H2605 H 0.44040 0.72998 0.90542
 H2606 H 0.45357 0.69630 0.91884
 H2607 H 0.38972 0.67440 0.92593
 H2608 H 0.37677 0.70825 0.91289
 C2609 C 1.11323 0.72212 0.88651
 C2610 C 1.10389 0.71280 0.86897
 C2611 C 1.11218 0.69427 0.86060
 C2612 C 1.12999 0.68482 0.86968
 C2613 C 1.13913 0.69422 0.88747
 C2614 C 1.13080 0.71275 0.89579
 C2615 C 1.10511 0.74155 0.89470
 C2616 C 1.09855 0.75798 0.90144
 C2617 C 1.09100 0.77775 0.90936
 C2618 C 1.06941 0.78153 0.91098
 C2619 C 1.06214 0.80090 0.91838
 C2620 C 1.07640 0.81672 0.92426
 C2621 C 1.09807 0.81273 0.92262
 C2622 C 1.10530 0.79337 0.91522
 H2623 H 1.09029 0.71995 0.86165
 H2624 H 1.10474 0.68748 0.84692
 H2625 H 1.15283 0.68739 0.89487
 H2626 H 1.13817 0.71986 0.90937
 H2627 H 1.05821 0.76954 0.90650
 H2628 H 1.04537 0.80343 0.91967
 H2629 H 1.10944 0.82469 0.92673
 H2630 H 1.12205 0.79064 0.91394
 C2631 C 1.11462 0.22276 0.38519
 C2632 C 1.10534 0.21344 0.36761
 C2633 C 1.11382 0.19505 0.35912
 C2634 C 1.13174 0.18573 0.36812
 C2635 C 1.14082 0.19513 0.38594
 C2636 C 1.13230 0.21352 0.39438
 C2637 C 1.10631 0.24206 0.39349
 C2638 C 1.09958 0.25838 0.40033
 C2639 C 1.09184 0.27803 0.40836
 C2640 C 1.07021 0.28160 0.41000
 C2641 C 1.06276 0.30085 0.41752
 C2642 C 1.07687 0.31677 0.42350
 C2643 C 1.09858 0.31299 0.42184
 C2644 C 1.10599 0.29375 0.41432
 H2645 H 1.09166 0.22049 0.36035
 H2646 H 1.10642 0.18825 0.34542
 H2647 H 1.15460 0.18841 0.39328
 H2648 H 1.13962 0.22063 0.40798
 H2649 H 1.05912 0.26953 0.40545
 H2650 H 1.04597 0.30323 0.41883
 H2651 H 1.10983 0.32504 0.42602
 H2652 H 1.12276 0.29118 0.41302
 C2653 C 0.61388 0.72273 0.38597
 C2654 C 0.60454 0.71340 0.36843
 C2655 C 0.61286 0.69488 0.36006
 C2656 C 0.63068 0.68544 0.36914
 C2657 C 0.63982 0.69487 0.38691
 C2658 C 0.63147 0.71339 0.39524
 C2659 C 0.60573 0.74214 0.39419
 C2660 C 0.59913 0.75854 0.40097
 C2661 C 0.59152 0.77827 0.40894
 C2662 C 0.56992 0.78198 0.41059
 C2663 C 0.56259 0.80130 0.41805
 C2664 C 0.57681 0.81716 0.42397
 C2665 C 0.59849 0.81323 0.42231
 C2666 C 0.60578 0.79392 0.41484
 H2667 H 0.59093 0.72053 0.36112
 H2668 H 0.60541 0.68807 0.34640
 H2669 H 0.65353 0.68806 0.39431
 H2670 H 0.63884 0.72051 0.40881
 H2671 H 0.55875 0.76996 0.40609
 H2672 H 0.54582 0.80378 0.41937
 H2673 H 0.60982 0.82523 0.42644
 H2674 H 0.62253 0.79125 0.41354
 C2675 C 0.61516 0.22314 0.88467
 C2676 C 0.63280 0.21386 0.89389
 C2677 C 0.64132 0.19547 0.88544
 C2678 C 0.63229 0.18611 0.86758
 C2679 C 0.61441 0.19547 0.85854
 C2680 C 0.60593 0.21387 0.86703
 C2681 C 0.60681 0.24240 0.89303
 C2682 C 0.60005 0.25869 0.89993
 C2683 C 0.59226 0.27828 0.90806
 C2684 C 0.60636 0.29400 0.91413
 C2685 C 0.59889 0.31318 0.92174
 C2686 C 0.57717 0.31690 0.92339
 C2687 C 0.56310 0.30097 0.91731
 C2688 C 0.57062 0.28178 0.90970
 H2689 H 0.64009 0.22093 0.90754
 H2690 H 0.65507 0.18871 0.89282
 H2691 H 0.60704 0.18871 0.84480
 H2692 H 0.59228 0.22094 0.85975
 H2693 H 0.62314 0.29149 0.91284
 H2694 H 0.61010 0.32524 0.92600
 H2695 H 0.54631 0.30329 0.91860
 H2696 H 0.55957 0.26970 0.90507
 C2697 C 0.88569 0.72258 1.11373
 C2698 C 0.86809 0.71323 1.10449
 C2699 C 0.85979 0.69468 1.11282
 C2700 C 0.86899 0.68522 1.13056
 C2701 C 0.88682 0.69467 1.13960
 C2702 C 0.89508 0.71322 1.13123
 C2703 C 0.89384 0.74202 1.10556
 C2704 C 0.90057 0.75844 1.09895
 C2705 C 0.90850 0.77820 1.09135
 C2706 C 0.91010 0.78194 1.06977
 C2707 C 0.91756 0.80127 1.06245
 C2708 C 0.92353 0.81710 1.07666
 C2709 C 0.92191 0.81315 1.09832
 C2710 C 0.91445 0.79382 1.10559
 H2711 H 0.86068 0.72036 1.09095
 H2712 H 0.84607 0.68785 1.10545
 H2713 H 0.89432 0.68785 1.15324
 H2714 H 0.90870 0.72035 1.13852
 H2715 H 0.90557 0.76994 1.05861
 H2716 H 0.91885 0.80377 1.04570
 H2717 H 0.92609 0.82512 1.10964
 H2718 H 0.91319 0.79112 1.12233
 C2719 C 0.88495 0.22294 0.61520
 C2720 C 0.89424 0.21370 0.63282
 C2721 C 0.88582 0.19529 0.64136
 C2722 C 0.86795 0.18588 0.63237
 C2723 C 0.85885 0.19522 0.61453
 C2724 C 0.86729 0.21363 0.60603
 C2725 C 0.89323 0.24223 0.60679
 C2726 C 0.89996 0.25851 0.59984
 C2727 C 0.90773 0.27811 0.59168
 C2728 C 0.92936 0.28163 0.59000
 C2729 C 0.93685 0.30082 0.58237
 C2730 C 0.92277 0.31675 0.57631
 C2731 C 0.90105 0.31302 0.57799
 C2732 C 0.89361 0.29383 0.58563
 H2733 H 0.90790 0.22080 0.64006
 H2734 H 0.89325 0.18855 0.65508
 H2735 H 0.84510 0.18843 0.60719
 H2736 H 0.85996 0.22067 0.59240
 H2737 H 0.94043 0.26955 0.59462
 H2738 H 0.95364 0.30315 0.58104
 H2739 H 0.88983 0.32508 0.57375
 H2740 H 0.87683 0.29131 0.58695
 C2741 C 0.38491 0.72322 0.61442
 C2742 C 0.39428 0.71382 0.63191
 C2743 C 0.38591 0.69533 0.64031
 C2744 C 0.36800 0.68599 0.63132
 C2745 C 0.35881 0.69549 0.61360
 C2746 C 0.36722 0.71399 0.60524
 C2747 C 0.39317 0.74258 0.60616
 C2748 C 0.39991 0.75893 0.59937
 C2749 C 0.40770 0.77861 0.59140
 C2750 C 0.42933 0.78215 0.58983
 C2751 C 0.43684 0.80140 0.58235
 C2752 C 0.42277 0.81735 0.57631
 C2753 C 0.40105 0.81360 0.57791
 C2754 C 0.39359 0.79436 0.58540
 H2755 H 0.40797 0.72085 0.63915
 H2756 H 0.39341 0.68846 0.65393
 H2757 H 0.34503 0.68876 0.60627
 H2758 H 0.35982 0.72116 0.59171
 H2759 H 0.44039 0.77005 0.59442
 H2760 H 0.45364 0.80375 0.58109
 H2761 H 0.38983 0.82567 0.57370
 H2762 H 0.37681 0.79182 0.58664
 C2763 C 0.38557 0.22221 1.11444
 C2764 C 0.36792 0.21290 1.10527
 C2765 C 0.35951 0.19446 1.11372
 C2766 C 0.36865 0.18507 1.13152
 C2767 C 0.38653 0.19447 1.14050
 C2768 C 0.39491 0.21292 1.13201
 C2769 C 0.39380 0.24155 1.10612
 C2770 C 0.40048 0.25789 1.09926
 C2771 C 0.40819 0.27756 1.09123
 C2772 C 0.39401 0.29325 1.08522
 C2773 C 0.40140 0.31251 1.07770
 C2774 C 0.42310 0.31634 1.07610
 C2775 C 0.43724 0.30045 1.08213
 C2776 C 0.42981 0.28118 1.08964
 H2777 H 0.36056 0.21999 1.09167
 H2778 H 0.34575 0.18767 1.10638
 H2779 H 0.39398 0.18770 1.15419
 H2780 H 0.40857 0.22001 1.13926
 H2781 H 0.37724 0.29064 1.08647
 H2782 H 0.39013 0.32453 1.07349
 H2783 H 0.45402 0.30286 1.08086
 H2784 H 0.44092 0.26913 1.09423
 C2785 C 1.11429 1.11429 0.72306
 C2786 C 1.10498 1.13193 0.71382
 C2787 C 1.11324 1.14034 0.69531
 C2788 C 1.13099 1.13121 0.68579
 C2789 C 1.14010 1.11334 0.69512
 C2790 C 1.13180 1.10497 0.71363
 C2791 C 1.10616 1.10606 0.74245
 C2792 C 1.09946 1.09939 0.75884
 C2793 C 1.09159 1.09171 0.77856
 C2794 C 1.08574 1.10592 0.79424
 C2795 C 1.07833 1.09857 0.81353
 C2796 C 1.07667 1.07686 0.81739
 C2797 C 1.08256 1.06268 0.80150
 C2798 C 1.08997 1.07008 0.78221
 H2799 H 1.09143 1.13928 0.72101
 H2800 H 1.10581 1.15408 0.68859
 H2801 H 1.15375 1.10590 0.68824
 H2802 H 1.13915 1.09132 0.72067
 H2803 H 1.08702 1.12269 0.79161
 H2804 H 1.07421 1.10986 0.82554
 H2805 H 1.08125 1.04589 0.80394
 H2806 H 1.09444 1.05895 0.77016
 C2807 C 1.11521 0.61526 0.22333
 C2808 C 1.13271 0.60597 0.21388
 C2809 C 1.14107 0.61441 0.19544
 C2810 C 1.13204 0.63240 0.18611
 C2811 C 1.11425 0.64146 0.19573
 C2812 C 1.10596 0.63295 0.21418
 C2813 C 1.10701 0.60690 0.24265
 C2814 C 1.10026 0.60010 0.25897
 C2815 C 1.09230 0.59226 0.27860
 C2816 C 1.09069 0.57060 0.28208
 C2817 C 1.08318 0.56304 0.30128
 C2818 C 1.07718 0.57709 0.31724
 C2819 C 1.07885 0.59883 0.31355
 C2820 C 1.08636 0.60634 0.29437
 H2821 H 1.14001 0.59226 0.22086
 H2822 H 1.15471 0.60686 0.18864
 H2823 H 1.10674 0.65525 0.18917
 H2824 H 1.09240 0.64028 0.22139
 H2825 H 1.09523 0.55956 0.26997
 H2826 H 1.08187 0.54623 0.30357
 H2827 H 1.07466 0.61003 0.32563
 H2828 H 1.08763 0.62313 0.29187
 C2829 C 0.61525 1.11510 0.22308
 C2830 C 0.63280 1.10585 0.21368
 C2831 C 0.64112 1.11425 0.19520
 C2832 C 0.63201 1.13215 0.18578
 C2833 C 0.61416 1.14117 0.19536
 C2834 C 0.60591 1.13270 0.21385
 C2835 C 0.60709 1.10680 0.24244
 C2836 C 0.60037 1.10006 0.25879
 C2837 C 0.59244 1.09230 0.27847
 C2838 C 0.59088 1.07065 0.28206
 C2839 C 0.58341 1.06317 0.30130
 C2840 C 0.57738 1.07728 0.31719
 C2841 C 0.57898 1.09901 0.31339
 C2842 C 0.58647 1.10644 0.29417
 H2843 H 0.64017 1.09221 0.22072
 H2844 H 0.65480 1.10674 0.18843
 H2845 H 0.60658 1.15489 0.18873
 H2846 H 0.59232 1.13999 0.22102
 H2847 H 0.59545 1.05956 0.27000
 H2848 H 0.58214 1.04637 0.30367
 H2849 H 0.57477 1.11026 0.32542
 H2850 H 0.58770 1.12323 0.29159
 C2851 C 0.61407 0.61381 0.72305
 C2852 C 0.60477 0.63142 0.71375
 C2853 C 0.61308 0.63980 0.69525
 C2854 C 0.63087 0.63067 0.68580
 C2855 C 0.63997 0.61283 0.69519
 C2856 C 0.63162 0.60448 0.71369
 C2857 C 0.60589 0.60562 0.74243
 C2858 C 0.59914 0.59899 0.75882
 C2859 C 0.59121 0.59135 0.77853
 C2860 C 0.58535 0.60559 0.79418
 C2861 C 0.57791 0.59827 0.81347
 C2862 C 0.57624 0.57657 0.81736
 C2863 C 0.58213 0.56237 0.80150
 C2864 C 0.58956 0.56973 0.78221
 H2865 H 0.59119 0.63877 0.72088
 H2866 H 0.60566 0.65352 0.68847
 H2867 H 0.65365 0.60539 0.68837
 H2868 H 0.63896 0.59086 0.72078
 H2869 H 0.58665 0.62236 0.79153
 H2870 H 0.57380 0.60959 0.82547
 H2871 H 0.58081 0.54558 0.80396
 H2872 H 0.59404 0.55857 0.77018
 C2873 C 0.88643 0.88635 0.72285
 C2874 C 0.86892 0.89572 0.71346
 C2875 C 0.86056 0.88737 0.69497
 C2876 C 0.86962 0.86949 0.68563
 C2877 C 0.88737 0.86032 0.69511
 C2878 C 0.89569 0.86871 0.71360
 C2879 C 0.89460 0.89453 0.74224
 C2880 C 0.90130 0.90118 0.75863
 C2881 C 0.90916 0.90882 0.77836
 C2882 C 0.91078 0.93044 0.78202
 C2883 C 0.91815 0.93781 0.80134
 C2884 C 0.92400 0.92361 0.81722
 C2885 C 0.92236 0.90191 0.81335
 C2886 C 0.91498 0.89459 0.79404
 H2887 H 0.86162 0.90937 0.72052
 H2888 H 0.84691 0.89485 0.68813
 H2889 H 0.89476 0.84657 0.68837
 H2890 H 0.90924 0.86132 0.72076
 H2891 H 0.90633 0.94160 0.76998
 H2892 H 0.91945 0.95460 0.80379
 H2893 H 0.92644 0.89059 0.82536
 H2894 H 0.91370 0.87782 0.79140
 C2895 C 0.88542 0.38569 0.22276
 C2896 C 0.89476 0.36815 0.21343
 C2897 C 0.88643 0.35972 0.19497
 C2898 C 0.86850 0.36872 0.18552
 C2899 C 0.85939 0.38656 0.19503
 C2900 C 0.86779 0.39492 0.21349
 C2901 C 0.89368 0.39392 0.24210
 C2902 C 0.90050 0.40058 0.25844
 C2903 C 0.90853 0.40824 0.27810
 C2904 C 0.91447 0.39403 0.29376
 C2905 C 0.92201 0.40137 0.31299
 C2906 C 0.92372 0.42308 0.31682
 C2907 C 0.91776 0.43726 0.30095
 C2908 C 0.91022 0.42987 0.28171
 H2909 H 0.90842 0.36087 0.22050
 H2910 H 0.89401 0.34605 0.18827
 H2911 H 0.84565 0.39405 0.18836
 H2912 H 0.86043 0.40851 0.22061
 H2913 H 0.91314 0.37726 0.29116
 H2914 H 0.92618 0.39007 0.32500
 H2915 H 0.91911 0.45405 0.30336
 H2916 H 0.90569 0.44101 0.26968
 C2917 C 0.38637 0.88552 0.22293
 C2918 C 0.39553 0.86777 0.21378
 C2919 C 0.38717 0.85932 0.19534
 C2920 C 0.36947 0.86853 0.18580
 C2921 C 0.36051 0.88652 0.19504
 C2922 C 0.36891 0.89492 0.21348
 C2923 C 0.39458 0.89380 0.24226
 C2924 C 0.40131 0.90054 0.25860
 C2925 C 0.40919 0.90833 0.27827
 C2926 C 0.41507 0.89421 0.29403
 C2927 C 0.42246 0.90166 0.31328
 C2928 C 0.42407 0.92340 0.31702
 C2929 C 0.41814 0.93748 0.30106
 C2930 C 0.41076 0.92998 0.28180
 H2931 H 0.40904 0.86035 0.22099
 H2932 H 0.39447 0.84549 0.18868
 H2933 H 0.34690 0.89403 0.18815
 H2934 H 0.36168 0.90866 0.22045
 H2935 H 0.41382 0.87742 0.29150
 H2936 H 0.42660 0.89043 0.32535
 H2937 H 0.41942 0.95429 0.30340
 H2938 H 0.40626 0.94105 0.26969
 C2939 C 0.38545 0.38428 0.72330
 C2940 C 0.39470 0.36669 0.71397
 C2941 C 0.38627 0.35826 0.69555
 C2942 C 0.36836 0.36732 0.68613
 C2943 C 0.35934 0.38520 0.69564
 C2944 C 0.36783 0.39356 0.71406
 C2945 C 0.39377 0.39257 0.74259
 C2946 C 0.40051 0.39942 0.75888
 C2947 C 0.40828 0.40750 0.77848
 C2948 C 0.42991 0.40910 0.78203
 C2949 C 0.43740 0.41670 0.80121
 C2950 C 0.42331 0.42281 0.81709
 C2951 C 0.40160 0.42118 0.81333
 C2952 C 0.39416 0.41357 0.79416
 H2953 H 0.40835 0.35937 0.72102
 H2954 H 0.39378 0.34455 0.68883
 H2955 H 0.34561 0.39274 0.68901
 H2956 H 0.36053 0.40719 0.72118
 H2957 H 0.44099 0.40447 0.76998
 H2958 H 0.45419 0.41799 0.80356
 H2959 H 0.39036 0.42545 0.82535
 H2960 H 0.37738 0.41231 0.79161
 C2961 C 1.11465 0.88566 1.27730
 C2962 C 1.13220 0.89496 1.28663
 C2963 C 1.14059 0.88661 1.30511
 C2964 C 1.13155 0.86871 1.31458
 C2965 C 1.11370 0.85964 1.30507
 C2966 C 1.10537 0.86805 1.28659
 C2967 C 1.10642 0.89389 1.25794
 C2968 C 1.09965 0.90057 1.24158
 C2969 C 1.09169 0.90829 1.22191
 C2970 C 1.09013 0.92993 1.21828
 C2971 C 1.08266 0.93736 1.19902
 C2972 C 1.07666 0.92322 1.18315
 C2973 C 1.07825 0.90150 1.18699
 C2974 C 1.08572 0.89411 1.20624
 H2975 H 1.13952 0.90860 1.27954
 H2976 H 1.15428 0.89416 1.31181
 H2977 H 1.10617 0.84592 1.31175
 H2978 H 1.09177 0.86072 1.27947
 H2979 H 1.09469 0.94104 1.23031
 H2980 H 1.08140 0.95416 1.19660
 H2981 H 1.07405 0.89023 1.17498
 H2982 H 1.08696 0.87733 1.20885
 C2983 C 1.11380 0.38544 0.77710
 C2984 C 1.13135 0.39478 0.78644
 C2985 C 1.13970 0.38646 0.80495
 C2986 C 1.13061 0.36862 0.81436
 C2987 C 1.11283 0.35947 0.80492
 C2988 C 1.10452 0.36784 0.78641
 C2989 C 1.10561 0.39362 0.75770
 C2990 C 1.09887 0.40026 0.74132
 C2991 C 1.09097 0.40793 0.72161
 C2992 C 1.08938 0.42955 0.71793
 C2993 C 1.08199 0.43694 0.69863
 C2994 C 1.07607 0.42276 0.68276
 C2995 C 1.07767 0.40106 0.68665
 C2996 C 1.08507 0.39371 0.70594
 H2997 H 1.13867 0.40841 0.77934
 H2998 H 1.15337 0.39391 0.81177
 H2999 H 1.10542 0.34575 0.81171
 H3000 H 1.09094 0.36046 0.77928
 H3001 H 1.09389 0.44069 0.72996
 H3002 H 1.08071 0.45373 0.69618
 H3003 H 1.07353 0.38976 0.67465
 H3004 H 1.08632 0.37694 0.70859
 C3005 C 0.61403 0.88616 0.77716
 C3006 C 0.60470 0.86859 0.78651
 C3007 C 0.61304 0.86022 0.80500
 C3008 C 0.63087 0.86930 0.81440
 C3009 C 0.64001 0.88709 0.80495
 C3010 C 0.63164 0.89544 0.78645
 C3011 C 0.60580 0.89435 0.75779
 C3012 C 0.59901 0.90100 0.74143
 C3013 C 0.59103 0.90866 0.72174
 C3014 C 0.58512 0.89444 0.70608
 C3015 C 0.57765 0.90179 0.68681
 C3016 C 0.57599 0.92349 0.68294
 C3017 C 0.58191 0.93767 0.69881
 C3018 C 0.58938 0.93028 0.71809
 H3019 H 0.59108 0.86127 0.77943
 H3020 H 0.60558 0.84653 0.81182
 H3021 H 0.65373 0.89450 0.81173
 H3022 H 0.63899 0.90903 0.77932
 H3023 H 0.58642 0.87767 0.70871
 H3024 H 0.57351 0.89049 0.67481
 H3025 H 0.58060 0.95446 0.69638
 H3026 H 0.59388 0.94143 0.73012
 C3027 C 0.61461 0.38475 1.27690
 C3028 C 0.63219 0.39407 1.28618
 C3029 C 0.64066 0.38571 1.30461
 C3030 C 0.63168 0.36779 1.31410
 C3031 C 0.61380 0.35870 1.30465
 C3032 C 0.60540 0.36712 1.28621
 C3033 C 0.60628 0.39300 1.25760
 C3034 C 0.59941 0.39971 1.24129
 C3035 C 0.59134 0.40746 1.22167
 C3036 C 0.58961 0.42910 1.21815
 C3037 C 0.58205 0.43658 1.19894
 C3038 C 0.57610 0.42247 1.18301
 C3039 C 0.57784 0.40075 1.18676
 C3040 C 0.58541 0.39332 1.20595
 H3041 H 0.63946 0.40772 1.27908
 H3042 H 0.65436 0.39327 1.31128
 H3043 H 0.60632 0.34496 1.31134
 H3044 H 0.59178 0.35978 1.27914
 H3045 H 0.59413 0.44019 1.23022
 H3046 H 0.58067 0.45338 1.19660
 H3047 H 0.57369 0.38950 1.17471
 H3048 H 0.58677 0.37653 1.20849
 C3049 C 0.88556 1.11506 1.27693
 C3050 C 0.86802 1.10575 1.28631
 C3051 C 0.85962 1.11416 1.30475
 C3052 C 0.86864 1.13211 1.31414
 C3053 C 0.88647 1.14118 1.30458
 C3054 C 0.89480 1.13272 1.28614
 C3055 C 0.89379 1.10677 1.25761
 C3056 C 0.90057 1.10003 1.24129
 C3057 C 0.90855 1.09225 1.22165
 C3058 C 0.91011 1.07061 1.21809
 C3059 C 0.91760 1.06312 1.19887
 C3060 C 0.92365 1.07722 1.18297
 C3061 C 0.92206 1.09894 1.18673
 C3062 C 0.91456 1.10639 1.20594
 H3063 H 0.86074 1.09207 1.27929
 H3064 H 0.84596 1.10660 1.31150
 H3065 H 0.89397 1.15494 1.31119
 H3066 H 0.90838 1.14005 1.27898
 H3067 H 0.90551 1.05953 1.23016
 H3068 H 0.91886 1.04631 1.19652
 H3069 H 0.92629 1.11019 1.17470
 H3070 H 0.91333 1.12317 1.20850
 C3071 C 0.88577 0.61416 0.77686
 C3072 C 0.89509 0.63172 0.78620
 C3073 C 0.88673 0.64010 0.80468
 C3074 C 0.86888 0.63102 0.81406
 C3075 C 0.85975 0.61323 0.80461
 C3076 C 0.86814 0.60489 0.78613
 C3077 C 0.89398 0.60593 0.75750
 C3078 C 0.90066 0.59916 0.74115
 C3079 C 0.90835 0.59120 0.72147
 C3080 C 0.92997 0.58961 0.71784
 C3081 C 0.93739 0.58215 0.69858
 C3082 C 0.92324 0.57617 0.68271
 C3083 C 0.90154 0.57779 0.68655
 C3084 C 0.89417 0.58525 0.70580
 H3085 H 0.90873 0.63903 0.77913
 H3086 H 0.89418 0.65378 0.81150
 H3087 H 0.84602 0.60582 0.81137
 H3088 H 0.86078 0.59130 0.77900
 H3089 H 0.94109 0.59415 0.72988
 H3090 H 0.95417 0.58087 0.69617
 H3091 H 0.89026 0.57361 0.67454
 H3092 H 0.87740 0.58651 0.70841
 C3093 C 0.38498 1.11525 0.77637
 C3094 C 0.39424 1.13290 0.78558
 C3095 C 0.38592 1.14136 0.80403
 C3096 C 0.36809 1.13230 0.81359
 C3097 C 0.35906 1.11435 0.80420
 C3098 C 0.36744 1.10595 0.78575
 C3099 C 0.39320 1.10695 0.75704
 C3100 C 0.39998 1.10020 0.74072
 C3101 C 0.40796 1.09242 0.72108
 C3102 C 0.41398 1.10655 0.70538
 C3103 C 0.42150 1.09910 0.68618
 C3104 C 0.42310 1.07737 0.68242
 C3105 C 0.41702 1.06328 0.69832
 C3106 C 0.40951 1.07077 0.71753
 H3107 H 0.40782 1.14022 0.77841
 H3108 H 0.39344 1.15511 0.81064
 H3109 H 0.34539 1.10681 0.81096
 H3110 H 0.36014 1.09228 0.77873
 H3111 H 0.41276 1.12334 0.70793
 H3112 H 0.42575 1.11034 0.67415
 H3113 H 0.41828 1.04647 0.69597
 H3114 H 0.40490 1.05969 0.72959
 C3115 C 0.38500 0.61499 1.27666
 C3116 C 0.39425 0.63264 1.28587
 C3117 C 0.38592 0.64110 1.30432
 C3118 C 0.36810 0.63202 1.31389
 C3119 C 0.35908 0.61408 1.30449
 C3120 C 0.36747 0.60569 1.28604
 C3121 C 0.39322 0.60664 1.25735
 C3122 C 0.39988 0.59972 1.24105
 C3123 C 0.40758 0.59157 1.22145
 C3124 C 0.42920 0.58997 1.21784
 C3125 C 0.43663 0.58235 1.19865
 C3126 C 0.42250 0.57621 1.18282
 C3127 C 0.40079 0.57781 1.18665
 C3128 C 0.39341 0.58544 1.20584
 H3129 H 0.40783 0.63997 1.27871
 H3130 H 0.39343 0.65485 1.31095
 H3131 H 0.34542 0.60651 1.31123
 H3132 H 0.36017 0.59201 1.27902
 H3133 H 0.44031 0.59465 1.22983
 H3134 H 0.45342 0.58108 1.19624
 H3135 H 0.38953 0.57350 1.17468
 H3136 H 0.37664 0.58669 1.20844
 C3137 C 1.11409 1.27751 0.88571
 C3138 C 1.13166 1.28686 0.89496
 C3139 C 1.14006 1.30533 0.88658
 C3140 C 1.13102 1.31479 0.86870
 C3141 C 1.11314 1.30527 0.85967
 C3142 C 1.10481 1.28679 0.86812
 C3143 C 1.10591 1.25813 0.89399
 C3144 C 1.09928 1.24176 0.90082
 C3145 C 1.09165 1.22206 0.90885
 C3146 C 1.10589 1.20638 0.91474
 C3147 C 1.09858 1.18709 0.92225
 C3148 C 1.07689 1.18322 0.92396
 C3149 C 1.06270 1.19911 0.91806
 C3150 C 1.07005 1.21840 0.91056
 H3151 H 1.13899 1.27978 0.90859
 H3152 H 1.15376 1.31205 0.89410
 H3153 H 1.10562 1.31194 0.84597
 H3154 H 1.09120 1.27965 0.86083
 H3155 H 1.12264 1.20901 0.91339
 H3156 H 1.10989 1.17507 0.92637
 H3157 H 1.04592 1.19667 0.91942
 H3158 H 1.05890 1.23045 0.90606
 C3159 C 1.11417 0.77723 0.38547
 C3160 C 1.13170 0.78664 0.39478
 C3161 C 1.14006 0.80513 0.38639
 C3162 C 1.13101 0.81446 0.36852
 C3163 C 1.11325 0.80496 0.35940
 C3164 C 1.10491 0.78646 0.36782
 C3165 C 1.10599 0.75785 0.39376
 C3166 C 1.09937 0.74148 0.40061
 C3167 C 1.09173 0.72179 0.40866
 C3168 C 1.10596 0.70614 0.41464
 C3169 C 1.09863 0.68686 0.42217
 C3170 C 1.07694 0.68297 0.42381
 C3171 C 1.06276 0.69883 0.41782
 C3172 C 1.07012 0.71812 0.41030
 H3173 H 1.13900 0.77960 0.40843
 H3174 H 1.15372 0.81199 0.39383
 H3175 H 1.10586 0.81169 0.34565
 H3176 H 1.09135 0.77928 0.36048
 H3177 H 1.12271 0.70878 0.41336
 H3178 H 1.10994 0.67486 0.42636
 H3179 H 1.04598 0.69638 0.41912
 H3180 H 1.05898 0.73014 0.40573
 C3181 C 0.61476 1.27725 0.38473
 C3182 C 0.63233 1.28663 0.39396
 C3183 C 0.64075 1.30507 0.38552
 C3184 C 0.63172 1.31446 0.36759
 C3185 C 0.61385 1.30491 0.35859
 C3186 C 0.60550 1.28646 0.36710
 C3187 C 0.60654 1.25793 0.39311
 C3188 C 0.59988 1.24161 0.40003
 C3189 C 0.59219 1.22197 0.40817
 C3190 C 0.60637 1.20631 0.41423
 C3191 C 0.59899 1.18708 0.42184
 C3192 C 0.57729 1.18326 0.42349
 C3193 C 0.56315 1.19913 0.41744
 C3194 C 0.57057 1.21837 0.40983
 H3195 H 0.63964 1.27960 0.40762
 H3196 H 0.65444 1.31181 0.39302
 H3197 H 0.60634 1.31153 0.34485
 H3198 H 0.59189 1.27930 0.35982
 H3199 H 0.62313 1.20890 0.41293
 H3200 H 0.61027 1.17507 0.42608
 H3201 H 0.54637 1.19674 0.41874
 H3202 H 0.55945 1.23040 0.40521
 C3203 C 0.61381 0.77730 0.88603
 C3204 C 0.60453 0.78664 0.86845
 C3205 C 0.61290 0.80514 0.86007
 C3206 C 0.63073 0.81454 0.86916
 C3207 C 0.63981 0.80511 0.88696
 C3208 C 0.63140 0.78661 0.89531
 C3209 C 0.60559 0.75792 0.89426
 C3210 C 0.59893 0.74154 0.90104
 C3211 C 0.59125 0.72183 0.90901
 C3212 C 0.56963 0.71820 0.91063
 C3213 C 0.56223 0.69890 0.91809
 C3214 C 0.57639 0.68300 0.92404
 C3215 C 0.59809 0.68685 0.92241
 C3216 C 0.60544 0.70614 0.91495
 H3217 H 0.59091 0.77954 0.86113
 H3218 H 0.60549 0.81195 0.84637
 H3219 H 0.65352 0.81189 0.89438
 H3220 H 0.63873 0.77949 0.90891
 H3221 H 0.55851 0.73025 0.90610
 H3222 H 0.54545 0.69647 0.91938
 H3223 H 0.60937 0.67482 0.92657
 H3224 H 0.62221 0.70876 0.91367
 C3225 C 0.88623 1.27733 1.11472
 C3226 C 0.89547 1.28663 1.13233
 C3227 C 0.88706 1.30510 1.14073
 C3228 C 0.86924 1.31451 1.13162
 C3229 C 0.86020 1.30511 1.11378
 C3230 C 0.86865 1.28665 1.10542
 C3231 C 0.89448 1.25797 1.10648
 C3232 C 0.90114 1.24161 1.09967
 C3233 C 0.90881 1.22192 1.09165
 C3234 C 0.93042 1.21828 1.08998
 C3235 C 0.93780 1.19900 1.08246
 C3236 C 0.92363 1.18312 1.07652
 C3237 C 0.90193 1.18697 1.07821
 C3238 C 0.89460 1.20624 1.08573
 H3239 H 0.90908 1.27953 1.13967
 H3240 H 0.89443 1.31189 1.15445
 H3241 H 0.84649 1.31190 1.10635
 H3242 H 0.86135 1.27955 1.09180
 H3243 H 0.94156 1.23033 1.09450
 H3244 H 0.95458 1.19658 1.08112
 H3245 H 0.89064 1.17496 1.07406
 H3246 H 0.87784 1.20886 1.08705
 C3247 C 0.88623 0.77725 0.61424
 C3248 C 0.89559 0.78660 0.63176
 C3249 C 0.88729 0.80515 0.64011
 C3250 C 0.86947 0.81459 0.63103
 C3251 C 0.86031 0.80514 0.61328
 C3252 C 0.86864 0.78660 0.60498
 C3253 C 0.89439 0.75784 0.60604
 C3254 C 0.90101 0.74144 0.59927
 C3255 C 0.90865 0.72171 0.59132
 C3256 C 0.93026 0.71802 0.58974
 C3257 C 0.93763 0.69871 0.58228
 C3258 C 0.92345 0.68284 0.57630
 C3259 C 0.90175 0.68675 0.57791
 C3260 C 0.89443 0.70605 0.58537
 H3261 H 0.90920 0.77948 0.63907
 H3262 H 0.89476 0.81197 0.65376
 H3263 H 0.84660 0.81196 0.60588
 H3264 H 0.86126 0.77948 0.59142
 H3265 H 0.94141 0.73004 0.59428
 H3266 H 0.95441 0.69625 0.58101
 H3267 H 0.89045 0.67475 0.57373
 H3268 H 0.87767 0.70871 0.58662
 C3269 C 0.38539 1.27699 0.61533
 C3270 C 0.39465 1.28618 0.63297
 C3271 C 0.38625 1.30458 0.64153
 C3272 C 0.36834 1.31410 0.63258
 C3273 C 0.35931 1.30473 0.61465
 C3274 C 0.36777 1.28634 0.60615
 C3275 C 0.39367 1.25772 0.60690
 C3276 C 0.40039 1.24145 0.59993
 C3277 C 0.40814 1.22186 0.59174
 C3278 C 0.42977 1.21832 0.59008
 C3279 C 0.43725 1.19913 0.58242
 C3280 C 0.42315 1.18324 0.57631
 C3281 C 0.40144 1.18700 0.57796
 C3282 C 0.39401 1.20618 0.58563
 H3283 H 0.40830 1.27905 0.64021
 H3284 H 0.39377 1.31118 0.65527
 H3285 H 0.34558 1.31145 0.60718
 H3286 H 0.36047 1.27933 0.59249
 H3287 H 0.44085 1.23036 0.59474
 H3288 H 0.45404 1.19678 0.58111
 H3289 H 0.39020 1.17498 0.57368
 H3290 H 0.37723 1.20873 0.58693
 C3291 C 0.38545 0.77703 1.11482
 C3292 C 0.36789 0.78643 1.10558
 C3293 C 0.35956 0.80495 1.11392
 C3294 C 0.36869 0.81442 1.13176
 C3295 C 0.38654 0.80485 1.14077
 C3296 C 0.39480 0.78632 1.13236
 C3297 C 0.39360 0.75764 1.10654
 C3298 C 0.40020 0.74127 1.09970
 C3299 C 0.40784 0.72157 1.09164
 C3300 C 0.39362 0.70594 1.08564
 C3301 C 0.40094 0.68666 1.07810
 C3302 C 0.42263 0.68277 1.07647
 C3303 C 0.43681 0.69862 1.08247
 C3304 C 0.42945 0.71790 1.09001
 H3305 H 0.36052 0.77935 1.09199
 H3306 H 0.34588 0.81170 1.10642
 H3307 H 0.39412 0.81152 1.15444
 H3308 H 0.40841 0.77916 1.13965
 H3309 H 0.37686 0.70858 1.08692
 H3310 H 0.38964 0.67467 1.07390
 H3311 H 0.45359 0.69617 1.08118
 H3312 H 0.44060 0.72991 1.09458
 C3313 C 0.88581 0.72298 0.88568
 C3314 C 0.86820 0.71366 0.89494
 C3315 C 0.85980 0.69518 0.88658
 C3316 C 0.86891 0.68575 0.86879
 C3317 C 0.88675 0.69517 0.85972
 C3318 C 0.89512 0.71365 0.86812
 C3319 C 0.89403 0.74234 0.89393
 C3320 C 0.90071 0.75871 0.90073
 C3321 C 0.90840 0.77840 0.90873
 C3322 C 0.89422 0.79410 0.91466
 C3323 C 0.90159 0.81336 0.92216
 C3324 C 0.92329 0.81719 0.92382
 C3325 C 0.93743 0.80128 0.91786
 C3326 C 0.93002 0.78201 0.91037
 H3327 H 0.86086 0.72077 0.90853
 H3328 H 0.84608 0.68839 0.89398
 H3329 H 0.89419 0.68836 0.84604
 H3330 H 0.90874 0.72076 0.86082
 H3331 H 0.87745 0.79150 0.91337
 H3332 H 0.89031 0.82540 0.92632
 H3333 H 0.95422 0.80368 0.91917
 H3334 H 0.94113 0.76994 0.90584
 C3335 C 0.88570 0.22284 0.38443
 C3336 C 0.89492 0.21360 0.36679
 C3337 C 0.88655 0.19513 0.35836
 C3338 C 0.86872 0.18559 0.36744
 C3339 C 0.85973 0.19502 0.38536
 C3340 C 0.86816 0.21348 0.39373
 C3341 C 0.89395 0.24218 0.39273
 C3342 C 0.90062 0.25852 0.39960
 C3343 C 0.90830 0.27817 0.40771
 C3344 C 0.92992 0.28175 0.40945
 C3345 C 0.93733 0.30098 0.41707
 C3346 C 0.92318 0.31687 0.42305
 C3347 C 0.90148 0.31307 0.42130
 C3348 C 0.89412 0.29385 0.41368
 H3349 H 0.90851 0.22074 0.35946
 H3350 H 0.89403 0.18848 0.34462
 H3351 H 0.84606 0.18828 0.39293
 H3352 H 0.86089 0.22053 0.40739
 H3353 H 0.94104 0.26970 0.40491
 H3354 H 0.95411 0.30336 0.41845
 H3355 H 0.89020 0.32510 0.42548
 H3356 H 0.87735 0.29127 0.41231
 C3357 C 0.38541 0.72350 0.38480
 C3358 C 0.36794 0.71400 0.39415
 C3359 C 0.35958 0.69552 0.38574
 C3360 C 0.36859 0.68627 0.36780
 C3361 C 0.38628 0.69587 0.35863
 C3362 C 0.39460 0.71435 0.36708
 C3363 C 0.39361 0.74285 0.39311
 C3364 C 0.40036 0.75919 0.39988
 C3365 C 0.40829 0.77885 0.40772
 C3366 C 0.40970 0.78239 0.42935
 C3367 C 0.41717 0.80162 0.43690
 C3368 C 0.42333 0.81756 0.42288
 C3369 C 0.42186 0.81382 0.40117
 C3370 C 0.41439 0.79460 0.39367
 H3371 H 0.36069 0.72097 0.40786
 H3372 H 0.34598 0.68859 0.39323
 H3373 H 0.39362 0.68920 0.34483
 H3374 H 0.40811 0.72159 0.35969
 H3375 H 0.40503 0.77029 0.44036
 H3376 H 0.41833 0.80396 0.45368
 H3377 H 0.42618 0.82589 0.38999
 H3378 H 0.41327 0.79206 0.37690
 C3379 C 0.38536 0.22290 0.88401
 C3380 C 0.39453 0.21367 0.86634
 C3381 C 0.38612 0.19523 0.85788
 C3382 C 0.36828 0.18570 0.86697
 C3383 C 0.35933 0.19512 0.88492
 C3384 C 0.36781 0.21355 0.89331
 C3385 C 0.39366 0.24220 0.89235
 C3386 C 0.40039 0.25850 0.89926
 C3387 C 0.40815 0.27810 0.90741
 C3388 C 0.42978 0.28163 0.90911
 C3389 C 0.43725 0.30082 0.91677
 C3390 C 0.42315 0.31673 0.92284
 C3391 C 0.40144 0.31299 0.92112
 C3392 C 0.39401 0.29381 0.91345
 H3393 H 0.40813 0.22080 0.85901
 H3394 H 0.39357 0.18860 0.84412
 H3395 H 0.34566 0.18840 0.89248
 H3396 H 0.36057 0.22058 0.90699
 H3397 H 0.44086 0.26957 0.90450
 H3398 H 0.45404 0.30315 0.91813
 H3399 H 0.39020 0.32502 0.92536
 H3400 H 0.37724 0.29127 0.91212
 C3401 C 1.11476 0.72321 1.11587
 C3402 C 1.10561 0.71396 1.13354
 C3403 C 1.11402 0.69549 1.14196
 C3404 C 1.13182 0.68595 1.13282
 C3405 C 1.14074 0.69539 1.11486
 C3406 C 1.13228 0.71385 1.10651
 C3407 C 1.10647 0.74254 1.10757
 C3408 C 1.09975 0.75886 1.10068
 C3409 C 1.09201 0.77849 1.09256
 C3410 C 1.07038 0.78204 1.09089
 C3411 C 1.06292 0.80125 1.08325
 C3412 C 1.07702 0.81715 1.07717
 C3413 C 1.09874 0.81338 1.07886
 C3414 C 1.10615 0.79419 1.08651
 H3415 H 1.09205 0.72110 1.14092
 H3416 H 1.10658 0.68884 1.15573
 H3417 H 1.15438 0.68866 1.10725
 H3418 H 1.13949 0.72090 1.09282
 H3419 H 1.05930 0.76999 1.09551
 H3420 H 1.04613 0.80360 1.08192
 H3421 H 1.10998 0.82542 1.07460
 H3422 H 1.12293 0.79163 1.08782
 C3423 C 1.11420 0.22246 0.61465
 C3424 C 1.10498 0.21315 0.63226
 C3425 C 1.11337 0.19467 0.64066
 C3426 C 1.13123 0.18517 0.63157
 C3427 C 1.14021 0.19466 0.61367
 C3428 C 1.13176 0.21314 0.60534
 C3429 C 1.10594 0.24182 0.60640
 C3430 C 1.09926 0.25818 0.59958
 C3431 C 1.09156 0.27786 0.59155
 C3432 C 1.06995 0.28145 0.58983
 C3433 C 1.06253 0.30071 0.58229
 C3434 C 1.07667 0.31664 0.57636
 C3435 C 1.09837 0.31284 0.57811
 C3436 C 1.10574 0.29358 0.58565
 H3437 H 1.09138 0.22026 0.63960
 H3438 H 1.10589 0.18797 0.65438
 H3439 H 1.15389 0.18797 0.60611
 H3440 H 1.13903 0.22024 0.59170
 H3441 H 1.05883 0.26937 0.59433
 H3442 H 1.04575 0.30309 0.58091
 H3443 H 1.10964 0.32489 0.57397
 H3444 H 1.12251 0.29100 0.58701
 C3445 C 0.61395 0.72286 0.61439
 C3446 C 0.63154 0.71355 0.60509
 C3447 C 0.63992 0.69502 0.61338
 C3448 C 0.63081 0.68555 0.63116
 C3449 C 0.61300 0.69496 0.64027
 C3450 C 0.60466 0.71349 0.63194
 C3451 C 0.60575 0.74228 0.60621
 C3452 C 0.59910 0.75868 0.59947
 C3453 C 0.59143 0.77841 0.59154
 C3454 C 0.60564 0.79414 0.58572
 C3455 C 0.59830 0.81343 0.57825
 C3456 C 0.57660 0.81727 0.57650
 C3457 C 0.56243 0.80134 0.58236
 C3458 C 0.56982 0.78204 0.58982
 H3459 H 0.63887 0.72070 0.59151
 H3460 H 0.65362 0.68823 0.60595
 H3461 H 0.60558 0.68812 0.65395
 H3462 H 0.59105 0.72059 0.63928
 H3463 H 0.62240 0.79153 0.58707
 H3464 H 0.60959 0.82548 0.57417
 H3465 H 0.54566 0.80375 0.58098
 H3466 H 0.55869 0.76996 0.59427
 C3467 C 0.61443 0.22270 1.11529
 C3468 C 0.60528 0.21345 1.13297
 C3469 C 0.61373 0.19502 1.14143
 C3470 C 0.63157 0.18552 1.13232
 C3471 C 0.64048 0.19495 1.11435
 C3472 C 0.63197 0.21337 1.10596
 C3473 C 0.60612 0.24201 1.10697
 C3474 C 0.59940 0.25833 1.10008
 C3475 C 0.59168 0.27796 1.09195
 C3476 C 0.57006 0.28151 1.09021
 C3477 C 0.56262 0.30073 1.08259
 C3478 C 0.57674 0.31665 1.07660
 C3479 C 0.59844 0.31289 1.07835
 C3480 C 0.60584 0.29367 1.08598
 H3481 H 0.59169 0.22057 1.14032
 H3482 H 0.60631 0.18838 1.15520
 H3483 H 0.65415 0.18825 1.10677
 H3484 H 0.63918 0.22042 1.09227
 H3485 H 0.55896 0.26943 1.09476
 H3486 H 0.54583 0.30308 1.08121
 H3487 H 0.60970 0.32493 1.07417
 H3488 H 0.62261 0.29112 1.08734
 C3489 C 1.27700 1.11471 0.88475
 C3490 C 1.28625 1.10544 0.86713
 C3491 C 1.30466 1.11386 0.85863
 C3492 C 1.31407 1.13173 0.86765
 C3493 C 1.30471 1.14081 0.88549
 C3494 C 1.28630 1.13235 0.89395
 C3495 C 1.25771 1.10641 0.89310
 C3496 C 1.24141 1.09968 0.89999
 C3497 C 1.22180 1.09191 0.90810
 C3498 C 1.21824 1.07027 0.90969
 C3499 C 1.19904 1.06278 0.91729
 C3500 C 1.18315 1.07688 0.92340
 C3501 C 1.18692 1.09861 0.92178
 C3502 C 1.20612 1.10605 0.91418
 H3503 H 1.27915 1.09179 0.85986
 H3504 H 1.31141 1.10645 0.84491
 H3505 H 1.31150 1.15455 0.89286
 H3506 H 1.27925 1.13967 0.90758
 H3507 H 1.23028 1.05918 0.90504
 H3508 H 1.19667 1.04598 0.91856
 H3509 H 1.17490 1.10985 0.92606
 H3510 H 1.20867 1.12284 0.91292
 C3511 C 1.27698 0.61423 0.38498
 C3512 C 1.28623 0.60501 0.36733
 C3513 C 1.30465 0.61345 0.35886
 C3514 C 1.31406 0.63129 0.36794
 C3515 C 1.30471 0.64032 0.38581
 C3516 C 1.28630 0.63184 0.39424
 C3517 C 1.25768 0.60594 0.39330
 C3518 C 1.24137 0.59923 0.40017
 C3519 C 1.22174 0.59149 0.40825
 C3520 C 1.21814 0.56985 0.40983
 C3521 C 1.19891 0.56240 0.41739
 C3522 C 1.18304 0.57653 0.42347
 C3523 C 1.18686 0.59825 0.42188
 C3524 C 1.20607 0.60566 0.41431
 H3525 H 1.27913 0.59138 0.36002
 H3526 H 1.31140 0.60608 0.34512
 H3527 H 1.31150 0.65404 0.39321
 H3528 H 1.27924 0.63913 0.40789
 H3529 H 1.23017 0.55875 0.40519
 H3530 H 1.19652 0.54560 0.41865
 H3531 H 1.17485 0.60951 0.42614
 H3532 H 1.20866 0.62244 0.41307
 C3533 C 0.77744 1.11462 0.38520
 C3534 C 0.78671 1.10533 0.36760
 C3535 C 0.80514 1.11372 0.35912
 C3536 C 0.81455 1.13159 0.36814
 C3537 C 0.80519 1.14069 0.38597
 C3538 C 0.78676 1.13226 0.39441
 C3539 C 0.75813 1.10638 0.39354
 C3540 C 0.74180 1.09969 0.40040
 C3541 C 0.72216 1.09197 0.40848
 C3542 C 0.71854 1.07034 0.41007
 C3543 C 0.69930 1.06290 0.41761
 C3544 C 0.68343 1.07705 0.42367
 C3545 C 0.68727 1.09876 0.42207
 C3546 C 0.70650 1.10615 0.41452
 H3547 H 0.77960 1.09168 0.36034
 H3548 H 0.81189 1.10629 0.34541
 H3549 H 0.81198 1.15443 0.39333
 H3550 H 0.77970 1.13960 0.40802
 H3551 H 0.73057 1.05923 0.40545
 H3552 H 0.69690 1.04611 0.41888
 H3553 H 0.67526 1.11004 0.42631
 H3554 H 0.70910 1.12293 0.41326
 C3555 C 0.77686 0.61415 0.88566
 C3556 C 0.78616 0.60485 0.86808
 C3557 C 0.80465 0.61320 0.85968
 C3558 C 0.81410 0.63101 0.86876
 C3559 C 0.80470 0.64012 0.88656
 C3560 C 0.78621 0.63174 0.89493
 C3561 C 0.75750 0.60593 0.89393
 C3562 C 0.74115 0.59926 0.90076
 C3563 C 0.72149 0.59155 0.90878
 C3564 C 0.71787 0.56991 0.91037
 C3565 C 0.69861 0.56248 0.91787
 C3566 C 0.68273 0.57662 0.92390
 C3567 C 0.68656 0.59833 0.92230
 C3568 C 0.70581 0.60573 0.91479
 H3569 H 0.77904 0.59124 0.86076
 H3570 H 0.81144 0.60577 0.84598
 H3571 H 0.81151 0.65382 0.89398
 H3572 H 0.77912 0.63908 0.90853
 H3573 H 0.72991 0.55880 0.90578
 H3574 H 0.69620 0.54568 0.91913
 H3575 H 0.67455 0.60961 0.92652
 H3576 H 0.70842 0.62250 0.91354
 C3577 C 1.27747 0.88561 1.11439
 C3578 C 1.28693 0.89497 1.13185
 C3579 C 1.30541 0.88655 1.14020
 C3580 C 1.31467 0.86860 1.13119
 C3581 C 1.30512 0.85944 1.11350
 C3582 C 1.28664 0.86790 1.10518
 C3583 C 1.25809 0.89388 1.10622
 C3584 C 1.24171 0.90059 1.09951
 C3585 C 1.22200 0.90831 1.09162
 C3586 C 1.21837 0.92995 1.09008
 C3587 C 1.19907 0.93739 1.08268
 C3588 C 1.18317 0.92324 1.07670
 C3589 C 1.18702 0.90153 1.07827
 C3590 C 1.20630 0.89413 1.08568
 H3591 H 1.27994 0.90868 1.13911
 H3592 H 1.31231 0.89403 1.15381
 H3593 H 1.31180 0.84564 1.10615
 H3594 H 1.27942 0.86051 1.09168
 H3595 H 1.23043 0.94106 1.09462
 H3596 H 1.19665 0.95418 1.08143
 H3597 H 1.17499 0.89025 1.07410
 H3598 H 1.20892 0.87735 1.08690
 C3599 C 1.27685 0.38496 0.61543
 C3600 C 1.28612 0.39417 0.63307
 C3601 C 1.30458 0.38576 0.64148
 C3602 C 1.31402 0.36796 0.63235
 C3603 C 1.30464 0.35893 0.61449
 C3604 C 1.28619 0.36738 0.60612
 C3605 C 1.25753 0.39325 0.60712
 C3606 C 1.24122 0.39997 0.60025
 C3607 C 1.22160 0.40772 0.59215
 C3608 C 1.21801 0.42936 0.59057
 C3609 C 1.19880 0.43682 0.58296
 C3610 C 1.18294 0.42271 0.57682
 C3611 C 1.18674 0.40099 0.57842
 C3612 C 1.20594 0.39356 0.58603
 H3613 H 1.27901 0.40777 0.64041
 H3614 H 1.31134 0.39312 0.65522
 H3615 H 1.31145 0.34525 0.60705
 H3616 H 1.27912 0.36011 0.59247
 H3617 H 1.23004 0.44045 0.59523
 H3618 H 1.19642 0.45363 0.58169
 H3619 H 1.17474 0.38973 0.57411
 H3620 H 1.20852 0.37678 0.58728
 C3621 C 0.77751 0.88640 0.61431
 C3622 C 0.78695 0.89575 0.63178
 C3623 C 0.80547 0.88739 0.64009
 C3624 C 0.81480 0.86950 0.63102
 C3625 C 0.80527 0.86035 0.61332
 C3626 C 0.78675 0.86874 0.60505
 C3627 C 0.75809 0.89460 0.60618
 C3628 C 0.74168 0.90127 0.59950
 C3629 C 0.72193 0.90893 0.59165
 C3630 C 0.71822 0.93056 0.59015
 C3631 C 0.69890 0.93795 0.58276
 C3632 C 0.68305 0.92376 0.57676
 C3633 C 0.68697 0.90205 0.57831
 C3634 C 0.70628 0.89471 0.58570
 H3635 H 0.77990 0.90941 0.63909
 H3636 H 0.81236 0.89486 0.65371
 H3637 H 0.81200 0.84659 0.60593
 H3638 H 0.77954 0.86136 0.59153
 H3639 H 0.73024 0.94171 0.59470
 H3640 H 0.69642 0.95474 0.58154
 H3641 H 0.67498 0.89074 0.57411
 H3642 H 0.70895 0.87794 0.58689
 C3643 C 0.77696 0.38577 1.11473
 C3644 C 0.78643 0.36828 1.10540
 C3645 C 0.80495 0.35997 1.11376
 C3646 C 0.81425 0.36905 1.13164
 C3647 C 0.80468 0.38677 1.14078
 C3648 C 0.78616 0.39504 1.13237
 C3649 C 0.75756 0.39391 1.10649
 C3650 C 0.74116 0.40061 1.09980
 C3651 C 0.72144 0.40847 1.09207
 C3652 C 0.71787 0.41014 1.07047
 C3653 C 0.69857 0.41753 1.06302
 C3654 C 0.68260 0.42337 1.07712
 C3655 C 0.68638 0.42166 1.09881
 C3656 C 0.70566 0.41426 1.10621
 H3657 H 0.77942 0.36096 1.09174
 H3658 H 0.81187 0.34634 1.10631
 H3659 H 0.81139 0.39417 1.15452
 H3660 H 0.77894 0.40857 1.13974
 H3661 H 0.72999 0.40572 1.05939
 H3662 H 0.69621 0.41888 1.04625
 H3663 H 0.67429 0.42572 1.11005
 H3664 H 0.70823 0.41294 1.12296
 C3665 C 0.72312 1.11491 1.11457
 C3666 C 0.71394 1.10564 1.13223
 C3667 C 0.69548 1.11396 1.14072
 C3668 C 0.68596 1.13175 1.13165
 C3669 C 0.69523 1.14084 1.11375
 C3670 C 0.71369 1.13247 1.10530
 C3671 C 0.74246 1.10671 1.10627
 C3672 C 0.75881 1.09994 1.09955
 C3673 C 0.77849 1.09198 1.09182
 C3674 C 0.79423 1.08609 1.10596
 C3675 C 0.81348 1.07859 1.09857
 C3676 C 0.81725 1.07688 1.07688
 C3677 C 0.80131 1.08281 1.06278
 C3678 C 0.78205 1.09030 1.07022
 H3679 H 0.72113 1.09205 1.13955
 H3680 H 0.68880 1.10655 1.15448
 H3681 H 0.68835 1.15452 1.10635
 H3682 H 0.72069 1.13979 1.09164
 H3683 H 0.79167 1.08741 1.12272
 H3684 H 0.82554 1.07445 1.10981
 H3685 H 0.80367 1.08146 1.04601
 H3686 H 0.76996 1.09480 1.05914
 C3687 C 0.72279 0.61386 0.61414
 C3688 C 0.71345 0.60451 0.63168
 C3689 C 0.69496 0.61285 0.64008
 C3690 C 0.68556 0.63071 0.63103
 C3691 C 0.69499 0.63987 0.61325
 C3692 C 0.71348 0.63149 0.60490
 C3693 C 0.74216 0.60566 0.60591
 C3694 C 0.75853 0.59900 0.59913
 C3695 C 0.77823 0.59131 0.59117
 C3696 C 0.78188 0.56969 0.58957
 C3697 C 0.80116 0.56228 0.58212
 C3698 C 0.81705 0.57644 0.57615
 C3699 C 0.81319 0.59816 0.57776
 C3700 C 0.79391 0.60552 0.58522
 H3701 H 0.72055 0.59087 0.63898
 H3702 H 0.68816 0.60539 0.65375
 H3703 H 0.68820 0.65360 0.60587
 H3704 H 0.72059 0.63886 0.59133
 H3705 H 0.76983 0.55855 0.59411
 H3706 H 0.80359 0.54549 0.58084
 H3707 H 0.82520 0.60945 0.57359
 H3708 H 0.79129 0.62229 0.58648
 C3709 C 0.22273 1.11445 0.61390
 C3710 C 0.21344 1.10510 0.63147
 C3711 C 0.19497 1.11343 0.63991
 C3712 C 0.18553 1.13129 0.63089
 C3713 C 0.19491 1.14045 0.61310
 C3714 C 0.21338 1.13208 0.60469
 C3715 C 0.24209 1.10627 0.60562
 C3716 C 0.25845 1.09963 0.59881
 C3717 C 0.27814 1.09196 0.59082
 C3718 C 0.28181 1.07033 0.58925
 C3719 C 0.30109 1.06293 0.58179
 C3720 C 0.31696 1.07711 0.57580
 C3721 C 0.31308 1.09882 0.57738
 C3722 C 0.29380 1.10617 0.58484
 H3723 H 0.22057 1.09146 0.63874
 H3724 H 0.18820 1.10596 0.65360
 H3725 H 0.18810 1.15419 0.60574
 H3726 H 0.22046 1.13947 0.59110
 H3727 H 0.26978 1.05919 0.59382
 H3728 H 0.30354 1.04614 0.58054
 H3729 H 0.32509 1.11011 0.57319
 H3730 H 0.29116 1.12294 0.58609
 C3731 C 0.22295 0.61483 1.11475
 C3732 C 0.21365 0.63250 1.10556
 C3733 C 0.19527 0.64097 1.11406
 C3734 C 0.18594 0.63189 1.13192
 C3735 C 0.19534 0.61399 1.14092
 C3736 C 0.21372 0.60555 1.13238
 C3737 C 0.24222 0.60649 1.10639
 C3738 C 0.25850 0.59960 1.09963
 C3739 C 0.27810 0.59149 1.09185
 C3740 C 0.28162 0.58986 1.07024
 C3741 C 0.30081 0.58225 1.06274
 C3742 C 0.31673 0.57616 1.07680
 C3743 C 0.31300 0.57782 1.09850
 C3744 C 0.29382 0.58543 1.10595
 H3745 H 0.22069 0.63982 1.09192
 H3746 H 0.18848 0.65473 1.10672
 H3747 H 0.18861 0.60658 1.15465
 H3748 H 0.22081 0.59189 1.13963
 H3749 H 0.26955 0.59448 1.05918
 H3750 H 0.30314 0.58094 1.04597
 H3751 H 0.32505 0.57356 1.10971
 H3752 H 0.29130 0.58672 1.12271
 C3753 C 0.72288 0.88598 0.88603
 C3754 C 0.71362 0.89527 0.86842
 C3755 C 0.69511 0.88698 0.86003
 C3756 C 0.68560 0.86921 0.86915
 C3757 C 0.69496 0.86010 0.88699
 C3758 C 0.71347 0.86844 0.89534
 C3759 C 0.74227 0.89416 0.89424
 C3760 C 0.75866 0.90089 0.90090
 C3761 C 0.77837 0.90881 0.90859
 C3762 C 0.79409 0.91468 0.89442
 C3763 C 0.81337 0.92213 0.90178
 C3764 C 0.81720 0.92380 0.92346
 C3765 C 0.80128 0.91789 0.93759
 C3766 C 0.78199 0.91045 0.93019
 H3767 H 0.72079 0.90885 0.86107
 H3768 H 0.68836 0.89440 0.84631
 H3769 H 0.68810 0.84643 0.89443
 H3770 H 0.72053 0.86110 0.90897
 H3771 H 0.79149 0.91338 0.87767
 H3772 H 0.82542 0.92625 0.89051
 H3773 H 0.80368 0.91922 0.95435
 H3774 H 0.76991 0.90597 0.94129
 C3775 C 0.72309 0.38537 0.38490
 C3776 C 0.71383 0.39458 0.36725
 C3777 C 0.69538 0.38619 0.35883
 C3778 C 0.68593 0.36840 0.36797
 C3779 C 0.69527 0.35937 0.38585
 C3780 C 0.71373 0.36781 0.39423
 C3781 C 0.74242 0.39364 0.39316
 C3782 C 0.75876 0.40043 0.39988
 C3783 C 0.77842 0.40840 0.40764
 C3784 C 0.79419 0.41431 0.39354
 C3785 C 0.81343 0.42178 0.40098
 C3786 C 0.81717 0.42344 0.42268
 C3787 C 0.80120 0.41750 0.43674
 C3788 C 0.78195 0.41004 0.42925
 H3789 H 0.72097 0.40817 0.35989
 H3790 H 0.68864 0.39356 0.34507
 H3791 H 0.68845 0.34569 0.39330
 H3792 H 0.72078 0.36053 0.40789
 H3793 H 0.79166 0.41302 0.37678
 H3794 H 0.82551 0.42592 0.38977
 H3795 H 0.80353 0.41881 0.45352
 H3796 H 0.76984 0.40552 0.44031
 C3797 C 0.22290 0.88621 0.38542
 C3798 C 0.21363 0.89544 0.36779
 C3799 C 0.19516 0.88708 0.35939
 C3800 C 0.18570 0.86929 0.36853
 C3801 C 0.19506 0.86025 0.38640
 C3802 C 0.21353 0.86866 0.39476
 C3803 C 0.24226 0.89444 0.39364
 C3804 C 0.25863 0.90122 0.40030
 C3805 C 0.27833 0.90918 0.40800
 C3806 C 0.29405 0.91504 0.39383
 C3807 C 0.31333 0.92248 0.40120
 C3808 C 0.31714 0.92416 0.42288
 C3809 C 0.30121 0.91828 0.43701
 C3810 C 0.28192 0.91084 0.42959
 H3811 H 0.22078 0.90902 0.36042
 H3812 H 0.18841 0.89445 0.34564
 H3813 H 0.18822 0.84657 0.39385
 H3814 H 0.22059 0.86136 0.40841
 H3815 H 0.29147 0.91372 0.37708
 H3816 H 0.32539 0.92659 0.38994
 H3817 H 0.30360 0.91961 0.45377
 H3818 H 0.26984 0.90636 0.44069
 C3819 C 0.22260 0.38547 0.88591
 C3820 C 0.21329 0.39476 0.86833
 C3821 C 0.19478 0.38644 0.85997
 C3822 C 0.18532 0.36865 0.86910
 C3823 C 0.19472 0.35955 0.88692
 C3824 C 0.21324 0.36791 0.89524
 C3825 C 0.24200 0.39366 0.89408
 C3826 C 0.25840 0.40040 0.90070
 C3827 C 0.27813 0.40831 0.90833
 C3828 C 0.29381 0.41419 0.89412
 C3829 C 0.31312 0.42161 0.90144
 C3830 C 0.31701 0.42325 0.92311
 C3831 C 0.30112 0.41735 0.93728
 C3832 C 0.28181 0.40993 0.92992
 H3833 H 0.22043 0.40835 0.86097
 H3834 H 0.18800 0.39386 0.84626
 H3835 H 0.18790 0.34586 0.89436
 H3836 H 0.22033 0.36058 0.90884
 H3837 H 0.29117 0.41291 0.87738
 H3838 H 0.32514 0.42574 0.89014
 H3839 H 0.30357 0.41865 0.95404
 H3840 H 0.26976 0.40544 0.94105
   
