data_POSCAR
  _audit_creation_date              2014-09-24
  _audit_creation_method            'ToBaCCo'
  _symmetry_space_group_name_H-M    'P1'
  _symmetry_Int_Tables_number       1
  _symmetry_cell_setting            triclinic
  loop_
  _symmetry_equiv_pos_as_xyz
 x,y,z
_cell_length_a 62.7887
_cell_length_b 60.7699
_cell_length_c 65.7948
_cell_angle_alpha 89.692100
_cell_angle_beta 90.200400
_cell_angle_gamma 90.010800
loop_
  _atom_site_label
  _atom_site_type_symbol
  _atom_site_fract_x
  _atom_site_fract_y
  _atom_site_fract_z
C1 C 0.40430 -0.02864 0.25184
 C2 C 0.41564 -0.01031 0.24461
 C3 C 0.42691 -0.01175 0.22632
 C4 C 0.42706 -0.03143 0.21536
 C5 C 0.41555 -0.04967 0.22250
 C6 C 0.40404 -0.04826 0.24071
 C7 C 0.41563 0.01041 0.25610
 C8 C 0.42679 0.01182 0.27454
 C9 C 0.42690 0.03151 0.28552
 C10 C 0.41546 0.04978 0.27821
 C11 C 0.40412 0.04838 0.25984
 C12 C 0.40441 0.02878 0.24872
 H13 H 0.39539 -0.02742 0.26589
 H14 H 0.43567 0.00241 0.22072
 H15 H 0.43546 -0.00240 0.28021
 H16 H 0.39558 0.02763 0.23457
 H17 H 0.41538 -0.06477 0.21378
 H18 H 0.41519 0.06493 0.28685
 C19 C 0.09498 -0.02847 0.74821
 C20 C 0.08422 -0.00978 0.75527
 C21 C 0.07367 -0.01060 0.77400
 C22 C 0.07368 -0.03002 0.78556
 C23 C 0.08466 -0.04859 0.77857
 C24 C 0.09543 -0.04778 0.75993
 C25 C 0.08403 0.01065 0.74312
 C26 C 0.07336 0.01131 0.72438
 C27 C 0.07296 0.03076 0.71285
 C28 C 0.08369 0.04952 0.71988
 C29 C 0.09459 0.04886 0.73853
 C30 C 0.09453 0.02951 0.75022
 H31 H 0.10332 -0.02780 0.73381
 H32 H 0.06531 0.00380 0.77946
 H33 H 0.06521 -0.00327 0.71893
 H34 H 0.10298 0.02895 0.76461
 H35 H 0.08497 -0.06352 0.78767
 H36 H 0.08371 0.06452 0.71085
 C37 C 0.59715 0.47120 0.25027
 C38 C 0.58616 0.49003 0.25666
 C39 C 0.57545 0.48980 0.27533
 C40 C 0.57554 0.47081 0.28748
 C41 C 0.58676 0.45212 0.28117
 C42 C 0.59766 0.45234 0.26259
 C43 C 0.58588 0.50997 0.24385
 C44 C 0.57518 0.50983 0.22511
 C45 C 0.57482 0.52875 0.21288
 C46 C 0.58559 0.54776 0.21919
 C47 C 0.59652 0.54791 0.23782
 C48 C 0.59644 0.52910 0.25024
 H49 H 0.60561 0.47141 0.23593
 H50 H 0.56690 0.50432 0.28027
 H51 H 0.56700 0.49507 0.22017
 H52 H 0.60494 0.52916 0.26461
 H53 H 0.58713 0.43754 0.29073
 H54 H 0.58563 0.56230 0.20955
 C55 C 0.90441 0.47087 0.75214
 C56 C 0.91556 0.48938 0.74504
 C57 C 0.92652 0.48834 0.72656
 C58 C 0.92653 0.46888 0.71526
 C59 C 0.91516 0.45048 0.72226
 C60 C 0.90399 0.45150 0.74068
 C61 C 0.91560 0.50990 0.75684
 C62 C 0.92656 0.51091 0.77540
 C63 C 0.92670 0.53042 0.78666
 C64 C 0.91546 0.54889 0.77951
 C65 C 0.90430 0.54788 0.76101
 C66 C 0.90459 0.52847 0.74961
 H67 H 0.89570 0.47175 0.76632
 H68 H 0.93514 0.50264 0.72106
 H69 H 0.93508 0.49653 0.78095
 H70 H 0.89590 0.52762 0.73537
 H71 H 0.91482 0.43554 0.71333
 H72 H 0.91519 0.56390 0.78835
 C73 C 0.25822 0.35656 1.02282
 C74 C 0.25869 0.37141 1.00638
 C75 C 0.27656 0.38510 1.00366
 C76 C 0.29380 0.38389 1.01730
 C77 C 0.29314 0.36905 1.03365
 C78 C 0.27541 0.35537 1.03647
 C79 C 0.24077 0.37196 0.99174
 C80 C 0.22367 0.38664 0.99438
 C81 C 0.20633 0.38640 0.98081
 C82 C 0.20615 0.37153 0.96462
 C83 C 0.22310 0.35688 0.96190
 C84 C 0.24038 0.35709 0.97546
 H85 H 0.24447 0.34599 1.02492
 H86 H 0.27707 0.39648 0.99093
 H87 H 0.22379 0.39802 1.00702
 H88 H 0.25346 0.34567 0.97342
 H89 H 0.30645 0.36819 1.04421
 H90 H 0.19278 0.37132 0.95413
 C91 C 0.74149 0.14323 1.02607
 C92 C 0.74205 0.12768 1.01035
 C93 C 0.72529 0.11245 1.00834
 C94 C 0.70809 0.11285 1.02195
 C95 C 0.70775 0.12837 1.03762
 C96 C 0.72440 0.14355 1.03974
 C97 C 0.75972 0.12819 0.99557
 C98 C 0.77738 0.11410 0.99784
 C99 C 0.79447 0.11543 0.98414
 C100 C 0.79380 0.13072 0.96814
 C101 C 0.77626 0.14472 0.96576
 C102 C 0.75928 0.14350 0.97950
 H103 H 0.75435 0.15505 1.02758
 H104 H 0.72552 0.10059 0.99610
 H105 H 0.77789 0.10239 1.01032
 H106 H 0.74572 0.15439 0.97770
 H107 H 0.69447 0.12864 1.04814
 H108 H 0.80693 0.13170 0.95750
 C109 C 0.24127 0.64349 0.52427
 C110 C 0.24171 0.62818 0.50834
 C111 C 0.22461 0.61341 0.50589
 C112 C 0.20723 0.61403 0.51930
 C113 C 0.20703 0.62933 0.53514
 C114 C 0.22398 0.64404 0.53768
 C115 C 0.25962 0.62847 0.49380
 C116 C 0.27726 0.61444 0.49651
 C117 C 0.29457 0.61559 0.48304
 C118 C 0.29416 0.63068 0.46687
 C119 C 0.27666 0.64465 0.46408
 C120 C 0.25943 0.64357 0.47755
 H121 H 0.25434 0.65497 0.52615
 H122 H 0.22474 0.60173 0.49351
 H123 H 0.27758 0.60290 0.50912
 H124 H 0.24591 0.65444 0.47544
 H125 H 0.19364 0.62982 0.54551
 H126 H 0.30748 0.63155 0.45643
 C127 C 0.75917 0.85693 0.52210
 C128 C 0.75949 0.87209 0.50590
 C129 C 0.77707 0.88627 0.50360
 C130 C 0.79419 0.88523 0.51743
 C131 C 0.79362 0.87006 0.53356
 C132 C 0.77617 0.85594 0.53594
 C133 C 0.74174 0.87241 0.49107
 C134 C 0.72456 0.88707 0.49336
 C135 C 0.70731 0.88651 0.47968
 C136 C 0.70734 0.87137 0.46369
 C137 C 0.72438 0.85677 0.46130
 C138 C 0.74153 0.85726 0.47500
 H139 H 0.74568 0.84596 0.52391
 H140 H 0.77744 0.89786 0.49102
 H141 H 0.72452 0.89863 0.50585
 H142 H 0.75467 0.84586 0.47322
 H143 H 0.80675 0.86924 0.54433
 H144 H 0.69405 0.87091 0.45312
 C145 C -0.02571 0.24128 0.31556
 C146 C -0.00527 0.23914 0.32395
 C147 C 0.00052 0.21957 0.33393
 C148 C -0.01423 0.20246 0.33589
 C149 C -0.03449 0.20448 0.32722
 C150 C -0.04024 0.22391 0.31716
 C151 C 0.00896 0.25826 0.32507
 C152 C 0.00263 0.27679 0.33615
 C153 C 0.01725 0.29358 0.34017
 C154 C 0.03795 0.29230 0.33259
 C155 C 0.04421 0.27394 0.32143
 C156 C 0.02982 0.25688 0.31771
 H157 H -0.03049 0.25673 0.30857
 H158 H 0.01589 0.21838 0.34145
 H159 H -0.01312 0.27738 0.34283
 H160 H 0.03502 0.24221 0.30983
 H161 H -0.04619 0.19152 0.32941
 H162 H 0.04950 0.30494 0.33635
 C163 C -0.02779 0.75833 0.18504
 C164 C -0.00726 0.75985 0.17690
 C165 C -0.00132 0.77866 0.16585
 C166 C -0.01601 0.79559 0.16259
 C167 C -0.03637 0.79421 0.17096
 C168 C -0.04228 0.77556 0.18211
 C169 C 0.00682 0.74058 0.17688
 C170 C 0.00073 0.72188 0.16589
 C171 C 0.01537 0.70494 0.16261
 C172 C 0.03583 0.70624 0.17094
 C173 C 0.04186 0.72478 0.18201
 C174 C 0.02745 0.74201 0.18493
 H175 H -0.03270 0.74339 0.19283
 H176 H 0.01411 0.77931 0.15851
 H177 H -0.01482 0.72135 0.15865
 H178 H 0.03251 0.75685 0.19265
 H179 H -0.04799 0.80700 0.16771
 H180 H 0.04747 0.69351 0.16777
 C181 C 0.46998 0.25668 0.68463
 C182 C 0.49075 0.25830 0.67704
 C183 C 0.49688 0.27708 0.66605
 C184 C 0.48218 0.29390 0.66232
 C185 C 0.46160 0.29242 0.67017
 C186 C 0.45550 0.27381 0.68125
 C187 C 0.50502 0.23918 0.67763
 C188 C 0.49947 0.22027 0.66670
 C189 C 0.51441 0.20351 0.66394
 C190 C 0.53462 0.20517 0.67272
 C191 C 0.54013 0.22391 0.68375
 C192 C 0.52542 0.24097 0.68617
 H193 H 0.46490 0.24179 0.69238
 H194 H 0.51253 0.27783 0.65914
 H195 H 0.48418 0.21942 0.65902
 H196 H 0.53010 0.25598 0.69383
 H197 H 0.44998 0.30510 0.66664
 H198 H 0.54648 0.19259 0.66986
 C199 C 0.47128 0.74288 0.81733
 C200 C 0.49204 0.74069 0.82494
 C201 C 0.49794 0.72142 0.83538
 C202 C 0.48301 0.70468 0.83849
 C203 C 0.46242 0.70677 0.83058
 C204 C 0.45658 0.72587 0.82010
 C205 C 0.50669 0.75951 0.82458
 C206 C 0.50109 0.77892 0.83470
 C207 C 0.51613 0.79564 0.83724
 C208 C 0.53652 0.79340 0.82911
 C209 C 0.54207 0.77416 0.81891
 C210 C 0.52725 0.75718 0.81668
 H211 H 0.46641 0.75806 0.80992
 H212 H 0.51364 0.72018 0.84224
 H213 H 0.48561 0.78031 0.84184
 H214 H 0.53192 0.74188 0.80953
 H215 H 0.45060 0.69412 0.83356
 H216 H 0.54842 0.80603 0.83177
 C217 C -0.27928 0.64834 0.99900
 C218 C -0.26055 0.65852 1.00591
 C219 C -0.26033 0.66884 1.02492
 C220 C -0.27873 0.66923 1.03688
 C221 C -0.29734 0.65882 1.03005
 C222 C -0.29762 0.64824 1.01112
 C223 C -0.24127 0.65873 0.99316
 C224 C -0.24177 0.66889 0.97398
 C225 C -0.22343 0.66960 0.96193
 C226 C -0.20458 0.65963 0.96888
 C227 C -0.20405 0.64919 0.98795
 C228 C -0.22231 0.64899 1.00015
 H229 H -0.27942 0.64022 0.98435
 H230 H -0.24594 0.67688 1.03024
 H231 H -0.25639 0.67652 0.96861
 H232 H -0.22191 0.64094 1.01490
 H233 H -0.31149 0.65889 1.03947
 H234 H -0.19042 0.65987 0.95948
 C235 C -0.27871 0.35051 0.50007
 C236 C -0.25964 0.34074 0.49358
 C237 C -0.25888 0.33041 0.47457
 C238 C -0.27705 0.32962 0.46222
 C239 C -0.29598 0.33962 0.46862
 C240 C -0.29681 0.35019 0.48752
 C241 C -0.24057 0.34097 0.50674
 C242 C -0.24128 0.33116 0.52606
 C243 C -0.22313 0.33086 0.53848
 C244 C -0.20427 0.34088 0.53178
 C245 C -0.20352 0.35096 0.51256
 C246 C -0.22159 0.35075 0.49998
 H247 H -0.27929 0.35862 0.51470
 H248 H -0.24425 0.32268 0.46958
 H249 H -0.25587 0.32347 0.53129
 H250 H -0.22102 0.35852 0.48512
 H251 H -0.30995 0.33922 0.45888
 H252 H -0.19031 0.34095 0.54152
 C253 C 0.22279 -0.15016 -0.00080
 C254 C 0.24173 -0.16018 -0.00732
 C255 C 0.24229 -0.17066 -0.02626
 C256 C 0.22400 -0.17140 -0.03851
 C257 C 0.20521 -0.16117 -0.03203
 C258 C 0.20462 -0.15043 -0.01323
 C259 C 0.26084 -0.16010 0.00579
 C260 C 0.26011 -0.16990 0.02512
 C261 C 0.27829 -0.17033 0.03752
 C262 C 0.29720 -0.16042 0.03077
 C263 C 0.29797 -0.15035 0.01154
 C264 C 0.27987 -0.15045 -0.00100
 H265 H 0.22232 -0.14192 0.01377
 H266 H 0.25684 -0.17857 -0.03124
 H267 H 0.24544 -0.17747 0.03033
 H268 H 0.28045 -0.14266 -0.01586
 H269 H 0.19109 -0.16149 -0.04158
 H270 H 0.31122 -0.16039 0.04046
 C271 C 0.22163 1.14890 0.49905
 C272 C 0.24029 1.15919 0.50601
 C273 C 0.24030 1.16979 0.52490
 C274 C 0.22176 1.17034 0.53666
 C275 C 0.20323 1.15982 0.52976
 C276 C 0.20318 1.14898 0.51099
 C277 C 0.25971 1.15918 0.49346
 C278 C 0.25949 1.16916 0.47419
 C279 C 0.27796 1.16954 0.46230
 C280 C 0.29663 1.15946 0.46951
 C281 C 0.29690 1.14924 0.48867
 C282 C 0.27852 1.14934 0.50072
 H283 H 0.22160 1.14055 0.48452
 H284 H 0.25463 1.17789 0.53027
 H285 H 0.24499 1.17684 0.46861
 H286 H 0.27871 1.14144 0.51553
 H287 H 0.18896 1.15999 0.53899
 H288 H 0.31087 1.15942 0.46021
 C289 C 0.09771 0.51040 0.22797
 C290 C 0.11279 0.50967 0.24379
 C291 C 0.12742 0.52704 0.24602
 C292 C 0.12685 0.54505 0.23255
 C293 C 0.11183 0.54555 0.21677
 C294 C 0.09731 0.52827 0.21441
 C295 C 0.11282 0.49095 0.25822
 C296 C 0.12748 0.47361 0.25607
 C297 C 0.12695 0.45559 0.26953
 C298 C 0.11194 0.45505 0.28521
 C299 C 0.09740 0.47230 0.28750
 C300 C 0.09775 0.49018 0.27395
 H301 H 0.08644 0.49703 0.22616
 H302 H 0.13900 0.52662 0.25827
 H303 H 0.13904 0.47406 0.24389
 H304 H 0.08646 0.50352 0.27569
 H305 H 0.11149 0.55938 0.20628
 H306 H 0.11162 0.44121 0.29569
 C307 C -0.09657 0.98977 0.22503
 C308 C -0.11173 0.99059 0.24066
 C309 C -0.12642 0.97326 0.24294
 C310 C -0.12585 0.95520 0.22969
 C311 C -0.11072 0.95461 0.21408
 C312 C -0.09612 0.97186 0.21168
 C313 C -0.11149 1.00912 0.25510
 C314 C -0.12573 1.02685 0.25282
 C315 C -0.12492 1.04465 0.26638
 C316 C -0.11000 1.04455 0.28229
 C317 C -0.09588 1.02689 0.28468
 C318 C -0.09656 1.00927 0.27104
 H319 H -0.08521 1.00310 0.22329
 H320 H -0.13798 0.97376 0.25513
 H321 H -0.13721 1.02682 0.24047
 H322 H -0.08563 0.99559 0.27290
 H323 H -0.11031 0.94071 0.20378
 H324 H -0.10942 1.05815 0.29291
 C325 C 0.40161 0.49076 -0.27441
 C326 C 0.38622 0.49177 -0.25899
 C327 C 0.37125 0.47467 -0.25699
 C328 C 0.37179 0.45663 -0.27025
 C329 C 0.38712 0.45586 -0.28565
 C330 C 0.40199 0.47289 -0.28781
 C331 C 0.38648 0.51029 -0.24452
 C332 C 0.37189 0.52776 -0.24647
 C333 C 0.37272 0.54556 -0.23291
 C334 C 0.38797 0.54568 -0.21728
 C335 C 0.40242 0.52826 -0.21520
 C336 C 0.40175 0.51067 -0.22888
 H337 H 0.41319 0.50391 -0.27596
 H338 H 0.35950 0.47525 -0.24497
 H339 H 0.36016 0.52756 -0.25860
 H340 H 0.41294 0.49718 -0.22726
 H341 H 0.38744 0.44196 -0.29594
 H342 H 0.38855 0.55926 -0.20665
 C343 C 0.59746 0.00896 -0.27383
 C344 C 0.61193 0.00859 -0.25750
 C345 C 0.62605 0.02631 -0.25476
 C346 C 0.62564 0.04429 -0.26825
 C347 C 0.61120 0.04448 -0.28452
 C348 C 0.59711 0.02688 -0.28737
 C349 C 0.61172 -0.01003 -0.24299
 C350 C 0.62563 -0.02796 -0.24544
 C351 C 0.62495 -0.04579 -0.23177
 C352 C 0.61045 -0.04562 -0.21564
 C353 C 0.59661 -0.02779 -0.21310
 C354 C 0.59721 -0.01005 -0.22679
 H355 H 0.58654 -0.00468 -0.27594
 H356 H 0.63714 0.02617 -0.24209
 H357 H 0.63681 -0.02805 -0.25795
 H358 H 0.58652 0.00378 -0.22481
 H359 H 0.61096 0.05837 -0.29497
 H360 H 0.61002 -0.05930 -0.20499
 C361 C -0.00879 0.22502 0.92477
 C362 C -0.01150 0.24596 0.91608
 C363 C -0.03089 0.25145 0.90671
 C364 C -0.04727 0.23592 0.90570
 C365 C -0.04467 0.21523 0.91467
 C366 C -0.02544 0.20976 0.92411
 C367 C 0.00671 0.26098 0.91409
 C368 C 0.02460 0.25433 0.90297
 C369 C 0.04083 0.26940 0.89876
 C370 C 0.03959 0.29085 0.90608
 C371 C 0.02186 0.29749 0.91720
 C372 C 0.00533 0.28267 0.92115
 H373 H 0.00645 0.22040 0.93132
 H374 H -0.03264 0.26713 0.89893
 H375 H 0.02529 0.23790 0.89665
 H376 H -0.00873 0.28806 0.92926
 H377 H -0.05711 0.20293 0.91320
 H378 H 0.05200 0.30264 0.90241
 C379 C 0.50680 0.21727 0.08089
 C380 C 0.50842 0.23907 0.08761
 C381 C 0.52672 0.24590 0.09815
 C382 C 0.54308 0.23090 0.10215
 C383 C 0.54158 0.20932 0.09517
 C384 C 0.52346 0.20251 0.08462
 C385 C 0.49014 0.25404 0.08587
 C386 C 0.47085 0.24836 0.09522
 C387 C 0.45435 0.26372 0.09621
 C388 C 0.45673 0.28446 0.08732
 C389 C 0.47586 0.29013 0.07793
 C390 C 0.49263 0.27503 0.07723
 H391 H 0.49246 0.21173 0.07324
 H392 H 0.52764 0.26243 0.10423
 H393 H 0.46925 0.23262 0.10291
 H394 H 0.50775 0.27980 0.07062
 H395 H 0.55410 0.19758 0.09871
 H396 H 0.44416 0.29661 0.08874
 C397 C 0.00471 0.71979 0.57903
 C398 C 0.00626 0.74136 0.58637
 C399 C 0.02477 0.74807 0.59664
 C400 C 0.04142 0.73319 0.59976
 C401 C 0.04000 0.71186 0.59215
 C402 C 0.02167 0.70516 0.58186
 C403 C -0.01221 0.75615 0.58555
 C404 C -0.03111 0.75005 0.59543
 C405 C -0.04767 0.76528 0.59734
 C406 C -0.04574 0.78626 0.58881
 C407 C -0.02700 0.79232 0.57893
 C408 C -0.01018 0.77738 0.57733
 H409 H -0.00978 0.71431 0.57162
 H410 H 0.02563 0.76437 0.60322
 H411 H -0.03228 0.73407 0.60278
 H412 H 0.00467 0.78244 0.57035
 H413 H 0.05273 0.70017 0.59506
 H414 H -0.05830 0.79832 0.59086
 C415 C 0.49394 0.72413 0.42286
 C416 C 0.49145 0.74508 0.41414
 C417 C 0.47233 0.75056 0.40425
 C418 C 0.45599 0.73504 0.40282
 C419 C 0.45835 0.71433 0.41181
 C420 C 0.47731 0.70887 0.42175
 C421 C 0.50958 0.76028 0.41297
 C422 C 0.52800 0.75397 0.40250
 C423 C 0.54414 0.76931 0.39888
 C424 C 0.54230 0.79073 0.40621
 C425 C 0.52404 0.79702 0.41672
 C426 C 0.50761 0.78191 0.42005
 H427 H 0.50894 0.71954 0.42989
 H428 H 0.47075 0.76631 0.39655
 H429 H 0.52915 0.73760 0.39609
 H430 H 0.49313 0.78708 0.42757
 H431 H 0.44590 0.70207 0.41011
 H432 H 0.55458 0.80278 0.40288
 Zr433 Zr 0.01627 -0.03783 1.03177
 O434 O 0.03958 -0.02500 1.05179
 O435 O 0.01113 -0.06912 1.04391
 O436 O 0.00388 -0.03516 1.06152
 O437 O 0.05165 -0.05293 0.99415
 O438 O -0.02734 -0.01639 1.05701
 O439 O 0.04581 -0.05428 1.02840
 O440 O -0.01636 -0.08264 1.02485
 O441 O -0.01675 -0.04151 1.02853
 O442 O 0.01129 -0.05618 1.00538
 O443 O 0.00379 -0.00575 1.03057
 O444 O 0.03127 -0.01990 1.00832
 Zr445 Zr -0.02056 -0.00941 0.97569
 Zr446 Zr -0.02901 -0.00966 1.02567
 Zr447 Zr 0.02449 -0.03768 0.98180
 Zr448 Zr -0.02147 -0.05884 1.00169
 O449 O 0.05226 -0.02257 0.97009
 O450 O -0.05134 -0.06605 1.01513
 O451 O -0.00830 -0.04178 0.97678
 O452 O -0.03522 -0.02751 0.99915
 O453 O -0.01577 0.00899 1.00213
 O454 O 0.01238 -0.00585 0.97918
 C455 C -0.00298 -0.08364 1.03971
 C456 C 0.05694 -0.05827 1.01239
 C457 C -0.01350 -0.02648 1.06807
 O458 O -0.05829 -0.02361 1.03502
 O459 O -0.05440 0.00898 1.01355
 O460 O -0.04910 0.00861 0.97922
 C461 C -0.05955 0.01417 0.99520
 O462 O 0.04223 0.01619 1.02728
 Zr463 Zr 0.01712 0.01135 1.00603
 O464 O -0.01611 0.02260 0.96444
 O465 O -0.03049 0.02047 1.04156
 O466 O 0.00863 0.03876 1.02410
 O467 O 0.04505 0.02126 0.99042
 O468 O 0.00836 0.03722 0.98633
 C469 C -0.00466 0.03845 0.97128
 O470 O -0.04484 -0.02150 0.95632
 O471 O 0.02754 -0.06896 0.96812
 O472 O -0.00943 -0.01431 0.94571
 O473 O 0.02073 -0.03483 0.95016
 O474 O -0.01211 -0.08821 0.98692
 O475 O -0.04311 -0.06585 0.97767
 C476 C 0.00684 -0.02495 0.93903
 H477 H 0.01779 -0.07100 1.00609
 H478 H -0.05071 -0.02898 0.99663
 H479 H 0.01906 0.00209 0.96767
 H480 H 0.00674 0.00222 1.04336
 H481 H -0.05340 -0.08220 1.01448
 H482 H -0.06498 -0.01296 1.04440
 H483 H -0.04413 0.02044 1.04908
 H484 H 0.01736 0.05143 1.01953
 H485 H -0.02138 -0.10018 0.99208
 H486 H 0.04115 -0.06886 0.96054
 H487 H 0.05907 -0.03341 0.96098
 H488 H 0.04651 0.03738 0.99215
 H489 H -0.05002 -0.08024 0.98022
 H490 H -0.04811 -0.00971 0.94629
 H491 H 0.04292 -0.03674 1.06184
 H492 H 0.04708 0.03168 1.02664
 Zr493 Zr 0.51590 0.46198 0.53320
 O494 O 0.53912 0.47463 0.55340
 O495 O 0.51061 0.43066 0.54521
 O496 O 0.50333 0.46464 0.56288
 O497 O 0.55147 0.44688 0.49571
 O498 O 0.47218 0.48351 0.55822
 O499 O 0.54544 0.44546 0.52993
 O500 O 0.48328 0.41724 0.52589
 O501 O 0.48290 0.45840 0.52975
 O502 O 0.51105 0.44374 0.50672
 O503 O 0.50350 0.49410 0.53199
 O504 O 0.53110 0.47995 0.50989
 Zr505 Zr 0.47952 0.49067 0.47696
 Zr506 Zr 0.47072 0.49029 0.52688
 Zr507 Zr 0.52445 0.46228 0.48327
 Zr508 Zr 0.47831 0.44117 0.50282
 O509 O 0.55236 0.47732 0.47180
 O510 O 0.44838 0.43399 0.51613
 O511 O 0.49169 0.45826 0.47803
 O512 O 0.46465 0.47254 0.50028
 O513 O 0.48416 0.50899 0.50347
 O514 O 0.51243 0.49414 0.48067
 C515 C 0.49655 0.41616 0.54084
 C516 C 0.55664 0.44147 0.51396
 C517 C 0.48593 0.47337 0.56934
 O518 O 0.44137 0.47635 0.53602
 O519 O 0.44544 0.50902 0.51463
 O520 O 0.45099 0.50876 0.48034
 C521 C 0.44042 0.51428 0.49627
 O522 O 0.54193 0.51603 0.52908
 Zr523 Zr 0.51703 0.51125 0.50760
 O524 O 0.48415 0.52267 0.46579
 O525 O 0.46917 0.52038 0.54284
 O526 O 0.50842 0.53867 0.52560
 O527 O 0.54516 0.52105 0.49225
 O528 O 0.50857 0.53716 0.48782
 C529 C 0.49567 0.53845 0.47267
 O530 O 0.45535 0.47864 0.45744
 O531 O 0.52746 0.43104 0.46949
 O532 O 0.49086 0.48592 0.44704
 O533 O 0.52096 0.46532 0.45162
 O534 O 0.48770 0.41186 0.48796
 O535 O 0.45675 0.43428 0.47871
 C536 C 0.50718 0.47531 0.44043
 H537 H 0.51752 0.42889 0.50742
 H538 H 0.44918 0.47112 0.49766
 H539 H 0.51924 0.50209 0.46924
 H540 H 0.50638 0.50203 0.54482
 H541 H 0.44628 0.41784 0.51543
 H542 H 0.43461 0.48701 0.54534
 H543 H 0.45546 0.52036 0.55026
 H544 H 0.51721 0.55132 0.52111
 H545 H 0.47841 0.39987 0.49305
 H546 H 0.54108 0.43115 0.46194
 H547 H 0.55918 0.46650 0.46267
 H548 H 0.54665 0.53717 0.49397
 H549 H 0.44982 0.41988 0.48119
 H550 H 0.45215 0.49045 0.44741
 H551 H 0.54236 0.46283 0.56342
 H552 H 0.54683 0.53151 0.52847
 Zr553 Zr 0.48706 1.03917 0.53063
 O554 O 0.46427 1.02493 0.55035
 O555 O 0.49170 1.06995 0.54371
 O556 O 0.49983 1.03532 0.56022
 O557 O 0.45093 1.05563 0.49365
 O558 O 0.53131 1.01735 0.55507
 O559 O 0.45715 1.05503 0.52790
 O560 O 0.51872 1.08494 0.52503
 O561 O 0.51996 1.04360 0.52744
 O562 O 0.49141 1.05893 0.50486
 O563 O 0.50002 1.00739 0.52837
 O564 O 0.47207 1.02220 0.50665
 Zr565 Zr 0.52367 1.01425 0.47361
 Zr566 Zr 0.53269 1.01213 0.52352
 Zr567 Zr 0.47822 1.04144 0.48071
 Zr568 Zr 0.52409 1.06234 0.50117
 O569 O 0.45048 1.02655 0.46866
 O570 O 0.55393 1.06941 0.51483
 O571 O 0.51090 1.04633 0.47574
 O572 O 0.53833 1.03139 0.49759
 O573 O 0.51948 0.99443 0.49942
 O574 O 0.49083 1.00999 0.47709
 C575 C 0.50546 1.08497 0.53991
 C576 C 0.44573 1.05969 0.51213
 C577 C 0.51742 1.02667 0.56645
 O578 O 0.56190 1.02609 0.53310
 O579 O 0.55812 0.99436 0.51072
 O580 O 0.55242 0.99632 0.47645
 C581 C 0.56309 0.99007 0.49222
 O582 O 0.46205 0.98485 0.52461
 Zr583 Zr 0.48668 0.99133 0.50333
 O584 O 0.51947 0.98290 0.46113
 O585 O 0.53484 0.98135 0.53857
 O586 O 0.49606 0.96312 0.52023
 O587 O 0.45857 0.98180 0.48772
 O588 O 0.49535 0.96679 0.48246
 C589 C 0.50814 0.96661 0.46727
 O590 O 0.54758 1.02784 0.45472
 O591 O 0.47474 1.07331 0.46803
 O592 O 0.51210 1.02024 0.44387
 O593 O 0.48157 1.03991 0.44895
 O594 O 0.51414 1.09223 0.48733
 O595 O 0.54541 1.07089 0.47739
 C596 C 0.49549 1.03071 0.43752
 H597 H 0.48465 1.07358 0.50608
 H598 H 0.55377 1.03322 0.49507
 H599 H 0.48408 1.00251 0.46539
 H600 H 0.49735 0.99876 0.54090
 H601 H 0.55571 1.08561 0.51473
 H602 H 0.56888 1.01511 0.54210
 H603 H 0.54860 0.98124 0.54597
 H604 H 0.48751 0.95053 0.51524
 H605 H 0.52327 1.10410 0.49285
 H606 H 0.46110 1.07337 0.46041
 H607 H 0.44344 1.03773 0.45992
 H608 H 0.45738 0.96558 0.48887
 H609 H 0.55214 1.08525 0.48042
 H610 H 0.55097 1.01667 0.44427
 H611 H 0.46082 1.03611 0.56077
 H612 H 0.45760 0.96926 0.52357
 Zr613 Zr -0.01367 0.54005 1.03165
 O614 O -0.03650 0.52580 1.05133
 O615 O -0.00940 0.57102 1.04449
 O616 O -0.00110 0.53662 1.06135
 O617 O -0.04966 0.55580 0.99428
 O618 O 0.03061 0.51896 1.05657
 O619 O -0.04369 0.55563 1.02857
 O620 O 0.01758 0.58608 1.02581
 O621 O 0.01921 0.54479 1.02863
 O622 O -0.00932 0.55957 1.00572
 O623 O -0.00038 0.50838 1.02976
 O624 O -0.02832 0.52265 1.00774
 Zr625 Zr 0.02359 0.51493 0.97511
 Zr626 Zr 0.03228 0.51340 1.02508
 Zr627 Zr -0.02217 0.54168 0.98166
 Zr628 Zr 0.02335 0.56328 1.00221
 O629 O -0.04972 0.52639 0.96964
 O630 O 0.05302 0.57077 1.01603
 O631 O 0.01049 0.54689 0.97685
 O632 O 0.03793 0.53245 0.99902
 O633 O 0.01941 0.49534 1.00106
 O634 O -0.00923 0.51032 0.97842
 C635 C 0.00423 0.58614 1.04063
 C636 C -0.05501 0.56004 1.01267
 C637 C 0.01654 0.52823 1.06778
 O638 O 0.06131 0.52773 1.03469
 O639 O 0.05789 0.49563 1.01259
 O640 O 0.05243 0.49725 0.97827
 C641 C 0.06301 0.49118 0.99416
 O642 O -0.03816 0.48543 1.02591
 Zr643 Zr -0.01338 0.49190 1.00479
 O644 O 0.01987 0.48342 0.96290
 O645 O 0.03460 0.48283 1.04048
 O646 O -0.00388 0.46401 1.02208
 O647 O -0.04121 0.48181 0.98903
 O648 O -0.00417 0.46721 0.98426
 C649 C 0.00876 0.46702 0.96917
 O650 O 0.04749 0.52865 0.95628
 O651 O -0.02582 0.57336 0.96861
 O652 O 0.01213 0.52036 0.94525
 O653 O -0.01864 0.53973 0.94993
 O654 O 0.01326 0.59295 0.98806
 O655 O 0.04475 0.57180 0.97849
 C656 C -0.00458 0.53049 0.93869
 H657 H -0.01621 0.57417 1.00675
 H658 H 0.05337 0.53439 0.99658
 H659 H -0.01581 0.50263 0.96676
 H660 H -0.00307 0.49986 1.04236
 H661 H 0.05464 0.58699 1.01581
 H662 H 0.06833 0.51690 1.04382
 H663 H 0.04833 0.48293 1.04795
 H664 H -0.01224 0.45127 1.01714
 H665 H 0.02228 0.60495 0.99351
 H666 H -0.03941 0.57320 0.96091
 H667 H -0.05681 0.53739 0.96074
 H668 H -0.04221 0.46559 0.99037
 H669 H 0.05141 0.58620 0.98148
 H670 H 0.05108 0.51742 0.94596
 H671 H -0.04013 0.53706 1.06161
 H672 H -0.04242 0.46978 1.02503
 Zr673 Zr -0.01365 0.46090 0.46955
 O674 O -0.03654 0.47472 0.44953
 O675 O -0.00917 0.42979 0.45712
 O676 O -0.00106 0.46408 0.43991
 O677 O -0.04963 0.44548 0.50680
 O678 O 0.03050 0.48209 0.44476
 O679 O -0.04358 0.44516 0.47257
 O680 O 0.01781 0.41512 0.47624
 O681 O 0.01925 0.45643 0.47289
 O682 O -0.00923 0.44176 0.49574
 O683 O -0.00057 0.49269 0.47121
 O684 O -0.02845 0.47851 0.49315
 Zr685 Zr 0.02336 0.48705 0.52613
 Zr686 Zr 0.03211 0.48796 0.47620
 Zr687 Zr -0.02222 0.45989 0.51948
 Zr688 Zr 0.02346 0.43833 0.49956
 O689 O -0.04983 0.47519 0.53118
 O690 O 0.05317 0.43087 0.48600
 O691 O 0.01046 0.45498 0.52462
 O692 O 0.03783 0.46930 0.50253
 O693 O 0.01911 0.50626 0.49991
 O694 O -0.00948 0.49138 0.52251
 C695 C 0.00449 0.41477 0.46132
 C696 C -0.05492 0.44093 0.48841
 C697 C 0.01650 0.47259 0.43353
 O698 O 0.06120 0.47369 0.46689
 O699 O 0.05770 0.50590 0.48868
 O700 O 0.05219 0.50475 0.52298
 C701 C 0.06280 0.51059 0.50711
 O702 O -0.03851 0.51541 0.47450
 Zr703 Zr -0.01370 0.50941 0.49588
 O704 O 0.01945 0.51876 0.53787
 O705 O 0.03426 0.51842 0.46062
 O706 O -0.00443 0.53714 0.47833
 O707 O -0.04162 0.51943 0.51135
 O708 O -0.00467 0.53447 0.51613
 C709 C 0.00826 0.53498 0.53129
 O710 O 0.04729 0.47382 0.54537
 O711 O -0.02579 0.42834 0.53281
 O712 O 0.01191 0.48182 0.55596
 O713 O -0.01870 0.46211 0.55120
 O714 O 0.01354 0.40883 0.51406
 O715 O 0.04494 0.43027 0.52349
 C716 C -0.00469 0.47153 0.56248
 H717 H -0.01604 0.42711 0.49483
 H718 H 0.05327 0.46747 0.50510
 H719 H -0.01611 0.49917 0.53405
 H720 H -0.00329 0.50104 0.45850
 H721 H 0.05490 0.41466 0.48641
 H722 H 0.06817 0.48446 0.45771
 H723 H 0.04797 0.51832 0.45320
 H724 H -0.01290 0.54988 0.48305
 H725 H 0.02259 0.39679 0.50882
 H726 H -0.03942 0.42850 0.54035
 H727 H -0.05689 0.46425 0.54012
 H728 H -0.04274 0.53563 0.50986
 H729 H 0.05167 0.41586 0.52071
 H730 H 0.05078 0.48524 0.55558
 H731 H -0.04007 0.46330 0.43933
 H732 H -0.04295 0.53102 0.47526
 Zr733 Zr 0.48757 -0.03927 -0.03006
 O734 O 0.46452 -0.02480 -0.04951
 O735 O 0.49221 -0.06982 -0.04356
 O736 O 0.49999 -0.03495 -0.05964
 O737 O 0.45182 -0.05618 0.00682
 O738 O 0.53154 -0.01707 -0.05436
 O739 O 0.45774 -0.05526 -0.02744
 O740 O 0.51947 -0.08492 -0.02510
 O741 O 0.52050 -0.04374 -0.02696
 O742 O 0.49215 -0.05933 -0.00449
 O743 O 0.50060 -0.00753 -0.02751
 O744 O 0.47283 -0.02255 -0.00589
 Zr745 Zr 0.52473 -0.01502 0.02714
 Zr746 Zr 0.53331 -0.01233 -0.02275
 Zr747 Zr 0.47920 -0.04209 0.01985
 Zr748 Zr 0.52486 -0.06277 -0.00087
 O749 O 0.45153 -0.02737 0.03203
 O750 O 0.55468 -0.06963 -0.01449
 O751 O 0.51192 -0.04706 0.02473
 O752 O 0.53916 -0.03189 0.00298
 O753 O 0.52035 0.00510 0.00153
 O754 O 0.49187 -0.01067 0.02374
 C755 C 0.50613 -0.08477 -0.04001
 C756 C 0.44647 -0.06010 -0.01168
 C757 C 0.51750 -0.02618 -0.06583
 O758 O 0.56234 -0.02627 -0.03266
 O759 O 0.55899 0.00507 -0.00980
 O760 O 0.55361 0.00266 0.02446
 C761 C 0.56419 0.00902 0.00875
 O762 O 0.46257 0.01489 -0.02340
 Zr763 Zr 0.48750 0.00827 -0.00231
 O764 O 0.52089 0.01630 0.03975
 O765 O 0.53541 0.01868 -0.03737
 O766 O 0.49659 0.03663 -0.01909
 O767 O 0.45964 0.01769 0.01357
 O768 O 0.49657 0.03265 0.01862
 C769 C 0.50962 0.03271 0.03370
 O770 O 0.54863 -0.02892 0.04600
 O771 O 0.47588 -0.07408 0.03228
 O772 O 0.51329 -0.02110 0.05682
 O773 O 0.48275 -0.04078 0.05163
 O774 O 0.51501 -0.09293 0.01246
 O775 O 0.54623 -0.07167 0.02290
 C776 C 0.49672 -0.03157 0.06311
 H777 H 0.48540 -0.07397 -0.00586
 H778 H 0.55461 -0.03379 0.00546
 H779 H 0.48525 -0.00327 0.03550
 H780 H 0.49781 0.00126 -0.03995
 H781 H 0.55645 -0.08583 -0.01459
 H782 H 0.56928 -0.01517 -0.04151
 H783 H 0.54908 0.01885 -0.04485
 H784 H 0.48810 0.04916 -0.01395
 H785 H 0.52416 -0.10467 0.00681
 H786 H 0.46225 -0.07427 0.03983
 H787 H 0.44454 -0.03865 0.04065
 H788 H 0.45847 0.03392 0.01253
 H789 H 0.55299 -0.08596 0.01971
 H790 H 0.55215 -0.01785 0.05652
 H791 H 0.46100 -0.03582 -0.06007
 H792 H 0.45809 0.03044 -0.02219
 Zr793 Zr 0.51548 0.53604 -0.03351
 O794 O 0.53861 0.52289 -0.05338
 O795 O 0.51031 0.56714 -0.04607
 O796 O 0.50293 0.53289 -0.06323
 O797 O 0.55125 0.55169 0.00392
 O798 O 0.47168 0.51428 -0.05848
 O799 O 0.54511 0.55236 -0.03034
 O800 O 0.48300 0.58095 -0.02714
 O801 O 0.48251 0.53983 -0.03030
 O802 O 0.51078 0.55478 -0.00734
 O803 O 0.50295 0.50399 -0.03191
 O804 O 0.53064 0.51842 -0.00985
 Zr805 Zr 0.47907 0.50852 0.02289
 Zr806 Zr 0.47020 0.50804 -0.02706
 Zr807 Zr 0.52414 0.53661 0.01646
 Zr808 Zr 0.47805 0.55754 -0.00366
 O809 O 0.55204 0.52168 0.02828
 O810 O 0.44808 0.56462 -0.01715
 O811 O 0.49140 0.54084 0.02145
 O812 O 0.46423 0.52629 -0.00077
 O813 O 0.48359 0.48971 -0.00331
 O814 O 0.51197 0.50484 0.01943
 C815 C 0.49623 0.58172 -0.04204
 C816 C 0.55642 0.55659 -0.01443
 C817 C 0.48550 0.52412 -0.06967
 O818 O 0.44089 0.52193 -0.03656
 O819 O 0.44490 0.48958 -0.01467
 O820 O 0.45048 0.49046 0.01964
 C821 C 0.43989 0.48466 0.00374
 O822 O 0.54137 0.48201 -0.02840
 Zr823 Zr 0.51645 0.48722 -0.00719
 O824 O 0.48346 0.47669 0.03453
 O825 O 0.46849 0.47770 -0.04260
 O826 O 0.50774 0.45957 -0.02490
 O827 O 0.54448 0.47747 0.00851
 O828 O 0.50775 0.46168 0.01286
 C829 C 0.49480 0.46071 0.02791
 O830 O 0.45501 0.52111 0.04207
 O831 O 0.52719 0.56807 0.02981
 O832 O 0.49051 0.51356 0.05277
 O833 O 0.52072 0.53394 0.04817
 O834 O 0.48756 0.58715 0.01068
 O835 O 0.45666 0.56494 0.02031
 C836 C 0.50691 0.52410 0.05937
 H837 H 0.51731 0.56958 -0.00826
 H838 H 0.44877 0.52781 0.00175
 H839 H 0.51874 0.49701 0.03099
 H840 H 0.50579 0.49583 -0.04461
 H841 H 0.44607 0.58078 -0.01673
 H842 H 0.43408 0.51114 -0.04577
 H843 H 0.45478 0.47766 -0.05011
 H844 H 0.51645 0.44694 -0.02016
 H845 H 0.47823 0.59903 0.00539
 H846 H 0.54081 0.56805 0.03746
 H847 H 0.55892 0.53264 0.03727
 H848 H 0.54586 0.46131 0.00701
 H849 H 0.44969 0.57927 0.01755
 H850 H 0.45173 0.50950 0.05226
 H851 H 0.54193 0.53450 -0.06355
 H852 H 0.54618 0.46651 -0.02757
 Zr853 Zr 0.01486 1.03639 0.46750
 O854 O 0.03805 1.02244 0.44818
 O855 O 0.01014 1.06718 0.45414
 O856 O 0.00258 1.03257 0.43776
 O857 O 0.05040 1.05274 0.50488
 O858 O -0.02892 1.01446 0.44263
 O859 O 0.04462 1.05247 0.47056
 O860 O -0.01728 1.08179 0.47239
 O861 O -0.01811 1.04064 0.47029
 O862 O 0.01008 1.05594 0.49315
 O863 O 0.00198 1.00454 0.46974
 O864 O 0.02959 1.01930 0.49172
 Zr865 Zr -0.02244 1.01090 0.52417
 Zr866 Zr -0.03078 1.00910 0.47417
 Zr867 Zr 0.02300 1.03831 0.51752
 Zr868 Zr -0.02266 1.05917 0.49644
 O869 O 0.05063 1.02344 0.52995
 O870 O -0.05245 1.06620 0.48256
 O871 O -0.00976 1.04304 0.52207
 O872 O -0.03684 1.02815 0.49995
 O873 O -0.01782 0.99131 0.49848
 O874 O 0.01046 1.00676 0.52112
 C875 C -0.00388 1.08198 0.45762
 C876 C 0.05580 1.05704 0.48646
 C877 C -0.01489 1.02385 0.43136
 O878 O -0.05986 1.02302 0.46409
 O879 O -0.05635 0.99120 0.48673
 O880 O -0.05116 0.99302 0.52107
 C881 C -0.06160 0.98683 0.50520
 O882 O 0.04017 0.98231 0.47419
 Zr883 Zr 0.01505 0.98835 0.49499
 O884 O -0.01855 0.97934 0.53659
 O885 O -0.03261 0.97836 0.45931
 O886 O 0.00636 0.96027 0.47783
 O887 O 0.04277 0.97872 0.51127
 O888 O 0.00577 0.96345 0.51549
 C889 C -0.00736 0.96304 0.53041
 O890 O -0.04655 1.02432 0.54279
 O891 O 0.02620 1.07010 0.53013
 O892 O -0.01121 1.01659 0.55402
 O893 O 0.01925 1.03653 0.54923
 O894 O -0.01296 1.08908 0.51010
 O895 O -0.04419 1.06749 0.52004
 C896 C 0.00525 1.02712 0.56053
 H897 H 0.01677 1.07064 0.49193
 H898 H -0.05232 1.02990 0.50227
 H899 H 0.01702 0.99917 0.53293
 H900 H 0.00487 0.99600 0.45728
 H901 H -0.05428 1.08239 0.48257
 H902 H -0.06669 1.01205 0.45508
 H903 H -0.04626 0.97824 0.45170
 H904 H 0.01493 0.94772 0.48297
 H905 H -0.02210 1.10091 0.50441
 H906 H 0.03973 1.07015 0.53793
 H907 H 0.05753 1.03458 0.53874
 H908 H 0.04397 0.96251 0.51019
 H909 H -0.05094 1.08184 0.51690
 H910 H -0.05007 1.01305 0.55321
 H911 H 0.04160 1.03372 0.43777
 H912 H 0.04493 0.96683 0.47552
 Zr913 Zr 0.71736 0.26493 0.21703
 O914 O 0.72842 0.28855 0.19579
 O915 O 0.68668 0.25866 0.20639
 O916 O 0.71911 0.25110 0.18762
 O917 O 0.70342 0.30247 0.25400
 O918 O 0.73814 0.21944 0.19249
 O919 O 0.70081 0.29514 0.22005
 O920 O 0.67468 0.23113 0.22720
 O921 O 0.71463 0.23088 0.22147
 O922 O 0.70084 0.26036 0.24427
 O923 O 0.74871 0.25277 0.21750
 O924 O 0.73530 0.28167 0.23928
 Zr925 Zr 0.74779 0.22956 0.27326
 Zr926 Zr 0.74582 0.21901 0.22361
 Zr927 Zr 0.71933 0.27527 0.26665
 Zr928 Zr 0.69908 0.22662 0.24912
 O929 O 0.73389 0.30465 0.27681
 O930 O 0.69223 0.19539 0.23644
 O931 O 0.71622 0.24152 0.27292
 O932 O 0.72976 0.21316 0.25096
 O933 O 0.76444 0.23392 0.24601
 O934 O 0.75045 0.26351 0.26857
 C935 C 0.67284 0.24439 0.21197
 C936 C 0.69729 0.30709 0.23584
 C937 C 0.72769 0.23312 0.18133
 O938 O 0.73268 0.18811 0.21582
 O939 O 0.76505 0.19376 0.23588
 O940 O 0.76586 0.20045 0.27001
 C941 C 0.77095 0.18927 0.25418
 O942 O 0.76922 0.29312 0.21879
 Zr943 Zr 0.76591 0.26778 0.24094
 O944 O 0.77906 0.23516 0.28317
 O945 O 0.77434 0.21754 0.20664
 O946 O 0.79187 0.25905 0.22208
 O947 O 0.77555 0.29729 0.25538
 O948 O 0.79193 0.25972 0.25983
 C949 C 0.79394 0.24684 0.27526
 O950 O 0.73736 0.20486 0.29375
 O951 O 0.68959 0.27846 0.28141
 O952 O 0.74385 0.24194 0.30303
 O953 O 0.72325 0.27254 0.29825
 O954 O 0.67126 0.23597 0.26509
 O955 O 0.69381 0.20466 0.27385
 C956 C 0.73340 0.25874 0.30951
 H957 H 0.68634 0.26674 0.24400
 H958 H 0.72880 0.19722 0.25403
 H959 H 0.75842 0.27095 0.27957
 H960 H 0.75585 0.25553 0.20434
 H961 H 0.67669 0.19294 0.23772
 H962 H 0.74279 0.18107 0.20631
 H963 H 0.77436 0.20316 0.19962
 H964 H 0.80411 0.26847 0.22592
 H965 H 0.65965 0.22595 0.26080
 H966 H 0.68979 0.29276 0.28858
 H967 H 0.72366 0.31181 0.28611
 H968 H 0.79105 0.29900 0.25308
 H969 H 0.68011 0.19688 0.27183
 H970 H 0.74919 0.20207 0.30346
 H971 H 0.71658 0.29139 0.18610
 H972 H 0.78409 0.29856 0.21881
 Zr973 Zr 0.78354 0.73479 0.71625
 O974 O 0.77220 0.71138 0.69510
 O975 O 0.81386 0.74161 0.70512
 O976 O 0.78090 0.74900 0.68689
 O977 O 0.79892 0.69681 0.75288
 O978 O 0.76163 0.78035 0.69216
 O979 O 0.80034 0.70466 0.71890
 O980 O 0.82598 0.76910 0.72571
 O981 O 0.78601 0.76879 0.72076
 O982 O 0.80072 0.73912 0.74323
 O983 O 0.75208 0.74654 0.71724
 O984 O 0.76638 0.71749 0.73874
 Zr985 Zr 0.75412 0.76890 0.77300
 Zr986 Zr 0.75474 0.78024 0.72340
 Zr987 Zr 0.78298 0.72364 0.76590
 Zr988 Zr 0.80219 0.77281 0.74817
 O989 O 0.76914 0.69384 0.77613
 O990 O 0.80837 0.80438 0.73564
 O991 O 0.78582 0.75734 0.77220
 O992 O 0.77142 0.78587 0.75051
 O993 O 0.73684 0.76475 0.74602
 O994 O 0.75176 0.73499 0.76825
 C995 C 0.82759 0.75609 0.71042
 C996 C 0.80442 0.69248 0.73454
 C997 C 0.77193 0.76695 0.68079
 O998 O 0.76737 0.81141 0.71549
 O999 O 0.73556 0.80508 0.73607
 O1000 O 0.73568 0.79784 0.77017
 C1001 C 0.73008 0.80921 0.75447
 O1002 O 0.73211 0.70595 0.71866
 Zr1003 Zr 0.73565 0.73095 0.74088
 O1004 O 0.72317 0.76279 0.78337
 O1005 O 0.72579 0.78166 0.70689
 O1006 O 0.70912 0.73971 0.72251
 O1007 O 0.72672 0.70105 0.75530
 O1008 O 0.71003 0.73830 0.76027
 C1009 C 0.70825 0.75096 0.77574
 O1010 O 0.76483 0.79334 0.79345
 O1011 O 0.81310 0.72090 0.78021
 O1012 O 0.75867 0.75601 0.80261
 O1013 O 0.77948 0.72569 0.79760
 O1014 O 0.83060 0.76354 0.76350
 O1015 O 0.80783 0.79433 0.77297
 C1016 C 0.76927 0.73917 0.80897
 H1017 H 0.81528 0.73291 0.74266
 H1018 H 0.77227 0.80177 0.75362
 H1019 H 0.74411 0.72725 0.77931
 H1020 H 0.74465 0.74390 0.70418
 H1021 H 0.82392 0.80700 0.73668
 H1022 H 0.75696 0.81846 0.70616
 H1023 H 0.72546 0.79614 0.69990
 H1024 H 0.69709 0.73007 0.72650
 H1025 H 0.84194 0.77382 0.75906
 H1026 H 0.81333 0.70650 0.78734
 H1027 H 0.77974 0.68665 0.78518
 H1028 H 0.71119 0.69917 0.75319
 H1029 H 0.82139 0.80231 0.77080
 H1030 H 0.75320 0.79585 0.80334
 H1031 H 0.78382 0.70880 0.68522
 H1032 H 0.71729 0.70039 0.71881
 Zr1033 Zr 0.21282 0.23707 0.78207
 O1034 O 0.22423 0.21382 0.80357
 O1035 O 0.18229 0.24337 0.79287
 O1036 O 0.21507 0.25133 0.81129
 O1037 O 0.19816 0.19887 0.74571
 O1038 O 0.23402 0.28293 0.80589
 O1039 O 0.19638 0.20677 0.77959
 O1040 O 0.16985 0.27052 0.77180
 O1041 O 0.20993 0.27104 0.77723
 O1042 O 0.19582 0.24115 0.75492
 O1043 O 0.24414 0.24925 0.78118
 O1044 O 0.23037 0.21999 0.75989
 Zr1045 Zr 0.24225 0.27158 0.72518
 Zr1046 Zr 0.24109 0.28292 0.77467
 Zr1047 Zr 0.21392 0.22591 0.73255
 Zr1048 Zr 0.19392 0.27481 0.74965
 O1049 O 0.22825 0.19634 0.72270
 O1050 O 0.18718 0.30620 0.76200
 O1051 O 0.21069 0.25958 0.72590
 O1052 O 0.22456 0.28830 0.74739
 O1053 O 0.25936 0.26767 0.75233
 O1054 O 0.24500 0.23770 0.73027
 C1055 C 0.16829 0.25747 0.78720
 C1056 C 0.19251 0.19454 0.76405
 C1057 C 0.22379 0.26938 0.81731
 O1058 O 0.22798 0.31389 0.78218
 O1059 O 0.26006 0.30801 0.76189
 O1060 O 0.26035 0.30075 0.72786
 C1061 C 0.26568 0.31220 0.74350
 O1062 O 0.26467 0.20899 0.78034
 Zr1063 Zr 0.26094 0.23389 0.75781
 O1064 O 0.27334 0.26585 0.71504
 O1065 O 0.26990 0.28474 0.79137
 O1066 O 0.28725 0.24300 0.77623
 O1067 O 0.27028 0.20409 0.74376
 O1068 O 0.28659 0.24156 0.73850
 C1069 C 0.28834 0.25420 0.72290
 O1070 O 0.23139 0.29594 0.70447
 O1071 O 0.18394 0.22268 0.71807
 O1072 O 0.23795 0.25872 0.69564
 O1073 O 0.21749 0.22812 0.70085
 O1074 O 0.16589 0.26515 0.73399
 O1075 O 0.18821 0.29643 0.72472
 C1076 C 0.22752 0.24178 0.68939
 H1077 H 0.18133 0.23474 0.75542
 H1078 H 0.22353 0.30419 0.74412
 H1079 H 0.25281 0.23008 0.71932
 H1080 H 0.25150 0.24671 0.79432
 H1081 H 0.17161 0.30858 0.76083
 H1082 H 0.23824 0.32112 0.79147
 H1083 H 0.27004 0.29927 0.79812
 H1084 H 0.29941 0.23349 0.77244
 H1085 H 0.15431 0.27516 0.73826
 H1086 H 0.18397 0.20828 0.71106
 H1087 H 0.21789 0.18909 0.71352
 H1088 H 0.28583 0.20243 0.74592
 H1089 H 0.17450 0.30416 0.72674
 H1090 H 0.24304 0.29861 0.69462
 H1091 H 0.21254 0.21110 0.81337
 H1092 H 0.27953 0.20353 0.78024
 Zr1093 Zr 0.28450 0.76546 0.28364
 O1094 O 0.27303 0.78870 0.30480
 O1095 O 0.31497 0.75899 0.29481
 O1096 O 0.28217 0.75122 0.31299
 O1097 O 0.29903 0.80379 0.24710
 O1098 O 0.26338 0.71955 0.30765
 O1099 O 0.30093 0.79579 0.28105
 O1100 O 0.32731 0.73177 0.27411
 O1101 O 0.28745 0.73151 0.27904
 O1102 O 0.30152 0.76149 0.25663
 O1103 O 0.25321 0.75320 0.28263
 O1104 O 0.26689 0.78254 0.26121
 Zr1105 Zr 0.25514 0.73102 0.22682
 Zr1106 Zr 0.25634 0.71956 0.27640
 Zr1107 Zr 0.28334 0.77675 0.23403
 Zr1108 Zr 0.30346 0.72785 0.25160
 O1109 O 0.26893 0.80633 0.22390
 O1110 O 0.31025 0.69630 0.26394
 O1111 O 0.28666 0.74311 0.22763
 O1112 O 0.27287 0.71428 0.24926
 O1113 O 0.23804 0.73481 0.25383
 O1114 O 0.25227 0.76487 0.23164
 C1115 C 0.32884 0.74470 0.28948
 C1116 C 0.30470 0.80809 0.26544
 C1117 C 0.27349 0.73314 0.31905
 O1118 O 0.26955 0.68863 0.28430
 O1119 O 0.23750 0.69441 0.26369
 O1120 O 0.23724 0.70170 0.22959
 C1121 C 0.23195 0.69020 0.24529
 O1122 O 0.23269 0.79357 0.28122
 Zr1123 Zr 0.23634 0.76857 0.25904
 O1124 O 0.22394 0.73646 0.21661
 O1125 O 0.22751 0.71761 0.29286
 O1126 O 0.21015 0.75954 0.27757
 O1127 O 0.22677 0.79822 0.24451
 O1128 O 0.21059 0.76054 0.23988
 C1129 C 0.20884 0.74782 0.22443
 O1130 O 0.26609 0.70687 0.20627
 O1131 O 0.31330 0.78009 0.21969
 O1132 O 0.25922 0.74410 0.19723
 O1133 O 0.27966 0.77471 0.20232
 O1134 O 0.33160 0.73773 0.23631
 O1135 O 0.30924 0.70655 0.22671
 C1136 C 0.26956 0.76112 0.19092
 H1137 H 0.31599 0.76791 0.25722
 H1138 H 0.27396 0.69841 0.24611
 H1139 H 0.24439 0.77247 0.22060
 H1140 H 0.24584 0.75569 0.29570
 H1141 H 0.32582 0.69395 0.26285
 H1142 H 0.25930 0.68136 0.29358
 H1143 H 0.22744 0.70310 0.29982
 H1144 H 0.19796 0.76902 0.27362
 H1145 H 0.34315 0.72767 0.24075
 H1146 H 0.31323 0.79453 0.21262
 H1147 H 0.27930 0.81369 0.21480
 H1148 H 0.21123 0.79979 0.24660
 H1149 H 0.32301 0.69890 0.22877
 H1150 H 0.25441 0.70416 0.19639
 H1151 H 0.28469 0.79142 0.31469
 H1152 H 0.21785 0.79908 0.28094
 Zr1153 Zr 0.21467 0.76487 0.71666
 O1154 O 0.22617 0.78838 0.69553
 O1155 O 0.18418 0.75869 0.70551
 O1156 O 0.21693 0.75096 0.68731
 O1157 O 0.19984 0.80257 0.75330
 O1158 O 0.23587 0.71930 0.69255
 O1159 O 0.19821 0.79512 0.71931
 O1160 O 0.17172 0.73123 0.72614
 O1161 O 0.21181 0.73084 0.72111
 O1162 O 0.19759 0.76041 0.74360
 O1163 O 0.24600 0.75271 0.71768
 O1164 O 0.23214 0.78168 0.73919
 Zr1165 Zr 0.24397 0.72965 0.77341
 Zr1166 Zr 0.24296 0.71897 0.72380
 Zr1167 Zr 0.21562 0.77538 0.76631
 Zr1168 Zr 0.19572 0.72668 0.74848
 O1169 O 0.22991 0.80486 0.77657
 O1170 O 0.18904 0.69546 0.73571
 O1171 O 0.21241 0.74163 0.77255
 O1172 O 0.22636 0.71320 0.75086
 O1173 O 0.26116 0.73394 0.74648
 O1174 O 0.24670 0.76359 0.76872
 C1175 C 0.17019 0.74449 0.71088
 C1176 C 0.19426 0.80713 0.73495
 C1177 C 0.22562 0.73296 0.68120
 O1178 O 0.22996 0.68804 0.71587
 O1179 O 0.26197 0.69377 0.73645
 O1180 O 0.26214 0.70055 0.77057
 C1181 C 0.26754 0.68934 0.75485
 O1182 O 0.26648 0.79299 0.71917
 Zr1183 Zr 0.26272 0.76779 0.74139
 O1184 O 0.27500 0.73531 0.78394
 O1185 O 0.27178 0.71745 0.70730
 O1186 O 0.28909 0.75893 0.72312
 O1187 O 0.27201 0.79742 0.75583
 O1188 O 0.28830 0.75994 0.76089
 C1189 C 0.28999 0.74711 0.77639
 O1190 O 0.23307 0.70500 0.79374
 O1191 O 0.18562 0.77839 0.78060
 O1192 O 0.23962 0.74212 0.80305
 O1193 O 0.21919 0.77280 0.79802
 O1194 O 0.16763 0.73609 0.76400
 O1195 O 0.18997 0.70471 0.77310
 C1196 C 0.22922 0.75900 0.80940
 H1197 H 0.18311 0.76681 0.74305
 H1198 H 0.22534 0.69727 0.75395
 H1199 H 0.25447 0.77109 0.77982
 H1200 H 0.25338 0.75543 0.70464
 H1201 H 0.17347 0.69305 0.73672
 H1202 H 0.24026 0.68096 0.70658
 H1203 H 0.27194 0.70303 0.70033
 H1204 H 0.30124 0.76838 0.72716
 H1205 H 0.15607 0.72612 0.75949
 H1206 H 0.18566 0.79268 0.78780
 H1207 H 0.21951 0.81202 0.78570
 H1208 H 0.28756 0.79914 0.75379
 H1209 H 0.17627 0.69701 0.77088
 H1210 H 0.24470 0.70221 0.80367
 H1211 H 0.21452 0.79124 0.68565
 H1212 H 0.28135 0.79840 0.71940
 Zr1213 Zr 0.28409 0.23596 0.21629
 O1214 O 0.27197 0.21282 0.19527
 O1215 O 0.31425 0.24239 0.20461
 O1216 O 0.28105 0.25033 0.18705
 O1217 O 0.29961 0.19755 0.25247
 O1218 O 0.26244 0.28200 0.19280
 O1219 O 0.30051 0.20557 0.21850
 O1220 O 0.32720 0.26956 0.22511
 O1221 O 0.28718 0.26989 0.22091
 O1222 O 0.30187 0.23986 0.24297
 O1223 O 0.25284 0.24823 0.21790
 O1224 O 0.26709 0.21883 0.23901
 Zr1225 Zr 0.25635 0.27025 0.27374
 Zr1226 Zr 0.25617 0.28185 0.22416
 Zr1227 Zr 0.28433 0.22456 0.26587
 Zr1228 Zr 0.30397 0.27349 0.24805
 O1229 O 0.27025 0.19493 0.27622
 O1230 O 0.31044 0.30505 0.23561
 O1231 O 0.28784 0.25817 0.27230
 O1232 O 0.27345 0.28705 0.25100
 O1233 O 0.23848 0.26654 0.24705
 O1234 O 0.25336 0.23642 0.26885
 C1235 C 0.32830 0.25663 0.20972
 C1236 C 0.30471 0.19325 0.23402
 C1237 C 0.27226 0.26847 0.18118
 O1238 O 0.26916 0.31283 0.21618
 O1239 O 0.23762 0.30690 0.23727
 O1240 O 0.23828 0.29951 0.27135
 C1241 C 0.23254 0.31103 0.25578
 O1242 O 0.23223 0.20799 0.21951
 Zr1243 Zr 0.23663 0.23280 0.24177
 O1244 O 0.22553 0.26462 0.28467
 O1245 O 0.22694 0.28386 0.20816
 O1246 O 0.20989 0.24215 0.22394
 O1247 O 0.22751 0.20298 0.25620
 O1248 O 0.21156 0.24047 0.26169
 C1249 C 0.21029 0.25306 0.27726
 O1250 O 0.26791 0.29439 0.29408
 O1251 O 0.31468 0.22122 0.27965
 O1252 O 0.26121 0.25708 0.30322
 O1253 O 0.28147 0.22649 0.29762
 O1254 O 0.33249 0.26357 0.26282
 O1255 O 0.31046 0.29479 0.27283
 C1256 C 0.27166 0.23999 0.30926
 H1257 H 0.31631 0.23342 0.24210
 H1258 H 0.27462 0.30292 0.25416
 H1259 H 0.24581 0.22873 0.28001
 H1260 H 0.24511 0.24579 0.20496
 H1261 H 0.32605 0.30738 0.23641
 H1262 H 0.25868 0.32013 0.20708
 H1263 H 0.22671 0.29839 0.20125
 H1264 H 0.19778 0.23271 0.22811
 H1265 H 0.34395 0.27360 0.25817
 H1266 H 0.31480 0.20678 0.28672
 H1267 H 0.28088 0.18755 0.28511
 H1268 H 0.21191 0.20138 0.25437
 H1269 H 0.32420 0.30238 0.27054
 H1270 H 0.25653 0.29707 0.30419
 H1271 H 0.28335 0.21011 0.18516
 H1272 H 0.21731 0.20272 0.21989
 Zr1273 Zr 0.71576 0.73643 0.28184
 O1274 O 0.72698 0.71296 0.30323
 O1275 O 0.68525 0.74296 0.29256
 O1276 O 0.71794 0.75053 0.31113
 O1277 O 0.70125 0.69857 0.24525
 O1278 O 0.73701 0.78209 0.30593
 O1279 O 0.69903 0.70626 0.27915
 O1280 O 0.67312 0.77035 0.27158
 O1281 O 0.71309 0.77044 0.27710
 O1282 O 0.69895 0.74077 0.25462
 O1283 O 0.74715 0.74848 0.28115
 O1284 O 0.73340 0.71939 0.25969
 Zr1285 Zr 0.74570 0.77110 0.22520
 Zr1286 Zr 0.74430 0.78219 0.27476
 Zr1287 Zr 0.71715 0.72557 0.23231
 Zr1288 Zr 0.69725 0.77446 0.24947
 O1289 O 0.73145 0.69600 0.22240
 O1290 O 0.69060 0.80588 0.26180
 O1291 O 0.71408 0.75926 0.22574
 O1292 O 0.72796 0.78779 0.24741
 O1293 O 0.76261 0.76697 0.25244
 O1294 O 0.74830 0.73719 0.23019
 C1295 C 0.67141 0.75726 0.28694
 C1296 C 0.69529 0.69417 0.26348
 C1297 C 0.72667 0.76853 0.31725
 O1298 O 0.73131 0.81320 0.28233
 O1299 O 0.76346 0.80725 0.26218
 O1300 O 0.76384 0.80021 0.22811
 C1301 C 0.76915 0.81153 0.24382
 O1302 O 0.76750 0.70805 0.28018
 Zr1303 Zr 0.76404 0.73316 0.25780
 O1304 O 0.77687 0.76536 0.21530
 O1305 O 0.77303 0.78377 0.29160
 O1306 O 0.79024 0.74194 0.27651
 O1307 O 0.77337 0.70348 0.24355
 O1308 O 0.78990 0.74099 0.23881
 C1309 C 0.79181 0.75374 0.22329
 O1310 O 0.73511 0.79556 0.20447
 O1311 O 0.68724 0.72238 0.21766
 O1312 O 0.74146 0.75835 0.19556
 O1313 O 0.72079 0.72788 0.20067
 O1314 O 0.66924 0.76494 0.23370
 O1315 O 0.69177 0.79618 0.22457
 C1316 C 0.73091 0.74149 0.18926
 H1317 H 0.68443 0.73445 0.25502
 H1318 H 0.72702 0.80370 0.24420
 H1319 H 0.75613 0.72961 0.21924
 H1320 H 0.75443 0.74584 0.29432
 H1321 H 0.67506 0.80836 0.26052
 H1322 H 0.74156 0.82032 0.29171
 H1323 H 0.77316 0.79823 0.29849
 H1324 H 0.80238 0.73239 0.27274
 H1325 H 0.65767 0.77497 0.23799
 H1326 H 0.68727 0.70798 0.21065
 H1327 H 0.72109 0.68877 0.21321
 H1328 H 0.78891 0.70176 0.24576
 H1329 H 0.67801 0.80385 0.22646
 H1330 H 0.74686 0.79820 0.19471
 H1331 H 0.71525 0.71027 0.31299
 H1332 H 0.78230 0.70243 0.28004
 Zr1333 Zr 0.78261 0.26507 0.78529
 O1334 O 0.77133 0.28848 0.80639
 O1335 O 0.81297 0.25829 0.79654
 O1336 O 0.78011 0.25091 0.81464
 O1337 O 0.79761 0.30313 0.74870
 O1338 O 0.76101 0.21942 0.80935
 O1339 O 0.79937 0.29523 0.78267
 O1340 O 0.82508 0.23084 0.77598
 O1341 O 0.78523 0.23108 0.78077
 O1342 O 0.79966 0.26084 0.75834
 O1343 O 0.75121 0.25312 0.78426
 O1344 O 0.76521 0.28228 0.76280
 Zr1345 Zr 0.75303 0.23081 0.72847
 Zr1346 Zr 0.75401 0.21943 0.77808
 Zr1347 Zr 0.78168 0.27623 0.73568
 Zr1348 Zr 0.80127 0.22717 0.75338
 O1349 O 0.76762 0.30595 0.72544
 O1350 O 0.80767 0.19556 0.76576
 O1351 O 0.78468 0.24256 0.72934
 O1352 O 0.77056 0.21393 0.75099
 O1353 O 0.73591 0.23483 0.75545
 O1354 O 0.75050 0.26469 0.73325
 C1355 C 0.82669 0.24381 0.79132
 C1356 C 0.80329 0.30744 0.76703
 C1357 C 0.77126 0.23292 0.82073
 O1358 O 0.76690 0.18839 0.78608
 O1359 O 0.73499 0.19442 0.76536
 O1360 O 0.73489 0.20166 0.73125
 C1361 C 0.72948 0.19022 0.74694
 O1362 O 0.73106 0.29366 0.78277
 Zr1363 Zr 0.73455 0.26862 0.76061
 O1364 O 0.72190 0.23656 0.71820
 O1365 O 0.72512 0.21781 0.79447
 O1366 O 0.70822 0.25985 0.77906
 O1367 O 0.72531 0.29836 0.74605
 O1368 O 0.70878 0.26090 0.74136
 C1369 C 0.70692 0.24816 0.72594
 O1370 O 0.76382 0.20653 0.70797
 O1371 O 0.81170 0.27919 0.72139
 O1372 O 0.75726 0.24382 0.69887
 O1373 O 0.77804 0.27417 0.70399
 O1374 O 0.82957 0.23671 0.73818
 O1375 O 0.80693 0.20578 0.72852
 C1376 C 0.76779 0.26072 0.69257
 H1377 H 0.81420 0.26711 0.75895
 H1378 H 0.77149 0.19804 0.74786
 H1379 H 0.74272 0.27237 0.72219
 H1380 H 0.74383 0.25572 0.79730
 H1381 H 0.82322 0.19303 0.76475
 H1382 H 0.75657 0.18126 0.79538
 H1383 H 0.72490 0.20333 0.80146
 H1384 H 0.69612 0.26944 0.77508
 H1385 H 0.84100 0.22654 0.74268
 H1386 H 0.81182 0.29361 0.71430
 H1387 H 0.77808 0.31317 0.71634
 H1388 H 0.70977 0.30011 0.74812
 H1389 H 0.82061 0.19797 0.73065
 H1390 H 0.75214 0.20391 0.69808
 H1391 H 0.78300 0.29110 0.81629
 H1392 H 0.71626 0.29928 0.78248
 C1393 C 0.47863 1.03287 0.37746
 C1394 C 0.47737 1.01324 0.36602
 C1395 C 0.46752 1.01344 0.34652
 C1396 C 0.45899 1.03328 0.33855
 C1397 C 0.46102 1.05308 0.34963
 C1398 C 0.47088 1.05288 0.36914
 C1399 C 0.47251 1.07284 0.38001
 C1400 C 0.46466 1.09245 0.37185
 C1401 C 0.45502 1.09264 0.35280
 C1402 C 0.45317 1.07323 0.34175
 C1403 C 0.46625 0.99354 0.33549
 C1404 C 0.47448 0.97402 0.34348
 C1405 C 0.48410 0.97384 0.36254
 C1406 C 0.48557 0.99317 0.37376
 C1407 C 0.44755 1.03314 0.31929
 C1408 C 0.43786 1.03263 0.30341
 C1409 C 0.48624 1.03216 0.39836
 C1410 C 0.49131 1.03149 0.41607
 H1411 H 0.47993 1.07353 0.39486
 H1412 H 0.46607 1.10758 0.38036
 H1413 H 0.44895 1.10791 0.34653
 H1414 H 0.44557 1.07420 0.32699
 H1415 H 0.45894 0.99286 0.32059
 H1416 H 0.47338 0.95896 0.33483
 H1417 H 0.49048 0.95863 0.36868
 H1418 H 0.49326 0.99222 0.38848
 C1419 C -0.02155 0.53096 0.87865
 C1420 C -0.02674 0.51084 0.86907
 C1421 C -0.03671 0.51097 0.84962
 C1422 C -0.04142 0.53124 0.83984
 C1423 C -0.03548 0.55132 0.84909
 C1424 C -0.02551 0.55118 0.86853
 C1425 C -0.01992 0.57149 0.87754
 C1426 C -0.02404 0.59136 0.86762
 C1427 C -0.03380 0.59150 0.84862
 C1428 C -0.03950 0.57176 0.83939
 C1429 C -0.04196 0.49064 0.84048
 C1430 C -0.03750 0.47075 0.85025
 C1431 C -0.02776 0.47063 0.86926
 C1432 C -0.02242 0.49039 0.87863
 C1433 C -0.05282 0.53138 0.82056
 C1434 C -0.06244 0.53118 0.80464
 C1435 C -0.01385 0.53089 0.89953
 C1436 C -0.00875 0.53075 0.91723
 H1437 H -0.01224 0.57221 0.89227
 H1438 H -0.01963 0.60674 0.87472
 H1439 H -0.03697 0.60698 0.84099
 H1440 H -0.04704 0.57270 0.82460
 H1441 H -0.04952 0.48988 0.82569
 H1442 H -0.04161 0.45536 0.84303
 H1443 H -0.02432 0.45513 0.87678
 H1444 H -0.01479 0.48945 0.89339
 C1445 C 0.02327 -0.02868 0.87914
 C1446 C 0.01951 -0.01162 0.86485
 C1447 C 0.02904 -0.01254 0.84529
 C1448 C 0.04229 -0.03053 0.84013
 C1449 C 0.04543 -0.04797 0.85417
 C1450 C 0.03589 -0.04705 0.87372
 C1451 C 0.03947 -0.06460 0.88756
 C1452 C 0.05208 -0.08253 0.88225
 C1453 C 0.06139 -0.08341 0.86314
 C1454 C 0.05817 -0.06638 0.84920
 C1455 C 0.02520 0.00482 0.83134
 C1456 C 0.01230 0.02257 0.83654
 C1457 C 0.00300 0.02346 0.85566
 C1458 C 0.00652 0.00661 0.86973
 C1459 C 0.05325 -0.03074 0.82069
 C1460 C 0.06255 -0.03064 0.80467
 C1461 C 0.01556 -0.02673 0.89988
 C1462 C 0.01059 -0.02556 0.91754
 H1463 H 0.03252 -0.06472 0.90258
 H1464 H 0.05463 -0.09580 0.89302
 H1465 H 0.07117 -0.09737 0.85908
 H1466 H 0.06572 -0.06783 0.83452
 H1467 H 0.03207 0.00485 0.81627
 H1468 H 0.00951 0.03570 0.82567
 H1469 H -0.00702 0.03728 0.85962
 H1470 H -0.00110 0.00797 0.88440
 C1471 C 0.52435 0.47227 0.38071
 C1472 C 0.52091 0.48957 0.36660
 C1473 C 0.53066 0.48886 0.34712
 C1474 C 0.54381 0.47083 0.34187
 C1475 C 0.54669 0.45318 0.35574
 C1476 C 0.53694 0.45389 0.37520
 C1477 C 0.54026 0.43613 0.38887
 C1478 C 0.55284 0.41821 0.38348
 C1479 C 0.56237 0.41753 0.36447
 C1480 C 0.55939 0.43477 0.35070
 C1481 C 0.52713 0.50646 0.33335
 C1482 C 0.51433 0.52425 0.33866
 C1483 C 0.50481 0.52494 0.35769
 C1484 C 0.50802 0.50785 0.37157
 C1485 C 0.55485 0.47070 0.32248
 C1486 C 0.56425 0.47066 0.30651
 C1487 C 0.51637 0.47395 0.40137
 C1488 C 0.51117 0.47491 0.41898
 H1489 H 0.53314 0.43586 0.40382
 H1490 H 0.55519 0.40478 0.39413
 H1491 H 0.57212 0.40357 0.36035
 H1492 H 0.56712 0.43347 0.33608
 H1493 H 0.53418 0.50665 0.31837
 H1494 H 0.51178 0.53757 0.32793
 H1495 H 0.49488 0.53879 0.36173
 H1496 H 0.50025 0.50907 0.38618
 C1497 C 0.52343 0.52544 0.11948
 C1498 C 0.52682 0.54597 0.12905
 C1499 C 0.53659 0.54677 0.14857
 C1500 C 0.54288 0.52704 0.15844
 C1501 C 0.53874 0.50647 0.14920
 C1502 C 0.52898 0.50567 0.12967
 C1503 C 0.52523 0.48492 0.12066
 C1504 C 0.53091 0.46551 0.13065
 C1505 C 0.54043 0.46628 0.14974
 C1506 C 0.54434 0.48648 0.15898
 C1507 C 0.54004 0.56751 0.15772
 C1508 C 0.53399 0.58690 0.14787
 C1509 C 0.52444 0.58611 0.12880
 C1510 C 0.52087 0.56593 0.11942
 C1511 C 0.55407 0.52791 0.17780
 C1512 C 0.56353 0.52846 0.19379
 C1513 C 0.51593 0.52477 0.09856
 C1514 C 0.51096 0.52436 0.08084
 H1515 H 0.51779 0.48349 0.10586
 H1516 H 0.52790 0.44978 0.12355
 H1517 H 0.54481 0.45115 0.15744
 H1518 H 0.55177 0.48623 0.17385
 H1519 H 0.54740 0.56896 0.17255
 H1520 H 0.53673 0.60261 0.15509
 H1521 H 0.51976 0.60122 0.12123
 H1522 H 0.51333 0.56615 0.10461
 C1523 C 0.02173 1.02910 0.62063
 C1524 C 0.02624 1.04962 0.62981
 C1525 C 0.03611 1.05030 0.64929
 C1526 C 0.04140 1.03046 0.65950
 C1527 C 0.03613 1.00995 0.65067
 C1528 C 0.02627 1.00927 0.63118
 C1529 C 0.02138 0.98857 0.62257
 C1530 C 0.02606 0.96908 0.63292
 C1531 C 0.03568 0.96974 0.65196
 C1532 C 0.04071 0.98989 0.66080
 C1533 C 0.04068 1.07100 0.65804
 C1534 C 0.03561 1.09048 0.64785
 C1535 C 0.02595 1.08982 0.62882
 C1536 C 0.02130 1.06967 0.61982
 C1537 C 0.05272 1.03108 0.67882
 C1538 C 0.06224 1.03121 0.69479
 C1539 C 0.01417 1.02836 0.59973
 C1540 C 0.00921 1.02776 0.58201
 H1541 H 0.01381 0.98723 0.60783
 H1542 H 0.02219 0.95339 0.62612
 H1543 H 0.03928 0.95456 0.65994
 H1544 H 0.04816 0.98954 0.67566
 H1545 H 0.04816 1.07235 0.67282
 H1546 H 0.03919 1.10618 0.65478
 H1547 H 0.02204 1.10500 0.62098
 H1548 H 0.01372 1.06998 0.60502
 C1549 C -0.02138 0.46971 0.62247
 C1550 C -0.02448 0.48947 0.63339
 C1551 C -0.03433 0.48887 0.65282
 C1552 C -0.04105 0.46852 0.66124
 C1553 C -0.03723 0.44870 0.65065
 C1554 C -0.02735 0.44929 0.63123
 C1555 C -0.02391 0.42926 0.62086
 C1556 C -0.03002 0.40922 0.62943
 C1557 C -0.03968 0.40865 0.64841
 C1558 C -0.04329 0.42811 0.65896
 C1559 C -0.03744 0.50887 0.66333
 C1560 C -0.03101 0.52888 0.65490
 C1561 C -0.02141 0.52945 0.63590
 C1562 C -0.01814 0.51002 0.62519
 C1563 C -0.05242 0.46810 0.68046
 C1564 C -0.06202 0.46814 0.69633
 C1565 C -0.01377 0.47054 0.60162
 C1566 C -0.00874 0.47109 0.58394
 H1567 H -0.01639 0.42887 0.60610
 H1568 H -0.02724 0.39406 0.62131
 H1569 H -0.04440 0.39304 0.65500
 H1570 H -0.05083 0.42683 0.67369
 H1571 H -0.04482 0.50927 0.67817
 H1572 H -0.03350 0.54401 0.66315
 H1573 H -0.01644 0.54503 0.62941
 H1574 H -0.01054 0.51128 0.61050
 C1575 C 0.47993 -0.03307 0.12306
 C1576 C 0.47725 -0.01310 0.13373
 C1577 C 0.46732 -0.01318 0.15313
 C1578 C 0.46013 -0.03324 0.16176
 C1579 C 0.46360 -0.05331 0.15145
 C1580 C 0.47354 -0.05323 0.13206
 C1581 C 0.47662 -0.07348 0.12196
 C1582 C 0.47009 -0.09325 0.13077
 C1583 C 0.46036 -0.09333 0.14972
 C1584 C 0.45710 -0.07364 0.16001
 C1585 C 0.46461 0.00704 0.16338
 C1586 C 0.47149 0.02677 0.15472
 C1587 C 0.48117 0.02685 0.13576
 C1588 C 0.48406 0.00719 0.12531
 C1589 C 0.44859 -0.03311 0.18088
 C1590 C 0.43879 -0.03262 0.19662
 C1591 C 0.48753 -0.03269 0.10221
 C1592 C 0.49257 -0.03225 0.08453
 H1593 H 0.48418 -0.07425 0.10723
 H1594 H 0.47259 -0.10860 0.12285
 H1595 H 0.45531 -0.10874 0.15649
 H1596 H 0.44950 -0.07453 0.17473
 H1597 H 0.45719 0.00783 0.17818
 H1598 H 0.46929 0.04208 0.16278
 H1599 H 0.48649 0.04222 0.12910
 H1600 H 0.49175 0.00807 0.11063
 C1601 C 0.38543 0.44777 0.00974
 C1602 C 0.38445 0.42949 0.02315
 C1603 C 0.36557 0.41655 0.02426
 C1604 C 0.34767 0.42198 0.01201
 C1605 C 0.34865 0.44029 -0.00136
 C1606 C 0.36755 0.45319 -0.00251
 C1607 C 0.36808 0.47137 -0.01604
 C1608 C 0.35049 0.47667 -0.02807
 C1609 C 0.33204 0.46408 -0.02694
 C1610 C 0.33105 0.44608 -0.01377
 C1611 C 0.36508 0.39830 0.03772
 C1612 C 0.38267 0.39302 0.04977
 C1613 C 0.40105 0.40572 0.04875
 C1614 C 0.40203 0.42374 0.03560
 C1615 C 0.32828 0.40881 0.01329
 C1616 C 0.31238 0.39767 0.01475
 C1617 C 0.40489 0.46081 0.00827
 C1618 C 0.42093 0.47168 0.00657
 H1619 H 0.38205 0.48168 -0.01747
 H1620 H 0.35117 0.49064 -0.03834
 H1621 H 0.31843 0.46828 -0.03632
 H1622 H 0.31635 0.43678 -0.01344
 H1623 H 0.35114 0.38794 0.03908
 H1624 H 0.38202 0.37899 0.05996
 H1625 H 0.41467 0.40152 0.05814
 H1626 H 0.41672 0.43306 0.03529
 C1627 C -0.11609 0.94996 0.51122
 C1628 C -0.11714 0.93190 0.52487
 C1629 C -0.13587 0.91870 0.52579
 C1630 C -0.15357 0.92368 0.51312
 C1631 C -0.15256 0.94182 0.49956
 C1632 C -0.13380 0.95497 0.49859
 C1633 C -0.13324 0.97296 0.48486
 C1634 C -0.15065 0.97786 0.47245
 C1635 C -0.16895 0.96502 0.47340
 C1636 C -0.16998 0.94719 0.48676
 C1637 C -0.13640 0.90065 0.53947
 C1638 C -0.11900 0.89581 0.55193
 C1639 C -0.10079 0.90877 0.55112
 C1640 C -0.09976 0.92661 0.53776
 C1641 C -0.17276 0.91015 0.51412
 C1642 C -0.18846 0.89867 0.51535
 C1643 C -0.09669 0.96311 0.50980
 C1644 C -0.08064 0.97398 0.50810
 H1645 H -0.11937 0.98345 0.48356
 H1646 H -0.14994 0.99169 0.46203
 H1647 H -0.18243 0.96890 0.46372
 H1648 H -0.18456 0.93769 0.48695
 H1649 H -0.15022 0.89010 0.54069
 H1650 H -0.11967 0.88192 0.56228
 H1651 H -0.08732 0.90493 0.56082
 H1652 H -0.08521 0.93615 0.53762
 C1653 C -0.11396 0.05125 0.98971
 C1654 C -0.13415 0.04093 0.99120
 C1655 C -0.15309 0.05382 0.99054
 C1656 C -0.15180 0.07698 0.98836
 C1657 C -0.13161 0.08729 0.98673
 C1658 C -0.11267 0.07441 0.98747
 C1659 C -0.09273 0.08516 0.98597
 C1660 C -0.09150 0.10794 0.98382
 C1661 C -0.10998 0.12049 0.98294
 C1662 C -0.12984 0.11038 0.98439
 C1663 C -0.17302 0.04308 0.99210
 C1664 C -0.17426 0.02029 0.99424
 C1665 C -0.15578 0.00771 0.99487
 C1666 C -0.13592 0.01782 0.99338
 C1667 C -0.17119 0.09018 0.98747
 C1668 C -0.18706 0.10143 0.98632
 C1669 C -0.09457 0.03810 0.99101
 C1670 C -0.07854 0.02718 0.99256
 H1671 H -0.07790 0.07609 0.98642
 H1672 H -0.07611 0.11589 0.98270
 H1673 H -0.10892 0.13818 0.98113
 H1674 H -0.14375 0.12087 0.98367
 H1675 H -0.18784 0.05216 0.99170
 H1676 H -0.18965 0.01235 0.99540
 H1677 H -0.15684 -0.00998 0.99653
 H1678 H -0.12201 0.00733 0.99394
 C1679 C 0.38606 0.55139 0.49027
 C1680 C 0.36586 0.54114 0.49194
 C1681 C 0.34693 0.55403 0.49098
 C1682 C 0.34824 0.57714 0.48831
 C1683 C 0.36845 0.58738 0.48653
 C1684 C 0.38738 0.57450 0.48755
 C1685 C 0.40734 0.58518 0.48587
 C1686 C 0.40860 0.60791 0.48326
 C1687 C 0.39014 0.62046 0.48210
 C1688 C 0.37026 0.61041 0.48372
 C1689 C 0.32698 0.54336 0.49272
 C1690 C 0.32572 0.52063 0.49533
 C1691 C 0.34418 0.50805 0.49626
 C1692 C 0.36405 0.51809 0.49460
 C1693 C 0.32886 0.59035 0.48707
 C1694 C 0.31302 0.60159 0.48561
 C1695 C 0.40545 0.53824 0.49181
 C1696 C 0.42146 0.52731 0.49351
 H1697 H 0.42215 0.57610 0.48652
 H1698 H 0.42400 0.61581 0.48201
 H1699 H 0.39122 0.63810 0.47995
 H1700 H 0.35636 0.62090 0.48277
 H1701 H 0.31217 0.55245 0.49210
 H1702 H 0.31032 0.51274 0.49662
 H1703 H 0.34310 0.49039 0.49828
 H1704 H 0.37795 0.50759 0.49540
 C1705 C 0.11726 0.54752 0.51295
 C1706 C 0.13419 0.54390 0.49916
 C1707 C 0.15291 0.55710 0.50013
 C1708 C 0.15464 0.57395 0.51482
 C1709 C 0.13772 0.57756 0.52864
 C1710 C 0.11905 0.56428 0.52774
 C1711 C 0.10246 0.56818 0.54178
 C1712 C 0.10419 0.58475 0.55625
 C1713 C 0.12234 0.59781 0.55704
 C1714 C 0.13897 0.59432 0.54346
 C1715 C 0.16956 0.55309 0.48619
 C1716 C 0.16779 0.53658 0.47167
 C1717 C 0.14950 0.52374 0.47068
 C1718 C 0.13285 0.52728 0.48422
 C1719 C 0.17372 0.58765 0.51574
 C1720 C 0.18925 0.59937 0.51695
 C1721 C 0.09789 0.53432 0.51160
 C1722 C 0.08185 0.52343 0.50996
 H1723 H 0.08799 0.55851 0.54171
 H1724 H 0.09131 0.58754 0.56683
 H1725 H 0.12356 0.61072 0.56827
 H1726 H 0.15277 0.60489 0.54472
 H1727 H 0.18410 0.56266 0.48636
 H1728 H 0.18068 0.53374 0.46112
 H1729 H 0.14820 0.51095 0.45935
 H1730 H 0.11896 0.51684 0.48285
 C1731 C 0.61903 0.04510 0.01568
 C1732 C 0.63556 0.04244 0.00127
 C1733 C 0.65421 0.05572 0.00241
 C1734 C 0.65629 0.07165 0.01793
 C1735 C 0.63990 0.07407 0.03253
 C1736 C 0.62129 0.06073 0.03144
 C1737 C 0.60523 0.06342 0.04626
 C1738 C 0.60742 0.07889 0.06169
 C1739 C 0.62551 0.09202 0.06268
 C1740 C 0.64162 0.08971 0.04832
 C1741 C 0.67044 0.05275 -0.01219
 C1742 C 0.66835 0.03710 -0.02748
 C1743 C 0.65014 0.02414 -0.02860
 C1744 C 0.63389 0.02671 -0.01444
 C1745 C 0.67511 0.08572 0.01881
 C1746 C 0.69040 0.09778 0.01990
 C1747 C 0.59954 0.03216 0.01394
 C1748 C 0.58338 0.02154 0.01197
 H1749 H 0.59083 0.05364 0.04609
 H1750 H 0.59495 0.08077 0.07286
 H1751 H 0.62710 0.10407 0.07466
 H1752 H 0.65541 0.10027 0.04978
 H1753 H 0.68490 0.06243 -0.01194
 H1754 H 0.68093 0.03502 -0.03851
 H1755 H 0.64861 0.01200 -0.04049
 H1756 H 0.62006 0.01621 -0.01593
 C1757 C 0.61712 0.95266 0.48575
 C1758 C 0.61540 0.92956 0.48339
 C1759 C 0.63411 0.91634 0.48253
 C1760 C 0.65450 0.92624 0.48412
 C1761 C 0.65621 0.94934 0.48639
 C1762 C 0.63750 0.96257 0.48718
 C1763 C 0.63970 0.98560 0.48945
 C1764 C 0.65975 0.99531 0.49091
 C1765 C 0.67799 0.98240 0.49015
 C1766 C 0.67634 0.95968 0.48792
 C1767 C 0.63190 0.89332 0.48010
 C1768 C 0.61184 0.88361 0.47869
 C1769 C 0.59360 0.89649 0.47968
 C1770 C 0.59526 0.91922 0.48192
 C1771 C 0.67365 0.91265 0.48315
 C1772 C 0.68924 0.90103 0.48193
 C1773 C 0.59794 0.96611 0.48731
 C1774 C 0.58203 0.97714 0.48915
 H1775 H 0.62597 0.99634 0.49011
 H1776 H 0.66113 1.01296 0.49263
 H1777 H 0.69353 0.99004 0.49129
 H1778 H 0.69099 0.95033 0.48741
 H1779 H 0.64561 0.88259 0.47930
 H1780 H 0.61045 0.86598 0.47683
 H1781 H 0.57806 0.88886 0.47857
 H1782 H 0.58060 0.92855 0.48244
 C1783 C 0.11703 0.45369 0.98800
 C1784 C 0.13503 0.45842 1.00030
 C1785 C 0.15355 0.44495 0.99922
 C1786 C 0.15404 0.42677 0.98585
 C1787 C 0.13607 0.42207 0.97350
 C1788 C 0.11756 0.43557 0.97455
 C1789 C 0.09988 0.43054 0.96201
 C1790 C 0.10043 0.41270 0.94880
 C1791 C 0.11842 0.39944 0.94785
 C1792 C 0.13609 0.40401 0.96000
 C1793 C 0.17126 0.45004 1.01170
 C1794 C 0.17073 0.46790 1.02488
 C1795 C 0.15266 0.48105 1.02594
 C1796 C 0.13497 0.47644 1.01384
 C1797 C 0.17298 0.41290 0.98472
 C1798 C 0.18842 0.40109 0.98332
 C1799 C 0.09787 0.46716 0.98954
 C1800 C 0.08196 0.47822 0.99128
 H1801 H 0.08548 0.44030 0.96226
 H1802 H 0.08675 0.40907 0.93932
 H1803 H 0.11872 0.38555 0.93762
 H1804 H 0.14972 0.39323 0.95869
 H1805 H 0.18567 0.44029 1.01141
 H1806 H 0.18442 0.47156 1.03432
 H1807 H 0.15234 0.49491 1.03621
 H1808 H 0.12130 0.48717 1.01521
 C1809 C 0.00501 0.36749 0.41801
 C1810 C 0.00186 0.37538 0.39791
 C1811 C 0.00286 0.36056 0.38136
 C1812 C 0.00671 0.33798 0.38507
 C1813 C 0.00912 0.32998 0.40522
 C1814 C 0.00833 0.34484 0.42176
 C1815 C 0.01099 0.33660 0.44177
 C1816 C 0.01429 0.31423 0.44533
 C1817 C 0.01503 0.29965 0.42914
 C1818 C 0.01250 0.30734 0.40929
 C1819 C 0.00007 0.36879 0.36136
 C1820 C -0.00383 0.39106 0.35784
 C1821 C -0.00507 0.40556 0.37406
 C1822 C -0.00220 0.39792 0.39389
 C1823 C 0.00929 0.32305 0.36825
 C1824 C 0.01235 0.31003 0.35490
 C1825 C 0.00518 0.38290 0.43465
 C1826 C 0.00513 0.39675 0.44759
 H1827 H 0.01049 0.34732 0.45483
 H1828 H 0.01626 0.30818 0.46072
 H1829 H 0.01757 0.28228 0.43198
 H1830 H 0.01316 0.29534 0.39721
 H1831 H 0.00077 0.35811 0.34827
 H1832 H -0.00594 0.39710 0.34245
 H1833 H -0.00808 0.42285 0.37126
 H1834 H -0.00319 0.40988 0.40597
 C1835 C 0.50813 -0.12974 -0.08533
 C1836 C 0.49148 -0.14510 -0.08823
 C1837 C 0.49163 -0.15896 -0.10551
 C1838 C 0.50846 -0.15736 -0.11968
 C1839 C 0.52487 -0.14168 -0.11701
 C1840 C 0.52471 -0.12779 -0.09976
 C1841 C 0.54129 -0.11220 -0.09735
 C1842 C 0.55761 -0.11047 -0.11157
 C1843 C 0.55780 -0.12413 -0.12845
 C1844 C 0.54165 -0.13957 -0.13123
 C1845 C 0.47486 -0.17427 -0.10813
 C1846 C 0.45837 -0.17579 -0.09406
 C1847 C 0.45822 -0.16220 -0.07713
 C1848 C 0.47455 -0.14700 -0.07416
 C1849 C 0.50993 -0.17308 -0.13600
 C1850 C 0.51214 -0.18691 -0.14879
 C1851 C 0.50771 -0.11515 -0.06809
 C1852 C 0.50718 -0.10199 -0.05456
 H1853 H 0.54184 -0.10119 -0.08449
 H1854 H 0.57011 -0.09842 -0.10953
 H1855 H 0.57044 -0.12266 -0.13951
 H1856 H 0.54240 -0.14970 -0.14468
 H1857 H 0.47425 -0.18512 -0.12111
 H1858 H 0.44565 -0.18756 -0.09631
 H1859 H 0.44539 -0.16343 -0.06624
 H1860 H 0.47377 -0.13681 -0.06075
 C1861 C -0.00484 -0.13081 1.08351
 C1862 C -0.00898 -0.15337 1.08022
 C1863 C -0.00991 -0.16805 1.09702
 C1864 C -0.00683 -0.15998 1.11698
 C1865 C -0.00234 -0.13749 1.12025
 C1866 C -0.00117 -0.12285 1.10343
 C1867 C 0.00359 -0.10041 1.10701
 C1868 C 0.00692 -0.09268 1.12667
 C1869 C 0.00551 -0.10699 1.14315
 C1870 C 0.00096 -0.12917 1.14007
 C1871 C -0.01408 -0.19060 1.09340
 C1872 C -0.01725 -0.19836 1.07373
 C1873 C -0.01636 -0.18394 1.05728
 C1874 C -0.01229 -0.16167 1.06040
 C1875 C -0.00907 -0.17480 1.13409
 C1876 C -0.01172 -0.18781 1.14765
 C1877 C -0.00462 -0.11557 1.06659
 C1878 C -0.00417 -0.10175 1.05348
 H1879 H 0.00474 -0.08859 1.09471
 H1880 H 0.01044 -0.07545 1.12912
 H1881 H 0.00797 -0.10088 1.15840
 H1882 H 0.00013 -0.13971 1.15335
 H1883 H -0.01490 -0.20248 1.10569
 H1884 H -0.02040 -0.21565 1.07123
 H1885 H -0.01884 -0.19004 1.04203
 H1886 H -0.01171 -0.15107 1.04714
 C1887 C 0.49446 0.36844 0.58416
 C1888 C 0.49061 0.34590 0.58053
 C1889 C 0.48954 0.33096 0.59714
 C1890 C 0.49221 0.33876 0.61724
 C1891 C 0.49646 0.36125 0.62085
 C1892 C 0.49774 0.37615 0.60422
 C1893 C 0.50221 0.39858 0.60815
 C1894 C 0.50518 0.40605 0.62795
 C1895 C 0.50366 0.39148 0.64423
 C1896 C 0.49938 0.36931 0.64081
 C1897 C 0.48563 0.30843 0.59318
 C1898 C 0.48286 0.30093 0.57337
 C1899 C 0.48388 0.31559 0.55711
 C1900 C 0.48770 0.33785 0.56056
 C1901 C 0.48971 0.32371 0.63414
 C1902 C 0.48680 0.31056 0.64754
 C1903 C 0.49478 0.38394 0.56743
 C1904 C 0.49530 0.39792 0.55448
 H1905 H 0.50343 0.41060 0.59602
 H1906 H 0.50849 0.42327 0.63067
 H1907 H 0.50584 0.39739 0.65959
 H1908 H 0.49846 0.35856 0.65395
 H1909 H 0.48473 0.29637 0.60531
 H1910 H 0.47990 0.28364 0.57062
 H1911 H 0.48172 0.30969 0.54175
 H1912 H 0.48840 0.34864 0.54745
 C1913 C 0.50604 1.13089 0.58447
 C1914 C 0.50288 1.12235 0.60433
 C1915 C 0.50341 1.13670 0.62126
 C1916 C 0.50676 1.15947 0.61816
 C1917 C 0.50933 1.16808 0.59826
 C1918 C 0.50903 1.15370 0.58135
 C1919 C 0.51180 1.16256 0.56160
 C1920 C 0.51474 1.18508 0.55865
 C1921 C 0.51499 1.19920 0.57519
 C1922 C 0.51234 1.19090 0.59481
 C1923 C 0.50062 1.12783 0.64101
 C1924 C 0.49719 1.10538 0.64392
 C1925 C 0.49639 1.09134 0.62733
 C1926 C 0.49925 1.09962 0.60773
 C1927 C 0.50843 1.17405 0.63537
 C1928 C 0.51062 1.18695 0.64898
 C1929 C 0.50632 1.11602 0.56741
 C1930 C 0.50626 1.10259 0.55409
 H1931 H 0.51169 1.15221 0.54826
 H1932 H 0.51682 1.19160 0.54344
 H1933 H 0.51726 1.21669 0.57283
 H1934 H 0.51261 1.20256 0.60717
 H1935 H 0.50100 1.13813 0.65436
 H1936 H 0.49511 1.09885 0.65912
 H1937 H 0.49374 1.07390 0.62966
 H1938 H 0.49863 1.08800 0.59535
 C1939 C 0.00458 0.63261 1.08471
 C1940 C 0.00205 0.62428 1.10472
 C1941 C 0.00289 0.63884 1.12148
 C1942 C 0.00596 0.66160 1.11806
 C1943 C 0.00777 0.67001 1.09802
 C1944 C 0.00715 0.65542 1.08127
 C1945 C 0.00921 0.66408 1.06136
 C1946 C 0.01176 0.68661 1.05810
 C1947 C 0.01232 0.70093 1.07449
 C1948 C 0.01037 0.69283 1.09426
 C1949 C 0.00074 0.63019 1.14139
 C1950 C -0.00239 0.60774 1.14461
 C1951 C -0.00350 0.59349 1.12820
 C1952 C -0.00124 0.60156 1.10845
 C1953 C 0.00830 0.67635 1.13508
 C1954 C 0.01113 0.68933 1.14852
 C1955 C 0.00480 0.61751 1.06782
 C1956 C 0.00480 0.60391 1.05465
 H1957 H 0.00883 0.65357 1.04814
 H1958 H 0.01329 0.69297 1.04278
 H1959 H 0.01428 0.71842 1.07189
 H1960 H 0.01085 0.70464 1.10649
 H1961 H 0.00137 0.64067 1.15462
 H1962 H -0.00400 0.60138 1.15993
 H1963 H -0.00592 0.57606 1.13077
 H1964 H -0.00209 0.58977 1.09621
 C1965 C 0.49291 0.62885 -0.08588
 C1966 C 0.50933 0.64452 -0.08854
 C1967 C 0.50869 0.65912 -0.10544
 C1968 C 0.49160 0.65791 -0.11946
 C1969 C 0.47533 0.64201 -0.11696
 C1970 C 0.47600 0.62739 -0.10010
 C1971 C 0.45959 0.61157 -0.09787
 C1972 C 0.44294 0.61035 -0.11188
 C1973 C 0.44224 0.62473 -0.12835
 C1974 C 0.45822 0.64040 -0.13096
 C1975 C 0.52523 0.67473 -0.10785
 C1976 C 0.54198 0.67584 -0.09392
 C1977 C 0.54262 0.66153 -0.07738
 C1978 C 0.52652 0.64602 -0.07463
 C1979 C 0.48978 0.67409 -0.13553
 C1980 C 0.48720 0.68814 -0.14820
 C1981 C 0.49388 0.61343 -0.06911
 C1982 C 0.49481 0.59963 -0.05602
 H1983 H 0.45942 0.60000 -0.08532
 H1984 H 0.43056 0.59812 -0.10997
 H1985 H 0.42932 0.62367 -0.13925
 H1986 H 0.45706 0.65112 -0.14411
 H1987 H 0.52545 0.68615 -0.12052
 H1988 H 0.55452 0.68786 -0.09600
 H1989 H 0.55565 0.66246 -0.06660
 H1990 H 0.52769 0.63526 -0.06151
 C1991 C -0.00606 1.12760 0.41238
 C1992 C 0.01054 1.14306 0.40961
 C1993 C 0.01030 1.15718 0.39237
 C1994 C -0.00655 1.15573 0.37811
 C1995 C -0.02291 1.13995 0.38066
 C1996 C -0.02265 1.12579 0.39786
 C1997 C -0.03917 1.11010 0.40015
 C1998 C -0.05552 1.10854 0.38585
 C1999 C -0.05582 1.12248 0.36903
 C2000 C -0.03973 1.13802 0.36637
 C2001 C 0.02700 1.17260 0.38987
 C2002 C 0.04351 1.17397 0.40402
 C2003 C 0.04375 1.16012 0.42091
 C2004 C 0.02749 1.14481 0.42376
 C2005 C -0.00812 1.17170 0.36184
 C2006 C -0.01042 1.18575 0.34912
 C2007 C -0.00557 1.11277 0.42960
 C2008 C -0.00499 1.09943 0.44312
 H2009 H -0.03964 1.09888 0.41296
 H2010 H -0.06798 1.09641 0.38779
 H2011 H -0.06850 1.12115 0.35792
 H2012 H -0.04055 1.14837 0.35296
 H2013 H 0.02754 1.18366 0.37693
 H2014 H 0.05618 1.18583 0.40187
 H2015 H 0.05661 1.16124 0.43186
 H2016 H 0.02835 1.13442 0.43714
 C2017 C 0.77002 0.72014 0.86865
 C2018 C 0.78775 0.72459 0.88134
 C2019 C 0.78923 0.71454 0.90088
 C2020 C 0.77296 0.70013 0.90762
 C2021 C 0.75493 0.69620 0.89516
 C2022 C 0.75345 0.70625 0.87564
 C2023 C 0.73533 0.70194 0.86342
 C2024 C 0.71914 0.68812 0.87028
 C2025 C 0.72059 0.67830 0.88936
 C2026 C 0.73823 0.68223 0.90172
 C2027 C 0.80718 0.71911 0.91322
 C2028 C 0.82320 0.73322 0.90647
 C2029 C 0.82175 0.74303 0.88739
 C2030 C 0.80426 0.73881 0.87489
 C2031 C 0.77479 0.68917 0.92725
 C2032 C 0.77590 0.67995 0.94351
 C2033 C 0.76951 0.72849 0.84790
 C2034 C 0.76926 0.73420 0.83031
 H2035 H 0.73344 0.70925 0.84849
 H2036 H 0.70539 0.68502 0.86074
 H2037 H 0.70797 0.66758 0.89463
 H2038 H 0.73861 0.67423 0.91645
 H2039 H 0.80901 0.71186 0.92818
 H2040 H 0.83681 0.73655 0.91612
 H2041 H 0.83423 0.75399 0.88223
 H2042 H 0.80380 0.74688 0.86019
 C2043 C 0.27354 0.21817 0.36802
 C2044 C 0.27330 0.23154 0.38556
 C2045 C 0.27452 0.22168 0.40520
 C2046 C 0.27598 0.19849 0.40717
 C2047 C 0.27623 0.18513 0.38961
 C2048 C 0.27501 0.19498 0.37000
 C2049 C 0.27530 0.18122 0.35269
 C2050 C 0.27674 0.15843 0.35470
 C2051 C 0.27793 0.14882 0.37387
 C2052 C 0.27768 0.16193 0.39118
 C2053 C 0.27424 0.23539 0.42250
 C2054 C 0.27281 0.25819 0.42048
 C2055 C 0.27163 0.26781 0.40129
 C2056 C 0.27187 0.25471 0.38397
 C2057 C 0.27698 0.18830 0.42720
 C2058 C 0.27759 0.17954 0.44370
 C2059 C 0.27249 0.22800 0.34783
 C2060 C 0.27190 0.23459 0.33051
 H2061 H 0.27441 0.18786 0.33742
 H2062 H 0.27694 0.14818 0.34129
 H2063 H 0.27905 0.13111 0.37536
 H2064 H 0.27866 0.15366 0.40576
 H2065 H 0.27513 0.22866 0.43774
 H2066 H 0.27263 0.26844 0.43388
 H2067 H 0.27053 0.28552 0.39981
 H2068 H 0.27091 0.26292 0.36935
 C2069 C 0.72920 0.27806 0.36862
 C2070 C 0.71342 0.29430 0.37207
 C2071 C 0.71174 0.30434 0.39146
 C2072 C 0.72583 0.29812 0.40732
 C2073 C 0.74127 0.28153 0.40402
 C2074 C 0.74295 0.27147 0.38461
 C2075 C 0.75858 0.25505 0.38163
 C2076 C 0.77218 0.24871 0.39739
 C2077 C 0.77056 0.25853 0.41635
 C2078 C 0.75532 0.27477 0.41972
 C2079 C 0.69596 0.32064 0.39447
 C2080 C 0.68224 0.32686 0.37877
 C2081 C 0.68388 0.31706 0.35981
 C2082 C 0.69924 0.30096 0.35641
 C2083 C 0.72469 0.30913 0.42686
 C2084 C 0.72380 0.31846 0.44298
 C2085 C 0.73174 0.26911 0.34832
 C2086 C 0.73308 0.26326 0.33088
 H2087 H 0.76040 0.24693 0.36714
 H2088 H 0.78404 0.23610 0.39486
 H2089 H 0.78117 0.25355 0.42854
 H2090 H 0.75465 0.28193 0.43473
 H2091 H 0.69404 0.32873 0.40895
 H2092 H 0.67028 0.33935 0.38134
 H2093 H 0.67319 0.32195 0.34765
 H2094 H 0.69981 0.29381 0.34140
 C2095 C 0.22726 0.77686 0.86916
 C2096 C 0.20763 0.78474 0.87678
 C2097 C 0.20682 0.79477 0.89624
 C2098 C 0.22564 0.79684 0.90800
 C2099 C 0.24512 0.78827 0.90069
 C2100 C 0.24593 0.77825 0.88122
 C2101 C 0.26562 0.76999 0.87416
 C2102 C 0.28399 0.77155 0.88600
 C2103 C 0.28321 0.78135 0.90503
 C2104 C 0.26404 0.78965 0.91236
 C2105 C 0.18706 0.80274 0.90342
 C2106 C 0.16861 0.80082 0.89172
 C2107 C 0.16939 0.79101 0.87271
 C2108 C 0.18863 0.78304 0.86525
 C2109 C 0.22502 0.80822 0.92738
 C2110 C 0.22450 0.81781 0.94339
 C2111 C 0.22846 0.76890 0.84840
 C2112 C 0.22908 0.76353 0.83078
 H2113 H 0.26699 0.76217 0.85948
 H2114 H 0.29892 0.76511 0.88039
 H2115 H 0.29753 0.78252 0.91417
 H2116 H 0.26422 0.79711 0.92726
 H2117 H 0.18563 0.81048 0.91812
 H2118 H 0.15363 0.80699 0.89745
 H2119 H 0.15502 0.78955 0.86369
 H2120 H 0.18842 0.77548 0.85040
 C2121 C 0.27014 0.78071 0.13139
 C2122 C 0.28464 0.77203 0.11709
 C2123 C 0.28646 0.78187 0.09750
 C2124 C 0.27376 0.80034 0.09232
 C2125 C 0.25886 0.80866 0.10644
 C2126 C 0.25703 0.79881 0.12601
 C2127 C 0.24210 0.80752 0.13990
 C2128 C 0.22932 0.82541 0.13460
 C2129 C 0.23110 0.83503 0.11547
 C2130 C 0.24567 0.82682 0.10150
 C2131 C 0.30115 0.77296 0.08351
 C2132 C 0.31367 0.75483 0.08870
 C2133 C 0.31190 0.74523 0.10785
 C2134 C 0.29759 0.75367 0.12195
 C2135 C 0.27596 0.81084 0.07252
 C2136 C 0.27735 0.81970 0.05611
 C2137 C 0.26960 0.77206 0.15204
 C2138 C 0.26940 0.76617 0.16959
 H2139 H 0.24006 0.80057 0.15494
 H2140 H 0.21797 0.83184 0.14540
 H2141 H 0.22114 0.84892 0.11142
 H2142 H 0.24645 0.83487 0.08681
 H2143 H 0.30308 0.77986 0.06843
 H2144 H 0.32480 0.74819 0.07780
 H2145 H 0.32166 0.73115 0.11180
 H2146 H 0.29672 0.74562 0.13663
 C2147 C 0.76860 0.28155 0.63348
 C2148 C 0.77761 0.26953 0.61728
 C2149 C 0.77951 0.27941 0.59771
 C2150 C 0.77239 0.30127 0.59446
 C2151 C 0.76305 0.31316 0.61059
 C2152 C 0.76113 0.30328 0.63013
 C2153 C 0.75182 0.31558 0.64603
 C2154 C 0.74461 0.33698 0.64271
 C2155 C 0.74647 0.34663 0.62361
 C2156 C 0.75557 0.33494 0.60768
 C2157 C 0.78865 0.26708 0.58178
 C2158 C 0.79571 0.24561 0.58507
 C2159 C 0.79387 0.23597 0.60419
 C2160 C 0.78494 0.24772 0.62018
 C2161 C 0.77452 0.31157 0.57457
 C2162 C 0.77589 0.32034 0.55813
 C2163 C 0.76792 0.27220 0.65386
 C2164 C 0.76764 0.26592 0.67128
 H2165 H 0.74996 0.30880 0.66116
 H2166 H 0.73753 0.34613 0.65504
 H2167 H 0.74084 0.36326 0.62111
 H2168 H 0.75666 0.34317 0.59310
 H2169 H 0.79042 0.27389 0.56665
 H2170 H 0.80266 0.23641 0.57271
 H2171 H 0.79938 0.21929 0.60666
 H2172 H 0.78379 0.23953 0.63478
 C2173 C 0.22503 0.22322 0.62980
 C2174 C 0.20550 0.21446 0.62262
 C2175 C 0.20450 0.20430 0.60322
 C2176 C 0.22302 0.20298 0.59107
 C2177 C 0.24236 0.21240 0.59795
 C2178 C 0.24337 0.22254 0.61737
 C2179 C 0.26292 0.23164 0.62400
 C2180 C 0.28099 0.23079 0.61178
 C2181 C 0.28001 0.22090 0.59280
 C2182 C 0.26097 0.21177 0.58589
 C2183 C 0.18486 0.19548 0.59648
 C2184 C 0.16671 0.19666 0.60856
 C2185 C 0.16768 0.20658 0.62752
 C2186 C 0.18680 0.21539 0.63455
 C2187 C 0.22229 0.19148 0.57174
 C2188 C 0.22187 0.18181 0.55577
 C2189 C 0.22649 0.23143 0.65049
 C2190 C 0.22728 0.23701 0.66805
 H2191 H 0.26443 0.23956 0.63863
 H2192 H 0.29582 0.23786 0.61707
 H2193 H 0.29409 0.22029 0.58336
 H2194 H 0.26100 0.20428 0.57101
 H2195 H 0.18330 0.18762 0.58183
 H2196 H 0.15181 0.18983 0.60316
 H2197 H 0.15353 0.20746 0.63684
 H2198 H 0.18673 0.22300 0.64938
 C2199 C 0.72671 0.72140 0.13031
 C2200 C 0.71090 0.70518 0.12681
 C2201 C 0.70925 0.69497 0.10747
 C2202 C 0.72343 0.70100 0.09171
 C2203 C 0.73894 0.71754 0.09507
 C2204 C 0.74058 0.72777 0.11443
 C2205 C 0.75629 0.74412 0.11746
 C2206 C 0.77001 0.75024 0.10181
 C2207 C 0.76842 0.74027 0.08290
 C2208 C 0.75310 0.72409 0.07948
 C2209 C 0.69343 0.67871 0.10442
 C2210 C 0.67962 0.67268 0.12002
 C2211 C 0.68123 0.68263 0.13893
 C2212 C 0.69663 0.69870 0.14237
 C2213 C 0.72235 0.68983 0.07224
 C2214 C 0.72166 0.68041 0.05614
 C2215 C 0.72918 0.73056 0.15056
 C2216 C 0.73051 0.73665 0.16794
 H2217 H 0.75810 0.75235 0.13191
 H2218 H 0.78194 0.76280 0.10438
 H2219 H 0.77912 0.74509 0.07080
 H2220 H 0.75247 0.71682 0.06452
 H2221 H 0.69154 0.67050 0.08997
 H2222 H 0.66762 0.66021 0.11742
 H2223 H 0.67047 0.67787 0.15101
 H2224 H 0.69718 0.70597 0.15734
 C2225 C 0.19415 0.63560 0.23889
 C2226 C 0.17684 0.63526 0.22504
 C2227 C 0.16323 0.61654 0.22414
 C2228 C 0.16713 0.59812 0.23693
 C2229 C 0.18456 0.59838 0.25064
 C2230 C 0.19807 0.61716 0.25165
 C2231 C 0.21532 0.61701 0.26556
 C2232 C 0.21914 0.59886 0.27809
 C2233 C 0.20596 0.58053 0.27708
 C2234 C 0.18884 0.58020 0.26355
 C2235 C 0.14587 0.61678 0.21035
 C2236 C 0.14211 0.63490 0.19777
 C2237 C 0.15550 0.65309 0.19854
 C2238 C 0.17270 0.65335 0.21199
 C2239 C 0.15323 0.57894 0.23592
 C2240 C 0.14144 0.56326 0.23472
 C2241 C 0.20762 0.65506 0.24042
 C2242 C 0.21876 0.67115 0.24224
 H2243 H 0.22605 0.63087 0.26689
 H2244 H 0.23242 0.59903 0.28863
 H2245 H 0.20900 0.56647 0.28685
 H2246 H 0.17902 0.56556 0.26334
 H2247 H 0.13503 0.60300 0.20914
 H2248 H 0.12873 0.63482 0.18735
 H2249 H 0.15249 0.66714 0.18876
 H2250 H 0.18261 0.66792 0.21209
 C2251 C 0.69139 0.13589 0.73994
 C2252 C 0.66898 0.13831 0.73882
 C2253 C 0.65571 0.11936 0.73753
 C2254 C 0.66489 0.09805 0.73747
 C2255 C 0.68731 0.09565 0.73854
 C2256 C 0.70058 0.11460 0.73974
 C2257 C 0.72293 0.11172 0.74076
 C2258 C 0.73192 0.09076 0.74061
 C2259 C 0.71896 0.07226 0.73946
 C2260 C 0.69691 0.07458 0.73844
 C2261 C 0.63337 0.12226 0.73632
 C2262 C 0.62438 0.14323 0.73649
 C2263 C 0.63733 0.16171 0.73791
 C2264 C 0.65938 0.15938 0.73901
 C2265 C 0.65130 0.07866 0.73600
 C2266 C 0.63981 0.06279 0.73440
 C2267 C 0.70495 0.15525 0.74182
 C2268 C 0.71618 0.17126 0.74383
 H2269 H 0.73368 0.12560 0.74166
 H2270 H 0.74905 0.08887 0.74139
 H2271 H 0.72603 0.05602 0.73935
 H2272 H 0.68749 0.05970 0.73757
 H2273 H 0.62262 0.10839 0.73524
 H2274 H 0.60727 0.14515 0.73552
 H2275 H 0.63027 0.17796 0.73800
 H2276 H 0.66879 0.17427 0.73993
 C2277 C 0.80940 0.13500 0.26019
 C2278 C 0.83177 0.13755 0.26179
 C2279 C 0.84518 0.11868 0.26275
 C2280 C 0.83619 0.09730 0.26198
 C2281 C 0.81382 0.09475 0.26043
 C2282 C 0.80040 0.11362 0.25956
 C2283 C 0.77811 0.11059 0.25802
 C2284 C 0.76930 0.08955 0.25736
 C2285 C 0.78240 0.07113 0.25820
 C2286 C 0.80441 0.07360 0.25971
 C2287 C 0.86747 0.12173 0.26446
 C2288 C 0.87627 0.14277 0.26506
 C2289 C 0.86319 0.16118 0.26395
 C2290 C 0.84119 0.15871 0.26241
 C2291 C 0.84993 0.07798 0.26305
 C2292 C 0.86155 0.06215 0.26432
 C2293 C 0.79570 0.15431 0.25867
 C2294 C 0.78436 0.17029 0.25696
 H2295 H 0.76725 0.12440 0.25733
 H2296 H 0.75221 0.08754 0.25619
 H2297 H 0.77547 0.05483 0.25767
 H2298 H 0.81394 0.05877 0.26031
 H2299 H 0.87831 0.10792 0.26532
 H2300 H 0.89335 0.14480 0.26639
 H2301 H 0.87012 0.17749 0.26445
 H2302 H 0.83167 0.17354 0.26177
 C2303 C 0.30619 0.63528 0.76136
 C2304 C 0.32853 0.63800 0.76316
 C2305 C 0.34208 0.61924 0.76412
 C2306 C 0.33326 0.59778 0.76314
 C2307 C 0.31092 0.59506 0.76143
 C2308 C 0.29736 0.61383 0.76056
 C2309 C 0.27511 0.61062 0.75883
 C2310 C 0.26647 0.58952 0.75798
 C2311 C 0.27970 0.57121 0.75882
 C2312 C 0.30168 0.57385 0.76052
 C2313 C 0.36432 0.62245 0.76600
 C2314 C 0.37296 0.64356 0.76678
 C2315 C 0.35975 0.66187 0.76569
 C2316 C 0.33778 0.65923 0.76397
 C2317 C 0.34716 0.57858 0.76411
 C2318 C 0.35896 0.56288 0.76524
 C2319 C 0.29237 0.65449 0.75972
 C2320 C 0.28097 0.67041 0.75787
 H2321 H 0.26415 0.62435 0.75814
 H2322 H 0.24940 0.58738 0.75666
 H2323 H 0.27291 0.55485 0.75815
 H2324 H 0.31132 0.55910 0.76111
 H2325 H 0.37527 0.60873 0.76686
 H2326 H 0.39001 0.64572 0.76824
 H2327 H 0.36655 0.67823 0.76632
 H2328 H 0.32815 0.67399 0.76335
 C2329 C 0.30426 0.36622 0.73657
 C2330 C 0.29539 0.38765 0.73648
 C2331 C 0.30892 0.40642 0.73543
 C2332 C 0.33130 0.40371 0.73439
 C2333 C 0.34017 0.38225 0.73429
 C2334 C 0.32664 0.36349 0.73545
 C2335 C 0.33594 0.34227 0.73551
 C2336 C 0.35795 0.33963 0.73445
 C2337 C 0.37115 0.35793 0.73315
 C2338 C 0.36246 0.37903 0.73309
 C2339 C 0.29963 0.42764 0.73544
 C2340 C 0.27761 0.43027 0.73645
 C2341 C 0.26440 0.41195 0.73746
 C2342 C 0.27309 0.39085 0.73749
 C2343 C 0.34519 0.42290 0.73322
 C2344 C 0.35704 0.43854 0.73193
 C2345 C 0.29045 0.34702 0.73839
 C2346 C 0.27908 0.33112 0.74037
 H2347 H 0.32633 0.32751 0.73632
 H2348 H 0.36478 0.32327 0.73445
 H2349 H 0.38823 0.35577 0.73219
 H2350 H 0.37340 0.39275 0.73211
 H2351 H 0.30926 0.44239 0.73468
 H2352 H 0.27077 0.44662 0.73644
 H2353 H 0.24730 0.41409 0.73823
 H2354 H 0.26215 0.37712 0.73828
 C2355 C 0.80777 0.86555 0.23710
 C2356 C 0.79887 0.88698 0.23710
 C2357 C 0.81238 0.90576 0.23595
 C2358 C 0.83475 0.90307 0.23475
 C2359 C 0.84364 0.88162 0.23462
 C2360 C 0.83014 0.86284 0.23586
 C2361 C 0.83946 0.84163 0.23587
 C2362 C 0.86146 0.83901 0.23468
 C2363 C 0.87464 0.85733 0.23330
 C2364 C 0.86592 0.87843 0.23328
 C2365 C 0.80307 0.92697 0.23604
 C2366 C 0.78106 0.92958 0.23721
 C2367 C 0.76787 0.91124 0.23832
 C2368 C 0.77658 0.89016 0.23828
 C2369 C 0.84860 0.92228 0.23340
 C2370 C 0.86037 0.93795 0.23194
 C2371 C 0.79398 0.84635 0.23889
 C2372 C 0.78259 0.83044 0.24082
 H2373 H 0.82986 0.82686 0.23675
 H2374 H 0.86831 0.82266 0.23465
 H2375 H 0.89171 0.85519 0.23224
 H2376 H 0.87684 0.89216 0.23223
 H2377 H 0.81267 0.94173 0.23521
 H2378 H 0.77421 0.94592 0.23725
 H2379 H 0.75078 0.91337 0.23922
 H2380 H 0.76566 0.87641 0.23916
 C2381 C 0.69138 0.86305 0.76130
 C2382 C 0.70028 0.88447 0.76088
 C2383 C 0.68680 0.90326 0.76194
 C2384 C 0.66445 0.90057 0.76349
 C2385 C 0.65556 0.87913 0.76411
 C2386 C 0.66904 0.86034 0.76295
 C2387 C 0.65973 0.83913 0.76342
 C2388 C 0.63775 0.83652 0.76501
 C2389 C 0.62460 0.85484 0.76630
 C2390 C 0.63330 0.87594 0.76584
 C2391 C 0.69611 0.92446 0.76142
 C2392 C 0.71810 0.92707 0.75990
 C2393 C 0.73127 0.90873 0.75887
 C2394 C 0.72255 0.88764 0.75934
 C2395 C 0.65065 0.91980 0.76468
 C2396 C 0.63908 0.93564 0.76599
 C2397 C 0.70515 0.84385 0.75950
 C2398 C 0.71656 0.82800 0.75754
 H2399 H 0.66930 0.82436 0.76264
 H2400 H 0.63090 0.82017 0.76541
 H2401 H 0.60754 0.85271 0.76765
 H2402 H 0.62241 0.88968 0.76684
 H2403 H 0.68653 0.93923 0.76217
 H2404 H 0.72495 0.94341 0.75952
 H2405 H 0.74834 0.91085 0.75769
 H2406 H 0.73346 0.87390 0.75851
 C2407 C 0.19417 0.36504 0.26300
 C2408 C 0.20306 0.38648 0.26275
 C2409 C 0.18953 0.40524 0.26376
 C2410 C 0.16717 0.40251 0.26507
 C2411 C 0.15830 0.38106 0.26552
 C2412 C 0.17182 0.36230 0.26442
 C2413 C 0.16252 0.34108 0.26469
 C2414 C 0.14053 0.33843 0.26605
 C2415 C 0.12734 0.35673 0.26731
 C2416 C 0.13603 0.37784 0.26703
 C2417 C 0.19882 0.42646 0.26341
 C2418 C 0.22082 0.42910 0.26212
 C2419 C 0.23403 0.41078 0.26114
 C2420 C 0.22533 0.38968 0.26144
 C2421 C 0.15331 0.42171 0.26616
 C2422 C 0.14153 0.43738 0.26738
 C2423 C 0.20794 0.34586 0.26116
 C2424 C 0.21926 0.32995 0.25910
 H2425 H 0.17212 0.32632 0.26394
 H2426 H 0.13370 0.32207 0.26631
 H2427 H 0.11028 0.35457 0.26849
 H2428 H 0.12511 0.39155 0.26799
 H2429 H 0.18921 0.44121 0.26414
 H2430 H 0.22766 0.44545 0.26187
 H2431 H 0.25111 0.41293 0.26013
 H2432 H 0.23626 0.37595 0.26066
 C2433 C 0.11885 0.25827 0.82669
 C2434 C 0.12477 0.25690 0.84745
 C2435 C 0.10882 0.25709 0.86266
 C2436 C 0.08713 0.25847 0.85695
 C2437 C 0.08119 0.25908 0.83618
 C2438 C 0.09715 0.25903 0.82097
 C2439 C 0.09094 0.25986 0.80028
 C2440 C 0.06950 0.26068 0.79478
 C2441 C 0.05385 0.26071 0.80967
 C2442 C 0.05953 0.25994 0.83016
 C2443 C 0.11503 0.25603 0.88335
 C2444 C 0.13644 0.25461 0.88884
 C2445 C 0.15207 0.25420 0.87395
 C2446 C 0.14641 0.25543 0.85348
 C2447 C 0.07101 0.26084 0.87238
 C2448 C 0.05740 0.26401 0.88480
 C2449 C 0.13524 0.25873 0.81136
 C2450 C 0.14976 0.25864 0.79955
 H2451 H 0.10256 0.25985 0.78817
 H2452 H 0.06501 0.26129 0.77889
 H2453 H 0.03722 0.26133 0.80533
 H2454 H 0.04679 0.25992 0.84119
 H2455 H 0.10342 0.25616 0.89547
 H2456 H 0.14092 0.25378 0.90473
 H2457 H 0.16869 0.25305 0.87828
 H2458 H 0.15918 0.25518 0.84249
 C2459 C 0.62221 0.75896 0.32666
 C2460 C 0.62814 0.75632 0.34732
 C2461 C 0.61230 0.75666 0.36263
 C2462 C 0.59069 0.75944 0.35711
 C2463 C 0.58470 0.76150 0.33641
 C2464 C 0.60057 0.76131 0.32111
 C2465 C 0.59433 0.76358 0.30051
 C2466 C 0.57295 0.76595 0.29519
 C2467 C 0.55739 0.76612 0.31016
 C2468 C 0.56310 0.76394 0.33056
 C2469 C 0.61854 0.75431 0.38322
 C2470 C 0.63987 0.75151 0.38852
 C2471 C 0.65539 0.75096 0.37353
 C2472 C 0.64971 0.75341 0.35316
 C2473 C 0.57469 0.76154 0.37268
 C2474 C 0.56102 0.76438 0.38510
 C2475 C 0.63851 0.75910 0.31124
 C2476 C 0.65296 0.75872 0.29937
 H2477 H 0.60588 0.76354 0.28834
 H2478 H 0.56844 0.76766 0.27936
 H2479 H 0.54080 0.76795 0.30596
 H2480 H 0.55041 0.76411 0.34164
 H2481 H 0.60701 0.75451 0.39541
 H2482 H 0.64438 0.74972 0.40434
 H2483 H 0.67195 0.74877 0.37772
 H2484 H 0.66240 0.75299 0.34208
 C2485 C 0.62270 0.24322 0.17296
 C2486 C 0.60118 0.24150 0.17896
 C2487 C 0.58489 0.24117 0.16398
 C2488 C 0.59032 0.24243 0.14314
 C2489 C 0.61181 0.24472 0.13715
 C2490 C 0.62809 0.24521 0.15214
 C2491 C 0.64953 0.24759 0.14584
 C2492 C 0.65467 0.24939 0.12531
 C2493 C 0.63873 0.24869 0.11064
 C2494 C 0.61750 0.24639 0.11640
 C2495 C 0.56341 0.23937 0.17029
 C2496 C 0.55824 0.23795 0.19083
 C2497 C 0.57422 0.23824 0.20550
 C2498 C 0.59548 0.23999 0.19972
 C2499 C 0.57392 0.23982 0.12792
 C2500 C 0.56004 0.23648 0.11573
 C2501 C 0.63943 0.24298 0.18805
 C2502 C 0.65416 0.24320 0.19971
 H2503 H 0.66253 0.24810 0.15666
 H2504 H 0.67114 0.25120 0.12077
 H2505 H 0.64281 0.24997 0.09471
 H2506 H 0.60563 0.24606 0.10444
 H2507 H 0.55042 0.23914 0.15944
 H2508 H 0.54174 0.23661 0.19539
 H2509 H 0.57012 0.23712 0.22144
 H2510 H 0.60737 0.24017 0.21166
 C2511 C 0.12071 0.74393 0.67108
 C2512 C 0.09904 0.74411 0.67680
 C2513 C 0.08298 0.74414 0.66159
 C2514 C 0.08878 0.74390 0.64081
 C2515 C 0.11045 0.74439 0.63508
 C2516 C 0.12651 0.74449 0.65029
 C2517 C 0.14814 0.74508 0.64424
 C2518 C 0.15368 0.74557 0.62375
 C2519 C 0.13793 0.74525 0.60887
 C2520 C 0.11652 0.74466 0.61438
 C2521 C 0.06135 0.74424 0.66761
 C2522 C 0.05580 0.74434 0.68810
 C2523 C 0.07156 0.74431 0.70299
 C2524 C 0.09297 0.74418 0.69749
 C2525 C 0.07245 0.74158 0.62547
 C2526 C 0.05853 0.73847 0.61327
 C2527 C 0.13718 0.74340 0.68644
 C2528 C 0.15171 0.74343 0.69833
 H2529 H 0.16100 0.74523 0.65524
 H2530 H 0.17029 0.74610 0.61940
 H2531 H 0.14231 0.74551 0.59298
 H2532 H 0.10482 0.74458 0.60227
 H2533 H 0.04853 0.74435 0.65658
 H2534 H 0.03919 0.74446 0.69243
 H2535 H 0.06717 0.74439 0.71889
 H2536 H 0.10467 0.74417 0.70961
 C2537 C 0.87594 0.75910 0.66983
 C2538 C 0.87424 0.77457 0.65375
 C2539 C 0.88916 0.77413 0.63763
 C2540 C 0.90563 0.75824 0.63776
 C2541 C 0.90725 0.74268 0.65376
 C2542 C 0.89235 0.74315 0.66991
 C2543 C 0.89430 0.72756 0.68588
 C2544 C 0.91056 0.71196 0.68587
 C2545 C 0.92512 0.71145 0.67001
 C2546 C 0.92356 0.72661 0.65409
 C2547 C 0.88727 0.78982 0.62172
 C2548 C 0.87110 0.80552 0.62180
 C2549 C 0.85645 0.80592 0.63758
 C2550 C 0.85789 0.79063 0.65338
 C2551 C 0.92191 0.75916 0.62235
 C2552 C 0.93595 0.76125 0.61016
 C2553 C 0.85997 0.75874 0.68553
 C2554 C 0.84575 0.75794 0.69766
 H2555 H 0.88336 0.72732 0.69856
 H2556 H 0.91189 0.70023 0.69825
 H2557 H 0.93770 0.69928 0.67004
 H2558 H 0.93523 0.72555 0.64207
 H2559 H 0.89820 0.79008 0.60905
 H2560 H 0.86985 0.81734 0.60950
 H2561 H 0.84383 0.81805 0.63752
 H2562 H 0.84611 0.79160 0.66530
 C2563 C 0.37620 0.25876 0.16859
 C2564 C 0.37482 0.27432 0.15256
 C2565 C 0.38975 0.27363 0.13646
 C2566 C 0.40591 0.25739 0.13657
 C2567 C 0.40712 0.24167 0.15246
 C2568 C 0.39221 0.24239 0.16859
 C2569 C 0.39376 0.22663 0.18445
 C2570 C 0.40964 0.21061 0.18436
 C2571 C 0.42420 0.20986 0.16852
 C2572 C 0.42304 0.22518 0.15271
 C2573 C 0.38819 0.28940 0.12060
 C2574 C 0.37234 0.30544 0.12071
 C2575 C 0.35770 0.30611 0.13649
 C2576 C 0.35881 0.29074 0.15225
 C2577 C 0.42234 0.25813 0.12130
 C2578 C 0.43661 0.25991 0.10932
 C2579 C 0.36031 0.25877 0.18438
 C2580 C 0.34625 0.25822 0.19667
 H2581 H 0.38280 0.22656 0.19711
 H2582 H 0.41066 0.19875 0.19666
 H2583 H 0.43648 0.19736 0.16848
 H2584 H 0.43470 0.22391 0.14069
 H2585 H 0.39914 0.28946 0.10793
 H2586 H 0.37133 0.31733 0.10843
 H2587 H 0.34533 0.31853 0.13646
 H2588 H 0.34705 0.29193 0.16417
 C2589 C 0.37756 0.74143 0.33003
 C2590 C 0.39404 0.75731 0.33000
 C2591 C 0.40920 0.75749 0.34603
 C2592 C 0.40778 0.74172 0.36187
 C2593 C 0.39125 0.72589 0.36194
 C2594 C 0.37606 0.72574 0.34594
 C2595 C 0.35966 0.70974 0.34624
 C2596 C 0.35842 0.69423 0.36187
 C2597 C 0.37332 0.69436 0.37754
 C2598 C 0.38955 0.71000 0.37768
 C2599 C 0.42558 0.77350 0.34575
 C2600 C 0.42694 0.78887 0.33000
 C2601 C 0.41212 0.78864 0.31426
 C2602 C 0.39579 0.77311 0.31420
 C2603 C 0.42420 0.74069 0.37725
 C2604 C 0.43839 0.73879 0.38941
 C2605 C 0.36139 0.74201 0.31440
 C2606 C 0.34707 0.74291 0.30229
 H2607 H 0.34768 0.70898 0.33441
 H2608 H 0.34575 0.68214 0.36189
 H2609 H 0.37222 0.68237 0.38972
 H2610 H 0.40069 0.70951 0.39026
 H2611 H 0.43745 0.77435 0.35769
 H2612 H 0.43958 0.80099 0.33000
 H2613 H 0.41331 0.80052 0.30201
 H2614 H 0.38465 0.77357 0.30162
 C2615 C 0.87499 0.24076 0.83228
 C2616 C 0.89093 0.25721 0.83265
 C2617 C 0.90578 0.25778 0.84893
 C2618 C 0.90460 0.24181 0.86462
 C2619 C 0.88861 0.22539 0.86429
 C2620 C 0.87372 0.22487 0.84804
 C2621 C 0.85785 0.20831 0.84795
 C2622 C 0.85684 0.19261 0.86343
 C2623 C 0.87146 0.19309 0.87933
 C2624 C 0.88717 0.20928 0.87986
 C2625 C 0.92161 0.27437 0.84906
 C2626 C 0.92274 0.28993 0.83346
 C2627 C 0.90824 0.28932 0.81746
 C2628 C 0.89245 0.27322 0.81700
 C2629 C 0.92086 0.24111 0.88017
 C2630 C 0.93502 0.23946 0.89238
 C2631 C 0.85901 0.24106 0.81647
 C2632 C 0.84482 0.24189 0.80423
 H2633 H 0.84612 0.20726 0.83590
 H2634 H 0.84459 0.18009 0.86314
 H2635 H 0.87055 0.18094 0.89138
 H2636 H 0.89809 0.20906 0.89261
 H2637 H 0.93321 0.27553 0.86121
 H2638 H 0.93496 0.30250 0.83377
 H2639 H 0.90925 0.30136 0.80532
 H2640 H 0.88154 0.27340 0.80423
 C2641 C 0.53684 1.02891 0.62578
 C2642 C 0.54580 1.04858 0.63346
 C2643 C 0.55651 1.04842 0.65255
 C2644 C 0.55851 1.02851 0.66369
 C2645 C 0.54865 1.00910 0.65647
 C2646 C 0.53774 1.00931 0.63749
 C2647 C 0.52821 0.98964 0.63049
 C2648 C 0.52940 0.97031 0.64193
 C2649 C 0.54008 0.97009 0.66048
 C2650 C 0.54964 0.98922 0.66773
 C2651 C 0.56526 1.06831 0.65993
 C2652 C 0.56350 1.08780 0.64878
 C2653 C 0.55326 1.08789 0.63002
 C2654 C 0.54460 1.06852 0.62232
 C2655 C 0.57180 1.02771 0.68183
 C2656 C 0.58344 1.02716 0.69647
 C2657 C 0.52834 1.02841 0.60519
 C2658 C 0.52254 1.02776 0.58770
 H2659 H 0.51968 0.98902 0.61619
 H2660 H 0.52199 0.95541 0.63637
 H2661 H 0.54095 0.95504 0.66930
 H2662 H 0.55771 0.98827 0.68227
 H2663 H 0.57341 1.06904 0.67444
 H2664 H 0.57018 1.10289 0.65470
 H2665 H 0.55194 1.10306 0.62140
 H2666 H 0.53677 1.06941 0.60767
 C2667 C 0.03551 0.53093 1.12721
 C2668 C 0.04500 0.55044 1.13465
 C2669 C 0.05572 0.55026 1.15373
 C2670 C 0.05720 0.53046 1.16511
 C2671 C 0.04675 0.51126 1.15818
 C2672 C 0.03583 0.51150 1.13920
 C2673 C 0.02573 0.49203 1.13248
 C2674 C 0.02637 0.47285 1.14418
 C2675 C 0.03705 0.47261 1.16272
 C2676 C 0.04718 0.49154 1.16970
 C2677 C 0.06504 0.56999 1.16084
 C2678 C 0.06380 0.58936 1.14944
 C2679 C 0.05352 0.58947 1.13069
 C2680 C 0.04432 0.57025 1.12325
 C2681 C 0.07064 0.52950 1.18315
 C2682 C 0.08247 0.52878 1.19764
 C2683 C 0.02713 0.53032 1.10659
 C2684 C 0.02146 0.52952 1.08906
 H2685 H 0.01717 0.49145 1.11819
 H2686 H 0.01852 0.45810 1.13883
 H2687 H 0.03750 0.45767 1.17175
 H2688 H 0.05523 0.49058 1.18425
 H2689 H 0.07323 0.57070 1.17532
 H2690 H 0.07091 0.60434 1.15516
 H2691 H 0.05260 0.60454 1.12188
 H2692 H 0.03648 0.57114 1.10860
 C2693 C -0.03302 -0.03040 1.12716
 C2694 C -0.03370 -0.01107 1.13906
 C2695 C -0.04512 -0.01099 1.15770
 C2696 C -0.05571 -0.03028 1.16438
 C2697 C -0.05383 -0.05000 1.15313
 C2698 C -0.04261 -0.05001 1.13439
 C2699 C -0.04156 -0.06973 1.12311
 C2700 C -0.05084 -0.08905 1.13036
 C2701 C -0.06161 -0.08910 1.14878
 C2702 C -0.06325 -0.06982 1.16005
 C2703 C -0.04591 0.00865 1.16913
 C2704 C -0.03566 0.02766 1.16239
 C2705 C -0.02448 0.02758 1.14419
 C2706 C -0.02348 0.00849 1.13258
 C2707 C -0.06965 -0.02945 1.18197
 C2708 C -0.08183 -0.02874 1.19612
 C2709 C -0.02431 -0.02953 1.10671
 C2710 C -0.01846 -0.02839 1.08929
 H2711 H -0.03336 -0.07047 1.10869
 H2712 H -0.04963 -0.10405 1.12164
 H2713 H -0.06880 -0.10415 1.15435
 H2714 H -0.07182 -0.07064 1.17428
 H2715 H -0.05435 0.00948 1.18342
 H2716 H -0.03638 0.04253 1.17135
 H2717 H -0.01653 0.04239 1.13903
 H2718 H -0.01454 0.00920 1.11857
 C2719 C 0.46602 0.46975 0.62832
 C2720 C 0.46536 0.48915 0.64014
 C2721 C 0.45375 0.48941 0.65866
 C2722 C 0.44294 0.47025 0.66532
 C2723 C 0.44479 0.45045 0.65418
 C2724 C 0.45623 0.45025 0.63556
 C2725 C 0.45728 0.43046 0.62439
 C2726 C 0.44776 0.41125 0.63162
 C2727 C 0.43676 0.41139 0.64992
 C2728 C 0.43514 0.43075 0.66108
 C2729 C 0.45298 0.50911 0.67000
 C2730 C 0.46346 0.52800 0.66328
 C2731 C 0.47483 0.52774 0.64519
 C2732 C 0.47581 0.50858 0.63368
 C2733 C 0.42881 0.47127 0.68277
 C2734 C 0.41647 0.47213 0.69679
 C2735 C 0.47489 0.47046 0.60794
 C2736 C 0.48085 0.47151 0.59054
 H2737 H 0.46566 0.42957 0.61007
 H2738 H 0.44897 0.39619 0.62299
 H2739 H 0.42939 0.39643 0.65547
 H2740 H 0.42640 0.43007 0.67522
 H2741 H 0.44440 0.51009 0.68420
 H2742 H 0.46275 0.54293 0.67217
 H2743 H 0.48295 0.54245 0.64005
 H2744 H 0.48491 0.50914 0.61975
 C2745 C 0.46570 0.52575 -0.12884
 C2746 C 0.46529 0.54525 -0.14070
 C2747 C 0.45380 0.54577 -0.15939
 C2748 C 0.44291 0.52672 -0.16615
 C2749 C 0.44439 0.50687 -0.15486
 C2750 C 0.45579 0.50639 -0.13615
 C2751 C 0.45676 0.48643 -0.12499
 C2752 C 0.44680 0.46747 -0.13212
 C2753 C 0.43568 0.46793 -0.15042
 C2754 C 0.43442 0.48736 -0.16171
 C2755 C 0.45331 0.56556 -0.17079
 C2756 C 0.46411 0.58422 -0.16408
 C2757 C 0.47552 0.58363 -0.14593
 C2758 C 0.47600 0.56446 -0.13422
 C2759 C 0.42929 0.52768 -0.18408
 C2760 C 0.41734 0.52807 -0.19849
 C2761 C 0.47458 0.52595 -0.10840
 C2762 C 0.48050 0.52548 -0.09094
 H2763 H 0.46531 0.48521 -0.11073
 H2764 H 0.44774 0.45234 -0.12341
 H2765 H 0.42799 0.45316 -0.15590
 H2766 H 0.42563 0.48686 -0.17588
 H2767 H 0.44473 0.56675 -0.18505
 H2768 H 0.46366 0.59922 -0.17302
 H2769 H 0.48395 0.59814 -0.14083
 H2770 H 0.48500 0.56480 -0.12016
 C2771 C -0.03404 1.02444 0.37198
 C2772 C -0.03352 1.04355 0.35960
 C2773 C -0.04473 1.04394 0.34076
 C2774 C -0.05628 1.02516 0.33438
 C2775 C -0.05576 1.00564 0.34623
 C2776 C -0.04463 1.00529 0.36508
 C2777 C -0.04460 0.98567 0.37679
 C2778 C -0.05522 0.96693 0.37005
 C2779 C -0.06609 0.96727 0.35162
 C2780 C -0.06642 0.98635 0.33979
 C2781 C -0.04427 1.06336 0.32881
 C2782 C -0.03282 1.08176 0.33515
 C2783 C -0.02169 1.08128 0.35346
 C2784 C -0.02213 1.06250 0.36569
 C2785 C -0.06957 1.02610 0.31623
 C2786 C -0.08126 1.02655 0.30163
 C2787 C -0.02539 1.02491 0.39250
 C2788 C -0.01966 1.02475 0.41003
 H2789 H -0.03629 0.98455 0.39119
 H2790 H -0.05500 0.95205 0.37918
 H2791 H -0.07430 0.95266 0.34644
 H2792 H -0.07505 0.98577 0.32553
 H2793 H -0.05260 1.06445 0.31442
 H2794 H -0.03256 1.09647 0.32580
 H2795 H -0.01278 1.09559 0.35828
 H2796 H -0.01332 1.06292 0.37986
 C2797 C 0.03544 0.46987 0.37421
 C2798 C 0.03649 0.48950 0.36256
 C2799 C 0.04746 0.48971 0.34368
 C2800 C 0.05724 0.47027 0.33651
 C2801 C 0.05504 0.45032 0.34755
 C2802 C 0.04425 0.45016 0.36652
 C2803 C 0.04280 0.43017 0.37756
 C2804 C 0.05138 0.41078 0.36989
 C2805 C 0.06175 0.41089 0.35126
 C2806 C 0.06370 0.43041 0.34020
 C2807 C 0.04862 0.50963 0.33250
 C2808 C 0.03915 0.52879 0.33972
 C2809 C 0.02841 0.52858 0.35816
 C2810 C 0.02706 0.50921 0.36952
 C2811 C 0.07073 0.47110 0.31859
 C2812 C 0.08257 0.47178 0.30418
 C2813 C 0.02707 0.47041 0.39479
 C2814 C 0.02141 0.47120 0.41228
 H2815 H 0.03486 0.42928 0.39211
 H2816 H 0.04990 0.39558 0.37844
 H2817 H 0.06836 0.39577 0.34536
 H2818 H 0.07193 0.42969 0.32579
 H2819 H 0.05674 0.51058 0.31804
 H2820 H 0.04015 0.54387 0.33095
 H2821 H 0.02107 0.54350 0.36369
 H2822 H 0.01848 0.50983 0.38374
 C2823 C 0.53636 -0.02597 -0.12519
 C2824 C 0.54693 -0.00678 -0.13215
 C2825 C 0.55775 -0.00694 -0.15109
 C2826 C 0.55800 -0.02631 -0.16297
 C2827 C 0.54648 -0.04512 -0.15650
 C2828 C 0.53557 -0.04492 -0.13758
 C2829 C 0.52419 -0.06389 -0.13141
 C2830 C 0.52348 -0.08252 -0.14366
 C2831 C 0.53431 -0.08282 -0.16205
 C2832 C 0.54574 -0.06439 -0.16846
 C2833 C 0.56838 0.01238 -0.15761
 C2834 C 0.56831 0.03133 -0.14577
 C2835 C 0.55775 0.03148 -0.12725
 C2836 C 0.54718 0.01269 -0.12043
 C2837 C 0.57095 -0.02708 -0.18124
 C2838 C 0.58235 -0.02745 -0.19597
 C2839 C 0.52792 -0.02663 -0.10464
 C2840 C 0.52230 -0.02670 -0.08712
 H2841 H 0.51561 -0.06446 -0.11718
 H2842 H 0.51457 -0.09685 -0.13878
 H2843 H 0.53383 -0.09740 -0.17141
 H2844 H 0.55384 -0.06533 -0.18292
 H2845 H 0.57677 0.01311 -0.17194
 H2846 H 0.57649 0.04597 -0.15101
 H2847 H 0.55773 0.04624 -0.11811
 H2848 H 0.53910 0.01367 -0.10596
 C2849 C 0.61279 0.59027 -0.01547
 C2850 C 0.61322 0.61329 -0.01888
 C2851 C 0.63202 0.62551 -0.01451
 C2852 C 0.65031 0.61464 -0.00677
 C2853 C 0.65019 0.59147 -0.00431
 C2854 C 0.63140 0.57926 -0.00867
 C2855 C 0.63163 0.55616 -0.00585
 C2856 C 0.64988 0.54539 0.00106
 C2857 C 0.66824 0.55731 0.00533
 C2858 C 0.66848 0.58008 0.00271
 C2859 C 0.63195 0.64854 -0.01782
 C2860 C 0.61386 0.65920 -0.02527
 C2861 C 0.59550 0.64726 -0.02953
 C2862 C 0.59509 0.62457 -0.02638
 C2863 C 0.66898 0.62725 -0.00067
 C2864 C 0.68457 0.63732 0.00477
 C2865 C 0.59281 0.57823 -0.01702
 C2866 C 0.57617 0.56825 -0.01682
 H2867 H 0.61776 0.54616 -0.00905
 H2868 H 0.64978 0.52771 0.00311
 H2869 H 0.68238 0.54887 0.01069
 H2870 H 0.68316 0.58862 0.00619
 H2871 H 0.64587 0.65850 -0.01476
 H2872 H 0.61409 0.67682 -0.02775
 H2873 H 0.58150 0.65562 -0.03530
 H2874 H 0.58048 0.61596 -0.02998
 C2875 C 0.11249 1.09015 0.48488
 C2876 C 0.11306 1.11308 0.48095
 C2877 C 0.13193 1.12529 0.48505
 C2878 C 0.15015 1.11450 0.49304
 C2879 C 0.14989 1.09139 0.49602
 C2880 C 0.13102 1.07920 0.49192
 C2881 C 0.13110 1.05617 0.49527
 C2882 C 0.14929 1.04548 0.50244
 C2883 C 0.16772 1.05738 0.50644
 C2884 C 0.16810 1.08008 0.50330
 C2885 C 0.13199 1.14822 0.48125
 C2886 C 0.11396 1.15881 0.47357
 C2887 C 0.09554 1.14688 0.46956
 C2888 C 0.09499 1.12427 0.47319
 C2889 C 0.16885 1.12716 0.49894
 C2890 C 0.18443 1.13732 0.50427
 C2891 C 0.09242 1.07822 0.48358
 C2892 C 0.07570 1.06841 0.48395
 H2893 H 0.11718 1.04619 0.49230
 H2894 H 0.14907 1.02785 0.50489
 H2895 H 0.18180 1.04899 0.51200
 H2896 H 0.18284 1.08861 0.50660
 H2897 H 0.14596 1.15818 0.48410
 H2898 H 0.11429 1.17636 0.47072
 H2899 H 0.08158 1.15518 0.46360
 H2900 H 0.08034 1.11566 0.46976
 C2901 C 0.11175 -0.09414 1.01000
 C2902 C 0.12746 -0.09645 1.02534
 C2903 C 0.14644 -0.10849 1.02135
 C2904 C 0.14960 -0.11816 1.00205
 C2905 C 0.13370 -0.11617 0.98683
 C2906 C 0.11475 -0.10415 0.99080
 C2907 C 0.09918 -0.10233 0.97524
 C2908 C 0.10222 -0.11207 0.95635
 C2909 C 0.12073 -0.12382 0.95249
 C2910 C 0.13633 -0.12591 0.96748
 C2911 C 0.16195 -0.11047 1.03690
 C2912 C 0.15881 -0.10087 1.05585
 C2913 C 0.14028 -0.08912 1.05973
 C2914 C 0.12472 -0.08687 1.04469
 C2915 C 0.16929 -0.12976 0.99753
 C2916 C 0.18547 -0.13927 0.99299
 C2917 C 0.09266 -0.08109 1.01344
 C2918 C 0.07646 -0.07043 1.01431
 H2919 H 0.08447 -0.09340 0.97745
 H2920 H 0.09014 -0.11050 0.94465
 H2921 H 0.12303 -0.13138 0.93779
 H2922 H 0.15044 -0.13524 0.96372
 H2923 H 0.17661 -0.11947 1.03458
 H2924 H 0.17083 -0.10256 1.06759
 H2925 H 0.13793 -0.08171 1.07447
 H2926 H 0.11055 -0.07761 1.04839
 C2927 C 0.61127 0.40539 0.51127
 C2928 C 0.62709 0.40288 0.52649
 C2929 C 0.64603 0.39088 0.52225
 C2930 C 0.64905 0.38145 0.50282
 C2931 C 0.63305 0.38362 0.48773
 C2932 C 0.61413 0.39560 0.49195
 C2933 C 0.59844 0.39760 0.47651
 C2934 C 0.60136 0.38810 0.45750
 C2935 C 0.61984 0.37641 0.45339
 C2936 C 0.63554 0.37413 0.46826
 C2937 C 0.66164 0.38869 0.53768
 C2938 C 0.65864 0.39806 0.55675
 C2939 C 0.64014 0.40977 0.56087
 C2940 C 0.62449 0.41222 0.54595
 C2941 C 0.66874 0.36995 0.49805
 C2942 C 0.68496 0.36057 0.49338
 C2943 C 0.59225 0.41848 0.51493
 C2944 C 0.57610 0.42921 0.51591
 H2945 H 0.58375 0.40649 0.47891
 H2946 H 0.58919 0.38982 0.44590
 H2947 H 0.62203 0.36904 0.43860
 H2948 H 0.64962 0.36485 0.46431
 H2949 H 0.67628 0.37971 0.53518
 H2950 H 0.67074 0.39621 0.56839
 H2951 H 0.63790 0.41701 0.57571
 H2952 H 0.61035 0.42144 0.54984
 C2953 C -0.11151 0.40764 0.48668
 C2954 C -0.11138 0.38434 0.48653
 C2955 C -0.13043 0.37244 0.49060
 C2956 C -0.14954 0.38390 0.49478
 C2957 C -0.14990 0.40720 0.49394
 C2958 C -0.13084 0.41909 0.48989
 C2959 C -0.13157 0.44236 0.48939
 C2960 C -0.15057 0.45359 0.49277
 C2961 C -0.16919 0.44198 0.49672
 C2962 C -0.16895 0.41906 0.49733
 C2963 C -0.12980 0.34917 0.49063
 C2964 C -0.11091 0.33795 0.48670
 C2965 C -0.09231 0.34957 0.48271
 C2966 C -0.09244 0.37250 0.48262
 C2967 C -0.16860 0.37184 0.50071
 C2968 C -0.18445 0.36213 0.50599
 C2969 C -0.09153 0.41974 0.48548
 C2970 C -0.07484 0.42960 0.48589
 H2971 H -0.11751 0.45210 0.48629
 H2972 H -0.15084 0.47140 0.49230
 H2973 H -0.18391 0.45078 0.49932
 H2974 H -0.18385 0.41076 0.50043
 H2975 H -0.14388 0.33941 0.49362
 H2976 H -0.11072 0.32013 0.48675
 H2977 H -0.07768 0.34077 0.47965
 H2978 H -0.07759 0.38082 0.47936
 C2979 C 0.38961 -0.09282 -0.01393
 C2980 C 0.38900 -0.11582 -0.01727
 C2981 C 0.37000 -0.12786 -0.01328
 C2982 C 0.35169 -0.11683 -0.00602
 C2983 C 0.35200 -0.09367 -0.00367
 C2984 C 0.37099 -0.08165 -0.00763
 C2985 C 0.37096 -0.05856 -0.00491
 C2986 C 0.35269 -0.04764 0.00152
 C2987 C 0.33413 -0.05938 0.00538
 C2988 C 0.33370 -0.08213 0.00286
 C2989 C 0.36990 -0.15086 -0.01647
 C2990 C 0.38801 -0.16168 -0.02345
 C2991 C 0.40656 -0.14991 -0.02736
 C2992 C 0.40714 -0.12724 -0.02431
 C2993 C 0.33281 -0.12927 -0.00024
 C2994 C 0.31703 -0.13915 0.00499
 C2995 C 0.40976 -0.08102 -0.01503
 C2996 C 0.42654 -0.07131 -0.01446
 H2997 H 0.38499 -0.04871 -0.00781
 H2998 H 0.35294 -0.02997 0.00350
 H2999 H 0.31998 -0.05082 0.01036
 H3000 H 0.31886 -0.09052 0.00601
 H3001 H 0.35583 -0.16070 -0.01368
 H3002 H 0.38765 -0.17928 -0.02584
 H3003 H 0.42058 -0.15839 -0.03279
 H3004 H 0.42190 -0.11877 -0.02763
 C3005 C 0.38899 1.09261 0.51469
 C3006 C 0.36972 1.08109 0.51122
 C3007 C 0.35056 1.09292 0.50739
 C3008 C 0.35074 1.11623 0.50704
 C3009 C 0.36978 1.12774 0.51156
 C3010 C 0.38894 1.11590 0.51541
 C3011 C 0.40781 1.12779 0.51965
 C3012 C 0.40776 1.15072 0.52011
 C3013 C 0.38904 1.16228 0.51635
 C3014 C 0.37023 1.15101 0.51209
 C3015 C 0.33157 1.08101 0.50371
 C3016 C 0.33151 1.05807 0.50384
 C3017 C 0.35023 1.04652 0.50757
 C3018 C 0.36917 1.05781 0.51121
 C3019 C 0.33164 1.12828 0.50109
 C3020 C 0.31582 1.13801 0.49565
 C3021 C 0.40907 1.08066 0.51556
 C3022 C 0.42581 1.07090 0.51489
 H3023 H 0.42273 1.11951 0.52275
 H3024 H 0.42232 1.15955 0.52343
 H3025 H 0.38909 1.18009 0.51673
 H3026 H 0.35606 1.16072 0.50930
 H3027 H 0.31660 1.08926 0.50078
 H3028 H 0.31683 1.04922 0.50103
 H3029 H 0.35009 1.02871 0.50766
 H3030 H 0.38332 1.04811 0.51413
 C3031 C -0.11181 0.59292 1.01433
 C3032 C -0.13106 0.58136 1.01086
 C3033 C -0.15019 0.59315 1.00676
 C3034 C -0.14999 0.61645 1.00615
 C3035 C -0.13097 0.62802 1.01060
 C3036 C -0.11184 0.61622 1.01472
 C3037 C -0.09299 0.62816 1.01889
 C3038 C -0.09302 0.65109 1.01902
 C3039 C -0.11170 0.66261 1.01499
 C3040 C -0.13050 0.65129 1.01080
 C3041 C -0.16915 0.58118 1.00308
 C3042 C -0.16922 0.55825 1.00345
 C3043 C -0.15053 0.54674 1.00744
 C3044 C -0.13161 0.55808 1.01110
 C3045 C -0.16911 0.62843 1.00013
 C3046 C -0.18499 0.63808 0.99473
 C3047 C -0.09175 0.58096 1.01555
 C3048 C -0.07499 0.57122 1.01516
 H3049 H -0.07809 0.61991 1.02219
 H3050 H -0.07846 0.65996 1.02227
 H3051 H -0.11163 0.68042 1.01511
 H3052 H -0.14464 0.66097 1.00780
 H3053 H -0.18410 0.58940 0.99994
 H3054 H -0.18387 0.54937 1.00062
 H3055 H -0.15067 0.52893 1.00772
 H3056 H -0.11749 0.54841 1.01422
 C3057 C 0.01539 0.59572 0.55571
 C3058 C 0.03266 0.60865 0.54875
 C3059 C 0.03389 0.63117 0.55415
 C3060 C 0.01782 0.64051 0.56642
 C3061 C 0.00098 0.62736 0.57398
 C3062 C -0.00022 0.60483 0.56861
 C3063 C -0.01721 0.59192 0.57623
 C3064 C -0.03258 0.60107 0.58886
 C3065 C -0.03143 0.62317 0.59410
 C3066 C -0.01489 0.63626 0.58677
 C3067 C 0.05122 0.64390 0.54697
 C3068 C 0.06687 0.63460 0.53475
 C3069 C 0.06561 0.61255 0.52937
 C3070 C 0.04876 0.59963 0.53628
 C3071 C 0.01873 0.66359 0.57140
 C3072 C 0.01979 0.68268 0.57583
 C3073 C 0.01290 0.57356 0.54833
 C3074 C 0.01074 0.55560 0.54115
 H3075 H -0.01871 0.57464 0.57262
 H3076 H -0.04544 0.59096 0.59460
 H3077 H -0.04341 0.63022 0.60391
 H3078 H -0.01466 0.65336 0.59128
 H3079 H 0.05288 0.66113 0.55073
 H3080 H 0.08004 0.64455 0.52941
 H3081 H 0.07779 0.60540 0.51985
 H3082 H 0.04858 0.58251 0.53183
 C3083 C 0.51693 0.09284 0.05929
 C3084 C 0.53490 0.10539 0.05344
 C3085 C 0.53620 0.12788 0.05890
 C3086 C 0.51952 0.13759 0.07013
 C3087 C 0.50194 0.12482 0.07664
 C3088 C 0.50065 0.10231 0.07120
 C3089 C 0.48287 0.08981 0.07767
 C3090 C 0.46682 0.09934 0.08926
 C3091 C 0.46808 0.12140 0.09461
 C3092 C 0.48540 0.13409 0.08840
 C3093 C 0.55421 0.14025 0.05276
 C3094 C 0.57043 0.13062 0.04146
 C3095 C 0.56908 0.10861 0.03600
 C3096 C 0.55160 0.09602 0.04194
 C3097 C 0.52043 0.16072 0.07491
 C3098 C 0.52153 0.17989 0.07906
 C3099 C 0.51438 0.07082 0.05159
 C3100 C 0.51217 0.05303 0.04406
 H3101 H 0.48125 0.07257 0.07393
 H3102 H 0.45334 0.08955 0.09411
 H3103 H 0.45558 0.12874 0.10361
 H3104 H 0.48569 0.15118 0.09294
 H3105 H 0.55596 0.15744 0.05662
 H3106 H 0.58409 0.14030 0.03688
 H3107 H 0.58168 0.10123 0.02715
 H3108 H 0.55137 0.07891 0.03748
 C3109 C -0.01143 0.10042 0.94888
 C3110 C 0.00639 0.11468 0.94924
 C3111 C 0.00367 0.13736 0.94475
 C3112 C -0.01684 0.14553 0.93992
 C3113 C -0.03459 0.13118 0.93916
 C3114 C -0.03185 0.10849 0.94361
 C3115 C -0.04977 0.09437 0.94277
 C3116 C -0.06983 0.10247 0.93758
 C3117 C -0.07255 0.12472 0.93333
 C3118 C -0.05519 0.13900 0.93408
 C3119 C 0.02165 0.15140 0.94528
 C3120 C 0.04178 0.14321 0.95013
 C3121 C 0.04445 0.12099 0.95454
 C3122 C 0.02701 0.10681 0.95414
 C3123 C -0.01959 0.16857 0.93519
 C3124 C -0.02207 0.18756 0.93064
 C3125 C -0.00900 0.07786 0.95543
 C3126 C -0.00699 0.05952 0.96199
 H3127 H -0.04845 0.07695 0.94602
 H3128 H -0.08337 0.09145 0.93701
 H3129 H -0.08820 0.13097 0.92944
 H3130 H -0.05810 0.15617 0.93065
 H3131 H 0.02037 0.16882 0.94198
 H3132 H 0.05537 0.15417 0.95047
 H3133 H 0.06011 0.11469 0.95829
 H3134 H 0.02990 0.08964 0.95761
 C3135 C 0.48977 0.60013 0.44937
 C3136 C 0.50774 0.61418 0.44955
 C3137 C 0.50534 0.63673 0.44440
 C3138 C 0.48499 0.64498 0.43909
 C3139 C 0.46708 0.63084 0.43855
 C3140 C 0.46950 0.60828 0.44367
 C3141 C 0.45143 0.59435 0.44302
 C3142 C 0.43152 0.60253 0.43740
 C3143 C 0.42911 0.62466 0.43250
 C3144 C 0.44663 0.63874 0.43304
 C3145 C 0.52348 0.65057 0.44476
 C3146 C 0.54345 0.64230 0.45007
 C3147 C 0.54581 0.62019 0.45512
 C3148 C 0.52821 0.60622 0.45490
 C3149 C 0.48256 0.66789 0.43372
 C3150 C 0.48036 0.68677 0.42870
 C3151 C 0.49189 0.57771 0.45639
 C3152 C 0.49363 0.55946 0.46322
 H3153 H 0.45250 0.57702 0.44677
 H3154 H 0.41786 0.59166 0.43699
 H3155 H 0.41358 0.63097 0.42827
 H3156 H 0.44396 0.65583 0.42909
 H3157 H 0.52243 0.66789 0.44097
 H3158 H 0.55716 0.65310 0.45027
 H3159 H 0.56135 0.61383 0.45922
 H3160 H 0.53086 0.58913 0.45888
 C3161 C 0.51352 0.90654 0.44119
 C3162 C 0.49509 0.89325 0.43965
 C3163 C 0.49710 0.87074 0.43445
 C3164 C 0.51751 0.86179 0.43082
 C3165 C 0.53586 0.87530 0.43156
 C3166 C 0.53384 0.89782 0.43672
 C3167 C 0.55235 0.91110 0.43746
 C3168 C 0.57232 0.90234 0.43311
 C3169 C 0.57433 0.88023 0.42817
 C3170 C 0.55637 0.86677 0.42739
 C3171 C 0.47850 0.85763 0.43318
 C3172 C 0.45847 0.86658 0.43692
 C3173 C 0.45650 0.88866 0.44201
 C3174 C 0.47455 0.90192 0.44340
 C3175 C 0.51963 0.83869 0.42631
 C3176 C 0.52150 0.81956 0.42227
 C3177 C 0.51174 0.92854 0.44910
 C3178 C 0.51015 0.94630 0.45680
 H3179 H 0.55158 0.92838 0.44128
 H3180 H 0.58632 0.91272 0.43371
 H3181 H 0.58990 0.87346 0.42493
 H3182 H 0.55873 0.84969 0.42344
 H3183 H 0.47922 0.84038 0.42927
 H3184 H 0.44441 0.85634 0.43586
 H3185 H 0.44091 0.89555 0.44488
 H3186 H 0.47222 0.91902 0.44732
 C3187 C 0.01651 0.40679 0.94398
 C3188 C 0.00266 0.39869 0.92878
 C3189 C 0.00374 0.37623 0.92313
 C3190 C 0.01875 0.36218 0.93269
 C3191 C 0.03327 0.37055 0.94721
 C3192 C 0.03212 0.39298 0.95291
 C3193 C 0.04662 0.40104 0.96764
 C3194 C 0.06186 0.38727 0.97643
 C3195 C 0.06306 0.36532 0.97077
 C3196 C 0.04895 0.35694 0.95636
 C3197 C -0.01040 0.36834 0.90803
 C3198 C -0.02512 0.38233 0.89872
 C3199 C -0.02613 0.40436 0.90423
 C3200 C -0.01246 0.41253 0.91911
 C3201 C 0.01934 0.33912 0.92757
 C3202 C 0.02018 0.32001 0.92313
 C3203 C 0.01373 0.42880 0.95160
 C3204 C 0.01138 0.44660 0.95903
 H3205 H 0.04647 0.41805 0.97239
 H3206 H 0.07289 0.39373 0.98760
 H3207 H 0.07499 0.35470 0.97758
 H3208 H 0.05050 0.33975 0.95246
 H3209 H -0.01019 0.35134 0.90323
 H3210 H -0.03579 0.37604 0.88717
 H3211 H -0.03756 0.41518 0.89693
 H3212 H -0.01377 0.42980 0.92285
 C3213 C 0.48677 0.39918 0.05080
 C3214 C 0.47028 0.38647 0.04200
 C3215 C 0.46830 0.36389 0.04718
 C3216 C 0.48285 0.35425 0.06106
 C3217 C 0.49902 0.36710 0.07023
 C3218 C 0.50095 0.38970 0.06510
 C3219 C 0.51719 0.40233 0.07441
 C3220 C 0.53114 0.39283 0.08843
 C3221 C 0.52930 0.37065 0.09343
 C3222 C 0.51346 0.35785 0.08447
 C3223 C 0.45172 0.35142 0.03821
 C3224 C 0.43755 0.36103 0.02445
 C3225 C 0.43956 0.38313 0.01927
 C3226 C 0.45567 0.39580 0.02794
 C3227 C 0.48086 0.33126 0.06631
 C3228 C 0.47885 0.31231 0.07117
 C3229 C 0.48985 0.42158 0.04410
 C3230 C 0.49228 0.43979 0.03739
 H3231 H 0.51919 0.41965 0.07103
 H3232 H 0.54345 0.40272 0.09545
 H3233 H 0.54019 0.36333 0.10432
 H3234 H 0.51266 0.34068 0.08884
 H3235 H 0.44954 0.33415 0.04173
 H3236 H 0.42495 0.35127 0.01775
 H3237 H 0.42850 0.39054 0.00860
 H3238 H 0.45645 0.41297 0.02357
 C3239 C -0.01665 0.90194 0.55375
 C3240 C -0.03289 0.88931 0.54447
 C3241 C -0.03497 0.86668 0.54941
 C3242 C -0.02074 0.85693 0.56354
 C3243 C -0.00495 0.86974 0.57331
 C3244 C -0.00293 0.89240 0.56842
 C3245 C 0.01296 0.90499 0.57830
 C3246 C 0.02648 0.89540 0.59266
 C3247 C 0.02454 0.87318 0.59744
 C3248 C 0.00905 0.86041 0.58790
 C3249 C -0.05129 0.85427 0.53996
 C3250 C -0.06511 0.86399 0.52594
 C3251 C -0.06298 0.88614 0.52098
 C3252 C -0.04712 0.89875 0.53012
 C3253 C -0.02257 0.83379 0.56826
 C3254 C -0.02435 0.81470 0.57266
 C3255 C -0.01317 0.92427 0.54704
 C3256 C -0.01036 0.94236 0.54020
 H3257 H 0.01500 0.92235 0.57511
 H3258 H 0.03850 0.90527 0.60013
 H3259 H 0.03509 0.86580 0.60859
 H3260 H 0.00816 0.84320 0.59212
 H3261 H -0.05355 0.83698 0.54330
 H3262 H -0.07753 0.85429 0.51888
 H3263 H -0.07378 0.89364 0.51010
 H3264 H -0.04625 0.91596 0.52591
 C3265 C 0.27322 0.29154 0.12273
 C3266 C 0.29137 0.29080 0.11006
 C3267 C 0.29161 0.30285 0.09144
 C3268 C 0.27363 0.31548 0.08554
 C3269 C 0.25512 0.31539 0.09778
 C3270 C 0.25491 0.30342 0.11641
 C3271 C 0.23629 0.30384 0.12847
 C3272 C 0.21838 0.31570 0.12231
 C3273 C 0.21858 0.32739 0.10410
 C3274 C 0.23669 0.32730 0.09192
 C3275 C 0.31008 0.30210 0.07921
 C3276 C 0.32771 0.28963 0.08507
 C3277 C 0.32739 0.27771 0.10316
 C3278 C 0.30953 0.27835 0.11565
 C3279 C 0.27436 0.32929 0.06740
 C3280 C 0.27481 0.34132 0.05271
 C3281 C 0.27372 0.28155 0.14288
 C3282 C 0.27348 0.27464 0.16012
 H3283 H 0.23530 0.29495 0.14273
 H3284 H 0.20427 0.31581 0.13172
 H3285 H 0.20463 0.33657 0.09938
 H3286 H 0.23604 0.33661 0.07787
 H3287 H 0.31103 0.31104 0.06497
 H3288 H 0.34170 0.28919 0.07551
 H3289 H 0.34112 0.26802 0.10762
 H3290 H 0.31004 0.26890 0.12963
 C3291 C 0.77356 0.79022 0.62242
 C3292 C 0.79185 0.78966 0.60991
 C3293 C 0.79223 0.80191 0.59140
 C3294 C 0.77426 0.81454 0.58545
 C3295 C 0.75562 0.81423 0.59750
 C3296 C 0.75527 0.80206 0.61603
 C3297 C 0.73651 0.80226 0.62791
 C3298 C 0.71861 0.81408 0.62167
 C3299 C 0.71895 0.82596 0.60357
 C3300 C 0.73719 0.82610 0.59157
 C3301 C 0.81081 0.80133 0.57932
 C3302 C 0.82842 0.78884 0.58522
 C3303 C 0.82796 0.77674 0.60321
 C3304 C 0.80998 0.77722 0.61555
 C3305 C 0.77513 0.82858 0.56745
 C3306 C 0.77561 0.84080 0.55291
 C3307 C 0.77391 0.78008 0.64252
 C3308 C 0.77348 0.77311 0.65974
 H3309 H 0.73541 0.79322 0.64207
 H3310 H 0.70440 0.81402 0.63094
 H3311 H 0.70500 0.83511 0.59878
 H3312 H 0.73665 0.83554 0.57759
 H3313 H 0.81186 0.81041 0.56516
 H3314 H 0.84250 0.78854 0.57578
 H3315 H 0.84167 0.76705 0.60771
 H3316 H 0.81038 0.76763 0.62946
 C3317 C 0.22163 0.71063 0.62280
 C3318 C 0.20307 0.69936 0.61638
 C3319 C 0.20319 0.68731 0.59790
 C3320 C 0.22195 0.68638 0.58603
 C3321 C 0.24016 0.69854 0.59194
 C3322 C 0.23999 0.71073 0.61035
 C3323 C 0.25849 0.72252 0.61604
 C3324 C 0.27663 0.72233 0.60389
 C3325 C 0.27679 0.71043 0.58591
 C3326 C 0.25882 0.69862 0.57994
 C3327 C 0.18444 0.67615 0.59186
 C3328 C 0.16610 0.67688 0.60371
 C3329 C 0.16604 0.68852 0.62184
 C3330 C 0.18430 0.69956 0.62822
 C3331 C 0.22287 0.67197 0.56845
 C3332 C 0.22355 0.65949 0.55424
 C3333 C 0.22248 0.72034 0.64296
 C3334 C 0.22362 0.72703 0.66018
 H3335 H 0.25909 0.73208 0.62987
 H3336 H 0.29063 0.73148 0.60846
 H3337 H 0.29092 0.71035 0.57653
 H3338 H 0.25968 0.68966 0.56580
 H3339 H 0.18371 0.66687 0.57788
 H3340 H 0.15186 0.66833 0.59881
 H3341 H 0.15176 0.68904 0.63100
 H3342 H 0.18348 0.70845 0.64241
 C3343 C 0.72305 0.21077 0.12299
 C3344 C 0.70399 0.20073 0.11618
 C3345 C 0.70389 0.18836 0.09787
 C3346 C 0.72290 0.18594 0.08657
 C3347 C 0.74166 0.19696 0.09282
 C3348 C 0.74172 0.20945 0.11105
 C3349 C 0.76075 0.22009 0.11710
 C3350 C 0.77918 0.21848 0.10547
 C3351 C 0.77913 0.20627 0.08766
 C3352 C 0.76063 0.19558 0.08135
 C3353 C 0.68466 0.17838 0.09145
 C3354 C 0.66605 0.18059 0.10276
 C3355 C 0.66619 0.19256 0.12070
 C3356 C 0.68492 0.20247 0.12745
 C3357 C 0.72347 0.17115 0.06924
 C3358 C 0.72398 0.15839 0.05524
 C3359 C 0.72402 0.22054 0.14312
 C3360 C 0.72536 0.22723 0.16033
 H3361 H 0.76154 0.22984 0.13080
 H3362 H 0.79359 0.22676 0.11030
 H3363 H 0.79349 0.20507 0.07868
 H3364 H 0.76135 0.18633 0.06736
 H3365 H 0.68377 0.16890 0.07760
 H3366 H 0.65145 0.17293 0.09758
 H3367 H 0.65170 0.19424 0.12943
 H3368 H 0.68425 0.21166 0.14147
 C3369 C 0.77319 0.21025 0.87928
 C3370 C 0.79177 0.21036 0.89152
 C3371 C 0.79223 0.19827 0.91011
 C3372 C 0.77404 0.18625 0.91640
 C3373 C 0.75512 0.18707 0.90466
 C3374 C 0.75469 0.19908 0.88605
 C3375 C 0.73565 0.19938 0.87445
 C3376 C 0.71755 0.18822 0.88106
 C3377 C 0.71796 0.17652 0.89926
 C3378 C 0.73648 0.17588 0.91098
 C3379 C 0.81109 0.19837 0.92192
 C3380 C 0.82892 0.21027 0.91567
 C3381 C 0.82839 0.22222 0.89760
 C3382 C 0.81012 0.22219 0.88552
 C3383 C 0.77499 0.17220 0.93437
 C3384 C 0.77556 0.15994 0.94888
 C3385 C 0.77340 0.22011 0.85908
 C3386 C 0.77287 0.22689 0.84181
 H3387 H 0.73449 0.20833 0.86023
 H3388 H 0.70312 0.18866 0.87201
 H3389 H 0.70385 0.16788 0.90434
 H3390 H 0.73599 0.16660 0.92505
 H3391 H 0.81221 0.18940 0.93614
 H3392 H 0.84322 0.21023 0.92492
 H3393 H 0.84226 0.23147 0.89284
 H3394 H 0.81048 0.23164 0.87153
 C3395 C 0.27497 0.71025 0.37753
 C3396 C 0.29335 0.71035 0.39004
 C3397 C 0.29356 0.69814 0.40857
 C3398 C 0.27532 0.68600 0.41454
 C3399 C 0.25660 0.68679 0.40249
 C3400 C 0.25642 0.69892 0.38395
 C3401 C 0.23757 0.69922 0.37208
 C3402 C 0.21942 0.68790 0.37834
 C3403 C 0.21959 0.67605 0.39646
 C3404 C 0.23792 0.67544 0.40845
 C3405 C 0.31224 0.69823 0.42065
 C3406 C 0.33011 0.71025 0.41473
 C3407 C 0.32982 0.72234 0.39673
 C3408 C 0.31174 0.72232 0.38438
 C3409 C 0.27598 0.67196 0.43254
 C3410 C 0.27629 0.65976 0.44709
 C3411 C 0.27545 0.72025 0.35739
 C3412 C 0.27506 0.72710 0.34013
 H3413 H 0.23659 0.70827 0.35790
 H3414 H 0.20514 0.68834 0.36908
 H3415 H 0.20545 0.66730 0.40127
 H3416 H 0.23724 0.66603 0.42245
 H3417 H 0.31318 0.68914 0.43481
 H3418 H 0.34427 0.71020 0.42417
 H3419 H 0.34372 0.73169 0.39223
 H3420 H 0.31227 0.73188 0.37047
 C3421 C 0.72294 0.79077 0.37570
 C3422 C 0.70386 0.80031 0.38291
 C3423 C 0.70390 0.81226 0.40146
 C3424 C 0.72309 0.81479 0.41261
 C3425 C 0.74193 0.80432 0.40591
 C3426 C 0.74184 0.79225 0.38743
 C3427 C 0.76094 0.78216 0.38095
 C3428 C 0.77958 0.78388 0.39239
 C3429 C 0.77966 0.79568 0.41044
 C3430 C 0.76110 0.80583 0.41718
 C3431 C 0.68462 0.82168 0.40830
 C3432 C 0.66583 0.81936 0.39716
 C3433 C 0.66583 0.80783 0.37897
 C3434 C 0.68461 0.79847 0.37181
 C3435 C 0.72371 0.82909 0.43029
 C3436 C 0.72417 0.84147 0.44460
 C3437 C 0.72362 0.78119 0.35548
 C3438 C 0.72468 0.77453 0.33825
 H3439 H 0.76164 0.77274 0.36705
 H3440 H 0.79404 0.77602 0.38723
 H3441 H 0.79418 0.79696 0.41927
 H3442 H 0.76193 0.81477 0.43134
 H3443 H 0.68383 0.83081 0.42235
 H3444 H 0.65120 0.82658 0.40266
 H3445 H 0.65120 0.80607 0.37037
 H3446 H 0.68382 0.78961 0.35761
 C3447 C 0.22049 0.29165 0.87578
 C3448 C 0.20168 0.30188 0.88285
 C3449 C 0.20195 0.31374 0.90144
 C3450 C 0.22111 0.31551 0.91278
 C3451 C 0.23964 0.30439 0.90619
 C3452 C 0.23932 0.29240 0.88768
 C3453 C 0.25811 0.28163 0.88133
 C3454 C 0.27669 0.28264 0.89293
 C3455 C 0.27702 0.29437 0.91101
 C3456 C 0.25875 0.30518 0.91763
 C3457 C 0.18295 0.32385 0.90814
 C3458 C 0.16420 0.32228 0.89683
 C3459 C 0.16397 0.31082 0.87860
 C3460 C 0.18248 0.30079 0.87158
 C3461 C 0.22200 0.32962 0.93059
 C3462 C 0.22267 0.34182 0.94502
 C3463 C 0.22100 0.28209 0.85554
 C3464 C 0.22194 0.27543 0.83831
 H3465 H 0.25862 0.27223 0.86741
 H3466 H 0.29092 0.27426 0.88787
 H3467 H 0.29149 0.29511 0.91997
 H3468 H 0.25976 0.31405 0.93182
 H3469 H 0.18234 0.33296 0.92222
 H3470 H 0.14978 0.33003 0.90223
 H3471 H 0.14937 0.30963 0.86987
 H3472 H 0.18152 0.29201 0.85734
 C3473 C 0.83883 0.36372 0.76725
 C3474 C 0.83166 0.38062 0.75398
 C3475 C 0.84511 0.39883 0.74949
 C3476 C 0.86568 0.40011 0.75831
 C3477 C 0.87248 0.38371 0.77228
 C3478 C 0.85901 0.36547 0.77677
 C3479 C 0.86621 0.34923 0.79065
 C3480 C 0.88612 0.35098 0.79994
 C3481 C 0.89930 0.36876 0.79554
 C3482 C 0.89265 0.38498 0.78185
 C3483 C 0.83763 0.41535 0.73599
 C3484 C 0.81746 0.41395 0.72719
 C3485 C 0.80432 0.39616 0.73157
 C3486 C 0.81125 0.37964 0.74478
 C3487 C 0.87987 0.41805 0.75259
 C3488 C 0.89116 0.43313 0.74733
 C3489 C 0.82618 0.34377 0.76949
 C3490 C 0.81564 0.32715 0.76955
 H3491 H 0.85648 0.33515 0.79457
 H3492 H 0.89133 0.33851 0.81065
 H3493 H 0.91475 0.37002 0.80279
 H3494 H 0.90342 0.39853 0.77893
 H3495 H 0.84723 0.42955 0.73212
 H3496 H 0.81200 0.42675 0.71692
 H3497 H 0.78866 0.39515 0.72471
 H3498 H 0.80040 0.36619 0.74777
 C3499 C 0.33985 0.86464 0.26646
 C3500 C 0.33215 0.88227 0.25432
 C3501 C 0.34549 0.90064 0.25009
 C3502 C 0.36647 0.90134 0.25805
 C3503 C 0.37381 0.88421 0.27097
 C3504 C 0.36045 0.86582 0.27520
 C3505 C 0.36820 0.84884 0.28801
 C3506 C 0.38853 0.85001 0.29651
 C3507 C 0.40159 0.86794 0.29235
 C3508 C 0.39441 0.88488 0.27971
 C3509 C 0.33748 0.91790 0.23771
 C3510 C 0.31691 0.91706 0.22974
 C3511 C 0.30388 0.89910 0.23386
 C3512 C 0.31133 0.88186 0.24599
 C3513 C 0.38057 0.91936 0.25236
 C3514 C 0.39183 0.93446 0.24708
 C3515 C 0.32728 0.84460 0.26826
 C3516 C 0.31685 0.82791 0.26807
 H3517 H 0.35857 0.83460 0.29172
 H3518 H 0.39415 0.83696 0.30641
 H3519 H 0.41738 0.86875 0.29898
 H3520 H 0.40511 0.89852 0.27695
 H3521 H 0.34698 0.93224 0.23409
 H3522 H 0.31105 0.93041 0.22032
 H3523 H 0.28791 0.89853 0.22765
 H3524 H 0.30055 0.86831 0.24883
 C3525 C 0.15764 0.86272 0.73308
 C3526 C 0.16703 0.88354 0.73663
 C3527 C 0.15395 0.90206 0.74087
 C3528 C 0.13151 0.89967 0.74154
 C3529 C 0.12208 0.87910 0.73698
 C3530 C 0.13517 0.86059 0.73271
 C3531 C 0.12537 0.84016 0.72843
 C3532 C 0.10326 0.83806 0.72832
 C3533 C 0.09048 0.85614 0.73250
 C3534 C 0.09969 0.87646 0.73681
 C3535 C 0.16376 0.92262 0.74462
 C3536 C 0.18584 0.92484 0.74417
 C3537 C 0.19862 0.90674 0.74003
 C3538 C 0.18941 0.88628 0.73631
 C3539 C 0.11828 0.91814 0.74769
 C3540 C 0.10764 0.93355 0.75316
 C3541 C 0.17099 0.84320 0.73185
 C3542 C 0.18185 0.82681 0.73230
 H3543 H 0.13466 0.82566 0.72500
 H3544 H 0.09602 0.82232 0.72496
 H3545 H 0.07332 0.85442 0.73241
 H3546 H 0.08909 0.89006 0.73994
 H3547 H 0.15449 0.93718 0.74787
 H3548 H 0.19308 0.94070 0.74705
 H3549 H 0.21576 0.90856 0.73969
 H3550 H 0.19999 0.87270 0.73308
 C3551 C 0.66043 0.36206 0.23902
 C3552 C 0.65603 0.36782 0.25945
 C3553 C 0.64284 0.38623 0.26372
 C3554 C 0.63413 0.39887 0.24757
 C3555 C 0.63854 0.39315 0.22716
 C3556 C 0.65172 0.37468 0.22288
 C3557 C 0.65586 0.36928 0.20240
 C3558 C 0.64726 0.38177 0.18655
 C3559 C 0.63441 0.39981 0.19071
 C3560 C 0.63005 0.40552 0.21077
 C3561 C 0.63867 0.39159 0.28425
 C3562 C 0.64728 0.37915 0.30012
 C3563 C 0.66017 0.36117 0.29597
 C3564 C 0.66455 0.35549 0.27593
 C3565 C 0.62084 0.41782 0.25213
 C3566 C 0.61009 0.43352 0.25661
 C3567 C 0.67371 0.34295 0.23503
 C3568 C 0.68467 0.32669 0.23389
 H3569 H 0.66578 0.35539 0.19845
 H3570 H 0.65059 0.37742 0.17095
 H3571 H 0.62778 0.40946 0.17834
 H3572 H 0.61996 0.41968 0.21327
 H3573 H 0.62873 0.40542 0.28829
 H3574 H 0.64392 0.38350 0.31572
 H3575 H 0.66683 0.35155 0.30835
 H3576 H 0.67468 0.34136 0.27356
 C3577 C 0.65810 0.63937 0.26081
 C3578 C 0.65278 0.63397 0.24046
 C3579 C 0.63973 0.61539 0.23635
 C3580 C 0.63203 0.60224 0.25257
 C3581 C 0.63724 0.60769 0.27290
 C3582 C 0.65030 0.62632 0.27703
 C3583 C 0.65526 0.63143 0.29744
 C3584 C 0.64757 0.61852 0.31337
 C3585 C 0.63484 0.60031 0.30936
 C3586 C 0.62969 0.59488 0.28938
 C3587 C 0.63467 0.61037 0.21589
 C3588 C 0.64228 0.62330 0.19995
 C3589 C 0.65504 0.64145 0.20394
 C3590 C 0.66028 0.64680 0.22391
 C3591 C 0.61906 0.58298 0.24814
 C3592 C 0.60859 0.56702 0.24374
 C3593 C 0.67151 0.65845 0.26464
 C3594 C 0.68258 0.67466 0.26562
 H3595 H 0.66511 0.64544 0.30127
 H3596 H 0.65150 0.62266 0.32891
 H3597 H 0.62891 0.59034 0.32179
 H3598 H 0.61973 0.58058 0.28699
 H3599 H 0.62478 0.59644 0.21197
 H3600 H 0.63824 0.61921 0.18440
 H3601 H 0.66092 0.65146 0.19151
 H3602 H 0.67026 0.66110 0.22615
 C3603 C 0.15597 0.13891 0.76593
 C3604 C 0.16548 0.11808 0.76283
 C3605 C 0.15252 0.09948 0.75847
 C3606 C 0.13009 0.10180 0.75723
 C3607 C 0.12053 0.12239 0.76136
 C3608 C 0.13350 0.14099 0.76574
 C3609 C 0.12358 0.16145 0.76956
 C3610 C 0.10148 0.16350 0.76910
 C3611 C 0.08881 0.14533 0.76481
 C3612 C 0.09814 0.12498 0.76095
 C3613 C 0.16244 0.07890 0.75518
 C3614 C 0.18452 0.07675 0.75615
 C3615 C 0.19718 0.09494 0.76038
 C3616 C 0.18785 0.11541 0.76368
 C3617 C 0.11703 0.08323 0.75094
 C3618 C 0.10656 0.06769 0.74537
 C3619 C 0.16926 0.15849 0.76723
 C3620 C 0.18010 0.17489 0.76678
 H3621 H 0.13278 0.17602 0.77304
 H3622 H 0.09414 0.17927 0.77209
 H3623 H 0.07165 0.14701 0.76447
 H3624 H 0.08763 0.11131 0.75773
 H3625 H 0.15327 0.06426 0.75188
 H3626 H 0.19184 0.06088 0.75360
 H3627 H 0.21432 0.09318 0.76112
 H3628 H 0.19834 0.12906 0.76701
 C3629 C 0.33937 0.13644 0.23298
 C3630 C 0.35960 0.13471 0.22367
 C3631 C 0.37293 0.11632 0.22807
 C3632 C 0.36594 0.09974 0.24172
 C3633 C 0.34530 0.10097 0.25026
 C3634 C 0.33199 0.11934 0.24588
 C3635 C 0.31153 0.12028 0.25481
 C3636 C 0.30440 0.10358 0.26768
 C3637 C 0.31740 0.08563 0.27197
 C3638 C 0.33763 0.08426 0.26341
 C3639 C 0.39316 0.11511 0.21875
 C3640 C 0.39999 0.13150 0.20539
 C3641 C 0.38695 0.14943 0.20106
 C3642 C 0.36699 0.15114 0.21012
 C3643 C 0.38005 0.08174 0.24751
 C3644 C 0.39130 0.06666 0.25291
 C3645 C 0.32697 0.15658 0.23101
 C3646 C 0.31668 0.17337 0.23120
 H3647 H 0.30077 0.13385 0.25186
 H3648 H 0.28870 0.10456 0.27434
 H3649 H 0.31179 0.07269 0.28197
 H3650 H 0.34712 0.06995 0.26719
 H3651 H 0.40383 0.10145 0.22162
 H3652 H 0.41549 0.13028 0.19833
 H3653 H 0.39230 0.16205 0.19060
 H3654 H 0.35735 0.16534 0.20627
 C3655 C 0.83973 0.63606 0.73403
 C3656 C 0.86030 0.63476 0.72538
 C3657 C 0.87367 0.61643 0.72987
 C3658 C 0.86637 0.59948 0.74297
 C3659 C 0.84541 0.60029 0.75084
 C3660 C 0.83207 0.61860 0.74635
 C3661 C 0.81127 0.61910 0.75458
 C3662 C 0.80385 0.60202 0.76687
 C3663 C 0.81689 0.58413 0.77126
 C3664 C 0.83744 0.58319 0.76339
 C3665 C 0.89423 0.61564 0.72120
 C3666 C 0.90136 0.63240 0.70837
 C3667 C 0.88828 0.65026 0.70395
 C3668 C 0.86799 0.65156 0.71237
 C3669 C 0.88044 0.58146 0.74883
 C3670 C 0.89162 0.56631 0.75421
 C3671 C 0.82715 0.65607 0.73196
 C3672 C 0.81668 0.67274 0.73199
 H3673 H 0.80048 0.63261 0.75154
 H3674 H 0.78789 0.60267 0.77300
 H3675 H 0.81105 0.57090 0.78080
 H3676 H 0.84695 0.56890 0.76722
 H3677 H 0.90495 0.60204 0.72417
 H3678 H 0.91712 0.63150 0.70179
 H3679 H 0.89386 0.66317 0.69390
 H3680 H 0.85834 0.66573 0.70847
 C3681 C 0.85261 0.76084 0.20359
 C3682 C 0.85988 0.78171 0.19699
 C3683 C 0.88188 0.78504 0.19327
 C3684 C 0.89635 0.76742 0.19609
 C3685 C 0.88902 0.74646 0.20237
 C3686 C 0.86703 0.74314 0.20613
 C3687 C 0.85998 0.72207 0.21248
 C3688 C 0.87431 0.70476 0.21501
 C3689 C 0.89587 0.70800 0.21132
 C3690 C 0.90324 0.72858 0.20507
 C3691 C 0.88890 0.80609 0.18682
 C3692 C 0.87451 0.82331 0.18402
 C3693 C 0.85293 0.82001 0.18756
 C3694 C 0.84562 0.79950 0.19406
 C3695 C 0.91868 0.77062 0.19187
 C3696 C 0.93714 0.77304 0.18773
 C3697 C 0.83058 0.75797 0.20919
 C3698 C 0.81259 0.75582 0.21494
 H3699 H 0.84335 0.71872 0.21547
 H3700 H 0.86866 0.68875 0.21985
 H3701 H 0.90695 0.69452 0.21332
 H3702 H 0.92016 0.73030 0.20242
 H3703 H 0.90554 0.80945 0.18389
 H3704 H 0.88014 0.83931 0.17911
 H3705 H 0.84182 0.83345 0.18543
 H3706 H 0.82869 0.79775 0.19669
 C3707 C 0.34886 0.26028 0.70219
 C3708 C 0.35654 0.28114 0.69602
 C3709 C 0.37858 0.28406 0.69222
 C3710 C 0.39267 0.26603 0.69452
 C3711 C 0.38490 0.24504 0.70021
 C3712 C 0.36287 0.24215 0.70406
 C3713 C 0.35537 0.22106 0.70985
 C3714 C 0.36931 0.20332 0.71175
 C3715 C 0.39090 0.20615 0.70798
 C3716 C 0.39870 0.22673 0.70227
 C3717 C 0.38602 0.30511 0.68624
 C3718 C 0.37200 0.32274 0.68397
 C3719 C 0.35038 0.31985 0.68758
 C3720 C 0.34266 0.29934 0.69363
 C3721 C 0.41510 0.26892 0.69058
 C3722 C 0.43366 0.27118 0.68678
 C3723 C 0.32689 0.25785 0.70814
 C3724 C 0.30898 0.25602 0.71421
 H3725 H 0.33870 0.21803 0.71288
 H3726 H 0.36331 0.18730 0.71617
 H3727 H 0.40167 0.19232 0.70947
 H3728 H 0.41563 0.22812 0.69951
 H3729 H 0.40271 0.30816 0.68327
 H3730 H 0.37795 0.33874 0.67942
 H3731 H 0.33956 0.33360 0.68585
 H3732 H 0.32572 0.29791 0.69633
 C3733 C 0.35026 0.74075 0.79801
 C3734 C 0.36442 0.75878 0.79638
 C3735 C 0.38639 0.75571 0.80056
 C3736 C 0.39394 0.73465 0.80633
 C3737 C 0.37969 0.71674 0.80844
 C3738 C 0.35771 0.71983 0.80430
 C3739 C 0.34367 0.70174 0.80647
 C3740 C 0.35118 0.68117 0.81264
 C3741 C 0.37273 0.67811 0.81660
 C3742 C 0.38691 0.69563 0.81454
 C3743 C 0.40036 0.77390 0.79873
 C3744 C 0.39278 0.79456 0.79294
 C3745 C 0.37124 0.79757 0.78883
 C3746 C 0.35715 0.77994 0.79050
 C3747 C 0.41630 0.73152 0.81049
 C3748 C 0.43480 0.72896 0.81444
 C3749 C 0.32840 0.74334 0.79168
 C3750 C 0.31057 0.74526 0.78533
 H3751 H 0.32677 0.70330 0.80350
 H3752 H 0.34023 0.66751 0.81420
 H3753 H 0.37852 0.66207 0.82125
 H3754 H 0.40354 0.69244 0.81779
 H3755 H 0.41725 0.77237 0.80175
 H3756 H 0.40367 0.80830 0.79162
 H3757 H 0.36542 0.81364 0.78435
 H3758 H 0.34053 0.78310 0.78722
 C3759 C 0.85481 0.23952 0.29504
 C3760 C 0.86929 0.25716 0.29257
 C3761 C 0.89128 0.25377 0.29642
 C3762 C 0.89853 0.23278 0.30273
 C3763 C 0.88401 0.21521 0.30548
 C3764 C 0.86201 0.21862 0.30167
 C3765 C 0.84769 0.20088 0.30453
 C3766 C 0.85494 0.18035 0.31106
 C3767 C 0.87652 0.17697 0.31471
 C3768 C 0.89096 0.19414 0.31197
 C3769 C 0.90556 0.27159 0.29379
 C3770 C 0.89826 0.29220 0.28752
 C3771 C 0.87671 0.29553 0.28374
 C3772 C 0.86231 0.27827 0.28620
 C3773 C 0.92084 0.22947 0.30707
 C3774 C 0.93926 0.22684 0.31134
 C3775 C 0.83278 0.24248 0.28938
 C3776 C 0.81477 0.24469 0.28360
 H3777 H 0.83077 0.20270 0.30182
 H3778 H 0.84379 0.16695 0.31314
 H3779 H 0.88210 0.16095 0.31965
 H3780 H 0.90759 0.19070 0.31498
 H3781 H 0.92248 0.26980 0.29652
 H3782 H 0.90939 0.30565 0.28558
 H3783 H 0.87110 0.31156 0.27888
 H3784 H 0.84569 0.28168 0.28313
 C3785 C 0.15049 0.25963 0.29957
 C3786 C 0.14316 0.28063 0.30554
 C3787 C 0.12125 0.28379 0.30978
 C3788 C 0.10695 0.26588 0.30809
 C3789 C 0.11441 0.24474 0.30270
 C3790 C 0.13630 0.24160 0.29842
 C3791 C 0.14347 0.22037 0.29291
 C3792 C 0.12935 0.20273 0.29170
 C3793 C 0.10788 0.20581 0.29590
 C3794 C 0.10040 0.22654 0.30133
 C3795 C 0.11414 0.30496 0.31554
 C3796 C 0.12837 0.32247 0.31719
 C3797 C 0.14987 0.31934 0.31315
 C3798 C 0.15726 0.29872 0.30729
 C3799 C 0.08462 0.26908 0.31221
 C3800 C 0.06609 0.27144 0.31603
 C3801 C 0.17223 0.25697 0.29302
 C3802 C 0.18992 0.25497 0.28646
 H3803 H 0.16005 0.21715 0.28958
 H3804 H 0.13510 0.18660 0.28750
 H3805 H 0.09696 0.19206 0.29494
 H3806 H 0.08356 0.22810 0.30445
 H3807 H 0.09757 0.30819 0.31885
 H3808 H 0.12268 0.33856 0.32160
 H3809 H 0.16085 0.33301 0.31439
 H3810 H 0.17410 0.29709 0.30423
 C3811 C 0.64798 0.75765 0.79685
 C3812 C 0.64094 0.77861 0.80325
 C3813 C 0.61903 0.78208 0.80728
 C3814 C 0.60443 0.76452 0.80495
 C3815 C 0.61156 0.74343 0.79904
 C3816 C 0.63346 0.73997 0.79498
 C3817 C 0.64032 0.71879 0.78899
 C3818 C 0.62587 0.70150 0.78709
 C3819 C 0.60440 0.70488 0.79106
 C3820 C 0.59723 0.72558 0.79697
 C3821 C 0.61223 0.80321 0.81349
 C3822 C 0.62675 0.82037 0.81579
 C3823 C 0.64824 0.81693 0.81195
 C3824 C 0.65534 0.79635 0.80566
 C3825 C 0.58215 0.76801 0.80912
 C3826 C 0.56373 0.77084 0.81313
 C3827 C 0.66981 0.75474 0.79069
 C3828 C 0.68764 0.75271 0.78449
 H3829 H 0.65688 0.71534 0.78581
 H3830 H 0.63138 0.68539 0.78253
 H3831 H 0.59323 0.69141 0.78956
 H3832 H 0.58037 0.72741 0.79987
 H3833 H 0.59567 0.80668 0.81665
 H3834 H 0.62129 0.83643 0.82054
 H3835 H 0.65946 0.83033 0.81368
 H3836 H 0.67220 0.79449 0.80279
 C3837 C 0.64617 0.24042 0.70602
 C3838 C 0.63151 0.25790 0.70831
 C3839 C 0.60955 0.25425 0.70453
 C3840 C 0.60249 0.23316 0.69847
 C3841 C 0.61719 0.21575 0.69592
 C3842 C 0.63916 0.21942 0.69966
 C3843 C 0.65366 0.20183 0.69701
 C3844 C 0.64661 0.18120 0.69075
 C3845 C 0.62507 0.17757 0.68716
 C3846 C 0.61045 0.19458 0.68970
 C3847 C 0.59510 0.27192 0.70698
 C3848 C 0.60220 0.29261 0.71301
 C3849 C 0.62372 0.29619 0.71672
 C3850 C 0.63829 0.27909 0.71443
 C3851 C 0.58019 0.22962 0.69417
 C3852 C 0.56177 0.22692 0.68994
 C3853 C 0.66817 0.24362 0.71166
 C3854 C 0.68615 0.24598 0.71748
 H3855 H 0.67056 0.20384 0.69968
 H3856 H 0.65790 0.16792 0.68883
 H3857 H 0.61964 0.16147 0.68244
 H3858 H 0.59385 0.19096 0.68676
 H3859 H 0.57819 0.26994 0.70430
 H3860 H 0.59094 0.30594 0.71482
 H3861 H 0.62917 0.31229 0.72139
 H3862 H 0.65488 0.28269 0.71743
 C3863 C 0.14822 0.73849 0.20475
 C3864 C 0.13759 0.75336 0.19162
 C3865 C 0.11564 0.75035 0.18734
 C3866 C 0.10457 0.73242 0.19619
 C3867 C 0.11532 0.71726 0.20897
 C3868 C 0.13724 0.72034 0.21334
 C3869 C 0.14767 0.70516 0.22641
 C3870 C 0.13669 0.68743 0.23488
 C3871 C 0.11526 0.68429 0.23043
 C3872 C 0.10460 0.69900 0.21765
 C3873 C 0.10522 0.76552 0.17425
 C3874 C 0.11625 0.78314 0.16565
 C3875 C 0.13777 0.78606 0.16984
 C3876 C 0.14841 0.77140 0.18268
 C3877 C 0.08217 0.72955 0.19198
 C3878 C 0.06365 0.72731 0.18791
 C3879 C 0.17013 0.74237 0.21036
 C3880 C 0.18807 0.74524 0.21608
 H3881 H 0.16439 0.70675 0.23018
 H3882 H 0.14492 0.67596 0.24482
 H3883 H 0.10685 0.67041 0.23693
 H3884 H 0.08791 0.69591 0.21467
 H3885 H 0.08849 0.76393 0.17053
 H3886 H 0.10804 0.79457 0.15568
 H3887 H 0.14628 0.79977 0.16312
 H3888 H 0.16517 0.77431 0.18546
   
