data_POSCAR
  _audit_creation_date              2014-09-24
  _audit_creation_method            'ToBaCCo'
  _symmetry_space_group_name_H-M    'P1'
  _symmetry_Int_Tables_number       1
  _symmetry_cell_setting            triclinic
  loop_
  _symmetry_equiv_pos_as_xyz
 x,y,z
_cell_length_a 71.6980
_cell_length_b 71.5394
_cell_length_c 71.3809
_cell_angle_alpha 90.475500
_cell_angle_beta 90.407400
_cell_angle_gamma 90.978300
loop_
  _atom_site_label
  _atom_site_type_symbol
  _atom_site_fract_x
  _atom_site_fract_y
  _atom_site_fract_z
C1 C 0.11935 -0.00271 0.23300
 C2 C 0.13164 0.01485 0.23471
 C3 C 0.14172 0.01617 0.25084
 C4 C 0.13862 -0.00034 0.26416
 C5 C 0.13272 -0.01895 0.23602
 C6 C 0.14282 -0.01768 0.25217
 C7 C 0.10736 -0.00274 0.25082
 C8 C 0.11737 -0.00150 0.26715
 H9 H 0.13232 0.02542 0.22393
 H10 H 0.14714 0.00055 0.27720
 H11 H 0.13341 -0.03095 0.22670
 H12 H 0.09237 -0.00439 0.25064
 C13 C 0.38210 -0.00369 0.73464
 C14 C 0.36577 -0.01760 0.73628
 C15 C 0.35534 -0.01530 0.75193
 C16 C 0.36226 0.00089 0.76472
 C17 C 0.37330 0.01555 0.73623
 C18 C 0.36302 0.01813 0.75192
 C19 C 0.39257 -0.00589 0.75203
 C20 C 0.38189 -0.00304 0.76877
 H21 H 0.36360 -0.02927 0.72668
 H22 H 0.35319 0.00315 0.77696
 H23 H 0.37552 0.02640 0.72594
 H24 H 0.40626 -0.01192 0.75249
 C25 C 0.87907 0.49412 0.23232
 C26 C 0.86267 0.48041 0.23418
 C27 C 0.85232 0.48281 0.24981
 C28 C 0.85925 0.49901 0.26250
 C29 C 0.87051 0.51348 0.23400
 C30 C 0.86024 0.51619 0.24969
 C31 C 0.89017 0.49202 0.25074
 C32 C 0.87989 0.49483 0.26655
 H33 H 0.86030 0.46881 0.22453
 H34 H 0.85063 0.50117 0.27517
 H35 H 0.87299 0.52437 0.22381
 H36 H 0.90487 0.48920 0.25149
 C37 C 0.61973 0.50190 0.73269
 C38 C 0.63513 0.51683 0.73398
 C39 C 0.64530 0.51662 0.75007
 C40 C 0.63930 0.50115 0.76371
 C41 C 0.62958 0.48339 0.73604
 C42 C 0.63985 0.48293 0.75213
 C43 C 0.60815 0.50463 0.75057
 C44 C 0.61828 0.50405 0.76684
 H45 H 0.63705 0.52749 0.72343
 H46 H 0.64782 0.50071 0.77674
 H47 H 0.62787 0.47135 0.72683
 H48 H 0.59315 0.50555 0.75059
 C49 C 0.23523 0.11862 1.00186
 C50 C 0.23653 0.13412 1.01664
 C51 C 0.25240 0.14468 1.01603
 C52 C 0.26583 0.13894 1.00040
 C53 C 0.23816 0.12853 0.98315
 C54 C 0.25404 0.13916 0.98231
 C55 C 0.25321 0.10745 1.00448
 C56 C 0.26925 0.11798 1.00350
 H57 H 0.22618 0.13583 1.02749
 H58 H 0.27869 0.14776 0.99968
 H59 H 0.22879 0.12663 0.97128
 H60 H 0.25351 0.09244 1.00564
 C61 C 0.72803 0.38377 0.99645
 C62 C 0.73156 0.37274 0.97980
 C63 C 0.74691 0.36034 0.98137
 C64 C 0.75617 0.36150 0.99984
 C65 C 0.72610 0.37036 1.01145
 C66 C 0.74176 0.35847 1.01421
 C67 C 0.74579 0.39358 1.00014
 C68 C 0.76156 0.38139 1.00196
 H69 H 0.72340 0.37405 0.96704
 H70 H 0.76792 0.35185 1.00107
 H71 H 0.71347 0.36939 1.01963
 H72 H 0.74782 0.40834 0.99766
 C73 C 0.23189 0.88429 0.49767
 C74 C 0.23363 0.86840 0.48340
 C75 C 0.24926 0.85813 0.48530
 C76 C 0.26204 0.86460 0.50161
 C77 C 0.23379 0.87497 0.51677
 C78 C 0.24946 0.86476 0.51899
 C79 C 0.25020 0.89571 0.49566
 C80 C 0.26601 0.88551 0.49796
 H81 H 0.22387 0.86630 0.47188
 H82 H 0.27465 0.85601 0.50340
 H83 H 0.22372 0.87685 0.52785
 H84 H 0.25086 0.91049 0.49288
 C85 C 0.73535 0.61960 0.49928
 C86 C 0.73699 0.63498 0.51415
 C87 C 0.75317 0.64505 0.51375
 C88 C 0.76656 0.63898 0.49820
 C89 C 0.73876 0.62949 0.48065
 C90 C 0.75495 0.63966 0.48002
 C91 C 0.75295 0.60785 0.50198
 C92 C 0.76932 0.61789 0.50122
 H93 H 0.72658 0.63697 0.52489
 H94 H 0.77967 0.64743 0.49763
 H95 H 0.72950 0.62789 0.46865
 H96 H 0.75274 0.59281 0.50297
 C97 C 0.00141 0.23055 0.11875
 C98 C 0.01802 0.23344 0.13203
 C99 C 0.01722 0.24903 0.14289
 C100 C -0.00027 0.26069 0.13961
 C101 C -0.01574 0.23127 0.13137
 C102 C -0.01667 0.24683 0.14242
 C103 C 0.00050 0.24881 0.10755
 C104 C -0.00048 0.26458 0.11841
 H105 H 0.02965 0.22398 0.13259
 H106 H -0.00089 0.27331 0.14871
 H107 H -0.02671 0.22067 0.13082
 H108 H 0.00023 0.24945 0.09247
 C109 C -0.00401 0.73050 0.38261
 C110 C -0.01628 0.73009 0.36643
 C111 C -0.01534 0.74637 0.35501
 C112 C -0.00154 0.76017 0.36177
 C113 C 0.01551 0.73420 0.37477
 C114 C 0.01694 0.74962 0.36382
 C115 C -0.00854 0.74885 0.39309
 C116 C -0.00702 0.76439 0.38217
 H117 H -0.02721 0.71953 0.36485
 H118 H -0.00015 0.77281 0.35293
 H119 H 0.02729 0.72544 0.37792
 H120 H -0.01035 0.75000 0.40807
 C121 C 0.49584 0.23362 0.88406
 C122 C 0.48259 0.23467 0.86724
 C123 C 0.48493 0.25012 0.85655
 C124 C 0.50066 0.26336 0.86354
 C125 C 0.51539 0.23572 0.87581
 C126 C 0.51805 0.25117 0.86513
 C127 C 0.49292 0.25219 0.89475
 C128 C 0.49563 0.26769 0.88400
 H129 H 0.47111 0.22482 0.86506
 H130 H 0.50261 0.27600 0.85478
 H131 H 0.52630 0.22578 0.87848
 H132 H 0.49028 0.25335 0.90958
 C133 C 0.50047 0.73531 0.62003
 C134 C 0.51743 0.73793 0.63290
 C135 C 0.51702 0.75340 0.64397
 C136 C 0.49955 0.76523 0.64127
 C137 C 0.48367 0.73602 0.63309
 C138 C 0.48316 0.75144 0.64436
 C139 C 0.49947 0.75370 0.60906
 C140 C 0.49892 0.76937 0.62012
 H141 H 0.52901 0.72838 0.63306
 H142 H 0.49924 0.77776 0.65054
 H143 H 0.47272 0.72539 0.63289
 H144 H 0.49924 0.75454 0.59398
 C145 C 0.88196 1.00599 0.76686
 C146 C 0.87184 1.02316 0.76415
 C147 C 0.86089 1.02375 0.74731
 C148 C 0.86160 1.00632 0.73643
 C149 C 0.86675 0.99073 0.76616
 C150 C 0.85622 0.99065 0.75024
 C151 C 0.89307 1.00323 0.74881
 C152 C 0.88260 1.00363 0.73276
 H153 H 0.86987 1.03330 0.77523
 H154 H 0.85301 1.00613 0.72347
 H155 H 0.86497 0.98032 0.77697
 H156 H 0.90804 1.00155 0.74889
 C157 C 0.38161 0.50644 0.26589
 C158 C 0.37060 0.52419 0.26195
 C159 C 0.35995 0.52327 0.24610
 C160 C 0.36134 0.50464 0.23534
 C161 C 0.36709 0.49063 0.26564
 C162 C 0.35656 0.48952 0.24980
 C163 C 0.39294 0.50363 0.24789
 C164 C 0.38244 0.50287 0.23184
 H165 H 0.37200 0.53681 0.27037
 H166 H 0.35251 0.50399 0.22250
 H167 H 0.36597 0.48045 0.27676
 H168 H 0.40800 0.50381 0.24764
 C169 C 0.61677 0.99793 0.26966
 C170 C 0.62555 0.97896 0.26565
 C171 C 0.63611 0.97850 0.24988
 C172 C 0.63687 0.99726 0.23937
 C173 C 0.63213 1.01124 0.26974
 C174 C 0.64326 1.01122 0.25322
 C175 C 0.60565 1.00188 0.25161
 C176 C 0.61608 1.00131 0.23566
 H177 H 0.62309 0.96677 0.27425
 H178 H 0.64542 0.99642 0.22652
 H179 H 0.63348 1.02192 0.28054
 H180 H 0.59067 1.00311 0.25112
 C181 C 0.11491 0.50006 0.76811
 C182 C 0.12423 0.48111 0.76582
 C183 C 0.13485 0.47943 0.75021
 C184 C 0.13536 0.49712 0.73809
 C185 C 0.13083 0.51443 0.76707
 C186 C 0.14149 0.51306 0.75151
 C187 C 0.10402 0.50245 0.74962
 C188 C 0.11461 0.50064 0.73389
 H189 H 0.12201 0.46973 0.77552
 H190 H 0.14423 0.49579 0.72549
 H191 H 0.13268 0.52564 0.77726
 H192 H 0.08920 0.50460 0.74874
 C193 C 0.76570 0.88491 0.00073
 C194 C 0.76158 0.87478 0.01910
 C195 C 0.74553 0.86435 0.01886
 C196 C 0.73476 0.86506 0.00018
 C197 C 0.76498 0.86966 -0.01432
 C198 C 0.74895 0.85933 -0.01477
 C199 C 0.74807 0.89642 -0.00268
 C200 C 0.73183 0.88614 -0.00276
 H201 H 0.77029 0.87634 0.03150
 H202 H 0.72175 0.85641 0.00007
 H203 H 0.77594 0.86791 -0.02454
 H204 H 0.74812 0.91148 -0.00343
 C205 C 0.26584 0.38547 0.50234
 C206 C 0.26192 0.37548 0.52083
 C207 C 0.24611 0.36468 0.52070
 C208 C 0.23536 0.36490 0.50199
 C209 C 0.26551 0.37003 0.48749
 C210 C 0.24972 0.35933 0.48714
 C211 C 0.24794 0.39651 0.49874
 C212 C 0.23193 0.38586 0.49877
 H213 H 0.27061 0.37735 0.53321
 H214 H 0.22256 0.35596 0.50196
 H215 H 0.27650 0.36846 0.47727
 H216 H 0.24764 0.41153 0.49770
 C217 C 0.26538 0.61342 0.00348
 C218 C 0.26317 0.62253 -0.01571
 C219 C 0.24748 0.63275 -0.01778
 C220 C 0.23518 0.63309 -0.00020
 C221 C 0.26387 0.62947 0.01758
 C222 C 0.24825 0.63976 0.01582
 C223 C 0.24711 0.60204 0.00588
 C224 C 0.23127 0.61222 0.00371
 H225 H 0.27306 0.62053 -0.02692
 H226 H 0.22253 0.64166 -0.00186
 H227 H 0.27389 0.63176 0.02885
 H228 H 0.24648 0.58725 0.00858
 C229 C 0.77000 0.11584 0.50315
 C230 C 0.76785 0.12334 0.48447
 C231 C 0.75176 0.13467 0.48186
 C232 C 0.74064 0.13632 0.49906
 C233 C 0.76965 0.13191 0.51567
 C234 C 0.75357 0.14330 0.51371
 C235 C 0.75246 0.10586 0.50686
 C236 C 0.73596 0.11684 0.50409
 H237 H 0.77835 0.12147 0.47380
 H238 H 0.72856 0.14544 0.49718
 H239 H 0.77921 0.13341 0.52746
 H240 H 0.75183 0.09265 0.51403
 C241 C 1.00230 0.76283 0.88333
 C242 C 1.02055 0.75874 0.87318
 C243 C 1.02006 0.74283 0.86258
 C244 C 1.00126 0.73218 0.86314
 C245 C 0.98737 0.76252 0.86801
 C246 C 0.98666 0.74664 0.85752
 C247 C 0.99854 0.74498 0.89468
 C248 C 0.99821 0.72888 0.88423
 H249 H 1.03307 0.76730 0.87490
 H250 H 1.00093 0.71929 0.85436
 H251 H 0.97738 0.77360 0.86637
 H252 H 0.99777 0.74476 0.90977
 C253 C 0.50256 0.26764 0.38423
 C254 C 0.52061 0.26409 0.37351
 C255 C 0.52034 0.24810 0.36303
 C256 C 0.50192 0.23685 0.36424
 C257 C 0.48717 0.26672 0.36939
 C258 C 0.48667 0.25077 0.35900
 C259 C 0.49978 0.24975 0.39580
 C260 C 0.49965 0.23360 0.38543
 H261 H 0.53292 0.27302 0.37488
 H262 H 0.50174 0.22392 0.35554
 H263 H 0.47681 0.27750 0.36793
 H264 H 0.49956 0.24960 0.41091
 C265 C 1.00243 0.26544 0.61576
 C266 C 0.98460 0.26531 0.62736
 C267 C 0.98239 0.25027 0.63870
 C268 C 0.99841 0.23626 0.63726
 C269 C 1.01819 0.26310 0.63001
 C270 C 1.01618 0.24804 0.64127
 C271 C 1.00160 0.24670 0.60501
 C272 C 0.99934 0.23141 0.61619
 H273 H 0.97409 0.27591 0.62585
 H274 H 0.99677 0.22405 0.64664
 H275 H 1.03025 0.27243 0.63082
 H276 H 1.00306 0.24535 0.59004
 C277 C 0.50085 0.76863 0.11755
 C278 C 0.48325 0.76807 0.12951
 C279 C 0.48155 0.75287 0.14075
 C280 C 0.49779 0.73918 0.13884
 C281 C 0.51692 0.76645 0.13147
 C282 C 0.51542 0.75123 0.14260
 C283 C 0.50011 0.74997 0.10665
 C284 C 0.49834 0.73455 0.11771
 H285 H 0.47251 0.77847 0.12829
 H286 H 0.49657 0.72687 0.14813
 H287 H 0.52882 0.77599 0.13213
 H288 H 0.50098 0.74879 0.09161
 O289 O -0.00887 0.98754 0.94542
 O290 O 0.02162 0.99852 0.94429
 O291 O -0.00795 0.94512 0.98758
 O292 O -0.00084 0.94275 1.01780
 O293 O -0.05069 0.98734 0.98832
 O294 O -0.05117 1.01891 0.99828
 O295 O 0.04050 0.99504 1.03826
 O296 O 0.04274 0.96638 1.02373
 O297 O 0.04262 1.03568 0.99662
 O298 O 0.02638 1.04068 0.96703
 O299 O 0.00081 1.03786 1.03657
 O300 O -0.02843 1.02167 1.04178
 O301 O 0.01493 1.00843 1.05098
 O302 O -0.01879 0.99769 1.05201
 O303 O 0.01372 1.05063 1.01060
 O304 O 0.00283 1.05138 0.97713
 O305 O 0.05482 1.00997 1.01016
 O306 O 0.05467 0.97854 0.99486
 O307 O -0.03403 1.00202 0.95787
 O308 O -0.03829 1.03075 0.97520
 O309 O -0.03871 0.96140 1.00166
 O310 O -0.02138 0.95841 1.03174
 O311 O 0.00488 0.95763 0.96140
 O312 O 0.03529 0.97442 0.95954
 Zr313 Zr 0.00966 0.98598 0.96825
 O314 O 0.02765 1.00326 0.98444
 Zr315 Zr -0.01028 0.96794 1.00606
 O316 O 0.00742 0.98390 1.02381
 Zr317 Zr -0.02771 1.00582 0.98653
 O318 O -0.01134 1.02355 1.00391
 Zr319 Zr 0.03255 0.99046 1.01028
 O320 O 0.01591 0.97218 0.99344
 Zr321 Zr 0.01458 1.02841 0.99120
 O322 O -0.00255 1.01218 0.97292
 Zr323 Zr -0.00477 1.00988 1.02900
 O324 O -0.02349 0.99315 1.01268
 O325 O -0.01604 0.98015 0.98045
 O326 O 0.02081 1.01616 1.01680
 C327 C -0.02508 0.99485 0.94406
 C328 C -0.00165 0.94378 0.97082
 C329 C -0.05233 0.97075 0.99493
 C330 C 0.03162 1.00217 1.05209
 C331 C 0.05615 1.02679 1.00409
 C332 C 0.00788 1.05168 1.02753
 H333 H 0.03944 1.00538 0.97761
 H334 H -0.01810 1.03526 1.00617
 H335 H -0.02417 0.97213 0.97236
 H336 H 0.00973 0.97688 1.03544
 H337 H 0.03975 0.95563 1.01535
 H338 H 0.01104 0.94579 1.02433
 H339 H -0.00814 1.05545 0.98434
 H340 H -0.02888 1.03543 0.96622
 H341 H 0.06613 0.97937 1.00270
 H342 H 0.03321 0.96748 0.94759
 H343 H -0.03368 1.03079 1.03293
 H344 H -0.05233 1.01410 1.01119
 H345 H 0.01711 1.01151 0.94389
 H346 H 0.03597 1.03214 0.96224
 H347 H -0.03152 0.96699 1.03517
 H348 H -0.01159 0.98675 1.05607
 O349 O 0.48862 0.49263 0.44637
 O350 O 0.51904 0.50353 0.44479
 O351 O 0.49055 0.44990 0.48847
 O352 O 0.49812 0.44758 0.51858
 O353 O 0.44742 0.49180 0.49002
 O354 O 0.44697 0.52346 0.50000
 O355 O 0.53931 0.50019 0.53850
 O356 O 0.54145 0.47148 0.52397
 O357 O 0.54063 0.54076 0.49682
 O358 O 0.52378 0.54562 0.46742
 O359 O 0.49923 0.54273 0.53737
 O360 O 0.47011 0.52616 0.54294
 O361 O 0.51386 0.51349 0.55156
 O362 O 0.48035 0.50249 0.55324
 O363 O 0.51175 0.55558 0.51124
 O364 O 0.50048 0.55634 0.47803
 O365 O 0.55309 0.51508 0.51018
 O366 O 0.55291 0.48369 0.49491
 O367 O 0.46332 0.50638 0.45932
 O368 O 0.45935 0.53524 0.47649
 O369 O 0.45986 0.46591 0.50300
 O370 O 0.47755 0.46305 0.53283
 O371 O 0.50277 0.46257 0.46208
 O372 O 0.53306 0.47956 0.45979
 Zr373 Zr 0.50749 0.49093 0.46893
 O374 O 0.52562 0.50829 0.48488
 Zr375 Zr 0.48827 0.47269 0.50701
 O376 O 0.50607 0.48878 0.52454
 Zr377 Zr 0.47025 0.51045 0.48780
 O378 O 0.48679 0.52830 0.50491
 Zr379 Zr 0.53095 0.49550 0.51064
 O380 O 0.51422 0.47714 0.49400
 Zr381 Zr 0.51251 0.53336 0.49185
 O382 O 0.49516 0.51703 0.47383
 Zr383 Zr 0.49379 0.51468 0.52991
 O384 O 0.47498 0.49779 0.51388
 O385 O 0.48203 0.48487 0.48151
 O386 O 0.51916 0.52113 0.51734
 C387 C 0.47219 0.49950 0.44531
 C388 C 0.49656 0.44864 0.47159
 C389 C 0.44604 0.47515 0.49654
 C390 C 0.53062 0.50736 0.55243
 C391 C 0.55430 0.53188 0.50406
 C392 C 0.50608 0.55660 0.52824
 H393 H 0.53730 0.51046 0.47788
 H394 H 0.47997 0.53996 0.50727
 H395 H 0.47385 0.47680 0.47354
 H396 H 0.50861 0.48179 0.53615
 H397 H 0.53842 0.46071 0.51562
 H398 H 0.50993 0.45076 0.52517
 H399 H 0.48941 0.56013 0.48523
 H400 H 0.46863 0.53995 0.46739
 H401 H 0.56448 0.48455 0.50260
 H402 H 0.53084 0.47257 0.44789
 H403 H 0.46486 0.53547 0.53430
 H404 H 0.44597 0.51854 0.51288
 H405 H 0.51456 0.51654 0.44454
 H406 H 0.53355 0.53727 0.46263
 H407 H 0.46749 0.47164 0.53646
 H408 H 0.48759 0.49150 0.55708
 O409 O 0.46183 -0.03742 0.49974
 O410 O 0.47725 -0.04138 0.47164
 O411 O 0.50594 -0.03736 0.54104
 O412 O 0.53218 -0.02112 0.54704
 O413 O 0.46385 0.00489 0.54274
 O414 O 0.45903 0.03290 0.52587
 O415 O 0.55381 0.01371 0.49215
 O416 O 0.55569 -0.01576 0.50438
 O417 O 0.51236 0.01139 0.45020
 O418 O 0.48011 0.00019 0.44851
 O419 O 0.51129 0.05408 0.49032
 O420 O 0.50172 0.05657 0.52263
 O421 O 0.54093 0.03977 0.50471
 O422 O 0.52362 0.04465 0.53495
 O423 O 0.49779 0.04047 0.46467
 O424 O 0.46794 0.02208 0.46076
 O425 O 0.53868 -0.00018 0.46326
 O426 O 0.53976 -0.03113 0.47879
 O427 O 0.44881 -0.01129 0.51204
 O428 O 0.44739 0.02076 0.50169
 O429 O 0.49005 -0.00694 0.55584
 O430 O 0.52238 0.00562 0.55593
 O431 O 0.49200 -0.05103 0.51560
 O432 O 0.50490 -0.05146 0.48335
 Zr433 Zr 0.48989 -0.02937 0.49591
 O434 O 0.50625 -0.01300 0.47771
 Zr435 Zr 0.50897 -0.00908 0.53362
 O436 O 0.52656 0.00766 0.51699
 Zr437 Zr 0.47086 0.00850 0.51444
 O438 O 0.48675 0.02648 0.49736
 Zr439 Zr 0.53141 -0.00554 0.49118
 O440 O 0.51588 -0.02352 0.50886
 Zr441 Zr 0.49326 0.01247 0.47236
 O442 O 0.47570 -0.00487 0.48866
 Zr443 Zr 0.51282 0.03236 0.50997
 O444 O 0.49581 0.01644 0.52833
 O445 O 0.48361 -0.01639 0.52119
 O446 O 0.51894 0.01969 0.48446
 C447 C 0.44780 -0.02826 0.50588
 C448 C 0.49893 -0.05162 0.53225
 C449 C 0.47323 -0.00111 0.55681
 C450 C 0.55481 0.03076 0.49801
 C451 C 0.52936 0.00610 0.44930
 C452 C 0.50490 0.05464 0.47347
 H453 H 0.50854 -0.02018 0.46607
 H454 H 0.47967 0.03797 0.49504
 H455 H 0.47573 -0.02442 0.52927
 H456 H 0.53840 0.01017 0.52381
 H457 H 0.55195 -0.02749 0.51071
 H458 H 0.54328 -0.01770 0.53961
 H459 H 0.46419 0.03323 0.46800
 H460 H 0.44578 0.01464 0.48928
 H461 H 0.55217 -0.02906 0.47303
 H462 H 0.49803 -0.06341 0.48545
 H463 H 0.48907 0.05827 0.51738
 H464 H 0.46865 0.03864 0.53422
 H465 H 0.46935 -0.03164 0.46606
 H466 H 0.48626 -0.01181 0.44589
 H467 H 0.51519 0.01711 0.55816
 H468 H 0.53483 0.03767 0.53865
 O469 O 0.00636 0.50526 0.94691
 O470 O -0.02377 0.49305 0.94581
 O471 O 0.00450 0.54872 0.98834
 O472 O -0.00291 0.55169 1.01850
 O473 O 0.04870 0.50830 0.99014
 O474 O 0.05027 0.47675 1.00013
 O475 O -0.04164 0.49793 1.03964
 O476 O -0.04502 0.52642 1.02515
 O477 O -0.04300 0.45659 0.99827
 O478 O -0.02661 0.45141 0.96891
 O479 O -0.00005 0.45711 1.03851
 O480 O 0.02884 0.47499 1.04316
 O481 O -0.01532 0.48596 1.05247
 O482 O 0.01767 0.49824 1.05379
 O483 O -0.01341 0.44323 1.01292
 O484 O -0.00262 0.44177 0.97943
 O485 O -0.05576 0.48224 1.01163
 O486 O -0.05691 0.51330 0.99623
 O487 O 0.03250 0.49280 0.95966
 O488 O 0.03764 0.46428 0.97665
 O489 O 0.03588 0.53417 1.00303
 O490 O 0.01872 0.53736 1.03285
 O491 O -0.00837 0.53504 0.96235
 O492 O -0.03821 0.51706 0.96081
 Zr493 Zr -0.01202 0.50673 0.96965
 O494 O -0.02916 0.48921 0.98600
 Zr495 Zr 0.00770 0.52662 1.00728
 O496 O -0.00911 0.51040 1.02518
 Zr497 Zr 0.02635 0.48891 0.98818
 O498 O 0.01084 0.47097 1.00565
 Zr499 Zr -0.03417 0.50250 1.01171
 O500 O -0.01849 0.52097 0.99468
 Zr501 Zr -0.01513 0.46473 0.99305
 O502 O 0.00123 0.48116 0.97465
 Zr503 Zr 0.00418 0.48507 1.03060
 O504 O 0.02198 0.50214 1.01417
 O505 O 0.01359 0.51391 0.98185
 O506 O -0.02136 0.47748 1.01848
 C507 C 0.02310 0.49919 0.94575
 C508 C -0.00203 0.54936 0.97153
 C509 C 0.04982 0.52514 0.99654
 C510 C -0.03232 0.49132 1.05346
 C511 C -0.05673 0.46526 1.00565
 C512 C -0.00709 0.44284 1.02981
 H513 H -0.04096 0.48650 0.97917
 H514 H 0.01808 0.45959 1.00805
 H515 H 0.02135 0.52205 0.97377
 H516 H -0.01158 0.51756 1.03678
 H517 H -0.04259 0.53710 1.01673
 H518 H -0.01414 0.54821 1.02571
 H519 H 0.00858 0.43838 0.98674
 H520 H 0.02814 0.45905 0.96785
 H521 H -0.06823 0.51227 1.00409
 H522 H -0.03657 0.52367 0.94875
 H523 H 0.03379 0.46515 1.03485
 H524 H 0.05157 0.48206 1.01293
 H525 H -0.01863 0.48030 0.94548
 H526 H -0.03651 0.45949 0.96394
 H527 H 0.02899 0.52907 1.03660
 H528 H 0.01020 0.50913 1.05753
 O529 O 0.00848 0.44491 0.50841
 O530 O -0.00391 0.44411 0.47841
 O531 O 0.05161 0.48702 0.50629
 O532 O 0.05430 0.51725 0.49927
 O533 O 0.01190 0.48743 0.55157
 O534 O -0.01947 0.49687 0.55422
 O535 O 0.00010 0.53804 0.46193
 O536 O 0.02841 0.52404 0.45753
 O537 O -0.04097 0.49597 0.46102
 O538 O -0.04592 0.46667 0.47716
 O539 O -0.04005 0.53582 0.50455
 O540 O -0.02202 0.54043 0.53314
 O541 O -0.01145 0.55041 0.48883
 O542 O 0.00126 0.55120 0.52183
 O543 O -0.05396 0.51023 0.49120
 O544 O -0.05499 0.47659 0.50177
 O545 O -0.01570 0.50986 0.44767
 O546 O 0.01540 0.49514 0.44556
 O547 O -0.00360 0.45706 0.53520
 O548 O -0.03216 0.47366 0.54127
 O549 O 0.03744 0.50095 0.53833
 O550 O 0.04019 0.53104 0.52148
 O551 O 0.03800 0.46101 0.49336
 O552 O 0.01971 0.45974 0.46367
 Zr553 Zr 0.00967 0.46793 0.49037
 O554 O -0.00820 0.48420 0.47390
 Zr555 Zr 0.02950 0.50550 0.51028
 O556 O 0.01301 0.52335 0.49404
 Zr557 Zr -0.00773 0.48558 0.52960
 O558 O -0.02591 0.50305 0.51479
 Zr559 Zr 0.00483 0.51011 0.46888
 O560 O 0.02360 0.49322 0.48392
 Zr561 Zr -0.03244 0.49071 0.48872
 O562 O -0.01570 0.47231 0.50436
 Zr563 Zr -0.01208 0.52824 0.50808
 O564 O 0.00523 0.51180 0.52531
 O565 O 0.01708 0.47985 0.51610
 O566 O -0.01998 0.51636 0.48245
 C567 C 0.00266 0.44340 0.52534
 C568 C 0.05229 0.47032 0.49955
 C569 C 0.02867 0.49406 0.55240
 C570 C -0.00630 0.55168 0.47165
 C571 C -0.03257 0.50352 0.44707
 C572 C -0.05433 0.52702 0.49772
 H573 H -0.01104 0.47749 0.46202
 H574 H -0.03716 0.50519 0.52237
 H575 H 0.02533 0.47178 0.52358
 H576 H 0.02007 0.53505 0.49156
 H577 H 0.03918 0.51581 0.45964
 H578 H 0.05067 0.52440 0.48808
 H579 H -0.05843 0.48386 0.51304
 H580 H -0.03732 0.46475 0.53181
 H581 H 0.01412 0.50308 0.43431
 H582 H 0.02649 0.44783 0.46497
 H583 H -0.03146 0.53175 0.53841
 H584 H -0.01441 0.50978 0.55548
 H585 H -0.01657 0.44347 0.48383
 H586 H -0.03784 0.46173 0.46717
 H587 H 0.03215 0.53442 0.53216
 H588 H 0.01187 0.55535 0.51401
 O589 O 0.50963 0.94824 0.01031
 O590 O 0.49728 0.94745 -0.01974
 O591 O 0.55302 0.99011 0.00815
 O592 O 0.55584 1.02032 0.00106
 O593 O 0.51315 0.99082 0.05334
 O594 O 0.48182 1.00050 0.05586
 O595 O 0.50160 1.04132 -0.03647
 O596 O 0.53003 1.02737 -0.04065
 O597 O 0.46061 0.99937 -0.03739
 O598 O 0.45554 0.97009 -0.02116
 O599 O 0.46148 1.03931 0.00612
 O600 O 0.47961 1.04381 0.03483
 O601 O 0.49014 1.05376 -0.00958
 O602 O 0.50275 1.05470 0.02334
 O603 O 0.44759 1.01374 -0.00731
 O604 O 0.44631 0.98019 0.00330
 O605 O 0.48603 1.01297 -0.05075
 O606 O 0.51716 0.99838 -0.05260
 O607 O 0.49749 0.96052 0.03701
 O608 O 0.46907 0.97727 0.04301
 O609 O 0.53879 1.00422 0.04017
 O610 O 0.54175 1.03423 0.02328
 O611 O 0.53924 0.96418 -0.00477
 O612 O 0.52106 0.96287 -0.03444
 Zr613 Zr 0.51098 0.97121 -0.00781
 O614 O 0.49328 0.98755 -0.02438
 Zr615 Zr 0.53097 1.00873 0.01207
 O616 O 0.51457 1.02663 -0.00423
 Zr617 Zr 0.49357 0.98904 0.03133
 O618 O 0.47550 1.00652 0.01642
 Zr619 Zr 0.50641 1.01341 -0.02941
 O620 O 0.52505 0.99643 -0.01428
 Zr621 Zr 0.46902 0.99415 -0.00965
 O622 O 0.48560 0.97573 0.00611
 Zr623 Zr 0.48944 1.03165 0.00971
 O624 O 0.50667 1.01518 0.02700
 O625 O 0.51839 0.98315 0.01792
 O626 O 0.48158 1.01975 -0.01592
 C627 C 0.50371 0.94680 0.02721
 C628 C 0.55359 0.97340 0.00138
 C629 C 0.52993 0.99738 0.05421
 C630 C 0.49520 1.05499 -0.02678
 C631 C 0.46914 1.00670 -0.05138
 C632 C 0.44721 1.03052 -0.00078
 H633 H 0.49046 0.98080 -0.03625
 H634 H 0.46423 1.00872 0.02395
 H635 H 0.52658 0.97505 0.02543
 H636 H 0.52166 1.03831 -0.00672
 H637 H 0.54080 1.01916 -0.03848
 H638 H 0.55224 1.02765 -0.01003
 H639 H 0.44293 0.98745 0.01459
 H640 H 0.46383 0.96844 0.03353
 H641 H 0.51598 1.00629 -0.06388
 H642 H 0.52772 0.95090 -0.03310
 H643 H 0.46992 1.03532 0.03994
 H644 H 0.48700 1.01337 0.05713
 H645 H 0.48464 0.94684 -0.01429
 H646 H 0.46358 0.96516 -0.03119
 H647 H 0.53361 1.03773 0.03384
 H648 H 0.51351 1.05866 0.01565
 O649 O 0.53909 0.46537 0.00073
 O650 O 0.52385 0.46008 0.02874
 O651 O 0.49426 0.46313 -0.04011
 O652 O 0.46918 0.47919 -0.04757
 O653 O 0.53664 0.50836 -0.04049
 O654 O 0.54037 0.53632 -0.02253
 O655 O 0.44594 0.51057 0.00972
 O656 O 0.44489 0.48134 -0.00395
 O657 O 0.48669 0.51030 0.05161
 O658 O 0.51934 0.50088 0.05337
 O659 O 0.48721 0.55351 0.01285
 O660 O 0.49676 0.55727 -0.01899
 O661 O 0.45825 0.53756 -0.00189
 O662 O 0.47563 0.54378 -0.03225
 O663 O 0.50074 0.54041 0.03829
 O664 O 0.53098 0.52380 0.04210
 O665 O 0.46096 0.49698 0.03797
 O666 O 0.46113 0.46629 0.02122
 O667 O 0.55171 0.49255 -0.01020
 O668 O 0.55209 0.52438 0.00133
 O669 O 0.51119 0.49463 -0.05428
 O670 O 0.47824 0.50608 -0.05418
 O671 O 0.50951 0.45014 -0.01553
 O672 O 0.49649 0.44842 0.01656
 Zr673 Zr 0.51091 0.47164 0.00482
 O674 O 0.49396 0.48661 0.02345
 Zr675 Zr 0.49174 0.49143 -0.03245
 O676 O 0.47348 0.50663 -0.01538
 Zr677 Zr 0.52914 0.51095 -0.01218
 O678 O 0.51255 0.52759 0.00532
 Zr679 Zr 0.46876 0.49268 0.00994
 O680 O 0.48494 0.47613 -0.00826
 Zr681 Zr 0.50614 0.51279 0.02980
 O682 O 0.52434 0.49685 0.01308
 Zr683 Zr 0.48649 0.53201 -0.00742
 O684 O 0.50418 0.51760 -0.02612
 O685 O 0.51713 0.48540 -0.01998
 O686 O 0.48045 0.51855 0.01758
 C687 C 0.55294 0.47546 -0.00488
 C688 C 0.50183 0.44925 -0.03184
 C689 C 0.52778 0.50175 -0.05486
 C690 C 0.44462 0.52768 0.00462
 C691 C 0.46984 0.50389 0.05218
 C692 C 0.49334 0.55424 0.02981
 H693 H 0.49175 0.47910 0.03482
 H694 H 0.51926 0.53949 0.00809
 H695 H 0.52518 0.47789 -0.02825
 H696 H 0.46162 0.50850 -0.02222
 H697 H 0.44896 0.46993 -0.01060
 H698 H 0.45828 0.47957 -0.03919
 H699 H 0.53457 0.53522 0.03518
 H700 H 0.55369 0.51815 0.01356
 H701 H 0.44860 0.46740 0.02688
 H702 H 0.50376 0.43697 0.01421
 H703 H 0.50953 0.55940 -0.01401
 H704 H 0.53077 0.54151 -0.03096
 H705 H 0.53134 0.47026 0.03473
 H706 H 0.51338 0.48853 0.05559
 H707 H 0.48574 0.51759 -0.05642
 H708 H 0.46426 0.53656 -0.03587
 O709 O 0.03878 -0.03963 0.50142
 O710 O 0.02371 -0.04450 0.52957
 O711 O -0.00660 -0.04161 0.46102
 O712 O -0.03149 -0.02526 0.45363
 O713 O 0.03631 0.00318 0.45982
 O714 O 0.04066 0.03114 0.47765
 O715 O -0.05385 0.00677 0.51068
 O716 O -0.05525 -0.02262 0.49745
 O717 O -0.01269 0.00640 0.55242
 O718 O 0.01985 -0.00342 0.55397
 O719 O -0.01198 0.04926 0.51328
 O720 O -0.00261 0.05265 0.48132
 O721 O -0.04119 0.03354 0.49891
 O722 O -0.02405 0.03935 0.46838
 O723 O 0.00163 0.03625 0.53872
 O724 O 0.03170 0.01925 0.54238
 O725 O -0.03872 -0.00658 0.53906
 O726 O -0.03902 -0.03751 0.52269
 O727 O 0.05148 -0.01275 0.48990
 O728 O 0.05248 0.01909 0.50142
 O729 O 0.01066 -0.01053 0.44639
 O730 O -0.02210 0.00144 0.44671
 O731 O 0.00877 -0.05462 0.48552
 O732 O -0.00390 -0.05590 0.51779
 Zr733 Zr 0.01068 -0.03297 0.50569
 O734 O -0.00593 -0.01763 0.52435
 Zr735 Zr -0.00861 -0.01322 0.46845
 O736 O -0.02651 0.00234 0.48555
 Zr737 Zr 0.02918 0.00598 0.48821
 O738 O 0.01299 0.02297 0.50574
 Zr739 Zr -0.03118 -0.01135 0.51102
 O740 O -0.01536 -0.02825 0.49283
 Zr741 Zr 0.00661 0.00847 0.53040
 O742 O 0.02446 -0.00784 0.51364
 Zr743 Zr -0.01310 0.02762 0.49318
 O744 O 0.00421 0.01284 0.47443
 O745 O 0.01680 -0.01949 0.48072
 O746 O -0.01910 0.01444 0.51835
 C747 C 0.05265 -0.02977 0.49543
 C748 C 0.00087 -0.05553 0.46930
 C749 C 0.02729 -0.00353 0.44559
 C750 C -0.05493 0.02388 0.50549
 C751 C -0.02964 0.00030 0.55316
 C752 C -0.00571 0.05008 0.53017
 H753 H -0.00814 -0.02501 0.53581
 H754 H 0.01987 0.03481 0.50835
 H755 H 0.02466 -0.02717 0.47242
 H756 H -0.03840 0.00431 0.47879
 H757 H -0.05133 -0.03414 0.49089
 H758 H -0.04229 -0.02468 0.46212
 H759 H 0.03539 0.03053 0.53531
 H760 H 0.05410 0.01289 0.51366
 H761 H -0.05148 -0.03618 0.52844
 H762 H 0.00318 -0.06747 0.51543
 H763 H 0.01018 0.05473 0.48626
 H764 H 0.03107 0.03645 0.46929
 H765 H 0.03133 -0.03435 0.53545
 H766 H 0.01377 -0.01569 0.55631
 H767 H -0.01446 0.01281 0.44429
 H768 H -0.03550 0.03221 0.46488
 O769 O 0.69682 0.22925 0.25539
 O770 O 0.69622 0.23985 0.22493
 O771 O 0.74359 0.19243 0.25720
 O772 O 0.77421 0.19373 0.25325
 O773 O 0.73651 0.23540 0.30039
 O774 O 0.74293 0.26806 0.30122
 O775 O 0.79107 0.24653 0.21287
 O776 O 0.77972 0.21658 0.20961
 O777 O 0.74577 0.28218 0.20690
 O778 O 0.71519 0.28443 0.22060
 O779 O 0.78174 0.29042 0.25306
 O780 O 0.78751 0.27526 0.28176
 O781 O 0.80050 0.26266 0.23896
 O782 O 0.80053 0.25229 0.27297
 O783 O 0.75574 0.29967 0.23765
 O784 O 0.72177 0.29620 0.24528
 O785 O 0.76259 0.25787 0.19594
 O786 O 0.75071 0.22505 0.19537
 O787 O 0.70634 0.24509 0.28166
 O788 O 0.71933 0.27647 0.28621
 O789 O 0.75295 0.21080 0.28948
 O790 O 0.78455 0.21148 0.27474
 O791 O 0.71729 0.20123 0.24188
 O792 O 0.71470 0.21782 0.21182
 Zr793 Zr 0.72072 0.23034 0.23831
 O794 O 0.73607 0.24901 0.22143
 Zr795 Zr 0.75890 0.21741 0.26136
 O796 O 0.77579 0.23494 0.24482
 Zr797 Zr 0.73432 0.25294 0.27701
 O798 O 0.75061 0.27221 0.26180
 Zr799 Zr 0.76331 0.23926 0.21857
 O800 O 0.74759 0.21958 0.23412
 Zr801 Zr 0.73930 0.27511 0.23476
 O802 O 0.72184 0.25719 0.25069
 Zr803 Zr 0.77740 0.26163 0.25722
 O804 O 0.76188 0.24352 0.27490
 O805 O 0.73186 0.22649 0.26497
 O806 O 0.76635 0.26588 0.23055
 C807 C 0.69398 0.23603 0.27187
 C808 C 0.72784 0.18881 0.24913
 C809 C 0.74434 0.21953 0.30257
 C810 C 0.80340 0.25565 0.22258
 C811 C 0.75486 0.27380 0.19391
 C812 C 0.77165 0.30300 0.24550
 H813 H 0.72988 0.25005 0.20906
 H814 H 0.75106 0.28418 0.26881
 H815 H 0.72432 0.21755 0.27240
 H816 H 0.78820 0.22929 0.24344
 H817 H 0.77239 0.20504 0.21216
 H818 H 0.78082 0.19712 0.24163
 H819 H 0.72737 0.30100 0.25712
 H820 H 0.71010 0.27920 0.27626
 H821 H 0.75913 0.22636 0.18447
 H822 H 0.70353 0.20953 0.21299
 H823 H 0.77705 0.28234 0.28710
 H824 H 0.75592 0.26437 0.30389
 H825 H 0.69425 0.25278 0.22944
 H826 H 0.71134 0.27460 0.21148
 H827 H 0.78605 0.22047 0.28529
 H828 H 0.80640 0.24206 0.26585
 O829 O 0.75663 0.71740 0.70699
 O830 O 0.78505 0.71454 0.72122
 O831 O 0.71807 0.70998 0.75334
 O832 O 0.71079 0.72438 0.77960
 O833 O 0.71096 0.75632 0.71365
 O834 O 0.72651 0.78518 0.70964
 O835 O 0.76504 0.76147 0.80264
 O836 O 0.75495 0.73132 0.80278
 O837 O 0.80523 0.76571 0.75974
 O838 O 0.80600 0.75811 0.72687
 O839 O 0.76216 0.80539 0.76256
 O840 O 0.72995 0.80574 0.75471
 O841 O 0.74991 0.78701 0.79201
 O842 O 0.71915 0.79080 0.77538
 O843 O 0.78778 0.79535 0.74724
 O844 O 0.79187 0.77924 0.71648
 O845 O 0.79429 0.75055 0.78534
 O846 O 0.77999 0.71892 0.78473
 O847 O 0.74196 0.74316 0.69620
 O848 O 0.75032 0.77586 0.69678
 O849 O 0.70006 0.74058 0.73889
 O850 O 0.70097 0.75051 0.77228
 O851 O 0.74319 0.69972 0.73729
 O852 O 0.77585 0.70151 0.74851
 Zr853 Zr 0.76096 0.72340 0.73558
 O854 O 0.77879 0.74003 0.75261
 Zr855 Zr 0.72321 0.73879 0.75704
 O856 O 0.73957 0.75543 0.77542
 Zr857 Zr 0.73941 0.76087 0.71976
 O858 O 0.75601 0.77899 0.73656
 Zr859 Zr 0.76626 0.74428 0.77873
 O860 O 0.74900 0.72614 0.76234
 Zr861 Zr 0.78207 0.76691 0.74149
 O862 O 0.76607 0.74956 0.72310
 Zr863 Zr 0.74439 0.78172 0.76338
 O864 O 0.72636 0.76566 0.74563
 O865 O 0.73466 0.73442 0.73076
 O866 O 0.77090 0.77108 0.76807
 C867 C 0.74953 0.72714 0.69376
 C868 C 0.72750 0.69698 0.74551
 C869 C 0.69774 0.74859 0.72302
 C870 C 0.75760 0.77752 0.80512
 C871 C 0.80746 0.75838 0.77597
 C872 C 0.77825 0.80818 0.75520
 H873 H 0.79085 0.73365 0.75397
 H874 H 0.75718 0.79116 0.73018
 H875 H 0.72670 0.72628 0.72262
 H876 H 0.73312 0.75629 0.78759
 H877 H 0.74900 0.71944 0.79848
 H878 H 0.71945 0.72585 0.79037
 H879 H 0.78357 0.78970 0.71338
 H880 H 0.76292 0.77096 0.69444
 H881 H 0.78619 0.72026 0.79715
 H882 H 0.77418 0.68989 0.74094
 H883 H 0.73396 0.80861 0.74181
 H884 H 0.71859 0.78985 0.71991
 H885 H 0.78985 0.72545 0.71419
 H886 H 0.80922 0.74557 0.73150
 H887 H 0.69743 0.76211 0.76578
 H888 H 0.71634 0.78268 0.78619
 O889 O 0.28772 0.21013 0.74626
 O890 O 0.28820 0.22242 0.71631
 O891 O 0.29426 0.25857 0.78214
 O892 O 0.27884 0.28440 0.78902
 O893 O 0.25129 0.21595 0.79254
 O894 O 0.22100 0.21016 0.77940
 O895 O 0.23895 0.30156 0.73572
 O896 O 0.26981 0.30407 0.74458
 O897 O 0.23401 0.25694 0.69757
 O898 O 0.24409 0.22494 0.69686
 O899 O 0.19701 0.25873 0.74248
 O900 O 0.19869 0.25262 0.77548
 O901 O 0.21402 0.28978 0.75153
 O902 O 0.21262 0.27573 0.78400
 O903 O 0.20683 0.24289 0.71678
 O904 O 0.22457 0.21300 0.71308
 O905 O 0.24785 0.28415 0.70733
 O906 O 0.28098 0.28588 0.71872
 O907 O 0.26277 0.19839 0.76211
 O908 O 0.22978 0.19625 0.75525
 O909 O 0.26577 0.24286 0.80223
 O910 O 0.25350 0.27529 0.80089
 O911 O 0.30410 0.24210 0.75680
 O912 O 0.30051 0.25115 0.72362
 Zr913 Zr 0.27993 0.23773 0.74029
 O914 O 0.26195 0.25268 0.72263
 Zr915 Zr 0.26516 0.26013 0.77837
 O916 O 0.24705 0.27641 0.76215
 Zr917 Zr 0.24419 0.22072 0.76444
 O918 O 0.22473 0.23522 0.74811
 Zr919 Zr 0.25705 0.27892 0.73473
 O920 O 0.27652 0.26477 0.75162
 Zr921 Zr 0.23561 0.23951 0.72120
 O922 O 0.25429 0.22320 0.73700
 Zr923 Zr 0.22126 0.26232 0.75905
 O924 O 0.23880 0.24676 0.77700
 O925 O 0.27014 0.23379 0.76734
 O926 O 0.23079 0.26614 0.73189
 C927 C 0.27895 0.19679 0.75467
 C928 C 0.30711 0.25102 0.77228
 C929 C 0.25957 0.22614 0.80507
 C930 C 0.22258 0.30299 0.74272
 C931 C 0.23929 0.27398 0.69498
 C932 C 0.19405 0.25053 0.72661
 H933 H 0.26758 0.25402 0.71010
 H934 H 0.21290 0.22793 0.74779
 H935 H 0.27904 0.22675 0.77512
 H936 H 0.24579 0.28886 0.76809
 H937 H 0.28214 0.30070 0.74974
 H938 H 0.27600 0.29461 0.78026
 H939 H 0.21427 0.20984 0.72171
 H940 H 0.23445 0.19334 0.74255
 H941 H 0.27851 0.29774 0.71213
 H942 H 0.31242 0.24438 0.72493
 H943 H 0.19621 0.23942 0.77193
 H944 H 0.21707 0.22030 0.78795
 H945 H 0.27751 0.21421 0.71266
 H946 H 0.25636 0.23013 0.69313
 H947 H 0.24238 0.26811 0.80506
 H948 H 0.22020 0.28732 0.78563
 O949 O 0.20834 0.74821 0.28764
 O950 O 0.21944 0.71795 0.28756
 O951 O 0.25794 0.78252 0.29399
 O952 O 0.28417 0.78830 0.27852
 O953 O 0.21591 0.79482 0.25187
 O954 O 0.20970 0.78239 0.22118
 O955 O 0.29890 0.73532 0.23718
 O956 O 0.30184 0.74363 0.26835
 O957 O 0.25274 0.69877 0.23240
 O958 O 0.22072 0.69924 0.24304
 O959 O 0.25670 0.74386 0.19590
 O960 O 0.25168 0.77670 0.19769
 O961 O 0.28807 0.75261 0.21293
 O962 O 0.27453 0.78507 0.21192
 O963 O 0.23964 0.71876 0.20557
 O964 O 0.20971 0.71588 0.22355
 O965 O 0.28039 0.70755 0.24581
 O966 O 0.28267 0.71815 0.27926
 O967 O 0.19720 0.76470 0.26296
 O968 O 0.19474 0.75859 0.22976
 O969 O 0.24354 0.80331 0.26555
 O970 O 0.27578 0.80093 0.25338
 O971 O 0.24064 0.75760 0.30383
 O972 O 0.24840 0.72425 0.29964
 Zr973 Zr 0.23561 0.74152 0.27938
 O974 O 0.24969 0.72362 0.26083
 Zr975 Zr 0.25953 0.77887 0.26476
 O976 O 0.27498 0.76242 0.24609
 Zr977 Zr 0.21954 0.76671 0.24409
 O978 O 0.23325 0.75014 0.22411
 Zr979 Zr 0.27634 0.73484 0.25568
 O980 O 0.26304 0.75189 0.27572
 Zr981 Zr 0.23642 0.72298 0.23455
 O982 O 0.22092 0.73909 0.25377
 Zr983 Zr 0.26070 0.76018 0.22035
 O984 O 0.24604 0.77836 0.23847
 O985 O 0.23280 0.76877 0.26999
 O986 O 0.26341 0.73281 0.22945
 C987 C 0.19533 0.75705 0.27911
 C988 C 0.25004 0.77281 0.30689
 C989 C 0.22694 0.80685 0.25982
 C990 C 0.30083 0.74314 0.22116
 C991 C 0.26971 0.69564 0.23726
 C992 C 0.24784 0.72835 0.19280
 H993 H 0.25051 0.71099 0.26629
 H994 H 0.22597 0.75018 0.21229
 H995 H 0.22612 0.77667 0.27911
 H996 H 0.28761 0.76800 0.24477
 H997 H 0.29872 0.74856 0.28093
 H998 H 0.29396 0.77929 0.27531
 H999 H 0.20690 0.72478 0.21342
 H1000 H 0.19140 0.74588 0.23415
 H1001 H 0.29425 0.71129 0.27650
 H1002 H 0.24173 0.72561 0.31170
 H1003 H 0.23823 0.77403 0.19577
 H1004 H 0.22018 0.79065 0.21731
 H1005 H 0.21109 0.71470 0.27688
 H1006 H 0.22603 0.69492 0.25504
 H1007 H 0.26889 0.80557 0.24233
 H1008 H 0.28615 0.78643 0.21940
 O1009 O 0.29283 0.74948 0.71773
 O1010 O 0.28043 0.72001 0.71225
 O1011 O 0.24611 0.78569 0.71053
 O1012 O 0.21769 0.78871 0.72266
 O1013 O 0.28197 0.79307 0.75911
 O1014 O 0.28601 0.77649 0.78731
 O1015 O 0.19730 0.73140 0.75669
 O1016 O 0.19701 0.74382 0.72711
 O1017 O 0.24208 0.69528 0.76027
 O1018 O 0.27555 0.69762 0.75395
 O1019 O 0.23504 0.73648 0.80235
 O1020 O 0.24135 0.76989 0.80462
 O1021 O 0.20644 0.74578 0.78387
 O1022 O 0.21933 0.77849 0.78972
 O1023 O 0.25125 0.71187 0.79115
 O1024 O 0.28335 0.71101 0.77752
 O1025 O 0.21650 0.70486 0.74429
 O1026 O 0.21702 0.72069 0.71356
 O1027 O 0.30183 0.76447 0.74467
 O1028 O 0.30090 0.75403 0.77672
 O1029 O 0.25651 0.80277 0.74300
 O1030 O 0.22320 0.79898 0.75053
 O1031 O 0.26324 0.76163 0.69943
 O1032 O 0.25325 0.72828 0.69827
 Zr1033 Zr 0.26456 0.74282 0.72191
 O1034 O 0.24826 0.72310 0.73650
 Zr1035 Zr 0.24028 0.77834 0.73842
 O1036 O 0.22251 0.76000 0.75320
 Zr1037 Zr 0.27772 0.76401 0.76156
 O1038 O 0.26155 0.74545 0.77781
 Zr1039 Zr 0.22137 0.73361 0.74015
 O1040 O 0.23713 0.75274 0.72387
 Zr1041 Zr 0.25873 0.71962 0.76376
 O1042 O 0.27652 0.73763 0.74838
 Zr1043 Zr 0.23410 0.75507 0.77976
 O1044 O 0.25100 0.77499 0.76569
 O1045 O 0.26724 0.76889 0.73491
 O1046 O 0.23159 0.72882 0.76710
 C1047 C 0.30513 0.75765 0.72829
 C1048 C 0.25520 0.77742 0.69747
 C1049 C 0.27202 0.80589 0.75173
 C1050 C 0.19436 0.73690 0.77360
 C1051 C 0.22626 0.69217 0.75213
 C1052 C 0.24219 0.72025 0.80413
 H1053 H 0.24791 0.71124 0.72929
 H1054 H 0.26743 0.74417 0.79028
 H1055 H 0.27517 0.77782 0.72785
 H1056 H 0.20990 0.76532 0.75402
 H1057 H 0.20115 0.75051 0.71574
 H1058 H 0.20690 0.78029 0.72498
 H1059 H 0.28524 0.71904 0.78874
 H1060 H 0.30388 0.74170 0.77121
 H1061 H 0.20503 0.71357 0.71392
 H1062 H 0.26118 0.73090 0.68722
 H1063 H 0.25369 0.76550 0.80880
 H1064 H 0.27514 0.78348 0.79190
 H1065 H 0.28764 0.71548 0.72313
 H1066 H 0.27092 0.69391 0.74135
 H1067 H 0.22844 0.80188 0.76310
 H1068 H 0.20831 0.78014 0.78153
 O1069 O 0.25491 0.21674 0.20915
 O1070 O 0.28327 0.21336 0.22324
 O1071 O 0.21643 0.20985 0.25573
 O1072 O 0.20963 0.22430 0.28212
 O1073 O 0.20973 0.25610 0.21608
 O1074 O 0.22551 0.28487 0.21207
 O1075 O 0.26456 0.26064 0.30474
 O1076 O 0.25409 0.23060 0.30496
 O1077 O 0.30436 0.26452 0.26155
 O1078 O 0.30479 0.25669 0.22861
 O1079 O 0.26190 0.30459 0.26471
 O1080 O 0.22978 0.30550 0.25721
 O1081 O 0.24964 0.28637 0.29423
 O1082 O 0.21873 0.29048 0.27775
 O1083 O 0.28724 0.29422 0.24914
 O1084 O 0.29092 0.27808 0.21837
 O1085 O 0.29352 0.24939 0.28722
 O1086 O 0.27882 0.21790 0.28669
 O1087 O 0.24048 0.24269 0.19845
 O1088 O 0.24914 0.27532 0.19902
 O1089 O 0.19880 0.24060 0.24147
 O1090 O 0.20011 0.25060 0.27489
 O1091 O 0.24127 0.19924 0.23947
 O1092 O 0.27404 0.20052 0.25059
 Zr1093 Zr 0.25941 0.22264 0.23772
 O1094 O 0.27761 0.23902 0.25460
 Zr1095 Zr 0.22204 0.23855 0.25946
 O1096 O 0.23879 0.25494 0.27773
 Zr1097 Zr 0.23824 0.26040 0.22205
 O1098 O 0.25520 0.27829 0.23873
 Zr1099 Zr 0.26535 0.24343 0.28082
 O1100 O 0.24770 0.22554 0.26457
 Zr1101 Zr 0.28112 0.26586 0.24344
 O1102 O 0.26476 0.24873 0.22518
 Zr1103 Zr 0.24383 0.28116 0.26564
 O1104 O 0.22545 0.26538 0.24802
 O1105 O 0.23325 0.23402 0.23310
 O1106 O 0.27023 0.27017 0.27011
 C1107 C 0.24787 0.22659 0.19596
 C1108 C 0.22557 0.19674 0.24775
 C1109 C 0.19648 0.24851 0.22554
 C1110 C 0.25733 0.27678 0.30728
 C1111 C 0.30666 0.25719 0.27777
 C1112 C 0.27796 0.30716 0.25720
 H1113 H 0.28960 0.23250 0.25586
 H1114 H 0.25647 0.29045 0.23235
 H1115 H 0.22514 0.22599 0.22499
 H1116 H 0.23244 0.25589 0.28995
 H1117 H 0.24794 0.21881 0.30069
 H1118 H 0.21840 0.22561 0.29280
 H1119 H 0.28272 0.28864 0.21533
 H1120 H 0.26167 0.27027 0.19657
 H1121 H 0.28515 0.21917 0.29905
 H1122 H 0.27210 0.18891 0.24306
 H1123 H 0.23345 0.30811 0.24415
 H1124 H 0.21766 0.28956 0.22238
 H1125 H 0.28829 0.22424 0.21630
 H1126 H 0.30804 0.24422 0.23341
 H1127 H 0.19659 0.26217 0.26833
 H1128 H 0.21600 0.28253 0.28870
 O1129 O 0.78800 0.70940 0.24381
 O1130 O 0.78821 0.72151 0.21376
 O1131 O 0.79580 0.75813 0.27921
 O1132 O 0.78079 0.78414 0.28626
 O1133 O 0.75244 0.71608 0.29061
 O1134 O 0.72184 0.71068 0.27800
 O1135 O 0.74037 0.80147 0.23337
 O1136 O 0.77140 0.80362 0.24178
 O1137 O 0.73423 0.75667 0.19563
 O1138 O 0.74390 0.72448 0.19500
 O1139 O 0.69799 0.75929 0.24110
 O1140 O 0.70012 0.75337 0.27415
 O1141 O 0.71549 0.79010 0.24956
 O1142 O 0.71446 0.77641 0.28224
 O1143 O 0.70719 0.74316 0.21534
 O1144 O 0.72440 0.71298 0.21156
 O1145 O 0.74859 0.78375 0.20501
 O1146 O 0.78191 0.78509 0.21586
 O1147 O 0.76313 0.69815 0.26012
 O1148 O 0.73005 0.69643 0.25382
 O1149 O 0.76743 0.74285 0.29990
 O1150 O 0.75553 0.77546 0.29851
 O1151 O 0.80497 0.74119 0.25391
 O1152 O 0.80103 0.75010 0.22072
 Zr1153 Zr 0.78052 0.73709 0.23777
 O1154 O 0.76249 0.75218 0.22029
 Zr1155 Zr 0.76667 0.75998 0.27593
 O1156 O 0.74854 0.77641 0.25988
 Zr1157 Zr 0.74493 0.72077 0.26260
 O1158 O 0.72544 0.73542 0.24646
 Zr1159 Zr 0.75814 0.77858 0.23229
 O1160 O 0.77767 0.76427 0.24897
 Zr1161 Zr 0.73596 0.73937 0.21935
 O1162 O 0.75464 0.72291 0.23498
 Zr1163 Zr 0.72252 0.76264 0.25727
 O1164 O 0.74011 0.74697 0.27506
 O1165 O 0.77110 0.73349 0.26501
 O1166 O 0.73169 0.76614 0.22994
 C1167 C 0.77916 0.69625 0.25244
 C1168 C 0.80836 0.75024 0.26923
 C1169 C 0.76106 0.72623 0.30293
 C1170 C 0.72408 0.80313 0.24052
 C1171 C 0.73968 0.77364 0.19286
 C1172 C 0.69468 0.75105 0.22532
 H1173 H 0.76795 0.75336 0.20766
 H1174 H 0.71351 0.72830 0.24637
 H1175 H 0.78003 0.72637 0.27269
 H1176 H 0.74753 0.78892 0.26574
 H1177 H 0.78376 0.80010 0.24677
 H1178 H 0.77805 0.79430 0.27742
 H1179 H 0.71421 0.71003 0.22038
 H1180 H 0.73443 0.69339 0.24105
 H1181 H 0.77950 0.79694 0.20923
 H1182 H 0.81286 0.74317 0.22189
 H1183 H 0.69737 0.74019 0.27070
 H1184 H 0.71823 0.72093 0.28658
 H1185 H 0.77735 0.71344 0.21032
 H1186 H 0.75613 0.72956 0.19098
 H1187 H 0.74440 0.76844 0.30291
 H1188 H 0.72217 0.78795 0.28360
 O1189 O 0.71482 0.29390 0.75006
 O1190 O 0.70957 0.28226 0.71987
 O1191 O 0.70930 0.24735 0.78588
 O1192 O 0.72152 0.21906 0.78884
 O1193 O 0.75773 0.28384 0.79155
 O1194 O 0.78519 0.28859 0.77423
 O1195 O 0.75405 0.19915 0.73015
 O1196 O 0.72499 0.19833 0.74322
 O1197 O 0.75685 0.24433 0.69393
 O1198 O 0.75057 0.27726 0.69578
 O1199 O 0.79928 0.23715 0.73407
 O1200 O 0.80251 0.24368 0.76744
 O1201 O 0.78127 0.20856 0.74413
 O1202 O 0.78783 0.22150 0.77671
 O1203 O 0.78805 0.25439 0.71006
 O1204 O 0.77356 0.28622 0.70941
 O1205 O 0.74089 0.21854 0.70374
 O1206 O 0.71071 0.21857 0.72069
 O1207 O 0.74227 0.30361 0.76343
 O1208 O 0.77404 0.30320 0.75182
 O1209 O 0.74247 0.25800 0.80220
 O1210 O 0.74955 0.22451 0.79798
 O1211 O 0.69752 0.26395 0.76165
 O1212 O 0.69571 0.25461 0.72829
 Zr1213 Zr 0.71950 0.26603 0.74242
 O1214 O 0.73364 0.25006 0.72232
 Zr1215 Zr 0.73691 0.24182 0.77778
 O1216 O 0.75110 0.22425 0.75897
 Zr1217 Zr 0.75935 0.27976 0.76246
 O1218 O 0.77519 0.26376 0.74366
 Zr1219 Zr 0.73757 0.22308 0.73277
 O1220 O 0.72185 0.23853 0.75243
 Zr1221 Zr 0.76066 0.26095 0.71815
 O1222 O 0.74559 0.27851 0.73641
 Zr1223 Zr 0.77736 0.23621 0.75336
 O1224 O 0.76388 0.25299 0.77355
 O1225 O 0.73307 0.26877 0.76821
 O1226 O 0.76425 0.23371 0.72732
 C1227 C 0.72539 0.30641 0.75794
 C1228 C 0.69600 0.25606 0.77767
 C1229 C 0.75112 0.27373 0.80482
 C1230 C 0.77097 0.19638 0.73541
 C1231 C 0.74859 0.22849 0.69091
 C1232 C 0.80096 0.24499 0.71806
 H1233 H 0.72619 0.24970 0.71060
 H1234 H 0.78756 0.26982 0.74210
 H1235 H 0.72626 0.27646 0.77742
 H1236 H 0.75206 0.21158 0.76430
 H1237 H 0.71390 0.20222 0.75037
 H1238 H 0.72305 0.20847 0.78004
 H1239 H 0.78501 0.28821 0.71702
 H1240 H 0.76777 0.30659 0.73996
 H1241 H 0.71090 0.20672 0.71339
 H1242 H 0.68480 0.26252 0.73102
 H1243 H 0.80662 0.25605 0.76276
 H1244 H 0.79025 0.27765 0.78082
 H1245 H 0.72016 0.29018 0.71564
 H1246 H 0.73743 0.27343 0.69343
 H1247 H 0.76206 0.22998 0.80071
 H1248 H 0.77986 0.21025 0.77850
 C1249 C 0.09202 0.99824 1.17840
 C1250 C 0.11056 0.99251 1.18031
 C1251 C 0.11905 0.99191 1.19793
 C1252 C 0.10915 0.99664 1.21422
 C1253 C 0.09066 1.00270 1.21221
 C1254 C 0.08217 1.00332 1.19455
 C1255 C 0.08321 0.99935 1.15962
 N1256 N 0.06555 1.00563 1.15756
 N1257 N 0.05771 1.00671 1.14065
 C1258 C 0.06719 1.00156 1.12508
 N1259 N 0.08484 0.99529 1.12714
 N1260 N 0.09269 0.99422 1.14405
 C1261 C 0.05837 1.00247 1.10629
 C1262 C 0.06795 0.99634 1.09032
 C1263 C 0.05940 0.99654 1.07269
 C1264 C 0.04106 1.00290 1.07060
 C1265 C 0.03162 1.00939 1.08652
 C1266 C 0.04017 1.00916 1.10415
 H1267 H 0.11867 0.98874 1.16815
 H1268 H 0.13356 0.98804 1.19876
 H1269 H 0.08278 1.00754 1.22408
 H1270 H 0.06795 1.00809 1.19356
 H1271 H 0.08201 0.99115 1.09144
 H1272 H 0.06711 0.99150 1.06074
 H1273 H 0.01750 1.01442 1.08543
 H1274 H 0.03241 1.01407 1.11613
 C1275 C 0.59264 0.50498 0.67802
 C1276 C 0.61073 0.49803 0.67999
 C1277 C 0.61913 0.49700 0.69763
 C1278 C 0.60961 0.50259 0.71387
 C1279 C 0.59160 0.50990 0.71180
 C1280 C 0.58319 0.51094 0.69412
 C1281 C 0.58376 0.50615 0.65928
 N1282 N 0.56634 0.51306 0.65725
 N1283 N 0.55832 0.51397 0.64040
 C1284 C 0.56739 0.50803 0.62486
 N1285 N 0.58483 0.50117 0.62689
 N1286 N 0.59284 0.50026 0.64373
 C1287 C 0.55830 0.50862 0.60618
 C1288 C 0.56750 0.50189 0.59022
 C1289 C 0.55864 0.50176 0.57273
 C1290 C 0.54038 0.50836 0.57078
 C1291 C 0.53133 0.51543 0.58668
 C1292 C 0.54019 0.51555 0.60417
 H1293 H 0.61852 0.49350 0.66788
 H1294 H 0.63324 0.49190 0.69859
 H1295 H 0.58396 0.51528 0.72357
 H1296 H 0.56932 0.51662 0.69308
 H1297 H 0.58149 0.49651 0.59125
 H1298 H 0.56606 0.49627 0.56078
 H1299 H 0.51728 0.52068 0.58570
 H1300 H 0.53271 0.52091 0.61615
 C1301 C 0.41069 -0.00616 0.68112
 C1302 C 0.42114 -0.00510 0.69782
 C1303 C 0.41226 -0.00460 0.71518
 C1304 C 0.39263 -0.00555 0.71626
 C1305 C 0.38228 -0.00653 0.69943
 C1306 C 0.39116 -0.00693 0.68214
 C1307 C 0.42001 -0.00584 0.66270
 N1308 N 0.40986 -0.00429 0.64667
 N1309 N 0.41821 -0.00360 0.63009
 C1310 C 0.43706 -0.00447 0.62885
 N1311 N 0.44721 -0.00611 0.64487
 N1312 N 0.43886 -0.00675 0.66146
 C1313 C 0.44632 -0.00354 0.61042
 C1314 C 0.46554 -0.00665 0.60891
 C1315 C 0.47427 -0.00583 0.59151
 C1316 C 0.46399 -0.00177 0.57525
 C1317 C 0.44477 0.00144 0.57677
 C1318 C 0.43603 0.00050 0.59416
 H1319 H 0.43623 -0.00419 0.69751
 H1320 H 0.42092 -0.00290 0.72752
 H1321 H 0.36718 -0.00666 0.69966
 H1322 H 0.38265 -0.00763 0.66955
 H1323 H 0.47388 -0.00982 0.62115
 H1324 H 0.48910 -0.00834 0.59084
 H1325 H 0.43643 0.00453 0.56451
 H1326 H 0.42120 0.00301 0.59484
 C1327 C -0.09394 0.48850 1.17822
 C1328 C -0.08349 0.48598 1.19471
 C1329 C -0.09186 0.48752 1.21227
 C1330 C -0.11094 0.49165 1.21374
 C1331 C -0.12136 0.49383 1.19713
 C1332 C -0.11300 0.49230 1.17965
 C1333 C -0.08500 0.48765 1.15963
 N1334 N -0.09497 0.49120 1.14384
 N1335 N -0.08688 0.49103 1.12713
 C1336 C -0.06847 0.48728 1.12548
 N1337 N -0.05851 0.48361 1.14124
 N1338 N -0.06660 0.48380 1.15798
 C1339 C -0.05937 0.48771 1.10695
 C1340 C -0.04046 0.48326 1.10516
 C1341 C -0.03173 0.48427 1.08777
 C1342 C -0.04172 0.48980 1.07178
 C1343 C -0.06070 0.49402 1.07353
 C1344 C -0.06943 0.49296 1.09091
 H1345 H -0.06875 0.48298 1.19408
 H1346 H -0.08314 0.48555 1.22443
 H1347 H -0.13608 0.49693 1.19774
 H1348 H -0.12152 0.49427 1.16726
 H1349 H -0.03231 0.47912 1.11721
 H1350 H -0.01710 0.48088 1.08693
 H1351 H -0.06883 0.49823 1.06148
 H1352 H -0.08404 0.49645 1.09178
 C1353 C -0.09554 0.49932 0.32179
 C1354 C -0.11380 0.49216 0.31936
 C1355 C -0.12177 0.49061 0.30144
 C1356 C -0.11162 0.49603 0.28557
 C1357 C -0.09341 0.50327 0.28805
 C1358 C -0.08548 0.50488 0.30590
 C1359 C -0.08692 0.50100 0.34070
 N1360 N -0.06957 0.50865 0.34291
 N1361 N -0.06160 0.50995 0.35978
 C1362 C -0.07063 0.50365 0.37521
 N1363 N -0.08802 0.49606 0.37304
 N1364 N -0.09601 0.49478 0.35614
 C1365 C -0.06140 0.50457 0.39387
 C1366 C -0.07021 0.49712 0.40976
 C1367 C -0.06104 0.49714 0.42712
 C1368 C -0.04283 0.50461 0.42900
 C1369 C -0.03423 0.51248 0.41321
 C1370 C -0.04339 0.51246 0.39588
 H1371 H -0.12197 0.48777 0.33129
 H1372 H -0.13583 0.48501 0.30006
 H1373 H -0.08533 0.50809 0.27622
 H1374 H -0.07143 0.51055 0.30722
 H1375 H -0.08410 0.49099 0.40874
 H1376 H -0.06812 0.49100 0.43898
 H1377 H -0.02026 0.51843 0.41414
 H1378 H -0.03620 0.51841 0.38399
 C1379 C 0.40658 0.99951 -0.17674
 C1380 C 0.38726 0.99661 -0.17885
 C1381 C 0.37907 0.99545 -0.19669
 C1382 C 0.39000 0.99707 -0.21301
 C1383 C 0.40947 0.99953 -0.21066
 C1384 C 0.41757 1.00080 -0.19286
 C1385 C 0.41531 1.00142 -0.15791
 N1386 N 0.43359 1.00643 -0.15611
 N1387 N 0.44156 1.00819 -0.13928
 C1388 C 0.43161 1.00501 -0.12348
 N1389 N 0.41330 1.00002 -0.12525
 N1390 N 0.40530 0.99830 -0.14211
 C1391 C 0.44073 1.00652 -0.10480
 C1392 C 0.43128 1.00090 -0.08855
 C1393 C 0.44034 1.00136 -0.07112
 C1394 C 0.45903 1.00752 -0.06955
 C1395 C 0.46827 1.01365 -0.08574
 C1396 C 0.45925 1.01312 -0.10314
 H1397 H 0.37839 0.99535 -0.16670
 H1398 H 0.36421 0.99284 -0.19737
 H1399 H 0.41865 1.00140 -0.22246
 H1400 H 0.43252 1.00302 -0.19179
 H1401 H 0.41699 0.99580 -0.08931
 H1402 H 0.43276 0.99660 -0.05894
 H1403 H 0.48265 1.01853 -0.08507
 H1404 H 0.46693 1.01768 -0.11533
 C1405 C 0.59223 0.50303 -0.17880
 C1406 C 0.58317 0.49515 -0.19457
 C1407 C 0.59165 0.49545 -0.21210
 C1408 C 0.60941 0.50373 -0.21440
 C1409 C 0.61865 0.51134 -0.19859
 C1410 C 0.61012 0.51106 -0.18099
 C1411 C 0.58293 0.50281 -0.16028
 N1412 N 0.59146 0.51023 -0.14480
 N1413 N 0.58294 0.51007 -0.12826
 C1414 C 0.56552 0.50250 -0.12649
 N1415 N 0.55703 0.49509 -0.14198
 N1416 N 0.56554 0.49524 -0.15849
 C1417 C 0.55592 0.50234 -0.10813
 C1418 C 0.53778 0.49473 -0.10658
 C1419 C 0.52867 0.49457 -0.08934
 C1420 C 0.53745 0.50200 -0.07319
 C1421 C 0.55560 0.50961 -0.07474
 C1422 C 0.56471 0.50978 -0.09200
 H1423 H 0.56947 0.48867 -0.19343
 H1424 H 0.58433 0.48889 -0.22378
 H1425 H 0.63234 0.51775 -0.19982
 H1426 H 0.61754 0.51720 -0.16913
 H1427 H 0.53056 0.48888 -0.11870
 H1428 H 0.51471 0.48859 -0.08870
 H1429 H 0.56281 0.51545 -0.06260
 H1430 H 0.57867 0.51575 -0.09266
 C1431 C 0.09140 -0.00336 0.32150
 C1432 C 0.10810 0.00686 0.31885
 C1433 C 0.11660 0.00734 0.30126
 C1434 C 0.10858 -0.00233 0.28592
 C1435 C 0.09206 -0.01280 0.28867
 C1436 C 0.08357 -0.01327 0.30621
 C1437 C 0.08208 -0.00357 0.34000
 N1438 N 0.06538 -0.01250 0.34219
 N1439 N 0.05686 -0.01255 0.35871
 C1440 C 0.06469 -0.00367 0.37379
 N1441 N 0.08142 0.00523 0.37163
 N1442 N 0.08993 0.00530 0.35509
 C1443 C 0.05512 -0.00365 0.39217
 C1444 C 0.06367 0.00469 0.40801
 C1445 C 0.05465 0.00473 0.42531
 C1446 C 0.03682 -0.00353 0.42720
 C1447 C 0.02826 -0.01184 0.41135
 C1448 C 0.03731 -0.01192 0.39406
 H1449 H 0.11454 0.01465 0.33031
 H1450 H 0.12925 0.01559 0.29966
 H1451 H 0.08574 -0.02085 0.27733
 H1452 H 0.07082 -0.02144 0.30775
 H1453 H 0.07738 0.01118 0.40709
 H1454 H 0.06168 0.01127 0.43720
 H1455 H 0.01456 -0.01836 0.41227
 H1456 H 0.03029 -0.01846 0.38217
 C1457 C 0.18104 1.09046 1.00498
 C1458 C 0.19722 1.08084 1.01001
 C1459 C 0.21476 1.08959 1.00904
 C1460 C 0.21658 1.10817 1.00280
 C1461 C 0.20026 1.11781 0.99812
 C1462 C 0.18277 1.10907 0.99908
 C1463 C 0.16245 1.08120 1.00585
 N1464 N 0.14690 1.09047 1.00067
 N1465 N 0.13019 1.08212 1.00118
 C1466 C 0.12829 1.06415 1.00691
 N1467 N 0.14383 1.05488 1.01217
 N1468 N 0.16056 1.06323 1.01166
 C1469 C 0.10973 1.05477 1.00696
 C1470 C 0.10768 1.03618 1.01294
 C1471 C 0.09024 1.02716 1.01229
 C1472 C 0.07448 1.03653 1.00560
 C1473 C 0.07650 1.05522 0.99993
 C1474 C 0.09390 1.06423 1.00062
 H1475 H 0.19635 1.06654 1.01482
 H1476 H 0.22663 1.08169 1.01355
 H1477 H 0.20107 1.13225 0.99373
 H1478 H 0.17061 1.11698 0.99524
 H1479 H 0.11957 1.02850 1.01796
 H1480 H 0.08918 1.01277 1.01680
 H1481 H 0.06465 1.06290 0.99479
 H1482 H 0.09495 1.07857 0.99596
 C1483 C 0.68042 0.59299 0.50252
 C1484 C 0.68271 0.61127 0.49582
 C1485 C 0.70043 0.61951 0.49477
 C1486 C 0.71642 0.60966 0.50010
 C1487 C 0.71404 0.59144 0.50715
 C1488 C 0.69627 0.58320 0.50823
 C1489 C 0.66159 0.58426 0.50364
 N1490 N 0.65922 0.56671 0.51042
 N1491 N 0.64229 0.55882 0.51124
 C1492 C 0.62702 0.56815 0.50533
 N1493 N 0.62940 0.58572 0.49860
 N1494 N 0.64632 0.59361 0.49779
 C1495 C 0.60826 0.55919 0.50578
 C1496 C 0.59262 0.56859 0.49887
 C1497 C 0.57505 0.55985 0.49858
 C1498 C 0.57272 0.54151 0.50521
 C1499 C 0.58831 0.53227 0.51247
 C1500 C 0.60587 0.54100 0.51274
 H1501 H 0.67080 0.61931 0.49148
 H1502 H 0.70166 0.63375 0.48984
 H1503 H 0.72563 0.58351 0.51229
 H1504 H 0.69498 0.56916 0.51369
 H1505 H 0.59395 0.58263 0.49345
 H1506 H 0.56335 0.56741 0.49295
 H1507 H 0.58702 0.51816 0.51775
 H1508 H 0.61760 0.53338 0.51824
 C1509 C 0.67694 0.41416 -0.00675
 C1510 C 0.67774 0.39527 -0.01196
 C1511 C 0.69450 0.38580 -0.01114
 C1512 C 0.71126 0.39486 -0.00527
 C1513 C 0.71030 0.41390 0.00014
 C1514 C 0.69340 0.42342 -0.00081
 C1515 C 0.65879 0.42373 -0.00694
 N1516 N 0.65774 0.44254 -0.00456
 N1517 N 0.64125 0.45090 -0.00452
 C1518 C 0.62517 0.44075 -0.00675
 N1519 N 0.62627 0.42197 -0.00914
 N1520 N 0.64271 0.41365 -0.00925
 C1521 C 0.60676 0.44979 -0.00640
 C1522 C 0.59038 0.43884 -0.00493
 C1523 C 0.57296 0.44719 -0.00441
 C1524 C 0.57147 0.46670 -0.00552
 C1525 C 0.58782 0.47768 -0.00715
 C1526 C 0.60531 0.46932 -0.00747
 H1527 H 0.66534 0.38763 -0.01652
 H1528 H 0.69430 0.37107 -0.01483
 H1529 H 0.72225 0.42154 0.00567
 H1530 H 0.69315 0.43794 0.00359
 H1531 H 0.59099 0.42376 -0.00403
 H1532 H 0.56064 0.43832 -0.00326
 H1533 H 0.58714 0.49277 -0.00798
 H1534 H 0.61766 0.47813 -0.00867
 C1535 C 0.17785 -0.08899 0.49375
 C1536 C 0.17935 -0.10828 0.49663
 C1537 C 0.19680 -0.11653 0.49762
 C1538 C 0.21332 -0.10579 0.49579
 C1539 C 0.21178 -0.08645 0.49268
 C1540 C 0.19425 -0.07818 0.49166
 C1541 C 0.15927 -0.08023 0.49327
 N1542 N 0.15753 -0.06168 0.48990
 N1543 N 0.14081 -0.05383 0.48982
 C1544 C 0.12513 -0.06419 0.49314
 N1545 N 0.12689 -0.08274 0.49646
 N1546 N 0.14359 -0.09059 0.49651
 C1547 C 0.10655 -0.05544 0.49341
 C1548 C 0.09057 -0.06597 0.49821
 C1549 C 0.07309 -0.05767 0.49882
 C1550 C 0.07115 -0.03865 0.49459
 C1551 C 0.08711 -0.02815 0.48964
 C1552 C 0.10460 -0.03644 0.48909
 H1553 H 0.16704 -0.11708 0.49826
 H1554 H 0.19744 -0.13144 0.50001
 H1555 H 0.22385 -0.07743 0.49116
 H1556 H 0.19358 -0.06326 0.48941
 H1557 H 0.09155 -0.08064 0.50163
 H1558 H 0.06110 -0.06620 0.50263
 H1559 H 0.08614 -0.01346 0.48629
 H1560 H 0.11660 -0.02792 0.48531
 C1561 C 0.32127 -0.08949 0.50083
 C1562 C 0.31861 -0.10788 0.49410
 C1563 C 0.30071 -0.11598 0.49308
 C1564 C 0.28503 -0.10585 0.49865
 C1565 C 0.28775 -0.08749 0.50547
 C1566 C 0.30560 -0.07942 0.50651
 C1567 C 0.34021 -0.08080 0.50202
 N1568 N 0.34264 -0.06313 0.50884
 N1569 N 0.35956 -0.05521 0.50985
 C1570 C 0.37482 -0.06459 0.50410
 N1571 N 0.37242 -0.08228 0.49729
 N1572 N 0.35548 -0.09022 0.49628
 C1573 C 0.39362 -0.05557 0.50501
 C1574 C 0.40945 -0.06501 0.49865
 C1575 C 0.42705 -0.05626 0.49912
 C1576 C 0.42927 -0.03785 0.50596
 C1577 C 0.41347 -0.02851 0.51253
 C1578 C 0.39589 -0.03725 0.51206
 H1579 H 0.33036 -0.11607 0.48962
 H1580 H 0.29922 -0.13012 0.48778
 H1581 H 0.27613 -0.07939 0.51040
 H1582 H 0.30709 -0.06528 0.51189
 H1583 H 0.40824 -0.07914 0.49316
 H1584 H 0.43890 -0.06390 0.49396
 H1585 H 0.41461 -0.01435 0.51793
 H1586 H 0.38405 -0.02955 0.51713
 C1587 C -0.18295 0.40344 1.00723
 C1588 C -0.18611 0.38514 1.00052
 C1589 C -0.20426 0.37766 0.99904
 C1590 C -0.21986 0.38836 1.00408
 C1591 C -0.21646 0.40662 1.01110
 C1592 C -0.19835 0.41399 1.01268
 C1593 C -0.16383 0.41177 1.00818
 N1594 N -0.16095 0.42923 1.01537
 N1595 N -0.14397 0.43704 1.01575
 C1596 C -0.12907 0.42778 1.00893
 N1597 N -0.13189 0.41026 1.00182
 N1598 N -0.14891 0.40242 1.00146
 C1599 C -0.11028 0.43689 1.00880
 C1600 C -0.09491 0.42789 1.00083
 C1601 C -0.07746 0.43694 1.00005
 C1602 C -0.07496 0.45520 1.00720
 C1603 C -0.09026 0.46403 1.01549
 C1604 C -0.10766 0.45500 1.01627
 H1605 H -0.17456 0.37663 0.99613
 H1606 H -0.20580 0.36381 0.99303
 H1607 H -0.22771 0.41529 1.01589
 H1608 H -0.19649 0.42809 1.01808
 H1609 H -0.09641 0.41393 0.99498
 H1610 H -0.06599 0.42969 0.99360
 H1611 H -0.08888 0.47805 1.02123
 H1612 H -0.11912 0.46237 1.02259
 C1613 C -0.17694 0.59168 0.49936
 C1614 C -0.19285 0.58267 0.49173
 C1615 C -0.21020 0.59117 0.49236
 C1616 C -0.21216 0.60890 0.50072
 C1617 C -0.19624 0.61805 0.50813
 C1618 C -0.17881 0.60951 0.50752
 C1619 C -0.15859 0.58241 0.49877
 N1620 N -0.14301 0.59093 0.50596
 N1621 N -0.12661 0.58245 0.50551
 C1622 C -0.12509 0.56508 0.49785
 N1623 N -0.14066 0.55660 0.49065
 N1624 N -0.15704 0.56507 0.49109
 C1625 C -0.10691 0.55549 0.49753
 C1626 C -0.10556 0.53733 0.49001
 C1627 C -0.08852 0.52813 0.48998
 C1628 C -0.07238 0.53687 0.49745
 C1629 C -0.07369 0.55510 0.50483
 C1630 C -0.09074 0.56428 0.50488
 H1631 H -0.19194 0.56902 0.48518
 H1632 H -0.22201 0.58392 0.48595
 H1633 H -0.19722 0.63171 0.51460
 H1634 H -0.16684 0.61688 0.51349
 H1635 H -0.11771 0.53012 0.48421
 H1636 H -0.08803 0.51413 0.48414
 H1637 H -0.06155 0.56229 0.51068
 H1638 H -0.09124 0.57827 0.51075
 C1639 C 0.32370 1.09333 0.00109
 C1640 C 0.30797 1.08392 -0.00646
 C1641 C 0.29040 1.09193 -0.00565
 C1642 C 0.28802 1.10955 0.00280
 C1643 C 0.30376 1.11912 0.01010
 C1644 C 0.32141 1.11107 0.00932
 C1645 C 0.34226 1.08451 0.00035
 N1646 N 0.35766 1.09325 0.00769
 N1647 N 0.37423 1.08510 0.00716
 C1648 C 0.37611 1.06788 -0.00074
 N1649 N 0.36072 1.05920 -0.00811
 N1650 N 0.34418 1.06734 -0.00758
 C1651 C 0.39444 1.05858 -0.00110
 C1652 C 0.39604 1.04057 -0.00891
 C1653 C 0.41316 1.03155 -0.00892
 C1654 C 0.42914 1.04031 -0.00113
 C1655 C 0.42760 1.05841 0.00650
 C1656 C 0.41045 1.06743 0.00652
 H1657 H 0.30919 1.07033 -0.01306
 H1658 H 0.27873 1.08438 -0.01198
 H1659 H 0.30245 1.13273 0.01662
 H1660 H 0.33324 1.11873 0.01522
 H1661 H 0.38402 1.03332 -0.01494
 H1662 H 0.41381 1.01765 -0.01497
 H1663 H 0.43963 1.06560 0.01259
 H1664 H 0.40974 1.08131 0.01262
 C1665 C 0.00562 1.17672 1.09031
 C1666 C 0.00316 1.17802 1.10976
 C1667 C 0.00181 1.19540 1.11854
 C1668 C 0.00266 1.21204 1.10816
 C1669 C 0.00532 1.21073 1.08866
 C1670 C 0.00674 1.19327 1.07987
 C1671 C 0.00696 1.15819 1.08109
 N1672 N 0.01060 1.15668 1.06249
 N1673 N 0.01159 1.13996 1.05424
 C1674 C 0.00897 1.12406 1.06424
 N1675 N 0.00540 1.12559 1.08283
 N1676 N 0.00444 1.14229 1.09108
 C1677 C 0.00954 1.10546 1.05503
 C1678 C 0.00481 1.08924 1.06504
 C1679 C 0.00454 1.07176 1.05619
 C1680 C 0.00908 1.07008 1.03714
 C1681 C 0.01422 1.08626 1.02723
 C1682 C 0.01440 1.10375 1.03606
 H1683 H 0.00237 1.16559 1.11830
 H1684 H 0.00011 1.19589 1.13360
 H1685 H 0.00657 1.22295 1.08000
 H1686 H 0.00874 1.19275 1.06485
 H1687 H 0.00103 1.09003 1.07968
 H1688 H 0.00061 1.05959 1.06427
 H1689 H 0.01781 1.08547 1.01253
 H1690 H 0.01820 1.11595 1.02796
 C1691 C 0.50369 0.68162 0.59114
 C1692 C 0.50422 0.69820 0.58072
 C1693 C 0.50305 0.71563 0.58964
 C1694 C 0.50129 0.71686 0.60926
 C1695 C 0.50091 0.70018 0.61958
 C1696 C 0.50201 0.68284 0.61068
 C1697 C 0.50489 0.66311 0.58182
 N1698 N 0.50285 0.64718 0.59186
 N1699 N 0.50379 0.63050 0.58357
 C1700 C 0.50685 0.62902 0.56488
 N1701 N 0.50896 0.64495 0.55482
 N1702 N 0.50799 0.66166 0.56312
 C1703 C 0.50746 0.61043 0.55565
 C1704 C 0.51194 0.60877 0.53658
 C1705 C 0.51186 0.59126 0.52777
 C1706 C 0.50720 0.57503 0.53781
 C1707 C 0.50303 0.57667 0.55695
 C1708 C 0.50320 0.59415 0.56577
 H1709 H 0.50557 0.69774 0.56562
 H1710 H 0.50377 0.72788 0.58098
 H1711 H 0.49984 0.70060 0.63471
 H1712 H 0.50166 0.67038 0.61919
 H1713 H 0.51538 0.62101 0.52839
 H1714 H 0.51515 0.59050 0.51300
 H1715 H 0.49946 0.56445 0.56512
 H1716 H 0.49972 0.59491 0.58049
 C1717 C -0.00704 0.67686 0.41094
 C1718 C -0.00036 0.67845 0.39259
 C1719 C 0.00057 0.69576 0.38388
 C1720 C -0.00506 0.71211 0.39322
 C1721 C -0.01195 0.71051 0.41159
 C1722 C -0.01285 0.69307 0.42036
 C1723 C -0.00790 0.65831 0.41999
 N1724 N -0.01364 0.65639 0.43798
 N1725 N -0.01411 0.63964 0.44602
 C1726 C -0.00888 0.62414 0.43640
 N1727 N -0.00323 0.62609 0.41841
 N1728 N -0.00275 0.64280 0.41039
 C1729 C -0.00893 0.60553 0.44532
 C1730 C -0.00326 0.58972 0.43516
 C1731 C -0.00263 0.57224 0.44364
 C1732 C -0.00766 0.57012 0.46251
 C1733 C -0.01363 0.58587 0.47260
 C1734 C -0.01425 0.60338 0.46410
 H1735 H 0.00418 0.66629 0.38484
 H1736 H 0.00566 0.69641 0.36965
 H1737 H -0.01690 0.72246 0.41926
 H1738 H -0.01820 0.69229 0.43448
 H1739 H 0.00088 0.59082 0.42065
 H1740 H 0.00196 0.56042 0.43541
 H1741 H -0.01765 0.58473 0.48715
 H1742 H -0.01873 0.61525 0.47232
 C1743 C 0.49106 1.17985 -0.08810
 C1744 C 0.49497 1.18117 -0.10727
 C1745 C 0.49619 1.19854 -0.11587
 C1746 C 0.49355 1.21517 -0.10563
 C1747 C 0.48930 1.21384 -0.08644
 C1748 C 0.48809 1.19636 -0.07779
 C1749 C 0.49054 1.16130 -0.07899
 N1750 N 0.48690 1.15960 -0.06043
 N1751 N 0.48698 1.14290 -0.05229
 C1752 C 0.49071 1.12722 -0.06238
 N1753 N 0.49424 1.12894 -0.08094
 N1754 N 0.49416 1.14561 -0.08906
 C1755 C 0.49134 1.10867 -0.05333
 C1756 C 0.49649 1.09278 -0.06368
 C1757 C 0.49764 1.07537 -0.05510
 C1758 C 0.49362 1.07340 -0.03597
 C1759 C 0.48822 1.08924 -0.02568
 C1760 C 0.48713 1.10668 -0.03425
 H1761 H 0.49729 1.16879 -0.11570
 H1762 H 0.49944 1.19903 -0.13066
 H1763 H 0.48704 1.22607 -0.07789
 H1764 H 0.48500 1.19581 -0.06298
 H1765 H 0.49982 1.09379 -0.07841
 H1766 H 0.50176 1.06346 -0.06348
 H1767 H 0.48499 1.08823 -0.01092
 H1768 H 0.48307 1.11860 -0.02588
 C1769 C 0.49690 0.32324 -0.09267
 C1770 C 0.51137 0.31708 -0.10423
 C1771 C 0.51069 0.29913 -0.11212
 C1772 C 0.49577 0.28687 -0.10821
 C1773 C 0.48132 0.29293 -0.09661
 C1774 C 0.48176 0.31107 -0.08909
 C1775 C 0.49776 0.34216 -0.08418
 N1776 N 0.48190 0.35139 -0.08001
 N1777 N 0.48273 0.36842 -0.07231
 C1778 C 0.49944 0.37681 -0.06828
 N1779 N 0.51529 0.36755 -0.07238
 N1780 N 0.51447 0.35061 -0.08027
 C1781 C 0.50034 0.39555 -0.05939
 C1782 C 0.51539 0.40068 -0.04761
 C1783 C 0.51589 0.41815 -0.03864
 C1784 C 0.50160 0.43099 -0.04168
 C1785 C 0.48679 0.42604 -0.05382
 C1786 C 0.48604 0.40839 -0.06240
 H1787 H 0.52315 0.32620 -0.10728
 H1788 H 0.52204 0.29468 -0.12094
 H1789 H 0.46966 0.28368 -0.09349
 H1790 H 0.47046 0.31544 -0.08017
 H1791 H 0.52656 0.39102 -0.04499
 H1792 H 0.52750 0.42165 -0.02940
 H1793 H 0.47554 0.43565 -0.05632
 H1794 H 0.47433 0.40483 -0.07149
 C1795 C -0.00588 -0.18048 0.40644
 C1796 C 0.00830 -0.18620 0.39430
 C1797 C 0.00757 -0.20395 0.38600
 C1798 C -0.00710 -0.21647 0.39005
 C1799 C -0.02130 -0.21082 0.40217
 C1800 C -0.02083 -0.19286 0.41011
 C1801 C -0.00484 -0.16183 0.41548
 N1802 N -0.02059 -0.15272 0.42027
 N1803 N -0.01958 -0.13591 0.42844
 C1804 C -0.00278 -0.12765 0.43234
 N1805 N 0.01297 -0.13681 0.42764
 N1806 N 0.01195 -0.15352 0.41929
 C1807 C -0.00166 -0.10909 0.44158
 C1808 C 0.01359 -0.10423 0.45320
 C1809 C 0.01440 -0.08684 0.46231
 C1810 C 0.00021 -0.07382 0.45955
 C1811 C -0.01485 -0.07856 0.44764
 C1812 C -0.01590 -0.09612 0.43893
 H1813 H 0.01992 -0.17691 0.39117
 H1814 H 0.01877 -0.20809 0.37683
 H1815 H -0.03273 -0.22029 0.40545
 H1816 H -0.03189 -0.18882 0.41948
 H1817 H 0.02472 -0.11401 0.45553
 H1818 H 0.02619 -0.08350 0.47138
 H1819 H -0.02602 -0.06881 0.44537
 H1820 H -0.02776 -0.09948 0.42997
 C1821 C 0.49633 -0.17553 0.59629
 C1822 C 0.48698 -0.19079 0.58770
 C1823 C 0.48759 -0.20855 0.59561
 C1824 C 0.49759 -0.21154 0.61229
 C1825 C 0.50655 -0.19623 0.62117
 C1826 C 0.50596 -0.17841 0.61323
 C1827 C 0.49629 -0.15689 0.58731
 N1828 N 0.50516 -0.14191 0.59541
 N1829 N 0.50542 -0.12533 0.58703
 C1830 C 0.49685 -0.12301 0.57018
 N1831 N 0.48794 -0.13797 0.56214
 N1832 N 0.48767 -0.15453 0.57051
 C1833 C 0.49734 -0.10467 0.56061
 C1834 C 0.48929 -0.10278 0.54272
 C1835 C 0.48986 -0.08561 0.53355
 C1836 C 0.49845 -0.06985 0.54203
 C1837 C 0.50646 -0.07171 0.55995
 C1838 C 0.50593 -0.08893 0.56912
 H1839 H 0.47927 -0.18910 0.57475
 H1840 H 0.48013 -0.21994 0.58864
 H1841 H 0.51442 -0.19806 0.63399
 H1842 H 0.51328 -0.16696 0.62025
 H1843 H 0.48256 -0.11459 0.53572
 H1844 H 0.48350 -0.08471 0.51978
 H1845 H 0.51319 -0.05988 0.56692
 H1846 H 0.51226 -0.08987 0.58289
 C1847 C -0.00568 0.31932 1.09428
 C1848 C 0.00415 0.31697 1.11121
 C1849 C 0.00566 0.29924 1.11918
 C1850 C -0.00254 0.28350 1.11036
 C1851 C -0.01269 0.28593 1.09366
 C1852 C -0.01422 0.30359 1.08572
 C1853 C -0.00677 0.33793 1.08533
 N1854 N -0.01554 0.33986 1.06855
 N1855 N -0.01615 0.35642 1.06021
 C1856 C -0.00801 0.37178 1.06827
 N1857 N 0.00070 0.36988 1.08511
 N1858 N 0.00131 0.35331 1.09346
 C1859 C -0.00828 0.39010 1.05869
 C1860 C -0.00023 0.40612 1.06721
 C1861 C -0.00002 0.42325 1.05792
 C1862 C -0.00781 0.42478 1.03987
 C1863 C -0.01606 0.40881 1.03144
 C1864 C -0.01630 0.39170 1.04075
 H1865 H 0.01087 0.32879 1.11821
 H1866 H 0.01361 0.29784 1.13202
 H1867 H -0.01961 0.27418 1.08675
 H1868 H -0.02204 0.30487 1.07278
 H1869 H 0.00603 0.40542 1.08102
 H1870 H 0.00642 0.43525 1.06487
 H1871 H -0.02225 0.40948 1.01759
 H1872 H -0.02265 0.37967 1.03376
 C1873 C 0.74982 0.33104 0.06665
 C1874 C 0.73616 0.34457 0.06431
 C1875 C 0.73342 0.35309 0.04713
 C1876 C 0.74426 0.34853 0.03129
 C1877 C 0.75794 0.33470 0.03362
 C1878 C 0.76059 0.32599 0.05107
 C1879 C 0.75253 0.32281 0.08552
 N1880 N 0.76269 0.30717 0.08823
 N1881 N 0.76429 0.29979 0.10530
 C1882 C 0.75587 0.30781 0.12034
 N1883 N 0.74593 0.32351 0.11758
 N1884 N 0.74430 0.33081 0.10060
 C1885 C 0.75678 0.29946 0.13934
 C1886 C 0.74838 0.30853 0.15460
 C1887 C 0.74811 0.30039 0.17232
 C1888 C 0.75623 0.28292 0.17531
 C1889 C 0.76506 0.27403 0.16017
 C1890 C 0.76533 0.28220 0.14239
 H1891 H 0.72755 0.34889 0.07591
 H1892 H 0.72326 0.36403 0.04699
 H1893 H 0.76646 0.33019 0.02207
 H1894 H 0.77121 0.31549 0.05239
 H1895 H 0.74174 0.32188 0.15286
 H1896 H 0.74127 0.30771 0.18361
 H1897 H 0.77150 0.26057 0.16196
 H1898 H 0.77195 0.27484 0.13099
 C1899 C 0.25963 0.83966 0.57257
 C1900 C 0.25363 0.85820 0.57126
 C1901 C 0.25099 0.86644 0.55385
 C1902 C 0.25431 0.85640 0.53725
 C1903 C 0.26122 0.83822 0.53842
 C1904 C 0.26378 0.82986 0.55595
 C1905 C 0.26058 0.83059 0.59119
 N1906 N 0.26581 0.81252 0.59299
 N1907 N 0.26568 0.80428 0.60969
 C1908 C 0.26026 0.81375 0.62528
 N1909 N 0.25518 0.83184 0.62346
 N1910 N 0.25534 0.84006 0.60681
 C1911 C 0.25937 0.80452 0.64381
 C1912 C 0.25173 0.81386 0.65931
 C1913 C 0.25039 0.80509 0.67669
 C1914 C 0.25675 0.78678 0.67905
 C1915 C 0.26456 0.77749 0.66359
 C1916 C 0.26581 0.78624 0.64618
 H1917 H 0.25051 0.86631 0.58369
 H1918 H 0.24606 0.88066 0.55336
 H1919 H 0.26390 0.83023 0.52580
 H1920 H 0.26853 0.81559 0.55646
 H1921 H 0.24660 0.82794 0.65803
 H1922 H 0.24437 0.81270 0.68827
 H1923 H 0.26960 0.76338 0.66489
 H1924 H 0.27179 0.77864 0.63456
 C1925 C 0.76060 0.67938 0.56242
 C1926 C 0.77429 0.66638 0.55747
 C1927 C 0.77281 0.65626 0.54064
 C1928 C 0.75757 0.65888 0.52861
 C1929 C 0.74461 0.67271 0.53290
 C1930 C 0.74618 0.68298 0.54956
 C1931 C 0.76023 0.68774 0.58149
 N1932 N 0.74778 0.70119 0.58582
 N1933 N 0.74623 0.70752 0.60333
 C1934 C 0.75695 0.70057 0.61731
 N1935 N 0.76955 0.68727 0.61296
 N1936 N 0.77114 0.68098 0.59543
 C1937 C 0.75465 0.70707 0.63694
 C1938 C 0.76368 0.69797 0.65174
 C1939 C 0.76157 0.70414 0.67023
 C1940 C 0.75048 0.71965 0.67435
 C1941 C 0.74125 0.72859 0.65956
 C1942 C 0.74325 0.72234 0.64109
 H1943 H 0.78565 0.66337 0.56700
 H1944 H 0.78276 0.64543 0.53773
 H1945 H 0.73269 0.67485 0.52380
 H1946 H 0.73546 0.69293 0.55284
 H1947 H 0.77245 0.68608 0.64907
 H1948 H 0.76897 0.69697 0.68124
 H1949 H 0.73260 0.74058 0.66222
 H1950 H 0.73604 0.72964 0.63005
 C1951 C 0.25924 0.17937 0.06450
 C1952 C 0.24460 0.18250 0.05176
 C1953 C 0.24318 0.17214 0.03514
 C1954 C 0.25652 0.15870 0.03078
 C1955 C 0.27195 0.15658 0.04268
 C1956 C 0.27328 0.16679 0.05947
 C1957 C 0.25876 0.18771 0.08357
 N1958 N 0.26987 0.18116 0.09746
 N1959 N 0.26819 0.18737 0.11500
 C1960 C 0.25531 0.20037 0.11943
 N1961 N 0.24439 0.20712 0.10549
 N1962 N 0.24603 0.20087 0.08797
 C1963 C 0.25294 0.20675 0.13907
 C1964 C 0.24147 0.22195 0.14330
 C1965 C 0.23946 0.22812 0.16180
 C1966 C 0.24874 0.21915 0.17654
 C1967 C 0.25989 0.20370 0.17234
 C1968 C 0.26201 0.19762 0.15383
 H1969 H 0.23359 0.19212 0.05511
 H1970 H 0.23111 0.17388 0.02614
 H1971 H 0.28220 0.14606 0.03972
 H1972 H 0.28481 0.16415 0.06890
 H1973 H 0.23423 0.22927 0.13229
 H1974 H 0.23077 0.24006 0.16451
 H1975 H 0.26733 0.19651 0.18331
 H1976 H 0.27084 0.18579 0.15110
 C1977 C 0.26716 0.16579 0.93027
 C1978 C 0.26240 0.14666 0.93088
 C1979 C 0.25877 0.13799 0.94789
 C1980 C 0.25998 0.14814 0.96475
 C1981 C 0.26573 0.16697 0.96441
 C1982 C 0.26916 0.17580 0.94727
 C1983 C 0.26882 0.17516 0.91187
 N1984 N 0.27047 0.19408 0.91056
 N1985 N 0.27040 0.20235 0.89387
 C1986 C 0.26864 0.19205 0.87783
 N1987 N 0.26730 0.17317 0.87920
 N1988 N 0.26738 0.16493 0.89582
 C1989 C 0.26719 0.20102 0.85922
 C1990 C 0.26257 0.19008 0.84335
 C1991 C 0.26019 0.19830 0.82589
 C1992 C 0.26250 0.21770 0.82372
 C1993 C 0.26750 0.22868 0.83947
 C1994 C 0.26973 0.22043 0.85708
 H1995 H 0.26086 0.13843 0.91815
 H1996 H 0.25466 0.12334 0.94785
 H1997 H 0.26678 0.17502 0.97731
 H1998 H 0.27292 0.19053 0.94729
 H1999 H 0.26049 0.17510 0.84441
 H2000 H 0.25653 0.18937 0.81405
 H2001 H 0.26941 0.24367 0.83824
 H2002 H 0.27332 0.22925 0.86901
 C2003 C 0.76898 0.66609 0.42815
 C2004 C 0.77080 0.67613 0.44514
 C2005 C 0.76713 0.66734 0.46226
 C2006 C 0.76131 0.64853 0.46255
 C2007 C 0.76031 0.63833 0.44571
 C2008 C 0.76420 0.64696 0.42874
 C2009 C 0.77078 0.67545 0.40975
 N2010 N 0.76957 0.66518 0.39370
 N2011 N 0.76953 0.67341 0.37707
 C2012 C 0.77067 0.69229 0.37569
 N2013 N 0.77222 0.70263 0.39172
 N2014 N 0.77226 0.69437 0.40843
 C2015 C 0.76916 0.70123 0.35706
 C2016 C 0.77158 0.72065 0.35489
 C2017 C 0.76923 0.72886 0.33727
 C2018 C 0.76420 0.71783 0.32157
 C2019 C 0.76203 0.69842 0.32377
 C2020 C 0.76454 0.69024 0.34123
 H2021 H 0.77457 0.69085 0.44518
 H2022 H 0.76800 0.67541 0.47516
 H2023 H 0.75612 0.62371 0.44566
 H2024 H 0.76278 0.63871 0.41601
 H2025 H 0.77517 0.72950 0.36679
 H2026 H 0.77103 0.74386 0.33601
 H2027 H 0.75837 0.68946 0.31196
 H2028 H 0.76256 0.67525 0.34231
 C2029 C 0.25814 0.82241 0.43809
 C2030 C 0.24284 0.81926 0.44996
 C2031 C 0.24069 0.83003 0.46618
 C2032 C 0.25392 0.84393 0.47107
 C2033 C 0.26989 0.84620 0.46005
 C2034 C 0.27197 0.83557 0.44365
 C2035 C 0.25865 0.81334 0.41931
 N2036 N 0.27077 0.81946 0.40607
 N2037 N 0.27005 0.81254 0.38868
 C2038 C 0.25716 0.79919 0.38377
 N2039 N 0.24523 0.79287 0.39709
 N2040 N 0.24592 0.79983 0.41445
 C2041 C 0.25564 0.79220 0.36415
 C2042 C 0.24343 0.77726 0.35949
 C2043 C 0.24160 0.77099 0.34095
 C2044 C 0.25186 0.77958 0.32656
 C2045 C 0.26408 0.79452 0.33122
 C2046 C 0.26599 0.80071 0.34979
 H2047 H 0.23196 0.80922 0.44619
 H2048 H 0.22819 0.82817 0.47446
 H2049 H 0.28005 0.85710 0.46334
 H2050 H 0.28397 0.83828 0.43490
 H2051 H 0.23523 0.77037 0.37017
 H2052 H 0.23206 0.75945 0.33789
 H2053 H 0.27227 0.80141 0.32054
 H2054 H 0.27548 0.81229 0.35285
 C2055 C 0.76178 0.33022 0.93249
 C2056 C 0.75573 0.34868 0.93151
 C2057 C 0.75140 0.35857 0.94765
 C2058 C 0.75343 0.35056 0.96551
 C2059 C 0.76095 0.33252 0.96668
 C2060 C 0.76458 0.32220 0.95022
 C2061 C 0.76403 0.31972 0.91472
 N2062 N 0.75814 0.30163 0.91287
 N2063 N 0.75734 0.29340 0.89600
 C2064 C 0.76241 0.30294 0.88035
 N2065 N 0.76876 0.32082 0.88239
 N2066 N 0.76946 0.32904 0.89915
 C2067 C 0.76004 0.29474 0.86124
 C2068 C 0.76623 0.30486 0.84561
 C2069 C 0.76319 0.29805 0.82747
 C2070 C 0.75386 0.28085 0.82431
 C2071 C 0.74778 0.27056 0.83992
 C2072 C 0.75084 0.27743 0.85820
 H2073 H 0.75357 0.35532 0.91810
 H2074 H 0.74664 0.37275 0.94601
 H2075 H 0.76273 0.32588 0.98013
 H2076 H 0.76938 0.30798 0.95131
 H2077 H 0.77337 0.31823 0.84732
 H2078 H 0.76820 0.30637 0.81588
 H2079 H 0.74064 0.25721 0.83803
 H2080 H 0.74581 0.26930 0.86991
 C2081 C 0.81665 0.43553 0.25789
 C2082 C 0.81313 0.44799 0.24320
 C2083 C 0.82372 0.46444 0.24152
 C2084 C 0.83779 0.46891 0.25464
 C2085 C 0.84023 0.45739 0.27021
 C2086 C 0.82977 0.44079 0.27182
 C2087 C 0.80831 0.41640 0.25745
 N2088 N 0.81508 0.40285 0.26870
 N2089 N 0.80903 0.38521 0.26695
 C2090 C 0.79597 0.38033 0.25384
 N2091 N 0.78895 0.39393 0.24279
 N2092 N 0.79505 0.41156 0.24451
 C2093 C 0.78993 0.36052 0.25129
 C2094 C 0.77476 0.35567 0.23952
 C2095 C 0.76905 0.33698 0.23729
 C2096 C 0.77846 0.32268 0.24666
 C2097 C 0.79386 0.32752 0.25813
 C2098 C 0.79947 0.34620 0.26047
 H2099 H 0.80308 0.44447 0.23229
 H2100 H 0.82176 0.47310 0.22931
 H2101 H 0.85127 0.46040 0.28027
 H2102 H 0.83273 0.43158 0.28339
 H2103 H 0.76714 0.36634 0.23219
 H2104 H 0.75713 0.33376 0.22835
 H2105 H 0.80140 0.31691 0.26564
 H2106 H 0.81130 0.34939 0.26953
 C2107 C 0.31930 0.93779 0.76130
 C2108 C 0.33207 0.94369 0.77531
 C2109 C 0.34271 0.96012 0.77313
 C2110 C 0.34088 0.97073 0.75682
 C2111 C 0.32724 0.96560 0.74348
 C2112 C 0.31643 0.94938 0.74577
 C2113 C 0.31051 0.91888 0.76175
 N2114 N 0.29710 0.91385 0.74905
 N2115 N 0.29054 0.89634 0.74810
 C2116 C 0.29719 0.88304 0.75971
 N2117 N 0.31041 0.88810 0.77261
 N2118 N 0.31694 0.90564 0.77360
 C2119 C 0.29067 0.86330 0.75782
 C2120 C 0.29960 0.84901 0.76767
 C2121 C 0.29375 0.83036 0.76548
 C2122 C 0.27874 0.82557 0.75348
 C2123 C 0.26981 0.83987 0.74365
 C2124 C 0.27574 0.85849 0.74575
 H2125 H 0.33450 0.93516 0.78752
 H2126 H 0.35333 0.96374 0.78346
 H2127 H 0.32570 0.97360 0.73076
 H2128 H 0.30668 0.94536 0.73475
 H2129 H 0.31121 0.85219 0.77701
 H2130 H 0.30088 0.81973 0.77335
 H2131 H 0.25820 0.83671 0.73430
 H2132 H 0.26855 0.86912 0.73793
 C2133 C 0.17579 0.93492 0.26527
 C2134 C 0.18004 0.94596 0.24962
 C2135 C 0.16978 0.96191 0.24581
 C2136 C 0.15546 0.96738 0.25785
 C2137 C 0.15194 0.95711 0.27411
 C2138 C 0.16189 0.94083 0.27769
 C2139 C 0.18466 0.91657 0.26754
 N2140 N 0.17530 0.90224 0.27583
 N2141 N 0.18240 0.88515 0.27612
 C2142 C 0.19923 0.88175 0.26827
 N2143 N 0.20876 0.89617 0.26032
 N2144 N 0.20157 0.91321 0.25986
 C2145 C 0.20647 0.86254 0.26728
 C2146 C 0.22568 0.85950 0.26535
 C2147 C 0.23239 0.84136 0.26337
 C2148 C 0.21997 0.82595 0.26282
 C2149 C 0.20079 0.82898 0.26488
 C2150 C 0.19412 0.84708 0.26730
 H2151 H 0.19059 0.94171 0.23976
 H2152 H 0.17260 0.96968 0.23316
 H2153 H 0.14082 0.96110 0.28345
 H2154 H 0.15840 0.93261 0.28988
 H2155 H 0.23551 0.87117 0.26533
 H2156 H 0.24724 0.83941 0.26177
 H2157 H 0.19093 0.81733 0.26465
 H2158 H 0.17924 0.84900 0.26864
 C2159 C 0.66626 0.43138 0.76590
 C2160 C 0.67634 0.44841 0.76740
 C2161 C 0.66757 0.46543 0.76383
 C2162 C 0.64873 0.46558 0.75842
 C2163 C 0.63851 0.44871 0.75771
 C2164 C 0.64712 0.43184 0.76151
 C2165 C 0.67554 0.41308 0.76768
 N2166 N 0.66521 0.39701 0.76703
 N2167 N 0.67332 0.38044 0.76701
 C2168 C 0.69218 0.37913 0.76762
 N2169 N 0.70259 0.39519 0.76859
 N2170 N 0.69444 0.41183 0.76861
 C2171 C 0.70096 0.36053 0.76616
 C2172 C 0.72040 0.35848 0.76772
 C2173 C 0.72844 0.34088 0.76536
 C2174 C 0.71720 0.32505 0.76121
 C2175 C 0.69778 0.32712 0.75996
 C2176 C 0.68978 0.34457 0.76247
 H2177 H 0.69107 0.44855 0.77087
 H2178 H 0.67567 0.47834 0.76446
 H2179 H 0.62388 0.44855 0.75383
 H2180 H 0.63884 0.41908 0.76034
 H2181 H 0.72940 0.37048 0.77058
 H2182 H 0.74345 0.33973 0.76644
 H2183 H 0.68867 0.31522 0.75700
 H2184 H 0.67478 0.34554 0.76119
 C2185 C 0.67968 0.56549 0.75676
 C2186 C 0.66694 0.56042 0.77083
 C2187 C 0.65681 0.54355 0.76956
 C2188 C 0.65916 0.53158 0.75415
 C2189 C 0.67274 0.53601 0.74077
 C2190 C 0.68302 0.55272 0.74213
 C2191 C 0.68807 0.58459 0.75626
 N2192 N 0.70126 0.58907 0.74340
 N2193 N 0.70761 0.60658 0.74180
 C2194 C 0.70095 0.62042 0.75290
 N2195 N 0.68792 0.61591 0.76591
 N2196 N 0.68160 0.59838 0.76755
 C2197 C 0.70746 0.64007 0.75060
 C2198 C 0.69857 0.65471 0.76005
 C2199 C 0.70473 0.67321 0.75796
 C2200 C 0.72004 0.67754 0.74646
 C2201 C 0.72879 0.66292 0.73682
 C2202 C 0.72253 0.64442 0.73881
 H2203 H 0.66414 0.56988 0.78236
 H2204 H 0.64618 0.54054 0.77984
 H2205 H 0.67468 0.52696 0.72872
 H2206 H 0.69277 0.55609 0.73111
 H2207 H 0.68684 0.65189 0.76913
 H2208 H 0.69770 0.68408 0.76567
 H2209 H 0.74062 0.66572 0.72786
 H2210 H 0.72968 0.63350 0.73127
 C2211 C 0.17466 0.06624 0.25684
 C2212 C 0.16208 0.06098 0.27100
 C2213 C 0.15220 0.04395 0.26979
 C2214 C 0.15461 0.03208 0.25432
 C2215 C 0.16783 0.03683 0.24071
 C2216 C 0.17787 0.05367 0.24202
 C2217 C 0.18330 0.08522 0.25660
 N2218 N 0.19668 0.08960 0.24391
 N2219 N 0.20345 0.10698 0.24265
 C2220 C 0.19705 0.12079 0.25394
 N2221 N 0.18380 0.11639 0.26676
 N2222 N 0.17705 0.09898 0.26806
 C2223 C 0.20411 0.14028 0.25202
 C2224 C 0.19560 0.15500 0.26171
 C2225 C 0.20227 0.17337 0.25993
 C2226 C 0.21770 0.17746 0.24852
 C2227 C 0.22609 0.16276 0.23868
 C2228 C 0.21934 0.14440 0.24036
 H2229 H 0.15939 0.07030 0.28266
 H2230 H 0.14190 0.04060 0.28030
 H2231 H 0.16986 0.02780 0.22866
 H2232 H 0.18748 0.05719 0.23091
 H2233 H 0.18377 0.15236 0.27072
 H2234 H 0.19550 0.18431 0.26779
 H2235 H 0.23800 0.16539 0.22977
 H2236 H 0.22620 0.13342 0.23266
 C2237 C 0.33920 0.07206 0.76137
 C2238 C 0.35777 0.07040 0.75552
 C2239 C 0.36559 0.05287 0.75314
 C2240 C 0.35510 0.03652 0.75658
 C2241 C 0.33688 0.03804 0.76338
 C2242 C 0.32894 0.05569 0.76569
 C2243 C 0.33053 0.09073 0.76195
 N2244 N 0.31245 0.09278 0.76703
 N2245 N 0.30453 0.10949 0.76651
 C2246 C 0.31433 0.12484 0.76082
 N2247 N 0.33243 0.12279 0.75588
 N2248 N 0.34034 0.10612 0.75643
 C2249 C 0.30540 0.14334 0.75953
 C2250 C 0.31507 0.15871 0.75184
 C2251 C 0.30652 0.17604 0.75020
 C2252 C 0.28811 0.17844 0.75629
 C2253 C 0.27850 0.16309 0.76410
 C2254 C 0.28702 0.14575 0.76566
 H2255 H 0.36619 0.08264 0.75229
 H2256 H 0.37984 0.05208 0.74828
 H2257 H 0.32855 0.02562 0.76614
 H2258 H 0.31464 0.05648 0.77034
 H2259 H 0.32924 0.15735 0.74694
 H2260 H 0.31436 0.18756 0.74419
 H2261 H 0.26430 0.16441 0.76896
 H2262 H 0.27917 0.13424 0.77167
 C2263 C 0.83741 0.57053 0.25922
 C2264 C 0.85594 0.56855 0.25338
 C2265 C 0.86346 0.55088 0.25100
 C2266 C 0.85268 0.53472 0.25440
 C2267 C 0.83450 0.53655 0.26122
 C2268 C 0.82687 0.55434 0.26353
 C2269 C 0.82905 0.58936 0.25977
 N2270 N 0.81104 0.59173 0.26493
 N2271 N 0.80340 0.60858 0.26438
 C2272 C 0.81342 0.62374 0.25858
 N2273 N 0.83145 0.62137 0.25357
 N2274 N 0.83908 0.60456 0.25414
 C2275 C 0.80479 0.64238 0.25727
 C2276 C 0.81463 0.65756 0.24942
 C2277 C 0.80635 0.67503 0.24778
 C2278 C 0.78805 0.67776 0.25403
 C2279 C 0.77827 0.66260 0.26201
 C2280 C 0.78652 0.64513 0.26357
 H2281 H 0.86458 0.58065 0.25017
 H2282 H 0.87769 0.54985 0.24615
 H2283 H 0.82596 0.52426 0.26397
 H2284 H 0.81258 0.55538 0.26818
 H2285 H 0.82873 0.65594 0.24439
 H2286 H 0.81431 0.68640 0.24164
 H2287 H 0.76415 0.66417 0.26700
 H2288 H 0.77854 0.63378 0.26970
 C2289 C 0.93340 0.25448 0.17421
 C2290 C 0.94183 0.23694 0.17319
 C2291 C 0.95859 0.23477 0.16376
 C2292 C 0.96727 0.25003 0.15492
 C2293 C 0.95952 0.26785 0.15690
 C2294 C 0.94270 0.27007 0.16653
 C2295 C 0.91435 0.25585 0.18189
 N2296 N 0.90752 0.27232 0.18828
 N2297 N 0.89005 0.27325 0.19455
 C2298 C 0.87871 0.25782 0.19440
 N2299 N 0.88558 0.24144 0.18801
 N2300 N 0.90302 0.24046 0.18194
 C2301 C 0.85918 0.25853 0.20084
 C2302 C 0.84602 0.24555 0.19366
 C2303 C 0.82780 0.24514 0.20032
 C2304 C 0.82233 0.25750 0.21457
 C2305 C 0.83537 0.27079 0.22154
 C2306 C 0.85361 0.27143 0.21458
 H2307 H 0.93520 0.22473 0.17928
 H2308 H 0.96450 0.22096 0.16292
 H2309 H 0.96590 0.27984 0.15018
 H2310 H 0.93651 0.28376 0.16713
 H2311 H 0.84986 0.23555 0.18294
 H2312 H 0.81815 0.23469 0.19466
 H2313 H 0.83153 0.28054 0.23247
 H2314 H 0.86351 0.28156 0.22036
 C2315 C 0.43483 0.75792 0.67880
 C2316 C 0.44370 0.74063 0.67737
 C2317 C 0.45997 0.73886 0.66704
 C2318 C 0.46775 0.75430 0.65772
 C2319 C 0.45968 0.77191 0.66011
 C2320 C 0.44331 0.77372 0.67060
 C2321 C 0.41612 0.75878 0.68737
 N2322 N 0.40877 0.77520 0.69326
 N2323 N 0.39149 0.77568 0.70010
 C2324 C 0.38085 0.75979 0.70107
 N2325 N 0.38826 0.74345 0.69524
 N2326 N 0.40551 0.74295 0.68860
 C2327 C 0.36138 0.76006 0.70774
 C2328 C 0.34861 0.74636 0.70121
 C2329 C 0.33031 0.74595 0.70764
 C2330 C 0.32438 0.75900 0.72103
 C2331 C 0.33710 0.77280 0.72757
 C2332 C 0.35542 0.77346 0.72079
 H2333 H 0.43774 0.72826 0.68381
 H2334 H 0.46618 0.72520 0.66586
 H2335 H 0.46541 0.78404 0.65306
 H2336 H 0.43680 0.78724 0.67150
 H2337 H 0.35276 0.73594 0.69104
 H2338 H 0.32089 0.73509 0.70239
 H2339 H 0.33287 0.78307 0.73785
 H2340 H 0.36501 0.78414 0.72607
 C2341 C 0.43822 0.25907 0.82056
 C2342 C 0.44445 0.27332 0.83294
 C2343 C 0.46080 0.27120 0.84353
 C2344 C 0.47099 0.25470 0.84208
 C2345 C 0.46550 0.24105 0.82885
 C2346 C 0.44938 0.24327 0.81807
 C2347 C 0.41945 0.25966 0.81170
 N2348 N 0.41428 0.24685 0.79841
 N2349 N 0.39690 0.24614 0.79171
 C2350 C 0.38386 0.25813 0.79810
 N2351 N 0.38907 0.27111 0.81121
 N2352 N 0.40649 0.27186 0.81787
 C2353 C 0.36424 0.25656 0.79137
 C2354 C 0.35006 0.26674 0.80010
 C2355 C 0.33150 0.26479 0.79407
 C2356 C 0.32669 0.25272 0.77908
 C2357 C 0.34089 0.24260 0.77033
 C2358 C 0.35941 0.24446 0.77643
 H2359 H 0.43626 0.28573 0.83506
 H2360 H 0.46470 0.28181 0.85381
 H2361 H 0.47317 0.22819 0.82758
 H2362 H 0.44509 0.23206 0.80863
 H2363 H 0.35325 0.27612 0.81170
 H2364 H 0.32095 0.27287 0.80109
 H2365 H 0.33773 0.23317 0.75874
 H2366 H 0.36994 0.23639 0.76938
 C2367 C 0.93912 0.75382 0.31797
 C2368 C 0.94713 0.73621 0.32007
 C2369 C 0.96273 0.73400 0.33151
 C2370 C 0.97108 0.74940 0.34097
 C2371 C 0.96412 0.76735 0.33741
 C2372 C 0.94805 0.76947 0.32632
 C2373 C 0.92076 0.75525 0.30847
 N2374 N 0.90904 0.76940 0.31265
 N2375 N 0.89170 0.76942 0.30574
 C2376 C 0.88539 0.75532 0.29435
 N2377 N 0.89725 0.74140 0.28990
 N2378 N 0.91452 0.74133 0.29687
 C2379 C 0.86577 0.75453 0.28760
 C2380 C 0.86028 0.74168 0.27351
 C2381 C 0.84168 0.74031 0.26760
 C2382 C 0.82804 0.75163 0.27573
 C2383 C 0.83351 0.76451 0.28981
 C2384 C 0.85218 0.76601 0.29561
 H2385 H 0.94077 0.72387 0.31365
 H2386 H 0.96810 0.72005 0.33313
 H2387 H 0.96996 0.77961 0.34441
 H2388 H 0.94227 0.78326 0.32478
 H2389 H 0.87036 0.73262 0.26703
 H2390 H 0.83799 0.73024 0.25672
 H2391 H 0.82339 0.77353 0.29628
 H2392 H 0.85591 0.77598 0.30656
 C2393 C 0.07040 0.76241 0.33994
 C2394 C 0.05400 0.76480 0.32929
 C2395 C 0.03642 0.76157 0.33728
 C2396 C 0.03502 0.75578 0.35594
 C2397 C 0.05132 0.75446 0.36683
 C2398 C 0.06878 0.75774 0.35895
 C2399 C 0.08912 0.76354 0.33123
 N2400 N 0.10456 0.75914 0.34129
 N2401 N 0.12129 0.75891 0.33334
 C2402 C 0.12334 0.76307 0.31495
 N2403 N 0.10793 0.76768 0.30490
 N2404 N 0.09116 0.76787 0.31285
 C2405 C 0.14189 0.76200 0.30596
 C2406 C 0.14440 0.76788 0.28741
 C2407 C 0.16175 0.76638 0.27879
 C2408 C 0.17702 0.75885 0.28846
 C2409 C 0.17455 0.75306 0.30705
 C2410 C 0.15721 0.75467 0.31572
 H2411 H 0.05474 0.76851 0.31464
 H2412 H 0.02402 0.76271 0.32864
 H2413 H 0.05059 0.75043 0.38140
 H2414 H 0.08104 0.75605 0.36768
 H2415 H 0.13293 0.77362 0.27949
 H2416 H 0.16313 0.77099 0.26444
 H2417 H 0.18601 0.74728 0.31495
 H2418 H 0.15578 0.74997 0.33002
 C2419 C 0.57192 0.26080 0.84053
 C2420 C 0.55558 0.26519 0.83053
 C2421 C 0.53799 0.26280 0.83874
 C2422 C 0.53647 0.25587 0.85700
 C2423 C 0.55281 0.25236 0.86726
 C2424 C 0.57029 0.25479 0.85914
 C2425 C 0.59052 0.26154 0.83154
 N2426 N 0.60585 0.25565 0.84093
 N2427 N 0.62245 0.25535 0.83271
 C2428 C 0.62447 0.26092 0.81470
 N2429 N 0.60917 0.26696 0.80532
 N2430 N 0.59254 0.26724 0.81355
 C2431 C 0.64288 0.25998 0.80539
 C2432 C 0.64528 0.26690 0.78719
 C2433 C 0.66251 0.26568 0.77828
 C2434 C 0.67779 0.25742 0.78731
 C2435 C 0.67542 0.25055 0.80554
 C2436 C 0.65818 0.25186 0.81449
 H2437 H 0.55633 0.26996 0.81620
 H2438 H 0.52559 0.26562 0.83056
 H2439 H 0.55207 0.24744 0.88154
 H2440 H 0.58252 0.25153 0.86739
 H2441 H 0.63384 0.27327 0.77977
 H2442 H 0.66380 0.27114 0.76424
 H2443 H 0.68687 0.24416 0.81294
 H2444 H 0.65684 0.24635 0.82850
 C2445 C 0.56682 0.76036 0.67626
 C2446 C 0.55361 0.74641 0.68084
 C2447 C 0.53666 0.74504 0.67118
 C2448 C 0.53244 0.75777 0.65702
 C2449 C 0.54491 0.77253 0.65331
 C2450 C 0.56204 0.77380 0.66283
 C2451 C 0.58598 0.75973 0.68417
 N2452 N 0.60000 0.77031 0.67685
 N2453 N 0.61752 0.76851 0.68287
 C2454 C 0.62175 0.75601 0.69642
 N2455 N 0.60769 0.74562 0.70390
 N2456 N 0.59020 0.74739 0.69786
 C2457 C 0.64130 0.75356 0.70275
 C2458 C 0.64536 0.74191 0.71796
 C2459 C 0.66372 0.73988 0.72421
 C2460 C 0.67850 0.74936 0.71533
 C2461 C 0.67449 0.76066 0.69982
 C2462 C 0.65611 0.76277 0.69364
 H2463 H 0.55677 0.73587 0.69114
 H2464 H 0.52721 0.73344 0.67406
 H2465 H 0.54198 0.78227 0.64218
 H2466 H 0.57184 0.78479 0.65906
 H2467 H 0.63432 0.73454 0.72526
 H2468 H 0.66628 0.73107 0.73619
 H2469 H 0.68551 0.76824 0.69270
 H2470 H 0.65350 0.77173 0.68180
 C2471 C 0.06609 0.25731 0.17644
 C2472 C 0.05335 0.24273 0.18041
 C2473 C 0.03670 0.24085 0.17030
 C2474 C 0.03228 0.25367 0.15629
 C2475 C 0.04422 0.26902 0.15318
 C2476 C 0.06107 0.27079 0.16314
 C2477 C 0.08505 0.25732 0.18487
 N2478 N 0.09892 0.26837 0.17792
 N2479 N 0.11634 0.26712 0.18438
 C2480 C 0.12064 0.25475 0.19803
 N2481 N 0.10672 0.24390 0.20515
 N2482 N 0.08933 0.24511 0.19867
 C2483 C 0.14012 0.25282 0.20477
 C2484 C 0.14417 0.24138 0.22014
 C2485 C 0.16249 0.23965 0.22662
 C2486 C 0.17725 0.24924 0.21782
 C2487 C 0.17325 0.26042 0.20223
 C2488 C 0.15490 0.26223 0.19582
 H2489 H 0.05669 0.23213 0.19059
 H2490 H 0.02766 0.22884 0.17275
 H2491 H 0.04113 0.27887 0.14220
 H2492 H 0.07051 0.28226 0.15984
 H2493 H 0.13315 0.23387 0.22734
 H2494 H 0.16504 0.23093 0.23866
 H2495 H 0.18425 0.26809 0.19517
 H2496 H 0.15231 0.27107 0.18387
 C2497 C -0.08430 1.00258 0.81768
 C2498 C -0.08839 0.98654 0.80685
 C2499 C -0.09882 0.98787 0.79031
 C2500 C -0.10560 1.00521 0.78430
 C2501 C -0.10013 1.02140 0.79448
 C2502 C -0.08990 1.02004 0.81108
 C2503 C -0.07485 1.00119 0.83607
 N2504 N -0.07589 1.01543 0.84869
 N2505 N -0.06808 1.01407 0.86557
 C2506 C -0.05885 0.99845 0.87053
 N2507 N -0.05766 0.98424 0.85787
 N2508 N -0.06559 0.98555 0.84100
 C2509 C -0.05046 0.99701 0.88942
 C2510 C -0.03641 0.98407 0.89311
 C2511 C -0.02818 0.98325 0.91090
 C2512 C -0.03408 0.99515 0.92539
 C2513 C -0.04839 1.00781 0.92175
 C2514 C -0.05639 1.00882 0.90394
 H2515 H -0.08398 0.97290 0.81141
 H2516 H -0.10193 0.97522 0.78237
 H2517 H -0.10362 1.03524 0.78983
 H2518 H -0.08642 1.03274 0.81880
 H2519 H -0.03155 0.97481 0.88218
 H2520 H -0.01722 0.97330 0.91332
 H2521 H -0.05318 1.01723 0.93259
 H2522 H -0.06728 1.01885 0.90157
 C2523 C 0.41039 0.50541 0.31973
 C2524 C 0.41886 0.49794 0.30372
 C2525 C 0.40992 0.49851 0.28628
 C2526 C 0.39240 0.50693 0.28434
 C2527 C 0.38384 0.51409 0.30051
 C2528 C 0.39277 0.51351 0.31791
 C2529 C 0.41958 0.50431 0.33832
 N2530 N 0.41108 0.51100 0.35387
 N2531 N 0.41922 0.50986 0.37063
 C2532 C 0.43621 0.50197 0.37257
 N2533 N 0.44473 0.49530 0.35702
 N2534 N 0.43659 0.49643 0.34025
 C2535 C 0.44526 0.50084 0.39123
 C2536 C 0.46305 0.49311 0.39323
 C2537 C 0.47171 0.49245 0.41080
 C2538 C 0.46277 0.49951 0.42678
 C2539 C 0.44488 0.50702 0.42479
 C2540 C 0.43624 0.50768 0.40723
 H2541 H 0.43230 0.49131 0.30467
 H2542 H 0.41662 0.49181 0.27458
 H2543 H 0.37001 0.51990 0.29976
 H2544 H 0.38570 0.51919 0.32999
 H2545 H 0.47038 0.48768 0.38120
 H2546 H 0.48549 0.48656 0.41182
 H2547 H 0.43756 0.51256 0.43677
 H2548 H 0.42251 0.51368 0.40623
 C2549 C 0.58922 0.00104 0.32372
 C2550 C 0.58027 0.00787 0.30767
 C2551 C 0.58875 0.00672 0.29013
 C2552 C 0.60633 -0.00158 0.28819
 C2553 C 0.61527 -0.00823 0.30438
 C2554 C 0.60681 -0.00706 0.32185
 C2555 C 0.58051 0.00262 0.34238
 N2556 N 0.58965 -0.00323 0.35793
 N2557 N 0.58189 -0.00185 0.37475
 C2558 C 0.56466 0.00546 0.37675
 N2559 N 0.55552 0.01134 0.36121
 N2560 N 0.56329 0.00997 0.34437
 C2561 C 0.55592 0.00655 0.39544
 C2562 C 0.53770 0.01318 0.39745
 C2563 C 0.52920 0.01339 0.41499
 C2564 C 0.53873 0.00697 0.43091
 C2565 C 0.55711 0.00076 0.42895
 C2566 C 0.56560 0.00054 0.41143
 H2567 H 0.56680 0.01440 0.30866
 H2568 H 0.58161 0.01285 0.27840
 H2569 H 0.62905 -0.01415 0.30354
 H2570 H 0.61420 -0.01234 0.33393
 H2571 H 0.52988 0.01798 0.38544
 H2572 H 0.51504 0.01833 0.41600
 H2573 H 0.56489 -0.00423 0.44092
 H2574 H 0.57968 -0.00457 0.41041
 C2575 C 0.08643 0.50276 0.82171
 C2576 C 0.07643 0.50609 0.80512
 C2577 C 0.08529 0.50548 0.78774
 C2578 C 0.10442 0.50146 0.78655
 C2579 C 0.11441 0.49851 0.80329
 C2580 C 0.10556 0.49909 0.82060
 C2581 C 0.07700 0.50280 0.84009
 N2582 N 0.08653 0.49850 0.85593
 N2583 N 0.07804 0.49817 0.87244
 C2584 C 0.05966 0.50214 0.87383
 N2585 N 0.05011 0.50651 0.85800
 N2586 N 0.05860 0.50682 0.84146
 C2587 C 0.05024 0.50150 0.89220
 C2588 C 0.03144 0.50647 0.89390
 C2589 C 0.02261 0.50573 0.91127
 C2590 C 0.03236 0.49995 0.92731
 C2591 C 0.05116 0.49499 0.92558
 C2592 C 0.05999 0.49578 0.90825
 H2593 H 0.06168 0.50906 0.80550
 H2594 H 0.07689 0.50817 0.77552
 H2595 H 0.12917 0.49556 0.80292
 H2596 H 0.11375 0.49656 0.83309
 H2597 H 0.02353 0.51095 0.88182
 H2598 H 0.00811 0.50965 0.91209
 H2599 H 0.05913 0.49053 0.93764
 H2600 H 0.07448 0.49184 0.90746
 C2601 C 0.09051 0.49733 0.67836
 C2602 C 0.10858 0.50484 0.68113
 C2603 C 0.11645 0.50594 0.69913
 C2604 C 0.10635 0.49971 0.71474
 C2605 C 0.08836 0.49201 0.71189
 C2606 C 0.08055 0.49087 0.69396
 C2607 C 0.08194 0.49621 0.65940
 N2608 N 0.06464 0.48853 0.65694
 N2609 N 0.05671 0.48768 0.64004
 C2610 C 0.06572 0.49449 0.62482
 N2611 N 0.08307 0.50213 0.62724
 N2612 N 0.09102 0.50297 0.64417
 C2613 C 0.05660 0.49386 0.60610
 C2614 C 0.06557 0.50135 0.59033
 C2615 C 0.05662 0.50123 0.57285
 C2616 C 0.03850 0.49362 0.57074
 C2617 C 0.02966 0.48590 0.58647
 C2618 C 0.03859 0.48602 0.60392
 H2619 H 0.11668 0.50989 0.66941
 H2620 H 0.13035 0.51183 0.70076
 H2621 H 0.08036 0.48650 0.72346
 H2622 H 0.06666 0.48486 0.69238
 H2623 H 0.07945 0.50747 0.59150
 H2624 H 0.06386 0.50727 0.56103
 H2625 H 0.01574 0.47987 0.58539
 H2626 H 0.03127 0.48007 0.61573
 C2627 C 0.59143 0.99960 0.18036
 C2628 C 0.60897 1.00824 0.18341
 C2629 C 0.61695 1.00889 0.20136
 C2630 C 0.60753 1.00104 0.21665
 C2631 C 0.59005 0.99231 0.21355
 C2632 C 0.58210 0.99164 0.19567
 C2633 C 0.58282 0.99884 0.16141
 N2634 N 0.59159 1.00646 0.14642
 N2635 N 0.58367 1.00583 0.12947
 C2636 C 0.56666 0.99754 0.12680
 N2637 N 0.55793 0.98989 0.14179
 N2638 N 0.56583 0.99052 0.15871
 C2639 C 0.55760 0.99706 0.10805
 C2640 C 0.53977 0.98887 0.10566
 C2641 C 0.53092 0.98881 0.08818
 C2642 C 0.53968 0.99692 0.07260
 C2643 C 0.55763 1.00489 0.07490
 C2644 C 0.56648 1.00497 0.09243
 H2645 H 0.61656 1.01452 0.17194
 H2646 H 0.63038 1.01572 0.20325
 H2647 H 0.58261 0.98562 0.22488
 H2648 H 0.56863 0.98475 0.19386
 H2649 H 0.53251 0.98260 0.11735
 H2650 H 0.51713 0.98249 0.08694
 H2651 H 0.56480 1.01125 0.06321
 H2652 H 0.58023 1.01136 0.09375
 C2653 C 0.40704 0.50413 0.17685
 C2654 C 0.41592 0.51306 0.19217
 C2655 C 0.40792 0.51265 0.20991
 C2656 C 0.39085 0.50320 0.21289
 C2657 C 0.38179 0.49451 0.19754
 C2658 C 0.38982 0.49491 0.17971
 C2659 C 0.41587 0.50447 0.15811
 N2660 N 0.40743 0.49620 0.14300
 N2661 N 0.41558 0.49641 0.12627
 C2662 C 0.43251 0.50489 0.12395
 N2663 N 0.44090 0.51318 0.13905
 N2664 N 0.43276 0.51297 0.15575
 C2665 C 0.44182 0.50493 0.10545
 C2666 C 0.45973 0.51298 0.10351
 C2667 C 0.46874 0.51273 0.08623
 C2668 C 0.46007 0.50446 0.07042
 C2669 C 0.44207 0.49659 0.07231
 C2670 C 0.43307 0.49680 0.08962
 H2671 H 0.42909 0.52047 0.19049
 H2672 H 0.41504 0.52005 0.22122
 H2673 H 0.36861 0.48719 0.19929
 H2674 H 0.38257 0.48793 0.16821
 H2675 H 0.46690 0.51940 0.11538
 H2676 H 0.48256 0.51899 0.08530
 H2677 H 0.43495 0.49012 0.06043
 H2678 H 0.41927 0.49051 0.09060
 C2679 C -0.09247 0.00350 0.67785
 C2680 C -0.08291 0.01129 0.69337
 C2681 C -0.09103 0.01132 0.71107
 C2682 C -0.10893 0.00348 0.71381
 C2683 C -0.11862 -0.00409 0.69826
 C2684 C -0.11046 -0.00414 0.68048
 C2685 C -0.08355 0.00336 0.65914
 N2686 N -0.09250 -0.00413 0.64392
 N2687 N -0.08429 -0.00435 0.62722
 C2688 C -0.06680 0.00290 0.62503
 N2689 N -0.05790 0.01041 0.64024
 N2690 N -0.06609 0.01063 0.65691
 C2691 C -0.05748 0.00249 0.60653
 C2692 C -0.03921 0.00965 0.60458
 C2693 C -0.03024 0.00902 0.58728
 C2694 C -0.03930 0.00122 0.57145
 C2695 C -0.05764 -0.00580 0.57335
 C2696 C -0.06661 -0.00518 0.59068
 H2697 H -0.06911 0.01745 0.69190
 H2698 H -0.08332 0.01779 0.72256
 H2699 H -0.13241 -0.01021 0.69979
 H2700 H -0.11824 -0.01023 0.66882
 H2701 H -0.03174 0.01569 0.61646
 H2702 H -0.01614 0.01460 0.58635
 H2703 H -0.06507 -0.01188 0.56147
 H2704 H -0.08069 -0.01080 0.59165
 C2705 C -0.17955 0.91207 0.99940
 C2706 C -0.18193 0.89388 1.00629
 C2707 C -0.19962 0.88550 1.00685
 C2708 C -0.21549 0.89514 1.00081
 C2709 C -0.21303 0.91332 0.99370
 C2710 C -0.19529 0.92170 0.99314
 C2711 C -0.16069 0.92076 0.99844
 N2712 N -0.15817 0.93823 0.99150
 N2713 N -0.14118 0.94595 0.99054
 C2714 C -0.12598 0.93651 0.99647
 N2715 N -0.12851 0.91904 1.00341
 N2716 N -0.14550 0.91133 1.00436
 C2717 C -0.10709 0.94511 0.99558
 C2718 C -0.09148 0.93533 1.00201
 C2719 C -0.07371 0.94357 1.00159
 C2720 C -0.07110 0.96178 0.99473
 C2721 C -0.08667 0.97147 0.98808
 C2722 C -0.10446 0.96323 0.98851
 H2723 H -0.17011 0.88595 1.01108
 H2724 H -0.20089 0.87128 1.01185
 H2725 H -0.22451 0.92108 0.98806
 H2726 H -0.19392 0.93567 0.98752
 H2727 H -0.09298 0.92133 1.00751
 H2728 H -0.06203 0.93568 1.00680
 H2729 H -0.08517 0.98551 0.98269
 H2730 H -0.11616 0.97114 0.98340
 C2731 C 0.31997 0.41393 0.50107
 C2732 C 0.31801 0.39566 0.50790
 C2733 C 0.30052 0.38687 0.50841
 C2734 C 0.28442 0.39613 0.50238
 C2735 C 0.28646 0.41439 0.49532
 C2736 C 0.30400 0.42319 0.49481
 C2737 C 0.33862 0.42307 0.50018
 N2738 N 0.34074 0.44064 0.49334
 N2739 N 0.35757 0.44875 0.49246
 C2740 C 0.37297 0.43964 0.49835
 N2741 N 0.37084 0.42208 0.50519
 N2742 N 0.35403 0.41397 0.50608
 C2743 C 0.39169 0.44864 0.49749
 C2744 C 0.40750 0.43912 0.50380
 C2745 C 0.42513 0.44766 0.50332
 C2746 C 0.42739 0.46594 0.49652
 C2747 C 0.41161 0.47540 0.49004
 C2748 C 0.39396 0.46685 0.49052
 H2749 H 0.33002 0.38802 0.51269
 H2750 H 0.29958 0.37263 0.51339
 H2751 H 0.27480 0.42190 0.48971
 H2752 H 0.30505 0.43720 0.48924
 H2753 H 0.40629 0.42507 0.50922
 H2754 H 0.43697 0.43994 0.50841
 H2755 H 0.41284 0.48949 0.48470
 H2756 H 0.38208 0.47457 0.48552
 C2757 C 0.31947 0.58681 0.00750
 C2758 C 0.30311 0.57610 0.01023
 C2759 C 0.28556 0.58433 0.00913
 C2760 C 0.28397 0.60352 0.00526
 C2761 C 0.30045 0.61417 0.00278
 C2762 C 0.31791 0.60597 0.00386
 C2763 C 0.33807 0.57810 0.00812
 N2764 N 0.35371 0.58840 0.00456
 N2765 N 0.37042 0.58060 0.00470
 C2766 C 0.37224 0.56214 0.00843
 N2767 N 0.35661 0.55183 0.01209
 N2768 N 0.33988 0.55964 0.01193
 C2769 C 0.39084 0.55342 0.00807
 C2770 C 0.39288 0.53445 0.01251
 C2771 C 0.41036 0.52615 0.01160
 C2772 C 0.42619 0.53660 0.00618
 C2773 C 0.42416 0.55562 0.00199
 C2774 C 0.40671 0.56393 0.00294
 H2775 H 0.30382 0.56129 0.01310
 H2776 H 0.27352 0.57541 0.01128
 H2777 H 0.29977 0.62898 -0.00015
 H2778 H 0.33019 0.61469 0.00172
 H2779 H 0.38097 0.52595 0.01656
 H2780 H 0.41141 0.51147 0.01497
 H2781 H 0.43605 0.56413 -0.00215
 H2782 H 0.40567 0.57858 -0.00054
 C2783 C -0.17816 0.08671 0.50651
 C2784 C -0.19508 0.07652 0.50623
 C2785 C -0.21214 0.08571 0.50515
 C2786 C -0.21277 0.10547 0.50476
 C2787 C -0.19556 0.11543 0.50451
 C2788 C -0.17864 0.10625 0.50554
 C2789 C -0.16000 0.07716 0.50733
 N2790 N -0.14382 0.08720 0.50610
 N2791 N -0.12743 0.07878 0.50655
 C2792 C -0.12647 0.05995 0.50828
 N2793 N -0.14265 0.04987 0.50960
 N2794 N -0.15908 0.05830 0.50913
 C2795 C -0.10816 0.05069 0.50827
 C2796 C -0.10682 0.03139 0.51142
 C2797 C -0.08951 0.02269 0.51083
 C2798 C -0.07319 0.03310 0.50695
 C2799 C -0.07453 0.05243 0.50405
 C2800 C -0.09178 0.06112 0.50475
 H2801 H -0.19517 0.06139 0.50656
 H2802 H -0.22462 0.07708 0.50419
 H2803 H -0.19520 0.13053 0.50342
 H2804 H -0.16588 0.11458 0.50546
 H2805 H -0.11915 0.02296 0.51424
 H2806 H -0.08897 0.00777 0.51314
 H2807 H -0.06224 0.06090 0.50115
 H2808 H -0.09227 0.07602 0.50229
 C2809 C 0.68107 0.09249 0.50340
 C2810 C 0.69693 0.08130 0.50336
 C2811 C 0.71480 0.08932 0.50401
 C2812 C 0.71758 0.10894 0.50464
 C2813 C 0.70147 0.12009 0.50494
 C2814 C 0.68355 0.11197 0.50441
 C2815 C 0.66215 0.08375 0.50209
 N2816 N 0.64656 0.09411 0.50408
 N2817 N 0.62964 0.08613 0.50282
 C2818 C 0.62759 0.06747 0.49943
 N2819 N 0.64319 0.05716 0.49741
 N2820 N 0.66007 0.06511 0.49871
 C2821 C 0.60882 0.05841 0.49826
 C2822 C 0.60688 0.03952 0.49289
 C2823 C 0.58934 0.03070 0.49241
 C2824 C 0.57326 0.04051 0.49739
 C2825 C 0.57514 0.05951 0.50243
 C2826 C 0.59270 0.06837 0.50281
 H2827 H 0.69560 0.06621 0.50259
 H2828 H 0.72632 0.07982 0.50315
 H2829 H 0.70228 0.13512 0.50585
 H2830 H 0.67161 0.12104 0.50458
 H2831 H 0.61895 0.03143 0.48918
 H2832 H 0.58845 0.01606 0.48844
 H2833 H 0.56306 0.06753 0.50629
 H2834 H 0.59367 0.08294 0.50698
 C2835 C 0.17610 0.58699 1.00102
 C2836 C 0.17871 0.60535 1.00786
 C2837 C 0.19659 0.61353 1.00881
 C2838 C 0.21227 0.60351 1.00309
 C2839 C 0.20960 0.58519 0.99615
 C2840 C 0.19178 0.57704 0.99516
 C2841 C 0.15720 0.57819 0.99990
 N2842 N 0.15482 0.56056 0.99296
 N2843 N 0.13794 0.55254 0.99201
 C2844 C 0.12266 0.56178 0.99797
 N2845 N 0.12502 0.57943 1.00489
 N2846 N 0.14192 0.58747 1.00583
 C2847 C 0.10391 0.55266 0.99713
 C2848 C 0.08810 0.56196 1.00373
 C2849 C 0.07054 0.55314 1.00335
 C2850 C 0.06833 0.53478 0.99636
 C2851 C 0.08411 0.52557 0.98954
 C2852 C 0.10166 0.53439 0.98993
 H2853 H 0.16695 0.61345 1.01246
 H2854 H 0.19806 0.62765 1.01419
 H2855 H 0.22122 0.57718 0.99109
 H2856 H 0.19033 0.56292 0.98970
 H2857 H 0.08930 0.57604 1.00934
 H2858 H 0.05871 0.56068 1.00870
 H2859 H 0.08296 0.51145 0.98403
 H2860 H 0.11349 0.52679 0.98468
 C2861 C 0.17720 0.41009 0.49854
 C2862 C 0.17997 0.39231 0.49059
 C2863 C 0.19771 0.38441 0.49064
 C2864 C 0.21307 0.39416 0.49852
 C2865 C 0.21019 0.41183 0.50668
 C2866 C 0.19253 0.41970 0.50664
 C2867 C 0.15852 0.41872 0.49854
 N2868 N 0.15624 0.43606 0.50596
 N2869 N 0.13958 0.44396 0.50601
 C2870 C 0.12441 0.43487 0.49866
 N2871 N 0.12665 0.41750 0.49123
 N2872 N 0.14336 0.40959 0.49116
 C2873 C 0.10590 0.44383 0.49879
 C2874 C 0.08998 0.43445 0.49158
 C2875 C 0.07258 0.44301 0.49179
 C2876 C 0.07070 0.46116 0.49920
 C2877 C 0.08664 0.47051 0.50639
 C2878 C 0.10399 0.46196 0.50619
 H2879 H 0.16845 0.38449 0.48428
 H2880 H 0.19938 0.37076 0.48432
 H2881 H 0.22150 0.41953 0.51347
 H2882 H 0.19093 0.43333 0.51307
 H2883 H 0.09094 0.42047 0.48578
 H2884 H 0.06060 0.43539 0.48614
 H2885 H 0.08575 0.48449 0.51223
 H2886 H 0.11592 0.46963 0.51186
 C2887 C 0.67765 0.91155 -0.00201
 C2888 C 0.68001 0.89392 -0.01046
 C2889 C 0.69758 0.88565 -0.01076
 C2890 C 0.71317 0.89488 -0.00272
 C2891 C 0.71072 0.91242 0.00588
 C2892 C 0.69323 0.92065 0.00618
 C2893 C 0.65914 0.92050 -0.00159
 N2894 N 0.65722 0.93773 0.00623
 N2895 N 0.64068 0.94588 0.00668
 C2896 C 0.62530 0.93717 -0.00066
 N2897 N 0.62718 0.91992 -0.00849
 N2898 N 0.64375 0.91176 -0.00895
 C2899 C 0.60691 0.94636 -0.00013
 C2900 C 0.59083 0.93726 -0.00729
 C2901 C 0.57354 0.94600 -0.00678
 C2902 C 0.57191 0.96408 0.00089
 C2903 C 0.58800 0.97316 0.00807
 C2904 C 0.60527 0.96441 0.00758
 H2905 H 0.66830 0.88649 -0.01687
 H2906 H 0.69895 0.87214 -0.01745
 H2907 H 0.72223 0.91971 0.01277
 H2908 H 0.69195 0.93415 0.01298
 H2909 H 0.59156 0.92335 -0.01331
 H2910 H 0.56145 0.93857 -0.01244
 H2911 H 0.58730 0.98707 0.01410
 H2912 H 0.61734 0.97186 0.01323
 C2913 C 0.00175 0.81721 0.91109
 C2914 C 0.00875 0.81511 0.89289
 C2915 C 0.00907 0.79753 0.88433
 C2916 C 0.00268 0.78149 0.89377
 C2917 C -0.00453 0.78367 0.91195
 C2918 C -0.00486 0.80130 0.92053
 C2919 C 0.00100 0.83596 0.91996
 N2920 N -0.00591 0.83819 0.93749
 N2921 N -0.00669 0.85509 0.94537
 C2922 C -0.00062 0.87048 0.93604
 N2923 N 0.00630 0.86824 0.91852
 N2924 N 0.00708 0.85135 0.91065
 C2925 C -0.00134 0.88928 0.94480
 C2926 C 0.00505 0.90511 0.93505
 C2927 C 0.00475 0.92280 0.94342
 C2928 C -0.00195 0.92510 0.96174
 C2929 C -0.00856 0.90930 0.97141
 C2930 C -0.00826 0.89160 0.96303
 H2931 H 0.01380 0.82707 0.88512
 H2932 H 0.01415 0.79649 0.87011
 H2933 H -0.01044 0.77206 0.91956
 H2934 H -0.01056 0.80246 0.93449
 H2935 H 0.01042 0.90385 0.92097
 H2936 H 0.00992 0.93465 0.93554
 H2937 H -0.01384 0.91056 0.98553
 H2938 H -0.01334 0.87972 0.97092
 C2939 C 0.50109 0.32210 0.41181
 C2940 C 0.50766 0.32012 0.39343
 C2941 C 0.50828 0.30254 0.38491
 C2942 C 0.50263 0.28635 0.39458
 C2943 C 0.49582 0.28841 0.41293
 C2944 C 0.49520 0.30604 0.42147
 C2945 C 0.50008 0.34085 0.42067
 N2946 N 0.49352 0.34296 0.43835
 N2947 N 0.49254 0.35986 0.44623
 C2948 C 0.49807 0.37535 0.43674
 N2949 N 0.50462 0.37323 0.41907
 N2950 N 0.50560 0.35635 0.41120
 C2951 C 0.49717 0.39415 0.44551
 C2952 C 0.50313 0.41007 0.43566
 C2953 C 0.50272 0.42775 0.44404
 C2954 C 0.49633 0.42996 0.46249
 C2955 C 0.49013 0.41407 0.47226
 C2956 C 0.49054 0.39637 0.46387
 H2957 H 0.51215 0.33219 0.38549
 H2958 H 0.51301 0.30159 0.37057
 H2959 H 0.49046 0.27666 0.42072
 H2960 H 0.48983 0.30709 0.43557
 H2961 H 0.50827 0.40889 0.42148
 H2962 H 0.50757 0.43967 0.43607
 H2963 H 0.48509 0.41524 0.48648
 H2964 H 0.48580 0.38441 0.47185
 C2965 C 0.00645 0.31855 0.58661
 C2966 C 0.00648 0.31763 0.60623
 C2967 C 0.00553 0.30045 0.61520
 C2968 C 0.00450 0.28360 0.60489
 C2969 C 0.00476 0.28450 0.58518
 C2970 C 0.00577 0.30180 0.57617
 C2971 C 0.00660 0.33696 0.57727
 N2972 N 0.00783 0.33832 0.55835
 N2973 N 0.00754 0.35495 0.55008
 C2974 C 0.00594 0.37089 0.56041
 N2975 N 0.00477 0.36950 0.57931
 N2976 N 0.00511 0.35291 0.58756
 C2977 C 0.00524 0.38941 0.55134
 C2978 C 0.00116 0.40544 0.56197
 C2979 C 0.00027 0.42291 0.55351
 C2980 C 0.00356 0.42482 0.53423
 C2981 C 0.00774 0.40881 0.52360
 C2982 C 0.00851 0.39128 0.53206
 H2983 H 0.00706 0.33022 0.61476
 H2984 H 0.00530 0.30029 0.63038
 H2985 H 0.00391 0.27211 0.57651
 H2986 H 0.00571 0.30204 0.56101
 H2987 H -0.00147 0.40451 0.57685
 H2988 H -0.00291 0.43495 0.56214
 H2989 H 0.01032 0.40978 0.50871
 H2990 H 0.01172 0.37922 0.52348
 C2991 C 0.50463 0.82191 0.08863
 C2992 C 0.50458 0.80518 0.07816
 C2993 C 0.50352 0.78785 0.08710
 C2994 C 0.50253 0.78688 0.10678
 C2995 C 0.50289 0.80372 0.11714
 C2996 C 0.50388 0.82094 0.10823
 C2997 C 0.50514 0.84033 0.07931
 N2998 N 0.50335 0.85628 0.08952
 N2999 N 0.50346 0.87288 0.08127
 C3000 C 0.50539 0.87427 0.06243
 N3001 N 0.50726 0.85833 0.05218
 N3002 N 0.50712 0.84169 0.06045
 C3003 C 0.50520 0.89280 0.05334
 C3004 C 0.50895 0.89462 0.03414
 C3005 C 0.50858 0.91215 0.02565
 C3006 C 0.50434 0.92822 0.03616
 C3007 C 0.50063 0.92638 0.05537
 C3008 C 0.50111 0.90890 0.06386
 H3009 H 0.50516 0.80545 0.06301
 H3010 H 0.50338 0.77549 0.07837
 H3011 H 0.50221 0.80350 0.13229
 H3012 H 0.50398 0.83351 0.11679
 H3013 H 0.51219 0.88251 0.02564
 H3014 H 0.51148 0.91308 0.01081
 H3015 H 0.49740 0.93846 0.06391
 H3016 H 0.49813 0.90802 0.07868
 C3017 C 0.49303 0.67891 0.09418
 C3018 C 0.50192 0.68189 0.11162
 C3019 C 0.50344 0.69989 0.11941
 C3020 C 0.49625 0.71532 0.10987
 C3021 C 0.48701 0.71225 0.09265
 C3022 C 0.48544 0.69431 0.08491
 C3023 C 0.49196 0.66001 0.08544
 N3024 N 0.48357 0.65741 0.06848
 N3025 N 0.48304 0.64063 0.06027
 C3026 C 0.49089 0.62568 0.06865
 N3027 N 0.49920 0.62824 0.08567
 N3028 N 0.49973 0.64505 0.09389
 C3029 C 0.49082 0.60715 0.05912
 C3030 C 0.49904 0.59164 0.06763
 C3031 C 0.49961 0.57440 0.05826
 C3032 C 0.49200 0.57227 0.04013
 C3033 C 0.48349 0.58770 0.03177
 C3034 C 0.48290 0.60491 0.04114
 H3035 H 0.50788 0.67035 0.11919
 H3036 H 0.51062 0.70174 0.13268
 H3037 H 0.48083 0.72371 0.08515
 H3038 H 0.47835 0.69256 0.07155
 H3039 H 0.50523 0.59283 0.08148
 H3040 H 0.50624 0.56281 0.06516
 H3041 H 0.47741 0.58658 0.01786
 H3042 H 0.47640 0.61651 0.03415
 C3043 C -0.00561 0.17554 0.59316
 C3044 C -0.01293 0.19086 0.58354
 C3045 C -0.01145 0.20888 0.59112
 C3046 C -0.00262 0.21210 0.60851
 C3047 C 0.00433 0.19676 0.61837
 C3048 C 0.00292 0.17868 0.61075
 C3049 C -0.00662 0.15653 0.58462
 N3050 N 0.00107 0.14165 0.59330
 N3051 N 0.00056 0.12475 0.58527
 C3052 C -0.00768 0.12200 0.56823
 N3053 N -0.01544 0.13687 0.55963
 N3054 N -0.01493 0.15374 0.56764
 C3055 C -0.00779 0.10335 0.55892
 C3056 C -0.01587 0.10091 0.54103
 C3057 C -0.01540 0.08360 0.53186
 C3058 C -0.00684 0.06824 0.54032
 C3059 C 0.00095 0.07057 0.55835
 C3060 C 0.00050 0.08792 0.56753
 H3061 H -0.01972 0.18901 0.57005
 H3062 H -0.01740 0.22030 0.58335
 H3063 H 0.01123 0.19873 0.63178
 H3064 H 0.00866 0.16720 0.61857
 H3065 H -0.02243 0.11243 0.53397
 H3066 H -0.02162 0.08233 0.51803
 H3067 H 0.00763 0.05904 0.56532
 H3068 H 0.00681 0.08928 0.58131
 C3069 C 0.50219 0.17900 0.41055
 C3070 C 0.49303 0.18141 0.39326
 C3071 C 0.49214 0.19912 0.38510
 C3072 C 0.50029 0.21481 0.39410
 C3073 C 0.50961 0.21232 0.41128
 C3074 C 0.51050 0.19469 0.41941
 C3075 C 0.50315 0.16034 0.41942
 N3076 N 0.51163 0.15834 0.43634
 N3077 N 0.51240 0.14169 0.44448
 C3078 C 0.50473 0.12628 0.43605
 N3079 N 0.49628 0.12825 0.41909
 N3080 N 0.49550 0.14493 0.41094
 C3081 C 0.50532 0.10781 0.44535
 C3082 C 0.49764 0.09178 0.43654
 C3083 C 0.49775 0.07450 0.44555
 C3084 C 0.50549 0.07283 0.46362
 C3085 C 0.51340 0.08882 0.47231
 C3086 C 0.51333 0.10609 0.46329
 H3087 H 0.48649 0.16963 0.38603
 H3088 H 0.48489 0.20053 0.37186
 H3089 H 0.51658 0.22393 0.41836
 H3090 H 0.51782 0.19338 0.43264
 H3091 H 0.49141 0.09257 0.42272
 H3092 H 0.49155 0.06249 0.43841
 H3093 H 0.51954 0.08806 0.48619
 H3094 H 0.51941 0.11812 0.47049
 C3095 C -0.00214 0.67417 0.90930
 C3096 C 0.00638 0.68956 0.91847
 C3097 C 0.00645 0.70721 0.91034
 C3098 C -0.00211 0.71004 0.89282
 C3099 C -0.01044 0.69464 0.88349
 C3100 C -0.01052 0.67690 0.89167
 C3101 C -0.00216 0.65550 0.91821
 N3102 N -0.00987 0.64027 0.90944
 N3103 N -0.00983 0.62358 0.91761
 C3104 C -0.00210 0.62141 0.93489
 N3105 N 0.00559 0.63664 0.94361
 N3106 N 0.00556 0.65330 0.93546
 C3107 C -0.00206 0.60291 0.94413
 C3108 C 0.00548 0.60107 0.96225
 C3109 C 0.00549 0.58373 0.97110
 C3110 C -0.00201 0.56774 0.96205
 C3111 C -0.00950 0.56955 0.94389
 C3112 C -0.00954 0.58693 0.93505
 H3113 H 0.01314 0.68800 0.93197
 H3114 H 0.01357 0.71856 0.91770
 H3115 H -0.01710 0.69630 0.86998
 H3116 H -0.01717 0.66534 0.88418
 H3117 H 0.01137 0.61305 0.96969
 H3118 H 0.01141 0.58288 0.98506
 H3119 H -0.01540 0.55755 0.93649
 H3120 H -0.01544 0.58783 0.92109
 C3121 C 0.23656 0.65761 0.92867
 C3122 C 0.24255 0.63906 0.92997
 C3123 C 0.24544 0.63090 0.94738
 C3124 C 0.24238 0.64101 0.96399
 C3125 C 0.23547 0.65920 0.96285
 C3126 C 0.23266 0.66749 0.94532
 C3127 C 0.23539 0.66663 0.91004
 N3128 N 0.23041 0.68479 0.90829
 N3129 N 0.23047 0.69300 0.89158
 C3130 C 0.23555 0.68343 0.87593
 N3131 N 0.24034 0.66526 0.87770
 N3132 N 0.24026 0.65706 0.89436
 C3133 C 0.23654 0.69269 0.85741
 C3134 C 0.24398 0.68325 0.84187
 C3135 C 0.24569 0.69213 0.82459
 C3136 C 0.23992 0.71066 0.82236
 C3137 C 0.23216 0.72000 0.83781
 C3138 C 0.23055 0.71114 0.85514
 H3139 H 0.24548 0.63091 0.91753
 H3140 H 0.25037 0.61668 0.94786
 H3141 H 0.23298 0.66725 0.97547
 H3142 H 0.22792 0.68176 0.94482
 H3143 H 0.24874 0.66903 0.84308
 H3144 H 0.25162 0.68447 0.81299
 H3145 H 0.22753 0.73428 0.83661
 H3146 H 0.22470 0.71881 0.86678
 C3147 C 0.74181 0.15888 0.42843
 C3148 C 0.73419 0.16701 0.44463
 C3149 C 0.73677 0.15881 0.46229
 C3150 C 0.74743 0.14250 0.46418
 C3151 C 0.75432 0.13416 0.44769
 C3152 C 0.75153 0.14215 0.43023
 C3153 C 0.74041 0.16776 0.40972
 N3154 N 0.74718 0.15885 0.39440
 N3155 N 0.74703 0.16689 0.37768
 C3156 C 0.74012 0.18427 0.37545
 N3157 N 0.73314 0.19319 0.39072
 N3158 N 0.73329 0.18511 0.40752
 C3159 C 0.74075 0.19331 0.35678
 C3160 C 0.73346 0.21120 0.35399
 C3161 C 0.73456 0.21971 0.33641
 C3162 C 0.74303 0.21055 0.32122
 C3163 C 0.75021 0.19263 0.32403
 C3164 C 0.74906 0.18413 0.34154
 H3165 H 0.72653 0.17989 0.44372
 H3166 H 0.73130 0.16597 0.47441
 H3167 H 0.76164 0.12108 0.44800
 H3168 H 0.75734 0.13523 0.41811
 H3169 H 0.72696 0.21868 0.36539
 H3170 H 0.72884 0.23351 0.33476
 H3171 H 0.75675 0.18510 0.31269
 H3172 H 0.75484 0.17034 0.34312
 C3173 C 0.24518 0.32454 0.43843
 C3174 C 0.25983 0.32211 0.45132
 C3175 C 0.26057 0.33250 0.46795
 C3176 C 0.24655 0.34529 0.47217
 C3177 C 0.23115 0.34666 0.46009
 C3178 C 0.23050 0.33642 0.44330
 C3179 C 0.24618 0.31619 0.41939
 N3180 N 0.23489 0.32224 0.40542
 N3181 N 0.23691 0.31604 0.38792
 C3182 C 0.25031 0.30354 0.38362
 N3183 N 0.26143 0.29729 0.39762
 N3184 N 0.25946 0.30354 0.41512
 C3185 C 0.25289 0.29715 0.36401
 C3186 C 0.26440 0.28197 0.35984
 C3187 C 0.26633 0.27566 0.34136
 C3188 C 0.25692 0.28450 0.32662
 C3189 C 0.24586 0.30002 0.33077
 C3190 C 0.24381 0.30621 0.34923
 H3191 H 0.27131 0.31302 0.44809
 H3192 H 0.27259 0.33128 0.47711
 H3193 H 0.22035 0.35664 0.46294
 H3194 H 0.21893 0.33849 0.43375
 H3195 H 0.27166 0.27472 0.37089
 H3196 H 0.27495 0.26366 0.33867
 H3197 H 0.23833 0.30714 0.31980
 H3198 H 0.23498 0.31806 0.35190
 C3199 C 0.74410 0.82497 0.93627
 C3200 C 0.72973 0.83731 0.94097
 C3201 C 0.73041 0.84741 0.95785
 C3202 C 0.74552 0.84544 0.97018
 C3203 C 0.75918 0.83222 0.96613
 C3204 C 0.75841 0.82197 0.94942
 C3205 C 0.74522 0.81673 0.91719
 N3206 N 0.75826 0.80379 0.91307
 N3207 N 0.76039 0.79759 0.89558
 C3208 C 0.74967 0.80419 0.88142
 N3209 N 0.73650 0.81698 0.88557
 N3210 N 0.73433 0.82313 0.90307
 C3211 C 0.75246 0.79782 0.86183
 C3212 C 0.74360 0.80693 0.84694
 C3213 C 0.74586 0.80076 0.82850
 C3214 C 0.75694 0.78522 0.82446
 C3215 C 0.76614 0.77633 0.83931
 C3216 C 0.76398 0.78261 0.85778
 H3217 H 0.71843 0.83983 0.93122
 H3218 H 0.71989 0.85773 0.96059
 H3219 H 0.77098 0.83055 0.97549
 H3220 H 0.76964 0.81252 0.94634
 H3221 H 0.73477 0.81879 0.84952
 H3222 H 0.73850 0.80791 0.81744
 H3223 H 0.77477 0.76432 0.83672
 H3224 H 0.77108 0.77532 0.86890
 C3225 C 0.73001 0.83645 0.06950
 C3226 C 0.73427 0.85571 0.06951
 C3227 C 0.73863 0.86482 0.05290
 C3228 C 0.73862 0.85498 0.03584
 C3229 C 0.73330 0.83602 0.03549
 C3230 C 0.72918 0.82676 0.05225
 C3231 C 0.72787 0.82659 0.08758
 N3232 N 0.72740 0.80761 0.08843
 N3233 N 0.72732 0.79895 0.10493
 C3234 C 0.72771 0.80894 0.12123
 N3235 N 0.72780 0.82788 0.12031
 N3236 N 0.72788 0.83650 0.10388
 C3237 C 0.72937 0.79963 0.13965
 C3238 C 0.73292 0.81043 0.15586
 C3239 C 0.73601 0.80192 0.17307
 C3240 C 0.73546 0.78236 0.17461
 C3241 C 0.73128 0.77149 0.15858
 C3242 C 0.72837 0.78004 0.14122
 H3243 H 0.73494 0.86370 0.08246
 H3244 H 0.74243 0.87954 0.05342
 H3245 H 0.73321 0.82822 0.02242
 H3246 H 0.72584 0.81194 0.05175
 H3247 H 0.73376 0.82554 0.15525
 H3248 H 0.73895 0.81073 0.18519
 H3249 H 0.73073 0.75638 0.15936
 H3250 H 0.72561 0.77132 0.12902
 C3251 C 0.23089 0.33679 0.57147
 C3252 C 0.23521 0.35604 0.57146
 C3253 C 0.23952 0.36513 0.55483
 C3254 C 0.23940 0.35529 0.53776
 C3255 C 0.23406 0.33634 0.53745
 C3256 C 0.22998 0.32709 0.55423
 C3257 C 0.22867 0.32697 0.58956
 N3258 N 0.22803 0.30799 0.59043
 N3259 N 0.22780 0.29935 0.60693
 C3260 C 0.22823 0.30934 0.62322
 N3261 N 0.22850 0.32828 0.62229
 N3262 N 0.22873 0.33689 0.60585
 C3263 C 0.22966 0.30003 0.64166
 C3264 C 0.23304 0.31082 0.65792
 C3265 C 0.23589 0.30230 0.67516
 C3266 C 0.23530 0.28274 0.67669
 C3267 C 0.23131 0.27188 0.66060
 C3268 C 0.22862 0.28044 0.64322
 H3269 H 0.23594 0.36403 0.58440
 H3270 H 0.24332 0.37985 0.55533
 H3271 H 0.23388 0.32853 0.52439
 H3272 H 0.22658 0.31229 0.55374
 H3273 H 0.23390 0.32593 0.65732
 H3274 H 0.23870 0.31110 0.68732
 H3275 H 0.23072 0.25677 0.66136
 H3276 H 0.22599 0.27172 0.63098
 C3277 C 0.74517 0.18030 0.55919
 C3278 C 0.72970 0.17173 0.55016
 C3279 C 0.73207 0.16079 0.53392
 C3280 C 0.75010 0.15753 0.52701
 C3281 C 0.76527 0.16729 0.53539
 C3282 C 0.76281 0.17864 0.55107
 C3283 C 0.74361 0.18954 0.57777
 N3284 N 0.75720 0.20163 0.58385
 N3285 N 0.75723 0.20830 0.60130
 C3286 C 0.74377 0.20305 0.61356
 N3287 N 0.72998 0.19117 0.60743
 N3288 N 0.72989 0.18455 0.58988
 C3289 C 0.74470 0.20961 0.63336
 C3290 C 0.73364 0.20116 0.64722
 C3291 C 0.73513 0.20701 0.66597
 C3292 C 0.74759 0.22156 0.67124
 C3293 C 0.75860 0.23001 0.65735
 C3294 C 0.75723 0.22406 0.63869
 H3295 H 0.71588 0.17296 0.55601
 H3296 H 0.72002 0.15359 0.52799
 H3297 H 0.77928 0.16584 0.53004
 H3298 H 0.77501 0.18522 0.55748
 H3299 H 0.72394 0.18991 0.64363
 H3300 H 0.72635 0.20027 0.67629
 H3301 H 0.76834 0.24125 0.66088
 H3302 H 0.76599 0.23088 0.62841
 C3303 C 0.24033 0.67671 0.06231
 C3304 C 0.25579 0.67908 0.05051
 C3305 C 0.25766 0.66792 0.03450
 C3306 C 0.24400 0.65438 0.02979
 C3307 C 0.22787 0.65293 0.04070
 C3308 C 0.22607 0.66395 0.05688
 C3309 C 0.24002 0.68612 0.08093
 N3310 N 0.22755 0.68068 0.09414
 N3311 N 0.22838 0.68786 0.11142
 C3312 C 0.24171 0.70078 0.11626
 N3313 N 0.25400 0.70643 0.10297
 N3314 N 0.25321 0.69921 0.08571
 C3315 C 0.24324 0.70801 0.13579
 C3316 C 0.25556 0.72289 0.14040
 C3317 C 0.25717 0.72945 0.15889
 C3318 C 0.24659 0.72119 0.17324
 C3319 C 0.23435 0.70625 0.16861
 C3320 C 0.23264 0.69981 0.15013
 H3321 H 0.26700 0.68880 0.05417
 H3322 H 0.27026 0.66920 0.02628
 H3323 H 0.21734 0.64236 0.03752
 H3324 H 0.21391 0.66186 0.06557
 H3325 H 0.26395 0.72953 0.12972
 H3326 H 0.26672 0.74098 0.16194
 H3327 H 0.22590 0.69961 0.17925
 H3328 H 0.22308 0.68827 0.14713
 C3329 C 0.17730 0.56068 0.74420
 C3330 C 0.16499 0.55491 0.72973
 C3331 C 0.15439 0.53840 0.73135
 C3332 C 0.15582 0.52748 0.74748
 C3333 C 0.16897 0.53254 0.76135
 C3334 C 0.17971 0.54890 0.75967
 C3335 C 0.18613 0.57959 0.74412
 N3336 N 0.19898 0.58467 0.75737
 N3337 N 0.20566 0.60215 0.75837
 C3338 C 0.19968 0.61534 0.74625
 N3339 N 0.18700 0.61020 0.73286
 N3340 N 0.18036 0.59271 0.73182
 C3341 C 0.20641 0.63501 0.74794
 C3342 C 0.19781 0.64919 0.73764
 C3343 C 0.20400 0.66776 0.73933
 C3344 C 0.21904 0.67262 0.75124
 C3345 C 0.22758 0.65847 0.76164
 C3346 C 0.22129 0.63990 0.76007
 H3347 H 0.16288 0.56360 0.71757
 H3348 H 0.14410 0.53494 0.72066
 H3349 H 0.17022 0.52431 0.77395
 H3350 H 0.18911 0.55282 0.77103
 H3351 H 0.18624 0.64596 0.72827
 H3352 H 0.19714 0.67827 0.73104
 H3353 H 0.23920 0.66171 0.77097
 H3354 H 0.22820 0.62935 0.76825
 C3355 C 0.68078 0.05697 0.24645
 C3356 C 0.67782 0.04920 0.26416
 C3357 C 0.66625 0.03353 0.26619
 C3358 C 0.65743 0.02494 0.25053
 C3359 C 0.66207 0.03158 0.23259
 C3360 C 0.67328 0.04770 0.23061
 C3361 C 0.69021 0.07546 0.24500
 N3362 N 0.68640 0.08701 0.23050
 N3363 N 0.69310 0.10452 0.23042
 C3364 C 0.70390 0.11116 0.24481
 N3365 N 0.70801 0.09946 0.25908
 N3366 N 0.70124 0.08203 0.25922
 C3367 C 0.71032 0.13096 0.24550
 C3368 C 0.72431 0.13675 0.25827
 C3369 C 0.72994 0.15552 0.25946
 C3370 C 0.72156 0.16898 0.24808
 C3371 C 0.70752 0.16321 0.23533
 C3372 C 0.70205 0.14438 0.23398
 H3373 H 0.68366 0.05578 0.27665
 H3374 H 0.66412 0.02832 0.28021
 H3375 H 0.65601 0.02541 0.22009
 H3376 H 0.67560 0.05325 0.21673
 H3377 H 0.73097 0.12677 0.26735
 H3378 H 0.74079 0.15948 0.26943
 H3379 H 0.70089 0.17321 0.22626
 H3380 H 0.69114 0.14040 0.22408
 C3381 C 0.83289 0.07356 0.73265
 C3382 C 0.84877 0.07400 0.74418
 C3383 C 0.85776 0.05764 0.74889
 C3384 C 0.85142 0.04011 0.74198
 C3385 C 0.83574 0.03970 0.72987
 C3386 C 0.82638 0.05626 0.72553
 C3387 C 0.82338 0.09133 0.72873
 N3388 N 0.80469 0.09193 0.72542
 N3389 N 0.79614 0.10832 0.72403
 C3390 C 0.80596 0.12470 0.72582
 N3391 N 0.82466 0.12396 0.72865
 N3392 N 0.83316 0.10768 0.73010
 C3393 C 0.79664 0.14308 0.72626
 C3394 C 0.80744 0.15948 0.72896
 C3395 C 0.79901 0.17669 0.73150
 C3396 C 0.77950 0.17810 0.73126
 C3397 C 0.76860 0.16191 0.72769
 C3398 C 0.77709 0.14452 0.72530
 H3399 H 0.85420 0.08709 0.74991
 H3400 H 0.87015 0.05901 0.75756
 H3401 H 0.83008 0.02664 0.72439
 H3402 H 0.81412 0.05554 0.71659
 H3403 H 0.82252 0.15903 0.72962
 H3404 H 0.80785 0.18891 0.73391
 H3405 H 0.75352 0.16259 0.72736
 H3406 H 0.76836 0.13218 0.72320
 C3407 C 0.33114 0.57258 0.22952
 C3408 C 0.35046 0.57311 0.23310
 C3409 C 0.35982 0.55692 0.23791
 C3410 C 0.35018 0.53976 0.23899
 C3411 C 0.33113 0.53886 0.23443
 C3412 C 0.32160 0.55521 0.22989
 C3413 C 0.32113 0.59033 0.22675
 N3414 N 0.30221 0.59106 0.22772
 N3415 N 0.29356 0.60743 0.22714
 C3416 C 0.30348 0.62371 0.22555
 N3417 N 0.32232 0.62287 0.22416
 N3418 N 0.33093 0.60658 0.22476
 C3419 C 0.29436 0.64214 0.22682
 C3420 C 0.30542 0.65849 0.22849
 C3421 C 0.29728 0.67578 0.23152
 C3422 C 0.27783 0.67729 0.23275
 C3423 C 0.26662 0.66113 0.23029
 C3424 C 0.27483 0.64366 0.22749
 H3425 H 0.35831 0.58616 0.23289
 H3426 H 0.37459 0.55784 0.24115
 H3427 H 0.32349 0.52570 0.23517
 H3428 H 0.30675 0.55433 0.22710
 H3429 H 0.32049 0.65794 0.22800
 H3430 H 0.30630 0.68800 0.23309
 H3431 H 0.25158 0.66190 0.23114
 H3432 H 0.26591 0.63135 0.22619
 C3433 C 0.32415 0.43905 0.24559
 C3434 C 0.32098 0.45190 0.26018
 C3435 C 0.33061 0.46902 0.26082
 C3436 C 0.34336 0.47376 0.24674
 C3437 C 0.34552 0.46163 0.23143
 C3438 C 0.33605 0.44436 0.23089
 C3439 C 0.31642 0.41974 0.24667
 N3440 N 0.32292 0.40599 0.23534
 N3441 N 0.31710 0.38834 0.23734
 C3442 C 0.30455 0.38366 0.25077
 N3443 N 0.29789 0.39744 0.26194
 N3444 N 0.30375 0.41508 0.25998
 C3445 C 0.29838 0.36396 0.25325
 C3446 C 0.28343 0.35947 0.26514
 C3447 C 0.27718 0.34095 0.26692
 C3448 C 0.28582 0.32647 0.25698
 C3449 C 0.30115 0.33090 0.24556
 C3450 C 0.30730 0.34942 0.24367
 H3451 H 0.31185 0.44835 0.27169
 H3452 H 0.32879 0.47821 0.27278
 H3453 H 0.35550 0.46490 0.22060
 H3454 H 0.33869 0.43484 0.21937
 H3455 H 0.27629 0.37030 0.27279
 H3456 H 0.26534 0.33805 0.27584
 H3457 H 0.30809 0.32012 0.23763
 H3458 H 0.31896 0.35235 0.23453
 C3459 C 0.82348 0.94060 0.74453
 C3460 C 0.83586 0.94595 0.73024
 C3461 C 0.84536 0.96320 0.73116
 C3462 C 0.84274 0.97528 0.74644
 C3463 C 0.82948 0.97053 0.76003
 C3464 C 0.81982 0.95343 0.75901
 C3465 C 0.81580 0.92122 0.74535
 N3466 N 0.80287 0.91643 0.75837
 N3467 N 0.79710 0.89874 0.76016
 C3468 C 0.80412 0.88504 0.74913
 N3469 N 0.81693 0.88985 0.73600
 N3470 N 0.82266 0.90755 0.73416
 C3471 C 0.79807 0.86525 0.75147
 C3472 C 0.80729 0.85082 0.74202
 C3473 C 0.80131 0.83222 0.74383
 C3474 C 0.78587 0.82760 0.75503
 C3475 C 0.77691 0.84199 0.76482
 C3476 C 0.78299 0.86058 0.76312
 H3477 H 0.83889 0.93646 0.71881
 H3478 H 0.85578 0.96643 0.72074
 H3479 H 0.82736 0.97964 0.77200
 H3480 H 0.81033 0.94984 0.77020
 H3481 H 0.81906 0.85388 0.73307
 H3482 H 0.80850 0.82153 0.73601
 H3483 H 0.76498 0.83896 0.77357
 H3484 H 0.77561 0.87133 0.77067
 C3485 C 0.66125 0.92642 0.23527
 C3486 C 0.67145 0.94332 0.23346
 C3487 C 0.66305 0.96049 0.23728
 C3488 C 0.64444 0.96097 0.24314
 C3489 C 0.63401 0.94422 0.24393
 C3490 C 0.64229 0.92717 0.24000
 C3491 C 0.67038 0.90803 0.23358
 N3492 N 0.66053 0.89204 0.23692
 N3493 N 0.66880 0.87554 0.23687
 C3494 C 0.68733 0.87427 0.23347
 N3495 N 0.69720 0.89022 0.22986
 N3496 N 0.68890 0.90677 0.22995
 C3497 C 0.69663 0.85594 0.23454
 C3498 C 0.71539 0.85408 0.22940
 C3499 C 0.72425 0.83691 0.23114
 C3500 C 0.71459 0.82123 0.23822
 C3501 C 0.69577 0.82306 0.24317
 C3502 C 0.68689 0.84017 0.24129
 H3503 H 0.68606 0.94325 0.22972
 H3504 H 0.67132 0.97327 0.23655
 H3505 H 0.61950 0.94427 0.24804
 H3506 H 0.63390 0.91452 0.24130
 H3507 H 0.72329 0.86592 0.22410
 H3508 H 0.73876 0.83599 0.22716
 H3509 H 0.68787 0.81125 0.24853
 H3510 H 0.67243 0.84107 0.24540
 C3511 C 0.15990 0.42651 0.73836
 C3512 C 0.16985 0.44328 0.73495
 C3513 C 0.16153 0.46062 0.73809
 C3514 C 0.14323 0.46143 0.74485
 C3515 C 0.13307 0.44472 0.74742
 C3516 C 0.14127 0.42749 0.74419
 C3517 C 0.16894 0.40804 0.73689
 N3518 N 0.15929 0.39221 0.74132
 N3519 N 0.16750 0.37567 0.74119
 C3520 C 0.18575 0.37420 0.73661
 N3521 N 0.19540 0.39000 0.73195
 N3522 N 0.18717 0.40659 0.73211
 C3523 C 0.19501 0.35584 0.73743
 C3524 C 0.21356 0.35389 0.73159
 C3525 C 0.22243 0.33670 0.73310
 C3526 C 0.21300 0.32108 0.74059
 C3527 C 0.19438 0.32298 0.74620
 C3528 C 0.18549 0.34013 0.74460
 H3529 H 0.18420 0.44302 0.73035
 H3530 H 0.16961 0.47335 0.73597
 H3531 H 0.11877 0.44496 0.75220
 H3532 H 0.13307 0.41494 0.74675
 H3533 H 0.22129 0.36567 0.72596
 H3534 H 0.23677 0.33573 0.72858
 H3535 H 0.18665 0.31124 0.75193
 H3536 H 0.17119 0.34110 0.74924
 C3537 C 0.07049 0.72729 0.83500
 C3538 C 0.05343 0.72691 0.82507
 C3539 C 0.03672 0.73102 0.83421
 C3540 C 0.03691 0.73587 0.85329
 C3541 C 0.05375 0.73541 0.86335
 C3542 C 0.07031 0.73106 0.85436
 C3543 C 0.08859 0.72519 0.82532
 N3544 N 0.10468 0.72493 0.83543
 N3545 N 0.12115 0.72488 0.82699
 C3546 C 0.12232 0.72510 0.80803
 N3547 N 0.10622 0.72498 0.79783
 N3548 N 0.08968 0.72503 0.80630
 C3549 C 0.14081 0.72677 0.79894
 C3550 C 0.14266 0.72585 0.77934
 C3551 C 0.16012 0.72871 0.77100
 C3552 C 0.17598 0.73278 0.78210
 C3553 C 0.17414 0.73328 0.80167
 C3554 C 0.15684 0.73023 0.80997
 H3555 H 0.05307 0.72395 0.81017
 H3556 H 0.02382 0.73130 0.82624
 H3557 H 0.05415 0.73885 0.87816
 H3558 H 0.08310 0.73137 0.86253
 H3559 H 0.13060 0.72316 0.77044
 H3560 H 0.16112 0.72819 0.75587
 H3561 H 0.18612 0.73613 0.81065
 H3562 H 0.15601 0.73101 0.82510
 C3563 C 0.57057 0.23245 0.33498
 C3564 C 0.55332 0.23133 0.32543
 C3565 C 0.53672 0.23563 0.33473
 C3566 C 0.53723 0.24141 0.35356
 C3567 C 0.55431 0.24182 0.36324
 C3568 C 0.57075 0.23730 0.35411
 C3569 C 0.58850 0.22977 0.32512
 N3570 N 0.60473 0.22986 0.33502
 N3571 N 0.62106 0.22910 0.32638
 C3572 C 0.62196 0.22822 0.30741
 N3573 N 0.60572 0.22777 0.29744
 N3574 N 0.58931 0.22854 0.30612
 C3575 C 0.64037 0.22897 0.29804
 C3576 C 0.64201 0.22691 0.27849
 C3577 C 0.65948 0.22878 0.26988
 C3578 C 0.67553 0.23297 0.28065
 C3579 C 0.67387 0.23464 0.30018
 C3580 C 0.65658 0.23259 0.30875
 H3581 H 0.55268 0.22753 0.31073
 H3582 H 0.52364 0.23519 0.32705
 H3583 H 0.55498 0.24595 0.37786
 H3584 H 0.58370 0.23822 0.36199
 H3585 H 0.62981 0.22408 0.26984
 H3586 H 0.66034 0.22739 0.25479
 H3587 H 0.68598 0.23763 0.30893
 H3588 H 0.65592 0.23423 0.32382
 C3589 C 0.56343 0.74363 0.17726
 C3590 C 0.55743 0.72933 0.16482
 C3591 C 0.54084 0.73103 0.15454
 C3592 C 0.53012 0.74712 0.15642
 C3593 C 0.53548 0.76087 0.16959
 C3594 C 0.55188 0.75909 0.18003
 C3595 C 0.58229 0.74340 0.18596
 N3596 N 0.58746 0.75644 0.19903
 N3597 N 0.60488 0.75731 0.20565
 C3598 C 0.61793 0.74526 0.19939
 N3599 N 0.61270 0.73208 0.18649
 N3600 N 0.59527 0.73116 0.17991
 C3601 C 0.63756 0.74684 0.20605
 C3602 C 0.65159 0.73653 0.19728
 C3603 C 0.67013 0.73819 0.20332
 C3604 C 0.67511 0.75009 0.21839
 C3605 C 0.66109 0.76045 0.22715
 C3606 C 0.64254 0.75890 0.22100
 H3607 H 0.56594 0.71719 0.16244
 H3608 H 0.53709 0.72043 0.14422
 H3609 H 0.52740 0.77345 0.17113
 H3610 H 0.55599 0.77034 0.18951
 H3611 H 0.64829 0.72720 0.18566
 H3612 H 0.68054 0.72992 0.19630
 H3613 H 0.66443 0.76975 0.23879
 H3614 H 0.63210 0.76708 0.22806
 C3615 C 0.06352 0.24072 0.67680
 C3616 C 0.05808 0.22653 0.66399
 C3617 C 0.04164 0.22806 0.65342
 C3618 C 0.03051 0.24385 0.65543
 C3619 C 0.03529 0.25743 0.66898
 C3620 C 0.05154 0.25581 0.67969
 C3621 C 0.08228 0.24080 0.68575
 N3622 N 0.08698 0.25376 0.69907
 N3623 N 0.10430 0.25497 0.70592
 C3624 C 0.11772 0.24335 0.69965
 N3625 N 0.11297 0.23023 0.68650
 N3626 N 0.09563 0.22899 0.67969
 C3627 C 0.13724 0.24531 0.70656
 C3628 C 0.15163 0.23545 0.69783
 C3629 C 0.17006 0.23745 0.70412
 C3630 C 0.17459 0.24926 0.71940
 C3631 C 0.16022 0.25918 0.72810
 C3632 C 0.14178 0.25729 0.72171
 H3633 H 0.06693 0.21467 0.66150
 H3634 H 0.03834 0.21762 0.64280
 H3635 H 0.02690 0.26979 0.67058
 H3636 H 0.05522 0.26696 0.68945
 H3637 H 0.14868 0.22620 0.68606
 H3638 H 0.18073 0.22951 0.69713
 H3639 H 0.16321 0.26839 0.73990
 H3640 H 0.13106 0.26513 0.72874
 C3641 C 0.92985 0.24446 0.66678
 C3642 C 0.93900 0.22846 0.66022
 C3643 C 0.95663 0.23009 0.65188
 C3644 C 0.96535 0.24772 0.65011
 C3645 C 0.95669 0.26345 0.65783
 C3646 C 0.93913 0.26186 0.66594
 C3647 C 0.91039 0.24349 0.67358
 N3648 N 0.89975 0.25901 0.67329
 N3649 N 0.88218 0.25842 0.67916
 C3650 C 0.87449 0.24229 0.68564
 N3651 N 0.88512 0.22672 0.68595
 N3652 N 0.90269 0.22728 0.67993
 C3653 C 0.85514 0.24201 0.69276
 C3654 C 0.84918 0.22826 0.70541
 C3655 C 0.83143 0.22902 0.71334
 C3656 C 0.81913 0.24336 0.70853
 C3657 C 0.82481 0.25666 0.69529
 C3658 C 0.84268 0.25609 0.68761
 H3659 H 0.93220 0.21485 0.66075
 H3660 H 0.96295 0.21775 0.64599
 H3661 H 0.96328 0.27715 0.65714
 H3662 H 0.93265 0.27439 0.67123
 H3663 H 0.85846 0.21726 0.70966
 H3664 H 0.82740 0.21849 0.72342
 H3665 H 0.81567 0.26789 0.69133
 H3666 H 0.84681 0.26681 0.67778
 C3667 C 0.42975 0.74549 0.16988
 C3668 C 0.43920 0.72979 0.16303
 C3669 C 0.45658 0.73196 0.15431
 C3670 C 0.46478 0.74982 0.15244
 C3671 C 0.45586 0.76525 0.16045
 C3672 C 0.43853 0.76314 0.16894
 C3673 C 0.41043 0.74398 0.17696
 N3674 N 0.39933 0.75916 0.17667
 N3675 N 0.38183 0.75808 0.18267
 C3676 C 0.37466 0.74178 0.18930
 N3677 N 0.38575 0.72655 0.18966
 N3678 N 0.40327 0.72759 0.18349
 C3679 C 0.35530 0.74099 0.19635
 C3680 C 0.34971 0.72744 0.20939
 C3681 C 0.33186 0.72787 0.21719
 C3682 C 0.31914 0.74165 0.21186
 C3683 C 0.32451 0.75470 0.19824
 C3684 C 0.34242 0.75446 0.19069
 H3685 H 0.43277 0.71600 0.16361
 H3686 H 0.46311 0.71982 0.14820
 H3687 H 0.46206 0.77914 0.15970
 H3688 H 0.43181 0.77545 0.17443
 H3689 H 0.35933 0.71690 0.21403
 H3690 H 0.32811 0.71756 0.22760
 H3691 H 0.31507 0.76551 0.19385
 H3692 H 0.34626 0.76500 0.18055
 C3693 C 0.43727 0.24553 0.32557
 C3694 C 0.45037 0.25993 0.32215
 C3695 C 0.46720 0.26082 0.33210
 C3696 C 0.47141 0.24720 0.34543
 C3697 C 0.45908 0.23202 0.34785
 C3698 C 0.44208 0.23123 0.33806
 C3699 C 0.41819 0.24648 0.31751
 N3700 N 0.40413 0.23555 0.32425
 N3701 N 0.38667 0.23752 0.31815
 C3702 C 0.38251 0.25052 0.30507
 N3703 N 0.39660 0.26129 0.29815
 N3704 N 0.41404 0.25936 0.30430
 C3705 C 0.36299 0.25304 0.29862
 C3706 C 0.35900 0.26443 0.28319
 C3707 C 0.34065 0.26628 0.27676
 C3708 C 0.32584 0.25690 0.28571
 C3709 C 0.32980 0.24597 0.30149
 C3710 C 0.34814 0.24401 0.30782
 H3711 H 0.44721 0.27112 0.31258
 H3712 H 0.47654 0.27269 0.33011
 H3713 H 0.46196 0.22153 0.35827
 H3714 H 0.43237 0.21986 0.34091
 H3715 H 0.37009 0.27165 0.27582
 H3716 H 0.33813 0.27481 0.26457
 H3717 H 0.31877 0.23849 0.30870
 H3718 H 0.35068 0.23527 0.31985
 C3719 C 0.93763 0.74306 0.82348
 C3720 C 0.94192 0.72847 0.83583
 C3721 C 0.95882 0.72869 0.84579
 C3722 C 0.97157 0.74355 0.84365
 C3723 C 0.96790 0.75741 0.83040
 C3724 C 0.95117 0.75709 0.82029
 C3725 C 0.91861 0.74469 0.81542
 N3726 N 0.91487 0.75784 0.80234
 N3727 N 0.89749 0.76041 0.79627
 C3728 C 0.88308 0.75005 0.80315
 N3729 N 0.88684 0.73679 0.81609
 N3730 N 0.90423 0.73417 0.82211
 C3731 C 0.86365 0.75322 0.79682
 C3732 C 0.84859 0.74479 0.80623
 C3733 C 0.83030 0.74719 0.79994
 C3734 C 0.82660 0.75796 0.78398
 C3735 C 0.84162 0.76683 0.77488
 C3736 C 0.85993 0.76455 0.78127
 H3737 H 0.93186 0.71737 0.83850
 H3738 H 0.96126 0.71804 0.85615
 H3739 H 0.97759 0.76904 0.82862
 H3740 H 0.94840 0.76848 0.81082
 H3741 H 0.85092 0.73614 0.81837
 H3742 H 0.81912 0.74010 0.80730
 H3743 H 0.83929 0.77522 0.76254
 H3744 H 0.87119 0.77132 0.77376
   
