data_POSCAR
  _audit_creation_date              2014-09-24
  _audit_creation_method            'ToBaCCo'
  _symmetry_space_group_name_H-M    'P1'
  _symmetry_Int_Tables_number       1
  _symmetry_cell_setting            triclinic
  loop_
  _symmetry_equiv_pos_as_xyz
 x,y,z
_cell_length_a 45.5052
_cell_length_b 45.1170
_cell_length_c 47.6152
_cell_angle_alpha 91.519400
_cell_angle_beta 91.208600
_cell_angle_gamma 90.874500
loop_
  _atom_site_label
  _atom_site_type_symbol
  _atom_site_fract_x
  _atom_site_fract_y
  _atom_site_fract_z
C1 C 0.37219 -0.05135 0.24261
 C2 C 0.38389 -0.02268 0.23884
 C3 C 0.39692 -0.01552 0.21345
 C4 C 0.39820 -0.03674 0.19157
 C5 C 0.38576 -0.06495 0.19515
 C6 C 0.37260 -0.07276 0.22046
 C7 C 0.38185 0.00038 0.26111
 C8 C 0.39784 -0.00232 0.28639
 C9 C 0.39733 0.02020 0.30732
 C10 C 0.37861 0.04444 0.30314
 C11 C 0.36244 0.04728 0.27806
 C12 C 0.36459 0.02546 0.25674
 H13 H 0.36198 -0.05610 0.26232
 H14 H 0.40542 0.00674 0.21070
 H15 H 0.41145 -0.02159 0.28926
 H16 H 0.35201 0.02728 0.23730
 H17 H 0.38627 -0.08100 0.17779
 H18 H 0.37553 0.06110 0.31948
 C19 C 0.13610 -0.02939 0.75953
 C20 C 0.12070 -0.00322 0.76571
 C21 C 0.10721 0.00057 0.79192
 C22 C 0.10941 -0.02157 0.81207
 C23 C 0.12544 -0.04718 0.80571
 C24 C 0.13882 -0.05150 0.77965
 C25 C 0.12042 0.02083 0.74520
 C26 C 0.10370 0.01737 0.72007
 C27 C 0.10530 0.03890 0.69917
 C28 C 0.12417 0.06358 0.70404
 C29 C 0.14099 0.06748 0.72895
 C30 C 0.13877 0.04605 0.74974
 H31 H 0.14700 -0.03166 0.73962
 H32 H 0.09597 0.02099 0.79677
 H33 H 0.09023 -0.00244 0.71693
 H34 H 0.15218 0.04805 0.76877
 H35 H 0.12781 -0.06394 0.82149
 H36 H 0.12604 0.08013 0.68801
 C37 C 0.62986 0.45441 0.24168
 C38 C 0.60856 0.47632 0.24585
 C39 C 0.58789 0.47340 0.26713
 C40 C 0.58874 0.44902 0.28488
 C41 C 0.61036 0.42759 0.28069
 C42 C 0.63085 0.42991 0.25924
 C43 C 0.60839 0.50307 0.22879
 C44 C 0.58757 0.50537 0.20680
 C45 C 0.58725 0.53065 0.19015
 C46 C 0.60789 0.55354 0.19615
 C47 C 0.62840 0.55186 0.21842
 C48 C 0.62860 0.52643 0.23480
 H49 H 0.64617 0.45708 0.22565
 H50 H 0.57217 0.49085 0.27032
 H51 H 0.57216 0.48721 0.20272
 H52 H 0.64471 0.52447 0.25171
 H53 H 0.61171 0.40909 0.29473
 H54 H 0.60815 0.57297 0.18322
 C55 C 0.85828 0.46252 0.74915
 C56 C 0.87371 0.48931 0.74512
 C57 C 0.88426 0.49577 0.71840
 C58 C 0.87906 0.47586 0.69566
 C59 C 0.86298 0.44973 0.69982
 C60 C 0.85257 0.44272 0.72633
 C61 C 0.87562 0.51208 0.76793
 C62 C 0.88757 0.50545 0.79450
 C63 C 0.88650 0.52646 0.81691
 C64 C 0.87296 0.55370 0.81220
 C65 C 0.86168 0.56078 0.78575
 C66 C 0.86326 0.53997 0.76352
 H67 H 0.84930 0.45820 0.76954
 H68 H 0.89548 0.51673 0.71529
 H69 H 0.89667 0.48373 0.79753
 H70 H 0.85337 0.54465 0.74326
 H71 H 0.85844 0.43462 0.68210
 H72 H 0.87135 0.56991 0.82934
 C73 C 0.25750 0.35291 1.03999
 C74 C 0.26431 0.37054 1.01724
 C75 C 0.29308 0.38180 1.01466
 C76 C 0.31500 0.37555 1.03501
 C77 C 0.30793 0.35684 1.05711
 C78 C 0.27916 0.34528 1.05980
 C79 C 0.24079 0.37734 0.99659
 C80 C 0.21581 0.39277 1.00524
 C81 C 0.19252 0.39812 0.98628
 C82 C 0.19483 0.38793 0.95814
 C83 C 0.21929 0.37165 0.94945
 C84 C 0.24235 0.36668 0.96876
 H85 H 0.23514 0.34459 1.04187
 H86 H 0.29768 0.39646 0.99763
 H87 H 0.21450 0.40052 1.02692
 H88 H 0.26154 0.35459 0.96220
 H89 H 0.32471 0.35277 1.07291
 H90 H 0.17777 0.39254 0.94277
 C91 C 0.76399 0.13530 1.04410
 C92 C 0.75986 0.12221 1.01716
 C93 C 0.73375 0.10620 1.01069
 C94 C 0.71198 0.10256 1.03080
 C95 C 0.71715 0.11437 1.05813
 C96 C 0.74254 0.13165 1.06486
 C97 C 0.78144 0.12721 0.99474
 C98 C 0.81091 0.11812 0.99729
 C99 C 0.83052 0.12226 0.97497
 C100 C 0.82063 0.13680 0.95099
 C101 C 0.79130 0.14557 0.94821
 C102 C 0.77183 0.14034 0.96990
 H103 H 0.78405 0.14786 1.04869
 H104 H 0.73021 0.09687 0.98965
 H105 H 0.81823 0.10751 1.01627
 H106 H 0.74907 0.14681 0.96755
 H107 H 0.70107 0.11085 1.07418
 H108 H 0.83543 0.13969 0.93370
 C109 C 0.23162 0.64493 0.52375
 C110 C 0.22475 0.63206 0.49727
 C111 C 0.19582 0.62245 0.49119
 C112 C 0.17388 0.62492 0.51137
 C113 C 0.18083 0.63908 0.53756
 C114 C 0.20978 0.64909 0.54371
 C115 C 0.24790 0.62777 0.47618
 C116 C 0.27488 0.61518 0.48377
 C117 C 0.29646 0.60995 0.46366
 C118 C 0.29148 0.61929 0.43593
 C119 C 0.26458 0.63200 0.42818
 C120 C 0.24275 0.63554 0.44821
 H121 H 0.25402 0.65209 0.52876
 H122 H 0.19071 0.61161 0.47105
 H123 H 0.27859 0.60830 0.50518
 H124 H 0.22195 0.64517 0.44214
 H125 H 0.16426 0.64163 0.55338
 H126 H 0.30815 0.61638 0.42024
 C127 C 0.74788 0.85262 0.53926
 C128 C 0.74994 0.86358 0.51218
 C129 C 0.77674 0.87576 0.50355
 C130 C 0.80141 0.87792 0.52201
 C131 C 0.79917 0.86529 0.54888
 C132 C 0.77242 0.85274 0.55748
 C133 C 0.72346 0.86418 0.49362
 C134 C 0.69832 0.87902 0.50264
 C135 C 0.67358 0.88165 0.48479
 C136 C 0.67405 0.86815 0.45767
 C137 C 0.69874 0.85230 0.44873
 C138 C 0.72350 0.85074 0.46674
 H139 H 0.72703 0.84374 0.54614
 H140 H 0.77778 0.88506 0.48281
 H141 H 0.69844 0.88946 0.52342
 H142 H 0.74303 0.83953 0.45970
 H143 H 0.81743 0.86588 0.56373
 H144 H 0.65522 0.86930 0.44353
 C145 C -0.02820 0.24514 0.36219
 C146 C 0.00123 0.24204 0.37038
 C147 C 0.01002 0.21725 0.38515
 C148 C -0.01098 0.19639 0.39344
 C149 C -0.04047 0.19926 0.38434
 C150 C -0.04946 0.22362 0.36889
 C151 C 0.02150 0.26725 0.36746
 C152 C 0.01507 0.29392 0.38133
 C153 C 0.03396 0.31845 0.37970
 C154 C 0.05881 0.31665 0.36308
 C155 C 0.06562 0.28994 0.34910
 C156 C 0.04698 0.26498 0.35170
 H157 H -0.03371 0.26462 0.35064
 H158 H 0.03275 0.21563 0.39220
 H159 H -0.00464 0.29542 0.39366
 H160 H 0.05212 0.24380 0.34197
 H161 H -0.05664 0.18229 0.38888
 H162 H 0.07332 0.33583 0.36174
 C163 C -0.04861 0.76598 0.15015
 C164 C -0.02456 0.76295 0.13272
 C165 C -0.02293 0.77895 0.10816
 C166 C -0.04495 0.79914 0.10130
 C167 C -0.06953 0.80153 0.11848
 C168 C -0.07188 0.78485 0.14294
 C169 C -0.00231 0.74090 0.13903
 C170 C -0.00379 0.71340 0.12483
 C171 C 0.01651 0.69124 0.13119
 C172 C 0.03821 0.69732 0.15195
 C173 C 0.04112 0.72571 0.16471
 C174 C 0.02011 0.74715 0.15897
 H175 H -0.04896 0.75245 0.16847
 H176 H -0.00456 0.77524 0.09451
 H177 H -0.02168 0.70921 0.10983
 H178 H 0.02186 0.76896 0.16903
 H179 H -0.08684 0.81667 0.11280
 H180 H 0.05405 0.68045 0.15705
 C181 C 0.47088 0.27315 0.65374
 C182 C 0.49021 0.27205 0.63129
 C183 C 0.48456 0.28859 0.60739
 C184 C 0.46024 0.30733 0.60618
 C185 C 0.44075 0.30793 0.62857
 C186 C 0.44549 0.29020 0.65217
 C187 C 0.51552 0.25229 0.63205
 C188 C 0.51760 0.22956 0.61171
 C189 C 0.54125 0.21002 0.61234
 C190 C 0.56356 0.21434 0.63281
 C191 C 0.56148 0.23699 0.65367
 C192 C 0.53735 0.25588 0.65306
 H193 H 0.47491 0.25954 0.67181
 H194 H 0.49926 0.28664 0.58988
 H195 H 0.50055 0.22700 0.59555
 H196 H 0.53562 0.27355 0.66879
 H197 H 0.42224 0.32266 0.62759
 H198 H 0.58227 0.19983 0.63242
 C199 C 0.46968 0.74689 0.84097
 C200 C 0.49811 0.74631 0.85263
 C201 C 0.50769 0.72106 0.86639
 C202 C 0.48828 0.69727 0.87070
 C203 C 0.45971 0.69799 0.85858
 C204 C 0.45060 0.72235 0.84306
 C205 C 0.51680 0.77321 0.85335
 C206 C 0.50621 0.79951 0.86534
 C207 C 0.52517 0.82375 0.87049
 C208 C 0.55447 0.82238 0.86202
 C209 C 0.56486 0.79677 0.84844
 C210 C 0.54602 0.77189 0.84487
 H211 H 0.46244 0.76683 0.83094
 H212 H 0.52959 0.72111 0.87585
 H213 H 0.48380 0.80038 0.87258
 H214 H 0.55403 0.75117 0.83625
 H215 H 0.44466 0.67935 0.86027
 H216 H 0.56908 0.84133 0.86588
 C217 C -0.29198 0.64162 1.00144
 C218 C -0.26471 0.65396 1.01068
 C219 C -0.26118 0.66502 1.03838
 C220 C -0.28468 0.66384 1.05696
 C221 C -0.31168 0.65124 1.04753
 C222 C -0.31594 0.63990 1.01967
 C223 C -0.23942 0.65407 0.99163
 C224 C -0.24088 0.66995 0.96657
 C225 C -0.21764 0.66887 0.94747
 C226 C -0.19325 0.65120 0.95399
 C227 C -0.19131 0.63528 0.97892
 C228 C -0.21443 0.63717 0.99795
 H229 H -0.29422 0.63275 0.98010
 H230 H -0.23993 0.67372 1.04551
 H231 H -0.26041 0.68251 0.96214
 H232 H -0.21386 0.62439 1.01687
 H233 H -0.32869 0.64951 1.06286
 H234 H -0.17546 0.64947 0.93924
 C235 C -0.29889 0.36540 0.50084
 C236 C -0.27350 0.34957 0.49404
 C237 C -0.26921 0.33981 0.46625
 C238 C -0.29016 0.34550 0.44510
 C239 C -0.31482 0.36231 0.45197
 C240 C -0.31914 0.37328 0.47971
 C241 C -0.24964 0.34651 0.51519
 C242 C -0.25491 0.33274 0.54080
 C243 C -0.23289 0.33292 0.56187
 C244 C -0.20584 0.34692 0.55720
 C245 C -0.20004 0.36037 0.53168
 C246 C -0.22204 0.35983 0.51054
 H247 H -0.30154 0.37361 0.52223
 H248 H -0.24907 0.32855 0.46129
 H249 H -0.27636 0.32313 0.54471
 H250 H -0.21860 0.37130 0.49117
 H251 H -0.33088 0.36611 0.43544
 H252 H -0.18930 0.34790 0.57397
 C253 C 0.22460 -0.13445 -0.01369
 C254 C 0.24968 -0.15121 -0.01938
 C255 C 0.25253 -0.16576 -0.04558
 C256 C 0.23040 -0.16351 -0.06651
 C257 C 0.20561 -0.14632 -0.06049
 C258 C 0.20243 -0.13170 -0.03438
 C259 C 0.27393 -0.15172 0.00150
 C260 C 0.27157 -0.16935 0.02526
 C261 C 0.29370 -0.16809 0.04645
 C262 C 0.31785 -0.14875 0.04325
 C263 C 0.32052 -0.13122 0.01958
 C264 C 0.29856 -0.13302 -0.00152
 H265 H 0.22322 -0.12262 0.00630
 H266 H 0.27234 -0.17803 -0.04941
 H267 H 0.25211 -0.18313 0.02715
 H268 H 0.29971 -0.11887 -0.01951
 H269 H 0.18856 -0.14390 -0.07651
 H270 H 0.33480 -0.14693 0.05962
 C271 C 0.20073 1.13991 0.50804
 C272 C 0.22695 1.15635 0.51336
 C273 C 0.23120 1.17205 0.53910
 C274 C 0.20959 1.17088 0.55968
 C275 C 0.18401 1.15393 0.55432
 C276 C 0.17931 1.13829 0.52881
 C277 C 0.25138 1.15374 0.49359
 C278 C 0.24907 1.16599 0.46675
 C279 C 0.27117 1.16105 0.44689
 C280 C 0.29509 1.14336 0.45449
 C281 C 0.29770 1.13100 0.48111
 C282 C 0.27592 1.13666 0.50086
 H283 H 0.19813 1.12681 0.48873
 H284 H 0.25183 1.18371 0.54357
 H285 H 0.22974 1.17854 0.46157
 H286 H 0.27701 1.12643 0.52118
 H287 H 0.16787 1.15215 0.57067
 H288 H 0.31194 1.13867 0.43926
 C289 C 0.09706 0.48588 0.22210
 C290 C 0.11076 0.49231 0.24831
 C291 C 0.12631 0.51918 0.25252
 C292 C 0.12866 0.53955 0.23090
 C293 C 0.11364 0.53351 0.20515
 C294 C 0.09764 0.50676 0.20069
 C295 C 0.10825 0.47167 0.27188
 C296 C 0.11902 0.44269 0.26974
 C297 C 0.11836 0.42394 0.29304
 C298 C 0.10483 0.43395 0.31772
 C299 C 0.09385 0.46285 0.31998
 C300 C 0.09627 0.48172 0.29723
 H301 H 0.08502 0.46512 0.21876
 H302 H 0.13721 0.52391 0.27264
 H303 H 0.12838 0.43523 0.25013
 H304 H 0.08832 0.50420 0.29909
 H305 H 0.11448 0.54932 0.18849
 H306 H 0.10418 0.41971 0.33568
 C307 C -0.09049 0.98330 0.21714
 C308 C -0.10837 0.97684 0.23982
 C309 C -0.12172 0.94869 0.24109
 C310 C -0.11768 0.92683 0.21963
 C311 C -0.09793 0.93334 0.19797
 C312 C -0.08440 0.96167 0.19636
 C313 C -0.11329 0.99988 0.26205
 C314 C -0.12299 1.02809 0.25478
 C315 C -0.12737 1.05058 0.27534
 C316 C -0.12033 1.04448 0.30376
 C317 C -0.11041 1.01619 0.31130
 C318 C -0.10772 0.99394 0.29039
 H319 H -0.08053 1.00524 0.21621
 H320 H -0.13546 0.94470 0.25882
 H321 H -0.12774 1.03225 0.23282
 H322 H -0.10014 0.97219 0.29608
 H323 H -0.09465 0.91681 0.18148
 H324 H -0.12294 1.06103 0.32027
 C325 C 0.39842 0.50844 -0.30486
 C326 C 0.38548 0.50055 -0.27954
 C327 C 0.37063 0.47315 -0.27802
 C328 C 0.36865 0.45351 -0.30150
 C329 C 0.38380 0.46074 -0.32594
 C330 C 0.39880 0.48829 -0.32797
 C331 C 0.38878 0.52024 -0.25415
 C332 C 0.37793 0.54927 -0.25395
 C333 C 0.38062 0.56787 -0.22946
 C334 C 0.39611 0.55711 -0.20600
 C335 C 0.40724 0.52822 -0.20612
 C336 C 0.40282 0.50974 -0.22996
 H337 H 0.40975 0.52969 -0.30591
 H338 H 0.36088 0.46730 -0.25835
 H339 H 0.36705 0.55643 -0.27288
 H340 H 0.41096 0.48728 -0.22996
 H341 H 0.38237 0.44542 -0.34381
 H342 H 0.39849 0.57084 -0.18702
 C343 C 0.60092 -0.00390 -0.28133
 C344 C 0.61876 0.00654 -0.25864
 C345 C 0.63378 0.03377 -0.26045
 C346 C 0.63093 0.05075 -0.28467
 C347 C 0.61129 0.04120 -0.30619
 C348 C 0.59604 0.01378 -0.30483
 C349 C 0.62019 -0.01003 -0.23227
 C350 C 0.63013 -0.03937 -0.23215
 C351 C 0.63097 -0.05515 -0.20696
 C352 C 0.62018 -0.04187 -0.18252
 C353 C 0.60979 -0.01275 -0.18251
 C354 C 0.61068 0.00339 -0.20719
 H355 H 0.58940 -0.02500 -0.27982
 H356 H 0.64745 0.04170 -0.24285
 H357 H 0.63720 -0.04965 -0.25161
 H358 H 0.60266 0.02590 -0.20721
 H359 H 0.60942 0.05455 -0.32468
 H360 H 0.62053 -0.05404 -0.16319
 C361 C -0.00406 0.20525 0.90795
 C362 C -0.00788 0.23293 0.89584
 C363 C -0.03507 0.24019 0.88395
 C364 C -0.05864 0.21992 0.88379
 C365 C -0.05503 0.19253 0.89641
 C366 C -0.02784 0.18490 0.90849
 C367 C 0.01599 0.25511 0.89551
 C368 C 0.03686 0.25397 0.87429
 C369 C 0.05553 0.27848 0.87031
 C370 C 0.05351 0.30366 0.88782
 C371 C 0.03300 0.30487 0.90927
 C372 C 0.01440 0.28029 0.91322
 H373 H 0.01733 0.19970 0.91649
 H374 H -0.03780 0.26178 0.87484
 H375 H 0.03726 0.23497 0.85990
 H376 H -0.00200 0.28073 0.92934
 H377 H -0.07332 0.17683 0.89632
 H378 H 0.06763 0.32273 0.88429
 C379 C 0.50903 0.22354 0.11435
 C380 C 0.51249 0.25262 0.12520
 C381 C 0.53706 0.26035 0.14221
 C382 C 0.55809 0.23902 0.14848
 C383 C 0.55424 0.20990 0.13769
 C384 C 0.53002 0.20201 0.12042
 C385 C 0.48822 0.27342 0.12186
 C386 C 0.46105 0.26595 0.13306
 C387 C 0.43724 0.28496 0.13064
 C388 C 0.44046 0.31122 0.11598
 C389 C 0.46763 0.31917 0.10456
 C390 C 0.49173 0.30021 0.10788
 H391 H 0.48929 0.21775 0.10225
 H392 H 0.53930 0.28260 0.15125
 H393 H 0.45855 0.24518 0.14378
 H394 H 0.51307 0.30606 0.09989
 H395 H 0.56978 0.19298 0.14331
 H396 H 0.42187 0.32582 0.11394
 C397 C 0.01640 0.71453 0.58983
 C398 C 0.02175 0.74201 0.60322
 C399 C 0.05044 0.75057 0.61090
 C400 C 0.07376 0.73149 0.60599
 C401 C 0.06860 0.70442 0.59168
 C402 C 0.03984 0.69562 0.58371
 C403 C -0.00260 0.76122 0.61109
 C404 C -0.02619 0.75015 0.62624
 C405 C -0.04699 0.76952 0.63742
 C406 C -0.04529 0.79988 0.63095
 C407 C -0.02279 0.81062 0.61424
 C408 C -0.00089 0.79131 0.60533
 H409 H -0.00615 0.70790 0.58523
 H410 H 0.05446 0.77151 0.62215
 H411 H -0.02706 0.72680 0.63109
 H412 H 0.01786 0.79949 0.59409
 H413 H 0.08668 0.68944 0.58834
 H414 H -0.06208 0.81511 0.63764
 C415 C 0.49426 0.72225 0.39510
 C416 C 0.48449 0.74713 0.38074
 C417 C 0.45570 0.74775 0.37006
 C418 C 0.43648 0.72374 0.37357
 C419 C 0.44586 0.69936 0.38864
 C420 C 0.47508 0.69809 0.39885
 C421 C 0.50433 0.77218 0.37531
 C422 C 0.52825 0.76822 0.35776
 C423 C 0.54525 0.79276 0.34982
 C424 C 0.53817 0.82115 0.35995
 C425 C 0.51460 0.82530 0.37804
 C426 C 0.49734 0.80062 0.38516
 H427 H 0.51680 0.72153 0.40284
 H428 H 0.44845 0.76672 0.35839
 H429 H 0.53241 0.74623 0.34925
 H430 H 0.47802 0.80315 0.39777
 H431 H 0.43063 0.68107 0.39158
 H432 H 0.55136 0.84010 0.35399
 Zr433 Zr 0.03762 -0.04074 1.04108
 O434 O 0.06606 -0.02933 1.07555
 O435 O 0.03187 -0.08637 1.04550
 O436 O 0.01604 -0.04878 1.07931
 O437 O 0.09101 -0.04722 0.99084
 O438 O -0.02578 -0.02177 1.07594
 O439 O 0.07959 -0.05946 1.03553
 O440 O -0.00458 -0.09845 1.01331
 O441 O -0.00719 -0.04602 1.03114
 O442 O 0.03454 -0.05642 0.99939
 O443 O 0.01939 0.00138 1.04778
 O444 O 0.05995 -0.00872 1.01755
 Zr445 Zr -0.00831 0.01319 0.97007
 Zr446 Zr -0.02489 -0.00383 1.03573
 Zr447 Zr 0.05448 -0.02395 0.97575
 Zr448 Zr -0.00997 -0.06014 0.98918
 O449 O 0.09333 0.00094 0.96888
 O450 O -0.05226 -0.07531 1.00073
 O451 O 0.01011 -0.02911 0.96324
 O452 O -0.02993 -0.01888 0.99387
 O453 O -0.00546 0.02916 1.01181
 O454 O 0.03652 0.01811 0.98022
 C455 C 0.01302 -0.10450 1.03386
 C456 C 0.09669 -0.05983 1.01425
 C457 C -0.00854 -0.03936 1.08895
 O458 O -0.06507 -0.02719 1.04069
 O459 O -0.06028 0.02142 1.02214
 O460 O -0.04913 0.03454 0.97756
 C461 C -0.06601 0.03450 0.99914
 O462 O 0.07036 0.03438 1.05602
 Zr463 Zr 0.03929 0.03258 1.02202
 O464 O -0.00128 0.05866 0.96511
 O465 O -0.03027 0.03118 1.06554
 O466 O 0.02319 0.06282 1.05266
 O467 O 0.07981 0.05057 1.00859
 O468 O 0.02984 0.07249 1.00148
 C469 C 0.01383 0.07812 0.97970
 O470 O -0.03959 0.00348 0.93747
 O471 O 0.06177 -0.06034 0.94790
 O472 O 0.01040 0.01520 0.92941
 O473 O 0.05275 -0.01081 0.93396
 O474 O 0.00597 -0.09345 0.96144
 O475 O -0.03673 -0.06259 0.95204
 C476 C 0.03424 0.00407 0.91949
 H477 H 0.04412 -0.07575 0.99635
 H478 H -0.05090 -0.02087 0.98807
 H479 H 0.04678 0.03221 0.96806
 H480 H 0.02158 0.00783 1.06777
 H481 H -0.05425 -0.09639 0.99451
 H482 H -0.07591 -0.01663 1.05567
 H483 H -0.04973 0.02802 1.07405
 H484 H 0.03490 0.08145 1.05160
 H485 H -0.00669 -0.11131 0.96341
 H486 H 0.08141 -0.05720 0.93977
 H487 H 0.10424 -0.00997 0.95418
 H488 H 0.08113 0.07146 1.01555
 H489 H -0.04573 -0.08267 0.94990
 H490 H -0.04302 0.02223 0.92756
 H491 H 0.07004 -0.04792 1.08551
 H492 H 0.07604 0.05530 1.06038
 Zr493 Zr 0.51174 0.46704 0.51220
 O494 O 0.54009 0.48835 0.54245
 O495 O 0.50898 0.42426 0.52742
 O496 O 0.49065 0.46814 0.55146
 O497 O 0.56420 0.44983 0.46352
 O498 O 0.44729 0.49162 0.54304
 O499 O 0.55449 0.44847 0.51022
 O500 O 0.47245 0.40234 0.50016
 O501 O 0.46680 0.45831 0.50502
 O502 O 0.50828 0.44067 0.47552
 O503 O 0.49174 0.50870 0.50917
 O504 O 0.53229 0.49193 0.48104
 Zr505 Zr 0.46272 0.49777 0.43128
 Zr506 Zr 0.44723 0.49962 0.49955
 Zr507 Zr 0.52635 0.46590 0.44412
 Zr508 Zr 0.46366 0.43296 0.46799
 O509 O 0.56390 0.48890 0.42994
 O510 O 0.42277 0.42091 0.48531
 O511 O 0.48213 0.45584 0.43439
 O512 O 0.44224 0.47335 0.46272
 O513 O 0.46551 0.52468 0.46783
 O514 O 0.50726 0.50700 0.43899
 C515 C 0.49143 0.40261 0.52071
 C516 C 0.57124 0.44383 0.48898
 C517 C 0.46561 0.47829 0.55922
 O518 O 0.40684 0.47878 0.50918
 O519 O 0.41248 0.52272 0.47987
 O520 O 0.42192 0.51876 0.43301
 C521 C 0.40632 0.52744 0.45377
 O522 O 0.54254 0.54315 0.50771
 Zr523 Zr 0.51013 0.53215 0.47621
 O524 O 0.46680 0.54044 0.41548
 O525 O 0.44193 0.54030 0.52187
 O526 O 0.49415 0.56873 0.49988
 O527 O 0.54888 0.54798 0.45725
 O528 O 0.49714 0.56473 0.44753
 C529 C 0.48038 0.56374 0.42534
 O530 O 0.43199 0.47718 0.40270
 O531 O 0.53484 0.42359 0.42605
 O532 O 0.48078 0.49157 0.39089
 O533 O 0.52313 0.46710 0.40025
 O534 O 0.47947 0.39389 0.44813
 O535 O 0.43531 0.41971 0.43375
 C536 C 0.50444 0.47852 0.38325
 H537 H 0.51869 0.42164 0.47682
 H538 H 0.42122 0.46957 0.45788
 H539 H 0.51662 0.51777 0.42360
 H540 H 0.49414 0.52018 0.52710
 H541 H 0.42140 0.39896 0.48481
 H542 H 0.39614 0.49298 0.52130
 H543 H 0.42227 0.53942 0.53038
 H544 H 0.50503 0.58666 0.49404
 H545 H 0.46748 0.37702 0.45470
 H546 H 0.55407 0.42508 0.41675
 H547 H 0.57487 0.47471 0.41804
 H548 H 0.54910 0.56990 0.45931
 H549 H 0.42639 0.40008 0.43746
 H550 H 0.42708 0.49188 0.38826
 H551 H 0.54506 0.47330 0.55652
 H552 H 0.54745 0.56458 0.50714
 Zr553 Zr 0.46502 1.03292 0.54543
 O554 O 0.43780 1.01730 0.57753
 O555 O 0.47459 1.07621 0.55971
 O556 O 0.48936 1.03182 0.58357
 O557 O 0.40941 1.05186 0.49932
 O558 O 0.52889 1.00299 0.57354
 O559 O 0.42428 1.05562 0.54528
 O560 O 0.50949 1.09207 0.52954
 O561 O 0.50970 1.03601 0.53575
 O562 O 0.46730 1.05606 0.50814
 O563 O 0.48017 0.98905 0.54237
 O564 O 0.43867 1.00812 0.51613
 Zr565 Zr 0.50166 0.99061 0.46325
 Zr566 Zr 0.52421 0.99233 0.53028
 Zr567 Zr 0.44337 1.03055 0.47843
 Zr568 Zr 0.51148 1.05807 0.49806
 O569 O 0.40250 1.01061 0.46620
 O570 O 0.55506 1.06698 0.51290
 O571 O 0.48719 1.03471 0.46627
 O572 O 0.52790 1.01515 0.49274
 O573 O 0.49998 0.96689 0.50040
 O574 O 0.45736 0.98714 0.47331
 C575 C 0.49332 1.09539 0.55129
 C576 C 0.40578 1.06038 0.52496
 C577 C 0.51368 1.01928 0.59028
 O578 O 0.56706 1.00988 0.53821
 O579 O 0.55530 0.96538 0.50928
 O580 O 0.53997 0.96530 0.46331
 C581 C 0.55773 0.95768 0.48308
 O582 O 0.42615 0.96058 0.54475
 Zr583 Zr 0.45581 0.96532 0.51121
 O584 O 0.49098 0.94746 0.44888
 O585 O 0.52773 0.95241 0.55234
 O586 O 0.47003 0.92882 0.53485
 O587 O 0.41363 0.95279 0.49476
 O588 O 0.46167 0.92926 0.48291
 C589 C 0.47593 0.92662 0.45997
 O590 O 0.53145 1.00502 0.43265
 O591 O 0.43716 1.07238 0.46024
 O592 O 0.48080 0.99640 0.42374
 O593 O 0.44260 1.02640 0.43458
 O594 O 0.49775 1.09703 0.47792
 O595 O 0.53720 1.06537 0.46208
 C596 C 0.45852 1.01216 0.41697
 H597 H 0.45910 1.07622 0.50962
 H598 H 0.54857 1.01631 0.48672
 H599 H 0.44537 0.97641 0.45861
 H600 H 0.47848 0.97917 0.56060
 H601 H 0.55871 1.08860 0.51158
 H602 H 0.57745 0.99550 0.55010
 H603 H 0.54805 0.95199 0.56019
 H604 H 0.45650 0.91190 0.53019
 H605 H 0.51210 1.11303 0.48331
 H606 H 0.41708 1.07216 0.45176
 H607 H 0.39195 1.02509 0.45457
 H608 H 0.41104 0.93122 0.49752
 H609 H 0.54855 1.08417 0.46478
 H610 H 0.53312 0.98869 0.41842
 H611 H 0.43586 1.03391 0.59139
 H612 H 0.41851 0.93991 0.54478
 Zr613 Zr -0.02792 0.53061 1.04496
 O614 O -0.05391 0.52055 1.07989
 O615 O -0.01664 0.57503 1.05337
 O616 O -0.00235 0.53381 1.08270
 O617 O -0.08660 0.54228 0.99898
 O618 O 0.03764 0.50521 1.07396
 O619 O -0.06868 0.55342 1.04319
 O620 O 0.01184 0.58784 1.01655
 O621 O 0.01587 0.53335 1.03220
 O622 O -0.02897 0.54724 1.00442
 O623 O -0.01151 0.48727 1.04702
 O624 O -0.05526 0.50090 1.02096
 Zr625 Zr 0.00498 0.47656 0.96728
 Zr626 Zr 0.03156 0.48984 1.03208
 Zr627 Zr -0.05394 0.51686 0.97998
 Zr628 Zr 0.01418 0.54874 0.99129
 O629 O -0.09507 0.49470 0.97457
 O630 O 0.05794 0.56156 1.00267
 O631 O -0.01117 0.51997 0.96467
 O632 O 0.03196 0.50622 0.99134
 O633 O 0.00649 0.45929 1.00761
 O634 O -0.03850 0.47367 0.98027
 C635 C -0.00088 0.59352 1.03992
 C636 C -0.08827 0.55539 1.02320
 C637 C 0.02233 0.52216 1.08997
 O638 O 0.07339 0.51080 1.03614
 O639 O 0.06340 0.46247 1.01286
 O640 O 0.04444 0.45295 0.96873
 C641 C 0.06435 0.45033 0.98803
 O642 O -0.06410 0.45853 1.05680
 Zr643 Zr -0.03691 0.45835 1.02105
 O644 O -0.00417 0.43138 0.96059
 O645 O 0.03861 0.45313 1.05797
 O646 O -0.01999 0.42650 1.04882
 O647 O -0.07962 0.44264 1.00898
 O648 O -0.03181 0.41830 0.99787
 C649 C -0.01793 0.41229 0.97524
 O650 O 0.03194 0.48641 0.93290
 O651 O -0.06229 0.55418 0.95516
 O652 O -0.01851 0.47503 0.92849
 O653 O -0.05791 0.50417 0.93732
 O654 O -0.00231 0.58270 0.96563
 O655 O 0.03767 0.55036 0.95323
 C656 C -0.04230 0.48797 0.92091
 H657 H -0.03749 0.56724 1.00339
 H658 H 0.05213 0.50711 0.98398
 H659 H -0.05092 0.46030 0.96802
 H660 H -0.01183 0.48014 1.06649
 H661 H 0.06056 0.58263 0.99775
 H662 H 0.08535 0.49864 1.04895
 H663 H 0.05925 0.45472 1.06496
 H664 H -0.03332 0.40892 1.04756
 H665 H 0.01170 0.59973 0.96735
 H666 H -0.08280 0.55208 0.94786
 H667 H -0.10679 0.50635 0.96114
 H668 H -0.08140 0.42185 1.01502
 H669 H 0.04869 0.56942 0.95261
 H670 H 0.03356 0.46797 0.92122
 H671 H -0.05527 0.53909 1.09142
 H672 H -0.07114 0.43809 1.06017
 Zr673 Zr -0.03223 0.46085 0.47134
 O674 O -0.05878 0.46801 0.43518
 O675 O -0.01943 0.41710 0.46488
 O676 O -0.00737 0.45618 0.43475
 O677 O -0.08972 0.44826 0.51572
 O678 O 0.03273 0.48650 0.44301
 O679 O -0.07234 0.43635 0.47235
 O680 O 0.01219 0.40859 0.50156
 O681 O 0.01178 0.46154 0.48518
 O682 O -0.03192 0.44579 0.51242
 O683 O -0.01721 0.50483 0.46734
 O684 O -0.06005 0.48972 0.49342
 Zr685 Zr 0.00056 0.52013 0.54719
 Zr686 Zr 0.02615 0.50570 0.48331
 Zr687 Zr -0.05731 0.47576 0.53504
 Zr688 Zr 0.01157 0.44786 0.52661
 O689 O -0.09885 0.49565 0.53931
 O690 O 0.05605 0.43793 0.51853
 O691 O -0.01419 0.47605 0.55144
 O692 O 0.02805 0.49135 0.52484
 O693 O 0.00059 0.53545 0.50608
 O694 O -0.04323 0.51980 0.53316
 C695 C -0.00079 0.40123 0.47811
 C696 C -0.09166 0.43452 0.49172
 C697 C 0.01747 0.46755 0.42781
 O698 O 0.06919 0.48867 0.48230
 O699 O 0.05587 0.53786 0.50142
 O700 O 0.03934 0.54588 0.54586
 C701 C 0.05758 0.55039 0.52613
 O702 O -0.07171 0.52890 0.45595
 Zr703 Zr -0.04303 0.53316 0.49168
 O704 O -0.00956 0.56494 0.55147
 O705 O 0.03102 0.54018 0.45444
 O706 O -0.02841 0.56411 0.46205
 O707 O -0.08541 0.54767 0.50295
 O708 O -0.03725 0.57473 0.51235
 C709 C -0.02293 0.58259 0.53492
 O710 O 0.02853 0.51380 0.58261
 O711 O -0.06420 0.43882 0.56073
 O712 O -0.02200 0.52169 0.58553
 O713 O -0.06072 0.48984 0.57713
 O714 O -0.00367 0.41299 0.55180
 O715 O 0.03444 0.44975 0.56601
 C716 C -0.04521 0.50766 0.59317
 H717 H -0.03978 0.42531 0.51373
 H718 H 0.04838 0.49229 0.53265
 H719 H -0.05565 0.53302 0.54466
 H720 H -0.01811 0.51068 0.44744
 H721 H 0.05950 0.41745 0.52472
 H722 H 0.08024 0.50076 0.46889
 H723 H 0.05166 0.53969 0.44823
 H724 H -0.04234 0.58078 0.46219
 H725 H 0.01119 0.39717 0.55109
 H726 H -0.08464 0.43993 0.56741
 H727 H -0.11006 0.48347 0.55254
 H728 H -0.08776 0.56790 0.49568
 H729 H 0.04543 0.43120 0.56846
 H730 H 0.02966 0.53278 0.59363
 H731 H -0.05991 0.44900 0.42422
 H732 H -0.07978 0.54854 0.45154
 Zr733 Zr 0.48688 -0.02358 -0.03116
 O734 O 0.45988 -0.01234 -0.06592
 O735 O 0.49926 -0.06678 -0.04211
 O736 O 0.51096 -0.02403 -0.06818
 O737 O 0.42933 -0.03971 0.01188
 O738 O 0.55114 0.00555 -0.05778
 O739 O 0.44665 -0.04793 -0.03215
 O740 O 0.53204 -0.07847 -0.00738
 O741 O 0.53098 -0.02480 -0.01777
 O742 O 0.48727 -0.04301 0.00809
 O743 O 0.50249 0.02061 -0.03093
 O744 O 0.45974 0.00342 -0.00637
 Zr745 Zr 0.52102 0.02775 0.04971
 Zr746 Zr 0.54592 0.01923 -0.01542
 Zr747 Zr 0.46251 -0.01507 0.03346
 Zr748 Zr 0.53083 -0.04270 0.02207
 O749 O 0.42133 0.00479 0.04023
 O750 O 0.57542 -0.05201 0.01381
 O751 O 0.50572 -0.01669 0.04953
 O752 O 0.54770 0.00069 0.02449
 O753 O 0.52121 0.04733 0.01029
 O754 O 0.47717 0.02894 0.03591
 C755 C 0.51847 -0.08378 -0.03100
 C756 C 0.42719 -0.05117 -0.01312
 C757 C 0.53545 -0.01159 -0.07444
 O758 O 0.58797 0.00050 -0.01989
 O759 O 0.57817 0.04625 0.00561
 O760 O 0.56065 0.05286 0.04989
 C761 C 0.58013 0.05681 0.03102
 O762 O 0.44937 0.04760 -0.04011
 Zr763 Zr 0.47744 0.04678 -0.00389
 O764 O 0.51043 0.07198 0.05902
 O765 O 0.55161 0.05767 -0.03930
 O766 O 0.49327 0.08106 -0.02949
 O767 O 0.43474 0.05963 0.00806
 O768 O 0.48225 0.08557 0.02145
 C769 C 0.49577 0.09104 0.04502
 O770 O 0.54917 0.01811 0.08417
 O771 O 0.45532 -0.05473 0.05526
 O772 O 0.49850 0.02452 0.08815
 O773 O 0.45953 -0.00600 0.07650
 O774 O 0.51496 -0.08041 0.04306
 O775 O 0.55322 -0.04561 0.06150
 C776 C 0.47518 0.00961 0.09430
 H777 H 0.47917 -0.06351 0.00741
 H778 H 0.56805 0.00024 0.03221
 H779 H 0.46476 0.04080 0.04866
 H780 H 0.50154 0.02875 -0.05003
 H781 H 0.57859 -0.07317 0.01786
 H782 H 0.59927 0.01374 -0.03213
 H783 H 0.57195 0.05720 -0.04629
 H784 H 0.47977 0.09798 -0.02754
 H785 H 0.52947 -0.09633 0.04032
 H786 H 0.43484 -0.05433 0.06193
 H787 H 0.41003 -0.00872 0.05220
 H788 H 0.43241 0.08068 0.00312
 H789 H 0.56348 -0.06477 0.06234
 H790 H 0.55028 0.03606 0.09668
 H791 H 0.45844 -0.03006 -0.07869
 H792 H 0.44203 0.06795 -0.04252
 Zr793 Zr 0.51994 0.53992 -0.03985
 O794 O 0.55386 0.53189 -0.06869
 O795 O 0.50628 0.58243 -0.05071
 O796 O 0.50300 0.54008 -0.08150
 O797 O 0.56533 0.55978 0.01688
 O798 O 0.46418 0.50744 -0.08147
 O799 O 0.55799 0.56660 -0.03001
 O800 O 0.46539 0.58934 -0.02451
 O801 O 0.47419 0.53692 -0.03660
 O802 O 0.50963 0.55810 -0.00055
 O803 O 0.50881 0.49456 -0.04542
 O804 O 0.54335 0.51443 -0.01062
 Zr805 Zr 0.47428 0.48381 0.02865
 Zr806 Zr 0.46326 0.49189 -0.04017
 Zr807 Zr 0.53081 0.53169 0.02859
 Zr808 Zr 0.46434 0.55367 0.00316
 O809 O 0.57151 0.51550 0.04351
 O810 O 0.42155 0.55943 -0.01420
 O811 O 0.48530 0.52925 0.03452
 O812 O 0.45126 0.50909 -0.00080
 O813 O 0.48416 0.46520 -0.01078
 O814 O 0.51996 0.48666 0.02518
 C815 C 0.48315 0.59679 -0.04385
 C816 C 0.57228 0.57135 -0.00652
 C817 C 0.48076 0.52651 -0.09344
 O818 O 0.42086 0.50615 -0.05231
 O819 O 0.43136 0.46038 -0.02907
 O820 O 0.43761 0.45565 0.01831
 C821 C 0.42422 0.44957 -0.00541
 O822 O 0.56441 0.47125 -0.04345
 Zr823 Zr 0.52961 0.46960 -0.01442
 O824 O 0.48625 0.44066 0.03811
 O825 O 0.46688 0.45489 -0.06805
 O826 O 0.52175 0.43471 -0.04448
 O827 O 0.57014 0.46034 0.00609
 O828 O 0.52336 0.43011 0.00818
 C829 C 0.50557 0.42323 0.02779
 O830 O 0.43919 0.49103 0.05640
 O831 O 0.52913 0.57103 0.05370
 O832 O 0.48918 0.48631 0.07124
 O833 O 0.52594 0.52124 0.07080
 O834 O 0.47231 0.59223 0.02880
 O835 O 0.43434 0.55372 0.03677
 C836 C 0.50941 0.50273 0.08346
 H837 H 0.51587 0.57916 0.00170
 H838 H 0.42979 0.50748 0.00189
 H839 H 0.53066 0.47554 0.03972
 H840 H 0.51428 0.48717 -0.06434
 H841 H 0.41570 0.58006 -0.00970
 H842 H 0.41365 0.49249 -0.06768
 H843 H 0.44825 0.45352 -0.07920
 H844 H 0.53557 0.41863 -0.04008
 H845 H 0.45732 0.60689 0.02351
 H846 H 0.54760 0.57222 0.06512
 H847 H 0.57860 0.52938 0.05874
 H848 H 0.57511 0.43957 0.00113
 H849 H 0.42290 0.57222 0.03667
 H850 H 0.43689 0.47281 0.06742
 H851 H 0.55621 0.55011 -0.07969
 H852 H 0.57323 0.45140 -0.04540
 Zr853 Zr 0.00736 1.03523 0.47240
 O854 O 0.03224 1.02429 0.43661
 O855 O -0.00387 1.07902 0.46516
 O856 O -0.01897 1.03680 0.43558
 O857 O 0.06661 1.05168 0.51656
 O858 O -0.05852 1.00666 0.44372
 O859 O 0.04786 1.05907 0.47258
 O860 O -0.03624 1.09007 0.49971
 O861 O -0.03630 1.03595 0.48546
 O862 O 0.00833 1.05429 0.51286
 O863 O -0.00776 0.99093 0.46986
 O864 O 0.03582 1.00861 0.49598
 Zr865 Zr -0.02291 0.98357 0.55007
 Zr866 Zr -0.05070 0.99163 0.48510
 Zr867 Zr 0.03451 1.02682 0.53694
 Zr868 Zr -0.03483 1.05351 0.52638
 O869 O 0.07610 1.00732 0.54297
 O870 O -0.07961 1.06242 0.51732
 O871 O -0.00817 1.02804 0.55273
 O872 O -0.05121 1.00991 0.52611
 O873 O -0.02440 0.96417 0.50957
 O874 O 0.02041 0.98271 0.53655
 C875 C -0.02227 1.09613 0.47734
 C876 C 0.06800 1.06258 0.49190
 C877 C -0.04376 1.02446 0.42828
 O878 O -0.09370 1.00868 0.48291
 O879 O -0.07997 0.96141 0.50406
 O880 O -0.06116 0.95680 0.54858
 C881 C -0.08034 0.95069 0.52895
 O882 O 0.04579 0.96515 0.45989
 Zr883 Zr 0.01872 0.96506 0.49572
 O884 O -0.01159 0.93977 0.55743
 O885 O -0.05646 0.95430 0.45761
 O886 O 0.00241 0.93085 0.46796
 O887 O 0.06178 0.95198 0.50726
 O888 O 0.01455 0.92616 0.51894
 C889 C 0.00217 0.92074 0.54231
 O890 O -0.05027 0.99340 0.58441
 O891 O 0.04221 1.06657 0.56074
 O892 O 0.00111 0.98615 0.58878
 O893 O 0.03928 1.01756 0.57978
 O894 O -0.01910 1.09103 0.55028
 O895 O -0.05659 1.05556 0.56542
 C896 C 0.02447 1.00118 0.59629
 H897 H 0.01640 1.07480 0.51357
 H898 H -0.07130 1.00965 0.53370
 H899 H 0.03339 0.97088 0.54870
 H900 H -0.00746 0.98312 0.45024
 H901 H -0.08289 1.08352 0.52247
 H902 H -0.10520 0.99536 0.46979
 H903 H -0.07730 0.95416 0.45112
 H904 H 0.01613 0.91406 0.46917
 H905 H -0.03408 1.10664 0.54864
 H906 H 0.06295 1.06632 0.56752
 H907 H 0.08779 1.02102 0.55557
 H908 H 0.06384 0.93100 0.50101
 H909 H -0.06757 1.07430 0.56696
 H910 H -0.05084 0.97562 0.59623
 H911 H 0.03313 1.04221 0.42499
 H912 H 0.05288 0.94484 0.45600
 Zr913 Zr 0.74529 0.26801 0.20803
 O914 O 0.76235 0.29703 0.17797
 O915 O 0.70547 0.25459 0.18894
 O916 O 0.75352 0.24496 0.16975
 O917 O 0.72082 0.32417 0.25215
 O918 O 0.77751 0.20334 0.18325
 O919 O 0.72096 0.30795 0.20636
 O920 O 0.68556 0.22320 0.22055
 O921 O 0.74176 0.22311 0.21803
 O922 O 0.71899 0.26591 0.24348
 O923 O 0.78856 0.25351 0.21467
 O924 O 0.76641 0.29551 0.23900
 Zr925 Zr 0.78071 0.23299 0.29345
 Zr926 Zr 0.78463 0.20924 0.22693
 Zr927 Zr 0.74104 0.29087 0.27505
 Zr928 Zr 0.71675 0.22164 0.25409
 O929 O 0.75873 0.33281 0.28801
 O930 O 0.70951 0.17746 0.23894
 O931 O 0.73695 0.24673 0.28723
 O932 O 0.75899 0.20584 0.26271
 O933 O 0.80719 0.23468 0.25811
 O934 O 0.78386 0.27763 0.28324
 C935 C 0.68533 0.23685 0.19712
 C936 C 0.71413 0.32687 0.22597
 C937 C 0.76544 0.21967 0.16459
 O938 O 0.76826 0.16576 0.21809
 O939 O 0.80898 0.17794 0.24999
 O940 O 0.80621 0.19452 0.29553
 C941 C 0.81468 0.17590 0.27656
 O942 O 0.81590 0.30784 0.21307
 Zr943 Zr 0.80860 0.27920 0.24705
 O944 O 0.82218 0.24520 0.31063
 O945 O 0.82621 0.20581 0.20819
 O946 O 0.84757 0.26479 0.22759
 O947 O 0.81810 0.32283 0.26269
 O948 O 0.84122 0.27653 0.27858
 C949 C 0.84264 0.26219 0.30144
 O950 O 0.76479 0.20309 0.32337
 O951 O 0.69793 0.29587 0.29015
 O952 O 0.77088 0.25429 0.33200
 O953 O 0.74187 0.29273 0.31936
 O954 O 0.67655 0.23542 0.27158
 O955 O 0.70660 0.19585 0.28942
 C956 C 0.75483 0.27680 0.33781
 H957 H 0.69896 0.27353 0.24018
 H958 H 0.75747 0.18509 0.26885
 H959 H 0.79289 0.29029 0.29848
 H960 H 0.80019 0.25512 0.19742
 H961 H 0.68801 0.17362 0.23859
 H962 H 0.78353 0.15522 0.20735
 H963 H 0.82742 0.18526 0.20047
 H964 H 0.86347 0.27918 0.23308
 H965 H 0.66111 0.22094 0.26510
 H966 H 0.69683 0.31625 0.29831
 H967 H 0.74311 0.34326 0.29834
 H968 H 0.83957 0.32631 0.26127
 H969 H 0.68822 0.18431 0.28544
 H970 H 0.77985 0.20213 0.33870
 H971 H 0.74732 0.29820 0.16265
 H972 H 0.83639 0.31555 0.21412
 Zr973 Zr 0.79401 0.74085 0.71869
 O974 O 0.78416 0.71144 0.68425
 O975 O 0.83864 0.75067 0.71301
 O976 O 0.79896 0.76198 0.67983
 O977 O 0.80077 0.68603 0.76708
 O978 O 0.77181 0.80375 0.68473
 O979 O 0.81384 0.69911 0.72310
 O980 O 0.84941 0.78628 0.74676
 O981 O 0.79759 0.78604 0.72938
 O982 O 0.80988 0.74389 0.76022
 O983 O 0.75145 0.75748 0.71286
 O984 O 0.76331 0.71696 0.74232
 Zr985 Zr 0.73940 0.78406 0.79113
 Zr986 Zr 0.75510 0.80213 0.72545
 Zr987 Zr 0.77852 0.72245 0.78400
 Zr988 Zr 0.81168 0.78878 0.77136
 O989 O 0.75507 0.68274 0.79184
 O990 O 0.82507 0.83241 0.76135
 O991 O 0.78201 0.76708 0.79730
 O992 O 0.77007 0.80736 0.76725
 O993 O 0.72342 0.78105 0.74951
 O994 O 0.73606 0.73886 0.78038
 C995 C 0.85576 0.77035 0.72505
 C996 C 0.81323 0.68090 0.74348
 C997 C 0.78847 0.78635 0.67062
 O998 O 0.77707 0.84334 0.72076
 O999 O 0.72874 0.83640 0.73980
 O1000 O 0.71695 0.82449 0.78457
 C1001 C 0.71595 0.84147 0.76309
 O1002 O 0.72079 0.70456 0.70462
 Zr1003 Zr 0.72156 0.73599 0.73868
 O1004 O 0.69454 0.77572 0.79627
 O1005 O 0.71985 0.80689 0.69630
 O1006 O 0.69090 0.75098 0.70826
 O1007 O 0.70520 0.69458 0.75216
 O1008 O 0.68180 0.74454 0.75934
 C1009 C 0.67571 0.76037 0.78128
 O1010 O 0.74812 0.81543 0.82421
 O1011 O 0.81581 0.71542 0.81018
 O1012 O 0.73827 0.76447 0.83142
 O1013 O 0.76686 0.72366 0.82627
 O1014 O 0.84560 0.77307 0.79806
 O1015 O 0.81298 0.81485 0.80922
 C1016 C 0.75110 0.74130 0.84106
 H1017 H 0.82943 0.73483 0.76255
 H1018 H 0.77131 0.82850 0.77333
 H1019 H 0.72255 0.72795 0.79261
 H1020 H 0.74479 0.75514 0.69299
 H1021 H 0.84576 0.83524 0.76794
 H1022 H 0.76601 0.85415 0.70620
 H1023 H 0.72225 0.82669 0.68802
 H1024 H 0.67291 0.73843 0.70934
 H1025 H 0.86273 0.78670 0.79646
 H1026 H 0.81343 0.69540 0.81799
 H1027 H 0.76683 0.67187 0.80585
 H1028 H 0.68444 0.69265 0.74558
 H1029 H 0.83280 0.82394 0.81204
 H1030 H 0.72948 0.81805 0.83437
 H1031 H 0.80265 0.70846 0.67392
 H1032 H 0.70027 0.69789 0.70054
 Zr1033 Zr 0.23310 0.24280 0.79427
 O1034 O 0.25833 0.21683 0.82186
 O1035 O 0.19129 0.23997 0.81145
 O1036 O 0.23509 0.26318 0.83492
 O1037 O 0.21990 0.18728 0.74381
 O1038 O 0.24835 0.31117 0.82686
 O1039 O 0.21919 0.19765 0.79095
 O1040 O 0.16397 0.27027 0.78389
 O1041 O 0.21809 0.28606 0.78905
 O1042 O 0.20608 0.24182 0.75817
 O1043 O 0.27113 0.26957 0.79094
 O1044 O 0.25961 0.22614 0.76175
 Zr1045 Zr 0.25513 0.29666 0.71474
 Zr1046 Zr 0.25574 0.31229 0.78349
 Zr1047 Zr 0.23247 0.22742 0.72561
 Zr1048 Zr 0.19246 0.28492 0.75232
 O1049 O 0.25974 0.19310 0.71072
 O1050 O 0.17533 0.32340 0.77211
 O1051 O 0.21683 0.27003 0.71775
 O1052 O 0.22891 0.31313 0.74729
 O1053 O 0.28245 0.29825 0.75066
 O1054 O 0.26995 0.25350 0.72036
 C1055 C 0.16725 0.25271 0.80466
 C1056 C 0.21495 0.18010 0.76931
 C1057 C 0.24060 0.29024 0.84313
 O1058 O 0.22984 0.34899 0.79520
 O1059 O 0.27267 0.35092 0.76539
 O1060 O 0.27364 0.34002 0.71832
 C1061 C 0.27882 0.35729 0.73997
 O1062 O 0.31250 0.22554 0.78714
 Zr1063 Zr 0.29596 0.25501 0.75673
 O1064 O 0.29627 0.29815 0.69660
 O1065 O 0.29516 0.32465 0.80542
 O1066 O 0.33021 0.27795 0.77950
 O1067 O 0.31591 0.21829 0.73646
 O1068 O 0.32521 0.27230 0.72678
 C1069 C 0.32106 0.28802 0.70479
 O1070 O 0.23063 0.32521 0.68898
 O1071 O 0.19205 0.21261 0.70694
 O1072 O 0.24953 0.27786 0.67371
 O1073 O 0.23357 0.23074 0.68179
 O1074 O 0.15612 0.26298 0.73182
 O1075 O 0.17512 0.31115 0.71966
 C1076 C 0.24087 0.25168 0.66533
 H1077 H 0.18865 0.22859 0.75939
 H1078 H 0.22245 0.33351 0.74341
 H1079 H 0.28131 0.24565 0.70438
 H1080 H 0.28323 0.26924 0.80845
 H1081 H 0.15365 0.32101 0.77205
 H1082 H 0.24227 0.36201 0.80780
 H1083 H 0.29159 0.34398 0.81501
 H1084 H 0.34909 0.27023 0.77260
 H1085 H 0.13801 0.27209 0.73910
 H1086 H 0.19589 0.19364 0.69679
 H1087 H 0.24726 0.18000 0.69823
 H1088 H 0.33747 0.22175 0.73760
 H1089 H 0.15498 0.31731 0.72439
 H1090 H 0.24415 0.33241 0.67449
 H1091 H 0.24476 0.20951 0.83626
 H1092 H 0.33413 0.22441 0.78569
 Zr1093 Zr 0.28276 0.75077 0.27276
 O1094 O 0.26711 0.77766 0.30616
 O1095 O 0.32623 0.74357 0.28566
 O1096 O 0.28406 0.72761 0.31064
 O1097 O 0.29662 0.80790 0.22784
 O1098 O 0.25950 0.68409 0.30011
 O1099 O 0.30245 0.79371 0.27322
 O1100 O 0.34381 0.71241 0.25159
 O1101 O 0.28865 0.70616 0.26131
 O1102 O 0.30418 0.75037 0.23438
 O1103 O 0.24035 0.73144 0.27104
 O1104 O 0.25528 0.77441 0.24533
 Zr1105 Zr 0.24015 0.70849 0.19103
 Zr1106 Zr 0.24637 0.68740 0.25753
 Zr1107 Zr 0.27620 0.77160 0.20654
 Zr1108 Zr 0.30863 0.70606 0.22236
 O1109 O 0.25335 0.81075 0.19721
 O1110 O 0.32150 0.66356 0.23554
 O1111 O 0.28265 0.72775 0.19251
 O1112 O 0.26727 0.68507 0.21872
 O1113 O 0.21836 0.70857 0.22934
 O1114 O 0.23415 0.75292 0.20270
 C1115 C 0.34635 0.72745 0.27486
 C1116 C 0.30557 0.81245 0.25343
 C1117 C 0.27419 0.70181 0.31704
 O1118 O 0.26664 0.64592 0.26250
 O1119 O 0.21970 0.65428 0.23727
 O1120 O 0.21703 0.66764 0.19139
 C1121 C 0.21076 0.65031 0.21154
 O1122 O 0.20839 0.78301 0.27595
 Zr1123 Zr 0.21395 0.75290 0.24147
 O1124 O 0.19663 0.71487 0.17828
 O1125 O 0.20881 0.68024 0.28207
 O1126 O 0.18003 0.73515 0.26618
 O1127 O 0.19776 0.79363 0.22676
 O1128 O 0.17764 0.74242 0.21428
 C1129 C 0.17538 0.72769 0.19074
 O1130 O 0.25516 0.67910 0.15922
 O1131 O 0.31607 0.78146 0.18638
 O1132 O 0.24298 0.72946 0.15190
 O1133 O 0.26948 0.77164 0.16285
 O1134 O 0.34476 0.72353 0.20037
 O1135 O 0.31554 0.68009 0.18526
 C1136 C 0.25602 0.75377 0.14524
 H1137 H 0.32362 0.76052 0.23542
 H1138 H 0.26941 0.66426 0.21205
 H1139 H 0.22211 0.76369 0.18887
 H1140 H 0.23125 0.73250 0.28974
 H1141 H 0.34295 0.66206 0.23275
 H1142 H 0.25380 0.63422 0.27476
 H1143 H 0.21010 0.65980 0.28908
 H1144 H 0.16211 0.74676 0.26248
 H1145 H 0.36184 0.71073 0.20414
 H1146 H 0.31415 0.80153 0.17864
 H1147 H 0.26635 0.82266 0.18528
 H1148 H 0.17637 0.79386 0.23030
 H1149 H 0.33504 0.67071 0.18655
 H1150 H 0.23860 0.67558 0.14559
 H1151 H 0.28385 0.78134 0.31955
 H1152 H 0.18740 0.78825 0.27718
 Zr1153 Zr 0.22674 0.78007 0.69960
 O1154 O 0.23805 0.80992 0.66789
 O1155 O 0.18212 0.77217 0.69128
 O1156 O 0.21948 0.75957 0.65942
 O1157 O 0.21980 0.83319 0.75275
 O1158 O 0.24370 0.71588 0.66254
 O1159 O 0.20733 0.82197 0.70699
 O1160 O 0.16908 0.73753 0.72309
 O1161 O 0.22167 0.73473 0.70669
 O1162 O 0.21083 0.77612 0.74021
 O1163 O 0.26854 0.76193 0.69378
 O1164 O 0.25814 0.80233 0.72608
 Zr1165 Zr 0.27986 0.73261 0.77026
 Zr1166 Zr 0.26347 0.71704 0.70285
 Zr1167 Zr 0.24274 0.79597 0.76670
 Zr1168 Zr 0.20742 0.73104 0.74770
 O1169 O 0.26757 0.83475 0.77768
 O1170 O 0.19231 0.68892 0.73214
 O1171 O 0.23791 0.75098 0.77621
 O1172 O 0.24840 0.71101 0.74361
 O1173 O 0.29587 0.73643 0.72957
 O1174 O 0.28456 0.77808 0.76328
 C1175 C 0.16381 0.75390 0.70191
 C1176 C 0.20709 0.83910 0.72916
 C1177 C 0.22712 0.73403 0.64941
 O1178 O 0.24182 0.67561 0.69541
 O1179 O 0.29068 0.68255 0.71509
 O1180 O 0.30181 0.69211 0.76145
 C1181 C 0.30333 0.67629 0.73847
 O1182 O 0.30094 0.81383 0.69058
 Zr1183 Zr 0.29916 0.78171 0.72238
 O1184 O 0.32476 0.73989 0.77830
 O1185 O 0.29705 0.71298 0.67298
 O1186 O 0.32931 0.76627 0.69217
 O1187 O 0.31704 0.82218 0.73935
 O1188 O 0.33858 0.77154 0.74421
 C1189 C 0.34407 0.75521 0.76541
 O1190 O 0.26998 0.70008 0.80002
 O1191 O 0.20629 0.80325 0.79279
 O1192 O 0.28111 0.75012 0.81217
 O1193 O 0.25466 0.79252 0.80911
 O1194 O 0.17485 0.74636 0.77555
 O1195 O 0.20520 0.70293 0.78273
 C1196 C 0.26905 0.77333 0.82312
 H1197 H 0.19157 0.78561 0.74276
 H1198 H 0.24671 0.68972 0.74795
 H1199 H 0.29837 0.78817 0.77689
 H1200 H 0.27492 0.76452 0.67424
 H1201 H 0.17149 0.68661 0.73750
 H1202 H 0.25228 0.66525 0.68005
 H1203 H 0.29415 0.69334 0.66342
 H1204 H 0.34773 0.77809 0.69493
 H1205 H 0.15714 0.73358 0.77228
 H1206 H 0.20960 0.82272 0.80257
 H1207 H 0.25667 0.84532 0.79259
 H1208 H 0.33776 0.82361 0.73345
 H1209 H 0.18543 0.69350 0.78318
 H1210 H 0.28840 0.69644 0.81082
 H1211 H 0.21969 0.81405 0.65719
 H1212 H 0.32167 0.81969 0.68758
 Zr1213 Zr 0.28569 0.22393 0.21385
 O1214 O 0.27489 0.19525 0.17912
 O1215 O 0.33032 0.23295 0.20788
 O1216 O 0.29248 0.24560 0.17573
 O1217 O 0.29125 0.16820 0.26178
 O1218 O 0.26610 0.28794 0.18058
 O1219 O 0.30488 0.18189 0.21808
 O1220 O 0.34290 0.26591 0.24352
 O1221 O 0.29028 0.26893 0.22495
 O1222 O 0.30133 0.22606 0.25546
 O1223 O 0.24370 0.24178 0.20770
 O1224 O 0.25437 0.20034 0.23697
 Zr1225 Zr 0.23177 0.26768 0.28579
 Zr1226 Zr 0.24822 0.28629 0.22080
 Zr1227 Zr 0.26932 0.20502 0.27885
 Zr1228 Zr 0.30432 0.27081 0.26690
 O1229 O 0.24484 0.16580 0.28612
 O1230 O 0.31926 0.31369 0.25609
 O1231 O 0.27382 0.24955 0.29234
 O1232 O 0.26318 0.29065 0.26262
 O1233 O 0.21594 0.26542 0.24420
 O1234 O 0.22738 0.22260 0.27480
 C1235 C 0.34845 0.25083 0.22100
 C1236 C 0.30395 0.16337 0.23820
 C1237 C 0.28302 0.27047 0.16683
 O1238 O 0.27061 0.32740 0.21696
 O1239 O 0.22171 0.32077 0.23538
 O1240 O 0.20934 0.30805 0.27973
 C1241 C 0.20842 0.32539 0.25857
 O1242 O 0.21243 0.18951 0.19852
 Zr1243 Zr 0.21316 0.22045 0.23297
 O1244 O 0.18685 0.26004 0.29037
 O1245 O 0.21375 0.29197 0.19099
 O1246 O 0.18309 0.23641 0.20251
 O1247 O 0.19570 0.17924 0.24580
 O1248 O 0.17333 0.22934 0.25335
 C1249 C 0.16765 0.24529 0.27530
 O1250 O 0.24122 0.29883 0.31892
 O1251 O 0.30602 0.19680 0.30540
 O1252 O 0.22939 0.24837 0.32580
 O1253 O 0.25689 0.20671 0.32112
 O1254 O 0.33690 0.25444 0.29470
 O1255 O 0.30592 0.29732 0.30449
 C1256 C 0.24142 0.22497 0.33563
 H1257 H 0.32064 0.21650 0.25787
 H1258 H 0.26469 0.31171 0.26893
 H1259 H 0.21348 0.21194 0.28683
 H1260 H 0.23731 0.23984 0.18772
 H1261 H 0.33999 0.31589 0.26273
 H1262 H 0.25993 0.33843 0.20230
 H1263 H 0.21666 0.31188 0.18307
 H1264 H 0.16494 0.22405 0.20318
 H1265 H 0.35447 0.26755 0.29350
 H1266 H 0.30282 0.17691 0.31324
 H1267 H 0.25610 0.15467 0.30030
 H1268 H 0.17511 0.17767 0.23864
 H1269 H 0.32571 0.30658 0.30695
 H1270 H 0.22268 0.30198 0.32912
 H1271 H 0.29329 0.19175 0.16881
 H1272 H 0.19186 0.18327 0.19405
 Zr1273 Zr 0.72187 0.72040 0.29698
 O1274 O 0.73700 0.69131 0.32810
 O1275 O 0.67761 0.72441 0.30690
 O1276 O 0.71936 0.74061 0.33761
 O1277 O 0.71185 0.66642 0.24445
 O1278 O 0.74036 0.78641 0.33260
 O1279 O 0.70329 0.67720 0.29061
 O1280 O 0.66137 0.75949 0.27681
 O1281 O 0.71476 0.76542 0.29000
 O1282 O 0.70214 0.72302 0.25706
 O1283 O 0.76348 0.74127 0.30070
 O1284 O 0.75121 0.69970 0.26918
 Zr1285 Zr 0.76677 0.76991 0.22370
 Zr1286 Zr 0.75631 0.78580 0.29148
 Zr1287 Zr 0.73197 0.70479 0.22917
 Zr1288 Zr 0.69661 0.76778 0.24970
 O1289 O 0.75667 0.66732 0.21725
 O1290 O 0.68217 0.80934 0.26550
 O1291 O 0.72481 0.74932 0.21976
 O1292 O 0.73731 0.79024 0.25144
 O1293 O 0.78654 0.76763 0.26366
 O1294 O 0.77350 0.72495 0.23081
 C1295 C 0.65798 0.74186 0.29743
 C1296 C 0.70159 0.65991 0.26855
 C1297 C 0.72688 0.76683 0.34695
 O1298 O 0.73428 0.82608 0.29933
 O1299 O 0.78149 0.82165 0.27723
 O1300 O 0.78935 0.81102 0.23087
 C1301 C 0.79251 0.82756 0.25332
 O1302 O 0.79691 0.69086 0.30290
 Zr1303 Zr 0.79180 0.72270 0.27112
 O1304 O 0.81109 0.76537 0.21407
 O1305 O 0.79250 0.79236 0.31970
 O1306 O 0.82420 0.73975 0.30013
 O1307 O 0.80950 0.68334 0.25352
 O1308 O 0.82886 0.73531 0.24807
 C1309 C 0.83198 0.75172 0.22661
 O1310 O 0.75285 0.80151 0.19435
 O1311 O 0.69326 0.69537 0.20491
 O1312 O 0.76522 0.75185 0.18204
 O1313 O 0.74002 0.70813 0.18613
 O1314 O 0.66137 0.75043 0.22410
 O1315 O 0.68972 0.79509 0.21455
 C1316 C 0.75309 0.72782 0.17160
 H1317 H 0.68299 0.71236 0.25541
 H1318 H 0.73468 0.81133 0.24687
 H1319 H 0.78639 0.71554 0.21677
 H1320 H 0.77187 0.73931 0.31990
 H1321 H 0.66072 0.81024 0.26167
 H1322 H 0.74596 0.83731 0.31398
 H1323 H 0.79003 0.81206 0.32896
 H1324 H 0.84253 0.72873 0.29681
 H1325 H 0.64377 0.76221 0.22850
 H1326 H 0.69606 0.67597 0.19515
 H1327 H 0.74460 0.65591 0.20303
 H1328 H 0.83069 0.68320 0.25876
 H1329 H 0.66979 0.80356 0.21526
 H1330 H 0.76998 0.80611 0.18257
 H1331 H 0.71986 0.68622 0.33967
 H1332 H 0.81795 0.68592 0.30505
 Zr1333 Zr 0.78718 0.26047 0.78919
 O1334 O 0.76961 0.28701 0.82192
 O1335 O 0.83202 0.25989 0.80000
 O1336 O 0.79426 0.24082 0.82827
 O1337 O 0.78819 0.31628 0.74137
 O1338 O 0.77586 0.19382 0.82137
 O1339 O 0.80085 0.30517 0.78643
 O1340 O 0.85186 0.23060 0.76566
 O1341 O 0.79964 0.21710 0.77915
 O1342 O 0.80543 0.26144 0.74934
 O1343 O 0.74842 0.23465 0.79121
 O1344 O 0.75398 0.27769 0.76293
 Zr1345 Zr 0.74586 0.20723 0.71244
 Zr1346 Zr 0.76090 0.19177 0.77924
 Zr1347 Zr 0.77209 0.27622 0.72284
 Zr1348 Zr 0.81620 0.21808 0.73868
 O1349 O 0.74256 0.31071 0.71401
 O1350 O 0.83699 0.17880 0.75158
 O1351 O 0.78454 0.23340 0.71004
 O1352 O 0.77877 0.19050 0.73901
 O1353 O 0.72742 0.20610 0.75230
 O1354 O 0.73355 0.25063 0.72263
 C1355 C 0.85354 0.24621 0.78864
 C1356 C 0.79905 0.32315 0.76594
 C1357 C 0.78836 0.21458 0.83661
 O1358 O 0.78940 0.15587 0.78580
 O1359 O 0.74124 0.15274 0.76235
 O1360 O 0.72919 0.16355 0.71699
 C1361 C 0.72959 0.14623 0.73815
 O1362 O 0.70795 0.27931 0.79684
 Zr1363 Zr 0.71652 0.24962 0.76269
 O1364 O 0.70099 0.20484 0.70289
 O1365 O 0.72619 0.17907 0.80547
 O1366 O 0.68759 0.22729 0.78966
 O1367 O 0.69358 0.28695 0.74806
 O1368 O 0.68051 0.23322 0.73753
 C1369 C 0.67895 0.21613 0.71537
 O1370 O 0.76293 0.17871 0.68099
 O1371 O 0.80792 0.29098 0.69896
 O1372 O 0.74233 0.22622 0.67221
 O1373 O 0.76122 0.27295 0.67991
 O1374 O 0.84737 0.24039 0.71398
 O1375 O 0.82426 0.19240 0.70165
 C1376 C 0.74979 0.25224 0.66389
 H1377 H 0.82311 0.27443 0.74864
 H1378 H 0.78396 0.17007 0.73309
 H1379 H 0.71884 0.25850 0.70927
 H1380 H 0.74051 0.23527 0.81043
 H1381 H 0.85810 0.18071 0.74715
 H1382 H 0.77983 0.14287 0.79947
 H1383 H 0.73184 0.16007 0.81388
 H1384 H 0.66773 0.23546 0.78660
 H1385 H 0.86657 0.23077 0.71703
 H1386 H 0.80218 0.31011 0.69085
 H1387 H 0.75247 0.32389 0.70072
 H1388 H 0.67258 0.28406 0.75254
 H1389 H 0.84520 0.18676 0.70147
 H1390 H 0.74604 0.17172 0.66894
 H1391 H 0.78633 0.29399 0.83420
 H1392 H 0.68644 0.28099 0.79901
 C1393 C 0.41460 1.01732 0.33202
 C1394 C 0.41993 1.03976 0.35065
 C1395 C 0.43343 1.03662 0.37869
 C1396 C 0.44992 1.01400 0.38710
 H1397 H 0.41256 1.06189 0.34661
 H1398 H 0.42884 1.05451 0.39352
 H1399 H 0.42396 0.99588 0.33601
 H1400 H 0.45688 0.99691 0.37243
 C1401 C -0.10266 0.52164 0.84423
 C1402 C -0.08537 0.49947 0.85228
 C1403 C -0.07597 0.49898 0.88204
 C1404 C -0.05246 0.48437 0.89130
 H1405 H -0.07717 0.48311 0.83752
 H1406 H -0.08802 0.51271 0.89673
 H1407 H -0.10798 0.53821 0.86025
 H1408 H -0.03981 0.47104 0.87681
 C1409 C 0.09801 -0.01828 0.84100
 C1410 C 0.07482 -0.00224 0.84903
 C1411 C 0.06623 -0.00310 0.87889
 C1412 C 0.04140 0.00822 0.88942
 H1413 H 0.06211 0.01018 0.83404
 H1414 H 0.08103 -0.01456 0.89289
 H1415 H 0.10901 -0.03138 0.85675
 H1416 H 0.02617 0.01972 0.87591
 C1417 C 0.56990 0.44618 0.30979
 C1418 C 0.54681 0.46309 0.31608
 C1419 C 0.53374 0.46056 0.34401
 C1420 C 0.51184 0.47763 0.35313
 H1421 H 0.53874 0.47959 0.30189
 H1422 H 0.54398 0.44540 0.35843
 H1423 H 0.57638 0.42959 0.32471
 H1424 H 0.50078 0.49238 0.33892
 C1425 C 0.56717 0.53409 0.16548
 C1426 C 0.54737 0.51401 0.15524
 C1427 C 0.53314 0.51928 0.12773
 C1428 C 0.51578 0.49931 0.11380
 H1429 H 0.54330 0.49330 0.16548
 H1430 H 0.53933 0.53949 0.11734
 H1431 H 0.57007 0.55432 0.15394
 H1432 H 0.50859 0.47930 0.12391
 C1433 C 0.08997 1.03685 0.67304
 C1434 C 0.07002 1.01599 0.66454
 C1435 C 0.05751 1.01707 0.63561
 C1436 C 0.03542 0.99936 0.62578
 H1437 H 0.06298 0.99854 0.67811
 H1438 H 0.06694 1.03321 0.62178
 H1439 H 0.09480 1.05404 0.65820
 H1440 H 0.02527 0.98356 0.63947
 C1441 C -0.11172 0.48188 0.66680
 C1442 C -0.08852 0.49872 0.66029
 C1443 C -0.07996 0.49959 0.63071
 C1444 C -0.05466 0.51172 0.62248
 H1445 H -0.07501 0.50986 0.67645
 H1446 H -0.09431 0.48828 0.61527
 H1447 H -0.12364 0.46997 0.64992
 H1448 H -0.04021 0.52336 0.63758
 C1449 C 0.41031 -0.02998 0.16388
 C1450 C 0.43136 -0.00964 0.15940
 C1451 C 0.44163 -0.00631 0.13054
 C1452 C 0.46536 0.00981 0.12375
 H1453 H 0.44139 0.00342 0.17655
 H1454 H 0.42944 -0.01864 0.11415
 H1455 H 0.40212 -0.04360 0.14619
 H1456 H 0.47796 0.02212 0.13984
 C1457 C 0.34459 0.39017 0.03568
 C1458 C 0.35730 0.40191 0.01337
 C1459 C 0.38562 0.41844 0.01622
 C1460 C 0.39810 0.42968 -0.00641
 H1461 H 0.34669 0.39984 -0.00716
 H1462 H 0.39553 0.42249 0.03689
 H1463 H 0.35644 0.39143 0.05569
 H1464 H 0.38769 0.42542 -0.02686
 C1465 C -0.17358 0.89397 0.51314
 C1466 C -0.14988 0.90132 0.52932
 C1467 C -0.12625 0.92100 0.51911
 C1468 C -0.10419 0.92997 0.53650
 H1469 H -0.14800 0.89428 0.55077
 H1470 H -0.12732 0.92875 0.49777
 H1471 H -0.17417 0.90240 0.49200
 H1472 H -0.10367 0.92200 0.55780
 C1473 C -0.13899 0.11083 0.97496
 C1474 C -0.13138 0.08567 0.98717
 C1475 C -0.10179 0.07280 0.98399
 C1476 C -0.09488 0.04890 0.99851
 H1477 H -0.14755 0.07367 0.99902
 H1478 H -0.08576 0.08302 0.97061
 H1479 H -0.12300 0.12191 0.96213
 H1480 H -0.11102 0.04017 1.01272
 C1481 C 0.32350 0.59425 0.47238
 C1482 C 0.33883 0.57715 0.45477
 C1483 C 0.36445 0.56021 0.46459
 C1484 C 0.37973 0.54402 0.44625
 H1485 H 0.33202 0.57481 0.43288
 H1486 H 0.37105 0.56135 0.48661
 H1487 H 0.32982 0.59513 0.49448
 H1488 H 0.37320 0.54387 0.42420
 C1489 C 0.14478 0.61093 0.50427
 C1490 C 0.12642 0.60030 0.52329
 C1491 C 0.10068 0.58165 0.51436
 C1492 C 0.08230 0.57101 0.53330
 H1493 H 0.13130 0.60348 0.54552
 H1494 H 0.09729 0.57586 0.49227
 H1495 H 0.13965 0.60635 0.48222
 H1496 H 0.08555 0.57756 0.55524
 C1497 C 0.68424 0.08641 0.02229
 C1498 C 0.65864 0.08933 0.03555
 C1499 C 0.63177 0.07324 0.02527
 C1500 C 0.60679 0.07414 0.03971
 H1501 H 0.65708 0.10392 0.05383
 H1502 H 0.63269 0.05986 0.00606
 H1503 H 0.68462 0.07243 0.00342
 H1504 H 0.60637 0.08669 0.05943
 C1505 C 0.64807 0.89866 0.49553
 C1506 C 0.62695 0.90998 0.47916
 C1507 C 0.60295 0.92797 0.49105
 C1508 C 0.58236 0.93898 0.47394
 H1509 H 0.62757 0.90685 0.45658
 H1510 H 0.60225 0.93235 0.51351
 H1511 H 0.64735 0.90318 0.51798
 H1512 H 0.58356 0.93408 0.45156
 C1513 C 0.16670 0.41492 0.99659
 C1514 C 0.14012 0.41418 0.98382
 C1515 C 0.11527 0.43164 0.99471
 C1516 C 0.08978 0.43210 0.98015
 H1517 H 0.13630 0.40050 0.96506
 H1518 H 0.11811 0.44476 1.01400
 H1519 H 0.16953 0.42791 1.01598
 H1520 H 0.08778 0.41943 0.96050
 C1521 C 0.02786 0.34586 0.39557
 C1522 C 0.01861 0.34502 0.42194
 C1523 C 0.01035 0.37220 0.43674
 C1524 C 0.00720 0.37325 0.46452
 H1525 H 0.01691 0.32412 0.43258
 H1526 H 0.00713 0.39198 0.42463
 H1527 H 0.03167 0.36694 0.38573
 H1528 H 0.01253 0.35437 0.47717
 C1529 C 0.51449 -0.15043 -0.11364
 C1530 C 0.52767 -0.14156 -0.08953
 C1531 C 0.51615 -0.11678 -0.07277
 C1532 C 0.52664 -0.11069 -0.04681
 H1533 H 0.54687 -0.15309 -0.08189
 H1534 H 0.49953 -0.10294 -0.08213
 H1535 H 0.49409 -0.14045 -0.12038
 H1536 H 0.54317 -0.12479 -0.03765
 C1537 C -0.04253 -0.18134 1.07695
 C1538 C -0.01657 -0.17322 1.06677
 C1539 C -0.01420 -0.14863 1.04742
 C1540 C 0.01129 -0.13387 1.04594
 H1541 H 0.00362 -0.18193 1.07539
 H1542 H -0.03390 -0.14023 1.03739
 H1543 H -0.06225 -0.17065 1.06937
 H1544 H 0.03031 -0.14127 1.05779
 C1545 C 0.45477 0.32665 0.58199
 C1546 C 0.47663 0.33717 0.56665
 C1547 C 0.47173 0.35976 0.54545
 C1548 C 0.49449 0.37643 0.53788
 H1549 H 0.49911 0.33128 0.57151
 H1550 H 0.44966 0.36445 0.53799
 H1551 H 0.43266 0.33455 0.57832
 H1552 H 0.51602 0.37278 0.54729
 C1553 C 0.54228 1.18436 0.59247
 C1554 C 0.51784 1.16898 0.58531
 C1555 C 0.51822 1.14188 0.56756
 C1556 C 0.49515 1.12330 0.56770
 H1557 H 0.49705 1.17552 0.59409
 H1558 H 0.53736 1.13673 0.55527
 H1559 H 0.56344 1.17648 0.58569
 H1560 H 0.47698 1.12820 0.58138
 C1561 C 0.01580 0.66332 1.11756
 C1562 C 0.00338 0.65812 1.09217
 C1563 C 0.00252 0.62811 1.07981
 C1564 C 0.00236 0.62354 1.05203
 H1565 H -0.00515 0.67593 1.07973
 H1566 H 0.00217 0.60945 1.09372
 H1567 H 0.02751 0.64537 1.12733
 H1568 H 0.00503 0.64198 1.03813
 C1569 C 0.49796 0.67412 -0.11243
 C1570 C 0.47982 0.65614 -0.09885
 C1571 C 0.49139 0.63314 -0.08061
 C1572 C 0.47503 0.62278 -0.06001
 H1573 H 0.45628 0.65927 -0.09959
 H1574 H 0.51302 0.62432 -0.08443
 H1575 H 0.52140 0.67228 -0.10821
 H1576 H 0.45386 0.63260 -0.05598
 C1577 C -0.00218 1.17370 0.41107
 C1578 C -0.02079 1.15984 0.42786
 C1579 C -0.01131 1.13487 0.44440
 C1580 C -0.02847 1.12433 0.46428
 H1581 H -0.04329 1.16692 0.42990
 H1582 H 0.00910 1.12409 0.43923
 H1583 H 0.02098 1.16839 0.41249
 H1584 H -0.04827 1.13587 0.47008
 C1585 C 0.78223 0.68339 0.92148
 C1586 C 0.76188 0.70217 0.91166
 C1587 C 0.76476 0.71303 0.88269
 C1588 C 0.74761 0.73366 0.87104
 H1589 H 0.74341 0.70906 0.92401
 H1590 H 0.78180 0.70310 0.87012
 H1591 H 0.80055 0.67874 0.90788
 H1592 H 0.73104 0.74464 0.88337
 C1593 C 0.27035 0.17163 0.41925
 C1594 C 0.25049 0.18993 0.40806
 C1595 C 0.25300 0.19735 0.37811
 C1596 C 0.23733 0.21846 0.36567
 H1597 H 0.23303 0.19942 0.42026
 H1598 H 0.26883 0.18514 0.36585
 H1599 H 0.28776 0.16427 0.40557
 H1600 H 0.22202 0.23148 0.37776
 C1601 C 0.71369 0.33607 0.41525
 C1602 C 0.73151 0.31437 0.40676
 C1603 C 0.73431 0.30685 0.37660
 C1604 C 0.75147 0.28477 0.36783
 H1605 H 0.74384 0.30177 0.42187
 H1606 H 0.72217 0.31962 0.36139
 H1607 H 0.70077 0.34729 0.39948
 H1608 H 0.76338 0.27198 0.38318
 C1609 C 0.23212 0.82365 0.90626
 C1610 C 0.25357 0.80625 0.89640
 C1611 C 0.25257 0.79755 0.86629
 C1612 C 0.27129 0.77882 0.85391
 H1613 H 0.27168 0.79913 0.90949
 H1614 H 0.23556 0.80749 0.85348
 H1615 H 0.21440 0.82875 0.89162
 H1616 H 0.28773 0.76756 0.86626
 C1617 C 0.29250 0.81609 0.07152
 C1618 C 0.27198 0.79596 0.07832
 C1619 C 0.27300 0.78415 0.10690
 C1620 C 0.25524 0.76241 0.11550
 H1621 H 0.25450 0.78875 0.06388
 H1622 H 0.28879 0.79427 0.12176
 H1623 H 0.30983 0.82095 0.08709
 H1624 H 0.23997 0.75127 0.10082
 C1625 C 0.76172 0.32237 0.59032
 C1626 C 0.74963 0.29603 0.59601
 C1627 C 0.74920 0.28729 0.62561
 C1628 C 0.74518 0.25936 0.63393
 H1629 H 0.74221 0.28079 0.57928
 H1630 H 0.75429 0.30459 0.64129
 H1631 H 0.77083 0.33609 0.60754
 H1632 H 0.73978 0.24175 0.61870
 C1633 C 0.21423 0.18322 0.58847
 C1634 C 0.22859 0.20857 0.59534
 C1635 C 0.23061 0.21768 0.62529
 C1636 C 0.23968 0.24460 0.63476
 H1637 H 0.23790 0.22235 0.57939
 H1638 H 0.22381 0.20138 0.64029
 H1639 H 0.20384 0.17107 0.60505
 H1640 H 0.24625 0.26131 0.62011
 C1641 C 0.71851 0.67295 0.08711
 C1642 C 0.73781 0.69327 0.09782
 C1643 C 0.73836 0.69978 0.12843
 C1644 C 0.75401 0.72221 0.14078
 H1645 H 0.75250 0.70519 0.08436
 H1646 H 0.72491 0.68574 0.14129
 H1647 H 0.70328 0.66273 0.10132
 H1648 H 0.76697 0.73689 0.12813
 C1649 C 0.14687 0.56676 0.23640
 C1650 C 0.15963 0.58243 0.21636
 C1651 C 0.17915 0.60795 0.22399
 C1652 C 0.19167 0.62434 0.20436
 H1653 H 0.15658 0.57607 0.19440
 H1654 H 0.18315 0.61351 0.24605
 H1655 H 0.15146 0.57316 0.25819
 H1656 H 0.18703 0.61915 0.18234
 C1657 C 0.64781 0.07876 0.71202
 C1658 C 0.67476 0.08320 0.72318
 C1659 C 0.69082 0.11156 0.72039
 C1660 C 0.71548 0.11679 0.73549
 H1661 H 0.68507 0.06588 0.73506
 H1662 H 0.68141 0.12888 0.70783
 H1663 H 0.63826 0.09572 0.69911
 H1664 H 0.72354 0.09987 0.74932
 C1665 C 0.86081 0.07770 0.26620
 C1666 C 0.85404 0.10122 0.28261
 C1667 C 0.83959 0.12741 0.27045
 C1668 C 0.83153 0.15035 0.28683
 H1669 H 0.85806 0.10131 0.30506
 H1670 H 0.83460 0.12743 0.24808
 H1671 H 0.85604 0.07944 0.24387
 H1672 H 0.83640 0.14987 0.30921
 C1673 C 0.36779 0.59626 0.77316
 C1674 C 0.35093 0.60877 0.75343
 C1675 C 0.33643 0.63764 0.75820
 C1676 C 0.32004 0.64853 0.73739
 H1677 H 0.34676 0.59767 0.73336
 H1678 H 0.33877 0.64947 0.77825
 H1679 H 0.37104 0.60856 0.79290
 H1680 H 0.31852 0.63606 0.71758
 C1681 C 0.35141 0.42511 0.69885
 C1682 C 0.32889 0.42043 0.71605
 C1683 C 0.31250 0.39180 0.71608
 C1684 C 0.29319 0.38644 0.73627
 H1685 H 0.32229 0.43783 0.73056
 H1686 H 0.31736 0.37460 0.70062
 H1687 H 0.35686 0.40776 0.68374
 H1688 H 0.28991 0.40330 0.75251
 C1689 C 0.86684 0.89920 0.21841
 C1690 C 0.84535 0.89139 0.23591
 C1691 C 0.82907 0.86268 0.23314
 C1692 C 0.80951 0.85567 0.25265
 H1693 H 0.83873 0.90623 0.25266
 H1694 H 0.83333 0.84737 0.21583
 H1695 H 0.87199 0.88350 0.20165
 H1696 H 0.80656 0.87104 0.27025
 C1697 C 0.64330 0.91474 0.79488
 C1698 C 0.66551 0.90604 0.77904
 C1699 C 0.67954 0.87702 0.78209
 C1700 C 0.70025 0.86959 0.76400
 H1701 H 0.67430 0.92105 0.76380
 H1702 H 0.67287 0.86200 0.79825
 H1703 H 0.63557 0.90034 0.81113
 H1704 H 0.70552 0.88491 0.74756
 C1705 C 0.13242 0.39435 0.29288
 C1706 C 0.15536 0.38775 0.27686
 C1707 C 0.17060 0.35908 0.27831
 C1708 C 0.19177 0.35313 0.26006
 H1709 H 0.16386 0.40410 0.26278
 H1710 H 0.16441 0.34299 0.29372
 H1711 H 0.12502 0.37826 0.30782
 H1712 H 0.19664 0.36926 0.24424
 C1713 C 0.07596 0.27954 0.84688
 C1714 C 0.09379 0.25731 0.84072
 C1715 C 0.11720 0.26177 0.82049
 C1716 C 0.14185 0.24630 0.82213
 H1717 H 0.09292 0.23709 0.85253
 H1718 H 0.11526 0.27955 0.80571
 H1719 H 0.07885 0.30054 0.83660
 H1720 H 0.14411 0.22953 0.83790
 C1721 C 0.56997 0.78976 0.33044
 C1722 C 0.58536 0.76496 0.32778
 C1723 C 0.61115 0.76395 0.30992
 C1724 C 0.62990 0.74168 0.31186
 H1725 H 0.58021 0.74584 0.34015
 H1726 H 0.61581 0.78242 0.29649
 H1727 H 0.57683 0.80920 0.31919
 H1728 H 0.62567 0.72398 0.32629
 C1729 C 0.58304 0.24662 0.16771
 C1730 C 0.60917 0.23414 0.16443
 C1731 C 0.63341 0.23924 0.18475
 C1732 C 0.66049 0.23168 0.17782
 H1733 H 0.61292 0.21981 0.14625
 H1734 H 0.62930 0.24938 0.20518
 H1735 H 0.57994 0.26272 0.18465
 H1736 H 0.66492 0.22351 0.15674
 C1737 C 0.10263 0.73814 0.61903
 C1738 C 0.10441 0.74666 0.64605
 C1739 C 0.13270 0.75188 0.66025
 C1740 C 0.13504 0.75075 0.68815
 H1741 H 0.08463 0.74851 0.65828
 H1742 H 0.15206 0.75530 0.64772
 H1743 H 0.12234 0.73360 0.60735
 H1744 H 0.11619 0.74489 0.70052
 C1745 C 0.93123 0.75799 0.65458
 C1746 C 0.91714 0.77457 0.67345
 C1747 C 0.89313 0.76219 0.68959
 C1748 C 0.88399 0.77688 0.71231
 H1749 H 0.92341 0.79755 0.67756
 H1750 H 0.88166 0.74233 0.68171
 H1751 H 0.92682 0.73426 0.65375
 H1752 H 0.89624 0.79627 0.72024
 C1753 C 0.40896 0.27753 0.14338
 C1754 C 0.40781 0.26539 0.16863
 C1755 C 0.37957 0.25814 0.18108
 C1756 C 0.37730 0.25534 0.20878
 H1757 H 0.42785 0.26169 0.18067
 H1758 H 0.36006 0.25652 0.16758
 H1759 H 0.38881 0.28350 0.13251
 H1760 H 0.39623 0.25946 0.22262
 C1761 C 0.40735 0.72326 0.35971
 C1762 C 0.40484 0.72909 0.33247
 C1763 C 0.37624 0.72905 0.31793
 C1764 C 0.37456 0.72634 0.28999
 H1765 H 0.42439 0.73352 0.32051
 H1766 H 0.35645 0.73102 0.33012
 H1767 H 0.38831 0.71638 0.37135
 H1768 H 0.39420 0.72228 0.27805
 C1769 C 0.91302 0.22682 0.87017
 C1770 C 0.91168 0.24095 0.84588
 C1771 C 0.88341 0.24509 0.83136
 C1772 C 0.88199 0.24735 0.80349
 H1773 H 0.93168 0.24752 0.83558
 H1774 H 0.86337 0.24362 0.84324
 H1775 H 0.89304 0.21795 0.87897
 H1776 H 0.90184 0.24605 0.79135
 C1777 C 0.57688 1.00333 0.67337
 C1778 C 0.56350 1.02123 0.65524
 C1779 C 0.54655 1.00952 0.63064
 C1780 C 0.52593 1.02603 0.61858
 H1781 H 0.56477 1.04509 0.65832
 H1782 H 0.55238 0.98829 0.62132
 H1783 H 0.57168 0.97978 0.67184
 H1784 H 0.51924 1.04644 0.62898
 C1785 C 0.08254 0.49966 1.17339
 C1786 C 0.06755 0.51973 1.15882
 C1787 C 0.05425 0.51192 1.13098
 C1788 C 0.03410 0.52899 1.11865
 H1789 H 0.06512 0.54203 1.16741
 H1790 H 0.06127 0.49179 1.12032
 H1791 H 0.08301 0.47691 1.16552
 H1792 H 0.02596 0.54828 1.12989
 C1793 C -0.06656 -0.02983 1.17394
 C1794 C -0.05362 -0.04823 1.15549
 C1795 C -0.03909 -0.03584 1.13082
 C1796 C -0.01860 -0.05032 1.11623
 H1797 H -0.05397 -0.07200 1.15800
 H1798 H -0.04620 -0.01433 1.12391
 H1799 H -0.06253 -0.00624 1.17162
 H1800 H -0.01010 -0.07103 1.12375
 C1801 C 0.41330 0.49671 0.64744
 C1802 C 0.42316 0.47755 0.62784
 C1803 C 0.43597 0.48791 0.60148
 C1804 C 0.45650 0.47221 0.58816
 H1805 H 0.42247 0.45390 0.63116
 H1806 H 0.42767 0.50800 0.59240
 H1807 H 0.41811 0.52010 0.64482
 H1808 H 0.46596 0.45323 0.59828
 C1809 C 0.42162 0.51622 -0.18077
 C1810 C 0.44024 0.53230 -0.16417
 C1811 C 0.45160 0.52051 -0.13754
 C1812 C 0.47290 0.53470 -0.12244
 H1813 H 0.44648 0.55461 -0.16984
 H1814 H 0.44130 0.50071 -0.12955
 H1815 H 0.41699 0.49331 -0.17587
 H1816 H 0.48362 0.55405 -0.13088
 C1817 C -0.10306 1.00885 0.34086
 C1818 C -0.08750 1.02714 0.35831
 C1819 C -0.07769 1.01781 0.38660
 C1820 C -0.05566 1.03239 0.40033
 H1821 H -0.08039 1.04861 0.35104
 H1822 H -0.08774 0.99847 0.39570
 H1823 H -0.10809 0.98658 0.34752
 H1824 H -0.04508 1.05086 0.39022
 C1825 C 0.08137 0.47446 0.34642
 C1826 C 0.06391 0.45811 0.36231
 C1827 C 0.05190 0.47045 0.38855
 C1828 C 0.02927 0.45714 0.40078
 H1829 H 0.05792 0.43561 0.35565
 H1830 H 0.06162 0.49060 0.39785
 H1831 H 0.08546 0.49759 0.35219
 H1832 H 0.01900 0.43770 0.39063
 C1833 C 0.59750 0.00054 -0.15678
 C1834 C 0.57946 -0.01535 -0.14113
 C1835 C 0.56803 -0.00401 -0.11443
 C1836 C 0.54624 -0.01885 -0.10250
 H1837 H 0.57299 -0.03762 -0.14817
 H1838 H 0.57784 0.01564 -0.10428
 H1839 H 0.60245 0.02355 -0.15123
 H1840 H 0.53605 -0.03776 -0.11364
 C1841 C 0.65759 0.62529 0.01009
 C1842 C 0.63266 0.62463 0.02488
 C1843 C 0.60662 0.60516 0.01899
 C1844 C 0.59828 0.59181 -0.00558
 H1845 H 0.63103 0.63733 0.04424
 H1846 H 0.59295 0.60204 0.03709
 H1847 H 0.65775 0.61328 -0.00991
 H1848 H 0.60997 0.59607 -0.02465
 C1849 C 0.15379 1.11756 0.52699
 C1850 C 0.13962 1.10795 0.50346
 C1851 C 0.11432 1.08745 0.50638
 C1852 C 0.09423 1.08112 0.48599
 H1853 H 0.14586 1.11560 0.48303
 H1854 H 0.11143 1.07807 0.52690
 H1855 H 0.14548 1.11038 0.54695
 H1856 H 0.09636 1.09067 0.46548
 C1857 C 0.17676 -0.11206 0.96907
 C1858 C 0.16570 -0.10273 0.99362
 C1859 C 0.13967 -0.08350 0.99332
 C1860 C 0.12418 -0.07694 1.01628
 H1861 H 0.17497 -0.10975 1.01343
 H1862 H 0.13229 -0.07536 0.97318
 H1863 H 0.16570 -0.10547 0.94987
 H1864 H 0.13076 -0.08572 1.03638
 C1865 C 0.65751 0.39243 0.48655
 C1866 C 0.64384 0.40871 0.46715
 C1867 C 0.61894 0.42877 0.47148
 C1868 C 0.59998 0.42905 0.49285
 H1869 H 0.65182 0.40880 0.44593
 H1870 H 0.61431 0.44225 0.45347
 H1871 H 0.65188 0.39570 0.50840
 H1872 H 0.60395 0.41618 0.51136
 C1873 C -0.17215 0.37752 0.52977
 C1874 C -0.16017 0.38717 0.50613
 C1875 C -0.13361 0.40627 0.50865
 C1876 C -0.11763 0.41475 0.48683
 H1877 H -0.16973 0.38157 0.48563
 H1878 H -0.12683 0.41370 0.52968
 H1879 H -0.16077 0.38285 0.54957
 H1880 H -0.12320 0.40667 0.46573
 C1881 C 0.34506 -0.10935 0.01954
 C1882 C 0.35773 -0.09878 -0.00337
 C1883 C 0.38252 -0.07752 0.00060
 C1884 C 0.40104 -0.07025 -0.01974
 H1885 H 0.35076 -0.10634 -0.02427
 H1886 H 0.38646 -0.06849 0.02171
 H1887 H 0.35403 -0.10235 0.04000
 H1888 H 0.39788 -0.07964 -0.04079
 C1889 C 0.32180 1.10975 0.48557
 C1890 C 0.33461 1.10294 0.51020
 C1891 C 0.35924 1.08189 0.50943
 C1892 C 0.37894 1.07790 0.53043
 H1893 H 0.32813 1.11342 0.52978
 H1894 H 0.36232 1.07025 0.48951
 H1895 H 0.33043 1.09971 0.46654
 H1896 H 0.37641 1.08905 0.55065
 C1897 C -0.16616 0.61479 0.98224
 C1898 C -0.15532 0.60419 1.00644
 C1899 C -0.13044 0.58329 1.00512
 C1900 C -0.11393 0.57507 1.02735
 H1901 H -0.16416 0.61093 1.02651
 H1902 H -0.12487 0.57490 0.98438
 H1903 H -0.15538 0.60834 0.96296
 H1904 H -0.11829 0.58402 1.04815
 C1905 C 0.03475 0.66526 0.57244
 C1906 C 0.00954 0.65607 0.56004
 C1907 C 0.00477 0.62459 0.55375
 C1908 C -0.02004 0.61425 0.54151
 H1909 H -0.00788 0.67126 0.55515
 H1910 H 0.02211 0.60940 0.55931
 H1911 H 0.05213 0.64941 0.57560
 H1912 H -0.03687 0.62922 0.53439
 C1913 C 0.52695 0.17077 0.11049
 C1914 C 0.50998 0.16179 0.08860
 C1915 C 0.50963 0.13054 0.07926
 C1916 C 0.49442 0.12157 0.05627
 H1917 H 0.49730 0.17741 0.07671
 H1918 H 0.52278 0.11493 0.09080
 H1919 H 0.54030 0.15452 0.12100
 H1920 H 0.48157 0.13739 0.04466
 C1921 C -0.02501 0.15493 0.91991
 C1922 C -0.00535 0.14776 0.93974
 C1923 C -0.00456 0.11712 0.94945
 C1924 C 0.01307 0.10908 0.97063
 H1925 H 0.00969 0.16424 0.94906
 H1926 H -0.01891 0.10074 0.93890
 H1927 H -0.04065 0.13809 0.91215
 H1928 H 0.02712 0.12547 0.98150
 C1929 C 0.48594 0.67142 0.41281
 C1930 C 0.47684 0.64429 0.40434
 C1931 C 0.48587 0.61760 0.41903
 C1932 C 0.47552 0.59109 0.41002
 H1933 H 0.46196 0.64163 0.38633
 H1934 H 0.49971 0.61976 0.43781
 H1935 H 0.50224 0.67407 0.42966
 H1936 H 0.46149 0.58952 0.39132
 C1937 C 0.50879 0.85564 0.38884
 C1938 C 0.49255 0.86139 0.41133
 C1939 C 0.49027 0.89175 0.42264
 C1940 C 0.47534 0.89728 0.44598
 H1941 H 0.48224 0.84374 0.42267
 H1942 H 0.50209 0.90946 0.41256
 H1943 H 0.51976 0.87396 0.37883
 H1944 H 0.46362 0.87941 0.45592
 C1945 C 0.03085 0.33291 0.92567
 C1946 C 0.00686 0.34135 0.93924
 C1947 C 0.00554 0.37169 0.95075
 C1948 C -0.01718 0.38125 0.96551
 H1949 H -0.01236 0.32706 0.94034
 H1950 H 0.02360 0.38686 0.94662
 H1951 H 0.04914 0.34853 0.92453
 H1952 H -0.03464 0.36607 0.97118
 C1953 C 0.46984 0.34806 0.09073
 C1954 C 0.49013 0.35529 0.07203
 C1955 C 0.48926 0.38481 0.05961
 C1956 C 0.50751 0.39333 0.03954
 H1957 H 0.50666 0.33970 0.06550
 H1958 H 0.47284 0.40006 0.06722
 H1959 H 0.45300 0.36406 0.09563
 H1960 H 0.52389 0.37822 0.03166
 C1961 C -0.02245 0.84201 0.60641
 C1962 C -0.00967 0.85095 0.58305
 C1963 C -0.00989 0.88198 0.57520
 C1964 C 0.00363 0.89036 0.55206
 H1965 H 0.00041 0.83518 0.56885
 H1966 H -0.02160 0.89786 0.58809
 H1967 H -0.03397 0.85790 0.61946
 H1968 H 0.01526 0.87422 0.53937
 C1969 C 0.27065 0.32796 0.08246
 C1970 C 0.28912 0.31411 0.09983
 C1971 C 0.27767 0.30024 0.12503
 C1972 C 0.29291 0.28030 0.13933
 H1973 H 0.31245 0.31314 0.09604
 H1974 H 0.25651 0.30736 0.13258
 H1975 H 0.24725 0.32527 0.08593
 H1976 H 0.31330 0.27184 0.13118
 C1977 C 0.76838 0.84230 0.58633
 C1978 C 0.78796 0.82608 0.60030
 C1979 C 0.78137 0.81666 0.62897
 C1980 C 0.79593 0.79507 0.64185
 H1981 H 0.80817 0.81935 0.59051
 H1982 H 0.76345 0.82747 0.63961
 H1983 H 0.74746 0.84692 0.59591
 H1984 H 0.81307 0.78330 0.63095
 C1985 C 0.21875 0.66084 0.57185
 C1986 C 0.20862 0.68608 0.58315
 C1987 C 0.22089 0.69725 0.61048
 C1988 C 0.21535 0.72433 0.62132
 H1989 H 0.19223 0.69867 0.57197
 H1990 H 0.23510 0.68261 0.62206
 H1991 H 0.23651 0.64958 0.58248
 H1992 H 0.20126 0.73914 0.60984
 C1993 C 0.74540 0.14434 0.09219
 C1994 C 0.76231 0.16810 0.09939
 C1995 C 0.76318 0.17953 0.12874
 C1996 C 0.76524 0.20859 0.13514
 H1997 H 0.77404 0.18028 0.08375
 H1998 H 0.76064 0.16383 0.14540
 H1999 H 0.73132 0.13558 0.10825
 H2000 H 0.76519 0.22450 0.11848
 C2001 C 0.77996 0.15775 0.92177
 C2002 C 0.79572 0.17635 0.90653
 C2003 C 0.78480 0.18519 0.87883
 C2004 C 0.79719 0.20767 0.86551
 H2005 H 0.81699 0.18458 0.91421
 H2006 H 0.76669 0.17265 0.86893
 H2007 H 0.75790 0.15129 0.91474
 H2008 H 0.81430 0.22115 0.87594
 C2009 C 0.25821 0.64071 0.39904
 C2010 C 0.27627 0.65836 0.38504
 C2011 C 0.26822 0.66807 0.35660
 C2012 C 0.28107 0.69189 0.34569
 H2013 H 0.29652 0.66661 0.39506
 H2014 H 0.25118 0.65589 0.34472
 H2015 H 0.23694 0.63451 0.38980
 H2016 H 0.29718 0.70466 0.35822
 C2017 C 0.69937 0.83966 0.41969
 C2018 C 0.71106 0.81325 0.41336
 C2019 C 0.71480 0.80355 0.38379
 C2020 C 0.71985 0.77524 0.37624
 H2021 H 0.71873 0.79916 0.42999
 H2022 H 0.71407 0.82025 0.36782
 H2023 H 0.68992 0.85261 0.40301
 H2024 H 0.71874 0.75809 0.39170
 C2025 C 0.22090 0.36122 0.91977
 C2026 C 0.23149 0.33471 0.91208
 C2027 C 0.23351 0.32612 0.88207
 C2028 C 0.23772 0.29802 0.87330
 H2029 H 0.23853 0.31932 0.92787
 H2030 H 0.23129 0.34335 0.86674
 H2031 H 0.21201 0.37545 0.90379
 H2032 H 0.23834 0.28047 0.88838
 C2033 C 0.83423 0.41551 0.72821
 C2034 C 0.82965 0.40056 0.75165
 C2035 C 0.81303 0.37226 0.74943
 C2036 C 0.81170 0.35329 0.77049
 H2037 H 0.83934 0.40795 0.77163
 H2038 H 0.80310 0.36600 0.72918
 H2039 H 0.82513 0.40631 0.70854
 H2040 H 0.82188 0.35917 0.79070
 C2041 C 0.35944 0.89878 0.22147
 C2042 C 0.34640 0.88657 0.24357
 C2043 C 0.33138 0.85747 0.23924
 C2044 C 0.32099 0.84104 0.26003
 H2045 H 0.34616 0.89752 0.26403
 H2046 H 0.32879 0.84911 0.21774
 H2047 H 0.35953 0.88544 0.20214
 H2048 H 0.32436 0.84828 0.28175
 C2049 C 0.15724 0.92172 0.77581
 C2050 C 0.16580 0.90984 0.75118
 C2051 C 0.18410 0.88289 0.75118
 C2052 C 0.19025 0.86701 0.72781
 H2053 H 0.15899 0.91922 0.73144
 H2054 H 0.19210 0.87535 0.77133
 H2055 H 0.16367 0.91056 0.79484
 H2056 H 0.18163 0.87381 0.70764
 C2057 C 0.65487 0.40818 0.25858
 C2058 C 0.66645 0.39603 0.23537
 C2059 C 0.68845 0.37253 0.23896
 C2060 C 0.69613 0.35295 0.21871
 H2061 H 0.65870 0.40196 0.21463
 H2062 H 0.69725 0.37001 0.26009
 H2063 H 0.66191 0.40004 0.27885
 H2064 H 0.68751 0.35489 0.19747
 C2065 C 0.65040 0.57626 0.22214
 C2066 C 0.66047 0.58739 0.24698
 C2067 C 0.67991 0.61402 0.24736
 C2068 C 0.68559 0.63111 0.27044
 H2069 H 0.65312 0.57823 0.26647
 H2070 H 0.68837 0.62085 0.22738
 H2071 H 0.65678 0.58732 0.20319
 H2072 H 0.67670 0.62492 0.29042
 C2073 C 0.16173 0.09335 0.73076
 C2074 C 0.17398 0.10580 0.75423
 C2075 C 0.19227 0.13307 0.75170
 C2076 C 0.20154 0.15034 0.77366
 H2077 H 0.16944 0.09719 0.77472
 H2078 H 0.19668 0.14027 0.73063
 H2079 H 0.16624 0.10381 0.71100
 H2080 H 0.19685 0.14379 0.79485
 C2081 C 0.34228 0.07253 0.27604
 C2082 C 0.33762 0.08785 0.25275
 C2083 C 0.31990 0.11491 0.25453
 C2084 C 0.31920 0.13490 0.23426
 H2085 H 0.34821 0.08168 0.23333
 H2086 H 0.30831 0.11928 0.27384
 H2087 H 0.33282 0.08050 0.29551
 H2088 H 0.33100 0.13086 0.21503
 C2089 C 0.84630 0.58917 0.78323
 C2090 C 0.84378 0.60451 0.75966
 C2091 C 0.82846 0.63296 0.76093
 C2092 C 0.82808 0.65218 0.73999
 H2093 H 0.85347 0.59678 0.74027
 H2094 H 0.81753 0.63859 0.78034
 H2095 H 0.83755 0.59863 0.80246
 H2096 H 0.83909 0.64701 0.72054
 C2097 C 0.90215 0.78682 0.15840
 C2098 C 0.89686 0.77187 0.18177
 C2099 C 0.86767 0.77203 0.19416
 C2100 C 0.86162 0.75440 0.21545
 H2101 H 0.91317 0.75821 0.19156
 H2102 H 0.85069 0.78558 0.18498
 H2103 H 0.88473 0.80058 0.15027
 H2104 H 0.87877 0.74098 0.22453
 C2105 C 0.42392 0.28795 0.67491
 C2106 C 0.39544 0.29319 0.67062
 C2107 C 0.37344 0.28766 0.69206
 C2108 C 0.34562 0.29461 0.68651
 H2109 H 0.38757 0.30023 0.65029
 H2110 H 0.37965 0.27737 0.71158
 H2111 H 0.43118 0.27947 0.69495
 H2112 H 0.34024 0.30538 0.66698
 C2113 C 0.42057 0.72213 0.83055
 C2114 C 0.41304 0.73828 0.80844
 C2115 C 0.38264 0.73788 0.79751
 C2116 C 0.37469 0.75446 0.77585
 H2117 H 0.42923 0.75183 0.79818
 H2118 H 0.36647 0.72418 0.80771
 H2119 H 0.40422 0.70762 0.83948
 H2120 H 0.39097 0.76809 0.76574
 C2121 C 0.92075 0.22514 0.36065
 C2122 C 0.90874 0.24817 0.34788
 C2123 C 0.87869 0.24617 0.33640
 C2124 C 0.87006 0.26575 0.31766
 H2125 H 0.92105 0.26828 0.34425
 H2126 H 0.86470 0.22737 0.34119
 H2127 H 0.90659 0.20615 0.36447
 H2128 H 0.88494 0.28355 0.31200
 C2129 C 0.09344 0.28862 0.33394
 C2130 C 0.09948 0.26798 0.31440
 C2131 C 0.12899 0.26732 0.30289
 C2132 C 0.13700 0.24665 0.28414
 H2133 H 0.08333 0.25137 0.30744
 H2134 H 0.14495 0.28378 0.31079
 H2135 H 0.10996 0.30554 0.33937
 H2136 H 0.12108 0.23059 0.27549
 C2137 C 0.59573 0.79614 0.83948
 C2138 C 0.60485 0.77827 0.81869
 C2139 C 0.63579 0.77824 0.81075
 C2140 C 0.64486 0.76071 0.78970
 H2141 H 0.58946 0.76382 0.80707
 H2142 H 0.65128 0.79274 0.82227
 H2143 H 0.61129 0.81155 0.84974
 H2144 H 0.62917 0.74651 0.77811
 C2145 C 0.58464 0.24221 0.67556
 C2146 C 0.60222 0.22079 0.68431
 C2147 C 0.62798 0.22752 0.70255
 C2148 C 0.65022 0.20868 0.70258
 H2149 H 0.59890 0.19820 0.67650
 H2150 H 0.63016 0.24890 0.71339
 H2151 H 0.58764 0.26451 0.68435
 H2152 H 0.64848 0.18839 0.68985
 C2153 C 0.06765 0.73388 0.18163
 C2154 C 0.09392 0.72561 0.17262
 C2155 C 0.12150 0.73306 0.18783
 C2156 C 0.14666 0.72444 0.17655
 H2157 H 0.09523 0.71296 0.15299
 H2158 H 0.12121 0.74438 0.20819
 H2159 H 0.06590 0.74833 0.20004
 H2160 H 0.14613 0.71293 0.15623
   
