data_POSCAR
  _audit_creation_date              2014-09-24
  _audit_creation_method            'ToBaCCo'
  _symmetry_space_group_name_H-M    'P1'
  _symmetry_Int_Tables_number       1
  _symmetry_cell_setting            triclinic
  loop_
  _symmetry_equiv_pos_as_xyz
 x,y,z
_cell_length_a 67.1835
_cell_length_b 67.1803
_cell_length_c 67.1726
_cell_angle_alpha 89.983000
_cell_angle_beta 90.011400
_cell_angle_gamma 89.983400
loop_
  _atom_site_label
  _atom_site_type_symbol
  _atom_site_fract_x
  _atom_site_fract_y
  _atom_site_fract_z
C1 C 0.35850 1.35933 0.33270
 C2 C 0.36694 1.34228 0.34153
 C3 C 0.35851 1.33362 0.35859
 C4 C 0.34142 1.34226 0.36699
 C5 C 0.33260 1.35931 0.35854
 C6 C 0.34136 1.36773 0.34142
 H7 H 0.38007 1.33557 0.33503
 H8 H 0.33491 1.33553 0.38011
 H9 H 0.33470 1.38082 0.33476
 C10 C 0.35855 0.85918 0.83349
 C11 C 0.36699 0.84213 0.84219
 C12 C 0.35855 0.83342 0.85923
 C13 C 0.34146 0.84207 0.86765
 C14 C 0.33267 0.85916 0.85923
 C15 C 0.34146 0.86760 0.84215
 H16 H 0.38011 0.83551 0.83557
 H17 H 0.33492 0.83532 0.88075
 H18 H 0.33492 0.88070 0.83541
 C19 C 0.85856 1.35932 0.83351
 C20 C 0.86703 1.34229 0.84224
 C21 C 0.85861 1.33360 0.85929
 C22 C 0.84151 1.34223 0.86770
 C23 C 0.83268 1.35930 0.85926
 C24 C 0.84146 1.36772 0.84216
 H25 H 0.88015 1.33569 0.83563
 H26 H 0.83499 1.33549 0.88081
 H27 H 0.83490 1.38081 0.83540
 C28 C 0.85981 0.85986 0.33410
 C29 C 0.84274 0.86829 0.34278
 C30 C 0.83403 0.85984 0.35983
 C31 C 0.84272 0.84277 0.36827
 C32 C 0.85979 0.83409 0.35984
 C33 C 0.86824 0.84279 0.34279
 H34 H 0.83610 0.88139 0.33613
 H35 H 0.83607 0.83611 0.38135
 H36 H 0.88134 0.83616 0.33616
 C37 C 0.64055 0.64066 0.33294
 C38 C 0.65764 0.63223 0.34173
 C39 C 0.66630 0.64066 0.35881
 C40 C 0.65762 0.65771 0.36724
 C41 C 0.64057 0.66642 0.35881
 C42 C 0.63214 0.65776 0.34172
 H43 H 0.66437 0.61913 0.33520
 H44 H 0.66425 0.66433 0.38035
 H45 H 0.61904 0.66451 0.33518
 C46 C 0.64137 0.14064 0.83358
 C47 C 0.65848 0.13221 0.84221
 C48 C 0.66728 0.14061 0.85930
 C49 C 0.65847 0.15768 0.86776
 C50 C 0.64137 0.16633 0.85936
 C51 C 0.63293 0.15766 0.84231
 H52 H 0.66503 0.11913 0.83544
 H53 H 0.66502 0.16441 0.88086
 H54 H 0.61980 0.16428 0.83571
 C55 C 1.14014 0.63994 0.83407
 C56 C 1.13170 0.65701 0.84275
 C57 C 1.14013 0.66570 0.85982
 C58 C 1.15718 0.65700 0.86827
 C59 C 1.16588 0.63994 0.85984
 C60 C 1.15720 0.63150 0.84277
 H61 H 1.11861 0.66366 0.83609
 H62 H 1.16382 0.66364 0.88136
 H63 H 1.16385 0.61841 0.83614
 C64 C 1.14172 0.14097 0.33222
 C65 C 1.15885 0.13257 0.34099
 C66 C 1.16759 0.14098 0.35811
 C67 C 1.15876 0.15803 0.36654
 C68 C 1.14169 0.16668 0.35811
 C69 C 1.13328 0.15803 0.34103
 H70 H 1.16551 0.11947 0.33434
 H71 H 1.16526 0.16475 0.37967
 H72 H 1.12016 0.16475 0.33451
 C73 C 0.64157 1.35923 0.66664
 C74 C 0.65867 1.36763 0.65799
 C75 C 0.66744 1.35921 0.64089
 C76 C 0.65861 1.34216 0.63244
 C77 C 0.64151 1.33353 0.64086
 C78 C 0.63310 1.34222 0.65791
 H79 H 0.66523 1.38070 0.66475
 H80 H 0.66513 1.33542 0.61933
 H81 H 0.61997 1.33562 0.66452
 C82 C 0.64022 0.85984 1.16597
 C83 C 0.65729 0.86826 1.15728
 C84 C 0.66598 0.85981 1.14023
 C85 C 0.65730 0.84274 1.13180
 C86 C 0.64023 0.83407 1.14024
 C87 C 0.63179 0.84277 1.15729
 H88 H 0.66393 0.88136 1.16392
 H89 H 0.66394 0.83609 1.11872
 H90 H 0.61869 0.83614 1.16393
 C91 C 1.14049 1.35947 1.16691
 C92 C 1.15758 1.36789 1.15813
 C93 C 1.16623 1.35948 1.14104
 C94 C 1.15754 1.34244 1.13259
 C95 C 1.14050 1.33374 1.14102
 C96 C 1.13207 1.34239 1.15811
 H97 H 1.16432 1.38098 1.16467
 H98 H 1.16416 1.33583 1.11947
 H99 H 1.11897 1.33564 1.16464
 C100 C 1.14157 0.85896 0.66652
 C101 C 1.13316 0.84191 0.65783
 C102 C 1.14160 0.83321 0.64079
 C103 C 1.15869 0.84187 0.63237
 C104 C 1.16746 0.85898 0.64078
 C105 C 1.15865 0.86740 0.65786
 H106 H 1.12005 0.83529 0.66445
 H107 H 1.16523 0.83513 0.61927
 H108 H 1.16517 0.88050 0.66460
 C109 C 0.35973 0.64022 0.66601
 C110 C 0.36814 0.65730 0.65733
 C111 C 0.35970 0.66599 0.64026
 C112 C 0.34266 0.65728 0.63181
 C113 C 0.33399 0.64021 0.64024
 C114 C 0.34268 0.63177 0.65731
 H115 H 0.38122 0.66395 0.66398
 H116 H 0.33601 0.66393 0.61871
 H117 H 0.33606 0.61867 0.66395
 C118 C 0.35964 0.14028 1.16685
 C119 C 0.34255 0.13186 1.15805
 C120 C 0.33391 0.14028 1.14095
 C121 C 0.34262 0.15732 1.13250
 C122 C 0.35966 0.16600 1.14094
 C123 C 0.36807 0.15735 1.15804
 H124 H 0.33580 0.11877 1.16460
 H125 H 0.33601 0.16394 1.11938
 H126 H 0.38117 0.16409 1.16459
 C127 C 0.85956 0.64047 1.16697
 C128 C 0.84247 0.63206 1.15818
 C129 C 0.83380 0.64050 1.14111
 C130 C 0.84248 0.65755 1.13267
 C131 C 0.85953 0.66624 1.14110
 C132 C 0.86797 0.65757 1.15818
 H133 H 0.83574 0.61895 1.16472
 H134 H 0.83585 0.66418 1.11956
 H135 H 0.88107 0.66430 1.16472
 C136 C 0.85778 0.14140 0.66793
 C137 C 0.84064 0.13302 0.65919
 C138 C 0.83189 0.14143 0.64207
 C139 C 0.84071 0.15848 0.63362
 C140 C 0.85779 0.16712 0.64203
 C141 C 0.86622 0.15845 0.65911
 H142 H 0.83399 0.11993 0.66585
 H143 H 0.83420 0.16520 0.62050
 H144 H 0.87935 0.16516 0.66561
 C145 C 1.35955 0.35883 0.66635
 C146 C 1.34252 0.36728 0.65764
 C147 C 1.33383 0.35887 0.64058
 C148 C 1.34249 0.34178 0.63216
 C149 C 1.35956 0.33296 0.64059
 C150 C 1.36798 0.34174 0.65770
 H151 H 1.33590 0.38040 0.66426
 H152 H 1.33575 0.33526 0.61905
 H153 H 1.38107 0.33518 0.66445
 C154 C 1.35951 0.85866 1.16633
 C155 C 1.34248 0.86710 1.15759
 C156 C 1.33378 0.85865 1.14056
 C157 C 1.34243 0.84154 1.13217
 C158 C 1.35950 0.83274 1.14063
 C159 C 1.36792 0.84155 1.15771
 H160 H 1.33587 0.88024 1.16418
 H161 H 1.33568 0.83499 1.11908
 H162 H 1.38101 0.83500 1.16448
 C163 C 0.85979 0.35877 1.16599
 C164 C 0.86819 0.34167 1.15735
 C165 C 0.85974 0.33286 1.14028
 C166 C 0.84265 0.34166 1.13186
 C167 C 0.83401 0.35876 1.14028
 C168 C 0.84274 0.36721 1.15730
 H169 H 0.88129 0.33513 1.16409
 H170 H 0.83588 0.33512 1.11878
 H171 H 0.83613 0.38033 1.16391
 C172 C 0.85981 0.85970 0.66582
 C173 C 0.86823 0.84263 0.65713
 C174 C 0.85978 0.83393 0.64008
 C175 C 0.84271 0.84264 0.63165
 C176 C 0.83404 0.85971 0.64008
 C177 C 0.84275 0.86814 0.65713
 H178 H 0.88133 0.83598 0.66377
 H179 H 0.83605 0.83599 0.61856
 H180 H 0.83612 0.88125 0.66377
 C181 C 0.64037 0.64030 0.66617
 C182 C 0.63192 0.65737 0.65749
 C183 C 0.64034 0.66607 0.64042
 C184 C 0.65739 0.65738 0.63196
 C185 C 0.66609 0.64031 0.64039
 C186 C 0.65742 0.63186 0.65746
 H187 H 0.61883 0.66401 0.66414
 H188 H 0.66402 0.66402 0.61886
 H189 H 0.66407 0.61876 0.66410
 C190 C 0.64059 1.14106 1.16624
 C191 C 0.65764 1.13263 1.15755
 C192 C 0.66635 1.14109 1.14052
 C193 C 0.65770 1.15819 1.13210
 C194 C 0.64060 1.16697 1.14052
 C195 C 0.63217 1.15816 1.15759
 H196 H 0.66426 1.11951 1.16417
 H197 H 0.66445 1.16474 1.11901
 H198 H 0.61907 1.16469 1.16433
 C199 C 0.14131 0.64188 1.16775
 C200 C 0.13291 0.65902 1.15900
 C201 C 0.14134 0.66778 1.14189
 C202 C 0.15841 0.65897 1.13347
 C203 C 0.16705 0.64189 1.14189
 C204 C 0.15838 0.63346 1.15895
 H205 H 0.11981 0.66567 1.16563
 H206 H 0.16514 0.66549 1.12036
 H207 H 0.16508 0.62032 1.16546
 C208 C 0.14017 1.14089 0.66592
 C209 C 0.15720 1.13245 0.65721
 C210 C 0.16588 1.14088 0.64016
 C211 C 0.15722 1.15797 0.63173
 C212 C 0.14015 1.16677 0.64017
 C213 C 0.13174 1.15799 0.65727
 H214 H 0.16382 1.11933 0.66383
 H215 H 0.16396 1.16450 0.61863
 H216 H 0.11865 1.16454 0.66402
 C217 C 1.35937 0.64143 0.33373
 C218 C 1.34234 0.63298 0.34243
 C219 C 1.33361 0.64143 0.35944
 C220 C 1.34221 0.65855 0.36784
 C221 C 1.35930 0.66736 0.35942
 C222 C 1.36775 0.65855 0.34235
 H223 H 1.33576 0.61984 0.33583
 H224 H 1.33544 0.66510 0.38092
 H225 H 1.38084 0.66509 0.33561
 C226 C 1.35934 1.14145 0.83358
 C227 C 1.34230 1.13300 0.84228
 C228 C 1.33361 1.14142 0.85933
 C229 C 1.34226 1.15851 0.86776
 C230 C 1.35934 1.16731 0.85934
 C231 C 1.36776 1.15853 0.84224
 H232 H 1.33569 1.11989 0.83565
 H233 H 1.33552 1.16503 0.88087
 H234 H 1.38085 1.16508 0.83549
 C235 C 0.85969 0.64023 0.83383
 C236 C 0.86812 0.65729 0.84251
 C237 C 0.85970 0.66599 0.85957
 C238 C 0.84265 0.65730 0.86803
 C239 C 0.83396 0.64023 0.85961
 C240 C 0.84263 0.63179 0.84254
 H241 H 0.88121 0.66394 0.83585
 H242 H 0.83602 0.66394 0.88113
 H243 H 0.83599 0.61870 0.83591
 C244 C 0.86017 1.13972 0.33438
 C245 C 0.84309 1.13131 0.34306
 C246 C 0.83440 1.13976 0.36012
 C247 C 0.84310 1.15681 0.36856
 C248 C 0.86018 1.16548 0.36013
 C249 C 0.86861 1.15677 0.34308
 H250 H 0.83644 1.11823 0.33641
 H251 H 0.83646 1.16346 0.38164
 H252 H 0.88172 1.16340 0.33644
 C253 C 0.64103 0.35828 0.33263
 C254 C 0.63262 0.34117 0.34139
 C255 C 0.64104 0.33240 0.35850
 C256 C 0.65813 0.34118 0.36690
 C257 C 0.66679 0.35824 0.35847
 C258 C 0.65811 0.36668 0.34141
 H259 H 0.61950 0.33455 0.33476
 H260 H 0.66487 0.33465 0.38002
 H261 H 0.66483 0.37980 0.33489
 C262 C 0.64024 0.85971 0.83404
 C263 C 0.63182 0.84265 0.84273
 C264 C 0.64027 0.83395 0.85979
 C265 C 0.65734 0.84264 0.86822
 C266 C 0.66602 0.85970 0.85978
 C267 C 0.65731 0.86815 0.84272
 H268 H 0.61872 0.83601 0.83610
 H269 H 0.66399 0.83599 0.88131
 H270 H 0.66394 0.88124 0.83608
 C271 C 0.14086 0.35920 0.83262
 C272 C 0.13242 0.34212 0.84143
 C273 C 0.14082 0.33348 0.85854
 C274 C 0.15786 0.34217 0.86699
 C275 C 0.16658 0.35920 0.85854
 C276 C 0.15794 0.36761 0.84143
 H277 H 0.11932 0.33538 0.83489
 H278 H 0.16446 0.33556 0.88012
 H279 H 0.16470 0.38070 0.83488
 C280 C 0.14057 0.85935 0.33285
 C281 C 0.13216 0.84225 0.34163
 C282 C 0.14059 0.83359 0.35872
 C283 C 0.15761 0.84230 0.36718
 C284 C 0.16629 0.85936 0.35876
 C285 C 0.15763 0.86779 0.34167
 H286 H 0.11908 0.83549 0.33507
 H287 H 0.16423 0.83568 0.38030
 H288 H 0.16436 0.88090 0.33514
 O289 O 0.98072 0.92822 0.90080
 O290 O 0.98070 0.90509 0.87751
 C291 C 0.97394 0.92128 0.88457
 C292 C 0.95771 0.93195 0.87410
 C293 C 0.95112 0.92556 0.85532
 H294 H 0.95841 0.91306 0.84822
 O295 O 1.01938 1.07181 0.90076
 O296 O 1.01941 1.09497 0.87749
 C297 C 1.02618 1.07877 0.88455
 C298 C 1.04242 1.06812 0.87409
 C299 C 1.04902 1.07453 0.85532
 H300 H 1.04172 1.08703 0.84822
 O301 O 0.90100 0.98063 0.92808
 O302 O 0.87770 0.98058 0.90495
 C303 C 0.88478 0.97383 0.92115
 C304 C 0.87434 0.95759 0.93182
 C305 C 0.85556 0.95099 0.92544
 H306 H 0.84844 0.95828 0.91294
 O307 O 1.09922 1.01943 0.92808
 O308 O 1.12250 1.01947 0.90494
 C309 C 1.11544 1.02623 0.92114
 C310 C 1.12589 1.04247 0.93179
 C311 C 1.14463 1.04913 0.92536
 H312 H 1.15173 1.04188 0.91284
 O313 O 0.92833 0.90085 0.98055
 O314 O 0.90520 0.87757 0.98052
 C315 C 0.92138 0.88463 0.97375
 C316 C 0.93203 0.87419 0.95751
 C317 C 0.92563 0.85541 0.95090
 H318 H 0.91314 0.84831 0.95819
 O319 O 1.07187 1.09911 0.98052
 O320 O 1.09499 1.12240 0.98049
 C321 C 1.07881 1.11533 0.97372
 C322 C 1.06815 1.12578 0.95746
 C323 C 1.07459 1.14453 0.95080
 H324 H 1.08711 1.15162 0.95806
 O325 O 0.92815 1.01950 0.90076
 O326 O 0.90497 1.01949 0.87750
 C327 C 0.92116 1.02629 0.88454
 C328 C 0.93175 1.04256 0.87408
 C329 C 0.92518 1.04930 0.85540
 H330 H 0.91261 1.04208 0.84836
 O331 O 1.07199 0.98060 0.90081
 O332 O 1.09513 0.98060 0.87754
 C333 C 1.07894 0.97382 0.88459
 C334 C 1.06831 0.95758 0.87412
 C335 C 1.07478 0.95092 0.85539
 H336 H 1.08732 0.95817 0.84832
 O337 O 1.01953 0.90092 0.92807
 O338 O 1.01954 0.87764 0.90492
 C339 C 1.02631 0.88469 0.92113
 C340 C 1.04251 0.87419 0.93181
 C341 C 1.04908 0.85540 0.92543
 H342 H 1.04179 0.84831 0.91291
 O343 O 0.98058 1.09910 0.92802
 O344 O 0.98057 1.12241 0.90489
 C345 C 0.97380 1.11534 0.92108
 C346 C 0.95759 1.12581 0.93176
 C347 C 0.95094 1.14457 0.92533
 H348 H 0.95818 1.15166 0.91280
 O349 O 0.90093 1.07187 0.98052
 O350 O 0.87766 1.09503 0.98051
 C351 C 0.88471 1.07883 0.97374
 C352 C 0.87424 1.06820 0.95749
 C353 C 0.85550 1.07466 0.95083
 H354 H 0.84842 1.08719 0.95808
 O355 O 1.09921 0.92806 0.98054
 O356 O 1.12250 0.90492 0.98050
 C357 C 1.11542 0.92111 0.97374
 C358 C 1.12588 0.93177 0.95749
 C359 C 1.14461 0.92531 0.95082
 H360 H 1.15169 0.91276 0.95806
 O361 O 0.98055 1.07191 0.90069
 O362 O 0.98053 1.09508 0.87743
 C363 C 0.97374 1.07889 0.88448
 C364 C 0.95746 1.06829 0.87404
 C365 C 0.95069 1.07483 0.85535
 H366 H 0.95788 1.08741 0.84829
 O367 O 1.01955 0.92817 0.90078
 O368 O 1.01957 0.90503 0.87750
 C369 C 1.02635 0.92121 0.88456
 C370 C 1.04259 0.93185 0.87411
 C371 C 1.04927 0.92539 0.85538
 H372 H 1.04203 0.91286 0.84829
 O373 O 1.09922 0.98059 0.92810
 O374 O 1.12250 0.98059 0.90496
 C375 C 1.11544 0.97380 0.92115
 C376 C 1.12589 0.95754 0.93179
 C377 C 1.14462 0.95086 0.92532
 H378 H 1.15171 0.95813 0.91279
 O379 O 0.90094 1.01947 0.92806
 O380 O 0.87763 1.01945 0.90494
 C381 C 0.88470 1.02624 0.92112
 C382 C 0.87424 1.04247 0.93177
 C383 C 0.85550 1.04914 0.92531
 H384 H 0.84842 1.04188 0.91278
 O385 O 0.92821 1.09910 0.98054
 O386 O 0.90508 1.12239 0.98053
 C387 C 0.92126 1.11533 0.97376
 C388 C 0.93190 1.12580 0.95752
 C389 C 0.92546 1.14456 0.95090
 H390 H 0.91295 1.15164 0.95818
 O391 O 1.07193 0.90082 0.98058
 O392 O 1.09508 0.87754 0.98054
 C393 C 1.07888 0.88460 0.97379
 C394 C 1.06821 0.87415 0.95756
 C395 C 1.07458 0.85535 0.95098
 H396 H 1.08707 0.84823 0.95827
 O397 O 1.07194 1.01943 0.90082
 O398 O 1.09509 1.01947 0.87755
 C399 C 1.07888 1.02622 0.88460
 C400 C 1.06820 1.04244 0.87412
 C401 C 1.07460 1.04906 0.85534
 H402 H 1.08713 1.04181 0.84825
 O403 O 0.92824 0.98067 0.90079
 O404 O 0.90507 0.98062 0.87753
 C405 C 0.92129 0.97387 0.88458
 C406 C 0.93197 0.95766 0.87410
 C407 C 0.92557 0.95107 0.85532
 H408 H 0.91306 0.95835 0.84822
 O409 O 1.01940 1.09908 0.92800
 O410 O 1.01943 1.12238 0.90487
 C411 C 1.02620 1.11530 0.92106
 C412 C 1.04244 1.12576 0.93172
 C413 C 1.04908 1.14451 0.92527
 H414 H 1.04182 1.15158 0.91273
 O415 O 0.98072 0.90092 0.92804
 O416 O 0.98069 0.87765 0.90488
 C417 C 0.97393 0.88470 0.92108
 C418 C 0.95772 0.87422 0.93175
 C419 C 0.95111 0.85545 0.92534
 H420 H 0.95837 0.84837 0.91281
 O421 O 1.09916 1.07188 0.98054
 O422 O 1.12242 1.09503 0.98052
 C423 C 1.11537 1.07883 0.97375
 C424 C 1.12585 1.06818 0.95752
 C425 C 1.14459 1.07464 0.95089
 H426 H 1.15166 1.08717 0.95816
 O427 O 0.90108 0.92812 0.98055
 O428 O 0.87781 0.90498 0.98052
 C429 C 0.88486 0.92118 0.97376
 C430 C 0.87438 0.93185 0.95754
 C431 C 0.85559 0.92546 0.95096
 H432 H 0.84851 0.91295 0.95824
 Cu433 Cu 1.00013 0.91688 0.91674
 Cu434 Cu 1.00013 0.88902 0.88887
 Cu435 Cu 0.99997 1.08315 0.91668
 Cu436 Cu 0.99999 1.11104 0.88883
 Cu437 Cu 0.91691 1.00007 0.91674
 Cu438 Cu 0.88901 1.00003 0.88890
 Cu439 Cu 1.08328 1.00001 0.91677
 Cu440 Cu 1.11114 1.00003 0.88892
 C441 C 0.94816 0.94813 0.88327
 H442 H 0.95300 0.95296 0.89788
 C443 C 0.93506 0.93503 0.84576
 C444 C 1.05198 1.05194 0.88327
 H445 H 1.04714 1.04708 0.89786
 C446 C 1.06510 1.06510 0.84578
 C447 C 0.88353 0.94804 0.94800
 H448 H 0.89813 0.95289 0.95283
 C449 C 0.84602 0.93494 0.93492
 C450 C 1.11672 1.05198 0.94800
 H451 H 1.10214 1.04709 0.95286
 C452 C 1.15415 1.06521 0.93482
 C453 C 0.94820 0.88337 0.94796
 H454 H 0.95305 0.89796 0.95282
 C455 C 0.93508 0.84588 0.93482
 C456 C 1.05195 1.11662 0.94794
 H457 H 1.04708 1.10204 0.95283
 C458 C 1.06514 1.15405 0.93471
 C459 C 0.94801 1.05203 0.88317
 H460 H 0.95299 1.04708 0.89769
 C461 C 0.93455 1.06543 0.84588
 C462 C 1.05209 0.94807 0.88326
 H463 H 1.04719 0.95296 0.89782
 C464 C 1.06536 0.93483 0.84586
 C465 C 1.05205 0.88334 0.94800
 H466 H 1.04723 0.89795 0.95283
 C467 C 1.06510 0.84581 0.93492
 C468 C 0.94809 1.11664 0.94797
 H469 H 0.95297 1.10206 0.95284
 C470 C 0.93488 1.15410 0.93481
 C471 C 0.88339 1.05198 0.94798
 H472 H 0.89796 1.04709 0.95287
 C473 C 0.84597 1.06522 0.93475
 C474 C 1.11674 0.94801 0.94800
 H475 H 1.10218 0.95290 0.95289
 C476 C 1.15414 0.93476 0.93475
 O477 O 1.01961 0.92806 1.09909
 O478 O 1.01961 0.90493 1.12239
 C479 C 1.02639 0.92112 1.11532
 C480 C 1.04261 0.93178 1.12579
 C481 C 1.04926 0.92533 1.14455
 H482 H 1.04200 0.91280 1.15163
 O483 O 0.98076 1.07176 1.09912
 O484 O 0.98072 1.09489 1.12241
 C485 C 0.97397 1.07869 1.11535
 C486 C 0.95776 1.06801 1.12581
 C487 C 0.95120 1.07435 1.14462
 H488 H 0.95850 1.08683 1.15175
 O489 O 0.90097 1.01939 1.07180
 O490 O 0.87771 1.01940 1.09496
 C491 C 0.88475 1.02618 1.07877
 C492 C 0.87428 1.04242 1.06812
 C493 C 0.85552 1.04906 1.07456
 H494 H 0.84844 1.04181 1.08709
 O495 O 1.09925 0.98053 1.07184
 O496 O 1.12256 0.98050 1.09497
 C497 C 1.11548 0.97374 1.07878
 C498 C 1.12594 0.95751 1.06811
 C499 C 1.14470 0.95086 1.07453
 H500 H 1.15180 0.95811 1.08705
 O501 O 1.07204 0.90075 1.01942
 O502 O 1.09520 0.87749 1.01942
 C503 C 1.07902 0.88454 1.02622
 C504 C 1.06841 0.87409 1.04250
 C505 C 1.07495 0.85539 1.04925
 H506 H 1.08751 0.84833 1.04203
 O507 O 0.92822 1.09907 1.01938
 O508 O 0.90508 1.12236 1.01941
 C509 C 0.92127 1.11529 1.02618
 C510 C 0.93193 1.12573 1.04243
 C511 C 0.92549 1.14449 1.04907
 H512 H 0.91297 1.15158 1.04179
 O513 O 0.92828 0.98055 1.09900
 O514 O 0.90516 0.98051 1.12230
 C515 C 0.92135 0.97375 1.11523
 C516 C 0.93203 0.95753 1.12570
 C517 C 0.92565 0.95095 1.14450
 H518 H 0.91314 0.95824 1.15159
 O519 O 1.07202 1.01937 1.09912
 O520 O 1.09519 1.01938 1.12238
 C521 C 1.07900 1.02617 1.11533
 C522 C 1.06838 1.04243 1.12579
 C523 C 1.07490 1.04914 1.14449
 H524 H 1.08747 1.04190 1.15155
 O525 O 0.98080 0.90079 1.07182
 O526 O 0.98077 0.87753 1.09499
 C527 C 0.97401 0.88458 1.07878
 C528 C 0.95777 0.87412 1.06813
 C529 C 0.95113 0.85537 1.07458
 H530 H 0.95840 0.84828 1.08711
 O531 O 1.01952 1.09907 1.07184
 O532 O 1.01951 1.12235 1.09499
 C533 C 1.02628 1.11530 1.07879
 C534 C 1.04249 1.12579 1.06812
 C535 C 1.04910 1.14455 1.07455
 H536 H 1.04183 1.15162 1.08708
 O537 O 0.90106 0.92808 1.01938
 O538 O 0.87778 0.90494 1.01939
 C539 C 0.88483 0.92114 1.02615
 C540 C 0.87435 0.93180 1.04236
 C541 C 0.85557 0.92541 1.04896
 H542 H 0.84848 0.91289 1.04168
 O543 O 1.09916 1.07187 1.01937
 O544 O 1.12242 1.09502 1.01938
 C545 C 1.11538 1.07882 1.02616
 C546 C 1.12586 1.06815 1.04238
 C547 C 1.14462 1.07457 1.04901
 H548 H 1.15171 1.08710 1.04175
 O549 O 1.01959 1.07183 1.09914
 O550 O 1.01959 1.09498 1.12242
 C551 C 1.02638 1.07879 1.11536
 C552 C 1.04266 1.06817 1.12580
 C553 C 1.04939 1.07467 1.14451
 H554 H 1.04217 1.08723 1.15158
 O555 O 0.98079 0.92807 1.09905
 O556 O 0.98075 0.90495 1.12236
 C557 C 0.97399 0.92114 1.11528
 C558 C 0.95776 0.93181 1.12573
 C559 C 0.95118 0.92543 1.14453
 H560 H 0.95847 0.91294 1.15164
 O561 O 1.09921 1.01936 1.07181
 O562 O 1.12252 1.01937 1.09493
 C563 C 1.11544 1.02615 1.07874
 C564 C 1.12588 1.04239 1.06808
 C565 C 1.14465 1.04901 1.07450
 H566 H 1.15175 1.04172 1.08701
 O567 O 0.90100 0.98057 1.07176
 O568 O 0.87773 0.98053 1.09492
 C569 C 0.88479 0.97377 1.07872
 C570 C 0.87433 0.95755 1.06806
 C571 C 0.85554 0.95095 1.07445
 H572 H 0.84844 0.95824 1.08695
 O573 O 1.07190 1.09915 1.01936
 O574 O 1.09503 1.12243 1.01937
 C575 C 1.07884 1.11537 1.02614
 C576 C 1.06819 1.12583 1.04238
 C577 C 1.07460 1.14459 1.04901
 H578 H 1.08711 1.15169 1.04174
 O579 O 0.92833 0.90082 1.01939
 O580 O 0.90519 0.87754 1.01940
 C581 C 0.92138 0.88460 1.02618
 C582 C 0.93203 0.87412 1.04241
 C583 C 0.92559 0.85537 1.04907
 H584 H 0.91306 0.84829 1.04181
 O585 O 1.07200 0.98054 1.09911
 O586 O 1.09517 0.98051 1.12237
 C587 C 1.07897 0.97374 1.11533
 C588 C 1.06833 0.95750 1.12580
 C589 C 1.07477 0.95086 1.14456
 H590 H 1.08729 0.95812 1.15164
 O591 O 0.92827 1.01936 1.09903
 O592 O 0.90514 1.01936 1.12233
 C593 C 0.92134 1.02612 1.11527
 C594 C 0.93202 1.04231 1.12577
 C595 C 0.92566 1.04886 1.14458
 H596 H 0.91316 1.04156 1.15168
 O597 O 0.98070 1.09904 1.07187
 O598 O 0.98065 1.12231 1.09502
 C599 C 0.97389 1.11525 1.07883
 C600 C 0.95764 1.12571 1.06817
 C601 C 0.95100 1.14447 1.07460
 H602 H 0.95826 1.15155 1.08713
 O603 O 1.01963 0.90078 1.07185
 O604 O 1.01964 0.87752 1.09503
 C605 C 1.02643 0.88456 1.07883
 C606 C 1.04269 0.87410 1.06822
 C607 C 1.04942 0.85541 1.07477
 H608 H 1.04220 0.84837 1.08734
 O609 O 1.09921 0.92809 1.01938
 O610 O 1.12251 0.90496 1.01937
 C611 C 1.11544 0.92115 1.02615
 C612 C 1.12592 0.93180 1.04237
 C613 C 1.14468 0.92536 1.04899
 H614 H 1.15176 0.91284 1.04172
 O615 O 0.90095 1.07183 1.01936
 O616 O 0.87767 1.09499 1.01938
 C617 C 0.88473 1.07879 1.02615
 C618 C 0.87427 1.06814 1.04238
 C619 C 0.85552 1.07458 1.04902
 H620 H 0.84843 1.08711 1.04175
 Cu621 Cu 1.00021 0.91674 1.08313
 Cu622 Cu 1.00019 0.88890 1.11103
 Cu623 Cu 1.00014 1.08311 1.08318
 Cu624 Cu 1.00011 1.11096 1.11104
 Cu625 Cu 0.91702 0.91678 0.99997
 Cu626 Cu 0.88916 0.88892 0.99996
 Cu627 Cu 1.08327 0.91674 0.99998
 Cu628 Cu 1.11116 0.88889 0.99995
 Cu629 Cu 0.91690 1.08315 0.99995
 Cu630 Cu 0.88904 1.11103 0.99996
 Cu631 Cu 1.08320 1.08318 0.99995
 Cu632 Cu 1.11105 1.11105 0.99994
 Cu633 Cu 0.91694 0.99997 1.08308
 Cu634 Cu 0.88910 0.99994 1.11096
 Cu635 Cu 1.08330 0.99995 1.08315
 Cu636 Cu 1.11119 0.99994 1.11099
 C637 C 1.05213 0.94798 1.11664
 H638 H 1.04725 0.95286 1.10206
 C639 C 1.06532 0.93478 1.15409
 C640 C 0.94820 1.05186 1.11661
 H641 H 0.95301 1.04706 1.10199
 C642 C 0.93516 1.06486 1.15417
 C643 C 0.88342 1.05194 1.05191
 H644 H 0.89800 1.04706 1.04704
 C645 C 0.84598 1.06514 1.06510
 C646 C 1.11677 0.94800 1.05191
 H647 H 1.10218 0.95287 1.04705
 C648 C 1.15423 0.93479 1.06506
 C649 C 1.05217 0.88321 1.05197
 H650 H 1.04722 0.89774 1.04701
 C651 C 1.06554 0.84590 1.06538
 C652 C 0.94812 1.11657 1.05196
 H653 H 0.95300 1.10199 1.04708
 C654 C 0.93493 1.15402 1.06514
 C655 C 0.94821 0.94798 1.11654
 H656 H 0.95304 0.95281 1.10193
 C657 C 0.93513 0.93492 1.15407
 C658 C 1.05213 1.05192 1.11667
 H659 H 1.04719 1.04700 1.10213
 C660 C 1.06551 1.06525 1.15401
 C661 C 0.94824 0.88327 1.05193
 H662 H 0.95312 0.89784 1.04704
 C663 C 0.93505 0.84583 1.06514
 C664 C 1.05201 1.11665 1.05191
 H665 H 1.04716 1.10207 1.04705
 C666 C 1.06514 1.15411 1.06509
 C667 C 0.88351 0.94800 1.05189
 H668 H 0.89810 0.95284 1.04706
 C669 C 0.84600 0.93490 1.06499
 C670 C 1.11671 1.05194 1.05190
 H671 H 1.10212 1.04708 1.04704
 C672 C 1.15418 1.06509 1.06506
 O673 O 0.98072 0.42798 0.40072
 O674 O 0.98068 0.40482 0.37746
 C675 C 0.97392 0.42102 0.38451
 C676 C 0.95769 0.43168 0.37403
 C677 C 0.95109 0.42525 0.35526
 H678 H 0.95838 0.41274 0.34817
 O679 O 1.01949 0.57168 0.40059
 O680 O 1.01946 0.59485 0.37732
 C681 C 1.02627 0.57866 0.38437
 C682 C 1.04254 0.56806 0.37391
 C683 C 1.04926 0.57461 0.35523
 H684 H 1.04202 0.58718 0.34818
 O685 O 0.90091 0.48036 0.42792
 O686 O 0.87765 0.48033 0.40476
 C687 C 0.88470 0.47356 0.42096
 C688 C 0.87425 0.45731 0.43160
 C689 C 0.85554 0.45061 0.42512
 H690 H 0.84847 0.45784 0.41256
 O691 O 1.09919 0.51927 0.42788
 O692 O 1.12248 0.51929 0.40476
 C693 C 1.11541 0.52606 0.42095
 C694 C 1.12586 0.54229 0.43162
 C695 C 1.14461 0.54896 0.42520
 H696 H 1.15172 0.54172 0.41267
 O697 O 0.92824 0.40075 0.48051
 O698 O 0.90513 0.37745 0.48047
 C699 C 0.92133 0.38452 0.47372
 C700 C 0.93203 0.37406 0.45752
 C701 C 0.92568 0.35525 0.45097
 H702 H 0.91320 0.34813 0.45827
 O703 O 1.07185 0.59897 0.48037
 O704 O 1.09499 0.62224 0.48035
 C705 C 1.07880 0.61518 0.47358
 C706 C 1.06815 0.62564 0.45733
 C707 C 1.07458 0.64440 0.45068
 H708 H 1.08710 0.65149 0.45794
 O709 O 0.92816 0.51921 0.40066
 O710 O 0.90502 0.51922 0.37737
 C711 C 0.92121 0.52600 0.38443
 C712 C 0.93186 0.54223 0.37396
 C713 C 0.92542 0.54888 0.35520
 H714 H 0.91289 0.54163 0.34812
 O715 O 1.07193 0.48046 0.40062
 O716 O 1.09508 0.48044 0.37734
 C717 C 1.07888 0.47367 0.38440
 C718 C 1.06824 0.45743 0.37395
 C719 C 1.07466 0.45078 0.35519
 H720 H 1.08718 0.45805 0.34810
 O721 O 1.01957 0.40070 0.42795
 O722 O 1.01957 0.37742 0.40481
 C723 C 1.02636 0.38447 0.42099
 C724 C 1.04261 0.37400 0.43163
 C725 C 1.04929 0.35528 0.42514
 H726 H 1.04205 0.34822 0.41259
 O727 O 0.98064 0.59887 0.42789
 O728 O 0.98058 0.62217 0.40476
 C729 C 0.97383 0.61510 0.42095
 C730 C 0.95762 0.62555 0.43163
 C731 C 0.95103 0.64436 0.42527
 H732 H 0.95831 0.65147 0.41277
 O733 O 0.90088 0.57162 0.48037
 O734 O 0.87761 0.59478 0.48033
 C735 C 0.88467 0.57858 0.47357
 C736 C 0.87420 0.56793 0.45733
 C737 C 0.85545 0.57437 0.45069
 H738 H 0.84836 0.58690 0.45795
 O739 O 1.09923 0.42795 0.48036
 O740 O 1.12251 0.40481 0.48036
 C741 C 1.11545 0.42100 0.47357
 C742 C 1.12589 0.43164 0.45731
 C743 C 1.14462 0.42517 0.45061
 H744 H 1.15170 0.41262 0.45785
 O745 O 0.98065 0.57162 0.40062
 O746 O 0.98059 0.59479 0.37735
 C747 C 0.97384 0.57858 0.38441
 C748 C 0.95760 0.56793 0.37395
 C749 C 0.95095 0.57438 0.35519
 H750 H 0.95822 0.58690 0.34810
 O751 O 1.01954 0.42798 0.40070
 O752 O 1.01954 0.40484 0.37743
 C753 C 1.02632 0.42103 0.38448
 C754 C 1.04253 0.43168 0.37399
 C755 C 1.04917 0.42524 0.35523
 H756 H 1.04191 0.41270 0.34816
 O757 O 1.09919 0.48044 0.42788
 O758 O 1.12247 0.48041 0.40474
 C759 C 1.11541 0.47364 0.42093
 C760 C 1.12587 0.45738 0.43158
 C761 C 1.14459 0.45070 0.42510
 H762 H 1.15165 0.45796 0.41255
 O763 O 0.90090 0.51919 0.42792
 O764 O 0.87762 0.51921 0.40476
 C765 C 0.88467 0.52598 0.42096
 C766 C 0.87421 0.54221 0.43161
 C767 C 0.85545 0.54885 0.42517
 H768 H 0.84836 0.54159 0.41264
 O769 O 0.92817 0.59884 0.48037
 O770 O 0.90504 0.62213 0.48034
 C771 C 0.92123 0.61507 0.47358
 C772 C 0.93190 0.62554 0.45736
 C773 C 0.92552 0.64434 0.45079
 H774 H 0.91302 0.65144 0.45809
 O775 O 1.07201 0.40066 0.48038
 O776 O 1.09516 0.37739 0.48038
 C777 C 1.07897 0.38444 0.47360
 C778 C 1.06833 0.37398 0.45735
 C779 C 1.07482 0.35526 0.45066
 H780 H 1.08737 0.34819 0.45790
 O781 O 1.07197 0.51930 0.40057
 O782 O 1.09513 0.51932 0.37731
 C783 C 1.07894 0.52610 0.38436
 C784 C 1.06830 0.54236 0.37390
 C785 C 1.07482 0.54912 0.35521
 H786 H 1.08740 0.54192 0.34815
 O787 O 0.92819 0.48039 0.40068
 O788 O 0.90506 0.48036 0.37738
 C789 C 0.92125 0.47360 0.38445
 C790 C 0.93193 0.45738 0.37399
 C791 C 0.92554 0.45075 0.35522
 H792 H 0.91302 0.45800 0.34811
 O793 O 1.01946 0.59891 0.42787
 O794 O 1.01943 0.62221 0.40474
 C795 C 1.02622 0.61515 0.42093
 C796 C 1.04244 0.62562 0.43158
 C797 C 1.04907 0.64438 0.42514
 H798 H 1.04181 0.65145 0.41260
 O799 O 0.98075 0.40076 0.42803
 O800 O 0.98071 0.37747 0.40491
 C801 C 0.97396 0.38453 0.42111
 C802 C 0.95775 0.37406 0.43180
 C803 C 0.95120 0.35525 0.42545
 H804 H 0.95850 0.34813 0.41296
 O805 O 1.09910 0.57169 0.48037
 O806 O 1.12238 0.59483 0.48036
 C807 C 1.11532 0.57864 0.47359
 C808 C 1.12580 0.56800 0.45736
 C809 C 1.14455 0.57445 0.45074
 H810 H 1.15161 0.58698 0.45803
 O811 O 0.90091 0.42795 0.48045
 O812 O 0.87766 0.40478 0.48040
 C813 C 0.88471 0.42098 0.47363
 C814 C 0.87426 0.43161 0.45736
 C815 C 0.85554 0.42511 0.45067
 H816 H 0.84847 0.41257 0.45792
 Cu817 Cu 1.00015 0.41667 0.41667
 Cu818 Cu 1.00012 0.38880 0.38882
 Cu819 Cu 1.00006 0.58295 0.41656
 Cu820 Cu 1.00001 0.61084 0.38871
 Cu821 Cu 0.91686 0.49979 0.41661
 Cu822 Cu 0.88900 0.49978 0.38873
 Cu823 Cu 1.08325 0.49987 0.41655
 Cu824 Cu 1.11113 0.49986 0.38871
 C825 C 0.94813 0.44786 0.38318
 H826 H 0.95297 0.45272 0.39777
 C827 C 0.93503 0.43470 0.34569
 C828 C 1.05204 0.55182 0.38303
 H829 H 1.04711 0.54686 0.39756
 C830 C 1.06540 0.56524 0.34572
 C831 C 0.88339 0.44783 0.44785
 H832 H 0.89794 0.45274 0.45276
 C833 C 0.84602 0.43452 0.43456
 C834 C 1.11668 0.55179 0.44782
 H835 H 1.10210 0.54691 0.45268
 C836 C 1.15412 0.56503 0.43468
 C837 C 0.94819 0.38325 0.44796
 H838 H 0.95299 0.39787 0.45277
 C839 C 0.93518 0.34568 0.43495
 C840 C 1.05196 0.61648 0.44780
 H841 H 1.04709 0.60190 0.45268
 C842 C 1.06513 0.65393 0.43459
 C843 C 0.94808 0.55174 0.38311
 H844 H 0.95295 0.54686 0.39769
 C845 C 0.93487 0.56494 0.34566
 C846 C 1.05205 0.44790 0.38312
 H847 H 1.04718 0.45278 0.39770
 C848 C 1.06522 0.43470 0.34568
 C849 C 1.05210 0.38313 0.44786
 H850 H 1.04720 0.39768 0.45277
 C851 C 1.06539 0.34575 0.43456
 C852 C 0.94807 0.61637 0.44781
 H853 H 0.95290 0.60176 0.45263
 C854 C 0.93499 0.65391 0.43476
 C855 C 0.88336 0.55173 0.44781
 H856 H 0.89793 0.54685 0.45269
 C857 C 0.84591 0.56492 0.43462
 C858 C 1.11674 0.44787 0.44781
 H859 H 1.10219 0.45277 0.45272
 C860 C 1.15413 0.43461 0.43452
 O861 O 1.01948 0.42790 0.59902
 O862 O 1.01953 0.40474 0.62229
 C863 C 1.02629 0.42094 0.61523
 C864 C 1.04254 0.43158 0.62568
 C865 C 1.04922 0.42511 0.64442
 H866 H 1.04198 0.41258 0.65151
 O867 O 0.98064 0.57167 0.59889
 O868 O 0.98060 0.59480 0.62218
 C869 C 0.97384 0.57861 0.61511
 C870 C 0.95762 0.56794 0.62558
 C871 C 0.95102 0.57435 0.64436
 H872 H 0.95829 0.58686 0.65145
 O873 O 0.90090 0.51918 0.57167
 O874 O 0.87764 0.51922 0.59482
 C875 C 0.88468 0.52597 0.57862
 C876 C 0.87421 0.54220 0.56795
 C877 C 0.85544 0.54882 0.57436
 H878 H 0.84835 0.54155 0.58688
 O879 O 1.09917 0.48036 0.57169
 O880 O 1.12246 0.48035 0.59483
 C881 C 1.11541 0.47358 0.57864
 C882 C 1.12589 0.45737 0.56797
 C883 C 1.14465 0.45074 0.57440
 H884 H 1.15174 0.45800 0.58693
 O885 O 1.07196 0.40072 0.51921
 O886 O 1.09510 0.37744 0.51926
 C887 C 1.07890 0.38450 0.52602
 C888 C 1.06824 0.37404 0.54225
 C889 C 1.07465 0.35526 0.54888
 H890 H 1.08717 0.34817 0.54161
 O891 O 0.92814 0.59887 0.51920
 O892 O 0.90500 0.62216 0.51920
 C893 C 0.92120 0.61510 0.52597
 C894 C 0.93187 0.62558 0.54219
 C895 C 0.92546 0.64436 0.54878
 H896 H 0.91294 0.65146 0.54151
 O897 O 0.92819 0.48036 0.59894
 O898 O 0.90506 0.48036 0.62223
 C899 C 0.92125 0.47358 0.61517
 C900 C 0.93190 0.45735 0.62565
 C901 C 0.92544 0.45071 0.64440
 H902 H 0.91291 0.45798 0.65146
 O903 O 1.07188 0.51916 0.59895
 O904 O 1.09503 0.51919 0.62223
 C905 C 1.07883 0.52595 0.61517
 C906 C 1.06816 0.54217 0.62563
 C907 C 1.07454 0.54875 0.64443
 H908 H 1.08704 0.54146 0.65154
 O909 O 0.98062 0.40065 0.57178
 O910 O 0.98063 0.37737 0.59493
 C911 C 0.97383 0.38444 0.57874
 C912 C 0.95756 0.37400 0.56812
 C913 C 0.95082 0.35531 0.57466
 H914 H 0.95804 0.34824 0.58722
 O915 O 1.01947 0.59896 0.57168
 O916 O 1.01948 0.62223 0.59483
 C917 C 1.02626 0.61518 0.57864
 C918 C 1.04250 0.62564 0.56800
 C919 C 1.04919 0.64436 0.57448
 H920 H 1.04196 0.65144 0.58703
 O921 O 0.90086 0.42795 0.51930
 O922 O 0.87761 0.40479 0.51928
 C923 C 0.88464 0.42098 0.52607
 C924 C 0.87418 0.43161 0.54232
 C925 C 0.85545 0.42514 0.54901
 H926 H 0.84838 0.41260 0.54177
 O927 O 1.09910 0.57167 0.51920
 O928 O 1.12238 0.59480 0.51922
 C929 C 1.11532 0.57861 0.52599
 C930 C 1.12579 0.56793 0.54222
 C931 C 1.14457 0.57433 0.54882
 H932 H 1.15166 0.58684 0.54154
 O933 O 1.01946 0.57165 0.59890
 O934 O 1.01946 0.59478 0.62219
 C935 C 1.02623 0.57858 0.61513
 C936 C 1.04244 0.56791 0.62561
 C937 C 1.04902 0.57429 0.64441
 H938 H 1.04174 0.58679 0.65150
 O939 O 0.98065 0.42792 0.59902
 O940 O 0.98065 0.40477 0.62230
 C941 C 0.97387 0.42097 0.61525
 C942 C 0.95763 0.43162 0.62570
 C943 C 0.95096 0.42518 0.64445
 H944 H 0.95820 0.41265 0.65155
 O945 O 1.09913 0.51918 0.57167
 O946 O 1.12241 0.51921 0.59482
 C947 C 1.11534 0.52598 0.57862
 C948 C 1.12580 0.54220 0.56795
 C949 C 1.14458 0.54881 0.57435
 H950 H 1.15168 0.54152 0.58686
 O951 O 0.90088 0.48035 0.57171
 O952 O 0.87762 0.48035 0.59487
 C953 C 0.88467 0.47357 0.57868
 C954 C 0.87420 0.45733 0.56805
 C955 C 0.85548 0.45065 0.57454
 H956 H 0.84841 0.45790 0.58708
 O957 O 1.07186 0.59896 0.51921
 O958 O 1.09501 0.62223 0.51923
 C959 C 1.07883 0.61518 0.52600
 C960 C 1.06820 0.62563 0.54225
 C961 C 1.07468 0.64436 0.54893
 H962 H 1.08722 0.65142 0.54167
 O963 O 0.92814 0.40071 0.51935
 O964 O 0.90502 0.37742 0.51934
 C965 C 0.92119 0.38448 0.52613
 C966 C 0.93182 0.37403 0.54240
 C967 C 0.92529 0.35534 0.54914
 H968 H 0.91272 0.34829 0.54192
 O969 O 1.07192 0.48033 0.59896
 O970 O 1.09508 0.48032 0.62223
 C971 C 1.07889 0.47354 0.61518
 C972 C 1.06826 0.45730 0.62565
 C973 C 1.07474 0.45063 0.64439
 H974 H 1.08728 0.45789 0.65146
 O975 O 0.92818 0.51919 0.59891
 O976 O 0.90505 0.51923 0.62221
 C977 C 0.92124 0.52599 0.61514
 C978 C 0.93191 0.54221 0.62559
 C979 C 0.92551 0.54882 0.64437
 H980 H 0.91300 0.54154 0.65147
 O981 O 0.98064 0.59892 0.57161
 O982 O 0.98061 0.62219 0.59476
 C983 C 0.97384 0.61514 0.57856
 C984 C 0.95761 0.62560 0.56790
 C985 C 0.95101 0.64438 0.57429
 H986 H 0.95829 0.65148 0.58679
 O987 O 1.01946 0.40071 0.57169
 O988 O 1.01951 0.37741 0.59483
 C989 C 1.02626 0.38448 0.57863
 C990 C 1.04250 0.37403 0.56797
 C991 C 1.04912 0.35526 0.57438
 H992 H 1.04184 0.34816 0.58689
 O993 O 1.09924 0.42795 0.51920
 O994 O 1.12252 0.40481 0.51924
 C995 C 1.11546 0.42101 0.52600
 C996 C 1.12591 0.43166 0.54223
 C997 C 1.14468 0.42524 0.54887
 H998 H 1.15178 0.41273 0.54159
 O999 O 0.90089 0.57161 0.51920
 O1000 O 0.87761 0.59477 0.51920
 C1001 C 0.88467 0.57857 0.52598
 C1002 C 0.87420 0.56792 0.54221
 C1003 C 0.85543 0.57434 0.54883
 H1004 H 0.84834 0.58685 0.54155
 Cu1005 Cu 1.00005 0.41662 0.58306
 Cu1006 Cu 1.00009 0.38874 0.61092
 Cu1007 Cu 1.00006 0.58298 0.58295
 Cu1008 Cu 1.00003 0.61083 0.61082
 Cu1009 Cu 0.91685 0.41667 0.49991
 Cu1010 Cu 0.88903 0.38877 0.49986
 Cu1011 Cu 1.08329 0.41664 0.49978
 Cu1012 Cu 1.11116 0.38878 0.49982
 Cu1013 Cu 0.91684 0.58291 0.49979
 Cu1014 Cu 0.88898 0.61079 0.49977
 Cu1015 Cu 1.08315 0.58301 0.49979
 Cu1016 Cu 1.11102 0.61086 0.49979
 Cu1017 Cu 0.91685 0.49976 0.58299
 Cu1018 Cu 0.88901 0.49979 0.61087
 Cu1019 Cu 1.08320 0.49975 0.58300
 Cu1020 Cu 1.11108 0.49977 0.61086
 C1021 C 1.05204 0.44779 0.61652
 H1022 H 1.04714 0.45268 0.60196
 C1023 C 1.06531 0.43455 0.65394
 C1024 C 0.94809 0.55175 0.61642
 H1025 H 0.95293 0.54690 0.60182
 C1026 C 0.93497 0.56488 0.65391
 C1027 C 0.88337 0.55172 0.55175
 H1028 H 0.89795 0.54686 0.54690
 C1029 C 0.84589 0.56488 0.56489
 C1030 C 1.11674 0.44785 0.55177
 H1031 H 1.10215 0.45271 0.54690
 C1032 C 1.15421 0.43469 0.56494
 C1033 C 1.05204 0.38320 0.55178
 H1034 H 1.04718 0.39779 0.54692
 C1035 C 1.06518 0.34571 0.56493
 C1036 C 0.94806 0.61642 0.55172
 H1037 H 0.95291 0.60182 0.54689
 C1038 C 0.93494 0.65392 0.56482
 C1039 C 0.94811 0.44783 0.61653
 H1040 H 0.95300 0.45270 0.60195
 C1041 C 0.93487 0.43464 0.65396
 C1042 C 1.05199 0.55172 0.61645
 H1043 H 1.04716 0.54689 0.60184
 C1044 C 1.06506 0.56480 0.65398
 C1045 C 0.94808 0.38313 0.55188
 H1046 H 0.95302 0.39766 0.54693
 C1047 C 0.93469 0.34582 0.56526
 C1048 C 1.05198 0.61650 0.55177
 H1049 H 1.04708 0.60195 0.54687
 C1050 C 1.06528 0.65388 0.56503
 C1051 C 0.88332 0.44783 0.55182
 H1052 H 0.89788 0.45273 0.54691
 C1053 C 0.84594 0.43457 0.56511
 C1054 C 1.11663 0.55175 0.55176
 H1055 H 1.10203 0.54690 0.54691
 C1056 C 1.15412 0.56486 0.56487
 O1057 O 0.57175 1.01960 0.59904
 O1058 O 0.59488 1.01957 0.62234
 C1059 C 0.57870 1.02637 0.61527
 C1060 C 0.56805 1.04261 0.62574
 C1061 C 0.57451 1.04924 0.64449
 H1062 H 0.58704 1.04196 0.65156
 O1063 O 0.42796 0.98079 0.59908
 O1064 O 0.40483 0.98080 0.62236
 C1065 C 0.42101 0.97401 0.61531
 C1066 C 0.43166 0.95777 0.62578
 C1067 C 0.42520 0.95112 0.64453
 H1068 H 0.41267 0.95838 0.65160
 O1069 O 0.51932 1.09933 0.57178
 O1070 O 0.51933 1.12260 0.59493
 C1071 C 0.52610 1.11555 0.57874
 C1072 C 0.54235 1.12601 0.56809
 C1073 C 0.54901 1.14475 0.57454
 H1074 H 0.54176 1.15184 0.58708
 O1075 O 0.48040 0.90109 0.57183
 O1076 O 0.48039 0.87781 0.59499
 C1077 C 0.47362 0.88487 0.57879
 C1078 C 0.45740 0.87440 0.56812
 C1079 C 0.45081 0.85561 0.57453
 H1080 H 0.45810 0.84851 0.58704
 O1081 O 0.59911 1.07210 0.51944
 O1082 O 0.62238 1.09524 0.51945
 C1083 C 0.61532 1.07906 0.52624
 C1084 C 0.62576 1.06843 0.54252
 C1085 C 0.64444 1.07496 0.54930
 H1086 H 0.65150 1.08754 0.54210
 O1087 O 0.40069 0.92832 0.51937
 O1088 O 0.37741 0.90518 0.51940
 C1089 C 0.38447 0.92137 0.52617
 C1090 C 0.37402 0.93201 0.54242
 C1091 C 0.35531 0.92552 0.54911
 H1092 H 0.34824 0.91298 0.54187
 O1093 O 0.48049 1.07204 0.59901
 O1094 O 0.48046 1.09518 0.62229
 C1095 C 0.47369 1.07899 0.61523
 C1096 C 0.45745 1.06835 0.62569
 C1097 C 0.45081 1.07480 0.64444
 H1098 H 0.45809 1.08732 0.65152
 O1099 O 0.51923 0.92836 0.59907
 O1100 O 0.51925 0.90522 0.62237
 C1101 C 0.52602 0.92141 0.61530
 C1102 C 0.54225 0.93207 0.62576
 C1103 C 0.54886 0.92567 0.64454
 H1104 H 0.54157 0.91317 0.65165
 O1105 O 0.59901 0.98078 0.57177
 O1106 O 0.62228 0.98072 0.59494
 C1107 C 0.61522 0.97397 0.57873
 C1108 C 0.62568 0.95773 0.56807
 C1109 C 0.64447 0.95113 0.57446
 H1110 H 0.65158 0.95843 0.58695
 O1111 O 0.40071 1.01960 0.57176
 O1112 O 0.37743 1.01965 0.59489
 C1113 C 0.38449 1.02639 0.57869
 C1114 C 0.37403 1.04261 0.56800
 C1115 C 0.35524 1.04922 0.57439
 H1116 H 0.34814 1.04195 0.58690
 O1117 O 0.42798 1.09932 0.51930
 O1118 O 0.40483 1.12261 0.51933
 C1119 C 0.42103 1.11554 0.52610
 C1120 C 0.43168 1.12599 0.54234
 C1121 C 0.42524 1.14474 0.54900
 H1122 H 0.41271 1.15183 0.54175
 O1123 O 0.57167 0.90099 0.51941
 O1124 O 0.59481 0.87771 0.51946
 C1125 C 0.57862 0.88477 0.52622
 C1126 C 0.56795 0.87432 0.54245
 C1127 C 0.57436 0.85554 0.54907
 H1128 H 0.58686 0.84844 0.54180
 O1129 O 0.42797 1.01962 0.59903
 O1130 O 0.40483 1.01967 0.62231
 C1131 C 0.42102 1.02643 0.61525
 C1132 C 0.43169 1.04266 0.62570
 C1133 C 0.42526 1.04932 0.64445
 H1134 H 0.41273 1.04208 0.65154
 O1135 O 0.57175 0.98078 0.59904
 O1136 O 0.59488 0.98071 0.62234
 C1137 C 0.57868 0.97397 0.61527
 C1138 C 0.56800 0.95776 0.62574
 C1139 C 0.57440 0.95115 0.64453
 H1140 H 0.58692 0.95842 0.65162
 O1141 O 0.51922 0.90105 0.57187
 O1142 O 0.51925 0.87777 0.59503
 C1143 C 0.52601 0.88482 0.57883
 C1144 C 0.54224 0.87434 0.56818
 C1145 C 0.54884 0.85557 0.57460
 H1146 H 0.54157 0.84848 0.58712
 O1147 O 0.48049 1.09931 0.57175
 O1148 O 0.48046 1.12258 0.59489
 C1149 C 0.47369 1.11552 0.57870
 C1150 C 0.45744 1.12598 0.56805
 C1151 C 0.45079 1.14473 0.57450
 H1152 H 0.45807 1.15181 0.58702
 O1153 O 0.40073 1.07205 0.51926
 O1154 O 0.37745 1.09520 0.51928
 C1155 C 0.38451 1.07900 0.52604
 C1156 C 0.37403 1.06833 0.54226
 C1157 C 0.35525 1.07473 0.54885
 H1158 H 0.34815 1.08724 0.54156
 O1159 O 0.59893 0.92824 0.51939
 O1160 O 0.62222 0.90509 0.51944
 C1161 C 0.61516 0.92130 0.52618
 C1162 C 0.62564 0.93198 0.54239
 C1163 C 0.64443 0.92558 0.54897
 H1164 H 0.65152 0.91307 0.54170
 O1165 O 0.48040 0.92832 0.59912
 O1166 O 0.48038 0.90519 0.62241
 C1167 C 0.47361 0.92138 0.61534
 C1168 C 0.45737 0.93203 0.62580
 C1169 C 0.45071 0.92558 0.64455
 H1170 H 0.45796 0.91304 0.65163
 O1171 O 0.51932 1.07206 0.59906
 O1172 O 0.51933 1.09520 0.62233
 C1173 C 0.52611 1.07901 0.61528
 C1174 C 0.54234 1.06835 0.62575
 C1175 C 0.54901 1.07479 0.64450
 H1176 H 0.54177 1.08732 0.65159
 O1177 O 0.40069 0.98077 0.57182
 O1178 O 0.37742 0.98077 0.59497
 C1179 C 0.38448 0.97398 0.57878
 C1180 C 0.37402 0.95773 0.56815
 C1181 C 0.35530 0.95104 0.57464
 H1182 H 0.34823 0.95827 0.58719
 O1183 O 0.59907 1.01962 0.57184
 O1184 O 0.62232 1.01959 0.59501
 C1185 C 0.61528 1.02640 0.57882
 C1186 C 0.62574 1.04267 0.56823
 C1187 C 0.64441 1.04941 0.57480
 H1188 H 0.65145 1.04217 0.58737
 O1189 O 0.42796 0.90107 0.51936
 O1190 O 0.40482 0.87780 0.51939
 C1191 C 0.42102 0.88485 0.52616
 C1192 C 0.43169 0.87439 0.54239
 C1193 C 0.42530 0.85560 0.54899
 H1194 H 0.41280 0.84850 0.54170
 O1195 O 0.57178 1.09930 0.51937
 O1196 O 0.59492 1.12257 0.51937
 C1197 C 0.57873 1.11552 0.52615
 C1198 C 0.56807 1.12599 0.54237
 C1199 C 0.57453 1.14473 0.54902
 H1200 H 0.58707 1.15180 0.54177
 Cu1201 Cu 0.58308 1.00020 0.58310
 Cu1202 Cu 0.61092 1.00014 0.61099
 Cu1203 Cu 0.41665 1.00019 0.58310
 Cu1204 Cu 0.38879 1.00023 0.61097
 Cu1205 Cu 0.49991 1.08337 0.58308
 Cu1206 Cu 0.49989 1.11122 0.61094
 Cu1207 Cu 0.49981 0.91702 0.58315
 Cu1208 Cu 0.49982 0.88917 0.61104
 C1209 C 0.55185 1.05214 0.61659
 H1210 H 0.54696 1.04727 0.60202
 C1211 C 0.56508 1.06532 0.65403
 C1212 C 0.44787 0.94825 0.61664
 H1213 H 0.45276 0.95313 0.60207
 C1214 C 0.43463 0.93503 0.65407
 C1215 C 0.55186 1.11686 0.55188
 H1216 H 0.54697 1.10229 0.54700
 C1217 C 0.56510 1.15427 0.56510
 C1218 C 0.44786 0.88356 0.55193
 H1219 H 0.45270 0.89816 0.54708
 C1220 C 0.43478 0.84605 0.56505
 C1221 C 0.61664 1.05217 0.55197
 H1222 H 0.60212 1.04722 0.54700
 C1223 C 0.65392 1.06554 0.56543
 C1224 C 0.38316 0.94823 0.55192
 H1225 H 0.39771 0.95314 0.54701
 C1226 C 0.34578 0.93494 0.56521
 C1227 C 0.44791 1.05216 0.61654
 H1228 H 0.45278 1.04727 0.60196
 C1229 C 0.43473 1.06538 0.65398
 C1230 C 0.55181 0.94824 0.61658
 H1231 H 0.54696 0.95309 0.60198
 C1232 C 0.56492 0.93512 0.65409
 C1233 C 0.61649 0.94818 0.55191
 H1234 H 0.60188 0.95302 0.54708
 C1235 C 0.65400 0.93507 0.56500
 C1236 C 0.38320 1.05214 0.55182
 H1237 H 0.39780 1.04730 0.54698
 C1238 C 0.34569 1.06527 0.56490
 C1239 C 0.44790 1.11683 0.55185
 H1240 H 0.45278 1.10226 0.54697
 C1241 C 0.43471 1.15427 0.56506
 C1242 C 0.55177 0.88350 0.55198
 H1243 H 0.54692 0.89809 0.54712
 C1244 C 0.56489 0.84601 0.56513
 O1245 O 0.57167 0.98073 0.40092
 O1246 O 0.59481 0.98070 0.37763
 C1247 C 0.57861 0.97394 0.38470
 C1248 C 0.56795 0.95772 0.37424
 C1249 C 0.57434 0.95113 0.35545
 H1250 H 0.58684 0.95842 0.34835
 O1251 O 0.42806 1.01960 0.40083
 O1252 O 0.40494 1.01962 0.37752
 C1253 C 0.42113 1.02639 0.38460
 C1254 C 0.43179 1.04262 0.37414
 C1255 C 0.42538 1.04924 0.35536
 H1256 H 0.41287 1.04196 0.34826
 O1257 O 0.48050 1.09938 0.42810
 O1258 O 0.48048 1.12265 0.40494
 C1259 C 0.47371 1.11560 0.42113
 C1260 C 0.45747 1.12607 0.43177
 C1261 C 0.45081 1.14481 0.42531
 H1262 H 0.45807 1.15189 0.41278
 O1263 O 0.51924 0.90094 0.42818
 O1264 O 0.51926 0.87768 0.40502
 C1265 C 0.52603 0.88472 0.42122
 C1266 C 0.54227 0.87425 0.43186
 C1267 C 0.54892 0.85550 0.42541
 H1268 H 0.54165 0.84843 0.41288
 O1269 O 0.59893 0.92821 0.48057
 O1270 O 0.62222 0.90507 0.48058
 C1271 C 0.61515 0.92126 0.47380
 C1272 C 0.62563 0.93193 0.45758
 C1273 C 0.64441 0.92553 0.45098
 H1274 H 0.65151 0.91301 0.45827
 O1275 O 0.40072 1.07212 0.48043
 O1276 O 0.37744 1.09527 0.48040
 C1277 C 0.38450 1.07908 0.47362
 C1278 C 0.37406 1.06845 0.45736
 C1279 C 0.35535 1.07494 0.45063
 H1280 H 0.34827 1.08750 0.45784
 O1281 O 0.51931 1.07207 0.40087
 O1282 O 0.51933 1.09520 0.37757
 C1283 C 0.52609 1.07901 0.38464
 C1284 C 0.54231 1.06833 0.37418
 C1285 C 0.54894 1.07475 0.35542
 H1286 H 0.54168 1.08728 0.34832
 O1287 O 0.48043 0.92825 0.40092
 O1288 O 0.48042 0.90512 0.37763
 C1289 C 0.47365 0.92132 0.38469
 C1290 C 0.45743 0.93198 0.37421
 C1291 C 0.45081 0.92554 0.35545
 H1292 H 0.45808 0.91300 0.34839
 O1293 O 0.59897 1.01953 0.42817
 O1294 O 0.62225 1.01953 0.40502
 C1295 C 0.61520 1.02629 0.42122
 C1296 C 0.62570 1.04249 0.43189
 C1297 C 0.64451 1.04903 0.42552
 H1298 H 0.65160 1.04173 0.41303
 O1299 O 0.40074 0.98080 0.42807
 O1300 O 0.37749 0.98079 0.40490
 C1301 C 0.38453 0.97402 0.42111
 C1302 C 0.37405 0.95779 0.43176
 C1303 C 0.35530 0.95116 0.42531
 H1304 H 0.34822 0.95843 0.41277
 O1305 O 0.57185 1.09931 0.48054
 O1306 O 0.59500 1.12257 0.48049
 C1307 C 0.57881 1.11552 0.47372
 C1308 C 0.56817 1.12598 0.45746
 C1309 C 0.57467 1.14468 0.45074
 H1310 H 0.58723 1.15174 0.45796
 O1311 O 0.42791 0.90103 0.48053
 O1312 O 0.40476 0.87777 0.48052
 C1313 C 0.42095 0.88481 0.47375
 C1314 C 0.43160 0.87434 0.45751
 C1315 C 0.42513 0.85560 0.45085
 H1316 H 0.41258 0.84854 0.45809
 O1317 O 0.42800 0.98076 0.40081
 O1318 O 0.40488 0.98075 0.37750
 C1319 C 0.42106 0.97397 0.38458
 C1320 C 0.43172 0.95772 0.37414
 C1321 C 0.42529 0.95106 0.35538
 H1322 H 0.41278 0.95832 0.34827
 O1323 O 0.57172 1.01956 0.40089
 O1324 O 0.59486 1.01956 0.37761
 C1325 C 0.57867 1.02635 0.38467
 C1326 C 0.56802 1.04259 0.37419
 C1327 C 0.57445 1.04921 0.35543
 H1328 H 0.58697 1.04193 0.34834
 O1329 O 0.48041 0.90096 0.42816
 O1330 O 0.48039 0.87770 0.40500
 C1331 C 0.47361 0.88475 0.42119
 C1332 C 0.45735 0.87430 0.43182
 C1333 C 0.45068 0.85557 0.42536
 H1334 H 0.45794 0.84848 0.41283
 O1335 O 0.51934 1.09935 0.42811
 O1336 O 0.51936 1.12261 0.40494
 C1337 C 0.52614 1.11555 0.42113
 C1338 C 0.54242 1.12599 0.43176
 C1339 C 0.54912 1.14470 0.42524
 H1340 H 0.54187 1.15177 0.41269
 O1341 O 0.40070 0.92835 0.48053
 O1342 O 0.37741 0.90522 0.48052
 C1343 C 0.38448 0.92141 0.47374
 C1344 C 0.37402 0.93207 0.45750
 C1345 C 0.35527 0.92564 0.45084
 H1346 H 0.34818 0.91312 0.45810
 O1347 O 0.59905 1.07198 0.48061
 O1348 O 0.62234 1.09510 0.48057
 C1349 C 0.61527 1.07891 0.47382
 C1350 C 0.62573 1.06821 0.45761
 C1351 C 0.64454 1.07455 0.45104
 H1352 H 0.65167 1.08704 0.45834
 O1353 O 0.51925 0.92824 0.40094
 O1354 O 0.51927 0.90511 0.37765
 C1355 C 0.52603 0.92130 0.38471
 C1356 C 0.54225 0.93198 0.37425
 C1357 C 0.54884 0.92559 0.35546
 H1358 H 0.54157 0.91308 0.34836
 O1359 O 0.48049 1.07210 0.40087
 O1360 O 0.48047 1.09523 0.37757
 C1361 C 0.47370 1.07904 0.38463
 C1362 C 0.45748 1.06837 0.37416
 C1363 C 0.45087 1.07479 0.35538
 H1364 H 0.45812 1.08731 0.34829
 O1365 O 0.40075 1.01963 0.42803
 O1366 O 0.37750 1.01966 0.40485
 C1367 C 0.38455 1.02643 0.42105
 C1368 C 0.37409 1.04270 0.43166
 C1369 C 0.35538 1.04939 0.42514
 H1370 H 0.34833 1.04214 0.41259
 O1371 O 0.59896 0.98071 0.42815
 O1372 O 0.62223 0.98067 0.40500
 C1373 C 0.61518 0.97390 0.42120
 C1374 C 0.62564 0.95767 0.43186
 C1375 C 0.64442 0.95107 0.42547
 H1376 H 0.65153 0.95836 0.41297
 O1377 O 0.57170 0.90093 0.48058
 O1378 O 0.59485 0.87765 0.48059
 C1379 C 0.57866 0.88470 0.47381
 C1380 C 0.56801 0.87424 0.45757
 C1381 C 0.57446 0.85549 0.45092
 H1382 H 0.58700 0.84840 0.45817
 O1383 O 0.42800 1.09935 0.48047
 O1384 O 0.40486 1.12264 0.48045
 C1385 C 0.42106 1.11558 0.47369
 C1386 C 0.43172 1.12605 0.45747
 C1387 C 0.42526 1.14480 0.45080
 H1388 H 0.41272 1.15187 0.45804
 Cu1389 Cu 0.58301 1.00014 0.41685
 Cu1390 Cu 0.61087 1.00011 0.38898
 Cu1391 Cu 0.41671 1.00019 0.41676
 Cu1392 Cu 0.38887 1.00021 0.38886
 Cu1393 Cu 0.58313 1.08335 0.49999
 Cu1394 Cu 0.61099 1.11120 0.49997
 Cu1395 Cu 0.58298 0.91691 0.49998
 Cu1396 Cu 0.61086 0.88905 0.50002
 Cu1397 Cu 0.41667 1.08339 0.49987
 Cu1398 Cu 0.38881 1.11126 0.49987
 Cu1399 Cu 0.41663 0.91701 0.49995
 Cu1400 Cu 0.38877 0.88916 0.49996
 Cu1401 Cu 0.49991 1.08341 0.41681
 Cu1402 Cu 0.49991 1.11125 0.38892
 Cu1403 Cu 0.49983 0.91691 0.41688
 Cu1404 Cu 0.49984 0.88907 0.38899
 C1405 C 0.55178 0.94817 0.38341
 H1406 H 0.54694 0.95300 0.39801
 C1407 C 0.56488 0.93508 0.34590
 C1408 C 0.44797 1.05216 0.38332
 H1409 H 0.45282 1.04731 0.39791
 C1410 C 0.43482 1.06531 0.34582
 C1411 C 0.44794 1.11691 0.44797
 H1412 H 0.45283 1.10234 0.45286
 C1413 C 0.43471 1.15433 0.43473
 C1414 C 0.55179 0.88339 0.44807
 H1415 H 0.54691 0.89796 0.45295
 C1416 C 0.56500 0.84596 0.43484
 C1417 C 0.61647 0.94812 0.44804
 H1418 H 0.60187 0.95297 0.45287
 C1419 C 0.65397 0.93501 0.43494
 C1420 C 0.38320 1.05221 0.44789
 H1421 H 0.39775 1.04729 0.45283
 C1422 C 0.34585 1.06551 0.43452
 C1423 C 0.55183 1.05213 0.38335
 H1424 H 0.54697 1.04727 0.39794
 C1425 C 0.56500 1.06528 0.34588
 C1426 C 0.44791 0.94820 0.38333
 H1427 H 0.45277 0.95308 0.39791
 C1428 C 0.43476 0.93498 0.34588
 C1429 C 0.61654 1.05206 0.44806
 H1430 H 0.60192 1.04726 0.45288
 C1431 C 0.65409 1.06505 0.43501
 C1432 C 0.38319 0.94827 0.44798
 H1433 H 0.39776 0.95313 0.45286
 C1434 C 0.34575 0.93510 0.43476
 C1435 C 0.55192 1.11686 0.44799
 H1436 H 0.54700 1.10231 0.45292
 C1437 C 0.56524 1.15420 0.43464
 C1438 C 0.44783 0.88346 0.44802
 H1439 H 0.45273 0.89802 0.45291
 C1440 C 0.43458 0.84606 0.43478
 O1441 O 0.48066 0.42797 0.90105
 O1442 O 0.48065 0.40482 0.87778
 C1443 C 0.47388 0.42102 0.88483
 C1444 C 0.45765 0.43168 0.87435
 C1445 C 0.45102 0.42524 0.85559
 H1446 H 0.45829 0.41272 0.84852
 O1447 O 0.51944 0.57175 0.90114
 O1448 O 0.51947 0.59489 0.87785
 C1449 C 0.52623 0.57869 0.88492
 C1450 C 0.54246 0.56802 0.87445
 C1451 C 0.54906 0.57442 0.85567
 H1452 H 0.54179 0.58694 0.84858
 O1453 O 0.40097 0.48042 0.92828
 O1454 O 0.37770 0.48044 0.90512
 C1455 C 0.38475 0.47365 0.92132
 C1456 C 0.37427 0.45742 0.93196
 C1457 C 0.35553 0.45078 0.92549
 H1458 H 0.34847 0.45804 0.91294
 O1459 O 0.59916 0.51921 0.92839
 O1460 O 0.62243 0.51925 0.90524
 C1461 C 0.61538 0.52600 0.92144
 C1462 C 0.62585 0.54222 0.93210
 C1463 C 0.64462 0.54882 0.92569
 H1464 H 0.65171 0.54155 0.91317
 O1465 O 0.42817 0.40075 0.98076
 O1466 O 0.40503 0.37748 0.98076
 C1467 C 0.42122 0.38453 0.97398
 C1468 C 0.43186 0.37407 0.95773
 C1469 C 0.42539 0.35533 0.95106
 H1470 H 0.41284 0.34826 0.95831
 O1471 O 0.57192 0.59892 0.98082
 O1472 O 0.59507 0.62220 0.98080
 C1473 C 0.57887 0.61515 0.97403
 C1474 C 0.56820 0.62563 0.95781
 C1475 C 0.57461 0.64441 0.95121
 H1476 H 0.58712 0.65150 0.95848
 O1477 O 0.42824 0.51925 0.90104
 O1478 O 0.40510 0.51930 0.87775
 C1479 C 0.42129 0.52606 0.88482
 C1480 C 0.43195 0.54229 0.87436
 C1481 C 0.42556 0.54889 0.85557
 H1482 H 0.41306 0.54161 0.84846
 O1483 O 0.57190 0.48040 0.90111
 O1484 O 0.59504 0.48041 0.87783
 C1485 C 0.57885 0.47362 0.88489
 C1486 C 0.56822 0.45738 0.87442
 C1487 C 0.57469 0.45074 0.85568
 H1488 H 0.58722 0.45802 0.84861
 O1489 O 0.51946 0.40069 0.92835
 O1490 O 0.51950 0.37741 0.90522
 C1491 C 0.52626 0.38447 0.92141
 C1492 C 0.54249 0.37401 0.93209
 C1493 C 0.54915 0.35526 0.92566
 H1494 H 0.54190 0.34817 0.91313
 O1495 O 0.48060 0.59903 0.92835
 O1496 O 0.48059 0.62231 0.90519
 C1497 C 0.47381 0.61525 0.92139
 C1498 C 0.45756 0.62571 0.93202
 C1499 C 0.45088 0.64445 0.92555
 H1500 H 0.45812 0.65153 0.91301
 O1501 O 0.40096 0.57171 0.98082
 O1502 O 0.37766 0.59484 0.98077
 C1503 C 0.38474 0.57865 0.97401
 C1504 C 0.37428 0.56797 0.95779
 C1505 C 0.35549 0.57435 0.95119
 H1506 H 0.34837 0.58684 0.95848
 O1507 O 0.59919 0.42796 0.98081
 O1508 O 0.62246 0.40480 0.98082
 C1509 C 0.61541 0.42099 0.97403
 C1510 C 0.62587 0.43162 0.95778
 C1511 C 0.64460 0.42515 0.95110
 H1512 H 0.65168 0.41260 0.95834
 O1513 O 0.48062 0.57176 0.90111
 O1514 O 0.48062 0.59490 0.87782
 C1515 C 0.47385 0.57870 0.88488
 C1516 C 0.45764 0.56803 0.87439
 C1517 C 0.45105 0.57444 0.85560
 H1518 H 0.45832 0.58695 0.84851
 O1519 O 0.51948 0.42794 0.90106
 O1520 O 0.51952 0.40479 0.87779
 C1521 C 0.52628 0.42098 0.88485
 C1522 C 0.54253 0.43164 0.87439
 C1523 C 0.54920 0.42519 0.85565
 H1524 H 0.54197 0.41265 0.84856
 O1525 O 0.59917 0.48039 0.92837
 O1526 O 0.62244 0.48038 0.90522
 C1527 C 0.61538 0.47360 0.92141
 C1528 C 0.62585 0.45735 0.93205
 C1529 C 0.64458 0.45068 0.92557
 H1530 H 0.65165 0.45793 0.91303
 O1531 O 0.40101 0.51925 0.92832
 O1532 O 0.37773 0.51930 0.90517
 C1533 C 0.38478 0.52605 0.92138
 C1534 C 0.37431 0.54226 0.93206
 C1535 C 0.35551 0.54884 0.92567
 H1536 H 0.34842 0.54155 0.91316
 O1537 O 0.42816 0.59903 0.98080
 O1538 O 0.40500 0.62229 0.98075
 C1539 C 0.42120 0.61524 0.97399
 C1540 C 0.43184 0.62570 0.95774
 C1541 C 0.42536 0.64444 0.95107
 H1542 H 0.41282 0.65151 0.95833
 O1543 O 0.57189 0.40073 0.98083
 O1544 O 0.59503 0.37744 0.98085
 C1545 C 0.57884 0.38450 0.97406
 C1546 C 0.56820 0.37403 0.95783
 C1547 C 0.57466 0.35528 0.95120
 H1548 H 0.58719 0.34820 0.95847
 O1549 O 0.57188 0.51924 0.90113
 O1550 O 0.59502 0.51927 0.87785
 C1551 C 0.57883 0.52604 0.88491
 C1552 C 0.56816 0.54227 0.87445
 C1553 C 0.57457 0.54888 0.85567
 H1554 H 0.58707 0.54160 0.84857
 O1555 O 0.42823 0.48042 0.90102
 O1556 O 0.40509 0.48044 0.87773
 C1557 C 0.42128 0.47365 0.88479
 C1558 C 0.43193 0.45741 0.87433
 C1559 C 0.42549 0.45077 0.85557
 H1560 H 0.41297 0.45803 0.84847
 O1561 O 0.51943 0.59900 0.92840
 O1562 O 0.51946 0.62228 0.90525
 C1563 C 0.52622 0.61522 0.92145
 C1564 C 0.54245 0.62567 0.93211
 C1565 C 0.54906 0.64445 0.92571
 H1566 H 0.54176 0.65156 0.91321
 O1567 O 0.48064 0.40071 0.92832
 O1568 O 0.48062 0.37743 0.90519
 C1569 C 0.47384 0.38449 0.92137
 C1570 C 0.45759 0.37405 0.93201
 C1571 C 0.45091 0.35532 0.92555
 H1572 H 0.45816 0.34824 0.91302
 O1573 O 0.59918 0.57165 0.98084
 O1574 O 0.62246 0.59478 0.98082
 C1575 C 0.61540 0.57859 0.97406
 C1576 C 0.62586 0.56793 0.95783
 C1577 C 0.64464 0.57434 0.95122
 H1578 H 0.65173 0.58684 0.95849
 O1579 O 0.40090 0.42801 0.98075
 O1580 O 0.37762 0.40487 0.98075
 C1581 C 0.38468 0.42106 0.97396
 C1582 C 0.37423 0.43170 0.95770
 C1583 C 0.35549 0.42526 0.95102
 H1584 H 0.34840 0.41273 0.95827
 Cu1585 Cu 0.50006 0.41665 0.91702
 Cu1586 Cu 0.50007 0.38878 0.88916
 Cu1587 Cu 0.50002 0.58307 0.91707
 Cu1588 Cu 0.50004 0.61093 0.88919
 Cu1589 Cu 0.41693 0.49983 0.91698
 Cu1590 Cu 0.38907 0.49988 0.88911
 Cu1591 Cu 0.58321 0.49981 0.91707
 Cu1592 Cu 0.61106 0.49983 0.88920
 C1593 C 0.44813 0.44789 0.88349
 H1594 H 0.45300 0.45276 0.89807
 C1595 C 0.43495 0.43470 0.84604
 C1596 C 0.55199 0.55182 0.88362
 H1597 H 0.54714 0.54697 0.89821
 C1598 C 0.56510 0.56495 0.84612
 C1599 C 0.38339 0.44790 0.94819
 H1600 H 0.39796 0.45278 0.95309
 C1601 C 0.34598 0.43471 0.93492
 C1602 C 0.61670 0.55175 0.94830
 H1603 H 0.60211 0.54690 0.95315
 C1604 C 0.65418 0.56487 0.93516
 C1605 C 0.44808 0.38320 0.94823
 H1606 H 0.45298 0.39776 0.95312
 C1607 C 0.43482 0.34580 0.93498
 C1608 C 0.55200 0.61648 0.94828
 H1609 H 0.54716 0.60189 0.95313
 C1610 C 0.56512 0.65398 0.93517
 C1611 C 0.44812 0.55184 0.88355
 H1612 H 0.45295 0.54699 0.89815
 C1613 C 0.43502 0.56496 0.84603
 C1614 C 0.55201 0.44785 0.88355
 H1615 H 0.54712 0.45273 0.89812
 C1616 C 0.56528 0.43466 0.84613
 C1617 C 0.55199 0.38317 0.94830
 H1618 H 0.54711 0.39775 0.95316
 C1619 C 0.56523 0.34573 0.93512
 C1620 C 0.44805 0.61656 0.94824
 H1621 H 0.45295 0.60200 0.95314
 C1622 C 0.43479 0.65397 0.93499
 C1623 C 0.38347 0.55180 0.94824
 H1624 H 0.39808 0.54698 0.95308
 C1625 C 0.34594 0.56487 0.93515
 C1626 C 0.61672 0.44784 0.94827
 H1627 H 0.60216 0.45274 0.95317
 C1628 C 0.65411 0.43459 0.93500
 O1629 O 0.51944 0.42802 1.09947
 O1630 O 0.51945 0.40484 1.12273
 C1631 C 0.52623 0.42104 1.11568
 C1632 C 0.54248 0.43165 1.12615
 C1633 C 0.54917 0.42514 1.14487
 H1634 H 0.54193 0.41259 1.15193
 O1635 O 0.48063 0.57172 1.09934
 O1636 O 0.48062 0.59487 1.12261
 C1637 C 0.47384 0.57868 1.11556
 C1638 C 0.45761 0.56804 1.12603
 C1639 C 0.45098 0.57449 1.14478
 H1640 H 0.45825 0.58702 1.15185
 O1641 O 0.40090 0.51934 1.07212
 O1642 O 0.37762 0.51936 1.09526
 C1643 C 0.38468 0.52614 1.07908
 C1644 C 0.37423 0.54240 1.06844
 C1645 C 0.35552 0.54912 1.07494
 H1646 H 0.34846 0.54189 1.08750
 O1647 O 0.59913 0.48040 1.07220
 O1648 O 0.62243 0.48037 1.09533
 C1649 C 0.61536 0.47361 1.07913
 C1650 C 0.62583 0.45740 1.06845
 C1651 C 0.64461 0.45077 1.07485
 H1652 H 0.65171 0.45801 1.08737
 O1653 O 0.57189 0.40076 1.01967
 O1654 O 0.59503 0.37747 1.01972
 C1655 C 0.57883 0.38454 1.02648
 C1656 C 0.56818 0.37409 1.04272
 C1657 C 0.57462 0.35533 1.04936
 H1658 H 0.58714 0.34824 1.04208
 O1659 O 0.42818 0.59902 1.01963
 O1660 O 0.40502 0.62230 1.01962
 C1661 C 0.42121 0.61524 1.02641
 C1662 C 0.43186 0.62571 1.04265
 C1663 C 0.42540 0.64445 1.04931
 H1664 H 0.41287 0.65154 1.04204
 O1665 O 0.42816 0.48048 1.09938
 O1666 O 0.40501 0.48046 1.12264
 C1667 C 0.42120 0.47368 1.11559
 C1668 C 0.43183 0.45743 1.12606
 C1669 C 0.42533 0.45075 1.14479
 H1670 H 0.41279 0.45801 1.15184
 O1671 O 0.57188 0.51923 1.09945
 O1672 O 0.59503 0.51925 1.12273
 C1673 C 0.57884 0.52603 1.11566
 C1674 C 0.56819 0.54229 1.12610
 C1675 C 0.57464 0.54896 1.14485
 H1676 H 0.58717 0.54170 1.15195
 O1677 O 0.48063 0.40081 1.07214
 O1678 O 0.48060 0.37750 1.09526
 C1679 C 0.47384 0.38458 1.07907
 C1680 C 0.45763 0.37412 1.06838
 C1681 C 0.45103 0.35533 1.07478
 H1682 H 0.45831 0.34824 1.08730
 O1683 O 0.51944 0.59897 1.07206
 O1684 O 0.51946 0.62226 1.09519
 C1685 C 0.52622 0.61520 1.07900
 C1686 C 0.54244 0.62566 1.06833
 C1687 C 0.54903 0.64445 1.07470
 H1688 H 0.54174 0.65156 1.08720
 O1689 O 0.40093 0.42805 1.01958
 O1690 O 0.37765 0.40491 1.01962
 C1691 C 0.38471 0.42111 1.02638
 C1692 C 0.37425 0.43177 1.04261
 C1693 C 0.35549 0.42536 1.04924
 H1694 H 0.34839 0.41285 1.04197
 O1695 O 0.59916 0.57165 1.01968
 O1696 O 0.62244 0.59479 1.01970
 C1697 C 0.61538 0.57860 1.02647
 C1698 C 0.62584 0.56794 1.04272
 C1699 C 0.64460 0.57437 1.04935
 H1700 H 0.65169 0.58688 1.04208
 O1701 O 0.51945 0.57173 1.09936
 O1702 O 0.51948 0.59489 1.12262
 C1703 C 0.52625 0.57869 1.11558
 C1704 C 0.54248 0.56803 1.12605
 C1705 C 0.54913 0.57450 1.14480
 H1706 H 0.54188 0.58704 1.15186
 O1707 O 0.48061 0.42801 1.09946
 O1708 O 0.48057 0.40484 1.12272
 C1709 C 0.47380 0.42104 1.11566
 C1710 C 0.45754 0.43168 1.12611
 C1711 C 0.45084 0.42521 1.14483
 H1712 H 0.45806 0.41266 1.15192
 O1713 O 0.59914 0.51922 1.07220
 O1714 O 0.62243 0.51924 1.09534
 C1715 C 0.61537 0.52601 1.07914
 C1716 C 0.62583 0.54223 1.06847
 C1717 C 0.64459 0.54886 1.07490
 H1718 H 0.65168 0.54160 1.08743
 O1719 O 0.40095 0.48051 1.07207
 O1720 O 0.37765 0.48049 1.09519
 C1721 C 0.38472 0.47372 1.07900
 C1722 C 0.37426 0.45750 1.06833
 C1723 C 0.35549 0.45089 1.07475
 H1724 H 0.34840 0.45816 1.08727
 O1725 O 0.57191 0.59892 1.01964
 O1726 O 0.59505 0.62220 1.01966
 C1727 C 0.57885 0.61515 1.02642
 C1728 C 0.56818 0.62563 1.04262
 C1729 C 0.57456 0.64442 1.04920
 H1730 H 0.58707 0.65152 1.04191
 O1731 O 0.42820 0.40078 1.01959
 O1732 O 0.40506 0.37751 1.01964
 C1733 C 0.42125 0.38457 1.02640
 C1734 C 0.43192 0.37411 1.04263
 C1735 C 0.42553 0.35533 1.04924
 H1736 H 0.41302 0.34822 1.04196
 O1737 O 0.57191 0.48040 1.09949
 O1738 O 0.59506 0.48037 1.12276
 C1739 C 0.57887 0.47360 1.11571
 C1740 C 0.56823 0.45735 1.12617
 C1741 C 0.57472 0.45064 1.14489
 H1742 H 0.58727 0.45785 1.15196
 O1743 O 0.42818 0.51931 1.09938
 O1744 O 0.40503 0.51933 1.12265
 C1745 C 0.42122 0.52610 1.11560
 C1746 C 0.43188 0.54233 1.12606
 C1747 C 0.42544 0.54899 1.14481
 H1748 H 0.41291 0.54175 1.15191
 O1749 O 0.48061 0.59901 1.07209
 O1750 O 0.48060 0.62229 1.09523
 C1751 C 0.47382 0.61523 1.07904
 C1752 C 0.45758 0.62570 1.06839
 C1753 C 0.45092 0.64445 1.07484
 H1754 H 0.45817 0.65152 1.08737
 O1755 O 0.51945 0.40078 1.07218
 O1756 O 0.51946 0.37748 1.09531
 C1757 C 0.52624 0.38455 1.07912
 C1758 C 0.54248 0.37409 1.06846
 C1759 C 0.54912 0.35533 1.07489
 H1760 H 0.54186 0.34824 1.08742
 O1761 O 0.59913 0.42803 1.01965
 O1762 O 0.62241 0.40487 1.01970
 C1763 C 0.61535 0.42107 1.02645
 C1764 C 0.62582 0.43172 1.04268
 C1765 C 0.64459 0.42530 1.04928
 H1766 H 0.65168 0.41280 1.04197
 O1767 O 0.40091 0.57178 1.01965
 O1768 O 0.37762 0.59492 1.01964
 C1769 C 0.38468 0.57874 1.02643
 C1770 C 0.37423 0.56812 1.04270
 C1771 C 0.35552 0.57463 1.04940
 H1772 H 0.34846 0.58719 1.04216
 Cu1773 Cu 0.50003 0.41673 1.08350
 Cu1774 Cu 0.50002 0.38883 1.11134
 Cu1775 Cu 0.50003 0.58304 1.08339
 Cu1776 Cu 0.50004 0.61091 1.11125
 Cu1777 Cu 0.41687 0.41672 1.00017
 Cu1778 Cu 0.38901 0.38886 1.00020
 Cu1779 Cu 0.58321 0.41669 1.00023
 Cu1780 Cu 0.61106 0.38881 1.00028
 Cu1781 Cu 0.41687 0.58307 1.00023
 Cu1782 Cu 0.38899 0.61092 1.00019
 Cu1783 Cu 0.58322 0.58297 1.00024
 Cu1784 Cu 0.61109 0.61082 1.00025
 Cu1785 Cu 0.41687 0.49991 1.08342
 Cu1786 Cu 0.38899 0.49990 1.11127
 Cu1787 Cu 0.58319 0.49981 1.08352
 Cu1788 Cu 0.61107 0.49981 1.11137
 C1789 C 0.55199 0.44788 1.11703
 H1790 H 0.54708 0.45281 1.10248
 C1791 C 0.56528 0.43454 1.15440
 C1792 C 0.44809 0.55183 1.11690
 H1793 H 0.45296 0.54695 1.10232
 C1794 C 0.43491 0.56507 1.15433
 C1795 C 0.38336 0.55188 1.05219
 H1796 H 0.39790 0.54695 1.04727
 C1797 C 0.34601 0.56523 1.06551
 C1798 C 0.61666 0.44789 1.05225
 H1799 H 0.60206 0.45275 1.04741
 C1800 C 0.65415 0.43473 1.06534
 C1801 C 0.55199 0.38325 1.05225
 H1802 H 0.54712 0.39783 1.04738
 C1803 C 0.56518 0.34579 1.06543
 C1804 C 0.44807 0.61656 1.05217
 H1805 H 0.45295 0.60199 1.04729
 C1806 C 0.43484 0.65398 1.06539
 C1807 C 0.44806 0.44791 1.11695
 H1808 H 0.45298 0.45282 1.10239
 C1809 C 0.43474 0.43465 1.15433
 C1810 C 0.55199 0.55181 1.11693
 H1811 H 0.54711 0.54691 1.10236
 C1812 C 0.56520 0.56505 1.15435
 C1813 C 0.44810 0.38328 1.05218
 H1814 H 0.45294 0.39788 1.04734
 C1815 C 0.43499 0.34578 1.06531
 C1816 C 0.55200 0.61647 1.05217
 H1817 H 0.54716 0.60187 1.04734
 C1818 C 0.56507 0.65399 1.06522
 C1819 C 0.38342 0.44797 1.05214
 H1820 H 0.39801 0.45282 1.04728
 C1821 C 0.34595 0.43483 1.06529
 C1822 C 0.61668 0.55175 1.05226
 H1823 H 0.60209 0.54689 1.04739
 C1824 C 0.65413 0.56492 1.06543
 C1825 C 1.11760 1.11698 1.28097
 N1826 N 1.10927 1.13321 1.28962
 N1827 N 1.11699 1.14087 1.30620
 C1828 C 1.13337 1.13265 1.31484
 N1829 N 1.14159 1.11632 1.30612
 N1830 N 1.13388 1.10865 1.28954
 C1831 C 1.10933 1.10877 1.26246
 N1832 N 1.11785 1.09270 1.25364
 N1833 N 1.11057 1.08548 1.23667
 C1834 C 1.09450 1.09405 1.22789
 N1835 N 1.08595 1.11008 1.23674
 N1836 N 1.09323 1.11731 1.25372
 C1837 C 1.08673 1.08634 1.20896
 N1838 N 1.07088 1.09511 1.20001
 N1839 N 1.06408 1.08834 1.18266
 C1840 C 1.07283 1.07254 1.17355
 N1841 N 1.08866 1.06375 1.18261
 N1842 N 1.09547 1.07051 1.19996
 C1843 C 1.11590 0.61567 0.78175
 N1844 N 1.13211 0.60730 0.79041
 N1845 N 1.13971 0.61491 0.80707
 C1846 C 1.13141 0.63120 0.81574
 N1847 N 1.11512 0.63950 0.80705
 N1848 N 1.10752 0.63190 0.79039
 C1849 C 1.10778 0.60755 0.76314
 N1850 N 1.09177 0.61615 0.75429
 N1851 N 1.08466 0.60903 0.73720
 C1852 C 1.09329 0.59305 0.72834
 N1853 N 1.10927 0.58441 0.73723
 N1854 N 1.11638 0.59154 0.75431
 C1855 C 1.08572 0.58547 0.70929
 N1856 N 1.09456 0.56971 0.70026
 N1857 N 1.08792 0.56308 0.68279
 C1858 C 1.07220 0.57194 0.67364
 N1859 N 1.06334 0.58767 0.68277
 N1860 N 1.06997 0.59431 0.70024
 C1861 C 0.61684 1.11640 0.78137
 N1862 N 0.60851 1.13262 0.79006
 N1863 N 0.61622 1.14021 0.80668
 C1864 C 0.63255 1.13191 0.81527
 N1865 N 0.64080 1.11563 0.80655
 N1866 N 0.63310 1.10802 0.78993
 C1867 C 0.60859 1.10827 0.76282
 N1868 N 0.61711 1.09223 0.75395
 N1869 N 0.60986 1.08509 0.73692
 C1870 C 0.59384 1.09374 0.72814
 N1871 N 0.58529 1.10974 0.73704
 N1872 N 0.59253 1.11688 0.75406
 C1873 C 0.58611 1.08612 0.70915
 N1874 N 0.57032 1.09497 0.70018
 N1875 N 0.56357 1.08829 0.68277
 C1876 C 0.57234 1.07251 0.67363
 N1877 N 0.58811 1.06366 0.68271
 N1878 N 0.59487 1.07032 0.70012
 C1879 C 0.61657 0.61665 1.28163
 N1880 N 0.63281 0.60831 1.29028
 N1881 N 0.64046 0.61599 1.30688
 C1882 C 0.63223 0.63234 1.31555
 N1883 N 0.61589 0.64057 1.30684
 N1884 N 0.60823 0.63291 1.29024
 C1885 C 0.60839 0.60844 1.26310
 N1886 N 0.59234 0.61699 1.25426
 N1887 N 0.58516 0.60977 1.23724
 C1888 C 0.59376 0.59374 1.22844
 N1889 N 0.60977 0.58516 1.23730
 N1890 N 0.61695 0.59238 1.25432
 C1891 C 0.58610 0.58605 1.20946
 N1892 N 0.59490 0.57024 1.20048
 N1893 N 0.58819 0.56350 1.18308
 C1894 C 0.57242 0.57230 1.17395
 N1895 N 0.56361 0.58809 1.18302
 N1896 N 0.57031 0.59483 1.20043
 C1897 C 0.88414 0.88413 1.28182
 N1898 N 0.89250 0.86792 1.29049
 N1899 N 0.88487 0.86032 1.30714
 C1900 C 0.86857 0.86861 1.31578
 N1901 N 0.86028 0.88489 1.30709
 N1902 N 0.86791 0.89251 1.29044
 C1903 C 0.89228 0.89225 1.26322
 N1904 N 0.88370 0.90826 1.25436
 N1905 N 0.89084 0.91537 1.23727
 C1906 C 0.90683 0.90673 1.22843
 N1907 N 0.91545 0.89075 1.23733
 N1908 N 0.90831 0.88364 1.25441
 C1909 C 0.91443 0.91429 1.20938
 N1910 N 0.93019 0.90544 1.20037
 N1911 N 0.93683 0.91206 1.18289
 C1912 C 0.92798 0.92779 1.17373
 N1913 N 0.91225 0.93666 1.18285
 N1914 N 0.90560 0.93004 1.20032
 C1915 C 0.88307 0.38358 0.78129
 N1916 N 0.89141 0.36738 0.79001
 N1917 N 0.88371 0.35977 0.80663
 C1918 C 0.86736 0.36806 0.81521
 N1919 N 0.85910 0.38433 0.80646
 N1920 N 0.86679 0.39194 0.78984
 C1921 C 0.89131 0.39171 0.76274
 N1922 N 0.88279 0.40773 0.75385
 N1923 N 0.89004 0.41487 0.73682
 C1924 C 0.90608 0.40623 0.72807
 N1925 N 0.91464 0.39024 0.73699
 N1926 N 0.90739 0.38311 0.75402
 C1927 C 0.91381 0.41384 0.70908
 N1928 N 0.92962 0.40501 0.70014
 N1929 N 0.93638 0.41168 0.68272
 C1930 C 0.92761 0.42745 0.67356
 N1931 N 0.91183 0.43630 0.68261
 N1932 N 0.90506 0.42963 0.70002
 C1933 C 0.38303 0.88358 0.78132
 N1934 N 0.39136 0.86734 0.78997
 N1935 N 0.38368 0.85969 0.80658
 C1936 C 0.36735 0.86796 0.81520
 N1937 N 0.35909 0.88427 0.80653
 N1938 N 0.36677 0.89193 0.78992
 C1939 C 0.39124 0.89177 0.76279
 N1940 N 0.38270 0.90783 0.75397
 N1941 N 0.38992 0.91502 0.73695
 C1942 C 0.40595 0.90643 0.72814
 N1943 N 0.41453 0.89041 0.73699
 N1944 N 0.40731 0.88321 0.75401
 C1945 C 0.41364 0.91410 0.70917
 N1946 N 0.42945 0.90530 0.70018
 N1947 N 0.43618 0.91202 0.68278
 C1948 C 0.42739 0.92780 0.67366
 N1949 N 0.41161 0.93662 0.68275
 N1950 N 0.40487 0.92990 0.70015
 C1951 C 0.38267 0.38327 1.28144
 N1952 N 0.36638 0.39161 1.28997
 N1953 N 0.35866 0.38396 1.30656
 C1954 C 0.36687 0.36764 1.31532
 N1955 N 0.38326 0.35941 1.30672
 N1956 N 0.39099 0.36705 1.29013
 C1957 C 0.39095 0.39144 1.26292
 N1958 N 0.40705 0.38287 1.25421
 N1959 N 0.41433 0.39005 1.23721
 C1960 C 0.40579 0.40606 1.22831
 N1961 N 0.38973 0.41467 1.23706
 N1962 N 0.38245 0.40749 1.25405
 C1963 C 0.41356 0.41372 1.20936
 N1964 N 0.40482 0.42953 1.20031
 N1965 N 0.41163 0.43624 1.18294
 C1966 C 0.42743 0.42742 1.17390
 N1967 N 0.43618 0.41163 1.18304
 N1968 N 0.42939 0.40491 1.20042
 C1969 C 0.88202 1.11737 0.71913
 N1970 N 0.86572 1.10906 0.71060
 N1971 N 0.85797 1.11674 0.69404
 C1972 C 0.86617 1.13307 0.68530
 N1973 N 0.88257 1.14127 0.69390
 N1974 N 0.89033 1.13360 0.71046
 C1975 C 0.89035 1.10913 0.73761
 N1976 N 0.90647 1.11766 0.74631
 N1977 N 0.91381 1.11041 0.76326
 C1978 C 0.90530 1.09437 0.77213
 N1979 N 0.88921 1.08581 0.76339
 N1980 N 0.88187 1.09306 0.74645
 C1981 C 0.91314 1.08662 0.79102
 N1982 N 0.90444 1.07078 0.80003
 N1983 N 0.91132 1.06398 0.81735
 C1984 C 0.92716 1.07275 0.82637
 N1985 N 0.93588 1.08858 0.81726
 N1986 N 0.92901 1.09538 0.79993
 C1987 C 0.88354 0.61645 0.21829
 N1988 N 0.86730 0.60812 0.20965
 N1989 N 0.85965 0.61580 0.19304
 C1990 C 0.86789 0.63214 0.18436
 N1991 N 0.88422 0.64036 0.19306
 N1992 N 0.89188 0.63269 0.20967
 C1993 C 0.89172 0.60825 0.23684
 N1994 N 0.90777 0.61678 0.24566
 N1995 N 0.91495 0.60958 0.26269
 C1996 C 0.90635 0.59356 0.27152
 N1997 N 0.89033 0.58499 0.26267
 N1998 N 0.88315 0.59220 0.24564
 C1999 C 0.91400 0.58588 0.29051
 N2000 N 0.90519 0.57010 0.29952
 N2001 N 0.91189 0.56338 0.31693
 C2002 C 0.92766 0.57217 0.32605
 N2003 N 0.93649 0.58794 0.31694
 N2004 N 0.92979 0.59466 0.29953
 C2005 C 0.38357 1.11639 0.21825
 N2006 N 0.39192 1.13261 0.20959
 N2007 N 0.38427 1.14023 0.19296
 C2008 C 0.36794 1.13198 0.18427
 N2009 N 0.35970 1.11566 0.19299
 N2010 N 0.36734 1.10803 0.20962
 C2011 C 0.39174 1.10825 0.23683
 N2012 N 0.38318 1.09222 0.24567
 N2013 N 0.39035 1.08507 0.26273
 C2014 C 0.40635 1.09370 0.27157
 N2015 N 0.41494 1.10969 0.26270
 N2016 N 0.40777 1.11683 0.24564
 C2017 C 0.41399 1.08608 0.29060
 N2018 N 0.42976 1.09492 0.29961
 N2019 N 0.43644 1.08825 0.31706
 C2020 C 0.42763 1.07249 0.32619
 N2021 N 0.41189 1.06364 0.31707
 N2022 N 0.40520 1.07030 0.29963
 C2023 C 0.38403 0.61594 0.71832
 N2024 N 0.36783 0.60756 0.70966
 N2025 N 0.36021 0.61517 0.69301
 C2026 C 0.36848 0.63148 0.68434
 N2027 N 0.38475 0.63979 0.69303
 N2028 N 0.39238 0.63218 0.70968
 C2029 C 0.39217 0.60781 0.73692
 N2030 N 0.40817 0.61641 0.74577
 N2031 N 0.41531 0.60928 0.76284
 C2032 C 0.40670 0.59328 0.77170
 N2033 N 0.39074 0.58464 0.76282
 N2034 N 0.38360 0.59177 0.74574
 C2035 C 0.41430 0.58568 0.79074
 N2036 N 0.40549 0.56990 0.79977
 N2037 N 0.41215 0.56326 0.81723
 C2038 C 0.42787 0.57212 0.82638
 N2039 N 0.43669 0.58787 0.81726
 N2040 N 0.43005 0.59453 0.79979
 C2041 C 1.11706 0.88335 0.71867
 N2042 N 1.10874 0.86710 0.71003
 N2043 N 1.11644 0.85945 0.69343
 C2044 C 1.13276 0.86773 0.68481
 N2045 N 1.14100 0.88405 0.69348
 N2046 N 1.13331 0.89171 0.71007
 C2047 C 1.10883 0.89154 0.73720
 N2048 N 1.11735 0.90760 0.74601
 N2049 N 1.11011 0.91480 0.76301
 C2050 C 1.09409 0.90620 0.77183
 N2051 N 1.08553 0.89017 0.76298
 N2052 N 1.09277 0.88297 0.74598
 C2053 C 1.08638 0.91388 0.79079
 N2054 N 1.07058 0.90508 0.79978
 N2055 N 1.06384 0.91181 0.81717
 C2056 C 1.07261 0.92760 0.82628
 N2057 N 1.08839 0.93641 0.81718
 N2058 N 1.09515 0.92969 0.79980
 C2059 C 1.11653 0.38339 0.21826
 N2060 N 1.10819 0.36716 0.20963
 N2061 N 1.11585 0.35952 0.19301
 C2062 C 1.13217 0.36777 0.18432
 N2063 N 1.14041 0.38410 0.19302
 N2064 N 1.13276 0.39174 0.20964
 C2065 C 1.10835 0.39156 0.23682
 N2066 N 1.11691 0.40760 0.24563
 N2067 N 1.10973 0.41478 0.26267
 C2068 C 1.09373 0.40617 0.27152
 N2069 N 1.08514 0.39016 0.26268
 N2070 N 1.09232 0.38298 0.24564
 C2071 C 1.08608 0.41382 0.29052
 N2072 N 1.07031 0.40501 0.29954
 N2073 N 1.06361 0.41171 0.31696
 C2074 C 1.07242 0.42748 0.32607
 N2075 N 1.08817 0.43631 0.31694
 N2076 N 1.09487 0.42961 0.29952
 C2077 C 0.61590 0.88414 0.21824
 N2078 N 0.63213 0.89251 0.20960
 N2079 N 0.63975 0.88488 0.19295
 C2080 C 0.63146 0.86859 0.18428
 N2081 N 0.61517 0.86031 0.19295
 N2082 N 0.60754 0.86792 0.20959
 C2083 C 0.60776 0.89227 0.23682
 N2084 N 0.59174 0.88368 0.24565
 N2085 N 0.58459 0.89081 0.26272
 C2086 C 0.59321 0.90679 0.27159
 N2087 N 0.60919 0.91542 0.26273
 N2088 N 0.61634 0.90829 0.24566
 C2089 C 0.58560 0.91438 0.29063
 N2090 N 0.59442 0.93015 0.29966
 N2091 N 0.58777 0.93678 0.31712
 C2092 C 0.57203 0.92793 0.32625
 N2093 N 0.56320 0.91219 0.31711
 N2094 N 0.56985 0.90555 0.29965
 C2095 C 0.61707 0.38351 0.71885
 N2096 N 0.60873 0.36731 0.71015
 N2097 N 0.61643 0.35970 0.69354
 C2098 C 0.63277 0.36797 0.68494
 N2099 N 0.64104 0.38424 0.69367
 N2100 N 0.63335 0.39186 0.71029
 C2101 C 0.60884 0.39165 0.73739
 N2102 N 0.61736 0.40768 0.74627
 N2103 N 0.61011 0.41482 0.76329
 C2104 C 0.59408 0.40620 0.77206
 N2105 N 0.58552 0.39021 0.76315
 N2106 N 0.59276 0.38306 0.74613
 C2107 C 0.58635 0.41383 0.79103
 N2108 N 0.57054 0.40500 0.79999
 N2109 N 0.56378 0.41169 0.81740
 C2110 C 0.57255 0.42746 0.82654
 N2111 N 0.58833 0.43630 0.81748
 N2112 N 0.59510 0.42962 0.80008
 C2113 C 1.28167 1.11604 1.11648
 N2114 N 1.29035 1.13226 1.10815
 N2115 N 1.30698 1.13985 1.11583
 C2116 C 1.31560 1.13155 1.13215
 N2117 N 1.30690 1.11526 1.14040
 N2118 N 1.29027 1.10765 1.13273
 C2119 C 1.26311 1.10792 1.10828
 N2120 N 1.25426 1.09188 1.11681
 N2121 N 1.23721 1.08476 1.10961
 C2122 C 1.22839 1.09341 1.09361
 N2123 N 1.23727 1.10941 1.08504
 N2124 N 1.25432 1.11654 1.09224
 C2125 C 1.20938 1.08582 1.08594
 N2126 N 1.20037 1.09468 1.07017
 N2127 N 1.18293 1.08802 1.06347
 C2128 C 1.17380 1.07225 1.07226
 N2129 N 1.18291 1.06338 1.08801
 N2130 N 1.20035 1.07003 1.09472
 C2131 C 1.28174 0.61588 0.61591
 N2132 N 1.29037 0.63211 0.60755
 N2133 N 1.30700 0.63974 0.61518
 C2134 C 1.31568 0.63145 0.63148
 N2135 N 1.30702 0.61515 0.63977
 N2136 N 1.29038 0.60751 0.63214
 C2137 C 1.26316 0.60774 0.60777
 N2138 N 1.25434 0.59171 0.61635
 N2139 N 1.23727 0.58456 0.60921
 C2140 C 1.22841 0.59319 0.59322
 N2141 N 1.23726 0.60918 0.58460
 N2142 N 1.25432 0.61632 0.59174
 C2143 C 1.20938 0.58558 0.58561
 N2144 N 1.20034 0.59442 0.56984
 N2145 N 1.18289 0.58776 0.56319
 C2146 C 1.17376 0.57201 0.57203
 N2147 N 1.18290 0.56317 0.58778
 N2148 N 1.20035 0.56982 0.59444
 C2149 C 0.78066 1.11744 0.61788
 N2150 N 0.78921 1.10911 0.63417
 N2151 N 0.80578 1.11679 0.64191
 C2152 C 0.81451 1.13311 0.63369
 N2153 N 0.80589 1.14134 0.61731
 N2154 N 0.78932 1.13368 0.60957
 C2155 C 0.76218 1.10922 0.60957
 N2156 N 0.75346 1.11776 0.59345
 N2157 N 0.73651 1.11051 0.58613
 C2158 C 0.72766 1.09447 0.59465
 N2159 N 0.73641 1.08590 0.61073
 N2160 N 0.75336 1.09314 0.61806
 C2161 C 0.70877 1.08672 0.58682
 N2162 N 0.69978 1.07087 0.59553
 N2163 N 0.68246 1.06409 0.58866
 C2164 C 0.67343 1.07286 0.57281
 N2165 N 0.68253 1.08869 0.56409
 N2166 N 0.69985 1.09549 0.57095
 C2167 C 0.78157 0.61616 1.11671
 N2168 N 0.79021 0.63240 1.10836
 N2169 N 0.80683 0.64003 1.11602
 C2170 C 0.81549 0.63174 1.13233
 N2171 N 0.80682 0.61544 1.14060
 N2172 N 0.79020 0.60780 1.13295
 C2173 C 0.76301 0.60800 1.10854
 N2174 N 0.75420 0.59196 1.11711
 N2175 N 0.73716 0.58479 1.10993
 C2176 C 0.72831 0.59340 1.09392
 N2177 N 0.73715 0.60940 1.08532
 N2178 N 0.75419 0.61657 1.09249
 C2179 C 0.70931 0.58576 1.08628
 N2180 N 0.70029 0.59457 1.07049
 N2181 N 0.68286 0.58787 1.06380
 C2182 C 0.67375 0.57212 1.07263
 N2183 N 0.68287 0.56329 1.08840
 N2184 N 0.70029 0.56998 1.09509
 C2185 C 1.28136 0.88316 0.88322
 N2186 N 1.28999 0.89151 0.86698
 N2187 N 1.30659 0.88383 0.85932
 C2188 C 1.31528 0.86749 0.86756
 N2189 N 1.30658 0.85924 0.88389
 N2190 N 1.28998 0.86691 0.89156
 C2191 C 1.26283 0.89137 0.89142
 N2192 N 1.25402 0.88281 0.90747
 N2193 N 1.23701 0.89003 0.91467
 C2194 C 1.22818 0.90606 0.90609
 N2195 N 1.23702 0.91465 0.89007
 N2196 N 1.25403 0.90744 0.88287
 C2197 C 1.20922 0.91376 0.91377
 N2198 N 1.20022 0.92958 0.90499
 N2199 N 1.18283 0.93631 0.91173
 C2200 C 1.17373 0.92751 0.92750
 N2201 N 1.18282 0.91171 0.93630
 N2202 N 1.20021 0.90497 0.92957
 C2203 C 1.28129 0.38321 0.38262
 N2204 N 1.28985 0.39156 0.36635
 N2205 N 1.30645 0.38392 0.35866
 C2206 C 1.31520 0.36761 0.36689
 N2207 N 1.30657 0.35937 0.38325
 N2208 N 1.28997 0.36699 0.39095
 C2209 C 1.26276 0.39138 0.39087
 N2210 N 1.25401 0.38280 0.40695
 N2211 N 1.23701 0.38998 0.41421
 C2212 C 1.22812 0.40600 0.40565
 N2213 N 1.23690 0.41461 0.38961
 N2214 N 1.25390 0.40743 0.38235
 C2215 C 1.20917 0.41366 0.41340
 N2216 N 1.20014 0.42947 0.40465
 N2217 N 1.18276 0.43619 0.41143
 C2218 C 1.17370 0.42737 0.42723
 N2219 N 1.18283 0.41157 0.43599
 N2220 N 1.20021 0.40485 0.42922
 C2221 C 0.78171 0.88409 0.38407
 N2222 N 0.79035 0.86787 0.39244
 N2223 N 0.80701 0.86027 0.38484
 C2224 C 0.81570 0.86857 0.36856
 N2225 N 0.80702 0.88487 0.36026
 N2226 N 0.79036 0.89248 0.36786
 C2227 C 0.76310 0.89221 0.39218
 N2228 N 0.75427 0.90824 0.38359
 N2229 N 0.73718 0.91536 0.39071
 C2230 C 0.72831 0.90672 0.40668
 N2231 N 0.73717 0.89073 0.41531
 N2232 N 0.75426 0.88361 0.40819
 C2233 C 0.70926 0.91431 0.41426
 N2234 N 0.70022 0.90546 0.43001
 N2235 N 0.68275 0.91211 0.43664
 C2236 C 0.67362 0.92786 0.42780
 N2237 N 0.68276 0.93671 0.41207
 N2238 N 0.70023 0.93008 0.40543
 C2239 C 0.78135 0.38321 0.88328
 N2240 N 0.78994 0.39156 0.86702
 N2241 N 0.80655 0.38392 0.85935
 C2242 C 0.81528 0.36760 0.86759
 N2243 N 0.80663 0.35935 0.88394
 N2244 N 0.79002 0.36698 0.89162
 C2245 C 0.76281 0.39137 0.89150
 N2246 N 0.75404 0.38280 0.90757
 N2247 N 0.73703 0.38998 0.91480
 C2248 C 0.72815 0.40599 0.90623
 N2249 N 0.73695 0.41460 0.89020
 N2250 N 0.75396 0.40742 0.88296
 C2251 C 0.70918 0.41365 0.91395
 N2252 N 0.70016 0.42946 0.90518
 N2253 N 0.68277 0.43617 0.91194
 C2254 C 0.67369 0.42735 0.92773
 N2255 N 0.68282 0.41156 0.93651
 N2256 N 0.70021 0.40484 0.92976
 C2257 C 0.71830 0.88404 1.11595
 N2258 N 0.70965 0.86782 1.10759
 N2259 N 0.69299 0.86022 1.11521
 C2260 C 0.68431 0.86854 1.13149
 N2261 N 0.69299 0.88483 1.13977
 N2262 N 0.70965 0.89243 1.13216
 C2263 C 0.73690 0.89215 1.10782
 N2264 N 0.74573 0.90817 1.11639
 N2265 N 0.76281 0.91529 1.10926
 C2266 C 0.77168 0.90664 1.09329
 N2267 N 0.76281 0.89065 1.08468
 N2268 N 0.74573 0.88354 1.09182
 C2269 C 0.79072 0.91422 1.08570
 N2270 N 0.79976 0.90537 1.06995
 N2271 N 0.81723 0.91200 1.06331
 C2272 C 0.82636 0.92775 1.07214
 N2273 N 0.81721 0.93662 1.08786
 N2274 N 0.79975 0.92999 1.09451
 C2275 C 0.71877 0.38312 0.61687
 N2276 N 0.71010 0.36691 0.60853
 N2277 N 0.69350 0.35927 0.61621
 C2278 C 0.68484 0.36751 0.63256
 N2279 N 0.69357 0.38382 0.64080
 N2280 N 0.71018 0.39146 0.63313
 C2281 C 0.73730 0.39130 0.60865
 N2282 N 0.74614 0.40734 0.61718
 N2283 N 0.76315 0.41452 0.60995
 C2284 C 0.77194 0.40593 0.59391
 N2285 N 0.76307 0.38993 0.58533
 N2286 N 0.74607 0.38274 0.59257
 C2287 C 0.79090 0.41360 0.58619
 N2288 N 0.79987 0.40481 0.57037
 N2289 N 0.81725 0.41154 0.56361
 C2290 C 0.82637 0.42732 0.57239
 N2291 N 0.81730 0.43612 0.58818
 N2292 N 0.79992 0.42940 0.59495
 C2293 C 0.21872 0.88306 0.61680
 N2294 N 0.21013 0.86680 0.60846
 N2295 N 0.19354 0.85911 0.61613
 C2296 C 0.18484 0.86732 0.63246
 N2297 N 0.19349 0.88368 0.64070
 N2298 N 0.21007 0.89138 0.63304
 C2299 C 0.23723 0.89131 0.60860
 N2300 N 0.24599 0.90738 0.61716
 N2301 N 0.26298 0.91464 0.60995
 C2302 C 0.27183 0.90609 0.59392
 N2303 N 0.26304 0.89005 0.58533
 N2304 N 0.24605 0.88279 0.59253
 C2305 C 0.29078 0.91383 0.58623
 N2306 N 0.29978 0.90508 0.57041
 N2307 N 0.31715 0.91186 0.56367
 C2308 C 0.32622 0.92765 0.57247
 N2309 N 0.31712 0.93642 0.58827
 N2310 N 0.29975 0.92964 0.59502
 C2311 C 0.21846 0.38378 1.11662
 N2312 N 0.20986 0.39214 1.13287
 N2313 N 0.19323 0.38451 1.14052
 C2314 C 0.18454 0.36823 1.13225
 N2315 N 0.19317 0.35995 1.11593
 N2316 N 0.20979 0.36756 1.10827
 C2317 C 0.23702 0.39192 1.10843
 N2318 N 0.24582 0.38333 1.09239
 N2319 N 0.26286 0.39047 1.08520
 C2320 C 0.27174 0.40646 1.09380
 N2321 N 0.26292 0.41508 1.10980
 N2322 N 0.24587 0.40794 1.11699
 C2323 C 0.29075 0.41407 1.08615
 N2324 N 0.29978 0.42984 1.09494
 N2325 N 0.31722 0.43650 1.08825
 C2326 C 0.32632 0.42766 1.07249
 N2327 N 0.31719 0.41191 1.06368
 N2328 N 0.29975 0.40524 1.07037
 C2329 C 0.71864 1.11665 0.88324
 N2330 N 0.71000 1.13287 0.89160
 N2331 N 0.69338 1.14052 0.88395
 C2332 C 0.68469 1.13230 0.86760
 N2333 N 0.69340 1.11599 0.85935
 N2334 N 0.71002 1.10833 0.86699
 C2335 C 0.73719 1.10847 0.89143
 N2336 N 0.74602 1.09243 0.88287
 N2337 N 0.76305 1.08524 0.89007
 C2338 C 0.77187 1.09383 0.90610
 N2339 N 0.76301 1.10983 0.91470
 N2340 N 0.74599 1.11702 0.90749
 C2341 C 0.79085 1.08616 0.91378
 N2342 N 0.79985 1.09494 0.92959
 N2343 N 0.81725 1.08822 0.93631
 C2344 C 0.82637 1.07245 0.92751
 N2345 N 0.81727 1.06365 0.91172
 N2346 N 0.79987 1.07036 0.90499
 C2347 C 0.71851 0.61628 0.38324
 N2348 N 0.70989 0.60793 0.36700
 N2349 N 0.69327 0.61558 0.35934
 C2350 C 0.68460 0.63189 0.36760
 N2351 N 0.69326 0.64016 0.38392
 N2352 N 0.70987 0.63252 0.39158
 C2353 C 0.73707 0.60810 0.39143
 N2354 N 0.74588 0.61666 0.40748
 N2355 N 0.76291 0.60948 0.41467
 C2356 C 0.77176 0.59347 0.40607
 N2357 N 0.76292 0.58487 0.39006
 N2358 N 0.74588 0.59205 0.38287
 C2359 C 0.79075 0.58581 0.41373
 N2360 N 0.79977 0.57002 0.40493
 N2361 N 0.81719 0.56332 0.41164
 C2362 C 0.82630 0.57214 0.42740
 N2363 N 0.81719 0.58790 0.43622
 N2364 N 0.79977 0.59461 0.42952
 C2365 C 0.21884 1.11703 0.38232
 N2366 N 0.21030 1.10869 0.36603
 N2367 N 0.19371 1.11634 0.35830
 C2368 C 0.18497 1.13267 0.36650
 N2369 N 0.19358 1.14090 0.38288
 N2370 N 0.21016 1.13326 0.39062
 C2371 C 0.23735 1.10885 0.39061
 N2372 N 0.24607 1.11741 0.40671
 N2373 N 0.26305 1.11022 0.41401
 C2374 C 0.27193 1.09419 0.40549
 N2375 N 0.26318 1.08559 0.38943
 N2376 N 0.24620 1.09278 0.38212
 C2377 C 0.29087 1.08651 0.41328
 N2378 N 0.29989 1.07068 0.40456
 N2379 N 0.31726 1.06395 0.41139
 C2380 C 0.32630 1.07277 0.42719
 N2381 N 0.31717 1.08857 0.43593
 N2382 N 0.29981 1.09531 0.42911
 C2383 C 0.21818 0.61568 0.88416
 N2384 N 0.20955 0.60730 0.86794
 N2385 N 0.19289 0.61491 0.86031
 C2386 C 0.18420 0.63120 0.86860
 N2387 N 0.19286 0.63949 0.88490
 N2388 N 0.20952 0.63189 0.89253
 C2389 C 0.23678 0.60756 0.89230
 N2390 N 0.24560 0.61616 0.90832
 N2391 N 0.26269 0.60905 0.91546
 C2392 C 0.27158 0.59308 0.90684
 N2393 N 0.26272 0.58444 0.89086
 N2394 N 0.24564 0.59155 0.88372
 C2395 C 0.29063 0.58551 0.91444
 N2396 N 0.29968 0.56976 0.90561
 N2397 N 0.31716 0.56314 0.91226
 C2398 C 0.32628 0.57200 0.92800
 N2399 N 0.31712 0.58772 0.93684
 N2400 N 0.29965 0.59435 0.93020
 C2401 C 1.11620 1.28154 1.11654
 N2402 N 1.10783 1.29013 1.13279
 N2403 N 1.11546 1.30675 1.14047
 C2404 C 1.13175 1.31545 1.13221
 N2405 N 1.14004 1.30683 1.11589
 N2406 N 1.13242 1.29021 1.10821
 C2407 C 1.10806 1.26299 1.10833
 N2408 N 1.11665 1.25421 1.09228
 N2409 N 1.10951 1.23717 1.08508
 C2410 C 1.09352 1.22829 1.09366
 N2411 N 1.08489 1.23710 1.10967
 N2412 N 1.09203 1.25414 1.11688
 C2413 C 1.08591 1.20929 1.08599
 N2414 N 1.07013 1.20025 1.09478
 N2415 N 1.06347 1.18282 1.08806
 C2416 C 1.07231 1.17373 1.07230
 N2417 N 1.08807 1.18287 1.06349
 N2418 N 1.09473 1.20030 1.07020
 C2419 C 1.11711 0.78103 0.61646
 N2420 N 1.10879 0.78969 0.63269
 N2421 N 1.11648 0.80629 0.64032
 C2422 C 1.13281 0.81491 0.63204
 N2423 N 1.14106 0.80622 0.61574
 N2424 N 1.13337 0.78961 0.60810
 C2425 C 1.10888 0.76250 0.60829
 N2426 N 1.11739 0.75366 0.59223
 N2427 N 1.11014 0.73666 0.58505
 C2428 C 1.09411 0.72787 0.59366
 N2429 N 1.08556 0.73673 0.60968
 N2430 N 1.09281 0.75374 0.61686
 C2431 C 1.08638 0.70891 0.58599
 N2432 N 1.07057 0.69994 0.59480
 N2433 N 1.06380 0.68256 0.58807
 C2434 C 1.07256 0.67345 0.57228
 N2435 N 1.08834 0.68252 0.56345
 N2436 N 1.09512 0.69990 0.57017
 C2437 C 0.61691 1.28143 0.61647
 N2438 N 0.60860 1.29009 0.63271
 N2439 N 0.61633 1.30667 0.64036
 C2440 C 0.63267 1.31526 0.63208
 N2441 N 0.64090 1.30658 0.61577
 N2442 N 0.63318 1.29000 0.60811
 C2443 C 0.60865 1.26292 0.60829
 N2444 N 0.61716 1.25408 0.59223
 N2445 N 0.60990 1.23708 0.58504
 C2446 C 0.59387 1.22830 0.59366
 N2447 N 0.58532 1.23716 0.60968
 N2448 N 0.59258 1.25416 0.61687
 C2449 C 0.58614 1.20934 0.58600
 N2450 N 0.57034 1.20037 0.59482
 N2451 N 0.56358 1.18297 0.58810
 C2452 C 0.57235 1.17385 0.57232
 N2453 N 0.58813 1.18293 0.56349
 N2454 N 0.59489 1.20032 0.57019
 C2455 C 0.61596 0.78175 1.11600
 N2456 N 0.60758 0.79042 1.13221
 N2457 N 0.61520 0.80708 1.13980
 C2458 C 0.63149 0.81574 1.13151
 N2459 N 0.63979 0.80704 1.11524
 N2460 N 0.63218 0.79039 1.10763
 C2461 C 0.60784 0.76315 1.10790
 N2462 N 0.61643 0.75430 1.09190
 N2463 N 0.60931 0.73721 1.08479
 C2464 C 0.59333 0.72835 1.09342
 N2465 N 0.58469 0.73724 1.10938
 N2466 N 0.59182 0.75433 1.11649
 C2467 C 0.58575 0.70930 1.08585
 N2468 N 0.56999 0.70028 1.09469
 N2469 N 0.56336 0.68281 1.08807
 C2470 C 0.57221 0.67365 1.07235
 N2471 N 0.58795 0.68278 1.06350
 N2472 N 0.59459 0.70025 1.07011
 C2473 C 0.88319 1.28145 0.88365
 N2474 N 0.86692 1.29002 0.89201
 N2475 N 0.85922 1.30662 0.88437
 C2476 C 0.86745 1.31532 0.86806
 N2477 N 0.88378 1.30671 0.85977
 N2478 N 0.89149 1.29011 0.86740
 C2479 C 0.89143 1.26291 0.89180
 N2480 N 0.90749 1.25415 0.88321
 N2481 N 0.91473 1.23712 0.89037
 C2482 C 0.90618 1.22824 0.90638
 N2483 N 0.89017 1.23704 0.91502
 N2484 N 0.88292 1.25406 0.90786
 C2485 C 0.91389 1.20925 0.91401
 N2486 N 0.90514 1.20022 0.92981
 N2487 N 0.91189 1.18280 0.93648
 C2488 C 0.92764 1.17371 0.92763
 N2489 N 0.93641 1.18285 0.91185
 N2490 N 0.92968 1.20027 0.90517
 C2491 C 0.88407 0.78175 0.38407
 N2492 N 0.89245 0.79043 0.36787
 N2493 N 0.88483 0.80709 0.36028
 C2494 C 0.86854 0.81575 0.36857
 N2495 N 0.86024 0.80704 0.38484
 N2496 N 0.86785 0.79038 0.39244
 C2497 C 0.89220 0.76313 0.39216
 N2498 N 0.88361 0.75426 0.40816
 N2499 N 0.89074 0.73717 0.41526
 C2500 C 0.90672 0.72832 0.40661
 N2501 N 0.91535 0.73722 0.39065
 N2502 N 0.90822 0.75432 0.38356
 C2503 C 0.91431 0.70925 0.41417
 N2504 N 0.93007 0.70023 0.40531
 N2505 N 0.93670 0.68275 0.41193
 C2506 C 0.92785 0.67358 0.42764
 N2507 N 0.91212 0.68271 0.43651
 N2508 N 0.90548 0.70019 0.42991
 C2509 C 0.38305 1.28152 0.38312
 N2510 N 0.36677 1.29011 0.39143
 N2511 N 0.35908 1.30669 0.38374
 C2512 C 0.36734 1.31535 0.36742
 N2513 N 0.38368 1.30672 0.35918
 N2514 N 0.39138 1.29014 0.36687
 C2515 C 0.39128 1.26300 0.39134
 N2516 N 0.40736 1.25422 0.38281
 N2517 N 0.41459 1.23722 0.39003
 C2518 C 0.40601 1.22838 0.40605
 N2519 N 0.38997 1.23719 0.41462
 N2520 N 0.38274 1.25419 0.40740
 C2521 C 0.41372 1.20942 0.41375
 N2522 N 0.40493 1.20041 0.42955
 N2523 N 0.41168 1.18301 0.43628
 C2524 C 0.42747 1.17392 0.42749
 N2525 N 0.43627 1.18303 0.41171
 N2526 N 0.42953 1.20043 0.40497
 C2527 C 0.38306 0.78122 0.88357
 N2528 N 0.36680 0.78981 0.89193
 N2529 N 0.35912 0.80642 0.88429
 C2530 C 0.36736 0.81512 0.86798
 N2531 N 0.38369 0.80650 0.85970
 N2532 N 0.39138 0.78988 0.86733
 C2533 C 0.39129 0.76268 0.89175
 N2534 N 0.40735 0.75391 0.88317
 N2535 N 0.41459 0.73689 0.89036
 C2536 C 0.40603 0.72803 0.90638
 N2537 N 0.39001 0.73683 0.91499
 N2538 N 0.38277 0.75385 0.90780
 C2539 C 0.41375 0.70906 0.91404
 N2540 N 0.40499 0.70004 0.92985
 N2541 N 0.41175 0.68264 0.93657
 C2542 C 0.42753 0.67356 0.92775
 N2543 N 0.43630 0.68267 0.91196
 N2544 N 0.42955 0.70007 0.90524
 C2545 C 1.11587 0.71802 0.88406
 N2546 N 1.10751 0.70939 0.86783
 N2547 N 1.11512 0.69273 0.86023
 C2548 C 1.13139 0.68403 0.86855
 N2549 N 1.13967 0.69269 0.88485
 N2550 N 1.13208 0.70935 0.89246
 C2551 C 1.10776 0.73663 0.89218
 N2552 N 1.11635 0.74545 0.90821
 N2553 N 1.10924 0.76254 0.91533
 C2554 C 1.09329 0.77143 0.90668
 N2555 N 1.08466 0.76258 0.89069
 N2556 N 1.09177 0.74549 0.88357
 C2557 C 1.08572 0.79049 0.91426
 N2558 N 1.06999 0.79956 0.90540
 N2559 N 1.06337 0.81703 0.91204
 C2560 C 1.07222 0.82615 0.92778
 N2561 N 1.08793 0.81698 0.93665
 N2562 N 1.09456 0.79951 0.93002
 C2563 C 1.11715 0.21876 0.38266
 N2564 N 1.10883 0.21017 0.36638
 N2565 N 1.11654 0.19360 0.35867
 C2566 C 1.13286 0.18495 0.36693
 N2567 N 1.14110 0.19357 0.38328
 N2568 N 1.13341 0.21013 0.39099
 C2569 C 1.10891 0.23725 0.39091
 N2570 N 1.11744 0.24601 0.40700
 N2571 N 1.11020 0.26299 0.41426
 C2572 C 1.09417 0.27183 0.40570
 N2573 N 1.08560 0.26303 0.38964
 N2574 N 1.09284 0.24606 0.38238
 C2575 C 1.08645 0.29076 0.41344
 N2576 N 1.07063 0.29976 0.40468
 N2577 N 1.06387 0.31713 0.41146
 C2578 C 1.07266 0.32620 0.42727
 N2579 N 1.08846 0.31709 0.43605
 N2580 N 1.09522 0.29972 0.42927
 C2581 C 0.61626 0.71863 0.38327
 N2582 N 0.60789 0.71004 0.36702
 N2583 N 0.61552 0.69342 0.35935
 C2584 C 0.63183 0.68472 0.36760
 N2585 N 0.64012 0.69335 0.38392
 N2586 N 0.63250 0.70996 0.39160
 C2587 C 0.60811 0.73718 0.39148
 N2588 N 0.61670 0.74596 0.40753
 N2589 N 0.60953 0.76299 0.41475
 C2590 C 0.59352 0.77186 0.40618
 N2591 N 0.58489 0.76305 0.39017
 N2592 N 0.59206 0.74602 0.38295
 C2593 C 0.58587 0.79084 0.41387
 N2594 N 0.57007 0.79987 0.40510
 N2595 N 0.56338 0.81727 0.41184
 C2596 C 0.57221 0.82637 0.42761
 N2597 N 0.58800 0.81724 0.43639
 N2598 N 0.59470 0.79983 0.42966
 C2599 C 0.61686 0.21847 0.88378
 N2600 N 0.63314 0.20988 0.89212
 N2601 N 0.64082 0.19329 0.88445
 C2602 C 0.63256 0.18461 0.86815
 N2603 N 0.61621 0.19323 0.85989
 N2604 N 0.60852 0.20982 0.86755
 C2605 C 0.60864 0.23700 0.89197
 N2606 N 0.59256 0.24577 0.88341
 N2607 N 0.58533 0.26278 0.89060
 C2608 C 0.59392 0.27165 0.90660
 N2609 N 0.60995 0.26284 0.91520
 N2610 N 0.61718 0.24583 0.90801
 C2611 C 0.58622 0.29062 0.91426
 N2612 N 0.59500 0.29965 0.93005
 N2613 N 0.58826 0.31705 0.93674
 C2614 C 0.57247 0.32614 0.92792
 N2615 N 0.56367 0.31701 0.91215
 N2616 N 0.57040 0.29960 0.90545
 C2617 C 0.88383 0.71846 1.11665
 N2618 N 0.86759 0.70981 1.10832
 N2619 N 0.85998 0.69319 1.11600
 C2620 C 0.86827 0.68454 1.13231
 N2621 N 0.88458 0.69322 1.14056
 N2622 N 0.89221 0.70985 1.13289
 C2623 C 0.89198 0.73701 1.10845
 N2624 N 0.90803 0.74584 1.11698
 N2625 N 0.91519 0.76287 1.10978
 C2626 C 0.90656 0.77170 1.09377
 N2627 N 0.89055 0.76285 1.08519
 N2628 N 0.88339 0.74581 1.09240
 C2629 C 0.91420 0.79069 1.08609
 N2630 N 0.90538 0.79970 1.07030
 N2631 N 0.91207 0.81712 1.06358
 C2632 C 0.92785 0.82623 1.07237
 N2633 N 0.93668 0.81712 1.08814
 N2634 N 0.93000 0.79971 1.09486
 C2635 C 0.88244 0.21912 0.61741
 N2636 N 0.89074 0.21051 0.63369
 N2637 N 0.88300 0.19396 0.64142
 C2638 C 0.86664 0.18536 0.63319
 N2639 N 0.85841 0.19400 0.61684
 N2640 N 0.86614 0.21055 0.60911
 C2641 C 0.89073 0.23757 0.60913
 N2642 N 0.88223 0.24636 0.59303
 N2643 N 0.88954 0.26330 0.58574
 C2644 C 0.90561 0.27207 0.59428
 N2645 N 0.91415 0.26325 0.61035
 N2646 N 0.90685 0.24632 0.61764
 C2647 C 0.91341 0.29095 0.58650
 N2648 N 0.92927 0.29990 0.59524
 N2649 N 0.93610 0.31722 0.58842
 C2650 C 0.92735 0.32631 0.57259
 N2651 N 0.91151 0.31726 0.56384
 N2652 N 0.90468 0.29993 0.57065
 C2653 C 0.38392 0.71832 0.61600
 N2654 N 0.39230 0.70968 0.63222
 N2655 N 0.38470 0.69301 0.63983
 C2656 C 0.36842 0.68433 0.63153
 N2657 N 0.36013 0.69300 0.61523
 N2658 N 0.36772 0.70966 0.60762
 C2659 C 0.39203 0.73693 0.60787
 N2660 N 0.38344 0.74576 0.59185
 N2661 N 0.39056 0.76284 0.58472
 C2662 C 0.40652 0.77172 0.59336
 N2663 N 0.41516 0.76286 0.60934
 N2664 N 0.40804 0.74577 0.61647
 C2665 C 0.41410 0.79077 0.58576
 N2666 N 0.42985 0.79981 0.59460
 N2667 N 0.43648 0.81727 0.58795
 C2668 C 0.42763 0.82640 0.57220
 N2669 N 0.41191 0.81726 0.56335
 N2670 N 0.40527 0.79980 0.56999
 C2671 C 0.38398 0.21822 1.11651
 N2672 N 0.36776 0.20956 1.10816
 N2673 N 0.36014 0.19294 1.11583
 C2674 C 0.36842 0.18430 1.13215
 N2675 N 0.38471 0.19299 1.14042
 N2676 N 0.39234 0.20961 1.13277
 C2677 C 0.39212 0.23679 1.10833
 N2678 N 0.40815 0.24563 1.11691
 N2679 N 0.41529 0.26268 1.10973
 C2680 C 0.40667 0.27152 1.09373
 N2681 N 0.39068 0.26265 1.08511
 N2682 N 0.38354 0.24559 1.09229
 C2683 C 0.41427 0.29054 1.08609
 N2684 N 0.40544 0.29956 1.07031
 N2685 N 0.41210 0.31700 1.06364
 C2686 C 0.42784 0.32614 1.07248
 N2687 N 0.43668 0.31702 1.08824
 N2688 N 0.43003 0.29957 1.09491
 C2689 C 1.11595 1.11646 0.71819
 N2690 N 1.13217 1.10812 0.70951
 N2691 N 1.13975 1.11579 0.69287
 C2692 C 1.13144 1.13210 0.68424
 N2693 N 1.11516 1.14036 0.69295
 N2694 N 1.10756 1.13270 0.70959
 C2695 C 1.10785 1.10827 0.73677
 N2696 N 1.09182 1.11681 0.74564
 N2697 N 1.08471 1.10961 0.76270
 C2698 C 1.09337 1.09362 0.77152
 N2699 N 1.10936 1.08505 0.76263
 N2700 N 1.11647 1.09224 0.74557
 C2701 C 1.08579 1.08596 0.79055
 N2702 N 1.09466 1.07020 0.79956
 N2703 N 1.08802 1.06351 0.81701
 C2704 C 1.07225 1.07230 0.82615
 N2705 N 1.06337 1.08804 0.81703
 N2706 N 1.07001 1.09474 0.79959
 C2707 C 1.11725 0.61765 0.21893
 N2708 N 1.10893 0.63395 0.21038
 N2709 N 1.11662 0.64170 0.19382
 C2710 C 1.13296 0.63349 0.18511
 N2711 N 1.14118 0.61710 0.19373
 N2712 N 1.13350 0.60935 0.21028
 C2713 C 1.10902 0.60933 0.23740
 N2714 N 1.11756 0.59322 0.24613
 N2715 N 1.11032 0.58589 0.26308
 C2716 C 1.09427 0.59441 0.27193
 N2717 N 1.08570 0.61049 0.26317
 N2718 N 1.09294 0.61782 0.24622
 C2719 C 1.08653 0.58659 0.29083
 N2720 N 1.07069 0.59530 0.29983
 N2721 N 1.06391 0.58844 0.31716
 C2722 C 1.07270 0.57261 0.32619
 N2723 N 1.08852 0.56388 0.31709
 N2724 N 1.09531 0.57073 0.29976
 C2725 C 0.61623 1.11660 0.21843
 N2726 N 0.60787 1.13285 0.20982
 N2727 N 0.61552 1.14052 0.19321
 C2728 C 0.63183 1.13226 0.18454
 N2729 N 0.64011 1.11594 0.19318
 N2730 N 0.63247 1.10826 0.20979
 C2731 C 0.60807 1.10841 0.23699
 N2732 N 0.61665 1.09236 0.24580
 N2733 N 0.60948 1.08518 0.26284
 C2734 C 0.59347 1.09377 0.27169
 N2735 N 0.58486 1.10978 0.26284
 N2736 N 0.59202 1.11697 0.24581
 C2737 C 0.58583 1.08612 0.29069
 N2738 N 0.57005 1.09493 0.29970
 N2739 N 0.56336 1.08823 0.31713
 C2740 C 0.57219 1.07247 0.32626
 N2741 N 0.58795 1.06365 0.31714
 N2742 N 0.59465 1.07034 0.29971
 C2743 C 0.61610 0.61599 0.71847
 N2744 N 0.63233 0.60763 0.70982
 N2745 N 0.63993 0.61525 0.69317
 C2746 C 0.63163 0.63155 0.68450
 N2747 N 0.61534 0.63984 0.69318
 N2748 N 0.60773 0.63222 0.70983
 C2749 C 0.60798 0.60785 0.73706
 N2750 N 0.59195 0.61644 0.74589
 N2751 N 0.58482 0.60929 0.76296
 C2752 C 0.59344 0.59330 0.77183
 N2753 N 0.60943 0.58468 0.76297
 N2754 N 0.61656 0.59182 0.74589
 C2755 C 0.58584 0.58569 0.79086
 N2756 N 0.59467 0.56992 0.79989
 N2757 N 0.58801 0.56327 0.81735
 C2758 C 0.57227 0.57211 0.82648
 N2759 N 0.56343 0.58786 0.81734
 N2760 N 0.57008 0.59452 0.79989
 C2761 C 0.88413 0.88401 0.71809
 N2762 N 0.86791 0.89238 0.70943
 N2763 N 0.86029 0.88475 0.69279
 C2764 C 0.86857 0.86845 0.68413
 N2765 N 0.88486 0.86016 0.69282
 N2766 N 0.89249 0.86777 0.70946
 C2767 C 0.89226 0.89215 0.73668
 N2768 N 0.90828 0.88357 0.74553
 N2769 N 0.91541 0.89071 0.76260
 C2770 C 0.90678 0.90670 0.77145
 N2771 N 0.89080 0.91532 0.76257
 N2772 N 0.88367 0.90818 0.74550
 C2773 C 0.91437 0.91430 0.79048
 N2774 N 0.90553 0.93007 0.79951
 N2775 N 0.91217 0.93671 0.81697
 C2776 C 0.92791 0.92788 0.82611
 N2777 N 0.93677 0.91214 0.81699
 N2778 N 0.93013 0.90548 0.79953
 C2779 C 0.88411 0.38325 0.21818
 N2780 N 0.86789 0.39160 0.20950
 N2781 N 0.86027 0.38391 0.19288
 C2782 C 0.86855 0.36758 0.18428
 N2783 N 0.88484 0.35931 0.19299
 N2784 N 0.89247 0.36699 0.20961
 C2785 C 0.89223 0.39146 0.23674
 N2786 N 0.90826 0.38292 0.24562
 N2787 N 0.91539 0.39012 0.26267
 C2788 C 0.90675 0.40614 0.27146
 N2789 N 0.89076 0.41472 0.26255
 N2790 N 0.88364 0.40752 0.24550
 C2791 C 0.91434 0.41381 0.29047
 N2792 N 0.90548 0.42959 0.29945
 N2793 N 0.91213 0.43629 0.31689
 C2794 C 0.92788 0.42749 0.32606
 N2795 N 0.93674 0.41173 0.31697
 N2796 N 0.93011 0.40502 0.29954
 C2797 C 0.38377 0.88322 0.21851
 N2798 N 0.36755 0.89155 0.20980
 N2799 N 0.35995 0.88383 0.19319
 C2800 C 0.36824 0.86749 0.18462
 N2801 N 0.38452 0.85924 0.19336
 N2802 N 0.39213 0.86694 0.20997
 C2803 C 0.39189 0.89147 0.23706
 N2804 N 0.40791 0.88296 0.24595
 N2805 N 0.41504 0.89021 0.26298
 C2806 C 0.40640 0.90624 0.27174
 N2807 N 0.39041 0.91480 0.26282
 N2808 N 0.38328 0.90755 0.24579
 C2809 C 0.41400 0.91396 0.29073
 N2810 N 0.40516 0.92976 0.29968
 N2811 N 0.41182 0.93651 0.31710
 C2812 C 0.42758 0.92773 0.32627
 N2813 N 0.43644 0.91196 0.31721
 N2814 N 0.42978 0.90520 0.29980
 C2815 C 0.38383 0.38324 0.71860
 N2816 N 0.36761 0.39159 0.70992
 N2817 N 0.36001 0.38393 0.69329
 C2818 C 0.36829 0.36760 0.68467
 N2819 N 0.38458 0.35933 0.69338
 N2820 N 0.39220 0.36699 0.71001
 C2821 C 0.39197 0.39144 0.73716
 N2822 N 0.40800 0.38289 0.74602
 N2823 N 0.41515 0.39009 0.76307
 C2824 C 0.40652 0.40611 0.77187
 N2825 N 0.39053 0.41469 0.76298
 N2826 N 0.38338 0.40749 0.74594
 C2827 C 0.41414 0.41378 0.79087
 N2828 N 0.40532 0.42957 0.79986
 N2829 N 0.41200 0.43628 0.81729
 C2830 C 0.42776 0.42748 0.82643
 N2831 N 0.43660 0.41171 0.81734
 N2832 N 0.42993 0.40499 0.79992
 C2833 C 1.11663 0.88334 1.28150
 N2834 N 1.10829 0.86708 1.29011
 N2835 N 1.11594 0.85943 1.30673
 C2836 C 1.13226 0.86767 1.31545
 N2837 N 1.14048 0.88402 1.30677
 N2838 N 1.13284 0.89169 1.29015
 C2839 C 1.10846 0.89153 1.26294
 N2840 N 1.11701 0.90759 1.25415
 N2841 N 1.10984 0.91479 1.23711
 C2842 C 1.09384 0.90619 1.22825
 N2843 N 1.08525 0.89017 1.23707
 N2844 N 1.09242 0.88297 1.25411
 C2845 C 1.08619 0.91386 1.20925
 N2846 N 1.07041 0.90507 1.20022
 N2847 N 1.06372 0.91179 1.18280
 C2848 C 1.07253 0.92756 1.17370
 N2849 N 1.08829 0.93637 1.18283
 N2850 N 1.09499 0.92966 1.20025
 C2851 C 1.11690 0.38313 0.78126
 N2852 N 1.10855 0.36691 0.78990
 N2853 N 1.11622 0.35927 0.80652
 C2854 C 1.13255 0.36750 0.81521
 N2855 N 1.14079 0.38382 0.80650
 N2856 N 1.13314 0.39148 0.78988
 C2857 C 1.10870 0.39131 0.76270
 N2858 N 1.11725 0.40736 0.75387
 N2859 N 1.11004 0.41454 0.73684
 C2860 C 1.09402 0.40595 0.72802
 N2861 N 1.08543 0.38994 0.73688
 N2862 N 1.09265 0.38276 0.75391
 C2863 C 1.08632 0.41362 0.70904
 N2864 N 1.07052 0.40483 0.70006
 N2865 N 1.06378 0.41155 0.68265
 C2866 C 1.07257 0.42732 0.67353
 N2867 N 1.08836 0.43612 0.68261
 N2868 N 1.09510 0.42941 0.70002
 C2869 C 0.61592 0.88404 0.78175
 N2870 N 0.60756 0.86781 0.79040
 N2871 N 0.61519 0.86019 0.80705
 C2872 C 0.63148 0.86847 0.81572
 N2873 N 0.63977 0.88476 0.80705
 N2874 N 0.63215 0.89240 0.79040
 C2875 C 0.60778 0.89218 0.76317
 N2876 N 0.61637 0.90821 0.75434
 N2877 N 0.60923 0.91536 0.73726
 C2878 C 0.59324 0.90675 0.72840
 N2879 N 0.58462 0.89076 0.73726
 N2880 N 0.59176 0.88361 0.75433
 C2881 C 0.58564 0.91436 0.70936
 N2882 N 0.56987 0.90555 0.70033
 N2883 N 0.56323 0.91222 0.68287
 C2884 C 0.57207 0.92795 0.67374
 N2885 N 0.58782 0.93678 0.68287
 N2886 N 0.59447 0.93012 0.70033
 C2887 C 0.61699 0.38247 1.28140
 N2888 N 0.60865 0.36620 1.28998
 N2889 N 0.61634 0.35848 1.30656
 C2890 C 0.63269 0.36667 1.31526
 N2891 N 0.64092 0.38303 1.30661
 N2892 N 0.63324 0.39077 1.29004
 C2893 C 0.60877 0.39075 1.26291
 N2894 N 0.61732 0.40683 1.25415
 N2895 N 0.61009 0.41412 1.23717
 C2896 C 0.59405 0.40558 1.22832
 N2897 N 0.58546 0.38954 1.23711
 N2898 N 0.59269 0.38226 1.25409
 C2899 C 0.58634 0.41335 1.20939
 N2900 N 0.57050 0.40462 1.20039
 N2901 N 0.56375 0.41143 1.18302
 C2902 C 0.57255 0.42723 1.17395
 N2903 N 0.58836 0.43597 1.18306
 N2904 N 0.59512 0.42918 1.20042
 C2905 C 0.88442 1.11548 1.28206
 N2906 N 0.86819 1.10712 1.29070
 N2907 N 0.86059 1.11472 1.30736
 C2908 C 0.86890 1.13098 1.31606
 N2909 N 0.88520 1.13926 1.30740
 N2910 N 0.89281 1.13167 1.29073
 C2911 C 0.89253 1.10738 1.26345
 N2912 N 0.90855 1.11597 1.25462
 N2913 N 0.91565 1.10888 1.23752
 C2914 C 0.90700 1.09294 1.22862
 N2915 N 0.89102 1.08431 1.23747
 N2916 N 0.88391 1.09140 1.25458
 C2917 C 0.91456 1.08540 1.20955
 N2918 N 0.90570 1.06968 1.20047
 N2919 N 0.91232 1.06309 1.18298
 C2920 C 0.92805 1.07195 1.17385
 N2921 N 0.93692 1.08764 1.18303
 N2922 N 0.93031 1.09424 1.20052
 C2923 C 0.88396 0.61592 0.78154
 N2924 N 0.89232 0.63215 0.79018
 N2925 N 0.88471 0.63976 0.80682
 C2926 C 0.86842 0.63148 0.81551
 N2927 N 0.86013 0.61519 0.80684
 N2928 N 0.86774 0.60756 0.79019
 C2929 C 0.89209 0.60778 0.76295
 N2930 N 0.88350 0.59176 0.75413
 N2931 N 0.89064 0.58461 0.73706
 C2932 C 0.90663 0.59323 0.72819
 N2933 N 0.91525 0.60922 0.73705
 N2934 N 0.90811 0.61636 0.75412
 C2935 C 0.91423 0.58562 0.70916
 N2936 N 0.92999 0.59445 0.70013
 N2937 N 0.93664 0.58779 0.68268
 C2938 C 0.92781 0.57204 0.67355
 N2939 N 0.91207 0.56320 0.68269
 N2940 N 0.90541 0.56986 0.70014
 C2941 C 0.38362 1.11699 0.78135
 N2942 N 0.36740 1.10866 0.79003
 N2943 N 0.35979 1.11634 0.80665
 C2944 C 0.36808 1.13266 0.81527
 N2945 N 0.38437 1.14092 0.80656
 N2946 N 0.39199 1.13325 0.78994
 C2947 C 0.39176 1.10877 0.76280
 N2948 N 0.40779 1.11730 0.75394
 N2949 N 0.41494 1.11008 0.73691
 C2950 C 0.40631 1.09406 0.72811
 N2951 N 0.39031 1.08550 0.73700
 N2952 N 0.38317 1.09272 0.75403
 C2953 C 0.41393 1.08637 0.70912
 N2954 N 0.40510 1.07058 0.70014
 N2955 N 0.41177 1.06385 0.68272
 C2956 C 0.42754 1.07262 0.67358
 N2957 N 0.43639 1.08839 0.68267
 N2958 N 0.42972 1.09513 0.70008
 C2959 C 0.38374 0.61686 1.28160
 N2960 N 0.36753 0.60853 1.29028
 N2961 N 0.35989 0.61624 1.30688
 C2962 C 0.36815 0.63260 1.31546
 N2963 N 0.38443 0.64085 1.30674
 N2964 N 0.39208 0.63315 1.29015
 C2965 C 0.39190 0.60860 1.26307
 N2966 N 0.40793 0.61713 1.25420
 N2967 N 0.41508 0.60987 1.23718
 C2968 C 0.40647 0.59383 1.22842
 N2969 N 0.39048 0.58527 1.23732
 N2970 N 0.38332 0.59253 1.25434
 C2971 C 0.41410 0.58610 1.20944
 N2972 N 0.40527 0.57030 1.20049
 N2973 N 0.41195 0.56355 1.18308
 C2974 C 0.42772 0.57232 1.17393
 N2975 N 0.43655 0.58810 1.18299
 N2976 N 0.42988 0.59486 1.20039
 C2977 C 1.11645 1.28133 0.88306
 N2978 N 1.13267 1.28998 0.89140
 N2979 N 1.14031 1.30658 0.88370
 C2980 C 1.13205 1.31520 0.86736
 N2981 N 1.11575 1.30651 0.85910
 N2982 N 1.10810 1.28991 0.86679
 C2983 C 1.10827 1.26279 0.89129
 N2984 N 1.09224 1.25396 0.88275
 N2985 N 1.08506 1.23694 0.88998
 C2986 C 1.09366 1.22814 0.90602
 N2987 N 1.10966 1.23701 0.91460
 N2988 N 1.11684 1.25402 0.90737
 C2989 C 1.08601 1.20916 0.91372
 N2990 N 1.09481 1.20018 0.92953
 N2991 N 1.08811 1.18277 0.93627
 C2992 C 1.07235 1.17365 0.92747
 N2993 N 1.06353 1.18273 0.91168
 N2994 N 1.07022 1.20014 0.90494
 C2995 C 1.11631 0.78134 0.38314
 N2996 N 1.13252 0.79001 0.39150
 N2997 N 1.14013 0.80664 0.38383
 C2998 C 1.13185 0.81527 0.36751
 N2999 N 1.11557 0.80657 0.35923
 N3000 N 1.10795 0.78994 0.36688
 C3001 C 1.10816 0.76278 0.39133
 N3002 N 1.09214 0.75394 0.38277
 N3003 N 1.08498 0.73690 0.38997
 C3004 C 1.09359 0.72808 0.40599
 N3005 N 1.10958 0.73695 0.41459
 N3006 N 1.11674 0.75399 0.40739
 C3007 C 1.08596 0.70908 0.41366
 N3008 N 1.09477 0.70009 0.42947
 N3009 N 1.08808 0.68267 0.43618
 C3010 C 1.07233 0.67353 0.42737
 N3011 N 1.06350 0.68263 0.41159
 N3012 N 1.07018 0.70005 0.40486
 C3013 C 0.61702 1.28117 0.38265
 N3014 N 0.60868 1.28977 0.36638
 N3015 N 0.61636 1.30634 0.35867
 C3016 C 0.63271 1.31503 0.36687
 N3017 N 0.64095 1.30637 0.38323
 N3018 N 0.63328 1.28979 0.39095
 C3019 C 0.60880 1.26267 0.39091
 N3020 N 0.61735 1.25389 0.40699
 N3021 N 0.61011 1.23692 0.41426
 C3022 C 0.59406 1.22810 0.40572
 N3023 N 0.58547 1.23691 0.38967
 N3024 N 0.59271 1.25388 0.38240
 C3025 C 0.58634 1.20917 0.41347
 N3026 N 0.57050 1.20019 0.40473
 N3027 N 0.56373 1.18284 0.41153
 C3028 C 0.57253 1.17375 0.42733
 N3029 N 0.58834 1.18283 0.43609
 N3030 N 0.59512 1.20019 0.42930
 C3031 C 0.61603 0.78165 0.88411
 N3032 N 0.60764 0.79030 0.86789
 N3033 N 0.61524 0.80695 0.86027
 C3034 C 0.63154 0.81562 0.86854
 N3035 N 0.63986 0.80694 0.88483
 N3036 N 0.63226 0.79029 0.89246
 C3037 C 0.60792 0.76305 0.89225
 N3038 N 0.61653 0.75422 0.90827
 N3039 N 0.60941 0.73714 0.91541
 C3040 C 0.59341 0.72828 0.90681
 N3041 N 0.58476 0.73715 0.89084
 N3042 N 0.59188 0.75423 0.88369
 C3043 C 0.58582 0.70925 0.91442
 N3044 N 0.57005 0.70023 0.90561
 N3045 N 0.56341 0.68277 0.91228
 C3046 C 0.57227 0.67362 0.92801
 N3047 N 0.58803 0.68275 0.93683
 N3048 N 0.59468 0.70020 0.93017
 C3049 C 0.88365 1.28148 1.11637
 N3050 N 0.89201 1.29012 1.13259
 N3051 N 0.88437 1.30675 1.14022
 C3052 C 0.86804 1.31545 1.13198
 N3053 N 0.85977 1.30674 1.11566
 N3054 N 0.86741 1.29011 1.10803
 C3055 C 0.89181 1.26291 1.10821
 N3056 N 0.88323 1.25409 1.09218
 N3057 N 0.89041 1.23704 1.08502
 C3058 C 0.90642 1.22819 1.09362
 N3059 N 0.91503 1.23705 1.10962
 N3060 N 0.90786 1.25410 1.11678
 C3061 C 0.91406 1.20919 1.08599
 N3062 N 0.92985 1.20017 1.09480
 N3063 N 0.93655 1.18275 1.08811
 C3064 C 0.92772 1.17363 1.07235
 N3065 N 0.91196 1.18275 1.06352
 N3066 N 0.90526 1.20017 1.07020
 C3067 C 0.88402 0.78162 0.61580
 N3068 N 0.86779 0.79027 0.60744
 N3069 N 0.86019 0.80693 0.61506
 C3070 C 0.86850 0.81560 0.63134
 N3071 N 0.88480 0.80692 0.63962
 N3072 N 0.89241 0.79026 0.63201
 C3073 C 0.89213 0.76302 0.60767
 N3074 N 0.90816 0.75418 0.61624
 N3075 N 0.91529 0.73710 0.60910
 C3076 C 0.90664 0.72824 0.59314
 N3077 N 0.89064 0.73710 0.58453
 N3078 N 0.88352 0.75418 0.59166
 C3079 C 0.91423 0.70920 0.58554
 N3080 N 0.90538 0.70016 0.56979
 N3081 N 0.91203 0.68270 0.56315
 C3082 C 0.92779 0.67357 0.57198
 N3083 N 0.93665 0.68271 0.58770
 N3084 N 0.93001 0.70017 0.59435
 C3085 C 0.38348 1.28163 0.61659
 N3086 N 0.39183 1.29023 0.63284
 N3087 N 0.38419 1.30684 0.64051
 C3088 C 0.36787 1.31557 0.63227
 N3089 N 0.35962 1.30691 0.61592
 N3090 N 0.36726 1.29029 0.60825
 C3091 C 0.39164 1.26308 0.60839
 N3092 N 0.38306 1.25430 0.59233
 N3093 N 0.39022 1.23727 0.58512
 C3094 C 0.40623 1.22840 0.59370
 N3095 N 0.41484 1.23721 0.60972
 N3096 N 0.40768 1.25424 0.61693
 C3097 C 0.41386 1.20941 0.58602
 N3098 N 0.42966 1.20038 0.59480
 N3099 N 0.43634 1.18296 0.58807
 C3100 C 0.42750 1.17387 0.57230
 N3101 N 0.41173 1.18301 0.56350
 N3102 N 0.40504 1.20042 0.57023
 C3103 C 0.38343 0.78135 1.11675
 N3104 N 0.39177 0.78999 1.13299
 N3105 N 0.38412 0.80661 1.14061
 C3106 C 0.36780 0.81532 1.13235
 N3107 N 0.35957 0.80662 1.11601
 N3108 N 0.36721 0.78999 1.10838
 C3109 C 0.39161 0.76279 1.10858
 N3110 N 0.38306 0.75398 1.09253
 N3111 N 0.39024 0.73695 1.08535
 C3112 C 0.40625 0.72810 1.09396
 N3113 N 0.41484 0.73694 1.10998
 N3114 N 0.40765 0.75397 1.11716
 C3115 C 0.41391 0.70911 1.08630
 N3116 N 0.42970 0.70009 1.09511
 N3117 N 0.43641 0.68268 1.08839
 C3118 C 0.42761 0.67358 1.07261
 N3119 N 0.41184 0.68270 1.06379
 N3120 N 0.40512 0.70011 1.07050
 C3121 C 0.88401 0.71828 0.88383
 N3122 N 0.86781 0.70963 0.89222
 N3123 N 0.86019 0.69298 0.88461
 C3124 C 0.86845 0.68431 0.86830
 N3125 N 0.88473 0.69299 0.85999
 N3126 N 0.89236 0.70963 0.86759
 C3127 C 0.89216 0.73686 0.89195
 N3128 N 0.90816 0.74570 0.88334
 N3129 N 0.91531 0.76277 0.89047
 C3130 C 0.90671 0.77162 0.90648
 N3131 N 0.89075 0.76275 0.91513
 N3132 N 0.88360 0.74569 0.90799
 C3133 C 0.91433 0.79065 0.91408
 N3134 N 0.90553 0.79966 0.92987
 N3135 N 0.91219 0.81711 0.93652
 C3136 C 0.92791 0.82625 0.92766
 N3137 N 0.93673 0.81713 0.91189
 N3138 N 0.93007 0.79969 0.90523
 C3139 C 0.88445 0.21779 0.38435
 N3140 N 0.89283 0.20912 0.36814
 N3141 N 0.88521 0.19246 0.36056
 C3142 C 0.86892 0.18380 0.36886
 N3143 N 0.86063 0.19250 0.38514
 N3144 N 0.86824 0.20916 0.39273
 C3145 C 0.89257 0.23641 0.39243
 N3146 N 0.88397 0.24527 0.40843
 N3147 N 0.89108 0.26237 0.41552
 C3148 C 0.90705 0.27123 0.40687
 N3149 N 0.91568 0.26234 0.39091
 N3150 N 0.90857 0.24524 0.38382
 C3151 C 0.91460 0.29030 0.41440
 N3152 N 0.93034 0.29935 0.40554
 N3153 N 0.93694 0.31684 0.41214
 C3154 C 0.92808 0.32600 0.42785
 N3155 N 0.91237 0.31685 0.43673
 N3156 N 0.90576 0.29936 0.43014
 C3157 C 0.38317 0.71874 0.38334
 N3158 N 0.39154 0.71010 0.36712
 N3159 N 0.38391 0.69347 0.35948
 C3160 C 0.36757 0.68478 0.36772
 N3161 N 0.35931 0.69348 0.38403
 N3162 N 0.36693 0.71011 0.39167
 C3163 C 0.39133 0.73730 0.39151
 N3164 N 0.38275 0.74612 0.40755
 N3165 N 0.38994 0.76315 0.41474
 C3166 C 0.40596 0.77198 0.40616
 N3167 N 0.41457 0.76313 0.39016
 N3168 N 0.40739 0.74610 0.38297
 C3169 C 0.41363 0.79097 0.41383
 N3170 N 0.42944 0.79996 0.40505
 N3171 N 0.43616 0.81736 0.41178
 C3172 C 0.42734 0.82647 0.42754
 N3173 N 0.41155 0.81738 0.43633
 N3174 N 0.40482 0.79998 0.42961
 C3175 C 0.38330 0.21860 0.88336
 N3176 N 0.39164 0.21000 0.86711
 N3177 N 0.38398 0.19340 0.85944
 C3178 C 0.36765 0.18470 0.86767
 N3179 N 0.35942 0.19337 0.88401
 N3180 N 0.36707 0.20997 0.89169
 C3181 C 0.39150 0.23713 0.89157
 N3182 N 0.38294 0.24592 0.90763
 N3183 N 0.39014 0.26293 0.91485
 C3184 C 0.40616 0.27177 0.90628
 N3185 N 0.41475 0.26295 0.89025
 N3186 N 0.40755 0.24594 0.88303
 C3187 C 0.41384 0.29074 0.91398
 N3188 N 0.42965 0.29974 0.90520
 N3189 N 0.43638 0.31712 0.91195
 C3190 C 0.42757 0.32622 0.92773
 N3191 N 0.41179 0.31712 0.93652
 N3192 N 0.40505 0.29973 0.92978
 C3193 C 1.11736 0.71903 1.11769
 N3194 N 1.13361 0.71037 1.10940
 N3195 N 1.14127 0.69380 1.11714
 C3196 C 1.13303 0.68516 1.13351
 N3197 N 1.11669 0.69389 1.14170
 N3198 N 1.10902 0.71047 1.13397
 C3199 C 1.10915 0.73753 1.10939
 N3200 N 1.09306 0.74635 1.11787
 N3201 N 1.08583 0.76331 1.11056
 C3202 C 1.09442 0.77208 1.09450
 N3203 N 1.11047 0.76323 1.08598
 N3204 N 1.11770 0.74626 1.09329
 C3205 C 1.08669 0.79099 1.08669
 N3206 N 1.09547 0.79993 1.07084
 N3207 N 1.08868 0.81727 1.06401
 C3208 C 1.07285 0.82637 1.07273
 N3209 N 1.06407 0.81732 1.08855
 N3210 N 1.07084 0.79999 1.09540
 C3211 C 1.11625 0.21816 0.61621
 N3212 N 1.10790 0.20954 0.63245
 N3213 N 1.11553 0.19290 0.64010
 C3214 C 1.13185 0.18418 0.63185
 N3215 N 1.14009 0.19287 0.61552
 N3216 N 1.13247 0.20950 0.60786
 C3217 C 1.10811 0.23673 0.60804
 N3218 N 1.11669 0.24553 0.59200
 N3219 N 1.10955 0.26259 0.58482
 C3220 C 1.09356 0.27147 0.59342
 N3221 N 1.08494 0.26263 0.60942
 N3222 N 1.09208 0.24558 0.61660
 C3223 C 1.08595 0.29049 0.58577
 N3224 N 1.07017 0.29952 0.59457
 N3225 N 1.06351 0.31697 0.58788
 C3226 C 1.07236 0.32608 0.57212
 N3227 N 1.08811 0.31694 0.56331
 N3228 N 1.09478 0.29950 0.56999
 C3229 C 0.61600 0.71836 0.61615
 N3230 N 0.60766 0.70971 0.63239
 N3231 N 0.61530 0.69306 0.63999
 C3232 C 0.63158 0.68439 0.63168
 N3233 N 0.63984 0.69307 0.61538
 N3234 N 0.63221 0.70972 0.60776
 C3235 C 0.60785 0.73695 0.60802
 N3236 N 0.61640 0.74579 0.59198
 N3237 N 0.60925 0.76286 0.58485
 C3238 C 0.59328 0.77172 0.59349
 N3239 N 0.58468 0.76286 0.60949
 N3240 N 0.59184 0.74579 0.61663
 C3241 C 0.58566 0.79075 0.58589
 N3242 N 0.56990 0.79979 0.59473
 N3243 N 0.56324 0.81724 0.58807
 C3244 C 0.57206 0.82637 0.57231
 N3245 N 0.58779 0.81723 0.56345
 N3246 N 0.59446 0.79977 0.57011
 C3247 C 0.61663 0.21834 1.11661
 N3248 N 0.63287 0.20973 1.10826
 N3249 N 0.64052 0.19310 1.11590
 C3250 C 0.63229 0.18438 1.13222
 N3251 N 0.61595 0.19306 1.14046
 N3252 N 0.60828 0.20968 1.13284
 C3253 C 0.60843 0.23690 1.10846
 N3254 N 0.59239 0.24569 1.11704
 N3255 N 0.58519 0.26274 1.10988
 C3256 C 0.59377 0.27161 1.09388
 N3257 N 0.60978 0.26279 1.08527
 N3258 N 0.61698 0.24575 1.09242
 C3259 C 0.58610 0.29061 1.08625
 N3260 N 0.59488 0.29965 1.07047
 N3261 N 0.58816 0.31707 1.06379
 C3262 C 0.57240 0.32617 1.07263
 N3263 N 0.56360 0.31704 1.08839
 N3264 N 0.57031 0.29961 1.09508
 C3265 C 1.28144 1.11689 0.88365
 N3266 N 1.29011 1.10858 0.86741
 N3267 N 1.30672 1.11628 0.85979
 C3268 C 1.31532 1.13260 0.86808
 N3269 N 1.30662 1.14084 0.88438
 N3270 N 1.29002 1.13315 0.89202
 C3271 C 1.26291 1.10866 0.89180
 N3272 N 1.25405 1.11718 0.90784
 N3273 N 1.23703 1.10994 0.91500
 C3274 C 1.22824 1.09392 0.90637
 N3275 N 1.23713 1.08537 0.89036
 N3276 N 1.25415 1.09260 0.88321
 C3277 C 1.20926 1.08621 0.91400
 N3278 N 1.20029 1.07042 0.90517
 N3279 N 1.18288 1.06368 0.91186
 C3280 C 1.17374 1.07245 0.92763
 N3281 N 1.18282 1.08822 0.93647
 N3282 N 1.20023 1.09497 0.92979
 C3283 C 1.28144 0.61685 0.38371
 N3284 N 1.28997 0.63314 0.39207
 N3285 N 1.30658 0.64085 0.38445
 C3286 C 1.31532 0.63260 0.36818
 N3287 N 1.30676 0.61625 0.35990
 N3288 N 1.29015 0.60853 0.36750
 C3289 C 1.26290 0.60860 0.39183
 N3290 N 1.25418 0.59252 0.38323
 N3291 N 1.23715 0.58526 0.39035
 C3292 C 1.22823 0.59381 0.40634
 N3293 N 1.23698 0.60985 0.41498
 N3294 N 1.25400 0.61711 0.40785
 C3295 C 1.20925 0.58608 0.41394
 N3296 N 1.20018 0.59483 0.42972
 N3297 N 1.18277 0.58807 0.43637
 C3298 C 1.17372 0.57229 0.42751
 N3299 N 1.18289 0.56352 0.41175
 N3300 N 1.20030 0.57028 0.40509
 C3301 C 0.78202 1.11559 0.38432
 N3302 N 0.79069 1.13179 0.39271
 N3303 N 0.80737 1.13936 0.38512
 C3304 C 0.81605 1.13105 0.36884
 N3305 N 0.80735 1.11478 0.36053
 N3306 N 0.79067 1.10721 0.36811
 C3307 C 0.76339 1.10752 0.39242
 N3308 N 0.75453 1.09153 0.38380
 N3309 N 0.73742 1.08445 0.39090
 C3310 C 0.72855 1.09310 0.40686
 N3311 N 0.73744 1.10905 0.41551
 N3312 N 0.75455 1.11613 0.40842
 C3313 C 0.70947 1.08557 0.41442
 N3314 N 0.70043 1.09443 0.43016
 N3315 N 0.68294 1.08784 0.43676
 C3316 C 0.67377 1.07214 0.42790
 N3317 N 0.68291 1.06326 0.41218
 N3318 N 0.70040 1.06985 0.40556
 C3319 C 0.78172 0.61593 0.88398
 N3320 N 0.79036 0.63216 0.89233
 N3321 N 0.80699 0.63978 0.88468
 C3322 C 0.81565 0.63148 0.86838
 N3323 N 0.80698 0.61519 0.86011
 N3324 N 0.79035 0.60756 0.86775
 C3325 C 0.76315 0.60779 0.89214
 N3326 N 0.75431 0.59176 0.88357
 N3327 N 0.73726 0.58461 0.89074
 C3328 C 0.72841 0.59324 0.90673
 N3329 N 0.73728 0.60923 0.91533
 N3330 N 0.75433 0.61637 0.90817
 C3331 C 0.70940 0.58563 0.91436
 N3332 N 0.70038 0.59445 0.93013
 N3333 N 0.68294 0.58779 0.93680
 C3334 C 0.67381 0.57204 0.92798
 N3335 N 0.68293 0.56320 0.91223
 N3336 N 0.70037 0.56986 0.90555
 C3337 C 1.28161 0.88317 1.11619
 N3338 N 1.29018 0.86689 1.10785
 N3339 N 1.30679 0.85920 1.11550
 C3340 C 1.31550 0.86747 1.13178
 N3341 N 1.30690 0.88381 1.14004
 N3342 N 1.29029 0.89151 1.13241
 C3343 C 1.26307 0.89140 1.10804
 N3344 N 1.25431 0.90747 1.11661
 N3345 N 1.23728 0.91470 1.10946
 C3346 C 1.22839 0.90613 1.09347
 N3347 N 1.23717 0.89009 1.08485
 N3348 N 1.25420 0.88286 1.09201
 C3349 C 1.20939 0.91383 1.08585
 N3350 N 1.20034 0.90505 1.07007
 N3351 N 1.18292 0.91179 1.06340
 C3352 C 1.17384 0.92756 1.07224
 N3353 N 1.18300 0.93635 1.08800
 N3354 N 1.20042 0.92963 1.09467
 C3355 C 1.28164 0.38334 0.61621
 N3356 N 1.29028 0.39166 0.63246
 N3357 N 1.30689 0.38398 0.64010
 C3358 C 1.31554 0.36767 0.63181
 N3359 N 1.30687 0.35943 0.61549
 N3360 N 1.29026 0.36710 0.60784
 C3361 C 1.26309 0.39154 0.60804
 N3362 N 1.25428 0.38300 0.59198
 N3363 N 1.23724 0.39019 0.58481
 C3364 C 1.22839 0.40618 0.59343
 N3365 N 1.23724 0.41476 0.60945
 N3366 N 1.25428 0.40757 0.61662
 C3367 C 1.20939 0.41384 0.58579
 N3368 N 1.20037 0.42961 0.59461
 N3369 N 1.18294 0.43630 0.58791
 C3370 C 1.17383 0.42750 0.57214
 N3371 N 1.18296 0.41175 0.56330
 N3372 N 1.20039 0.40505 0.56999
 C3373 C 0.78173 0.88403 0.61583
 N3374 N 0.79035 0.86780 0.60747
 N3375 N 0.80701 0.86018 0.61507
 C3376 C 0.81571 0.86847 0.63135
 N3377 N 0.80706 0.88477 0.63964
 N3378 N 0.79041 0.89240 0.63204
 C3379 C 0.76313 0.89218 0.60772
 N3380 N 0.75432 0.90821 0.61632
 N3381 N 0.73724 0.91536 0.60920
 C3382 C 0.72835 0.90673 0.59323
 N3383 N 0.73719 0.89074 0.58460
 N3384 N 0.75427 0.88360 0.59172
 C3385 C 0.70930 0.91434 0.58566
 N3386 N 0.70024 0.90551 0.56991
 N3387 N 0.68278 0.91217 0.56329
 C3388 C 0.67366 0.92791 0.57214
 N3389 N 0.68282 0.93676 0.58786
 N3390 N 0.70028 0.93011 0.59449
 C3391 C 0.78175 0.38325 1.11608
 N3392 N 0.79032 0.36700 1.10769
 N3393 N 0.80696 0.35932 1.11528
 C3394 C 0.81570 0.36757 1.13156
 N3395 N 0.80710 0.38389 1.13986
 N3396 N 0.79046 0.39158 1.13228
 C3397 C 0.76317 0.39146 1.10799
 N3398 N 0.75441 0.40750 1.11662
 N3399 N 0.73735 0.41472 1.10952
 C3400 C 0.72842 0.40615 1.09354
 N3401 N 0.73721 0.39015 1.08487
 N3402 N 0.75428 0.38294 1.09197
 C3403 C 0.70939 0.41383 1.08598
 N3404 N 0.70033 0.40506 1.07021
 N3405 N 0.68288 0.41178 1.06359
 C3406 C 0.67379 0.42752 1.07248
 N3407 N 0.68296 0.43630 1.08823
 N3408 N 0.70041 0.42959 1.09486
 C3409 C 0.71858 1.11663 1.11624
 N3410 N 0.70998 1.13289 1.10787
 N3411 N 0.69336 1.14056 1.11549
 C3412 C 0.68466 1.13229 1.13178
 N3413 N 0.69328 1.11597 1.14007
 N3414 N 0.70991 1.10829 1.13246
 C3415 C 0.73714 1.10843 1.10810
 N3416 N 0.74592 1.09238 1.11669
 N3417 N 0.76296 1.08517 1.10954
 C3418 C 0.77183 1.09375 1.09354
 N3419 N 0.76302 1.10976 1.08491
 N3420 N 0.74598 1.11697 1.09206
 C3421 C 0.79083 1.08607 1.08592
 N3422 N 0.79986 1.09485 1.07012
 N3423 N 0.81727 1.08813 1.06345
 C3424 C 0.82638 1.07236 1.07229
 N3425 N 0.81725 1.06356 1.08806
 N3426 N 0.79983 1.07028 1.09475
 C3427 C 0.71834 0.61599 0.61604
 N3428 N 0.70971 0.60762 0.63227
 N3429 N 0.69308 0.61525 0.63990
 C3430 C 0.68440 0.63156 0.63163
 N3431 N 0.69306 0.63985 0.61533
 N3432 N 0.70970 0.63223 0.60769
 C3433 C 0.73692 0.60785 0.60788
 N3434 N 0.74574 0.61644 0.59185
 N3435 N 0.76279 0.60928 0.58469
 C3436 C 0.77166 0.59328 0.59330
 N3437 N 0.76280 0.58466 0.60930
 N3438 N 0.74575 0.59181 0.61645
 C3439 C 0.79067 0.58566 0.58568
 N3440 N 0.79970 0.56989 0.59450
 N3441 N 0.81714 0.56322 0.58782
 C3442 C 0.82626 0.57206 0.57207
 N3443 N 0.81714 0.58781 0.56324
 N3444 N 0.79969 0.59449 0.56991
 C3445 C 0.21810 1.11645 0.61584
 N3446 N 0.20949 1.13270 0.60747
 N3447 N 0.19286 1.14035 0.61510
 C3448 C 0.18418 1.13208 0.63140
 N3449 N 0.19282 1.11577 0.63969
 N3450 N 0.20945 1.10811 0.63207
 C3451 C 0.23667 1.10828 0.60771
 N3452 N 0.24548 1.09224 0.61631
 N3453 N 0.26254 1.08507 0.60917
 C3454 C 0.27141 1.09368 0.59318
 N3455 N 0.26257 1.10967 0.58455
 N3456 N 0.24551 1.11684 0.59168
 C3457 C 0.29044 1.08605 0.58559
 N3458 N 0.29948 1.09486 0.56982
 N3459 N 0.31693 1.08818 0.56319
 C3460 C 0.32605 1.07244 0.57204
 N3461 N 0.31691 1.06361 0.58779
 N3462 N 0.29946 1.07028 0.59443
 C3463 C 0.21912 0.61730 1.11738
 N3464 N 0.21050 0.60898 1.13365
 N3465 N 0.19394 0.61671 1.14134
 C3466 C 0.18532 0.63305 1.13309
 N3467 N 0.19397 0.64129 1.11675
 N3468 N 0.21054 0.63358 1.10906
 C3469 C 0.23761 0.60902 1.10914
 N3470 N 0.24640 0.61754 1.09306
 N3471 N 0.26336 0.61025 1.08581
 C3472 C 0.27216 0.59420 1.09437
 N3473 N 0.26334 0.58565 1.11042
 N3474 N 0.24637 0.59293 1.11768
 C3475 C 0.29107 0.58643 1.08664
 N3476 N 0.30004 0.57059 1.09540
 N3477 N 0.31739 0.56379 1.08862
 C3478 C 0.32647 0.57254 1.07281
 N3479 N 0.31740 0.58836 1.06402
 N3480 N 0.30006 0.59517 1.07080
 C3481 C 0.71832 0.88398 0.88403
 N3482 N 0.70966 0.89236 0.86782
 N3483 N 0.69300 0.88474 0.86022
 C3484 C 0.68434 0.86844 0.86851
 N3485 N 0.69304 0.86015 0.88480
 N3486 N 0.70969 0.86775 0.89241
 C3487 C 0.73692 0.89211 0.89215
 N3488 N 0.74577 0.88351 0.90817
 N3489 N 0.76285 0.89064 0.91529
 C3490 C 0.77170 0.90663 0.90666
 N3491 N 0.76281 0.91527 0.89068
 N3492 N 0.74574 0.90813 0.88356
 C3493 C 0.79074 0.91423 0.91424
 N3494 N 0.79976 0.92999 0.90541
 N3495 N 0.81722 0.93664 0.91205
 C3496 C 0.82637 0.92778 0.92778
 N3497 N 0.81725 0.91204 0.93663
 N3498 N 0.79979 0.90539 0.93000
 C3499 C 0.71894 0.38272 0.38291
 N3500 N 0.71034 0.36646 0.39125
 N3501 N 0.69375 0.35878 0.38358
 C3502 C 0.68508 0.36704 0.36726
 N3503 N 0.69372 0.38337 0.35899
 N3504 N 0.71031 0.39105 0.36666
 C3505 C 0.73746 0.39095 0.39112
 N3506 N 0.74623 0.40702 0.38256
 N3507 N 0.76323 0.41426 0.38978
 C3508 C 0.77207 0.40570 0.40582
 N3509 N 0.76326 0.38966 0.41441
 N3510 N 0.74627 0.38242 0.40719
 C3511 C 0.79101 0.41343 0.41352
 N3512 N 0.80001 0.40467 0.42935
 N3513 N 0.81738 0.41145 0.43609
 C3514 C 0.82646 0.42724 0.42729
 N3515 N 0.81736 0.43601 0.41148
 N3516 N 0.79999 0.42925 0.40473
 C3517 C 0.21844 0.88376 0.38325
 N3518 N 0.20983 0.89211 0.36699
 N3519 N 0.19323 0.88445 0.35932
 C3520 C 0.18457 0.86814 0.36757
 N3521 N 0.19320 0.85986 0.38390
 N3522 N 0.20980 0.86751 0.39159
 C3523 C 0.23698 0.89194 0.39146
 N3524 N 0.24577 0.88338 0.40752
 N3525 N 0.26279 0.89056 0.41473
 C3526 C 0.27164 0.90657 0.40614
 N3527 N 0.26281 0.91517 0.39012
 N3528 N 0.24579 0.90799 0.38291
 C3529 C 0.29062 0.91423 0.41382
 N3530 N 0.29964 0.93002 0.40502
 N3531 N 0.31705 0.93671 0.41175
 C3532 C 0.32615 0.92789 0.42753
 N3533 N 0.31703 0.91213 0.43634
 N3534 N 0.29962 0.90542 0.42963
 C3535 C 0.21874 0.38351 0.88309
 N3536 N 0.21006 0.36729 0.89142
 N3537 N 0.19346 0.35967 0.88371
 C3538 C 0.18487 0.36795 0.86736
 N3539 N 0.19358 0.38424 0.85911
 N3540 N 0.21018 0.39186 0.86681
 C3541 C 0.23728 0.39165 0.89134
 N3542 N 0.24614 0.40769 0.88282
 N3543 N 0.26315 0.41485 0.89007
 C3544 C 0.27193 0.40623 0.90612
 N3545 N 0.26303 0.39023 0.91468
 N3546 N 0.24602 0.38307 0.90742
 C3547 C 0.29090 0.41386 0.91385
 N3548 N 0.29985 0.40504 0.92967
 N3549 N 0.31725 0.41173 0.93643
 C3550 C 0.32640 0.42750 0.92765
 N3551 N 0.31733 0.43634 0.91185
 N3552 N 0.29994 0.42965 0.90509
   
