data_POSCAR
  _audit_creation_date              2014-09-24
  _audit_creation_method            'ToBaCCo'
  _symmetry_space_group_name_H-M    'P1'
  _symmetry_Int_Tables_number       1
  _symmetry_cell_setting            triclinic
  loop_
  _symmetry_equiv_pos_as_xyz
 x,y,z
_cell_length_a 53.4519
_cell_length_b 53.4371
_cell_length_c 53.2145
_cell_angle_alpha 89.996100
_cell_angle_beta 89.937400
_cell_angle_gamma 89.853300
loop_
  _atom_site_label
  _atom_site_type_symbol
  _atom_site_fract_x
  _atom_site_fract_y
  _atom_site_fract_z
O1 O 0.86662 0.14467 0.80429
 O2 O 0.88854 0.10598 0.79959
 O3 O 0.80171 0.12194 0.84613
 O4 O 0.79383 0.10310 0.88282
 O5 O 0.84297 0.18777 0.86848
 O6 O 0.88116 0.19443 0.88987
 O7 O 0.86995 0.06058 0.91735
 O8 O 0.83560 0.05278 0.88997
 O9 O 0.93063 0.07854 0.87386
 O10 O 0.93888 0.10775 0.83933
 O11 O 0.91164 0.12384 0.93399
 O12 O 0.87941 0.15717 0.94074
 O13 O 0.87535 0.09448 0.94250
 O14 O 0.85141 0.13328 0.94806
 O15 O 0.93780 0.11642 0.90118
 O16 O 0.94341 0.13875 0.86012
 O17 O 0.89817 0.05211 0.88054
 O18 O 0.85954 0.04478 0.85706
 O19 O 0.87289 0.17828 0.82967
 O20 O 0.90518 0.18676 0.85997
 O21 O 0.80980 0.16218 0.87548
 O22 O 0.80379 0.13217 0.90996
 O23 O 0.82785 0.11499 0.81312
 O24 O 0.85823 0.08208 0.80719
 Zr25 Zr 0.86377 0.11438 0.82942
 O26 O 0.88732 0.09173 0.85162
 Zr27 Zr 0.82565 0.12592 0.87733
 O28 O 0.84729 0.10325 0.90159
 Zr29 Zr 0.87378 0.16356 0.86619
 O30 O 0.89735 0.14312 0.89020
 Zr31 Zr 0.86653 0.07572 0.88100
 O32 O 0.84219 0.09619 0.85708
 Zr33 Zr 0.91411 0.11395 0.86979
 O34 O 0.89265 0.13620 0.84497
 Zr35 Zr 0.87576 0.12506 0.91774
 O36 O 0.85243 0.14829 0.89560
 O37 O 0.84579 0.14302 0.84877
 O38 O 0.89434 0.09654 0.89861
 C39 C 0.87022 0.16818 0.80794
 C40 C 0.80590 0.11793 0.82262
 C41 C 0.81958 0.18396 0.87236
 C42 C 0.87332 0.07081 0.93895
 C43 C 0.92167 0.05661 0.87790
 C44 C 0.93354 0.12032 0.92461
 H45 H 0.89529 0.07889 0.84091
 H46 H 0.90983 0.15455 0.89762
 H47 H 0.83507 0.15342 0.83775
 H48 H 0.83645 0.09548 0.91446
 H49 H 0.82183 0.05779 0.87858
 H50 H 0.79886 0.08924 0.89405
 H51 H 0.94356 0.15244 0.87264
 H52 H 0.91589 0.17805 0.84754
 H53 H 0.87132 0.04559 0.84275
 H54 H 0.84577 0.07168 0.81614
 H55 H 0.89415 0.16665 0.93482
 H56 H 0.87142 0.19167 0.90546
 H57 H 0.90393 0.11577 0.80271
 H58 H 0.93231 0.09362 0.82934
 H59 H 0.81174 0.14607 0.91928
 H60 H 0.83737 0.12127 0.94744
 O61 O 0.84730 0.69159 0.37333
 O62 O 0.88564 0.69821 0.39448
 O63 O 0.87142 0.65001 0.30813
 O64 O 0.89144 0.61430 0.30041
 O65 O 0.80653 0.62605 0.35013
 O66 O 0.80078 0.60478 0.38864
 O67 O 0.93600 0.58295 0.37601
 O68 O 0.94234 0.61047 0.34183
 O69 O 0.91641 0.62630 0.43735
 O70 O 0.88509 0.65849 0.44603
 O71 O 0.87440 0.56327 0.41909
 O72 O 0.84132 0.55460 0.38821
 O73 O 0.90354 0.55635 0.38243
 O74 O 0.86384 0.54962 0.35829
 O75 O 0.88021 0.59635 0.44518
 O76 O 0.85552 0.63613 0.45093
 O77 O 0.94278 0.61973 0.40451
 O78 O 0.94887 0.64349 0.36584
 O79 O 0.81444 0.66551 0.38005
 O80 O 0.80761 0.63486 0.41292
 O81 O 0.83267 0.61946 0.31707
 O82 O 0.86399 0.58623 0.31120
 O83 O 0.87667 0.68348 0.33395
 O84 O 0.90979 0.69094 0.36429
 Zr85 Zr 0.87836 0.66773 0.37027
 O86 O 0.90187 0.64680 0.39402
 Zr87 Zr 0.86879 0.61925 0.33267
 O88 O 0.89260 0.59628 0.35428
 Zr89 Zr 0.83067 0.62947 0.38106
 O90 O 0.85231 0.60634 0.40468
 Zr91 Zr 0.91912 0.61827 0.37308
 O92 O 0.89760 0.64092 0.34860
 Zr93 Zr 0.88062 0.62784 0.42125
 O94 O 0.85734 0.65163 0.39964
 Zr95 Zr 0.87164 0.57951 0.38318
 O96 O 0.84725 0.60052 0.35991
 O97 O 0.85049 0.64723 0.35263
 O98 O 0.89935 0.59992 0.40138
 C99 C 0.82396 0.68744 0.37720
 C100 C 0.87420 0.67360 0.31203
 C101 C 0.81075 0.62198 0.32670
 C102 C 0.92697 0.56101 0.37969
 C103 C 0.93833 0.62299 0.42800
 C104 C 0.87780 0.57277 0.44100
 H105 H 0.91418 0.65811 0.40186
 H106 H 0.84138 0.59847 0.41740
 H107 H 0.83961 0.65773 0.34187
 H108 H 0.90086 0.58378 0.34336
 H109 H 0.93675 0.62158 0.32803
 H110 H 0.90609 0.60418 0.30551
 H111 H 0.84264 0.62288 0.45136
 H112 H 0.81591 0.64764 0.42345
 H113 H 0.94743 0.65770 0.37764
 H114 H 0.92017 0.68263 0.35131
 H115 H 0.83088 0.56109 0.40213
 H116 H 0.80458 0.58909 0.37950
 H117 H 0.87634 0.69484 0.41021
 H118 H 0.89826 0.66944 0.43901
 H119 H 0.85023 0.57667 0.31909
 H120 H 0.87693 0.54947 0.34514
 O121 O 0.36652 0.14690 0.30408
 O122 O 0.38685 0.10763 0.29777
 O123 O 0.30194 0.12498 0.34750
 O124 O 0.29416 0.10655 0.38393
 O125 O 0.34615 0.18927 0.36960
 O126 O 0.38499 0.19399 0.39034
 O127 O 0.36951 0.05960 0.41486
 O128 O 0.33454 0.05377 0.38815
 O129 O 0.42992 0.07677 0.36989
 O130 O 0.43822 0.10690 0.33612
 O131 O 0.41390 0.12111 0.43187
 O132 O 0.38376 0.15465 0.44109
 O133 O 0.37681 0.09261 0.44057
 O134 O 0.35407 0.13280 0.44732
 O135 O 0.43912 0.11358 0.39835
 O136 O 0.44469 0.13675 0.35802
 O137 O 0.39677 0.05131 0.37729
 O138 O 0.35714 0.04618 0.35422
 O139 O 0.37480 0.17975 0.32986
 O140 O 0.40821 0.18605 0.35970
 O141 O 0.31238 0.16461 0.37704
 O142 O 0.30653 0.13389 0.41142
 O143 O 0.32691 0.11798 0.31362
 O144 O 0.35621 0.08464 0.30558
 Zr145 Zr 0.36331 0.11608 0.32858
 O146 O 0.38658 0.09204 0.34954
 Zr147 Zr 0.32694 0.12780 0.37782
 O148 O 0.34822 0.10357 0.40081
 Zr149 Zr 0.37601 0.16403 0.36606
 O150 O 0.39929 0.14205 0.38903
 Zr151 Zr 0.36598 0.07595 0.37903
 O152 O 0.34182 0.09800 0.35638
 Zr153 Zr 0.41458 0.11286 0.36752
 O154 O 0.39336 0.13649 0.34379
 Zr155 Zr 0.37780 0.12397 0.41667
 O156 O 0.35496 0.14877 0.39576
 O157 O 0.34683 0.14486 0.34902
 O158 O 0.39494 0.09534 0.39641
 C159 C 0.37119 0.17019 0.30800
 C160 C 0.30534 0.12124 0.32387
 C161 C 0.32275 0.18614 0.37401
 C162 C 0.37375 0.06906 0.43669
 C163 C 0.42026 0.05515 0.37380
 C164 C 0.43545 0.11709 0.42194
 H165 H 0.39381 0.07924 0.33826
 H166 H 0.41234 0.15282 0.39645
 H167 H 0.33619 0.15581 0.33848
 H168 H 0.33740 0.09587 0.41374
 H169 H 0.32059 0.05974 0.37747
 H170 H 0.29905 0.09168 0.39385
 H171 H 0.44537 0.15027 0.37069
 H172 H 0.41817 0.17733 0.34666
 H173 H 0.36921 0.04641 0.34013
 H174 H 0.34389 0.07422 0.31470
 H175 H 0.39760 0.16472 0.43407
 H176 H 0.37557 0.19111 0.40610
 H177 H 0.40266 0.11681 0.30063
 H178 H 0.43094 0.09326 0.32594
 H179 H 0.31479 0.14782 0.42041
 H180 H 0.34030 0.12047 0.44758
 O181 O 0.13492 0.35612 0.30795
 O182 O 0.11434 0.39565 0.30292
 O183 O 0.19965 0.37675 0.35131
 O184 O 0.20740 0.39504 0.38808
 O185 O 0.15572 0.31218 0.37247
 O186 O 0.11686 0.30689 0.39322
 O187 O 0.13215 0.44056 0.42099
 O188 O 0.16727 0.44702 0.39422
 O189 O 0.07188 0.42445 0.37573
 O190 O 0.06392 0.39488 0.34074
 O191 O 0.08775 0.37884 0.43629
 O192 O 0.11832 0.34459 0.44439
 O193 O 0.12494 0.40687 0.44597
 O194 O 0.14737 0.36693 0.45183
 O195 O 0.06259 0.38705 0.40293
 O196 O 0.05672 0.36514 0.36261
 O197 O 0.10493 0.44983 0.38374
 O198 O 0.14440 0.45571 0.36074
 O199 O 0.12706 0.32259 0.33300
 O200 O 0.09368 0.31540 0.36278
 O201 O 0.18949 0.33674 0.38022
 O202 O 0.19556 0.36650 0.41507
 O203 O 0.17428 0.38450 0.31792
 O204 O 0.14537 0.41818 0.31086
 Zr205 Zr 0.13814 0.38629 0.33322
 O206 O 0.11506 0.40987 0.35485
 Zr207 Zr 0.17483 0.37350 0.38189
 O208 O 0.15354 0.39701 0.40566
 Zr209 Zr 0.12578 0.33741 0.36960
 O210 O 0.10248 0.35880 0.39310
 Zr211 Zr 0.13573 0.42518 0.38469
 O212 O 0.15977 0.40375 0.36128
 Zr213 Zr 0.08718 0.38847 0.37230
 O214 O 0.10828 0.36536 0.34801
 Zr215 Zr 0.12397 0.37622 0.42113
 O216 O 0.14690 0.35206 0.39951
 O217 O 0.15479 0.35708 0.35287
 O218 O 0.10680 0.40530 0.40159
 C219 C 0.13053 0.33271 0.31135
 C220 C 0.19590 0.38081 0.32778
 C221 C 0.17913 0.31527 0.37679
 C222 C 0.12797 0.43048 0.44254
 C223 C 0.08146 0.44598 0.38023
 C224 C 0.06623 0.38308 0.42641
 H225 H 0.10781 0.42295 0.34394
 H226 H 0.08942 0.34785 0.40028
 H227 H 0.16539 0.34634 0.34204
 H228 H 0.16436 0.40438 0.41876
 H229 H 0.18111 0.44143 0.38317
 H230 H 0.20261 0.40918 0.39907
 H231 H 0.05663 0.35081 0.37437
 H232 H 0.08365 0.32442 0.35002
 H233 H 0.13256 0.45560 0.34648
 H234 H 0.15762 0.42843 0.32023
 H235 H 0.10376 0.33530 0.43778
 H236 H 0.12626 0.30945 0.40902
 H237 H 0.09873 0.38602 0.30540
 H238 H 0.07050 0.40956 0.33157
 H239 H 0.18706 0.35269 0.42403
 H240 H 0.16166 0.37865 0.45178
 O241 O 0.63127 0.84767 0.30390
 O242 O 0.60900 0.88616 0.29742
 O243 O 0.69413 0.87203 0.34785
 O244 O 0.70090 0.89048 0.38444
 O245 O 0.65170 0.80613 0.36966
 O246 O 0.61258 0.80035 0.38999
 O247 O 0.62449 0.93490 0.41482
 O248 O 0.65928 0.94176 0.38795
 O249 O 0.56455 0.91625 0.36912
 O250 O 0.55772 0.88583 0.33509
 O251 O 0.58115 0.87251 0.43111
 O252 O 0.61207 0.83940 0.44051
 O253 O 0.61758 0.90165 0.44047
 O254 O 0.64096 0.86211 0.44731
 O255 O 0.55604 0.87909 0.39736
 O256 O 0.55161 0.85589 0.35712
 O257 O 0.59695 0.94242 0.37719
 O258 O 0.63639 0.94902 0.35433
 O259 O 0.62371 0.81457 0.32963
 O260 O 0.58970 0.80754 0.35874
 O261 O 0.68461 0.83191 0.37711
 O262 O 0.68921 0.86249 0.41161
 O263 O 0.66934 0.87876 0.31383
 O264 O 0.63869 0.91029 0.30512
 Zr265 Zr 0.63269 0.87876 0.32834
 O266 O 0.60861 0.90217 0.34917
 Zr267 Zr 0.66890 0.86820 0.37793
 O268 O 0.64669 0.89165 0.40081
 Zr269 Zr 0.62112 0.83046 0.36571
 O270 O 0.59690 0.85176 0.38844
 Zr271 Zr 0.62843 0.91877 0.37889
 O272 O 0.65334 0.89749 0.35634
 Zr273 Zr 0.58098 0.88056 0.36685
 O274 O 0.60313 0.85747 0.34332
 Zr275 Zr 0.61751 0.87040 0.41635
 O276 O 0.64135 0.84635 0.39561
 O277 O 0.64989 0.85056 0.34894
 O278 O 0.59980 0.89858 0.39597
 C279 C 0.62755 0.82418 0.30781
 C280 C 0.69088 0.87618 0.32427
 C281 C 0.67497 0.81006 0.37408
 C282 C 0.62037 0.92523 0.43657
 C283 C 0.57363 0.93807 0.37336
 C284 C 0.55959 0.87589 0.42100
 H285 H 0.60115 0.91481 0.33787
 H286 H 0.58406 0.84063 0.39573
 H287 H 0.66110 0.84006 0.33851
 H288 H 0.65716 0.89960 0.41385
 H289 H 0.67338 0.93619 0.37721
 H290 H 0.69546 0.90507 0.39451
 H291 H 0.55148 0.84209 0.36951
 H292 H 0.57977 0.81599 0.34552
 H293 H 0.62443 0.94850 0.34019
 H294 H 0.65001 0.92154 0.31451
 H295 H 0.59823 0.82927 0.43359
 H296 H 0.62177 0.80348 0.40582
 H297 H 0.59373 0.87604 0.30004
 H298 H 0.56473 0.89973 0.32505
 H299 H 0.68118 0.84837 0.42055
 H300 H 0.65468 0.87449 0.44746
 O301 O 0.63472 0.64826 0.19272
 O302 O 0.60905 0.61149 0.19863
 O303 O 0.69704 0.61601 0.15113
 O304 O 0.70197 0.59513 0.11485
 O305 O 0.66427 0.68578 0.12891
 O306 O 0.62622 0.69508 0.10418
 O307 O 0.62414 0.56121 0.08220
 O308 O 0.65835 0.55167 0.11079
 O309 O 0.56514 0.58443 0.12782
 O310 O 0.56180 0.61842 0.16173
 O311 O 0.58655 0.62683 0.06456
 O312 O 0.62111 0.65771 0.05689
 O313 O 0.62067 0.59477 0.05636
 O314 O 0.64684 0.63122 0.04931
 O315 O 0.56048 0.62246 0.09797
 O316 O 0.55517 0.64510 0.13594
 O317 O 0.59580 0.55588 0.12037
 O318 O 0.63167 0.54477 0.14164
 O319 O 0.63148 0.68160 0.16640
 O320 O 0.60202 0.69312 0.13544
 O321 O 0.69339 0.65539 0.12228
 O322 O 0.69577 0.62614 0.08765
 O323 O 0.67061 0.61423 0.18458
 O324 O 0.63754 0.58560 0.19316
 Zr325 Zr 0.63467 0.61673 0.16879
 O326 O 0.60952 0.59528 0.14747
 Zr327 Zr 0.67332 0.62205 0.12023
 O328 O 0.64948 0.60165 0.09648
 Zr329 Zr 0.62999 0.66556 0.13037
 O330 O 0.60362 0.64644 0.10793
 Zr331 Zr 0.62856 0.57674 0.11827
 O332 O 0.65430 0.59523 0.14192
 Zr333 Zr 0.58439 0.61920 0.12904
 O334 O 0.60817 0.64089 0.15235
 Zr335 Zr 0.62273 0.62577 0.08038
 O336 O 0.64903 0.64681 0.10137
 O337 O 0.65543 0.64234 0.14838
 O338 O 0.60214 0.59931 0.10042
 C339 C 0.63303 0.67193 0.18846
 C340 C 0.69260 0.61396 0.17479
 C341 C 0.68707 0.67823 0.12605
 C342 C 0.62147 0.57108 0.06030
 C343 C 0.57297 0.56180 0.12462
 C344 C 0.56461 0.62517 0.07436
 H345 H 0.60082 0.58350 0.15879
 H346 H 0.59194 0.65867 0.10038
 H347 H 0.66701 0.65171 0.15939
 H348 H 0.65944 0.59272 0.08362
 H349 H 0.67161 0.55519 0.12328
 H350 H 0.69604 0.58288 0.10227
 H351 H 0.55927 0.66065 0.12678
 H352 H 0.58914 0.68551 0.14640
 H353 H 0.62498 0.54932 0.15835
 H354 H 0.64887 0.57344 0.18486
 H355 H 0.60737 0.66857 0.06298
 H356 H 0.63790 0.69140 0.09020
 H357 H 0.59555 0.62397 0.19628
 H358 H 0.56481 0.60229 0.17035
 H359 H 0.68902 0.64055 0.07811
 H360 H 0.66068 0.61899 0.05075
 O361 O 0.37486 0.84742 0.69409
 O362 O 0.39859 0.88482 0.69804
 O363 O 0.31012 0.87363 0.65340
 O364 O 0.30222 0.89167 0.61630
 O365 O 0.34802 0.80505 0.63126
 O366 O 0.38446 0.79607 0.60880
 O367 O 0.37741 0.93061 0.58034
 O368 O 0.34634 0.94059 0.61099
 O369 O 0.44092 0.90804 0.62095
 O370 O 0.44788 0.88049 0.65681
 O371 O 0.41776 0.86637 0.56300
 O372 O 0.38487 0.83397 0.55661
 O373 O 0.38155 0.89655 0.55513
 O374 O 0.35634 0.85795 0.55107
 O375 O 0.44489 0.87007 0.59561
 O376 O 0.44955 0.84782 0.63723
 O377 O 0.41019 0.93670 0.61385
 O378 O 0.37763 0.94757 0.64051
 O379 O 0.37887 0.81331 0.66887
 O380 O 0.41041 0.80322 0.63732
 O381 O 0.31593 0.83213 0.62441
 O382 O 0.31035 0.86321 0.58985
 O383 O 0.33706 0.87854 0.68599
 O384 O 0.37021 0.91013 0.69152
 Zr385 Zr 0.37277 0.87765 0.66889
 O386 O 0.39700 0.89872 0.64587
 Zr387 Zr 0.33328 0.86779 0.62192
 O388 O 0.35540 0.88924 0.59707
 Zr389 Zr 0.37967 0.82770 0.63218
 O390 O 0.40343 0.84656 0.60721
 Zr391 Zr 0.37669 0.91577 0.61688
 O392 O 0.35164 0.89692 0.64158
 Zr393 Zr 0.42203 0.87460 0.62728
 O394 O 0.40014 0.85401 0.65292
 Zr395 Zr 0.38220 0.86586 0.58009
 O396 O 0.35843 0.84391 0.60310
 O397 O 0.35310 0.84985 0.65014
 O398 O 0.40267 0.89309 0.59875
 C399 C 0.37720 0.82374 0.69057
 C400 C 0.31484 0.87721 0.67683
 C401 C 0.32480 0.80990 0.62789
 C402 C 0.37948 0.92029 0.55862
 C403 C 0.43335 0.93009 0.61546
 C404 C 0.43998 0.86788 0.57212
 H405 H 0.40576 0.91149 0.65600
 H406 H 0.41517 0.83443 0.59955
 H407 H 0.34211 0.84013 0.66148
 H408 H 0.34437 0.89747 0.58464
 H409 H 0.33434 0.93779 0.62490
 H410 H 0.30887 0.90740 0.60918
 H411 H 0.44948 0.83452 0.62430
 H412 H 0.42104 0.81065 0.65058
 H413 H 0.36674 0.94379 0.65500
 H414 H 0.35490 0.91927 0.68643
 H415 H 0.39912 0.82372 0.56253
 H416 H 0.37573 0.79995 0.59287
 H417 H 0.41364 0.87467 0.69425
 H418 H 0.44242 0.89543 0.66635
 H419 H 0.31665 0.84829 0.58079
 H420 H 0.34312 0.87093 0.55165
 O421 O 0.87409 0.34269 0.69266
 O422 O 0.89760 0.37961 0.69904
 O423 O 0.81129 0.37053 0.65023
 O424 O 0.80432 0.38874 0.61343
 O425 O 0.84990 0.30223 0.62787
 O426 O 0.88701 0.29395 0.60622
 O427 O 0.88165 0.42990 0.58248
 O428 O 0.85082 0.44001 0.61092
 O429 O 0.94349 0.40516 0.62439
 O430 O 0.94872 0.37588 0.65971
 O431 O 0.92217 0.36584 0.56428
 O432 O 0.88992 0.33450 0.55475
 O433 O 0.88664 0.39673 0.55626
 O434 O 0.86095 0.35806 0.54994
 O435 O 0.94822 0.36816 0.59789
 O436 O 0.95137 0.34444 0.63852
 O437 O 0.91316 0.43423 0.61733
 O438 O 0.87409 0.44274 0.64476
 O439 O 0.87924 0.30929 0.66666
 O440 O 0.91206 0.30019 0.63590
 O441 O 0.81808 0.32951 0.62055
 O442 O 0.81451 0.36161 0.58607
 O443 O 0.83705 0.37504 0.68387
 O444 O 0.86947 0.40584 0.69113
 Zr445 Zr 0.87333 0.37366 0.66831
 O446 O 0.89873 0.39532 0.64725
 Zr447 Zr 0.83557 0.36521 0.61954
 O448 O 0.85865 0.38780 0.59666
 Zr449 Zr 0.88149 0.32481 0.63046
 O450 O 0.90615 0.34448 0.60704
 Zr451 Zr 0.87931 0.41350 0.61826
 O452 O 0.85322 0.39359 0.64075
 Zr453 Zr 0.92419 0.37163 0.62878
 O454 O 0.90122 0.35036 0.65281
 Zr455 Zr 0.88603 0.36496 0.57990
 O456 O 0.86150 0.34200 0.60104
 O457 O 0.85427 0.34650 0.64801
 O458 O 0.90591 0.39136 0.60034
 C459 C 0.87660 0.31910 0.68856
 C460 C 0.81519 0.37387 0.67384
 C461 C 0.82680 0.30721 0.62390
 C462 C 0.88457 0.42036 0.56050
 C463 C 0.93622 0.42745 0.61949
 C464 C 0.94405 0.36691 0.57421
 H465 H 0.90738 0.40736 0.65830
 H466 H 0.91808 0.33259 0.59933
 H467 H 0.84281 0.33660 0.65871
 H468 H 0.84818 0.39657 0.58412
 H469 H 0.83600 0.43467 0.62071
 H470 H 0.81085 0.40453 0.60637
 H471 H 0.95142 0.33144 0.62528
 H472 H 0.92207 0.30706 0.64993
 H473 H 0.88955 0.44450 0.65481
 H474 H 0.85768 0.41715 0.68234
 H475 H 0.90275 0.32307 0.56168
 H476 H 0.87881 0.29837 0.59015
 H477 H 0.91304 0.37002 0.69534
 H478 H 0.94365 0.39104 0.66910
 H479 H 0.82071 0.34645 0.57734
 H480 H 0.84836 0.37165 0.54989
 O481 O 0.81048 0.88588 0.15312
 O482 O 0.81098 0.91068 0.11526
 O483 O 0.83413 0.81442 0.12762
 O484 O 0.86707 0.79819 0.10711
 O485 O 0.86813 0.84670 0.19389
 O486 O 0.89800 0.87917 0.20051
 O487 O 0.91885 0.86573 0.06526
 O488 O 0.88469 0.83751 0.05790
 O489 O 0.88962 0.93346 0.08494
 O490 O 0.86009 0.94853 0.11776
 O491 O 0.94638 0.89904 0.12894
 O492 O 0.94554 0.86565 0.16178
 O493 O 0.94496 0.86296 0.09868
 O494 O 0.94512 0.83710 0.13718
 O495 O 0.92098 0.93241 0.12183
 O496 O 0.88519 0.94859 0.14557
 O497 O 0.88872 0.90042 0.05812
 O498 O 0.85739 0.86834 0.05112
 O499 O 0.83692 0.88474 0.18653
 O500 O 0.87373 0.90950 0.19439
 O501 O 0.86646 0.81359 0.16713
 O502 O 0.89653 0.80004 0.13585
 O503 O 0.80907 0.84824 0.12117
 O504 O 0.80959 0.88041 0.09027
 Zr505 Zr 0.83354 0.87879 0.12183
 O506 O 0.86011 0.89637 0.09871
 Zr507 Zr 0.87049 0.82959 0.13106
 O508 O 0.89886 0.84507 0.10813
 Zr509 Zr 0.87229 0.87803 0.17037
 O510 O 0.90073 0.89556 0.14939
 Zr511 Zr 0.88305 0.86933 0.08149
 O512 O 0.85435 0.85140 0.10224
 Zr513 Zr 0.88464 0.91753 0.12088
 O514 O 0.85607 0.90236 0.14388
 Zr515 Zr 0.92175 0.86836 0.13011
 O516 O 0.89514 0.85060 0.15355
 O517 O 0.84831 0.85566 0.14954
 O518 O 0.90721 0.89168 0.10231
 C519 C 0.81503 0.88722 0.17681
 C520 C 0.81260 0.82461 0.12360
 C521 C 0.86660 0.82312 0.18936
 C522 C 0.94083 0.86360 0.07490
 C523 C 0.89046 0.92392 0.06275
 C524 C 0.94266 0.92252 0.12525
 H525 H 0.85115 0.90686 0.08633
 H526 H 0.91130 0.90560 0.16077
 H527 H 0.83538 0.84744 0.15999
 H528 H 0.90856 0.83168 0.09975
 H529 H 0.87038 0.82675 0.06260
 H530 H 0.87946 0.80016 0.09344
 H531 H 0.89541 0.94394 0.16034
 H532 H 0.86450 0.92310 0.18579
 H533 H 0.84625 0.88308 0.05250
 H534 H 0.81489 0.86675 0.07885
 H535 H 0.94375 0.88126 0.17163
 H536 H 0.91048 0.86584 0.19724
 H537 H 0.81695 0.92389 0.12682
 H538 H 0.84866 0.94525 0.10354
 H539 H 0.90850 0.80545 0.14893
 H540 H 0.94152 0.82426 0.12430
 O541 O 0.37470 0.34480 0.19235
 O542 O 0.39602 0.38392 0.19804
 O543 O 0.30916 0.36797 0.15142
 O544 O 0.30033 0.38644 0.11509
 O545 O 0.35214 0.30294 0.12754
 O546 O 0.39088 0.29878 0.10474
 O547 O 0.37342 0.43254 0.08211
 O548 O 0.33900 0.43774 0.11049
 O549 O 0.43535 0.41653 0.12543
 O550 O 0.44420 0.38445 0.15962
 O551 O 0.41874 0.37191 0.06337
 O552 O 0.38878 0.33772 0.05534
 O553 O 0.38097 0.39981 0.05593
 O554 O 0.35872 0.35962 0.04966
 O555 O 0.44462 0.37931 0.09632
 O556 O 0.45289 0.35750 0.13490
 O557 O 0.40153 0.44138 0.11860
 O558 O 0.36359 0.44652 0.14265
 O559 O 0.38194 0.31197 0.16613
 O560 O 0.41457 0.30565 0.13565
 O561 O 0.31853 0.32835 0.12157
 O562 O 0.31144 0.35840 0.08755
 O563 O 0.33533 0.37444 0.18442
 O564 O 0.36488 0.40687 0.19220
 Zr565 Zr 0.37113 0.37589 0.16827
 O566 O 0.39324 0.40036 0.14672
 Zr567 Zr 0.33314 0.36480 0.12020
 O568 O 0.35362 0.38877 0.09647
 Zr569 Zr 0.38242 0.32809 0.13006
 O570 O 0.40522 0.35044 0.10683
 Zr571 Zr 0.37148 0.41631 0.11799
 O572 O 0.34851 0.39423 0.14152
 Zr573 Zr 0.42091 0.37982 0.12780
 O574 O 0.40062 0.35553 0.15177
 Zr575 Zr 0.38303 0.36850 0.07974
 O576 O 0.36060 0.34377 0.10118
 O577 O 0.35390 0.34743 0.14819
 O578 O 0.40026 0.39728 0.09961
 C579 C 0.37882 0.32144 0.18813
 C580 C 0.31342 0.37168 0.17492
 C581 C 0.32857 0.30663 0.12419
 C582 C 0.37732 0.42320 0.06021
 C583 C 0.42508 0.43805 0.12174
 C584 C 0.44046 0.37606 0.07278
 H585 H 0.40062 0.41316 0.15784
 H586 H 0.41825 0.33982 0.09902
 H587 H 0.34348 0.33658 0.15904
 H588 H 0.34237 0.39640 0.08388
 H589 H 0.32595 0.43203 0.12239
 H590 H 0.30475 0.40078 0.10421
 H591 H 0.45114 0.34193 0.12503
 H592 H 0.42515 0.31459 0.14798
 H593 H 0.37514 0.44547 0.15710
 H594 H 0.35267 0.41781 0.18352
 H595 H 0.40316 0.32798 0.06181
 H596 H 0.38018 0.30142 0.08980
 H597 H 0.41130 0.37388 0.19496
 H598 H 0.43871 0.39974 0.16857
 H599 H 0.31983 0.34490 0.07795
 H600 H 0.34453 0.37153 0.05014
 O601 O 0.37005 0.65139 0.80855
 O602 O 0.39052 0.61238 0.80239
 O603 O 0.30577 0.62979 0.85213
 O604 O 0.29843 0.61128 0.88901
 O605 O 0.34967 0.69445 0.87368
 O606 O 0.38862 0.69943 0.89440
 O607 O 0.37322 0.56564 0.91987
 O608 O 0.33873 0.55917 0.89308
 O609 O 0.43407 0.58215 0.87449
 O610 O 0.44205 0.61221 0.84039
 O611 O 0.41854 0.62680 0.93638
 O612 O 0.38803 0.66104 0.94488
 O613 O 0.38120 0.59864 0.94550
 O614 O 0.35896 0.63851 0.95227
 O615 O 0.44340 0.61920 0.90261
 O616 O 0.44862 0.64213 0.86206
 O617 O 0.40093 0.55684 0.88244
 O618 O 0.36149 0.55120 0.85959
 O619 O 0.37833 0.68452 0.83399
 O620 O 0.41169 0.69152 0.86358
 O621 O 0.31608 0.66962 0.88134
 O622 O 0.31036 0.63951 0.91594
 O623 O 0.33066 0.62253 0.81824
 O624 O 0.36010 0.58912 0.81070
 Zr625 Zr 0.36709 0.62090 0.83326
 O626 O 0.39060 0.59720 0.85426
 Zr627 Zr 0.33087 0.63294 0.88249
 O628 O 0.35250 0.60919 0.90562
 Zr629 Zr 0.37973 0.66926 0.87035
 O630 O 0.40340 0.64760 0.89329
 Zr631 Zr 0.37011 0.58142 0.88393
 O632 O 0.34571 0.60304 0.86122
 Zr633 Zr 0.41864 0.61824 0.87195
 O634 O 0.39709 0.64159 0.84821
 Zr635 Zr 0.38221 0.62971 0.92126
 O636 O 0.35893 0.65411 0.90024
 O637 O 0.35060 0.64981 0.85352
 O638 O 0.39919 0.60091 0.90107
 C639 C 0.37461 0.67469 0.81227
 C640 C 0.30909 0.62581 0.82849
 C641 C 0.32627 0.69118 0.87805
 C642 C 0.37759 0.57521 0.94156
 C643 C 0.42439 0.56057 0.87868
 C644 C 0.44001 0.62269 0.92626
 H645 H 0.39781 0.58431 0.84307
 H646 H 0.41650 0.65845 0.90051
 H647 H 0.33985 0.66061 0.84291
 H648 H 0.34174 0.60160 0.91867
 H649 H 0.32475 0.56505 0.88237
 H650 H 0.30346 0.59685 0.89950
 H651 H 0.44938 0.65573 0.87465
 H652 H 0.42181 0.68258 0.85083
 H653 H 0.37333 0.55149 0.84531
 H654 H 0.34767 0.57886 0.81986
 H655 H 0.40253 0.67043 0.93824
 H656 H 0.37925 0.69661 0.91020
 H657 H 0.40635 0.62154 0.80519
 H658 H 0.43490 0.59830 0.83050
 H659 H 0.31890 0.65324 0.92498
 H660 H 0.34457 0.62691 0.95201
 O661 O 0.12711 0.65746 0.69824
 O662 O 0.10205 0.62131 0.70572
 O663 O 0.18846 0.62657 0.65615
 O664 O 0.19348 0.60538 0.62035
 O665 O 0.15231 0.69504 0.63076
 O666 O 0.11480 0.70480 0.61135
 O667 O 0.11463 0.56849 0.58946
 O668 O 0.14661 0.55852 0.61888
 O669 O 0.05500 0.59601 0.63607
 O670 O 0.05040 0.62774 0.66659
 O671 O 0.07709 0.63364 0.57091
 O672 O 0.11108 0.66409 0.56131
 O673 O 0.11122 0.60162 0.56298
 O674 O 0.13783 0.63845 0.55561
 O675 O 0.05102 0.63124 0.60452
 O676 O 0.04941 0.65809 0.64412
 O677 O 0.08334 0.56561 0.62692
 O678 O 0.11738 0.55459 0.65054
 O679 O 0.12351 0.69053 0.67164
 O680 O 0.09046 0.70006 0.64150
 O681 O 0.18291 0.66607 0.62446
 O682 O 0.18534 0.63254 0.59211
 O683 O 0.16283 0.62445 0.69012
 O684 O 0.12882 0.59457 0.69901
 Zr685 Zr 0.12647 0.62590 0.67478
 O686 O 0.10015 0.60498 0.65427
 Zr687 Zr 0.16391 0.63119 0.62556
 O688 O 0.13958 0.60952 0.60314
 Zr689 Zr 0.11988 0.67411 0.63588
 O690 O 0.09412 0.65509 0.61315
 Zr691 Zr 0.11792 0.58513 0.62527
 O692 O 0.14513 0.60404 0.64760
 Zr693 Zr 0.07522 0.62915 0.63562
 O694 O 0.09932 0.64990 0.65902
 Zr695 Zr 0.11316 0.63332 0.58632
 O696 O 0.13893 0.65526 0.60681
 O697 O 0.14641 0.65174 0.65359
 O698 O 0.09207 0.60803 0.60721
 C699 C 0.12567 0.68103 0.69373
 C700 C 0.18466 0.62455 0.67993
 C701 C 0.17502 0.68885 0.62615
 C702 C 0.11236 0.57800 0.56735
 C703 C 0.06097 0.57317 0.63212
 C704 C 0.05521 0.63257 0.58079
 H705 H 0.09145 0.59343 0.66586
 H706 H 0.08258 0.66722 0.60525
 H707 H 0.15841 0.66166 0.66362
 H708 H 0.14956 0.60013 0.59062
 H709 H 0.15968 0.56158 0.63168
 H710 H 0.18589 0.58988 0.61374
 H711 H 0.04879 0.66969 0.62964
 H712 H 0.08017 0.69360 0.65554
 H713 H 0.12884 0.55894 0.66438
 H714 H 0.14350 0.58454 0.69369
 H715 H 0.09714 0.67500 0.56682
 H716 H 0.12179 0.69961 0.59493
 H717 H 0.08807 0.63324 0.70323
 H718 H 0.05723 0.61542 0.67866
 H719 H 0.17928 0.64713 0.58238
 H720 H 0.15042 0.62487 0.55615
 O721 O 0.12445 0.15975 0.19327
 O722 O 0.09921 0.12372 0.20002
 O723 O 0.18631 0.12834 0.15131
 O724 O 0.19167 0.10810 0.11508
 O725 O 0.15140 0.19757 0.12709
 O726 O 0.11375 0.20750 0.10619
 O727 O 0.11383 0.07194 0.08367
 O728 O 0.14582 0.06192 0.11347
 O729 O 0.05343 0.09813 0.12751
 O730 O 0.04897 0.12926 0.16103
 O731 O 0.07571 0.13684 0.06515
 O732 O 0.10945 0.16766 0.05620
 O733 O 0.11013 0.10511 0.05733
 O734 O 0.13678 0.14236 0.05058
 O735 O 0.04949 0.13480 0.09869
 O736 O 0.04680 0.15967 0.13860
 O737 O 0.08256 0.06815 0.11952
 O738 O 0.11561 0.05727 0.14442
 O739 O 0.12128 0.19313 0.16698
 O740 O 0.08931 0.20333 0.13656
 O741 O 0.18181 0.16840 0.12097
 O742 O 0.18400 0.13625 0.08748
 O743 O 0.16035 0.12630 0.18506
 O744 O 0.12592 0.09699 0.19377
 Zr745 Zr 0.12413 0.12833 0.16951
 O746 O 0.09822 0.10734 0.14849
 Zr747 Zr 0.16224 0.13401 0.12067
 O748 O 0.13820 0.11275 0.09766
 Zr749 Zr 0.11835 0.17695 0.13100
 O750 O 0.09259 0.15804 0.10799
 Zr751 Zr 0.11666 0.08811 0.11953
 O752 O 0.14332 0.10679 0.14243
 Zr753 Zr 0.07345 0.13161 0.12982
 O754 O 0.09730 0.15246 0.15350
 Zr755 Zr 0.11179 0.13669 0.08092
 O756 O 0.13753 0.15835 0.10188
 O757 O 0.14446 0.15425 0.14882
 O758 O 0.09086 0.11105 0.10143
 C759 C 0.12310 0.18340 0.18902
 C760 C 0.18224 0.12606 0.17500
 C761 C 0.17425 0.19120 0.12316
 C762 C 0.11145 0.08144 0.06159
 C763 C 0.05982 0.07545 0.12286
 C764 C 0.05374 0.13598 0.07496
 H765 H 0.08941 0.09547 0.15965
 H766 H 0.08105 0.17025 0.10021
 H767 H 0.15633 0.16391 0.15925
 H768 H 0.14832 0.10356 0.08511
 H769 H 0.15842 0.06475 0.12679
 H770 H 0.18415 0.09295 0.10760
 H771 H 0.04764 0.17264 0.12536
 H772 H 0.07811 0.19627 0.14956
 H773 H 0.12683 0.06142 0.15851
 H774 H 0.14043 0.08670 0.18849
 H775 H 0.09579 0.17869 0.06215
 H776 H 0.12194 0.20261 0.09023
 H777 H 0.08480 0.13493 0.19675
 H778 H 0.05424 0.11478 0.17134
 H779 H 0.17799 0.15106 0.07805
 H780 H 0.14936 0.12876 0.05102
 O781 O 0.69415 0.37182 0.84585
 O782 O 0.69966 0.39182 0.88546
 O783 O 0.65011 0.30730 0.86676
 O784 O 0.61328 0.29941 0.88359
 O785 O 0.63012 0.35255 0.80166
 O786 O 0.60924 0.39163 0.79715
 O787 O 0.58210 0.37326 0.93103
 O788 O 0.60908 0.33819 0.93673
 O789 O 0.62703 0.43423 0.91629
 O790 O 0.66120 0.44330 0.88657
 O791 O 0.56600 0.41940 0.87059
 O792 O 0.55768 0.39075 0.83586
 O793 O 0.55695 0.38162 0.89769
 O794 O 0.55169 0.35964 0.85627
 O795 O 0.59923 0.44442 0.87888
 O796 O 0.63984 0.45057 0.85651
 O797 O 0.61922 0.40039 0.94089
 O798 O 0.64180 0.36134 0.94616
 O799 O 0.66933 0.38088 0.81239
 O800 O 0.63979 0.41476 0.80616
 O801 O 0.62246 0.31867 0.82629
 O802 O 0.58700 0.31250 0.85569
 O803 O 0.68390 0.33188 0.87439
 O804 O 0.69146 0.36103 0.90820
 Zr805 Zr 0.66914 0.36849 0.87628
 O806 O 0.64770 0.39134 0.90033
 Zr807 Zr 0.62028 0.33262 0.86313
 O808 O 0.59682 0.35344 0.88715
 Zr809 Zr 0.63288 0.38214 0.82753
 O810 O 0.60946 0.40514 0.84954
 Zr811 Zr 0.61811 0.37039 0.91549
 O812 O 0.64119 0.34670 0.89356
 Zr813 Zr 0.63010 0.41984 0.87963
 O814 O 0.65432 0.39897 0.85600
 Zr815 Zr 0.58149 0.38346 0.86678
 O816 O 0.60294 0.36101 0.84198
 O817 O 0.64936 0.35259 0.84683
 O818 O 0.60109 0.39984 0.89629
 C819 C 0.69085 0.37678 0.82242
 C820 C 0.67356 0.31042 0.87098
 C821 C 0.62610 0.32907 0.80482
 C822 C 0.56058 0.37770 0.92123
 C823 C 0.62276 0.42392 0.93769
 C824 C 0.57573 0.44082 0.87531
 H825 H 0.65864 0.39829 0.91354
 H826 H 0.60227 0.41848 0.83889
 H827 H 0.66017 0.34201 0.83605
 H828 H 0.58382 0.34245 0.89438
 H829 H 0.62030 0.32462 0.93087
 H830 H 0.60327 0.30410 0.89850
 H831 H 0.62765 0.45138 0.84257
 H832 H 0.65248 0.42451 0.81547
 H833 H 0.65643 0.37262 0.94570
 H834 H 0.68233 0.34843 0.91828
 H835 H 0.56525 0.40440 0.82590
 H836 H 0.59354 0.38216 0.79965
 H837 H 0.69689 0.40779 0.87644
 H838 H 0.67113 0.43567 0.90026
 H839 H 0.57870 0.32078 0.84128
 H840 H 0.55067 0.34601 0.86880
 O841 O 0.13380 0.85549 0.80944
 O842 O 0.11211 0.89390 0.80368
 O843 O 0.19780 0.87872 0.85242
 O844 O 0.20460 0.89822 0.88902
 O845 O 0.15622 0.81314 0.87460
 O846 O 0.11762 0.80656 0.89530
 O847 O 0.12793 0.94102 0.92106
 O848 O 0.16245 0.94857 0.89437
 O849 O 0.06793 0.92214 0.87647
 O850 O 0.06058 0.89230 0.84247
 O851 O 0.08556 0.87736 0.93787
 O852 O 0.11793 0.84482 0.94599
 O853 O 0.12148 0.90764 0.94665
 O854 O 0.14560 0.86893 0.95340
 O855 O 0.06020 0.88436 0.90441
 O856 O 0.05575 0.86161 0.86353
 O857 O 0.10023 0.94874 0.88355
 O858 O 0.13950 0.95572 0.86072
 O859 O 0.12708 0.82208 0.83500
 O860 O 0.09415 0.81381 0.86488
 O861 O 0.18912 0.83893 0.88205
 O862 O 0.19406 0.86933 0.91635
 O863 O 0.17234 0.88523 0.81884
 O864 O 0.14194 0.91810 0.81187
 Zr865 Zr 0.13603 0.88597 0.83428
 O866 O 0.11183 0.90875 0.85560
 Zr867 Zr 0.17305 0.87514 0.88313
 O868 O 0.15072 0.89809 0.90655
 Zr869 Zr 0.12533 0.83719 0.87140
 O870 O 0.10114 0.85789 0.89466
 Zr871 Zr 0.13191 0.92525 0.88512
 O872 O 0.15694 0.90455 0.86211
 Zr873 Zr 0.08468 0.88669 0.87353
 O874 O 0.10685 0.86423 0.84947
 Zr875 Zr 0.12190 0.87650 0.92245
 O876 O 0.14585 0.85300 0.90112
 O877 O 0.15365 0.85762 0.85435
 O878 O 0.10368 0.90468 0.90250
 C879 C 0.13017 0.83202 0.81322
 C880 C 0.19410 0.88241 0.82878
 C881 C 0.17952 0.81707 0.87891
 C882 C 0.12389 0.93124 0.94275
 C883 C 0.07687 0.94409 0.88025
 C884 C 0.06385 0.88052 0.92796
 H885 H 0.10408 0.92139 0.84450
 H886 H 0.08856 0.84647 0.90196
 H887 H 0.16464 0.84712 0.84368
 H888 H 0.16123 0.90610 0.91952
 H889 H 0.17662 0.94328 0.88359
 H890 H 0.19927 0.91211 0.90008
 H891 H 0.05545 0.84801 0.87615
 H892 H 0.08376 0.82226 0.85202
 H893 H 0.12780 0.95487 0.84637
 H894 H 0.15440 0.92849 0.82080
 H895 H 0.10379 0.83479 0.93954
 H896 H 0.12696 0.80958 0.91105
 H897 H 0.09659 0.88428 0.80662
 H898 H 0.06744 0.90615 0.83227
 H899 H 0.18585 0.85558 0.92568
 H900 H 0.15950 0.88109 0.95297
 O901 O 0.68972 0.12447 0.64690
 O902 O 0.69261 0.10071 0.60941
 O903 O 0.65484 0.19260 0.61905
 O904 O 0.61949 0.20577 0.60475
 O905 O 0.62926 0.15567 0.68863
 O906 O 0.60333 0.12048 0.69626
 O907 O 0.57861 0.13214 0.56089
 O908 O 0.60990 0.16223 0.55226
 O909 O 0.61421 0.06661 0.58061
 O910 O 0.64338 0.05353 0.61008
 O911 O 0.55539 0.09627 0.62686
 O912 O 0.55142 0.12866 0.65661
 O913 O 0.55260 0.13082 0.59463
 O914 O 0.55161 0.15865 0.63371
 O915 O 0.58318 0.06502 0.61894
 O916 O 0.62424 0.05490 0.64306
 O917 O 0.61172 0.09941 0.55362
 O918 O 0.63988 0.13458 0.54602
 O919 O 0.66376 0.12134 0.68056
 O920 O 0.62969 0.09248 0.68871
 O921 O 0.62659 0.18868 0.66188
 O922 O 0.59159 0.19725 0.63086
 O923 O 0.68515 0.16301 0.61448
 O924 O 0.68795 0.12945 0.58335
 Zr925 Zr 0.66533 0.12867 0.61596
 O926 O 0.64051 0.10727 0.59387
 Zr927 Zr 0.62223 0.17248 0.62602
 O928 O 0.59622 0.15392 0.60307
 Zr929 Zr 0.62764 0.12428 0.66513
 O930 O 0.60061 0.10402 0.64491
 Zr931 Zr 0.61457 0.13127 0.57657
 O932 O 0.64072 0.15300 0.59686
 Zr933 Zr 0.61829 0.08355 0.61623
 O934 O 0.64597 0.10217 0.63803
 Zr935 Zr 0.57656 0.12878 0.62587
 O936 O 0.60115 0.14892 0.64933
 O937 O 0.64821 0.14965 0.64393
 O938 O 0.59292 0.10678 0.59789
 C939 C 0.68568 0.12177 0.67061
 C940 C 0.67756 0.18593 0.61518
 C941 C 0.62843 0.17923 0.68403
 C942 C 0.55673 0.13167 0.57087
 C943 C 0.61213 0.07584 0.55837
 C944 C 0.56095 0.07320 0.62375
 H945 H 0.65031 0.09755 0.58149
 H946 H 0.59144 0.09310 0.65672
 H947 H 0.66047 0.15941 0.65381
 H948 H 0.58512 0.16617 0.59470
 H949 H 0.62237 0.17490 0.55740
 H950 H 0.61233 0.20107 0.58830
 H951 H 0.61022 0.05545 0.65520
 H952 H 0.64140 0.08059 0.68059
 H953 H 0.65209 0.12069 0.54705
 H954 H 0.68133 0.14304 0.57258
 H955 H 0.55793 0.11656 0.66908
 H956 H 0.58952 0.13258 0.69368
 H957 H 0.68785 0.08620 0.61993
 H958 H 0.65822 0.06058 0.60155
 H959 H 0.58344 0.19286 0.64699
 H960 H 0.55080 0.16957 0.61872
 C961 C 0.37659 0.78111 0.70969
 C962 C 0.37655 0.76520 0.73055
 C963 C 0.37749 0.77543 0.75502
 C964 C 0.37837 0.80146 0.75817
 C965 C 0.37829 0.81722 0.73724
 C966 C 0.37745 0.80721 0.71282
 C967 C 0.37749 0.75949 0.77591
 C968 C 0.37645 0.73348 0.77258
 C969 C 0.37537 0.72329 0.74809
 C970 C 0.37548 0.73922 0.72722
 C971 C 0.37414 0.69732 0.74486
 C972 C 0.37393 0.68151 0.76572
 C973 C 0.37506 0.69142 0.79018
 C974 C 0.37636 0.71749 0.79342
 H975 H 0.37577 0.77308 0.69100
 H976 H 0.37907 0.80961 0.77680
 H977 H 0.37896 0.83726 0.74020
 H978 H 0.37825 0.76730 0.79471
 H979 H 0.37468 0.73141 0.70842
 H980 H 0.37328 0.68922 0.72621
 H981 H 0.37294 0.66151 0.76266
 H982 H 0.37709 0.72543 0.81215
 C983 C 0.37454 0.21324 0.28948
 C984 C 0.37535 0.22950 0.26879
 C985 C 0.37380 0.21970 0.24417
 C986 C 0.37135 0.19382 0.24070
 C987 C 0.37045 0.17775 0.26140
 C988 C 0.37208 0.18724 0.28601
 C989 C 0.37466 0.23592 0.22345
 C990 C 0.37687 0.26184 0.22705
 C991 C 0.37827 0.27164 0.25169
 C992 C 0.37760 0.25541 0.27239
 C993 C 0.38017 0.29755 0.25523
 C994 C 0.38052 0.31368 0.23458
 C995 C 0.37918 0.30421 0.20996
 C996 C 0.37748 0.27816 0.20638
 H997 H 0.37571 0.22092 0.30829
 H998 H 0.37010 0.18599 0.22196
 H999 H 0.36855 0.15785 0.25810
 H1000 H 0.37348 0.22839 0.20455
 H1001 H 0.37870 0.26294 0.29128
 H1002 H 0.38124 0.30537 0.27399
 H1003 H 0.38185 0.33363 0.23792
 H1004 H 0.37621 0.27057 0.18754
 C1005 C 0.62905 0.78080 0.28956
 C1006 C 0.63009 0.76440 0.26894
 C1007 C 0.63028 0.77416 0.24426
 C1008 C 0.62962 0.80015 0.24064
 C1009 C 0.62875 0.81636 0.26125
 C1010 C 0.62837 0.80692 0.28592
 C1011 C 0.63111 0.75782 0.22361
 C1012 C 0.63183 0.73180 0.22732
 C1013 C 0.63187 0.72205 0.25201
 C1014 C 0.63098 0.73839 0.27266
 C1015 C 0.63272 0.69607 0.25564
 C1016 C 0.63331 0.67985 0.23504
 C1017 C 0.63302 0.68925 0.21034
 C1018 C 0.63240 0.71538 0.20670
 H1019 H 0.62897 0.77317 0.30843
 H1020 H 0.62980 0.80796 0.22185
 H1021 H 0.62824 0.83633 0.25782
 H1022 H 0.63116 0.76534 0.20467
 H1023 H 0.63093 0.73087 0.29159
 H1024 H 0.63282 0.68827 0.27444
 H1025 H 0.63381 0.65988 0.23850
 H1026 H 0.63225 0.72301 0.18783
 C1027 C 0.12831 0.29002 0.29199
 C1028 C 0.12776 0.27416 0.27101
 C1029 C 0.12871 0.28445 0.24656
 C1030 C 0.13037 0.31046 0.24356
 C1031 C 0.13102 0.32615 0.26458
 C1032 C 0.12991 0.31613 0.28900
 C1033 C 0.12797 0.26857 0.22555
 C1034 C 0.12638 0.24254 0.22872
 C1035 C 0.12564 0.23231 0.25323
 C1036 C 0.12630 0.24817 0.27419
 C1037 C 0.12423 0.20635 0.25641
 C1038 C 0.12349 0.19057 0.23554
 C1039 C 0.12404 0.20042 0.21102
 C1040 C 0.12552 0.22653 0.20779
 H1041 H 0.12760 0.28194 0.31066
 H1042 H 0.13116 0.31868 0.22496
 H1043 H 0.13227 0.34616 0.26166
 H1044 H 0.12862 0.27646 0.20678
 H1045 H 0.12566 0.24028 0.29296
 H1046 H 0.12369 0.19822 0.27506
 H1047 H 0.12234 0.17058 0.23868
 H1048 H 0.12608 0.23444 0.18904
 C1049 C 0.12740 0.72433 0.71175
 C1050 C 0.12829 0.74064 0.73235
 C1051 C 0.12864 0.73079 0.75702
 C1052 C 0.12832 0.70485 0.76066
 C1053 C 0.12748 0.68874 0.74008
 C1054 C 0.12690 0.69827 0.71543
 C1055 C 0.12921 0.74699 0.77766
 C1056 C 0.12945 0.77294 0.77398
 C1057 C 0.12933 0.78285 0.74935
 C1058 C 0.12874 0.76663 0.72867
 C1059 C 0.12974 0.80885 0.74587
 C1060 C 0.13012 0.82488 0.76660
 C1061 C 0.13000 0.81518 0.79118
 C1062 C 0.12974 0.78911 0.79465
 H1063 H 0.12707 0.73197 0.69288
 H1064 H 0.12863 0.69701 0.77944
 H1065 H 0.12714 0.66877 0.74353
 H1066 H 0.12939 0.73941 0.79658
 H1067 H 0.12854 0.77421 0.70976
 H1068 H 0.12971 0.81678 0.72713
 H1069 H 0.13033 0.84489 0.76337
 H1070 H 0.12983 0.78131 0.81346
 C1071 C 0.87199 0.21104 0.78939
 C1072 C 0.87255 0.22726 0.76878
 C1073 C 0.87200 0.21742 0.74414
 C1074 C 0.87075 0.19145 0.74060
 C1075 C 0.87013 0.17536 0.76129
 C1076 C 0.87082 0.18498 0.78587
 C1077 C 0.87273 0.23369 0.72350
 C1078 C 0.87394 0.25964 0.72726
 C1079 C 0.87432 0.26945 0.75194
 C1080 C 0.87365 0.25319 0.77254
 C1081 C 0.87536 0.29538 0.75561
 C1082 C 0.87608 0.31153 0.73502
 C1083 C 0.87587 0.30201 0.71038
 C1084 C 0.87477 0.27597 0.70670
 H1085 H 0.87239 0.21881 0.80820
 H1086 H 0.87027 0.18358 0.72183
 H1087 H 0.86920 0.15538 0.75802
 H1088 H 0.87236 0.22617 0.70457
 H1089 H 0.87399 0.26071 0.79147
 H1090 H 0.87562 0.30319 0.77440
 H1091 H 0.87692 0.33149 0.73842
 H1092 H 0.87441 0.26833 0.68783
 C1093 C 0.79566 0.37542 0.71691
 C1094 C 0.77454 0.37653 0.73266
 C1095 C 0.75039 0.37838 0.72199
 C1096 C 0.74777 0.37910 0.69581
 C1097 C 0.76882 0.37780 0.68028
 C1098 C 0.79299 0.37589 0.69057
 C1099 C 0.72923 0.37928 0.73763
 C1100 C 0.73186 0.37817 0.76384
 C1101 C 0.75600 0.37629 0.77452
 C1102 C 0.77718 0.37559 0.75889
 C1103 C 0.75855 0.37497 0.80070
 C1104 C 0.73742 0.37529 0.81618
 C1105 C 0.71325 0.37710 0.80584
 C1106 C 0.71069 0.37867 0.77954
 H1107 H 0.81411 0.37384 0.72519
 H1108 H 0.72940 0.38051 0.68730
 H1109 H 0.76610 0.37826 0.66012
 H1110 H 0.71072 0.38066 0.72939
 H1111 H 0.79568 0.37411 0.76713
 H1112 H 0.77690 0.37351 0.80922
 H1113 H 0.74005 0.37409 0.83632
 H1114 H 0.69224 0.37994 0.77122
 C1115 C 0.28920 0.62312 0.78565
 C1116 C 0.26804 0.62329 0.76996
 C1117 C 0.24391 0.62576 0.78059
 C1118 C 0.24138 0.62803 0.80672
 C1119 C 0.26250 0.62795 0.82220
 C1120 C 0.28666 0.62552 0.81192
 C1121 C 0.22274 0.62605 0.76497
 C1122 C 0.22536 0.62403 0.73878
 C1123 C 0.24950 0.62158 0.72815
 C1124 C 0.27065 0.62116 0.74378
 C1125 C 0.25209 0.61976 0.70200
 C1126 C 0.23104 0.62053 0.68645
 C1127 C 0.20688 0.62300 0.69670
 C1128 C 0.20424 0.62462 0.72302
 H1129 H 0.30763 0.62130 0.77734
 H1130 H 0.22304 0.62997 0.81521
 H1131 H 0.25986 0.62984 0.84229
 H1132 H 0.20425 0.62799 0.77317
 H1133 H 0.28915 0.61930 0.73557
 H1134 H 0.27045 0.61788 0.69353
 H1135 H 0.23375 0.61922 0.66633
 H1136 H 0.18580 0.62667 0.73127
 C1137 C 0.28574 0.11972 0.28104
 C1138 C 0.26472 0.12053 0.26527
 C1139 C 0.24054 0.12280 0.27584
 C1140 C 0.23782 0.12417 0.30200
 C1141 C 0.25884 0.12349 0.31757
 C1142 C 0.28303 0.12132 0.30730
 C1143 C 0.21951 0.12385 0.26011
 C1144 C 0.22236 0.12282 0.23391
 C1145 C 0.24655 0.12053 0.22336
 C1146 C 0.26755 0.11931 0.23909
 C1147 C 0.24937 0.11967 0.19721
 C1148 C 0.22846 0.12128 0.18158
 C1149 C 0.20427 0.12366 0.19178
 C1150 C 0.20140 0.12427 0.21808
 H1151 H 0.30422 0.11813 0.27277
 H1152 H 0.21943 0.12592 0.31043
 H1153 H 0.25610 0.12474 0.33769
 H1154 H 0.20097 0.12565 0.26824
 H1155 H 0.28610 0.11761 0.23096
 H1156 H 0.26776 0.11792 0.18881
 H1157 H 0.23131 0.12072 0.16144
 H1158 H 0.18292 0.12620 0.22627
 C1159 C 0.78745 0.11664 0.77901
 C1160 C 0.76677 0.11706 0.76266
 C1161 C 0.74228 0.11807 0.77268
 C1162 C 0.73889 0.11859 0.79880
 C1163 C 0.75952 0.11833 0.81491
 C1164 C 0.78404 0.11741 0.80530
 C1165 C 0.72157 0.11872 0.75646
 C1166 C 0.72499 0.11855 0.73029
 C1167 C 0.74946 0.11755 0.72024
 C1168 C 0.77018 0.11673 0.73647
 C1169 C 0.75277 0.11756 0.69409
 C1170 C 0.73210 0.11874 0.67802
 C1171 C 0.70763 0.11982 0.68773
 C1172 C 0.70430 0.11959 0.71402
 H1173 H 0.80619 0.11606 0.77122
 H1174 H 0.72025 0.11936 0.80679
 H1175 H 0.75621 0.11892 0.83498
 H1176 H 0.70281 0.11954 0.76421
 H1177 H 0.78895 0.11602 0.72872
 H1178 H 0.77139 0.11681 0.68604
 H1179 H 0.73534 0.11888 0.65792
 H1180 H 0.68561 0.12052 0.72191
 C1181 C 0.71122 0.88442 0.28254
 C1182 C 0.73242 0.88535 0.26699
 C1183 C 0.75621 0.87943 0.27696
 C1184 C 0.75841 0.87292 0.30237
 C1185 C 0.73723 0.87204 0.31774
 C1186 C 0.71339 0.87764 0.30801
 C1187 C 0.77737 0.87984 0.26133
 C1188 C 0.77500 0.88590 0.23578
 C1189 C 0.75123 0.89204 0.22587
 C1190 C 0.73012 0.89186 0.24155
 C1191 C 0.74888 0.89784 0.20030
 C1192 C 0.76975 0.89692 0.18451
 C1193 C 0.79344 0.89042 0.19402
 C1194 C 0.79595 0.88533 0.21986
 H1195 H 0.69303 0.88889 0.27473
 H1196 H 0.77650 0.86834 0.31034
 H1197 H 0.73954 0.86675 0.33725
 H1198 H 0.79559 0.87510 0.26896
 H1199 H 0.71187 0.89642 0.23388
 H1200 H 0.73082 0.90264 0.19240
 H1201 H 0.76725 0.90099 0.16474
 H1202 H 0.81403 0.88010 0.22746
 C1203 C 0.78093 0.70648 0.37758
 C1204 C 0.76506 0.72747 0.37752
 C1205 C 0.77543 0.75179 0.37798
 C1206 C 0.80144 0.75472 0.37848
 C1207 C 0.81709 0.73379 0.37836
 C1208 C 0.80706 0.70946 0.37787
 C1209 C 0.75967 0.77281 0.37779
 C1210 C 0.73364 0.76985 0.37694
 C1211 C 0.72326 0.74553 0.37640
 C1212 C 0.73901 0.72451 0.37679
 C1213 C 0.69725 0.74265 0.37534
 C1214 C 0.68165 0.76362 0.37468
 C1215 C 0.69171 0.78794 0.37520
 C1216 C 0.71783 0.79085 0.37643
 H1217 H 0.77290 0.68787 0.37707
 H1218 H 0.80970 0.77322 0.37884
 H1219 H 0.83712 0.73673 0.37865
 H1220 H 0.76767 0.79144 0.37813
 H1221 H 0.73102 0.70587 0.37636
 H1222 H 0.68896 0.72417 0.37490
 H1223 H 0.66162 0.76073 0.37378
 H1224 H 0.72590 0.80944 0.37673
 C1225 C 0.78462 0.28772 0.61581
 C1226 C 0.76876 0.26673 0.61590
 C1227 C 0.77785 0.24331 0.62438
 C1228 C 0.80262 0.24119 0.63252
 C1229 C 0.81825 0.26201 0.63231
 C1230 C 0.80953 0.28551 0.62397
 C1231 C 0.76205 0.22239 0.62479
 C1232 C 0.73711 0.22455 0.61701
 C1233 C 0.72805 0.24795 0.60839
 C1234 C 0.74392 0.26882 0.60776
 C1235 C 0.70309 0.25022 0.60089
 C1236 C 0.68705 0.22977 0.60257
 C1237 C 0.69566 0.20651 0.61153
 C1238 C 0.72092 0.20387 0.61826
 H1239 H 0.77764 0.30564 0.60929
 H1240 H 0.80991 0.22343 0.63913
 H1241 H 0.83728 0.25963 0.63889
 H1242 H 0.76908 0.20451 0.63145
 H1243 H 0.73686 0.28672 0.60124
 H1244 H 0.69583 0.26794 0.59414
 H1245 H 0.66772 0.23226 0.59703
 H1246 H 0.72769 0.18607 0.62534
 C1247 C 0.70595 0.72162 0.12338
 C1248 C 0.72709 0.73730 0.12504
 C1249 C 0.75040 0.72718 0.13267
 C1250 C 0.75227 0.70183 0.13872
 C1251 C 0.73146 0.68642 0.13675
 C1252 C 0.70816 0.69595 0.12880
 C1253 C 0.77165 0.74241 0.13395
 C1254 C 0.77012 0.76774 0.12754
 C1255 C 0.74690 0.77806 0.12005
 C1256 C 0.72551 0.76282 0.11890
 C1257 C 0.74552 0.80347 0.11374
 C1258 C 0.76688 0.81846 0.11482
 C1259 C 0.79014 0.80837 0.12217
 C1260 C 0.79154 0.78289 0.12849
 H1261 H 0.68811 0.72916 0.11730
 H1262 H 0.76992 0.69381 0.14474
 H1263 H 0.73367 0.66683 0.14153
 H1264 H 0.78943 0.73448 0.13974
 H1265 H 0.70774 0.77074 0.11305
 H1266 H 0.72793 0.81177 0.10796
 H1267 H 0.76513 0.83803 0.10982
 H1268 H 0.80924 0.77483 0.13433
 C1269 C 0.28565 0.28834 0.12094
 C1270 C 0.26912 0.26806 0.12127
 C1271 C 0.27839 0.24349 0.12453
 C1272 C 0.30425 0.23975 0.12735
 C1273 C 0.32068 0.26016 0.12711
 C1274 C 0.31155 0.28469 0.12395
 C1275 C 0.26164 0.22321 0.12505
 C1276 C 0.23575 0.22733 0.12253
 C1277 C 0.22670 0.25203 0.11930
 C1278 C 0.24339 0.27214 0.11859
 C1279 C 0.20100 0.25635 0.11700
 C1280 C 0.18424 0.23649 0.11812
 C1281 C 0.19277 0.21177 0.12142
 C1282 C 0.21869 0.20728 0.12341
 H1283 H 0.27819 0.30707 0.11852
 H1284 H 0.31176 0.22107 0.12988
 H1285 H 0.34050 0.25672 0.12950
 H1286 H 0.26871 0.20434 0.12758
 H1287 H 0.23631 0.29104 0.11614
 H1288 H 0.19380 0.27517 0.11449
 H1289 H 0.16447 0.24058 0.11635
 H1290 H 0.22554 0.18835 0.12606
 C1291 C 0.28380 0.71147 0.87988
 C1292 C 0.26844 0.73285 0.88001
 C1293 C 0.27934 0.75692 0.87922
 C1294 C 0.30543 0.75918 0.87827
 C1295 C 0.32059 0.73784 0.87798
 C1296 C 0.31000 0.71375 0.87877
 C1297 C 0.26402 0.77831 0.87926
 C1298 C 0.23787 0.77594 0.87990
 C1299 C 0.22702 0.75184 0.88059
 C1300 C 0.24233 0.73048 0.88074
 C1301 C 0.20096 0.74943 0.88099
 C1302 C 0.18572 0.77065 0.88054
 C1303 C 0.19616 0.79480 0.87984
 C1304 C 0.22238 0.79728 0.87965
 H1305 H 0.27530 0.69308 0.88037
 H1306 H 0.31414 0.77746 0.87764
 H1307 H 0.34068 0.74026 0.87715
 H1308 H 0.27242 0.79676 0.87865
 H1309 H 0.23393 0.71203 0.88127
 H1310 H 0.19233 0.73111 0.88152
 H1311 H 0.16563 0.76807 0.88080
 H1312 H 0.23074 0.81573 0.87898
 C1313 C 0.28062 0.20712 0.37598
 C1314 C 0.26572 0.22882 0.37656
 C1315 C 0.27718 0.25266 0.37653
 C1316 C 0.30330 0.25439 0.37590
 C1317 C 0.31797 0.23277 0.37516
 C1318 C 0.30686 0.20891 0.37517
 C1319 C 0.26238 0.27437 0.37700
 C1320 C 0.23621 0.27260 0.37730
 C1321 C 0.22476 0.24876 0.37725
 C1322 C 0.23956 0.22704 0.37697
 C1323 C 0.19863 0.24702 0.37731
 C1324 C 0.18395 0.26864 0.37728
 C1325 C 0.19505 0.29251 0.37731
 C1326 C 0.22130 0.29429 0.37746
 H1327 H 0.27175 0.18890 0.37589
 H1328 H 0.31240 0.27249 0.37587
 H1329 H 0.33811 0.23481 0.37462
 H1330 H 0.27121 0.29262 0.37697
 H1331 H 0.23072 0.20879 0.37692
 H1332 H 0.18953 0.22892 0.37727
 H1333 H 0.16380 0.26660 0.37725
 H1334 H 0.23016 0.31252 0.37736
 C1335 C 0.54509 0.62354 1.03132
 C1336 C 0.52392 0.62387 1.01562
 C1337 C 0.49986 0.62721 1.02622
 C1338 C 0.49735 0.63003 1.05226
 C1339 C 0.51841 0.62947 1.06773
 C1340 C 0.54250 0.62624 1.05752
 C1341 C 0.47868 0.62759 1.01068
 C1342 C 0.48116 0.62458 0.98461
 C1343 C 0.50518 0.62108 0.97399
 C1344 C 0.52640 0.62079 0.98954
 C1345 C 0.50755 0.61793 0.94796
 C1346 C 0.48640 0.61835 0.93255
 C1347 C 0.46238 0.62198 0.94283
 C1348 C 0.45997 0.62502 0.96900
 H1349 H 0.56349 0.62084 1.02316
 H1350 H 0.47906 0.63258 1.06070
 H1351 H 0.51577 0.63165 1.08780
 H1352 H 0.46026 0.63020 1.01887
 H1353 H 0.54481 0.61814 0.98134
 H1354 H 0.52580 0.61516 0.93948
 H1355 H 0.48893 0.61589 0.91251
 H1356 H 0.44163 0.62775 0.97729
 C1357 C 0.45450 0.12228 0.46450
 C1358 C 0.47526 0.12297 0.48050
 C1359 C 0.49940 0.11803 0.47080
 C1360 C 0.50230 0.11227 0.44526
 C1361 C 0.48150 0.11171 0.42940
 C1362 C 0.45743 0.11685 0.43881
 C1363 C 0.52022 0.11903 0.48675
 C1364 C 0.51716 0.12493 0.51225
 C1365 C 0.49298 0.12971 0.52195
 C1366 C 0.47218 0.12872 0.50601
 C1367 C 0.48997 0.13536 0.54749
 C1368 C 0.51073 0.13618 0.56334
 C1369 C 0.53488 0.13154 0.55391
 C1370 C 0.53793 0.12599 0.52825
 H1371 H 0.43608 0.12626 0.47209
 H1372 H 0.52066 0.10836 0.43753
 H1373 H 0.48433 0.10737 0.40972
 H1374 H 0.53876 0.11528 0.47932
 H1375 H 0.45364 0.13246 0.51345
 H1376 H 0.47157 0.13905 0.55522
 H1377 H 0.50785 0.14050 0.58302
 H1378 H 0.55641 0.12211 0.52077
 C1379 C 0.54070 0.87252 0.46380
 C1380 C 0.52004 0.87213 0.47994
 C1381 C 0.49568 0.87525 0.47012
 C1382 C 0.49248 0.87886 0.44422
 C1383 C 0.51322 0.87922 0.42820
 C1384 C 0.53752 0.87596 0.43782
 C1385 C 0.47498 0.87468 0.48634
 C1386 C 0.47843 0.87108 0.51224
 C1387 C 0.50288 0.86810 0.52197
 C1388 C 0.52349 0.86861 0.50577
 C1389 C 0.50638 0.86475 0.54780
 C1390 C 0.48587 0.86446 0.56396
 C1391 C 0.46144 0.86737 0.55460
 C1392 C 0.45785 0.87057 0.52862
 H1393 H 0.55929 0.87005 0.47157
 H1394 H 0.47395 0.88135 0.43635
 H1395 H 0.51020 0.88197 0.40827
 H1396 H 0.45626 0.87705 0.47885
 H1397 H 0.54223 0.86628 0.51327
 H1398 H 0.52500 0.86246 0.55553
 H1399 H 0.48921 0.86196 0.58388
 H1400 H 0.43914 0.87306 0.52118
 C1401 C 1.04694 0.37757 0.46877
 C1402 C 1.02606 0.37662 0.48457
 C1403 C 1.00195 0.38134 0.47471
 C1404 C 0.99921 0.38719 0.44920
 C1405 C 1.02013 0.38804 0.43353
 C1406 C 1.04416 0.38307 0.44312
 C1407 C 0.98100 0.38002 0.49046
 C1408 C 0.98391 0.37407 0.51594
 C1409 C 1.00806 0.36955 0.52581
 C1410 C 1.02898 0.37083 0.51006
 C1411 C 1.01092 0.36389 0.55133
 C1412 C 0.99005 0.36280 0.56700
 C1413 C 0.96594 0.36717 0.55737
 C1414 C 0.96301 0.37271 0.53175
 H1415 H 1.06533 0.37375 0.47647
 H1416 H 0.98088 0.39094 0.44134
 H1417 H 1.01744 0.39243 0.41385
 H1418 H 0.96248 0.38359 0.48291
 H1419 H 1.04750 0.36728 0.51762
 H1420 H 1.02930 0.36041 0.55919
 H1421 H 0.99281 0.35851 0.58670
 H1422 H 0.94455 0.37640 0.52417
 C1423 C -0.04094 0.86693 1.03259
 C1424 C -0.01981 0.86835 1.01687
 C1425 C 0.00434 0.86489 1.02712
 C1426 C 0.00699 0.86007 1.05283
 C1427 C -0.01400 0.85919 1.06843
 C1428 C -0.03829 0.86277 1.05867
 C1429 C 0.02551 0.86659 1.01159
 C1430 C 0.02290 0.87201 0.98593
 C1431 C -0.00123 0.87562 0.97568
 C1432 C -0.02243 0.87365 0.99116
 C1433 C -0.00375 0.88120 0.95007
 C1434 C 0.01739 0.88304 0.93471
 C1435 C 0.04154 0.87931 0.94460
 C1436 C 0.04407 0.87388 0.97037
 H1437 H -0.05934 0.86992 1.02454
 H1438 H 0.02536 0.85737 1.06099
 H1439 H -0.01103 0.85588 1.08829
 H1440 H 0.04401 0.86390 1.01951
 H1441 H -0.04093 0.87645 0.98326
 H1442 H -0.02208 0.88410 0.94189
 H1443 H 0.01475 0.88728 0.91499
 H1444 H 0.06250 0.87096 0.97835
 C1445 C -0.04796 0.12591 -0.03238
 C1446 C -0.02727 0.12712 -0.01619
 C1447 C -0.00290 0.12333 -0.02586
 C1448 C 0.00035 0.11824 -0.05148
 C1449 C -0.02031 0.11709 -0.06746
 C1450 C -0.04467 0.12102 -0.05817
 C1451 C 0.01783 0.12474 -0.00979
 C1452 C 0.01451 0.12982 0.01585
 C1453 C -0.00987 0.13343 0.02557
 C1454 C -0.03060 0.13211 0.00948
 C1455 C -0.01311 0.13820 0.05126
 C1456 C 0.00757 0.13925 0.06724
 C1457 C 0.03193 0.13576 0.05781
 C1458 C 0.03521 0.13114 0.03199
 H1459 H -0.06658 0.12894 -0.02487
 H1460 H 0.01888 0.11522 -0.05918
 H1461 H -0.01714 0.11320 -0.08718
 H1462 H 0.03652 0.12187 -0.01724
 H1463 H -0.04929 0.13494 0.01694
 H1464 H -0.03166 0.14097 0.05903
 H1465 H 0.00446 0.14279 0.08704
 H1466 H 0.05383 0.12814 0.02446
 C1467 C 0.11279 1.03889 1.04429
 C1468 C 0.11356 1.02261 1.02359
 C1469 C 0.11204 1.03240 0.99897
 C1470 C 0.10933 1.05824 0.99549
 C1471 C 0.10867 1.07436 1.01614
 C1472 C 0.11073 1.06502 1.04086
 C1473 C 0.11353 1.01624 0.97823
 C1474 C 0.11660 0.99040 0.98180
 C1475 C 0.11774 0.98057 1.00644
 C1476 C 0.11618 0.99672 1.02717
 C1477 C 0.12057 0.95472 1.00995
 C1478 C 0.12247 0.93874 0.98926
 C1479 C 0.12172 0.94828 0.96464
 C1480 C 0.11867 0.97423 0.96110
 H1481 H 0.11425 1.03109 1.06305
 H1482 H 0.10799 1.06605 0.97674
 H1483 H 0.10688 1.09425 1.01260
 H1484 H 0.11253 1.02380 0.95933
 H1485 H 0.11725 0.98916 1.04606
 H1486 H 0.12141 0.94686 1.02870
 H1487 H 0.12476 0.91887 0.99258
 H1488 H 0.11780 0.98186 0.94224
 C1489 C 0.12187 0.47289 0.46236
 C1490 C 0.11985 0.48838 0.48368
 C1491 C 0.12265 0.47796 0.50795
 C1492 C 0.12706 0.45222 0.51049
 C1493 C 0.12876 0.43692 0.48925
 C1494 C 0.12634 0.44703 0.46495
 C1495 C 0.12105 0.49342 0.52928
 C1496 C 0.11660 0.51921 0.52669
 C1497 C 0.11339 0.52953 0.50243
 C1498 C 0.11505 0.51409 0.48111
 C1499 C 0.10881 0.55521 0.49984
 C1500 C 0.10795 0.57069 0.52097
 C1501 C 0.11162 0.56088 0.54526
 C1502 C 0.11563 0.53493 0.54794
 H1503 H 0.11967 0.48094 0.44378
 H1504 H 0.12919 0.44389 0.52893
 H1505 H 0.13220 0.41711 0.49187
 H1506 H 0.12340 0.48540 0.54785
 H1507 H 0.11274 0.52211 0.46253
 H1508 H 0.10617 0.56342 0.48140
 H1509 H 0.10468 0.59050 0.51818
 H1510 H 0.11847 0.52700 0.56647
 C1511 C 0.37836 0.46654 1.04227
 C1512 C 0.37867 0.48297 1.02172
 C1513 C 0.37822 0.47328 0.99700
 C1514 C 0.37774 0.44733 0.99326
 C1515 C 0.37755 0.43109 1.01380
 C1516 C 0.37771 0.44049 1.03849
 C1517 C 0.37816 0.48964 0.97643
 C1518 C 0.37858 0.51560 0.98026
 C1519 C 0.37935 0.52531 1.00495
 C1520 C 0.37938 0.50894 1.02554
 C1521 C 0.37997 0.55128 1.00863
 C1522 C 0.37959 0.56749 0.98804
 C1523 C 0.37849 0.55805 0.96339
 C1524 C 0.37814 0.53199 0.95971
 H1525 H 0.37873 0.47407 1.06118
 H1526 H 0.37745 0.43959 0.97444
 H1527 H 0.37707 0.41114 1.01031
 H1528 H 0.37768 0.48219 0.95748
 H1529 H 0.37986 0.51639 1.04450
 H1530 H 0.38064 0.55905 1.02742
 H1531 H 0.37992 0.58747 0.99147
 H1532 H 0.37751 0.52438 0.94083
 C1533 C 0.88095 0.52931 0.45919
 C1534 C 0.88210 0.51290 0.47984
 C1535 C 0.88124 0.52263 0.50453
 C1536 C 0.87956 0.54857 0.50814
 C1537 C 0.87857 0.56477 0.48753
 C1538 C 0.87909 0.55540 0.46283
 C1539 C 0.88198 0.50630 0.52522
 C1540 C 0.88359 0.48031 0.52156
 C1541 C 0.88479 0.47059 0.49689
 C1542 C 0.88403 0.48692 0.47620
 C1543 C 0.88656 0.44464 0.49333
 C1544 C 0.88681 0.42842 0.51396
 C1545 C 0.88525 0.43776 0.53864
 C1546 C 0.88384 0.46388 0.54222
 H1547 H 0.88160 0.52174 0.44030
 H1548 H 0.87896 0.55636 0.52693
 H1549 H 0.87718 0.58469 0.49099
 H1550 H 0.88116 0.51381 0.54414
 H1551 H 0.88481 0.47941 0.45727
 H1552 H 0.88759 0.43686 0.47455
 H1553 H 0.88797 0.40848 0.51051
 H1554 H 0.88274 0.47149 0.56107
 C1555 C 0.88133 1.02886 -0.04143
 C1556 C 0.88374 1.01343 -0.02019
 C1557 C 0.87983 1.02356 0.00406
 C1558 C 0.87395 1.04899 0.00668
 C1559 C 0.87182 1.06425 -0.01450
 C1560 C 0.87532 1.05436 -0.03875
 C1561 C 0.88168 1.00810 0.02529
 C1562 C 0.88729 0.98259 0.02260
 C1563 C 0.89164 0.97255 -0.00161
 C1564 C 0.88992 0.98804 -0.02283
 C1565 C 0.89717 0.94704 -0.00423
 C1566 C 0.89757 0.93143 0.01681
 C1567 C 0.89262 0.94104 0.04094
 C1568 C 0.88802 0.96683 0.04371
 H1569 H 0.88440 1.02106 -0.05999
 H1570 H 0.87095 1.05708 0.02512
 H1571 H 0.86721 1.08383 -0.01189
 H1572 H 0.87842 1.01586 0.04385
 H1573 H 0.89305 0.98026 -0.04141
 H1574 H 0.90070 0.93905 -0.02261
 H1575 H 0.90137 0.91170 0.01410
 H1576 H 0.88410 0.97451 0.06216
 C1577 C 0.61591 -0.03173 0.45554
 C1578 C 0.61453 -0.01574 0.47653
 C1579 C 0.61624 -0.02584 0.50104
 C1580 C 0.61889 -0.05176 0.50413
 C1581 C 0.62005 -0.06754 0.48320
 C1582 C 0.61877 -0.05776 0.45867
 C1583 C 0.61542 -0.00989 0.52204
 C1584 C 0.61287 0.01610 0.51890
 C1585 C 0.61071 0.02612 0.49439
 C1586 C 0.61155 0.01018 0.47341
 C1587 C 0.60801 0.05200 0.49124
 C1588 C 0.60796 0.06792 0.51206
 C1589 C 0.61063 0.05838 0.53658
 C1590 C 0.61277 0.03227 0.53982
 H1591 H 0.61465 -0.02389 0.43679
 H1592 H 0.62016 -0.05985 0.52276
 H1593 H 0.62224 -0.08746 0.48628
 H1594 H 0.61696 -0.01768 0.54080
 H1595 H 0.61008 0.01797 0.45464
 H1596 H 0.60619 0.06000 0.47262
 H1597 H 0.60614 0.08785 0.50883
 H1598 H 0.61478 0.02453 0.55854
 C1599 C 0.46358 1.03722 0.37466
 C1600 C 0.48018 1.01688 0.37487
 C1601 C 0.47071 0.99221 0.37476
 C1602 C 0.44476 0.98837 0.37475
 C1603 C 0.42832 1.00877 0.37463
 C1604 C 0.43753 1.03340 0.37439
 C1605 C 0.48733 0.97183 0.37455
 C1606 C 0.51328 0.97585 0.37451
 C1607 C 0.52270 1.00055 0.37495
 C1608 C 0.50610 1.02089 0.37511
 C1609 C 0.54860 1.00451 0.37514
 C1610 C 0.56510 0.98422 0.37473
 C1611 C 0.55603 0.95955 0.37399
 C1612 C 0.53000 0.95555 0.37397
 H1613 H 0.47104 1.05607 0.37473
 H1614 H 0.43717 0.96959 0.37475
 H1615 H 0.40838 1.00525 0.37448
 H1616 H 0.48008 0.95289 0.37434
 H1617 H 0.51334 1.03984 0.37532
 H1618 H 0.55612 1.02332 0.37555
 H1619 H 0.58502 0.98790 0.37480
 H1620 H 0.52268 0.93665 0.37364
 C1621 C -0.03863 -0.03475 0.12114
 C1622 C -0.01810 -0.01849 0.12113
 C1623 C 0.00631 -0.02801 0.12480
 C1624 C 0.00970 -0.05383 0.12825
 C1625 C -0.01091 -0.06997 0.12831
 C1626 C -0.03531 -0.06059 0.12489
 C1627 C 0.02681 -0.01155 0.12517
 C1628 C 0.02309 0.01434 0.12213
 C1629 C -0.00143 0.02365 0.11835
 C1630 C -0.02177 0.00722 0.11773
 C1631 C -0.00537 0.04936 0.11548
 C1632 C 0.01466 0.06586 0.11680
 C1633 C 0.03918 0.05708 0.12085
 C1634 C 0.04334 0.03115 0.12316
 H1635 H -0.05725 -0.02715 0.11839
 H1636 H 0.02825 -0.06154 0.13104
 H1637 H -0.00771 -0.08979 0.13112
 H1638 H 0.04555 -0.01882 0.12809
 H1639 H -0.04053 0.01451 0.11490
 H1640 H -0.02403 0.05675 0.11245
 H1641 H 0.01087 0.08567 0.11457
 H1642 H 0.06213 0.02414 0.12627
 C1643 C 0.52936 0.54341 0.12265
 C1644 C 0.51348 0.52237 0.12354
 C1645 C 0.52369 0.49842 0.12867
 C1646 C 0.54934 0.49579 0.13285
 C1647 C 0.56492 0.51655 0.13168
 C1648 C 0.55527 0.54055 0.12644
 C1649 C 0.50822 0.47734 0.12940
 C1650 C 0.48255 0.47967 0.12493
 C1651 C 0.47215 0.50348 0.11977
 C1652 C 0.48766 0.52471 0.11916
 C1653 C 0.44641 0.50557 0.11523
 C1654 C 0.43117 0.48433 0.11585
 C1655 C 0.44135 0.46053 0.12102
 C1656 C 0.46716 0.45844 0.12552
 H1657 H 0.52170 0.56176 0.11854
 H1658 H 0.55743 0.47761 0.13686
 H1659 H 0.58471 0.51372 0.13498
 H1660 H 0.51621 0.45907 0.13334
 H1661 H 0.47968 0.54296 0.11516
 H1662 H 0.43805 0.52362 0.11119
 H1663 H 0.41137 0.48661 0.11222
 H1664 H 0.47535 0.44029 0.12952
 C1665 C -0.04440 0.46951 0.62639
 C1666 C -0.02348 0.48534 0.62476
 C1667 C -0.00203 0.47766 0.61109
 C1668 C -0.00191 0.45430 0.59920
 C1669 C -0.02244 0.43841 0.60151
 C1670 C -0.04370 0.44577 0.61528
 C1671 C 0.01909 0.49320 0.60992
 C1672 C 0.01925 0.51621 0.62259
 C1673 C -0.00220 0.52374 0.63633
 C1674 C -0.02341 0.50840 0.63719
 C1675 C -0.00215 0.54654 0.64912
 C1676 C 0.01871 0.56200 0.64804
 C1677 C 0.04011 0.55508 0.63416
 C1678 C 0.04041 0.53190 0.62169
 H1679 H -0.06066 0.47510 0.63725
 H1680 H 0.01429 0.44806 0.58863
 H1681 H -0.02164 0.42013 0.59272
 H1682 H 0.03547 0.48727 0.59941
 H1683 H -0.03975 0.51428 0.64779
 H1684 H -0.01834 0.55255 0.65984
 H1685 H 0.01798 0.57961 0.65808
 H1686 H 0.05671 0.52640 0.61086
 C1687 C 0.46759 0.54212 0.87920
 C1688 C 0.48389 0.52149 0.87919
 C1689 C 0.47402 0.49697 0.87908
 C1690 C 0.44802 0.49354 0.87937
 C1691 C 0.43191 0.51417 0.87948
 C1692 C 0.44148 0.53867 0.87918
 C1693 C 0.49026 0.47632 0.87854
 C1694 C 0.51627 0.47987 0.87815
 C1695 C 0.52615 0.50437 0.87865
 C1696 C 0.50990 0.52503 0.87915
 C1697 C 0.55214 0.50781 0.87851
 C1698 C 0.56825 0.48718 0.87763
 C1699 C 0.55867 0.46271 0.87674
 C1700 C 0.53256 0.45926 0.87715
 H1701 H 0.47530 0.56086 0.87921
 H1702 H 0.44014 0.47487 0.87937
 H1703 H 0.41192 0.51092 0.87951
 H1704 H 0.48267 0.45751 0.87830
 H1705 H 0.51749 0.54384 0.87937
 H1706 H 0.56004 0.52646 0.87897
 H1707 H 0.58823 0.49043 0.87739
 H1708 H 0.52484 0.44052 0.87672
 C1709 C 0.62050 0.52890 1.04217
 C1710 C 0.61967 0.51313 1.02111
 C1711 C 0.61782 0.52360 0.99678
 C1712 C 0.61637 0.54958 0.99393
 C1713 C 0.61721 0.56517 1.01491
 C1714 C 0.61959 0.55514 1.03934
 C1715 C 0.61771 0.50797 0.97565
 C1716 C 0.61947 0.48196 0.97852
 C1717 C 0.62087 0.47141 1.00285
 C1718 C 0.62095 0.48706 1.02400
 C1719 C 0.62235 0.44537 1.00558
 C1720 C 0.62275 0.42993 0.98441
 C1721 C 0.62183 0.44025 0.96011
 C1722 C 0.62002 0.46635 0.95737
 H1723 H 0.62215 0.52064 1.06071
 H1724 H 0.61481 0.55790 0.97542
 H1725 H 0.61627 0.58519 1.01183
 H1726 H 0.61650 0.51605 0.95699
 H1727 H 0.62223 0.47898 1.04265
 H1728 H 0.62335 0.43695 1.02408
 H1729 H 0.62410 0.40988 0.98709
 H1730 H 0.61901 0.47458 0.93876
 C1731 C 0.37392 1.02655 0.45466
 C1732 C 0.37584 1.01053 0.47559
 C1733 C 0.37884 1.02080 0.49988
 C1734 C 0.38023 1.04678 0.50283
 C1735 C 0.37862 1.06257 0.48200
 C1736 C 0.37531 1.05281 0.45758
 C1737 C 0.38040 1.00497 0.52086
 C1738 C 0.37917 0.97892 0.51793
 C1739 C 0.37658 0.96855 0.49364
 C1740 C 0.37486 0.98441 0.47263
 C1741 C 0.37567 0.94247 0.49082
 C1742 C 0.37698 0.92681 0.51186
 C1743 C 0.37910 0.93689 0.53619
 C1744 C 0.38036 0.96308 0.53898
 H1745 H 0.37159 1.01846 0.43613
 H1746 H 0.38262 1.05494 0.52131
 H1747 H 0.37984 1.08255 0.48520
 H1748 H 0.38253 1.01294 0.53949
 H1749 H 0.37272 0.97644 0.45401
 H1750 H 0.37379 0.93417 0.47235
 H1751 H 0.37597 0.90677 0.50906
 H1752 H 0.38219 0.97121 0.55755
 C1753 C -0.04408 0.62647 0.47141
 C1754 C -0.02383 0.62690 0.48806
 C1755 C 0.00076 0.62379 0.47874
 C1756 C 0.00464 0.62013 0.45295
 C1757 C -0.01565 0.61975 0.43647
 C1758 C -0.04019 0.62302 0.44549
 C1759 C 0.02107 0.62444 0.49531
 C1760 C 0.01708 0.62816 0.52108
 C1761 C -0.00750 0.63111 0.53045
 C1762 C -0.02782 0.63048 0.51387
 C1763 C -0.01132 0.63461 0.55628
 C1764 C 0.00904 0.63518 0.57271
 C1765 C 0.03357 0.63240 0.56354
 C1766 C 0.03738 0.62890 0.53763
 H1767 H -0.06288 0.62894 0.47869
 H1768 H 0.02337 0.61766 0.44552
 H1769 H -0.01206 0.61697 0.41663
 H1770 H 0.03995 0.62210 0.48816
 H1771 H -0.04670 0.63281 0.52102
 H1772 H -0.03005 0.63687 0.56379
 H1773 H 0.00557 0.63787 0.59258
 H1774 H 0.05616 0.62647 0.53028
 C1775 C 0.45874 0.37746 1.02927
 C1776 C 0.47941 0.37806 1.01295
 C1777 C 0.50391 0.37814 1.02297
 C1778 C 0.50733 0.37795 1.04906
 C1779 C 0.48670 0.37747 1.06514
 C1780 C 0.46221 0.37705 1.05549
 C1781 C 0.52462 0.37830 1.00678
 C1782 C 0.52118 0.37843 0.98067
 C1783 C 0.49671 0.37870 0.97060
 C1784 C 0.47597 0.37849 0.98681
 C1785 C 0.49342 0.37908 0.94447
 C1786 C 0.51415 0.37895 0.92844
 C1787 C 0.53859 0.37831 0.93823
 C1788 C 0.54189 0.37818 0.96446
 H1789 H 0.44000 0.37734 1.02151
 H1790 H 0.52597 0.37807 1.05704
 H1791 H 0.49000 0.37717 1.08522
 H1792 H 0.54339 0.37822 1.01451
 H1793 H 0.45720 0.37856 0.97908
 H1794 H 0.47481 0.37938 0.93642
 H1795 H 0.51101 0.37910 0.90834
 H1796 H 0.56058 0.37793 0.97233
 C1797 C 0.45334 -0.02806 0.62126
 C1798 C 0.47442 -0.01257 0.61879
 C1799 C 0.49509 -0.02048 0.60409
 C1800 C 0.49424 -0.04368 0.59192
 C1801 C 0.47359 -0.05926 0.59506
 C1802 C 0.45316 -0.05170 0.60994
 C1803 C 0.51648 -0.00538 0.60224
 C1804 C 0.51767 0.01740 0.61525
 C1805 C 0.49695 0.02522 0.62994
 C1806 C 0.47548 0.01032 0.63149
 C1807 C 0.49801 0.04786 0.64299
 C1808 C 0.51916 0.06286 0.64125
 C1809 C 0.53983 0.05559 0.62649
 C1810 C 0.53913 0.03259 0.61374
 H1811 H 0.43774 -0.02236 0.63300
 H1812 H 0.50983 -0.05009 0.58056
 H1813 H 0.47369 -0.07750 0.58617
 H1814 H 0.53228 -0.01150 0.59098
 H1815 H 0.45972 0.01638 0.64286
 H1816 H 0.48240 0.05408 0.65442
 H1817 H 0.51927 0.08039 0.65148
 H1818 H 0.55487 0.02689 0.60221
 C1819 C -0.02928 0.54412 0.38138
 C1820 C -0.01233 0.52405 0.38207
 C1821 C -0.02144 0.49924 0.38219
 C1822 C -0.04728 0.49492 0.38199
 C1823 C -0.06402 0.51499 0.38136
 C1824 C -0.05524 0.53977 0.38084
 C1825 C -0.00459 0.47913 0.38234
 C1826 C 0.02126 0.48351 0.38229
 C1827 C 0.03043 0.50829 0.38254
 C1828 C 0.01356 0.52844 0.38245
 C1829 C 0.05633 0.51245 0.38267
 C1830 C 0.07301 0.49225 0.38219
 C1831 C 0.06406 0.46754 0.38148
 C1832 C 0.03807 0.46340 0.38178
 H1833 H -0.02219 0.56311 0.38123
 H1834 H -0.05455 0.47601 0.38217
 H1835 H -0.08389 0.51106 0.38104
 H1836 H -0.01158 0.46009 0.38226
 H1837 H 0.02055 0.54747 0.38247
 H1838 H 0.06370 0.53132 0.38296
 H1839 H 0.09292 0.49599 0.38207
 H1840 H 0.03082 0.44447 0.38153
 C1841 C -0.03526 1.04082 0.87830
 C1842 C -0.01814 1.02096 0.87988
 C1843 C -0.02697 0.99621 0.88259
 C1844 C -0.05277 0.99183 0.88415
 C1845 C -0.06974 1.01173 0.88280
 C1846 C -0.06129 1.03651 0.87962
 C1847 C -0.00988 0.97626 0.88357
 C1848 C 0.01594 0.98079 0.88198
 C1849 C 0.02477 1.00560 0.87980
 C1850 C 0.00768 1.02552 0.87872
 C1851 C 0.05058 1.01007 0.87857
 C1852 C 0.06753 0.99012 0.87910
 C1853 C 0.05898 0.96532 0.88071
 C1854 C 0.03307 0.96085 0.88237
 H1855 H -0.02813 1.05968 0.87612
 H1856 H -0.05985 0.97297 0.88637
 H1857 H -0.08953 1.00757 0.88404
 H1858 H -0.01666 0.95723 0.88543
 H1859 H 0.01447 1.04455 0.87683
 H1860 H 0.05767 1.02899 0.87701
 H1861 H 0.08734 0.99412 0.87784
 H1862 H 0.02617 0.94185 0.88390
 C1863 C 0.79266 0.61705 0.28362
 C1864 C 0.77220 0.61597 0.26723
 C1865 C 0.74765 0.61833 0.27687
 C1866 C 0.74400 0.62168 0.30273
 C1867 C 0.76448 0.62282 0.31893
 C1868 C 0.78901 0.62056 0.30957
 C1869 C 0.72717 0.61750 0.26050
 C1870 C 0.73095 0.61457 0.23460
 C1871 C 0.75549 0.61218 0.22494
 C1872 C 0.77597 0.61277 0.24134
 C1873 C 0.75914 0.60956 0.19899
 C1874 C 0.73868 0.60971 0.18268
 C1875 C 0.71420 0.61227 0.19206
 C1876 C 0.71053 0.61443 0.21815
 H1877 H 0.81142 0.61530 0.27607
 H1878 H 0.72530 0.62353 0.31042
 H1879 H 0.76108 0.62552 0.33881
 H1880 H 0.70833 0.61940 0.26789
 H1881 H 0.79481 0.61101 0.23394
 H1882 H 0.77782 0.60771 0.19127
 H1883 H 0.74208 0.60803 0.16268
 H1884 H 0.69180 0.61659 0.22570
 C1885 C 0.29656 0.87950 0.72061
 C1886 C 0.27584 0.88080 0.73697
 C1887 C 0.25140 0.88218 0.72693
 C1888 C 0.24806 0.88226 0.70082
 C1889 C 0.26866 0.88081 0.68473
 C1890 C 0.29316 0.87936 0.69432
 C1891 C 0.23064 0.88328 0.74309
 C1892 C 0.23391 0.88284 0.76925
 C1893 C 0.25832 0.88145 0.77936
 C1894 C 0.27913 0.88052 0.76318
 C1895 C 0.26146 0.88082 0.80552
 C1896 C 0.24067 0.88135 0.82153
 C1897 C 0.21624 0.88266 0.81174
 C1898 C 0.21311 0.88353 0.78545
 H1899 H 0.31527 0.87829 0.72838
 H1900 H 0.22945 0.88331 0.69281
 H1901 H 0.26534 0.88080 0.66466
 H1902 H 0.21191 0.88429 0.73530
 H1903 H 0.29785 0.87941 0.77097
 H1904 H 0.28002 0.87974 0.81363
 H1905 H 0.24376 0.88064 0.84162
 H1906 H 0.19447 0.88442 0.77751
 C1907 C 0.21390 0.37907 0.28447
 C1908 C 0.23426 0.37788 0.26794
 C1909 C 0.25889 0.37823 0.27756
 C1910 C 0.26268 0.37964 0.30360
 C1911 C 0.24225 0.38060 0.31999
 C1912 C 0.21768 0.38038 0.31060
 C1913 C 0.27929 0.37708 0.26102
 C1914 C 0.27532 0.37543 0.23501
 C1915 C 0.25067 0.37488 0.22543
 C1916 C 0.23030 0.37617 0.24196
 C1917 C 0.24681 0.37304 0.19945
 C1918 C 0.26717 0.37187 0.18304
 C1919 C 0.29179 0.37258 0.19230
 C1920 C 0.29566 0.37431 0.21841
 H1921 H 0.19508 0.37862 0.27692
 H1922 H 0.28144 0.37989 0.31130
 H1923 H 0.24570 0.38157 0.34001
 H1924 H 0.29821 0.37741 0.26837
 H1925 H 0.21137 0.37580 0.23461
 H1926 H 0.22803 0.37255 0.19181
 H1927 H 0.26361 0.37054 0.16306
 H1928 H 0.31450 0.37476 0.22590
 C1929 C 0.87067 0.71649 0.29280
 C1930 C 0.86959 0.73234 0.27174
 C1931 C 0.87194 0.72215 0.24732
 C1932 C 0.87511 0.69627 0.24440
 C1933 C 0.87595 0.68060 0.26541
 C1934 C 0.87380 0.69047 0.28984
 C1935 C 0.87111 0.73796 0.22625
 C1936 C 0.86796 0.76388 0.22924
 C1937 C 0.86536 0.77403 0.25365
 C1938 C 0.86617 0.75822 0.27472
 C1939 C 0.86224 0.79990 0.25663
 C1940 C 0.86216 0.81567 0.23571
 C1941 C 0.86510 0.80595 0.21129
 C1942 C 0.86769 0.77988 0.20824
 H1943 H 0.86875 0.72439 0.31147
 H1944 H 0.87691 0.68812 0.22584
 H1945 H 0.87837 0.66068 0.26250
 H1946 H 0.87304 0.73011 0.20755
 H1947 H 0.86428 0.76608 0.29343
 H1948 H 0.86013 0.80799 0.27519
 H1949 H 0.86000 0.83560 0.23873
 H1950 H 0.87004 0.77204 0.18959
 C1951 C 0.62824 0.28660 0.78566
 C1952 C 0.62875 0.27067 0.76483
 C1953 C 0.62727 0.28079 0.74033
 C1954 C 0.62562 0.30680 0.73716
 C1955 C 0.62530 0.32261 0.75809
 C1956 C 0.62644 0.31263 0.78252
 C1957 C 0.62740 0.26473 0.71949
 C1958 C 0.62898 0.23874 0.72293
 C1959 C 0.63077 0.22875 0.74748
 C1960 C 0.63065 0.24477 0.76825
 C1961 C 0.63244 0.20284 0.75091
 C1962 C 0.63198 0.18685 0.73025
 C1963 C 0.62985 0.19646 0.70572
 C1964 C 0.62857 0.22253 0.70221
 H1965 H 0.62944 0.27863 0.80437
 H1966 H 0.62455 0.31490 0.71853
 H1967 H 0.62395 0.34262 0.75516
 H1968 H 0.62611 0.27244 0.70067
 H1969 H 0.63189 0.23707 0.78708
 H1970 H 0.63390 0.19492 0.76960
 H1971 H 0.63309 0.16689 0.73357
 H1972 H 0.62699 0.23023 0.68344
 C1973 C 0.77684 0.20393 0.87252
 C1974 C 0.76146 0.22531 0.87261
 C1975 C 0.77242 0.24938 0.87329
 C1976 C 0.79849 0.25168 0.87377
 C1977 C 0.81363 0.23040 0.87350
 C1978 C 0.80306 0.20630 0.87287
 C1979 C 0.75721 0.27078 0.87339
 C1980 C 0.73111 0.26851 0.87264
 C1981 C 0.72010 0.24449 0.87182
 C1982 C 0.73532 0.22304 0.87190
 C1983 C 0.69400 0.24234 0.87085
 C1984 C 0.67895 0.26375 0.87062
 C1985 C 0.68967 0.28777 0.87149
 C1986 C 0.71587 0.28994 0.87257
 H1987 H 0.76841 0.18551 0.87191
 H1988 H 0.80719 0.26997 0.87428
 H1989 H 0.83372 0.23290 0.87387
 H1990 H 0.76569 0.28920 0.87394
 H1991 H 0.72685 0.20463 0.87129
 H1992 H 0.68522 0.22410 0.87018
 H1993 H 0.65885 0.26143 0.86980
 H1994 H 0.72446 0.30829 0.87312
 C1995 C 0.28203 0.79074 0.62297
 C1996 C 0.26615 0.76981 0.62370
 C1997 C 0.27588 0.74603 0.63024
 C1998 C 0.30129 0.74354 0.63591
 C1999 C 0.31693 0.76434 0.63514
 C2000 C 0.30757 0.78818 0.62866
 C2001 C 0.26008 0.72512 0.63116
 C2002 C 0.23455 0.72765 0.62580
 C2003 C 0.22484 0.75144 0.61920
 C2004 C 0.24067 0.77230 0.61808
 C2005 C 0.19932 0.75409 0.61410
 C2006 C 0.18346 0.73354 0.61600
 C2007 C 0.19275 0.70981 0.62284
 C2008 C 0.21847 0.70690 0.62734
 H2009 H 0.27452 0.80892 0.61793
 H2010 H 0.30908 0.72550 0.64101
 H2011 H 0.33649 0.76165 0.63973
 H2012 H 0.26761 0.70695 0.63628
 H2013 H 0.23312 0.79049 0.61308
 H2014 H 0.19156 0.77212 0.60895
 H2015 H 0.16374 0.73630 0.61218
 H2016 H 0.22581 0.68875 0.63274
   
