data_POSCAR
  _audit_creation_date              2014-09-24
  _audit_creation_method            'ToBaCCo'
  _symmetry_space_group_name_H-M    'P1'
  _symmetry_Int_Tables_number       1
  _symmetry_cell_setting            triclinic
  loop_
  _symmetry_equiv_pos_as_xyz
 x,y,z
_cell_length_a 106.5092
_cell_length_b 106.3303
_cell_length_c 106.0307
_cell_angle_alpha 89.984600
_cell_angle_beta 90.003500
_cell_angle_gamma 90.015400
loop_
  _atom_site_label
  _atom_site_type_symbol
  _atom_site_fract_x
  _atom_site_fract_y
  _atom_site_fract_z
C1 C 0.30438 0.43683 0.92708
 C2 C 0.30437 0.42755 0.93649
 C3 C 0.31353 0.42763 0.94572
 C4 C 0.32282 0.43698 0.94568
 C5 C 0.32281 0.44611 0.93646
 C6 C 0.31353 0.44604 0.92708
 C7 C 0.29709 0.43866 0.91653
 N8 N 0.30157 0.44878 0.91008
 C9 C 0.31163 0.45335 0.91655
 C10 C 0.33320 0.45353 0.93842
 N11 N 0.33966 0.44918 0.94868
 C12 C 0.33319 0.43900 0.95312
 C13 C 0.31156 0.41727 0.95323
 N14 N 0.30138 0.41088 0.94884
 C15 C 0.29694 0.41717 0.93858
 H16 H 0.28939 0.43272 0.91355
 H17 H 0.31727 0.46136 0.91379
 H18 H 0.33574 0.46143 0.93255
 H19 H 0.33582 0.43309 0.96097
 H20 H 0.31739 0.41442 0.96109
 H21 H 0.28890 0.41444 0.93298
 C22 C 0.43631 0.82409 0.44593
 C23 C 0.42752 0.81428 0.44658
 C24 C 0.42802 0.80453 0.43797
 C25 C 0.43728 0.80448 0.42857
 C26 C 0.44590 0.81417 0.42792
 C27 C 0.44541 0.82403 0.43670
 C28 C 0.43785 0.83495 0.45279
 N29 N 0.44773 0.84163 0.44801
 C30 C 0.45234 0.83485 0.43808
 C31 C 0.45328 0.81204 0.41749
 N32 N 0.44935 0.80129 0.41175
 C33 C 0.43956 0.79661 0.41854
 C34 C 0.41801 0.79673 0.44043
 N35 N 0.41138 0.80151 0.45029
 C36 C 0.41720 0.81226 0.45411
 H37 H 0.43200 0.83759 0.46067
 H38 H 0.46004 0.83748 0.43201
 H39 H 0.46064 0.81818 0.41408
 H40 H 0.43436 0.78815 0.41633
 H41 H 0.41571 0.78826 0.43527
 H42 H 0.41392 0.81846 0.46149
 C43 C 0.93569 0.92664 0.80426
 C44 C 0.92634 0.93592 0.80437
 C45 C 0.92667 0.94536 0.81333
 C46 C 0.93632 0.94561 0.82232
 C47 C 0.94549 0.93647 0.82220
 C48 C 0.94517 0.92690 0.81309
 C49 C 0.93748 0.91609 0.79698
 N50 N 0.94787 0.90979 0.80114
 C51 C 0.95257 0.91651 0.81107
 C52 C 0.95321 0.93866 0.83234
 N53 N 0.94899 0.94894 0.83881
 C54 C 0.93861 0.95321 0.83256
 C55 C 0.91618 0.95270 0.81154
 N56 N 0.90944 0.94794 0.80173
 C57 C 0.91564 0.93766 0.79731
 H58 H 0.93129 0.91322 0.78944
 H59 H 0.96076 0.91420 0.81660
 H60 H 0.96105 0.93274 0.83490
 H61 H 0.93285 0.96115 0.83516
 H62 H 0.91367 0.96087 0.81706
 H63 H 0.91245 0.93159 0.78978
 C64 C 0.43677 -0.07251 0.30394
 C65 C 0.42752 -0.06312 0.30371
 C66 C 0.42716 -0.05412 0.31310
 C67 C 0.43607 -0.05437 0.32284
 C68 C 0.44516 -0.06363 0.32306
 C69 C 0.44549 -0.07278 0.31353
 C70 C 0.43896 -0.08280 0.29642
 N71 N 0.44886 -0.08948 0.30116
 C72 C 0.45286 -0.08322 0.31168
 C73 C 0.45215 -0.06189 0.33383
 N74 N 0.44756 -0.05176 0.34017
 C75 C 0.43770 -0.04712 0.33346
 C76 C 0.41682 -0.04669 0.31088
 N77 N 0.41086 -0.05094 0.30036
 C78 C 0.41742 -0.06099 0.29592
 H79 H 0.43335 -0.08522 0.28829
 H80 H 0.46045 -0.08597 0.31784
 H81 H 0.45978 -0.06783 0.33696
 H82 H 0.43207 -0.03906 0.33606
 H83 H 0.41363 -0.03906 0.31683
 H84 H 0.41500 -0.06648 0.28768
 C85 C 0.80635 0.31546 0.32413
 C86 C 0.80619 0.32472 0.31471
 C87 C 0.81503 0.32448 0.30517
 C88 C 0.82421 0.31502 0.30496
 C89 C 0.82438 0.30593 0.31427
 C90 C 0.81537 0.30613 0.32391
 C91 C 0.79914 0.31356 0.33472
 N92 N 0.80352 0.30325 0.34094
 C93 C 0.81348 0.29868 0.33434
 C94 C 0.83467 0.29842 0.31210
 N95 N 0.84080 0.30272 0.30169
 C96 C 0.83438 0.31287 0.29726
 C97 C 0.81291 0.33481 0.29766
 N98 N 0.80300 0.34136 0.30240
 C99 C 0.79885 0.33520 0.31285
 H100 H 0.79145 0.31946 0.33779
 H101 H 0.81895 0.29048 0.33685
 H102 H 0.83772 0.29071 0.31801
 H103 H 0.83695 0.31842 0.28911
 H104 H 0.81825 0.33733 0.28936
 H105 H 0.79131 0.33827 0.31894
 C106 C -0.18659 0.82321 0.80387
 C107 C -0.17737 0.81380 0.80372
 C108 C -0.17722 0.80471 0.81304
 C109 C -0.18631 0.80489 0.82260
 C110 C -0.19537 0.81413 0.82273
 C111 C -0.19551 0.82338 0.81328
 C112 C -0.18859 0.83362 0.79644
 N113 N -0.19856 0.84027 0.80107
 C114 C -0.20281 0.83387 0.81142
 C115 C -0.20259 0.81226 0.83331
 N116 N -0.19819 0.80203 0.83977
 C117 C -0.18816 0.79754 0.83311
 C118 C -0.16691 0.79722 0.81092
 N119 N -0.16077 0.80150 0.80052
 C120 C -0.16716 0.81165 0.79607
 H121 H -0.18292 0.83606 0.78837
 H122 H -0.21040 0.83666 0.81756
 H123 H -0.21041 0.81815 0.83597
 H124 H -0.18228 0.78966 0.83564
 H125 H -0.16391 0.78949 0.81683
 H126 H -0.16460 0.81717 0.78789
 C127 C 0.94369 0.32535 0.43464
 C128 C 0.94406 0.31563 0.42571
 C129 C 0.93544 0.30593 0.42632
 C130 C 0.92631 0.30585 0.43584
 C131 C 0.92593 0.31545 0.44460
 C132 C 0.93472 0.32526 0.44400
 C133 C 0.95068 0.33612 0.43616
 N134 N 0.94624 0.34271 0.44629
 C135 C 0.93639 0.33597 0.45106
 C136 C 0.91575 0.31327 0.45229
 N137 N 0.90990 0.30256 0.44842
 C138 C 0.91638 0.29796 0.43836
 C139 C 0.93764 0.29817 0.41618
 N140 N 0.94736 0.30293 0.40936
 C141 C 0.95134 0.31361 0.41518
 H142 H 0.95842 0.33875 0.43014
 H143 H 0.93058 0.33853 0.45900
 H144 H 0.91260 0.31934 0.45984
 H145 H 0.91403 0.28955 0.43314
 H146 H 0.93243 0.28973 0.41394
 H147 H 0.95870 0.31977 0.41180
 C148 C 0.44439 0.43505 0.82298
 C149 C 0.44391 0.42521 0.81418
 C150 C 0.43425 0.42468 0.80550
 C151 C 0.42495 0.43402 0.80546
 C152 C 0.42546 0.44372 0.81411
 C153 C 0.43525 0.44421 0.82296
 C154 C 0.45225 0.43750 0.83295
 N155 N 0.44813 0.44796 0.83919
 C156 C 0.43768 0.45209 0.83294
 C157 C 0.41504 0.45112 0.81219
 N158 N 0.40817 0.44615 0.80258
 C159 C 0.41422 0.43566 0.79844
 C160 C 0.43590 0.41390 0.79853
 N161 N 0.44635 0.40785 0.80274
 C162 C 0.45128 0.41476 0.81234
 H163 H 0.46008 0.43161 0.83559
 H164 H 0.43198 0.46012 0.83539
 H165 H 0.41269 0.45952 0.81743
 H166 H 0.41091 0.42943 0.79109
 H167 H 0.42971 0.41056 0.79116
 H168 H 0.45965 0.41242 0.81762
 C169 C 0.80384 0.92778 0.93685
 C170 C 0.80406 0.93684 0.92723
 C171 C 0.81351 0.94574 0.92692
 C172 C 0.82286 0.94572 0.93625
 C173 C 0.82261 0.93682 0.94570
 C174 C 0.81303 0.92776 0.94598
 C175 C 0.79623 0.91758 0.93905
 N176 N 0.80054 0.91117 0.94936
 C177 C 0.81087 0.91753 0.95362
 C178 C 0.83306 0.93872 0.95306
 N179 N 0.83980 0.94862 0.94838
 C180 C 0.83345 0.95289 0.93802
 C181 C 0.81174 0.95286 0.91623
 N182 N 0.80143 0.94851 0.91002
 C183 C 0.79668 0.93871 0.91676
 H184 H 0.78840 0.91497 0.93314
 H185 H 0.81669 0.91498 0.96155
 H186 H 0.83551 0.93295 0.96108
 H187 H 0.83619 0.96057 0.93196
 H188 H 0.81782 0.96036 0.91302
 H189 H 0.78849 0.93324 0.91425
 C190 C 0.30300 0.82143 0.31218
 C191 C 0.30330 0.81245 0.32188
 C192 C 0.31281 0.80361 0.32223
 C193 C 0.32210 0.80358 0.31287
 C194 C 0.32175 0.81239 0.30329
 C195 C 0.31212 0.82139 0.30297
 C196 C 0.29538 0.83162 0.30994
 N197 N 0.29963 0.83795 0.29955
 C198 C 0.30991 0.83154 0.29527
 C199 C 0.33216 0.81045 0.29587
 N200 N 0.33887 0.80068 0.30070
 C201 C 0.33274 0.79645 0.31113
 C202 C 0.31109 0.79653 0.33295
 N203 N 0.30075 0.80082 0.33915
 C204 C 0.29595 0.81058 0.33238
 H205 H 0.28746 0.83418 0.31575
 H206 H 0.31583 0.83417 0.28743
 H207 H 0.33463 0.81582 0.28756
 H208 H 0.33593 0.78898 0.31727
 H209 H 0.31720 0.78907 0.33617
 H210 H 0.28771 0.81599 0.33486
 C211 C 0.80674 0.42604 0.43467
 C212 C 0.80667 0.43543 0.42538
 C213 C 0.81589 0.44457 0.42532
 C214 C 0.82534 0.44444 0.43453
 C215 C 0.82544 0.43520 0.44364
 C216 C 0.81607 0.42592 0.44373
 C217 C 0.79920 0.41576 0.43681
 N218 N 0.80372 0.40934 0.44695
 C219 C 0.81407 0.41554 0.45121
 C220 C 0.83591 0.43711 0.45097
 N221 N 0.84235 0.44733 0.44657
 C222 C 0.83577 0.45181 0.43645
 C223 C 0.81381 0.45207 0.41496
 N224 N 0.80357 0.44769 0.40865
 C225 C 0.79916 0.43750 0.41503
 H226 H 0.79100 0.41321 0.43136
 H227 H 0.81996 0.41257 0.45897
 H228 H 0.83860 0.43113 0.45874
 H229 H 0.83823 0.45979 0.43066
 H230 H 0.81944 0.46009 0.41222
 H231 H 0.79133 0.43169 0.41214
 C232 C 0.93772 0.82142 -0.05312
 C233 C 0.92840 0.81210 -0.05306
 C234 C 0.92865 0.80261 -0.06196
 C235 C 0.93819 0.80234 -0.07108
 C236 C 0.94736 0.81149 -0.07112
 C237 C 0.94715 0.82110 -0.06206
 C238 C 0.93952 0.83207 -0.04598
 N239 N 0.94983 0.83825 -0.05034
 C240 C 0.95454 0.83155 -0.06020
 C241 C 0.95488 0.80933 -0.08143
 N242 N 0.95052 0.79907 -0.08784
 C243 C 0.94028 0.79476 -0.08138
 C244 C 0.91821 0.79525 -0.06000
 N245 N 0.91158 0.80004 -0.05013
 C246 C 0.91780 0.81037 -0.04586
 H247 H 0.93347 0.83525 -0.03842
 H248 H 0.96273 0.83404 -0.06568
 H249 H 0.96263 0.81529 -0.08415
 H250 H 0.93444 0.78685 -0.08390
 H251 H 0.91566 0.78703 -0.06543
 H252 H 0.91468 0.81648 -0.03833
 C253 C 0.30626 0.32435 0.81447
 C254 C 0.30660 0.31543 0.82421
 C255 C 0.31605 0.30654 0.82454
 C256 C 0.32529 0.30641 0.81512
 C257 C 0.32492 0.31516 0.80548
 C258 C 0.31534 0.32421 0.80516
 C259 C 0.29861 0.33452 0.81217
 N260 N 0.30281 0.34059 0.80169
 C261 C 0.31304 0.33427 0.79734
 C262 C 0.33527 0.31311 0.79799
 N263 N 0.34195 0.30333 0.80284
 C264 C 0.33586 0.29919 0.81333
 C265 C 0.31424 0.29939 0.83520
 N266 N 0.30388 0.30369 0.84136
 C267 C 0.29918 0.31353 0.83465
 H268 H 0.29087 0.33751 0.81805
 H269 H 0.31854 0.33682 0.78915
 H270 H 0.33771 0.31841 0.78963
 H271 H 0.33904 0.29173 0.81949
 H272 H 0.32024 0.29180 0.83836
 H273 H 0.29091 0.31891 0.83709
 C274 C 0.17659 0.56500 0.55457
 C275 C 0.18553 0.57467 0.55521
 C276 C 0.19488 0.57427 0.56424
 C277 C 0.19542 0.56421 0.57278
 C278 C 0.18663 0.55467 0.57213
 C279 C 0.17716 0.55506 0.56295
 C280 C 0.16614 0.56322 0.54717
 N281 N 0.16031 0.55242 0.55083
 C282 C 0.16706 0.54739 0.56049
 C283 C 0.18899 0.54657 0.58197
 N284 N 0.19896 0.55098 0.58866
 C285 C 0.20296 0.56177 0.58303
 C286 C 0.20198 0.58500 0.56287
 N287 N 0.19717 0.59194 0.55323
 C288 C 0.18707 0.58565 0.54853
 H289 H 0.16282 0.56958 0.53993
 H290 H 0.16480 0.53879 0.56546
 H291 H 0.18367 0.53818 0.58414
 H292 H 0.21045 0.56775 0.58642
 H293 H 0.21010 0.58747 0.56848
 H294 H 0.18106 0.58891 0.54098
 C295 C 0.57612 0.68329 0.05722
 C296 C 0.56674 0.67403 0.05724
 C297 C 0.55762 0.67407 0.06651
 C298 C 0.55775 0.68336 0.07589
 C299 C 0.56699 0.69248 0.07587
 C300 C 0.57624 0.69244 0.06646
 C301 C 0.58641 0.68531 0.04964
 N302 N 0.59284 0.69545 0.05408
 C303 C 0.58663 0.69984 0.06439
 C304 C 0.56504 0.69997 0.08625
 N305 N 0.55486 0.69561 0.09266
 C306 C 0.55036 0.68542 0.08634
 C307 C 0.55003 0.66381 0.06444
 N308 N 0.55433 0.65747 0.05416
 C309 C 0.56457 0.66372 0.04972
 H310 H 0.58898 0.67975 0.04150
 H311 H 0.58961 0.70763 0.07025
 H312 H 0.57068 0.70801 0.08890
 H313 H 0.54252 0.67966 0.08927
 H314 H 0.54196 0.66120 0.07006
 H315 H 0.57031 0.66081 0.04182
 C316 C 0.68657 0.19584 0.67781
 C317 C 0.67749 0.19575 0.68739
 C318 C 0.67781 0.18656 0.69660
 C319 C 0.68722 0.17733 0.69637
 C320 C 0.69616 0.17743 0.68693
 C321 C 0.69583 0.18676 0.67758
 C322 C 0.68821 0.20329 0.66732
 N323 N 0.69824 0.19892 0.66067
 C324 C 0.70293 0.18879 0.66694
 C325 C 0.70373 0.16710 0.68874
 N326 N 0.69957 0.16066 0.69902
 C327 C 0.68945 0.16691 0.70372
 C328 C 0.66759 0.18842 0.70430
 N329 N 0.66100 0.19850 0.69997
 C330 C 0.66705 0.20302 0.68961
 H331 H 0.68246 0.21127 0.66475
 H332 H 0.71069 0.18301 0.66380
 H333 H 0.71163 0.16448 0.68290
 H334 H 0.68380 0.16391 0.71165
 H335 H 0.66514 0.18277 0.71241
 H336 H 0.66388 0.21077 0.68380
 C337 C 1.07487 0.06496 0.19342
 C338 C 1.06513 0.07383 0.19379
 C339 C 1.05584 0.07361 0.18469
 C340 C 1.05617 0.06454 0.17509
 C341 C 1.06575 0.05586 0.17470
 C342 C 1.07518 0.05604 0.18394
 C343 C 1.08536 0.06314 0.20078
 N344 N 1.09207 0.05335 0.19600
 C345 C 1.08586 0.04898 0.18567
 C346 C 1.06394 0.04861 0.16411
 N347 N 1.05344 0.05266 0.15790
 C348 C 1.04869 0.06247 0.16474
 C349 C 1.04796 0.08357 0.18703
 N350 N 1.05226 0.08993 0.19730
 C351 C 1.06277 0.08397 0.20149
 H352 H 1.08784 0.06858 0.20904
 H353 H 1.08901 0.04143 0.17961
 H354 H 1.07010 0.04107 0.16125
 H355 H 1.04053 0.06803 0.16244
 H356 H 1.03975 0.08602 0.18155
 H357 H 1.06858 0.08701 0.20928
 C358 C 0.06649 0.17421 1.05699
 C359 C 0.07583 0.18352 1.05704
 C360 C 0.07533 0.19316 1.06576
 C361 C 0.06553 0.19362 1.07458
 C362 C 0.05635 0.18449 1.07452
 C363 C 0.05681 0.17471 1.06565
 C364 C 0.06478 0.16351 1.04990
 N365 N 0.05428 0.15749 1.05402
 C366 C 0.04936 0.16433 1.06367
 C367 C 0.04844 0.18693 1.08446
 N368 N 0.05258 0.19736 1.09076
 C369 C 0.06307 0.20147 1.08458
 C370 C 0.08576 0.20056 1.06389
 N371 N 0.09262 0.19566 1.05425
 C372 C 0.08656 0.18520 1.05002
 H373 H 0.07097 0.16023 1.04250
 H374 H 0.04096 0.16200 1.06889
 H375 H 0.04055 0.18109 1.08701
 H376 H 0.06880 0.20947 1.08709
 H377 H 0.08812 0.20893 1.06919
 H378 H 0.08985 0.17904 1.04261
 C379 C 0.17555 0.69473 0.68597
 C380 C 0.18510 0.69518 0.67687
 C381 C 0.19427 0.68600 0.67666
 C382 C 0.19406 0.67625 0.68557
 C383 C 0.18463 0.67580 0.69452
 C384 C 0.17530 0.68509 0.69470
 C385 C 0.16513 0.70207 0.68805
 N386 N 0.15850 0.69713 0.69784
 C387 C 0.16471 0.68672 0.70195
 C388 C 0.18655 0.66514 0.70162
 N389 N 0.19695 0.65911 0.69726
 C390 C 0.20157 0.66589 0.68741
 C391 C 0.20183 0.68839 0.66642
 N392 N 0.19749 0.69880 0.66036
 C393 C 0.18725 0.70302 0.66678
 H394 H 0.16260 0.71040 0.68276
 H395 H 0.16159 0.68051 0.70940
 H396 H 0.18059 0.66191 0.70922
 H397 H 0.20984 0.66355 0.68197
 H398 H 0.20962 0.68261 0.66334
 H399 H 0.18164 0.71112 0.66426
 C400 C 1.18457 0.17442 0.19391
 C401 C 1.17540 0.18387 0.19419
 C402 C 1.17569 0.19347 0.18542
 C403 C 1.18512 0.19373 0.17618
 C404 C 1.19415 0.18445 0.17592
 C405 C 1.19389 0.17472 0.18485
 C406 C 1.18638 0.16372 0.20098
 N407 N 1.19660 0.15750 0.19647
 C408 C 1.20123 0.16422 0.18658
 C409 C 1.20167 0.18671 0.16563
 N410 N 1.19746 0.19717 0.15945
 C411 C 1.18729 0.20149 0.16603
 C412 C 1.16546 0.20104 0.18768
 N413 N 1.15892 0.19627 0.19763
 C414 C 1.16499 0.18574 0.20164
 H415 H 1.18045 0.16058 0.20864
 H416 H 1.20938 0.16172 0.18102
 H417 H 1.20934 0.18072 0.16278
 H418 H 1.18162 0.20958 0.16373
 H419 H 1.16302 0.20942 0.18244
 H420 H 1.16191 0.17962 0.20918
 C421 C 0.67728 1.05460 0.56291
 C422 C 0.68666 1.05438 0.57219
 C423 C 0.69532 1.06403 0.57286
 C424 C 0.69475 1.07402 0.56423
 C425 C 0.68554 1.07424 0.55511
 C426 C 0.67671 1.06447 0.55445
 C427 C 0.66724 1.04685 0.56045
 N428 N 0.66050 1.05178 0.55072
 C429 C 0.66630 1.06257 0.54700
 C430 C 0.68704 1.08518 0.54837
 N431 N 0.69702 1.09176 0.55311
 C432 C 0.70171 1.08483 0.56290
 C433 C 0.70282 1.06174 0.58316
 N434 N 0.69894 1.05092 0.58881
 C435 C 0.68905 1.04636 0.58208
 H436 H 0.66499 1.03830 0.56550
 H437 H 0.66296 1.06887 0.53972
 H438 H 0.68102 1.08802 0.54069
 H439 H 0.70959 1.08727 0.56881
 H440 H 0.71024 1.06782 0.58656
 H441 H 0.68384 1.03790 0.58425
 C442 C 0.56503 0.55649 0.17497
 C443 C 0.57410 0.55645 0.18456
 C444 C 0.57394 0.56566 0.19374
 C445 C 0.56470 0.57506 0.19347
 C446 C 0.55576 0.57510 0.18403
 C447 C 0.55593 0.56574 0.17470
 C448 C 0.56320 0.54899 0.16456
 N449 N 0.55323 0.55348 0.15792
 C450 C 0.54874 0.56375 0.16411
 C451 C 0.54832 0.58551 0.18585
 N452 N 0.55254 0.59186 0.19616
 C453 C 0.56258 0.58548 0.20086
 C454 C 0.58407 0.56356 0.20151
 N455 N 0.59044 0.55332 0.19725
 C456 C 0.58435 0.54893 0.18686
 H457 H 0.56878 0.54087 0.16206
 H458 H 0.54106 0.56962 0.16097
 H459 H 0.54042 0.58821 0.18004
 H460 H 0.56822 0.58837 0.20883
 H461 H 0.58658 0.56916 0.20965
 H462 H 0.58734 0.54108 0.18110
 C463 C 0.67508 0.68542 0.19418
 C464 C 0.68439 0.67610 0.19394
 C465 C 0.69374 0.67651 0.18492
 C466 C 0.69391 0.68624 0.17598
 C467 C 0.68476 0.69544 0.17624
 C468 C 0.67529 0.69504 0.18543
 C469 C 0.66457 0.68710 0.20153
 N470 N 0.65836 0.69753 0.19747
 C471 C 0.66491 0.70243 0.18760
 C472 C 0.68687 0.70327 0.16613
 N473 N 0.69705 0.69901 0.15965
 C474 C 0.70141 0.68859 0.16569
 C475 C 0.70125 0.66614 0.18673
 N476 N 0.69669 0.65941 0.19664
 C477 C 0.68634 0.66547 0.20107
 H478 H 0.66151 0.68092 0.20903
 H479 H 0.66236 0.71075 0.18233
 H480 H 0.68127 0.71138 0.16364
 H481 H 0.70916 0.68279 0.16257
 H482 H 0.70947 0.66377 0.18124
 H483 H 0.68044 0.66228 0.20873
 C484 C 0.17383 0.06699 1.05722
 C485 C 0.18344 0.07601 1.05711
 C486 C 0.19304 0.07536 1.06585
 C487 C 0.19315 0.06571 1.07487
 C488 C 0.18367 0.05684 1.07500
 C489 C 0.17396 0.05747 1.06609
 C490 C 0.16318 0.06546 1.05004
 N491 N 0.15682 0.05519 1.05429
 C492 C 0.16340 0.05028 1.06414
 C493 C 0.18581 0.04905 1.08514
 N494 N 0.19637 0.05297 1.09120
 C495 C 0.20093 0.06315 1.08490
 C496 C 0.20076 0.08553 1.06381
 N497 N 0.19609 0.09239 1.05405
 C498 C 0.18547 0.08658 1.04990
 H499 H 0.16019 0.07157 1.04246
 H500 H 0.16080 0.04200 1.06947
 H501 H 0.17979 0.04141 1.08812
 H502 H 0.20923 0.06844 1.08743
 H503 H 0.20916 0.08773 1.06910
 H504 H 0.17941 0.08996 1.04245
 C505 C 0.57375 0.19599 0.56313
 C506 C 0.56436 0.19631 0.57240
 C507 C 0.55497 0.18734 0.57240
 C508 C 0.55482 0.17793 0.56313
 C509 C 0.56407 0.17762 0.55400
 C510 C 0.57361 0.18672 0.55401
 C511 C 0.58436 0.20311 0.56120
 N512 N 0.59069 0.19842 0.55108
 C513 C 0.58411 0.18839 0.54664
 C514 C 0.56192 0.16717 0.54667
 N515 N 0.55156 0.16111 0.55109
 C516 C 0.54716 0.16770 0.56117
 C517 C 0.54756 0.18956 0.58279
 N518 N 0.55218 0.19969 0.58911
 C519 C 0.56247 0.20387 0.58275
 H520 H 0.58743 0.21088 0.56703
 H521 H 0.58674 0.18263 0.53865
 H522 H 0.56777 0.16402 0.53895
 H523 H 0.53902 0.16525 0.56676
 H524 H 0.53964 0.18389 0.58572
 H525 H 0.56826 0.21178 0.58544
 C526 C 0.07290 0.56406 0.69594
 C527 C 0.06367 0.57347 0.69568
 C528 C 0.05459 0.57338 0.68637
 C529 C 0.05459 0.56389 0.67719
 C530 C 0.06369 0.55463 0.67745
 C531 C 0.07290 0.55472 0.68689
 C532 C 0.08319 0.56210 0.70353
 N533 N 0.08951 0.55181 0.69929
 C534 C 0.08323 0.54726 0.68909
 C535 C 0.06174 0.54703 0.66714
 N536 N 0.05170 0.55146 0.66056
 C537 C 0.04729 0.56180 0.66670
 C538 C 0.04722 0.58386 0.68812
 N539 N 0.05163 0.59039 0.69824
 C540 C 0.06171 0.58404 0.70290
 H541 H 0.08586 0.56783 0.71152
 H542 H 0.08614 0.53936 0.68337
 H543 H 0.06730 0.53889 0.66464
 H544 H 0.03960 0.56766 0.66357
 H545 H 0.03926 0.58651 0.68237
 H546 H 0.06750 0.58705 0.71072
 C547 C 0.67540 0.55606 0.06387
 C548 C 0.68503 0.55551 0.07287
 C549 C 0.69405 0.56485 0.07328
 C550 C 0.69358 0.57485 0.06467
 C551 C 0.68407 0.57540 0.05582
 C552 C 0.67490 0.56594 0.05543
 C553 C 0.66509 0.54859 0.06166
 N554 N 0.65828 0.55370 0.05208
 C555 C 0.66428 0.56433 0.04822
 C556 C 0.68575 0.58628 0.04901
 N557 N 0.69608 0.59237 0.05346
 C558 C 0.70090 0.58540 0.06308
 C559 C 0.70175 0.56229 0.08338
 N560 N 0.69763 0.55162 0.08915
 C561 C 0.68742 0.54741 0.08270
 H562 H 0.66275 0.54007 0.06673
 H563 H 0.66097 0.57069 0.04098
 H564 H 0.67968 0.58963 0.04154
 H565 H 0.70918 0.58772 0.06850
 H566 H 0.70945 0.56811 0.08657
 H567 H 0.68196 0.53914 0.08502
 C568 C 0.06600 0.69470 0.57443
 C569 C 0.07529 0.69459 0.56506
 C570 C 0.07507 0.68551 0.55574
 C571 C 0.06554 0.67641 0.55565
 C572 C 0.05638 0.67652 0.56487
 C573 C 0.05661 0.68573 0.57434
 C574 C 0.06416 0.70209 0.58491
 N575 N 0.05391 0.69780 0.59126
 C576 C 0.04926 0.68777 0.58480
 C577 C 0.04867 0.66636 0.56273
 N578 N 0.05295 0.66001 0.55245
 C579 C 0.06329 0.66614 0.54808
 C580 C 0.08545 0.68740 0.54826
 N581 N 0.09204 0.69738 0.55282
 C582 C 0.08583 0.70182 0.56312
 H583 H 0.06994 0.70999 0.58768
 H584 H 0.04134 0.68207 0.58767
 H585 H 0.04057 0.66382 0.56832
 H586 H 0.06904 0.66318 0.54021
 H587 H 0.08799 0.68185 0.54010
 H588 H 0.08892 0.70949 0.56906
 C589 C 0.56286 1.05302 0.67803
 C590 C 0.57228 1.05318 0.68727
 C591 C 0.57250 1.06263 0.69620
 C592 C 0.56328 1.07204 0.69604
 C593 C 0.55403 1.07188 0.68695
 C594 C 0.55382 1.06229 0.67786
 C595 C 0.56077 1.04542 0.66776
 N596 N 0.55063 1.04981 0.66117
 C597 C 0.54637 1.06018 0.66748
 C598 C 0.54674 1.08239 0.68874
 N599 N 0.55127 1.08908 0.69877
 C600 C 0.56145 1.08264 0.70323
 C601 C 0.58300 1.06078 0.70353
 N602 N 0.58919 1.05040 0.69928
 C603 C 0.58262 1.04571 0.68933
 H604 H 0.56662 1.03752 0.66525
 H605 H 0.53857 1.06608 0.66480
 H606 H 0.53874 1.08482 0.68298
 H607 H 0.56749 1.08545 0.71091
 H608 H 0.58611 1.06684 0.71111
 H609 H 0.58515 1.03748 0.68389
 C610 C 0.44531 0.32290 0.93610
 C611 C 0.44551 0.31330 0.92702
 C612 C 0.43674 0.30373 0.92751
 C613 C 0.42761 0.30366 0.93703
 C614 C 0.42738 0.31315 0.94592
 C615 C 0.43633 0.32282 0.94546
 C616 C 0.45242 0.33357 0.93773
 N617 N 0.44805 0.34010 0.94793
 C618 C 0.43813 0.33343 0.95264
 C619 C 0.41712 0.31107 0.95353
 N620 N 0.41107 0.30054 0.94947
 C621 C 0.41750 0.29595 0.93938
 C622 C 0.43876 0.29612 0.91722
 N623 N 0.44852 0.30084 0.91043
 C624 C 0.45271 0.31135 0.91643
 H625 H 0.46020 0.33618 0.93175
 H626 H 0.43231 0.33601 0.96055
 H627 H 0.41405 0.31710 0.96114
 H628 H 0.41500 0.28767 0.93401
 H629 H 0.43338 0.28782 0.91485
 H630 H 0.46014 0.31746 0.91310
 C631 C 0.94251 0.43359 0.32534
 C632 C 0.94226 0.42394 0.31631
 C633 C 0.93277 0.42356 0.30743
 C634 C 0.92343 0.43286 0.30740
 C635 C 0.92373 0.44238 0.31626
 C636 C 0.93334 0.44272 0.32530
 C637 C 0.95019 0.43592 0.33549
 N638 N 0.94593 0.44630 0.34180
 C639 C 0.93558 0.45047 0.33542
 C640 C 0.91338 0.44984 0.31422
 N641 N 0.90674 0.44507 0.30435
 C642 C 0.91288 0.43466 0.30014
 C643 C 0.93464 0.41299 0.30020
 N644 N 0.94506 0.40691 0.30445
 C645 C 0.94975 0.41360 0.31433
 H646 H 0.95815 0.43018 0.33803
 H647 H 0.92969 0.45833 0.33797
 H648 H 0.91094 0.45815 0.31956
 H649 H 0.90976 0.42860 0.29257
 H650 H 0.92862 0.40982 0.29262
 H651 H 0.95805 0.41119 0.31970
 C652 C 0.30494 0.93724 0.42749
 C653 C 0.30505 0.92795 0.43689
 C654 C 0.31460 0.92770 0.44570
 C655 C 0.32417 0.93677 0.44524
 C656 C 0.32403 0.94589 0.43602
 C657 C 0.31435 0.94612 0.42705
 C658 C 0.29722 0.93931 0.41732
 N659 N 0.30167 0.94929 0.41052
 C660 C 0.31220 0.95347 0.41660
 C661 C 0.33466 0.95307 0.43758
 N662 N 0.34140 0.94858 0.44759
 C663 C 0.33487 0.93854 0.45227
 C664 C 0.31266 0.91734 0.45322
 N665 N 0.30214 0.91127 0.44922
 C666 C 0.29743 0.91777 0.43923
 H667 H 0.28917 0.93357 0.41504
 H668 H 0.31819 0.96114 0.41370
 H669 H 0.33720 0.96085 0.43155
 H670 H 0.33755 0.93268 0.46014
 H671 H 0.31876 0.91424 0.46078
 H672 H 0.28911 0.91529 0.43394
 O673 O 0.21648 0.51635 0.74894
 O674 O 0.22056 0.51460 0.77047
 O675 O 0.24924 0.53305 0.73330
 O676 O 0.26994 0.52930 0.73304
 O677 O 0.23329 0.50034 0.71606
 O678 O 0.23406 0.47844 0.72070
 O679 O 0.28251 0.49865 0.76602
 O680 O 0.27928 0.52011 0.76345
 O681 O 0.25066 0.48351 0.78259
 O682 O 0.22815 0.48437 0.77841
 O683 O 0.26570 0.46669 0.75056
 O684 O 0.26490 0.47082 0.72800
 O685 O 0.28242 0.48361 0.75076
 O686 O 0.27764 0.48483 0.72738
 O687 O 0.25051 0.46662 0.76559
 O688 O 0.22739 0.47168 0.76435
 O689 O 0.26621 0.49814 0.78231
 O690 O 0.26218 0.52097 0.77829
 O691 O 0.21599 0.50075 0.73423
 O692 O 0.22058 0.47840 0.73510
 O693 O 0.24876 0.51507 0.71573
 O694 O 0.27140 0.51315 0.72086
 O695 O 0.23424 0.53331 0.74856
 O696 O 0.23706 0.52832 0.77127
 Zr697 Zr 0.23471 0.51512 0.75643
 O698 O 0.24557 0.50376 0.76850
 Zr699 Zr 0.25652 0.51468 0.73400
 O700 O 0.26852 0.50373 0.74533
 Zr701 Zr 0.23418 0.49286 0.73442
 O702 O 0.24536 0.48071 0.74538
 Zr703 Zr 0.26462 0.50670 0.76451
 O704 O 0.25383 0.51906 0.75320
 Zr705 Zr 0.24246 0.48467 0.76456
 O706 O 0.23032 0.49599 0.75359
 Zr707 Zr 0.26449 0.48464 0.74236
 O708 O 0.25328 0.49557 0.73001
 O709 O 0.23755 0.51185 0.73732
 O710 O 0.26153 0.48759 0.76151
 C711 C 0.21086 0.50982 0.74043
 C712 C 0.24057 0.53857 0.73968
 C713 C 0.23982 0.50886 0.71048
 C714 C 0.28770 0.48963 0.75987
 C715 C 0.25992 0.48933 0.78771
 C716 C 0.25954 0.46138 0.75951
 H717 H 0.24365 0.50586 0.77738
 H718 H 0.24327 0.47189 0.74331
 H719 H 0.23221 0.51725 0.73193
 H720 H 0.27737 0.50578 0.74341
 H721 H 0.27537 0.52814 0.76080
 H722 H 0.27643 0.52739 0.73942
 H723 H 0.22882 0.46574 0.75732
 H724 H 0.21634 0.47913 0.74338
 H725 H 0.26936 0.52051 0.78422
 H726 H 0.23047 0.53488 0.77052
 H727 H 0.25692 0.46610 0.72841
 H728 H 0.24248 0.47848 0.71677
 H729 H 0.21692 0.50603 0.77028
 H730 H 0.22875 0.49228 0.78328
 H731 H 0.26990 0.50539 0.71592
 H732 H 0.28368 0.49171 0.72899
 O733 O 0.25091 -0.01727 0.28335
 O734 O 0.22951 -0.01562 0.27944
 O735 O 0.26564 -0.03483 0.25012
 O736 O 0.26619 -0.03110 0.22939
 O737 O 0.28369 -0.00173 0.26545
 O738 O 0.27907 0.02009 0.26471
 O739 O 0.23334 -0.00072 0.21683
 O740 O 0.23562 -0.02206 0.22050
 O741 O 0.21742 0.01538 0.24869
 O742 O 0.22173 0.01439 0.27151
 O743 O 0.24897 0.03153 0.23314
 O744 O 0.27151 0.02723 0.23374
 O745 O 0.24837 0.01449 0.21670
 O746 O 0.27173 0.01311 0.22103
 O747 O 0.23433 0.03192 0.24871
 O748 O 0.23572 0.02716 0.27188
 O749 O 0.21716 0.00024 0.23358
 O750 O 0.22111 -0.02253 0.23787
 O751 O 0.26596 -0.00206 0.28325
 O752 O 0.26496 0.02026 0.27848
 O753 O 0.28351 -0.01711 0.25057
 O754 O 0.27827 -0.01508 0.22776
 O755 O 0.25107 -0.03464 0.26578
 O756 O 0.22843 -0.02957 0.26313
 Zr757 Zr 0.24330 -0.01642 0.26508
 O758 O 0.23121 -0.00514 0.25415
 Zr759 Zr 0.26530 -0.01644 0.24283
 O760 O 0.25393 -0.00557 0.23079
 Zr761 Zr 0.26540 0.00569 0.26493
 O762 O 0.25439 0.01777 0.25371
 Zr763 Zr 0.23488 -0.00839 0.23500
 O764 O 0.24620 -0.02065 0.24587
 Zr765 Zr 0.23532 0.01396 0.25694
 O766 O 0.24635 0.00275 0.26914
 Zr767 Zr 0.25708 0.01357 0.23453
 O768 O 0.26947 0.00268 0.24573
 O769 O 0.26231 -0.01334 0.26189
 O770 O 0.23806 0.01074 0.23780
 C771 C 0.25965 -0.01085 0.28871
 C772 C 0.25953 -0.04015 0.25912
 C773 C 0.28900 -0.01060 0.25918
 C774 C 0.23935 0.00832 0.21150
 C775 C 0.21207 0.00937 0.23965
 C776 C 0.24020 0.03698 0.23942
 H777 H 0.22238 -0.00714 0.25622
 H778 H 0.25655 0.02660 0.25566
 H779 H 0.26770 -0.01872 0.26725
 H780 H 0.25573 -0.00776 0.22191
 H781 H 0.23831 -0.03002 0.22453
 H782 H 0.25957 -0.02938 0.22309
 H783 H 0.24290 0.03288 0.27042
 H784 H 0.25679 0.01957 0.28288
 H785 H 0.21509 -0.02215 0.23074
 H786 H 0.22925 -0.03605 0.26981
 H787 H 0.27105 0.03228 0.24156
 H788 H 0.28276 0.02008 0.25614
 H789 H 0.22958 -0.00692 0.28276
 H790 H 0.21643 0.00680 0.27067
 H791 H 0.28331 -0.00740 0.22923
 H792 H 0.27000 0.00611 0.21514
 O793 O 0.48378 0.78385 0.25131
 O794 O 0.48546 0.77989 0.22983
 O795 O 0.46600 0.75078 0.26609
 O796 O 0.46966 0.73012 0.26677
 O797 O 0.49904 0.76601 0.28435
 O798 O 0.52087 0.76517 0.27980
 O799 O 0.50028 0.71758 0.23365
 O800 O 0.47887 0.72110 0.23613
 O801 O 0.51627 0.74916 0.21784
 O802 O 0.51543 0.77193 0.22222
 O803 O 0.53237 0.73373 0.24982
 O804 O 0.52790 0.73415 0.27228
 O805 O 0.51509 0.71719 0.24911
 O806 O 0.51369 0.72168 0.27254
 O807 O 0.53266 0.74892 0.23476
 O808 O 0.52821 0.77212 0.23630
 O809 O 0.50105 0.73420 0.21754
 O810 O 0.47835 0.73848 0.22152
 O811 O 0.49888 0.78372 0.26652
 O812 O 0.52115 0.77887 0.26558
 O813 O 0.48364 0.75122 0.28414
 O814 O 0.48560 0.72843 0.27891
 O815 O 0.46640 0.76649 0.25154
 O816 O 0.47143 0.76367 0.22880
 Zr817 Zr 0.48456 0.76561 0.24373
 O818 O 0.49581 0.75467 0.23163
 Zr819 Zr 0.48435 0.74346 0.26587
 O820 O 0.49520 0.73140 0.25450
 Zr821 Zr 0.50654 0.76542 0.26601
 O822 O 0.51859 0.75416 0.25502
 Zr823 Zr 0.49248 0.73560 0.23535
 O824 O 0.48023 0.74649 0.24666
 Zr825 Zr 0.51486 0.75737 0.23583
 O826 O 0.50370 0.76960 0.24685
 Zr827 Zr 0.51431 0.73505 0.25775
 O828 O 0.50344 0.74629 0.27013
 O829 O 0.48755 0.76245 0.26285
 O830 O 0.51157 0.73830 0.23862
 C831 C 0.49015 0.78919 0.26013
 C832 C 0.46081 0.75986 0.26000
 C833 C 0.49014 0.75980 0.28966
 C834 C 0.50911 0.71214 0.23985
 C835 C 0.51022 0.74019 0.21245
 C836 C 0.53776 0.73982 0.24086
 H837 H 0.49385 0.75674 0.22275
 H838 H 0.52740 0.75607 0.25721
 H839 H 0.48218 0.76782 0.26823
 H840 H 0.49296 0.72255 0.25629
 H841 H 0.47089 0.72511 0.23876
 H842 H 0.47133 0.72384 0.26011
 H843 H 0.53395 0.77055 0.24346
 H844 H 0.52055 0.78320 0.25734
 H845 H 0.47869 0.73134 0.21551
 H846 H 0.46500 0.77037 0.22959
 H847 H 0.53276 0.74207 0.27206
 H848 H 0.52071 0.75668 0.28362
 H849 H 0.49414 0.78321 0.22995
 H850 H 0.50788 0.77112 0.21685
 H851 H 0.49321 0.72993 0.28406
 H852 H 0.50670 0.71581 0.27079
 O853 O -0.00133 0.76604 0.78399
 O854 O 0.02007 0.76445 0.78013
 O855 O -0.01603 0.78355 0.75070
 O856 O -0.01639 0.77983 0.72995
 O857 O -0.03411 0.75059 0.76604
 O858 O -0.02954 0.72873 0.76530
 O859 O 0.01657 0.74922 0.71769
 O860 O 0.01413 0.77067 0.72118
 O861 O 0.03234 0.73350 0.74975
 O862 O 0.02776 0.73427 0.77239
 O863 O 0.00071 0.71718 0.73388
 O864 O -0.02179 0.72144 0.73437
 O865 O 0.00122 0.73433 0.71730
 O866 O -0.02208 0.73558 0.72173
 O867 O 0.01530 0.71681 0.74949
 O868 O 0.01375 0.72159 0.77269
 O869 O 0.03247 0.74834 0.73433
 O870 O 0.02864 0.77115 0.73860
 O871 O -0.01640 0.75084 0.78389
 O872 O -0.01548 0.72852 0.77912
 O873 O -0.03384 0.76590 0.75107
 O874 O -0.02853 0.76382 0.72829
 O875 O -0.00152 0.78339 0.76642
 O876 O 0.02115 0.77835 0.76376
 Zr877 Zr 0.00630 0.76518 0.76574
 O878 O 0.01842 0.75386 0.75491
 Zr879 Zr -0.01561 0.76518 0.74341
 O880 O -0.00422 0.75427 0.73143
 Zr881 Zr -0.01583 0.74310 0.76556
 O882 O -0.00479 0.73099 0.75441
 Zr883 Zr 0.01481 0.75706 0.73574
 O884 O 0.00348 0.76938 0.74651
 Zr885 Zr 0.01428 0.73478 0.75773
 O886 O 0.00321 0.74603 0.76984
 Zr887 Zr -0.00741 0.73515 0.73520
 O888 O -0.01983 0.74607 0.74634
 O889 O -0.01270 0.76210 0.76249
 O890 O 0.01162 0.73794 0.73856
 C891 C -0.01007 0.75962 0.78936
 C892 C -0.01000 0.78887 0.75975
 C893 C -0.03937 0.75946 0.75971
 C894 C 0.01043 0.74034 0.71224
 C895 C 0.03764 0.73939 0.74059
 C896 C 0.00943 0.71173 0.74022
 H897 H 0.02724 0.75587 0.75702
 H898 H -0.00696 0.72217 0.75637
 H899 H -0.01810 0.76749 0.76783
 H900 H -0.00596 0.75646 0.72254
 H901 H 0.01149 0.77867 0.72517
 H902 H -0.00978 0.77807 0.72365
 H903 H 0.00662 0.71582 0.77114
 H904 H -0.00733 0.72918 0.78354
 H905 H 0.03465 0.77074 0.73148
 H906 H 0.02030 0.78486 0.77041
 H907 H -0.02145 0.71651 0.74227
 H908 H -0.03322 0.72878 0.75673
 H909 H 0.01993 0.75579 0.78355
 H910 H 0.03293 0.74198 0.77175
 H911 H -0.03363 0.75618 0.72979
 H912 H -0.02042 0.74263 0.71588
 O913 O -0.03366 -0.00126 -0.01696
 O914 O -0.02978 0.02021 -0.01526
 O915 O -0.00057 -0.01607 -0.03436
 O916 O 0.02006 -0.01658 -0.03057
 O917 O -0.01598 -0.03401 -0.00122
 O918 O -0.01526 -0.02934 0.02070
 O919 O 0.03247 0.01643 -0.00009
 O920 O 0.02895 0.01398 -0.02153
 O921 O 0.00075 0.03242 0.01580
 O922 O -0.02197 0.02809 0.01479
 O923 O 0.01604 0.00069 0.03225
 O924 O 0.01557 -0.02182 0.02789
 O925 O 0.03251 0.00146 0.01525
 O926 O 0.02827 -0.02200 0.01376
 O927 O 0.00078 0.01559 0.03243
 O928 O -0.02233 0.01412 0.02769
 O929 O 0.01584 0.03259 0.00066
 O930 O 0.01166 0.02854 -0.02217
 O931 O -0.03365 -0.01620 -0.00158
 O932 O -0.02896 -0.01521 0.02079
 O933 O -0.00108 -0.03389 -0.01656
 O934 O 0.02163 -0.02866 -0.01445
 O935 O -0.01612 -0.00143 -0.03426
 O936 O -0.01350 0.02125 -0.02924
 Zr937 Zr -0.01548 0.00640 -0.01601
 O938 O -0.00462 0.01853 -0.00471
 Zr939 Zr 0.00665 -0.01566 -0.01591
 O940 O 0.01861 -0.00426 -0.00499
 Zr941 Zr -0.01543 -0.01568 0.00622
 O942 O -0.00430 -0.00462 0.01834
 Zr943 Zr 0.01445 0.01481 -0.00790
 O944 O 0.00365 0.00346 -0.02020
 Zr945 Zr -0.00746 0.01448 0.01444
 O946 O -0.01959 0.00341 0.00321
 Zr947 Zr 0.01481 -0.00736 0.01419
 O948 O 0.00368 -0.01979 0.00327
 O949 O -0.01234 -0.01264 -0.01285
 O950 O 0.01159 0.01169 0.01128
 C951 C -0.03903 -0.00997 -0.01048
 C952 C -0.00951 -0.00996 -0.03973
 C953 C -0.00971 -0.03936 -0.01008
 C954 C 0.03770 0.01050 0.00909
 C955 C 0.00979 0.03774 0.00978
 C956 C 0.00990 0.00960 0.03762
 H957 H -0.00667 0.02737 -0.00676
 H958 H -0.00627 -0.00675 0.02719
 H959 H -0.01765 -0.01805 -0.01826
 H960 H 0.02746 -0.00606 -0.00714
 H961 H 0.02498 0.01128 -0.02953
 H962 H 0.02639 -0.01002 -0.02880
 H963 H -0.02084 0.00699 0.03350
 H964 H -0.03327 -0.00699 0.02013
 H965 H 0.01877 0.03456 -0.02179
 H966 H -0.02015 0.02042 -0.03574
 H967 H 0.00770 -0.02145 0.03283
 H968 H -0.00677 -0.03314 0.02062
 H969 H -0.03317 0.02009 -0.00657
 H970 H -0.02113 0.03334 0.00714
 H971 H 0.02014 -0.03367 -0.00672
 H972 H 0.03426 -0.02019 0.00686
 O973 O 0.03375 0.51709 0.49998
 O974 O 0.02951 0.51558 0.47855
 O975 O 0.00103 0.53414 0.51579
 O976 O -0.01968 0.53047 0.51620
 O977 O 0.01684 0.50129 0.53301
 O978 O 0.01591 0.47938 0.52832
 O979 O -0.03257 0.50001 0.48326
 O980 O -0.02915 0.52143 0.48581
 O981 O -0.00093 0.48459 0.46658
 O982 O 0.02175 0.48548 0.47069
 O983 O -0.01581 0.46784 0.49863
 O984 O -0.01499 0.47199 0.52116
 O985 O -0.03242 0.48484 0.49838
 O986 O -0.02764 0.48606 0.52179
 O987 O -0.00087 0.46784 0.48335
 O988 O 0.02231 0.47257 0.48463
 O989 O -0.01624 0.49945 0.46683
 O990 O -0.01210 0.52223 0.47092
 O991 O 0.03402 0.50173 0.51495
 O992 O 0.02942 0.47937 0.51385
 O993 O 0.00152 0.51616 0.53339
 O994 O -0.02117 0.51432 0.52836
 O995 O 0.01605 0.53432 0.50055
 O996 O 0.01311 0.52936 0.47783
 Zr997 Zr 0.01543 0.51614 0.49265
 O998 O 0.00443 0.50487 0.48061
 Zr999 Zr -0.00633 0.51580 0.51515
 O1000 O -0.01843 0.50492 0.50385
 Zr1001 Zr 0.01584 0.49385 0.51466
 O1002 O 0.00457 0.48177 0.50371
 Zr1003 Zr -0.01459 0.50793 0.48467
 O1004 O -0.00367 0.52019 0.49595
 Zr1005 Zr 0.00742 0.48576 0.48452
 O1006 O 0.01967 0.49698 0.49547
 Zr1007 Zr -0.01451 0.48580 0.50680
 O1008 O -0.00321 0.49666 0.51913
 O1009 O 0.01261 0.51286 0.51177
 O1010 O -0.01161 0.48880 0.48765
 C1011 C 0.03927 0.51064 0.50863
 C1012 C 0.00972 0.53961 0.50941
 C1013 C 0.01043 0.50988 0.53861
 C1014 C -0.03775 0.49094 0.48936
 C1015 C -0.01012 0.49052 0.46145
 C1016 C -0.00985 0.46259 0.48951
 H1017 H 0.00633 0.50696 0.47172
 H1018 H 0.00661 0.47293 0.50576
 H1019 H 0.01799 0.51823 0.51714
 H1020 H -0.02726 0.50702 0.50582
 H1021 H -0.02518 0.52942 0.48848
 H1022 H -0.02621 0.52859 0.50985
 H1023 H 0.02086 0.46666 0.49169
 H1024 H 0.03359 0.48012 0.50554
 H1025 H -0.01931 0.52183 0.46501
 H1026 H 0.01971 0.53591 0.47859
 H1027 H -0.00701 0.46724 0.52076
 H1028 H 0.00752 0.47951 0.53235
 H1029 H 0.03296 0.50694 0.47857
 H1030 H 0.02094 0.49322 0.46557
 H1031 H -0.01968 0.50654 0.53328
 H1032 H -0.03367 0.49295 0.52016
 O1033 O 0.53359 0.01705 0.50043
 O1034 O 0.52942 0.01562 0.47898
 O1035 O 0.50082 0.03416 0.51613
 O1036 O 0.48011 0.03048 0.51652
 O1037 O 0.51638 0.00107 0.53340
 O1038 O 0.51561 -0.02075 0.52854
 O1039 O 0.46725 0.00028 0.48350
 O1040 O 0.47081 0.02167 0.48606
 O1041 O 0.49902 -0.01516 0.46675
 O1042 O 0.52161 -0.01444 0.47098
 O1043 O 0.48392 -0.03207 0.49872
 O1044 O 0.48470 -0.02795 0.52133
 O1045 O 0.46733 -0.01505 0.49846
 O1046 O 0.47198 -0.01394 0.52186
 O1047 O 0.49896 -0.03206 0.48355
 O1048 O 0.52213 -0.02734 0.48488
 O1049 O 0.48352 -0.00048 0.46713
 O1050 O 0.48784 0.02232 0.47115
 O1051 O 0.53376 0.00166 0.51538
 O1052 O 0.52912 -0.02069 0.51414
 O1053 O 0.50132 0.01619 0.53369
 O1054 O 0.47863 0.01430 0.52866
 O1055 O 0.51592 0.03433 0.50097
 O1056 O 0.51306 0.02945 0.47824
 Zr1057 Zr 0.51529 0.01617 0.49303
 O1058 O 0.50430 0.00498 0.48091
 Zr1059 Zr 0.49346 0.01582 0.51546
 O1060 O 0.48136 0.00501 0.50409
 Zr1061 Zr 0.51557 -0.00619 0.51496
 O1062 O 0.50431 -0.01820 0.50393
 Zr1063 Zr 0.48528 0.00806 0.48493
 O1064 O 0.49620 0.02026 0.49628
 Zr1065 Zr 0.50724 -0.01414 0.48477
 O1066 O 0.51948 -0.00300 0.49580
 Zr1067 Zr 0.48522 -0.01414 0.50696
 O1068 O 0.49650 -0.00334 0.51937
 O1069 O 0.51241 0.01284 0.51213
 O1070 O 0.48820 -0.01108 0.48784
 C1071 C 0.53906 0.01056 0.50908
 C1072 C 0.50955 0.03963 0.50980
 C1073 C 0.51009 0.00975 0.53897
 C1074 C 0.46203 -0.00883 0.48949
 C1075 C 0.48974 -0.00930 0.46170
 C1076 C 0.48996 -0.03732 0.48965
 H1077 H 0.50623 0.00710 0.47204
 H1078 H 0.50632 -0.02705 0.50595
 H1079 H 0.51778 0.01818 0.51754
 H1080 H 0.47254 0.00712 0.50603
 H1081 H 0.47484 0.02963 0.48875
 H1082 H 0.47361 0.02865 0.51014
 H1083 H 0.52066 -0.03325 0.49193
 H1084 H 0.53336 -0.01989 0.50587
 H1085 H 0.48065 0.02193 0.46523
 H1086 H 0.51968 0.03597 0.47904
 H1087 H 0.49258 -0.03285 0.52081
 H1088 H 0.50717 -0.02073 0.53246
 H1089 H 0.53288 0.00699 0.47901
 H1090 H 0.52092 -0.00662 0.46596
 H1091 H 0.48009 0.00650 0.53354
 H1092 H 0.46605 -0.00696 0.52029
 O1093 O 0.49912 0.48379 -0.03464
 O1094 O 0.52052 0.48543 -0.03066
 O1095 O 0.48419 0.46635 -0.00149
 O1096 O 0.48381 0.47003 0.01927
 O1097 O 0.46630 0.49920 -0.01701
 O1098 O 0.47080 0.52110 -0.01616
 O1099 O 0.51666 0.50077 0.03173
 O1100 O 0.51425 0.47930 0.02827
 O1101 O 0.53260 0.51643 -0.00028
 O1102 O 0.52815 0.51563 -0.02294
 O1103 O 0.50089 0.53272 0.01542
 O1104 O 0.47837 0.52846 0.01475
 O1105 O 0.50129 0.51562 0.03199
 O1106 O 0.47801 0.51433 0.02743
 O1107 O 0.51560 0.53308 -0.00008
 O1108 O 0.51411 0.52831 -0.02331
 O1109 O 0.53265 0.50162 0.01518
 O1110 O 0.52886 0.47880 0.01093
 O1111 O 0.48407 0.49900 -0.03466
 O1112 O 0.48496 0.52133 -0.02992
 O1113 O 0.46639 0.48410 -0.00184
 O1114 O 0.47167 0.48602 0.02093
 O1115 O 0.49885 0.46650 -0.01708
 O1116 O 0.52150 0.47154 -0.01426
 Zr1117 Zr 0.50667 0.48470 -0.01635
 O1118 O 0.51872 0.49605 -0.00547
 Zr1119 Zr 0.48462 0.48471 0.00585
 O1120 O 0.49595 0.49565 0.01787
 Zr1121 Zr 0.48454 0.50677 -0.01635
 O1122 O 0.49550 0.51891 -0.00515
 Zr1123 Zr 0.51501 0.49288 0.01369
 O1124 O 0.50374 0.48053 0.00286
 Zr1125 Zr 0.51459 0.51513 -0.00835
 O1126 O 0.50360 0.50385 -0.02052
 Zr1127 Zr 0.49276 0.51476 0.01405
 O1128 O 0.48042 0.50381 0.00285
 O1129 O 0.48765 0.48777 -0.01322
 O1130 O 0.51181 0.51198 0.01081
 C1131 C 0.49040 0.49018 -0.04006
 C1132 C 0.49030 0.46102 -0.01049
 C1133 C 0.46095 0.49044 -0.01060
 C1134 C 0.51048 0.50965 0.03712
 C1135 C 0.53785 0.51057 0.00892
 C1136 C 0.50969 0.53815 0.00918
 H1137 H 0.52756 0.49405 -0.00752
 H1138 H 0.49334 0.52773 -0.00713
 H1139 H 0.48227 0.48238 -0.01858
 H1140 H 0.49415 0.49348 0.02676
 H1141 H 0.51166 0.47129 0.02428
 H1142 H 0.49038 0.47180 0.02560
 H1143 H 0.50702 0.53411 -0.02177
 H1144 H 0.49315 0.52068 -0.03429
 H1145 H 0.53483 0.47924 0.01809
 H1146 H 0.52070 0.46503 -0.02092
 H1147 H 0.47878 0.53340 0.00686
 H1148 H 0.46705 0.52101 -0.00761
 H1149 H 0.52037 0.49407 -0.03413
 H1150 H 0.53329 0.50791 -0.02227
 H1151 H 0.46661 0.49369 0.01947
 H1152 H 0.47967 0.50732 0.03333
 O1153 O 0.78415 0.25108 0.48468
 O1154 O 0.78017 0.22958 0.48656
 O1155 O 0.75135 0.26576 0.46669
 O1156 O 0.73067 0.26645 0.47022
 O1157 O 0.76642 0.28399 0.49985
 O1158 O 0.76529 0.27955 0.52182
 O1159 O 0.71783 0.23361 0.50090
 O1160 O 0.72159 0.23595 0.47942
 O1161 O 0.74926 0.21772 0.51727
 O1162 O 0.77193 0.22199 0.51661
 O1163 O 0.73367 0.24954 0.53317
 O1164 O 0.73436 0.27203 0.52879
 O1165 O 0.71738 0.24907 0.51573
 O1166 O 0.72200 0.27238 0.51441
 O1167 O 0.74914 0.23486 0.53382
 O1168 O 0.77226 0.23611 0.52926
 O1169 O 0.73430 0.21754 0.50200
 O1170 O 0.73885 0.22130 0.47919
 O1171 O 0.78402 0.26610 0.50000
 O1172 O 0.77895 0.26539 0.52231
 O1173 O 0.75173 0.28375 0.48430
 O1174 O 0.72894 0.27864 0.48617
 O1175 O 0.76699 0.25123 0.46722
 O1176 O 0.76407 0.22856 0.47230
 Zr1177 Zr 0.76596 0.24347 0.48548
 O1178 O 0.75492 0.23146 0.49673
 Zr1179 Zr 0.74389 0.26558 0.48505
 O1180 O 0.73175 0.25431 0.49590
 Zr1181 Zr 0.76566 0.26574 0.50750
 O1182 O 0.75432 0.25482 0.51955
 Zr1183 Zr 0.73591 0.23520 0.49325
 O1184 O 0.74690 0.24641 0.48099
 Zr1185 Zr 0.75751 0.23567 0.51588
 O1186 O 0.76982 0.24662 0.50472
 Zr1187 Zr 0.73527 0.25757 0.51511
 O1188 O 0.74660 0.26987 0.50424
 O1189 O 0.76282 0.26253 0.48842
 O1190 O 0.73849 0.23847 0.51245
 C1191 C 0.78947 0.25980 0.49117
 C1192 C 0.76045 0.25969 0.46156
 C1193 C 0.76031 0.28925 0.49082
 C1194 C 0.71234 0.23985 0.50969
 C1195 C 0.74025 0.21241 0.51120
 C1196 C 0.73988 0.24082 0.53877
 H1197 H 0.75697 0.22259 0.49480
 H1198 H 0.75617 0.25702 0.52841
 H1199 H 0.76824 0.26787 0.48305
 H1200 H 0.72294 0.25611 0.49359
 H1201 H 0.72568 0.23852 0.47144
 H1202 H 0.72437 0.25983 0.47188
 H1203 H 0.77077 0.24333 0.53495
 H1204 H 0.78331 0.25719 0.52176
 H1205 H 0.73170 0.21533 0.47953
 H1206 H 0.77085 0.22931 0.46592
 H1207 H 0.74220 0.27170 0.53378
 H1208 H 0.75680 0.28334 0.52158
 H1209 H 0.78352 0.22984 0.49527
 H1210 H 0.77130 0.21678 0.50892
 H1211 H 0.73041 0.28381 0.49380
 H1212 H 0.71624 0.27071 0.50729
 O1213 O 0.75126 0.76684 -0.03357
 O1214 O 0.72984 0.76504 -0.02973
 O1215 O 0.76606 0.78440 -0.00055
 O1216 O 0.76646 0.78085 0.02022
 O1217 O 0.78390 0.75145 -0.01587
 O1218 O 0.77946 0.72956 -0.01477
 O1219 O 0.73348 0.75026 0.03287
 O1220 O 0.73591 0.77166 0.02927
 O1221 O 0.71775 0.73417 0.00115
 O1222 O 0.72204 0.73499 -0.02161
 O1223 O 0.74927 0.71816 0.01688
 O1224 O 0.77174 0.72235 0.01627
 O1225 O 0.74889 0.73545 0.03331
 O1226 O 0.77220 0.73666 0.02871
 O1227 O 0.73468 0.71767 0.00127
 O1228 O 0.73613 0.72232 -0.02196
 O1229 O 0.71744 0.74942 0.01615
 O1230 O 0.72144 0.77217 0.01183
 O1231 O 0.76618 0.75151 -0.03347
 O1232 O 0.76527 0.72919 -0.02854
 O1233 O 0.78389 0.76657 -0.00072
 O1234 O 0.77852 0.76486 0.02206
 O1235 O 0.75128 0.78418 -0.01602
 O1236 O 0.72867 0.77904 -0.01344
 Zr1237 Zr 0.74359 0.76594 -0.01532
 O1238 O 0.73151 0.75468 -0.00437
 Zr1239 Zr 0.76562 0.76608 0.00692
 O1240 O 0.75424 0.75526 0.01900
 Zr1241 Zr 0.76570 0.74387 -0.01510
 O1242 O 0.75473 0.73182 -0.00381
 Zr1243 Zr 0.73518 0.75801 0.01476
 O1244 O 0.74650 0.77025 0.00386
 Zr1245 Zr 0.73566 0.73558 -0.00707
 O1246 O 0.74665 0.74676 -0.01933
 Zr1247 Zr 0.75742 0.73611 0.01537
 O1248 O 0.76979 0.74695 0.00408
 O1249 O 0.76260 0.76290 -0.01213
 O1250 O 0.73839 0.73888 0.01206
 C1251 C 0.75997 0.76037 -0.03892
 C1252 C 0.75984 0.78970 -0.00949
 C1253 C 0.78929 0.76020 -0.00949
 C1254 C 0.73970 0.74146 0.03837
 C1255 C 0.71237 0.74024 0.01013
 C1256 C 0.74052 0.71267 0.01061
 H1257 H 0.72268 0.75665 -0.00646
 H1258 H 0.75689 0.72298 -0.00571
 H1259 H 0.76798 0.76827 -0.01750
 H1260 H 0.75602 0.75750 0.02787
 H1261 H 0.73858 0.77964 0.02526
 H1262 H 0.75983 0.77918 0.02652
 H1263 H 0.74325 0.71655 -0.02041
 H1264 H 0.75713 0.72986 -0.03298
 H1265 H 0.71542 0.77182 0.01895
 H1266 H 0.72947 0.78550 -0.02015
 H1267 H 0.77146 0.71747 0.00833
 H1268 H 0.78319 0.72971 -0.00623
 H1269 H 0.72999 0.75635 -0.03306
 H1270 H 0.71686 0.74268 -0.02094
 H1271 H 0.78361 0.75720 0.02065
 H1272 H 0.77051 0.74369 0.03459
 O1273 O 1.00036 0.21581 0.23361
 O1274 O 0.97890 0.21997 0.23532
 O1275 O 1.01581 0.24868 0.21657
 O1276 O 1.01643 0.26937 0.22041
 O1277 O 1.03313 0.23279 0.24965
 O1278 O 1.02837 0.23362 0.27161
 O1279 O 0.98366 0.28222 0.25073
 O1280 O 0.98613 0.27870 0.22929
 O1281 O 0.96681 0.25032 0.26610
 O1282 O 0.97104 0.22769 0.26538
 O1283 O 0.99896 0.26518 0.28322
 O1284 O 1.02133 0.26454 0.27890
 O1285 O 0.99840 0.28192 0.26625
 O1286 O 1.02178 0.27732 0.26486
 O1287 O 0.98350 0.25047 0.28305
 O1288 O 0.98483 0.22722 0.27839
 O1289 O 0.96726 0.26592 0.25147
 O1290 O 0.97124 0.26170 0.22860
 O1291 O 1.01499 0.21543 0.24927
 O1292 O 1.01407 0.22010 0.27161
 O1293 O 1.03336 0.24789 0.23447
 O1294 O 1.02853 0.27068 0.23663
 O1295 O 1.00080 0.23347 0.21648
 O1296 O 0.97820 0.23636 0.22138
 Zr1297 Zr 0.99292 0.23409 0.23469
 O1298 O 0.98091 0.24511 0.24594
 Zr1299 Zr 1.01530 0.25590 0.23503
 O1300 O 1.00406 0.26801 0.24595
 Zr1301 Zr 1.01481 0.23368 0.25706
 O1302 O 1.00386 0.24494 0.26915
 Zr1303 Zr 0.98498 0.26417 0.24290
 O1304 O 0.99619 0.25322 0.23061
 Zr1305 Zr 0.98476 0.24210 0.26511
 O1306 O 0.99570 0.22984 0.25390
 Zr1307 Zr 1.00695 0.26406 0.26513
 O1308 O 1.01924 0.25277 0.25423
 O1309 O 1.01195 0.23693 0.23799
 O1310 O 0.98789 0.26116 0.26209
 C1311 C 1.00883 0.21022 0.24021
 C1312 C 1.00953 0.23990 0.21111
 C1313 C 1.03862 0.23907 0.24086
 C1314 C 0.98956 0.28732 0.25999
 C1315 C 0.96180 0.25964 0.26025
 C1316 C 0.98978 0.25930 0.28841
 H1317 H 0.97207 0.24321 0.24382
 H1318 H 1.00589 0.24289 0.27801
 H1319 H 1.01728 0.23153 0.23260
 H1320 H 1.00602 0.27686 0.24386
 H1321 H 0.98881 0.27469 0.22130
 H1322 H 1.01010 0.27590 0.22229
 H1323 H 0.99180 0.22873 0.28437
 H1324 H 1.00573 0.21603 0.27100
 H1325 H 0.96537 0.26892 0.22901
 H1326 H 0.97895 0.22969 0.21488
 H1327 H 1.02097 0.25653 0.28363
 H1328 H 1.03244 0.24199 0.27144
 H1329 H 0.97913 0.21632 0.24390
 H1330 H 0.96610 0.22836 0.25751
 H1331 H 1.03342 0.26910 0.24441
 H1332 H 1.02009 0.28340 0.25801
 O1333 O 0.74930 1.03312 0.73303
 O1334 O 0.77071 1.02911 0.73486
 O1335 O 0.73406 1.00023 0.71593
 O1336 O 0.73362 0.97951 0.71970
 O1337 O 0.71649 1.01588 0.74894
 O1338 O 0.72113 1.01516 0.77084
 O1339 O 0.76640 0.96685 0.75032
 O1340 O 0.76397 0.97026 0.72888
 O1341 O 0.78266 0.99856 0.76602
 O1342 O 0.77857 1.02128 0.76498
 O1343 O 0.75095 0.98347 0.78250
 O1344 O 0.72845 0.98422 0.77827
 O1345 O 0.75123 0.96686 0.76542
 O1346 O 0.72796 0.97153 0.76418
 O1347 O 0.76575 0.99884 0.78272
 O1348 O 0.76459 1.02193 0.77776
 O1349 O 0.78272 0.98342 0.75090
 O1350 O 0.77861 0.98748 0.72808
 O1351 O 0.73455 1.03340 0.74858
 O1352 O 0.73537 1.02870 0.77096
 O1353 O 0.71643 1.00083 0.73372
 O1354 O 0.72143 0.97807 0.73584
 O1355 O 0.74909 1.01541 0.71585
 O1356 O 0.77167 1.01272 0.72097
 Zr1357 Zr 0.75682 1.01488 0.73415
 O1358 O 0.76882 1.00395 0.74550
 Zr1359 Zr 0.73456 0.99295 0.73436
 O1360 O 0.74584 0.98090 0.74531
 Zr1361 Zr 0.73479 1.01514 0.75639
 O1362 O 0.74571 1.00392 0.76855
 Zr1363 Zr 0.76493 0.98487 0.74240
 O1364 O 0.75368 0.99574 0.73005
 Zr1365 Zr 0.76481 1.00691 0.76465
 O1366 O 0.75388 1.01911 0.75335
 Zr1367 Zr 0.74280 0.98478 0.76448
 O1368 O 0.73050 0.99602 0.75353
 O1369 O 0.73778 1.01194 0.73733
 O1370 O 0.76186 0.98782 0.76158
 C1371 C 0.74076 1.03865 0.73958
 C1372 C 0.74038 1.00898 0.71047
 C1373 C 0.71108 1.00957 0.74014
 C1374 C 0.76026 0.96158 0.75933
 C1375 C 0.78792 0.98951 0.75998
 C1376 C 0.75977 0.98970 0.78790
 H1377 H 0.77766 1.00592 0.74345
 H1378 H 0.74361 1.00595 0.77740
 H1379 H 0.73244 1.01730 0.73191
 H1380 H 0.74395 0.97205 0.74319
 H1381 H 0.76125 0.97420 0.72087
 H1382 H 0.73998 0.97302 0.72160
 H1383 H 0.75745 1.02056 0.78357
 H1384 H 0.74360 1.03299 0.77027
 H1385 H 0.78457 0.98032 0.72848
 H1386 H 0.77092 1.01937 0.71444
 H1387 H 0.72891 0.99212 0.78317
 H1388 H 0.71732 1.00666 0.77085
 H1389 H 0.77057 1.03259 0.74352
 H1390 H 0.78367 1.02050 0.75723
 H1391 H 0.71644 0.97963 0.74356
 H1392 H 0.72955 0.96561 0.75716
 O1393 O 0.71634 0.51684 0.24881
 O1394 O 0.72043 0.51519 0.27034
 O1395 O 0.74907 0.53346 0.23305
 O1396 O 0.76977 0.52971 0.23277
 O1397 O 0.73311 0.50064 0.21602
 O1398 O 0.73389 0.47876 0.22078
 O1399 O 0.78238 0.49923 0.26594
 O1400 O 0.77915 0.52070 0.26322
 O1401 O 0.75058 0.48417 0.28260
 O1402 O 0.72805 0.48503 0.27846
 O1403 O 0.76559 0.46721 0.25068
 O1404 O 0.76473 0.47121 0.22806
 O1405 O 0.78228 0.48411 0.25076
 O1406 O 0.77749 0.48521 0.22738
 O1407 O 0.75043 0.46722 0.26574
 O1408 O 0.72729 0.47224 0.26447
 O1409 O 0.76612 0.49880 0.28222
 O1410 O 0.76206 0.52162 0.27810
 O1411 O 0.71585 0.50116 0.23418
 O1412 O 0.72042 0.47881 0.23521
 O1413 O 0.74857 0.51538 0.21558
 O1414 O 0.77122 0.51349 0.22069
 O1415 O 0.73409 0.53380 0.24833
 O1416 O 0.73693 0.52892 0.27107
 Zr1417 Zr 0.73457 0.51565 0.25630
 O1418 O 0.74545 0.50436 0.26842
 Zr1419 Zr 0.75635 0.51509 0.23385
 O1420 O 0.76837 0.50421 0.24522
 Zr1421 Zr 0.73403 0.49326 0.23441
 O1422 O 0.74523 0.48117 0.24543
 Zr1423 Zr 0.76449 0.50729 0.26438
 O1424 O 0.75368 0.51958 0.25302
 Zr1425 Zr 0.74235 0.48525 0.26459
 O1426 O 0.73018 0.49650 0.25358
 Zr1427 Zr 0.76434 0.48510 0.24236
 O1428 O 0.75312 0.49596 0.22996
 O1429 O 0.73739 0.51227 0.23721
 O1430 O 0.76140 0.48817 0.26149
 C1431 C 0.71072 0.51027 0.24032
 C1432 C 0.74041 0.53901 0.23941
 C1433 C 0.73961 0.50914 0.21038
 C1434 C 0.78755 0.49016 0.25984
 C1435 C 0.75987 0.49001 0.28767
 C1436 C 0.75947 0.46196 0.25969
 H1437 H 0.74354 0.50650 0.27729
 H1438 H 0.74314 0.47234 0.24341
 H1439 H 0.73205 0.51764 0.23179
 H1440 H 0.77722 0.50625 0.24328
 H1441 H 0.77522 0.52871 0.26055
 H1442 H 0.77626 0.52784 0.23917
 H1443 H 0.72873 0.46625 0.25748
 H1444 H 0.71619 0.47959 0.24349
 H1445 H 0.76926 0.52119 0.28402
 H1446 H 0.73034 0.53547 0.27029
 H1447 H 0.75677 0.46644 0.22856
 H1448 H 0.74232 0.47877 0.21684
 H1449 H 0.71679 0.50662 0.27021
 H1450 H 0.72866 0.49295 0.28330
 H1451 H 0.76971 0.50571 0.21580
 H1452 H 0.78352 0.49210 0.22894
 O1453 O 0.50117 0.21589 0.73347
 O1454 O 0.47975 0.21999 0.73491
 O1455 O 0.51695 0.24884 0.71696
 O1456 O 0.51732 0.26953 0.72086
 O1457 O 0.53368 0.23266 0.74996
 O1458 O 0.52876 0.23342 0.77190
 O1459 O 0.48425 0.28217 0.75085
 O1460 O 0.48689 0.27876 0.72945
 O1461 O 0.46728 0.25018 0.76595
 O1462 O 0.47143 0.22757 0.76505
 O1463 O 0.49921 0.26486 0.78347
 O1464 O 0.52153 0.26438 0.77944
 O1465 O 0.49877 0.28177 0.76659
 O1466 O 0.52221 0.27717 0.76542
 O1467 O 0.48379 0.25011 0.78304
 O1468 O 0.48518 0.22689 0.77811
 O1469 O 0.46785 0.26588 0.75142
 O1470 O 0.47203 0.26175 0.72855
 O1471 O 0.51566 0.21544 0.74925
 O1472 O 0.51439 0.21990 0.77166
 O1473 O 0.53425 0.24818 0.73523
 O1474 O 0.52919 0.27087 0.73721
 O1475 O 0.50175 0.23382 0.71644
 O1476 O 0.47909 0.23655 0.72120
 Zr1477 Zr 0.49371 0.23417 0.73460
 O1478 O 0.48157 0.24508 0.74583
 Zr1479 Zr 0.51609 0.25601 0.73542
 O1480 O 0.50468 0.26802 0.74628
 Zr1481 Zr 0.51533 0.23360 0.75723
 O1482 O 0.50425 0.24477 0.76929
 Zr1483 Zr 0.48564 0.26416 0.74297
 O1484 O 0.49704 0.25334 0.73074
 Zr1485 Zr 0.48520 0.24193 0.76502
 O1486 O 0.49627 0.22976 0.75382
 Zr1487 Zr 0.50736 0.26392 0.76546
 O1488 O 0.51980 0.25272 0.75463
 O1489 O 0.51270 0.23700 0.73815
 O1490 O 0.48834 0.26102 0.76218
 C1491 C 0.50961 0.21027 0.74009
 C1492 C 0.51063 0.24022 0.71129
 C1493 C 0.53937 0.23918 0.74149
 C1494 C 0.49003 0.28722 0.76022
 C1495 C 0.46233 0.25957 0.76014
 C1496 C 0.49002 0.25889 0.78854
 H1497 H 0.47275 0.24319 0.74360
 H1498 H 0.50620 0.24264 0.77815
 H1499 H 0.51812 0.23167 0.73278
 H1500 H 0.50665 0.27688 0.74427
 H1501 H 0.48964 0.27479 0.72146
 H1502 H 0.51092 0.27600 0.72267
 H1503 H 0.49207 0.22836 0.78420
 H1504 H 0.50611 0.21574 0.77082
 H1505 H 0.46614 0.26896 0.72896
 H1506 H 0.47993 0.22998 0.71461
 H1507 H 0.52131 0.25623 0.78393
 H1508 H 0.53287 0.24177 0.77179
 H1509 H 0.47977 0.21637 0.74351
 H1510 H 0.46662 0.22827 0.75711
 H1511 H 0.53396 0.26934 0.74508
 H1512 H 0.52051 0.28338 0.75868
 O1513 O 0.28438 0.75185 0.48491
 O1514 O 0.28049 0.73042 0.48669
 O1515 O 0.25164 0.76687 0.46731
 O1516 O 0.23092 0.76719 0.47080
 O1517 O 0.26676 0.78467 0.50043
 O1518 O 0.26580 0.78011 0.52234
 O1519 O 0.21819 0.73423 0.50146
 O1520 O 0.22177 0.73674 0.47999
 O1521 O 0.24960 0.71837 0.51762
 O1522 O 0.27230 0.72255 0.51680
 O1523 O 0.23418 0.75006 0.53370
 O1524 O 0.23481 0.77255 0.52943
 O1525 O 0.21780 0.74962 0.51636
 O1526 O 0.22239 0.77297 0.51510
 O1527 O 0.24966 0.73539 0.53421
 O1528 O 0.27277 0.73666 0.52948
 O1529 O 0.23475 0.71813 0.50224
 O1530 O 0.23908 0.72218 0.47945
 O1531 O 0.28436 0.76673 0.50036
 O1532 O 0.27939 0.76590 0.52270
 O1533 O 0.25192 0.78457 0.48503
 O1534 O 0.22919 0.77941 0.48689
 O1535 O 0.26692 0.75194 0.46746
 O1536 O 0.26428 0.72929 0.47263
 Zr1537 Zr 0.26620 0.74423 0.48578
 O1538 O 0.25524 0.73216 0.49705
 Zr1539 Zr 0.24415 0.76637 0.48564
 O1540 O 0.23206 0.75501 0.49646
 Zr1541 Zr 0.26604 0.76636 0.50795
 O1542 O 0.25474 0.75540 0.52000
 Zr1543 Zr 0.23621 0.73591 0.49368
 O1544 O 0.24712 0.74722 0.48143
 Zr1545 Zr 0.25791 0.73628 0.51622
 O1546 O 0.27016 0.74726 0.50502
 Zr1547 Zr 0.23567 0.75816 0.51567
 O1548 O 0.24696 0.77053 0.50483
 O1549 O 0.26310 0.76328 0.48886
 O1550 O 0.23888 0.73909 0.51288
 C1551 C 0.28977 0.76048 0.49147
 C1552 C 0.26050 0.76060 0.46198
 C1553 C 0.26055 0.79002 0.49153
 C1554 C 0.21274 0.74042 0.51032
 C1555 C 0.24067 0.71302 0.51147
 C1556 C 0.24042 0.74132 0.53924
 H1557 H 0.25727 0.72331 0.49506
 H1558 H 0.25665 0.75756 0.52886
 H1559 H 0.26849 0.76865 0.48349
 H1560 H 0.22324 0.75683 0.49421
 H1561 H 0.22578 0.73943 0.47200
 H1562 H 0.22450 0.76073 0.47260
 H1563 H 0.27129 0.74382 0.53525
 H1564 H 0.28377 0.75772 0.52205
 H1565 H 0.23196 0.71618 0.47977
 H1566 H 0.27097 0.73008 0.46617
 H1567 H 0.24268 0.77224 0.53435
 H1568 H 0.25730 0.78387 0.52222
 H1569 H 0.28376 0.73051 0.49543
 H1570 H 0.27160 0.71736 0.50909
 H1571 H 0.23065 0.78448 0.49458
 H1572 H 0.21655 0.77129 0.50804
 O1573 O 0.25133 0.26720 0.96744
 O1574 O 0.22982 0.26534 0.97143
 O1575 O 0.26631 0.28430 1.00054
 O1576 O 0.26689 0.28046 1.02127
 O1577 O 0.28399 0.25141 0.98471
 O1578 O 0.27942 0.22950 0.98557
 O1579 O 0.23404 0.24993 1.03385
 O1580 O 0.23641 0.27136 1.03034
 O1581 O 0.21775 0.23440 1.00179
 O1582 O 0.22202 0.23528 0.97914
 O1583 O 0.24948 0.21784 1.01719
 O1584 O 0.27203 0.22207 1.01644
 O1585 O 0.24916 0.23482 1.03384
 O1586 O 0.27244 0.23606 1.02924
 O1587 O 0.23466 0.21766 1.00179
 O1588 O 0.23602 0.22256 0.97858
 O1589 O 0.21788 0.24905 1.01738
 O1590 O 0.22168 0.27190 1.01312
 O1591 O 0.26611 0.25173 0.96720
 O1592 O 0.26521 0.22939 0.97186
 O1593 O 0.28413 0.26635 1.00004
 O1594 O 0.27891 0.26442 1.02281
 O1595 O 0.25159 0.28420 0.98501
 O1596 O 0.22897 0.27927 0.98788
 Zr1597 Zr 0.24373 0.26605 0.98569
 O1598 O 0.23168 0.25473 0.99661
 Zr1599 Zr 0.26590 0.26586 1.00778
 O1600 O 0.25460 0.25491 1.01981
 Zr1601 Zr 0.26574 0.24389 0.98549
 O1602 O 0.25478 0.23175 0.99669
 Zr1603 Zr 0.23552 0.25779 1.01577
 O1604 O 0.24679 0.27012 1.00491
 Zr1605 Zr 0.23570 0.23565 0.99362
 O1606 O 0.24667 0.24692 0.98142
 Zr1607 Zr 0.25765 0.23580 1.01589
 O1608 O 0.26998 0.24674 1.00468
 O1609 O 0.26276 0.26289 0.98873
 O1610 O 0.23861 0.23868 1.01277
 C1611 C 0.25995 0.26074 0.96193
 C1612 C 0.26016 0.28964 0.99158
 C1613 C 0.28945 0.26005 0.99118
 C1614 C 0.24013 0.24090 1.03912
 C1615 C 0.21260 0.24017 1.01110
 C1616 C 0.24062 0.21249 1.01096
 H1617 H 0.22284 0.25678 0.99463
 H1618 H 0.25689 0.22293 0.99466
 H1619 H 0.26814 0.26830 0.98339
 H1620 H 0.25646 0.25702 1.02870
 H1621 H 0.23900 0.27936 1.02634
 H1622 H 0.26028 0.27874 1.02758
 H1623 H 0.24309 0.21671 0.98005
 H1624 H 0.25700 0.23008 0.96754
 H1625 H 0.21574 0.27144 1.02031
 H1626 H 0.22972 0.28574 0.98117
 H1627 H 0.27154 0.21716 1.00853
 H1628 H 0.28326 0.22958 0.99407
 H1629 H 0.23013 0.25678 0.96778
 H1630 H 0.21705 0.24311 0.97976
 H1631 H 0.28388 0.25670 1.02133
 H1632 H 0.27083 0.24305 1.03519
 C1633 C 0.28810 0.37514 0.78736
 C1634 C 0.30048 0.37153 0.78466
 C1635 C 0.30527 0.36018 0.78925
 C1636 C 0.29774 0.35212 0.79657
 C1637 C 0.28525 0.35567 0.79907
 C1638 C 0.28051 0.36708 0.79457
 C1639 C 0.28322 0.38743 0.78291
 C1640 C 0.27641 0.39525 0.79109
 C1641 C 0.27224 0.40705 0.78707
 C1642 C 0.27472 0.41126 0.77474
 C1643 C 0.28136 0.40331 0.76650
 C1644 C 0.28561 0.39155 0.77056
 C1645 C 0.27063 0.42399 0.77059
 C1646 C 0.27834 0.43129 0.76270
 C1647 C 0.27466 0.44334 0.75898
 C1648 C 0.26321 0.44844 0.76314
 C1649 C 0.25547 0.44114 0.77100
 C1650 C 0.25911 0.42904 0.77464
 H1651 H 0.30659 0.37765 0.77926
 H1652 H 0.31497 0.35791 0.78729
 H1653 H 0.27910 0.34963 0.80447
 H1654 H 0.27087 0.36957 0.79665
 H1655 H 0.27458 0.39237 0.80072
 H1656 H 0.26735 0.41301 0.79374
 H1657 H 0.28322 0.40614 0.75687
 H1658 H 0.29070 0.38564 0.76401
 H1659 H 0.28738 0.42780 0.75959
 H1660 H 0.28091 0.44875 0.75302
 H1661 H 0.24656 0.44476 0.77432
 H1662 H 0.25285 0.42360 0.78056
 C1663 C 0.28586 -0.12761 0.28531
 C1664 C 0.29543 -0.13411 0.27900
 C1665 C 0.29985 -0.14562 0.28356
 C1666 C 0.29487 -0.15102 0.29469
 C1667 C 0.28499 -0.14451 0.30077
 C1668 C 0.28059 -0.13301 0.29615
 C1669 C 0.28162 -0.11509 0.28078
 C1670 C 0.26883 -0.11183 0.28094
 C1671 C 0.26494 -0.09989 0.27701
 C1672 C 0.27374 -0.09096 0.27284
 C1673 C 0.28652 -0.09427 0.27261
 C1674 C 0.29041 -0.10619 0.27652
 C1675 C 0.26970 -0.07815 0.26899
 C1676 C 0.27532 -0.07213 0.25863
 C1677 C 0.27189 -0.05988 0.25532
 C1678 C 0.26274 -0.05336 0.26228
 C1679 C 0.25696 -0.05947 0.27252
 C1680 C 0.26040 -0.07172 0.27583
 H1681 H 0.29951 -0.13031 0.27045
 H1682 H 0.30717 -0.15013 0.27820
 H1683 H 0.28068 -0.14798 0.30929
 H1684 H 0.27326 -0.12816 0.30130
 H1685 H 0.26183 -0.11854 0.28401
 H1686 H 0.25501 -0.09769 0.27713
 H1687 H 0.29356 -0.08753 0.26966
 H1688 H 0.30034 -0.10834 0.27650
 H1689 H 0.28238 -0.07690 0.25306
 H1690 H 0.27651 -0.05551 0.24735
 H1691 H 0.24990 -0.05472 0.27812
 H1692 H 0.25600 -0.07603 0.28395
 C1693 C 0.78784 0.87508 0.78756
 C1694 C 0.79829 0.86935 0.78195
 C1695 C 0.80272 0.85777 0.78630
 C1696 C 0.79684 0.85149 0.79648
 C1697 C 0.78616 0.85728 0.80189
 C1698 C 0.78178 0.86887 0.79751
 C1699 C 0.78341 0.88760 0.78321
 C1700 C 0.77962 0.89675 0.79197
 C1701 C 0.77565 0.90861 0.78793
 C1702 C 0.77538 0.91159 0.77502
 C1703 C 0.77913 0.90243 0.76624
 C1704 C 0.78310 0.89056 0.77029
 C1705 C 0.77130 0.92426 0.77076
 C1706 C 0.77765 0.93046 0.76093
 C1707 C 0.77400 0.94250 0.75713
 C1708 C 0.76390 0.94864 0.76307
 C1709 C 0.75750 0.94239 0.77283
 C1710 C 0.76115 0.93035 0.77662
 H1711 H 0.80325 0.87398 0.77433
 H1712 H 0.81092 0.85401 0.78167
 H1713 H 0.78099 0.85300 0.80951
 H1714 H 0.77354 0.87295 0.80188
 H1715 H 0.77995 0.89483 0.80200
 H1716 H 0.77303 0.91553 0.79494
 H1717 H 0.77884 0.90438 0.75622
 H1718 H 0.78580 0.88365 0.76330
 H1719 H 0.78561 0.92609 0.75634
 H1720 H 0.77919 0.94705 0.74962
 H1721 H 0.74967 0.94680 0.77761
 H1722 H 0.75596 0.92576 0.78410
 C1723 C 0.46279 0.87601 0.28726
 C1724 C 0.45323 0.88244 0.28085
 C1725 C 0.44873 0.89394 0.28533
 C1726 C 0.45361 0.89941 0.29647
 C1727 C 0.46343 0.89293 0.30269
 C1728 C 0.46791 0.88144 0.29815
 C1729 C 0.46720 0.86355 0.28274
 C1730 C 0.48003 0.86045 0.28293
 C1731 C 0.48409 0.84862 0.27889
 C1732 C 0.47542 0.83962 0.27458
 C1733 C 0.46260 0.84275 0.27436
 C1734 C 0.45854 0.85457 0.27839
 C1735 C 0.47965 0.82694 0.27052
 C1736 C 0.47409 0.82102 0.26007
 C1737 C 0.47765 0.80887 0.25658
 C1738 C 0.48689 0.80234 0.26343
 C1739 C 0.49263 0.80836 0.27374
 C1740 C 0.48905 0.82052 0.27725
 H1741 H 0.44925 0.87859 0.27228
 H1742 H 0.44140 0.89837 0.27990
 H1743 H 0.46767 0.89646 0.31121
 H1744 H 0.47522 0.87664 0.30337
 H1745 H 0.48693 0.86723 0.28608
 H1746 H 0.49405 0.84655 0.27901
 H1747 H 0.45566 0.83595 0.27133
 H1748 H 0.44858 0.85660 0.27834
 H1749 H 0.46697 0.82580 0.25458
 H1750 H 0.47307 0.80456 0.24855
 H1751 H 0.49974 0.80361 0.27927
 H1752 H 0.49341 0.82476 0.28543
 C1753 C -0.03826 0.87533 0.78705
 C1754 C -0.04810 0.88160 0.78091
 C1755 C -0.05263 0.89306 0.78549
 C1756 C -0.04747 0.89865 0.79643
 C1757 C -0.03743 0.89231 0.80242
 C1758 C -0.03293 0.88086 0.79780
 C1759 C -0.03374 0.86296 0.78241
 C1760 C -0.02086 0.86008 0.78235
 C1761 C -0.01666 0.84831 0.77824
 C1762 C -0.02526 0.83917 0.77410
 C1763 C -0.03813 0.84209 0.77408
 C1764 C -0.04232 0.85384 0.77818
 C1765 C -0.02088 0.82654 0.77003
 C1766 C -0.02644 0.82051 0.75965
 C1767 C -0.02274 0.80840 0.75616
 C1768 C -0.01337 0.80202 0.76298
 C1769 C -0.00764 0.80815 0.77323
 C1770 C -0.01135 0.82028 0.77671
 H1771 H -0.05225 0.87769 0.77246
 H1772 H -0.06011 0.89743 0.78023
 H1773 H -0.03306 0.89589 0.81086
 H1774 H -0.02543 0.87617 0.80284
 H1775 H -0.01401 0.86697 0.78538
 H1776 H -0.00668 0.84641 0.77820
 H1777 H -0.04500 0.83517 0.77116
 H1778 H -0.05231 0.85570 0.77831
 H1779 H -0.03368 0.82517 0.75420
 H1780 H -0.02734 0.80400 0.74820
 H1781 H -0.00043 0.80352 0.77872
 H1782 H -0.00698 0.82461 0.78484
 C1783 C -0.03647 -0.12654 -0.03662
 C1784 C -0.04368 -0.13441 -0.02882
 C1785 C -0.04803 -0.14599 -0.03325
 C1786 C -0.04537 -0.14994 -0.04564
 C1787 C -0.03809 -0.14205 -0.05340
 C1788 C -0.03366 -0.13052 -0.04892
 C1789 C -0.03210 -0.11412 -0.03204
 C1790 C -0.01980 -0.11003 -0.03446
 C1791 C -0.01579 -0.09817 -0.03044
 C1792 C -0.02404 -0.09008 -0.02399
 C1793 C -0.03633 -0.09425 -0.02149
 C1794 C -0.04029 -0.10615 -0.02543
 C1795 C -0.01996 -0.07726 -0.02016
 C1796 C -0.02409 -0.07197 -0.00873
 C1797 C -0.02066 -0.05973 -0.00539
 C1798 C -0.01292 -0.05252 -0.01334
 C1799 C -0.00861 -0.05789 -0.02465
 C1800 C -0.01212 -0.07008 -0.02804
 H1801 H -0.04584 -0.13164 -0.01923
 H1802 H -0.05339 -0.15189 -0.02692
 H1803 H -0.03603 -0.14463 -0.06304
 H1804 H -0.02827 -0.12456 -0.05519
 H1805 H -0.01323 -0.11606 -0.03939
 H1806 H -0.00620 -0.09536 -0.03232
 H1807 H -0.04300 -0.08819 -0.01676
 H1808 H -0.04988 -0.10900 -0.02358
 H1809 H -0.02996 -0.07730 -0.00234
 H1810 H -0.02408 -0.05591 0.00344
 H1811 H -0.00272 -0.05256 -0.03105
 H1812 H -0.00894 -0.07377 -0.03700
 C1813 C -0.04008 0.37746 0.45991
 C1814 C -0.03477 0.37186 0.44919
 C1815 C -0.03926 0.36036 0.44468
 C1816 C -0.04925 0.35401 0.45077
 C1817 C -0.05445 0.35975 0.46162
 C1818 C -0.04994 0.37126 0.46608
 C1819 C -0.03541 0.38977 0.46458
 C1820 C -0.04387 0.39898 0.46884
 C1821 C -0.03951 0.41061 0.47314
 C1822 C -0.02659 0.41331 0.47328
 C1823 C -0.01813 0.40409 0.46905
 C1824 C -0.02249 0.39245 0.46474
 C1825 C -0.02200 0.42574 0.47770
 C1826 C -0.01220 0.43193 0.47134
 C1827 C -0.00813 0.44379 0.47528
 C1828 C -0.01375 0.44975 0.48569
 C1829 C -0.02345 0.44348 0.49214
 C1830 C -0.02751 0.43162 0.48820
 H1831 H -0.02725 0.37650 0.44412
 H1832 H -0.03482 0.35667 0.43633
 H1833 H -0.06198 0.35547 0.46689
 H1834 H -0.05410 0.37525 0.47449
 H1835 H -0.05389 0.39728 0.46864
 H1836 H -0.04629 0.41759 0.47612
 H1837 H -0.00811 0.40581 0.46921
 H1838 H -0.01573 0.38548 0.46169
 H1839 H -0.00787 0.42772 0.46312
 H1840 H -0.00069 0.44836 0.47003
 H1841 H -0.02798 0.44776 0.50021
 H1842 H -0.03496 0.42702 0.49341
 C1843 C 0.46104 -0.12322 0.46093
 C1844 C 0.46712 -0.12950 0.45105
 C1845 C 0.46277 -0.14115 0.44679
 C1846 C 0.45212 -0.14694 0.45228
 C1847 C 0.44613 -0.14051 0.46230
 C1848 C 0.45053 -0.12887 0.46653
 C1849 C 0.46560 -0.11076 0.46533
 C1850 C 0.46592 -0.10787 0.47826
 C1851 C 0.47011 -0.09610 0.48237
 C1852 C 0.47405 -0.08696 0.47364
 C1853 C 0.47375 -0.08988 0.46072
 C1854 C 0.46958 -0.10164 0.45661
 C1855 C 0.47834 -0.07439 0.47798
 C1856 C 0.48863 -0.06845 0.47220
 C1857 C 0.49249 -0.05650 0.47608
 C1858 C 0.48615 -0.05020 0.48584
 C1859 C 0.47593 -0.05620 0.49170
 C1860 C 0.47207 -0.06815 0.48782
 H1861 H 0.47538 -0.12547 0.44667
 H1862 H 0.46796 -0.14549 0.43923
 H1863 H 0.43793 -0.14423 0.46695
 H1864 H 0.44554 -0.12417 0.47408
 H1865 H 0.46309 -0.11476 0.48521
 H1866 H 0.47040 -0.09421 0.49240
 H1867 H 0.47652 -0.08297 0.45375
 H1868 H 0.46925 -0.10352 0.44658
 H1869 H 0.49377 -0.07309 0.46471
 H1870 H 0.50042 -0.05219 0.47136
 H1871 H 0.47078 -0.05160 0.49921
 H1872 H 0.46401 -0.07240 0.49235
 C1873 C 0.46181 0.37476 -0.03831
 C1874 C 0.45220 0.36836 -0.03194
 C1875 C 0.44770 0.35686 -0.03643
 C1876 C 0.45264 0.35134 -0.04751
 C1877 C 0.46242 0.35785 -0.05376
 C1878 C 0.46691 0.36934 -0.04922
 C1879 C 0.46637 0.38713 -0.03368
 C1880 C 0.47923 0.39007 -0.03386
 C1881 C 0.48347 0.40180 -0.02968
 C1882 C 0.47492 0.41085 -0.02523
 C1883 C 0.46207 0.40787 -0.02501
 C1884 C 0.45784 0.39615 -0.02917
 C1885 C 0.47934 0.42344 -0.02106
 C1886 C 0.47392 0.42933 -0.01052
 C1887 C 0.47766 0.44141 -0.00694
 C1888 C 0.48691 0.44790 -0.01381
 C1889 C 0.49251 0.44189 -0.02421
 C1890 C 0.48877 0.42981 -0.02779
 H1891 H 0.44823 0.37220 -0.02337
 H1892 H 0.44038 0.35241 -0.03099
 H1893 H 0.46664 0.35433 -0.06231
 H1894 H 0.47423 0.37413 -0.05444
 H1895 H 0.48605 0.38325 -0.03711
 H1896 H 0.49345 0.40375 -0.02980
 H1897 H 0.45522 0.41472 -0.02185
 H1898 H 0.44785 0.39425 -0.02911
 H1899 H 0.46678 0.42459 -0.00502
 H1900 H 0.47317 0.44571 0.00115
 H1901 H 0.49963 0.44662 -0.02975
 H1902 H 0.49302 0.42559 -0.03604
 C1903 C 0.78913 0.37500 0.46195
 C1904 C 0.79647 0.38299 0.46948
 C1905 C 0.80113 0.39429 0.46463
 C1906 C 0.79866 0.39781 0.45207
 C1907 C 0.79126 0.38979 0.44457
 C1908 C 0.78652 0.37855 0.44947
 C1909 C 0.78440 0.36289 0.46699
 C1910 C 0.77201 0.35904 0.46463
 C1911 C 0.76767 0.34744 0.46904
 C1912 C 0.77567 0.33937 0.47582
 C1913 C 0.78804 0.34331 0.47829
 C1914 C 0.79234 0.35496 0.47396
 C1915 C 0.77126 0.32676 0.47999
 C1916 C 0.77519 0.32167 0.49158
 C1917 C 0.77150 0.30957 0.49520
 C1918 C 0.76370 0.30232 0.48735
 C1919 C 0.75957 0.30751 0.47588
 C1920 C 0.76334 0.31955 0.47223
 H1921 H 0.79850 0.38055 0.47919
 H1922 H 0.80658 0.40030 0.47077
 H1923 H 0.78933 0.39203 0.43481
 H1924 H 0.78104 0.37248 0.44339
 H1925 H 0.76564 0.36505 0.45942
 H1926 H 0.75803 0.34482 0.46718
 H1927 H 0.79452 0.33726 0.48328
 H1928 H 0.80198 0.35762 0.47578
 H1929 H 0.78113 0.32704 0.49788
 H1930 H 0.77479 0.30589 0.50413
 H1931 H 0.75365 0.30214 0.46955
 H1932 H 0.76030 0.32307 0.46315
 C1933 C 0.78635 0.87680 -0.03662
 C1934 C 0.79705 0.88230 -0.03125
 C1935 C 0.80167 0.89377 -0.03574
 C1936 C 0.79572 0.90014 -0.04582
 C1937 C 0.78474 0.89463 -0.05092
 C1938 C 0.78018 0.88316 -0.04641
 C1939 C 0.78183 0.86433 -0.03226
 C1940 C 0.77777 0.85529 -0.04103
 C1941 C 0.77380 0.84343 -0.03702
 C1942 C 0.77377 0.84032 -0.02414
 C1943 C 0.77774 0.84939 -0.01535
 C1944 C 0.78173 0.86126 -0.01937
 C1945 C 0.76983 0.82758 -0.01995
 C1946 C 0.77641 0.82130 -0.01035
 C1947 C 0.77304 0.80909 -0.00679
 C1948 C 0.76301 0.80288 -0.01277
 C1949 C 0.75629 0.80927 -0.02223
 C1950 C 0.75966 0.82147 -0.02576
 H1951 H 0.80209 0.87757 -0.02375
 H1952 H 0.81006 0.89734 -0.03132
 H1953 H 0.77949 0.89902 -0.05842
 H1954 H 0.77175 0.87927 -0.05058
 H1955 H 0.77794 0.85730 -0.05105
 H1956 H 0.77102 0.83659 -0.04405
 H1957 H 0.77765 0.84735 -0.00534
 H1958 H 0.78464 0.86809 -0.01238
 H1959 H 0.78438 0.82568 -0.00579
 H1960 H 0.77845 0.80445 0.00049
 H1961 H 0.74848 0.80482 -0.02700
 H1962 H 0.75427 0.82614 -0.03306
 C1963 C 0.78912 0.28865 0.37559
 C1964 C 0.80153 0.28616 0.37192
 C1965 C 0.80625 0.29093 0.36059
 C1966 C 0.79861 0.29822 0.35260
 C1967 C 0.78613 0.30059 0.35624
 C1968 C 0.78146 0.29590 0.36763
 C1969 C 0.78425 0.28388 0.38779
 C1970 C 0.77721 0.29175 0.39573
 C1971 C 0.77296 0.28740 0.40741
 C1972 C 0.77556 0.27505 0.41137
 C1973 C 0.78245 0.26713 0.40331
 C1974 C 0.78679 0.27151 0.39167
 C1975 C 0.77138 0.27058 0.42398
 C1976 C 0.77915 0.26277 0.43130
 C1977 C 0.77546 0.25899 0.44337
 C1978 C 0.76395 0.26299 0.44845
 C1979 C 0.75608 0.27065 0.44107
 C1980 C 0.75973 0.27435 0.42896
 H1981 H 0.80770 0.28075 0.37797
 H1982 H 0.81595 0.28908 0.35824
 H1983 H 0.77990 0.30595 0.35025
 H1984 H 0.77179 0.29783 0.37015
 H1985 H 0.77527 0.30138 0.39304
 H1986 H 0.76789 0.29383 0.41347
 H1987 H 0.78443 0.25750 0.40597
 H1988 H 0.79204 0.26520 0.38565
 H1989 H 0.78826 0.25985 0.42786
 H1990 H 0.78180 0.25318 0.44884
 H1991 H 0.74712 0.27384 0.44466
 H1992 H 0.75342 0.28018 0.42350
 C1993 C 0.78814 0.78795 -0.12559
 C1994 C 0.78275 0.79864 -0.13111
 C1995 C 0.78719 0.80327 -0.14261
 C1996 C 0.79722 0.79733 -0.14903
 C1997 C 0.80243 0.78643 -0.14343
 C1998 C 0.79797 0.78186 -0.13191
 C1999 C 0.78367 0.78328 -0.11318
 C2000 C 0.79229 0.77913 -0.10404
 C2001 C 0.78814 0.77498 -0.09226
 C2002 C 0.77527 0.77487 -0.08932
 C2003 C 0.76664 0.77892 -0.09849
 C2004 C 0.77079 0.78309 -0.11028
 C2005 C 0.77093 0.77076 -0.07666
 C2006 C 0.76128 0.77729 -0.07042
 C2007 C 0.75756 0.77377 -0.05828
 C2008 C 0.76340 0.76364 -0.05208
 C2009 C 0.77290 0.75698 -0.05843
 C2010 C 0.77661 0.76050 -0.07057
 H2011 H 0.77524 0.80363 -0.12639
 H2012 H 0.78272 0.81163 -0.14622
 H2013 H 0.80996 0.78124 -0.14779
 H2014 H 0.80217 0.77345 -0.12799
 H2015 H 0.80228 0.77936 -0.10591
 H2016 H 0.79504 0.77213 -0.08533
 H2017 H 0.75665 0.77877 -0.09658
 H2018 H 0.76391 0.78605 -0.11719
 H2019 H 0.75683 0.78534 -0.07479
 H2020 H 0.75025 0.77915 -0.05367
 H2021 H 0.77758 0.74910 -0.05397
 H2022 H 0.78394 0.75516 -0.07520
 C2023 C 0.28792 0.46197 0.87456
 C2024 C 0.28005 0.45514 0.88268
 C2025 C 0.28447 0.45096 0.89438
 C2026 C 0.29689 0.45343 0.89817
 C2027 C 0.30472 0.46032 0.89001
 C2028 C 0.30027 0.46459 0.87838
 C2029 C 0.28334 0.46622 0.86205
 C2030 C 0.28603 0.47840 0.85770
 C2031 C 0.28197 0.48230 0.84579
 C2032 C 0.27521 0.47408 0.83792
 C2033 C 0.27247 0.46191 0.84234
 C2034 C 0.27645 0.45804 0.85429
 C2035 C 0.27119 0.47812 0.82511
 C2036 C 0.25955 0.47429 0.82016
 C2037 C 0.25588 0.47793 0.80804
 C2038 C 0.26371 0.48559 0.80062
 C2039 C 0.27531 0.48948 0.80559
 C2040 C 0.27902 0.48576 0.81767
 H2041 H 0.27044 0.45314 0.88004
 H2042 H 0.27809 0.44588 0.90047
 H2043 H 0.31439 0.46222 0.89246
 H2044 H 0.30659 0.46969 0.87222
 H2045 H 0.29118 0.48495 0.86356
 H2046 H 0.28403 0.49182 0.84280
 H2047 H 0.26748 0.45526 0.83646
 H2048 H 0.27439 0.44854 0.85735
 H2049 H 0.25320 0.46857 0.82570
 H2050 H 0.24685 0.47482 0.80451
 H2051 H 0.28164 0.49527 0.80009
 H2052 H 0.28814 0.48869 0.82108
 C2053 C 0.28718 -0.03724 0.37597
 C2054 C 0.29793 -0.03181 0.38130
 C2055 C 0.30266 -0.03613 0.39281
 C2056 C 0.29677 -0.04609 0.39941
 C2057 C 0.28575 -0.05126 0.39404
 C2058 C 0.28108 -0.04692 0.38252
 C2059 C 0.28250 -0.03302 0.36347
 C2060 C 0.27832 -0.04185 0.35455
 C2061 C 0.27421 -0.03796 0.34266
 C2062 C 0.27415 -0.02514 0.33942
 C2063 C 0.27824 -0.01630 0.34837
 C2064 C 0.28237 -0.02019 0.36027
 C2065 C 0.27008 -0.02109 0.32664
 C2066 C 0.27662 -0.01158 0.32018
 C2067 C 0.27311 -0.00811 0.30797
 C2068 C 0.26299 -0.01408 0.30190
 C2069 C 0.25633 -0.02346 0.30846
 C2070 C 0.25983 -0.02691 0.32068
 H2071 H 0.30291 -0.02438 0.37641
 H2072 H 0.31106 -0.03164 0.39627
 H2073 H 0.28056 -0.05872 0.39857
 H2074 H 0.27262 -0.05114 0.37876
 H2075 H 0.27850 -0.05181 0.35666
 H2076 H 0.27134 -0.04503 0.33590
 H2077 H 0.27813 -0.00634 0.34623
 H2078 H 0.28537 -0.01315 0.36701
 H2079 H 0.28466 -0.00702 0.32445
 H2080 H 0.27848 -0.00089 0.30320
 H2081 H 0.24845 -0.02823 0.30412
 H2082 H 0.25449 -0.03413 0.32547
 C2083 C -0.03638 -0.03707 -0.12693
 C2084 C -0.03018 -0.04669 -0.13348
 C2085 C -0.03489 -0.05119 -0.14491
 C2086 C -0.04605 -0.04626 -0.15019
 C2087 C -0.05204 -0.03635 -0.14361
 C2088 C -0.04728 -0.03187 -0.13219
 C2089 C -0.03168 -0.03270 -0.11449
 C2090 C -0.03180 -0.01987 -0.11134
 C2091 C -0.02772 -0.01584 -0.09947
 C2092 C -0.02344 -0.02457 -0.09049
 C2093 C -0.02321 -0.03740 -0.09369
 C2094 C -0.02727 -0.04141 -0.10555
 C2095 C -0.01950 -0.02040 -0.07772
 C2096 C -0.00912 -0.02595 -0.07172
 C2097 C -0.00575 -0.02242 -0.05948
 C2098 C -0.01268 -0.01323 -0.05296
 C2099 C -0.02293 -0.00752 -0.05905
 C2100 C -0.02630 -0.01106 -0.07129
 H2101 H -0.02160 -0.05072 -0.12977
 H2102 H -0.02960 -0.05854 -0.14948
 H2103 H -0.06060 -0.03210 -0.14698
 H2104 H -0.05235 -0.02452 -0.12729
 H2105 H -0.03498 -0.01292 -0.11809
 H2106 H -0.02784 -0.00588 -0.09735
 H2107 H -0.02018 -0.04438 -0.08691
 H2108 H -0.02726 -0.05139 -0.10762
 H2109 H -0.00358 -0.03303 -0.07650
 H2110 H 0.00222 -0.02699 -0.05511
 H2111 H -0.02851 -0.00045 -0.05431
 H2112 H -0.03444 -0.00672 -0.07558
 C2113 C -0.03975 0.46106 0.37588
 C2114 C -0.03432 0.45039 0.37036
 C2115 C -0.03892 0.44558 0.35900
 C2116 C -0.04919 0.45129 0.35275
 C2117 C -0.05438 0.46222 0.35829
 C2118 C -0.04975 0.46697 0.36966
 C2119 C -0.03518 0.46585 0.38820
 C2120 C -0.04373 0.46992 0.39743
 C2121 C -0.03948 0.47419 0.40913
 C2122 C -0.02657 0.47453 0.41188
 C2123 C -0.01801 0.47053 0.40262
 C2124 C -0.02226 0.46624 0.39091
 C2125 C -0.02210 0.47886 0.42442
 C2126 C -0.01222 0.47262 0.43057
 C2127 C -0.00823 0.47648 0.44251
 C2128 C -0.01404 0.48670 0.44859
 C2129 C -0.02386 0.49301 0.44238
 C2130 C -0.02783 0.48914 0.43043
 H2131 H -0.02665 0.44554 0.37499
 H2132 H -0.03442 0.43724 0.35539
 H2133 H -0.06205 0.46728 0.35402
 H2134 H -0.05399 0.47537 0.37357
 H2135 H -0.05374 0.46953 0.39570
 H2136 H -0.04633 0.47700 0.41614
 H2137 H -0.00800 0.47085 0.40438
 H2138 H -0.01544 0.46333 0.38393
 H2139 H -0.00773 0.46456 0.42626
 H2140 H -0.00069 0.47135 0.44704
 H2141 H -0.02854 0.50093 0.44675
 H2142 H -0.03536 0.49426 0.42587
 C2143 C 0.46092 -0.03813 0.37563
 C2144 C 0.44859 -0.03560 0.37170
 C2145 C 0.44422 -0.04004 0.36009
 C2146 C 0.45211 -0.04703 0.35209
 C2147 C 0.46451 -0.04944 0.35601
 C2148 C 0.46884 -0.04508 0.36766
 C2149 C 0.46545 -0.03366 0.38806
 C2150 C 0.47239 -0.04167 0.39596
 C2151 C 0.47647 -0.03755 0.40778
 C2152 C 0.47379 -0.02528 0.41194
 C2153 C 0.46693 -0.01724 0.40397
 C2154 C 0.46277 -0.02140 0.39219
 C2155 C 0.47801 -0.02095 0.42459
 C2156 C 0.47030 -0.01316 0.43199
 C2157 C 0.47418 -0.00925 0.44395
 C2158 C 0.48583 -0.01310 0.44884
 C2159 C 0.49356 -0.02085 0.44143
 C2160 C 0.48972 -0.02469 0.42943
 H2161 H 0.44223 -0.03041 0.37773
 H2162 H 0.43457 -0.03817 0.35753
 H2163 H 0.47093 -0.05458 0.35003
 H2164 H 0.47844 -0.04702 0.37038
 H2165 H 0.47444 -0.05123 0.39308
 H2166 H 0.48152 -0.04407 0.41376
 H2167 H 0.46489 -0.00767 0.40678
 H2168 H 0.45758 -0.01497 0.38622
 H2169 H 0.46114 -0.01028 0.42865
 H2170 H 0.46793 -0.00338 0.44946
 H2171 H 0.50262 -0.02394 0.44489
 H2172 H 0.49599 -0.03051 0.42391
 C2173 C 0.46299 0.46254 -0.12691
 C2174 C 0.46919 0.45286 -0.13337
 C2175 C 0.46441 0.44818 -0.14471
 C2176 C 0.45319 0.45300 -0.14997
 C2177 C 0.44723 0.46300 -0.14351
 C2178 C 0.45205 0.46765 -0.13218
 C2179 C 0.46771 0.46702 -0.11452
 C2180 C 0.46759 0.47988 -0.11147
 C2181 C 0.47173 0.48400 -0.09966
 C2182 C 0.47605 0.47534 -0.09063
 C2183 C 0.47625 0.46249 -0.09372
 C2184 C 0.47214 0.45838 -0.10553
 C2185 C 0.48011 0.47961 -0.07792
 C2186 C 0.49051 0.47405 -0.07197
 C2187 C 0.49397 0.47763 -0.05978
 C2188 C 0.48712 0.48688 -0.05325
 C2189 C 0.47687 0.49261 -0.05931
 C2190 C 0.47340 0.48901 -0.07150
 H2191 H 0.47780 0.44890 -0.12967
 H2192 H 0.46970 0.44080 -0.14922
 H2193 H 0.43864 0.46718 -0.14689
 H2194 H 0.44699 0.47506 -0.12735
 H2195 H 0.46440 0.48677 -0.11827
 H2196 H 0.47163 0.49397 -0.09762
 H2197 H 0.47930 0.45555 -0.08690
 H2198 H 0.47214 0.44839 -0.10751
 H2199 H 0.49599 0.46692 -0.07674
 H2200 H 0.50196 0.47306 -0.05544
 H2201 H 0.47135 0.49973 -0.05456
 H2202 H 0.46525 0.49337 -0.07577
 C2203 C 0.46352 0.78690 0.37693
 C2204 C 0.45133 0.78389 0.38095
 C2205 C 0.44673 0.78850 0.39239
 C2206 C 0.45425 0.79618 0.40013
 C2207 C 0.46654 0.79900 0.39617
 C2208 C 0.47110 0.79446 0.38468
 C2209 C 0.46818 0.78244 0.36453
 C2210 C 0.47462 0.79067 0.35643
 C2211 C 0.47857 0.78664 0.34454
 C2212 C 0.47625 0.77426 0.34049
 C2213 C 0.46998 0.76597 0.34870
 C2214 C 0.46595 0.77004 0.36057
 C2215 C 0.48009 0.77012 0.32766
 C2216 C 0.47231 0.76214 0.32053
 C2217 C 0.47568 0.75861 0.30830
 C2218 C 0.48689 0.76303 0.30286
 C2219 C 0.49475 0.77088 0.31004
 C2220 C 0.49141 0.77434 0.32230
 H2221 H 0.44522 0.77823 0.37508
 H2222 H 0.43716 0.78629 0.39498
 H2223 H 0.47268 0.80468 0.40197
 H2224 H 0.48060 0.79678 0.38188
 H2225 H 0.47631 0.80033 0.35917
 H2226 H 0.48317 0.79333 0.33838
 H2227 H 0.46823 0.75632 0.34598
 H2228 H 0.46115 0.76345 0.36669
 H2229 H 0.46343 0.75887 0.32428
 H2230 H 0.46936 0.75262 0.30301
 H2231 H 0.50348 0.77439 0.30618
 H2232 H 0.49772 0.78032 0.32761
 C2233 C -0.03586 0.78552 0.87731
 C2234 C -0.04655 0.78018 0.88286
 C2235 C -0.05097 0.78450 0.89449
 C2236 C -0.04482 0.79437 0.90098
 C2237 C -0.03384 0.79941 0.89542
 C2238 C -0.02948 0.79507 0.88379
 C2239 C -0.03155 0.78137 0.86465
 C2240 C -0.02748 0.79024 0.85572
 C2241 C -0.02369 0.78643 0.84371
 C2242 C -0.02388 0.77365 0.84033
 C2243 C -0.02790 0.76476 0.84928
 C2244 C -0.03170 0.76858 0.86130
 C2245 C -0.02005 0.76968 0.82745
 C2246 C -0.02678 0.76031 0.82098
 C2247 C -0.02344 0.75691 0.80869
 C2248 C -0.01331 0.76281 0.80258
 C2249 C -0.00647 0.77205 0.80914
 C2250 C -0.00980 0.77543 0.82142
 H2251 H -0.05175 0.77287 0.87803
 H2252 H -0.05939 0.78016 0.89808
 H2253 H -0.02843 0.80672 0.89992
 H2254 H -0.02104 0.79919 0.87986
 H2255 H -0.02747 0.80018 0.85794
 H2256 H -0.02087 0.79354 0.83696
 H2257 H -0.02798 0.75483 0.84702
 H2258 H -0.03464 0.76150 0.86804
 H2259 H -0.03481 0.75581 0.82531
 H2260 H -0.02895 0.74979 0.80392
 H2261 H 0.00143 0.77676 0.80477
 H2262 H -0.00431 0.78254 0.82622
 C2263 C 0.37395 0.78681 0.28695
 C2264 C 0.37001 0.79907 0.28406
 C2265 C 0.35852 0.80360 0.28852
 C2266 C 0.35064 0.79593 0.29590
 C2267 C 0.35455 0.78359 0.29864
 C2268 C 0.36609 0.77910 0.29426
 C2269 C 0.38632 0.78217 0.28255
 C2270 C 0.39426 0.77554 0.29077
 C2271 C 0.40611 0.77155 0.28677
 C2272 C 0.41025 0.77401 0.27442
 C2273 C 0.40220 0.78047 0.26614
 C2274 C 0.39039 0.78455 0.27017
 C2275 C 0.42302 0.77010 0.27030
 C2276 C 0.43023 0.77794 0.26244
 C2277 C 0.44239 0.77449 0.25890
 C2278 C 0.44768 0.76317 0.26321
 C2279 C 0.44043 0.75526 0.27096
 C2280 C 0.42824 0.75867 0.27443
 H2281 H 0.37596 0.80528 0.27859
 H2282 H 0.35596 0.81321 0.28638
 H2283 H 0.34866 0.77733 0.30409
 H2284 H 0.36883 0.76955 0.29649
 H2285 H 0.39143 0.77373 0.30041
 H2286 H 0.41214 0.76680 0.29347
 H2287 H 0.40499 0.78232 0.25650
 H2288 H 0.38439 0.78949 0.26358
 H2289 H 0.42660 0.78690 0.25926
 H2290 H 0.44773 0.78086 0.25301
 H2291 H 0.44419 0.74644 0.27439
 H2292 H 0.42287 0.75232 0.28032
 C2293 C -0.12613 0.78695 0.78634
 C2294 C -0.13416 0.77932 0.79353
 C2295 C -0.14558 0.78401 0.79800
 C2296 C -0.14919 0.79650 0.79549
 C2297 C -0.14115 0.80408 0.78819
 C2298 C -0.12979 0.79935 0.78364
 C2299 C -0.11383 0.78213 0.78194
 C2300 C -0.10968 0.78454 0.76960
 C2301 C -0.09790 0.78035 0.76559
 C2302 C -0.08996 0.77375 0.77387
 C2303 C -0.09420 0.77124 0.78619
 C2304 C -0.10602 0.77534 0.79015
 C2305 C -0.07718 0.76980 0.76982
 C2306 C -0.07203 0.75834 0.77395
 C2307 C -0.05982 0.75490 0.77056
 C2308 C -0.05250 0.76280 0.76287
 C2309 C -0.05773 0.77415 0.75855
 C2310 C -0.06990 0.77763 0.76203
 H2311 H -0.13164 0.76967 0.79561
 H2312 H -0.15160 0.77781 0.80336
 H2313 H -0.14347 0.81379 0.78623
 H2314 H -0.12370 0.80550 0.77826
 H2315 H -0.11559 0.78962 0.76302
 H2316 H -0.09504 0.78224 0.75598
 H2317 H -0.08825 0.76638 0.79288
 H2318 H -0.10892 0.77350 0.79976
 H2319 H -0.07745 0.75198 0.77979
 H2320 H -0.05610 0.74606 0.77398
 H2321 H -0.05232 0.78051 0.75271
 H2322 H -0.07347 0.78662 0.75885
 C2323 C 0.87575 0.28786 0.46360
 C2324 C 0.88359 0.29550 0.47100
 C2325 C 0.89486 0.30016 0.46610
 C2326 C 0.89849 0.29738 0.45364
 C2327 C 0.89064 0.28964 0.44631
 C2328 C 0.87944 0.28491 0.45124
 C2329 C 0.86361 0.28322 0.46862
 C2330 C 0.85979 0.27076 0.46649
 C2331 C 0.84811 0.26654 0.47076
 C2332 C 0.83993 0.27473 0.47715
 C2333 C 0.84384 0.28716 0.47942
 C2334 C 0.85557 0.29134 0.47525
 C2335 C 0.82721 0.27046 0.48108
 C2336 C 0.82185 0.27464 0.49245
 C2337 C 0.80968 0.27106 0.49582
 C2338 C 0.80260 0.26313 0.48795
 C2339 C 0.80804 0.25876 0.47669
 C2340 C 0.82017 0.26242 0.47328
 H2341 H 0.88104 0.29780 0.48061
 H2342 H 0.90074 0.30589 0.47211
 H2343 H 0.89297 0.28746 0.43663
 H2344 H 0.87349 0.27919 0.44527
 H2345 H 0.86588 0.26425 0.46157
 H2346 H 0.84550 0.25685 0.46906
 H2347 H 0.83771 0.29378 0.48413
 H2348 H 0.85820 0.30105 0.47687
 H2349 H 0.82709 0.28068 0.49877
 H2350 H 0.80580 0.27454 0.50460
 H2351 H 0.80282 0.25274 0.47034
 H2352 H 0.82390 0.25919 0.46435
 C2353 C 0.87642 0.78656 -0.03618
 C2354 C 0.88035 0.78362 -0.04847
 C2355 C 0.89187 0.78798 -0.05302
 C2356 C 0.89979 0.79531 -0.04535
 C2357 C 0.89589 0.79809 -0.03298
 C2358 C 0.88432 0.79382 -0.02847
 C2359 C 0.86401 0.78227 -0.03153
 C2360 C 0.85608 0.79058 -0.02501
 C2361 C 0.84419 0.78670 -0.02104
 C2362 C 0.83999 0.77438 -0.02342
 C2363 C 0.84804 0.76601 -0.02975
 C2364 C 0.85989 0.76993 -0.03381
 C2365 C 0.82716 0.77038 -0.01958
 C2366 C 0.82001 0.76246 -0.02740
 C2367 C 0.80782 0.75898 -0.02401
 C2368 C 0.80243 0.76342 -0.01275
 C2369 C 0.80960 0.77126 -0.00487
 C2370 C 0.82184 0.77466 -0.00822
 H2371 H 0.87436 0.77819 -0.05468
 H2372 H 0.89441 0.78581 -0.06265
 H2373 H 0.90181 0.80349 -0.02671
 H2374 H 0.88159 0.79608 -0.01890
 H2375 H 0.85896 0.80020 -0.02328
 H2376 H 0.83816 0.79345 -0.01639
 H2377 H 0.84521 0.75639 -0.03153
 H2378 H 0.86589 0.76329 -0.03867
 H2379 H 0.82371 0.75916 -0.03631
 H2380 H 0.80253 0.75302 -0.03036
 H2381 H 0.80576 0.77479 0.00390
 H2382 H 0.82715 0.78060 -0.00188
 C2383 C -0.12557 -0.03779 -0.03774
 C2384 C -0.13199 -0.04744 -0.03144
 C2385 C -0.14350 -0.05187 -0.03594
 C2386 C -0.14900 -0.04681 -0.04698
 C2387 C -0.14250 -0.03695 -0.05313
 C2388 C -0.13100 -0.03254 -0.04858
 C2389 C -0.11316 -0.03337 -0.03316
 C2390 C -0.11012 -0.02050 -0.03323
 C2391 C -0.09833 -0.01640 -0.02915
 C2392 C -0.08931 -0.02507 -0.02490
 C2393 C -0.09239 -0.03793 -0.02476
 C2394 C -0.10417 -0.04203 -0.02883
 C2395 C -0.07666 -0.02079 -0.02086
 C2396 C -0.07069 -0.02635 -0.01043
 C2397 C -0.05858 -0.02269 -0.00693
 C2398 C -0.05214 -0.01337 -0.01378
 C2399 C -0.05820 -0.00766 -0.02409
 C2400 C -0.07032 -0.01133 -0.02758
 H2401 H -0.12814 -0.05153 -0.02293
 H2402 H -0.14794 -0.05925 -0.03058
 H2403 H -0.14604 -0.03259 -0.06161
 H2404 H -0.12621 -0.02517 -0.05373
 H2405 H -0.11691 -0.01359 -0.03634
 H2406 H -0.09631 -0.00642 -0.02920
 H2407 H -0.08557 -0.04487 -0.02175
 H2408 H -0.10615 -0.05201 -0.02885
 H2409 H -0.07540 -0.03353 -0.00494
 H2410 H -0.05423 -0.02726 0.00108
 H2411 H -0.05352 -0.00049 -0.02961
 H2412 H -0.07459 -0.00698 -0.03575
 C2413 C -0.12321 0.46129 0.46053
 C2414 C -0.12938 0.45137 0.46664
 C2415 C -0.14083 0.44681 0.46211
 C2416 C -0.14652 0.45202 0.45124
 C2417 C -0.14025 0.46215 0.44528
 C2418 C -0.12881 0.46668 0.44985
 C2419 C -0.11088 0.46589 0.46517
 C2420 C -0.10813 0.47882 0.46538
 C2421 C -0.09645 0.48310 0.46957
 C2422 C -0.08724 0.47455 0.47365
 C2423 C -0.09000 0.46162 0.47347
 C2424 C -0.10168 0.45734 0.46929
 C2425 C -0.07474 0.47905 0.47793
 C2426 C -0.06877 0.47343 0.48832
 C2427 C -0.05686 0.47740 0.49213
 C2428 C -0.05062 0.48711 0.48564
 C2429 C -0.05666 0.49283 0.47534
 C2430 C -0.06858 0.48885 0.47153
 H2431 H -0.12540 0.44716 0.47504
 H2432 H -0.14510 0.43923 0.46733
 H2433 H -0.14392 0.46661 0.43692
 H2434 H -0.12420 0.47426 0.44484
 H2435 H -0.11509 0.48564 0.46243
 H2436 H -0.09467 0.49313 0.46977
 H2437 H -0.08303 0.45478 0.47634
 H2438 H -0.10343 0.44731 0.46904
 H2439 H -0.07335 0.46598 0.49355
 H2440 H -0.05251 0.47279 0.50012
 H2441 H -0.05212 0.50028 0.47007
 H2442 H -0.07286 0.49325 0.46339
 C2443 C 0.37625 -0.03767 0.46074
 C2444 C 0.37007 -0.03179 0.45066
 C2445 C 0.35850 -0.03626 0.44635
 C2446 C 0.35270 -0.04685 0.45197
 C2447 C 0.35900 -0.05261 0.46221
 C2448 C 0.37056 -0.04808 0.46649
 C2449 C 0.38866 -0.03304 0.46514
 C2450 C 0.39146 -0.03249 0.47809
 C2451 C 0.40321 -0.02829 0.48221
 C2452 C 0.41242 -0.02456 0.47348
 C2453 C 0.40959 -0.02507 0.46054
 C2454 C 0.39785 -0.02925 0.45642
 C2455 C 0.42498 -0.02030 0.47782
 C2456 C 0.43103 -0.01015 0.47190
 C2457 C 0.44298 -0.00633 0.47578
 C2458 C 0.44916 -0.01257 0.48570
 C2459 C 0.44304 -0.02266 0.49170
 C2460 C 0.43109 -0.02647 0.48781
 H2461 H 0.37414 -0.02360 0.44615
 H2462 H 0.35427 -0.03125 0.43861
 H2463 H 0.35524 -0.06071 0.46701
 H2464 H 0.37517 -0.05291 0.47420
 H2465 H 0.38451 -0.03516 0.48504
 H2466 H 0.40503 -0.02783 0.49224
 H2467 H 0.41655 -0.02246 0.45357
 H2468 H 0.39604 -0.02976 0.44638
 H2469 H 0.42650 -0.00510 0.46429
 H2470 H 0.44739 0.00147 0.47094
 H2471 H 0.44753 -0.02773 0.49932
 H2472 H 0.42675 -0.03443 0.49245
 C2473 C 0.37416 0.46299 -0.03736
 C2474 C 0.36780 0.45329 -0.03109
 C2475 C 0.35631 0.44882 -0.03560
 C2476 C 0.35078 0.45388 -0.04662
 C2477 C 0.35718 0.46384 -0.05270
 C2478 C 0.36867 0.46829 -0.04814
 C2479 C 0.38660 0.46739 -0.03283
 C2480 C 0.38965 0.48025 -0.03285
 C2481 C 0.40148 0.48431 -0.02883
 C2482 C 0.41052 0.47560 -0.02472
 C2483 C 0.40743 0.46274 -0.02464
 C2484 C 0.39561 0.45869 -0.02864
 C2485 C 0.42321 0.47983 -0.02074
 C2486 C 0.42925 0.47417 -0.01041
 C2487 C 0.44140 0.47776 -0.00699
 C2488 C 0.44781 0.48711 -0.01382
 C2489 C 0.44167 0.49293 -0.02402
 C2490 C 0.42952 0.48933 -0.02744
 H2491 H 0.37169 0.44917 -0.02260
 H2492 H 0.35191 0.44139 -0.03026
 H2493 H 0.35362 0.46819 -0.06116
 H2494 H 0.37341 0.47571 -0.05327
 H2495 H 0.38284 0.48719 -0.03586
 H2496 H 0.40351 0.49429 -0.02883
 H2497 H 0.41426 0.45578 -0.02175
 H2498 H 0.39363 0.44870 -0.02872
 H2499 H 0.42456 0.46697 -0.00494
 H2500 H 0.44580 0.47312 0.00095
 H2501 H 0.44633 0.50013 -0.02952
 H2502 H 0.42518 0.49376 -0.03554
 C2503 C 0.37315 0.46004 0.78871
 C2504 C 0.37720 0.46303 0.80095
 C2505 C 0.38866 0.45850 0.80549
 C2506 C 0.39639 0.45094 0.79785
 C2507 C 0.39235 0.44806 0.78555
 C2508 C 0.38084 0.45252 0.78106
 C2509 C 0.36087 0.46465 0.78402
 C2510 C 0.35275 0.45656 0.77746
 C2511 C 0.34104 0.46081 0.77331
 C2512 C 0.33722 0.47328 0.77554
 C2513 C 0.34544 0.48140 0.78199
 C2514 C 0.35711 0.47712 0.78622
 C2515 C 0.32466 0.47772 0.77134
 C2516 C 0.31760 0.48595 0.77892
 C2517 C 0.30570 0.48996 0.77510
 C2518 C 0.30053 0.48577 0.76365
 C2519 C 0.30759 0.47758 0.75604
 C2520 C 0.31954 0.47364 0.75982
 H2521 H 0.37138 0.46867 0.80712
 H2522 H 0.39132 0.46074 0.81507
 H2523 H 0.39813 0.44247 0.77932
 H2524 H 0.37802 0.45021 0.77152
 H2525 H 0.35534 0.44686 0.77579
 H2526 H 0.33486 0.45424 0.76858
 H2527 H 0.34291 0.49112 0.78366
 H2528 H 0.36326 0.48361 0.79110
 H2529 H 0.32115 0.48911 0.78794
 H2530 H 0.30046 0.49616 0.78125
 H2531 H 0.30391 0.47421 0.74714
 H2532 H 0.32480 0.46747 0.75366
 C2533 C 0.37609 -0.03688 0.28602
 C2534 C 0.38397 -0.02914 0.29327
 C2535 C 0.39544 -0.03367 0.29779
 C2536 C 0.39925 -0.04609 0.29526
 C2537 C 0.39137 -0.05377 0.28790
 C2538 C 0.37996 -0.04920 0.28330
 C2539 C 0.36373 -0.03225 0.28157
 C2540 C 0.35963 -0.03475 0.26924
 C2541 C 0.34779 -0.03076 0.26520
 C2542 C 0.33973 -0.02428 0.27346
 C2543 C 0.34391 -0.02169 0.28577
 C2544 C 0.35579 -0.02559 0.28977
 C2545 C 0.32691 -0.02050 0.26937
 C2546 C 0.32162 -0.00909 0.27346
 C2547 C 0.30938 -0.00581 0.27004
 C2548 C 0.30216 -0.01381 0.26237
 C2549 C 0.30752 -0.02511 0.25809
 C2550 C 0.31973 -0.02844 0.26159
 H2551 H 0.38129 -0.01954 0.29537
 H2552 H 0.40133 -0.02740 0.30322
 H2553 H 0.39384 -0.06344 0.28592
 H2554 H 0.37399 -0.05543 0.27788
 H2555 H 0.36563 -0.03973 0.26268
 H2556 H 0.34497 -0.03271 0.25559
 H2557 H 0.33788 -0.01692 0.29245
 H2558 H 0.35865 -0.02369 0.29938
 H2559 H 0.32696 -0.00266 0.27928
 H2560 H 0.30557 0.00301 0.27343
 H2561 H 0.30220 -0.03155 0.25226
 H2562 H 0.32342 -0.03739 0.25844
 C2563 C 0.12422 0.53752 0.71353
 C2564 C 0.11610 0.52973 0.70662
 C2565 C 0.10466 0.53435 0.70213
 C2566 C 0.10112 0.54691 0.70434
 C2567 C 0.10925 0.55465 0.71135
 C2568 C 0.12064 0.54999 0.71593
 C2569 C 0.13653 0.53275 0.71797
 C2570 C 0.14078 0.53544 0.73022
 C2571 C 0.15255 0.53125 0.73426
 C2572 C 0.16039 0.52437 0.72611
 C2573 C 0.15606 0.52161 0.71388
 C2574 C 0.14424 0.52570 0.70989
 C2575 C 0.17314 0.52038 0.73020
 C2576 C 0.17815 0.50877 0.72632
 C2577 C 0.19033 0.50527 0.72975
 C2578 C 0.19776 0.51325 0.73723
 C2579 C 0.19268 0.52475 0.74131
 C2580 C 0.18054 0.52829 0.73779
 H2581 H 0.11856 0.52002 0.70478
 H2582 H 0.09856 0.52803 0.69699
 H2583 H 0.10699 0.56441 0.71308
 H2584 H 0.12680 0.55625 0.72109
 H2585 H 0.13495 0.54072 0.73670
 H2586 H 0.15548 0.53335 0.74381
 H2587 H 0.16192 0.51654 0.70728
 H2588 H 0.14127 0.52364 0.70034
 H2589 H 0.17263 0.50235 0.72066
 H2590 H 0.19392 0.49630 0.72652
 H2591 H 0.19818 0.53118 0.74699
 H2592 H 0.17708 0.53739 0.74078
 C2593 C 0.12702 0.03941 0.21001
 C2594 C 0.11917 0.03170 0.20270
 C2595 C 0.10769 0.03622 0.19821
 C2596 C 0.10383 0.04860 0.20085
 C2597 C 0.11171 0.05628 0.20820
 C2598 C 0.12315 0.05172 0.21277
 C2599 C 0.13928 0.03466 0.21463
 C2600 C 0.14317 0.03702 0.22706
 C2601 C 0.15478 0.03265 0.23136
 C2602 C 0.16282 0.02592 0.22329
 C2603 C 0.15890 0.02357 0.21084
 C2604 C 0.14725 0.02785 0.20658
 C2605 C 0.17531 0.02150 0.22777
 C2606 C 0.18015 0.00985 0.22379
 C2607 C 0.19203 0.00587 0.22772
 C2608 C 0.19931 0.01338 0.23581
 C2609 C 0.19441 0.02495 0.23993
 C2610 C 0.18258 0.02898 0.23591
 H2611 H 0.12186 0.02211 0.20057
 H2612 H 0.10180 0.02994 0.19279
 H2613 H 0.10919 0.06592 0.21026
 H2614 H 0.12909 0.05792 0.21824
 H2615 H 0.13714 0.04210 0.23351
 H2616 H 0.15740 0.03444 0.24106
 H2617 H 0.16494 0.01863 0.20430
 H2618 H 0.14456 0.02606 0.19689
 H2619 H 0.17472 0.00376 0.21769
 H2620 H 0.19549 -0.00313 0.22443
 H2621 H 0.19982 0.03103 0.24606
 H2622 H 0.17924 0.03809 0.23899
 C2623 C 0.62350 0.71115 0.21200
 C2624 C 0.62729 0.71417 0.19969
 C2625 C 0.63870 0.70974 0.19494
 C2626 C 0.64665 0.70226 0.20244
 C2627 C 0.64287 0.69936 0.21482
 C2628 C 0.63140 0.70371 0.21953
 C2629 C 0.61125 0.71563 0.21689
 C2630 C 0.60327 0.70744 0.22351
 C2631 C 0.59152 0.71153 0.22772
 C2632 C 0.58754 0.72395 0.22549
 C2633 C 0.59565 0.73219 0.21905
 C2634 C 0.60734 0.72806 0.21476
 C2635 C 0.57489 0.72821 0.22962
 C2636 C 0.56778 0.73636 0.22199
 C2637 C 0.55582 0.74024 0.22573
 C2638 C 0.55062 0.73600 0.23715
 C2639 C 0.55771 0.72786 0.24480
 C2640 C 0.56973 0.72406 0.24110
 H2641 H 0.62129 0.71974 0.19362
 H2642 H 0.64114 0.71199 0.18531
 H2643 H 0.64881 0.69382 0.22095
 H2644 H 0.62877 0.70137 0.22911
 H2645 H 0.60598 0.69776 0.22515
 H2646 H 0.58545 0.70488 0.23246
 H2647 H 0.59299 0.74188 0.21739
 H2648 H 0.61339 0.73462 0.20984
 H2649 H 0.57135 0.73955 0.21299
 H2650 H 0.55056 0.74639 0.21954
 H2651 H 0.55400 0.72447 0.25368
 H2652 H 0.57501 0.71793 0.24729
 C2653 C 0.12345 0.71062 0.71204
 C2654 C 0.12733 0.71361 0.69975
 C2655 C 0.13880 0.70923 0.69511
 C2656 C 0.14672 0.70181 0.70270
 C2657 C 0.14285 0.69892 0.71505
 C2658 C 0.13132 0.70323 0.71965
 C2659 C 0.11115 0.71508 0.71682
 C2660 C 0.10316 0.70690 0.72344
 C2661 C 0.09139 0.71099 0.72757
 C2662 C 0.08738 0.72338 0.72526
 C2663 C 0.09549 0.73161 0.71880
 C2664 C 0.10721 0.72749 0.71459
 C2665 C 0.07472 0.72765 0.72934
 C2666 C 0.06760 0.73572 0.72166
 C2667 C 0.05564 0.73963 0.72538
 C2668 C 0.05046 0.73549 0.73685
 C2669 C 0.05757 0.72741 0.74455
 C2670 C 0.06957 0.72357 0.74086
 H2671 H 0.12136 0.71914 0.69361
 H2672 H 0.14131 0.71146 0.68549
 H2673 H 0.14876 0.69342 0.72125
 H2674 H 0.12863 0.70091 0.72922
 H2675 H 0.10590 0.69724 0.72515
 H2676 H 0.08531 0.70435 0.73233
 H2677 H 0.09281 0.74128 0.71707
 H2678 H 0.11327 0.73404 0.70967
 H2679 H 0.07116 0.73885 0.71262
 H2680 H 0.05038 0.74575 0.71916
 H2681 H 0.05388 0.72409 0.75347
 H2682 H 0.07487 0.71750 0.74709
 C2683 C 0.62600 0.21176 0.53740
 C2684 C 0.62213 0.19937 0.53498
 C2685 C 0.61056 0.19502 0.53940
 C2686 C 0.60253 0.20299 0.54627
 C2687 C 0.60637 0.21546 0.54853
 C2688 C 0.61799 0.21977 0.54419
 C2689 C 0.63844 0.21625 0.53302
 C2690 C 0.64621 0.22325 0.54110
 C2691 C 0.65806 0.22725 0.53711
 C2692 C 0.66238 0.22441 0.52490
 C2693 C 0.65453 0.21750 0.51678
 C2694 C 0.64272 0.21342 0.52082
 C2695 C 0.67506 0.22852 0.52072
 C2696 C 0.68251 0.22068 0.51310
 C2697 C 0.69453 0.22443 0.50937
 C2698 C 0.69942 0.23609 0.51324
 C2699 C 0.69197 0.24396 0.52081
 C2700 C 0.67991 0.24024 0.52445
 H2701 H 0.62819 0.19295 0.52991
 H2702 H 0.60806 0.18532 0.53765
 H2703 H 0.60037 0.22194 0.55357
 H2704 H 0.62067 0.22942 0.54604
 H2705 H 0.64322 0.22541 0.55062
 H2706 H 0.66393 0.23234 0.54368
 H2707 H 0.65746 0.21534 0.50725
 H2708 H 0.63685 0.20817 0.51435
 H2709 H 0.67917 0.21150 0.51023
 H2710 H 0.70007 0.21808 0.50365
 H2711 H 0.69542 0.25303 0.52390
 H2712 H 0.67436 0.24661 0.53014
 C2713 C 0.62740 0.70997 0.03967
 C2714 C 0.61939 0.71763 0.04685
 C2715 C 0.60802 0.71293 0.05143
 C2716 C 0.60443 0.70041 0.04904
 C2717 C 0.61246 0.69279 0.04178
 C2718 C 0.62378 0.69753 0.03711
 C2719 C 0.63958 0.71487 0.03502
 C2720 C 0.64353 0.71244 0.02262
 C2721 C 0.65512 0.71687 0.01832
 C2722 C 0.66307 0.72374 0.02637
 C2723 C 0.65907 0.72619 0.03877
 C2724 C 0.64744 0.72185 0.04302
 C2725 C 0.67557 0.72815 0.02192
 C2726 C 0.68038 0.73984 0.02583
 C2727 C 0.69227 0.74381 0.02193
 C2728 C 0.69960 0.73624 0.01395
 C2729 C 0.69474 0.72463 0.00991
 C2730 C 0.68289 0.72061 0.01389
 H2731 H 0.62188 0.72731 0.04882
 H2732 H 0.60200 0.71916 0.05677
 H2733 H 0.61016 0.68307 0.03990
 H2734 H 0.62985 0.69138 0.03173
 H2735 H 0.63758 0.70721 0.01621
 H2736 H 0.65779 0.71500 0.00865
 H2737 H 0.66505 0.73125 0.04529
 H2738 H 0.64470 0.72371 0.05268
 H2739 H 0.67491 0.74598 0.03184
 H2740 H 0.69571 0.75284 0.02517
 H2741 H 0.70019 0.71850 0.00386
 H2742 H 0.67959 0.71146 0.01088
 C2743 C 0.12216 0.04119 0.03963
 C2744 C 0.13007 0.04863 0.03210
 C2745 C 0.14143 0.05316 0.03687
 C2746 C 0.14512 0.05044 0.04932
 C2747 C 0.13714 0.04301 0.05685
 C2748 C 0.12583 0.03841 0.05204
 C2749 C 0.11008 0.03641 0.03460
 C2750 C 0.10639 0.02392 0.03682
 C2751 C 0.09490 0.01947 0.03229
 C2752 C 0.08678 0.02744 0.02553
 C2753 C 0.09054 0.03992 0.02325
 C2754 C 0.10208 0.04434 0.02770
 C2755 C 0.07435 0.02282 0.02110
 C2756 C 0.06943 0.02674 0.00943
 C2757 C 0.05759 0.02266 0.00546
 C2758 C 0.05044 0.01449 0.01302
 C2759 C 0.05543 0.01046 0.02461
 C2760 C 0.06721 0.01461 0.02862
 H2761 H 0.12753 0.05079 0.02245
 H2762 H 0.14740 0.05864 0.03072
 H2763 H 0.13951 0.04091 0.06653
 H2764 H 0.11982 0.03284 0.05811
 H2765 H 0.11246 0.01756 0.04195
 H2766 H 0.09242 0.00974 0.03400
 H2767 H 0.08444 0.04637 0.01827
 H2768 H 0.10463 0.05405 0.02599
 H2769 H 0.07475 0.03291 0.00332
 H2770 H 0.05404 0.02591 -0.00354
 H2771 H 0.05012 0.00428 0.03074
 H2772 H 0.07061 0.01159 0.03775
 C2773 C 0.12574 0.53834 0.53602
 C2774 C 0.13342 0.54621 0.52870
 C2775 C 0.14480 0.55070 0.53348
 C2776 C 0.14872 0.54750 0.54574
 C2777 C 0.14103 0.53956 0.55302
 C2778 C 0.12970 0.53500 0.54820
 C2779 C 0.11350 0.53383 0.53112
 C2780 C 0.10976 0.52129 0.53294
 C2781 C 0.09803 0.51716 0.52873
 C2782 C 0.08973 0.52550 0.52268
 C2783 C 0.09357 0.53801 0.52073
 C2784 C 0.10534 0.54211 0.52486
 C2785 C 0.07700 0.52128 0.51876
 C2786 C 0.07153 0.52575 0.50755
 C2787 C 0.05935 0.52218 0.50417
 C2788 C 0.05239 0.51398 0.51188
 C2789 C 0.05794 0.50934 0.52297
 C2790 C 0.07007 0.51298 0.52639
 H2791 H 0.13066 0.54881 0.51922
 H2792 H 0.15056 0.55660 0.52752
 H2793 H 0.14359 0.53706 0.56257
 H2794 H 0.12388 0.52909 0.55413
 H2795 H 0.11595 0.51466 0.53757
 H2796 H 0.09548 0.50741 0.53017
 H2797 H 0.08734 0.54474 0.51631
 H2798 H 0.10792 0.55187 0.52348
 H2799 H 0.07667 0.53200 0.50136
 H2800 H 0.05539 0.52588 0.49553
 H2801 H 0.05281 0.50310 0.52918
 H2802 H 0.07390 0.50952 0.53519
 C2803 C 0.62585 0.03771 0.53611
 C2804 C 0.62985 0.03441 0.54829
 C2805 C 0.64122 0.03894 0.55303
 C2806 C 0.64892 0.04681 0.54568
 C2807 C 0.64496 0.04995 0.53341
 C2808 C 0.63354 0.04549 0.52871
 C2809 C 0.61354 0.03327 0.53130
 C2810 C 0.60541 0.04160 0.52506
 C2811 C 0.59359 0.03758 0.52101
 C2812 C 0.58965 0.02511 0.52303
 C2813 C 0.59791 0.01673 0.52907
 C2814 C 0.60970 0.02078 0.53321
 C2815 C 0.57688 0.02098 0.51915
 C2816 C 0.56991 0.01273 0.52680
 C2817 C 0.55774 0.00917 0.52341
 C2818 C 0.55220 0.01384 0.51232
 C2819 C 0.55921 0.02198 0.50459
 C2820 C 0.57141 0.02547 0.50795
 H2821 H 0.62402 0.02857 0.55427
 H2822 H 0.64380 0.03648 0.56259
 H2823 H 0.65072 0.05579 0.52739
 H2824 H 0.63075 0.04805 0.51922
 H2825 H 0.60807 0.05133 0.52361
 H2826 H 0.58740 0.04435 0.51659
 H2827 H 0.59529 0.00700 0.53058
 H2828 H 0.61585 0.01412 0.53784
 H2829 H 0.57373 0.00925 0.53560
 H2830 H 0.55258 0.00296 0.52964
 H2831 H 0.55526 0.02568 0.49595
 H2832 H 0.57659 0.03166 0.50173
 C2833 C 0.62336 0.53995 0.03782
 C2834 C 0.62736 0.53678 0.05003
 C2835 C 0.63878 0.54126 0.05469
 C2836 C 0.64655 0.54894 0.04720
 C2837 C 0.64257 0.55201 0.03493
 C2838 C 0.63108 0.54761 0.03031
 C2839 C 0.61110 0.53540 0.03301
 C2840 C 0.60299 0.54356 0.02652
 C2841 C 0.59127 0.53937 0.02235
 C2842 C 0.58742 0.52690 0.02450
 C2843 C 0.59563 0.51870 0.03084
 C2844 C 0.60732 0.52291 0.03509
 C2845 C 0.57482 0.52252 0.02035
 C2846 C 0.56776 0.51430 0.02794
 C2847 C 0.55585 0.51031 0.02415
 C2848 C 0.55065 0.51451 0.01272
 C2849 C 0.55770 0.52272 0.00510
 C2850 C 0.56966 0.52665 0.00886
 H2851 H 0.62150 0.53105 0.05610
 H2852 H 0.64139 0.53888 0.06425
 H2853 H 0.64837 0.55772 0.02882
 H2854 H 0.62830 0.55006 0.02080
 H2855 H 0.60560 0.55328 0.02494
 H2856 H 0.58510 0.54599 0.01768
 H2857 H 0.59307 0.50897 0.03245
 H2858 H 0.61346 0.51637 0.03991
 H2859 H 0.57134 0.51112 0.03695
 H2860 H 0.55063 0.50409 0.03031
 H2861 H 0.55401 0.52610 -0.00379
 H2862 H 0.57492 0.53283 0.00270
 C2863 C 0.03936 0.03880 0.12334
 C2864 C 0.03317 0.04854 0.12972
 C2865 C 0.03774 0.05305 0.14121
 C2866 C 0.04873 0.04799 0.14673
 C2867 C 0.05477 0.03804 0.14027
 C2868 C 0.05014 0.03355 0.12878
 C2869 C 0.03466 0.03426 0.11096
 C2870 C 0.03460 0.02136 0.10808
 C2871 C 0.03031 0.01714 0.09636
 C2872 C 0.02601 0.02573 0.08725
 C2873 C 0.02605 0.03863 0.09016
 C2874 C 0.03032 0.04284 0.10187
 C2875 C 0.02163 0.02130 0.07472
 C2876 C 0.01113 0.02685 0.06891
 C2877 C 0.00723 0.02294 0.05696
 C2878 C 0.01371 0.01337 0.05053
 C2879 C 0.02413 0.00773 0.05640
 C2880 C 0.02803 0.01165 0.06835
 H2881 H 0.02470 0.05264 0.12586
 H2882 H 0.03248 0.06053 0.14559
 H2883 H 0.06317 0.03365 0.14384
 H2884 H 0.05520 0.02610 0.12402
 H2885 H 0.03773 0.01451 0.11495
 H2886 H 0.03023 0.00713 0.09447
 H2887 H 0.02300 0.04550 0.08327
 H2888 H 0.03045 0.05286 0.10373
 H2889 H 0.00590 0.03419 0.07364
 H2890 H -0.00084 0.02749 0.05274
 H2891 H 0.02940 0.00039 0.05170
 H2892 H 0.03625 0.00731 0.07250
 C2893 C 0.03773 0.53718 0.62560
 C2894 C 0.05009 0.53464 0.62941
 C2895 C 0.05464 0.53924 0.64087
 C2896 C 0.04690 0.54644 0.64885
 C2897 C 0.03446 0.54881 0.64508
 C2898 C 0.02994 0.54428 0.63357
 C2899 C 0.03307 0.53268 0.61322
 C2900 C 0.02621 0.54074 0.60531
 C2901 C 0.02220 0.53667 0.59344
 C2902 C 0.02487 0.52441 0.58925
 C2903 C 0.03159 0.51630 0.59727
 C2904 C 0.03569 0.52041 0.60910
 C2905 C 0.02091 0.52023 0.57647
 C2906 C 0.02878 0.51253 0.56914
 C2907 C 0.02526 0.50896 0.55695
 C2908 C 0.01383 0.51308 0.55177
 C2909 C 0.00589 0.52065 0.55915
 C2910 C 0.00937 0.52414 0.57137
 H2911 H 0.05635 0.52934 0.62337
 H2912 H 0.06432 0.53739 0.64331
 H2913 H 0.02815 0.55410 0.65106
 H2914 H 0.02032 0.54624 0.63093
 H2915 H 0.02422 0.55031 0.60817
 H2916 H 0.01726 0.54325 0.58743
 H2917 H 0.03362 0.50673 0.59444
 H2918 H 0.04082 0.51395 0.61508
 H2919 H 0.03782 0.50951 0.57268
 H2920 H 0.03165 0.50321 0.55149
 H2921 H -0.00302 0.52392 0.55547
 H2922 H 0.00298 0.52988 0.57683
 C2923 C 0.53700 0.03568 0.62655
 C2924 C 0.54675 0.02955 0.63294
 C2925 C 0.55115 0.03408 0.64449
 C2926 C 0.54596 0.04501 0.65005
 C2927 C 0.53593 0.05094 0.64362
 C2928 C 0.53155 0.04634 0.63208
 C2929 C 0.53272 0.03116 0.61401
 C2930 C 0.51989 0.03105 0.61089
 C2931 C 0.51594 0.02712 0.59895
 C2932 C 0.52472 0.02323 0.58986
 C2933 C 0.53754 0.02326 0.59302
 C2934 C 0.54149 0.02717 0.60495
 C2935 C 0.52060 0.01943 0.57702
 C2936 C 0.52636 0.00929 0.57081
 C2937 C 0.52283 0.00603 0.55855
 C2938 C 0.51343 0.01283 0.55220
 C2939 C 0.50752 0.02285 0.55850
 C2940 C 0.51107 0.02611 0.57077
 H2941 H 0.55098 0.02115 0.62902
 H2942 H 0.55864 0.02887 0.64889
 H2943 H 0.53143 0.05928 0.64722
 H2944 H 0.52408 0.05136 0.62731
 H2945 H 0.51290 0.03390 0.61773
 H2946 H 0.50598 0.02703 0.59686
 H2947 H 0.54456 0.02053 0.58616
 H2948 H 0.55145 0.02735 0.60700
 H2949 H 0.53361 0.00384 0.57544
 H2950 H 0.52755 -0.00177 0.55401
 H2951 H 0.50028 0.02833 0.55390
 H2952 H 0.50656 0.03407 0.57523
 C2953 C 0.53942 0.53918 0.12290
 C2954 C 0.53161 0.54630 0.13082
 C2955 C 0.53608 0.55086 0.14234
 C2956 C 0.54851 0.54850 0.14616
 C2957 C 0.55630 0.54133 0.13821
 C2958 C 0.55179 0.53669 0.12674
 C2959 C 0.53477 0.53453 0.11057
 C2960 C 0.53739 0.52221 0.10661
 C2961 C 0.53317 0.51790 0.09489
 C2962 C 0.52632 0.52586 0.08684
 C2963 C 0.52368 0.53819 0.09085
 C2964 C 0.52782 0.54246 0.10260
 C2965 C 0.52209 0.52140 0.07424
 C2966 C 0.51040 0.52515 0.06933
 C2967 C 0.50659 0.52125 0.05734
 C2968 C 0.51431 0.51342 0.05001
 C2969 C 0.52592 0.50953 0.05497
 C2970 C 0.52978 0.51351 0.06692
 H2971 H 0.52198 0.54821 0.12816
 H2972 H 0.52973 0.55613 0.14829
 H2973 H 0.56597 0.53950 0.14069
 H2974 H 0.55807 0.53138 0.12073
 H2975 H 0.54259 0.51585 0.11264
 H2976 H 0.53518 0.50829 0.09221
 H2977 H 0.51864 0.54465 0.08480
 H2978 H 0.52581 0.55206 0.10535
 H2979 H 0.50415 0.53104 0.07479
 H2980 H 0.49756 0.52437 0.05383
 H2981 H 0.53216 0.50361 0.04952
 H2982 H 0.53892 0.51062 0.07030
 C2983 C 0.21325 0.53610 0.62323
 C2984 C 0.20098 0.53328 0.61929
 C2985 C 0.19635 0.53803 0.60792
 C2986 C 0.20391 0.54565 0.60016
 C2987 C 0.21628 0.54826 0.60403
 C2988 C 0.22088 0.54358 0.61545
 C2989 C 0.21791 0.53157 0.63561
 C2990 C 0.22449 0.53971 0.64367
 C2991 C 0.22842 0.53564 0.65556
 C2992 C 0.22595 0.52329 0.65963
 C2993 C 0.21953 0.51509 0.65145
 C2994 C 0.21552 0.51920 0.63959
 C2995 C 0.22978 0.51912 0.67246
 C2996 C 0.22193 0.51126 0.67964
 C2997 C 0.22530 0.50773 0.69188
 C2998 C 0.23656 0.51204 0.69726
 C2999 C 0.24449 0.51977 0.69003
 C3000 C 0.24116 0.52323 0.67776
 H3001 H 0.19484 0.52768 0.62518
 H3002 H 0.18673 0.53598 0.60540
 H3003 H 0.22245 0.55389 0.59821
 H3004 H 0.23043 0.54576 0.61819
 H3005 H 0.22630 0.54935 0.64091
 H3006 H 0.23313 0.54228 0.66169
 H3007 H 0.21767 0.50546 0.65419
 H3008 H 0.21060 0.51268 0.63350
 H3009 H 0.21300 0.50808 0.67593
 H3010 H 0.21892 0.50184 0.69722
 H3011 H 0.25328 0.52319 0.69385
 H3012 H 0.24754 0.52910 0.67242
 C3013 C 0.21066 0.03764 0.12559
 C3014 C 0.21357 0.05002 0.12203
 C3015 C 0.20897 0.05500 0.11075
 C3016 C 0.20142 0.04769 0.10269
 C3017 C 0.19868 0.03522 0.10621
 C3018 C 0.20320 0.03028 0.11755
 C3019 C 0.21521 0.03255 0.13778
 C3020 C 0.20707 0.02582 0.14573
 C3021 C 0.21119 0.02152 0.15748
 C3022 C 0.22357 0.02377 0.16150
 C3023 C 0.23177 0.03029 0.15341
 C3024 C 0.22762 0.03467 0.14171
 C3025 C 0.22783 0.01961 0.17420
 C3026 C 0.23590 0.02723 0.18139
 C3027 C 0.23975 0.02348 0.19341
 C3028 C 0.23556 0.01205 0.19858
 C3029 C 0.22750 0.00441 0.19140
 C3030 C 0.22372 0.00812 0.17933
 H3031 H 0.21916 0.05596 0.12814
 H3032 H 0.21112 0.06469 0.10853
 H3033 H 0.19309 0.02923 0.10017
 H3034 H 0.20094 0.02065 0.12000
 H3035 H 0.19741 0.02419 0.14300
 H3036 H 0.20456 0.01671 0.16355
 H3037 H 0.24143 0.03196 0.15609
 H3038 H 0.23414 0.03968 0.13569
 H3039 H 0.23906 0.03624 0.17785
 H3040 H 0.24585 0.02966 0.19873
 H3041 H 0.22413 -0.00447 0.19508
 H3042 H 0.21765 0.00194 0.17398
 C3043 C 0.71150 0.21284 0.62529
 C3044 C 0.71951 0.20603 0.63328
 C3045 C 0.71522 0.20162 0.64493
 C3046 C 0.70278 0.20382 0.64881
 C3047 C 0.69481 0.21073 0.64080
 C3048 C 0.69913 0.21522 0.62920
 C3049 C 0.71596 0.21726 0.61280
 C3050 C 0.71313 0.22946 0.60856
 C3051 C 0.71723 0.23355 0.59672
 C3052 C 0.72415 0.22550 0.58882
 C3053 C 0.72695 0.21329 0.59309
 C3054 C 0.72294 0.20925 0.60497
 C3055 C 0.72833 0.22974 0.57612
 C3056 C 0.74005 0.22601 0.57131
 C3057 C 0.74383 0.22968 0.55924
 C3058 C 0.73603 0.23727 0.55172
 C3059 C 0.72438 0.24116 0.55659
 C3060 C 0.72056 0.23740 0.56863
 H3061 H 0.72914 0.20421 0.63057
 H3062 H 0.72170 0.19656 0.65092
 H3063 H 0.68512 0.21244 0.64333
 H3064 H 0.69271 0.22031 0.62315
 H3065 H 0.70789 0.23588 0.61448
 H3066 H 0.71508 0.24307 0.59382
 H3067 H 0.73204 0.20676 0.58717
 H3068 H 0.72509 0.19974 0.60792
 H3069 H 0.74636 0.22031 0.57690
 H3070 H 0.75290 0.22659 0.55581
 H3071 H 0.71810 0.24691 0.55101
 H3072 H 0.71139 0.24028 0.57195
 C3073 C 0.71117 0.71343 0.12480
 C3074 C 0.71894 0.70637 0.13282
 C3075 C 0.71439 0.70183 0.14432
 C3076 C 0.70191 0.70415 0.14802
 C3077 C 0.69419 0.71133 0.14001
 C3078 C 0.69878 0.71595 0.12856
 C3079 C 0.71585 0.71791 0.11242
 C3080 C 0.71323 0.73017 0.10825
 C3081 C 0.71740 0.73427 0.09645
 C3082 C 0.72420 0.72616 0.08850
 C3083 C 0.72686 0.71391 0.09272
 C3084 C 0.72278 0.70985 0.10457
 C3085 C 0.72834 0.73038 0.07578
 C3086 C 0.73998 0.72653 0.07085
 C3087 C 0.74370 0.73019 0.05876
 C3088 C 0.73592 0.73789 0.05133
 C3089 C 0.72435 0.74188 0.05631
 C3090 C 0.72059 0.73813 0.06836
 H3091 H 0.72859 0.70444 0.13023
 H3092 H 0.72068 0.69655 0.15033
 H3093 H 0.68449 0.71314 0.14239
 H3094 H 0.69254 0.72122 0.12248
 H3095 H 0.70804 0.73662 0.11419
 H3096 H 0.71538 0.74383 0.09359
 H3097 H 0.73186 0.70734 0.08677
 H3098 H 0.72477 0.70029 0.10747
 H3099 H 0.74627 0.72074 0.07638
 H3100 H 0.75270 0.72701 0.05525
 H3101 H 0.71808 0.74771 0.05079
 H3102 H 0.71148 0.74110 0.07176
 C3103 C 0.54047 0.71009 0.12736
 C3104 C 0.55292 0.71249 0.12376
 C3105 C 0.55763 0.70778 0.11241
 C3106 C 0.54995 0.70063 0.10432
 C3107 C 0.53743 0.69836 0.10790
 C3108 C 0.53276 0.70299 0.11931
 C3109 C 0.53559 0.71482 0.13956
 C3110 C 0.52851 0.70695 0.14747
 C3111 C 0.52419 0.71129 0.15912
 C3112 C 0.52676 0.72365 0.16309
 C3113 C 0.53373 0.73157 0.15508
 C3114 C 0.53815 0.72718 0.14348
 C3115 C 0.52234 0.72820 0.17559
 C3116 C 0.52991 0.73618 0.18295
 C3117 C 0.52588 0.74024 0.19481
 C3118 C 0.51423 0.73634 0.19965
 C3119 C 0.50663 0.72841 0.19228
 C3120 C 0.51061 0.72444 0.18038
 H3121 H 0.55911 0.71779 0.12988
 H3122 H 0.56736 0.70955 0.11012
 H3123 H 0.53116 0.69311 0.10184
 H3124 H 0.52307 0.70114 0.12179
 H3125 H 0.52656 0.69733 0.14476
 H3126 H 0.51906 0.70487 0.16514
 H3127 H 0.53569 0.74120 0.15773
 H3128 H 0.54345 0.73349 0.13749
 H3129 H 0.53909 0.73908 0.17967
 H3130 H 0.53203 0.74623 0.20029
 H3131 H 0.49757 0.72528 0.19570
 H3132 H 0.50445 0.71848 0.17488
 C3133 C 0.03984 0.71177 0.62630
 C3134 C 0.03200 0.70496 0.61813
 C3135 C 0.03656 0.70053 0.60660
 C3136 C 0.04910 0.70269 0.60302
 C3137 C 0.05690 0.70957 0.61122
 C3138 C 0.05230 0.71410 0.62270
 C3139 C 0.03509 0.71628 0.63864
 C3140 C 0.03782 0.72850 0.64285
 C3141 C 0.03353 0.73265 0.65458
 C3142 C 0.02650 0.72464 0.66243
 C3143 C 0.02374 0.71242 0.65818
 C3144 C 0.02794 0.70830 0.64639
 C3145 C 0.02222 0.72893 0.67508
 C3146 C 0.01047 0.72521 0.67985
 C3147 C 0.00660 0.72898 0.69187
 C3148 C 0.01434 0.73665 0.69936
 C3149 C 0.02602 0.74049 0.69454
 C3150 C 0.02993 0.73664 0.68257
 H3151 H 0.02230 0.70319 0.62061
 H3152 H 0.03020 0.69549 0.60046
 H3153 H 0.06665 0.71125 0.60894
 H3154 H 0.05859 0.71918 0.62890
 H3155 H 0.04317 0.73489 0.63698
 H3156 H 0.03563 0.74220 0.65745
 H3157 H 0.01856 0.70591 0.66406
 H3158 H 0.02585 0.69878 0.64346
 H3159 H 0.00420 0.71946 0.67426
 H3160 H -0.00248 0.72590 0.69527
 H3161 H 0.03228 0.74629 0.70011
 H3162 H 0.03913 0.73950 0.67930
 C3163 C 0.53821 0.62664 0.21034
 C3164 C 0.53600 0.62307 0.19779
 C3165 C 0.54064 0.61168 0.19316
 C3166 C 0.54754 0.60353 0.20101
 C3167 C 0.54960 0.60708 0.21363
 C3168 C 0.54504 0.61852 0.21822
 C3169 C 0.53359 0.63889 0.21513
 C3170 C 0.54143 0.64664 0.22241
 C3171 C 0.53721 0.65835 0.22664
 C3172 C 0.52500 0.66252 0.22379
 C3173 C 0.51711 0.65466 0.21663
 C3174 C 0.52138 0.64301 0.21231
 C3175 C 0.52060 0.67509 0.22809
 C3176 C 0.51295 0.68255 0.22029
 C3177 C 0.50905 0.69448 0.22420
 C3178 C 0.51279 0.69928 0.23596
 C3179 C 0.52038 0.69180 0.24380
 C3180 C 0.52419 0.67983 0.23994
 H3181 H 0.53090 0.62923 0.19147
 H3182 H 0.53903 0.60942 0.18335
 H3183 H 0.55465 0.60098 0.22002
 H3184 H 0.54675 0.62097 0.22798
 H3185 H 0.55094 0.64378 0.22457
 H3186 H 0.54361 0.66424 0.23192
 H3187 H 0.50759 0.65747 0.21445
 H3188 H 0.51509 0.63714 0.20685
 H3189 H 0.51019 0.67930 0.21102
 H3190 H 0.50331 0.70004 0.21787
 H3191 H 0.52336 0.69518 0.25296
 H3192 H 0.52989 0.67426 0.24627
 C3193 C 0.03777 0.62555 0.71191
 C3194 C 0.04464 0.61753 0.71986
 C3195 C 0.04905 0.60596 0.71544
 C3196 C 0.04679 0.60219 0.70292
 C3197 C 0.03986 0.61024 0.69500
 C3198 C 0.03537 0.62175 0.69946
 C3199 C 0.03329 0.63793 0.71652
 C3200 C 0.02109 0.64209 0.71373
 C3201 C 0.01696 0.65386 0.71787
 C3202 C 0.02497 0.66178 0.72480
 C3203 C 0.03717 0.65756 0.72762
 C3204 C 0.04126 0.64575 0.72357
 C3205 C 0.02071 0.67446 0.72892
 C3206 C 0.02441 0.67937 0.74066
 C3207 C 0.02069 0.69142 0.74437
 C3208 C 0.01308 0.69881 0.73647
 C3209 C 0.00923 0.69385 0.72481
 C3210 C 0.01304 0.68184 0.72106
 H3211 H 0.04648 0.62016 0.72955
 H3212 H 0.05413 0.59995 0.72188
 H3213 H 0.03811 0.60780 0.68526
 H3214 H 0.03025 0.62783 0.69308
 H3215 H 0.01470 0.63617 0.70845
 H3216 H 0.00743 0.65671 0.71573
 H3217 H 0.04367 0.66350 0.73274
 H3218 H 0.05078 0.64285 0.72570
 H3219 H 0.03014 0.67387 0.74704
 H3220 H 0.02376 0.69493 0.75345
 H3221 H 0.00346 0.69933 0.71844
 H3222 H 0.01018 0.67845 0.71187
 C3223 C 0.04006 0.12265 0.03988
 C3224 C 0.03716 0.12661 0.05217
 C3225 C 0.04181 0.13800 0.05679
 C3226 C 0.04940 0.14576 0.04920
 C3227 C 0.05220 0.14181 0.03685
 C3228 C 0.04762 0.13037 0.03226
 C3229 C 0.03532 0.11044 0.03507
 C3230 C 0.04328 0.10232 0.02836
 C3231 C 0.03891 0.09070 0.02406
 C3232 C 0.02643 0.08697 0.02629
 C3233 C 0.01844 0.09517 0.03291
 C3234 C 0.02285 0.10675 0.03729
 C3235 C 0.02184 0.07451 0.02186
 C3236 C 0.01359 0.06735 0.02933
 C3237 C 0.00950 0.05552 0.02531
 C3238 C 0.01364 0.05053 0.01376
 C3239 C 0.02182 0.05771 0.00625
 C3240 C 0.02583 0.06958 0.01023
 H3241 H 0.03150 0.12077 0.05830
 H3242 H 0.03962 0.14059 0.06640
 H3243 H 0.05781 0.14760 0.03065
 H3244 H 0.04986 0.12762 0.02269
 H3245 H 0.05299 0.10485 0.02668
 H3246 H 0.04538 0.08453 0.01921
 H3247 H 0.00872 0.09269 0.03460
 H3248 H 0.01646 0.11290 0.04229
 H3249 H 0.01049 0.07077 0.03843
 H3250 H 0.00330 0.05018 0.03139
 H3251 H 0.02514 0.05418 -0.00273
 H3252 H 0.03201 0.07493 0.00415
 C3253 C 0.03811 0.62571 0.53764
 C3254 C 0.03562 0.62927 0.55014
 C3255 C 0.04042 0.64051 0.55497
 C3256 C 0.04775 0.64852 0.54737
 C3257 C 0.05006 0.64500 0.53479
 C3258 C 0.04535 0.63369 0.53000
 C3259 C 0.03340 0.61355 0.53270
 C3260 C 0.04133 0.60562 0.52573
 C3261 C 0.03708 0.59392 0.52152
 C3262 C 0.02475 0.58992 0.52409
 C3263 C 0.01675 0.59798 0.53087
 C3264 C 0.02104 0.60964 0.53518
 C3265 C 0.02039 0.57726 0.52001
 C3266 C 0.01252 0.57004 0.52782
 C3267 C 0.00882 0.55795 0.52424
 C3268 C 0.01300 0.55273 0.51281
 C3269 C 0.02073 0.56000 0.50491
 C3270 C 0.02433 0.57214 0.50844
 H3271 H 0.03021 0.62320 0.55628
 H3272 H 0.03860 0.64275 0.56474
 H3273 H 0.05545 0.65100 0.52858
 H3274 H 0.04727 0.63124 0.52028
 H3275 H 0.05095 0.60833 0.52384
 H3276 H 0.04357 0.58787 0.51653
 H3277 H 0.00713 0.59531 0.53281
 H3278 H 0.01468 0.61565 0.54039
 H3279 H 0.00947 0.57360 0.53688
 H3280 H 0.00295 0.55257 0.53061
 H3281 H 0.02404 0.55629 0.49600
 H3282 H 0.03021 0.57751 0.50209
 C3283 C 0.53712 0.12633 0.53705
 C3284 C 0.53453 0.13017 0.54945
 C3285 C 0.53919 0.14157 0.55402
 C3286 C 0.54647 0.14947 0.54627
 C3287 C 0.54888 0.14568 0.53379
 C3288 C 0.54430 0.13421 0.52925
 C3289 C 0.53257 0.11400 0.53238
 C3290 C 0.54062 0.10604 0.52559
 C3291 C 0.53651 0.09422 0.52157
 C3292 C 0.52422 0.09013 0.52416
 C3293 C 0.51611 0.09820 0.53081
 C3294 C 0.52027 0.10998 0.53492
 C3295 C 0.51999 0.07739 0.52020
 C3296 C 0.51216 0.07017 0.52806
 C3297 C 0.50856 0.05802 0.52456
 C3298 C 0.51278 0.05276 0.51316
 C3299 C 0.52047 0.06003 0.50523
 C3300 C 0.52399 0.07221 0.50868
 H3301 H 0.52917 0.12419 0.55572
 H3302 H 0.53731 0.14403 0.56373
 H3303 H 0.55423 0.15159 0.52746
 H3304 H 0.54629 0.13155 0.51960
 H3305 H 0.55021 0.10882 0.52366
 H3306 H 0.54308 0.08817 0.51669
 H3307 H 0.50652 0.09546 0.53277
 H3308 H 0.51382 0.11601 0.54000
 H3309 H 0.50907 0.07377 0.53709
 H3310 H 0.50271 0.05265 0.53095
 H3311 H 0.52381 0.05629 0.49634
 H3312 H 0.52983 0.07759 0.50229
 C3313 C 0.53960 0.62313 0.03934
 C3314 C 0.53723 0.62661 0.05189
 C3315 C 0.54202 0.63785 0.05673
 C3316 C 0.54920 0.64595 0.04910
 C3317 C 0.55142 0.64250 0.03648
 C3318 C 0.54672 0.63120 0.03168
 C3319 C 0.53481 0.61102 0.03434
 C3320 C 0.54262 0.60319 0.02713
 C3321 C 0.53826 0.59159 0.02275
 C3322 C 0.52594 0.58761 0.02539
 C3323 C 0.51807 0.59556 0.03246
 C3324 C 0.52248 0.60711 0.03693
 C3325 C 0.52141 0.57511 0.02101
 C3326 C 0.51356 0.56775 0.02871
 C3327 C 0.50957 0.55587 0.02476
 C3328 C 0.51342 0.55101 0.01306
 C3329 C 0.52118 0.55839 0.00531
 C3330 C 0.52509 0.57032 0.00921
 H3331 H 0.53191 0.62048 0.05806
 H3332 H 0.54028 0.64004 0.06653
 H3333 H 0.55670 0.64857 0.03025
 H3334 H 0.54855 0.62882 0.02192
 H3335 H 0.55222 0.60590 0.02514
 H3336 H 0.54464 0.58562 0.01753
 H3337 H 0.50847 0.59290 0.03448
 H3338 H 0.51621 0.61305 0.04233
 H3339 H 0.51072 0.57104 0.03794
 H3340 H 0.50369 0.55038 0.03103
 H3341 H 0.52426 0.55496 -0.00380
 H3342 H 0.53095 0.57582 0.00295
 C3343 C 0.71036 0.12697 0.54037
 C3344 C 0.70038 0.12097 0.53421
 C3345 C 0.69597 0.10930 0.53838
 C3346 C 0.70141 0.10322 0.54892
 C3347 C 0.71152 0.10938 0.55500
 C3348 C 0.71590 0.12103 0.55078
 C3349 C 0.71493 0.13943 0.53600
 C3350 C 0.72785 0.14211 0.53562
 C3351 C 0.73212 0.15385 0.53150
 C3352 C 0.72358 0.16317 0.52767
 C3353 C 0.71066 0.16049 0.52808
 C3354 C 0.70639 0.14876 0.53219
 C3355 C 0.72808 0.17565 0.52328
 C3356 C 0.72232 0.18163 0.51298
 C3357 C 0.72636 0.19348 0.50899
 C3358 C 0.73629 0.19963 0.51519
 C3359 C 0.74214 0.19359 0.52543
 C3360 C 0.73808 0.18173 0.52942
 H3361 H 0.69603 0.12523 0.52603
 H3362 H 0.68834 0.10519 0.53313
 H3363 H 0.71614 0.10542 0.56313
 H3364 H 0.72352 0.12551 0.55584
 H3365 H 0.73467 0.13506 0.53832
 H3366 H 0.74214 0.15556 0.53112
 H3367 H 0.70382 0.16754 0.52541
 H3368 H 0.69637 0.14706 0.53258
 H3369 H 0.71471 0.17711 0.50794
 H3370 H 0.72164 0.19783 0.50106
 H3371 H 0.74977 0.19807 0.53046
 H3372 H 0.74262 0.17743 0.53748
 C3373 C 0.71029 0.62749 0.04004
 C3374 C 0.71297 0.62341 0.05235
 C3375 C 0.70832 0.61192 0.05675
 C3376 C 0.70095 0.60421 0.04891
 C3377 C 0.69837 0.60829 0.03655
 C3378 C 0.70295 0.61981 0.03219
 C3379 C 0.71503 0.63979 0.03546
 C3380 C 0.70714 0.64790 0.02865
 C3381 C 0.71154 0.65956 0.02446
 C3382 C 0.72396 0.66334 0.02691
 C3383 C 0.73187 0.65516 0.03367
 C3384 C 0.72744 0.64354 0.03793
 C3385 C 0.72857 0.67580 0.02254
 C3386 C 0.73666 0.68302 0.03012
 C3387 C 0.74073 0.69487 0.02615
 C3388 C 0.73674 0.69984 0.01453
 C3389 C 0.72875 0.69258 0.00689
 C3390 C 0.72475 0.68069 0.01083
 H3391 H 0.71846 0.62922 0.05866
 H3392 H 0.71033 0.60923 0.06637
 H3393 H 0.69294 0.60252 0.03016
 H3394 H 0.70089 0.62265 0.02260
 H3395 H 0.69749 0.64533 0.02677
 H3396 H 0.70512 0.66571 0.01950
 H3397 H 0.74154 0.65768 0.03554
 H3398 H 0.73377 0.63740 0.04303
 H3399 H 0.73963 0.67963 0.03928
 H3400 H 0.74680 0.70026 0.03232
 H3401 H 0.72555 0.69608 -0.00214
 H3402 H 0.71871 0.67530 0.00465
 C3403 C 0.21162 0.62447 0.71139
 C3404 C 0.21427 0.62835 0.69902
 C3405 C 0.20949 0.63969 0.69440
 C3406 C 0.20202 0.64746 0.70207
 C3407 C 0.19950 0.64360 0.71452
 C3408 C 0.20420 0.63221 0.71910
 C3409 C 0.21639 0.61226 0.71616
 C3410 C 0.20846 0.60416 0.72295
 C3411 C 0.21281 0.59249 0.72714
 C3412 C 0.22523 0.58869 0.72472
 C3413 C 0.23320 0.59689 0.71806
 C3414 C 0.22881 0.60852 0.71378
 C3415 C 0.22972 0.57611 0.72889
 C3416 C 0.23777 0.56897 0.72119
 C3417 C 0.24154 0.55692 0.72484
 C3418 C 0.23729 0.55168 0.73624
 C3419 C 0.22943 0.55889 0.74404
 C3420 C 0.22573 0.57098 0.74044
 H3421 H 0.21982 0.62248 0.69282
 H3422 H 0.21147 0.64221 0.68472
 H3423 H 0.19400 0.64942 0.72079
 H3424 H 0.20215 0.62952 0.72873
 H3425 H 0.19879 0.60673 0.72476
 H3426 H 0.20634 0.58633 0.73202
 H3427 H 0.24287 0.59435 0.71622
 H3428 H 0.23516 0.61465 0.70870
 H3429 H 0.24087 0.57254 0.71215
 H3430 H 0.24753 0.55159 0.71855
 H3431 H 0.22605 0.55517 0.75293
 H3432 H 0.21973 0.57630 0.74671
 C3433 C 0.21070 0.12247 0.21022
 C3434 C 0.20357 0.13034 0.21808
 C3435 C 0.19905 0.14185 0.21362
 C3436 C 0.20147 0.14572 0.20116
 C3437 C 0.20864 0.13781 0.19333
 C3438 C 0.21323 0.12634 0.19782
 C3439 C 0.21534 0.11017 0.21489
 C3440 C 0.22766 0.10624 0.21229
 C3441 C 0.23197 0.09457 0.21654
 C3442 C 0.22403 0.08653 0.22342
 C3443 C 0.21170 0.09050 0.22603
 C3444 C 0.20743 0.10221 0.22186
 C3445 C 0.22850 0.07398 0.22771
 C3446 C 0.22475 0.06911 0.23945
 C3447 C 0.22864 0.05716 0.24330
 C3448 C 0.23647 0.04984 0.23556
 C3449 C 0.24036 0.05477 0.22389
 C3450 C 0.23639 0.06668 0.22000
 H3451 H 0.20161 0.12765 0.22773
 H3452 H 0.19377 0.14776 0.22000
 H3453 H 0.21052 0.14033 0.18363
 H3454 H 0.21856 0.12038 0.19151
 H3455 H 0.23401 0.11227 0.20708
 H3456 H 0.24158 0.09191 0.21455
 H3457 H 0.20525 0.08446 0.23109
 H3458 H 0.19783 0.10493 0.22384
 H3459 H 0.21885 0.07456 0.24571
 H3460 H 0.22552 0.05367 0.25237
 H3461 H 0.24628 0.04933 0.21764
 H3462 H 0.23929 0.07005 0.21081
 C3463 C 0.71382 1.12572 0.71286
 C3464 C 0.71612 1.12945 0.70037
 C3465 C 0.71153 1.14091 0.69586
 C3466 C 0.70461 1.14897 0.70377
 C3467 C 0.70251 1.14528 0.71635
 C3468 C 0.70701 1.13377 0.72081
 C3469 C 0.71827 1.11333 0.71747
 C3470 C 0.71027 1.10553 0.72450
 C3471 C 0.71427 1.09365 0.72844
 C3472 C 0.72642 1.08934 0.72553
 C3473 C 0.73449 1.09727 0.71866
 C3474 C 0.73044 1.10911 0.71462
 C3475 C 0.73052 1.07653 0.72938
 C3476 C 0.73803 1.06919 0.72133
 C3477 C 0.74155 1.05700 0.72475
 C3478 C 0.73756 1.05180 0.73626
 C3479 C 0.73016 1.05917 0.74438
 C3480 C 0.72673 1.07140 0.74101
 H3481 H 0.72120 1.12335 0.69399
 H3482 H 0.71318 1.14329 0.68608
 H3483 H 0.69744 1.15131 0.72279
 H3484 H 0.70525 1.13119 0.73054
 H3485 H 0.70078 1.10849 0.72667
 H3486 H 0.70773 1.08772 0.73351
 H3487 H 0.74397 1.09435 0.71645
 H3488 H 0.73685 1.11501 0.70935
 H3489 H 0.74094 1.07275 0.71222
 H3490 H 0.74716 1.05155 0.71822
 H3491 H 0.72700 1.05548 0.75336
 H3492 H 0.72113 1.07686 0.74753
 C3493 C 0.71141 0.62479 0.21081
 C3494 C 0.70406 0.63258 0.21854
 C3495 C 0.69935 0.64396 0.21395
 C3496 C 0.70178 0.64777 0.20147
 C3497 C 0.70920 0.63995 0.19377
 C3498 C 0.71399 0.62863 0.19841
 C3499 C 0.71618 0.61259 0.21560
 C3500 C 0.72859 0.60882 0.21316
 C3501 C 0.73298 0.59720 0.21747
 C3502 C 0.72504 0.58905 0.22423
 C3503 C 0.71264 0.59288 0.22669
 C3504 C 0.70828 0.60454 0.22247
 C3505 C 0.72954 0.57649 0.22845
 C3506 C 0.72560 0.57143 0.24004
 C3507 C 0.72930 0.55936 0.24370
 C3508 C 0.73713 0.55209 0.23591
 C3509 C 0.74133 0.55727 0.22445
 C3510 C 0.73754 0.56930 0.22075
 H3511 H 0.70207 0.62993 0.22820
 H3512 H 0.69390 0.64981 0.22023
 H3513 H 0.71111 0.64244 0.18407
 H3514 H 0.71949 0.62271 0.19219
 H3515 H 0.73492 0.61492 0.20802
 H3516 H 0.74264 0.59464 0.21559
 H3517 H 0.70619 0.58676 0.23164
 H3518 H 0.69863 0.60714 0.22433
 H3519 H 0.71963 0.57680 0.24631
 H3520 H 0.72596 0.55570 0.25263
 H3521 H 0.74728 0.55189 0.21817
 H3522 H 0.74061 0.57281 0.21167
 C3523 C 0.53755 0.12378 0.71241
 C3524 C 0.54719 0.11743 0.71876
 C3525 C 0.55167 0.10590 0.71434
 C3526 C 0.54665 0.10030 0.70333
 C3527 C 0.53680 0.10673 0.69712
 C3528 C 0.53235 0.11826 0.70160
 C3529 C 0.53308 0.13622 0.71693
 C3530 C 0.52022 0.13923 0.71679
 C3531 C 0.51608 0.15103 0.72088
 C3532 C 0.52470 0.16007 0.72520
 C3533 C 0.53754 0.15703 0.72537
 C3534 C 0.54168 0.14525 0.72129
 C3535 C 0.52038 0.17269 0.72936
 C3536 C 0.52587 0.17854 0.73989
 C3537 C 0.52221 0.19063 0.74350
 C3538 C 0.51295 0.19717 0.73667
 C3539 C 0.50729 0.19121 0.72628
 C3540 C 0.51096 0.17911 0.72268
 H3541 H 0.55124 0.12134 0.72728
 H3542 H 0.55901 0.10147 0.71976
 H3543 H 0.53253 0.10315 0.68863
 H3544 H 0.52499 0.12301 0.69640
 H3545 H 0.51335 0.13241 0.71365
 H3546 H 0.50611 0.15302 0.72080
 H3547 H 0.54444 0.16387 0.72842
 H3548 H 0.55166 0.14330 0.72131
 H3549 H 0.53301 0.17376 0.74535
 H3550 H 0.52674 0.19488 0.75158
 H3551 H 0.50016 0.19597 0.72078
 H3552 H 0.50665 0.17491 0.71444
 C3553 C 1.03722 0.12406 0.21227
 C3554 C 1.03471 0.12051 0.19978
 C3555 C 1.03956 0.10932 0.19490
 C3556 C 1.04697 0.10135 0.20245
 C3557 C 1.04932 0.10485 0.21503
 C3558 C 1.04454 0.11610 0.21986
 C3559 C 1.03246 0.13620 0.21724
 C3560 C 1.04036 0.14413 0.22426
 C3561 C 1.03609 0.15583 0.22844
 C3562 C 1.02378 0.15984 0.22577
 C3563 C 1.01582 0.15177 0.21895
 C3564 C 1.02013 0.14011 0.21469
 C3565 C 1.01942 0.17251 0.22978
 C3566 C 1.01169 0.17976 0.22186
 C3567 C 1.00803 0.19188 0.22537
 C3568 C 1.01207 0.19709 0.23686
 C3569 C 1.01965 0.18978 0.24487
 C3570 C 1.02324 0.17763 0.24140
 H3571 H 1.02925 0.12656 0.19366
 H3572 H 1.03773 0.10709 0.18513
 H3573 H 1.05478 0.09887 0.22118
 H3574 H 1.04649 0.11855 0.22959
 H3575 H 1.04997 0.14142 0.22621
 H3576 H 1.04255 0.16188 0.23347
 H3577 H 1.00622 0.15446 0.21693
 H3578 H 1.01379 0.13410 0.20944
 H3579 H 1.00875 0.17621 0.21276
 H3580 H 1.00227 0.19728 0.21892
 H3581 H 1.02286 0.19347 0.25383
 H3582 H 1.02901 0.17223 0.24783
 C3583 C 0.21084 0.62749 0.54035
 C3584 C 0.21348 0.62331 0.55263
 C3585 C 0.20900 0.61170 0.55685
 C3586 C 0.20184 0.60393 0.54886
 C3587 C 0.19930 0.60812 0.53653
 C3588 C 0.20370 0.61978 0.53235
 C3589 C 0.21543 0.63990 0.53593
 C3590 C 0.20747 0.64799 0.52919
 C3591 C 0.21174 0.65974 0.52513
 C3592 C 0.22412 0.66363 0.52763
 C3593 C 0.23210 0.65547 0.53433
 C3594 C 0.22779 0.64376 0.53848
 C3595 C 0.22863 0.67617 0.52335
 C3596 C 0.23674 0.68336 0.53094
 C3597 C 0.24080 0.69522 0.52700
 C3598 C 0.23679 0.70023 0.51541
 C3599 C 0.22874 0.69302 0.50779
 C3600 C 0.22476 0.68112 0.51168
 H3601 H 0.21883 0.62915 0.55905
 H3602 H 0.21098 0.60893 0.56646
 H3603 H 0.19403 0.60233 0.53002
 H3604 H 0.20166 0.62270 0.52278
 H3605 H 0.19784 0.64532 0.52726
 H3606 H 0.20526 0.66587 0.52022
 H3607 H 0.24175 0.65807 0.53623
 H3608 H 0.23418 0.63764 0.54352
 H3609 H 0.23974 0.67993 0.54007
 H3610 H 0.24690 0.70057 0.53317
 H3611 H 0.22552 0.69657 0.49877
 H3612 H 0.21870 0.67576 0.50549
 C3613 C 0.21075 0.12706 1.03997
 C3614 C 0.20324 0.11938 1.03228
 C3615 C 0.19856 0.10797 1.03684
 C3616 C 0.20120 0.10402 1.04922
 C3617 C 0.20879 0.11171 1.05687
 C3618 C 0.21354 0.12308 1.05228
 C3619 C 0.21550 0.13930 1.03524
 C3620 C 0.22793 0.14304 1.03759
 C3621 C 0.23231 0.15468 1.03333
 C3622 C 0.22433 0.16289 1.02670
 C3623 C 0.21190 0.15910 1.02432
 C3624 C 0.20755 0.14743 1.02851
 C3625 C 0.22886 0.17543 1.02246
 C3626 C 0.22496 0.18046 1.01083
 C3627 C 0.22887 0.19242 1.00704
 C3628 C 0.23688 0.19960 1.01474
 C3629 C 0.24095 0.19450 1.02627
 C3630 C 0.23696 0.18258 1.03010
 H3631 H 0.20108 0.12214 1.02269
 H3632 H 0.19295 0.10220 1.03060
 H3633 H 0.21086 0.10912 1.06651
 H3634 H 0.21917 0.12890 1.05846
 H3635 H 0.23430 0.13689 1.04262
 H3636 H 0.24199 0.15721 1.03514
 H3637 H 0.20543 0.16528 1.01946
 H3638 H 0.19787 0.14487 1.02672
 H3639 H 0.21890 0.17512 1.00462
 H3640 H 0.22562 0.19603 0.99807
 H3641 H 0.24702 0.19983 1.03248
 H3642 H 0.23999 0.17909 1.03919
 C3643 C 0.21176 0.71327 0.62561
 C3644 C 0.19936 0.71578 0.62930
 C3645 C 0.19472 0.71114 0.64072
 C3646 C 0.20241 0.70396 0.64877
 C3647 C 0.21490 0.70166 0.64513
 C3648 C 0.21951 0.70622 0.63366
 C3649 C 0.21650 0.71776 0.61325
 C3650 C 0.22343 0.70970 0.60541
 C3651 C 0.22754 0.71376 0.59357
 C3652 C 0.22489 0.72602 0.58935
 C3653 C 0.21808 0.73413 0.59729
 C3654 C 0.21389 0.73003 0.60909
 C3655 C 0.22904 0.73024 0.57663
 C3656 C 0.22130 0.73800 0.56922
 C3657 C 0.22507 0.74174 0.55716
 C3658 C 0.23664 0.73774 0.55219
 C3659 C 0.24441 0.73004 0.55962
 C3660 C 0.24068 0.72638 0.57172
 H3661 H 0.19313 0.72105 0.62320
 H3662 H 0.18500 0.71294 0.64305
 H3663 H 0.22117 0.69639 0.65116
 H3664 H 0.22916 0.70429 0.63111
 H3665 H 0.22541 0.70014 0.60831
 H3666 H 0.23255 0.70719 0.58762
 H3667 H 0.21607 0.74370 0.59444
 H3668 H 0.20869 0.73648 0.61501
 H3669 H 0.21219 0.74097 0.57261
 H3670 H 0.21881 0.74758 0.55165
 H3671 H 0.25341 0.72685 0.55611
 H3672 H 0.24697 0.72059 0.57724
 C3673 C 0.21155 0.21158 1.12513
 C3674 C 0.21782 0.20185 1.13145
 C3675 C 0.21328 0.19720 1.14290
 C3676 C 0.20223 0.20210 1.14843
 C3677 C 0.19615 0.21210 1.14208
 C3678 C 0.20074 0.21673 1.13063
 C3679 C 0.21612 0.21615 1.11271
 C3680 C 0.21602 0.22905 1.10980
 C3681 C 0.22016 0.23329 1.09802
 C3682 C 0.22447 0.22472 1.08890
 C3683 C 0.22459 0.21183 1.09184
 C3684 C 0.22047 0.20760 1.10361
 C3685 C 0.22871 0.22916 1.07631
 C3686 C 0.23921 0.22370 1.07045
 C3687 C 0.24300 0.22761 1.05846
 C3688 C 0.23639 0.23710 1.05204
 C3689 C 0.22596 0.24267 1.05797
 C3690 C 0.22217 0.23874 1.06996
 H3691 H 0.22633 0.19785 1.12756
 H3692 H 0.21863 0.18979 1.14730
 H3693 H 0.18765 0.21632 1.14564
 H3694 H 0.19561 0.22416 1.12591
 H3695 H 0.21288 0.23588 1.11668
 H3696 H 0.22012 0.24329 1.09611
 H3697 H 0.22764 0.20497 1.08494
 H3698 H 0.22046 0.19759 1.10548
 H3699 H 0.24455 0.21642 1.07517
 H3700 H 0.25109 0.22313 1.05421
 H3701 H 0.22059 0.24994 1.05328
 H3702 H 0.21394 0.24302 1.07415
 C3703 C 0.71234 0.53653 0.12345
 C3704 C 0.71994 0.54386 0.11551
 C3705 C 0.71520 0.54861 0.10417
 C3706 C 0.70271 0.54623 0.10056
 C3707 C 0.69517 0.53875 0.10848
 C3708 C 0.69995 0.53392 0.11976
 C3709 C 0.71716 0.53192 0.13573
 C3710 C 0.71467 0.51959 0.13975
 C3711 C 0.71881 0.51543 0.15155
 C3712 C 0.72545 0.52355 0.15962
 C3713 C 0.72804 0.53585 0.15550
 C3714 C 0.72398 0.53997 0.14368
 C3715 C 0.72938 0.51934 0.17241
 C3716 C 0.74086 0.52332 0.17759
 C3717 C 0.74426 0.51987 0.18984
 C3718 C 0.73630 0.51227 0.19718
 C3719 C 0.72494 0.50806 0.19191
 C3720 C 0.72150 0.51159 0.17969
 H3721 H 0.72958 0.54587 0.11805
 H3722 H 0.72136 0.55412 0.09823
 H3723 H 0.68547 0.53687 0.10617
 H3724 H 0.69382 0.52844 0.12578
 H3725 H 0.70956 0.51313 0.13374
 H3726 H 0.71685 0.50583 0.15432
 H3727 H 0.73292 0.54243 0.16156
 H3728 H 0.72588 0.54959 0.14088
 H3729 H 0.74725 0.52911 0.17217
 H3730 H 0.75312 0.52321 0.19357
 H3731 H 0.71855 0.50228 0.19733
 H3732 H 0.71250 0.50852 0.17609
 C3733 C 0.71343 1.03619 0.62335
 C3734 C 0.70121 1.03320 0.61941
 C3735 C 0.69650 1.03791 0.60805
 C3736 C 0.70395 1.04566 0.60031
 C3737 C 0.71628 1.04843 0.60418
 C3738 C 0.72095 1.04380 0.61559
 C3739 C 0.71818 1.03167 0.63570
 C3740 C 0.72463 1.03989 0.64380
 C3741 C 0.72864 1.03582 0.65566
 C3742 C 0.72639 1.02342 0.65967
 C3743 C 0.72011 1.01514 0.65145
 C3744 C 0.71601 1.01924 0.63962
 C3745 C 0.73028 1.01925 0.67248
 C3746 C 0.72255 1.01120 0.67960
 C3747 C 0.72596 1.00767 0.69182
 C3748 C 0.73713 1.01216 0.69726
 C3749 C 0.74494 1.02007 0.69009
 C3750 C 0.74158 1.02353 0.67783
 H3751 H 0.69515 1.02749 0.62529
 H3752 H 0.68691 1.03573 0.60553
 H3753 H 0.72238 1.05416 0.59838
 H3754 H 0.73047 1.04610 0.61833
 H3755 H 0.72626 1.04957 0.64109
 H3756 H 0.73324 1.04251 0.66182
 H3757 H 0.71841 1.00547 0.65414
 H3758 H 0.71120 1.01267 0.63349
 H3759 H 0.71369 1.00789 0.67586
 H3760 H 0.71967 1.00165 0.69712
 H3761 H 0.75365 1.02364 0.69396
 H3762 H 0.74785 1.02956 0.67253
 C3763 C 0.53813 0.21385 0.62408
 C3764 C 0.55057 0.21623 0.62042
 C3765 C 0.55515 0.21167 0.60895
 C3766 C 0.54736 0.20472 0.60081
 C3767 C 0.53483 0.20255 0.60442
 C3768 C 0.53029 0.20701 0.61595
 C3769 C 0.53345 0.21823 0.63649
 C3770 C 0.52647 0.21013 0.64425
 C3771 C 0.52244 0.21407 0.65615
 C3772 C 0.52519 0.22626 0.66052
 C3773 C 0.53203 0.23442 0.65265
 C3774 C 0.53616 0.23043 0.64079
 C3775 C 0.52120 0.23030 0.67334
 C3776 C 0.52906 0.23790 0.68079
 C3777 C 0.52551 0.24133 0.69300
 C3778 C 0.51406 0.23716 0.69811
 C3779 C 0.50613 0.22968 0.69062
 C3780 C 0.50963 0.22635 0.67837
 H3781 H 0.55687 0.22134 0.62660
 H3782 H 0.56489 0.21337 0.60664
 H3783 H 0.52847 0.19746 0.59832
 H3784 H 0.52060 0.20519 0.61847
 H3785 H 0.52441 0.20062 0.64125
 H3786 H 0.51742 0.20745 0.66204
 H3787 H 0.53412 0.24393 0.65561
 H3788 H 0.54139 0.23692 0.63492
 H3789 H 0.53812 0.24095 0.67732
 H3790 H 0.53189 0.24702 0.69855
 H3791 H 0.49721 0.22638 0.69423
 H3792 H 0.50324 0.22068 0.67282
 C3793 C 1.03753 0.21202 0.12455
 C3794 C 1.03138 0.20230 0.11808
 C3795 C 1.03622 0.19759 0.10679
 C3796 C 1.04746 0.20241 0.10157
 C3797 C 1.05338 0.21243 0.10803
 C3798 C 1.04849 0.21712 0.11932
 C3799 C 1.03271 0.21655 0.13688
 C3800 C 1.03282 0.22943 0.13987
 C3801 C 1.02860 0.23360 0.15163
 C3802 C 1.02419 0.22499 0.16067
 C3803 C 1.02402 0.21212 0.15763
 C3804 C 1.02822 0.20796 0.14588
 C3805 C 1.02003 0.22932 0.17332
 C3806 C 1.00958 0.22379 0.17920
 C3807 C 1.00603 0.22739 0.19136
 C3808 C 1.01284 0.23664 0.19792
 C3809 C 1.02315 0.24236 0.19193
 C3810 C 1.02670 0.23874 0.17976
 H3811 H 1.02275 0.19834 0.12175
 H3812 H 1.03097 0.19017 0.10228
 H3813 H 1.06199 0.21662 0.10470
 H3814 H 1.05352 0.22455 0.12415
 H3815 H 1.03607 0.23629 0.13306
 H3816 H 1.02869 0.24359 0.15362
 H3817 H 1.02090 0.20522 0.16446
 H3818 H 1.02823 0.19796 0.14394
 H3819 H 1.00413 0.21664 0.17440
 H3820 H 0.99801 0.22282 0.19565
 H3821 H 1.02864 0.24948 0.19671
 H3822 H 1.03488 0.24308 0.17555
 C3823 C 0.62618 0.21227 0.71445
 C3824 C 0.63411 0.22016 0.70742
 C3825 C 0.64558 0.21572 0.70284
 C3826 C 0.64935 0.20323 0.70509
 C3827 C 0.64143 0.19539 0.71223
 C3828 C 0.63001 0.19987 0.71689
 C3829 C 0.61382 0.21684 0.71895
 C3830 C 0.60967 0.21409 0.73122
 C3831 C 0.59786 0.21812 0.73532
 C3832 C 0.58991 0.22492 0.72721
 C3833 C 0.59414 0.22772 0.71496
 C3834 C 0.60597 0.22377 0.71090
 C3835 C 0.57717 0.22885 0.73138
 C3836 C 0.57211 0.24045 0.72753
 C3837 C 0.55992 0.24387 0.73096
 C3838 C 0.55251 0.23583 0.73841
 C3839 C 0.55765 0.22436 0.74249
 C3840 C 0.56982 0.22089 0.73898
 H3841 H 0.63146 0.22981 0.70554
 H3842 H 0.65152 0.22210 0.69760
 H3843 H 0.64388 0.18568 0.71399
 H3844 H 0.62400 0.19353 0.72214
 H3845 H 0.61560 0.20889 0.73767
 H3846 H 0.59500 0.21599 0.74488
 H3847 H 0.58818 0.23272 0.70838
 H3848 H 0.60886 0.22586 0.70133
 H3849 H 0.57759 0.24691 0.72188
 H3850 H 0.55628 0.25282 0.72773
 H3851 H 0.55217 0.21790 0.74815
 H3852 H 0.57333 0.21181 0.74195
 C3853 C 1.12455 0.21058 0.21265
 C3854 C 1.13239 0.20296 0.22005
 C3855 C 1.14371 0.19840 0.21519
 C3856 C 1.14739 0.20125 0.20277
 C3857 C 1.13951 0.20893 0.19540
 C3858 C 1.12826 0.21357 0.20030
 C3859 C 1.11241 0.21521 0.21768
 C3860 C 1.10866 0.22771 0.21566
 C3861 C 1.09703 0.23196 0.22001
 C3862 C 1.08883 0.22377 0.22639
 C3863 C 1.09267 0.21129 0.22854
 C3864 C 1.10436 0.20708 0.22428
 C3865 C 1.07617 0.22809 0.23043
 C3866 C 1.07083 0.22384 0.24179
 C3867 C 1.05871 0.22751 0.24528
 C3868 C 1.05168 0.23560 0.23753
 C3869 C 1.05710 0.24003 0.22628
 C3870 C 1.06916 0.23628 0.22275
 H3871 H 1.12983 0.20064 0.22966
 H3872 H 1.14961 0.19272 0.22123
 H3873 H 1.14188 0.21116 0.18574
 H3874 H 1.12229 0.21928 0.19433
 H3875 H 1.11478 0.23423 0.21076
 H3876 H 1.09448 0.24168 0.21841
 H3877 H 1.08652 0.20467 0.23323
 H3878 H 1.10695 0.19736 0.22583
 H3879 H 1.07604 0.21768 0.24802
 H3880 H 1.05484 0.22399 0.25404
 H3881 H 1.05191 0.24618 0.22002
 H3882 H 1.07287 0.23956 0.21383
 C3883 C 0.12699 0.71133 0.53880
 C3884 C 0.12318 0.69896 0.53619
 C3885 C 0.11173 0.69441 0.54073
 C3886 C 0.10376 0.70216 0.54791
 C3887 C 0.10753 0.71460 0.55036
 C3888 C 0.11903 0.71912 0.54590
 C3889 C 0.13931 0.71603 0.53430
 C3890 C 0.14715 0.72294 0.54237
 C3891 C 0.15890 0.72711 0.53825
 C3892 C 0.16304 0.72454 0.52592
 C3893 C 0.15510 0.71773 0.51781
 C3894 C 0.14339 0.71347 0.52197
 C3895 C 0.17564 0.72879 0.52162
 C3896 C 0.18300 0.72111 0.51375
 C3897 C 0.19495 0.72498 0.50992
 C3898 C 0.19987 0.73657 0.51395
 C3899 C 0.19250 0.74428 0.52177
 C3900 C 0.18051 0.74046 0.52551
 H3901 H 0.12921 0.69270 0.53088
 H3902 H 0.10928 0.68472 0.53882
 H3903 H 0.10156 0.72093 0.55564
 H3904 H 0.12166 0.72875 0.54791
 H3905 H 0.14431 0.72489 0.55198
 H3906 H 0.16485 0.73212 0.54483
 H3907 H 0.15789 0.71577 0.50819
 H3908 H 0.13746 0.70830 0.51550
 H3909 H 0.17965 0.71198 0.51075
 H3910 H 0.20043 0.71875 0.50401
 H3911 H 0.19598 0.75330 0.52498
 H3912 H 0.17502 0.74669 0.53140
 C3913 C 0.12756 0.20977 1.04039
 C3914 C 0.11984 0.20232 1.03268
 C3915 C 0.10837 0.19778 1.03717
 C3916 C 0.10438 0.20050 1.04953
 C3917 C 0.11215 0.20797 1.05723
 C3918 C 0.12357 0.21258 1.05269
 C3919 C 0.13980 0.21449 1.03568
 C3920 C 0.14355 0.22693 1.03806
 C3921 C 0.15517 0.23132 1.03379
 C3922 C 0.16334 0.22334 1.02712
 C3923 C 0.15954 0.21090 1.02471
 C3924 C 0.14788 0.20655 1.02891
 C3925 C 0.17583 0.22791 1.02285
 C3926 C 0.18080 0.22408 1.01118
 C3927 C 0.19268 0.22813 1.00731
 C3928 C 0.19984 0.23619 1.01499
 C3929 C 0.19482 0.24013 1.02659
 C3930 C 0.18298 0.23601 1.03049
 H3931 H 0.12261 0.20015 1.02310
 H3932 H 0.10256 0.19226 1.03090
 H3933 H 0.10953 0.21008 1.06685
 H3934 H 0.12943 0.21815 1.05891
 H3935 H 0.13743 0.23331 1.04311
 H3936 H 0.15770 0.24102 1.03562
 H3937 H 0.16568 0.20444 1.01980
 H3938 H 0.14530 0.19686 1.02709
 H3939 H 0.17547 0.21801 1.00497
 H3940 H 0.19624 0.22496 0.99829
 H3941 H 0.20013 0.24623 1.03280
 H3942 H 0.17953 0.23898 1.03962
 C3943 C 0.62473 0.53863 0.21210
 C3944 C 0.62119 0.55111 0.21454
 C3945 C 0.60994 0.55590 0.20975
 C3946 C 0.60191 0.54828 0.20248
 C3947 C 0.60540 0.53571 0.20023
 C3948 C 0.61671 0.53097 0.20494
 C3949 C 0.63691 0.53373 0.21678
 C3950 C 0.64473 0.52666 0.20881
 C3951 C 0.65642 0.52245 0.21303
 C3952 C 0.66052 0.52511 0.22536
 C3953 C 0.65257 0.53201 0.23339
 C3954 C 0.64092 0.53631 0.22912
 C3955 C 0.67316 0.52101 0.22968
 C3956 C 0.68049 0.52885 0.23742
 C3957 C 0.69256 0.52524 0.24109
 C3958 C 0.69764 0.51373 0.23704
 C3959 C 0.69027 0.50581 0.22944
 C3960 C 0.67816 0.50938 0.22585
 H3961 H 0.62728 0.55728 0.21989
 H3962 H 0.60771 0.56566 0.21151
 H3963 H 0.59938 0.52949 0.19490
 H3964 H 0.61914 0.52126 0.20306
 H3965 H 0.64194 0.52468 0.19919
 H3966 H 0.66238 0.51737 0.20652
 H3967 H 0.65533 0.53403 0.24300
 H3968 H 0.63500 0.54160 0.23551
 H3969 H 0.67703 0.53796 0.24038
 H3970 H 0.69801 0.53162 0.24686
 H3971 H 0.69387 0.49684 0.22622
 H3972 H 0.67270 0.50301 0.22007
 C3973 C 0.62417 1.03664 0.71340
 C3974 C 0.62029 1.03377 0.70108
 C3975 C 0.60883 1.03822 0.69648
 C3976 C 0.60092 1.04558 0.70413
 C3977 C 0.60477 1.04830 0.71653
 C3978 C 0.61629 1.04393 0.72109
 C3979 C 0.63652 1.03223 0.71810
 C3980 C 0.64449 1.04044 0.72470
 C3981 C 0.65635 1.03645 0.72868
 C3982 C 0.66048 1.02413 0.72622
 C3983 C 0.65238 1.01585 0.71981
 C3984 C 0.64057 1.01988 0.71575
 C3985 C 0.67328 1.02003 0.73005
 C3986 C 0.68040 1.01213 0.72219
 C3987 C 0.69257 1.00856 0.72557
 C3988 C 0.69796 1.01289 0.73687
 C3989 C 0.69082 1.02070 0.74480
 C3990 C 0.67861 1.02419 0.74145
 H3991 H 0.62626 1.02832 0.69489
 H3992 H 0.60634 1.03611 0.68683
 H3993 H 0.59886 1.05374 0.72278
 H3994 H 0.61898 1.04615 0.73068
 H3995 H 0.64167 1.05006 0.72650
 H3996 H 0.66241 1.04314 0.73339
 H3997 H 0.65516 1.00623 0.71798
 H3998 H 0.63454 1.01330 0.71083
 H3999 H 0.67669 1.00892 0.71324
 H4000 H 0.69784 1.00262 0.71919
 H4001 H 0.69466 1.02414 0.75360
 H4002 H 0.67332 1.03011 0.74783
 C4003 C 0.87221 0.45950 0.28980
 C4004 C 0.87598 0.46228 0.30218
 C4005 C 0.88727 0.45756 0.30694
 C4006 C 0.89511 0.45002 0.29940
 C4007 C 0.89135 0.44735 0.28696
 C4008 C 0.88001 0.45199 0.28224
 C4009 C 0.86011 0.46432 0.28487
 C4010 C 0.85202 0.45640 0.27807
 C4011 C 0.84045 0.46083 0.27372
 C4012 C 0.83676 0.47333 0.27599
 C4013 C 0.84496 0.48129 0.28265
 C4014 C 0.85648 0.47682 0.28708
 C4015 C 0.82431 0.47796 0.27163
 C4016 C 0.81724 0.48622 0.27916
 C4017 C 0.80542 0.49035 0.27522
 C4018 C 0.80034 0.48625 0.26370
 C4019 C 0.80743 0.47805 0.25613
 C4020 C 0.81930 0.47400 0.26002
 H4021 H 0.87006 0.46790 0.30827
 H4022 H 0.88970 0.45964 0.31661
 H4023 H 0.89722 0.44178 0.28079
 H4024 H 0.87739 0.44983 0.27261
 H4025 H 0.85452 0.44667 0.27637
 H4026 H 0.83429 0.45438 0.26882
 H4027 H 0.84252 0.49103 0.28437
 H4028 H 0.86262 0.48318 0.29215
 H4029 H 0.82070 0.48929 0.28825
 H4030 H 0.80016 0.49656 0.28135
 H4031 H 0.80382 0.47475 0.24717
 H4032 H 0.82457 0.46780 0.25390
 C4033 C 0.87406 0.96139 0.78832
 C4034 C 0.88188 0.95422 0.78046
 C4035 C 0.89352 0.94994 0.78480
 C4036 C 0.89756 0.95265 0.79714
 C4037 C 0.88971 0.95989 0.80497
 C4038 C 0.87813 0.96425 0.80059
 C4039 C 0.86162 0.96574 0.78382
 C4040 C 0.85756 0.97808 0.78621
 C4041 C 0.84576 0.98211 0.78211
 C4042 C 0.83770 0.97387 0.77562
 C4043 C 0.84180 0.96152 0.77322
 C4044 C 0.85365 0.95753 0.77723
 C4045 C 0.82502 0.97807 0.77148
 C4046 C 0.81996 0.97395 0.75995
 C4047 C 0.80795 0.97769 0.75619
 C4048 C 0.80075 0.98574 0.76383
 C4049 C 0.80585 0.98996 0.77530
 C4050 C 0.81782 0.98613 0.77910
 H4051 H 0.87905 0.95202 0.77091
 H4052 H 0.89938 0.94461 0.77841
 H4053 H 0.89237 0.96199 0.81458
 H4054 H 0.87221 0.96962 0.80690
 H4055 H 0.86359 0.98465 0.79113
 H4056 H 0.84300 0.99175 0.78392
 H4057 H 0.83576 0.95485 0.76845
 H4058 H 0.85647 0.94791 0.77541
 H4059 H 0.82533 0.96791 0.75375
 H4060 H 0.80434 0.97432 0.74727
 H4061 H 0.80051 0.99606 0.78147
 H4062 H 0.82132 0.98931 0.78814
 C4063 C 0.37685 0.28916 0.78895
 C4064 C 0.36898 0.28153 0.79632
 C4065 C 0.35750 0.28612 0.80075
 C4066 C 0.35367 0.29848 0.79799
 C4067 C 0.36156 0.30608 0.79056
 C4068 C 0.37300 0.30145 0.78606
 C4069 C 0.38914 0.28438 0.78444
 C4070 C 0.39313 0.28671 0.77203
 C4071 C 0.40480 0.28240 0.76785
 C4072 C 0.41280 0.27574 0.77603
 C4073 C 0.40877 0.27338 0.78844
 C4074 C 0.39706 0.27762 0.79258
 C4075 C 0.42537 0.27142 0.77170
 C4076 C 0.43025 0.25980 0.77569
 C4077 C 0.44219 0.25590 0.77187
 C4078 C 0.44951 0.26350 0.76389
 C4079 C 0.44459 0.27507 0.75979
 C4080 C 0.43268 0.27899 0.76367
 H4081 H 0.37164 0.27196 0.79855
 H4082 H 0.35159 0.27992 0.80624
 H4083 H 0.35906 0.31570 0.78841
 H4084 H 0.37896 0.30760 0.78054
 H4085 H 0.38714 0.29176 0.76550
 H4086 H 0.40751 0.28418 0.75817
 H4087 H 0.41478 0.26848 0.79505
 H4088 H 0.39430 0.27584 0.80225
 H4089 H 0.42479 0.25364 0.78170
 H4090 H 0.44567 0.24691 0.77517
 H4091 H 0.45002 0.28121 0.75374
 H4092 H 0.42932 0.28810 0.76059
 C4093 C 0.87566 0.28848 0.28779
 C4094 C 0.87195 0.30086 0.28511
 C4095 C 0.86050 0.30549 0.28956
 C4096 C 0.85244 0.29781 0.29672
 C4097 C 0.85610 0.28534 0.29920
 C4098 C 0.86760 0.28075 0.29484
 C4099 C 0.88803 0.28375 0.28347
 C4100 C 0.89577 0.27688 0.29169
 C4101 C 0.90760 0.27276 0.28777
 C4102 C 0.91192 0.27534 0.27550
 C4103 C 0.90408 0.28208 0.26724
 C4104 C 0.89229 0.28628 0.27120
 C4105 C 0.92463 0.27118 0.27141
 C4106 C 0.93204 0.27891 0.26364
 C4107 C 0.94404 0.27510 0.25992
 C4108 C 0.94896 0.26351 0.26396
 C4109 C 0.94156 0.25578 0.27173
 C4110 C 0.92952 0.25955 0.27537
 H4111 H 0.87806 0.30708 0.27984
 H4112 H 0.85814 0.31519 0.28762
 H4113 H 0.85006 0.27907 0.30447
 H4114 H 0.87016 0.27111 0.29689
 H4115 H 0.89279 0.27495 0.30126
 H4116 H 0.91347 0.26779 0.29445
 H4117 H 0.90701 0.28402 0.25765
 H4118 H 0.88644 0.29142 0.26462
 H4119 H 0.92868 0.28802 0.26060
 H4120 H 0.94953 0.28135 0.25403
 H4121 H 0.94504 0.24677 0.27496
 H4122 H 0.92399 0.25328 0.28120
 C4123 C 0.37676 0.78737 0.46493
 C4124 C 0.38454 0.79499 0.47240
 C4125 C 0.39596 0.79946 0.46769
 C4126 C 0.39982 0.79650 0.45534
 C4127 C 0.39203 0.78877 0.44793
 C4128 C 0.38067 0.78423 0.45268
 C4129 C 0.36445 0.78295 0.46973
 C4130 C 0.36051 0.77052 0.46764
 C4131 C 0.34869 0.76650 0.47172
 C4132 C 0.34051 0.77486 0.47789
 C4133 C 0.34455 0.78726 0.48012
 C4134 C 0.35640 0.79124 0.47612
 C4135 C 0.32768 0.77078 0.48166
 C4136 C 0.32224 0.77511 0.49294
 C4137 C 0.30999 0.77167 0.49620
 C4138 C 0.30293 0.76374 0.48831
 C4139 C 0.30845 0.75924 0.47714
 C4140 C 0.32065 0.76275 0.47384
 H4141 H 0.38182 0.79742 0.48193
 H4142 H 0.40179 0.80519 0.47375
 H4143 H 0.39454 0.78646 0.43832
 H4144 H 0.37478 0.77852 0.44664
 H4145 H 0.36660 0.76388 0.46289
 H4146 H 0.34598 0.75683 0.47006
 H4147 H 0.33841 0.79400 0.48465
 H4148 H 0.35914 0.80092 0.47771
 H4149 H 0.32746 0.78114 0.49928
 H4150 H 0.30606 0.77524 0.50491
 H4151 H 0.30325 0.75320 0.47079
 H4152 H 0.32446 0.75941 0.46499
 C4153 C 0.37644 0.28650 0.96416
 C4154 C 0.38439 0.29385 0.97172
 C4155 C 0.39582 0.29828 0.96699
 C4156 C 0.39950 0.29556 0.95454
 C4157 C 0.39154 0.28810 0.94703
 C4158 C 0.38018 0.28359 0.95181
 C4159 C 0.36412 0.28213 0.96900
 C4160 C 0.36003 0.26978 0.96673
 C4161 C 0.34821 0.26582 0.97086
 C4162 C 0.34017 0.27415 0.97726
 C4163 C 0.34437 0.28647 0.97965
 C4164 C 0.35623 0.29040 0.97561
 C4165 C 0.32735 0.27014 0.98111
 C4166 C 0.32205 0.27438 0.99249
 C4167 C 0.30981 0.27100 0.99583
 C4168 C 0.30260 0.26323 0.98791
 C4169 C 0.30797 0.25882 0.97664
 C4170 C 0.32017 0.26227 0.97326
 H4171 H 0.38180 0.29610 0.98134
 H4172 H 0.40178 0.30379 0.97312
 H4173 H 0.39391 0.28597 0.93735
 H4174 H 0.37414 0.27809 0.94571
 H4175 H 0.36600 0.26316 0.96181
 H4176 H 0.34539 0.25620 0.96907
 H4177 H 0.33835 0.29321 0.98435
 H4178 H 0.35908 0.30002 0.97733
 H4179 H 0.32739 0.28028 0.99885
 H4180 H 0.30599 0.27450 1.00462
 H4181 H 0.30265 0.25291 0.97027
 H4182 H 0.32386 0.25901 0.96432
 C4183 C 0.78916 0.46162 0.37372
 C4184 C 0.80161 0.46410 0.37729
 C4185 C 0.80631 0.45960 0.38874
 C4186 C 0.79863 0.45259 0.39695
 C4187 C 0.78611 0.45027 0.39341
 C4188 C 0.78145 0.45469 0.38191
 C4189 C 0.78433 0.46609 0.36140
 C4190 C 0.77725 0.45806 0.35365
 C4191 C 0.77304 0.46212 0.34185
 C4192 C 0.77574 0.47435 0.33756
 C4193 C 0.78268 0.48243 0.34542
 C4194 C 0.78697 0.47833 0.35718
 C4195 C 0.77152 0.47857 0.32487
 C4196 C 0.77927 0.48628 0.31741
 C4197 C 0.77541 0.49011 0.30541
 C4198 C 0.76375 0.48625 0.30054
 C4199 C 0.75599 0.47857 0.30800
 C4200 C 0.75981 0.47482 0.32004
 H4201 H 0.80782 0.46928 0.37108
 H4202 H 0.81604 0.46141 0.39099
 H4203 H 0.77985 0.44512 0.39956
 H4204 H 0.77176 0.45278 0.37945
 H4205 H 0.77523 0.44852 0.35660
 H4206 H 0.76792 0.45557 0.33596
 H4207 H 0.78472 0.49198 0.34253
 H4208 H 0.79226 0.48477 0.36304
 H4209 H 0.78844 0.48916 0.32072
 H4210 H 0.78168 0.49592 0.29987
 H4211 H 0.74692 0.47549 0.30456
 H4212 H 0.75352 0.46905 0.32561
 C4213 C 0.78783 0.96200 0.87460
 C4214 C 0.78505 0.94974 0.87863
 C4215 C 0.78946 0.94534 0.89023
 C4216 C 0.79669 0.95314 0.89813
 C4217 C 0.79935 0.96547 0.89411
 C4218 C 0.79501 0.96983 0.88246
 C4219 C 0.78342 0.96652 0.86213
 C4220 C 0.79155 0.97318 0.85412
 C4221 C 0.78751 0.97713 0.84222
 C4222 C 0.77521 0.97461 0.83811
 C4223 C 0.76704 0.96807 0.84621
 C4224 C 0.77111 0.96403 0.85807
 C4225 C 0.77099 0.97864 0.82536
 C4226 C 0.76308 0.97089 0.81811
 C4227 C 0.75929 0.97456 0.80604
 C4228 C 0.76340 0.98603 0.80088
 C4229 C 0.77127 0.99380 0.80814
 C4230 C 0.77497 0.99017 0.82025
 H4231 H 0.77969 0.94344 0.87268
 H4232 H 0.78741 0.93573 0.89286
 H4233 H 0.80468 0.97182 0.90001
 H4234 H 0.79715 0.97938 0.87965
 H4235 H 0.80114 0.97507 0.85694
 H4236 H 0.79412 0.98194 0.83615
 H4237 H 0.75744 0.96617 0.84344
 H4238 H 0.76460 0.95907 0.86413
 H4239 H 0.76001 0.96185 0.82166
 H4240 H 0.75333 0.96829 0.80066
 H4241 H 0.77455 1.00273 0.80448
 H4242 H 0.78089 0.99646 0.82564
 C4243 C 0.28724 0.78715 0.37454
 C4244 C 0.29454 0.77943 0.36670
 C4245 C 0.29883 0.78384 0.35506
 C4246 C 0.29602 0.79613 0.35102
 C4247 C 0.28864 0.80382 0.35888
 C4248 C 0.28426 0.79936 0.37047
 C4249 C 0.28291 0.78258 0.38702
 C4250 C 0.27056 0.78482 0.39107
 C4251 C 0.26660 0.78080 0.40297
 C4252 C 0.27493 0.77455 0.41114
 C4253 C 0.28727 0.77224 0.40701
 C4254 C 0.29120 0.77617 0.39507
 C4255 C 0.27087 0.77071 0.42401
 C4256 C 0.27518 0.75942 0.42940
 C4257 C 0.27173 0.75607 0.44167
 C4258 C 0.26378 0.76387 0.44880
 C4259 C 0.25930 0.77505 0.44334
 C4260 C 0.26284 0.77845 0.43112
 H4261 H 0.29684 0.76992 0.36954
 H4262 H 0.30428 0.77757 0.34919
 H4263 H 0.28644 0.81339 0.35624
 H4264 H 0.27878 0.80557 0.37641
 H4265 H 0.26394 0.78960 0.38498
 H4266 H 0.25697 0.78253 0.40574
 H4267 H 0.29400 0.76766 0.41313
 H4268 H 0.30082 0.77447 0.39225
 H4269 H 0.28121 0.75314 0.42412
 H4270 H 0.27528 0.74735 0.44557
 H4271 H 0.25327 0.78134 0.44860
 H4272 H 0.25952 0.78731 0.42736
 C4273 C 0.28936 0.28935 0.87607
 C4274 C 0.28673 0.30173 0.87229
 C4275 C 0.29148 0.30642 0.86094
 C4276 C 0.29890 0.29881 0.85305
 C4277 C 0.30143 0.28638 0.85682
 C4278 C 0.29675 0.28172 0.86822
 C4279 C 0.28457 0.28449 0.88827
 C4280 C 0.29244 0.27759 0.89633
 C4281 C 0.28806 0.27335 0.90800
 C4282 C 0.27566 0.27583 0.91184
 C4283 C 0.26773 0.28258 0.90366
 C4284 C 0.27216 0.28691 0.89203
 C4285 C 0.27113 0.27165 0.92443
 C4286 C 0.26318 0.27939 0.93163
 C4287 C 0.25931 0.27571 0.94367
 C4288 C 0.26338 0.26424 0.94885
 C4289 C 0.27119 0.25641 0.94159
 C4290 C 0.27498 0.26006 0.92951
 H4291 H 0.28121 0.30787 0.87825
 H4292 H 0.28951 0.31609 0.85850
 H4293 H 0.30690 0.28016 0.85091
 H4294 H 0.29879 0.27209 0.87084
 H4295 H 0.30210 0.27575 0.89374
 H4296 H 0.29448 0.26838 0.91414
 H4297 H 0.25807 0.28446 0.90622
 H4298 H 0.26583 0.29206 0.88592
 H4299 H 0.26020 0.28846 0.92810
 H4300 H 0.25339 0.28202 0.94904
 H4301 H 0.27444 0.24748 0.94527
 H4302 H 0.28092 0.25377 0.92414
 C4303 C 0.46209 0.28694 0.87517
 C4304 C 0.44988 0.28408 0.87924
 C4305 C 0.44546 0.28857 0.89080
 C4306 C 0.45319 0.29595 0.89862
 C4307 C 0.46549 0.29865 0.89458
 C4308 C 0.46987 0.29424 0.88297
 C4309 C 0.46661 0.28251 0.86270
 C4310 C 0.47321 0.29067 0.85467
 C4311 C 0.47718 0.28662 0.84279
 C4312 C 0.47472 0.27428 0.83869
 C4313 C 0.46822 0.26608 0.84680
 C4314 C 0.46417 0.27017 0.85866
 C4315 C 0.47879 0.27005 0.82596
 C4316 C 0.47111 0.26210 0.81868
 C4317 C 0.47483 0.25834 0.80662
 C4318 C 0.48628 0.26250 0.80151
 C4319 C 0.49399 0.27038 0.80881
 C4320 C 0.49031 0.27407 0.82090
 H4321 H 0.44363 0.27862 0.87333
 H4322 H 0.43589 0.28647 0.89345
 H4323 H 0.47178 0.30410 0.90043
 H4324 H 0.47939 0.29644 0.88014
 H4325 H 0.47506 0.30029 0.85747
 H4326 H 0.48195 0.29326 0.83670
 H4327 H 0.46636 0.25646 0.84405
 H4328 H 0.45924 0.26363 0.86473
 H4329 H 0.46209 0.25899 0.82220
 H4330 H 0.46861 0.25235 0.80121
 H4331 H 0.50290 0.27370 0.80519
 H4332 H 0.49655 0.28002 0.82632
 C4333 C 0.96145 0.28855 0.37449
 C4334 C 0.96903 0.29613 0.38220
 C4335 C 0.96449 0.30071 0.39369
 C4336 C 0.95220 0.29788 0.39768
 C4337 C 0.94466 0.29022 0.38996
 C4338 C 0.94925 0.28558 0.37852
 C4339 C 0.96614 0.28393 0.36216
 C4340 C 0.96391 0.27147 0.35836
 C4341 C 0.96807 0.26721 0.34661
 C4342 C 0.97448 0.27535 0.33836
 C4343 C 0.97676 0.28780 0.34222
 C4344 C 0.97267 0.29202 0.35401
 C4345 C 0.97858 0.27094 0.32570
 C4346 C 0.99004 0.27502 0.32052
 C4347 C 0.99372 0.27116 0.30848
 C4348 C 0.98608 0.26306 0.30135
 C4349 C 0.97470 0.25886 0.30658
 C4350 C 0.97098 0.26278 0.31859
 H4351 H 0.97854 0.29843 0.37940
 H4352 H 0.97064 0.30638 0.39947
 H4353 H 0.93510 0.28802 0.39257
 H4354 H 0.94313 0.27990 0.37268
 H4355 H 0.95904 0.26498 0.36454
 H4356 H 0.96636 0.25751 0.34404
 H4357 H 0.98146 0.29438 0.33602
 H4358 H 0.97436 0.30172 0.35662
 H4359 H 0.99622 0.28114 0.32582
 H4360 H 1.00258 0.27453 0.30477
 H4361 H 0.96852 0.25270 0.30130
 H4362 H 0.96200 0.25963 0.32219
 C4363 C 0.46032 0.37273 0.78909
 C4364 C 0.45286 0.38042 0.78135
 C4365 C 0.44837 0.39195 0.78577
 C4366 C 0.45115 0.39602 0.79809
 C4367 C 0.45863 0.38830 0.80581
 C4368 C 0.46319 0.37681 0.80134
 C4369 C 0.46497 0.36042 0.78446
 C4370 C 0.47739 0.35666 0.78679
 C4371 C 0.48171 0.34497 0.78259
 C4372 C 0.47367 0.33676 0.77604
 C4373 C 0.46124 0.34057 0.77369
 C4374 C 0.45696 0.35229 0.77782
 C4375 C 0.47817 0.32421 0.77181
 C4376 C 0.47422 0.31918 0.76021
 C4377 C 0.47816 0.30723 0.75639
 C4378 C 0.48622 0.30007 0.76405
 C4379 C 0.49031 0.30516 0.77557
 C4380 C 0.48630 0.31707 0.77942
 H4381 H 0.45064 0.37757 0.77180
 H4382 H 0.44283 0.39772 0.77948
 H4383 H 0.46079 0.39098 0.81540
 H4384 H 0.46877 0.37099 0.80758
 H4385 H 0.48381 0.36282 0.79175
 H4386 H 0.49139 0.34243 0.78437
 H4387 H 0.45474 0.33439 0.76888
 H4388 H 0.44728 0.35488 0.77605
 H4389 H 0.46813 0.32450 0.75402
 H4390 H 0.47487 0.30363 0.74743
 H4391 H 0.49642 0.29985 0.78176
 H4392 H 0.48936 0.32057 0.78850
 C4393 C 0.95950 0.37229 0.29002
 C4394 C 0.96224 0.37608 0.30240
 C4395 C 0.95753 0.38741 0.30712
 C4396 C 0.95005 0.39527 0.29953
 C4397 C 0.94744 0.39150 0.28708
 C4398 C 0.95206 0.38012 0.28241
 C4399 C 0.96424 0.36012 0.28513
 C4400 C 0.95630 0.35208 0.27829
 C4401 C 0.96067 0.34047 0.27395
 C4402 C 0.97311 0.33668 0.27627
 C4403 C 0.98108 0.34482 0.28299
 C4404 C 0.97668 0.35639 0.28742
 C4405 C 0.97766 0.32420 0.27187
 C4406 C 0.98582 0.31701 0.27941
 C4407 C 0.98985 0.30515 0.27545
 C4408 C 0.98576 0.30015 0.26388
 C4409 C 0.97768 0.30736 0.25630
 C4410 C 0.97372 0.31927 0.26022
 H4411 H 0.96780 0.37015 0.30853
 H4412 H 0.95958 0.38986 0.31680
 H4413 H 0.94192 0.39738 0.28088
 H4414 H 0.94994 0.37749 0.27277
 H4415 H 0.94662 0.35466 0.27655
 H4416 H 0.95420 0.33435 0.26901
 H4417 H 0.99077 0.34230 0.28475
 H4418 H 0.98305 0.36248 0.29252
 H4419 H 0.98887 0.32042 0.28853
 H4420 H 0.99597 0.29980 0.28159
 H4421 H 0.97440 0.30382 0.24731
 H4422 H 0.96761 0.32463 0.25409
 C4423 C 0.28801 0.87667 0.46402
 C4424 C 0.29545 0.88458 0.47152
 C4425 C 0.29995 0.89598 0.46674
 C4426 C 0.29719 0.89968 0.45430
 C4427 C 0.28967 0.89173 0.44684
 C4428 C 0.28510 0.88040 0.45165
 C4429 C 0.28349 0.86441 0.46893
 C4430 C 0.27111 0.86045 0.46668
 C4431 C 0.26700 0.84870 0.47089
 C4432 C 0.27521 0.84059 0.47735
 C4433 C 0.28756 0.84464 0.47973
 C4434 C 0.29164 0.85644 0.47561
 C4435 C 0.27104 0.82782 0.48128
 C4436 C 0.27516 0.82254 0.49272
 C4437 C 0.27164 0.81034 0.49613
 C4438 C 0.26384 0.80315 0.48822
 C4439 C 0.25954 0.80851 0.47690
 C4440 C 0.26313 0.82067 0.47345
 H4441 H 0.29771 0.88200 0.48114
 H4442 H 0.30551 0.90193 0.47285
 H4443 H 0.28752 0.89411 0.43716
 H4444 H 0.27954 0.87438 0.44560
 H4445 H 0.26458 0.86649 0.46171
 H4446 H 0.25737 0.84598 0.46911
 H4447 H 0.29420 0.83856 0.48449
 H4448 H 0.30128 0.85919 0.47733
 H4449 H 0.28110 0.82786 0.49906
 H4450 H 0.27507 0.80653 0.50495
 H4451 H 0.25360 0.80320 0.47053
 H4452 H 0.25995 0.82434 0.46448
 C4453 C 0.28736 0.37625 0.96368
 C4454 C 0.29444 0.38439 0.97130
 C4455 C 0.29889 0.39579 0.96650
 C4456 C 0.29646 0.39927 0.95392
 C4457 C 0.28931 0.39110 0.94634
 C4458 C 0.28477 0.37976 0.95119
 C4459 C 0.28289 0.36401 0.96865
 C4460 C 0.27060 0.35989 0.96621
 C4461 C 0.26652 0.34816 0.97051
 C4462 C 0.27469 0.34021 0.97725
 C4463 C 0.28695 0.34443 0.97981
 C4464 C 0.29098 0.35622 0.97561
 C4465 C 0.27058 0.32744 0.98123
 C4466 C 0.27457 0.32227 0.99276
 C4467 C 0.27109 0.31006 0.99622
 C4468 C 0.26345 0.30278 0.98826
 C4469 C 0.25928 0.30802 0.97682
 C4470 C 0.26284 0.32017 0.97333
 H4471 H 0.29644 0.38198 0.98102
 H4472 H 0.30414 0.40191 0.97270
 H4473 H 0.28741 0.39331 0.93657
 H4474 H 0.27948 0.37357 0.94505
 H4475 H 0.26411 0.36579 0.96103
 H4476 H 0.25695 0.34532 0.96858
 H4477 H 0.29355 0.33849 0.98478
 H4478 H 0.30055 0.35910 0.97749
 H4479 H 0.28037 0.32768 0.99916
 H4480 H 0.27441 0.30633 1.00512
 H4481 H 0.25349 0.30263 0.97040
 H4482 H 0.25978 0.32374 0.96428
 C4483 C 0.78853 0.37617 0.28843
 C4484 C 0.80083 0.37241 0.28554
 C4485 C 0.80555 0.36101 0.29007
 C4486 C 0.79804 0.35304 0.29752
 C4487 C 0.78566 0.35677 0.30026
 C4488 C 0.78099 0.36823 0.29581
 C4489 C 0.78367 0.38843 0.28390
 C4490 C 0.77697 0.39638 0.29207
 C4491 C 0.77274 0.40812 0.28793
 C4492 C 0.77504 0.41214 0.27551
 C4493 C 0.78158 0.40408 0.26729
 C4494 C 0.78589 0.39239 0.27147
 C4495 C 0.77085 0.42478 0.27121
 C4496 C 0.77843 0.43199 0.26311
 C4497 C 0.77465 0.44396 0.25924
 C4498 C 0.76322 0.44907 0.26345
 C4499 C 0.75560 0.44186 0.27151
 C4500 C 0.75935 0.42984 0.27531
 H4501 H 0.80691 0.37843 0.28001
 H4502 H 0.81518 0.35859 0.28793
 H4503 H 0.77952 0.35081 0.30576
 H4504 H 0.77141 0.37083 0.29804
 H4505 H 0.77527 0.39363 0.30176
 H4506 H 0.76793 0.41416 0.29457
 H4507 H 0.78330 0.40677 0.25760
 H4508 H 0.79088 0.38637 0.26493
 H4509 H 0.78745 0.42850 0.25995
 H4510 H 0.78081 0.44930 0.25313
 H4511 H 0.74672 0.44550 0.27488
 H4512 H 0.75319 0.42447 0.28139
   
