data_POSCAR
  _audit_creation_date              2014-09-24
  _audit_creation_method            'ToBaCCo'
  _symmetry_space_group_name_H-M    'P1'
  _symmetry_Int_Tables_number       1
  _symmetry_cell_setting            triclinic
  loop_
  _symmetry_equiv_pos_as_xyz
 x,y,z
_cell_length_a 79.4956
_cell_length_b 79.5283
_cell_length_c 79.5669
_cell_angle_alpha 90.033300
_cell_angle_beta 90.001800
_cell_angle_gamma 89.920600
loop_
  _atom_site_label
  _atom_site_type_symbol
  _atom_site_fract_x
  _atom_site_fract_y
  _atom_site_fract_z
C1 C 0.13155 -0.02256 0.25349
 C2 C 0.12434 -0.00683 0.25717
 C3 C 0.11730 -0.00398 0.27312
 C4 C 0.11728 -0.01680 0.28519
 C5 C 0.12463 -0.03237 0.28150
 C6 C 0.13185 -0.03525 0.26570
 C7 C 0.12415 0.00658 0.24435
 C8 C 0.11689 0.00363 0.22851
 C9 C 0.11664 0.01638 0.21636
 C10 C 0.12396 0.03200 0.21989
 C11 C 0.13136 0.03496 0.23557
 C12 C 0.13130 0.02235 0.24785
 H13 H 0.13713 -0.02476 0.24125
 H14 H 0.11157 0.00806 0.27600
 H15 H 0.11124 -0.00848 0.22580
 H16 H 0.13709 0.02466 0.25997
 H17 H 0.12470 -0.04223 0.29093
 H18 H 0.12394 0.04184 0.21044
 C19 C 0.36856 -0.02465 0.74534
 C20 C 0.37517 -0.00855 0.74233
 C21 C 0.38202 -0.00481 0.72648
 C22 C 0.38238 -0.01708 0.71386
 C23 C 0.37563 -0.03303 0.71690
 C24 C 0.36865 -0.03680 0.73260
 C25 C 0.37489 0.00437 0.75569
 C26 C 0.38168 0.00085 0.77162
 C27 C 0.38160 0.01319 0.78421
 C28 C 0.37444 0.02897 0.78101
 C29 C 0.36751 0.03249 0.76523
 C30 C 0.36787 0.02029 0.75255
 H31 H 0.36309 -0.02759 0.75747
 H32 H 0.38729 0.00753 0.72409
 H33 H 0.38728 -0.01135 0.77407
 H34 H 0.36246 0.02306 0.74035
 H35 H 0.37579 -0.04248 0.70707
 H36 H 0.37425 0.03852 0.79076
 C37 C 0.86784 0.47594 0.24427
 C38 C 0.87503 0.49178 0.24118
 C39 C 0.88243 0.49504 0.22548
 C40 C 0.88279 0.48253 0.21308
 C41 C 0.87545 0.46685 0.21620
 C42 C 0.86790 0.46357 0.23174
 C43 C 0.87489 0.50485 0.25437
 C44 C 0.88152 0.50139 0.27038
 C45 C 0.88151 0.51384 0.28286
 C46 C 0.87457 0.52967 0.27947
 C47 C 0.86779 0.53315 0.26362
 C48 C 0.86810 0.52083 0.25103
 H49 H 0.86198 0.47337 0.25630
 H50 H 0.88817 0.50715 0.22305
 H51 H 0.88691 0.48913 0.27298
 H52 H 0.86281 0.52355 0.23877
 H53 H 0.87564 0.45721 0.20655
 H54 H 0.87441 0.53929 0.28915
 C55 C 0.63222 0.47795 0.75275
 C56 C 0.62533 0.49378 0.75661
 C57 C 0.61868 0.49667 0.77273
 C58 C 0.61877 0.48383 0.78477
 C59 C 0.62580 0.46817 0.78087
 C60 C 0.63260 0.46524 0.76492
 C61 C 0.62513 0.50728 0.74386
 C62 C 0.61813 0.50436 0.72790
 C63 C 0.61780 0.51722 0.71588
 C64 C 0.62476 0.53293 0.71964
 C65 C 0.63190 0.53589 0.73544
 C66 C 0.63194 0.52315 0.74759
 H67 H 0.63754 0.47566 0.74041
 H68 H 0.61320 0.50879 0.77578
 H69 H 0.61270 0.49221 0.72496
 H70 H 0.63752 0.52547 0.75981
 H71 H 0.62599 0.45828 0.79025
 H72 H 0.62462 0.54284 0.71028
 C73 C 0.24524 0.13147 1.02405
 C74 C 0.24172 0.12430 1.00830
 C75 C 0.22575 0.11738 1.00526
 C76 C 0.21348 0.11748 1.01791
 C77 C 0.21704 0.12480 1.03353
 C78 C 0.23287 0.13186 1.03657
 C79 C 0.25469 0.12413 0.99500
 C80 C 0.27068 0.11727 0.99820
 C81 C 0.28295 0.11705 0.98555
 C82 C 0.27938 0.12400 0.96978
 C83 C 0.26355 0.13100 0.96656
 C84 C 0.25117 0.13092 0.97908
 H85 H 0.25747 0.13700 1.02644
 H86 H 0.22301 0.11171 0.99316
 H87 H 0.27342 0.11189 1.01043
 H88 H 0.23893 0.13641 0.97657
 H89 H 0.20752 0.12504 1.04330
 H90 H 0.28890 0.12399 0.96000
 C91 C 0.75575 0.36753 1.02199
 C92 C 0.75902 0.37449 1.00609
 C93 C 0.77489 0.38151 1.00277
 C94 C 0.78730 0.38172 1.01527
 C95 C 0.78402 0.37461 1.03101
 C96 C 0.76830 0.36744 1.03438
 C97 C 0.74586 0.37445 0.99296
 C98 C 0.72991 0.38134 0.99629
 C99 C 0.71751 0.38149 0.98376
 C100 C 0.72091 0.37443 0.96799
 C101 C 0.73670 0.36740 0.96464
 C102 C 0.74921 0.36755 0.97704
 H103 H 0.74358 0.36195 1.02458
 H104 H 0.77745 0.38705 0.99059
 H105 H 0.72731 0.38684 1.00850
 H106 H 0.76143 0.36207 0.97442
 H107 H 0.79371 0.37468 1.04062
 H108 H 0.71129 0.37442 0.95830
 C109 C 0.25468 0.86789 0.52252
 C110 C 0.25765 0.87503 0.50664
 C111 C 0.27337 0.88231 0.50319
 C112 C 0.28594 0.88259 0.51554
 C113 C 0.28294 0.87528 0.53126
 C114 C 0.26737 0.86786 0.53473
 C115 C 0.24439 0.87478 0.49362
 C116 C 0.22839 0.88152 0.49703
 C117 C 0.21592 0.88147 0.48458
 C118 C 0.21927 0.87439 0.46883
 C119 C 0.23512 0.86750 0.46540
 C120 C 0.24771 0.86784 0.47771
 H121 H 0.24265 0.86208 0.52522
 H122 H 0.27568 0.88795 0.49099
 H123 H 0.22577 0.88705 0.50921
 H124 H 0.25997 0.86249 0.47503
 H125 H 0.29271 0.87531 0.54080
 H126 H 0.20958 0.87425 0.45924
 C127 C 0.74560 0.63233 0.52437
 C128 C 0.74198 0.62540 0.50853
 C129 C 0.72596 0.61858 0.50549
 C130 C 0.71378 0.61855 0.51820
 C131 C 0.71742 0.62562 0.53388
 C132 C 0.73329 0.63259 0.53696
 C133 C 0.75491 0.62524 0.49520
 C134 C 0.77087 0.61830 0.49833
 C135 C 0.78307 0.61796 0.48562
 C136 C 0.77945 0.62486 0.46984
 C137 C 0.76364 0.63193 0.46667
 C138 C 0.75134 0.63198 0.47927
 H139 H 0.75787 0.63777 0.52679
 H140 H 0.72311 0.61305 0.49336
 H141 H 0.77365 0.61291 0.51055
 H142 H 0.73911 0.63750 0.47678
 H143 H 0.70794 0.62571 0.54368
 H144 H 0.78891 0.62472 0.46000
 C145 C -0.02348 0.25507 0.12993
 C146 C -0.00746 0.25847 0.12328
 C147 C -0.00415 0.27438 0.11633
 C148 C -0.01678 0.28669 0.11591
 C149 C -0.03265 0.28324 0.12271
 C150 C -0.03599 0.26749 0.12978
 C151 C 0.00581 0.24542 0.12361
 C152 C 0.00266 0.22933 0.11701
 C153 C 0.01526 0.21698 0.11726
 C154 C 0.03095 0.22060 0.12441
 C155 C 0.03412 0.23654 0.13115
 C156 C 0.02164 0.24898 0.13061
 H157 H -0.02609 0.24290 0.13546
 H158 H 0.00814 0.27703 0.11104
 H159 H -0.00949 0.22655 0.11146
 H160 H 0.02413 0.26129 0.13591
 H161 H -0.04242 0.29279 0.12252
 H162 H 0.04069 0.21102 0.12476
 C163 C -0.02192 0.74740 0.36850
 C164 C -0.00594 0.74384 0.37519
 C165 C -0.00266 0.72780 0.38184
 C166 C -0.01527 0.71552 0.38194
 C167 C -0.03109 0.71911 0.37511
 C168 C -0.03441 0.73500 0.36832
 C169 C 0.00732 0.75685 0.37521
 C170 C 0.00417 0.77277 0.38220
 C171 C 0.01681 0.78501 0.38239
 C172 C 0.03254 0.78151 0.37530
 C173 C 0.03572 0.76574 0.36817
 C174 C 0.02320 0.75337 0.36825
 H175 H -0.02451 0.75969 0.36319
 H176 H 0.00957 0.72499 0.38717
 H177 H -0.00799 0.77551 0.38775
 H178 H 0.02570 0.74117 0.36268
 H179 H -0.04081 0.70955 0.37507
 H180 H 0.04229 0.79104 0.37535
 C181 C 0.47824 0.24752 0.86891
 C182 C 0.49423 0.24397 0.87558
 C183 C 0.49746 0.22800 0.88244
 C184 C 0.48478 0.21578 0.88277
 C185 C 0.46894 0.21937 0.87595
 C186 C 0.46569 0.23518 0.86895
 C187 C 0.50756 0.25689 0.87532
 C188 C 0.50456 0.27292 0.88216
 C189 C 0.51728 0.28511 0.88206
 C190 C 0.53292 0.28142 0.87483
 C191 C 0.53593 0.26555 0.86785
 C192 C 0.52335 0.25325 0.86824
 H193 H 0.47570 0.25974 0.86343
 H194 H 0.50973 0.22524 0.88774
 H195 H 0.49246 0.27575 0.88779
 H196 H 0.52571 0.24097 0.86278
 H197 H 0.45914 0.20988 0.87605
 H198 H 0.54276 0.29087 0.87463
 C199 C 0.47735 0.75469 0.63178
 C200 C 0.49342 0.75788 0.62516
 C201 C 0.49692 0.77372 0.61816
 C202 C 0.48443 0.78616 0.61766
 C203 C 0.46852 0.78293 0.62442
 C204 C 0.46498 0.76725 0.63155
 C205 C 0.50656 0.74472 0.62558
 C206 C 0.50330 0.72864 0.61900
 C207 C 0.51584 0.71624 0.61922
 C208 C 0.53155 0.71975 0.62632
 C209 C 0.53484 0.73567 0.63305
 C210 C 0.52243 0.74818 0.63254
 H211 H 0.47458 0.74257 0.63736
 H212 H 0.50923 0.77626 0.61288
 H213 H 0.49116 0.72590 0.61344
 H214 H 0.52501 0.76049 0.63780
 H215 H 0.45890 0.79262 0.62415
 H216 H 0.54121 0.71011 0.62660
 C217 C 0.86990 1.02262 0.75378
 C218 C 0.87661 1.00673 0.75763
 C219 C 0.88313 1.00374 0.77377
 C220 C 0.88309 1.01654 0.78587
 C221 C 0.87624 1.03231 0.78198
 C222 C 0.86958 1.03532 0.76597
 C223 C 0.87686 0.99330 0.74479
 C224 C 0.88380 0.99636 0.72885
 C225 C 0.88419 0.98358 0.71672
 C226 C 0.87735 0.96778 0.72039
 C227 C 0.87027 0.96470 0.73620
 C228 C 0.87016 0.97737 0.74842
 H229 H 0.86470 1.02500 0.74141
 H230 H 0.88849 0.99155 0.77675
 H231 H 0.88914 1.00859 0.72603
 H232 H 0.86462 0.97496 0.76063
 H233 H 0.87608 1.04222 0.79136
 H234 H 0.87752 0.95789 0.71098
 C235 C 0.36885 0.52289 0.25242
 C236 C 0.37530 0.50694 0.25650
 C237 C 0.38181 0.50408 0.27266
 C238 C 0.38201 0.51706 0.28456
 C239 C 0.37543 0.53286 0.28047
 C240 C 0.36878 0.53577 0.26443
 C241 C 0.37530 0.49330 0.24388
 C242 C 0.38234 0.49594 0.22791
 C243 C 0.38261 0.48291 0.21606
 C244 C 0.37556 0.46728 0.22001
 C245 C 0.36837 0.46461 0.23585
 C246 C 0.36838 0.47753 0.24781
 H247 H 0.36366 0.52517 0.24003
 H248 H 0.38698 0.49187 0.27586
 H249 H 0.38789 0.50800 0.22483
 H250 H 0.36279 0.47542 0.26006
 H251 H 0.37548 0.54288 0.28973
 H252 H 0.37570 0.45722 0.21080
 C253 C 0.63070 1.02116 0.24574
 C254 C 0.62396 1.00513 0.24266
 C255 C 0.61715 1.00148 0.22678
 C256 C 0.61695 1.01377 0.21418
 C257 C 0.62382 1.02967 0.21730
 C258 C 0.63076 1.03335 0.23304
 C259 C 0.62403 0.99222 0.25602
 C260 C 0.61756 0.99596 0.27203
 C261 C 0.61749 0.98367 0.28465
 C262 C 0.62418 0.96769 0.28139
 C263 C 0.63078 0.96394 0.26551
 C264 C 0.63057 0.97612 0.25282
 H265 H 0.63614 1.02405 0.25790
 H266 H 0.61176 0.98921 0.22434
 H267 H 0.61233 1.00832 0.27453
 H268 H 0.63575 0.97318 0.24056
 H269 H 0.62375 1.03915 0.20751
 H270 H 0.62426 0.95818 0.29117
 C271 C 0.13131 0.52122 0.74392
 C272 C 0.12459 0.50522 0.74064
 C273 C 0.11775 0.50178 0.72472
 C274 C 0.11750 0.51424 0.71229
 C275 C 0.12436 0.53010 0.71561
 C276 C 0.13133 0.53357 0.73139
 C277 C 0.12469 0.49214 0.75381
 C278 C 0.11818 0.49562 0.76986
 C279 C 0.11815 0.48318 0.78230
 C280 C 0.12491 0.46728 0.77886
 C281 C 0.13155 0.46376 0.76294
 C282 C 0.13131 0.47610 0.75040
 H283 H 0.13677 0.52394 0.75611
 H284 H 0.11237 0.48953 0.72212
 H285 H 0.11289 0.50791 0.77255
 H286 H 0.13652 0.47334 0.73811
 H287 H 0.12426 0.53971 0.70595
 H288 H 0.12500 0.45768 0.78853
 C289 C 0.74629 0.86968 -0.02080
 C290 C 0.74268 0.87622 -0.00479
 C291 C 0.72660 0.88278 -0.00149
 C292 C 0.71432 0.88295 -0.01411
 C293 C 0.71796 0.87628 -0.02999
 C294 C 0.73391 0.86957 -0.03332
 C295 C 0.75568 0.87615 0.00848
 C296 C 0.77162 0.88308 0.00537
 C297 C 0.78393 0.88309 0.01799
 C298 C 0.78043 0.87588 0.03366
 C299 C 0.76461 0.86882 0.03678
 C300 C 0.75222 0.86910 0.02428
 H301 H 0.75861 0.86443 -0.02340
 H302 H 0.72375 0.88800 0.01078
 H303 H 0.77432 0.88868 -0.00676
 H304 H 0.74001 0.86355 0.02672
 H305 H 0.70841 0.87629 -0.03972
 H306 H 0.78997 0.87573 0.04341
 C307 C 0.24522 0.36875 0.47907
 C308 C 0.24164 0.37520 0.49513
 C309 C 0.22548 0.38147 0.49858
 C310 C 0.21309 0.38145 0.48607
 C311 C 0.21670 0.37487 0.47015
 C312 C 0.23273 0.36845 0.46667
 C313 C 0.25479 0.37537 0.50825
 C314 C 0.27063 0.38243 0.50490
 C315 C 0.28308 0.38262 0.51734
 C316 C 0.27987 0.37549 0.53309
 C317 C 0.26417 0.36831 0.53648
 C318 C 0.25160 0.36838 0.52415
 H319 H 0.25760 0.36371 0.47634
 H320 H 0.22266 0.38663 0.51088
 H321 H 0.27316 0.38798 0.49271
 H322 H 0.23949 0.36272 0.52678
 H323 H 0.20707 0.37476 0.46050
 H324 H 0.28958 0.37548 0.54266
 C325 C 0.25523 0.63074 -0.02280
 C326 C 0.25865 0.62406 -0.00681
 C327 C 0.27465 0.61733 -0.00345
 C328 C 0.28703 0.61713 -0.01597
 C329 C 0.28357 0.62395 -0.03182
 C330 C 0.26771 0.63082 -0.03522
 C331 C 0.24553 0.62412 0.00636
 C332 C 0.22952 0.61745 0.00301
 C333 C 0.21713 0.61737 0.01555
 C334 C 0.22062 0.62424 0.03138
 C335 C 0.23650 0.63105 0.03474
 C336 C 0.24897 0.63085 0.02232
 H337 H 0.24297 0.63611 -0.02546
 H338 H 0.27736 0.61200 0.00880
 H339 H 0.22684 0.61208 -0.00924
 H340 H 0.26124 0.63618 0.02496
 H341 H 0.29320 0.62390 -0.04148
 H342 H 0.21102 0.62432 0.04108
 C343 C 0.75401 0.13135 0.47631
 C344 C 0.75726 0.12456 0.49228
 C345 C 0.77318 0.11767 0.49573
 C346 C 0.78566 0.11742 0.48328
 C347 C 0.78236 0.12436 0.46744
 C348 C 0.76658 0.13138 0.46397
 C349 C 0.74406 0.12470 0.50537
 C350 C 0.72799 0.11823 0.50189
 C351 C 0.71553 0.11822 0.51434
 C352 C 0.71899 0.12495 0.53023
 C353 C 0.73492 0.13156 0.53375
 C354 C 0.74747 0.13129 0.52139
 H355 H 0.74183 0.13685 0.47359
 H356 H 0.77571 0.11226 0.50799
 H357 H 0.72529 0.11296 0.48961
 H358 H 0.75978 0.13646 0.52414
 H359 H 0.79203 0.12431 0.45781
 H360 H 0.70931 0.12504 0.53984
 C361 C 1.02271 0.75530 0.86976
 C362 C 1.00684 0.75868 0.87677
 C363 C 1.00361 0.77460 0.88373
 C364 C 1.01617 0.78695 0.88383
 C365 C 1.03191 0.78353 0.87667
 C366 C 1.03515 0.76775 0.86957
 C367 C 0.99363 0.74563 0.87677
 C368 C 0.99698 0.72957 0.88334
 C369 C 0.98438 0.71726 0.88352
 C370 C 0.96848 0.72087 0.87683
 C371 C 0.96511 0.73680 0.87012
 C372 C 0.97760 0.74919 0.87024
 H373 H 1.02525 0.74311 0.86420
 H374 H 0.99143 0.77723 0.88930
 H375 H 1.00929 0.72680 0.88856
 H376 H 0.97496 0.76149 0.86499
 H377 H 1.04162 0.79311 0.87660
 H378 H 0.95873 0.71134 0.87683
 C379 C 0.52199 0.25465 0.36775
 C380 C 0.50609 0.25798 0.37471
 C381 C 0.50279 0.27391 0.38162
 C382 C 0.51529 0.28630 0.38171
 C383 C 0.53105 0.28293 0.37462
 C384 C 0.53439 0.26714 0.36757
 C385 C 0.49295 0.24485 0.37474
 C386 C 0.49646 0.22878 0.38118
 C387 C 0.48396 0.21638 0.38133
 C388 C 0.46801 0.21989 0.37476
 C389 C 0.46447 0.23583 0.36819
 C390 C 0.47686 0.24833 0.36832
 H391 H 0.52460 0.24245 0.36223
 H392 H 0.49061 0.27655 0.38717
 H393 H 0.50879 0.22603 0.38633
 H394 H 0.47409 0.26065 0.36316
 H395 H 0.54070 0.29256 0.37458
 H396 H 0.45837 0.21025 0.37476
 C397 C 1.02327 0.24752 0.63092
 C398 C 1.00735 0.24397 0.62411
 C399 C 1.00415 0.22791 0.61748
 C400 C 1.01677 0.21559 0.61751
 C401 C 1.03255 0.21918 0.62446
 C402 C 1.03578 0.23511 0.63123
 C403 C 0.99411 0.25702 0.62390
 C404 C 0.99746 0.27300 0.61718
 C405 C 0.98485 0.28532 0.61679
 C406 C 0.96890 0.28179 0.62341
 C407 C 0.96552 0.26594 0.63025
 C408 C 0.97804 0.25354 0.63037
 H409 H 1.02580 0.25982 0.63622
 H410 H 0.99195 0.22515 0.61204
 H411 H 1.00979 0.27570 0.61199
 H412 H 0.97539 0.24130 0.63573
 H413 H 1.04232 0.20964 0.62461
 H414 H 0.95913 0.29133 0.62323
 C415 C 0.52306 0.74764 0.13069
 C416 C 0.50718 0.74399 0.12387
 C417 C 0.50409 0.72791 0.11724
 C418 C 0.51679 0.71568 0.11730
 C419 C 0.53253 0.71937 0.12425
 C420 C 0.53565 0.73532 0.13101
 C421 C 0.49384 0.75695 0.12370
 C422 C 0.49711 0.77302 0.11715
 C423 C 0.48445 0.78528 0.11696
 C424 C 0.46855 0.78163 0.12357
 C425 C 0.46524 0.76570 0.13024
 C426 C 0.47780 0.75333 0.13018
 H427 H 0.52551 0.75996 0.13601
 H428 H 0.49193 0.72502 0.11180
 H429 H 0.50940 0.77588 0.11199
 H430 H 0.47522 0.74103 0.13544
 H431 H 0.54232 0.70986 0.12441
 H432 H 0.45879 0.79118 0.12354
 O433 O -0.00872 0.95367 0.98947
 O434 O 0.00458 0.95273 1.01679
 O435 O -0.04910 0.98829 0.99511
 O436 O -0.05126 1.01737 1.00544
 O437 O -0.01418 0.99461 0.95442
 O438 O 0.01386 1.00548 0.95271
 O439 O -0.00466 1.03443 1.03844
 O440 O -0.02955 1.02057 1.04121
 O441 O 0.03382 0.99908 1.03575
 O442 O 0.03523 0.97111 1.01753
 O443 O 0.03180 1.03681 0.99994
 O444 O 0.01480 1.04196 0.97441
 O445 O 0.00534 1.04783 1.01518
 O446 O -0.00573 1.05055 0.98620
 O447 O 0.04534 1.01345 1.00955
 O448 O 0.04893 0.98676 0.99950
 O449 O 0.01051 1.00908 1.04904
 O450 O -0.01697 0.99406 1.04983
 O451 O 0.00144 0.96713 0.96629
 O452 O 0.02607 0.98399 0.96164
 O453 O -0.03758 1.00436 0.96778
 O454 O -0.04225 1.02885 0.98441
 O455 O -0.03556 0.96488 1.00469
 O456 O -0.01972 0.96339 1.03089
 Zr457 Zr -0.01050 0.97283 1.00767
 O458 O 0.00479 0.98743 1.02367
 Zr459 Zr -0.03019 1.00679 0.99307
 O460 O -0.01576 1.02262 1.00856
 Zr461 Zr 0.00390 0.99250 0.97363
 O462 O 0.01978 1.00774 0.98826
 Zr463 Zr -0.00794 1.00961 1.03013
 O464 O -0.02412 0.99425 1.01556
 Zr465 Zr 0.02626 0.99526 1.01062
 O466 O 0.01192 0.97923 0.99499
 Zr467 Zr 0.00666 1.02925 0.99630
 O468 O -0.00872 1.01494 0.97989
 O469 O -0.01793 0.98498 0.98571
 O470 O 0.01414 1.01720 1.01827
 C471 C -0.00347 0.95393 0.97420
 C472 C -0.04878 0.97289 0.99999
 C473 C -0.02952 0.99965 0.95461
 C474 C 0.00066 1.04750 1.03064
 C475 C 0.02597 1.00447 1.04878
 C476 C 0.04495 1.02894 1.00507
 H477 H 0.00781 0.98074 1.03373
 H478 H 0.02986 1.01066 0.98160
 H479 H -0.02506 0.97783 0.97844
 H480 H -0.02258 1.03257 1.01164
 H481 H -0.03895 1.01265 1.03937
 H482 H -0.05348 1.01040 1.01548
 H483 H 0.04850 0.98989 0.98749
 H484 H 0.03123 0.97557 0.96923
 H485 H -0.01632 1.00058 1.06044
 H486 H -0.02465 0.95209 1.02906
 H487 H 0.02421 1.03545 0.96952
 H488 H 0.00829 1.01662 0.95250
 H489 H -0.00181 0.94207 1.01584
 H490 H 0.04350 0.97244 1.02675
 H491 H -0.03422 1.03447 0.97674
 H492 H -0.01617 1.05233 0.99273
 O493 O 0.49121 0.45353 0.48825
 O494 O 0.50467 0.45234 0.51550
 O495 O 0.45088 0.48809 0.49438
 O496 O 0.44875 0.51705 0.50502
 O497 O 0.48559 0.49480 0.45361
 O498 O 0.51363 0.50567 0.45185
 O499 O 0.49550 0.53382 0.53796
 O500 O 0.47063 0.51990 0.54073
 O501 O 0.53401 0.49856 0.53471
 O502 O 0.53533 0.47074 0.51630
 O503 O 0.53177 0.53660 0.49934
 O504 O 0.51469 0.54200 0.47393
 O505 O 0.50538 0.54745 0.51479
 O506 O 0.49414 0.55041 0.48585
 O507 O 0.54537 0.51314 0.50864
 O508 O 0.54888 0.48651 0.49823
 O509 O 0.51078 0.50842 0.54823
 O510 O 0.48331 0.49333 0.54904
 O511 O 0.50126 0.46721 0.46515
 O512 O 0.52590 0.48412 0.46056
 O513 O 0.46226 0.50443 0.46717
 O514 O 0.45767 0.52876 0.48407
 O515 O 0.46446 0.46459 0.50369
 O516 O 0.48043 0.46287 0.52982
 Zr517 Zr 0.48954 0.47252 0.50664
 O518 O 0.50491 0.48697 0.52270
 Zr519 Zr 0.46977 0.50661 0.49245
 O520 O 0.48427 0.52230 0.50803
 Zr521 Zr 0.50377 0.49251 0.47271
 O522 O 0.51971 0.50763 0.48741
 Zr523 Zr 0.49220 0.50907 0.52943
 O524 O 0.47595 0.49386 0.51479
 Zr525 Zr 0.52631 0.49493 0.50961
 O526 O 0.51189 0.47904 0.49390
 Zr527 Zr 0.50662 0.52905 0.49572
 O528 O 0.49118 0.51490 0.47925
 O529 O 0.48200 0.48488 0.48483
 O530 O 0.51422 0.51679 0.51752
 C531 C 0.49638 0.45394 0.47296
 C532 C 0.45122 0.47264 0.49911
 C533 C 0.47026 0.49985 0.45392
 C534 C 0.50077 0.54697 0.53026
 C535 C 0.52624 0.50384 0.54783
 C536 C 0.54494 0.52868 0.50433
 H537 H 0.50799 0.48019 0.53267
 H538 H 0.52975 0.51063 0.48072
 H539 H 0.47483 0.47780 0.47753
 H540 H 0.47746 0.53221 0.51124
 H541 H 0.46123 0.51197 0.53888
 H542 H 0.44660 0.50999 0.51502
 H543 H 0.54844 0.48988 0.48628
 H544 H 0.53107 0.47561 0.46803
 H545 H 0.48403 0.49975 0.55971
 H546 H 0.47550 0.45159 0.52790
 H547 H 0.52406 0.53551 0.46893
 H548 H 0.50810 0.51682 0.45178
 H549 H 0.49828 0.44169 0.51449
 H550 H 0.54373 0.47202 0.52541
 H551 H 0.46565 0.53444 0.47640
 H552 H 0.48378 0.55218 0.49250
 O553 O 0.46681 -0.03539 0.49587
 O554 O 0.48284 -0.03723 0.46987
 O555 O 0.50348 -0.03248 0.53446
 O556 O 0.52829 -0.01453 0.53932
 O557 O 0.46431 0.00448 0.53231
 O558 O 0.45969 0.02882 0.51544
 O559 O 0.54753 0.01360 0.49073
 O560 O 0.55023 -0.01167 0.50377
 O561 O 0.51312 0.00848 0.45143
 O562 O 0.48562 -0.00660 0.45051
 O563 O 0.50719 0.04777 0.48474
 O564 O 0.49609 0.05071 0.51366
 O565 O 0.53381 0.03693 0.50024
 O566 O 0.51668 0.04238 0.52558
 O567 O 0.49745 0.03397 0.46158
 O568 O 0.47281 0.01986 0.45867
 O569 O 0.53648 -0.00103 0.46503
 O570 O 0.53808 -0.02795 0.48102
 O571 O 0.45312 -0.01193 0.50514
 O572 O 0.45087 0.01702 0.49440
 O573 O 0.48768 -0.00503 0.54587
 O574 O 0.51541 0.00603 0.54788
 O575 O 0.49346 -0.04625 0.51139
 O576 O 0.50736 -0.04725 0.48416
 Zr577 Zr 0.49186 -0.02732 0.49298
 O578 O 0.50712 -0.01277 0.47700
 Zr579 Zr 0.50595 -0.00717 0.52685
 O580 O 0.52177 0.00803 0.51211
 Zr581 Zr 0.47190 0.00672 0.50705
 O582 O 0.48633 0.02246 0.49149
 Zr583 Zr 0.52853 -0.00468 0.49000
 O584 O 0.51424 -0.02076 0.50570
 Zr585 Zr 0.49439 0.00922 0.47013
 O586 O 0.47820 -0.00606 0.48474
 Zr587 Zr 0.50863 0.02938 0.50380
 O588 O 0.49325 0.01515 0.52027
 O589 O 0.48423 -0.01491 0.51473
 O590 O 0.51634 0.01711 0.48205
 C591 C 0.45353 -0.02740 0.50048
 C592 C 0.49856 -0.04577 0.52670
 C593 C 0.47230 -0.00013 0.54555
 C594 C 0.54704 0.02910 0.49520
 C595 C 0.52864 0.00403 0.45187
 C596 C 0.50251 0.04721 0.46929
 H597 H 0.51021 -0.01953 0.46701
 H598 H 0.47945 0.03231 0.48826
 H599 H 0.47709 -0.02202 0.52201
 H600 H 0.53185 0.01097 0.51876
 H601 H 0.54752 -0.02231 0.50959
 H602 H 0.53273 -0.02449 0.53334
 H603 H 0.46343 0.01196 0.46064
 H604 H 0.44874 0.00987 0.48445
 H605 H 0.54954 -0.02593 0.47655
 H606 H 0.50119 -0.05802 0.48527
 H607 H 0.48560 0.05228 0.50716
 H608 H 0.46760 0.03450 0.52318
 H609 H 0.47817 -0.04861 0.47185
 H610 H 0.48645 -0.00025 0.43982
 H611 H 0.50997 0.01724 0.54776
 H612 H 0.52596 0.03584 0.53066
 O613 O 0.04942 0.51374 0.99124
 O614 O 0.05048 0.48637 1.00443
 O615 O 0.01469 0.50822 0.95104
 O616 O -0.01436 0.49792 0.94894
 O617 O 0.00834 0.54881 0.98615
 O618 O -0.00243 0.55040 1.01421
 O619 O -0.03120 0.46466 0.99540
 O620 O -0.01736 0.46198 0.97048
 O621 O 0.00421 0.46727 1.03377
 O622 O 0.03216 0.48541 1.03513
 O623 O -0.03363 0.50295 1.03203
 O624 O -0.03891 0.52861 1.01523
 O625 O -0.04468 0.48787 1.00553
 O626 O -0.04748 0.51693 0.99465
 O627 O -0.01018 0.49334 1.04542
 O628 O 0.01654 0.50355 1.04890
 O629 O -0.00583 0.45404 1.01048
 O630 O 0.00918 0.45333 0.98297
 O631 O 0.03594 0.53689 1.00157
 O632 O 0.01911 0.54140 1.02630
 O633 O -0.00142 0.53553 0.96275
 O634 O -0.02590 0.51888 0.95813
 O635 O 0.03818 0.49861 0.96442
 O636 O 0.03978 0.47233 0.98014
 Zr637 Zr 0.03030 0.49553 0.98949
 O638 O 0.01579 0.47944 1.00476
 Zr639 Zr -0.00376 0.51019 0.97002
 O640 O -0.01951 0.49460 0.98443
 Zr641 Zr 0.01058 0.52951 1.00411
 O642 O -0.00461 0.51479 1.01997
 Zr643 Zr -0.00640 0.47301 0.99209
 O644 O 0.00887 0.48767 0.97593
 Zr645 Zr 0.00798 0.49242 1.02629
 O646 O 0.02393 0.50813 1.01197
 Zr647 Zr -0.02613 0.50677 1.00690
 O648 O -0.01190 0.52327 0.99157
 O649 O 0.01806 0.51752 0.98221
 O650 O -0.01398 0.48479 1.01423
 C651 C 0.04914 0.52899 0.99656
 C652 C 0.03011 0.50334 0.95127
 C653 C 0.00326 0.54868 0.97084
 C654 C -0.04430 0.47243 1.00077
 C655 C -0.00121 0.45426 1.02591
 C656 C -0.02571 0.49775 1.04510
 H657 H 0.02251 0.46938 1.00770
 H658 H -0.00754 0.52141 1.03007
 H659 H 0.02518 0.52482 0.97508
 H660 H -0.02947 0.49154 0.97763
 H661 H -0.00944 0.46384 0.96108
 H662 H -0.00743 0.48783 0.94671
 H663 H 0.01322 0.51552 1.04860
 H664 H 0.02759 0.53380 1.03136
 H665 H 0.00270 0.44271 0.98362
 H666 H 0.05107 0.47420 0.97517
 H667 H -0.03240 0.53344 1.02465
 H668 H -0.01362 0.55058 1.00877
 H669 H 0.06112 0.48734 0.99800
 H670 H 0.03082 0.47628 1.04349
 H671 H -0.03150 0.52654 0.96620
 H672 H -0.04928 0.51044 0.98419
 O673 O -0.03866 0.49586 0.46480
 O674 O -0.04040 0.47000 0.48103
 O675 O -0.03620 0.53483 0.50115
 O676 O -0.01839 0.54015 0.52587
 O677 O 0.00105 0.53246 0.46221
 O678 O 0.02548 0.51563 0.45789
 O679 O 0.00996 0.49172 0.54579
 O680 O -0.01543 0.50475 0.54822
 O681 O 0.00528 0.45209 0.51180
 O682 O -0.00963 0.45080 0.48423
 O683 O 0.04435 0.48555 0.50590
 O684 O 0.04719 0.51436 0.49444
 O685 O 0.03330 0.50124 0.53215
 O686 O 0.03864 0.52650 0.51483
 O687 O 0.03078 0.46219 0.49634
 O688 O 0.01688 0.45900 0.47155
 O689 O -0.00445 0.46590 0.53494
 O690 O -0.03151 0.48178 0.53619
 O691 O -0.01517 0.50508 0.45119
 O692 O 0.01386 0.49444 0.44924
 O693 O -0.00871 0.54623 0.48534
 O694 O 0.00221 0.54858 0.51311
 O695 O -0.04977 0.51159 0.49127
 O696 O -0.05065 0.48446 0.50533
 Zr697 Zr -0.03070 0.49326 0.48990
 O698 O -0.01612 0.47750 0.50541
 Zr699 Zr -0.01084 0.52739 0.50378
 O700 O 0.00436 0.51289 0.51984
 Zr701 Zr 0.00337 0.50728 0.47005
 O702 O 0.01914 0.49194 0.48473
 Zr703 Zr -0.00824 0.49077 0.52672
 O704 O -0.02434 0.50626 0.51218
 Zr705 Zr 0.00600 0.47060 0.49291
 O706 O -0.00930 0.48498 0.47648
 Zr707 Zr 0.02584 0.50455 0.50693
 O708 O 0.01159 0.52078 0.49130
 O709 O -0.01840 0.51500 0.48215
 O710 O 0.01367 0.48282 0.51476
 C711 C -0.03062 0.50034 0.45154
 C712 C -0.04943 0.52693 0.49628
 C713 C -0.00367 0.54577 0.47002
 C714 C 0.02545 0.49623 0.54534
 C715 C 0.00076 0.45268 0.52728
 C716 C 0.04392 0.47002 0.50146
 H717 H -0.02283 0.46751 0.50854
 H718 H 0.02907 0.48869 0.47798
 H719 H -0.02552 0.52219 0.47489
 H720 H 0.00721 0.51965 0.52987
 H721 H -0.02612 0.51046 0.54541
 H722 H -0.02822 0.53407 0.53043
 H723 H 0.00901 0.46079 0.46209
 H724 H 0.00678 0.48444 0.44716
 H725 H -0.02952 0.47744 0.54770
 H726 H -0.06140 0.48546 0.49909
 H727 H 0.04893 0.50768 0.48410
 H728 H 0.03113 0.52341 0.46579
 H729 H -0.05178 0.47188 0.47627
 H730 H -0.00320 0.44015 0.48519
 H731 H 0.01344 0.54845 0.50774
 H732 H 0.03206 0.53160 0.52407
 O733 O 0.46487 1.03651 0.00226
 O734 O 0.48092 1.03835 0.02823
 O735 O 0.50152 1.03411 -0.03641
 O736 O 0.52644 1.01639 -0.04147
 O737 O 0.46274 0.99675 -0.03441
 O738 O 0.45837 0.97236 -0.01763
 O739 O 0.54608 0.98813 0.00705
 O740 O 0.54852 1.01350 -0.00593
 O741 O 0.51173 0.99273 0.04636
 O742 O 0.48410 1.00762 0.04744
 O743 O 0.50618 0.95364 0.01284
 O744 O 0.49502 0.95077 -0.01608
 O745 O 0.53259 0.96475 -0.00257
 O746 O 0.51552 0.95933 -0.02798
 O747 O 0.49635 0.96722 0.03610
 O748 O 0.47151 0.98111 0.03911
 O749 O 0.53496 1.00252 0.03277
 O750 O 0.53623 1.02956 0.01694
 O751 O 0.45141 1.01299 -0.00711
 O752 O 0.44948 0.98399 0.00347
 O753 O 0.48598 1.00653 -0.04796
 O754 O 0.51385 0.99575 -0.05005
 O755 O 0.49140 1.04767 -0.01325
 O756 O 0.50530 1.04863 0.01396
 Zr757 Zr 0.49001 1.02863 0.00505
 O758 O 0.50545 1.01412 0.02093
 Zr759 Zr 0.50425 1.00877 -0.02895
 O760 O 0.52026 0.99364 -0.01432
 Zr761 Zr 0.47038 0.99451 -0.00917
 O762 O 0.48501 0.97880 0.00628
 Zr763 Zr 0.52692 1.00627 0.00785
 O764 O 0.51243 1.02232 -0.00775
 Zr765 Zr 0.49296 0.99198 0.02770
 O766 O 0.47659 1.00722 0.01319
 Zr767 Zr 0.50735 0.97214 -0.00612
 O768 O 0.49180 0.98633 -0.02247
 O769 O 0.48246 1.01629 -0.01676
 O770 O 0.51496 0.98435 0.01568
 C771 C 0.45167 1.02843 -0.00234
 C772 C 0.49651 1.04733 -0.02856
 C773 C 0.47067 1.00145 -0.04765
 C774 C 0.54573 0.97264 0.00254
 C775 C 0.52721 0.99729 0.04591
 C776 C 0.50156 0.95408 0.02831
 H777 H 0.50848 1.02084 0.03095
 H778 H 0.47825 0.96887 0.00947
 H779 H 0.47523 1.02337 -0.02400
 H780 H 0.53037 0.99080 -0.02099
 H781 H 0.54571 1.02417 -0.01166
 H782 H 0.53087 1.02628 -0.03537
 H783 H 0.46205 0.98899 0.03725
 H784 H 0.44731 0.99105 0.01347
 H785 H 0.54773 1.02760 0.02138
 H786 H 0.49902 1.05936 0.01291
 H787 H 0.48461 0.94902 -0.00951
 H788 H 0.46636 0.96673 -0.02535
 H789 H 0.47613 1.04971 0.02631
 H790 H 0.48499 1.00120 0.05808
 H791 H 0.50856 0.98449 -0.04996
 H792 H 0.52479 0.96593 -0.03298
 O793 O 0.49551 0.54640 0.01419
 O794 O 0.50898 0.54756 -0.01304
 O795 O 0.45522 0.51193 0.00806
 O796 O 0.45314 0.48295 -0.00256
 O797 O 0.48995 0.50511 0.04887
 O798 O 0.51801 0.49427 0.05063
 O799 O 0.49985 0.46607 -0.03544
 O800 O 0.47501 0.48005 -0.03824
 O801 O 0.53837 0.50128 -0.03224
 O802 O 0.53966 0.52911 -0.01383
 O803 O 0.53619 0.46327 0.00317
 O804 O 0.51908 0.45793 0.02860
 O805 O 0.50976 0.45244 -0.01226
 O806 O 0.49861 0.44950 0.01666
 O807 O 0.54977 0.48669 -0.00613
 O808 O 0.55324 0.51331 0.00424
 O809 O 0.51515 0.49143 -0.04574
 O810 O 0.48769 0.50657 -0.04657
 O811 O 0.50555 0.53273 0.03732
 O812 O 0.53021 0.51581 0.04192
 O813 O 0.46662 0.49554 0.03530
 O814 O 0.46203 0.47125 0.01840
 O815 O 0.46878 0.53539 -0.00127
 O816 O 0.48477 0.53706 -0.02738
 Zr817 Zr 0.49387 0.52740 -0.00418
 O818 O 0.50926 0.51292 -0.02022
 Zr819 Zr 0.47413 0.49337 0.01002
 O820 O 0.48866 0.47764 -0.00553
 Zr821 Zr 0.50811 0.50742 0.02976
 O822 O 0.52408 0.49226 0.01508
 Zr823 Zr 0.49657 0.49083 -0.02694
 O824 O 0.48031 0.50609 -0.01233
 Zr825 Zr 0.53067 0.50493 -0.00713
 O826 O 0.51623 0.52086 0.00856
 Zr827 Zr 0.51102 0.47086 0.00678
 O828 O 0.49555 0.48505 0.02323
 O829 O 0.48633 0.51508 0.01764
 O830 O 0.51861 0.48308 -0.01503
 C831 C 0.50067 0.54600 0.02948
 C832 C 0.45554 0.52736 0.00330
 C833 C 0.47462 0.50007 0.04856
 C834 C 0.50510 0.45291 -0.02772
 C835 C 0.53060 0.49600 -0.04535
 C836 C 0.54936 0.47116 -0.00181
 H837 H 0.51233 0.51968 -0.03021
 H838 H 0.53412 0.48926 0.02177
 H839 H 0.47915 0.52217 0.02494
 H840 H 0.48185 0.46774 -0.00873
 H841 H 0.46561 0.48801 -0.03641
 H842 H 0.45098 0.49001 -0.01256
 H843 H 0.55276 0.51003 0.01621
 H844 H 0.53537 0.52431 0.03445
 H845 H 0.48840 0.50015 -0.05723
 H846 H 0.47982 0.54835 -0.02547
 H847 H 0.52849 0.46436 0.03356
 H848 H 0.51252 0.48311 0.05068
 H849 H 0.50257 0.55822 -0.01204
 H850 H 0.54805 0.52781 -0.02295
 H851 H 0.47003 0.46553 0.02605
 H852 H 0.48819 0.44780 0.01008
 O853 O -0.04710 0.01255 0.50857
 O854 O -0.04804 -0.01478 0.49524
 O855 O -0.01234 0.00687 0.54875
 O856 O 0.01678 -0.00341 0.55077
 O857 O -0.00618 0.04764 0.51389
 O858 O 0.00461 0.04939 0.48584
 O859 O 0.03376 -0.03639 0.50416
 O860 O 0.01992 -0.03920 0.52905
 O861 O -0.00173 -0.03367 0.46581
 O862 O -0.02973 -0.01548 0.46454
 O863 O 0.03601 0.00206 0.46772
 O864 O 0.04116 0.02766 0.48466
 O865 O 0.04712 -0.01311 0.49416
 O866 O 0.04980 0.01590 0.50517
 O867 O 0.01259 -0.00752 0.45429
 O868 O -0.01413 0.00264 0.45084
 O869 O 0.00839 -0.04698 0.48902
 O870 O -0.00659 -0.04784 0.51651
 O871 O -0.03370 0.03576 0.49838
 O872 O -0.01689 0.04043 0.47370
 O873 O 0.00364 0.03425 0.53722
 O874 O 0.02819 0.01765 0.54175
 O875 O -0.03579 -0.00270 0.53532
 O876 O -0.03728 -0.02890 0.51945
 Zr877 Zr -0.02790 -0.00565 0.51024
 O878 O -0.01331 -0.02163 0.49488
 Zr879 Zr 0.00611 0.00896 0.52978
 O880 O 0.02193 -0.00652 0.51528
 Zr881 Zr -0.00831 0.02843 0.49581
 O882 O 0.00693 0.01381 0.47986
 Zr883 Zr 0.00891 -0.02809 0.50750
 O884 O -0.00643 -0.01354 0.52374
 Zr885 Zr -0.00556 -0.00855 0.47342
 O886 O -0.02158 0.00707 0.48783
 Zr887 Zr 0.02848 0.00576 0.49287
 O888 O 0.01419 0.02216 0.50831
 O889 O -0.01575 0.01633 0.51764
 O890 O 0.01643 -0.01621 0.48542
 C891 C -0.04688 0.02782 0.50333
 C892 C -0.02774 0.00197 0.54851
 C893 C -0.00110 0.04743 0.52920
 C894 C 0.04683 -0.02856 0.49884
 C895 C 0.00373 -0.04671 0.47360
 C896 C 0.02810 -0.00309 0.45462
 H897 H -0.02000 -0.03169 0.49187
 H898 H 0.00982 0.02048 0.46979
 H899 H -0.02290 0.02358 0.52481
 H900 H 0.03190 -0.00959 0.52206
 H901 H 0.01199 -0.03740 0.53846
 H902 H 0.00986 -0.01349 0.55299
 H903 H -0.01095 0.01464 0.45125
 H904 H -0.02534 0.03285 0.46858
 H905 H -0.00005 -0.05845 0.51583
 H906 H -0.04857 -0.02708 0.52442
 H907 H 0.03462 0.03252 0.47527
 H908 H 0.01580 0.04956 0.49130
 H909 H -0.05869 -0.01384 0.50167
 H910 H -0.02839 -0.02464 0.45618
 H911 H 0.03377 0.02534 0.53372
 H912 H 0.05161 0.00940 0.51560
 O913 O 0.70149 0.24192 0.26093
 O914 O 0.70041 0.25532 0.23367
 O915 O 0.73591 0.20145 0.25495
 O916 O 0.76491 0.19920 0.24439
 O917 O 0.74267 0.23619 0.29571
 O918 O 0.75364 0.26418 0.29746
 O919 O 0.78196 0.24579 0.21148
 O920 O 0.76793 0.22097 0.20870
 O921 O 0.74686 0.28445 0.21456
 O922 O 0.71896 0.28588 0.23281
 O923 O 0.78476 0.28212 0.25009
 O924 O 0.79001 0.26502 0.27554
 O925 O 0.79557 0.25568 0.23469
 O926 O 0.79844 0.24451 0.26361
 O927 O 0.76137 0.29579 0.24070
 O928 O 0.73469 0.29939 0.25099
 O929 O 0.75666 0.26115 0.20111
 O930 O 0.74145 0.23378 0.20026
 O931 O 0.71515 0.25194 0.28407
 O932 O 0.73214 0.27649 0.28869
 O933 O 0.75224 0.21280 0.28220
 O934 O 0.77659 0.20808 0.26539
 O935 O 0.71248 0.21510 0.24555
 O936 O 0.71090 0.23103 0.21940
 Zr937 Zr 0.72052 0.24013 0.24260
 O938 O 0.73508 0.25541 0.22657
 Zr939 Zr 0.75451 0.22026 0.25692
 O940 O 0.77030 0.23467 0.24139
 Zr941 Zr 0.74049 0.25433 0.27658
 O942 O 0.75571 0.27019 0.26191
 Zr943 Zr 0.75717 0.24261 0.21993
 O944 O 0.74183 0.22645 0.23453
 Zr945 Zr 0.74309 0.27679 0.23966
 O946 O 0.72710 0.26247 0.25534
 Zr947 Zr 0.77711 0.25700 0.25369
 O948 O 0.76285 0.24165 0.27013
 O949 O 0.73280 0.23258 0.26447
 O950 O 0.76494 0.26461 0.23184
 C951 C 0.70188 0.24711 0.27622
 C952 C 0.72046 0.20184 0.25017
 C953 C 0.74767 0.22083 0.29544
 C954 C 0.79511 0.25103 0.21922
 C955 C 0.75217 0.27664 0.20147
 C956 C 0.77690 0.29532 0.24507
 H957 H 0.72835 0.25850 0.21657
 H958 H 0.75872 0.28022 0.26860
 H959 H 0.72567 0.22546 0.27175
 H960 H 0.78020 0.22782 0.23822
 H961 H 0.75994 0.21163 0.21051
 H962 H 0.75785 0.19705 0.23438
 H963 H 0.73805 0.29898 0.26294
 H964 H 0.72369 0.28170 0.28118
 H965 H 0.74791 0.23443 0.18962
 H966 H 0.69959 0.22614 0.22129
 H967 H 0.78358 0.27446 0.28048
 H968 H 0.76478 0.25859 0.29758
 H969 H 0.68973 0.24897 0.23465
 H970 H 0.72032 0.29429 0.22372
 H971 H 0.78230 0.21606 0.27304
 H972 H 0.80014 0.23409 0.25703
 O973 O 0.75292 0.71489 0.71856
 O974 O 0.77887 0.71307 0.73470
 O975 O 0.71410 0.71762 0.75502
 O976 O 0.70896 0.73553 0.77978
 O977 O 0.71639 0.75475 0.71603
 O978 O 0.73328 0.77912 0.71165
 O979 O 0.75752 0.76367 0.79945
 O980 O 0.74442 0.73838 0.80197
 O981 O 0.79704 0.75865 0.76534
 O982 O 0.79815 0.74370 0.73775
 O983 O 0.76363 0.79793 0.75942
 O984 O 0.73472 0.80084 0.74808
 O985 O 0.74800 0.78702 0.78580
 O986 O 0.72273 0.79248 0.76860
 O987 O 0.78692 0.78420 0.74982
 O988 O 0.79001 0.77023 0.72510
 O989 O 0.78328 0.74905 0.78853
 O990 O 0.76730 0.72213 0.78990
 O991 O 0.74369 0.73839 0.70495
 O992 O 0.75437 0.76733 0.70288
 O993 O 0.70269 0.74511 0.73923
 O994 O 0.70048 0.75611 0.76698
 O995 O 0.73729 0.70393 0.74509
 O996 O 0.76447 0.70293 0.75906
 Zr997 Zr 0.75566 0.72290 0.74364
 O998 O 0.77152 0.73742 0.75907
 Zr999 Zr 0.72161 0.74295 0.75760
 O1000 O 0.73623 0.75812 0.77357
 Zr1001 Zr 0.74161 0.75698 0.72378
 O1002 O 0.75708 0.77269 0.73838
 Zr1003 Zr 0.75834 0.74542 0.78041
 O1004 O 0.74276 0.72936 0.76595
 Zr1005 Zr 0.77843 0.75946 0.74650
 O1006 O 0.76394 0.74421 0.73015
 Zr1007 Zr 0.74458 0.77952 0.76060
 O1008 O 0.72823 0.76531 0.74507
 O1009 O 0.73390 0.73529 0.73594
 O1010 O 0.76633 0.76726 0.76838
 C1011 C 0.74838 0.72292 0.70531
 C1012 C 0.72195 0.70435 0.75013
 C1013 C 0.70309 0.75009 0.72389
 C1014 C 0.75302 0.77917 0.79899
 C1015 C 0.79650 0.75414 0.78082
 C1016 C 0.77914 0.79741 0.75491
 H1017 H 0.78151 0.73066 0.76218
 H1018 H 0.76033 0.78257 0.73158
 H1019 H 0.72667 0.72818 0.72873
 H1020 H 0.72951 0.76103 0.78362
 H1021 H 0.73866 0.72773 0.79920
 H1022 H 0.71499 0.72563 0.78428
 H1023 H 0.78810 0.76238 0.71565
 H1024 H 0.76438 0.76023 0.70081
 H1025 H 0.77167 0.72412 0.80140
 H1026 H 0.76343 0.69219 0.75282
 H1027 H 0.74139 0.80254 0.73772
 H1028 H 0.72548 0.78477 0.71954
 H1029 H 0.77694 0.70171 0.72995
 H1030 H 0.80883 0.75006 0.73870
 H1031 H 0.70062 0.76733 0.76159
 H1032 H 0.71758 0.78589 0.77778
 O1033 O 0.28636 0.21517 0.74865
 O1034 O 0.28843 0.23100 0.72258
 O1035 O 0.28335 0.25217 0.78698
 O1036 O 0.26542 0.27701 0.79165
 O1037 O 0.24626 0.21314 0.78487
 O1038 O 0.22203 0.20852 0.76791
 O1039 O 0.23761 0.29604 0.74258
 O1040 O 0.26280 0.29875 0.75584
 O1041 O 0.24289 0.26132 0.70365
 O1042 O 0.25786 0.23373 0.70303
 O1043 O 0.20338 0.25596 0.73676
 O1044 O 0.20022 0.24504 0.76572
 O1045 O 0.21419 0.28254 0.75209
 O1046 O 0.20858 0.26565 0.77758
 O1047 O 0.21728 0.24600 0.71374
 O1048 O 0.23127 0.22118 0.71114
 O1049 O 0.25240 0.28473 0.71712
 O1050 O 0.27923 0.28632 0.73332
 O1051 O 0.26280 0.20167 0.75784
 O1052 O 0.23388 0.19951 0.74699
 O1053 O 0.25576 0.23655 0.79835
 O1054 O 0.24474 0.26437 0.80007
 O1055 O 0.29722 0.24189 0.76408
 O1056 O 0.29841 0.25555 0.73677
 Zr1057 Zr 0.27838 0.24023 0.74557
 O1058 O 0.26396 0.25543 0.72939
 Zr1059 Zr 0.25807 0.25467 0.77922
 O1060 O 0.24301 0.27046 0.76427
 Zr1061 Zr 0.24419 0.22056 0.75956
 O1062 O 0.22857 0.23495 0.74381
 Zr1063 Zr 0.25586 0.27697 0.74218
 O1064 O 0.27181 0.26273 0.75810
 Zr1065 Zr 0.24196 0.24276 0.72248
 O1066 O 0.25713 0.22662 0.73730
 Zr1067 Zr 0.22166 0.25737 0.75593
 O1068 O 0.23575 0.24204 0.77258
 O1069 O 0.26584 0.23282 0.76729
 O1070 O 0.23408 0.26483 0.73420
 C1071 C 0.27830 0.20197 0.75324
 C1072 C 0.29668 0.24715 0.77933
 C1073 C 0.25080 0.22120 0.79809
 C1074 C 0.22207 0.29566 0.74694
 C1075 C 0.24739 0.27681 0.70399
 C1076 C 0.20402 0.25123 0.72132
 H1077 H 0.27079 0.25839 0.71942
 H1078 H 0.21871 0.22812 0.74056
 H1079 H 0.27289 0.22569 0.77467
 H1080 H 0.24005 0.28061 0.77082
 H1081 H 0.27340 0.29605 0.76176
 H1082 H 0.27534 0.28145 0.78562
 H1083 H 0.23914 0.21176 0.71319
 H1084 H 0.24107 0.19725 0.73710
 H1085 H 0.27727 0.29774 0.72874
 H1086 H 0.30917 0.24934 0.73800
 H1087 H 0.19861 0.23455 0.75924
 H1088 H 0.21627 0.21656 0.77549
 H1089 H 0.29979 0.22628 0.72467
 H1090 H 0.25156 0.23450 0.69229
 H1091 H 0.23352 0.25898 0.79992
 H1092 H 0.21507 0.27500 0.78258
 O1093 O 0.21739 0.74735 0.28547
 O1094 O 0.23357 0.72141 0.28703
 O1095 O 0.25382 0.78616 0.28300
 O1096 O 0.27861 0.79132 0.26511
 O1097 O 0.21470 0.78422 0.24603
 O1098 O 0.21019 0.76758 0.22153
 O1099 O 0.29811 0.74297 0.23639
 O1100 O 0.30077 0.75586 0.26178
 O1101 O 0.26394 0.70355 0.24109
 O1102 O 0.23643 0.70237 0.25617
 O1103 O 0.25792 0.73725 0.20223
 O1104 O 0.24657 0.76619 0.19964
 O1105 O 0.28436 0.75270 0.21319
 O1106 O 0.26715 0.77808 0.20806
 O1107 O 0.24833 0.71389 0.21576
 O1108 O 0.22361 0.71078 0.22980
 O1109 O 0.28722 0.71714 0.25075
 O1110 O 0.28873 0.73290 0.27784
 O1111 O 0.20366 0.75680 0.26214
 O1112 O 0.20147 0.74639 0.23309
 O1113 O 0.23799 0.79781 0.25567
 O1114 O 0.26573 0.80003 0.24465
 O1115 O 0.24392 0.76290 0.29650
 O1116 O 0.25801 0.73571 0.29717
 Zr1117 Zr 0.24246 0.74467 0.27737
 O1118 O 0.25780 0.72889 0.26263
 Zr1119 Zr 0.25636 0.77882 0.25761
 O1120 O 0.27227 0.76429 0.24225
 Zr1121 Zr 0.22243 0.75901 0.24351
 O1122 O 0.23695 0.74366 0.22759
 Zr1123 Zr 0.27914 0.74206 0.25468
 O1124 O 0.26477 0.75756 0.27095
 Zr1125 Zr 0.24511 0.72219 0.24058
 O1126 O 0.22884 0.73659 0.25604
 Zr1127 Zr 0.25918 0.75615 0.22082
 O1128 O 0.24372 0.77242 0.23524
 O1129 O 0.23471 0.76652 0.26522
 O1130 O 0.26699 0.73430 0.23283
 C1131 C 0.20409 0.75196 0.27754
 C1132 C 0.24894 0.77824 0.29620
 C1133 C 0.22261 0.79746 0.25077
 C1134 C 0.29759 0.74757 0.22094
 C1135 C 0.27946 0.70400 0.24553
 C1136 C 0.25340 0.72175 0.20262
 H1137 H 0.26093 0.71883 0.26927
 H1138 H 0.23011 0.74050 0.21771
 H1139 H 0.22751 0.77370 0.27241
 H1140 H 0.28233 0.77100 0.23936
 H1141 H 0.29804 0.76157 0.27248
 H1142 H 0.28310 0.78524 0.27498
 H1143 H 0.21421 0.71260 0.23773
 H1144 H 0.19940 0.73634 0.24009
 H1145 H 0.30022 0.72849 0.27575
 H1146 H 0.25183 0.73669 0.30795
 H1147 H 0.23619 0.75956 0.19792
 H1148 H 0.21808 0.77538 0.21592
 H1149 H 0.22889 0.72326 0.29843
 H1150 H 0.23731 0.69175 0.24970
 H1151 H 0.26032 0.79998 0.23344
 H1152 H 0.27642 0.78312 0.21464
 O1153 O 0.23662 0.70115 0.75640
 O1154 O 0.26382 0.69993 0.74284
 O1155 O 0.24300 0.73555 0.79677
 O1156 O 0.25360 0.76451 0.79890
 O1157 O 0.20197 0.74248 0.76229
 O1158 O 0.20010 0.75344 0.73431
 O1159 O 0.28635 0.78135 0.75214
 O1160 O 0.28922 0.76730 0.77693
 O1161 O 0.28294 0.74623 0.71355
 O1162 O 0.26455 0.71845 0.71224
 O1163 O 0.24761 0.78433 0.71604
 O1164 O 0.22216 0.78968 0.73323
 O1165 O 0.26311 0.79506 0.74240
 O1166 O 0.23421 0.79806 0.75368
 O1167 O 0.25684 0.76090 0.70235
 O1168 O 0.24633 0.73429 0.69884
 O1169 O 0.29655 0.75601 0.73673
 O1170 O 0.29752 0.74080 0.76408
 O1171 O 0.21345 0.71490 0.74649
 O1172 O 0.20873 0.73190 0.72197
 O1173 O 0.21567 0.75196 0.78557
 O1174 O 0.23258 0.77625 0.79013
 O1175 O 0.25223 0.71208 0.78310
 O1176 O 0.27829 0.71036 0.76699
 Zr1177 Zr 0.25503 0.72009 0.75805
 O1178 O 0.27104 0.73456 0.74265
 Zr1179 Zr 0.24093 0.75414 0.77795
 O1180 O 0.25644 0.76984 0.76342
 Zr1181 Zr 0.22101 0.74020 0.74404
 O1182 O 0.23565 0.75534 0.72806
 Zr1183 Zr 0.27783 0.75660 0.75538
 O1184 O 0.26326 0.74136 0.77164
 Zr1185 Zr 0.25785 0.74262 0.72135
 O1186 O 0.24219 0.72671 0.73578
 Zr1187 Zr 0.24403 0.77669 0.74116
 O1188 O 0.22762 0.76252 0.75664
 O1189 O 0.23324 0.73246 0.76572
 O1190 O 0.26582 0.76441 0.73345
 C1191 C 0.22130 0.70160 0.75129
 C1192 C 0.24774 0.72010 0.79638
 C1193 C 0.20236 0.74746 0.77763
 C1194 C 0.27861 0.79454 0.74696
 C1195 C 0.29610 0.75149 0.72127
 C1196 C 0.25258 0.77646 0.70284
 H1197 H 0.28101 0.72778 0.73951
 H1198 H 0.22893 0.75838 0.71807
 H1199 H 0.22597 0.72537 0.77289
 H1200 H 0.25968 0.77972 0.77024
 H1201 H 0.28746 0.75931 0.78628
 H1202 H 0.26363 0.75745 0.80098
 H1203 H 0.23439 0.73772 0.69933
 H1204 H 0.21620 0.72342 0.71672
 H1205 H 0.30818 0.74721 0.76338
 H1206 H 0.27640 0.69907 0.77192
 H1207 H 0.21719 0.78330 0.72379
 H1208 H 0.20009 0.76459 0.73985
 H1209 H 0.26285 0.68926 0.74921
 H1210 H 0.27356 0.71977 0.70375
 H1211 H 0.22486 0.78197 0.78221
 H1212 H 0.24083 0.79971 0.76407
 O1213 O 0.21528 0.25435 0.21505
 O1214 O 0.23143 0.28027 0.21356
 O1215 O 0.25181 0.21550 0.21757
 O1216 O 0.27654 0.21027 0.23549
 O1217 O 0.21258 0.21740 0.25441
 O1218 O 0.20799 0.23401 0.27894
 O1219 O 0.29593 0.25849 0.26431
 O1220 O 0.29865 0.24572 0.23889
 O1221 O 0.26168 0.29803 0.25958
 O1222 O 0.23418 0.29925 0.24446
 O1223 O 0.25566 0.26426 0.29838
 O1224 O 0.24437 0.23540 0.30097
 O1225 O 0.28214 0.24872 0.28745
 O1226 O 0.26486 0.22338 0.29248
 O1227 O 0.24604 0.28766 0.28488
 O1228 O 0.22135 0.29083 0.27081
 O1229 O 0.28501 0.28442 0.25000
 O1230 O 0.28660 0.26873 0.22288
 O1231 O 0.20152 0.24487 0.23834
 O1232 O 0.19926 0.25523 0.26740
 O1233 O 0.23593 0.20384 0.24480
 O1234 O 0.26365 0.20157 0.25592
 O1235 O 0.24189 0.23878 0.20407
 O1236 O 0.25591 0.26596 0.20346
 Zr1237 Zr 0.24033 0.25699 0.22322
 O1238 O 0.25563 0.27272 0.23801
 Zr1239 Zr 0.25427 0.22280 0.24296
 O1240 O 0.27012 0.23728 0.25837
 Zr1241 Zr 0.22026 0.24260 0.25700
 O1242 O 0.23473 0.25792 0.27297
 Zr1243 Zr 0.27698 0.25952 0.24599
 O1244 O 0.26266 0.24407 0.22967
 Zr1245 Zr 0.24289 0.27940 0.26004
 O1246 O 0.22667 0.26504 0.24453
 Zr1247 Zr 0.25697 0.24540 0.27978
 O1248 O 0.24155 0.22917 0.26531
 O1249 O 0.23260 0.23512 0.23531
 O1250 O 0.26477 0.26726 0.26783
 C1251 C 0.20197 0.24974 0.22294
 C1252 C 0.24694 0.22344 0.20436
 C1253 C 0.22054 0.20417 0.24965
 C1254 C 0.29539 0.25382 0.27974
 C1255 C 0.27721 0.29757 0.25519
 C1256 C 0.25110 0.27977 0.29801
 H1257 H 0.25876 0.28279 0.23140
 H1258 H 0.22786 0.26107 0.28285
 H1259 H 0.22543 0.22796 0.22809
 H1260 H 0.28018 0.23054 0.26126
 H1261 H 0.29594 0.24003 0.22817
 H1262 H 0.28107 0.21638 0.22566
 H1263 H 0.21196 0.28901 0.26287
 H1264 H 0.19718 0.26530 0.26041
 H1265 H 0.29807 0.27313 0.22500
 H1266 H 0.24975 0.26499 0.19266
 H1267 H 0.23391 0.24195 0.30260
 H1268 H 0.21589 0.22619 0.28456
 H1269 H 0.22677 0.27844 0.20215
 H1270 H 0.23504 0.30986 0.25095
 H1271 H 0.25816 0.20156 0.26709
 H1272 H 0.27420 0.21837 0.28596
 O1273 O 0.74638 0.71271 0.28414
 O1274 O 0.72056 0.71103 0.26784
 O1275 O 0.78544 0.71533 0.24788
 O1276 O 0.79076 0.73331 0.22324
 O1277 O 0.78303 0.75235 0.28704
 O1278 O 0.76621 0.77677 0.29145
 O1279 O 0.74237 0.76174 0.20345
 O1280 O 0.75541 0.73639 0.20089
 O1281 O 0.70269 0.75692 0.23731
 O1282 O 0.70134 0.74180 0.26476
 O1283 O 0.73614 0.79593 0.24361
 O1284 O 0.76501 0.79864 0.25508
 O1285 O 0.75184 0.78501 0.21724
 O1286 O 0.77707 0.79028 0.23458
 O1287 O 0.71278 0.78229 0.25306
 O1288 O 0.70953 0.76819 0.27770
 O1289 O 0.71653 0.74729 0.21416
 O1290 O 0.73241 0.72025 0.21277
 O1291 O 0.75558 0.73612 0.29790
 O1292 O 0.74502 0.76513 0.30002
 O1293 O 0.79684 0.74274 0.26387
 O1294 O 0.79923 0.75377 0.23618
 O1295 O 0.76217 0.70173 0.25765
 O1296 O 0.73506 0.70094 0.24350
 Zr1297 Zr 0.74384 0.72079 0.25908
 O1298 O 0.72810 0.73545 0.24364
 Zr1299 Zr 0.77801 0.74071 0.24539
 O1300 O 0.76351 0.75601 0.22940
 Zr1301 Zr 0.75786 0.75474 0.27916
 O1302 O 0.74252 0.77058 0.26455
 Zr1303 Zr 0.74140 0.74345 0.22240
 O1304 O 0.75687 0.72727 0.23687
 Zr1305 Zr 0.72117 0.75749 0.25626
 O1306 O 0.73554 0.74211 0.27261
 Zr1307 Zr 0.75515 0.77741 0.24242
 O1308 O 0.77138 0.76307 0.25798
 O1309 O 0.76559 0.73304 0.26695
 O1310 O 0.73341 0.76529 0.23448
 C1311 C 0.75083 0.72069 0.29746
 C1312 C 0.77753 0.70208 0.25267
 C1313 C 0.79636 0.74768 0.27922
 C1314 C 0.74687 0.77722 0.20399
 C1315 C 0.70330 0.75248 0.22182
 C1316 C 0.72061 0.79547 0.24807
 H1317 H 0.71810 0.72877 0.24044
 H1318 H 0.73926 0.78046 0.27138
 H1319 H 0.77276 0.72588 0.27418
 H1320 H 0.77029 0.75892 0.21940
 H1321 H 0.76113 0.72568 0.20365
 H1322 H 0.78473 0.72345 0.21866
 H1323 H 0.71129 0.76022 0.28708
 H1324 H 0.73496 0.75810 0.30200
 H1325 H 0.72809 0.72231 0.20126
 H1326 H 0.73607 0.69015 0.24966
 H1327 H 0.75831 0.80034 0.26542
 H1328 H 0.77404 0.78243 0.28361
 H1329 H 0.72244 0.69962 0.27251
 H1330 H 0.69069 0.74825 0.26382
 H1331 H 0.79907 0.76500 0.24156
 H1332 H 0.78223 0.78370 0.22537
 O1333 O 0.71443 0.28315 0.74589
 O1334 O 0.71258 0.26707 0.71995
 O1335 O 0.71734 0.24656 0.78456
 O1336 O 0.73529 0.22179 0.78951
 O1337 O 0.75431 0.28565 0.78236
 O1338 O 0.77864 0.29018 0.76547
 O1339 O 0.76347 0.20237 0.74085
 O1340 O 0.73820 0.19971 0.75392
 O1341 O 0.75832 0.23668 0.70152
 O1342 O 0.74327 0.26422 0.70059
 O1343 O 0.79762 0.24253 0.73485
 O1344 O 0.80057 0.25372 0.76372
 O1345 O 0.78679 0.21604 0.75038
 O1346 O 0.79220 0.23322 0.77572
 O1347 O 0.78383 0.25222 0.71166
 O1348 O 0.76976 0.27693 0.70874
 O1349 O 0.74882 0.21338 0.71516
 O1350 O 0.72189 0.21187 0.73120
 O1351 O 0.73788 0.29681 0.75514
 O1352 O 0.76684 0.29897 0.74442
 O1353 O 0.74480 0.26234 0.79596
 O1354 O 0.75588 0.23457 0.79798
 O1355 O 0.70357 0.25656 0.76148
 O1356 O 0.70258 0.24262 0.73427
 Zr1357 Zr 0.72251 0.25809 0.74306
 O1358 O 0.73708 0.24277 0.72710
 Zr1359 Zr 0.74266 0.24404 0.77696
 O1360 O 0.75786 0.22815 0.76223
 Zr1361 Zr 0.75655 0.27800 0.75711
 O1362 O 0.77230 0.26350 0.74156
 Zr1363 Zr 0.74517 0.22138 0.74013
 O1364 O 0.72907 0.23573 0.75582
 Zr1365 Zr 0.75908 0.25543 0.72021
 O1366 O 0.74377 0.27168 0.73481
 Zr1367 Zr 0.77922 0.24123 0.75391
 O1368 O 0.76498 0.25667 0.77036
 O1369 O 0.73490 0.26574 0.76481
 O1370 O 0.76697 0.23350 0.73217
 C1371 C 0.72241 0.29642 0.75045
 C1372 C 0.70403 0.25147 0.77678
 C1373 C 0.74972 0.27770 0.79562
 C1374 C 0.77897 0.20284 0.74533
 C1375 C 0.75387 0.22118 0.70198
 C1376 C 0.79707 0.24713 0.71938
 H1377 H 0.73032 0.23969 0.71712
 H1378 H 0.78216 0.27034 0.73832
 H1379 H 0.72779 0.27292 0.77208
 H1380 H 0.76081 0.21808 0.76889
 H1381 H 0.72757 0.20245 0.75977
 H1382 H 0.72540 0.21729 0.78348
 H1383 H 0.76186 0.28635 0.71069
 H1384 H 0.75971 0.30109 0.73446
 H1385 H 0.72392 0.20041 0.72671
 H1386 H 0.69180 0.24881 0.73539
 H1387 H 0.80215 0.26418 0.75719
 H1388 H 0.78435 0.28225 0.77319
 H1389 H 0.70119 0.27176 0.72193
 H1390 H 0.74962 0.26336 0.68990
 H1391 H 0.76708 0.24001 0.79787
 H1392 H 0.78569 0.22392 0.78078
 C1393 C 0.10910 1.01379 1.20120
 C1394 C 0.10234 1.01189 1.18777
 C1395 C 0.09415 1.01008 1.17174
 C1396 C 0.07805 1.00306 1.17079
 C1397 C 0.06978 1.00200 1.15532
 C1398 C 0.07750 1.00798 1.14058
 C1399 C 0.09378 1.01484 1.14164
 C1400 C 0.10202 1.01590 1.15713
 C1401 C 0.06851 1.00734 1.12422
 C1402 C 0.07711 1.00302 1.10937
 C1403 C 0.06862 1.00256 1.09398
 C1404 C 0.05146 1.00642 1.09322
 C1405 C 0.04280 1.01073 1.10792
 C1406 C 0.05125 1.01119 1.12332
 C1407 C 0.04266 1.00583 1.07742
 C1408 C 0.03513 1.00528 1.06429
 H1409 H 0.07184 0.99852 1.18202
 H1410 H 0.05736 0.99644 1.15488
 H1411 H 0.09997 1.01975 1.13056
 H1412 H 0.11445 1.02145 1.15774
 H1413 H 0.09035 0.99981 1.10968
 H1414 H 0.07543 0.99914 1.08268
 H1415 H 0.02952 1.01377 1.10747
 H1416 H 0.04434 1.01480 1.13447
 C1417 C 0.61006 0.51452 0.69976
 C1418 C 0.60346 0.51271 0.68623
 C1419 C 0.59546 0.51102 0.67010
 C1420 C 0.58569 0.49686 0.66646
 C1421 C 0.57746 0.49555 0.65098
 C1422 C 0.57891 0.50842 0.63892
 C1423 C 0.58890 0.52253 0.64265
 C1424 C 0.59710 0.52381 0.65814
 C1425 C 0.56982 0.50729 0.62265
 C1426 C 0.57752 0.51260 0.60764
 C1427 C 0.56880 0.51185 0.59239
 C1428 C 0.55229 0.50580 0.59194
 C1429 C 0.54454 0.50043 0.60679
 C1430 C 0.55323 0.50116 0.62204
 C1431 C 0.54323 0.50518 0.57630
 C1432 C 0.53553 0.50461 0.56326
 H1433 H 0.58434 0.48688 0.67563
 H1434 H 0.57004 0.48443 0.64840
 H1435 H 0.59008 0.53274 0.63375
 H1436 H 0.60456 0.53487 0.66086
 H1437 H 0.59034 0.51719 0.60766
 H1438 H 0.57494 0.51599 0.58096
 H1439 H 0.53174 0.49577 0.60659
 H1440 H 0.54687 0.49720 0.63340
 C1441 C 0.38997 -0.01350 0.69783
 C1442 C 0.39646 -0.01087 0.68440
 C1443 C 0.40437 -0.00816 0.66837
 C1444 C 0.41873 0.00193 0.66720
 C1445 C 0.42688 0.00391 0.65175
 C1446 C 0.42078 -0.00421 0.63727
 C1447 C 0.40620 -0.01415 0.63854
 C1448 C 0.39808 -0.01612 0.65400
 C1449 C 0.42980 -0.00270 0.62100
 C1450 C 0.42084 -0.00111 0.60582
 C1451 C 0.42938 -0.00019 0.59049
 C1452 C 0.44697 -0.00087 0.59011
 C1453 C 0.45600 -0.00232 0.60513
 C1454 C 0.44749 -0.00322 0.62047
 C1455 C 0.45577 -0.00040 0.57431
 C1456 C 0.46326 -0.00018 0.56114
 H1457 H 0.42371 0.00815 0.67824
 H1458 H 0.43794 0.01181 0.65113
 H1459 H 0.40132 -0.02075 0.62769
 H1460 H 0.38703 -0.02404 0.65479
 H1461 H 0.40723 -0.00047 0.60583
 H1462 H 0.42227 0.00095 0.57893
 H1463 H 0.46962 -0.00292 0.60497
 H1464 H 0.45475 -0.00469 0.63190
 C1465 C -0.10893 0.48549 1.19727
 C1466 C -0.10184 0.48748 1.18403
 C1467 C -0.09320 0.48931 1.16824
 C1468 C -0.10027 0.49891 1.15530
 C1469 C -0.09205 0.50020 1.13981
 C1470 C -0.07667 0.49185 1.13706
 C1471 C -0.06962 0.48234 1.15021
 C1472 C -0.07785 0.48108 1.16568
 C1473 C -0.06804 0.49293 1.12054
 C1474 C -0.06030 0.47863 1.11351
 C1475 C -0.05200 0.47965 1.09806
 C1476 C -0.05131 0.49496 1.08943
 C1477 C -0.05903 0.50923 1.09626
 C1478 C -0.06737 0.50824 1.11171
 C1479 C -0.04245 0.49602 1.07369
 C1480 C -0.03489 0.49683 1.06059
 H1481 H -0.11220 0.50526 1.15713
 H1482 H -0.09788 0.50746 1.12987
 H1483 H -0.05768 0.47598 1.14858
 H1484 H -0.07226 0.47363 1.17562
 H1485 H -0.06081 0.46661 1.11988
 H1486 H -0.04609 0.46852 1.09287
 H1487 H -0.05852 0.52116 1.08970
 H1488 H -0.07303 0.51950 1.11688
 C1489 C -0.11149 0.51077 0.29818
 C1490 C -0.10518 0.50846 0.31177
 C1491 C -0.09752 0.50620 0.32799
 C1492 C -0.08422 0.49483 0.33002
 C1493 C -0.07627 0.49325 0.34562
 C1494 C -0.08152 0.50305 0.35940
 C1495 C -0.09504 0.51429 0.35727
 C1496 C -0.10296 0.51585 0.34166
 C1497 C -0.07268 0.50189 0.37581
 C1498 C -0.08175 0.50241 0.39099
 C1499 C -0.07333 0.50182 0.40642
 C1500 C -0.05577 0.50070 0.40687
 C1501 C -0.04665 0.50004 0.39185
 C1502 C -0.05503 0.50063 0.37642
 C1503 C -0.04706 0.50046 0.42273
 C1504 C -0.03963 0.50036 0.43593
 H1505 H -0.07991 0.48730 0.31952
 H1506 H -0.06605 0.48433 0.34692
 H1507 H -0.09923 0.52217 0.36755
 H1508 H -0.11317 0.52477 0.34020
 H1509 H -0.09534 0.50318 0.39094
 H1510 H -0.08052 0.50229 0.41798
 H1511 H -0.03304 0.49924 0.39206
 H1512 H -0.04767 0.50045 0.36497
 C1513 C 0.38879 1.01010 -0.20056
 C1514 C 0.39525 1.00781 -0.18705
 C1515 C 0.40310 1.00562 -0.17090
 C1516 C 0.39681 1.01420 -0.15688
 C1517 C 0.40488 1.01280 -0.14134
 C1518 C 0.41941 1.00282 -0.13962
 C1519 C 0.42551 0.99407 -0.15375
 C1520 C 0.41740 0.99548 -0.16928
 C1521 C 0.42839 1.00191 -0.12328
 C1522 C 0.44608 1.00232 -0.12272
 C1523 C 0.45454 1.00197 -0.10733
 C1524 C 0.44546 1.00119 -0.09229
 C1525 C 0.42787 1.00065 -0.09269
 C1526 C 0.41938 1.00101 -0.10808
 C1527 C 0.45422 1.00118 -0.07646
 C1528 C 0.46167 1.00127 -0.06326
 H1529 H 0.38580 1.02217 -0.15801
 H1530 H 0.40001 1.01987 -0.13077
 H1531 H 0.43654 0.98612 -0.15278
 H1532 H 0.42238 0.98880 -0.18006
 H1533 H 0.45337 1.00326 -0.13418
 H1534 H 0.46816 1.00245 -0.10715
 H1535 H 0.42072 1.00001 -0.08111
 H1536 H 0.40577 1.00048 -0.10809
 C1537 C 0.61140 0.48651 -0.19892
 C1538 C 0.60512 0.48832 -0.18525
 C1539 C 0.59751 0.49003 -0.16893
 C1540 C 0.58319 0.50006 -0.16683
 C1541 C 0.57540 0.50115 -0.15111
 C1542 C 0.58183 0.49218 -0.13727
 C1543 C 0.59634 0.48226 -0.13949
 C1544 C 0.60411 0.48120 -0.15521
 C1545 C 0.57326 0.49292 -0.12070
 C1546 C 0.57140 0.47829 -0.11092
 C1547 C 0.56303 0.47891 -0.09548
 C1548 C 0.55643 0.49414 -0.08960
 C1549 C 0.55830 0.50877 -0.09918
 C1550 C 0.56666 0.50818 -0.11463
 C1551 C 0.54749 0.49471 -0.07388
 C1552 C 0.53986 0.49524 -0.06080
 H1553 H 0.57792 0.50687 -0.17738
 H1554 H 0.56413 0.50871 -0.14986
 H1555 H 0.60171 0.47538 -0.12904
 H1556 H 0.61519 0.47340 -0.15670
 H1557 H 0.57614 0.46632 -0.11535
 H1558 H 0.56159 0.46750 -0.08820
 H1559 H 0.55325 0.52063 -0.09473
 H1560 H 0.56806 0.51968 -0.12176
 C1561 C 0.10938 -0.01424 0.30127
 C1562 C 0.10261 -0.01257 0.31473
 C1563 C 0.09438 -0.01110 0.33077
 C1564 C 0.09887 0.00170 0.34198
 C1565 C 0.09098 0.00289 0.35766
 C1566 C 0.07851 -0.00877 0.36232
 C1567 C 0.07406 -0.02154 0.35093
 C1568 C 0.08195 -0.02269 0.33528
 C1569 C 0.07014 -0.00763 0.37898
 C1570 C 0.06658 -0.02229 0.38823
 C1571 C 0.05839 -0.02127 0.40374
 C1572 C 0.05364 -0.00561 0.41023
 C1573 C 0.05723 0.00905 0.40120
 C1574 C 0.06544 0.00806 0.38568
 C1575 C 0.04482 -0.00465 0.42600
 C1576 C 0.03727 -0.00391 0.43912
 H1577 H 0.10853 0.01070 0.33865
 H1578 H 0.09480 0.01275 0.36622
 H1579 H 0.06434 -0.03055 0.35403
 H1580 H 0.07836 -0.03263 0.32669
 H1581 H 0.07025 -0.03453 0.38352
 H1582 H 0.05570 -0.03270 0.41063
 H1583 H 0.05355 0.02123 0.40609
 H1584 H 0.06782 0.01955 0.37878
 C1585 C 0.19819 1.11027 1.01523
 C1586 C 0.18464 1.10378 1.01321
 C1587 C 0.16847 1.09592 1.01122
 C1588 C 0.16737 1.07948 1.00506
 C1589 C 0.15173 1.07157 1.00379
 C1590 C 0.13696 1.08001 1.00872
 C1591 C 0.13818 1.09661 1.01474
 C1592 C 0.15384 1.10449 1.01599
 C1593 C 0.12040 1.07143 1.00787
 C1594 C 0.10859 1.07335 1.02092
 C1595 C 0.09316 1.06497 1.02030
 C1596 C 0.08931 1.05458 1.00664
 C1597 C 0.10091 1.05267 0.99354
 C1598 C 0.11635 1.06103 0.99414
 C1599 C 0.07356 1.04569 1.00615
 C1600 C 0.06045 1.03811 1.00570
 H1601 H 0.17863 1.07269 1.00143
 H1602 H 0.15123 1.05872 0.99932
 H1603 H 0.12703 1.10351 1.01843
 H1604 H 0.15455 1.11723 1.02078
 H1605 H 0.11143 1.08108 1.03176
 H1606 H 0.08429 1.06649 1.03053
 H1607 H 0.09803 1.04468 0.98289
 H1608 H 0.12508 1.05946 0.98381
 C1609 C 0.69761 0.61096 0.51535
 C1610 C 0.68407 0.60445 0.51333
 C1611 C 0.66794 0.59653 0.51130
 C1612 C 0.66683 0.58057 0.50399
 C1613 C 0.65125 0.57255 0.50265
 C1614 C 0.63655 0.58041 0.50865
 C1615 C 0.63778 0.59654 0.51583
 C1616 C 0.65338 0.60453 0.51715
 C1617 C 0.62008 0.57168 0.50770
 C1618 C 0.60869 0.57248 0.52123
 C1619 C 0.59334 0.56396 0.52049
 C1620 C 0.58915 0.55455 0.50624
 C1621 C 0.60033 0.55376 0.49267
 C1622 C 0.61569 0.56226 0.49339
 C1623 C 0.57348 0.54554 0.50560
 C1624 C 0.56041 0.53789 0.50505
 H1625 H 0.67804 0.57422 0.49952
 H1626 H 0.65075 0.56006 0.49727
 H1627 H 0.62667 0.60300 0.52037
 H1628 H 0.65410 0.61689 0.52283
 H1629 H 0.61180 0.57944 0.53251
 H1630 H 0.58480 0.56461 0.53109
 H1631 H 0.59719 0.54653 0.48156
 H1632 H 0.62409 0.56156 0.48269
 C1633 C 0.70226 0.38878 -0.01331
 C1634 C 0.68875 0.39534 -0.01110
 C1635 C 0.67263 0.40332 -0.00892
 C1636 C 0.67167 0.41975 -0.00269
 C1637 C 0.65608 0.42779 -0.00127
 C1638 C 0.64122 0.41950 -0.00613
 C1639 C 0.64231 0.40291 -0.01222
 C1640 C 0.65792 0.39490 -0.01361
 C1641 C 0.62471 0.42823 -0.00514
 C1642 C 0.61279 0.42641 -0.01810
 C1643 C 0.59740 0.43491 -0.01736
 C1644 C 0.59369 0.44531 -0.00365
 C1645 C 0.60541 0.44712 0.00935
 C1646 C 0.62082 0.43865 0.00862
 C1647 C 0.57797 0.45430 -0.00303
 C1648 C 0.56487 0.46194 -0.00250
 H1649 H 0.68300 0.42643 0.00088
 H1650 H 0.65569 0.44063 0.00325
 H1651 H 0.63109 0.39612 -0.01585
 H1652 H 0.65852 0.38218 -0.01846
 H1653 H 0.61550 0.41868 -0.02898
 H1654 H 0.58845 0.43347 -0.02752
 H1655 H 0.60265 0.45512 0.02003
 H1656 H 0.62963 0.44014 0.01889
 C1657 C 0.19976 -0.11095 0.48771
 C1658 C 0.18620 -0.10448 0.48987
 C1659 C 0.17003 -0.09659 0.49196
 C1660 C 0.15619 -0.10232 0.48272
 C1661 C 0.14064 -0.09421 0.48413
 C1662 C 0.13872 -0.08021 0.49478
 C1663 C 0.15266 -0.07466 0.50416
 C1664 C 0.16821 -0.08280 0.50275
 C1665 C 0.12235 -0.07122 0.49580
 C1666 C 0.12184 -0.05354 0.49640
 C1667 C 0.10644 -0.04505 0.49705
 C1668 C 0.09135 -0.05409 0.49712
 C1669 C 0.09171 -0.07167 0.49660
 C1670 C 0.10710 -0.08020 0.49594
 C1671 C 0.07553 -0.04527 0.49769
 C1672 C 0.06237 -0.03773 0.49819
 H1673 H 0.15749 -0.11292 0.47426
 H1674 H 0.13022 -0.09866 0.47657
 H1675 H 0.15154 -0.06406 0.51263
 H1676 H 0.17883 -0.07825 0.50995
 H1677 H 0.13333 -0.04626 0.49607
 H1678 H 0.10631 -0.03143 0.49741
 H1679 H 0.08010 -0.07880 0.49670
 H1680 H 0.10708 -0.09381 0.49568
 C1681 C 0.30101 -0.10988 0.51243
 C1682 C 0.31437 -0.10313 0.51004
 C1683 C 0.33034 -0.09498 0.50761
 C1684 C 0.34528 -0.10422 0.50894
 C1685 C 0.36083 -0.09617 0.50733
 C1686 C 0.36163 -0.07874 0.50438
 C1687 C 0.34653 -0.06960 0.50288
 C1688 C 0.33100 -0.07767 0.50451
 C1689 C 0.37813 -0.07005 0.50324
 C1690 C 0.38074 -0.05721 0.49136
 C1691 C 0.39615 -0.04878 0.49059
 C1692 C 0.40915 -0.05306 0.50165
 C1693 C 0.40672 -0.06589 0.51344
 C1694 C 0.39133 -0.07434 0.51423
 C1695 C 0.42487 -0.04411 0.50112
 C1696 C 0.43799 -0.03653 0.50077
 H1697 H 0.34492 -0.11762 0.51135
 H1698 H 0.37221 -0.10358 0.50833
 H1699 H 0.34672 -0.05614 0.50084
 H1700 H 0.31952 -0.07038 0.50356
 H1701 H 0.37090 -0.05376 0.48260
 H1702 H 0.39790 -0.03889 0.48140
 H1703 H 0.41667 -0.06926 0.52211
 H1704 H 0.38965 -0.08400 0.52366
 C1705 C -0.19668 0.38952 1.01216
 C1706 C -0.18323 0.39617 1.00997
 C1707 C -0.16718 0.40425 1.00781
 C1708 C -0.16639 0.42086 1.00208
 C1709 C -0.15086 0.42897 1.00068
 C1710 C -0.13589 0.42056 1.00503
 C1711 C -0.13681 0.40379 1.01060
 C1712 C -0.15236 0.39571 1.01199
 C1713 C -0.11943 0.42934 1.00404
 C1714 C -0.10730 0.42716 1.01674
 C1715 C -0.09195 0.43570 1.01600
 C1716 C -0.08852 0.44652 1.00257
 C1717 C -0.10046 0.44870 0.98983
 C1718 C -0.11582 0.44018 0.99055
 C1719 C -0.07284 0.45554 1.00196
 C1720 C -0.05978 0.46320 1.00144
 H1721 H -0.17780 0.42763 0.99891
 H1722 H -0.15060 0.44194 0.99656
 H1723 H -0.12550 0.39691 1.01383
 H1724 H -0.15283 0.38285 1.01644
 H1725 H -0.10979 0.41909 1.02740
 H1726 H -0.08282 0.43396 1.02596
 H1727 H -0.09792 0.45703 0.97936
 H1728 H -0.12481 0.44197 0.98048
 C1729 C -0.20169 0.61063 0.48837
 C1730 C -0.18819 0.60401 0.49040
 C1731 C -0.17209 0.59595 0.49232
 C1732 C -0.15815 0.60194 0.48343
 C1733 C -0.14268 0.59365 0.48461
 C1734 C -0.14096 0.57921 0.49469
 C1735 C -0.15501 0.57341 0.50374
 C1736 C -0.17047 0.58173 0.50255
 C1737 C -0.12470 0.57003 0.49542
 C1738 C -0.12436 0.55234 0.49519
 C1739 C -0.10905 0.54369 0.49548
 C1740 C -0.09388 0.55258 0.49603
 C1741 C -0.09407 0.57017 0.49636
 C1742 C -0.10938 0.57885 0.49605
 C1743 C -0.07814 0.54363 0.49613
 C1744 C -0.06501 0.53604 0.49619
 H1745 H -0.15929 0.61287 0.47540
 H1746 H -0.13217 0.59830 0.47732
 H1747 H -0.15404 0.56246 0.51177
 H1748 H -0.18120 0.57698 0.50947
 H1749 H -0.13592 0.54519 0.49446
 H1750 H -0.10904 0.53007 0.49517
 H1751 H -0.08240 0.57717 0.49682
 H1752 H -0.10923 0.59246 0.49644
 C1753 C 0.29826 1.10989 -0.01161
 C1754 C 0.31183 1.10344 -0.00949
 C1755 C 0.32804 1.09563 -0.00746
 C1756 C 0.32998 1.08194 0.00341
 C1757 C 0.34557 1.07388 0.00479
 C1758 C 0.35942 1.07943 -0.00472
 C1759 C 0.35738 1.09334 -0.01546
 C1760 C 0.34178 1.10136 -0.01682
 C1761 C 0.37583 1.07052 -0.00375
 C1762 C 0.39103 1.07958 -0.00378
 C1763 C 0.40646 1.07113 -0.00329
 C1764 C 0.40691 1.05355 -0.00278
 C1765 C 0.39187 1.04443 -0.00265
 C1766 C 0.37643 1.05285 -0.00312
 C1767 C 0.42278 1.04483 -0.00256
 C1768 C 0.43601 1.03740 -0.00244
 H1769 H 0.31942 1.07740 0.01071
 H1770 H 0.34680 1.06335 0.01331
 H1771 H 0.36773 1.09776 -0.02311
 H1772 H 0.34039 1.11189 -0.02534
 H1773 H 0.39098 1.09319 -0.00406
 H1774 H 0.41804 1.07831 -0.00336
 H1775 H 0.39208 1.03082 -0.00231
 H1776 H 0.36497 1.04551 -0.00333
 C1777 C 0.01245 1.20155 1.11037
 C1778 C 0.01035 1.18786 1.10420
 C1779 C 0.00827 1.17152 1.09671
 C1780 C 0.01624 1.15751 1.10380
 C1781 C 0.01484 1.14174 1.09617
 C1782 C 0.00546 1.13976 1.08131
 C1783 C -0.00267 1.15389 1.07438
 C1784 C -0.00125 1.16966 1.08203
 C1785 C 0.00443 1.12312 1.07288
 C1786 C -0.01076 1.11760 1.06567
 C1787 C -0.01159 1.10209 1.05742
 C1788 C 0.00273 1.09190 1.05626
 C1789 C 0.01786 1.09722 1.06347
 C1790 C 0.01872 1.11271 1.07173
 C1791 C 0.00197 1.07613 1.04740
 C1792 C 0.00137 1.06301 1.03983
 H1793 H 0.02364 1.15881 1.11517
 H1794 H 0.02106 1.13108 1.10193
 H1795 H -0.00980 1.15282 1.06284
 H1796 H -0.00739 1.18043 1.07638
 H1797 H -0.02203 1.12522 1.06651
 H1798 H -0.02339 1.09808 1.05190
 H1799 H 0.02904 1.08946 1.06257
 H1800 H 0.03065 1.11670 1.07693
 C1801 C 0.51280 0.69999 0.61186
 C1802 C 0.51067 0.68637 0.60557
 C1803 C 0.50855 0.67011 0.59791
 C1804 C 0.51673 0.65606 0.60467
 C1805 C 0.51532 0.64039 0.59684
 C1806 C 0.50571 0.63856 0.58210
 C1807 C 0.49737 0.65272 0.57551
 C1808 C 0.49881 0.66839 0.58336
 C1809 C 0.50467 0.62204 0.57344
 C1810 C 0.48940 0.61651 0.56639
 C1811 C 0.48856 0.60112 0.55793
 C1812 C 0.50294 0.59106 0.55638
 C1813 C 0.51815 0.59639 0.56343
 C1814 C 0.51902 0.61176 0.57191
 C1815 C 0.50215 0.57541 0.54733
 C1816 C 0.50152 0.56237 0.53961
 H1817 H 0.52431 0.65725 0.61593
 H1818 H 0.52170 0.62969 0.60234
 H1819 H 0.49006 0.65177 0.56407
 H1820 H 0.49251 0.67920 0.57796
 H1821 H 0.47810 0.62403 0.56753
 H1822 H 0.47671 0.59710 0.55254
 H1823 H 0.52937 0.58873 0.56224
 H1824 H 0.53100 0.61577 0.57698
 C1825 C -0.01219 0.69930 0.38932
 C1826 C -0.01002 0.68569 0.39563
 C1827 C -0.00790 0.66945 0.40331
 C1828 C -0.00144 0.66818 0.41962
 C1829 C -0.00017 0.65247 0.42740
 C1830 C -0.00539 0.63782 0.41896
 C1831 C -0.01166 0.63921 0.40248
 C1832 C -0.01291 0.65493 0.39472
 C1833 C -0.00469 0.62122 0.42748
 C1834 C -0.01798 0.60969 0.42571
 C1835 C -0.01756 0.59425 0.43409
 C1836 C -0.00386 0.59012 0.44433
 C1837 C 0.00949 0.60143 0.44607
 C1838 C 0.00910 0.61689 0.43770
 C1839 C -0.00367 0.57440 0.45327
 C1840 C -0.00362 0.56129 0.46087
 H1841 H 0.00237 0.67935 0.42641
 H1842 H 0.00450 0.65184 0.44016
 H1843 H -0.01557 0.62815 0.39558
 H1844 H -0.01794 0.65578 0.38209
 H1845 H -0.02888 0.61274 0.41813
 H1846 H -0.02800 0.58561 0.43271
 H1847 H 0.02018 0.59834 0.45394
 H1848 H 0.01961 0.62541 0.43916
 C1849 C 0.48765 1.20049 -0.11005
 C1850 C 0.48979 1.18694 -0.10361
 C1851 C 0.49185 1.17075 -0.09580
 C1852 C 0.48642 1.15622 -0.10411
 C1853 C 0.48761 1.14057 -0.09621
 C1854 C 0.49425 1.13925 -0.07987
 C1855 C 0.49988 1.15390 -0.07171
 C1856 C 0.49866 1.16955 -0.07963
 C1857 C 0.49494 1.12272 -0.07121
 C1858 C 0.50893 1.11829 -0.06130
 C1859 C 0.50936 1.10288 -0.05287
 C1860 C 0.49585 1.09170 -0.05421
 C1861 C 0.48193 1.09594 -0.06411
 C1862 C 0.48147 1.11133 -0.07257
 C1863 C 0.49615 1.07598 -0.04526
 C1864 C 0.49633 1.06287 -0.03768
 H1865 H 0.48111 1.15702 -0.11662
 H1866 H 0.48338 1.12950 -0.10290
 H1867 H 0.50485 1.15333 -0.05905
 H1868 H 0.50281 1.18073 -0.07305
 H1869 H 0.51957 1.12669 -0.06017
 H1870 H 0.52021 1.09970 -0.04526
 H1871 H 0.47137 1.08740 -0.06519
 H1872 H 0.47043 1.11447 -0.07990
 C1873 C 0.51468 0.30043 -0.11073
 C1874 C 0.51279 0.31401 -0.10424
 C1875 C 0.51102 0.33020 -0.09636
 C1876 C 0.49846 0.33291 -0.08434
 C1877 C 0.49722 0.34844 -0.07619
 C1878 C 0.50857 0.36148 -0.07996
 C1879 C 0.52104 0.35868 -0.09220
 C1880 C 0.52225 0.34314 -0.10032
 C1881 C 0.50765 0.37780 -0.07092
 C1882 C 0.51025 0.39304 -0.07951
 C1883 C 0.50970 0.40837 -0.07089
 C1884 C 0.50657 0.40865 -0.05359
 C1885 C 0.50390 0.39358 -0.04494
 C1886 C 0.50444 0.37825 -0.05353
 C1887 C 0.50612 0.42438 -0.04465
 C1888 C 0.50570 0.43747 -0.03700
 H1889 H 0.48970 0.32297 -0.08117
 H1890 H 0.48736 0.35028 -0.06698
 H1891 H 0.53010 0.36837 -0.09522
 H1892 H 0.53208 0.34114 -0.10954
 H1893 H 0.51256 0.39313 -0.09292
 H1894 H 0.51173 0.41997 -0.07771
 H1895 H 0.50151 0.39366 -0.03154
 H1896 H 0.50263 0.36673 -0.04651
 C1897 C 0.01390 -0.19891 0.39018
 C1898 C 0.01190 -0.18544 0.39683
 C1899 C 0.00998 -0.16937 0.40492
 C1900 C 0.00060 -0.16799 0.41974
 C1901 C -0.00060 -0.15253 0.42802
 C1902 C 0.00759 -0.13823 0.42159
 C1903 C 0.01683 -0.13971 0.40657
 C1904 C 0.01802 -0.15519 0.39832
 C1905 C 0.00679 -0.12193 0.43068
 C1906 C 0.00501 -0.10673 0.42181
 C1907 C 0.00446 -0.09139 0.43041
 C1908 C 0.00572 -0.09106 0.44795
 C1909 C 0.00748 -0.10611 0.45687
 C1910 C 0.00802 -0.12145 0.44831
 C1911 C 0.00512 -0.07530 0.45683
 C1912 C 0.00455 -0.06219 0.46441
 H1913 H -0.00567 -0.17889 0.42496
 H1914 H -0.00799 -0.15174 0.43943
 H1915 H 0.02345 -0.12900 0.40142
 H1916 H 0.02540 -0.15615 0.38691
 H1917 H 0.00384 -0.10671 0.40825
 H1918 H 0.00303 -0.07981 0.42338
 H1919 H 0.00850 -0.10598 0.47045
 H1920 H 0.00965 -0.13290 0.45548
 C1921 C 0.48775 -0.19783 0.60994
 C1922 C 0.49011 -0.18438 0.60335
 C1923 C 0.49245 -0.16833 0.59537
 C1924 C 0.49920 -0.16745 0.57915
 C1925 C 0.50069 -0.15192 0.57106
 C1926 C 0.49541 -0.13705 0.57909
 C1927 C 0.48886 -0.13805 0.59549
 C1928 C 0.48738 -0.15359 0.60355
 C1929 C 0.49635 -0.12064 0.57024
 C1930 C 0.48310 -0.10895 0.57156
 C1931 C 0.48376 -0.09368 0.56291
 C1932 C 0.49766 -0.08985 0.55284
 C1933 C 0.51096 -0.10132 0.55152
 C1934 C 0.51032 -0.11662 0.56015
 C1935 C 0.49814 -0.07426 0.54369
 C1936 C 0.49840 -0.06123 0.53596
 H1937 H 0.50306 -0.17879 0.57265
 H1938 H 0.50558 -0.15160 0.55836
 H1939 H 0.48489 -0.12681 0.60208
 H1940 H 0.48214 -0.15413 0.61611
 H1941 H 0.47206 -0.11177 0.57902
 H1942 H 0.47336 -0.08491 0.56397
 H1943 H 0.52180 -0.09847 0.54378
 H1944 H 0.52080 -0.12526 0.55904
 C1945 C -0.01386 0.30191 1.10864
 C1946 C -0.01172 0.31543 1.10212
 C1947 C -0.00969 0.33158 1.09422
 C1948 C 0.00375 0.33446 1.08324
 C1949 C 0.00529 0.34997 1.07511
 C1950 C -0.00662 0.36280 1.07785
 C1951 C -0.01999 0.35981 1.08905
 C1952 C -0.02151 0.34430 1.09715
 C1953 C -0.00531 0.37911 1.06885
 C1954 C -0.00898 0.39432 1.07714
 C1955 C -0.00808 0.40962 1.06854
 C1956 C -0.00352 0.40993 1.05156
 C1957 C 0.00022 0.39489 1.04322
 C1958 C -0.00066 0.37958 1.05179
 C1959 C -0.00275 0.42565 1.04264
 C1960 C -0.00208 0.43875 1.03506
 H1961 H 0.01296 0.32469 1.08089
 H1962 H 0.01583 0.35195 1.06673
 H1963 H -0.02948 0.36934 1.09125
 H1964 H -0.03201 0.34217 1.10556
 H1965 H -0.01241 0.39440 1.09031
 H1966 H -0.01096 0.42120 1.07513
 H1967 H 0.00372 0.39498 1.03006
 H1968 H 0.00200 0.36808 1.04500
 C1969 C 0.76543 0.36012 0.04960
 C1970 C 0.76330 0.35355 0.06308
 C1971 C 0.76124 0.34558 0.07919
 C1972 C 0.74763 0.33483 0.08210
 C1973 C 0.74602 0.32663 0.09756
 C1974 C 0.75804 0.32908 0.11033
 C1975 C 0.77158 0.34004 0.10732
 C1976 C 0.77317 0.34821 0.09186
 C1977 C 0.75664 0.32001 0.12659
 C1978 C 0.76052 0.32814 0.14182
 C1979 C 0.75953 0.31947 0.15708
 C1980 C 0.75466 0.30257 0.15732
 C1981 C 0.75070 0.29439 0.14226
 C1982 C 0.75167 0.30303 0.12700
 C1983 C 0.75381 0.29356 0.17299
 C1984 C 0.75309 0.28590 0.18604
 H1985 H 0.73832 0.33270 0.07238
 H1986 H 0.73534 0.31844 0.09957
 H1987 H 0.78116 0.34202 0.11679
 H1988 H 0.78380 0.35644 0.08971
 H1989 H 0.76419 0.34125 0.14195
 H1990 H 0.76258 0.32594 0.16867
 H1991 H 0.74696 0.28129 0.14230
 H1992 H 0.74884 0.29635 0.11548
 C1993 C 0.26471 0.85981 0.55071
 C1994 C 0.26297 0.85291 0.56410
 C1995 C 0.26143 0.84452 0.58005
 C1996 C 0.24729 0.84715 0.59020
 C1997 C 0.24597 0.83903 0.60574
 C1998 C 0.25882 0.82819 0.61133
 C1999 C 0.27296 0.82562 0.60100
 C2000 C 0.27424 0.83373 0.58548
 C2001 C 0.25750 0.81953 0.62782
 C2002 C 0.27173 0.81780 0.63822
 C2003 C 0.27059 0.80934 0.65357
 C2004 C 0.25524 0.80250 0.65876
 C2005 C 0.24098 0.80425 0.64858
 C2006 C 0.24209 0.81273 0.63322
 C2007 C 0.25420 0.79345 0.67439
 C2008 C 0.25343 0.78575 0.68742
 H2009 H 0.23733 0.85552 0.58613
 H2010 H 0.23502 0.84141 0.61348
 H2011 H 0.28293 0.81716 0.60482
 H2012 H 0.28522 0.83157 0.57771
 H2013 H 0.28371 0.82310 0.63453
 H2014 H 0.28170 0.80809 0.66136
 H2015 H 0.22905 0.79896 0.65245
 H2016 H 0.23097 0.81367 0.62542
 C2017 C 0.73671 0.64028 0.55297
 C2018 C 0.73917 0.64687 0.56639
 C2019 C 0.74165 0.65489 0.58241
 C2020 C 0.75047 0.67007 0.58343
 C2021 C 0.75215 0.67829 0.59887
 C2022 C 0.74500 0.67142 0.61352
 C2023 C 0.73636 0.65603 0.61240
 C2024 C 0.73469 0.64784 0.59694
 C2025 C 0.74618 0.68047 0.62981
 C2026 C 0.74904 0.67161 0.64486
 C2027 C 0.74973 0.68014 0.66022
 C2028 C 0.74757 0.69760 0.66075
 C2029 C 0.74482 0.70652 0.64585
 C2030 C 0.74413 0.69803 0.63048
 C2031 C 0.74799 0.70638 0.67656
 C2032 C 0.74822 0.71386 0.68973
 H2033 H 0.75590 0.67564 0.57225
 H2034 H 0.75906 0.69000 0.59937
 H2035 H 0.73053 0.65053 0.62340
 H2036 H 0.72775 0.63614 0.59628
 H2037 H 0.75086 0.65812 0.64474
 H2038 H 0.75191 0.67312 0.67168
 H2039 H 0.74307 0.72004 0.64612
 H2040 H 0.74166 0.70517 0.61916
 C2041 C 0.23617 0.13988 0.05244
 C2042 C 0.23854 0.14675 0.06574
 C2043 C 0.24092 0.15513 0.08159
 C2044 C 0.24213 0.17267 0.08217
 C2045 C 0.24368 0.18091 0.09761
 C2046 C 0.24400 0.17170 0.11270
 C2047 C 0.24296 0.15405 0.11197
 C2048 C 0.24142 0.14583 0.09651
 C2049 C 0.24503 0.18051 0.12913
 C2050 C 0.23524 0.17512 0.14283
 C2051 C 0.23586 0.18369 0.15816
 C2052 C 0.24627 0.19774 0.16001
 C2053 C 0.25616 0.20313 0.14651
 C2054 C 0.25556 0.19458 0.13116
 C2055 C 0.24662 0.20676 0.17569
 C2056 C 0.24681 0.21436 0.18880
 H2057 H 0.24165 0.17999 0.07070
 H2058 H 0.24422 0.19451 0.09776
 H2059 H 0.24338 0.14660 0.12335
 H2060 H 0.24048 0.13224 0.09620
 H2061 H 0.22684 0.16448 0.14160
 H2062 H 0.22810 0.17945 0.16852
 H2063 H 0.26430 0.21397 0.14782
 H2064 H 0.26340 0.19891 0.12092
 C2065 C 0.26025 0.13862 0.95050
 C2066 C 0.25794 0.14516 0.93703
 C2067 C 0.25567 0.15311 0.92096
 C2068 C 0.26420 0.14695 0.90685
 C2069 C 0.26270 0.15513 0.89138
 C2070 C 0.25268 0.16965 0.88983
 C2071 C 0.24398 0.17562 0.90404
 C2072 C 0.24549 0.16741 0.91950
 C2073 C 0.25165 0.17873 0.87356
 C2074 C 0.25202 0.19642 0.87313
 C2075 C 0.25155 0.20497 0.85779
 C2076 C 0.25069 0.19599 0.84270
 C2077 C 0.25018 0.17840 0.84298
 C2078 C 0.25066 0.16981 0.85830
 C2079 C 0.25059 0.20482 0.82692
 C2080 C 0.25063 0.21228 0.81374
 H2081 H 0.27220 0.13595 0.90786
 H2082 H 0.26973 0.15035 0.88074
 H2083 H 0.23601 0.18664 0.90320
 H2084 H 0.23884 0.17229 0.93035
 H2085 H 0.25302 0.20363 0.88463
 H2086 H 0.25201 0.21859 0.85771
 H2087 H 0.24949 0.17133 0.83136
 H2088 H 0.25016 0.15621 0.85823
 C2089 C 0.76029 0.63940 0.45055
 C2090 C 0.75796 0.64577 0.43701
 C2091 C 0.75571 0.65349 0.42081
 C2092 C 0.76467 0.64745 0.40692
 C2093 C 0.76319 0.65542 0.39134
 C2094 C 0.75274 0.66959 0.38945
 C2095 C 0.74361 0.67543 0.40345
 C2096 C 0.74510 0.66743 0.41903
 C2097 C 0.75175 0.67849 0.37308
 C2098 C 0.75158 0.69617 0.37249
 C2099 C 0.75114 0.70458 0.35708
 C2100 C 0.75086 0.69545 0.34205
 C2101 C 0.75090 0.67785 0.34248
 C2102 C 0.75134 0.66942 0.35789
 C2103 C 0.75076 0.70416 0.32621
 C2104 C 0.75076 0.71162 0.31303
 H2105 H 0.77299 0.63673 0.40819
 H2106 H 0.77055 0.65076 0.38088
 H2107 H 0.73531 0.68618 0.40235
 H2108 H 0.73812 0.67222 0.42970
 H2109 H 0.75213 0.70352 0.38394
 H2110 H 0.75118 0.71820 0.35688
 H2111 H 0.75064 0.67066 0.33091
 H2112 H 0.75126 0.65580 0.35793
 C2113 C 0.23826 0.85983 0.44931
 C2114 C 0.24050 0.85330 0.43581
 C2115 C 0.24274 0.84539 0.41969
 C2116 C 0.23853 0.85407 0.40498
 C2117 C 0.23997 0.84614 0.38935
 C2118 C 0.24564 0.82941 0.38823
 C2119 C 0.25004 0.82086 0.40309
 C2120 C 0.24857 0.82881 0.41871
 C2121 C 0.24661 0.82077 0.37170
 C2122 C 0.26013 0.80996 0.36792
 C2123 C 0.26079 0.80156 0.35249
 C2124 C 0.24797 0.80382 0.34064
 C2125 C 0.23452 0.81461 0.34424
 C2126 C 0.23384 0.82304 0.35965
 C2127 C 0.24845 0.79489 0.32491
 C2128 C 0.24873 0.78733 0.31178
 H2129 H 0.23400 0.86691 0.40559
 H2130 H 0.23671 0.85313 0.37813
 H2131 H 0.25422 0.80791 0.40268
 H2132 H 0.25177 0.82195 0.43003
 H2133 H 0.27024 0.80811 0.37684
 H2134 H 0.27127 0.79325 0.34982
 H2135 H 0.22450 0.81640 0.33519
 H2136 H 0.22315 0.83107 0.36227
 C2137 C 0.73985 0.35976 0.94853
 C2138 C 0.74205 0.35326 0.93501
 C2139 C 0.74419 0.34539 0.91885
 C2140 C 0.73455 0.35076 0.90515
 C2141 C 0.73604 0.34269 0.88961
 C2142 C 0.74720 0.32909 0.88756
 C2143 C 0.75698 0.32391 0.90137
 C2144 C 0.75547 0.33201 0.91691
 C2145 C 0.74832 0.32013 0.87121
 C2146 C 0.74953 0.30248 0.87070
 C2147 C 0.75011 0.29400 0.85531
 C2148 C 0.74951 0.30302 0.84023
 C2149 C 0.74844 0.32059 0.84059
 C2150 C 0.74785 0.32910 0.85596
 C2151 C 0.74972 0.29422 0.82441
 C2152 C 0.74978 0.28674 0.81123
 H2153 H 0.72570 0.36105 0.90654
 H2154 H 0.72817 0.34684 0.87930
 H2155 H 0.76583 0.31362 0.90015
 H2156 H 0.76300 0.32774 0.92743
 H2157 H 0.74968 0.29520 0.88219
 H2158 H 0.75087 0.28040 0.85518
 H2159 H 0.74800 0.32770 0.82898
 H2160 H 0.74713 0.34269 0.85593
 C2161 C 0.86002 0.44756 0.23462
 C2162 C 0.85332 0.43412 0.23664
 C2163 C 0.84522 0.41807 0.23863
 C2164 C 0.82874 0.41722 0.24475
 C2165 C 0.82061 0.40169 0.24603
 C2166 C 0.82887 0.38680 0.24116
 C2167 C 0.84550 0.38778 0.23517
 C2168 C 0.85360 0.40332 0.23392
 C2169 C 0.82006 0.37036 0.24204
 C2170 C 0.82187 0.35848 0.22904
 C2171 C 0.81331 0.34315 0.22971
 C2172 C 0.80286 0.33948 0.24337
 C2173 C 0.80105 0.35116 0.25641
 C2174 C 0.80959 0.36650 0.25576
 C2175 C 0.79383 0.32382 0.24392
 C2176 C 0.78616 0.31076 0.24441
 H2177 H 0.82210 0.42857 0.24833
 H2178 H 0.80774 0.40138 0.25047
 H2179 H 0.85226 0.37653 0.23153
 H2180 H 0.86636 0.40384 0.22915
 H2181 H 0.82965 0.36117 0.21821
 H2182 H 0.81474 0.33422 0.21952
 H2183 H 0.79302 0.34842 0.26706
 H2184 H 0.80811 0.37529 0.26606
 C2185 C 0.36124 0.94694 0.73539
 C2186 C 0.35488 0.93332 0.73732
 C2187 C 0.34712 0.91709 0.73919
 C2188 C 0.33759 0.91342 0.75351
 C2189 C 0.32955 0.89786 0.75498
 C2190 C 0.33094 0.88577 0.74213
 C2191 C 0.34070 0.88953 0.72787
 C2192 C 0.34872 0.90509 0.72642
 C2193 C 0.32198 0.86944 0.74341
 C2194 C 0.32971 0.85445 0.73801
 C2195 C 0.32109 0.83916 0.73886
 C2196 C 0.30464 0.83865 0.74510
 C2197 C 0.29687 0.85347 0.75059
 C2198 C 0.30547 0.86876 0.74976
 C2199 C 0.29563 0.82297 0.74574
 C2200 C 0.28794 0.80994 0.74628
 H2201 H 0.33628 0.92262 0.76347
 H2202 H 0.32230 0.89526 0.76620
 H2203 H 0.34183 0.88059 0.71767
 H2204 H 0.35600 0.90784 0.71524
 H2205 H 0.34247 0.85453 0.73325
 H2206 H 0.32723 0.82775 0.73462
 H2207 H 0.28412 0.85322 0.75539
 H2208 H 0.29909 0.88010 0.75378
 C2209 C 0.13938 0.94971 0.26241
 C2210 C 0.14615 0.93636 0.25989
 C2211 C 0.15435 0.92042 0.25735
 C2212 C 0.17162 0.91981 0.25399
 C2213 C 0.17978 0.90431 0.25234
 C2214 C 0.17076 0.88919 0.25408
 C2215 C 0.15336 0.88995 0.25725
 C2216 C 0.14522 0.90547 0.25888
 C2217 C 0.17955 0.87273 0.25300
 C2218 C 0.17550 0.85966 0.26421
 C2219 C 0.18407 0.84431 0.26351
 C2220 C 0.19678 0.84181 0.25160
 C2221 C 0.20083 0.85467 0.24032
 C2222 C 0.19228 0.87004 0.24100
 C2223 C 0.20584 0.82613 0.25116
 C2224 C 0.21348 0.81303 0.25092
 H2225 H 0.17883 0.93131 0.25288
 H2226 H 0.19322 0.90415 0.25013
 H2227 H 0.14603 0.87855 0.25844
 H2228 H 0.13185 0.90580 0.26149
 H2229 H 0.16594 0.86141 0.27374
 H2230 H 0.18088 0.83446 0.27234
 H2231 H 0.21063 0.85285 0.23103
 H2232 H 0.19555 0.87978 0.23208
 C2233 C 0.64029 0.44925 0.76129
 C2234 C 0.64687 0.43582 0.75874
 C2235 C 0.65485 0.41977 0.75623
 C2236 C 0.67193 0.41896 0.75206
 C2237 C 0.67994 0.40337 0.75053
 C2238 C 0.67096 0.38837 0.75321
 C2239 C 0.65373 0.38932 0.75717
 C2240 C 0.64575 0.40493 0.75868
 C2241 C 0.67963 0.37184 0.75229
 C2242 C 0.67608 0.35919 0.76413
 C2243 C 0.68457 0.34379 0.76356
 C2244 C 0.69669 0.34081 0.75116
 C2245 C 0.70023 0.35326 0.73925
 C2246 C 0.69177 0.36867 0.73980
 C2247 C 0.70568 0.32510 0.75083
 C2248 C 0.71328 0.31197 0.75063
 H2249 H 0.67913 0.43037 0.75025
 H2250 H 0.69326 0.40307 0.74768
 H2251 H 0.64643 0.37800 0.75909
 H2252 H 0.63252 0.40541 0.76194
 H2253 H 0.66699 0.36132 0.77404
 H2254 H 0.68178 0.33427 0.77288
 H2255 H 0.70958 0.35107 0.72958
 H2256 H 0.69464 0.37808 0.73040
 C2257 C 0.63950 0.55193 0.73894
 C2258 C 0.64599 0.56539 0.74142
 C2259 C 0.65388 0.58148 0.74387
 C2260 C 0.66844 0.58278 0.75367
 C2261 C 0.67659 0.59826 0.75533
 C2262 C 0.67029 0.61266 0.74717
 C2263 C 0.65550 0.61125 0.73755
 C2264 C 0.64738 0.59576 0.73590
 C2265 C 0.67932 0.62896 0.74832
 C2266 C 0.67036 0.64416 0.74993
 C2267 C 0.67890 0.65951 0.75055
 C2268 C 0.69648 0.65988 0.74955
 C2269 C 0.70549 0.64483 0.74805
 C2270 C 0.69699 0.62947 0.74744
 C2271 C 0.70528 0.67567 0.74985
 C2272 C 0.71281 0.68881 0.75001
 H2273 H 0.67359 0.57180 0.75989
 H2274 H 0.68782 0.59899 0.76300
 H2275 H 0.65046 0.62203 0.73094
 H2276 H 0.63618 0.59487 0.72820
 H2277 H 0.65677 0.64416 0.75083
 H2278 H 0.67180 0.67109 0.75175
 H2279 H 0.71910 0.64497 0.74721
 H2280 H 0.70423 0.61802 0.74595
 C2281 C 0.13944 0.05084 0.23873
 C2282 C 0.14636 0.06415 0.24081
 C2283 C 0.15480 0.08004 0.24265
 C2284 C 0.16889 0.08359 0.23274
 C2285 C 0.17685 0.09918 0.23399
 C2286 C 0.17082 0.11149 0.24518
 C2287 C 0.15675 0.10776 0.25524
 C2288 C 0.14877 0.09213 0.25395
 C2289 C 0.17912 0.12818 0.24620
 C2290 C 0.18167 0.13609 0.26182
 C2291 C 0.18976 0.15168 0.26271
 C2292 C 0.19535 0.15957 0.24802
 C2293 C 0.19274 0.15187 0.23243
 C2294 C 0.18468 0.13630 0.23151
 C2295 C 0.20403 0.17541 0.24888
 C2296 C 0.21147 0.18860 0.24936
 H2297 H 0.17367 0.07432 0.22396
 H2298 H 0.18781 0.10157 0.22627
 H2299 H 0.15170 0.11704 0.26384
 H2300 H 0.13783 0.08955 0.26163
 H2301 H 0.17769 0.13008 0.27336
 H2302 H 0.19177 0.15750 0.27486
 H2303 H 0.19699 0.15788 0.22097
 H2304 H 0.18268 0.13066 0.21928
 C2305 C 0.35978 0.04859 0.76226
 C2306 C 0.35320 0.06210 0.76018
 C2307 C 0.34524 0.07822 0.75815
 C2308 C 0.32828 0.07918 0.75351
 C2309 C 0.32031 0.09481 0.75227
 C2310 C 0.32921 0.10971 0.75570
 C2311 C 0.34631 0.10862 0.76017
 C2312 C 0.35425 0.09298 0.76139
 C2313 C 0.32059 0.12628 0.75496
 C2314 C 0.32378 0.13862 0.76724
 C2315 C 0.31538 0.15407 0.76677
 C2316 C 0.30372 0.15741 0.75403
 C2317 C 0.30054 0.14527 0.74169
 C2318 C 0.30891 0.12980 0.74214
 C2319 C 0.29486 0.17319 0.75373
 C2320 C 0.28734 0.18636 0.75351
 H2321 H 0.32116 0.06783 0.75107
 H2322 H 0.30709 0.09521 0.74902
 H2323 H 0.35355 0.11987 0.76268
 H2324 H 0.36738 0.09238 0.76500
 H2325 H 0.33251 0.13620 0.77740
 H2326 H 0.31789 0.16335 0.77642
 H2327 H 0.29156 0.14774 0.73175
 H2328 H 0.30634 0.12065 0.73240
 C2329 C 0.86018 0.54928 0.26052
 C2330 C 0.85367 0.56282 0.25842
 C2331 C 0.84574 0.57897 0.25645
 C2332 C 0.83143 0.58066 0.24633
 C2333 C 0.82324 0.59618 0.24512
 C2334 C 0.82926 0.61023 0.25404
 C2335 C 0.84378 0.60845 0.26399
 C2336 C 0.85194 0.59292 0.26519
 C2337 C 0.82020 0.62657 0.25331
 C2338 C 0.82915 0.64181 0.25256
 C2339 C 0.82058 0.65718 0.25227
 C2340 C 0.80298 0.65752 0.25275
 C2341 C 0.79397 0.64244 0.25341
 C2342 C 0.80251 0.62706 0.25368
 C2343 C 0.79415 0.67333 0.25269
 C2344 C 0.78662 0.68650 0.25268
 H2345 H 0.82652 0.56994 0.23952
 H2346 H 0.81222 0.59721 0.23719
 H2347 H 0.84859 0.61896 0.27119
 H2348 H 0.86294 0.59173 0.27314
 H2349 H 0.84276 0.64185 0.25206
 H2350 H 0.82768 0.66879 0.25171
 H2351 H 0.78035 0.64256 0.25383
 H2352 H 0.79527 0.61557 0.25451
 C2353 C 0.94781 0.26432 0.13720
 C2354 C 0.93421 0.26212 0.14352
 C2355 C 0.91797 0.25999 0.15122
 C2356 C 0.90577 0.27258 0.14958
 C2357 C 0.89018 0.27089 0.15751
 C2358 C 0.88658 0.25657 0.16723
 C2359 C 0.89888 0.24389 0.16867
 C2360 C 0.91447 0.24561 0.16071
 C2361 C 0.87021 0.25505 0.17611
 C2362 C 0.86952 0.24869 0.19259
 C2363 C 0.85418 0.24770 0.20113
 C2364 C 0.83933 0.25302 0.19332
 C2365 C 0.83985 0.25925 0.17688
 C2366 C 0.85518 0.26026 0.16832
 C2367 C 0.82362 0.25229 0.20228
 C2368 C 0.81055 0.25172 0.20993
 H2369 H 0.90838 0.28381 0.14233
 H2370 H 0.88108 0.28097 0.15635
 H2371 H 0.89641 0.23263 0.17589
 H2372 H 0.92383 0.23578 0.16206
 H2373 H 0.88088 0.24480 0.19902
 H2374 H 0.85393 0.24291 0.21387
 H2375 H 0.82843 0.26337 0.17070
 H2376 H 0.85527 0.26502 0.15557
 C2377 C 0.44873 0.76430 0.63896
 C2378 C 0.43511 0.76227 0.64530
 C2379 C 0.41885 0.76032 0.65302
 C2380 C 0.40709 0.77340 0.65214
 C2381 C 0.39150 0.77184 0.66010
 C2382 C 0.38746 0.75715 0.66909
 C2383 C 0.39932 0.74400 0.66977
 C2384 C 0.41491 0.74559 0.66178
 C2385 C 0.37110 0.75573 0.67799
 C2386 C 0.37028 0.74852 0.69412
 C2387 C 0.35496 0.74756 0.70268
 C2388 C 0.34025 0.75376 0.69526
 C2389 C 0.34090 0.76085 0.67919
 C2390 C 0.35621 0.76184 0.67060
 C2391 C 0.32456 0.75298 0.70425
 C2392 C 0.31151 0.75232 0.71193
 H2393 H 0.41005 0.78489 0.64546
 H2394 H 0.38275 0.78227 0.65953
 H2395 H 0.39651 0.73247 0.67640
 H2396 H 0.42392 0.73539 0.66253
 H2397 H 0.38154 0.74392 0.70025
 H2398 H 0.35461 0.74209 0.71515
 H2399 H 0.32957 0.76566 0.67331
 H2400 H 0.35639 0.76727 0.65812
 C2401 C 0.44955 0.23848 0.86146
 C2402 C 0.43599 0.24077 0.85505
 C2403 C 0.41981 0.24297 0.84724
 C2404 C 0.41870 0.24932 0.83088
 C2405 C 0.40305 0.25059 0.82295
 C2406 C 0.38830 0.24549 0.83129
 C2407 C 0.38954 0.23935 0.84783
 C2408 C 0.40520 0.23810 0.85574
 C2409 C 0.37178 0.24616 0.82261
 C2410 C 0.36019 0.23292 0.82437
 C2411 C 0.34483 0.23330 0.81583
 C2412 C 0.34082 0.24691 0.80544
 C2413 C 0.35220 0.26021 0.80370
 C2414 C 0.36758 0.25985 0.81222
 C2415 C 0.32518 0.24708 0.79634
 C2416 C 0.31213 0.24714 0.78863
 H2417 H 0.42994 0.25302 0.82415
 H2418 H 0.40255 0.25516 0.81014
 H2419 H 0.37840 0.23553 0.85465
 H2420 H 0.40592 0.23315 0.86840
 H2421 H 0.36314 0.22209 0.83208
 H2422 H 0.33614 0.22290 0.81721
 H2423 H 0.34921 0.27083 0.79570
 H2424 H 0.37614 0.27033 0.81076
 C2425 C 0.94945 0.73834 0.36085
 C2426 C 0.93590 0.74067 0.35445
 C2427 C 0.91972 0.74295 0.34667
 C2428 C 0.90508 0.73830 0.35525
 C2429 C 0.88941 0.73964 0.34738
 C2430 C 0.88819 0.74565 0.33079
 C2431 C 0.90296 0.75053 0.32236
 C2432 C 0.91862 0.74916 0.33026
 C2433 C 0.87164 0.74642 0.32215
 C2434 C 0.86755 0.76006 0.31166
 C2435 C 0.85214 0.76051 0.30320
 C2436 C 0.84064 0.74734 0.30509
 C2437 C 0.84454 0.73377 0.31558
 C2438 C 0.85993 0.73330 0.32407
 C2439 C 0.82496 0.74759 0.29606
 C2440 C 0.81187 0.74768 0.28841
 H2441 H 0.90579 0.73346 0.36796
 H2442 H 0.87826 0.73600 0.35427
 H2443 H 0.90247 0.75499 0.30952
 H2444 H 0.92988 0.75270 0.32347
 H2445 H 0.87622 0.77044 0.31009
 H2446 H 0.84923 0.77109 0.29512
 H2447 H 0.83576 0.72348 0.31708
 H2448 H 0.86280 0.72251 0.33185
 C2449 C 0.05178 0.76247 0.36049
 C2450 C 0.06526 0.76017 0.35395
 C2451 C 0.08137 0.75791 0.34601
 C2452 C 0.09520 0.76734 0.35142
 C2453 C 0.11069 0.76577 0.34326
 C2454 C 0.11254 0.75475 0.32953
 C2455 C 0.09860 0.74518 0.32432
 C2456 C 0.08312 0.74676 0.33251
 C2457 C 0.12882 0.75359 0.32045
 C2458 C 0.12917 0.75267 0.30279
 C2459 C 0.14450 0.75207 0.29420
 C2460 C 0.15966 0.75239 0.30313
 C2461 C 0.15946 0.75317 0.32069
 C2462 C 0.14414 0.75378 0.32932
 C2463 C 0.17541 0.75213 0.29422
 C2464 C 0.18854 0.75202 0.28665
 H2465 H 0.09395 0.77608 0.36179
 H2466 H 0.12110 0.77348 0.34742
 H2467 H 0.09969 0.73644 0.31393
 H2468 H 0.07249 0.73941 0.32822
 H2469 H 0.11761 0.75275 0.29560
 H2470 H 0.14452 0.75152 0.28060
 H2471 H 0.17113 0.75338 0.32772
 H2472 H 0.14428 0.75428 0.34291
 C2473 C 0.55188 0.26210 0.86002
 C2474 C 0.56527 0.25965 0.85334
 C2475 C 0.58128 0.25723 0.84525
 C2476 C 0.58197 0.25248 0.82833
 C2477 C 0.59750 0.25097 0.82021
 C2478 C 0.61255 0.25424 0.82893
 C2479 C 0.61172 0.25879 0.84600
 C2480 C 0.59618 0.26028 0.85409
 C2481 C 0.62900 0.25332 0.82013
 C2482 C 0.64146 0.26552 0.82313
 C2483 C 0.65677 0.26493 0.81452
 C2484 C 0.65986 0.25216 0.80282
 C2485 C 0.64761 0.23989 0.79983
 C2486 C 0.63228 0.24046 0.80841
 C2487 C 0.67549 0.25180 0.79371
 C2488 C 0.68855 0.25160 0.78602
 H2489 H 0.57050 0.25019 0.82134
 H2490 H 0.59770 0.24766 0.80701
 H2491 H 0.62309 0.26117 0.85310
 H2492 H 0.59578 0.26398 0.86720
 H2493 H 0.63923 0.27571 0.83188
 H2494 H 0.66615 0.27452 0.81689
 H2495 H 0.64989 0.22993 0.79081
 H2496 H 0.62303 0.23078 0.80598
 C2497 C 0.55088 0.73897 0.64077
 C2498 C 0.56432 0.74135 0.64737
 C2499 C 0.58035 0.74376 0.65540
 C2500 C 0.58154 0.75350 0.67000
 C2501 C 0.59698 0.75518 0.67825
 C2502 C 0.61145 0.74711 0.67200
 C2503 C 0.61016 0.73752 0.65718
 C2504 C 0.59471 0.73585 0.64897
 C2505 C 0.62772 0.74832 0.68110
 C2506 C 0.64294 0.75003 0.67223
 C2507 C 0.65827 0.75072 0.68083
 C2508 C 0.65859 0.74970 0.69838
 C2509 C 0.64352 0.74812 0.70732
 C2510 C 0.62819 0.74744 0.69876
 C2511 C 0.67437 0.75001 0.70724
 C2512 C 0.68753 0.75012 0.71478
 H2513 H 0.57050 0.75968 0.67509
 H2514 H 0.59760 0.76283 0.68950
 H2515 H 0.62101 0.73096 0.65218
 H2516 H 0.59391 0.72819 0.63773
 H2517 H 0.64298 0.75094 0.65865
 H2518 H 0.66986 0.75198 0.67378
 H2519 H 0.64364 0.74725 0.72091
 H2520 H 0.61673 0.74587 0.70594
 C2521 C 0.05010 0.23988 0.13898
 C2522 C 0.06349 0.24222 0.14568
 C2523 C 0.07949 0.24453 0.15383
 C2524 C 0.08050 0.25350 0.16893
 C2525 C 0.09590 0.25499 0.17729
 C2526 C 0.11051 0.24748 0.17066
 C2527 C 0.10939 0.23868 0.15535
 C2528 C 0.09398 0.23720 0.14702
 C2529 C 0.12674 0.24845 0.17986
 C2530 C 0.14195 0.25087 0.17114
 C2531 C 0.15724 0.25135 0.17981
 C2532 C 0.15755 0.24942 0.19729
 C2533 C 0.14249 0.24711 0.20609
 C2534 C 0.12718 0.24664 0.19745
 C2535 C 0.17330 0.24963 0.20621
 C2536 C 0.18643 0.24971 0.21379
 H2537 H 0.06935 0.25921 0.17432
 H2538 H 0.09638 0.26203 0.18893
 H2539 H 0.12035 0.23257 0.15003
 H2540 H 0.09333 0.23013 0.13539
 H2541 H 0.14200 0.25250 0.15763
 H2542 H 0.16883 0.25318 0.17288
 H2543 H 0.14258 0.24555 0.21961
 H2544 H 0.11573 0.24451 0.20450
 C2545 C -0.11000 1.01381 0.80130
 C2546 C -0.10372 1.01159 0.81491
 C2547 C -0.09604 1.00919 0.83111
 C2548 C -0.09954 1.02037 0.84423
 C2549 C -0.09167 1.01841 0.85982
 C2550 C -0.08014 1.00523 0.86247
 C2551 C -0.07682 0.99396 0.84923
 C2552 C -0.08472 0.99594 0.83366
 C2553 C -0.07139 1.00347 0.87887
 C2554 C -0.05418 0.99932 0.87947
 C2555 C -0.04582 0.99814 0.89488
 C2556 C -0.05453 1.00107 0.90989
 C2557 C -0.07167 1.00505 0.90944
 C2558 C -0.08006 1.00625 0.89404
 C2559 C -0.04578 1.00035 0.92570
 C2560 C -0.03838 0.99993 0.93892
 H2561 H -0.10822 1.03072 0.84237
 H2562 H -0.09432 1.02743 0.86967
 H2563 H -0.06817 0.98357 0.85095
 H2564 H -0.08192 0.98721 0.82358
 H2565 H -0.04710 0.99734 0.86801
 H2566 H -0.03253 0.99512 0.89508
 H2567 H -0.07854 1.00732 0.92099
 H2568 H -0.09335 1.00925 0.89400
 C2569 C 0.38930 0.51429 0.30088
 C2570 C 0.39559 0.51216 0.31450
 C2571 C 0.40330 0.50984 0.33069
 C2572 C 0.41350 0.49582 0.33371
 C2573 C 0.42143 0.49386 0.34928
 C2574 C 0.41925 0.50593 0.36203
 C2575 C 0.40884 0.51991 0.35891
 C2576 C 0.40094 0.52185 0.34334
 C2577 C 0.42804 0.50415 0.37841
 C2578 C 0.41982 0.50828 0.39352
 C2579 C 0.42826 0.50703 0.40888
 C2580 C 0.44502 0.50162 0.40935
 C2581 C 0.45326 0.49735 0.39441
 C2582 C 0.44484 0.49858 0.37903
 C2583 C 0.45385 0.50079 0.42511
 C2584 C 0.46132 0.50027 0.43828
 H2585 H 0.41541 0.48644 0.32401
 H2586 H 0.42920 0.48286 0.35137
 H2587 H 0.40709 0.52954 0.36839
 H2588 H 0.39313 0.53280 0.34110
 H2589 H 0.40683 0.51240 0.39348
 H2590 H 0.42176 0.51034 0.42039
 H2591 H 0.46626 0.49322 0.39462
 H2592 H 0.45158 0.49553 0.36761
 C2593 C 0.61064 -0.01287 0.29996
 C2594 C 0.60441 -0.00999 0.31347
 C2595 C 0.59676 -0.00681 0.32955
 C2596 C 0.58525 0.00639 0.33144
 C2597 C 0.57730 0.00904 0.34690
 C2598 C 0.58078 -0.00149 0.36068
 C2599 C 0.59253 -0.01460 0.35870
 C2600 C 0.60044 -0.01723 0.34323
 C2601 C 0.57186 0.00085 0.37692
 C2602 C 0.58043 -0.00115 0.39227
 C2603 C 0.57183 0.00031 0.40753
 C2604 C 0.55457 0.00380 0.40766
 C2605 C 0.54598 0.00605 0.39248
 C2606 C 0.55455 0.00461 0.37720
 C2607 C 0.54554 0.00437 0.42332
 C2608 C 0.53787 0.00444 0.43639
 H2609 H 0.58231 0.01454 0.32093
 H2610 H 0.56847 0.01935 0.34809
 H2611 H 0.59529 -0.02307 0.36898
 H2612 H 0.60927 -0.02754 0.34188
 H2613 H 0.59378 -0.00384 0.39247
 H2614 H 0.57860 -0.00146 0.41921
 H2615 H 0.53260 0.00866 0.39243
 H2616 H 0.54755 0.00599 0.36561
 C2617 C 0.11090 0.48658 0.79851
 C2618 C 0.10465 0.48923 0.81206
 C2619 C 0.09699 0.49213 0.82819
 C2620 C 0.08553 0.50533 0.83032
 C2621 C 0.07763 0.50776 0.84584
 C2622 C 0.08110 0.49699 0.85943
 C2623 C 0.09278 0.48386 0.85720
 C2624 C 0.10065 0.48145 0.84168
 C2625 C 0.07231 0.49917 0.87576
 C2626 C 0.08100 0.49698 0.89102
 C2627 C 0.07255 0.49842 0.90636
 C2628 C 0.05533 0.50208 0.90667
 C2629 C 0.04661 0.50447 0.89158
 C2630 C 0.05504 0.50304 0.87622
 C2631 C 0.04650 0.50286 0.92243
 C2632 C 0.03904 0.50323 0.93562
 H2633 H 0.08262 0.51367 0.81996
 H2634 H 0.06885 0.51809 0.84722
 H2635 H 0.09555 0.47522 0.86735
 H2636 H 0.10945 0.47114 0.84014
 H2637 H 0.09434 0.49420 0.89108
 H2638 H 0.07942 0.49656 0.91797
 H2639 H 0.03326 0.50721 0.89168
 H2640 H 0.04795 0.50457 0.86470
 C2641 C 0.10987 0.51089 0.69624
 C2642 C 0.10329 0.50829 0.68284
 C2643 C 0.09524 0.50544 0.66691
 C2644 C 0.08277 0.49313 0.66538
 C2645 C 0.07447 0.49082 0.65006
 C2646 C 0.07855 0.50082 0.63605
 C2647 C 0.09124 0.51303 0.63768
 C2648 C 0.09951 0.51532 0.65301
 C2649 C 0.06931 0.49886 0.61995
 C2650 C 0.07786 0.49986 0.60449
 C2651 C 0.06903 0.49866 0.58934
 C2652 C 0.05157 0.49643 0.58943
 C2653 C 0.04299 0.49521 0.60473
 C2654 C 0.05179 0.49639 0.61989
 C2655 C 0.04240 0.49598 0.57385
 C2656 C 0.03467 0.49592 0.56082
 H2657 H 0.07937 0.48541 0.67606
 H2658 H 0.06490 0.48119 0.64915
 H2659 H 0.09451 0.52108 0.62721
 H2660 H 0.10909 0.52495 0.65408
 H2661 H 0.09137 0.50155 0.60412
 H2662 H 0.07580 0.49962 0.57756
 H2663 H 0.02946 0.49357 0.60494
 H2664 H 0.04482 0.49580 0.63157
 C2665 C 0.60935 1.01023 0.19816
 C2666 C 0.60281 1.00751 0.18476
 C2667 C 0.59479 1.00458 0.16882
 C2668 C 0.57731 1.00281 0.16797
 C2669 C 0.56939 1.00066 0.15244
 C2670 C 0.57887 1.00026 0.13751
 C2671 C 0.59648 1.00184 0.13851
 C2672 C 0.60437 1.00399 0.15407
 C2673 C 0.57037 0.99871 0.12096
 C2674 C 0.57571 1.00845 0.10720
 C2675 C 0.56726 1.00754 0.09183
 C2676 C 0.55339 0.99689 0.08997
 C2677 C 0.54811 0.98698 0.10350
 C2678 C 0.55654 0.98786 0.11890
 C2679 C 0.54425 0.99661 0.07436
 C2680 C 0.53651 0.99673 0.06134
 H2681 H 0.56976 1.00333 0.17930
 H2682 H 0.55581 0.99972 0.15208
 H2683 H 0.60414 1.00139 0.12727
 H2684 H 0.61793 1.00534 0.15458
 H2685 H 0.58615 1.01708 0.10845
 H2686 H 0.57139 1.01534 0.08146
 H2687 H 0.53739 0.97868 0.10219
 H2688 H 0.55226 0.98006 0.12918
 C2689 C 0.39054 0.48538 0.20000
 C2690 C 0.39739 0.48720 0.18661
 C2691 C 0.40580 0.48907 0.17071
 C2692 C 0.40770 0.50499 0.16348
 C2693 C 0.41619 0.50676 0.14818
 C2694 C 0.42292 0.49260 0.13995
 C2695 C 0.42084 0.47664 0.14729
 C2696 C 0.41234 0.47491 0.16256
 C2697 C 0.43217 0.49443 0.12384
 C2698 C 0.44685 0.48499 0.12082
 C2699 C 0.45547 0.48651 0.10560
 C2700 C 0.44956 0.49748 0.09318
 C2701 C 0.43503 0.50700 0.09608
 C2702 C 0.42639 0.50551 0.11133
 C2703 C 0.45831 0.49872 0.07741
 C2704 C 0.46573 0.49948 0.06422
 H2705 H 0.40273 0.51605 0.16972
 H2706 H 0.41774 0.51922 0.14295
 H2707 H 0.42565 0.46548 0.14114
 H2708 H 0.41091 0.46252 0.16803
 H2709 H 0.45176 0.47653 0.13030
 H2710 H 0.46672 0.47910 0.10349
 H2711 H 0.43031 0.51549 0.08653
 H2712 H 0.41503 0.51280 0.11320
 C2713 C -0.10850 -0.01359 0.70150
 C2714 C -0.10187 -0.01121 0.68808
 C2715 C -0.09374 -0.00856 0.67214
 C2716 C -0.10329 -0.00492 0.65783
 C2717 C -0.09538 -0.00270 0.64229
 C2718 C -0.07778 -0.00409 0.64089
 C2719 C -0.06829 -0.00765 0.65539
 C2720 C -0.07623 -0.00988 0.67090
 C2721 C -0.06935 -0.00215 0.62435
 C2722 C -0.05394 0.00645 0.62305
 C2723 C -0.04574 0.00778 0.60757
 C2724 C -0.05283 0.00056 0.59318
 C2725 C -0.06823 -0.00785 0.59429
 C2726 C -0.07646 -0.00919 0.60976
 C2727 C -0.04407 0.00137 0.57737
 C2728 C -0.03665 0.00179 0.56417
 H2729 H -0.11686 -0.00384 0.65866
 H2730 H -0.10300 0.00023 0.63140
 H2731 H -0.05476 -0.00905 0.65469
 H2732 H -0.06873 -0.01277 0.68190
 H2733 H -0.04826 0.01220 0.63401
 H2734 H -0.03383 0.01434 0.60684
 H2735 H -0.07379 -0.01356 0.58324
 H2736 H -0.08818 -0.01607 0.61038
 C2737 C -0.20082 0.89032 1.01512
 C2738 C -0.18737 0.89687 1.01274
 C2739 C -0.17136 0.90487 1.01010
 C2740 C -0.16972 0.91752 0.99800
 C2741 C -0.15430 0.92568 0.99582
 C2742 C -0.14032 0.92127 1.00574
 C2743 C -0.14207 0.90842 1.01776
 C2744 C -0.15750 0.90030 1.01993
 C2745 C -0.12408 0.93027 1.00382
 C2746 C -0.10873 0.92146 1.00461
 C2747 C -0.09344 0.93004 1.00331
 C2748 C -0.09329 0.94750 1.00120
 C2749 C -0.10848 0.95636 1.00024
 C2750 C -0.12378 0.94781 1.00152
 C2751 C -0.07756 0.95640 1.00047
 C2752 C -0.06440 0.96391 1.00012
 H2753 H -0.18037 0.92114 0.99031
 H2754 H -0.15330 0.93537 0.98632
 H2755 H -0.13161 0.90491 1.02575
 H2756 H -0.15866 0.89057 1.02939
 H2757 H -0.10855 0.90794 1.00616
 H2758 H -0.08175 0.92306 1.00406
 H2759 H -0.10850 0.96989 0.99869
 H2760 H -0.13536 0.95498 1.00110
 C2761 C 0.29912 0.39030 0.51405
 C2762 C 0.31254 0.39685 0.51152
 C2763 C 0.32855 0.40480 0.50879
 C2764 C 0.33006 0.41780 0.49704
 C2765 C 0.34549 0.42592 0.49483
 C2766 C 0.35962 0.42114 0.50437
 C2767 C 0.35800 0.40793 0.51603
 C2768 C 0.34256 0.39984 0.51822
 C2769 C 0.37587 0.43012 0.50248
 C2770 C 0.39118 0.42123 0.50276
 C2771 C 0.40649 0.42978 0.50155
 C2772 C 0.40669 0.44731 0.50004
 C2773 C 0.39153 0.45625 0.49957
 C2774 C 0.37621 0.44773 0.50077
 C2775 C 0.42244 0.45617 0.49943
 C2776 C 0.43560 0.46366 0.49916
 H2777 H 0.31929 0.42172 0.48967
 H2778 H 0.34639 0.43590 0.48562
 H2779 H 0.36857 0.40412 0.52372
 H2780 H 0.34150 0.38985 0.52741
 H2781 H 0.39132 0.40766 0.50386
 H2782 H 0.41816 0.42274 0.50191
 H2783 H 0.39155 0.46983 0.49848
 H2784 H 0.36465 0.45495 0.50074
 C2785 C 0.30318 0.60963 -0.01270
 C2786 C 0.31668 0.60318 -0.01017
 C2787 C 0.33275 0.59529 -0.00739
 C2788 C 0.34648 0.59945 -0.01756
 C2789 C 0.36195 0.59139 -0.01528
 C2790 C 0.36388 0.57902 -0.00278
 C2791 C 0.35003 0.57504 0.00749
 C2792 C 0.33457 0.58313 0.00519
 C2793 C 0.38016 0.57006 -0.00074
 C2794 C 0.38050 0.55262 0.00224
 C2795 C 0.39582 0.54407 0.00359
 C2796 C 0.41100 0.55283 0.00202
 C2797 C 0.41080 0.57020 -0.00076
 C2798 C 0.39549 0.57877 -0.00213
 C2799 C 0.42674 0.54391 0.00279
 C2800 C 0.43990 0.53638 0.00317
 H2801 H 0.34518 0.60879 -0.02739
 H2802 H 0.37229 0.59457 -0.02354
 H2803 H 0.35118 0.56573 0.01735
 H2804 H 0.32402 0.57983 0.01314
 H2805 H 0.36893 0.54551 0.00313
 H2806 H 0.39583 0.53061 0.00566
 H2807 H 0.42248 0.57711 -0.00198
 H2808 H 0.39564 0.59222 -0.00421
 C2809 C -0.19912 0.11021 0.48646
 C2810 C -0.18567 0.10368 0.48907
 C2811 C -0.16965 0.09573 0.49191
 C2812 C -0.16799 0.08334 0.50428
 C2813 C -0.15256 0.07521 0.50665
 C2814 C -0.13857 0.07938 0.49666
 C2815 C -0.14033 0.09198 0.48437
 C2816 C -0.15577 0.10008 0.48201
 C2817 C -0.12230 0.07041 0.49878
 C2818 C -0.10697 0.07917 0.49777
 C2819 C -0.09166 0.07060 0.49923
 C2820 C -0.09148 0.05318 0.50172
 C2821 C -0.10666 0.04438 0.50291
 C2822 C -0.12197 0.05292 0.50146
 C2823 C -0.07572 0.04428 0.50259
 C2824 C -0.06254 0.03678 0.50307
 H2825 H -0.17865 0.07988 0.51203
 H2826 H -0.15155 0.06572 0.51635
 H2827 H -0.12988 0.09532 0.47632
 H2828 H -0.15694 0.10959 0.47234
 H2829 H -0.10681 0.09265 0.49592
 H2830 H -0.07998 0.07754 0.49831
 H2831 H -0.10666 0.03088 0.50475
 H2832 H -0.13355 0.04578 0.50206
 C2833 C 0.69930 0.11097 0.51095
 C2834 C 0.68575 0.10470 0.50830
 C2835 C 0.66963 0.09702 0.50539
 C2836 C 0.66750 0.08570 0.49209
 C2837 C 0.65201 0.07776 0.48965
 C2838 C 0.63841 0.08104 0.50050
 C2839 C 0.64063 0.09259 0.51373
 C2840 C 0.65614 0.10051 0.51615
 C2841 C 0.62212 0.07216 0.49834
 C2842 C 0.60679 0.08069 0.50077
 C2843 C 0.59149 0.07213 0.49939
 C2844 C 0.59131 0.05496 0.49557
 C2845 C 0.60648 0.04641 0.49292
 C2846 C 0.62178 0.05494 0.49427
 C2847 C 0.57562 0.04596 0.49500
 C2848 C 0.56253 0.03832 0.49489
 H2849 H 0.67786 0.08292 0.48368
 H2850 H 0.65064 0.06909 0.47924
 H2851 H 0.63050 0.09522 0.52244
 H2852 H 0.65767 0.10919 0.52654
 H2853 H 0.60662 0.09399 0.50370
 H2854 H 0.57982 0.07888 0.50147
 H2855 H 0.60648 0.03309 0.49005
 H2856 H 0.63336 0.04796 0.49256
 C2857 C 0.20182 0.61034 1.01248
 C2858 C 0.18829 0.60397 1.00997
 C2859 C 0.17219 0.59619 1.00724
 C2860 C 0.15851 0.60044 1.01747
 C2861 C 0.14300 0.59248 1.01524
 C2862 C 0.14097 0.58012 1.00274
 C2863 C 0.15476 0.57605 0.99241
 C2864 C 0.17026 0.58404 0.99466
 C2865 C 0.12465 0.57126 1.00076
 C2866 C 0.12423 0.55382 0.99775
 C2867 C 0.10888 0.54538 0.99642
 C2868 C 0.09374 0.55424 0.99804
 C2869 C 0.09401 0.57160 1.00086
 C2870 C 0.10935 0.58007 1.00221
 C2871 C 0.07796 0.54542 0.99725
 C2872 C 0.06478 0.53796 0.99682
 H2873 H 0.15989 0.60977 1.02730
 H2874 H 0.13270 0.59573 1.02354
 H2875 H 0.15354 0.56674 0.98254
 H2876 H 0.18077 0.58066 0.98666
 H2877 H 0.13578 0.54665 0.99680
 H2878 H 0.10881 0.53192 0.99431
 H2879 H 0.08236 0.57858 1.00213
 H2880 H 0.10926 0.59353 1.00432
 C2881 C 0.19676 0.38853 0.48939
 C2882 C 0.18312 0.39465 0.49190
 C2883 C 0.16687 0.40218 0.49455
 C2884 C 0.16447 0.41372 0.50761
 C2885 C 0.14887 0.42161 0.50969
 C2886 C 0.13547 0.41804 0.49870
 C2887 C 0.13796 0.40624 0.48574
 C2888 C 0.15356 0.39839 0.48368
 C2889 C 0.11912 0.42693 0.50040
 C2890 C 0.10386 0.41831 0.49792
 C2891 C 0.08852 0.42688 0.49879
 C2892 C 0.08822 0.44415 0.50216
 C2893 C 0.10330 0.45278 0.50487
 C2894 C 0.11865 0.44424 0.50402
 C2895 C 0.07250 0.45313 0.50226
 C2896 C 0.05940 0.46078 0.50205
 H2897 H 0.17469 0.41675 0.51609
 H2898 H 0.14729 0.43047 0.51990
 H2899 H 0.12797 0.40340 0.47694
 H2900 H 0.15531 0.38954 0.47347
 H2901 H 0.10380 0.40494 0.49532
 H2902 H 0.07691 0.42007 0.49668
 H2903 H 0.10320 0.46617 0.50740
 H2904 H 0.13017 0.45128 0.50575
 C2905 C 0.69808 0.89027 -0.01091
 C2906 C 0.68451 0.89659 -0.00842
 C2907 C 0.66837 0.90433 -0.00573
 C2908 C 0.65489 0.90052 -0.01637
 C2909 C 0.63938 0.90852 -0.01420
 C2910 C 0.63714 0.92047 -0.00135
 C2911 C 0.65072 0.92408 0.00941
 C2912 C 0.66623 0.91606 0.00722
 C2913 C 0.62086 0.92946 0.00052
 C2914 C 0.62052 0.94681 0.00399
 C2915 C 0.60521 0.95541 0.00506
 C2916 C 0.59005 0.94680 0.00271
 C2917 C 0.59024 0.92951 -0.00052
 C2918 C 0.60553 0.92087 -0.00161
 C2919 C 0.57436 0.95583 0.00303
 C2920 C 0.56126 0.96348 0.00298
 H2921 H 0.65644 0.89153 -0.02649
 H2922 H 0.62925 0.90564 -0.02283
 H2923 H 0.64934 0.93307 0.01954
 H2924 H 0.67658 0.91909 0.01554
 H2925 H 0.63209 0.95381 0.00546
 H2926 H 0.60521 0.96882 0.00748
 H2927 H 0.57857 0.92272 -0.00236
 H2928 H 0.60538 0.90749 -0.00409
 C2929 C 0.01319 0.80217 0.89113
 C2930 C 0.01070 0.81559 0.89774
 C2931 C 0.00793 0.83155 0.90580
 C2932 C 0.01780 0.84544 0.90145
 C2933 C 0.01549 0.86083 0.90963
 C2934 C 0.00328 0.86252 0.92233
 C2935 C -0.00668 0.84852 0.92651
 C2936 C -0.00436 0.83314 0.91830
 C2937 C 0.00119 0.87873 0.93138
 C2938 C -0.00137 0.87897 0.94888
 C2939 C -0.00281 0.89424 0.95749
 C2940 C -0.00175 0.90945 0.94873
 C2941 C 0.00062 0.90935 0.93131
 C2942 C 0.00208 0.89410 0.92267
 C2943 C -0.00265 0.92515 0.95769
 C2944 C -0.00316 0.93830 0.96522
 H2945 H 0.02741 0.84432 0.89185
 H2946 H 0.02351 0.87129 0.90628
 H2947 H -0.01632 0.84948 0.93608
 H2948 H -0.01208 0.82247 0.92176
 H2949 H -0.00188 0.86737 0.95598
 H2950 H -0.00457 0.89417 0.97099
 H2951 H 0.00144 0.92106 0.92441
 H2952 H 0.00383 0.89433 0.90918
 C2953 C 0.51209 0.30238 0.38938
 C2954 C 0.50962 0.31581 0.39597
 C2955 C 0.50692 0.33179 0.40402
 C2956 C 0.49439 0.33355 0.41625
 C2957 C 0.49217 0.34893 0.42449
 C2958 C 0.50248 0.36277 0.42059
 C2959 C 0.51493 0.36090 0.40816
 C2960 C 0.51714 0.34551 0.39995
 C2961 C 0.50051 0.37896 0.42970
 C2962 C 0.50190 0.39436 0.42111
 C2963 C 0.50057 0.40959 0.42980
 C2964 C 0.49783 0.40963 0.44718
 C2965 C 0.49627 0.39439 0.45581
 C2966 C 0.49759 0.37915 0.44714
 C2967 C 0.49705 0.42529 0.45622
 C2968 C 0.49662 0.43839 0.46384
 H2969 H 0.48640 0.32301 0.41949
 H2970 H 0.48234 0.35003 0.43384
 H2971 H 0.52322 0.37124 0.40504
 H2972 H 0.52694 0.34426 0.39056
 H2973 H 0.50394 0.39463 0.40766
 H2974 H 0.50178 0.42132 0.42300
 H2975 H 0.49423 0.39428 0.46927
 H2976 H 0.49669 0.36752 0.45415
 C2977 C -0.01207 0.30057 0.60966
 C2978 C -0.00950 0.31401 0.60315
 C2979 C -0.00670 0.32998 0.59514
 C2980 C -0.00470 0.33078 0.57769
 C2981 C -0.00256 0.34631 0.56977
 C2982 C -0.00242 0.36127 0.57921
 C2983 C -0.00427 0.36032 0.59678
 C2984 C -0.00640 0.34476 0.60468
 C2985 C -0.00083 0.37781 0.57070
 C2986 C -0.01073 0.39155 0.57586
 C2987 C -0.00978 0.40691 0.56738
 C2988 C 0.00109 0.40876 0.55368
 C2989 C 0.01117 0.39525 0.54859
 C2990 C 0.01024 0.37987 0.55705
 C2991 C 0.00140 0.42433 0.54448
 C2992 C 0.00131 0.43731 0.53667
 H2993 H -0.00499 0.31942 0.57018
 H2994 H -0.00142 0.34664 0.55621
 H2995 H -0.00402 0.37159 0.60441
 H2996 H -0.00793 0.34427 0.61820
 H2997 H -0.01954 0.39031 0.58616
 H2998 H -0.01771 0.41727 0.57136
 H2999 H 0.01963 0.39655 0.53800
 H3000 H 0.01817 0.36960 0.55291
 C3001 C 0.48767 0.80154 0.10973
 C3002 C 0.49017 0.81512 0.10351
 C3003 C 0.49289 0.83129 0.09589
 C3004 C 0.50618 0.83360 0.08459
 C3005 C 0.50843 0.84914 0.07671
 C3006 C 0.49740 0.86259 0.08004
 C3007 C 0.48419 0.86019 0.09157
 C3008 C 0.48196 0.84464 0.09943
 C3009 C 0.49934 0.87892 0.07120
 C3010 C 0.49675 0.89419 0.07978
 C3011 C 0.49790 0.90952 0.07126
 C3012 C 0.50166 0.90979 0.05408
 C3013 C 0.50447 0.89469 0.04549
 C3014 C 0.50334 0.87936 0.05398
 C3015 C 0.50202 0.92550 0.04513
 C3016 C 0.50199 0.93859 0.03751
 H3017 H 0.51472 0.82335 0.08178
 H3018 H 0.51882 0.85066 0.06805
 H3019 H 0.47535 0.87021 0.09422
 H3020 H 0.47159 0.84296 0.10809
 H3021 H 0.49386 0.89428 0.09308
 H3022 H 0.49570 0.92114 0.07804
 H3023 H 0.50729 0.89476 0.03217
 H3024 H 0.50517 0.86782 0.04697
 C3025 C 0.51379 0.69942 0.10996
 C3026 C 0.51150 0.68583 0.10365
 C3027 C 0.50904 0.66964 0.09595
 C3028 C 0.51389 0.65501 0.10443
 C3029 C 0.51210 0.63932 0.09669
 C3030 C 0.50543 0.63808 0.08035
 C3031 C 0.50042 0.65287 0.07202
 C3032 C 0.50223 0.66854 0.07978
 C3033 C 0.50409 0.62150 0.07187
 C3034 C 0.48998 0.61756 0.06194
 C3035 C 0.48898 0.60211 0.05361
 C3036 C 0.50206 0.59040 0.05509
 C3037 C 0.51608 0.59414 0.06503
 C3038 C 0.51710 0.60957 0.07338
 C3039 C 0.50129 0.57469 0.04615
 C3040 C 0.50088 0.56156 0.03858
 H3041 H 0.51917 0.65572 0.11696
 H3042 H 0.51587 0.62816 0.10351
 H3043 H 0.49546 0.65235 0.05936
 H3044 H 0.49851 0.67980 0.07307
 H3045 H 0.47968 0.62639 0.06070
 H3046 H 0.47806 0.59932 0.04596
 H3047 H 0.52630 0.58519 0.06620
 H3048 H 0.52823 0.61231 0.08072
 C3049 C 0.01385 0.20024 0.61051
 C3050 C 0.01147 0.18668 0.60416
 C3051 C 0.00891 0.17055 0.59639
 C3052 C 0.01969 0.15715 0.60015
 C3053 C 0.01761 0.14163 0.59218
 C3054 C 0.00471 0.13931 0.58030
 C3055 C -0.00617 0.15282 0.57672
 C3056 C -0.00407 0.16833 0.58472
 C3057 C 0.00286 0.12298 0.57143
 C3058 C -0.00077 0.12253 0.55413
 C3059 C -0.00200 0.10717 0.54567
 C3060 C 0.00035 0.09207 0.55437
 C3061 C 0.00380 0.09237 0.57162
 C3062 C 0.00505 0.10771 0.58010
 C3063 C -0.00039 0.07630 0.54554
 C3064 C -0.00082 0.06311 0.53809
 H3065 H 0.02984 0.15876 0.60911
 H3066 H 0.02633 0.13156 0.59504
 H3067 H -0.01634 0.15136 0.56779
 H3068 H -0.01249 0.17862 0.58172
 H3069 H -0.00230 0.13406 0.54706
 H3070 H -0.00461 0.10708 0.53230
 H3071 H 0.00563 0.08075 0.57848
 H3072 H 0.00765 0.10764 0.59346
 C3073 C 0.48739 0.20013 0.38852
 C3074 C 0.49005 0.18655 0.39472
 C3075 C 0.49296 0.17039 0.40231
 C3076 C 0.48829 0.15569 0.39385
 C3077 C 0.49046 0.14002 0.40152
 C3078 C 0.49733 0.13885 0.41778
 C3079 C 0.50219 0.15370 0.42609
 C3080 C 0.50000 0.16935 0.41840
 C3081 C 0.49896 0.12228 0.42624
 C3082 C 0.51318 0.11851 0.43611
 C3083 C 0.51438 0.10310 0.44451
 C3084 C 0.50142 0.09129 0.44316
 C3085 C 0.48732 0.09486 0.43325
 C3086 C 0.48609 0.11024 0.42484
 C3087 C 0.50229 0.07569 0.45228
 C3088 C 0.50261 0.06266 0.46001
 H3089 H 0.48283 0.15634 0.38139
 H3090 H 0.48679 0.12881 0.39471
 H3091 H 0.50730 0.15325 0.43869
 H3092 H 0.50359 0.18066 0.42509
 H3093 H 0.52338 0.12744 0.43727
 H3094 H 0.52536 0.10046 0.45214
 H3095 H 0.47717 0.08584 0.43219
 H3096 H 0.47488 0.11285 0.41756
 C3097 C -0.01256 0.70191 0.89047
 C3098 C -0.01007 0.68835 0.89678
 C3099 C -0.00739 0.67220 0.90449
 C3100 C 0.00500 0.67024 0.91683
 C3101 C 0.00718 0.65470 0.92476
 C3102 C -0.00303 0.64091 0.92044
 C3103 C -0.01534 0.64298 0.90790
 C3104 C -0.01750 0.65853 0.90000
 C3105 C -0.00111 0.62453 0.92922
 C3106 C -0.00233 0.60931 0.92027
 C3107 C -0.00102 0.59391 0.92864
 C3108 C 0.00155 0.59351 0.94604
 C3109 C 0.00293 0.60857 0.95502
 C3110 C 0.00163 0.62398 0.94668
 C3111 C 0.00238 0.57766 0.95473
 C3112 C 0.00288 0.56441 0.96206
 H3113 H 0.01290 0.68074 0.92040
 H3114 H 0.01690 0.65345 0.93422
 H3115 H -0.02355 0.63269 0.90446
 H3116 H -0.02719 0.65994 0.89053
 H3117 H -0.00423 0.60932 0.90679
 H3118 H -0.00208 0.58232 0.92156
 H3119 H 0.00484 0.60840 0.96851
 H3120 H 0.00240 0.63547 0.95396
 C3121 C 0.26438 0.63825 0.94863
 C3122 C 0.26181 0.64464 0.93513
 C3123 C 0.25900 0.65245 0.91906
 C3124 C 0.26958 0.64870 0.90551
 C3125 C 0.26725 0.65669 0.89004
 C3126 C 0.25431 0.66860 0.88793
 C3127 C 0.24364 0.67217 0.90159
 C3128 C 0.24598 0.66414 0.91705
 C3129 C 0.25220 0.67750 0.87165
 C3130 C 0.24853 0.69482 0.87130
 C3131 C 0.24710 0.70332 0.85599
 C3132 C 0.24928 0.69465 0.84084
 C3133 C 0.25275 0.67739 0.84104
 C3134 C 0.25420 0.66886 0.85633
 C3135 C 0.24842 0.70355 0.82512
 C3136 C 0.24797 0.71108 0.81198
 H3137 H 0.27975 0.63973 0.90695
 H3138 H 0.27582 0.65384 0.87985
 H3139 H 0.23344 0.68111 0.90030
 H3140 H 0.23771 0.66714 0.92746
 H3141 H 0.24715 0.70187 0.88286
 H3142 H 0.24449 0.71670 0.85598
 H3143 H 0.25445 0.67056 0.82938
 H3144 H 0.25682 0.65550 0.85618
 C3145 C 0.76343 0.13894 0.44784
 C3146 C 0.76102 0.14542 0.43436
 C3147 C 0.75841 0.15333 0.41830
 C3148 C 0.76880 0.14923 0.40470
 C3149 C 0.76666 0.15729 0.38924
 C3150 C 0.75410 0.16960 0.38717
 C3151 C 0.74362 0.17353 0.40089
 C3152 C 0.74578 0.16544 0.41635
 C3153 C 0.75217 0.17852 0.37089
 C3154 C 0.74902 0.19594 0.37050
 C3155 C 0.74769 0.20442 0.35517
 C3156 C 0.74945 0.19563 0.34003
 C3157 C 0.75243 0.17829 0.34027
 C3158 C 0.75378 0.16977 0.35559
 C3159 C 0.74859 0.20447 0.32428
 C3160 C 0.74806 0.21193 0.31110
 H3161 H 0.77868 0.13993 0.40610
 H3162 H 0.77507 0.15415 0.37900
 H3163 H 0.73371 0.18280 0.39964
 H3164 H 0.73766 0.16871 0.42679
 H3165 H 0.74795 0.20307 0.38205
 H3166 H 0.74546 0.21787 0.35513
 H3167 H 0.75379 0.17135 0.32862
 H3168 H 0.75599 0.15634 0.35546
 C3169 C 0.23622 0.36126 0.45045
 C3170 C 0.23892 0.35505 0.43689
 C3171 C 0.24185 0.34742 0.42075
 C3172 C 0.23163 0.35164 0.40707
 C3173 C 0.23398 0.34375 0.39155
 C3174 C 0.24660 0.33148 0.38952
 C3175 C 0.25695 0.32747 0.40330
 C3176 C 0.25457 0.33539 0.41882
 C3177 C 0.24861 0.32258 0.37323
 C3178 C 0.25162 0.30515 0.37283
 C3179 C 0.25280 0.29663 0.35751
 C3180 C 0.25101 0.30542 0.34238
 C3181 C 0.24824 0.32280 0.34262
 C3182 C 0.24705 0.33134 0.35794
 C3183 C 0.25142 0.29649 0.32665
 C3184 C 0.25144 0.28891 0.31354
 H3185 H 0.22169 0.36087 0.40847
 H3186 H 0.22566 0.34694 0.38126
 H3187 H 0.26689 0.31823 0.40208
 H3188 H 0.26256 0.33204 0.42933
 H3189 H 0.25265 0.29802 0.38438
 H3190 H 0.25485 0.28316 0.35746
 H3191 H 0.24684 0.32972 0.33098
 H3192 H 0.24493 0.34479 0.35783
 C3193 C 0.73742 0.86223 0.95053
 C3194 C 0.74015 0.85587 0.93705
 C3195 C 0.74315 0.84805 0.92101
 C3196 C 0.73295 0.85207 0.90725
 C3197 C 0.73539 0.84400 0.89183
 C3198 C 0.74805 0.83175 0.88998
 C3199 C 0.75836 0.82794 0.90385
 C3200 C 0.75591 0.83605 0.91926
 C3201 C 0.75016 0.82268 0.87380
 C3202 C 0.75327 0.80526 0.87361
 C3203 C 0.75455 0.79658 0.85838
 C3204 C 0.75278 0.80519 0.84315
 C3205 C 0.74992 0.82255 0.84319
 C3206 C 0.74863 0.83126 0.85840
 C3207 C 0.75328 0.79609 0.82752
 C3208 C 0.75335 0.78839 0.81447
 H3209 H 0.72298 0.86128 0.90849
 H3210 H 0.72709 0.84704 0.88147
 H3211 H 0.76834 0.81872 0.90277
 H3212 H 0.76388 0.83285 0.92984
 H3213 H 0.75428 0.79826 0.88523
 H3214 H 0.75667 0.78312 0.85849
 H3215 H 0.74853 0.82934 0.83146
 H3216 H 0.74644 0.84470 0.85814
 C3217 C 0.76127 0.86089 0.05268
 C3218 C 0.75868 0.85403 0.06593
 C3219 C 0.75586 0.84559 0.08167
 C3220 C 0.75110 0.85474 0.09593
 C3221 C 0.74882 0.84653 0.11130
 C3222 C 0.75128 0.82905 0.11260
 C3223 C 0.75593 0.81996 0.09814
 C3224 C 0.75821 0.82819 0.08280
 C3225 C 0.74939 0.82035 0.12900
 C3226 C 0.74182 0.80439 0.12989
 C3227 C 0.74068 0.79591 0.14523
 C3228 C 0.74708 0.80326 0.15988
 C3229 C 0.75442 0.81923 0.15917
 C3230 C 0.75556 0.82773 0.14384
 C3231 C 0.74663 0.79419 0.17551
 C3232 C 0.74657 0.78649 0.18855
 H3233 H 0.74922 0.86821 0.09518
 H3234 H 0.74505 0.85384 0.12216
 H3235 H 0.75817 0.80654 0.09878
 H3236 H 0.76197 0.82100 0.07185
 H3237 H 0.73675 0.79847 0.11873
 H3238 H 0.73496 0.78356 0.14564
 H3239 H 0.75949 0.82499 0.17042
 H3240 H 0.76166 0.83990 0.14353
 C3241 C 0.26121 0.36037 0.55245
 C3242 C 0.25907 0.35348 0.56576
 C3243 C 0.25695 0.34498 0.58157
 C3244 C 0.24224 0.34717 0.59099
 C3245 C 0.24024 0.33873 0.60628
 C3246 C 0.25295 0.32796 0.61230
 C3247 C 0.26771 0.32592 0.60275
 C3248 C 0.26968 0.33437 0.58750
 C3249 C 0.25090 0.31887 0.62846
 C3250 C 0.25625 0.30206 0.62999
 C3251 C 0.25484 0.29363 0.64532
 C3252 C 0.24806 0.30184 0.65932
 C3253 C 0.24250 0.31848 0.65790
 C3254 C 0.24387 0.32695 0.64256
 C3255 C 0.24732 0.29325 0.67521
 C3256 C 0.24712 0.28585 0.68842
 H3257 H 0.23229 0.35533 0.58648
 H3258 H 0.22868 0.34042 0.61327
 H3259 H 0.27782 0.31793 0.60717
 H3260 H 0.28114 0.33263 0.58034
 H3261 H 0.26147 0.29542 0.61931
 H3262 H 0.25917 0.28074 0.64628
 H3263 H 0.23729 0.32497 0.66869
 H3264 H 0.23981 0.33993 0.64182
 C3265 C 0.73828 0.13890 0.54994
 C3266 C 0.74092 0.14523 0.56346
 C3267 C 0.74383 0.15298 0.57955
 C3268 C 0.75715 0.16427 0.58165
 C3269 C 0.75961 0.17225 0.59712
 C3270 C 0.74875 0.16904 0.61071
 C3271 C 0.73549 0.15752 0.60851
 C3272 C 0.73306 0.14957 0.59303
 C3273 C 0.75093 0.17795 0.62698
 C3274 C 0.74850 0.16946 0.64231
 C3275 C 0.74987 0.17805 0.65758
 C3276 C 0.75370 0.19522 0.65776
 C3277 C 0.75636 0.20373 0.64261
 C3278 C 0.75501 0.19516 0.62732
 C3279 C 0.75422 0.20426 0.67343
 C3280 C 0.75428 0.21193 0.68651
 H3281 H 0.76557 0.16699 0.57130
 H3282 H 0.77004 0.18089 0.59848
 H3283 H 0.72677 0.15496 0.61864
 H3284 H 0.72265 0.14092 0.59152
 H3285 H 0.74555 0.15617 0.64248
 H3286 H 0.74777 0.17134 0.66924
 H3287 H 0.75923 0.21704 0.64259
 H3288 H 0.75673 0.20211 0.61575
 C3289 C 0.23984 0.63856 0.05086
 C3290 C 0.24238 0.64501 0.06434
 C3291 C 0.24512 0.65291 0.08039
 C3292 C 0.25758 0.66519 0.08220
 C3293 C 0.25976 0.67333 0.09763
 C3294 C 0.24949 0.66929 0.11145
 C3295 C 0.23713 0.65678 0.10954
 C3296 C 0.23496 0.64867 0.09411
 C3297 C 0.25133 0.67837 0.12767
 C3298 C 0.24993 0.66974 0.14304
 C3299 C 0.25100 0.67843 0.15828
 C3300 C 0.25349 0.69585 0.15838
 C3301 C 0.25511 0.70452 0.14317
 C3302 C 0.25405 0.69586 0.12791
 C3303 C 0.25383 0.70491 0.17404
 C3304 C 0.25380 0.71256 0.18711
 H3305 H 0.26551 0.66856 0.07166
 H3306 H 0.26952 0.68276 0.09876
 H3307 H 0.22887 0.65355 0.11986
 H3308 H 0.22522 0.63924 0.09281
 H3309 H 0.24804 0.65626 0.14328
 H3310 H 0.24974 0.67159 0.16999
 H3311 H 0.25695 0.71802 0.14309
 H3312 H 0.25495 0.70290 0.11630
 C3313 C 0.13880 0.54973 0.73459
 C3314 C 0.14523 0.56322 0.73710
 C3315 C 0.15309 0.57926 0.73987
 C3316 C 0.16438 0.58139 0.75320
 C3317 C 0.17246 0.59682 0.75554
 C3318 C 0.16935 0.61034 0.74455
 C3319 C 0.15786 0.60811 0.73129
 C3320 C 0.14980 0.59267 0.72897
 C3321 C 0.17831 0.62657 0.74668
 C3322 C 0.16985 0.64193 0.74418
 C3323 C 0.17845 0.65718 0.74564
 C3324 C 0.19560 0.65730 0.74962
 C3325 C 0.20409 0.64211 0.75229
 C3326 C 0.19551 0.62684 0.75085
 C3327 C 0.20459 0.67296 0.75050
 C3328 C 0.21219 0.68606 0.75100
 H3329 H 0.16701 0.57109 0.76172
 H3330 H 0.18109 0.59821 0.76598
 H3331 H 0.15537 0.61818 0.72248
 H3332 H 0.14115 0.59113 0.71856
 H3333 H 0.15657 0.64214 0.74117
 H3334 H 0.17175 0.66887 0.74356
 H3335 H 0.21738 0.64206 0.75530
 H3336 H 0.20243 0.61524 0.75262
 C3337 C 0.63824 0.04954 0.23604
 C3338 C 0.64466 0.06307 0.23835
 C3339 C 0.65252 0.07917 0.24086
 C3340 C 0.64874 0.09256 0.23010
 C3341 C 0.65678 0.10805 0.23215
 C3342 C 0.66875 0.11033 0.24498
 C3343 C 0.67233 0.09682 0.25583
 C3344 C 0.66426 0.08135 0.25377
 C3345 C 0.67769 0.12661 0.24679
 C3346 C 0.69503 0.12697 0.25034
 C3347 C 0.70358 0.14227 0.25150
 C3348 C 0.69492 0.15742 0.24917
 C3349 C 0.67764 0.15723 0.24581
 C3350 C 0.66907 0.14193 0.24462
 C3351 C 0.70385 0.17313 0.24980
 C3352 C 0.71141 0.18626 0.25009
 H3353 H 0.63973 0.09098 0.22001
 H3354 H 0.65392 0.11812 0.22345
 H3355 H 0.68132 0.09825 0.26596
 H3356 H 0.66727 0.07106 0.26218
 H3357 H 0.70207 0.11540 0.25184
 H3358 H 0.71697 0.14228 0.25403
 H3359 H 0.67082 0.16889 0.24400
 H3360 H 0.65569 0.14208 0.24209
 C3361 C 0.86213 0.05138 0.76220
 C3362 C 0.85572 0.06481 0.75926
 C3363 C 0.84788 0.08081 0.75607
 C3364 C 0.83569 0.08233 0.74347
 C3365 C 0.82758 0.09772 0.74083
 C3366 C 0.83157 0.11180 0.75079
 C3367 C 0.84400 0.11017 0.76328
 C3368 C 0.85208 0.09477 0.76590
 C3369 C 0.82250 0.12797 0.74850
 C3370 C 0.83113 0.14338 0.74962
 C3371 C 0.82242 0.15860 0.74820
 C3372 C 0.80501 0.15864 0.74563
 C3373 C 0.79635 0.14339 0.74427
 C3374 C 0.80502 0.12816 0.74567
 C3375 C 0.79592 0.17429 0.74507
 C3376 C 0.78822 0.18735 0.74498
 H3377 H 0.83235 0.07160 0.73578
 H3378 H 0.81822 0.09863 0.73098
 H3379 H 0.84718 0.12069 0.77131
 H3380 H 0.86143 0.09370 0.77575
 H3381 H 0.84460 0.14365 0.75158
 H3382 H 0.82925 0.17034 0.74928
 H3383 H 0.78285 0.14328 0.74238
 H3384 H 0.79799 0.11653 0.74499
 C3385 C 0.36156 0.55189 0.26049
 C3386 C 0.35535 0.56540 0.25750
 C3387 C 0.34774 0.58152 0.25432
 C3388 C 0.33539 0.58320 0.24190
 C3389 C 0.32744 0.59869 0.23938
 C3390 C 0.33174 0.61271 0.24928
 C3391 C 0.34434 0.61093 0.26158
 C3392 C 0.35226 0.59543 0.26408
 C3393 C 0.32276 0.62897 0.24721
 C3394 C 0.33152 0.64430 0.24827
 C3395 C 0.32290 0.65960 0.24713
 C3396 C 0.30544 0.65978 0.24490
 C3397 C 0.29665 0.64460 0.24357
 C3398 C 0.30524 0.62930 0.24470
 C3399 C 0.29644 0.67548 0.24468
 C3400 C 0.28875 0.68856 0.24486
 H3401 H 0.33180 0.57250 0.23427
 H3402 H 0.31794 0.59971 0.22968
 H3403 H 0.34776 0.62140 0.26958
 H3404 H 0.36173 0.59425 0.27380
 H3405 H 0.34503 0.64446 0.25000
 H3406 H 0.32983 0.67128 0.24819
 H3407 H 0.28312 0.64460 0.24194
 H3408 H 0.29810 0.61773 0.24407
 C3409 C 0.36077 0.44865 0.23968
 C3410 C 0.35427 0.43529 0.24264
 C3411 C 0.34635 0.41935 0.24583
 C3412 C 0.33349 0.41811 0.25777
 C3413 C 0.32532 0.40276 0.26035
 C3414 C 0.32992 0.38845 0.25100
 C3415 C 0.34302 0.38979 0.23918
 C3416 C 0.35116 0.40515 0.23661
 C3417 C 0.32079 0.37231 0.25317
 C3418 C 0.32952 0.35690 0.25289
 C3419 C 0.32079 0.34170 0.25413
 C3420 C 0.30326 0.34169 0.25568
 C3421 C 0.29449 0.35695 0.25622
 C3422 C 0.30319 0.37216 0.25500
 C3423 C 0.29418 0.32605 0.25599
 C3424 C 0.28648 0.31300 0.25584
 H3425 H 0.32967 0.42903 0.26498
 H3426 H 0.31543 0.40208 0.26968
 H3427 H 0.34670 0.37908 0.23161
 H3428 H 0.36104 0.40600 0.22728
 H3429 H 0.34308 0.35661 0.25171
 H3430 H 0.32770 0.32995 0.25369
 H3431 H 0.28090 0.35708 0.25732
 H3432 H 0.29608 0.38379 0.25502
 C3433 C 0.86279 0.94862 0.73973
 C3434 C 0.85634 0.93518 0.74246
 C3435 C 0.84843 0.91919 0.74544
 C3436 C 0.83612 0.91762 0.75790
 C3437 C 0.82794 0.90225 0.76032
 C3438 C 0.83199 0.88824 0.75028
 C3439 C 0.84454 0.88991 0.73792
 C3440 C 0.85268 0.90529 0.73552
 C3441 C 0.82286 0.87209 0.75234
 C3442 C 0.83145 0.85665 0.75117
 C3443 C 0.82270 0.84146 0.75241
 C3444 C 0.80527 0.84149 0.75484
 C3445 C 0.79663 0.85677 0.75624
 C3446 C 0.80536 0.87198 0.75501
 C3447 C 0.79615 0.82588 0.75528
 C3448 C 0.78842 0.81285 0.75530
 H3449 H 0.83274 0.92830 0.76566
 H3450 H 0.81849 0.90131 0.77007
 H3451 H 0.84777 0.87945 0.72983
 H3452 H 0.86214 0.90640 0.72577
 H3453 H 0.84494 0.85633 0.74932
 H3454 H 0.82951 0.82970 0.75132
 H3455 H 0.78312 0.85694 0.75803
 H3456 H 0.79834 0.88363 0.75573
 C3457 C 0.63809 0.94767 0.26237
 C3458 C 0.64441 0.93411 0.25991
 C3459 C 0.65216 0.91797 0.25719
 C3460 C 0.64880 0.90465 0.26816
 C3461 C 0.65680 0.88914 0.26592
 C3462 C 0.66830 0.88677 0.25268
 C3463 C 0.67146 0.90020 0.24162
 C3464 C 0.66344 0.91569 0.24388
 C3465 C 0.67727 0.87049 0.25071
 C3466 C 0.69449 0.87015 0.24660
 C3467 C 0.70310 0.85486 0.24539
 C3468 C 0.69463 0.83971 0.24825
 C3469 C 0.67746 0.83989 0.25213
 C3470 C 0.66882 0.85517 0.25335
 C3471 C 0.70370 0.82404 0.24778
 C3472 C 0.71138 0.81097 0.24773
 H3473 H 0.64016 0.90630 0.27856
 H3474 H 0.65428 0.87913 0.27479
 H3475 H 0.68008 0.89870 0.23120
 H3476 H 0.66612 0.92593 0.23531
 H3477 H 0.70139 0.88172 0.24472
 H3478 H 0.71641 0.85486 0.24248
 H3479 H 0.67079 0.82824 0.25436
 H3480 H 0.65554 0.85501 0.25633
 C3481 C 0.13895 0.44757 0.75963
 C3482 C 0.14533 0.43405 0.75708
 C3483 C 0.15317 0.41797 0.75433
 C3484 C 0.16556 0.41614 0.74197
 C3485 C 0.17368 0.40069 0.73979
 C3486 C 0.16950 0.38684 0.74997
 C3487 C 0.15686 0.38876 0.76221
 C3488 C 0.14877 0.40422 0.76438
 C3489 C 0.17859 0.37061 0.74819
 C3490 C 0.16992 0.35525 0.74946
 C3491 C 0.17863 0.33999 0.74849
 C3492 C 0.19609 0.33988 0.74623
 C3493 C 0.20479 0.35509 0.74472
 C3494 C 0.19611 0.37036 0.74567
 C3495 C 0.20516 0.32422 0.74608
 C3496 C 0.21285 0.31114 0.74629
 H3497 H 0.16905 0.42671 0.73412
 H3498 H 0.18321 0.39955 0.73013
 H3499 H 0.15352 0.37842 0.77040
 H3500 H 0.13925 0.40552 0.77404
 H3501 H 0.15641 0.35503 0.75119
 H3502 H 0.17177 0.32828 0.74967
 H3503 H 0.21832 0.35515 0.74306
 H3504 H 0.20317 0.38196 0.74488
 C3505 C 0.05116 0.76447 0.86176
 C3506 C 0.06453 0.76194 0.85506
 C3507 C 0.08044 0.75918 0.84687
 C3508 C 0.09429 0.76920 0.85097
 C3509 C 0.10962 0.76692 0.84266
 C3510 C 0.11128 0.75457 0.83009
 C3511 C 0.09731 0.74445 0.82616
 C3512 C 0.08199 0.74675 0.83451
 C3513 C 0.12742 0.75249 0.82091
 C3514 C 0.12752 0.74970 0.80344
 C3515 C 0.14272 0.74824 0.79471
 C3516 C 0.15801 0.74951 0.80332
 C3517 C 0.15806 0.75213 0.82071
 C3518 C 0.14288 0.75361 0.82946
 C3519 C 0.17365 0.74853 0.79425
 C3520 C 0.18675 0.74793 0.78665
 H3521 H 0.09320 0.77892 0.86047
 H3522 H 0.12006 0.77506 0.84581
 H3523 H 0.09825 0.73470 0.81670
 H3524 H 0.07135 0.73891 0.83124
 H3525 H 0.11584 0.74901 0.79646
 H3526 H 0.14253 0.74629 0.78124
 H3527 H 0.16983 0.75312 0.82750
 H3528 H 0.14322 0.75554 0.84293
 C3529 C 0.55044 0.26390 0.35985
 C3530 C 0.56384 0.26137 0.35322
 C3531 C 0.57980 0.25860 0.34513
 C3532 C 0.58149 0.24596 0.33300
 C3533 C 0.59684 0.24362 0.32474
 C3534 C 0.61072 0.25393 0.32852
 C3535 C 0.60892 0.26650 0.34085
 C3536 C 0.59355 0.26881 0.34908
 C3537 C 0.62690 0.25183 0.31941
 C3538 C 0.64232 0.25324 0.32798
 C3539 C 0.65753 0.25177 0.31928
 C3540 C 0.65754 0.24887 0.30193
 C3541 C 0.64228 0.24729 0.29333
 C3542 C 0.62705 0.24874 0.30200
 C3543 C 0.67320 0.24796 0.29290
 C3544 C 0.68630 0.24744 0.28529
 H3545 H 0.57092 0.23797 0.32986
 H3546 H 0.59789 0.23371 0.31546
 H3547 H 0.61929 0.27479 0.34387
 H3548 H 0.59236 0.27869 0.35839
 H3549 H 0.64262 0.25540 0.34141
 H3550 H 0.66928 0.25300 0.32607
 H3551 H 0.64214 0.24512 0.27988
 H3552 H 0.61540 0.24782 0.29501
 C3553 C 0.55167 0.73888 0.13864
 C3554 C 0.56503 0.74166 0.14524
 C3555 C 0.58092 0.74468 0.15333
 C3556 C 0.59573 0.74531 0.14385
 C3557 C 0.61124 0.74759 0.15184
 C3558 C 0.61211 0.74926 0.16943
 C3559 C 0.59711 0.74882 0.17881
 C3560 C 0.58163 0.74653 0.17081
 C3561 C 0.62860 0.75093 0.17803
 C3562 C 0.63050 0.76183 0.19184
 C3563 C 0.64584 0.76279 0.20039
 C3564 C 0.65947 0.75289 0.19524
 C3565 C 0.65778 0.74219 0.18138
 C3566 C 0.64246 0.74122 0.17281
 C3567 C 0.67500 0.75321 0.20452
 C3568 C 0.68795 0.75308 0.21239
 H3569 H 0.59531 0.74391 0.13032
 H3570 H 0.62253 0.74808 0.14426
 H3571 H 0.59738 0.74982 0.19238
 H3572 H 0.57025 0.74599 0.17827
 H3573 H 0.62013 0.76961 0.19603
 H3574 H 0.64702 0.77111 0.21110
 H3575 H 0.66823 0.73441 0.17734
 H3576 H 0.64134 0.73254 0.16239
 C3577 C 0.05185 0.23857 0.63877
 C3578 C 0.06530 0.24119 0.64525
 C3579 C 0.08133 0.24399 0.65315
 C3580 C 0.09621 0.24169 0.64404
 C3581 C 0.11180 0.24368 0.65192
 C3582 C 0.11270 0.24799 0.66906
 C3583 C 0.09766 0.25049 0.67805
 C3584 C 0.08209 0.24849 0.67014
 C3585 C 0.12922 0.24936 0.67766
 C3586 C 0.13213 0.26208 0.68962
 C3587 C 0.14749 0.26294 0.69814
 C3588 C 0.16013 0.25113 0.69483
 C3589 C 0.15742 0.23855 0.68283
 C3590 C 0.14209 0.23767 0.67428
 C3591 C 0.17568 0.25155 0.70407
 C3592 C 0.18865 0.25158 0.71190
 H3593 H 0.09577 0.23822 0.63088
 H3594 H 0.12315 0.24187 0.64462
 H3595 H 0.09792 0.25358 0.69130
 H3596 H 0.07064 0.25022 0.67733
 H3597 H 0.12255 0.27138 0.69234
 H3598 H 0.14946 0.27273 0.70741
 H3599 H 0.16709 0.22929 0.68023
 H3600 H 0.14016 0.22759 0.66534
 C3601 C 0.94928 0.26253 0.63745
 C3602 C 0.93571 0.25987 0.64366
 C3603 C 0.91956 0.25696 0.65128
 C3604 C 0.90612 0.26781 0.64787
 C3605 C 0.89060 0.26541 0.65575
 C3606 C 0.88832 0.25212 0.66720
 C3607 C 0.90187 0.24116 0.67040
 C3608 C 0.91738 0.24358 0.66248
 C3609 C 0.87204 0.25001 0.67609
 C3610 C 0.87170 0.24589 0.69329
 C3611 C 0.85640 0.24462 0.70185
 C3612 C 0.84124 0.24740 0.69335
 C3613 C 0.84142 0.25127 0.67620
 C3614 C 0.85671 0.25256 0.66761
 C3615 C 0.82557 0.24690 0.70239
 C3616 C 0.81251 0.24682 0.71008
 H3617 H 0.90770 0.27825 0.63928
 H3618 H 0.88050 0.27420 0.65321
 H3619 H 0.90045 0.23070 0.67899
 H3620 H 0.92771 0.23510 0.66520
 H3621 H 0.88328 0.24408 0.70023
 H3622 H 0.85641 0.24171 0.71515
 H3623 H 0.82975 0.25345 0.66950
 H3624 H 0.85655 0.25554 0.65434
 C3625 C 0.44907 0.76220 0.13756
 C3626 C 0.43557 0.75952 0.14390
 C3627 C 0.41951 0.75662 0.15170
 C3628 C 0.40584 0.76704 0.14788
 C3629 C 0.39042 0.76472 0.15597
 C3630 C 0.38846 0.75194 0.16804
 C3631 C 0.40223 0.74139 0.17164
 C3632 C 0.41764 0.74373 0.16352
 C3633 C 0.37228 0.74996 0.17715
 C3634 C 0.37214 0.74665 0.19452
 C3635 C 0.35693 0.74550 0.20325
 C3636 C 0.34166 0.74760 0.19475
 C3637 C 0.34165 0.75067 0.17743
 C3638 C 0.35686 0.75183 0.16867
 C3639 C 0.32606 0.74721 0.20390
 C3640 C 0.31304 0.74720 0.21165
 H3641 H 0.40718 0.77712 0.13882
 H3642 H 0.38014 0.77320 0.15310
 H3643 H 0.40106 0.73132 0.18071
 H3644 H 0.42815 0.73558 0.16656
 H3645 H 0.38380 0.74538 0.20145
 H3646 H 0.35708 0.74322 0.21667
 H3647 H 0.32990 0.75231 0.17072
 H3648 H 0.35655 0.75418 0.15527
 C3649 C 0.44821 0.23922 0.36097
 C3650 C 0.43464 0.24185 0.35474
 C3651 C 0.41848 0.24471 0.34710
 C3652 C 0.41747 0.25172 0.33100
 C3653 C 0.40182 0.25386 0.32326
 C3654 C 0.38696 0.24898 0.33153
 C3655 C 0.38810 0.24215 0.34781
 C3656 C 0.40376 0.24003 0.35552
 C3657 C 0.37041 0.25055 0.32300
 C3658 C 0.35839 0.23764 0.32437
 C3659 C 0.34304 0.23881 0.31590
 C3660 C 0.33946 0.25287 0.30596
 C3661 C 0.35124 0.26586 0.30464
 C3662 C 0.36662 0.26472 0.31310
 C3663 C 0.32387 0.25367 0.29679
 C3664 C 0.31085 0.25396 0.28903
 H3665 H 0.42879 0.25531 0.32434
 H3666 H 0.40139 0.25894 0.31065
 H3667 H 0.37688 0.23847 0.35458
 H3668 H 0.40440 0.23460 0.36799
 H3669 H 0.36101 0.22647 0.33169
 H3670 H 0.33404 0.22864 0.31694
 H3671 H 0.34859 0.27681 0.29698
 H3672 H 0.37552 0.27495 0.31196
 C3673 C 0.94892 0.74027 0.86282
 C3674 C 0.93538 0.74294 0.85652
 C3675 C 0.91926 0.74581 0.84882
 C3676 C 0.90452 0.74093 0.85709
 C3677 C 0.88890 0.74301 0.84929
 C3678 C 0.88781 0.74999 0.83307
 C3679 C 0.90269 0.75508 0.82497
 C3680 C 0.91830 0.75299 0.83279
 C3681 C 0.87131 0.75146 0.82444
 C3682 C 0.86745 0.76568 0.81464
 C3683 C 0.85211 0.76674 0.80608
 C3684 C 0.84045 0.75361 0.80721
 C3685 C 0.84412 0.73950 0.81704
 C3686 C 0.85942 0.73842 0.82561
 C3687 C 0.82492 0.75433 0.79795
 C3688 C 0.81192 0.75448 0.79015
 H3689 H 0.90512 0.73538 0.86951
 H3690 H 0.87766 0.73917 0.85595
 H3691 H 0.90230 0.76028 0.81240
 H3692 H 0.92964 0.75673 0.82624
 H3693 H 0.87625 0.77601 0.81364
 H3694 H 0.84939 0.77773 0.79850
 H3695 H 0.83522 0.72923 0.81793
 H3696 H 0.86212 0.72720 0.83284
   
