data_POSCAR
  _audit_creation_date              2014-09-24
  _audit_creation_method            'ToBaCCo'
  _symmetry_space_group_name_H-M    'P1'
  _symmetry_Int_Tables_number       1
  _symmetry_cell_setting            triclinic
  loop_
  _symmetry_equiv_pos_as_xyz
 x,y,z
_cell_length_a 61.3600
_cell_length_b 64.0654
_cell_length_c 62.7680
_cell_angle_alpha 90.008500
_cell_angle_beta 90.053900
_cell_angle_gamma 90.105800
loop_
  _atom_site_label
  _atom_site_type_symbol
  _atom_site_fract_x
  _atom_site_fract_y
  _atom_site_fract_z
O1 O 0.32723 0.35631 0.02459
 O2 O 0.35312 0.32704 -0.01886
 O3 O 0.32590 0.35808 -0.01663
 O4 O 0.35407 0.32489 0.02251
 O5 O 0.32626 0.30303 0.02241
 O6 O 0.29843 0.33590 -0.01731
 O7 O 0.32575 0.30467 -0.01898
 O8 O 0.29938 0.33450 0.02418
 Cu9 Cu 0.34285 0.34376 0.00295
 Cu10 Cu 0.30967 0.31733 0.00253
 C11 C 0.30881 0.35057 0.03172
 C12 C 0.34401 0.31077 -0.02627
 C13 C 0.30727 0.35274 -0.02368
 C14 C 0.34502 0.30826 0.02914
 O15 O 0.68259 0.64467 0.02006
 O16 O 0.65040 0.66989 -0.02222
 O17 O 0.68162 0.64231 -0.02135
 O18 O 0.65107 0.67179 0.01895
 O19 O 0.67525 0.69724 0.01724
 O20 O 0.70604 0.66751 -0.02301
 O21 O 0.67477 0.69517 -0.02412
 O22 O 0.70687 0.67004 0.01825
 Cu23 Cu 0.66403 0.65460 -0.00098
 Cu24 Cu 0.69317 0.68504 -0.00311
 C25 C 0.70028 0.65299 0.02634
 C26 C 0.65697 0.68698 -0.03026
 C27 C 0.69918 0.64971 -0.02900
 C28 C 0.65778 0.68963 0.02487
 O29 O 0.65068 0.32062 1.01781
 O30 O 0.68143 0.34941 0.97737
 O31 O 0.65194 0.31981 0.97654
 O32 O 0.68086 0.34910 1.01847
 O33 O 0.70608 0.32468 1.01962
 O34 O 0.67785 0.29600 0.97681
 O35 O 0.70737 0.32564 0.97811
 O36 O 0.67588 0.29612 1.01844
 Cu37 Cu 0.66366 0.33710 0.99739
 Cu38 Cu 0.69434 0.30816 0.99823
 C39 C 0.65790 0.30350 1.02511
 C40 C 0.69983 0.34281 0.97112
 C41 C 0.65989 0.30282 0.96959
 C42 C 0.69845 0.34191 1.02629
 O43 O 0.35177 0.67642 1.02056
 O44 O 0.32254 0.64727 0.97920
 O45 O 0.35262 0.67591 0.97926
 O46 O 0.32079 0.64854 1.02044
 O47 O 0.29601 0.67336 1.01927
 O48 O 0.32754 0.70049 0.97779
 O49 O 0.29736 0.67176 0.97781
 O50 O 0.32710 0.70137 1.01924
 Cu51 Cu 0.33941 0.65957 1.00002
 Cu52 Cu 0.30949 0.68922 0.99843
 C53 C 0.34467 0.69395 1.02686
 C54 C 0.30494 0.65438 0.97146
 C55 C 0.34554 0.69292 0.97150
 C56 C 0.30283 0.65617 1.02686
 O57 O 0.02092 0.32707 0.35441
 O58 O -0.02338 0.35358 0.32581
 O59 O -0.02109 0.32588 0.35614
 O60 O 0.01897 0.35453 0.32386
 O61 O 0.01892 0.32907 0.30021
 O62 O -0.02214 0.30090 0.33202
 O63 O -0.02348 0.32868 0.30153
 O64 O 0.02023 0.30153 0.33085
 Cu65 Cu -0.00111 0.34283 0.34239
 Cu66 Cu -0.00168 0.31252 0.31374
 C67 C 0.02796 0.30962 0.34775
 C68 C -0.03091 0.34580 0.30870
 C69 C -0.02839 0.30837 0.34976
 C70 C 0.02585 0.34671 0.30653
 O71 O 0.01874 0.67900 0.64755
 O72 O -0.02434 0.64856 0.67393
 O73 O -0.02340 0.67750 0.64503
 O74 O 0.01786 0.64984 0.67672
 O75 O 0.01570 0.67403 0.70163
 O76 O -0.02610 0.70145 0.67007
 O77 O -0.02658 0.67243 0.69915
 O78 O 0.01626 0.70319 0.67242
 Cu79 Cu -0.00247 0.66132 0.65832
 Cu80 Cu -0.00537 0.69020 0.68833
 C81 C 0.02469 0.69643 0.65528
 C82 C -0.03281 0.65523 0.69108
 C83 C -0.03191 0.69420 0.65207
 C84 C 0.02371 0.65706 0.69470
 O85 O 1.01952 0.64949 0.32244
 O86 O 0.97765 0.67539 0.35489
 O87 O 0.97752 0.64834 0.32380
 O88 O 1.01998 0.67639 0.35364
 O89 O 1.01850 0.70234 0.33065
 O90 O 0.97613 0.67398 0.30039
 O91 O 0.97599 0.70109 0.33158
 O92 O 1.01869 0.67559 0.29949
 Cu93 Cu 0.99879 0.65987 0.34105
 Cu94 Cu 0.99714 0.69085 0.31321
 C95 C 1.02623 0.65808 0.30542
 C96 C 0.96965 0.69268 0.34884
 C97 C 0.96975 0.65618 0.30685
 C98 C 1.02657 0.69418 0.34736
 O99 O 0.98405 0.32414 0.64076
 O100 O 1.02506 0.35356 0.67089
 O101 O 1.02619 0.32522 0.64130
 O102 O 0.98290 0.35204 0.67111
 O103 O 0.98328 0.32702 0.69524
 O104 O 1.02706 0.30052 0.66571
 O105 O 1.02571 0.32897 0.69547
 O106 O 0.98462 0.29915 0.66493
 Cu107 Cu 1.00444 0.34122 0.65360
 Cu108 Cu 1.00523 0.31142 0.68279
 C109 C 0.97748 0.30654 0.64747
 C110 C 1.03235 0.34645 0.68837
 C111 C 1.03404 0.30820 0.64833
 C112 C 0.97578 0.34420 0.68835
 O113 O 0.35855 0.01857 0.32416
 O114 O 0.32716 -0.02245 0.35162
 O115 O 0.35823 -0.02197 0.32325
 O116 O 0.32836 0.01796 0.35307
 O117 O 0.30332 0.01915 0.32786
 O118 O 0.33359 -0.02091 0.29768
 O119 O 0.30242 -0.02147 0.32614
 O120 O 0.33359 0.01981 0.29889
 Cu121 Cu 0.34557 -0.00215 0.34054
 Cu122 Cu 0.31574 -0.00081 0.31007
 C123 C 0.35138 0.02630 0.30688
 C124 C 0.30929 -0.02885 0.34368
 C125 C 0.35121 -0.02819 0.30531
 C126 C 0.31076 0.02541 0.34567
 O127 O 0.64112 0.02052 0.67742
 O128 O 0.67365 -0.01881 0.64885
 O129 O 0.64393 -0.01980 0.67807
 O130 O 0.67051 0.02144 0.64708
 O131 O 0.69638 0.02406 0.67136
 O132 O 0.66939 -0.01734 0.70277
 O133 O 0.69928 -0.01641 0.67340
 O134 O 0.66696 0.02330 0.70171
 Cu135 Cu 0.65472 0.00071 0.66042
 Cu136 Cu 0.68556 0.00376 0.68978
 C137 C 0.64832 0.02842 0.69463
 C138 C 0.69202 -0.02440 0.65628
 C139 C 0.65204 -0.02571 0.69566
 C140 C 0.68820 0.02952 0.65359
 O141 O 0.31966 1.01792 0.65085
 O142 O 0.35140 0.97974 0.68193
 O143 O 0.32314 0.97755 0.65081
 O144 O 0.34855 1.02019 0.68098
 O145 O 0.32288 1.01777 0.70545
 O146 O 0.29614 0.97622 0.67394
 O147 O 0.32430 0.97703 0.70488
 O148 O 0.29365 1.01681 0.67505
 Cu149 Cu 0.33835 0.99899 0.66379
 Cu150 Cu 0.30659 0.99682 0.69223
 C151 C 0.30124 1.02397 0.65770
 C152 C 0.34317 0.97174 0.69862
 C153 C 0.30519 0.96975 0.65697
 C154 C 0.34024 1.02618 0.69844
 O155 O 0.65030 0.98194 0.31437
 O156 O 0.68072 1.01676 0.34999
 O157 O 0.65310 1.02182 0.31883
 O158 O 0.67887 0.97665 0.34489
 O159 O 0.70606 0.97832 0.32199
 O160 O 0.67974 1.02270 0.29528
 O161 O 0.70739 1.01880 0.32660
 O162 O 0.67753 0.98235 0.29139
 Cu163 Cu 0.66309 0.99913 0.33438
 Cu164 Cu 0.69542 1.00065 0.30652
 C165 C 0.65854 0.97635 0.29674
 C166 C 0.69921 1.02387 0.34449
 C167 C 0.66183 1.02977 0.30236
 C168 C 0.69703 0.96992 0.33805
 C169 C 0.87269 0.78695 0.51298
 C170 C 0.87282 0.78634 0.49115
 C171 C 0.85376 0.79588 0.48443
 N172 N 0.84196 0.80221 0.50142
 C173 C 0.85357 0.79688 0.51890
 C174 C 0.84709 0.79761 0.46294
 C175 C 0.82873 0.80924 0.45630
 C176 C 0.81934 0.80802 0.43623
 C177 C 0.80270 0.82238 0.43578
 C178 C 0.80240 0.83198 0.45558
 N179 N 0.81840 0.82398 0.46793
 C180 C 0.78833 0.84851 0.46129
 C181 C 0.78553 0.85566 0.48240
 C182 C 0.77399 0.87340 0.48804
 C183 C 0.77414 0.87430 0.50985
 C184 C 0.78576 0.85707 0.51684
 N185 N 0.79261 0.84564 0.50004
 C186 C 0.78878 0.85162 0.53846
 C187 C 0.80272 0.83542 0.54532
 C188 C 0.80298 0.82716 0.56573
 C189 C 0.81931 0.81248 0.56620
 C190 C 0.82862 0.81220 0.54606
 N191 N 0.81852 0.82635 0.53350
 C192 C 0.84669 0.79982 0.54018
 H193 H 0.88523 0.78074 0.52331
 H194 H 0.88548 0.77957 0.48136
 H195 H 0.82365 0.83113 0.51852
 H196 H 0.82404 0.79791 0.42322
 H197 H 0.79212 0.82549 0.42235
 H198 H 0.76621 0.88453 0.47754
 H199 H 0.76648 0.88625 0.51945
 H200 H 0.82389 0.80315 0.57986
 H201 H 0.82355 0.82987 0.48250
 H202 H 0.79253 0.83132 0.57894
 C203 C 0.21403 0.11771 0.48376
 C204 C 0.21522 0.11770 0.50557
 C205 C 0.20495 0.13574 0.51243
 N206 N 0.19764 0.14681 0.49555
 C207 C 0.20307 0.13576 0.47801
 C208 C 0.20361 0.14222 0.53391
 C209 C 0.19099 0.15937 0.54084
 C210 C 0.19230 0.16826 0.56095
 C211 C 0.17687 0.18380 0.56170
 C212 C 0.16658 0.18400 0.54202
 N213 N 0.17515 0.16894 0.52948
 C214 C 0.14902 0.19723 0.53656
 C215 C 0.14142 0.20014 0.51550
 C216 C 0.12290 0.21132 0.51006
 C217 C 0.12184 0.21143 0.48825
 C218 C 0.13974 0.20031 0.48106
 N219 N 0.15175 0.19353 0.49774
 C220 C 0.14525 0.19754 0.45939
 C221 C 0.16216 0.18430 0.45233
 C222 C 0.17058 0.18422 0.43183
 C223 C 0.18589 0.16859 0.43109
 C224 C 0.18641 0.15956 0.45116
 N225 N 0.17178 0.16911 0.46395
 C226 C 0.19947 0.14228 0.45680
 H227 H 0.22061 0.10584 0.47333
 H228 H 0.22288 0.10581 0.51525
 H229 H 0.16695 0.16406 0.47893
 H230 H 0.20318 0.16396 0.57379
 H231 H 0.17358 0.19378 0.57523
 H232 H 0.11139 0.21872 0.52070
 H233 H 0.10936 0.21892 0.47876
 H234 H 0.19549 0.16433 0.41731
 H235 H 0.16895 0.16402 0.51493
 H236 H 0.16611 0.19432 0.41872
 C237 C 0.12220 0.78420 0.50651
 C238 C 0.12266 0.78543 0.48471
 C239 C 0.14131 0.79653 0.47942
 N240 N 0.15226 0.80206 0.49725
 C241 C 0.14053 0.79465 0.51384
 C242 C 0.14851 0.80022 0.45837
 C243 C 0.16653 0.81305 0.45324
 C244 C 0.17668 0.81356 0.43352
 C245 C 0.19288 0.82839 0.43479
 C246 C 0.19211 0.83662 0.45523
 N247 N 0.17588 0.82728 0.46629
 C248 C 0.20553 0.85304 0.46272
 C249 C 0.20691 0.85904 0.48435
 C250 C 0.21746 0.87681 0.49165
 C251 C 0.21606 0.87645 0.51345
 C252 C 0.20479 0.85842 0.51877
 N253 N 0.19930 0.84775 0.50096
 C254 C 0.20092 0.85155 0.53983
 C255 C 0.18786 0.83407 0.54494
 C256 C 0.18746 0.82435 0.56467
 C257 C 0.17222 0.80863 0.56340
 C258 C 0.16364 0.80924 0.54296
 N259 N 0.17316 0.82489 0.53186
 C260 C 0.14668 0.79618 0.53549
 H261 H 0.10979 0.77646 0.51589
 H262 H 0.11070 0.77877 0.47400
 H263 H 0.16826 0.83045 0.51709
 H264 H 0.17283 0.80420 0.41965
 H265 H 0.20389 0.83270 0.42206
 H266 H 0.22536 0.88880 0.48226
 H267 H 0.22273 0.88808 0.52414
 H268 H 0.16786 0.79805 0.57615
 H269 H 0.17001 0.83189 0.48106
 H270 H 0.19715 0.82819 0.57855
 C271 C 0.86110 0.22723 0.48926
 C272 C 0.86096 0.22724 0.51112
 C273 C 0.85252 0.20811 0.51735
 N274 N 0.84756 0.19642 0.50011
 C275 C 0.85286 0.20805 0.48291
 C276 C 0.85136 0.20093 0.53858
 C277 C 0.83895 0.18326 0.54449
 C278 C 0.84057 0.17292 0.56383
 C279 C 0.82484 0.15758 0.56377
 C280 C 0.81411 0.15896 0.54436
 N281 N 0.82278 0.17467 0.53272
 C282 C 0.79602 0.14667 0.53826
 C283 C 0.78937 0.14463 0.51681
 C284 C 0.77016 0.13531 0.51005
 C285 C 0.77101 0.13467 0.48821
 C286 C 0.79067 0.14368 0.48237
 N287 N 0.80186 0.14978 0.49987
 C288 C 0.79887 0.14463 0.46137
 C289 C 0.81691 0.15723 0.45578
 C290 C 0.82867 0.15554 0.43700
 C291 C 0.84371 0.17149 0.43704
 C292 C 0.84075 0.18243 0.45588
 N293 N 0.82439 0.17365 0.46720
 C294 C 0.85220 0.20071 0.46171
 H295 H 0.86691 0.23979 0.47922
 H296 H 0.86663 0.23979 0.52127
 H297 H 0.81717 0.17989 0.48077
 H298 H 0.85183 0.17612 0.57670
 H299 H 0.82167 0.14668 0.57656
 H300 H 0.75702 0.12938 0.51983
 H301 H 0.75865 0.12817 0.47783
 H302 H 0.85545 0.17468 0.42460
 H303 H 0.81645 0.18060 0.51858
 H304 H 0.82658 0.14408 0.42449
 C305 C 0.49498 0.88489 0.79484
 C306 C 0.51725 0.88363 0.79520
 C307 C 0.52241 0.86552 0.80614
 N308 N 0.50400 0.85563 0.81237
 C309 C 0.48717 0.86756 0.80570
 C310 C 0.54381 0.85787 0.80896
 C311 C 0.54905 0.83995 0.82100
 C312 C 0.56918 0.83014 0.82077
 C313 C 0.56806 0.81404 0.83520
 C314 C 0.54729 0.81448 0.84389
 N315 N 0.53588 0.83041 0.83526
 C316 C 0.53989 0.80102 0.86021
 C317 C 0.51776 0.79894 0.86605
 C318 C 0.51036 0.78757 0.88338
 C319 C 0.48806 0.78867 0.88297
 C320 C 0.48254 0.80070 0.86542
 N321 N 0.50073 0.80685 0.85502
 C322 C 0.46095 0.80493 0.85883
 C323 C 0.45544 0.81936 0.84263
 C324 C 0.43482 0.82145 0.83383
 C325 C 0.43587 0.83774 0.81959
 C326 C 0.45715 0.84509 0.81991
 N327 N 0.46888 0.83394 0.83419
 C328 C 0.46483 0.86241 0.80801
 H329 H 0.48568 0.89706 0.78711
 H330 H 0.52837 0.89466 0.78791
 H331 H 0.48440 0.83751 0.83960
 H332 H 0.58328 0.83422 0.81127
 H333 H 0.58111 0.80330 0.83895
 H334 H 0.52001 0.77932 0.89510
 H335 H 0.47716 0.78144 0.89435
 H336 H 0.42237 0.84355 0.81023
 H337 H 0.52094 0.83590 0.84055
 H338 H 0.42043 0.81233 0.83744
 C339 C 0.48861 0.12532 0.21578
 C340 C 0.51091 0.12527 0.21694
 C341 C 0.51800 0.14310 0.20651
 N342 N 0.50079 0.15412 0.19920
 C343 C 0.48279 0.14324 0.20479
 C344 C 0.54002 0.14939 0.20493
 C345 C 0.54734 0.16557 0.19139
 C346 C 0.56815 0.17407 0.19177
 C347 C 0.56916 0.18836 0.17544
 C348 C 0.54891 0.18828 0.16563
 N349 N 0.53578 0.17422 0.17531
 C350 C 0.54337 0.20040 0.14764
 C351 C 0.52169 0.20387 0.14092
 C352 C 0.51585 0.21449 0.12255
 C353 C 0.49355 0.21576 0.12259
 C354 C 0.48647 0.20576 0.14092
 N355 N 0.50371 0.19862 0.15216
 C356 C 0.46449 0.20449 0.14749
 C357 C 0.45712 0.19160 0.16432
 C358 C 0.43635 0.19225 0.17301
 C359 C 0.43534 0.17670 0.18811
 C360 C 0.45555 0.16707 0.18831
 N361 N 0.46864 0.17609 0.17362
 C362 C 0.46111 0.14984 0.20128
 H363 H 0.47791 0.11355 0.22242
 H364 H 0.52077 0.11345 0.22459
 H365 H 0.48369 0.17053 0.16870
 H366 H 0.58131 0.17027 0.20257
 H367 H 0.58321 0.19774 0.17127
 H368 H 0.52653 0.22085 0.11047
 H369 H 0.48367 0.22323 0.11051
 H370 H 0.42133 0.17295 0.19786
 H371 H 0.52070 0.16921 0.16979
 H372 H 0.42323 0.20275 0.16883
 C373 C 0.48214 0.22225 0.87189
 C374 C 0.50448 0.22259 0.87198
 C375 C 0.51127 0.20435 0.86212
 N376 N 0.49383 0.19295 0.85595
 C377 C 0.47600 0.20390 0.86183
 C378 C 0.53319 0.19772 0.86063
 C379 C 0.53990 0.18067 0.84788
 C380 C 0.56021 0.17126 0.84898
 C381 C 0.56058 0.15600 0.83355
 C382 C 0.54046 0.15644 0.82347
 N383 N 0.52802 0.17162 0.83220
 C384 C 0.53441 0.14353 0.80612
 C385 C 0.51250 0.14069 0.79964
 C386 C 0.50597 0.13019 0.78138
 C387 C 0.48365 0.12918 0.78197
 C388 C 0.47726 0.13933 0.80041
 N389 N 0.49490 0.14628 0.81124
 C390 C 0.45552 0.14080 0.80760
 C391 C 0.44891 0.15387 0.82451
 C392 C 0.42856 0.15329 0.83408
 C393 C 0.42817 0.16917 0.84883
 C394 C 0.44834 0.17894 0.84793
 N395 N 0.46078 0.16966 0.83291
 C396 C 0.45431 0.19671 0.85992
 H397 H 0.47166 0.23402 0.87876
 H398 H 0.51455 0.23475 0.87882
 H399 H 0.47554 0.17520 0.82711
 H400 H 0.57342 0.17498 0.85978
 H401 H 0.57410 0.14568 0.83022
 H402 H 0.51620 0.12371 0.76901
 H403 H 0.47331 0.12177 0.77020
 H404 H 0.41450 0.17315 0.85892
 H405 H 0.51316 0.17687 0.82634
 H406 H 0.41526 0.14268 0.83064
 C407 C 0.49480 0.88527 0.20300
 C408 C 0.51713 0.88497 0.20256
 C409 C 0.52311 0.86780 0.19044
 N410 N 0.50512 0.85746 0.18377
 C411 C 0.48780 0.86820 0.19128
 C412 C 0.54487 0.86132 0.18688
 C413 C 0.55073 0.84436 0.17360
 C414 C 0.57145 0.83576 0.17247
 C415 C 0.57070 0.82036 0.15725
 C416 C 0.54961 0.82003 0.14931
 N417 N 0.53762 0.83484 0.15921
 C418 C 0.54240 0.80684 0.13264
 C419 C 0.52032 0.80421 0.12676
 C420 C 0.51323 0.79278 0.10932
 C421 C 0.49090 0.79318 0.10974
 C422 C 0.48506 0.80485 0.12743
 N423 N 0.50307 0.81145 0.13788
 C424 C 0.46340 0.80819 0.13422
 C425 C 0.45758 0.82143 0.15131
 C426 C 0.43710 0.82200 0.16062
 C427 C 0.43777 0.83726 0.17599
 C428 C 0.45864 0.84562 0.17566
 N429 N 0.47054 0.83602 0.16043
 C430 C 0.46574 0.86229 0.18871
 H431 H 0.48488 0.89664 0.21124
 H432 H 0.52769 0.89604 0.21053
 H433 H 0.48575 0.84068 0.15503
 H434 H 0.58576 0.84016 0.18149
 H435 H 0.58425 0.81066 0.15243
 H436 H 0.52312 0.78487 0.09756
 H437 H 0.48018 0.78562 0.09840
 H438 H 0.42437 0.84171 0.18623
 H439 H 0.52216 0.83965 0.15479
 H440 H 0.42310 0.81243 0.15672
 C441 C 0.77574 0.47930 0.86258
 C442 C 0.77318 0.50055 0.86275
 C443 C 0.79100 0.50886 0.85215
 N444 N 0.80446 0.49340 0.84573
 C445 C 0.79515 0.47530 0.85206
 C446 C 0.79547 0.53041 0.85014
 C447 C 0.81266 0.53853 0.83763
 C448 C 0.81991 0.55904 0.83824
 C449 C 0.83591 0.56088 0.82302
 C450 C 0.83795 0.54146 0.81347
 N451 N 0.82355 0.52801 0.82231
 C452 C 0.85187 0.53701 0.79614
 C453 C 0.85607 0.51661 0.78871
 C454 C 0.86742 0.51192 0.77024
 C455 C 0.86943 0.49063 0.76963
 C456 C 0.85954 0.48301 0.78791
 N457 N 0.85138 0.49893 0.79953
 C458 C 0.85978 0.46190 0.79445
 C459 C 0.84764 0.45433 0.81198
 C460 C 0.85107 0.43526 0.82185
 C461 C 0.83557 0.43343 0.83755
 C462 C 0.82305 0.45143 0.83683
 N463 N 0.83045 0.46403 0.82111
 C464 C 0.80476 0.45535 0.84993
 H465 H 0.76469 0.46809 0.86966
 H466 H 0.75985 0.50891 0.87011
 H467 H 0.82283 0.47742 0.81548
 H468 H 0.81415 0.57150 0.84841
 H469 H 0.84477 0.57502 0.81924
 H470 H 0.87379 0.52271 0.75852
 H471 H 0.87759 0.48181 0.75729
 H472 H 0.83376 0.42033 0.84830
 H473 H 0.81969 0.51323 0.81665
 H474 H 0.86349 0.42384 0.81817
 C475 C 0.11942 0.51504 0.21634
 C476 C 0.12033 0.49375 0.21815
 C477 C 0.13879 0.48739 0.20725
 N478 N 0.14925 0.50412 0.19897
 C479 C 0.13732 0.52106 0.20431
 C480 C 0.14607 0.46650 0.20601
 C481 C 0.16349 0.45978 0.19298
 C482 C 0.17285 0.44011 0.19390
 C483 C 0.18833 0.43934 0.17809
 C484 C 0.18809 0.45860 0.16803
 N485 N 0.17277 0.47089 0.17706
 C486 C 0.20120 0.46397 0.15036
 C487 C 0.20440 0.48469 0.14327
 C488 C 0.21598 0.49021 0.12516
 C489 C 0.21635 0.51159 0.12454
 C490 C 0.20486 0.51846 0.14221
 N491 N 0.19772 0.50198 0.15372
 C492 C 0.20203 0.53966 0.14781
 C493 C 0.18758 0.54669 0.16384
 C494 C 0.18641 0.56709 0.17113
 C495 C 0.16960 0.56784 0.18559
 C496 C 0.16109 0.54781 0.18697
 N497 N 0.17198 0.53511 0.17345
 C498 C 0.14299 0.54201 0.19966
 H499 H 0.10711 0.52490 0.22341
 H500 H 0.10876 0.48409 0.22666
 H501 H 0.16745 0.52005 0.16931
 H502 H 0.16884 0.42754 0.20473
 H503 H 0.19861 0.42610 0.17444
 H504 H 0.22350 0.47992 0.11365
 H505 H 0.22413 0.52100 0.11241
 H506 H 0.16425 0.58163 0.19402
 H507 H 0.16735 0.48507 0.17115
 H508 H 0.19644 0.58019 0.16632
 C509 C 0.77054 0.51251 0.13764
 C510 C 0.77027 0.49121 0.13564
 C511 C 0.78947 0.48398 0.14464
 N512 N 0.80138 0.50015 0.15217
 C513 C 0.78981 0.51760 0.14797
 C514 C 0.79651 0.46298 0.14421
 C515 C 0.81442 0.45567 0.15631
 C516 C 0.82426 0.43636 0.15373
 C517 C 0.84011 0.43482 0.16918
 C518 C 0.83969 0.45334 0.18060
 N519 N 0.82386 0.46586 0.17280
 C520 C 0.85289 0.45779 0.19849
 C521 C 0.85584 0.47808 0.20680
 C522 C 0.86716 0.48271 0.22533
 C523 C 0.86798 0.50405 0.22677
 C524 C 0.85728 0.51178 0.20899
 N525 N 0.84989 0.49587 0.19680
 C526 C 0.85591 0.53316 0.20349
 C527 C 0.84221 0.54069 0.18705
 C528 C 0.84320 0.56062 0.17846
 C529 C 0.82656 0.56208 0.16383
 C530 C 0.81600 0.54293 0.16374
 N531 N 0.82549 0.53006 0.17806
 C532 C 0.79736 0.53815 0.15144
 H533 H 0.75812 0.52305 0.13182
 H534 H 0.75752 0.48211 0.12812
 H535 H 0.81944 0.51569 0.18300
 H536 H 0.82038 0.42451 0.14203
 H537 H 0.85070 0.42157 0.17170
 H538 H 0.87437 0.47186 0.23650
 H539 H 0.87581 0.51286 0.23936
 H540 H 0.82267 0.57570 0.15439
 H541 H 0.81833 0.47956 0.17981
 H542 H 0.85464 0.57291 0.18238
 C543 C 0.20661 0.49487 0.88522
 C544 C 0.20600 0.51623 0.88383
 C545 C 0.19547 0.52095 0.86488
 N546 N 0.18976 0.50322 0.85462
 C547 C 0.19645 0.48725 0.86708
 C548 C 0.19252 0.54136 0.85685
 C549 C 0.18007 0.54608 0.83853
 C550 C 0.18028 0.56518 0.82814
 C551 C 0.16548 0.56379 0.81174
 C552 C 0.15659 0.54388 0.81258
 N553 N 0.16544 0.53326 0.82907
 C554 C 0.14001 0.53645 0.79885
 C555 C 0.13399 0.51520 0.79724
 C556 C 0.11633 0.50781 0.78569
 C557 C 0.11683 0.48647 0.78717
 C558 C 0.13478 0.48151 0.79960
 N559 N 0.14531 0.49909 0.80564
 C560 C 0.14181 0.46098 0.80406
 C561 C 0.15876 0.45614 0.81848
 C562 C 0.16862 0.43675 0.82014
 C563 C 0.18353 0.43814 0.83644
 C564 C 0.18237 0.45834 0.84431
 N565 N 0.16710 0.46915 0.83338
 C566 C 0.19459 0.46589 0.86181
 H567 H 0.21385 0.48598 0.89806
 H568 H 0.21270 0.52703 0.89537
 H569 H 0.16105 0.48376 0.83736
 H570 H 0.19006 0.57875 0.83199
 H571 H 0.16165 0.57607 0.80051
 H572 H 0.10437 0.51684 0.77700
 H573 H 0.10536 0.47581 0.77983
 H574 H 0.19400 0.42565 0.84192
 H575 H 0.16014 0.51898 0.83491
 H576 H 0.16538 0.42299 0.81063
 C577 C 0.30752 0.38185 0.05558
 C578 C 0.29711 0.39409 0.07089
 C579 C 0.27711 0.38786 0.07967
 C580 C 0.26803 0.36863 0.07324
 C581 C 0.27842 0.35641 0.05782
 C582 C 0.29817 0.36298 0.04868
 C583 C 0.26647 0.40197 0.09530
 C584 C 0.24532 0.40091 0.10068
 C585 C 0.23445 0.41643 0.11467
 C586 C 0.21169 0.41847 0.11341
 C587 C 0.20084 0.43363 0.12537
 C588 C 0.21258 0.44697 0.13885
 C589 C 0.23518 0.44455 0.14081
 C590 C 0.24605 0.42933 0.12895
 H591 H 0.32276 0.38735 0.04893
 H592 H 0.30460 0.40870 0.07564
 H593 H 0.25304 0.36282 0.08005
 H594 H 0.27093 0.34183 0.05301
 H595 H 0.27632 0.41467 0.10134
 H596 H 0.23498 0.38926 0.09337
 H597 H 0.20231 0.40863 0.10276
 H598 H 0.18334 0.43527 0.12379
 H599 H 0.24439 0.45461 0.15139
 H600 H 0.26345 0.42779 0.13110
 C601 C 0.73483 0.64941 0.04733
 C602 C 0.74779 0.63879 0.06209
 C603 C 0.73964 0.62134 0.07300
 C604 C 0.71821 0.61464 0.06880
 C605 C 0.70531 0.62513 0.05391
 C606 C 0.71352 0.64255 0.04291
 C607 C 0.75437 0.60957 0.08730
 C608 C 0.74720 0.59791 0.10359
 C609 C 0.76162 0.58433 0.11647
 C610 C 0.75506 0.57858 0.13708
 C611 C 0.76724 0.56424 0.14891
 C612 C 0.78601 0.55526 0.14016
 C613 C 0.79284 0.56116 0.11975
 C614 C 0.78079 0.57559 0.10797
 H615 H 0.74168 0.66270 0.03904
 H616 H 0.76432 0.64412 0.06487
 H617 H 0.71158 0.60087 0.07642
 H618 H 0.68900 0.61941 0.05079
 H619 H 0.77170 0.61083 0.08436
 H620 H 0.73011 0.59833 0.10785
 H621 H 0.74026 0.58491 0.14388
 H622 H 0.76166 0.55960 0.16458
 H623 H 0.80714 0.55406 0.11270
 H624 H 0.78601 0.57911 0.09191
 C625 C 0.70685 0.37669 0.95278
 C626 C 0.71957 0.38959 0.93992
 C627 C 0.73820 0.38182 0.92978
 C628 C 0.74395 0.36077 0.93277
 C629 C 0.73135 0.34787 0.94597
 C630 C 0.71270 0.35575 0.95617
 C631 C 0.75170 0.39651 0.91728
 C632 C 0.76379 0.39094 0.90046
 C633 C 0.77585 0.40667 0.88780
 C634 C 0.77697 0.40462 0.86557
 C635 C 0.78671 0.42024 0.85321
 C636 C 0.79580 0.43796 0.86298
 C637 C 0.79573 0.43945 0.88528
 C638 C 0.78579 0.42400 0.89759
 H639 H 0.69268 0.38331 0.96051
 H640 H 0.71487 0.40577 0.93795
 H641 H 0.75850 0.35443 0.92551
 H642 H 0.73632 0.33183 0.94837
 H643 H 0.75046 0.41291 0.92135
 H644 H 0.76340 0.37498 0.89478
 H645 H 0.76962 0.39129 0.85772
 H646 H 0.78675 0.41877 0.83602
 H647 H 0.80298 0.45284 0.89311
 H648 H 0.78578 0.42568 0.91475
 C649 C 0.30138 0.62260 0.94863
 C650 C 0.29014 0.61050 0.93376
 C651 C 0.27037 0.61743 0.92506
 C652 C 0.26235 0.63714 0.93115
 C653 C 0.27363 0.64927 0.94610
 C654 C 0.29318 0.64204 0.95512
 C655 C 0.25895 0.60351 0.90978
 C656 C 0.23776 0.60508 0.90472
 C657 C 0.22635 0.58959 0.89109
 C658 C 0.20371 0.58711 0.89335
 C659 C 0.19258 0.57174 0.88184
 C660 C 0.20394 0.55867 0.86784
 C661 C 0.22635 0.56157 0.86486
 C662 C 0.23747 0.57700 0.87624
 H663 H 0.31645 0.61658 0.95518
 H664 H 0.29681 0.59548 0.92926
 H665 H 0.24753 0.64338 0.92438
 H666 H 0.26701 0.66428 0.95064
 H667 H 0.26823 0.59045 0.90373
 H668 H 0.22787 0.61701 0.91211
 H669 H 0.19471 0.59672 0.90447
 H670 H 0.17522 0.56970 0.88419
 H671 H 0.23523 0.55171 0.85387
 H672 H 0.25472 0.57894 0.87332
 C673 C 0.05227 0.30658 0.37964
 C674 C 0.06732 0.29558 0.39196
 C675 C 0.07535 0.27620 0.38514
 C676 C 0.06855 0.26839 0.36523
 C677 C 0.05341 0.27939 0.35291
 C678 C 0.04492 0.29849 0.36010
 C679 C 0.09066 0.26486 0.39934
 C680 C 0.09454 0.24428 0.39806
 C681 C 0.10842 0.23273 0.41346
 C682 C 0.10590 0.21097 0.41504
 C683 C 0.11804 0.19951 0.42979
 C684 C 0.13296 0.20960 0.44321
 C685 C 0.13601 0.23121 0.44137
 C686 C 0.12398 0.24269 0.42654
 H687 H 0.04613 0.32129 0.38562
 H688 H 0.07241 0.30210 0.40710
 H689 H 0.07487 0.25390 0.35897
 H690 H 0.04825 0.27285 0.33781
 H691 H 0.09769 0.27374 0.41229
 H692 H 0.08610 0.23505 0.38621
 H693 H 0.09423 0.20286 0.40505
 H694 H 0.11561 0.18280 0.43097
 H695 H 0.14772 0.23915 0.45147
 H696 H 0.12712 0.25925 0.42537
 C697 C 0.04879 0.72803 0.65256
 C698 C 0.06345 0.74052 0.64121
 C699 C 0.07089 0.73442 0.62099
 C700 C 0.06330 0.71545 0.61237
 C701 C 0.04873 0.70294 0.62376
 C702 C 0.04117 0.70915 0.64390
 C703 C 0.08539 0.74881 0.60897
 C704 C 0.09764 0.74281 0.59235
 C705 C 0.11095 0.75722 0.57910
 C706 C 0.12607 0.74852 0.56484
 C707 C 0.13797 0.76122 0.55098
 C708 C 0.13498 0.78289 0.55111
 C709 C 0.12019 0.79177 0.56546
 C710 C 0.10816 0.77908 0.57928
 H711 H 0.04322 0.73330 0.66802
 H712 H 0.06885 0.75511 0.64817
 H713 H 0.06792 0.71042 0.59658
 H714 H 0.04299 0.68860 0.61652
 H715 H 0.08607 0.76481 0.61440
 H716 H 0.09830 0.72645 0.58817
 H717 H 0.12847 0.73179 0.56421
 H718 H 0.14931 0.75414 0.53992
 H719 H 0.11759 0.80849 0.56558
 H720 H 0.09635 0.78651 0.58951
 C721 C 0.94757 0.69515 0.38229
 C722 C 0.93242 0.70536 0.39519
 C723 C 0.92237 0.72386 0.38837
 C724 C 0.92743 0.73165 0.36797
 C725 C 0.94268 0.72147 0.35509
 C726 C 0.95303 0.70318 0.36217
 C727 C 0.90672 0.73423 0.40301
 C728 C 0.90025 0.75416 0.40108
 C729 C 0.88574 0.76476 0.41663
 C730 C 0.88567 0.78669 0.41727
 C731 C 0.87287 0.79736 0.43209
 C732 C 0.85982 0.78628 0.44651
 C733 C 0.85929 0.76443 0.44560
 C734 C 0.87202 0.75373 0.43072
 H735 H 0.95519 0.68106 0.38822
 H736 H 0.92874 0.69887 0.41072
 H737 H 0.91960 0.74544 0.36170
 H738 H 0.94636 0.72793 0.33956
 H739 H 0.90147 0.72525 0.41666
 H740 H 0.90684 0.76371 0.38844
 H741 H 0.89587 0.79560 0.40650
 H742 H 0.87336 0.81426 0.43256
 H743 H 0.84908 0.75569 0.45649
 H744 H 0.87087 0.73690 0.43030
 C745 C 0.95781 0.30022 0.61323
 C746 C 0.94407 0.28825 0.60038
 C747 C 0.93370 0.27045 0.60853
 C748 C 0.93739 0.26475 0.62988
 C749 C 0.95140 0.27661 0.64270
 C750 C 0.96182 0.29442 0.63446
 C751 C 0.92033 0.25764 0.59391
 C752 C 0.90348 0.24584 0.60023
 C753 C 0.89041 0.23358 0.58484
 C754 C 0.86790 0.23127 0.58803
 C755 C 0.85514 0.22056 0.57310
 C756 C 0.86481 0.21168 0.55497
 C757 C 0.88744 0.21328 0.55225
 C758 C 0.90013 0.22415 0.56699
 H759 H 0.96568 0.31377 0.60635
 H760 H 0.94160 0.29286 0.58395
 H761 H 0.93003 0.25083 0.63650
 H762 H 0.95426 0.27172 0.65898
 H763 H 0.92391 0.25885 0.57705
 H764 H 0.89826 0.24618 0.61670
 H765 H 0.86012 0.23822 0.60178
 H766 H 0.83770 0.21940 0.57551
 H767 H 0.89524 0.20622 0.53855
 H768 H 0.91756 0.22507 0.56446
 C769 C 0.38449 0.04901 0.30353
 C770 C 0.39637 0.06460 0.29315
 C771 C 0.38800 0.07452 0.27496
 C772 C 0.36714 0.06875 0.26760
 C773 C 0.35529 0.05308 0.27795
 C774 C 0.36387 0.04298 0.29597
 C775 C 0.40154 0.09079 0.26445
 C776 C 0.39830 0.09772 0.24450
 C777 C 0.41323 0.11265 0.23378
 C778 C 0.41442 0.11253 0.21143
 C779 C 0.42944 0.12521 0.20078
 C780 C 0.44341 0.13833 0.21233
 C781 C 0.44155 0.13933 0.23456
 C782 C 0.42652 0.12669 0.24523
 H783 H 0.39155 0.04160 0.31742
 H784 H 0.41230 0.06880 0.29928
 H785 H 0.35971 0.07637 0.25407
 H786 H 0.33933 0.04895 0.27187
 H787 H 0.41565 0.09621 0.27322
 H788 H 0.38538 0.09111 0.23491
 H789 H 0.40420 0.10208 0.20221
 H790 H 0.43067 0.12432 0.18359
 H791 H 0.45210 0.14957 0.24366
 H792 H 0.42550 0.12792 0.26238
 C793 C 0.61229 0.04512 0.70214
 C794 C 0.59885 0.05764 0.71474
 C795 C 0.60743 0.06879 0.73208
 C796 C 0.62983 0.06722 0.73657
 C797 C 0.64325 0.05446 0.72412
 C798 C 0.63458 0.04315 0.70686
 C799 C 0.59230 0.08070 0.74585
 C800 C 0.59819 0.09750 0.75724
 C801 C 0.58244 0.10899 0.77070
 C802 C 0.58405 0.13078 0.77245
 C803 C 0.56866 0.14203 0.78423
 C804 C 0.55167 0.13158 0.79478
 C805 C 0.55072 0.10970 0.79391
 C806 C 0.56586 0.09851 0.78189
 H807 H 0.60506 0.03651 0.68907
 H808 H 0.58163 0.05849 0.71104
 H809 H 0.63690 0.07521 0.75011
 H810 H 0.66034 0.05319 0.72821
 H811 H 0.57536 0.07588 0.74585
 H812 H 0.61450 0.10381 0.75568
 H813 H 0.59685 0.13916 0.76418
 H814 H 0.56975 0.15889 0.78481
 H815 H 0.53796 0.10133 0.80225
 H816 H 0.56462 0.08165 0.78142
 C817 C 0.34483 0.94097 0.72308
 C818 C 0.35666 0.92640 0.73494
 C819 C 0.37948 0.92728 0.73550
 C820 C 0.39036 0.94252 0.72337
 C821 C 0.37855 0.95674 0.71105
 C822 C 0.35567 0.95625 0.71099
 C823 C 0.39167 0.91196 0.74842
 C824 C 0.40906 0.91749 0.76002
 C825 C 0.42162 0.90248 0.77301
 C826 C 0.43117 0.90930 0.79210
 C827 C 0.44437 0.89591 0.80400
 C828 C 0.44872 0.87565 0.79667
 C829 C 0.43907 0.86870 0.77767
 C830 C 0.42545 0.88195 0.76600
 H831 H 0.32719 0.94017 0.72316
 H832 H 0.34799 0.91466 0.74404
 H833 H 0.40800 0.94325 0.72321
 H834 H 0.38729 0.96836 0.70187
 H835 H 0.38544 0.89615 0.74935
 H836 H 0.41378 0.93379 0.76076
 H837 H 0.42854 0.92509 0.79770
 H838 H 0.45184 0.90154 0.81855
 H839 H 0.44250 0.85320 0.77168
 H840 H 0.41868 0.87642 0.75109
 C841 C 0.62267 0.96486 0.28239
 C842 C 0.61005 0.95323 0.26819
 C843 C 0.61993 0.93934 0.25394
 C844 C 0.64277 0.93756 0.25377
 C845 C 0.65548 0.94965 0.26764
 C846 C 0.64549 0.96329 0.28216
 C847 C 0.60599 0.92746 0.23909
 C848 C 0.60964 0.90743 0.23423
 C849 C 0.59404 0.89536 0.22118
 C850 C 0.58869 0.87489 0.22718
 C851 C 0.57277 0.86374 0.21598
 C852 C 0.56249 0.87271 0.19823
 C853 C 0.56846 0.89285 0.19168
 C854 C 0.58401 0.90417 0.20316
 H855 H 0.61458 0.97544 0.29327
 H856 H 0.59249 0.95492 0.26847
 H857 H 0.65078 0.92718 0.24265
 H858 H 0.67306 0.94825 0.26712
 H859 H 0.59116 0.93488 0.23357
 H860 H 0.62309 0.89923 0.24164
 H861 H 0.59630 0.86782 0.24098
 H862 H 0.56831 0.84821 0.22121
 H863 H 0.56072 0.89992 0.17796
 H864 H 0.58816 0.91980 0.19800
 C865 C 0.37336 0.30700 0.94634
 C866 C 0.38440 0.29532 0.93099
 C867 C 0.37759 0.27500 0.92594
 C868 C 0.35887 0.26687 0.93591
 C869 C 0.34768 0.27865 0.95114
 C870 C 0.35500 0.29872 0.95674
 C871 C 0.39045 0.26284 0.91032
 C872 C 0.39210 0.24198 0.91100
 C873 C 0.40705 0.23011 0.89701
 C874 C 0.41614 0.21146 0.90467
 C875 C 0.43126 0.20043 0.89245
 C876 C 0.43723 0.20770 0.87222
 C877 C 0.42764 0.22589 0.86415
 C878 C 0.41265 0.23705 0.87643
 H879 H 0.37931 0.32247 0.95017
 H880 H 0.39864 0.30200 0.92339
 H881 H 0.35279 0.25150 0.93193
 H882 H 0.33350 0.27190 0.95877
 H883 H 0.40045 0.27156 0.89923
 H884 H 0.38384 0.23342 0.92350
 H885 H 0.41197 0.20572 0.92038
 H886 H 0.43855 0.18638 0.89885
 H887 H 0.43206 0.23160 0.84849
 H888 H 0.40547 0.25102 0.86978
 C889 C 0.62266 0.69012 0.94830
 C890 C 0.60934 0.70103 0.93410
 C891 C 0.61646 0.71980 0.92489
 C892 C 0.63766 0.72697 0.92947
 C893 C 0.65096 0.71610 0.94373
 C894 C 0.64349 0.69771 0.95354
 C895 C 0.60127 0.73135 0.91076
 C896 C 0.60288 0.75192 0.90696
 C897 C 0.58680 0.76397 0.89428
 C898 C 0.58623 0.78576 0.89677
 C899 C 0.57109 0.79779 0.88559
 C900 C 0.55627 0.78824 0.87166
 C901 C 0.55701 0.76656 0.86872
 C902 C 0.57221 0.75450 0.87983
 H903 H 0.61645 0.67595 0.95550
 H904 H 0.59320 0.69501 0.93067
 H905 H 0.64414 0.74091 0.92209
 H906 H 0.66704 0.72221 0.94722
 H907 H 0.58742 0.72274 0.90468
 H908 H 0.61571 0.76079 0.91460
 H909 H 0.59737 0.79349 0.90761
 H910 H 0.57077 0.81454 0.88793
 H911 H 0.54581 0.75903 0.85779
 H912 H 0.57252 0.73789 0.87683
 C913 C 0.37687 0.69767 0.05099
 C914 C 0.38956 0.70920 0.06521
 C915 C 0.38316 0.72925 0.07161
 C916 C 0.36323 0.73725 0.06403
 C917 C 0.35050 0.72568 0.04975
 C918 C 0.35733 0.70586 0.04288
 C919 C 0.39784 0.74104 0.08606
 C920 C 0.39745 0.76187 0.08836
 C921 C 0.41375 0.77356 0.10119
 C922 C 0.41721 0.79480 0.09668
 C923 C 0.43314 0.80616 0.10763
 C924 C 0.44582 0.79646 0.12331
 C925 C 0.44205 0.77548 0.12838
 C926 C 0.42604 0.76413 0.11755
 H927 H 0.38258 0.68241 0.04613
 H928 H 0.40470 0.70255 0.07093
 H929 H 0.35730 0.75234 0.06909
 H930 H 0.33541 0.73233 0.04394
 H931 H 0.41058 0.73216 0.09377
 H932 H 0.38593 0.77100 0.07925
 H933 H 0.40786 0.80251 0.08434
 H934 H 0.43584 0.82242 0.10367
 H935 H 0.45158 0.76791 0.14068
 H936 H 0.42336 0.74808 0.12217
 C937 C 0.62468 0.30000 0.04781
 C938 C 0.61233 0.28958 0.06313
 C939 C 0.61991 0.27107 0.07246
 C940 C 0.64046 0.26334 0.06632
 C941 C 0.65284 0.27380 0.05089
 C942 C 0.64505 0.29222 0.04144
 C943 C 0.60582 0.26077 0.08857
 C944 C 0.60821 0.24102 0.09533
 C945 C 0.59257 0.23088 0.11011
 C946 C 0.59026 0.20906 0.10953
 C947 C 0.57464 0.19907 0.12216
 C948 C 0.56115 0.21075 0.13563
 C949 C 0.56401 0.23241 0.13700
 C950 C 0.57968 0.24240 0.12448
 H951 H 0.61817 0.31418 0.04092
 H952 H 0.59665 0.29598 0.06759
 H953 H 0.64723 0.24944 0.07346
 H954 H 0.66857 0.26751 0.04645
 H955 H 0.59193 0.26966 0.09406
 H956 H 0.62090 0.23134 0.08866
 H957 H 0.60015 0.19979 0.09883
 H958 H 0.57267 0.18230 0.12104
 H959 H 0.55388 0.24158 0.14757
 H960 H 0.58155 0.25911 0.12611
 C961 C 0.26868 0.04719 0.65320
 C962 C 0.25630 0.06119 0.64115
 C963 C 0.26335 0.06771 0.62094
 C964 C 0.28311 0.05973 0.61295
 C965 C 0.29553 0.04580 0.62503
 C966 C 0.28842 0.03930 0.64525
 C967 C 0.24914 0.08187 0.60837
 C968 C 0.25621 0.09329 0.59181
 C969 C 0.24199 0.10660 0.57829
 C970 C 0.25196 0.12065 0.56411
 C971 C 0.23946 0.13257 0.55005
 C972 C 0.21672 0.13069 0.54990
 C973 C 0.20657 0.11700 0.56420
 C974 C 0.21905 0.10495 0.57822
 H975 H 0.26270 0.04246 0.66869
 H976 H 0.24108 0.06690 0.64764
 H977 H 0.28885 0.06369 0.59719
 H978 H 0.31054 0.03983 0.61835
 H979 H 0.23237 0.08314 0.61346
 H980 H 0.27338 0.09326 0.58795
 H981 H 0.26954 0.12219 0.56368
 H982 H 0.24753 0.14304 0.53902
 H983 H 0.18900 0.11525 0.56409
 H984 H 0.21059 0.09402 0.58838
 C985 C 0.70238 0.04137 0.37892
 C986 C 0.71392 0.05403 0.39310
 C987 C 0.73366 0.06326 0.38704
 C988 C 0.74192 0.05937 0.36654
 C989 C 0.73058 0.04637 0.35241
 C990 C 0.71061 0.03719 0.35841
 C991 C 0.74558 0.07607 0.40281
 C992 C 0.75789 0.09255 0.39749
 C993 C 0.76883 0.10559 0.41376
 C994 C 0.77076 0.12717 0.41044
 C995 C 0.78041 0.13990 0.42592
 C996 C 0.78872 0.13116 0.44477
 C997 C 0.78741 0.10948 0.44778
 C998 C 0.77748 0.09681 0.43248
 H999 H 0.68715 0.03460 0.38427
 H1000 H 0.70732 0.05671 0.40887
 H1001 H 0.75738 0.06592 0.36159
 H1002 H 0.73753 0.04352 0.33682
 H1003 H 0.74293 0.07257 0.41950
 H1004 H 0.75874 0.09751 0.38102
 H1005 H 0.76436 0.13423 0.39606
 H1006 H 0.78133 0.15659 0.42327
 H1007 H 0.79405 0.10240 0.46204
 H1008 H 0.77681 0.08014 0.43520
 C1009 C 0.72509 0.95282 0.65307
 C1010 C 0.73761 0.93821 0.64196
 C1011 C 0.73039 0.93011 0.62239
 C1012 C 0.71041 0.93717 0.61403
 C1013 C 0.69789 0.95174 0.62516
 C1014 C 0.70510 0.95978 0.64478
 C1015 C 0.74464 0.91529 0.61071
 C1016 C 0.73728 0.90219 0.59562
 C1017 C 0.75137 0.88828 0.58263
 C1018 C 0.74128 0.87293 0.57000
 C1019 C 0.75352 0.86056 0.55615
 C1020 C 0.77613 0.86328 0.55468
 C1021 C 0.78644 0.87817 0.56758
 C1022 C 0.77420 0.89066 0.58138
 H1023 H 0.73116 0.95875 0.66811
 H1024 H 0.75302 0.93323 0.64866
 H1025 H 0.70457 0.93197 0.59867
 H1026 H 0.68267 0.95693 0.61822
 H1027 H 0.76164 0.91504 0.61521
 H1028 H 0.71994 0.90134 0.59257
 H1029 H 0.72377 0.87079 0.57051
 H1030 H 0.74533 0.84917 0.54619
 H1031 H 0.80388 0.88057 0.56643
 H1032 H 0.78271 0.90253 0.59035
 C1033 C 0.27687 0.94735 0.34620
 C1034 C 0.26395 0.93319 0.35752
 C1035 C 0.27002 0.92656 0.37800
 C1036 C 0.28942 0.93448 0.38695
 C1037 C 0.30238 0.94858 0.37559
 C1038 C 0.29618 0.95530 0.35516
 C1039 C 0.25511 0.91245 0.38988
 C1040 C 0.26129 0.90103 0.40678
 C1041 C 0.24627 0.88793 0.41971
 C1042 C 0.25538 0.87356 0.43408
 C1043 C 0.24210 0.86187 0.44766
 C1044 C 0.21942 0.86434 0.44717
 C1045 C 0.21013 0.87838 0.43267
 C1046 C 0.22340 0.89018 0.41911
 H1047 H 0.27159 0.95225 0.33052
 H1048 H 0.24903 0.92751 0.35030
 H1049 H 0.29442 0.93042 0.40293
 H1050 H 0.31703 0.95458 0.38305
 H1051 H 0.23857 0.91127 0.38406
 H1052 H 0.27827 0.90090 0.41139
 H1053 H 0.27288 0.87158 0.43502
 H1054 H 0.24951 0.85114 0.45885
 H1055 H 0.19264 0.88060 0.43228
 H1056 H 0.21562 0.90141 0.40878
 C1057 C 0.05544 0.37834 0.69274
 C1058 C 0.06993 0.39060 0.70445
 C1059 C 0.07774 0.38386 0.72429
 C1060 C 0.07122 0.36413 0.73192
 C1061 C 0.05665 0.35182 0.72017
 C1062 C 0.04845 0.35890 0.70055
 C1063 C 0.09254 0.39796 0.73625
 C1064 C 0.09614 0.39671 0.75730
 C1065 C 0.10918 0.41240 0.76918
 C1066 C 0.10524 0.41511 0.79105
 C1067 C 0.11618 0.43063 0.80253
 C1068 C 0.13129 0.44361 0.79231
 C1069 C 0.13594 0.44049 0.77070
 C1070 C 0.12512 0.42492 0.75924
 H1071 H 0.04953 0.38423 0.67764
 H1072 H 0.07480 0.40562 0.69809
 H1073 H 0.07736 0.35802 0.74681
 H1074 H 0.05173 0.33681 0.72651
 H1075 H 0.09935 0.41091 0.72741
 H1076 H 0.08786 0.38490 0.76659
 H1077 H 0.09326 0.40555 0.79916
 H1078 H 0.11254 0.43282 0.81927
 H1079 H 0.14781 0.45026 0.76271
 H1080 H 0.12934 0.42281 0.74266
 C1081 C 0.05715 0.65873 0.27935
 C1082 C 0.07275 0.64837 0.26701
 C1083 C 0.07367 0.62650 0.26690
 C1084 C 0.05925 0.61513 0.27986
 C1085 C 0.04407 0.62548 0.29260
 C1086 C 0.04273 0.64735 0.29231
 C1087 C 0.09003 0.61567 0.25368
 C1088 C 0.08495 0.59846 0.24263
 C1089 C 0.10105 0.58631 0.23034
 C1090 C 0.09415 0.57570 0.21198
 C1091 C 0.10829 0.56222 0.20130
 C1092 C 0.12936 0.55871 0.20917
 C1093 C 0.13650 0.56960 0.22728
 C1094 C 0.12251 0.58346 0.23771
 H1095 H 0.05652 0.67562 0.27898
 H1096 H 0.08386 0.65740 0.25726
 H1097 H 0.05994 0.59825 0.28038
 H1098 H 0.03314 0.61634 0.30244
 H1099 H 0.10622 0.62236 0.25247
 H1100 H 0.06815 0.59318 0.24226
 H1101 H 0.07765 0.57753 0.20615
 H1102 H 0.10249 0.55378 0.18745
 H1103 H 0.15263 0.56683 0.23370
 H1104 H 0.12810 0.59109 0.25210
 C1105 C 0.94125 0.37421 0.30619
 C1106 C 0.92560 0.38541 0.29480
 C1107 C 0.92037 0.37991 0.27377
 C1108 C 0.93050 0.36238 0.26461
 C1109 C 0.94603 0.35104 0.27609
 C1110 C 0.95180 0.35702 0.29691
 C1111 C 0.90440 0.39283 0.26200
 C1112 C 0.90495 0.39536 0.24079
 C1113 C 0.89062 0.41028 0.22947
 C1114 C 0.89838 0.41999 0.21091
 C1115 C 0.88591 0.43515 0.20056
 C1116 C 0.86531 0.44053 0.20841
 C1117 C 0.85707 0.43031 0.22643
 C1118 C 0.86961 0.41527 0.23690
 H1119 H 0.94520 0.37912 0.32225
 H1120 H 0.91788 0.39872 0.30228
 H1121 H 0.92639 0.35733 0.24865
 H1122 H 0.95377 0.33778 0.26855
 H1123 H 0.89315 0.40203 0.27138
 H1124 H 0.91764 0.38784 0.23162
 H1125 H 0.91442 0.41630 0.20478
 H1126 H 0.89244 0.44296 0.18665
 H1127 H 0.84113 0.43430 0.23259
 H1128 H 0.86285 0.40763 0.25079
 C1129 C 0.94153 0.62480 0.69197
 C1130 C 0.92600 0.61253 0.70238
 C1131 C 0.91896 0.61769 0.72296
 C1132 C 0.92713 0.63591 0.73265
 C1133 C 0.94256 0.64828 0.72217
 C1134 C 0.95014 0.64271 0.70183
 C1135 C 0.90322 0.60370 0.73377
 C1136 C 0.90243 0.60146 0.75499
 C1137 C 0.88847 0.58574 0.76565
 C1138 C 0.89547 0.57727 0.78511
 C1139 C 0.88337 0.56163 0.79514
 C1140 C 0.86388 0.55447 0.78605
 C1141 C 0.85637 0.56337 0.76702
 C1142 C 0.86857 0.57891 0.75686
 H1143 H 0.94689 0.62016 0.67623
 H1144 H 0.91981 0.59869 0.69450
 H1145 H 0.92156 0.64074 0.74824
 H1146 H 0.94874 0.66209 0.73012
 H1147 H 0.89340 0.59360 0.72378
 H1148 H 0.91382 0.61002 0.76489
 H1149 H 0.91063 0.58239 0.79228
 H1150 H 0.88931 0.55490 0.80987
 H1151 H 0.84126 0.55803 0.75992
 H1152 H 0.86236 0.58554 0.74221
 C1153 C 0.73136 0.64528 0.94842
 C1154 C 0.74375 0.63311 0.93448
 C1155 C 0.73614 0.61359 0.92759
 C1156 C 0.71589 0.60635 0.93503
 C1157 C 0.70357 0.61840 0.94912
 C1158 C 0.71117 0.63800 0.95614
 C1159 C 0.75025 0.60064 0.91379
 C1160 C 0.74242 0.58628 0.90023
 C1161 C 0.75664 0.57264 0.88727
 C1162 C 0.74885 0.56493 0.86775
 C1163 C 0.76160 0.55144 0.85548
 C1164 C 0.78218 0.54520 0.86276
 C1165 C 0.78995 0.55265 0.88234
 C1166 C 0.77732 0.56630 0.89451
 H1167 H 0.73786 0.66023 0.95343
 H1168 H 0.75939 0.63893 0.92910
 H1169 H 0.70978 0.59112 0.93055
 H1170 H 0.68819 0.61215 0.95470
 H1171 H 0.76764 0.60352 0.91444
 H1172 H 0.72499 0.58486 0.89794
 H1173 H 0.73289 0.56940 0.86197
 H1174 H 0.75537 0.54567 0.84044
 H1175 H 0.80573 0.54775 0.88823
 H1176 H 0.78355 0.57139 0.90978
 C1177 C 0.30558 0.38471 0.95509
 C1178 C 0.29443 0.39783 0.94105
 C1179 C 0.27379 0.39233 0.93319
 C1180 C 0.26476 0.37300 0.93926
 C1181 C 0.27584 0.35990 0.95340
 C1182 C 0.29635 0.36563 0.96166
 C1183 C 0.26259 0.40708 0.91857
 C1184 C 0.24114 0.40648 0.91428
 C1185 C 0.22979 0.42179 0.90037
 C1186 C 0.20696 0.42313 0.90158
 C1187 C 0.19552 0.43738 0.88899
 C1188 C 0.20671 0.45056 0.87494
 C1189 C 0.22943 0.44912 0.87335
 C1190 C 0.24090 0.43478 0.88583
 H1191 H 0.32136 0.38972 0.96093
 H1192 H 0.30191 0.41250 0.93650
 H1193 H 0.24927 0.36772 0.93305
 H1194 H 0.26826 0.34525 0.95782
 H1195 H 0.27242 0.41957 0.91209
 H1196 H 0.23100 0.39499 0.92210
 H1197 H 0.19794 0.41322 0.91244
 H1198 H 0.17794 0.43826 0.89029
 H1199 H 0.23824 0.45905 0.86235
 H1200 H 0.25835 0.43386 0.88373
 C1201 C 0.27032 0.65355 0.04930
 C1202 C 0.25749 0.64243 0.06378
 C1203 C 0.26431 0.62299 0.07160
 C1204 C 0.28434 0.61485 0.06453
 C1205 C 0.29723 0.62598 0.05010
 C1206 C 0.29033 0.64543 0.04211
 C1207 C 0.24955 0.61123 0.08601
 C1208 C 0.25625 0.59569 0.09876
 C1209 C 0.24149 0.58279 0.11213
 C1210 C 0.25077 0.57017 0.12803
 C1211 C 0.23785 0.55659 0.14000
 C1212 C 0.21536 0.55536 0.13630
 C1213 C 0.20587 0.56811 0.12074
 C1214 C 0.21879 0.58166 0.10866
 H1215 H 0.26436 0.66844 0.04357
 H1216 H 0.24206 0.64899 0.06880
 H1217 H 0.28994 0.59964 0.06954
 H1218 H 0.31242 0.61907 0.04490
 H1219 H 0.23265 0.61599 0.08626
 H1220 H 0.27347 0.59226 0.09983
 H1221 H 0.26817 0.57057 0.13096
 H1222 H 0.24541 0.54672 0.15190
 H1223 H 0.18854 0.56712 0.11756
 H1224 H 0.21096 0.59059 0.09623
 C1225 C 0.72842 0.34495 0.05194
 C1226 C 0.73980 0.35645 0.06730
 C1227 C 0.73300 0.37659 0.07286
 C1228 C 0.71404 0.38475 0.06347
 C1229 C 0.70242 0.37315 0.04840
 C1230 C 0.70961 0.35319 0.04216
 C1231 C 0.74580 0.38876 0.08853
 C1232 C 0.74864 0.40941 0.08657
 C1233 C 0.76188 0.42200 0.10153
 C1234 C 0.77255 0.43982 0.09381
 C1235 C 0.78433 0.45270 0.10758
 C1236 C 0.78520 0.44831 0.12947
 C1237 C 0.77465 0.43041 0.13727
 C1238 C 0.76314 0.41728 0.12340
 H1239 H 0.73443 0.32960 0.04776
 H1240 H 0.75425 0.34979 0.07451
 H1241 H 0.70809 0.40005 0.06788
 H1242 H 0.68796 0.38003 0.04144
 H1243 H 0.75426 0.38034 0.10100
 H1244 H 0.74202 0.41732 0.07275
 H1245 H 0.77174 0.44380 0.07705
 H1246 H 0.79245 0.46639 0.10124
 H1247 H 0.77501 0.42684 0.15413
 H1248 H 0.75469 0.40388 0.12990
 C1249 C 0.94618 0.69701 0.61967
 C1250 C 0.93087 0.70758 0.60727
 C1251 C 0.92128 0.72610 0.61456
 C1252 C 0.92700 0.73362 0.63490
 C1253 C 0.94241 0.72309 0.64732
 C1254 C 0.95233 0.70468 0.63983
 C1255 C 0.90535 0.73676 0.60046
 C1256 C 0.89915 0.75673 0.60271
 C1257 C 0.88449 0.76743 0.58739
 C1258 C 0.88541 0.78930 0.58588
 C1259 C 0.87274 0.79991 0.57086
 C1260 C 0.85887 0.78880 0.55719
 C1261 C 0.85724 0.76707 0.55915
 C1262 C 0.86981 0.75645 0.57420
 H1263 H 0.95329 0.68286 0.61329
 H1264 H 0.92666 0.70131 0.59177
 H1265 H 0.91955 0.74746 0.64148
 H1266 H 0.94649 0.72941 0.66283
 H1267 H 0.89965 0.72797 0.58683
 H1268 H 0.90619 0.76619 0.61521
 H1269 H 0.89636 0.79816 0.59598
 H1270 H 0.87409 0.81672 0.56957
 H1271 H 0.84639 0.75834 0.54883
 H1272 H 0.86790 0.73972 0.57541
 C1273 C 0.95149 0.30438 0.38309
 C1274 C 0.93826 0.29249 0.39651
 C1275 C 0.92978 0.27330 0.38970
 C1276 C 0.93475 0.26613 0.36911
 C1277 C 0.94827 0.27786 0.35573
 C1278 C 0.95701 0.29708 0.36261
 C1279 C 0.91707 0.26059 0.40495
 C1280 C 0.90137 0.24722 0.39906
 C1281 C 0.88912 0.23476 0.41486
 C1282 C 0.86687 0.23078 0.41159
 C1283 C 0.85485 0.21966 0.42675
 C1284 C 0.86502 0.21199 0.44520
 C1285 C 0.88747 0.21524 0.44803
 C1286 C 0.89939 0.22662 0.43308
 H1287 H 0.95784 0.31904 0.38906
 H1288 H 0.93473 0.29826 0.41236
 H1289 H 0.92885 0.25116 0.36355
 H1290 H 0.95211 0.27166 0.34013
 H1291 H 0.92021 0.26305 0.42176
 H1292 H 0.89649 0.24624 0.38251
 H1293 H 0.85870 0.23671 0.39754
 H1294 H 0.83757 0.21721 0.42422
 H1295 H 0.89570 0.20910 0.46196
 H1296 H 0.91668 0.22889 0.43570
 C1297 C 0.05747 0.30561 0.61696
 C1298 C 0.07275 0.29469 0.60486
 C1299 C 0.08123 0.27562 0.61203
 C1300 C 0.07466 0.26805 0.63208
 C1301 C 0.05926 0.27891 0.64417
 C1302 C 0.05023 0.29773 0.63666
 C1303 C 0.09669 0.26428 0.59801
 C1304 C 0.10122 0.24386 0.59986
 C1305 C 0.11489 0.23223 0.58439
 C1306 C 0.11243 0.21046 0.58304
 C1307 C 0.12396 0.19899 0.56785
 C1308 C 0.13819 0.20911 0.55380
 C1309 C 0.14139 0.23070 0.55557
 C1310 C 0.12997 0.24219 0.57083
 H1311 H 0.05109 0.32010 0.61062
 H1312 H 0.07768 0.30103 0.58960
 H1313 H 0.08132 0.25383 0.63864
 H1314 H 0.05439 0.27243 0.65939
 H1315 H 0.10322 0.27294 0.58467
 H1316 H 0.09330 0.23474 0.61212
 H1317 H 0.10113 0.20235 0.59341
 H1318 H 0.12140 0.18229 0.56668
 H1319 H 0.15255 0.23866 0.54494
 H1320 H 0.13306 0.25877 0.57185
 C1321 C 0.05127 0.69618 0.37787
 C1322 C 0.06695 0.70690 0.38975
 C1323 C 0.07458 0.72655 0.38323
 C1324 C 0.06644 0.73508 0.36412
 C1325 C 0.05064 0.72440 0.35226
 C1326 C 0.04272 0.70483 0.35902
 C1327 C 0.09090 0.73731 0.39691
 C1328 C 0.09637 0.75755 0.39519
 C1329 C 0.11128 0.76825 0.41036
 C1330 C 0.10968 0.79001 0.41270
 C1331 C 0.12232 0.80053 0.42784
 C1332 C 0.13684 0.78946 0.44081
 C1333 C 0.13926 0.76790 0.43793
 C1334 C 0.12672 0.75737 0.42274
 H1335 H 0.04576 0.68114 0.38366
 H1336 H 0.07299 0.69985 0.40428
 H1337 H 0.07222 0.74987 0.35808
 H1338 H 0.04468 0.73153 0.33773
 H1339 H 0.09764 0.72823 0.40985
 H1340 H 0.08852 0.76722 0.38337
 H1341 H 0.09814 0.79882 0.40323
 H1342 H 0.12034 0.81721 0.42988
 H1343 H 0.15060 0.75920 0.44773
 H1344 H 0.12917 0.74076 0.42087
 C1345 C 0.62173 0.94855 0.69993
 C1346 C 0.61085 0.93314 0.71146
 C1347 C 0.61878 0.92646 0.73128
 C1348 C 0.63832 0.93517 0.73909
 C1349 C 0.64925 0.95064 0.72751
 C1350 C 0.64096 0.95761 0.70788
 C1351 C 0.60604 0.91050 0.74303
 C1352 C 0.60757 0.90724 0.76409
 C1353 C 0.59262 0.89306 0.77572
 C1354 C 0.58832 0.89703 0.79732
 C1355 C 0.57290 0.88514 0.80835
 C1356 C 0.56169 0.86902 0.79796
 C1357 C 0.56659 0.86433 0.77672
 C1358 C 0.58207 0.87613 0.76569
 H1359 H 0.61495 0.95345 0.68481
 H1360 H 0.59595 0.92662 0.70498
 H1361 H 0.64536 0.93003 0.75398
 H1362 H 0.66415 0.95718 0.73394
 H1363 H 0.59358 0.90237 0.73406
 H1364 H 0.61861 0.91663 0.77354
 H1365 H 0.59636 0.90980 0.80547
 H1366 H 0.56925 0.88887 0.82480
 H1367 H 0.55815 0.85177 0.76861
 H1368 H 0.58555 0.87202 0.74934
 C1369 C 0.38392 0.94894 0.30122
 C1370 C 0.39648 0.93487 0.28955
 C1371 C 0.38950 0.92778 0.26953
 C1372 C 0.36921 0.93461 0.26168
 C1373 C 0.35662 0.94876 0.27337
 C1374 C 0.36395 0.95622 0.29318
 C1375 C 0.40392 0.91332 0.25763
 C1376 C 0.40268 0.91008 0.23654
 C1377 C 0.41842 0.89695 0.22462
 C1378 C 0.42079 0.90022 0.20261
 C1379 C 0.43601 0.88879 0.19089
 C1380 C 0.44907 0.87387 0.20100
 C1381 C 0.44641 0.87008 0.22281
 C1382 C 0.43112 0.88140 0.23454
 H1383 H 0.39002 0.95429 0.31647
 H1384 H 0.41192 0.92976 0.29609
 H1385 H 0.36284 0.92903 0.24666
 H1386 H 0.34120 0.95391 0.26685
 H1387 H 0.41706 0.90628 0.26658
 H1388 H 0.39073 0.91848 0.22723
 H1389 H 0.41110 0.91191 0.19452
 H1390 H 0.43783 0.89175 0.17399
 H1391 H 0.45623 0.85837 0.23073
 H1392 H 0.42927 0.87776 0.25125
 C1393 C 0.66046 0.05638 0.27313
 C1394 C 0.64922 0.07143 0.26136
 C1395 C 0.62805 0.07744 0.26714
 C1396 C 0.61841 0.06818 0.28519
 C1397 C 0.62969 0.05320 0.29700
 C1398 C 0.65072 0.04693 0.29095
 C1399 C 0.61607 0.09211 0.25310
 C1400 C 0.59825 0.10264 0.25920
 C1401 C 0.58488 0.11565 0.24465
 C1402 C 0.56985 0.12963 0.25362
 C1403 C 0.55567 0.14099 0.24067
 C1404 C 0.55621 0.13853 0.21850
 C1405 C 0.57138 0.12489 0.20937
 C1406 C 0.58554 0.11344 0.22230
 H1407 H 0.67663 0.05187 0.26802
 H1408 H 0.65697 0.07816 0.24746
 H1409 H 0.60190 0.07178 0.28988
 H1410 H 0.62164 0.04607 0.31052
 H1411 H 0.62243 0.09429 0.23719
 H1412 H 0.59308 0.10193 0.27565
 H1413 H 0.56885 0.13152 0.27074
 H1414 H 0.54396 0.15143 0.24794
 H1415 H 0.57179 0.12268 0.19226
 H1416 H 0.59633 0.10242 0.21469
 C1417 C 0.36654 0.05591 0.70063
 C1418 C 0.37765 0.07121 0.71218
 C1419 C 0.37400 0.07361 0.73408
 C1420 C 0.35826 0.06098 0.74410
 C1421 C 0.34686 0.04585 0.73245
 C1422 C 0.35116 0.04295 0.71066
 C1423 C 0.38697 0.08932 0.74588
 C1424 C 0.39316 0.08668 0.76618
 C1425 C 0.40842 0.10111 0.77706
 C1426 C 0.42261 0.09307 0.79256
 C1427 C 0.43789 0.10601 0.80251
 C1428 C 0.43894 0.12727 0.79736
 C1429 C 0.42438 0.13555 0.78238
 C1430 C 0.40923 0.12257 0.77225
 H1431 H 0.37005 0.05419 0.68381
 H1432 H 0.38955 0.08088 0.70408
 H1433 H 0.35467 0.06283 0.76088
 H1434 H 0.33503 0.03614 0.74056
 H1435 H 0.39338 0.10238 0.73688
 H1436 H 0.38863 0.07250 0.77448
 H1437 H 0.42220 0.07664 0.79663
 H1438 H 0.44898 0.09946 0.81415
 H1439 H 0.42492 0.15200 0.77842
 H1440 H 0.39811 0.12937 0.76082
 C1441 C 0.62482 0.69395 0.04788
 C1442 C 0.61201 0.70572 0.06176
 C1443 C 0.61881 0.72559 0.06848
 C1444 C 0.63918 0.73316 0.06156
 C1445 C 0.65198 0.72138 0.04761
 C1446 C 0.64483 0.70174 0.04045
 C1447 C 0.60417 0.73765 0.08269
 C1448 C 0.60523 0.75844 0.08516
 C1449 C 0.58944 0.77052 0.09812
 C1450 C 0.58710 0.79198 0.09409
 C1451 C 0.57196 0.80385 0.10543
 C1452 C 0.55895 0.79445 0.12105
 C1453 C 0.56153 0.77319 0.12556
 C1454 C 0.57675 0.76132 0.11432
 H1455 H 0.61885 0.67884 0.04276
 H1456 H 0.59653 0.69940 0.06699
 H1457 H 0.64542 0.74805 0.06691
 H1458 H 0.66744 0.72771 0.04234
 H1459 H 0.59108 0.72904 0.09017
 H1460 H 0.61714 0.76731 0.07623
 H1461 H 0.59679 0.79952 0.08188
 H1462 H 0.57018 0.82031 0.10190
 H1463 H 0.55174 0.76583 0.13780
 H1464 H 0.57856 0.74506 0.11856
 C1465 C 0.34662 0.27656 0.05258
 C1466 C 0.35782 0.26349 0.06666
 C1467 C 0.37911 0.26834 0.07322
 C1468 C 0.38908 0.28653 0.06518
 C1469 C 0.37787 0.29961 0.05115
 C1470 C 0.35655 0.29475 0.04462
 C1471 C 0.39074 0.25356 0.08743
 C1472 C 0.40786 0.25908 0.09953
 C1473 C 0.42073 0.24435 0.11278
 C1474 C 0.43543 0.25270 0.12771
 C1475 C 0.44917 0.23968 0.13942
 C1476 C 0.44848 0.21802 0.13644
 C1477 C 0.43358 0.20947 0.12193
 C1478 C 0.41986 0.22249 0.11010
 H1479 H 0.33024 0.27232 0.04780
 H1480 H 0.34983 0.24950 0.07241
 H1481 H 0.40572 0.29050 0.06916
 H1482 H 0.38608 0.31337 0.04513
 H1483 H 0.38450 0.23778 0.08817
 H1484 H 0.41274 0.27531 0.10008
 H1485 H 0.43657 0.26942 0.13004
 H1486 H 0.46069 0.24651 0.15051
 H1487 H 0.43306 0.19276 0.11931
 H1488 H 0.40925 0.21532 0.09845
 C1489 C 0.65813 0.27448 0.94203
 C1490 C 0.64636 0.26228 0.92750
 C1491 C 0.62400 0.26567 0.92443
 C1492 C 0.61381 0.28213 0.93537
 C1493 C 0.62564 0.29453 0.94961
 C1494 C 0.64784 0.29062 0.95336
 C1495 C 0.61162 0.25193 0.90978
 C1496 C 0.59106 0.24615 0.91394
 C1497 C 0.57798 0.23233 0.89996
 C1498 C 0.56105 0.22065 0.90911
 C1499 C 0.54715 0.20872 0.89638
 C1500 C 0.54961 0.20857 0.87416
 C1501 C 0.56682 0.21984 0.86493
 C1502 C 0.58095 0.23162 0.87772
 H1503 H 0.67526 0.27120 0.94447
 H1504 H 0.65459 0.24983 0.91908
 H1505 H 0.59671 0.28549 0.93288
 H1506 H 0.61726 0.30689 0.95803
 H1507 H 0.62006 0.24546 0.89617
 H1508 H 0.58363 0.25105 0.92878
 H1509 H 0.55840 0.22098 0.92617
 H1510 H 0.53400 0.20007 0.90379
 H1511 H 0.56887 0.22001 0.84779
 H1512 H 0.59356 0.24079 0.87010
 C1513 C 0.37923 0.69693 0.94932
 C1514 C 0.39182 0.70799 0.93461
 C1515 C 0.38408 0.72659 0.92554
 C1516 C 0.36305 0.73355 0.93100
 C1517 C 0.35048 0.72250 0.94577
 C1518 C 0.35851 0.70418 0.95524
 C1519 C 0.39843 0.73807 0.91053
 C1520 C 0.39624 0.75844 0.90595
 C1521 C 0.41193 0.77014 0.89250
 C1522 C 0.41378 0.79184 0.89527
 C1523 C 0.42930 0.80328 0.88388
 C1524 C 0.44312 0.79321 0.86941
 C1525 C 0.44074 0.77172 0.86589
 C1526 C 0.42521 0.76027 0.87723
 H1527 H 0.38587 0.68282 0.95625
 H1528 H 0.40785 0.70216 0.93056
 H1529 H 0.35611 0.74738 0.92386
 H1530 H 0.33446 0.72836 0.94980
 H1531 H 0.41230 0.72962 0.90432
 H1532 H 0.38358 0.76741 0.91364
 H1533 H 0.40360 0.79987 0.90673
 H1534 H 0.43093 0.81989 0.88672
 H1535 H 0.45119 0.76379 0.85459
 H1536 H 0.42374 0.74375 0.87398
 C1537 C 0.72748 0.94407 0.34109
 C1538 C 0.73872 0.92868 0.35238
 C1539 C 0.73083 0.92132 0.37198
 C1540 C 0.71120 0.92960 0.37996
 C1541 C 0.69991 0.94493 0.36861
 C1542 C 0.70807 0.95253 0.34919
 C1543 C 0.74437 0.90633 0.38422
 C1544 C 0.73688 0.89495 0.40062
 C1545 C 0.75087 0.88178 0.41447
 C1546 C 0.74073 0.86757 0.42836
 C1547 C 0.75297 0.85623 0.44311
 C1548 C 0.77561 0.85890 0.44425
 C1549 C 0.78595 0.87263 0.43013
 C1550 C 0.77373 0.88408 0.41543
 H1551 H 0.73422 0.94960 0.32617
 H1552 H 0.75385 0.92272 0.34592
 H1553 H 0.70480 0.92495 0.39527
 H1554 H 0.68510 0.95126 0.37538
 H1555 H 0.76117 0.90475 0.37932
 H1556 H 0.71967 0.89518 0.40430
 H1557 H 0.72320 0.86558 0.42811
 H1558 H 0.74477 0.84574 0.45402
 H1559 H 0.80342 0.87500 0.43103
 H1560 H 0.78226 0.89522 0.40556
 C1561 C 0.30393 0.94708 0.62453
 C1562 C 0.29380 0.93199 0.61189
 C1563 C 0.27417 0.92266 0.61832
 C1564 C 0.26517 0.92838 0.63812
 C1565 C 0.27531 0.94356 0.65078
 C1566 C 0.29471 0.95319 0.64403
 C1567 C 0.26390 0.90717 0.60382
 C1568 C 0.24296 0.90115 0.60497
 C1569 C 0.23255 0.88718 0.58903
 C1570 C 0.20981 0.88796 0.58650
 C1571 C 0.19946 0.87600 0.57084
 C1572 C 0.21169 0.86301 0.55748
 C1573 C 0.23427 0.86150 0.56044
 C1574 C 0.24463 0.87337 0.57616
 H1575 H 0.31891 0.95412 0.61888
 H1576 H 0.30121 0.92781 0.59682
 H1577 H 0.25046 0.92116 0.64407
 H1578 H 0.26792 0.94777 0.66583
 H1579 H 0.27381 0.90170 0.59073
 H1580 H 0.23243 0.90788 0.61693
 H1581 H 0.20008 0.89825 0.59633
 H1582 H 0.18198 0.87723 0.56878
 H1583 H 0.24386 0.85130 0.55039
 H1584 H 0.26204 0.87160 0.57811
 C1585 C 0.30669 0.04758 0.37817
 C1586 C 0.29551 0.06242 0.39016
 C1587 C 0.27622 0.07141 0.38247
 C1588 C 0.26857 0.06554 0.36216
 C1589 C 0.27977 0.05062 0.35015
 C1590 C 0.29890 0.04141 0.35808
 C1591 C 0.26497 0.08686 0.39617
 C1592 C 0.24404 0.09249 0.39385
 C1593 C 0.23283 0.10654 0.40907
 C1594 C 0.21011 0.10494 0.41133
 C1595 C 0.19914 0.11693 0.42651
 C1596 C 0.21075 0.13077 0.43959
 C1597 C 0.23327 0.13309 0.43683
 C1598 C 0.24423 0.12121 0.42159
 H1599 H 0.32142 0.04086 0.38474
 H1600 H 0.30188 0.06673 0.40566
 H1601 H 0.25414 0.07251 0.35533
 H1602 H 0.27348 0.04633 0.33462
 H1603 H 0.27409 0.09269 0.40969
 H1604 H 0.23419 0.08537 0.38154
 H1605 H 0.20091 0.09397 0.40173
 H1606 H 0.18171 0.11509 0.42844
 H1607 H 0.24236 0.14395 0.44666
 H1608 H 0.26158 0.12358 0.41976
 C1609 C 0.69306 0.04755 0.61864
 C1610 C 0.70490 0.06045 0.60497
 C1611 C 0.72337 0.07118 0.61228
 C1612 C 0.72976 0.06888 0.63368
 C1613 C 0.71804 0.05573 0.64735
 C1614 C 0.69968 0.04479 0.63990
 C1615 C 0.73628 0.08337 0.59676
 C1616 C 0.74856 0.09990 0.60201
 C1617 C 0.76117 0.11161 0.58586
 C1618 C 0.76358 0.13329 0.58791
 C1619 C 0.77486 0.14472 0.57245
 C1620 C 0.78427 0.13455 0.55491
 C1621 C 0.78253 0.11277 0.55326
 C1622 C 0.77102 0.10140 0.56853
 H1623 H 0.67908 0.03925 0.61234
 H1624 H 0.69973 0.06187 0.58852
 H1625 H 0.74423 0.07657 0.63971
 H1626 H 0.72360 0.05383 0.66361
 H1627 H 0.73483 0.07902 0.58013
 H1628 H 0.74839 0.10578 0.61819
 H1629 H 0.75631 0.14144 0.60125
 H1630 H 0.77614 0.16151 0.57406
 H1631 H 0.79004 0.10460 0.54007
 H1632 H 0.77005 0.08460 0.56688
 C1633 C 0.94150 0.65364 0.27792
 C1634 C 0.92669 0.64193 0.26583
 C1635 C 0.92396 0.62051 0.26965
 C1636 C 0.93565 0.61115 0.28637
 C1637 C 0.95020 0.62287 0.29863
 C1638 C 0.95349 0.64419 0.29439
 C1639 C 0.90868 0.60825 0.25630
 C1640 C 0.91262 0.58832 0.25110
 C1641 C 0.89774 0.57542 0.23796
 C1642 C 0.90655 0.55895 0.22603
 C1643 C 0.89300 0.54562 0.21442
 C1644 C 0.87030 0.54820 0.21489
 C1645 C 0.86140 0.56474 0.22669
 C1646 C 0.87501 0.57831 0.23810
 H1647 H 0.94358 0.67007 0.27438
 H1648 H 0.91767 0.64952 0.25317
 H1649 H 0.93344 0.59479 0.29014
 H1650 H 0.95911 0.61514 0.31125
 H1651 H 0.89461 0.61616 0.24973
 H1652 H 0.92788 0.58126 0.25593
 H1653 H 0.92399 0.55635 0.22577
 H1654 H 0.90018 0.53301 0.20533
 H1655 H 0.84391 0.56690 0.22735
 H1656 H 0.86765 0.59054 0.24753
 C1657 C 0.94776 0.34543 0.71739
 C1658 C 0.93266 0.35642 0.72971
 C1659 C 0.92888 0.37768 0.72593
 C1660 C 0.93971 0.38756 0.70896
 C1661 C 0.95456 0.37652 0.69646
 C1662 C 0.95900 0.35543 0.70074
 C1663 C 0.91354 0.38921 0.73975
 C1664 C 0.91691 0.40921 0.74508
 C1665 C 0.90207 0.42132 0.75890
 C1666 C 0.91062 0.43821 0.77045
 C1667 C 0.89698 0.45093 0.78257
 C1668 C 0.87444 0.44725 0.78301
 C1669 C 0.86583 0.43018 0.77178
 C1670 C 0.87953 0.41728 0.75982
 H1671 H 0.95073 0.32914 0.72096
 H1672 H 0.92431 0.34845 0.74256
 H1673 H 0.93665 0.40380 0.70526
 H1674 H 0.96287 0.38463 0.68368
 H1675 H 0.90004 0.38066 0.74666
 H1676 H 0.93170 0.41690 0.73983
 H1677 H 0.92790 0.44167 0.76993
 H1678 H 0.90391 0.46398 0.79123
 H1679 H 0.84845 0.42719 0.77187
 H1680 H 0.87233 0.40468 0.75072
 C1681 C 0.04718 0.65347 0.72725
 C1682 C 0.06119 0.64181 0.74017
 C1683 C 0.06796 0.62178 0.73400
 C1684 C 0.06039 0.61366 0.71449
 C1685 C 0.04648 0.62536 0.70153
 C1686 C 0.03956 0.64531 0.70784
 C1687 C 0.08174 0.60949 0.74889
 C1688 C 0.09327 0.59264 0.74304
 C1689 C 0.10587 0.57937 0.75804
 C1690 C 0.12094 0.56512 0.74955
 C1691 C 0.13228 0.55142 0.76283
 C1692 C 0.12874 0.55168 0.78488
 C1693 C 0.11393 0.56597 0.79353
 C1694 C 0.10248 0.57963 0.78026
 H1695 H 0.04211 0.66878 0.73261
 H1696 H 0.06659 0.64841 0.75518
 H1697 H 0.06452 0.59806 0.70934
 H1698 H 0.04072 0.61852 0.68678
 H1699 H 0.08254 0.61492 0.76518
 H1700 H 0.09393 0.58833 0.72640
 H1701 H 0.12378 0.56443 0.73253
 H1702 H 0.14365 0.54042 0.75592
 H1703 H 0.11091 0.56620 0.81053
 H1704 H 0.09063 0.58985 0.78752
 C1705 C 0.05033 0.34977 0.27468
 C1706 C 0.06485 0.36116 0.26205
 C1707 C 0.07132 0.38138 0.26797
 C1708 C 0.06278 0.39004 0.28681
 C1709 C 0.04831 0.37863 0.29946
 C1710 C 0.04184 0.35841 0.29349
 C1711 C 0.08588 0.39331 0.25353
 C1712 C 0.09773 0.40982 0.25985
 C1713 C 0.11108 0.42293 0.24533
 C1714 C 0.12618 0.43689 0.25436
 C1715 C 0.13797 0.45067 0.24153
 C1716 C 0.13485 0.45077 0.21943
 C1717 C 0.12012 0.43668 0.21022
 C1718 C 0.10822 0.42293 0.22302
 H1719 H 0.04561 0.33425 0.26960
 H1720 H 0.07099 0.35419 0.24753
 H1721 H 0.06665 0.40582 0.29163
 H1722 H 0.04189 0.38584 0.31374
 H1723 H 0.08704 0.38787 0.23727
 H1724 H 0.09800 0.41400 0.27655
 H1725 H 0.12861 0.43736 0.27145
 H1726 H 0.14924 0.46156 0.24885
 H1727 H 0.11741 0.43677 0.19316
 H1728 H 0.09638 0.41293 0.21536
   
