data_POSCAR
  _audit_creation_date              2014-09-24
  _audit_creation_method            'ToBaCCo'
  _symmetry_space_group_name_H-M    'P1'
  _symmetry_Int_Tables_number       1
  _symmetry_cell_setting            triclinic
  loop_
  _symmetry_equiv_pos_as_xyz
 x,y,z
_cell_length_a 61.9310
_cell_length_b 61.7994
_cell_length_c 61.9685
_cell_angle_alpha 89.975700
_cell_angle_beta 90.040600
_cell_angle_gamma 89.953700
loop_
  _atom_site_label
  _atom_site_type_symbol
  _atom_site_fract_x
  _atom_site_fract_y
  _atom_site_fract_z
C1 C 0.36731 1.35342 0.33609
 C2 C 0.36824 1.33795 0.35265
 C3 C 0.35242 1.33750 0.36843
 C4 C 0.33544 1.35259 0.36787
 C5 C 0.33462 1.36769 0.35154
 C6 C 0.35061 1.36812 0.33559
 C7 C 0.37979 1.35713 0.31807
 N8 N 0.37100 1.37375 0.30644
 C9 C 0.35307 1.38046 0.31737
 C10 C 0.31607 1.37949 0.35419
 N11 N 0.30521 1.37206 0.37186
 C12 C 0.31723 1.35553 0.38033
 C13 C 0.35694 1.32024 0.38174
 N14 N 0.37509 1.31020 0.37446
 C15 C 0.38206 1.32100 0.35665
 H16 H 0.39380 1.34769 0.31366
 H17 H 0.34226 1.39337 0.31274
 H18 H 0.31119 1.39257 0.34371
 H19 H 0.31294 1.34565 0.39406
 H20 H 0.34759 1.31534 0.39565
 H21 H 0.39578 1.31649 0.34682
 C22 C 0.36740 0.85179 0.83543
 C23 C 0.36815 0.83672 0.85229
 C24 C 0.35262 0.83705 0.86827
 C25 C 0.33612 0.85265 0.86763
 C26 C 0.33551 0.86763 0.85111
 C27 C 0.35122 0.86716 0.83480
 C28 C 0.37984 0.85450 0.81730
 N29 N 0.37159 0.87112 0.80549
 C30 C 0.35409 0.87902 0.81618
 C31 C 0.31765 0.88042 0.85438
 N32 N 0.30711 0.87362 0.87251
 C33 C 0.31850 0.85649 0.88060
 C34 C 0.35699 0.82004 0.88199
 N35 N 0.37482 0.80945 0.87468
 C36 C 0.38168 0.81961 0.85648
 H37 H 0.39384 0.84493 0.81304
 H38 H 0.34374 0.89195 0.81053
 H39 H 0.31258 0.89326 0.84368
 H40 H 0.31471 0.84747 0.89504
 H41 H 0.34782 0.81573 0.89621
 H42 H 0.39516 0.81458 0.84657
 C43 C 0.86674 1.35230 0.83628
 C44 C 0.86785 1.33658 0.85263
 C45 C 0.85219 1.33604 0.86851
 C46 C 0.83522 1.35105 0.86827
 C47 C 0.83419 1.36651 0.85229
 C48 C 0.85002 1.36707 0.83613
 C49 C 0.87912 1.35627 0.81826
 N50 N 0.87031 1.37309 0.80694
 C51 C 0.85245 1.37970 0.81807
 C52 C 0.81572 1.37840 0.85574
 N53 N 0.80526 1.37049 0.87346
 C54 C 0.81735 1.35367 0.88113
 C55 C 0.85678 1.31885 0.88179
 N56 N 0.87490 1.30884 0.87446
 C57 C 0.88175 1.31960 0.85656
 H58 H 0.89308 1.34686 0.81363
 H59 H 0.84169 1.39275 0.81369
 H60 H 0.81015 1.39134 0.84539
 H61 H 0.81381 1.34389 0.89514
 H62 H 0.84720 1.31368 0.89545
 H63 H 0.89580 1.31542 0.84705
 C64 C 0.86735 0.85121 0.33525
 C65 C 0.86802 0.83602 0.35202
 C66 C 0.85283 0.83667 0.36832
 C67 C 0.83673 0.85268 0.36806
 C68 C 0.83619 0.86776 0.35154
 C69 C 0.85166 0.86701 0.33501
 C70 C 0.87972 0.85387 0.31709
 N71 N 0.87206 0.87105 0.30552
 C72 C 0.85482 0.87916 0.31665
 C73 C 0.81866 0.88094 0.35512
 N74 N 0.80848 0.87428 0.37340
 C75 C 0.81948 0.85697 0.38140
 C76 C 0.85717 0.81958 0.38196
 N77 N 0.87466 0.80866 0.37431
 C78 C 0.88132 0.81868 0.35596
 H79 H 0.89347 0.84391 0.31305
 H80 H 0.84467 0.89250 0.31168
 H81 H 0.81342 0.89407 0.34481
 H82 H 0.81533 0.84813 0.39589
 H83 H 0.84825 0.81547 0.39641
 H84 H 0.89456 0.81345 0.34583
 C85 C 0.63276 0.64726 0.33494
 C86 C 0.63290 0.66422 0.34996
 C87 C 0.64837 0.66478 0.36601
 C88 C 0.66393 0.64832 0.36729
 C89 C 0.66375 0.63157 0.35251
 C90 C 0.64799 0.63103 0.33624
 C91 C 0.62022 0.64316 0.31711
 N92 N 0.62733 0.62469 0.30733
 C93 C 0.64438 0.61723 0.31921
 C94 C 0.68109 0.61843 0.35716
 N95 N 0.69180 0.62678 0.37442
 C96 C 0.68134 0.64508 0.38069
 C97 C 0.64505 0.68341 0.37772
 N98 N 0.62792 0.69420 0.36915
 C99 C 0.62041 0.68249 0.35214
 H100 H 0.60682 0.65312 0.31198
 H101 H 0.65422 0.60325 0.31556
 H102 H 0.68553 0.60386 0.34855
 H103 H 0.68635 0.65567 0.39367
 H104 H 0.65480 0.68893 0.39112
 H105 H 0.60682 0.68683 0.34205
 C106 C 0.63391 0.14831 0.83463
 C107 C 0.63306 0.16431 0.85066
 C108 C 0.64830 0.16455 0.86697
 C109 C 0.66460 0.14877 0.86747
 C110 C 0.66543 0.13309 0.85167
 C111 C 0.64987 0.13277 0.83521
 C112 C 0.62143 0.14430 0.81671
 N113 N 0.62930 0.12652 0.80625
 C114 C 0.64680 0.11948 0.81770
 C115 C 0.68318 0.12039 0.85584
 N116 N 0.69336 0.12787 0.87392
 C117 C 0.68181 0.14529 0.88107
 C118 C 0.64375 0.18202 0.87996
 N119 N 0.62610 0.19241 0.87196
 C120 C 0.61950 0.18162 0.85400
 H121 H 0.60740 0.15364 0.81213
 H122 H 0.65715 0.10602 0.81357
 H123 H 0.68793 0.10657 0.84628
 H124 H 0.68575 0.15540 0.89474
 H125 H 0.65261 0.18669 0.89428
 H126 H 0.60608 0.18623 0.84378
 C127 C 1.13168 0.64613 0.83667
 C128 C 1.13158 0.66234 0.85250
 C129 C 1.14747 0.66271 0.86819
 C130 C 1.16367 0.64681 0.86830
 C131 C 1.16363 0.63078 0.85283
 C132 C 1.14757 0.63045 0.83687
 C133 C 1.11858 0.64203 0.81919
 N134 N 1.12617 0.62422 0.80874
 C135 C 1.14392 0.61707 0.81953
 C136 C 1.18116 0.61773 0.85669
 N137 N 1.19218 0.62538 0.87418
 C138 C 1.18139 0.64330 0.88128
 C139 C 1.14349 0.68038 0.88113
 N140 N 1.12556 0.69072 0.87369
 C141 C 1.11824 0.67974 0.85613
 H142 H 1.10451 0.65132 0.81453
 H143 H 1.15384 0.60343 0.81487
 H144 H 1.18564 0.60405 0.84681
 H145 H 1.18564 0.65312 0.89507
 H146 H 1.15289 0.68517 0.89506
 H147 H 1.10445 0.68425 0.84639
 C148 C 1.13257 0.14805 0.33495
 C149 C 1.13158 0.16344 0.35160
 C150 C 1.14733 0.16373 0.36748
 C151 C 1.16427 0.14861 0.36696
 C152 C 1.16514 0.13361 0.35056
 C153 C 1.14924 0.13332 0.33451
 C154 C 1.12017 0.14443 0.31683
 N155 N 1.12901 0.12783 0.30521
 C156 C 1.14686 0.12106 0.31624
 C157 C 1.18364 0.12174 0.35330
 N158 N 1.19442 0.12905 0.37108
 C159 C 1.18239 0.14556 0.37953
 C160 C 1.14278 0.18088 0.38090
 N161 N 1.12469 0.19103 0.37358
 C162 C 1.11778 0.18039 0.35565
 H163 H 1.10619 0.15389 0.31234
 H164 H 1.15766 0.10813 0.31167
 H165 H 1.18856 0.10872 0.34277
 H166 H 1.18661 0.15535 0.39334
 H167 H 1.15207 0.18561 0.39492
 H168 H 1.10409 0.18501 0.34580
 C169 C 0.63249 1.35188 0.66571
 C170 C 0.63249 1.33582 0.64971
 C171 C 0.64789 1.33614 0.63355
 C172 C 0.66351 1.35259 0.63316
 C173 C 0.66337 1.36844 0.64889
 C174 C 0.64774 1.36808 0.66522
 C175 C 0.61967 1.35548 0.68348
 N176 N 0.62666 1.37365 0.69392
 C177 C 0.64394 1.38134 0.68258
 C178 C 0.68041 1.38206 0.64483
 N179 N 0.69101 1.37493 0.62699
 C180 C 0.68073 1.35687 0.61975
 C181 C 0.64406 1.31854 0.62048
 N182 N 0.62669 1.30758 0.62828
 C183 C 0.61958 1.31809 0.64620
 H184 H 0.60603 1.34558 0.68800
 H185 H 0.65366 1.39525 0.68668
 H186 H 0.68502 1.39584 0.65456
 H187 H 0.68535 1.34752 0.60573
 H188 H 0.65313 1.31424 0.60619
 H189 H 0.60620 1.31307 0.65624
 C190 C 0.63094 0.85196 1.16413
 C191 C 0.63109 0.83650 1.14759
 C192 C 0.64736 0.83657 1.13232
 C193 C 0.66371 0.85228 1.13338
 C194 C 0.66341 0.86759 1.14966
 C195 C 0.64688 0.86744 1.16511
 C196 C 0.61777 0.85493 1.18170
 N197 N 0.62524 0.87195 1.19361
 C198 C 0.64312 0.87968 1.18327
 C199 C 0.68157 0.88012 1.14735
 N200 N 0.69305 0.87281 1.13012
 C201 C 0.68214 0.85578 1.12145
 C202 C 0.64372 0.81924 1.11881
 N203 N 0.62561 0.80873 1.12551
 C204 C 0.61788 0.81923 1.14316
 H205 H 0.60376 0.84515 1.18525
 H206 H 0.65342 0.89266 1.18877
 H207 H 0.68606 0.89354 1.15761
 H208 H 0.68753 0.84614 1.10791
 H209 H 0.65354 0.81470 1.10510
 H210 H 0.60397 0.81437 1.15254
 C211 C 1.13191 1.35138 1.16336
 C212 C 1.13234 1.33627 1.14649
 C213 C 1.14816 1.33756 1.13084
 C214 C 1.16378 1.35395 1.13182
 C215 C 1.16342 1.36873 1.14848
 C216 C 1.14733 1.36750 1.16436
 C217 C 1.11911 1.35338 1.18138
 N218 N 1.12637 1.37032 1.19337
 C219 C 1.14367 1.37903 1.18300
 C220 C 1.18122 1.38179 1.14611
 N221 N 1.19260 1.37541 1.12833
 C222 C 1.18175 1.35830 1.11955
 C223 C 1.14554 1.32008 1.11737
 N224 N 1.12856 1.30809 1.12449
 C225 C 1.12037 1.31799 1.14230
 H226 H 1.10556 1.34311 1.18543
 H227 H 1.15339 1.39232 1.18889
 H228 H 1.18532 1.39490 1.15688
 H229 H 1.18677 1.34885 1.10578
 H230 H 1.15556 1.31626 1.10359
 H231 H 1.10728 1.31188 1.15213
 C232 C 1.13349 0.85043 0.66414
 C233 C 1.13346 0.83520 0.64739
 C234 C 1.14829 0.83688 0.63087
 C235 C 1.16332 0.85380 0.63081
 C236 C 1.16345 0.86882 0.64735
 C237 C 1.14836 0.86712 0.66419
 C238 C 1.12147 0.85219 0.68266
 N239 N 1.12862 0.86952 0.69413
 C240 C 1.14509 0.87877 0.68288
 C241 C 1.18043 0.88271 0.64347
 N242 N 1.19053 0.87647 0.62498
 C243 C 1.18010 0.85875 0.61722
 C244 C 1.14533 0.81936 0.61752
 N245 N 1.12908 0.80697 0.62559
 C246 C 1.12170 0.81665 0.64386
 H247 H 1.10842 0.84155 0.68735
 H248 H 1.15445 0.89257 0.68813
 H249 H 1.18509 0.89629 0.65346
 H250 H 1.18476 0.84962 0.60307
 H251 H 1.15455 0.81584 0.60312
 H252 H 1.10926 0.81026 0.65434
 C253 C 0.36745 0.64874 0.66330
 C254 C 0.36818 0.66378 0.64637
 C255 C 0.35232 0.66362 0.63072
 C256 C 0.33552 0.64849 0.63177
 C257 C 0.33478 0.63361 0.64834
 C258 C 0.35089 0.63375 0.66433
 C259 C 0.38007 0.64593 0.68132
 N260 N 0.37162 0.62965 0.69343
 C261 C 0.35378 0.62206 0.68306
 C262 C 0.31626 0.62158 0.64550
 N263 N 0.30555 0.62890 0.62762
 C264 C 0.31752 0.64543 0.61925
 C265 C 0.35637 0.68059 0.61697
 N266 N 0.37434 0.69116 0.62388
 C267 C 0.38166 0.68091 0.64190
 H268 H 0.39430 0.65525 0.68532
 H269 H 0.34318 0.60950 0.68905
 H270 H 0.31082 0.60899 0.65631
 H271 H 0.31383 0.65471 0.60494
 H272 H 0.34642 0.68535 0.60341
 H273 H 0.39565 0.68563 0.65124
 C274 C 0.36762 0.14757 1.16406
 C275 C 0.36744 0.16372 1.14817
 C276 C 0.35149 0.16389 1.13253
 C277 C 0.33548 0.14780 1.13256
 C278 C 0.33580 0.13184 1.14812
 C279 C 0.35192 0.13173 1.16400
 C280 C 0.38091 0.14362 1.18143
 N281 N 0.37363 0.12574 1.19196
 C282 C 0.35587 0.11840 1.18133
 C283 C 0.31848 0.11852 1.14438
 N284 N 0.30730 0.12590 1.12686
 C285 C 0.31779 0.14396 1.11963
 C286 C 0.35529 0.18154 1.11948
 N287 N 0.37316 0.19203 1.12680
 C288 C 0.38062 0.18118 1.14440
 H289 H 0.39492 0.15305 1.18594
 H290 H 0.34617 0.10464 1.18607
 H291 H 0.31427 0.10481 1.15434
 H292 H 0.31334 0.15363 1.10579
 H293 H 0.34582 0.18621 1.10554
 H294 H 0.39441 0.18582 1.15407
 C295 C 0.86786 0.64698 1.16395
 C296 C 0.86812 0.66327 1.14819
 C297 C 0.85251 0.66363 1.13224
 C298 C 0.83644 0.64766 1.13178
 C299 C 0.83618 0.63161 1.14731
 C300 C 0.85202 0.63125 1.16349
 C301 C 0.88074 0.64285 1.18157
 N302 N 0.87311 0.62498 1.19187
 C303 C 0.85551 0.61782 1.18085
 C304 C 0.81864 0.61862 1.14314
 N305 N 0.80820 0.62639 1.12544
 C306 C 0.81904 0.64418 1.11842
 C307 C 0.85651 0.68140 1.11947
 N308 N 0.87418 0.69187 1.12727
 C309 C 0.88135 0.68082 1.14487
 H310 H 0.89473 0.65214 1.18641
 H311 H 0.84560 0.60413 1.18534
 H312 H 0.81397 0.60446 1.15228
 H313 H 0.81441 0.65421 1.10486
 H314 H 0.84727 0.68621 1.10544
 H315 H 0.89492 0.68542 1.15487
 C316 C 0.86946 0.14678 0.66360
 C317 C 0.86986 0.16244 0.64723
 C318 C 0.85350 0.16318 0.63212
 C319 C 0.83650 0.14827 0.63316
 C320 C 0.83604 0.13286 0.64934
 C321 C 0.85267 0.13218 0.66475
 C322 C 0.88293 0.14275 0.68075
 N323 N 0.87484 0.12597 0.69259
 C324 C 0.85619 0.11952 0.68270
 C325 C 0.81726 0.12120 0.64678
 N326 N 0.80632 0.12919 0.62946
 C327 C 0.81808 0.14574 0.62106
 C328 C 0.85753 0.18055 0.61882
 N329 N 0.87596 0.19045 0.62553
 C330 C 0.88361 0.17937 0.64291
 H331 H 0.89721 0.15208 0.68441
 H332 H 0.84578 0.10646 0.68780
 H333 H 0.81172 0.10826 0.65717
 H334 H 0.81365 0.15533 0.60713
 H335 H 0.84762 0.18565 0.60536
 H336 H 0.89770 0.18372 0.65228
 C337 C 1.35268 0.36890 0.66323
 C338 C 1.33626 0.36755 0.64770
 C339 C 1.33694 0.35151 0.63219
 C340 C 1.35402 0.33660 0.63198
 C341 C 1.37021 0.33797 0.64718
 C342 C 1.36953 0.35421 0.66299
 C343 C 1.35575 0.38223 0.68073
 N344 N 1.37405 0.37600 0.69117
 C345 C 1.38257 0.35884 0.68037
 C346 C 1.38410 0.32098 0.64358
 N347 N 1.37674 0.30904 0.62654
 C348 C 1.35823 0.31877 0.61943
 C349 C 1.31863 0.35354 0.61981
 N350 N 1.30675 0.37042 0.62742
 C351 C 1.31750 0.37908 0.64451
 H352 H 1.34504 0.39510 0.68581
 H353 H 1.39716 0.35027 0.68480
 H354 H 1.39806 0.31738 0.65342
 H355 H 1.34830 0.31356 0.60608
 H356 H 1.31433 0.34340 0.60624
 H357 H 1.31184 0.39238 0.65434
 C358 C 1.35198 0.86707 1.16556
 C359 C 1.33630 0.86740 1.14921
 C360 C 1.33668 0.85197 1.13303
 C361 C 1.35285 0.83601 1.13295
 C362 C 1.36831 0.83588 1.14896
 C363 C 1.36778 0.85139 1.16542
 C364 C 1.35518 0.87949 1.18373
 N365 N 1.37255 0.87163 1.19488
 C366 C 1.38027 0.85438 1.18347
 C367 C 1.38167 0.81856 1.14523
 N368 N 1.37480 0.80781 1.12726
 C369 C 1.35702 0.81857 1.11974
 C370 C 1.31926 0.85596 1.11977
 N371 N 1.30836 0.87345 1.12748
 C372 C 1.31872 0.88048 1.14552
 H373 H 1.34492 0.89277 1.18861
 H374 H 1.39407 0.84451 1.18761
 H375 H 1.39495 0.81395 1.15558
 H376 H 1.34773 0.81441 1.10557
 H377 H 1.31498 0.84685 1.10549
 H378 H 1.31362 0.89385 1.15558
 C379 C 0.85104 0.36568 1.16540
 C380 C 0.83483 0.36527 1.14952
 C381 C 0.83579 0.35012 1.13311
 C382 C 0.85285 0.33523 1.13229
 C383 C 0.86876 0.33573 1.14780
 C384 C 0.86778 0.35097 1.16451
 C385 C 0.85393 0.37776 1.18387
 N386 N 0.87197 0.37062 1.19444
 C387 C 0.88044 0.35419 1.18239
 C388 C 0.88266 0.31891 1.14360
 N389 N 0.87557 0.30788 1.12587
 C390 C 0.85722 0.31800 1.11893
 C391 C 0.81762 0.35269 1.12065
 N392 N 0.80551 0.36900 1.12903
 C393 C 0.81598 0.37682 1.14670
 H394 H 0.84298 0.39019 1.18943
 H395 H 0.89486 0.34503 1.18600
 H396 H 0.89636 0.31470 1.15356
 H397 H 0.84750 0.31345 1.10518
 H398 H 0.81357 0.34325 1.10651
 H399 H 0.81005 0.38951 1.15717
 C400 C 0.85253 0.86816 0.66415
 C401 C 0.83644 0.86815 0.64825
 C402 C 0.83654 0.85256 0.63230
 C403 C 0.85278 0.83675 0.63201
 C404 C 0.86867 0.83671 0.64771
 C405 C 0.86855 0.85256 0.66394
 C406 C 0.85622 0.88125 0.68168
 N407 N 0.87411 0.87405 0.69220
 C408 C 0.88173 0.85645 0.68143
 C409 C 0.88199 0.81935 0.64357
 N410 N 0.87457 0.80887 0.62573
 C411 C 0.85668 0.81948 0.61861
 C412 C 0.81896 0.85641 0.61924
 N413 N 0.80819 0.87400 0.62688
 C414 C 0.81884 0.88124 0.64467
 H415 H 0.84628 0.89478 0.68660
 H416 H 0.89592 0.84721 0.68583
 H417 H 0.89611 0.81481 0.65282
 H418 H 0.84687 0.81475 0.60496
 H419 H 0.81452 0.84718 0.60508
 H420 H 0.81398 0.89481 0.65457
 C421 C 0.64769 0.63181 0.66373
 C422 C 0.66369 0.63211 0.64771
 C423 C 0.66321 0.64783 0.63188
 C424 C 0.64683 0.66345 0.63181
 C425 C 0.63107 0.66324 0.64758
 C426 C 0.63150 0.64726 0.66371
 C427 C 0.64425 0.61859 0.68124
 N428 N 0.62638 0.62557 0.69192
 C429 C 0.61850 0.64315 0.68125
 C430 C 0.61751 0.68048 0.64353
 N431 N 0.62469 0.69106 0.62564
 C432 C 0.64265 0.68068 0.61846
 C433 C 0.68064 0.64438 0.61861
 N434 N 0.69177 0.62689 0.62594
 C435 C 0.68147 0.61930 0.64380
 H436 H 0.65436 0.60513 0.68605
 H437 H 0.60425 0.65222 0.68577
 H438 H 0.60339 0.68485 0.65284
 H439 H 0.65233 0.68553 0.60475
 H440 H 0.68506 0.65421 0.60486
 H441 H 0.68638 0.60536 0.65318
 C442 C 0.64864 1.13161 1.16425
 C443 C 0.66435 1.13148 1.14794
 C444 C 0.66479 1.14796 1.13291
 C445 C 0.64968 1.16478 1.13398
 C446 C 0.63422 1.16495 1.14996
 C447 C 0.63376 1.14823 1.16533
 C448 C 0.64471 1.11803 1.18135
 N449 N 0.62777 1.12589 1.19310
 C450 C 0.62108 1.14448 1.18318
 C451 C 0.62211 1.18348 1.14712
 N452 N 0.62994 1.19471 1.12979
 C453 C 0.64689 1.18309 1.12179
 C454 C 0.68196 1.14416 1.11941
 N455 N 0.69208 1.12573 1.12585
 C456 C 0.68137 1.11787 1.14335
 H457 H 0.65421 1.10384 1.18507
 H458 H 0.60784 1.15470 1.18819
 H459 H 0.60900 1.18846 1.15749
 H460 H 0.65658 1.18716 1.10789
 H461 H 0.68707 1.15448 1.10626
 H462 H 0.68562 1.10335 1.15215
 C463 C 0.14922 0.63371 1.16534
 C464 C 0.16464 0.63364 1.14879
 C465 C 0.16307 0.64840 1.13216
 C466 C 0.14613 0.66342 1.13183
 C467 C 0.13103 0.66365 1.14818
 C468 C 0.13250 0.64850 1.16507
 C469 C 0.14718 0.62163 1.18380
 N470 N 0.12951 0.62850 1.19505
 C471 C 0.12050 0.64505 1.18347
 C472 C 0.11736 0.68082 1.14416
 N473 N 0.12375 0.69104 1.12566
 C474 C 0.14141 0.68020 1.11814
 C475 C 0.18070 0.64547 1.11904
 N476 N 0.19309 0.62930 1.12733
 C477 C 0.18327 0.62192 1.14553
 H478 H 0.15795 0.60862 1.18825
 H479 H 0.10657 0.65450 1.18808
 H480 H 0.10379 0.68529 1.15418
 H481 H 0.15105 0.68454 1.10428
 H482 H 0.18431 0.65468 1.10463
 H483 H 0.18961 0.60953 1.15614
 C484 C 0.14718 1.13043 0.66345
 C485 C 0.16344 1.13146 0.64781
 C486 C 0.16346 1.14789 0.63268
 C487 C 0.14698 1.16353 0.63300
 C488 C 0.13099 1.16249 0.64849
 C489 C 0.13106 1.14576 0.66382
 C490 C 0.14426 1.11721 0.68099
 N491 N 0.12665 1.12403 0.69236
 C492 C 0.11847 1.14156 0.68165
 C493 C 0.11806 1.18036 0.64586
 N494 N 0.12562 1.19245 0.62903
 C495 C 0.14339 1.18201 0.62112
 C496 C 0.18208 1.14563 0.62068
 N497 N 0.19333 1.12829 0.62828
 C498 C 0.18188 1.11952 0.64481
 H499 H 0.15468 1.10377 0.68501
 H500 H 0.10499 1.15142 0.68675
 H501 H 0.10413 1.18394 0.65571
 H502 H 0.15373 1.18766 0.60825
 H503 H 0.18746 1.15641 0.60800
 H504 H 0.18669 1.10562 0.65429
 C505 C 1.35007 0.63431 0.33422
 C506 C 1.33362 0.63514 0.34976
 C507 C 1.33372 0.65125 0.36520
 C508 C 1.35024 0.66676 0.36535
 C509 C 1.36642 0.66590 0.35010
 C510 C 1.36626 0.64962 0.33432
 C511 C 1.35378 0.62085 0.31696
 N512 N 1.37185 0.62760 0.30628
 C513 C 1.37949 0.64531 0.31703
 C514 C 1.37991 0.68316 0.35384
 N515 N 1.37236 0.69475 0.37102
 C516 C 1.35408 0.68460 0.37804
 C517 C 1.31557 0.64853 0.37767
 N518 N 1.30435 0.63117 0.37016
 C519 C 1.31537 0.62287 0.35307
 H520 H 1.34339 0.60760 0.31234
 H521 H 1.39377 0.65448 0.31298
 H522 H 1.39382 0.68709 0.34408
 H523 H 1.34416 0.68941 0.39156
 H524 H 1.31095 0.65854 0.39122
 H525 H 1.31023 0.60931 0.34330
 C526 C 1.35227 1.13153 0.83696
 C527 C 1.33714 1.13025 0.85368
 C528 C 1.33677 1.14588 0.86958
 C529 C 1.35163 1.16299 0.86898
 C530 C 1.36666 1.16421 0.85258
 C531 C 1.36696 1.14836 0.83633
 C532 C 1.35535 1.11927 0.81876
 N533 N 1.37150 1.12820 0.80690
 C534 C 1.37877 1.14599 0.81761
 C535 C 1.37828 1.18294 0.85574
 N536 N 1.37063 1.19333 0.87364
 C537 C 1.35425 1.18097 0.88171
 C538 C 1.31962 1.14125 0.88293
 N539 N 1.30956 1.12317 0.87548
 C540 C 1.32026 1.11637 0.85757
 H541 H 1.34627 1.10495 0.81445
 H542 H 1.39116 1.15690 0.81186
 H543 H 1.39081 1.18874 0.84509
 H544 H 1.34475 1.18440 0.89592
 H545 H 1.31474 1.15055 0.89689
 H546 H 1.31564 1.10281 0.84753
 C547 C 0.85211 0.63288 0.83677
 C548 C 0.83601 0.63266 0.85272
 C549 C 0.83704 0.64711 0.86973
 C550 C 0.85407 0.66198 0.87107
 C551 C 0.86990 0.66216 0.85540
 C552 C 0.86890 0.64754 0.83815
 C553 C 0.85479 0.62157 0.81779
 N554 N 0.87277 0.62907 0.80764
 C555 C 0.88147 0.64494 0.82009
 C556 C 0.88358 0.67906 0.86000
 N557 N 0.87642 0.68923 0.87810
 C558 C 0.85836 0.67880 0.88498
 C559 C 0.81886 0.64411 0.88206
 N560 N 0.80671 0.62820 0.87300
 C561 C 0.81716 0.62107 0.85504
 H562 H 0.84401 0.60931 0.81154
 H563 H 0.89588 0.65408 0.81631
 H564 H 0.89719 0.68411 0.85029
 H565 H 0.84879 0.68326 0.89889
 H566 H 0.81478 0.65302 0.89652
 H567 H 0.81116 0.60890 0.84402
 C568 C 0.85302 1.13198 0.33633
 C569 C 0.83728 1.13098 0.35263
 C570 C 0.83802 1.14552 0.36955
 C571 C 0.85418 1.16128 0.37041
 C572 C 0.86956 1.16244 0.35436
 C573 C 0.86902 1.14760 0.33723
 C574 C 0.85581 1.12080 0.31730
 N575 N 0.87310 1.12921 0.30666
 C576 C 0.88120 1.14564 0.31881
 C577 C 0.88174 1.18069 0.35826
 N578 N 0.87399 1.19065 0.37625
 C579 C 0.85721 1.17868 0.38382
 C580 C 0.82003 1.14221 0.38199
 N581 N 0.80811 1.12608 0.37307
 C582 C 0.81864 1.11899 0.35513
 H583 H 0.84556 1.10793 0.31138
 H584 H 0.89497 1.15556 0.31462
 H585 H 0.89446 1.18689 0.34801
 H586 H 0.84740 1.18261 0.39771
 H587 H 0.81575 1.15132 0.39627
 H588 H 0.81268 1.10681 0.34409
 C589 C 0.64673 0.36945 0.33727
 C590 C 0.66176 0.37105 0.35421
 C591 C 0.66187 0.35566 0.37042
 C592 C 0.64718 0.33845 0.36992
 C593 C 0.63248 0.33685 0.35326
 C594 C 0.63229 0.35246 0.33684
 C595 C 0.64322 0.38149 0.31888
 N596 N 0.62698 0.37223 0.30713
 C597 C 0.62033 0.35438 0.31830
 C598 C 0.62102 0.31803 0.35637
 N599 N 0.62848 0.30813 0.37452
 C600 C 0.64448 0.32063 0.38290
 C601 C 0.67860 0.36050 0.38412
 N602 N 0.68880 0.37850 0.37673
 C603 C 0.67858 0.38506 0.35839
 H604 H 0.65247 0.39560 0.31438
 H605 H 0.60765 0.34333 0.31367
 H606 H 0.60871 0.31165 0.34573
 H607 H 0.65367 0.31702 0.39732
 H608 H 0.68346 0.35106 0.39801
 H609 H 0.68313 0.39887 0.34866
 C610 C 0.64607 0.86737 0.83631
 C611 C 0.66260 0.86740 0.85179
 C612 C 0.66241 0.85250 0.86845
 C613 C 0.64561 0.83732 0.86988
 C614 C 0.62929 0.83738 0.85464
 C615 C 0.62956 0.85245 0.83774
 C616 C 0.64282 0.87906 0.81766
 N617 N 0.62473 0.87154 0.80771
 C618 C 0.61651 0.85528 0.82002
 C619 C 0.61580 0.82039 0.85929
 N620 N 0.62343 0.80992 0.87702
 C621 C 0.64171 0.82021 0.88359
 C622 C 0.68095 0.85570 0.88032
 N623 N 0.69238 0.87217 0.87128
 C624 C 0.68115 0.87939 0.85382
 H625 H 0.65337 0.89152 0.81141
 H626 H 0.60221 0.84595 0.81629
 H627 H 0.60186 0.81558 0.84990
 H628 H 0.65159 0.81554 0.89723
 H629 H 0.68601 0.84623 0.89412
 H630 H 0.68607 0.89242 0.84324
 C631 C 0.14837 0.36813 0.83610
 C632 C 0.16398 0.36803 0.85252
 C633 C 0.16381 0.35191 0.86799
 C634 C 0.14805 0.33564 0.86724
 C635 C 0.13272 0.33575 0.85102
 C636 C 0.13296 0.35208 0.83530
 C637 C 0.14482 0.38159 0.81879
 N638 N 0.12757 0.37414 0.80723
 C639 C 0.12032 0.35597 0.81746
 C640 C 0.11968 0.31803 0.85414
 N641 N 0.12667 0.30713 0.87190
 C642 C 0.14407 0.31783 0.87997
 C643 C 0.18100 0.35562 0.88156
 N644 N 0.19166 0.37360 0.87471
 C645 C 0.18127 0.38128 0.85693
 H646 H 0.15472 0.39543 0.81485
 H647 H 0.10665 0.34619 0.81274
 H648 H 0.10631 0.31327 0.84394
 H649 H 0.15308 0.31320 0.89421
 H650 H 0.18568 0.34560 0.89510
 H651 H 0.18586 0.39550 0.84784
 C652 C 0.14556 0.86895 0.33646
 C653 C 0.16232 0.86872 0.35170
 C654 C 0.16353 0.85229 0.36685
 C655 C 0.14789 0.83583 0.36697
 C656 C 0.13138 0.83620 0.35196
 C657 C 0.13027 0.85281 0.33662
 C658 C 0.14139 0.88180 0.31878
 N659 N 0.12394 0.87376 0.30792
 C660 C 0.11709 0.85599 0.31909
 C661 C 0.11941 0.81775 0.35476
 N662 N 0.12819 0.80599 0.37109
 C663 C 0.14562 0.81700 0.37872
 C664 C 0.18219 0.85552 0.37853
 N665 N 0.19232 0.87347 0.37084
 C666 C 0.18017 0.88161 0.35443
 H667 H 0.15128 0.89532 0.31383
 H668 H 0.10376 0.84556 0.31488
 H669 H 0.10541 0.81319 0.34535
 H670 H 0.15639 0.81138 0.39130
 H671 H 0.18830 0.84507 0.39116
 H672 H 0.18406 0.89579 0.34496
 O673 O 1.07865 1.02099 1.10678
 O674 O 1.10380 1.02097 1.13199
 C675 C 1.08629 1.02844 1.12429
 C676 C 1.07501 1.04637 1.13547
 C677 C 1.08268 1.05416 1.15532
 H678 H 1.09627 1.04625 1.16300
 O679 O 0.92221 0.97999 1.10809
 O680 O 0.89723 0.98042 1.13343
 C681 C 0.91463 0.97275 1.12571
 C682 C 0.92589 0.95479 1.13689
 C683 C 0.91811 0.94664 1.15659
 H684 H 0.90401 0.95390 1.16397
 O685 O 1.02235 1.10787 1.07696
 O686 O 1.02271 1.13341 1.10180
 C687 C 1.02995 1.12548 1.08433
 C688 C 1.04776 1.13646 1.07271
 C689 C 1.05574 1.15651 1.07987
 H690 H 1.04848 1.16433 1.09373
 O691 O 0.97840 0.89305 1.07810
 O692 O 0.97839 0.86782 1.10328
 C693 C 0.97100 0.87548 1.08573
 C694 C 0.95335 0.86409 1.07430
 C695 C 0.94673 0.84342 1.08095
 H696 H 0.95487 0.83558 1.09431
 O697 O 1.10865 1.07698 1.01995
 O698 O 1.13413 1.10189 1.01959
 C699 C 1.12637 1.08443 1.02714
 C700 C 1.13769 1.07290 1.04480
 C701 C 1.15826 1.07957 1.05171
 H702 H 1.16632 1.09270 1.04342
 O703 O 0.89113 0.92288 1.02189
 O704 O 0.86584 0.89779 1.02226
 C705 C 0.87362 0.91539 1.02947
 C706 C 0.86266 0.92698 1.04731
 C707 C 0.84288 0.91952 1.05554
 H708 H 0.83518 0.90551 1.04838
 O709 O 0.97996 1.07887 1.10677
 O710 O 0.98020 1.10434 1.13168
 C711 C 0.97263 1.08675 1.12422
 C712 C 0.95475 1.07565 1.13561
 C713 C 0.94698 1.08367 1.15533
 H714 H 0.95475 1.09750 1.16274
 O715 O 1.02087 0.92256 1.10731
 O716 O 1.02078 0.89747 1.13263
 C717 C 1.02823 0.91499 1.12489
 C718 C 1.04602 0.92635 1.13615
 C719 C 1.05333 0.91904 1.15630
 H720 H 1.04512 0.90571 1.16412
 O721 O 1.10803 0.97835 1.07758
 O722 O 1.13332 0.97836 1.10265
 C723 C 1.12562 0.97095 1.08515
 C724 C 1.13694 0.95324 1.07368
 C725 C 1.15757 0.94649 1.08026
 H726 H 1.16544 0.95456 1.09364
 O727 O 0.89299 1.02214 1.07815
 O728 O 0.86778 1.02263 1.10327
 C729 C 0.87545 1.02971 1.08560
 C730 C 0.86414 1.04720 1.07377
 C731 C 0.84351 1.05408 1.08018
 H732 H 0.83545 1.04601 1.09344
 O733 O 0.92299 1.10812 1.02032
 O734 O 0.89807 1.13363 1.02026
 C735 C 0.91565 1.12590 1.02754
 C736 C 0.92750 1.13739 1.04484
 C737 C 0.92111 1.15817 1.05150
 H738 H 0.90791 1.16623 1.04329
 O739 O 1.07781 0.89154 1.02160
 O740 O 1.10260 0.86590 1.02181
 C741 C 1.08508 0.87382 1.02904
 C742 C 1.07317 0.86260 1.04648
 C743 C 1.07927 0.84178 1.05322
 H744 H 1.09272 0.83375 1.04543
 O745 O 0.92257 1.02226 1.10772
 O746 O 0.89753 1.02279 1.13300
 C747 C 0.91510 1.02995 1.12520
 C748 C 0.92668 1.04783 1.13618
 C749 C 0.91919 1.05606 1.15596
 H750 H 0.90516 1.04892 1.16357
 O751 O 1.07854 0.97877 1.10720
 O752 O 1.10367 0.97867 1.13242
 C753 C 1.08606 0.97139 1.12481
 C754 C 1.07438 0.95384 1.13616
 C755 C 1.08159 0.94617 1.15629
 H756 H 1.09564 0.95340 1.16379
 O757 O 1.02055 0.89247 1.07817
 O758 O 1.02044 0.86728 1.10339
 C759 C 1.02776 0.87478 1.08577
 C760 C 1.04512 0.86307 1.07420
 C761 C 1.05142 0.84222 1.08070
 H762 H 1.04293 0.83429 1.09377
 O763 O 0.98024 1.10815 1.07689
 O764 O 0.98056 1.13377 1.10165
 C765 C 0.97309 1.12596 1.08421
 C766 C 0.95563 1.13741 1.07252
 C767 C 0.94896 1.15813 1.07901
 H768 H 0.95689 1.16588 1.09254
 O769 O 0.89323 1.07865 1.02066
 O770 O 0.86813 1.10399 1.02054
 C771 C 0.87568 1.08635 1.02797
 C772 C 0.86421 1.07485 1.04553
 C773 C 0.84354 1.08146 1.05213
 H774 H 0.83573 1.09492 1.04407
 O775 O 1.10776 0.92072 1.02143
 O776 O 1.13279 0.89532 1.02168
 C777 C 1.12530 0.91307 1.02885
 C778 C 1.13677 0.92481 1.04626
 C779 C 1.15737 0.91819 1.05314
 H780 H 1.16531 0.90476 1.04520
 O781 O 0.97872 0.92269 1.10767
 O782 O 0.97864 0.89755 1.13293
 C783 C 0.97135 0.91517 1.12527
 C784 C 0.95368 0.92668 1.13660
 C785 C 0.94580 0.91889 1.15635
 H786 H 0.95352 0.90509 1.16388
 O787 O 1.02212 1.07846 1.10673
 O788 O 1.02244 1.10387 1.13170
 C789 C 1.02964 1.08615 1.12419
 C790 C 1.04734 1.07461 1.13548
 C791 C 1.05532 1.08224 1.15530
 H792 H 1.04816 1.09643 1.16266
 O793 O 0.89257 0.97995 1.07864
 O794 O 0.86747 0.98041 1.10387
 C795 C 0.87498 0.97277 1.08637
 C796 C 0.86346 0.95497 1.07521
 C797 C 0.84374 0.94721 1.08323
 H798 H 0.83643 0.95492 1.09713
 O799 O 1.10829 1.02055 1.07731
 O800 O 1.13358 1.02057 1.10239
 C801 C 1.12595 1.02785 1.08477
 C802 C 1.13745 1.04524 1.07301
 C803 C 1.15797 1.05216 1.07973
 H804 H 1.16556 1.04451 1.09351
 O805 O 0.92052 0.89309 1.02203
 O806 O 0.89541 0.86780 1.02238
 C807 C 0.91304 0.87549 1.02953
 C808 C 0.92487 0.86413 1.04697
 C809 C 0.91840 0.84348 1.05391
 H810 H 0.90501 0.83545 1.04602
 O811 O 1.07904 1.10655 1.01987
 O812 O 1.10438 1.13159 1.01956
 C813 C 1.08681 1.12413 1.02708
 C814 C 1.07558 1.13569 1.04474
 C815 C 1.08333 1.15568 1.05215
 H816 H 1.09705 1.16312 1.04425
 Cu817 Cu 1.09085 0.99965 1.08971
 Cu818 Cu 1.12111 0.99964 1.11991
 Cu819 Cu 0.91011 1.00105 1.09066
 Cu820 Cu 0.88000 1.00164 1.12094
 Cu821 Cu 1.00115 1.09078 1.08936
 Cu822 Cu 1.00149 1.12139 1.11923
 Cu823 Cu 0.99965 0.91021 1.09028
 Cu824 Cu 0.99956 0.88003 1.12062
 C825 C 1.05719 1.05657 1.12580
 H826 H 1.05137 1.05083 1.11034
 C827 C 1.07304 1.07215 1.16531
 C828 C 0.94378 0.94478 1.12712
 H829 H 0.94962 0.95069 1.11174
 C830 C 0.92792 0.92862 1.16641
 C831 C 1.05767 1.12630 1.05500
 H832 H 1.05182 1.11072 1.04957
 C833 C 1.07359 1.16618 1.06972
 C834 C 0.94247 0.87421 1.05715
 H835 H 0.94737 0.89024 1.05208
 C836 C 0.92933 0.83295 1.07081
 C837 C 1.12754 1.05560 1.05542
 H838 H 1.11159 1.05054 1.05034
 C839 C 1.16857 1.06925 1.06913
 C840 C 0.87269 0.94486 1.05713
 H841 H 0.88809 0.95053 1.05109
 C842 C 0.83337 0.92948 1.07356
 C843 C 0.94460 1.05761 1.12627
 H844 H 0.95028 1.05156 1.11088
 C845 C 0.92920 1.07403 1.16560
 C846 C 1.05650 0.94391 1.12632
 H847 H 1.05108 0.94946 1.11064
 C848 C 1.07117 0.92872 1.16646
 C849 C 1.12679 0.94244 1.05652
 H850 H 1.11079 0.94745 1.05150
 C851 C 1.16795 0.92904 1.07005
 C852 C 0.87427 1.05757 1.05632
 H853 H 0.89031 1.05252 1.05148
 C854 C 0.83304 1.07113 1.06940
 C855 C 0.94491 1.12727 1.05531
 H856 H 0.94977 1.11116 1.05042
 C857 C 0.93179 1.16870 1.06855
 C858 C 1.05596 0.87302 1.05696
 H859 H 1.05132 0.88919 1.05202
 C860 C 1.06842 0.83139 1.07025
 O861 O 1.07760 0.97674 0.89232
 O862 O 1.10263 0.97634 0.86704
 C863 C 1.08508 0.96913 0.87481
 C864 C 1.07352 0.95129 0.86381
 C865 C 1.08103 0.94303 0.84406
 H866 H 1.09506 0.95017 0.83644
 O867 O 0.92169 1.02061 0.89262
 O868 O 0.89662 1.02072 0.86732
 C869 C 0.91425 1.02793 0.87495
 C870 C 0.92604 1.04528 0.86343
 C871 C 0.91949 1.05204 0.84278
 H872 H 0.90617 1.04393 0.83484
 O873 O 0.97955 1.10696 0.92123
 O874 O 0.97960 1.13210 0.89595
 C875 C 0.97229 1.12461 0.91359
 C876 C 0.95493 1.13625 0.92522
 C877 C 0.94841 1.15704 0.91871
 H878 H 0.95659 1.16496 0.90543
 O879 O 1.02019 0.89121 0.92333
 O880 O 1.01975 0.86556 0.89860
 C881 C 1.02731 0.87339 0.91600
 C882 C 1.04488 0.86196 0.92757
 C883 C 1.05157 0.84128 0.92097
 H884 H 1.04350 0.83343 0.90758
 O885 O 1.10770 0.92046 0.97938
 O886 O 1.13278 0.89510 0.97950
 C887 C 1.12523 0.91272 0.97206
 C888 C 1.13656 0.92419 0.95438
 C889 C 1.15720 0.91763 0.94757
 H890 H 1.16533 0.90456 0.95593
 O891 O 0.89308 1.07837 0.97857
 O892 O 0.86804 1.10376 0.97842
 C893 C 0.87552 1.08602 0.97121
 C894 C 0.86392 1.07434 0.95385
 C895 C 0.84340 1.08119 0.94704
 H896 H 0.83593 1.09503 0.95474
 O897 O 1.02139 1.07681 0.89185
 O898 O 1.02159 1.10182 0.86647
 C899 C 1.02882 1.08422 0.87424
 C900 C 1.04640 1.07245 0.86304
 C901 C 1.05417 1.07964 0.84296
 H902 H 1.04700 1.09374 0.83543
 O903 O 0.97822 0.92092 0.89354
 O904 O 0.97781 0.89546 0.86861
 C905 C 0.97073 0.91326 0.87605
 C906 C 0.95335 0.92504 0.86453
 C907 C 0.94664 0.91850 0.84387
 H908 H 0.95470 0.90512 0.83596
 O909 O 1.10751 1.01889 0.92152
 O910 O 1.13269 1.01857 0.89637
 C911 C 1.12517 1.02605 0.91393
 C912 C 1.13678 1.04351 0.92545
 C913 C 1.15752 1.04993 0.91892
 H914 H 1.16528 1.04179 0.90552
 O915 O 0.89187 0.97869 0.92236
 O916 O 0.86678 0.97869 0.89709
 C917 C 0.87433 0.97131 0.91470
 C918 C 0.86293 0.95359 0.92606
 C919 C 0.84329 0.94557 0.91808
 H920 H 0.83596 0.95302 0.90404
 O921 O 1.07904 1.10649 0.97779
 O922 O 1.10430 1.13162 0.97741
 C923 C 1.08663 1.12403 0.97026
 C924 C 1.07491 1.13541 0.95276
 C925 C 1.08152 1.15601 0.94577
 H926 H 1.09489 1.16400 0.95372
 O927 O 0.92052 0.89280 0.98006
 O928 O 0.89545 0.86747 0.98034
 C929 C 0.91305 0.87504 0.97298
 C930 C 0.92486 0.86332 0.95579
 C931 C 0.91868 0.84234 0.94963
 H932 H 0.90550 0.83436 0.95791
 O933 O 0.92165 0.97844 0.89308
 O934 O 0.89670 0.97852 0.86766
 C935 C 0.91420 0.97109 0.87545
 C936 C 0.92581 0.95342 0.86420
 C937 C 0.91942 0.94674 0.84351
 H938 H 0.90609 0.95482 0.83554
 O939 O 1.07762 1.01898 0.89226
 O940 O 1.10265 1.01865 0.86697
 C941 C 1.08517 1.02621 0.87463
 C942 C 1.07385 1.04400 0.86325
 C943 C 1.08126 1.05131 0.84314
 H944 H 1.09463 1.04308 0.83542
 O945 O 0.97806 0.89171 0.92358
 O946 O 0.97766 0.86608 0.89883
 C947 C 0.97054 0.87403 0.91635
 C948 C 0.95309 0.86281 0.92824
 C949 C 0.94677 0.84181 0.92239
 H950 H 0.95495 0.83363 0.90927
 O951 O 1.02164 1.10648 0.92134
 O952 O 1.02171 1.13166 0.89611
 C953 C 1.02904 1.12404 0.91370
 C954 C 1.04665 1.13543 0.92520
 C955 C 1.05340 1.15605 0.91851
 H956 H 1.04540 1.16385 0.90504
 O957 O 0.89089 0.92236 0.97975
 O958 O 0.86563 0.89724 0.97992
 C959 C 0.87335 0.91472 0.97236
 C960 C 0.86230 0.92597 0.95434
 C961 C 0.84258 0.91824 0.94615
 H962 H 0.83497 0.90427 0.95349
 O963 O 1.10819 1.07642 0.97789
 O964 O 1.13364 1.10136 0.97749
 C965 C 1.12582 1.08374 0.97040
 C966 C 1.13705 1.07180 0.95300
 C967 C 1.15775 1.07805 0.94620
 H968 H 1.16591 1.09128 0.95425
 O969 O 1.02036 0.92039 0.89335
 O970 O 1.02000 0.89484 0.86852
 C971 C 1.02762 0.91243 0.87590
 C972 C 1.04548 0.92347 0.86444
 C973 C 1.05329 0.91537 0.84476
 H974 H 1.04559 0.90146 0.83742
 O975 O 0.97927 1.07697 0.89208
 O976 O 0.97940 1.10192 0.86663
 C977 C 0.97194 1.08443 0.87444
 C978 C 0.95429 1.07286 0.86318
 C979 C 0.94750 1.07942 0.84257
 H980 H 0.95546 1.09291 0.83474
 O981 O 0.89217 1.02092 0.92224
 O982 O 0.86693 1.02101 0.89713
 C983 C 0.87462 1.02838 0.91467
 C984 C 0.86341 1.04614 0.92619
 C985 C 0.84283 1.05317 0.91965
 H986 H 0.83466 1.04492 0.90658
 O987 O 1.10714 0.97673 0.92193
 O988 O 1.13231 0.97644 0.89677
 C989 C 1.12471 0.96926 0.91442
 C990 C 1.13620 0.95184 0.92617
 C991 C 1.15676 0.94501 0.91953
 H992 H 1.16431 0.95271 0.90576
 O993 O 1.07784 0.89120 0.97959
 O994 O 1.10269 0.86562 0.97968
 C995 C 1.08517 0.87343 0.97234
 C996 C 1.07332 0.86203 0.95497
 C997 C 1.07985 0.84139 0.94805
 H998 H 1.09328 0.83339 0.95595
 O999 O 0.92290 1.10773 0.97828
 O1000 O 0.89803 1.13330 0.97818
 C1001 C 0.91553 1.12542 0.97088
 C1002 C 0.92726 1.13668 0.95334
 C1003 C 0.92106 1.15750 0.94670
 H1004 H 0.90777 1.16558 0.95472
 Cu1005 Cu 1.08994 0.99786 0.90952
 Cu1006 Cu 1.12007 0.99748 0.87922
 Cu1007 Cu 0.90934 0.99969 0.91011
 Cu1008 Cu 0.87921 0.99975 0.87978
 Cu1009 Cu 1.09120 1.08911 0.99889
 Cu1010 Cu 1.12166 1.11914 0.99846
 Cu1011 Cu 1.09031 0.90853 1.00049
 Cu1012 Cu 1.12023 0.87792 1.00070
 Cu1013 Cu 0.91054 1.09067 0.99948
 Cu1014 Cu 0.88055 1.12122 0.99934
 Cu1015 Cu 0.90824 0.91033 1.00090
 Cu1016 Cu 0.87799 0.88009 1.00125
 Cu1017 Cu 1.00045 1.08929 0.90915
 Cu1018 Cu 1.00058 1.11938 0.87872
 Cu1019 Cu 0.99923 0.90862 0.91092
 Cu1020 Cu 0.99873 0.87792 0.88114
 C1021 C 1.05560 0.94154 0.87372
 H1022 H 1.04990 0.94764 0.88908
 C1023 C 1.07106 0.92502 0.83448
 C1024 C 0.94358 1.05566 0.87338
 H1025 H 0.94856 1.05069 0.88940
 C1026 C 0.93018 1.06906 0.83218
 C1027 C 0.94436 1.12630 0.94264
 H1028 H 0.94910 1.11015 0.94756
 C1029 C 0.93159 1.16784 0.92946
 C1030 C 1.05572 0.87209 0.94472
 H1031 H 1.05078 0.88813 0.94976
 C1032 C 1.06900 0.83086 0.93113
 C1033 C 1.12632 0.94145 0.94371
 H1034 H 1.11033 0.94646 0.94873
 C1035 C 1.16750 0.92803 0.93020
 C1036 C 0.87370 1.05670 0.94345
 H1037 H 0.88966 1.05152 0.94843
 C1038 C 0.83265 1.07066 0.93004
 C1039 C 1.05626 1.05452 0.87296
 H1040 H 1.05063 1.04913 0.88860
 C1041 C 1.07164 1.06919 0.83291
 C1042 C 0.94294 0.94262 0.87447
 H1043 H 0.94783 0.94756 0.89051
 C1044 C 0.92978 0.92935 0.83319
 C1045 C 1.12678 1.05440 0.94264
 H1046 H 1.11070 1.04969 0.94762
 C1047 C 1.16815 1.06715 0.92923
 C1048 C 0.87220 0.94380 0.94431
 H1049 H 0.88754 0.94967 0.95033
 C1050 C 0.83305 0.92788 0.92795
 C1051 C 1.05736 1.12536 0.94248
 H1052 H 1.05236 1.10936 0.94759
 C1053 C 1.07076 1.16649 0.92873
 C1054 C 0.94219 0.87334 0.94511
 H1055 H 0.94688 0.88961 0.94958
 C1056 C 0.92966 0.83141 0.93304
 O1057 O 1.07816 0.52046 0.60751
 O1058 O 1.10324 0.52035 0.63280
 C1059 C 1.08569 0.52776 0.62513
 C1060 C 1.07407 0.54530 0.63657
 C1061 C 1.08056 0.55185 0.65727
 H1062 H 1.09398 0.54377 0.66509
 O1063 O 0.92166 0.48000 0.60859
 O1064 O 0.89648 0.48037 0.63373
 C1065 C 0.91396 0.47274 0.62614
 C1066 C 0.92512 0.45480 0.63744
 C1067 C 0.91736 0.44711 0.65728
 H1068 H 0.90381 0.45514 0.66489
 O1069 O 1.02181 0.60732 0.57802
 O1070 O 1.02233 0.63277 0.60295
 C1071 C 1.02949 0.62487 0.58542
 C1072 C 1.04727 0.63583 0.57378
 C1073 C 1.05538 0.65579 0.58105
 H1074 H 1.04826 0.66351 0.59503
 O1075 O 0.97789 0.39305 0.57910
 O1076 O 0.97780 0.36768 0.60414
 C1077 C 0.97055 0.37539 0.58654
 C1078 C 0.95314 0.36396 0.57477
 C1079 C 0.94679 0.34306 0.58094
 H1080 H 0.95494 0.33507 0.59422
 O1081 O 1.10787 0.57648 0.52052
 O1082 O 1.13320 0.60153 0.52033
 C1083 C 1.12549 0.58404 0.52784
 C1084 C 1.13671 0.57278 0.54575
 C1085 C 1.15648 0.58060 0.55362
 H1086 H 1.16414 0.59418 0.54567
 O1087 O 0.89130 0.42307 0.52252
 O1088 O 0.86592 0.39806 0.52278
 C1089 C 0.87371 0.41564 0.53000
 C1090 C 0.86247 0.42742 0.54751
 C1091 C 0.84186 0.42095 0.55441
 H1092 H 0.83378 0.40766 0.54638
 O1093 O 0.97936 0.57850 0.60785
 O1094 O 0.97967 0.60394 0.63279
 C1095 C 0.97205 0.58639 0.62531
 C1096 C 0.95413 0.57534 0.63667
 C1097 C 0.94639 0.58331 0.65641
 H1098 H 0.95422 0.59708 0.66387
 O1099 O 1.02005 0.42239 0.60878
 O1100 O 1.01987 0.39737 0.63416
 C1101 C 1.02736 0.41486 0.62641
 C1102 C 1.04512 0.42635 0.63759
 C1103 C 1.05207 0.41980 0.65819
 H1104 H 1.04373 0.40679 0.66640
 O1105 O 1.10753 0.47796 0.57820
 O1106 O 1.13280 0.47782 0.60328
 C1107 C 1.12505 0.47042 0.58578
 C1108 C 1.13608 0.45244 0.57441
 C1109 C 1.15590 0.44429 0.58196
 H1110 H 1.16356 0.45158 0.59589
 O1111 O 0.89253 0.52236 0.57882
 O1112 O 0.86721 0.52281 0.60383
 C1113 C 0.87497 0.52995 0.58623
 C1114 C 0.86376 0.54750 0.57443
 C1115 C 0.84318 0.55454 0.58088
 H1116 H 0.83510 0.54657 0.59419
 O1117 O 0.92295 0.60801 0.52101
 O1118 O 0.89810 0.63359 0.52091
 C1119 C 0.91563 0.62579 0.52823
 C1120 C 0.92742 0.63724 0.54562
 C1121 C 0.92100 0.65799 0.55225
 H1122 H 0.90754 0.66588 0.54431
 O1123 O 1.07673 0.39133 0.52220
 O1124 O 1.10156 0.36573 0.52231
 C1125 C 1.08418 0.37373 0.52975
 C1126 C 1.07278 0.36281 0.54774
 C1127 C 1.08017 0.34286 0.55580
 H1128 H 1.09414 0.33522 0.54856
 O1129 O 0.92190 0.52222 0.60855
 O1130 O 0.89674 0.52271 0.63371
 C1131 C 0.91437 0.52986 0.62603
 C1132 C 0.92596 0.54764 0.63711
 C1133 C 0.91847 0.55583 0.65689
 H1134 H 0.90439 0.54871 0.66444
 O1135 O 1.07791 0.47833 0.60769
 O1136 O 1.10304 0.47822 0.63293
 C1137 C 1.08537 0.47103 0.62535
 C1138 C 1.07353 0.45378 0.63698
 C1139 C 1.08027 0.44699 0.65752
 H1140 H 1.09415 0.45460 0.66497
 O1141 O 1.01998 0.39265 0.57936
 O1142 O 1.01990 0.36749 0.60460
 C1143 C 1.02728 0.37503 0.58701
 C1144 C 1.04492 0.36349 0.57566
 C1145 C 1.05240 0.34347 0.58333
 H1146 H 1.04442 0.33595 0.59695
 O1147 O 0.97973 0.60783 0.57804
 O1148 O 0.98016 0.63343 0.60282
 C1149 C 0.97266 0.62566 0.58537
 C1150 C 0.95523 0.63716 0.57365
 C1151 C 0.94851 0.65788 0.58014
 H1152 H 0.95663 0.66589 0.59340
 O1153 O 0.89299 0.57876 0.52129
 O1154 O 0.86797 0.60418 0.52118
 C1155 C 0.87546 0.58653 0.52859
 C1156 C 0.86395 0.57509 0.54616
 C1157 C 0.84333 0.58184 0.55276
 H1158 H 0.83558 0.59532 0.54469
 O1159 O 1.10645 0.42071 0.52168
 O1160 O 1.13140 0.39523 0.52172
 C1161 C 1.12396 0.41295 0.52902
 C1162 C 1.13545 0.42432 0.54666
 C1163 C 1.15520 0.41639 0.55446
 H1164 H 1.16259 0.40246 0.54684
 O1165 O 0.97788 0.42241 0.60892
 O1166 O 0.97762 0.39721 0.63412
 C1167 C 0.97036 0.41484 0.62644
 C1168 C 0.95263 0.42641 0.63762
 C1169 C 0.94454 0.41885 0.65744
 H1170 H 0.95161 0.40464 0.66486
 O1171 O 1.02149 0.57786 0.60774
 O1172 O 1.02188 0.60314 0.63284
 C1173 C 1.02897 0.58539 0.62527
 C1174 C 1.04640 0.57355 0.63665
 C1175 C 1.05320 0.57995 0.65732
 H1176 H 1.04514 0.59324 0.66538
 O1177 O 0.89193 0.48021 0.57919
 O1178 O 0.86660 0.48064 0.60419
 C1179 C 0.87421 0.47311 0.58670
 C1180 C 0.86265 0.45563 0.57514
 C1181 C 0.84199 0.44901 0.58176
 H1182 H 0.83423 0.45705 0.59521
 O1183 O 1.10781 0.52020 0.57805
 O1184 O 1.13303 0.52020 0.60318
 C1185 C 1.12539 0.52757 0.58562
 C1186 C 1.13667 0.54529 0.57412
 C1187 C 1.15638 0.55347 0.58188
 H1188 H 1.16362 0.54647 0.59618
 O1189 O 0.92067 0.39322 0.52238
 O1190 O 0.89548 0.36801 0.52255
 C1191 C 0.91315 0.37558 0.52975
 C1192 C 0.92496 0.36407 0.54711
 C1193 C 0.91874 0.34320 0.55360
 H1194 H 0.90555 0.33512 0.54542
 O1195 O 1.07829 0.60614 0.52056
 O1196 O 1.10357 0.63124 0.52035
 C1197 C 1.08603 0.62371 0.52784
 C1198 C 1.07487 0.63518 0.54561
 C1199 C 1.08273 0.65510 0.55310
 H1200 H 1.09640 0.66257 0.54516
 Cu1201 Cu 1.09037 0.49924 0.59032
 Cu1202 Cu 1.12059 0.49913 0.62055
 Cu1203 Cu 0.90954 0.50116 0.59129
 Cu1204 Cu 0.87925 0.50167 0.62142
 Cu1205 Cu 1.00056 0.59033 0.59042
 Cu1206 Cu 1.00106 0.62087 0.62037
 Cu1207 Cu 0.99895 0.41017 0.59155
 Cu1208 Cu 0.99877 0.37991 0.62180
 C1209 C 1.05683 0.55610 0.62650
 H1210 H 1.05188 0.55126 0.61044
 C1211 C 1.07019 0.56910 0.66780
 C1212 C 0.94290 0.44449 0.62786
 H1213 H 0.94879 0.45017 0.61241
 C1214 C 0.92685 0.42908 0.66736
 C1215 C 1.05702 0.62577 0.55592
 H1216 H 1.05109 0.61023 0.55042
 C1217 C 1.07317 0.66548 0.57084
 C1218 C 0.94229 0.37422 0.55768
 H1219 H 0.94699 0.39043 0.55297
 C1220 C 0.92968 0.33252 0.57040
 C1221 C 1.12707 0.55497 0.55596
 H1222 H 1.11167 0.54903 0.55014
 C1223 C 1.16638 0.57119 0.57177
 C1224 C 0.87264 0.44486 0.55787
 H1225 H 0.88866 0.44974 0.55281
 C1226 C 0.83146 0.43172 0.57145
 C1227 C 0.94393 0.55738 0.62725
 H1228 H 0.94961 0.55136 0.61185
 C1229 C 0.92854 0.57371 0.66661
 C1230 C 1.05583 0.44349 0.62724
 H1231 H 1.05073 0.44847 0.61127
 C1232 C 1.06960 0.43010 0.66832
 C1233 C 1.12611 0.44247 0.55662
 H1234 H 1.11069 0.44844 0.55091
 C1235 C 1.16550 0.42620 0.57212
 C1236 C 0.87392 0.55777 0.55695
 H1237 H 0.88992 0.55262 0.55208
 C1238 C 0.83281 0.57162 0.57007
 C1239 C 0.94469 0.62707 0.55627
 H1240 H 0.94958 0.61097 0.55137
 C1241 C 0.93147 0.66845 0.56945
 C1242 C 1.05506 0.37291 0.55771
 H1243 H 1.04951 0.38847 0.55186
 C1244 C 1.07010 0.33306 0.57363
 O1245 O 1.07727 0.47729 0.39233
 O1246 O 1.10235 0.47675 0.36709
 C1247 C 1.08474 0.46963 0.37484
 C1248 C 1.07310 0.45183 0.36382
 C1249 C 1.08048 0.44362 0.34399
 H1250 H 1.09450 0.45074 0.33633
 O1251 O 0.92162 0.52066 0.39276
 O1252 O 0.89641 0.52079 0.36761
 C1253 C 0.91412 0.52795 0.37512
 C1254 C 0.92592 0.54525 0.36353
 C1255 C 0.91936 0.55187 0.34288
 H1256 H 0.90579 0.54398 0.33516
 O1257 O 0.97928 0.60694 0.42159
 O1258 O 0.97932 0.63222 0.39646
 C1259 C 0.97206 0.62466 0.41409
 C1260 C 0.95475 0.63630 0.42584
 C1261 C 0.94815 0.65705 0.41930
 H1262 H 0.95603 0.66479 0.40574
 O1263 O 1.01938 0.39160 0.42315
 O1264 O 1.01898 0.36599 0.39838
 C1265 C 1.02642 0.37373 0.41586
 C1266 C 1.04374 0.36210 0.42761
 C1267 C 1.05033 0.34139 0.42103
 H1268 H 1.04240 0.33366 0.40748
 O1269 O 1.10625 0.42022 0.47957
 O1270 O 1.13117 0.39472 0.47954
 C1271 C 1.12365 0.41235 0.47209
 C1272 C 1.13490 0.42357 0.45419
 C1273 C 1.15466 0.41570 0.44624
 H1274 H 1.16199 0.40155 0.45353
 O1275 O 0.89293 0.57841 0.47920
 O1276 O 0.86792 0.60383 0.47910
 C1277 C 0.87538 0.58610 0.47187
 C1278 C 0.86378 0.57449 0.45446
 C1279 C 0.84317 0.58124 0.44783
 H1280 H 0.83552 0.59485 0.45577
 O1281 O 1.02108 0.57700 0.39189
 O1282 O 1.02117 0.60212 0.36660
 C1283 C 1.02851 0.58453 0.37432
 C1284 C 1.04629 0.57300 0.36317
 C1285 C 1.05455 0.58075 0.34350
 H1286 H 1.04752 0.59502 0.33616
 O1287 O 0.97756 0.42149 0.39325
 O1288 O 0.97725 0.39601 0.36835
 C1289 C 0.97004 0.41375 0.37581
 C1290 C 0.95227 0.42514 0.36449
 C1291 C 0.94447 0.41743 0.34466
 H1292 H 0.95237 0.40379 0.33704
 O1293 O 1.10739 0.51936 0.42150
 O1294 O 1.13259 0.51896 0.39638
 C1295 C 1.12500 0.52658 0.41384
 C1296 C 1.13628 0.54449 0.42506
 C1297 C 1.15581 0.55285 0.41700
 H1298 H 1.16314 0.54573 0.40281
 O1299 O 0.89163 0.47920 0.42280
 O1300 O 0.86615 0.47939 0.39792
 C1301 C 0.87383 0.47209 0.41550
 C1302 C 0.86222 0.45492 0.42743
 C1303 C 0.84138 0.44853 0.42116
 H1304 H 0.83342 0.45673 0.40790
 O1305 O 1.07832 0.60631 0.47841
 O1306 O 1.10359 0.63144 0.47827
 C1307 C 1.08599 0.62386 0.47095
 C1308 C 1.07464 0.63516 0.45315
 C1309 C 1.08248 0.65492 0.44509
 H1310 H 1.09657 0.66233 0.45236
 O1311 O 0.92048 0.39328 0.48030
 O1312 O 0.89515 0.36822 0.48042
 C1313 C 0.91274 0.37573 0.47299
 C1314 C 0.92407 0.36423 0.45535
 C1315 C 0.91658 0.34409 0.44804
 H1316 H 0.90293 0.33652 0.45593
 O1317 O 0.92079 0.47848 0.39291
 O1318 O 0.89548 0.47851 0.36786
 C1319 C 0.91300 0.47098 0.37548
 C1320 C 0.92423 0.45300 0.36434
 C1321 C 0.91651 0.44492 0.34458
 H1322 H 0.90236 0.45213 0.33723
 O1323 O 1.07742 0.51954 0.39233
 O1324 O 1.10252 0.51907 0.36711
 C1325 C 1.08507 0.52675 0.37473
 C1326 C 1.07392 0.54471 0.36341
 C1327 C 1.08187 0.55262 0.34372
 H1328 H 1.09557 0.54476 0.33621
 O1329 O 0.97730 0.39223 0.42318
 O1330 O 0.97694 0.36666 0.39837
 C1331 C 0.96972 0.37461 0.41584
 C1332 C 0.95198 0.36359 0.42748
 C1333 C 0.94430 0.34340 0.42045
 H1334 H 0.95172 0.33556 0.40669
 O1335 O 1.02138 0.60647 0.42150
 O1336 O 1.02148 0.63170 0.39632
 C1337 C 1.02889 0.62398 0.41385
 C1338 C 1.04681 0.63512 0.42515
 C1339 C 1.05494 0.65479 0.41728
 H1340 H 1.04744 0.66235 0.40339
 O1341 O 0.89098 0.42300 0.48045
 O1342 O 0.86549 0.39810 0.48067
 C1343 C 0.87324 0.41563 0.47326
 C1344 C 0.86185 0.42739 0.45578
 C1345 C 0.84096 0.42129 0.44936
 H1346 H 0.83287 0.40809 0.45753
 O1347 O 1.10752 0.57625 0.47833
 O1348 O 1.13281 0.60134 0.47819
 C1349 C 1.12504 0.58381 0.47083
 C1350 C 1.13615 0.57250 0.45292
 C1351 C 1.15557 0.58064 0.44461
 H1352 H 1.16300 0.59465 0.45203
 O1353 O 1.01976 0.42101 0.39330
 O1354 O 1.01947 0.39550 0.36844
 C1355 C 1.02706 0.41308 0.37586
 C1356 C 1.04493 0.42413 0.36444
 C1357 C 1.05257 0.41613 0.34467
 H1358 H 1.04471 0.40236 0.33726
 O1359 O 0.97893 0.57720 0.39211
 O1360 O 0.97894 0.60228 0.36678
 C1361 C 0.97155 0.58474 0.37452
 C1362 C 0.95390 0.57314 0.36326
 C1363 C 0.94703 0.57963 0.34263
 H1364 H 0.95517 0.59284 0.33451
 O1365 O 0.89208 0.52134 0.42230
 O1366 O 0.86667 0.52159 0.39735
 C1367 C 0.87452 0.52891 0.41483
 C1368 C 0.86340 0.54663 0.42647
 C1369 C 0.84280 0.55366 0.42002
 H1370 H 0.83464 0.54558 0.40682
 O1371 O 1.10645 0.47712 0.42228
 O1372 O 1.13166 0.47664 0.39718
 C1373 C 1.12392 0.46944 0.41476
 C1374 C 1.13498 0.45153 0.42624
 C1375 C 1.15474 0.44348 0.41861
 H1376 H 1.16244 0.45118 0.40492
 O1377 O 1.07632 0.39097 0.48007
 O1378 O 1.10109 0.36532 0.48013
 C1379 C 1.08358 0.37317 0.47283
 C1380 C 1.07176 0.36183 0.45541
 C1381 C 1.07821 0.34115 0.44853
 H1382 H 1.09147 0.33303 0.45657
 O1383 O 0.92272 0.60777 0.47891
 O1384 O 0.89786 0.63335 0.47880
 C1385 C 0.91533 0.62544 0.47147
 C1386 C 0.92696 0.63664 0.45384
 C1387 C 0.92053 0.65734 0.44701
 H1388 H 0.90741 0.66552 0.45521
 Cu1389 Cu 1.08963 0.49838 0.40962
 Cu1390 Cu 1.11981 0.49779 0.37942
 Cu1391 Cu 0.90907 0.49990 0.41018
 Cu1392 Cu 0.87864 0.50011 0.38015
 Cu1393 Cu 1.09047 0.58878 0.49946
 Cu1394 Cu 1.12085 0.61889 0.49928
 Cu1395 Cu 1.08894 0.40835 0.50085
 Cu1396 Cu 1.11882 0.37769 0.50092
 Cu1397 Cu 0.91039 0.59069 0.50012
 Cu1398 Cu 0.88046 0.62131 0.50000
 Cu1399 Cu 0.90838 0.41065 0.50141
 Cu1400 Cu 0.87797 0.38057 0.50163
 Cu1401 Cu 1.00013 0.58937 0.40927
 Cu1402 Cu 1.00019 0.61961 0.37900
 Cu1403 Cu 0.99855 0.40916 0.41069
 Cu1404 Cu 0.99814 0.37850 0.38086
 C1405 C 1.05518 0.44210 0.37378
 H1406 H 1.04958 0.44812 0.38921
 C1407 C 1.07035 0.42572 0.33435
 C1408 C 0.94335 0.55582 0.37348
 H1409 H 0.94835 0.55092 0.38951
 C1410 C 0.92985 0.56900 0.33227
 C1411 C 0.94419 0.62634 0.44326
 H1412 H 0.94905 0.61025 0.44826
 C1413 C 0.93109 0.66770 0.42982
 C1414 C 1.05439 0.37207 0.44496
 H1415 H 1.04954 0.38815 0.44997
 C1416 C 1.06752 0.33077 0.43140
 C1417 C 1.12529 0.44160 0.44417
 H1418 H 1.10989 0.44753 0.44997
 C1419 C 1.16465 0.42551 0.42839
 C1420 C 0.87366 0.55704 0.44382
 H1421 H 0.88966 0.55190 0.44871
 C1422 C 0.83252 0.57089 0.43068
 C1423 C 1.05599 0.55487 0.37288
 H1424 H 1.04996 0.54904 0.38822
 C1425 C 1.07239 0.57071 0.33369
 C1426 C 0.94220 0.44308 0.37406
 H1427 H 0.94799 0.44895 0.38948
 C1428 C 0.92651 0.42709 0.33462
 C1429 C 1.12673 0.55431 0.44316
 H1430 H 1.11153 0.54819 0.44928
 C1431 C 1.16545 0.57104 0.42661
 C1432 C 0.87223 0.44436 0.44486
 H1433 H 0.88841 0.44901 0.44958
 C1434 C 0.83059 0.43182 0.43210
 C1435 C 1.05666 0.62553 0.44321
 H1436 H 1.05071 0.61016 0.44914
 C1437 C 1.07279 0.66477 0.42709
 C1438 C 0.94189 0.37377 0.44508
 H1439 H 0.94755 0.38946 0.45041
 C1440 C 0.92657 0.33358 0.43060
 O1441 O 0.47801 0.92327 0.39311
 O1442 O 0.47767 0.89809 0.36790
 C1443 C 0.47046 0.91573 0.37559
 C1444 C 0.45269 0.92720 0.36439
 C1445 C 0.44480 0.91949 0.34462
 H1446 H 0.45258 0.90578 0.33700
 O1447 O 0.52176 1.07853 0.39239
 O1448 O 0.52199 1.10369 0.36714
 C1449 C 0.52914 1.08599 0.37477
 C1450 C 0.54654 1.07414 0.36337
 C1451 C 0.55345 1.08069 0.34278
 H1452 H 0.54537 1.09401 0.33476
 O1453 O 0.39166 0.98091 0.42239
 O1454 O 0.36650 0.98142 0.39719
 C1455 C 0.37402 0.97379 0.41469
 C1456 C 0.36257 0.95595 0.42582
 C1457 C 0.34281 0.94821 0.41786
 H1458 H 0.33534 0.95606 0.40411
 O1459 O 0.60783 1.02073 0.42206
 O1460 O 0.63297 1.02074 0.39686
 C1461 C 0.62540 1.02808 0.41447
 C1462 C 0.63679 1.04571 0.42598
 C1463 C 0.65665 1.05356 0.41836
 H1464 H 0.66402 1.04633 0.40425
 O1465 O 0.42039 0.89369 0.47854
 O1466 O 0.39520 0.86849 0.47850
 C1467 C 0.41284 0.87605 0.47123
 C1468 C 0.42456 0.86456 0.45382
 C1469 C 0.41789 0.84398 0.44683
 H1470 H 0.40451 0.83605 0.45480
 O1471 O 0.57880 1.10696 0.47942
 O1472 O 0.60410 1.13205 0.47951
 C1473 C 0.58653 1.12450 0.47206
 C1474 C 0.57534 1.13593 0.45426
 C1475 C 0.58315 1.15584 0.44668
 H1476 H 0.59684 1.16334 0.45458
 O1477 O 0.42205 1.02267 0.39299
 O1478 O 0.39707 1.02301 0.36760
 C1479 C 0.41474 1.03006 0.37530
 C1480 C 0.42668 1.04732 0.36382
 C1481 C 0.42035 1.05388 0.34307
 H1482 H 0.40685 1.04596 0.33524
 O1483 O 0.57806 0.97879 0.39249
 O1484 O 0.60317 0.97844 0.36728
 C1485 C 0.58555 0.97126 0.37495
 C1486 C 0.57382 0.95366 0.36373
 C1487 C 0.58112 0.94565 0.34378
 H1488 H 0.59532 0.95264 0.33635
 O1489 O 0.52022 0.89319 0.42231
 O1490 O 0.51992 0.86809 0.39702
 C1491 C 0.52751 0.87563 0.41452
 C1492 C 0.54544 0.86421 0.42554
 C1493 C 0.55330 0.84455 0.41737
 H1494 H 0.54552 0.83718 0.40354
 O1495 O 0.48014 1.10863 0.42218
 O1496 O 0.48039 1.13402 0.39716
 C1497 C 0.47303 1.12642 0.41474
 C1498 C 0.45575 1.13810 0.42647
 C1499 C 0.44919 1.15884 0.41989
 H1500 H 0.45710 1.16655 0.40633
 O1501 O 0.39330 1.08043 0.47917
 O1502 O 0.36848 1.10603 0.47923
 C1503 C 0.37586 1.08835 0.47179
 C1504 C 0.36446 1.07712 0.45400
 C1505 C 0.34474 1.08509 0.44599
 H1506 H 0.33752 1.09933 0.45319
 O1507 O 0.60766 0.92148 0.47875
 O1508 O 0.63275 0.89614 0.47870
 C1509 C 0.62523 0.91384 0.47143
 C1510 C 0.63669 0.92553 0.45398
 C1511 C 0.65735 0.91899 0.44721
 H1512 H 0.66536 0.90568 0.45532
 O1513 O 0.47967 1.07903 0.39261
 O1514 O 0.47982 1.10421 0.36738
 C1515 C 0.47234 1.08667 0.37504
 C1516 C 0.45471 1.07515 0.36371
 C1517 C 0.44804 1.08160 0.34299
 H1518 H 0.45628 1.09475 0.33490
 O1519 O 0.52017 0.92289 0.39282
 O1520 O 0.51976 0.89781 0.36751
 C1521 C 0.52736 0.91528 0.37518
 C1522 C 0.54520 0.92646 0.36385
 C1523 C 0.55258 0.91883 0.34384
 H1524 H 0.54430 0.90548 0.33613
 O1525 O 0.60765 0.97858 0.42204
 O1526 O 0.63294 0.97852 0.39700
 C1527 C 0.62527 0.97121 0.41457
 C1528 C 0.63670 0.95368 0.42624
 C1529 C 0.65737 0.94699 0.41976
 H1530 H 0.66519 0.95497 0.40631
 O1531 O 0.39249 1.02320 0.42258
 O1532 O 0.36740 1.02374 0.39733
 C1533 C 0.37512 1.03097 0.41491
 C1534 C 0.36416 1.04902 0.42623
 C1535 C 0.34446 1.05716 0.41852
 H1536 H 0.33672 1.04945 0.40487
 O1537 O 0.42338 1.10946 0.47924
 O1538 O 0.39873 1.13524 0.47936
 C1539 C 0.41614 1.12726 0.47196
 C1540 C 0.42787 1.13849 0.45440
 C1541 C 0.42147 1.15919 0.44752
 H1542 H 0.40831 1.16737 0.45563
 O1543 O 0.57784 0.89219 0.47847
 O1544 O 0.60275 0.86667 0.47828
 C1545 C 0.58527 0.87458 0.47095
 C1546 C 0.57370 0.86361 0.45311
 C1547 C 0.58129 0.84388 0.44473
 H1548 H 0.59543 0.83628 0.45171
 O1549 O 0.57824 1.02099 0.39251
 O1550 O 0.60321 1.02073 0.36716
 C1551 C 0.58573 1.02824 0.37486
 C1552 C 0.57419 1.04588 0.36344
 C1553 C 0.58091 1.05269 0.34289
 H1554 H 0.59449 1.04476 0.33523
 O1555 O 0.42126 0.98049 0.39296
 O1556 O 0.39618 0.98084 0.36768
 C1557 C 0.41360 0.97317 0.37540
 C1558 C 0.42480 0.95519 0.36424
 C1559 C 0.41701 0.94712 0.34450
 H1560 H 0.40289 0.95438 0.33713
 O1561 O 0.52220 1.10797 0.42209
 O1562 O 0.52257 1.13331 0.39701
 C1563 C 0.52983 1.12549 0.41456
 C1564 C 0.54766 1.13649 0.42611
 C1565 C 0.55571 1.15643 0.41877
 H1566 H 0.54854 1.16411 0.40477
 O1567 O 0.47798 0.89338 0.42247
 O1568 O 0.47779 0.86815 0.39732
 C1569 C 0.47052 0.87581 0.41489
 C1570 C 0.45287 0.86447 0.42637
 C1571 C 0.44595 0.84395 0.41955
 H1572 H 0.45384 0.83627 0.40597
 O1573 O 0.60826 1.07722 0.47945
 O1574 O 0.63364 1.10223 0.47954
 C1575 C 0.62585 1.08475 0.47206
 C1576 C 0.63696 1.07342 0.45415
 C1577 C 0.65676 1.08110 0.44622
 H1578 H 0.66446 1.09482 0.45390
 O1579 O 0.39094 0.92345 0.47851
 O1580 O 0.36557 0.89843 0.47839
 C1581 C 0.37333 0.91599 0.47108
 C1582 C 0.36218 0.92763 0.45337
 C1583 C 0.34237 0.92013 0.44520
 H1584 H 0.33484 0.90598 0.45226
 Cu1585 Cu 0.49911 0.91070 0.41022
 Cu1586 Cu 0.49873 0.88051 0.37991
 Cu1587 Cu 0.50091 1.09101 0.40981
 Cu1588 Cu 0.50120 1.12136 0.37965
 Cu1589 Cu 0.40936 1.00178 0.41027
 Cu1590 Cu 0.37924 1.00234 0.37994
 Cu1591 Cu 0.59042 0.99978 0.40978
 Cu1592 Cu 0.62060 0.99959 0.37954
 C1593 C 0.44274 0.94520 0.37396
 H1594 H 0.44860 0.95107 0.38936
 C1595 C 0.42687 0.92919 0.33461
 C1596 C 0.55688 1.05658 0.37344
 H1597 H 0.55180 1.05160 0.38941
 C1598 C 0.57059 1.07002 0.33236
 C1599 C 0.37201 0.94568 0.44370
 H1600 H 0.38744 0.95135 0.44970
 C1601 C 0.33263 0.93027 0.42738
 C1602 C 0.62720 1.05560 0.44402
 H1603 H 0.61174 1.04982 0.44980
 C1604 C 0.66668 1.07131 0.42832
 C1605 C 0.44220 0.87454 0.44363
 H1606 H 0.44728 0.89050 0.44876
 C1607 C 0.42855 0.83350 0.42973
 C1608 C 0.55746 1.12648 0.44400
 H1609 H 0.55156 1.11096 0.44957
 C1610 C 0.57352 1.16616 0.42892
 C1611 C 0.44402 1.05789 0.37390
 H1612 H 0.44887 1.05303 0.38999
 C1613 C 0.43097 1.07094 0.33251
 C1614 C 0.55576 0.94403 0.37354
 H1615 H 0.55029 0.94983 0.38909
 C1616 C 0.57061 0.92819 0.33373
 C1617 C 0.55564 0.87352 0.44352
 H1618 H 0.54987 0.88888 0.44968
 C1619 C 0.57124 0.83432 0.42678
 C1620 C 0.44514 1.12817 0.44388
 H1621 H 0.44996 1.11209 0.44890
 C1622 C 0.43210 1.16952 0.43034
 C1623 C 0.37392 1.05897 0.44411
 H1624 H 0.38929 1.05296 0.44995
 C1625 C 0.33468 1.07525 0.42819
 C1626 C 0.62661 0.94300 0.44350
 H1627 H 0.61057 0.94794 0.44843
 C1628 C 0.66786 0.92972 0.43019
 O1629 O 0.52041 0.92172 0.60663
 O1630 O 0.52011 0.89634 0.63166
 C1631 C 0.52769 0.91390 0.62414
 C1632 C 0.54556 0.92499 0.63555
 C1633 C 0.55305 0.91716 0.65546
 H1634 H 0.54505 0.90352 0.66297
 O1635 O 0.47971 1.07811 0.60829
 O1636 O 0.47994 1.10327 0.63351
 C1637 C 0.47235 1.08580 0.62581
 C1638 C 0.45437 1.07461 0.63692
 C1639 C 0.44628 1.08242 0.65662
 H1640 H 0.45364 1.09642 0.66414
 O1641 O 0.39283 1.02266 0.57773
 O1642 O 0.36761 1.02286 0.60284
 C1643 C 0.37541 1.03031 0.58538
 C1644 C 0.36444 1.04845 0.57417
 C1645 C 0.34481 1.05664 0.58199
 H1646 H 0.33716 1.04904 0.59576
 O1647 O 0.60760 0.97802 0.57790
 O1648 O 0.63290 0.97768 0.60297
 C1649 C 0.62521 0.97054 0.58534
 C1650 C 0.63656 0.95307 0.57357
 C1651 C 0.65725 0.94637 0.57998
 H1652 H 0.66513 0.95432 0.59342
 O1653 O 0.57757 0.89202 0.52049
 O1654 O 0.60236 0.86638 0.52046
 C1655 C 0.58482 0.87422 0.52772
 C1656 C 0.57291 0.86281 0.54505
 C1657 C 0.57921 0.84204 0.55176
 H1658 H 0.59269 0.83409 0.54394
 O1659 O 0.42346 1.10928 0.52134
 O1660 O 0.39882 1.13506 0.52151
 C1661 C 0.41626 1.12702 0.52878
 C1662 C 0.42808 1.13807 0.54641
 C1663 C 0.42185 1.15880 0.55336
 H1664 H 0.40885 1.16715 0.54513
 O1665 O 0.42172 0.97975 0.60705
 O1666 O 0.39655 0.97977 0.63220
 C1667 C 0.41402 0.97224 0.62451
 C1668 C 0.42523 0.95416 0.63556
 C1669 C 0.41747 0.94599 0.65526
 H1670 H 0.40348 0.95333 0.66279
 O1671 O 0.57831 1.02014 0.60783
 O1672 O 0.60331 1.01961 0.63319
 C1673 C 0.58585 1.02723 0.62553
 C1674 C 0.57441 1.04485 0.63703
 C1675 C 0.58144 1.05179 0.65742
 H1676 H 0.59519 1.04396 0.66491
 O1677 O 0.47804 0.89262 0.57687
 O1678 O 0.47782 0.86710 0.60176
 C1679 C 0.47054 0.87498 0.58427
 C1680 C 0.45289 0.86382 0.57263
 C1681 C 0.44615 0.84305 0.57892
 H1682 H 0.45445 0.83478 0.59193
 O1683 O 0.52219 1.10712 0.57871
 O1684 O 0.52253 1.13239 0.60383
 C1685 C 0.52970 1.12469 0.58622
 C1686 C 0.54717 1.13605 0.57450
 C1687 C 0.55396 1.15671 0.58103
 H1688 H 0.54612 1.16453 0.59457
 O1689 O 0.39114 0.92358 0.52056
 O1690 O 0.36566 0.89868 0.52058
 C1691 C 0.37346 0.91624 0.52788
 C1692 C 0.36218 0.92809 0.54533
 C1693 C 0.34139 0.92192 0.55196
 H1694 H 0.33333 0.90859 0.54397
 O1695 O 0.60817 1.07711 0.52165
 O1696 O 0.63345 1.10222 0.52176
 C1697 C 0.62570 1.08468 0.52914
 C1698 C 0.63681 1.07337 0.54708
 C1699 C 0.65634 1.08137 0.55532
 H1700 H 0.66385 1.09531 0.54783
 O1701 O 0.52184 1.07751 0.60835
 O1702 O 0.52215 1.10261 0.63364
 C1703 C 0.52928 1.08492 0.62597
 C1704 C 0.54674 1.07307 0.63728
 C1705 C 0.55392 1.07972 0.65774
 H1706 H 0.54593 1.09308 0.66577
 O1707 O 0.47822 0.92219 0.60646
 O1708 O 0.47790 0.89678 0.63144
 C1709 C 0.47068 0.91449 0.62389
 C1710 C 0.45292 0.92591 0.63516
 C1711 C 0.44488 0.91797 0.65479
 H1712 H 0.45237 0.90398 0.66223
 O1713 O 0.60804 1.02020 0.57851
 O1714 O 0.63318 1.01993 0.60373
 C1715 C 0.62559 1.02750 0.58623
 C1716 C 0.63686 1.04540 0.57500
 C1717 C 0.65647 1.05361 0.58297
 H1718 H 0.66381 1.04642 0.59714
 O1719 O 0.39196 0.98040 0.57764
 O1720 O 0.36666 0.98060 0.60266
 C1721 C 0.37423 0.97326 0.58507
 C1722 C 0.36259 0.95593 0.57336
 C1723 C 0.34185 0.94943 0.57986
 H1724 H 0.33394 0.95766 0.59312
 O1725 O 0.57890 1.10707 0.52157
 O1726 O 0.60410 1.13227 0.52160
 C1727 C 0.58651 1.12467 0.52894
 C1728 C 0.57499 1.13608 0.54653
 C1729 C 0.58165 1.15671 0.55338
 H1730 H 0.59489 1.16473 0.54524
 O1731 O 0.42046 0.89366 0.52050
 O1732 O 0.39522 0.86851 0.52056
 C1733 C 0.41291 0.87601 0.52778
 C1734 C 0.42470 0.86432 0.54501
 C1735 C 0.41825 0.84352 0.55145
 H1736 H 0.40467 0.83581 0.54355
 O1737 O 0.57812 0.97795 0.60752
 O1738 O 0.60323 0.97734 0.63276
 C1739 C 0.58560 0.97025 0.62501
 C1740 C 0.57390 0.95251 0.63605
 C1741 C 0.58115 0.94445 0.65600
 H1742 H 0.59517 0.95156 0.66367
 O1743 O 0.42214 1.02199 0.60752
 O1744 O 0.39700 1.02207 0.63270
 C1745 C 0.41461 1.02935 0.62511
 C1746 C 0.42611 1.04700 0.63649
 C1747 C 0.41823 1.05508 0.65614
 H1748 H 0.40424 1.04764 0.66354
 O1749 O 0.48013 1.10768 0.57869
 O1750 O 0.48047 1.13298 0.60377
 C1751 C 0.47306 1.12545 0.58618
 C1752 C 0.45582 1.13725 0.57449
 C1753 C 0.44931 1.15793 0.58126
 H1754 H 0.45713 1.16536 0.59501
 O1755 O 0.52019 0.89225 0.57692
 O1756 O 0.51991 0.86677 0.60185
 C1757 C 0.52737 0.87449 0.58438
 C1758 C 0.54487 0.86299 0.57281
 C1759 C 0.55149 0.84226 0.57939
 H1760 H 0.54324 0.83426 0.59257
 O1761 O 0.60753 0.92122 0.52080
 O1762 O 0.63256 0.89581 0.52086
 C1763 C 0.62504 0.91347 0.52821
 C1764 C 0.63647 0.92502 0.54576
 C1765 C 0.65713 0.91843 0.55250
 H1766 H 0.66513 0.90515 0.54437
 O1767 O 0.39341 1.08017 0.52124
 O1768 O 0.36859 1.10578 0.52145
 C1769 C 0.37598 1.08801 0.52871
 C1770 C 0.36461 1.07662 0.54641
 C1771 C 0.34488 1.08449 0.55442
 H1772 H 0.33754 1.09868 0.54721
 Cu1773 Cu 0.49925 0.90974 0.58922
 Cu1774 Cu 0.49891 0.87922 0.61921
 Cu1775 Cu 0.50095 1.09006 0.59102
 Cu1776 Cu 0.50132 1.12033 0.62124
 Cu1777 Cu 0.40824 0.91111 0.49953
 Cu1778 Cu 0.37784 0.88102 0.49954
 Cu1779 Cu 0.59017 0.90928 0.49964
 Cu1780 Cu 0.62011 0.87867 0.49960
 Cu1781 Cu 0.41085 1.09227 0.50024
 Cu1782 Cu 0.38116 1.12310 0.50041
 Cu1783 Cu 0.59101 1.08957 0.50053
 Cu1784 Cu 0.62138 1.11969 0.50061
 Cu1785 Cu 0.40968 1.00116 0.58998
 Cu1786 Cu 0.37943 1.00132 0.62013
 Cu1787 Cu 0.59051 0.99912 0.59042
 Cu1788 Cu 0.62068 0.99857 0.62070
 C1789 C 0.55596 0.94279 0.62607
 H1790 H 0.55047 0.94871 0.61056
 C1791 C 0.57086 0.92672 0.66577
 C1792 C 0.44430 1.05676 0.62711
 H1793 H 0.45023 1.05085 0.61177
 C1794 C 0.42814 1.07282 0.66627
 C1795 C 0.37413 1.05845 0.55626
 H1796 H 0.38948 1.05246 0.55038
 C1797 C 0.33495 1.07466 0.57227
 C1798 C 0.62641 0.94246 0.55630
 H1799 H 0.61036 0.94743 0.55140
 C1800 C 0.66769 0.92914 0.56950
 C1801 C 0.55558 0.87304 0.55553
 H1802 H 0.55076 0.88915 0.55058
 C1803 C 0.56857 0.83163 0.56888
 C1804 C 0.44523 1.12754 0.55694
 H1805 H 0.44997 1.11147 0.55183
 C1806 C 0.43240 1.16889 0.57075
 C1807 C 0.44310 0.94412 0.62577
 H1808 H 0.44899 0.95011 0.61044
 C1809 C 0.42713 0.92783 0.66491
 C1810 C 0.55694 1.05547 0.62718
 H1811 H 0.55165 1.05041 0.61130
 C1812 C 0.57126 1.06916 0.66798
 C1813 C 0.44217 0.87423 0.55555
 H1814 H 0.44711 0.89036 0.55080
 C1815 C 0.42892 0.83274 0.56835
 C1816 C 0.55764 1.12598 0.55709
 H1817 H 0.55261 1.10996 0.55210
 C1818 C 0.57111 1.16719 0.57053
 C1819 C 0.37253 0.94526 0.55599
 H1820 H 0.38864 0.94998 0.55110
 C1821 C 0.33108 0.93254 0.56916
 C1822 C 0.62729 1.05527 0.55691
 H1823 H 0.61203 1.04924 0.55086
 C1824 C 0.66624 1.07168 0.57329
 O1825 O 0.47729 0.42229 0.89261
 O1826 O 0.47699 0.39723 0.86728
 C1827 C 0.46988 0.41491 0.87497
 C1828 C 0.45251 0.42686 0.86362
 C1829 C 0.44567 0.42053 0.84294
 H1830 H 0.45370 0.40724 0.83485
 O1831 O 0.52098 0.57783 0.89228
 O1832 O 0.52122 0.60308 0.86713
 C1833 C 0.52838 0.58536 0.87471
 C1834 C 0.54580 0.57356 0.86330
 C1835 C 0.55273 0.58014 0.84273
 H1836 H 0.54475 0.59354 0.83475
 O1837 O 0.39166 0.48006 0.92256
 O1838 O 0.36620 0.48015 0.89766
 C1839 C 0.37395 0.47278 0.91518
 C1840 C 0.36254 0.45531 0.92695
 C1841 C 0.34190 0.44848 0.92044
 H1842 H 0.33391 0.45651 0.90709
 O1843 O 0.60720 0.52020 0.92179
 O1844 O 0.63228 0.51995 0.89656
 C1845 C 0.62476 0.52748 0.91409
 C1846 C 0.63610 0.54531 0.92537
 C1847 C 0.65580 0.55340 0.91749
 H1848 H 0.66315 0.54616 0.90337
 O1849 O 0.42066 0.39312 0.97959
 O1850 O 0.39525 0.36815 0.97967
 C1851 C 0.41282 0.37564 0.97218
 C1852 C 0.42392 0.36428 0.95428
 C1853 C 0.41619 0.34433 0.94672
 H1854 H 0.40272 0.33668 0.95483
 O1855 O 0.57826 0.60684 0.97917
 O1856 O 0.60343 0.63207 0.97912
 C1857 C 0.58579 0.62450 0.97187
 C1858 C 0.57408 0.63605 0.95451
 C1859 C 0.58035 0.65694 0.94815
 H1860 H 0.59346 0.66500 0.95648
 O1861 O 0.42114 0.52215 0.89276
 O1862 O 0.39575 0.52247 0.86780
 C1863 C 0.41343 0.52969 0.87530
 C1864 C 0.42492 0.54743 0.86402
 C1865 C 0.41722 0.55560 0.84427
 H1866 H 0.40302 0.54852 0.83689
 O1867 O 0.57696 0.47820 0.89267
 O1868 O 0.60192 0.47785 0.86730
 C1869 C 0.58431 0.47071 0.87506
 C1870 C 0.57246 0.45328 0.86372
 C1871 C 0.57901 0.44638 0.84317
 H1872 H 0.59271 0.45408 0.83549
 O1873 O 0.51898 0.39217 0.92227
 O1874 O 0.51870 0.36686 0.89719
 C1875 C 0.52613 0.37444 0.91476
 C1876 C 0.54359 0.36285 0.92635
 C1877 C 0.55041 0.34230 0.91950
 H1878 H 0.54253 0.33466 0.90587
 O1879 O 0.47932 0.60783 0.92208
 O1880 O 0.47956 0.63330 0.89714
 C1881 C 0.47220 0.62564 0.91469
 C1882 C 0.45492 0.63727 0.92645
 C1883 C 0.44837 0.65804 0.91998
 H1884 H 0.45629 0.66584 0.90648
 O1885 O 0.39279 0.57930 0.97955
 O1886 O 0.36778 0.60472 0.97961
 C1887 C 0.37518 0.58698 0.97233
 C1888 C 0.36353 0.57533 0.95499
 C1889 C 0.34278 0.58187 0.94847
 H1890 H 0.33485 0.59510 0.95675
 O1891 O 0.60598 0.42100 0.97893
 O1892 O 0.63089 0.39548 0.97875
 C1893 C 0.62343 0.41320 0.97148
 C1894 C 0.63484 0.42452 0.95376
 C1895 C 0.65476 0.41679 0.94622
 H1896 H 0.66232 0.40317 0.95424
 O1897 O 0.47878 0.57821 0.89259
 O1898 O 0.47893 0.60354 0.86752
 C1899 C 0.47133 0.58604 0.87515
 C1900 C 0.45324 0.57500 0.86402
 C1901 C 0.44528 0.58295 0.84434
 H1902 H 0.45306 0.59667 0.83675
 O1903 O 0.51937 0.42168 0.89260
 O1904 O 0.51913 0.39657 0.86733
 C1905 C 0.52665 0.41408 0.87500
 C1906 C 0.54431 0.42556 0.86365
 C1907 C 0.55108 0.41891 0.84305
 H1908 H 0.54278 0.40577 0.83502
 O1909 O 0.60681 0.47795 0.92190
 O1910 O 0.63193 0.47756 0.89670
 C1911 C 0.62425 0.47028 0.91427
 C1912 C 0.63529 0.45235 0.92572
 C1913 C 0.65515 0.44423 0.91826
 H1914 H 0.66266 0.45141 0.90421
 O1915 O 0.39208 0.52225 0.92277
 O1916 O 0.36653 0.52239 0.89797
 C1917 C 0.37442 0.52969 0.91545
 C1918 C 0.36319 0.54726 0.92721
 C1919 C 0.34251 0.55404 0.92089
 H1920 H 0.33462 0.54616 0.90741
 O1921 O 0.42277 0.60852 0.97926
 O1922 O 0.39794 0.63411 0.97928
 C1923 C 0.41539 0.62623 0.97191
 C1924 C 0.42704 0.63749 0.95435
 C1925 C 0.42064 0.65823 0.94759
 H1926 H 0.40750 0.66638 0.95577
 O1927 O 0.57618 0.39152 0.97905
 O1928 O 0.60099 0.36591 0.97888
 C1929 C 0.58348 0.37380 0.97164
 C1930 C 0.57169 0.36256 0.95409
 C1931 C 0.57834 0.34203 0.94694
 H1932 H 0.59169 0.33395 0.95487
 O1933 O 0.57745 0.52037 0.89240
 O1934 O 0.60238 0.52004 0.86701
 C1935 C 0.58492 0.52758 0.87472
 C1936 C 0.57337 0.54520 0.86330
 C1937 C 0.57999 0.55194 0.84269
 H1938 H 0.59344 0.54390 0.83490
 O1939 O 0.42113 0.47996 0.89290
 O1940 O 0.39586 0.48020 0.86780
 C1941 C 0.41346 0.47274 0.87531
 C1942 C 0.42496 0.45520 0.86378
 C1943 C 0.41837 0.44869 0.84310
 H1944 H 0.40493 0.45681 0.83535
 O1945 O 0.52134 0.60720 0.92215
 O1946 O 0.52157 0.63265 0.89719
 C1947 C 0.52877 0.62486 0.91476
 C1948 C 0.54615 0.63623 0.92662
 C1949 C 0.55254 0.65717 0.92057
 H1950 H 0.54448 0.66522 0.90728
 O1951 O 0.47686 0.39257 0.92204
 O1952 O 0.47647 0.36734 0.89690
 C1953 C 0.46921 0.37509 0.91445
 C1954 C 0.45138 0.36401 0.92595
 C1955 C 0.44327 0.34413 0.91849
 H1956 H 0.45033 0.33668 0.90434
 O1957 O 0.60760 0.57702 0.97878
 O1958 O 0.63289 0.60212 0.97860
 C1959 C 0.62509 0.58460 0.97122
 C1960 C 0.63613 0.57327 0.95328
 C1961 C 0.65576 0.58113 0.94516
 H1962 H 0.66336 0.59497 0.95273
 O1963 O 0.39158 0.42323 0.97989
 O1964 O 0.36602 0.39841 0.98009
 C1965 C 0.37383 0.41592 0.97269
 C1966 C 0.36245 0.42766 0.95520
 C1967 C 0.34179 0.42114 0.94852
 H1968 H 0.33395 0.40768 0.95652
 Cu1969 Cu 0.49815 0.40969 0.90990
 Cu1970 Cu 0.49781 0.37945 0.87966
 Cu1971 Cu 0.50011 0.59021 0.90975
 Cu1972 Cu 0.50037 0.62066 0.87968
 Cu1973 Cu 0.40904 0.50107 0.91023
 Cu1974 Cu 0.37853 0.50130 0.88030
 Cu1975 Cu 0.58963 0.49922 0.90974
 Cu1976 Cu 0.61967 0.49881 0.87937
 C1977 C 0.44218 0.44433 0.87380
 H1978 H 0.44719 0.44912 0.88985
 C1979 C 0.42867 0.43143 0.83252
 C1980 C 0.55612 0.55597 0.87335
 H1981 H 0.55108 0.55100 0.88933
 C1982 C 0.56974 0.56934 0.83225
 C1983 C 0.37259 0.44490 0.94446
 H1984 H 0.38862 0.44987 0.94939
 C1985 C 0.33136 0.43148 0.93121
 C1986 C 0.62652 0.55524 0.94339
 H1987 H 0.61119 0.54932 0.94937
 C1988 C 0.66566 0.57139 0.92724
 C1989 C 0.44167 0.37387 0.94394
 H1990 H 0.44757 0.38937 0.94955
 C1991 C 0.42565 0.33415 0.92876
 C1992 C 0.55687 0.62591 0.94375
 H1993 H 0.55214 0.60969 0.94838
 C1994 C 0.56956 0.66767 0.93130
 C1995 C 0.44307 0.55712 0.87363
 H1996 H 0.44892 0.55113 0.88898
 C1997 C 0.42725 0.57341 0.83438
 C1998 C 0.55497 0.44289 0.87375
 H1999 H 0.55000 0.44795 0.88972
 C2000 C 0.56838 0.42930 0.83263
 C2001 C 0.55419 0.37274 0.94380
 H2002 H 0.54918 0.38870 0.94902
 C2003 C 0.56774 0.33175 0.92971
 C2004 C 0.44430 0.62723 0.94378
 H2005 H 0.44912 0.61112 0.94872
 C2006 C 0.43127 0.66866 0.93049
 C2007 C 0.37348 0.55787 0.94440
 H2008 H 0.38956 0.55289 0.94918
 C2009 C 0.33208 0.57124 0.93149
 C2010 C 0.62536 0.44246 0.94357
 H2011 H 0.60987 0.44835 0.94916
 C2012 C 0.66500 0.42641 0.92840
 O2013 O 0.52059 0.42203 1.10802
 O2014 O 0.52033 0.39690 1.13329
 C2015 C 0.52791 0.41439 1.12559
 C2016 C 0.54587 0.42558 1.13678
 C2017 C 0.55359 0.41791 1.15666
 H2018 H 0.54559 0.40440 1.16439
 O2019 O 0.47985 0.57837 1.10833
 O2020 O 0.48019 0.60354 1.13355
 C2021 C 0.47267 0.58599 1.12596
 C2022 C 0.45506 0.57451 1.13737
 C2023 C 0.44822 0.58118 1.15795
 H2024 H 0.45652 0.59432 1.16599
 O2025 O 0.39274 0.52253 1.07862
 O2026 O 0.36761 0.52284 1.10382
 C2027 C 0.37528 0.53014 1.08626
 C2028 C 0.36416 0.54803 1.07485
 C2029 C 0.34430 0.55608 1.08236
 H2030 H 0.33673 0.54882 1.09634
 O2031 O 0.60759 0.47768 1.07793
 O2032 O 0.63298 0.47745 1.10290
 C2033 C 0.62511 0.47008 1.08544
 C2034 C 0.63604 0.45207 1.07403
 C2035 C 0.65575 0.44375 1.08165
 H2036 H 0.66335 0.45091 1.09567
 O2037 O 0.57640 0.39158 1.02123
 O2038 O 0.60129 0.36604 1.02104
 C2039 C 0.58391 0.37392 1.02860
 C2040 C 0.57277 0.36286 1.04663
 C2041 C 0.58071 0.34320 1.05476
 H2042 H 0.59433 0.33549 1.04694
 O2043 O 0.42306 0.60859 1.02135
 O2044 O 0.39829 0.63425 1.02140
 C2045 C 0.41578 0.62634 1.02870
 C2046 C 0.42752 0.63755 1.04628
 C2047 C 0.42104 0.65820 1.05320
 H2048 H 0.40796 0.66639 1.04494
 O2049 O 0.42211 0.47992 1.10790
 O2050 O 0.39702 0.48012 1.13314
 C2051 C 0.41448 0.47255 1.12545
 C2052 C 0.42568 0.45460 1.13668
 C2053 C 0.41797 0.44691 1.15654
 H2054 H 0.40442 0.45492 1.16418
 O2055 O 0.57850 0.52027 1.10739
 O2056 O 0.60373 0.52010 1.13253
 C2057 C 0.58617 0.52758 1.12494
 C2058 C 0.57471 0.54521 1.13640
 C2059 C 0.58150 0.55191 1.15695
 H2060 H 0.59512 0.54395 1.16453
 O2061 O 0.47827 0.39271 1.07842
 O2062 O 0.47813 0.36732 1.10344
 C2063 C 0.47086 0.37507 1.08586
 C2064 C 0.45333 0.36374 1.07417
 C2065 C 0.44657 0.34305 1.08064
 H2066 H 0.45453 0.33510 1.09405
 O2067 O 0.52195 0.60743 1.07834
 O2068 O 0.52235 0.63282 1.10334
 C2069 C 0.52947 0.62504 1.08574
 C2070 C 0.54694 0.63630 1.07392
 C2071 C 0.55361 0.65710 1.08011
 H2072 H 0.54566 0.66516 1.09345
 O2073 O 0.39157 0.42285 1.02199
 O2074 O 0.36615 0.39789 1.02224
 C2075 C 0.37399 0.41542 1.02952
 C2076 C 0.36292 0.42708 1.04725
 C2077 C 0.34292 0.41984 1.05521
 H2078 H 0.33532 0.40578 1.04809
 O2079 O 0.60794 0.57678 1.02089
 O2080 O 0.63337 0.60174 1.02075
 C2081 C 0.62567 0.58416 1.02808
 C2082 C 0.63716 0.57239 1.04546
 C2083 C 0.65782 0.57892 1.05210
 H2084 H 0.66560 0.59245 1.04415
 O2085 O 0.52193 0.57780 1.10790
 O2086 O 0.52237 0.60297 1.13311
 C2087 C 0.52948 0.58527 1.12543
 C2088 C 0.54700 0.57342 1.13669
 C2089 C 0.55397 0.57984 1.15730
 H2090 H 0.54587 0.59306 1.16542
 O2091 O 0.47842 0.42216 1.10815
 O2092 O 0.47809 0.39694 1.13334
 C2093 C 0.47088 0.41460 1.12566
 C2094 C 0.45320 0.42622 1.13683
 C2095 C 0.44516 0.41868 1.15667
 H2096 H 0.45225 0.40448 1.16410
 O2097 O 0.60812 0.51989 1.07791
 O2098 O 0.63354 0.51976 1.10284
 C2099 C 0.62583 0.52713 1.08531
 C2100 C 0.63724 0.54460 1.07356
 C2101 C 0.65788 0.55145 1.08006
 H2102 H 0.66591 0.54339 1.09336
 O2103 O 0.39248 0.48030 1.07841
 O2104 O 0.36732 0.48060 1.10357
 C2105 C 0.37486 0.47311 1.08603
 C2106 C 0.36337 0.45541 1.07475
 C2107 C 0.34334 0.44808 1.08235
 H2108 H 0.33575 0.45625 1.09581
 O2109 O 0.57869 0.60680 1.02126
 O2110 O 0.60396 0.63192 1.02118
 C2111 C 0.58638 0.62438 1.02858
 C2112 C 0.57490 0.63593 1.04609
 C2113 C 0.58146 0.65668 1.05262
 H2114 H 0.59469 0.66463 1.04438
 O2115 O 0.42109 0.39312 1.02171
 O2116 O 0.39581 0.36801 1.02184
 C2117 C 0.41349 0.37552 1.02907
 C2118 C 0.42517 0.36398 1.04649
 C2119 C 0.41854 0.34333 1.05328
 H2120 H 0.40519 0.33540 1.04522
 O2121 O 0.57834 0.47808 1.10775
 O2122 O 0.60360 0.47783 1.13285
 C2123 C 0.58593 0.47062 1.12530
 C2124 C 0.57431 0.45302 1.13666
 C2125 C 0.58186 0.44503 1.15653
 H2126 H 0.59608 0.45211 1.16386
 O2127 O 0.42250 0.52213 1.10804
 O2128 O 0.39748 0.52231 1.13335
 C2129 C 0.41510 0.52949 1.12569
 C2130 C 0.42690 0.54685 1.13716
 C2131 C 0.42022 0.55377 1.15767
 H2132 H 0.40642 0.54613 1.16523
 O2133 O 0.47986 0.60775 1.07851
 O2134 O 0.48019 0.63310 1.10354
 C2135 C 0.47271 0.62548 1.08601
 C2136 C 0.45527 0.63709 1.07437
 C2137 C 0.44848 0.65769 1.08113
 H2138 H 0.45622 0.66524 1.09488
 O2139 O 0.52036 0.39216 1.07877
 O2140 O 0.52026 0.36692 1.10394
 C2141 C 0.52767 0.37453 1.08639
 C2142 C 0.54537 0.36315 1.07500
 C2143 C 0.55364 0.34352 1.08299
 H2144 H 0.54672 0.33639 1.09737
 O2145 O 0.60635 0.42076 1.02107
 O2146 O 0.63129 0.39527 1.02087
 C2147 C 0.62387 0.41291 1.02836
 C2148 C 0.63536 0.42408 1.04614
 C2149 C 0.65502 0.41597 1.05404
 H2150 H 0.66234 0.40201 1.04641
 O2151 O 0.39323 0.57932 1.02161
 O2152 O 0.36832 0.60485 1.02172
 C2153 C 0.37582 0.58718 1.02909
 C2154 C 0.36452 0.57595 1.04690
 C2155 C 0.34472 0.58377 1.05464
 H2156 H 0.33719 0.59756 1.04686
 Cu2157 Cu 0.49942 0.40980 1.09083
 Cu2158 Cu 0.49915 0.37951 1.12105
 Cu2159 Cu 0.50085 0.59031 1.09078
 Cu2160 Cu 0.50132 0.62065 1.12091
 Cu2161 Cu 0.40877 0.41057 1.00081
 Cu2162 Cu 0.37826 0.38060 1.00097
 Cu2163 Cu 0.58873 0.40876 1.00006
 Cu2164 Cu 0.61861 0.37811 0.99983
 Cu2165 Cu 0.41045 0.59138 1.00040
 Cu2166 Cu 0.38058 0.62206 1.00049
 Cu2167 Cu 0.59059 0.58935 1.00006
 Cu2168 Cu 0.62098 0.61946 0.99993
 Cu2169 Cu 0.40996 0.50123 1.09071
 Cu2170 Cu 0.37983 0.50149 1.12100
 Cu2171 Cu 0.59062 0.49901 1.09024
 Cu2172 Cu 0.62101 0.49880 1.12029
 C2173 C 0.55620 0.44329 1.12702
 H2174 H 0.55052 0.44910 1.11154
 C2175 C 0.57164 0.42743 1.16663
 C2176 C 0.44445 0.55719 1.12725
 H2177 H 0.44948 0.55212 1.11129
 C2178 C 0.43083 0.57084 1.16828
 C2179 C 0.37402 0.55795 1.05699
 H2180 H 0.38947 0.55204 1.05130
 C2181 C 0.33452 0.57401 1.07238
 C2182 C 0.62610 0.44226 1.05613
 H2183 H 0.61076 0.44839 1.05036
 C2184 C 0.66530 0.42564 1.07180
 C2185 C 0.55495 0.37258 1.05673
 H2186 H 0.54892 0.38790 1.05072
 C2187 C 0.57139 0.33347 1.07302
 C2188 C 0.44478 0.62724 1.05683
 H2189 H 0.44972 0.61122 1.05171
 C2190 C 0.43143 0.66843 1.07060
 C2191 C 0.44344 0.44429 1.12706
 H2192 H 0.44930 0.44996 1.11160
 C2193 C 0.42749 0.42889 1.16661
 C2194 C 0.55734 0.55595 1.12648
 H2195 H 0.55221 0.55105 1.11050
 C2196 C 0.57117 0.56912 1.16761
 C2197 C 0.44268 0.37396 1.05694
 H2198 H 0.44767 0.39001 1.05200
 C2199 C 0.42924 0.33269 1.07025
 C2200 C 0.55753 0.62596 1.05675
 H2201 H 0.55258 0.60984 1.05199
 C2202 C 0.57080 0.66744 1.06951
 C2203 C 0.37292 0.44497 1.05704
 H2204 H 0.38850 0.45040 1.05127
 C2205 C 0.33303 0.43022 1.07282
 C2206 C 0.62712 0.55506 1.05613
 H2207 H 0.61108 0.55009 1.05123
 C2208 C 0.66833 0.56853 1.06933
 C2209 C 1.10710 1.10407 1.24577
 C2210 C 1.12679 1.09678 1.25420
 C2211 C 1.13402 1.10458 1.27398
 C2212 C 1.12176 1.11977 1.28580
 C2213 C 1.10184 1.12633 1.27677
 N2214 N 1.09515 1.11837 1.25741
 C2215 C 1.09886 1.09621 1.22477
 N2216 N 1.07717 1.09561 1.22123
 C2217 C 1.06855 1.08821 1.20243
 C2218 C 1.08206 1.08079 1.18579
 C2219 C 1.10447 1.08176 1.18895
 C2220 C 1.11291 1.08947 1.20831
 H2221 H 1.14944 1.09870 1.27956
 H2222 H 1.09130 1.13751 1.28499
 H2223 H 1.05117 1.08774 1.20068
 H2224 H 1.11551 1.07683 1.17633
 H2225 H 1.13649 1.08490 1.24580
 H2226 H 1.13026 1.09042 1.21014
 C2227 C 1.10091 0.59733 0.75098
 C2228 C 1.11256 0.58413 0.76534
 C2229 C 1.12064 0.59292 0.78445
 C2230 C 1.11733 0.61485 0.78933
 C2231 C 1.10560 0.62748 0.77457
 N2232 N 1.09792 0.61857 0.75604
 C2233 C 1.09250 0.58924 0.73006
 N2234 N 1.08718 0.60390 0.71451
 C2235 C 1.07976 0.59791 0.69474
 C2236 C 1.07742 0.57594 0.68958
 C2237 C 1.08241 0.56054 0.70546
 C2238 C 1.08981 0.56707 0.72570
 H2239 H 1.12944 0.58250 0.79539
 H2240 H 1.10293 0.64453 0.77745
 H2241 H 1.07617 0.61032 0.68294
 H2242 H 1.08038 0.54343 0.70227
 H2243 H 1.11593 0.56734 0.76186
 H2244 H 1.09307 0.55481 0.73769
 C2245 C 0.60448 1.09941 0.74947
 C2246 C 0.62006 1.08807 0.76136
 C2247 C 0.62835 1.09706 0.78027
 C2248 C 0.62121 1.11746 0.78765
 C2249 C 0.60551 1.12821 0.77503
 N2250 N 0.59787 1.11913 0.75657
 C2251 C 0.59560 1.09092 0.72897
 N2252 N 0.58834 1.10517 0.71385
 C2253 C 0.58030 1.09865 0.69450
 C2254 C 0.57918 1.07653 0.68940
 C2255 C 0.58614 1.06155 0.70497
 C2256 C 0.59433 1.06864 0.72472
 H2257 H 0.64011 1.08766 0.78908
 H2258 H 0.59955 1.14405 0.77930
 H2259 H 0.57527 1.11080 0.68297
 H2260 H 0.58509 1.04432 0.70196
 H2261 H 0.62619 1.07259 0.75600
 H2262 H 0.59926 1.05675 0.73655
 C2263 C 0.60292 0.59789 1.25020
 C2264 C 0.61780 0.58612 1.26259
 C2265 C 0.62586 0.59495 1.28168
 C2266 C 0.61923 0.61564 1.28872
 C2267 C 0.60415 0.62677 1.27567
 N2268 N 0.59672 0.61783 1.25707
 C2269 C 0.59442 0.58973 1.22941
 N2270 N 0.58762 0.60426 1.21434
 C2271 C 0.57993 0.59811 1.19474
 C2272 C 0.57873 0.57609 1.18929
 C2273 C 0.58524 0.56081 1.20476
 C2274 C 0.59305 0.56753 1.22479
 H2275 H 0.63712 0.58525 1.29082
 H2276 H 0.59855 0.64279 1.27969
 H2277 H 0.57523 0.61047 1.18328
 H2278 H 0.58411 0.54365 1.20146
 H2279 H 0.62360 0.57043 1.25746
 H2280 H 0.59761 0.55541 1.23654
 C2281 C 0.89570 0.89354 1.24631
 C2282 C 0.90332 0.87394 1.25474
 C2283 C 0.89554 0.86649 1.27446
 C2284 C 0.88003 0.87844 1.28615
 C2285 C 0.87308 0.89824 1.27708
 N2286 N 0.88106 0.90517 1.25782
 C2287 C 0.90359 0.90205 1.22543
 N2288 N 0.90414 0.92383 1.22213
 C2289 C 0.91160 0.93269 1.20346
 C2290 C 0.91912 0.91935 1.18671
 C2291 C 0.91814 0.89685 1.18962
 C2292 C 0.91042 0.88816 1.20886
 H2293 H 0.90161 0.85112 1.28009
 H2294 H 0.86165 0.90855 1.28525
 H2295 H 0.91205 0.95013 1.20192
 H2296 H 0.92313 0.88592 1.17691
 H2297 H 0.91542 0.86449 1.24638
 H2298 H 0.90952 0.87076 1.21054
 C2299 C 0.89239 0.39751 0.74783
 C2300 C 0.87268 0.40474 0.75625
 C2301 C 0.86540 0.39676 0.77597
 C2302 C 0.87762 0.38144 0.78768
 C2303 C 0.89759 0.37501 0.77868
 N2304 N 0.90431 0.38312 0.75941
 C2305 C 0.90070 0.40543 0.72687
 N2306 N 0.92241 0.40573 0.72334
 C2307 C 0.93112 0.41301 0.70454
 C2308 C 0.91771 0.42057 0.68785
 C2309 C 0.89528 0.41992 0.69101
 C2310 C 0.88674 0.41237 0.71039
 H2311 H 0.84996 0.40257 0.78157
 H2312 H 0.90813 0.36377 0.78684
 H2313 H 0.94851 0.41324 0.70281
 H2314 H 0.88430 0.42497 0.67837
 H2315 H 0.86300 0.41668 0.74790
 H2316 H 0.86939 0.41165 0.71221
 C2317 C 0.39470 0.89268 0.74470
 C2318 C 0.39878 0.87135 0.75144
 C2319 C 0.39111 0.86428 0.77135
 C2320 C 0.37953 0.87837 0.78483
 C2321 C 0.37597 0.89963 0.77763
 N2322 N 0.38359 0.90616 0.75809
 C2323 C 0.40263 0.90112 0.72375
 N2324 N 0.40469 0.92291 0.72107
 C2325 C 0.41218 0.93183 0.70246
 C2326 C 0.41828 0.91855 0.68513
 C2327 C 0.41586 0.89610 0.68736
 C2328 C 0.40796 0.88734 0.70651
 H2329 H 0.39412 0.84770 0.77606
 H2330 H 0.36742 0.91115 0.78759
 H2331 H 0.41377 0.94923 0.70137
 H2332 H 0.41983 0.88532 0.67417
 H2333 H 0.40809 0.86021 0.74174
 H2334 H 0.40582 0.87002 0.70750
 C2335 C 0.39313 0.39748 1.24710
 C2336 C 0.37344 0.40483 1.25543
 C2337 C 0.36614 0.39706 1.27520
 C2338 C 0.37833 0.38184 1.28709
 C2339 C 0.39829 0.37527 1.27816
 N2340 N 0.40503 0.38318 1.25882
 C2341 C 0.40144 0.40524 1.22610
 N2342 N 0.42315 0.40570 1.22262
 C2343 C 0.43184 0.41296 1.20380
 C2344 C 0.41840 0.42037 1.18708
 C2345 C 0.39597 0.41953 1.19018
 C2346 C 0.38746 0.41198 1.20956
 H2347 H 0.35071 0.40298 1.28072
 H2348 H 0.40879 0.36408 1.28644
 H2349 H 0.44922 0.41333 1.20210
 H2350 H 0.38498 0.42447 1.17750
 H2351 H 0.36379 0.41672 1.24697
 H2352 H 0.37010 0.41113 1.21134
 C2353 C 0.90117 1.10053 0.74953
 C2354 C 0.91323 1.11513 0.73713
 C2355 C 0.90455 1.12349 0.71812
 C2356 C 0.88368 1.11751 0.71114
 C2357 C 0.87223 1.10268 0.72419
 N2358 N 0.88106 1.09491 0.74274
 C2359 C 0.90931 1.09181 0.77026
 N2360 N 0.89485 1.08551 0.78556
 C2361 C 0.90107 1.07791 0.80520
 C2362 C 0.92309 1.07636 0.81045
 C2363 C 0.93827 1.08228 0.79472
 C2364 C 0.93149 1.08993 0.77465
 H2365 H 0.91454 1.13447 0.70899
 H2366 H 0.85608 1.09755 0.72018
 H2367 H 0.88880 1.07362 0.81685
 H2368 H 0.95541 1.08083 0.79788
 H2369 H 0.92906 1.12051 0.74219
 H2370 H 0.94355 1.09405 0.76273
 C2371 C 0.89843 0.59773 0.24950
 C2372 C 0.88672 0.58464 0.23510
 C2373 C 0.87857 0.59355 0.21607
 C2374 C 0.88185 0.61550 0.21129
 C2375 C 0.89358 0.62804 0.22611
 N2376 N 0.90135 0.61900 0.24455
 C2377 C 0.90701 0.58950 0.27030
 N2378 N 0.91260 0.60407 0.28582
 C2379 C 0.92023 0.59797 0.30548
 C2380 C 0.92249 0.57596 0.31057
 C2381 C 0.91721 0.56064 0.29472
 C2382 C 0.90962 0.56730 0.27458
 H2383 H 0.86977 0.58320 0.20509
 H2384 H 0.89624 0.64510 0.22333
 H2385 H 0.92403 0.61031 0.31727
 H2386 H 0.91916 0.54351 0.29786
 H2387 H 0.88339 0.56782 0.23849
 H2388 H 0.90614 0.55509 0.26261
 C2389 C 0.39985 1.09903 0.24942
 C2390 C 0.38814 1.08575 0.23520
 C2391 C 0.37975 1.09448 0.21620
 C2392 C 0.38278 1.11643 0.21127
 C2393 C 0.39459 1.12915 0.22589
 N2394 N 0.40258 1.12029 0.24432
 C2395 C 0.40855 1.09099 0.27026
 N2396 N 0.41395 1.10568 0.28573
 C2397 C 0.42151 1.09973 0.30547
 C2398 C 0.42386 1.07776 0.31068
 C2399 C 0.41883 1.06234 0.29487
 C2400 C 0.41133 1.06884 0.27465
 H2401 H 0.37092 1.08399 0.20537
 H2402 H 0.39707 1.14621 0.22297
 H2403 H 0.42514 1.11215 0.31723
 H2404 H 0.42087 1.04523 0.29810
 H2405 H 0.38496 1.06893 0.23873
 H2406 H 0.40802 1.05654 0.26271
 C2407 C 0.39500 0.60833 0.75427
 C2408 C 0.39951 0.62944 0.74719
 C2409 C 0.39176 0.63644 0.72726
 C2410 C 0.37966 0.62248 0.71410
 C2411 C 0.37569 0.60142 0.72165
 N2412 N 0.38340 0.59496 0.74119
 C2413 C 0.40296 0.59997 0.77528
 N2414 N 0.40446 0.57818 0.77828
 C2415 C 0.41189 0.56932 0.79697
 C2416 C 0.41852 0.58267 0.81406
 C2417 C 0.41671 0.60514 0.81149
 C2418 C 0.40886 0.61384 0.79226
 H2419 H 0.39511 0.65287 0.72229
 H2420 H 0.36673 0.58998 0.71194
 H2421 H 0.41302 0.55189 0.79831
 H2422 H 0.42109 0.61600 0.82448
 H2423 H 0.40921 0.64047 0.75663
 H2424 H 0.40719 0.63121 0.79103
 C2425 C 1.10439 0.89013 0.75487
 C2426 C 1.10177 0.86849 0.74840
 C2427 C 1.10991 0.86172 0.72855
 C2428 C 1.12046 0.87639 0.71485
 C2429 C 1.12261 0.89791 0.72182
 N2430 N 1.11459 0.90413 0.74129
 C2431 C 1.09591 0.89838 0.77571
 N2432 N 1.09366 0.92015 0.77839
 C2433 C 1.08590 0.92902 0.79691
 C2434 C 1.07972 0.91571 0.81419
 C2435 C 1.08215 0.89327 0.81192
 C2436 C 1.09033 0.88456 0.79286
 H2437 H 1.10801 0.84492 0.72406
 H2438 H 1.13032 0.90988 0.71171
 H2439 H 1.08427 0.94643 0.79801
 H2440 H 1.07808 0.88247 0.82507
 H2441 H 1.09327 0.85683 0.75821
 H2442 H 1.09253 0.86724 0.79193
 C2443 C 1.10192 0.39103 0.25396
 C2444 C 1.09836 0.36965 0.24707
 C2445 C 1.10640 0.36286 0.22718
 C2446 C 1.11781 0.37726 0.21389
 C2447 C 1.12071 0.39858 0.22121
 N2448 N 1.11279 0.40481 0.24070
 C2449 C 1.09386 0.39924 0.27496
 N2450 N 1.09221 0.42102 0.27795
 C2451 C 1.08495 0.42985 0.29670
 C2452 C 1.07871 0.41647 0.31390
 C2453 C 1.08060 0.39400 0.31133
 C2454 C 1.08824 0.38534 0.29202
 H2455 H 1.10384 0.34624 0.22236
 H2456 H 1.12904 0.41038 0.21139
 H2457 H 1.08373 0.44727 0.29801
 H2458 H 1.07648 0.38313 0.32440
 H2459 H 1.08927 0.35824 0.25665
 H2460 H 1.09000 0.36798 0.29081
 C2461 C 0.60090 0.89415 0.25263
 C2462 C 0.59283 0.87498 0.24367
 C2463 C 0.60072 0.86770 0.22391
 C2464 C 0.61683 0.87936 0.21277
 C2465 C 0.62406 0.89884 0.22228
 N2466 N 0.61599 0.90559 0.24154
 C2467 C 0.59321 0.90235 0.27369
 N2468 N 0.59352 0.92404 0.27760
 C2469 C 0.58658 0.93265 0.29657
 C2470 C 0.57876 0.91914 0.31305
 C2471 C 0.57879 0.89671 0.30949
 C2472 C 0.58596 0.88828 0.28992
 H2473 H 0.59433 0.85263 0.21787
 H2474 H 0.63588 0.90900 0.21450
 H2475 H 0.58681 0.95004 0.29858
 H2476 H 0.57354 0.88562 0.32195
 H2477 H 0.58036 0.86572 0.25167
 H2478 H 0.58617 0.87091 0.28775
 C2479 C 0.60070 0.40003 0.75052
 C2480 C 0.61598 0.41180 0.73870
 C2481 C 0.62457 0.40309 0.71983
 C2482 C 0.61810 0.38249 0.71240
 C2483 C 0.60263 0.37131 0.72490
 N2484 N 0.59466 0.38015 0.74334
 C2485 C 0.59167 0.40823 0.77106
 N2486 N 0.58478 0.39378 0.78615
 C2487 C 0.57693 0.40008 0.80566
 C2488 C 0.57573 0.42214 0.81097
 C2489 C 0.58221 0.43731 0.79541
 C2490 C 0.59011 0.43046 0.77548
 H2491 H 0.63609 0.41285 0.71112
 H2492 H 0.59714 0.35534 0.72055
 H2493 H 0.57219 0.38781 0.81718
 H2494 H 0.58105 0.45450 0.79860
 H2495 H 0.62169 0.42742 0.74412
 H2496 H 0.59471 0.44251 0.76368
 C2497 C 1.25070 1.09907 1.10121
 C2498 C 1.26256 1.08753 1.11667
 C2499 C 1.28144 1.09639 1.12512
 C2500 C 1.28885 1.11690 1.11834
 C2501 C 1.27634 1.12782 1.10267
 N2502 N 1.25788 1.11886 1.09485
 C2503 C 1.23012 1.09072 1.09235
 N2504 N 1.21497 1.10505 1.08529
 C2505 C 1.19545 1.09862 1.07754
 C2506 C 1.19018 1.07653 1.07662
 C2507 C 1.20577 1.06147 1.08334
 C2508 C 1.22571 1.06846 1.09115
 H2509 H 1.29017 1.08679 1.13678
 H2510 H 1.28070 1.14371 1.09692
 H2511 H 1.18390 1.11082 1.07263
 H2512 H 1.20262 1.04426 1.08241
 H2513 H 1.25716 1.07200 1.12263
 H2514 H 1.23755 1.05649 1.09592
 C2515 C 1.24630 0.60628 0.60409
 C2516 C 1.25511 0.62541 0.59579
 C2517 C 1.27484 0.63289 0.60354
 C2518 C 1.28616 0.62146 0.61972
 C2519 C 1.27669 0.60213 0.62739
 N2520 N 1.25745 0.59514 0.61941
 C2521 C 1.22542 0.59777 0.59619
 N2522 N 1.22191 0.57602 0.59617
 C2523 C 1.20325 0.56717 0.58866
 C2524 C 1.18671 0.58048 0.58056
 C2525 C 1.18983 0.60297 0.58098
 C2526 C 1.20908 0.61165 0.58875
 H2527 H 1.28075 0.64791 0.59692
 H2528 H 1.28459 0.59224 0.63939
 H2529 H 1.20154 0.54975 0.58864
 H2530 H 1.17729 0.61391 0.57554
 H2531 H 1.24704 0.63445 0.58318
 H2532 H 1.21093 0.62905 0.58920
 C2533 C 0.74551 1.10743 0.60648
 C2534 C 0.75209 1.12881 0.60248
 C2535 C 0.77199 1.13597 0.61017
 C2536 C 0.78559 1.12192 0.62168
 C2537 C 0.77851 1.10062 0.62520
 N2538 N 0.75901 1.09400 0.61756
 C2539 C 0.72465 1.09884 0.59842
 N2540 N 0.72213 1.07703 0.59644
 C2541 C 0.70363 1.06796 0.58878
 C2542 C 0.68629 1.08111 0.58239
 C2543 C 0.68834 1.10358 0.58474
 C2544 C 0.70736 1.11249 0.59283
 H2545 H 0.77661 1.15258 0.60719
 H2546 H 0.78858 1.08912 0.63370
 H2547 H 0.70267 1.05054 0.58727
 H2548 H 0.67512 1.11427 0.58054
 H2549 H 0.74232 1.13993 0.59320
 H2550 H 0.70820 1.12983 0.59488
 C2551 C 0.75079 0.60061 1.09821
 C2552 C 0.76504 0.61257 1.08519
 C2553 C 0.78398 0.62090 1.09410
 C2554 C 0.78883 0.61754 1.11597
 C2555 C 0.77414 0.60559 1.12845
 N2556 N 0.75577 0.59765 1.11942
 C2557 C 0.73009 0.59181 1.08997
 N2558 N 0.71453 0.58620 1.10445
 C2559 C 0.69495 0.57840 1.09831
 C2560 C 0.69000 0.57596 1.07635
 C2561 C 0.70591 0.58122 1.06113
 C2562 C 0.72596 0.58900 1.06783
 H2563 H 0.79486 0.62988 1.08380
 H2564 H 0.77697 0.60289 1.14545
 H2565 H 0.68311 0.57463 1.11058
 H2566 H 0.70289 0.57914 1.04404
 H2567 H 0.76158 0.61593 1.06843
 H2568 H 0.73800 0.59249 1.05570
 C2569 C 1.24995 0.89939 0.89791
 C2570 C 1.26112 0.91073 0.88184
 C2571 C 1.28017 0.90220 0.87339
 C2572 C 1.28842 0.88226 0.88085
 C2573 C 1.27656 0.87149 0.89709
 N2574 N 1.25791 0.88010 0.90487
 C2575 C 1.22929 0.90741 0.90686
 N2576 N 1.21451 0.89288 0.91422
 C2577 C 1.19495 0.89903 0.92208
 C2578 C 1.18925 0.92103 0.92281
 C2579 C 1.20452 0.93630 0.91584
 C2580 C 1.22448 0.92959 0.90789
 H2581 H 1.28840 0.91161 0.86125
 H2582 H 1.28156 0.85597 0.90333
 H2583 H 1.18368 0.88668 0.92718
 H2584 H 1.20107 0.95346 0.91664
 H2585 H 1.25506 0.92586 0.87545
 H2586 H 1.23605 0.94169 0.90286
 C2587 C 1.24521 0.39407 0.39412
 C2588 C 1.25336 0.40173 0.37449
 C2589 C 1.27332 0.39449 0.36713
 C2590 C 1.28560 0.37951 0.37922
 C2591 C 1.27681 0.37253 0.39909
 N2592 N 1.25727 0.37995 0.40591
 C2593 C 1.22407 0.40145 0.40247
 N2594 N 1.22071 0.40223 0.42417
 C2595 C 1.20186 0.40950 0.43283
 C2596 C 1.18504 0.41665 0.41937
 C2597 C 1.18799 0.41537 0.39696
 C2598 C 1.20737 0.40777 0.38847
 H2599 H 1.27866 0.40063 0.35175
 H2600 H 1.28540 0.36146 0.40948
 H2601 H 1.20024 0.41017 0.45021
 H2602 H 1.17522 0.42007 0.38596
 H2603 H 1.24461 0.41348 0.36492
 H2604 H 1.20908 0.40665 0.37114
 C2605 C 0.75085 0.90116 0.39907
 C2606 C 0.76477 0.91418 0.38674
 C2607 C 0.78382 0.90540 0.37851
 C2608 C 0.78911 0.88365 0.38235
 C2609 C 0.77478 0.87118 0.39475
 N2610 N 0.75628 0.88008 0.40256
 C2611 C 0.73001 0.90929 0.40767
 N2612 N 0.71452 0.89469 0.41326
 C2613 C 0.69481 0.90076 0.42080
 C2614 C 0.68964 0.92277 0.42297
 C2615 C 0.70549 0.93810 0.41773
 C2616 C 0.72567 0.93148 0.41021
 H2617 H 0.79442 0.91568 0.36917
 H2618 H 0.77798 0.85426 0.39786
 H2619 H 0.68304 0.88840 0.42459
 H2620 H 0.70233 0.95523 0.41963
 H2621 H 0.76094 0.93082 0.38296
 H2622 H 0.73764 0.94369 0.40673
 C2623 C 0.74594 0.39228 0.89756
 C2624 C 0.75485 0.37298 0.90541
 C2625 C 0.77468 0.36580 0.89756
 C2626 C 0.78592 0.37769 0.88170
 C2627 C 0.77639 0.39723 0.87459
 N2628 N 0.75709 0.40390 0.88264
 C2629 C 0.72490 0.40049 0.90535
 N2630 N 0.72113 0.42221 0.90540
 C2631 C 0.70221 0.43084 0.91250
 C2632 C 0.68563 0.41733 0.92010
 C2633 C 0.68905 0.39487 0.91970
 C2634 C 0.70858 0.38642 0.91239
 H2635 H 0.78071 0.35064 0.90378
 H2636 H 0.78425 0.40753 0.86294
 H2637 H 0.70032 0.44825 0.91257
 H2638 H 0.67652 0.38378 0.92477
 H2639 H 0.74678 0.36357 0.91772
 H2640 H 0.71065 0.36904 0.91190
 C2641 C 0.75357 0.89697 1.10879
 C2642 C 0.74709 0.90023 1.13028
 C2643 C 0.72727 0.89222 1.13727
 C2644 C 0.71361 0.88114 1.12296
 C2645 C 0.72055 0.87844 1.10155
 N2646 N 0.74001 0.88634 1.09511
 C2647 C 0.77447 0.90516 1.10040
 N2648 N 0.77708 0.90726 1.07866
 C2649 C 0.79568 0.91479 1.06972
 C2650 C 0.81307 0.92087 1.08291
 C2651 C 0.81088 0.91851 1.10531
 C2652 C 0.79175 0.91057 1.11409
 H2653 H 0.72278 0.89458 1.15396
 H2654 H 0.71046 0.87033 1.08984
 H2655 H 0.79672 0.91636 1.05235
 H2656 H 0.82412 0.92248 1.11602
 H2657 H 0.75690 0.90913 1.14164
 H2658 H 0.79085 0.90844 1.13137
 C2659 C 0.74833 0.40261 0.60159
 C2660 C 0.73367 0.41566 0.61301
 C2661 C 0.71467 0.40662 0.62102
 C2662 C 0.71016 0.38459 0.61790
 C2663 C 0.72514 0.37213 0.60629
 N2664 N 0.74359 0.38129 0.59868
 C2665 C 0.76926 0.41095 0.59341
 N2666 N 0.78500 0.39646 0.58820
 C2667 C 0.80477 0.40266 0.58099
 C2668 C 0.80976 0.42469 0.57876
 C2669 C 0.79373 0.43993 0.58372
 C2670 C 0.77347 0.43318 0.59090
 H2671 H 0.70353 0.41693 0.62969
 H2672 H 0.72253 0.35503 0.60373
 H2673 H 0.81670 0.39037 0.57743
 H2674 H 0.79678 0.45708 0.58179
 H2675 H 0.73687 0.43252 0.61630
 H2676 H 0.76135 0.44534 0.59412
 C2677 C 0.24753 0.90316 0.59784
 C2678 C 0.23266 0.89234 0.58452
 C2679 C 0.21373 0.88401 0.59339
 C2680 C 0.20949 0.88617 0.61553
 C2681 C 0.22461 0.89728 0.62827
 N2682 N 0.24300 0.90522 0.61926
 C2683 C 0.26849 0.91145 0.58966
 N2684 N 0.28433 0.91621 0.60417
 C2685 C 0.30420 0.92326 0.59807
 C2686 C 0.30921 0.92571 0.57613
 C2687 C 0.29307 0.92130 0.56088
 C2688 C 0.27271 0.91434 0.56753
 H2689 H 0.20246 0.87578 0.58288
 H2690 H 0.22218 0.89912 0.64544
 H2691 H 0.31622 0.92645 0.61036
 H2692 H 0.29616 0.92343 0.54381
 H2693 H 0.23564 0.88972 0.56755
 H2694 H 0.26055 0.91152 0.55535
 C2695 C 0.25173 0.40011 1.10665
 C2696 C 0.24316 0.40730 1.12631
 C2697 C 0.22337 0.39930 1.13343
 C2698 C 0.21179 0.38399 1.12112
 C2699 C 0.22090 0.37770 1.10116
 N2700 N 0.24021 0.38582 1.09461
 C2701 C 0.27284 0.40784 1.09853
 N2702 N 0.27660 0.40794 1.07688
 C2703 C 0.29562 0.41482 1.06830
 C2704 C 0.31230 0.42214 1.08181
 C2705 C 0.30889 0.42171 1.10420
 C2706 C 0.28927 0.41459 1.11260
 H2707 H 0.21761 0.40501 1.14884
 H2708 H 0.21280 0.36657 1.09049
 H2709 H 0.29751 0.41492 1.05094
 H2710 H 0.32151 0.42658 1.11528
 H2711 H 0.25147 0.41917 1.13608
 H2712 H 0.28726 0.41402 1.12993
 C2713 C 0.75035 1.10304 0.90079
 C2714 C 0.73831 1.11842 0.91226
 C2715 C 0.71929 1.12665 0.90338
 C2716 C 0.71195 1.11967 0.88297
 C2717 C 0.72467 1.10411 0.87213
 N2718 N 0.74322 1.09653 0.88109
 C2719 C 0.77104 1.09432 0.90905
 N2720 N 0.78601 1.08707 0.89468
 C2721 C 0.80554 1.07921 0.90096
 C2722 C 0.81101 1.07831 0.92294
 C2723 C 0.79561 1.08526 0.93806
 C2724 C 0.77566 1.09322 0.93122
 H2725 H 0.71041 1.13829 0.91286
 H2726 H 0.72042 1.09823 0.85630
 H2727 H 0.81694 1.07417 0.88872
 H2728 H 0.79892 1.08436 0.95519
 H2729 H 0.74367 1.12449 0.92773
 H2730 H 0.76398 1.09814 0.94322
 C2731 C 0.74961 0.60206 0.40183
 C2732 C 0.73549 0.61442 0.41460
 C2733 C 0.71637 0.62236 0.40565
 C2734 C 0.71125 0.61818 0.38398
 C2735 C 0.72580 0.60579 0.37177
 N2736 N 0.74434 0.59827 0.38083
 C2737 C 0.77050 0.59370 0.41009
 N2738 N 0.78598 0.58790 0.39561
 C2739 C 0.80568 0.58037 0.40174
 C2740 C 0.81083 0.57838 0.42371
 C2741 C 0.79503 0.58393 0.43895
 C2742 C 0.77486 0.59147 0.43225
 H2743 H 0.70560 0.63172 0.41573
 H2744 H 0.72274 0.60245 0.35492
 H2745 H 0.81743 0.57638 0.38945
 H2746 H 0.79819 0.58219 0.45605
 H2747 H 0.73918 0.61842 0.43117
 H2748 H 0.76289 0.59515 0.44439
 C2749 C 0.25429 1.10687 0.39360
 C2750 C 0.24616 1.09921 0.37396
 C2751 C 0.22624 1.10649 0.36653
 C2752 C 0.21398 1.12152 0.37854
 C2753 C 0.22274 1.12849 0.39843
 N2754 N 0.24225 1.12103 0.40533
 C2755 C 0.27540 1.09946 0.40203
 N2756 N 0.27874 1.09874 0.42375
 C2757 C 0.29756 1.09144 0.43249
 C2758 C 0.31436 1.08419 0.41909
 C2759 C 0.31145 1.08542 0.39667
 C2760 C 0.29210 1.09306 0.38810
 H2761 H 0.22091 1.10034 0.35114
 H2762 H 0.21417 1.13959 0.40877
 H2763 H 0.29916 1.09081 0.44987
 H2764 H 0.32421 1.08064 0.38573
 H2765 H 0.25490 1.08742 0.36446
 H2766 H 0.29042 1.09414 0.37076
 C2767 C 0.24921 0.59968 0.90009
 C2768 C 0.23749 0.58777 0.88482
 C2769 C 0.21847 0.59625 0.87628
 C2770 C 0.21078 0.61674 0.88278
 C2771 C 0.22314 0.62806 0.89827
 N2772 N 0.24176 0.61946 0.90618
 C2773 C 0.26993 0.59173 0.90898
 N2774 N 0.28503 0.60634 0.91552
 C2775 C 0.30471 0.60023 0.92314
 C2776 C 0.31022 0.57821 0.92443
 C2777 C 0.29465 0.56289 0.91835
 C2778 C 0.27454 0.56954 0.91068
 H2779 H 0.20985 0.58639 0.86478
 H2780 H 0.21856 0.64396 0.90378
 H2781 H 0.31623 0.61261 0.92759
 H2782 H 0.29798 0.54573 0.91962
 H2783 H 0.24312 0.57223 0.87909
 H2784 H 0.26275 0.55739 0.90635
 C2785 C 1.10764 1.24748 1.10000
 C2786 C 1.12883 1.25453 1.09598
 C2787 C 1.13566 1.27449 1.10391
 C2788 C 1.12145 1.28769 1.11567
 C2789 C 1.10025 1.28028 1.11891
 N2790 N 1.09400 1.26069 1.11111
 C2791 C 1.09954 1.22627 1.09229
 N2792 N 1.07782 1.22311 1.09070
 C2793 C 1.06915 1.20413 1.08376
 C2794 C 1.08263 1.18686 1.07784
 C2795 C 1.10503 1.18961 1.07972
 C2796 C 1.11353 1.20915 1.08701
 H2797 H 1.15217 1.27938 1.10108
 H2798 H 1.08861 1.29004 1.12752
 H2799 H 1.05178 1.20268 1.08253
 H2800 H 1.11598 1.17650 1.07585
 H2801 H 1.14008 1.24498 1.08666
 H2802 H 1.13084 1.21052 1.08879
 C2803 C 1.10773 0.74641 0.60145
 C2804 C 1.12870 0.75364 0.59671
 C2805 C 1.13568 0.77358 0.60456
 C2806 C 1.12183 0.78653 0.61700
 C2807 C 1.10086 0.77891 0.62104
 N2808 N 1.09444 0.75937 0.61325
 C2809 C 1.09949 0.72528 0.59371
 N2810 N 1.07775 0.72216 0.59241
 C2811 C 1.06896 0.70326 0.58539
 C2812 C 1.08234 0.68606 0.57907
 C2813 C 1.10477 0.68877 0.58067
 C2814 C 1.11339 0.70823 0.58804
 H2815 H 1.15202 0.77866 0.60112
 H2816 H 1.08950 0.78849 0.63021
 H2817 H 1.05158 0.70184 0.58439
 H2818 H 1.11566 0.67570 0.57651
 H2819 H 1.13963 0.74427 0.58684
 H2820 H 1.13072 0.70959 0.58958
 C2821 C 0.59991 1.25001 0.60219
 C2822 C 0.58684 1.26403 0.61438
 C2823 C 0.59560 1.28303 0.62276
 C2824 C 0.61739 1.28817 0.61926
 C2825 C 0.62992 1.27372 0.60703
 N2826 N 0.62103 1.25527 0.59904
 C2827 C 0.59174 1.22923 0.59339
 N2828 N 0.60626 1.21363 0.58780
 C2829 C 0.60013 1.19397 0.58011
 C2830 C 0.57815 1.18895 0.57782
 C2831 C 0.56291 1.20491 0.58303
 C2832 C 0.56959 1.22505 0.59067
 H2833 H 0.58525 1.29372 0.63192
 H2834 H 0.64686 1.27682 0.60418
 H2835 H 0.61242 1.18210 0.57633
 H2836 H 0.54581 1.20185 0.58103
 H2837 H 0.57017 1.26033 0.61791
 H2838 H 0.55744 1.23711 0.59411
 C2839 C 0.59904 0.75120 1.09913
 C2840 C 0.58565 0.76577 1.11029
 C2841 C 0.59433 0.78484 1.11859
 C2842 C 0.61637 0.78950 1.11607
 C2843 C 0.62918 0.77462 1.10471
 N2844 N 0.62035 0.75610 1.09679
 C2845 C 0.59100 0.73019 1.09075
 N2846 N 0.60561 0.71443 1.08592
 C2847 C 0.59962 0.69451 1.07878
 C2848 C 0.57769 0.68939 1.07632
 C2849 C 0.56235 0.70548 1.08076
 C2850 C 0.56889 0.72588 1.08781
 H2851 H 0.58376 0.79590 1.12703
 H2852 H 0.64629 0.77737 1.10258
 H2853 H 0.61197 0.68254 1.07555
 H2854 H 0.54529 0.70231 1.07861
 H2855 H 0.56877 0.76247 1.11316
 H2856 H 0.55665 0.73801 1.09065
 C2857 C 0.90172 1.25155 0.90117
 C2858 C 0.89019 1.26591 0.91446
 C2859 C 0.88175 1.28492 0.90574
 C2860 C 0.88454 1.28974 0.88378
 C2861 C 0.89632 1.27508 0.87108
 N2862 N 0.90434 1.25660 0.87993
 C2863 C 0.91019 1.23056 0.90922
 N2864 N 0.91510 1.21482 0.89463
 C2865 C 0.92229 1.19492 0.90064
 C2866 C 0.92474 1.18978 0.92256
 C2867 C 0.92022 1.20586 0.93788
 C2868 C 0.91311 1.22625 0.93132
 H2869 H 0.87296 1.29581 0.91621
 H2870 H 0.89865 1.27796 0.85403
 H2871 H 0.92555 1.18297 0.88830
 H2872 H 0.92237 1.20269 0.95494
 H2873 H 0.88710 1.26244 0.93126
 H2874 H 0.91020 1.23838 0.94352
 C2875 C 0.90214 0.75119 0.39991
 C2876 C 0.91504 0.76548 0.38788
 C2877 C 0.90608 0.78455 0.37982
 C2878 C 0.88426 0.78949 0.38351
 C2879 C 0.87196 0.77488 0.39574
 N2880 N 0.88104 0.75635 0.40337
 C2881 C 0.91042 0.73019 0.40809
 N2882 N 0.89594 0.71454 0.41355
 C2883 C 0.90211 0.69468 0.42071
 C2884 C 0.92410 0.68951 0.42261
 C2885 C 0.93933 0.70546 0.41742
 C2886 C 0.93260 0.72580 0.41030
 H2887 H 0.91626 0.79539 0.37066
 H2888 H 0.85502 0.77786 0.39876
 H2889 H 0.88982 0.68282 0.42446
 H2890 H 0.95644 0.70227 0.41912
 H2891 H 0.93170 0.76192 0.38413
 H2892 H 0.94475 0.73787 0.40690
 C2893 C 0.40296 1.25270 0.39969
 C2894 C 0.41590 1.26741 0.38821
 C2895 C 0.40680 1.28645 0.38020
 C2896 C 0.38481 1.29094 0.38339
 C2897 C 0.37246 1.27588 0.39500
 N2898 N 0.38167 1.25742 0.40262
 C2899 C 0.41134 1.23177 0.40798
 N2900 N 0.39690 1.21611 0.41351
 C2901 C 0.40309 1.19634 0.42088
 C2902 C 0.42508 1.19127 0.42296
 C2903 C 0.44028 1.20722 0.41767
 C2904 C 0.43353 1.22748 0.41032
 H2905 H 0.41702 1.29765 0.37151
 H2906 H 0.35539 1.27844 0.39760
 H2907 H 0.39083 1.18447 0.42468
 H2908 H 0.45740 1.20410 0.41947
 H2909 H 0.43274 1.26425 0.38491
 H2910 H 0.44566 1.23953 0.40684
 C2911 C 0.40238 0.75212 0.90052
 C2912 C 0.41536 0.76658 0.88877
 C2913 C 0.40637 0.78561 0.88064
 C2914 C 0.38445 0.79033 0.88397
 C2915 C 0.37207 0.77557 0.89593
 N2916 N 0.38118 0.75709 0.90364
 C2917 C 0.41066 0.73114 0.90874
 N2918 N 0.39617 0.71546 0.91408
 C2919 C 0.40232 0.69561 0.92126
 C2920 C 0.42430 0.69048 0.92332
 C2921 C 0.43954 0.70646 0.91826
 C2922 C 0.43284 0.72680 0.91112
 H2923 H 0.41660 0.79658 0.87169
 H2924 H 0.35506 0.77837 0.89867
 H2925 H 0.39003 0.68372 0.92491
 H2926 H 0.45665 0.70329 0.92007
 H2927 H 0.43212 0.76319 0.88530
 H2928 H 0.44499 0.73888 0.90781
 C2929 C 1.09819 0.74817 0.89946
 C2930 C 1.08511 0.73366 0.88788
 C2931 C 1.09407 0.71468 0.87961
 C2932 C 1.11606 0.71007 0.88262
 C2933 C 1.12859 0.72499 0.89425
 N2934 N 1.11950 0.74338 0.90214
 C2935 C 1.08987 0.76894 0.90812
 N2936 N 1.10429 0.78471 0.91340
 C2937 C 1.09808 0.80436 0.92105
 C2938 C 1.07609 0.80918 0.92368
 C2939 C 1.06094 0.79308 0.91872
 C2940 C 1.06771 0.77295 0.91109
 H2941 H 1.08372 0.70361 0.87091
 H2942 H 1.14566 0.72232 0.89671
 H2943 H 1.11030 0.81635 0.92459
 H2944 H 1.04384 0.79600 0.92096
 H2945 H 1.06826 0.73693 0.88474
 H2946 H 1.05563 0.76077 0.90787
 C2947 C 1.09683 0.24813 0.39962
 C2948 C 1.08389 0.23364 0.38784
 C2949 C 1.09300 0.21475 0.37951
 C2950 C 1.11498 0.21019 0.38269
 C2951 C 1.12734 0.22507 0.39456
 N2952 N 1.11811 0.24338 0.40248
 C2953 C 1.08843 0.26888 0.40829
 N2954 N 1.10284 0.28452 0.41396
 C2955 C 1.09660 0.30415 0.42166
 C2956 C 1.07460 0.30909 0.42391
 C2957 C 1.05944 0.29313 0.41852
 C2958 C 1.06624 0.27301 0.41085
 H2959 H 1.08279 0.20371 0.37061
 H2960 H 1.14440 0.22246 0.39715
 H2961 H 1.10884 0.31603 0.42552
 H2962 H 1.04232 0.29614 0.42045
 H2963 H 1.06706 0.23687 0.38457
 H2964 H 1.05414 0.26095 0.40728
 C2965 C 0.60368 0.75469 0.39080
 C2966 C 0.60018 0.74821 0.36934
 C2967 C 0.60820 0.72838 0.36223
 C2968 C 0.61954 0.71475 0.37639
 C2969 C 0.62244 0.72168 0.39779
 N2970 N 0.61452 0.74113 0.40434
 C2971 C 0.59551 0.77556 0.39937
 N2972 N 0.59374 0.77810 0.42114
 C2973 C 0.58627 0.79666 0.43027
 C2974 C 0.57991 0.81410 0.41723
 C2975 C 0.58194 0.81201 0.39479
 C2976 C 0.58981 0.79290 0.38582
 H2977 H 0.60566 0.72386 0.34556
 H2978 H 0.63073 0.71160 0.40939
 H2979 H 0.58496 0.79763 0.44766
 H2980 H 0.57772 0.82529 0.38419
 H2981 H 0.59111 0.75803 0.35811
 H2982 H 0.59167 0.79205 0.36850
 C2983 C 0.59789 0.24963 0.89735
 C2984 C 0.58519 0.23527 0.88516
 C2985 C 0.59443 0.21637 0.87698
 C2986 C 0.61630 0.21170 0.88071
 C2987 C 0.62843 0.22649 0.89290
 N2988 N 0.61909 0.24480 0.90069
 C2989 C 0.58929 0.27028 0.90604
 N2990 N 0.60354 0.28599 0.91193
 C2991 C 0.59710 0.30550 0.91976
 C2992 C 0.57504 0.31023 0.92196
 C2993 C 0.56004 0.29419 0.91632
 C2994 C 0.56705 0.27422 0.90849
 H2995 H 0.58439 0.20540 0.86780
 H2996 H 0.64541 0.22379 0.89591
 H2997 H 0.60921 0.31744 0.92380
 H2998 H 0.54289 0.29703 0.91819
 H2999 H 0.56846 0.23860 0.88151
 H3000 H 0.55509 0.26207 0.90474
 C3001 C 0.90096 0.74990 1.10223
 C3002 C 0.91413 0.73551 1.11391
 C3003 C 0.90537 0.71636 1.12198
 C3004 C 0.88349 0.71145 1.11865
 C3005 C 0.87087 0.72628 1.10697
 N3006 N 0.87977 0.74485 1.09928
 C3007 C 0.90907 0.77079 1.09369
 N3008 N 0.89449 0.78644 1.08839
 C3009 C 0.90050 0.80617 1.08079
 C3010 C 0.92244 0.81119 1.07822
 C3011 C 0.93776 0.79522 1.08319
 C3012 C 0.93119 0.77502 1.09079
 H3013 H 0.91577 0.70537 1.13076
 H3014 H 0.85387 0.72340 1.10429
 H3015 H 0.88816 0.81805 1.07723
 H3016 H 0.95483 0.79829 1.08099
 H3017 H 0.93089 0.73901 1.11725
 H3018 H 0.94339 0.76294 1.09403
 C3019 C 0.90243 0.24848 0.60015
 C3020 C 0.91590 0.23372 0.61099
 C3021 C 0.90726 0.21450 0.61905
 C3022 C 0.88521 0.20989 0.61655
 C3023 C 0.87232 0.22503 0.60558
 N3024 N 0.88110 0.24365 0.59790
 C3025 C 0.91030 0.26959 0.59188
 N3026 N 0.89550 0.28516 0.58694
 C3027 C 0.90124 0.30512 0.57974
 C3028 C 0.92310 0.31050 0.57728
 C3029 C 0.93864 0.29463 0.58188
 C3030 C 0.93236 0.27418 0.58903
 H3031 H 0.91787 0.20327 0.62725
 H3032 H 0.85519 0.22239 0.60353
 H3033 H 0.88873 0.31691 0.57645
 H3034 H 0.95567 0.29800 0.57975
 H3035 H 0.93281 0.23696 0.61376
 H3036 H 0.94474 0.26223 0.59201
 C3037 C 0.39929 0.74897 0.59659
 C3038 C 0.38776 0.73439 0.58353
 C3039 C 0.37989 0.71522 0.59243
 C3040 C 0.38327 0.71047 0.61433
 C3041 C 0.39496 0.72539 0.62679
 N3042 N 0.40243 0.74399 0.61777
 C3043 C 0.40735 0.77006 0.58844
 N3044 N 0.41282 0.78559 0.60304
 C3045 C 0.41995 0.80550 0.59706
 C3046 C 0.42181 0.81086 0.57514
 C3047 C 0.41659 0.79504 0.55977
 C3048 C 0.40950 0.77464 0.56631
 H3049 H 0.37113 0.70414 0.58214
 H3050 H 0.39771 0.72262 0.64379
 H3051 H 0.42371 0.81725 0.60944
 H3052 H 0.41824 0.79839 0.54269
 H3053 H 0.38430 0.73777 0.56678
 H3054 H 0.40607 0.76270 0.55405
 C3055 C 0.40024 0.24959 1.10101
 C3056 C 0.41340 0.23507 1.11253
 C3057 C 0.40454 0.21604 1.12074
 C3058 C 0.38257 0.21137 1.11775
 C3059 C 0.36997 0.22626 1.10613
 N3060 N 0.37896 0.24473 1.09829
 C3061 C 0.40849 0.27046 1.09249
 N3062 N 0.39402 0.28626 1.08732
 C3063 C 0.40019 0.30602 1.07990
 C3064 C 0.42217 0.31092 1.07744
 C3065 C 0.43737 0.29479 1.08227
 C3066 C 0.43064 0.27456 1.08963
 H3067 H 0.41496 0.20499 1.12942
 H3068 H 0.35291 0.22352 1.10366
 H3069 H 0.38794 0.31802 1.07642
 H3070 H 0.45447 0.29778 1.08014
 H3071 H 0.43023 0.23839 1.11570
 H3072 H 0.44276 0.26238 1.09276
 C3073 C 1.10470 1.09949 0.75142
 C3074 C 1.12395 1.09163 0.74253
 C3075 C 1.13112 1.09956 0.72276
 C3076 C 1.11926 1.11550 0.71150
 C3077 C 1.09966 1.12245 0.72090
 N3078 N 1.09303 1.11437 0.74021
 C3079 C 1.09672 1.09181 0.77257
 N3080 N 1.07509 1.09179 0.77656
 C3081 C 1.06672 1.08480 0.79562
 C3082 C 1.08041 1.07729 0.81210
 C3083 C 1.10277 1.07766 0.80845
 C3084 C 1.11096 1.08488 0.78880
 H3085 H 1.14624 1.09327 0.71681
 H3086 H 1.08935 1.13413 0.71304
 H3087 H 1.04937 1.08477 0.79771
 H3088 H 1.11398 1.07266 0.82090
 H3089 H 1.13337 1.07929 0.75060
 H3090 H 1.12828 1.08538 0.78658
 C3091 C 1.10757 0.60399 0.25419
 C3092 C 1.12747 0.59714 0.24593
 C3093 C 1.13477 0.60526 0.22629
 C3094 C 1.12237 0.62035 0.21446
 C3095 C 1.10231 0.62658 0.22339
 N3096 N 1.09555 0.61829 0.24258
 C3097 C 1.09909 0.59566 0.27494
 N3098 N 1.07735 0.59503 0.27817
 C3099 C 1.06846 0.58729 0.29671
 C3100 C 1.08173 0.57954 0.31342
 C3101 C 1.10419 0.58049 0.31057
 C3102 C 1.11291 0.58853 0.29146
 H3103 H 1.15035 0.59971 0.22080
 H3104 H 1.09167 0.63768 0.21517
 H3105 H 1.05106 0.58685 0.29820
 H3106 H 1.11505 0.57530 0.32326
 H3107 H 1.13727 0.58531 0.25431
 H3108 H 1.13027 0.58946 0.28990
 C3109 C 0.60251 1.09927 0.24997
 C3110 C 0.61732 1.08735 0.23767
 C3111 C 0.62564 1.09613 0.21869
 C3112 C 0.61938 1.11694 0.21163
 C3113 C 0.60436 1.12824 0.22457
 N3114 N 0.59665 1.11933 0.24310
 C3115 C 0.59378 1.09104 0.27066
 N3116 N 0.58714 1.10549 0.28585
 C3117 C 0.57943 1.09922 0.30542
 C3118 C 0.57809 1.07715 0.31071
 C3119 C 0.58439 1.06197 0.29509
 C3120 C 0.59218 1.06880 0.27509
 H3121 H 0.63680 1.08626 0.20964
 H3122 H 0.59901 1.14435 0.22051
 H3123 H 0.57486 1.11151 0.31699
 H3124 H 0.58313 1.04478 0.29825
 H3125 H 0.62289 1.07157 0.24280
 H3126 H 0.59658 1.05674 0.26324
 C3127 C 0.60104 0.59838 0.74953
 C3128 C 0.61302 0.58535 0.73530
 C3129 C 0.62114 0.59424 0.71627
 C3130 C 0.61758 0.61612 0.71131
 C3131 C 0.60556 0.62860 0.72596
 N3132 N 0.59783 0.61958 0.74442
 C3133 C 0.59250 0.59011 0.77033
 N3134 N 0.58702 0.60461 0.78595
 C3135 C 0.57946 0.59843 0.80560
 C3136 C 0.57713 0.57640 0.81058
 C3137 C 0.58230 0.56116 0.79462
 C3138 C 0.58985 0.56790 0.77450
 H3139 H 0.63017 0.58393 0.70543
 H3140 H 0.60267 0.64560 0.72301
 H3141 H 0.57575 0.61073 0.81746
 H3142 H 0.58029 0.54402 0.79764
 H3143 H 0.61658 0.56860 0.73884
 H3144 H 0.59324 0.55575 0.76244
 C3145 C 0.89961 0.90083 0.74990
 C3146 C 0.88788 0.91404 0.73561
 C3147 C 0.87977 0.90529 0.71652
 C3148 C 0.88310 0.88338 0.71157
 C3149 C 0.89495 0.87074 0.72623
 N3150 N 0.90266 0.87962 0.74477
 C3151 C 0.90797 0.90894 0.77084
 N3152 N 0.91304 0.89434 0.78652
 C3153 C 0.92031 0.90041 0.80632
 C3154 C 0.92272 0.92241 0.81138
 C3155 C 0.91800 0.93774 0.79537
 C3156 C 0.91078 0.93112 0.77509
 H3157 H 0.87090 0.91572 0.70565
 H3158 H 0.89767 0.85371 0.72326
 H3159 H 0.92370 0.88805 0.81824
 H3160 H 0.92011 0.95485 0.79847
 H3161 H 0.88445 0.93080 0.73917
 H3162 H 0.90773 0.94333 0.76298
 C3163 C 0.89510 0.39291 0.25394
 C3164 C 0.90363 0.37396 0.24498
 C3165 C 0.89607 0.36662 0.22512
 C3166 C 0.87982 0.37801 0.21386
 C3167 C 0.87195 0.39720 0.22346
 N3168 N 0.87977 0.40407 0.24282
 C3169 C 0.90274 0.40120 0.27500
 N3170 N 0.90276 0.42291 0.27875
 C3171 C 0.91003 0.43154 0.29761
 C3172 C 0.91788 0.41803 0.31411
 C3173 C 0.91744 0.39557 0.31072
 C3174 C 0.90993 0.38713 0.29128
 H3175 H 0.90285 0.35172 0.21910
 H3176 H 0.85992 0.40708 0.21560
 H3177 H 0.91009 0.44894 0.29949
 H3178 H 0.92268 0.38448 0.32321
 H3179 H 0.91627 0.36494 0.25304
 H3180 H 0.90947 0.36975 0.28921
 C3181 C 0.39561 0.89437 0.25423
 C3182 C 0.40357 0.87491 0.24581
 C3183 C 0.39604 0.86742 0.22601
 C3184 C 0.38043 0.87917 0.21422
 C3185 C 0.37321 0.89889 0.22325
 N3186 N 0.38094 0.90586 0.24259
 C3187 C 0.40315 0.90283 0.27525
 N3188 N 0.40351 0.92460 0.27866
 C3189 C 0.41071 0.93340 0.29747
 C3190 C 0.41815 0.92001 0.31423
 C3191 C 0.41730 0.89751 0.31122
 C3192 C 0.40984 0.88889 0.29185
 H3193 H 0.40236 0.85215 0.22041
 H3194 H 0.36171 0.90908 0.21499
 H3195 H 0.41106 0.95083 0.29910
 H3196 H 0.42222 0.88654 0.32394
 H3197 H 0.41573 0.86559 0.25426
 H3198 H 0.40906 0.87149 0.29008
 C3199 C 0.39823 0.40306 0.74929
 C3200 C 0.38594 0.41596 0.73518
 C3201 C 0.37818 0.40712 0.71597
 C3202 C 0.38247 0.38545 0.71072
 C3203 C 0.39479 0.37312 0.72525
 N3204 N 0.40213 0.38206 0.74390
 C3205 C 0.40639 0.41120 0.77027
 N3206 N 0.41196 0.39657 0.78575
 C3207 C 0.41930 0.40259 0.80552
 C3208 C 0.42135 0.42458 0.81076
 C3209 C 0.41605 0.43997 0.79496
 C3210 C 0.40868 0.43339 0.77471
 H3211 H 0.36886 0.41728 0.70521
 H3212 H 0.39821 0.35626 0.72209
 H3213 H 0.42310 0.39018 0.81726
 H3214 H 0.41784 0.45709 0.79818
 H3215 H 0.38186 0.43253 0.73898
 H3216 H 0.40518 0.44563 0.76275
 C3217 C 1.10032 0.89593 1.24853
 C3218 C 1.09217 0.87676 1.25740
 C3219 C 1.09974 0.86955 1.27730
 C3220 C 1.11561 0.88129 1.28873
 C3221 C 1.12279 0.90088 1.27938
 N3222 N 1.11507 0.90754 1.25992
 C3223 C 1.09309 0.90387 1.22719
 N3224 N 1.09318 0.92551 1.22306
 C3225 C 1.08650 0.93383 1.20383
 C3226 C 1.07920 0.92004 1.18735
 C3227 C 1.07954 0.89765 1.19114
 C3228 C 1.08644 0.88953 1.21094
 H3229 H 1.09324 0.85449 1.28322
 H3230 H 1.13441 0.91111 1.28737
 H3231 H 1.08651 0.95120 1.20162
 H3232 H 1.07469 0.88636 1.17869
 H3233 H 1.07989 0.86742 1.24918
 H3234 H 1.08688 0.87218 1.21328
 C3235 C 1.10226 0.40086 0.75041
 C3236 C 1.11762 0.41245 0.76233
 C3237 C 1.12602 0.40362 0.78128
 C3238 C 1.11925 0.38311 0.78867
 C3239 C 1.10374 0.37211 0.77605
 N3240 N 1.09597 0.38105 0.75756
 C3241 C 1.09335 0.40911 0.72982
 N3242 N 1.08607 0.39468 0.71490
 C3243 C 1.07811 0.40095 0.69542
 C3244 C 1.07719 0.42299 0.68995
 C3245 C 1.08413 0.43817 0.70531
 C3246 C 1.09216 0.43133 0.72521
 H3247 H 1.13762 0.41323 0.79006
 H3248 H 1.09802 0.35620 0.78034
 H3249 H 1.07305 0.38868 0.68405
 H3250 H 1.08321 0.45535 0.70200
 H3251 H 1.12353 0.42801 0.75694
 H3252 H 1.09709 0.44338 0.73687
 C3253 C 0.60126 0.89250 0.74683
 C3254 C 0.59652 0.87151 0.75412
 C3255 C 0.60420 0.86465 0.77414
 C3256 C 0.61644 0.87863 0.78712
 C3257 C 0.62052 0.89962 0.77941
 N3258 N 0.61291 0.90592 0.75980
 C3259 C 0.59362 0.90065 0.72565
 N3260 N 0.59234 0.92242 0.72238
 C3261 C 0.58536 0.93112 0.70345
 C3262 C 0.57904 0.91762 0.68637
 C3263 C 0.58062 0.89516 0.68923
 C3264 C 0.58796 0.88663 0.70872
 H3265 H 0.60074 0.84829 0.77927
 H3266 H 0.62957 0.91107 0.78900
 H3267 H 0.58438 0.94854 0.70191
 H3268 H 0.57645 0.88419 0.67626
 H3269 H 0.58677 0.86047 0.74475
 H3270 H 0.58949 0.86927 0.71019
 C3271 C 0.60336 0.39351 1.24734
 C3272 C 0.59633 0.37373 1.25582
 C3273 C 0.60411 0.36667 1.27570
 C3274 C 0.61902 0.37921 1.28756
 C3275 C 0.62536 0.39920 1.27844
 N3276 N 0.61743 0.40570 1.25901
 C3277 C 0.59548 0.40167 1.22628
 N3278 N 0.59502 0.42340 1.22260
 C3279 C 0.58768 0.43199 1.20375
 C3280 C 0.58017 0.41843 1.18718
 C3281 C 0.58097 0.39597 1.19048
 C3282 C 0.58861 0.38755 1.20990
 H3283 H 0.59842 0.35118 1.28134
 H3284 H 0.63633 0.40994 1.28666
 H3285 H 0.58735 0.44940 1.20190
 H3286 H 0.57595 0.38488 1.17792
 H3287 H 0.58464 0.36382 1.24741
 H3288 H 0.58944 0.37018 1.21181
 C3289 C 0.89678 1.10869 1.24570
 C3290 C 0.90053 1.13000 1.25268
 C3291 C 0.89262 1.13676 1.27263
 C3292 C 0.88112 1.12239 1.28588
 C3293 C 0.87786 1.10119 1.27841
 N3294 N 0.88571 1.09497 1.25887
 C3295 C 0.90497 1.10048 1.22474
 N3296 N 0.90674 1.07870 1.22179
 C3297 C 0.91425 1.06989 1.20313
 C3298 C 0.92065 1.08327 1.18599
 C3299 C 0.91865 1.10574 1.18853
 C3300 C 0.91075 1.11439 1.20774
 H3301 H 0.89542 1.15330 1.27757
 H3302 H 0.86940 1.08944 1.28818
 H3303 H 0.91554 1.05247 1.20185
 H3304 H 0.92288 1.11662 1.17550
 H3305 H 0.90977 1.14135 1.24318
 H3306 H 0.90891 1.13174 1.20893
 C3307 C 0.89633 0.60827 0.74678
 C3308 C 0.90089 0.62931 0.75405
 C3309 C 0.89304 0.63615 0.77399
 C3310 C 0.88080 0.62212 0.78692
 C3311 C 0.87676 0.60115 0.77917
 N3312 N 0.88458 0.59484 0.75965
 C3313 C 0.90443 0.60004 0.72581
 N3314 N 0.90596 0.57827 0.72276
 C3315 C 0.91343 0.56949 0.70407
 C3316 C 0.92001 0.58291 0.68702
 C3317 C 0.91821 0.60538 0.68966
 C3318 C 0.91037 0.61399 0.70891
 H3319 H 0.89645 0.65251 0.77915
 H3320 H 0.86769 0.58968 0.78872
 H3321 H 0.91456 0.55207 0.70269
 H3322 H 0.92256 0.61630 0.67671
 H3323 H 0.91069 0.64037 0.74477
 H3324 H 0.90868 0.63135 0.71021
 C3325 C 0.39309 1.10571 0.74591
 C3326 C 0.37191 1.10129 0.75270
 C3327 C 0.36482 1.10884 0.77264
 C3328 C 0.37873 1.12062 0.78611
 C3329 C 0.39983 1.12460 0.77882
 N3330 N 0.40640 1.11707 0.75926
 C3331 C 0.40154 1.09776 0.72498
 N3332 N 0.42328 1.09560 0.72234
 C3333 C 0.43217 1.08796 0.70377
 C3334 C 0.41890 1.08179 0.68646
 C3335 C 0.39651 1.08434 0.68864
 C3336 C 0.38779 1.09239 0.70774
 H3337 H 0.34836 1.10552 0.77742
 H3338 H 0.41120 1.13336 0.78878
 H3339 H 0.44953 1.08629 0.70271
 H3340 H 0.38574 1.08034 0.67546
 H3341 H 0.36093 1.09178 0.74303
 H3342 H 0.37050 1.09462 0.70871
 C3343 C 0.39793 0.60057 1.25004
 C3344 C 0.38201 0.58929 1.26150
 C3345 C 0.37337 0.59822 1.28027
 C3346 C 0.38047 0.61850 1.28795
 C3347 C 0.39661 0.62915 1.27584
 N3348 N 0.40457 0.62015 1.25748
 C3349 C 0.40701 0.59223 1.22958
 N3350 N 0.41442 0.60656 1.21463
 C3351 C 0.42243 0.60016 1.19523
 C3352 C 0.42328 0.57809 1.18987
 C3353 C 0.41624 0.56302 1.20531
 C3354 C 0.40814 0.56998 1.22512
 H3355 H 0.36132 0.58887 1.28872
 H3356 H 0.40261 0.64488 1.28039
 H3357 H 0.42755 0.61237 1.18382
 H3358 H 0.41711 0.54581 1.20211
 H3359 H 0.37586 0.57392 1.25585
 H3360 H 0.40308 0.55803 1.23682
 C3361 C 1.09968 1.24925 0.89705
 C3362 C 1.08666 1.26348 0.88502
 C3363 C 1.09550 1.28257 0.87689
 C3364 C 1.11730 1.28758 0.88052
 C3365 C 1.12978 1.27290 0.89254
 N3366 N 1.12081 1.25438 0.90028
 C3367 C 1.09145 1.22844 0.90568
 N3368 N 1.10594 1.21278 0.91118
 C3369 C 1.09978 1.19312 0.91886
 C3370 C 1.07780 1.18819 0.92127
 C3371 C 1.06258 1.20419 0.91610
 C3372 C 1.06929 1.22432 0.90844
 H3373 H 1.08520 1.29345 0.86786
 H3374 H 1.14673 1.27587 0.89546
 H3375 H 1.11205 1.18121 0.92258
 H3376 H 1.04548 1.20120 0.91818
 H3377 H 1.06996 1.25990 0.88145
 H3378 H 1.05717 1.23644 0.90504
 C3379 C 1.10594 0.74461 0.39230
 C3380 C 1.10184 0.75139 0.37105
 C3381 C 1.10936 0.77143 0.36407
 C3382 C 1.12078 0.78502 0.37818
 C3383 C 1.12449 0.77772 0.39933
 N3384 N 1.11699 0.75805 0.40578
 C3385 C 1.09793 0.72360 0.40067
 N3386 N 1.09575 0.72090 0.42238
 C3387 C 1.08804 0.70228 0.43121
 C3388 C 1.08180 0.68500 0.41790
 C3389 C 1.08434 0.68725 0.39554
 C3390 C 1.09249 0.70638 0.38688
 H3391 H 1.10628 0.77619 0.34756
 H3392 H 1.13297 0.78775 0.41083
 H3393 H 1.08638 0.70116 0.44856
 H3394 H 1.08028 0.67408 0.38475
 H3395 H 1.09258 0.74166 0.35990
 H3396 H 1.09472 0.70737 0.36961
 C3397 C 0.60767 1.24717 0.39811
 C3398 C 0.62861 1.25450 0.40286
 C3399 C 0.63543 1.27454 0.39512
 C3400 C 0.62146 1.28750 0.38281
 C3401 C 0.60054 1.27974 0.37870
 N3402 N 0.59427 1.26012 0.38638
 C3403 C 0.59954 1.22601 0.40585
 N3404 N 0.57782 1.22282 0.40724
 C3405 C 0.56913 1.20391 0.41432
 C3406 C 0.58260 1.18675 0.42063
 C3407 C 0.60501 1.18952 0.41894
 C3408 C 0.61353 1.20900 0.41150
 H3409 H 0.65174 1.27972 0.39860
 H3410 H 0.58910 1.28932 0.36960
 H3411 H 0.55175 1.20243 0.41539
 H3412 H 0.61596 1.17649 0.42310
 H3413 H 0.63963 1.24514 0.41266
 H3414 H 0.63085 1.21043 0.40990
 C3415 C 0.59698 0.75209 0.90280
 C3416 C 0.58351 0.76682 0.89192
 C3417 C 0.59215 0.78602 0.88386
 C3418 C 0.61419 0.79066 0.88638
 C3419 C 0.62706 0.77564 0.89753
 N3420 N 0.61829 0.75700 0.90519
 C3421 C 0.58909 0.73088 0.91082
 N3422 N 0.60386 0.71523 0.91557
 C3423 C 0.59807 0.69516 0.92242
 C3424 C 0.57619 0.68975 0.92467
 C3425 C 0.56068 0.70569 0.92026
 C3426 C 0.56702 0.72626 0.91350
 H3427 H 0.58154 0.79719 0.87557
 H3428 H 0.64417 0.77837 0.89963
 H3429 H 0.61055 0.68331 0.92560
 H3430 H 0.54364 0.70229 0.92225
 H3431 H 0.56663 0.76354 0.88904
 H3432 H 0.55465 0.73827 0.91067
 C3433 C 0.90273 1.25146 1.10004
 C3434 C 0.91435 1.26354 1.11525
 C3435 C 0.90543 1.28243 1.12371
 C3436 C 0.88479 1.28960 1.11717
 C3437 C 0.87386 1.27697 1.10162
 N3438 N 0.88287 1.25850 1.09383
 C3439 C 0.91094 1.23073 1.09135
 N3440 N 0.89651 1.21557 1.08460
 C3441 C 0.90274 1.19591 1.07699
 C3442 C 0.92474 1.19049 1.07586
 C3443 C 0.93992 1.20609 1.08226
 C3444 C 0.93312 1.22618 1.08996
 H3445 H 0.91501 1.29134 1.13523
 H3446 H 0.85790 1.28115 1.09602
 H3447 H 0.89046 1.18436 1.07236
 H3448 H 0.95706 1.20283 1.08117
 H3449 H 0.92998 1.25826 1.12104
 H3450 H 0.94515 1.23802 1.09450
 C3451 C 0.90054 0.75150 0.59840
 C3452 C 0.88877 0.76593 0.58535
 C3453 C 0.88050 0.78491 0.59428
 C3454 C 0.88370 0.78962 0.61621
 C3455 C 0.89557 0.77483 0.62869
 N3456 N 0.90345 0.75641 0.61963
 C3457 C 0.90908 0.73065 0.59014
 N3458 N 0.91446 0.71494 0.60461
 C3459 C 0.92194 0.69520 0.59845
 C3460 C 0.92425 0.69023 0.57648
 C3461 C 0.91920 0.70627 0.56127
 C3462 C 0.91177 0.72649 0.56799
 H3463 H 0.87161 0.79590 0.58398
 H3464 H 0.89819 0.77759 0.64571
 H3465 H 0.92557 0.68326 0.61071
 H3466 H 0.92120 0.70323 0.54418
 H3467 H 0.88546 0.76256 0.56857
 H3468 H 0.90846 0.73862 0.55586
 C3469 C 0.40372 1.25178 0.60234
 C3470 C 0.41537 1.26421 0.61725
 C3471 C 0.40648 1.28336 0.62523
 C3472 C 0.38587 1.29042 0.61848
 C3473 C 0.37488 1.27734 0.60335
 N3474 N 0.38387 1.25868 0.59601
 C3475 C 0.41190 1.23090 0.59395
 N3476 N 0.39741 1.21592 0.58691
 C3477 C 0.40353 1.19624 0.57927
 C3478 C 0.42549 1.19063 0.57835
 C3479 C 0.44074 1.20599 0.58514
 C3480 C 0.43405 1.22611 0.59289
 H3481 H 0.41608 1.29252 0.63653
 H3482 H 0.35893 1.28136 0.59763
 H3483 H 0.39120 1.18487 0.57437
 H3484 H 0.45786 1.20255 0.58424
 H3485 H 0.43099 1.25907 0.62317
 H3486 H 0.44615 1.23778 0.59765
 C3487 C 0.40182 0.75109 1.10194
 C3488 C 0.41315 0.76291 1.11754
 C3489 C 0.40426 0.78187 1.12584
 C3490 C 0.38392 0.78939 1.11875
 C3491 C 0.37325 0.77700 1.10285
 N3492 N 0.38223 0.75843 1.09520
 C3493 C 0.41014 0.73035 1.09336
 N3494 N 0.39582 0.71521 1.08632
 C3495 C 0.40220 0.69555 1.07881
 C3496 C 0.42423 0.69012 1.07808
 C3497 C 0.43928 0.70569 1.08483
 C3498 C 0.43234 0.72577 1.09242
 H3499 H 0.41368 0.79057 1.13764
 H3500 H 0.35752 0.78150 1.09684
 H3501 H 0.39000 0.68402 1.07390
 H3502 H 0.45644 0.70242 1.08404
 H3503 H 0.42853 0.75739 1.12375
 H3504 H 0.44429 0.73759 1.09720
 C3505 C 0.90267 0.74705 0.90408
 C3506 C 0.91610 0.73267 0.89272
 C3507 C 0.90755 0.71349 0.88451
 C3508 C 0.88564 0.70852 0.88742
 C3509 C 0.87280 0.72322 0.89899
 N3510 N 0.88148 0.74185 0.90676
 C3511 C 0.91043 0.76820 0.91230
 N3512 N 0.89559 0.78375 0.91711
 C3513 C 0.90127 0.80379 0.92413
 C3514 C 0.92312 0.80927 0.92651
 C3515 C 0.93871 0.79340 0.92210
 C3516 C 0.93247 0.77286 0.91514
 H3517 H 0.91810 0.70258 0.87584
 H3518 H 0.85577 0.72028 0.90137
 H3519 H 0.88874 0.81558 0.92729
 H3520 H 0.95573 0.79683 0.92419
 H3521 H 0.93288 0.73626 0.88959
 H3522 H 0.94487 0.76090 0.91228
 C3523 C 0.89408 0.25179 0.40004
 C3524 C 0.87308 0.24440 0.40429
 C3525 C 0.86653 0.22432 0.39650
 C3526 C 0.88085 0.21130 0.38467
 C3527 C 0.90184 0.21909 0.38109
 N3528 N 0.90784 0.23881 0.38878
 C3529 C 0.90182 0.27312 0.40778
 N3530 N 0.92346 0.27657 0.40967
 C3531 C 0.93174 0.29566 0.41676
 C3532 C 0.91793 0.31272 0.42255
 C3533 C 0.89561 0.30965 0.42038
 C3534 C 0.88750 0.29001 0.41292
 H3535 H 0.85012 0.21921 0.39954
 H3536 H 0.91353 0.20949 0.37235
 H3537 H 0.94907 0.29738 0.41821
 H3538 H 0.88442 0.32259 0.42413
 H3539 H 0.86176 0.25376 0.41373
 H3540 H 0.87024 0.28840 0.41089
 C3541 C 0.39903 0.75150 0.39668
 C3542 C 0.41077 0.73942 0.38155
 C3543 C 0.40195 0.72051 0.37303
 C3544 C 0.38131 0.71329 0.37946
 C3545 C 0.37017 0.72606 0.39475
 N3546 N 0.37910 0.74452 0.40264
 C3547 C 0.40732 0.77206 0.40571
 N3548 N 0.39295 0.78727 0.41256
 C3549 C 0.39929 0.80674 0.42058
 C3550 C 0.42133 0.81189 0.42205
 C3551 C 0.43642 0.79621 0.41558
 C3552 C 0.42952 0.77634 0.40745
 H3553 H 0.41165 0.71159 0.36163
 H3554 H 0.35416 0.72191 0.40019
 H3555 H 0.38708 0.81835 0.42526
 H3556 H 0.45358 0.79925 0.41693
 H3557 H 0.42644 0.74468 0.37592
 H3558 H 0.44149 0.76444 0.40288
 C3559 C 0.39197 0.25300 0.89757
 C3560 C 0.37297 0.24382 0.90568
 C3561 C 0.36592 0.22391 0.89784
 C3562 C 0.37766 0.21283 0.88174
 C3563 C 0.39686 0.22266 0.87431
 N3564 N 0.40342 0.24205 0.88237
 C3565 C 0.40006 0.27409 0.90544
 N3566 N 0.42169 0.27805 0.90530
 C3567 C 0.43021 0.29700 0.91252
 C3568 C 0.41667 0.31344 0.92045
 C3569 C 0.39429 0.30982 0.92027
 C3570 C 0.38595 0.29026 0.91283
 H3571 H 0.35100 0.21767 0.90430
 H3572 H 0.40700 0.21496 0.86242
 H3573 H 0.44756 0.29902 0.91241
 H3574 H 0.38317 0.32224 0.92561
 H3575 H 0.36370 0.25173 0.91820
 H3576 H 0.36863 0.28805 0.91252
 C3577 C 1.09771 0.74766 1.09902
 C3578 C 1.11244 0.73532 1.08707
 C3579 C 1.12084 0.71633 1.09579
 C3580 C 1.11479 0.70929 1.11660
 C3581 C 1.09961 0.72209 1.12784
 N3582 N 1.09184 0.74070 1.11900
 C3583 C 1.08931 0.76860 1.09094
 N3584 N 1.08317 0.78397 1.10543
 C3585 C 1.07615 0.80389 1.09925
 C3586 C 1.07511 0.80939 1.07727
 C3587 C 1.08086 0.79360 1.06205
 C3588 C 1.08787 0.77323 1.06878
 H3589 H 1.13196 0.70725 1.08590
 H3590 H 1.09435 0.71793 1.14391
 H3591 H 1.07194 0.81558 1.11155
 H3592 H 1.07977 0.79694 1.04493
 H3593 H 1.11799 0.74048 1.07134
 H3594 H 1.09189 0.76127 1.05669
 C3595 C 1.10121 0.25187 0.60741
 C3596 C 1.09346 0.24291 0.62667
 C3597 C 1.10142 0.22306 0.63379
 C3598 C 1.11729 0.21182 0.62188
 C3599 C 1.12430 0.22139 0.60239
 N3600 N 1.11614 0.24073 0.59578
 C3601 C 1.09330 0.27295 0.59928
 N3602 N 1.09310 0.27674 0.57764
 C3603 C 1.08590 0.29571 0.56909
 C3604 C 1.07838 0.31233 0.58262
 C3605 C 1.07891 0.30887 0.60501
 C3606 C 1.08631 0.28929 0.61338
 H3607 H 1.09526 0.21700 0.64891
 H3608 H 1.13595 0.21355 0.59208
 H3609 H 1.08573 0.29762 0.55173
 H3610 H 1.07389 0.32142 0.61612
 H3611 H 1.08115 0.25097 0.63610
 H3612 H 1.08691 0.28720 0.63070
 C3613 C 0.59851 0.74827 0.59813
 C3614 C 0.61012 0.73374 0.58511
 C3615 C 0.61836 0.71477 0.59409
 C3616 C 0.61531 0.71017 0.61606
 C3617 C 0.60351 0.72501 0.62851
 N3618 N 0.59566 0.74344 0.61940
 C3619 C 0.59016 0.76919 0.58980
 N3620 N 0.58496 0.78500 0.60421
 C3621 C 0.57776 0.80482 0.59798
 C3622 C 0.57558 0.80980 0.57598
 C3623 C 0.58046 0.79368 0.56084
 C3624 C 0.58758 0.77337 0.56763
 H3625 H 0.62716 0.70373 0.58380
 H3626 H 0.60098 0.72230 0.64555
 H3627 H 0.57423 0.81683 0.61019
 H3628 H 0.57854 0.79673 0.54373
 H3629 H 0.61338 0.73701 0.56830
 H3630 H 0.59075 0.76119 0.55554
 C3631 C 0.60714 0.25404 1.10625
 C3632 C 0.62660 0.24557 1.09845
 C3633 C 0.63417 0.22585 1.10625
 C3634 C 0.62249 0.21417 1.12196
 C3635 C 0.60286 0.22332 1.12917
 N3636 N 0.59579 0.24258 1.12115
 C3637 C 0.59846 0.27485 1.09819
 N3638 N 0.57670 0.27808 1.09785
 C3639 C 0.56769 0.29663 1.09014
 C3640 C 0.58083 0.31331 1.08209
 C3641 C 0.60331 0.31048 1.08284
 C3642 C 0.61215 0.29138 1.09087
 H3643 H 0.64943 0.22021 1.10001
 H3644 H 0.59278 0.21517 1.14080
 H3645 H 0.55028 0.29813 1.08988
 H3646 H 0.61409 0.32316 1.07745
 H3647 H 0.63583 0.25386 1.08615
 H3648 H 0.62954 0.28978 1.09157
 C3649 C 1.25174 1.09561 0.89982
 C3650 C 1.26646 1.08256 0.88847
 C3651 C 1.28563 1.09155 0.88079
 C3652 C 1.29023 1.11352 0.88419
 C3653 C 1.27517 1.12597 0.89571
 N3654 N 1.25658 1.11687 0.90298
 C3655 C 1.23066 1.08739 0.90769
 N3656 N 1.21503 1.10200 0.91287
 C3657 C 1.19515 1.09596 0.91992
 C3658 C 1.18995 1.07397 0.92203
 C3659 C 1.20585 1.05859 0.91705
 C3660 C 1.22622 1.06519 0.91002
 H3661 H 1.29682 1.08128 0.87214
 H3662 H 1.27783 1.14303 0.89846
 H3663 H 1.18332 1.10836 0.92346
 H3664 H 1.20263 1.04147 0.91889
 H3665 H 1.26319 1.06575 0.88500
 H3666 H 1.23824 1.05294 0.90679
 C3667 C 1.24422 0.60815 0.39375
 C3668 C 1.25027 0.62976 0.39741
 C3669 C 1.26999 0.63730 0.38964
 C3670 C 1.28395 0.62343 0.37838
 C3671 C 1.27746 0.60185 0.37533
 N3672 N 1.25811 0.59488 0.38301
 C3673 C 1.22346 0.59918 0.40169
 N3674 N 1.22132 0.57732 0.40369
 C3675 C 1.20293 0.56792 0.41120
 C3676 C 1.18531 0.58077 0.41742
 C3677 C 1.18697 0.60326 0.41500
 C3678 C 1.20587 0.61251 0.40705
 H3679 H 1.27415 0.65408 0.39229
 H3680 H 1.28782 0.59045 0.36709
 H3681 H 1.20227 0.55049 0.41277
 H3682 H 1.17352 0.61371 0.41907
 H3683 H 1.24019 0.64078 0.40644
 H3684 H 1.20639 0.62986 0.40495
 C3685 C 0.74682 1.10525 0.39549
 C3686 C 0.75394 1.12634 0.39998
 C3687 C 0.77396 1.13318 0.39243
 C3688 C 0.78721 1.11908 0.38059
 C3689 C 0.77959 1.09808 0.37651
 N3690 N 0.75993 1.09176 0.38404
 C3691 C 0.72578 1.09710 0.40348
 N3692 N 0.72277 1.07535 0.40548
 C3693 C 0.70408 1.06673 0.41314
 C3694 C 0.68704 1.08029 0.41951
 C3695 C 0.68962 1.10270 0.41718
 C3696 C 0.70882 1.11115 0.40907
 H3697 H 0.77895 1.14960 0.39579
 H3698 H 0.78936 1.08660 0.36767
 H3699 H 0.70270 1.04934 0.41464
 H3700 H 0.67664 1.11369 0.42134
 H3701 H 0.74448 1.13746 0.40956
 H3702 H 0.71006 1.12847 0.40698
 C3703 C 0.74564 0.60654 0.89525
 C3704 C 0.75263 0.62759 0.90017
 C3705 C 0.77265 0.63470 0.89278
 C3706 C 0.78594 0.62093 0.88063
 C3707 C 0.77847 0.59993 0.87621
 N3708 N 0.75885 0.59335 0.88360
 C3709 C 0.72460 0.59807 0.90292
 N3710 N 0.72178 0.57627 0.90457
 C3711 C 0.70309 0.56735 0.91192
 C3712 C 0.68587 0.58065 0.91832
 C3713 C 0.68824 0.60312 0.91625
 C3714 C 0.70745 0.61188 0.90849
 H3715 H 0.77759 0.65107 0.89646
 H3716 H 0.78829 0.58865 0.86719
 H3717 H 0.70190 0.54993 0.91322
 H3718 H 0.67513 0.61394 0.92044
 H3719 H 0.74306 0.63845 0.90994
 H3720 H 0.70858 0.62923 0.90666
 C3721 C 1.25082 0.90030 1.10147
 C3722 C 1.26488 0.91342 1.11353
 C3723 C 1.28390 0.90464 1.12186
 C3724 C 1.28900 0.88279 1.11841
 C3725 C 1.27453 0.87021 1.10628
 N3726 N 1.25607 0.87912 1.09835
 C3727 C 1.23001 0.90846 1.09278
 N3728 N 1.21439 0.89390 1.08744
 C3729 C 1.19470 0.90001 1.07985
 C3730 C 1.18968 0.92202 1.07737
 C3731 C 1.20566 0.93731 1.08235
 C3732 C 1.22581 0.93064 1.08992
 H3733 H 1.29461 0.91502 1.13096
 H3734 H 1.27761 0.85322 1.10347
 H3735 H 1.18282 0.88768 1.07627
 H3736 H 1.20261 0.95444 1.08020
 H3737 H 1.26120 0.93015 1.11702
 H3738 H 1.23789 0.94282 1.09318
 C3739 C 1.24583 0.39134 0.60386
 C3740 C 1.25256 0.36991 0.60030
 C3741 C 1.27255 0.36304 0.60808
 C3742 C 1.28607 0.37742 0.61924
 C3743 C 1.27888 0.39878 0.62220
 N3744 N 1.25929 0.40509 0.61451
 C3745 C 1.22478 0.39963 0.59594
 N3746 N 1.22196 0.42141 0.59395
 C3747 C 1.20322 0.43028 0.58665
 C3748 C 1.18588 0.41695 0.58069
 C3749 C 1.18827 0.39450 0.58299
 C3750 C 1.20756 0.38579 0.59068
 H3751 H 1.27728 0.34639 0.60550
 H3752 H 1.28887 0.41055 0.63036
 H3753 H 1.20203 0.44769 0.58513
 H3754 H 1.17508 0.38367 0.57910
 H3755 H 1.24281 0.35852 0.59136
 H3756 H 1.20865 0.36846 0.59274
 C3757 C 0.75061 0.90069 0.60087
 C3758 C 0.76471 0.91391 0.61279
 C3759 C 0.78373 0.90517 0.62115
 C3760 C 0.78878 0.88328 0.61788
 C3761 C 0.77426 0.87061 0.60592
 N3762 N 0.75580 0.87948 0.59795
 C3763 C 0.72981 0.90878 0.59212
 N3764 N 0.71425 0.89416 0.58675
 C3765 C 0.69456 0.90020 0.57913
 C3766 C 0.68947 0.92219 0.57667
 C3767 C 0.70538 0.93754 0.58165
 C3768 C 0.72555 0.93095 0.58922
 H3769 H 0.79449 0.91562 0.63012
 H3770 H 0.77728 0.85359 0.60326
 H3771 H 0.68272 0.88784 0.57553
 H3772 H 0.70226 0.95466 0.57952
 H3773 H 0.76107 0.93067 0.61613
 H3774 H 0.73758 0.94318 0.59250
 C3775 C 0.74488 0.39032 1.10504
 C3776 C 0.75178 0.36904 1.10103
 C3777 C 0.77161 0.36202 1.10905
 C3778 C 0.78483 0.37612 1.12092
 C3779 C 0.77743 0.39731 1.12446
 N3780 N 0.75800 0.40379 1.11648
 C3781 C 0.72405 0.39875 1.09669
 N3782 N 0.72132 0.42054 1.09478
 C3783 C 0.70279 0.42949 1.08705
 C3784 C 0.68556 0.41625 1.08056
 C3785 C 0.68787 0.39377 1.08272
 C3786 C 0.70695 0.38498 1.09085
 H3787 H 0.77649 0.34549 1.10605
 H3788 H 0.78720 0.40884 1.13323
 H3789 H 0.70167 0.44692 1.08564
 H3790 H 0.67477 0.38300 1.07845
 H3791 H 0.74230 0.35790 1.09150
 H3792 H 0.70797 0.36763 1.09281
 C3793 C 0.74963 1.10076 1.09829
 C3794 C 0.73525 1.11276 1.08544
 C3795 C 0.71615 1.12062 1.09442
 C3796 C 0.71128 1.11675 1.11620
 C3797 C 0.72599 1.10456 1.12845
 N3798 N 0.74454 1.09713 1.11936
 C3799 C 0.77065 1.09277 1.09001
 N3800 N 0.78635 1.08748 1.10449
 C3801 C 0.80619 1.08040 1.09834
 C3802 C 0.81128 1.07837 1.07636
 C3803 C 0.79529 1.08343 1.06113
 C3804 C 0.77497 1.09049 1.06785
 H3805 H 0.70523 1.12978 1.08430
 H3806 H 0.72308 1.10142 1.14536
 H3807 H 0.81809 1.07678 1.11062
 H3808 H 0.79841 1.08164 1.04403
 H3809 H 0.73876 1.11662 1.06880
 H3810 H 0.76286 1.09379 1.05572
 C3811 C 0.74966 0.60215 0.59879
 C3812 C 0.73500 0.61353 0.58568
 C3813 C 0.71586 0.62140 0.59456
 C3814 C 0.71123 0.61820 0.61650
 C3815 C 0.72627 0.60674 0.62905
 N3816 N 0.74484 0.59924 0.62003
 C3817 C 0.77062 0.59393 0.59056
 N3818 N 0.78633 0.58874 0.60507
 C3819 C 0.80610 0.58142 0.59896
 C3820 C 0.81111 0.57903 0.57701
 C3821 C 0.79511 0.58397 0.56176
 C3822 C 0.77486 0.59128 0.56842
 H3823 H 0.70470 0.62997 0.58419
 H3824 H 0.72357 0.60414 0.64608
 H3825 H 0.81801 0.57788 0.61126
 H3826 H 0.79818 0.58192 0.54468
 H3827 H 0.73827 0.61683 0.56888
 H3828 H 0.76276 0.59445 0.55626
 C3829 C 0.25487 1.10692 0.60696
 C3830 C 0.24821 1.10267 0.62821
 C3831 C 0.22810 1.10986 0.63520
 C3832 C 0.21431 1.12110 0.62113
 C3833 C 0.22148 1.12494 0.59997
 N3834 N 0.24124 1.11778 0.59350
 C3835 C 0.27598 1.09927 0.59860
 N3836 N 0.27873 1.09719 0.57688
 C3837 C 0.29743 1.08972 0.56807
 C3838 C 0.31472 1.08362 0.58140
 C3839 C 0.31244 1.08612 0.60376
 C3840 C 0.29324 1.09405 0.61241
 H3841 H 0.22345 1.10669 0.65172
 H3842 H 0.21130 1.13330 0.58848
 H3843 H 0.29859 1.08810 0.55072
 H3844 H 0.32562 1.08214 0.61457
 H3845 H 0.25809 1.09353 0.63934
 H3846 H 0.29222 1.09623 0.62968
 C3847 C 0.25382 0.60824 1.10362
 C3848 C 0.24652 0.62924 1.09889
 C3849 C 0.22656 0.63613 1.10665
 C3850 C 0.21364 0.62217 1.11899
 C3851 C 0.22136 0.60119 1.12308
 N3852 N 0.24092 0.59484 1.11537
 C3853 C 0.27493 0.60007 1.09583
 N3854 N 0.27808 0.57830 1.09431
 C3855 C 0.29693 0.56960 1.08712
 C3856 C 0.31403 0.58309 1.08084
 C3857 C 0.31129 0.60555 1.08269
 C3858 C 0.29189 0.61408 1.09024
 H3859 H 0.22141 0.65249 1.10319
 H3860 H 0.21181 0.58976 1.13220
 H3861 H 0.29839 0.55219 1.08594
 H3862 H 0.32428 0.61651 1.07856
 H3863 H 0.25584 0.64026 1.08906
 H3864 H 0.29049 0.63143 1.09196
 C3865 C 0.75330 0.89535 0.89259
 C3866 C 0.74707 0.89825 0.87097
 C3867 C 0.72712 0.89053 0.86397
 C3868 C 0.71310 0.88011 0.87841
 C3869 C 0.71982 0.87774 0.89994
 N3870 N 0.73939 0.88535 0.90638
 C3871 C 0.77426 0.90335 0.90104
 N3872 N 0.77674 0.90578 0.92277
 C3873 C 0.79533 0.91328 0.93175
 C3874 C 0.81285 0.91904 0.91861
 C3875 C 0.81083 0.91628 0.89624
 C3876 C 0.79171 0.90834 0.88742
 H3877 H 0.72282 0.89261 0.84718
 H3878 H 0.70945 0.87014 0.91174
 H3879 H 0.79626 0.91515 0.94909
 H3880 H 0.82417 0.92000 0.88558
 H3881 H 0.75717 0.90666 0.85949
 H3882 H 0.79093 0.90593 0.87017
 C3883 C 0.74630 0.40406 0.40387
 C3884 C 0.73137 0.39332 0.41716
 C3885 C 0.71223 0.38543 0.40830
 C3886 C 0.70785 0.38798 0.38622
 C3887 C 0.72301 0.39907 0.37355
 N3888 N 0.74161 0.40655 0.38252
 C3889 C 0.76751 0.41177 0.41198
 N3890 N 0.78333 0.41626 0.39739
 C3891 C 0.80338 0.42286 0.40338
 C3892 C 0.80861 0.42514 0.42530
 C3893 C 0.79252 0.42092 0.44064
 C3894 C 0.77197 0.41440 0.43409
 H3895 H 0.70093 0.37718 0.41876
 H3896 H 0.72046 0.40121 0.35642
 H3897 H 0.81535 0.42587 0.39102
 H3898 H 0.79577 0.42294 0.45770
 H3899 H 0.73446 0.39038 0.43406
 H3900 H 0.75984 0.41175 0.44633
 C3901 C 0.25274 0.89779 0.39226
 C3902 C 0.24573 0.90208 0.37112
 C3903 C 0.22593 0.89403 0.36409
 C3904 C 0.21284 0.88186 0.37803
 C3905 C 0.22030 0.87814 0.39913
 N3906 N 0.23972 0.88613 0.40561
 C3907 C 0.27363 0.90598 0.40065
 N3908 N 0.27652 0.90754 0.42239
 C3909 C 0.29515 0.91505 0.43130
 C3910 C 0.31230 0.92166 0.41806
 C3911 C 0.30983 0.91984 0.39563
 C3912 C 0.29066 0.91194 0.38688
 H3913 H 0.22101 0.89720 0.34764
 H3914 H 0.21064 0.86915 0.41055
 H3915 H 0.29640 0.91619 0.44868
 H3916 H 0.32287 0.92421 0.38485
 H3917 H 0.25513 0.91181 0.36009
 H3918 H 0.28951 0.91023 0.36956
 C3919 C 0.24888 0.39955 0.90215
 C3920 C 0.23461 0.38756 0.91513
 C3921 C 0.21570 0.37921 0.90616
 C3922 C 0.21092 0.38257 0.88427
 C3923 C 0.22561 0.39459 0.87185
 N3924 N 0.24394 0.40254 0.88095
 C3925 C 0.26958 0.40831 0.91045
 N3926 N 0.28519 0.41387 0.89600
 C3927 C 0.30478 0.42163 0.90218
 C3928 C 0.30969 0.42407 0.92415
 C3929 C 0.29373 0.41885 0.93934
 C3930 C 0.27367 0.41111 0.93260
 H3931 H 0.20482 0.37017 0.91640
 H3932 H 0.22283 0.39731 0.85485
 H3933 H 0.31666 0.42536 0.88993
 H3934 H 0.29671 0.42094 0.95643
 H3935 H 0.23804 0.38418 0.93189
 H3936 H 0.26160 0.40765 0.94469
   
