data_POSCAR
  _audit_creation_date              2014-09-24
  _audit_creation_method            'ToBaCCo'
  _symmetry_space_group_name_H-M    'P1'
  _symmetry_Int_Tables_number       1
  _symmetry_cell_setting            triclinic
  loop_
  _symmetry_equiv_pos_as_xyz
 x,y,z
_cell_length_a 70.3442
_cell_length_b 63.6527
_cell_length_c 65.7257
_cell_angle_alpha 89.763800
_cell_angle_beta 90.121400
_cell_angle_gamma 89.968000
loop_
  _atom_site_label
  _atom_site_type_symbol
  _atom_site_fract_x
  _atom_site_fract_y
  _atom_site_fract_z
C1 C 0.31023 0.31050 -0.00706
 C2 C 0.31112 0.30946 0.01367
 C3 C 0.29788 0.32164 0.02668
 C4 C 0.32575 0.29678 0.02459
 C5 C 0.32267 0.29736 -0.02009
 C6 C 0.29707 0.32527 -0.01764
 C7 C 0.30528 0.33545 0.04124
 C8 C 0.29313 0.34739 0.05331
 C9 C 0.27331 0.34566 0.05116
 C10 C 0.26589 0.33156 0.03677
 C11 C 0.27808 0.31955 0.02471
 C12 C 0.34519 0.29891 0.02012
 C13 C 0.35875 0.28742 0.03106
 C14 C 0.35315 0.27410 0.04704
 C15 C 0.33376 0.27219 0.05167
 C16 C 0.32019 0.28337 0.04051
 C17 C 0.32343 0.27553 -0.01767
 C18 C 0.33628 0.26353 -0.02891
 C19 C 0.34882 0.27296 -0.04320
 C20 C 0.34711 0.29503 -0.04601
 C21 C 0.33426 0.30691 -0.03468
 C22 C 0.28442 0.31771 -0.03243
 C23 C 0.27140 0.33127 -0.04179
 C24 C 0.27081 0.35263 -0.03649
 C25 C 0.28383 0.36028 -0.02208
 C26 C 0.29700 0.34678 -0.01294
 H27 H 0.32050 0.33727 0.04298
 H28 H 0.29928 0.35832 0.06405
 H29 H 0.25069 0.32970 0.03498
 H30 H 0.27211 0.30869 0.01378
 H31 H 0.34989 0.30965 0.00835
 H32 H 0.37366 0.28935 0.02742
 H33 H 0.30531 0.28163 0.04434
 H34 H 0.31414 0.26775 -0.00689
 H35 H 0.33561 0.24673 -0.02667
 H36 H 0.35648 0.30382 -0.05585
 H37 H 0.33392 0.32380 -0.03674
 H38 H 0.28435 0.30121 -0.03639
 H39 H 0.26151 0.32500 -0.05284
 H40 H 0.28390 0.37676 -0.01803
 H41 H 0.30700 0.35307 -0.00201
 H42 H 0.32912 0.26193 0.06387
 C43 C 0.69481 0.69445 -0.00476
 C44 C 0.69437 0.69436 0.01593
 C45 C 0.70720 0.68073 0.02819
 C46 C 0.68000 0.70681 0.02713
 C47 C 0.68238 0.70864 -0.01685
 C48 C 0.70638 0.67912 -0.01623
 C49 C 0.69950 0.66688 0.04262
 C50 C 0.71133 0.65365 0.05396
 C51 C 0.73115 0.65411 0.05123
 C52 C 0.73886 0.66821 0.03694
 C53 C 0.72700 0.68146 0.02558
 C54 C 0.66058 0.70238 0.02482
 C55 C 0.64702 0.71419 0.03522
 C56 C 0.65264 0.73070 0.04800
 C57 C 0.67211 0.73508 0.05032
 C58 C 0.68570 0.72306 0.04011
 C59 C 0.68314 0.73049 -0.01422
 C60 C 0.67047 0.74359 -0.02466
 C61 C 0.65684 0.73507 -0.03798
 C62 C 0.65650 0.71320 -0.04095
 C63 C 0.66921 0.70014 -0.03056
 C64 C 0.72092 0.68613 -0.02913
 C65 C 0.73153 0.67171 -0.04038
 C66 C 0.72741 0.65015 -0.03926
 C67 C 0.71274 0.64319 -0.02644
 C68 C 0.70238 0.65757 -0.01490
 H69 H 0.68427 0.66603 0.04485
 H70 H 0.70491 0.64278 0.06464
 H71 H 0.75409 0.66918 0.03471
 H72 H 0.73326 0.69232 0.01478
 H73 H 0.65598 0.68976 0.01497
 H74 H 0.63210 0.71058 0.03311
 H75 H 0.70065 0.72658 0.04210
 H76 H 0.69341 0.73735 -0.00390
 H77 H 0.67131 0.76039 -0.02230
 H78 H 0.64602 0.70610 -0.05086
 H79 H 0.66835 0.68331 -0.03273
 H80 H 0.72406 0.70274 -0.03039
 H81 H 0.74270 0.67740 -0.05030
 H82 H 0.70938 0.62663 -0.02531
 H83 H 0.69105 0.65196 -0.00516
 H84 H 0.67678 0.74760 0.06025
 C85 C 0.69112 0.30397 1.01116
 C86 C 0.69176 0.30443 0.99046
 C87 C 0.70470 0.31883 0.97950
 C88 C 0.67859 0.29158 0.97791
 C89 C 0.67697 0.29086 1.02192
 C90 C 0.70361 0.31738 1.02398
 C91 C 0.70221 0.34066 0.98068
 C92 C 0.71485 0.35417 0.97078
 C93 C 0.73027 0.34603 0.95979
 C94 C 0.73264 0.32416 0.95853
 C95 C 0.71980 0.31065 0.96813
 C96 C 0.66561 0.30158 0.96486
 C97 C 0.65207 0.28989 0.95421
 C98 C 0.65133 0.26789 0.95623
 C99 C 0.66475 0.25785 0.96888
 C100 C 0.67829 0.26959 0.97956
 C101 C 0.68297 0.27343 1.03334
 C102 C 0.66963 0.26042 1.04278
 C103 C 0.65013 0.26493 1.04126
 C104 C 0.64419 0.28267 1.03015
 C105 C 0.65752 0.29550 1.02047
 C106 C 0.72345 0.31683 1.02211
 C107 C 0.73491 0.32998 1.03395
 C108 C 0.72685 0.34394 1.04827
 C109 C 0.70682 0.34394 1.05022
 C110 C 0.69546 0.33087 1.03829
 H111 H 0.69054 0.34717 0.98934
 H112 H 0.71280 0.37098 0.97200
 H113 H 0.74434 0.31756 0.94997
 H114 H 0.72185 0.29383 0.96708
 H115 H 0.66556 0.31854 0.96344
 H116 H 0.64182 0.29817 0.94485
 H117 H 0.68837 0.26155 0.98934
 H118 H 0.69796 0.26972 1.03459
 H119 H 0.67452 0.24694 1.05144
 H120 H 0.62922 0.28639 1.02871
 H121 H 0.65271 0.30897 1.01175
 H122 H 0.73011 0.30608 1.01157
 H123 H 0.75013 0.32844 1.03227
 H124 H 0.69958 0.35472 1.06025
 H125 H 0.68015 0.33165 1.03993
 H126 H 0.66480 0.24092 0.97051
 C127 C 0.31448 0.68725 1.00810
 C128 C 0.31548 0.68842 0.98739
 C129 C 0.30175 0.67723 0.97416
 C130 C 0.33069 0.70039 0.97666
 C131 C 0.32820 0.69853 1.02128
 C132 C 0.29997 0.67434 1.01897
 C133 C 0.30863 0.66316 0.95956
 C134 C 0.29607 0.65192 0.94734
 C135 C 0.27635 0.65460 0.94941
 C136 C 0.26945 0.66908 0.96371
 C137 C 0.28207 0.68045 0.97590
 C138 C 0.35005 0.69704 0.98096
 C139 C 0.36405 0.70801 0.97019
 C140 C 0.35894 0.72197 0.95452
 C141 C 0.33963 0.72508 0.95003
 C142 C 0.32565 0.71446 0.96105
 C143 C 0.33050 0.72035 1.02000
 C144 C 0.34346 0.73061 1.03268
 C145 C 0.35427 0.71929 1.04724
 C146 C 0.35157 0.69732 1.04843
 C147 C 0.33872 0.68716 1.03568
 C148 C 0.28995 0.68321 1.03522
 C149 C 0.27736 0.67116 1.04674
 C150 C 0.27414 0.64980 1.04219
 C151 C 0.28396 0.64109 1.02548
 C152 C 0.29699 0.65308 1.01433
 H153 H 0.32377 0.66052 0.95796
 H154 H 0.30178 0.64068 0.93664
 H155 H 0.25432 0.67164 0.96542
 H156 H 0.27652 0.69156 0.98681
 H157 H 0.35435 0.68576 0.99246
 H158 H 0.37889 0.70518 0.97371
 H159 H 0.31084 0.71717 0.95734
 H160 H 0.32213 0.72946 1.00928
 H161 H 0.34426 0.74753 1.03152
 H162 H 0.35990 0.68757 1.05859
 H163 H 0.33718 0.67026 1.03682
 H164 H 0.29198 0.69959 1.03911
 H165 H 0.26974 0.67894 1.05884
 H166 H 0.28255 0.62464 1.02167
 H167 H 0.30506 0.64559 1.00237
 H168 H 0.33537 0.73584 0.93804
 C169 C -0.00418 0.29322 0.29738
 C170 C 0.01512 0.29249 0.29828
 C171 C 0.02514 0.27969 0.31381
 C172 C 0.02695 0.30625 0.28518
 C173 C -0.01403 0.30819 0.28367
 C174 C -0.01631 0.28073 0.31137
 C175 C 0.02342 0.28447 0.33454
 C176 C 0.03297 0.27242 0.34913
 C177 C 0.04428 0.25529 0.34323
 C178 C 0.04591 0.25049 0.32246
 C179 C 0.03656 0.26275 0.30784
 C180 C 0.03837 0.32173 0.29412
 C181 C 0.04823 0.33610 0.28200
 C182 C 0.04697 0.33517 0.26066
 C183 C 0.03600 0.31918 0.25174
 C184 C 0.02611 0.30481 0.26390
 C185 C -0.02309 0.30099 0.26608
 C186 C -0.03257 0.31507 0.25320
 C187 C -0.03373 0.33666 0.25802
 C188 C -0.02450 0.34362 0.27589
 C189 C -0.01463 0.32958 0.28842
 C190 C -0.01475 0.25881 0.31259
 C191 C -0.02583 0.24742 0.32642
 C192 C -0.03896 0.25765 0.33932
 C193 C -0.04053 0.27974 0.33760
 C194 C -0.02943 0.29102 0.32383
 H195 H 0.01474 0.29760 0.33936
 H196 H 0.03145 0.27638 0.36506
 H197 H 0.05470 0.23751 0.31755
 H198 H 0.03807 0.25895 0.29188
 H199 H 0.03911 0.32314 0.31052
 H200 H 0.05634 0.34837 0.28936
 H201 H 0.01756 0.29278 0.25674
 H202 H -0.02280 0.28444 0.26232
 H203 H -0.03978 0.30869 0.24006
 H204 H -0.02425 0.36007 0.27997
 H205 H -0.00755 0.33536 0.30194
 H206 H -0.00498 0.25051 0.30277
 H207 H -0.02442 0.23051 0.32633
 H208 H -0.04961 0.28875 0.34754
 H209 H -0.03073 0.30797 0.32333
 H210 H 0.03500 0.31782 0.23536
 C211 C -0.00984 0.69529 0.69379
 C212 C 0.00947 0.69546 0.69281
 C213 C 0.02004 0.70859 0.67787
 C214 C 0.02065 0.68117 0.70601
 C215 C -0.01977 0.67909 0.70600
 C216 C -0.02192 0.71010 0.68191
 C217 C 0.01502 0.70842 0.65715
 C218 C 0.02453 0.72126 0.64323
 C219 C 0.03961 0.73407 0.64963
 C220 C 0.04510 0.73369 0.67019
 C221 C 0.03538 0.72109 0.68419
 C222 C 0.02427 0.66053 0.69974
 C223 C 0.03302 0.64630 0.71302
 C224 C 0.03865 0.65270 0.73253
 C225 C 0.03550 0.67353 0.73857
 C226 C 0.02631 0.68762 0.72547
 C227 C -0.02602 0.68344 0.72572
 C228 C -0.03592 0.66820 0.73686
 C229 C -0.04014 0.64838 0.72828
 C230 C -0.03328 0.64418 0.70851
 C231 C -0.02317 0.65930 0.69761
 C232 C -0.01863 0.73183 0.68236
 C233 C -0.02954 0.74549 0.67036
 C234 C -0.04433 0.73780 0.65781
 C235 C -0.04776 0.71592 0.65800
 C236 C -0.03676 0.70237 0.66985
 H237 H 0.00366 0.69839 0.65175
 H238 H 0.02028 0.72097 0.62738
 H239 H 0.05670 0.74345 0.67548
 H240 H 0.03965 0.72139 0.70001
 H241 H 0.01983 0.65533 0.68480
 H242 H 0.03542 0.63029 0.70810
 H243 H 0.02334 0.70343 0.73059
 H244 H -0.02342 0.69871 0.73237
 H245 H -0.04112 0.67254 0.75174
 H246 H -0.03519 0.62899 0.70148
 H247 H -0.01812 0.65563 0.68247
 H248 H -0.00754 0.73823 0.69196
 H249 H -0.02665 0.76212 0.67157
 H250 H -0.05826 0.70882 0.64817
 H251 H -0.03953 0.68568 0.66903
 H252 H 0.03969 0.67869 0.75361
 C253 C 1.00879 0.68769 0.31566
 C254 C 0.98945 0.68711 0.31681
 C255 C 0.97910 0.70075 0.33137
 C256 C 0.97769 0.67279 0.30404
 C257 C 1.01967 0.67573 0.30016
 C258 C 1.02013 0.69955 0.33083
 C259 C 0.96702 0.69177 0.34593
 C260 C 0.95728 0.70449 0.35971
 C261 C 0.95934 0.72647 0.35908
 C262 C 0.97134 0.73542 0.34431
 C263 C 0.98106 0.72268 0.33054
 C264 C 0.98193 0.65126 0.30257
 C265 C 0.97074 0.63807 0.29052
 C266 C 0.95477 0.64602 0.28018
 C267 C 0.95025 0.66742 0.28206
 C268 C 0.96162 0.68067 0.29383
 C269 C 1.01517 0.67703 0.27939
 C270 C 1.02521 0.66511 0.26515
 C271 C 1.04035 0.65186 0.27124
 C272 C 1.04497 0.65115 0.29219
 C273 C 1.03480 0.66289 0.30634
 C274 C 1.03072 0.71710 0.32484
 C275 C 1.04166 0.72810 0.33904
 C276 C 1.04276 0.72138 0.35955
 C277 C 1.03210 0.70348 0.36528
 C278 C 1.02082 0.69287 0.35113
 H279 H 0.96531 0.67488 0.34677
 H280 H 0.94833 0.69710 0.37105
 H281 H 0.97296 0.75230 0.34319
 H282 H 0.99003 0.72993 0.31913
 H283 H 0.99387 0.64463 0.31081
 H284 H 0.97433 0.62156 0.28957
 H285 H 0.95795 0.69716 0.29486
 H286 H 1.00385 0.68728 0.27419
 H287 H 1.02141 0.66703 0.24930
 H288 H 1.05582 0.64072 0.29807
 H289 H 1.03848 0.66151 0.32230
 H290 H 1.03047 0.72231 0.30913
 H291 H 1.04995 0.74125 0.33355
 H292 H 1.03180 0.69798 0.38087
 H293 H 1.01271 0.67928 0.35598
 H294 H 0.93805 0.67394 0.27418
 C295 C 1.00925 0.31965 0.67888
 C296 C 0.98998 0.31905 0.67985
 C297 C 0.97880 0.30441 0.66708
 C298 C 0.97909 0.33367 0.69289
 C299 C 1.02071 0.33350 0.69216
 C300 C 1.01992 0.30692 0.66398
 C301 C 0.96511 0.31240 0.65359
 C302 C 0.95466 0.29885 0.64125
 C303 C 0.95757 0.27702 0.64231
 C304 C 0.97115 0.26903 0.65604
 C305 C 0.98163 0.28262 0.66837
 C306 C 0.98018 0.35546 0.68977
 C307 C 0.96910 0.36909 0.70142
 C308 C 0.95685 0.36114 0.71646
 C309 C 0.95595 0.33933 0.71969
 C310 C 0.96685 0.32570 0.70785
 C311 C 1.01957 0.33193 0.71342
 C312 C 1.03110 0.34449 0.72573
 C313 C 1.04399 0.35877 0.71695
 C314 C 1.04495 0.36035 0.69564
 C315 C 1.03350 0.34776 0.68338
 C316 C 1.03188 0.29080 0.67077
 C317 C 1.04275 0.27935 0.65695
 C318 C 1.04234 0.28419 0.63593
 C319 C 1.03017 0.30055 0.62933
 C320 C 1.01898 0.31163 0.64319
 H321 H 0.96276 0.32918 0.65239
 H322 H 0.94451 0.30552 0.63062
 H323 H 0.97350 0.25227 0.65741
 H324 H 0.99190 0.27616 0.67898
 H325 H 0.98938 0.36186 0.67809
 H326 H 0.97010 0.38584 0.69872
 H327 H 0.96574 0.30891 0.71033
 H328 H 1.01001 0.32074 0.72045
 H329 H 1.03023 0.34269 0.74209
 H330 H 1.05449 0.37143 0.68843
 H331 H 1.03455 0.34920 0.66700
 H332 H 1.03290 0.28718 0.68686
 H333 H 1.05224 0.26751 0.66304
 H334 H 1.02873 0.30451 0.61338
 H335 H 1.00980 0.32412 0.63775
 H336 H 0.94648 0.33281 0.73104
 C337 C 0.31827 -0.01065 0.31372
 C338 C 0.31691 0.01076 0.31327
 C339 C 0.32872 0.02364 0.29924
 C340 C 0.30431 0.02257 0.32736
 C341 C 0.30516 -0.02371 0.32620
 C342 C 0.33317 -0.02201 0.30200
 C343 C 0.34023 0.03962 0.30717
 C344 C 0.35190 0.05142 0.29437
 C345 C 0.35220 0.04760 0.27332
 C346 C 0.34039 0.03183 0.26532
 C347 C 0.32865 0.02003 0.27817
 C348 C 0.30472 0.01874 0.34844
 C349 C 0.29344 0.03061 0.36157
 C350 C 0.28197 0.04691 0.35394
 C351 C 0.28175 0.05093 0.33293
 C352 C 0.29276 0.03883 0.31976
 C353 C 0.28535 -0.02156 0.32446
 C354 C 0.27324 -0.03361 0.33667
 C355 C 0.28072 -0.04819 0.35069
 C356 C 0.30056 -0.05057 0.35209
 C357 C 0.31263 -0.03852 0.33991
 C358 C 0.32816 -0.03908 0.28972
 C359 C 0.34192 -0.04956 0.27829
 C360 C 0.36114 -0.04308 0.27863
 C361 C 0.36606 -0.02614 0.29143
 C362 C 0.35234 -0.01607 0.30321
 H363 H 0.34049 0.04263 0.32338
 H364 H 0.36101 0.06327 0.30102
 H365 H 0.34013 0.02874 0.24914
 H366 H 0.31962 0.00799 0.27172
 H367 H 0.31398 0.00679 0.35477
 H368 H 0.29403 0.02742 0.37776
 H369 H 0.29236 0.04221 0.30360
 H370 H 0.27928 -0.01051 0.31368
 H371 H 0.25803 -0.03167 0.33499
 H372 H 0.30677 -0.06148 0.36290
 H373 H 0.32787 -0.04044 0.34148
 H374 H 0.31346 -0.04404 0.28863
 H375 H 0.33716 -0.06206 0.26842
 H376 H 0.38066 -0.02109 0.29310
 H377 H 0.35671 -0.00351 0.31325
 H378 H 0.27295 0.06337 0.32670
 C379 C 0.67226 -0.00422 0.67512
 C380 C 0.67218 0.01708 0.67376
 C381 C 0.65921 0.03013 0.68623
 C382 C 0.68449 0.02838 0.65913
 C383 C 0.68573 -0.01729 0.66329
 C384 C 0.65823 -0.01553 0.68785
 C385 C 0.64655 0.04403 0.67664
 C386 C 0.63432 0.05649 0.68816
 C387 C 0.63464 0.05544 0.70953
 C388 C 0.64747 0.04160 0.71911
 C389 C 0.65969 0.02910 0.70756
 C390 C 0.68207 0.02570 0.63810
 C391 C 0.69330 0.03700 0.62438
 C392 C 0.70724 0.05096 0.63152
 C393 C 0.70972 0.05348 0.65257
 C394 C 0.69828 0.04245 0.66627
 C395 C 0.70546 -0.01440 0.66498
 C396 C 0.71796 -0.02684 0.65369
 C397 C 0.71095 -0.04249 0.64062
 C398 C 0.69117 -0.04539 0.63911
 C399 C 0.67872 -0.03299 0.65040
 C400 C 0.66427 -0.02673 0.70504
 C401 C 0.65114 -0.03754 0.71707
 C402 C 0.63163 -0.03792 0.71186
 C403 C 0.62582 -0.02671 0.69429
 C404 C 0.63895 -0.01552 0.68257
 H405 H 0.64599 0.04504 0.66019
 H406 H 0.62444 0.06677 0.68031
 H407 H 0.64830 0.04069 0.73554
 H408 H 0.66964 0.01877 0.71524
 H409 H 0.67134 0.01505 0.63237
 H410 H 0.69120 0.03476 0.60821
 H411 H 0.70022 0.04477 0.68246
 H412 H 0.71117 -0.00262 0.67513
 H413 H 0.73311 -0.02444 0.65544
 H414 H 0.68530 -0.05708 0.62897
 H415 H 0.66355 -0.03545 0.64886
 H416 H 0.67919 -0.02703 0.70916
 H417 H 0.65658 -0.04639 0.72991
 H418 H 0.61102 -0.02581 0.68987
 H419 H 0.63410 -0.00691 0.66929
 H420 H 0.72027 0.06431 0.65839
 C421 C 0.31662 1.00633 0.69089
 C422 C 0.31714 0.98488 0.69160
 C423 C 0.33082 0.97326 0.70480
 C424 C 0.30438 0.97186 0.67870
 C425 C 0.30445 1.01772 0.67594
 C426 C 0.32843 1.01939 0.70475
 C427 C 0.35038 0.97777 0.70434
 C428 C 0.36303 0.96665 0.71678
 C429 C 0.35643 0.95040 0.72943
 C430 C 0.33695 0.94559 0.72956
 C431 C 0.32427 0.95695 0.71739
 C432 C 0.31224 0.95711 0.66535
 C433 C 0.30056 0.94540 0.65247
 C434 C 0.28070 0.94805 0.65280
 C435 C 0.27282 0.96250 0.66657
 C436 C 0.28454 0.97422 0.67947
 C437 C 0.29167 1.03312 0.68266
 C438 C 0.27943 1.04310 0.66890
 C439 C 0.27973 1.03778 0.64817
 C440 C 0.29292 1.02282 0.64136
 C441 C 0.30535 1.01310 0.65507
 C442 C 0.32759 1.01677 0.72596
 C443 C 0.33966 1.02825 0.73869
 C444 C 0.35272 1.04270 0.73046
 C445 C 0.35310 1.04570 0.70924
 C446 C 0.34101 1.03425 0.69655
 H447 H 0.35588 0.98982 0.69428
 H448 H 0.37804 0.97039 0.71619
 H449 H 0.33154 0.93314 0.73922
 H450 H 0.30928 0.95308 0.71786
 H451 H 0.32751 0.95504 0.66454
 H452 H 0.30711 0.93462 0.64189
 H453 H 0.27817 0.98527 0.68993
 H454 H 0.29085 1.03704 0.69866
 H455 H 0.26938 1.05459 0.67451
 H456 H 0.29366 1.01875 0.62540
 H457 H 0.31549 1.00173 0.64944
 H458 H 0.31774 1.00563 0.73262
 H459 H 0.33876 1.02584 0.75497
 H460 H 0.36312 1.05648 0.70237
 H461 H 0.34188 1.03651 0.68024
 H462 H 0.25757 0.96464 0.66747
 C463 C 0.68194 1.00831 0.31713
 C464 C 0.68059 0.98695 0.31625
 C465 C 0.66536 0.97633 0.30443
 C466 C 0.69394 0.97304 0.32753
 C467 C 0.69543 1.01892 0.33117
 C468 C 0.66974 1.02210 0.30431
 C469 C 0.64616 0.98181 0.30699
 C470 C 0.63203 0.97172 0.29575
 C471 C 0.63681 0.95556 0.28223
 C472 C 0.65592 0.94966 0.28010
 C473 C 0.67008 0.96000 0.29107
 C474 C 0.68672 0.95790 0.34100
 C475 C 0.69903 0.94521 0.35230
 C476 C 0.71883 0.94728 0.35024
 C477 C 0.72604 0.96213 0.33635
 C478 C 0.71369 0.97482 0.32501
 C479 C 0.70740 1.03477 0.32379
 C480 C 0.72034 1.04468 0.33671
 C481 C 0.72178 1.03885 0.35743
 C482 C 0.70944 1.02305 0.36474
 C483 C 0.69624 1.01353 0.35186
 C484 C 0.66936 1.01994 0.28307
 C485 C 0.65710 1.03229 0.27128
 C486 C 0.64506 1.04710 0.28051
 C487 C 0.64591 1.04961 0.30174
 C488 C 0.65821 1.03731 0.31350
 H489 H 0.64211 0.99386 0.31773
 H490 H 0.61733 0.97629 0.29783
 H491 H 0.65990 0.93726 0.26970
 H492 H 0.68478 0.95538 0.28902
 H493 H 0.67153 0.95627 0.34313
 H494 H 0.69304 0.93412 0.36305
 H495 H 0.71952 0.98615 0.31439
 H496 H 0.70699 1.03923 0.30787
 H497 H 0.72977 1.05622 0.33006
 H498 H 0.70926 1.01857 0.38063
 H499 H 0.68661 1.00191 0.35809
 H500 H 0.67842 1.00854 0.27567
 H501 H 0.65707 1.03026 0.25494
 H502 H 0.63669 1.06070 0.30935
 H503 H 0.65834 1.03922 0.32987
 H504 H 0.74122 0.96385 0.33421
 O505 O 0.86516 0.84094 0.48449
 O506 O 0.83833 0.87294 0.52140
 O507 O 0.86393 0.84331 0.52410
 O508 O 0.83990 0.87098 0.48195
 O509 O 0.81714 0.84716 0.48231
 O510 O 0.84113 0.81954 0.52432
 O511 O 0.81569 0.84899 0.52174
 O512 O 0.84222 0.81735 0.48485
 Cu513 Cu 0.85415 0.85941 0.50295
 Cu514 Cu 0.82678 0.83088 0.50334
 C515 C 0.85821 0.82365 0.47833
 C516 C 0.82235 0.86641 0.52784
 C517 C 0.85664 0.82667 0.53142
 C518 C 0.82434 0.86385 0.47499
 O519 O 0.13675 0.15567 0.48295
 O520 O 0.16487 0.12954 0.52354
 O521 O 0.13668 0.15605 0.52274
 O522 O 0.16399 0.12759 0.48425
 O523 O 0.18505 0.15325 0.48320
 O524 O 0.15694 0.18249 0.52119
 O525 O 0.18513 0.15599 0.52286
 O526 O 0.15788 0.18127 0.48205
 Cu527 Cu 0.14845 0.13964 0.50341
 Cu528 Cu 0.17339 0.17079 0.50218
 C529 C 0.14251 0.17315 0.47577
 C530 C 0.17981 0.13848 0.53016
 C531 C 0.14200 0.17414 0.52845
 C532 C 0.17932 0.13529 0.47737
 O533 O 0.15775 0.87654 0.48087
 O534 O 0.13161 0.84734 0.52061
 O535 O 0.15823 0.87601 0.52041
 O536 O 0.13080 0.84854 0.48086
 O537 O 0.15183 0.82279 0.48102
 O538 O 0.18021 0.85133 0.51929
 O539 O 0.15388 0.82292 0.52053
 O540 O 0.17891 0.85100 0.47966
 Cu541 Cu 0.14240 0.86459 0.50077
 Cu542 Cu 0.16837 0.83451 0.49998
 C543 C 0.17282 0.86870 0.47344
 C544 C 0.13843 0.83023 0.52751
 C545 C 0.17399 0.86850 0.52651
 C546 C 0.13651 0.83090 0.47432
 O547 O 0.86184 0.16566 0.51607
 O548 O 0.83574 0.13662 0.47642
 O549 O 0.86294 0.16448 0.47643
 O550 O 0.83523 0.13723 0.51594
 O551 O 0.81301 0.16163 0.51366
 O552 O 0.84188 0.19016 0.47594
 O553 O 0.81503 0.16264 0.47428
 O554 O 0.83965 0.19015 0.51551
 Cu555 Cu 0.85114 0.14849 0.49635
 Cu556 Cu 0.82526 0.17870 0.49482
 C557 C 0.85507 0.18283 0.52270
 C558 C 0.82103 0.14486 0.46844
 C559 C 0.85720 0.18201 0.46945
 C560 C 0.81922 0.14456 0.52128
 O561 O 0.52609 0.84344 0.87429
 O562 O 0.48738 0.87376 0.85017
 O563 O 0.48927 0.84384 0.87773
 O564 O 0.52431 0.87331 0.84741
 O565 O 0.52150 0.85017 0.82265
 O566 O 0.48736 0.82000 0.85354
 O567 O 0.48485 0.84954 0.82639
 O568 O 0.52431 0.82013 0.84963
 Cu569 Cu 0.50690 0.86097 0.86486
 Cu570 Cu 0.50432 0.83254 0.83566
 C571 C 0.53194 0.82667 0.86596
 C572 C 0.47951 0.86680 0.83411
 C573 C 0.48241 0.82681 0.87088
 C574 C 0.52878 0.86686 0.82980
 O575 O 0.52079 0.15311 0.12667
 O576 O 0.48245 0.12243 0.15113
 O577 O 0.48398 0.15207 0.12354
 O578 O 0.51943 0.12284 0.15350
 O579 O 0.51801 0.14681 0.17759
 O580 O 0.48151 0.17542 0.14813
 O581 O 0.48096 0.14609 0.17550
 O582 O 0.51819 0.17706 0.15069
 Cu583 Cu 0.50187 0.13520 0.13629
 Cu584 Cu 0.49952 0.16366 0.16546
 C585 C 0.52580 0.17054 0.13441
 C586 C 0.47514 0.12914 0.16755
 C587 C 0.47666 0.16872 0.13068
 C588 C 0.52489 0.12983 0.17060
 O589 O 0.47887 0.17221 0.86352
 O590 O 0.51447 0.14094 0.83600
 O591 O 0.51613 0.17058 0.86333
 O592 O 0.47755 0.14301 0.83583
 O593 O 0.47844 0.16736 0.81188
 O594 O 0.51697 0.19447 0.83897
 O595 O 0.51533 0.16499 0.81176
 O596 O 0.47989 0.19641 0.83945
 Cu597 Cu 0.49668 0.15432 0.85214
 Cu598 Cu 0.49777 0.18324 0.82315
 C599 C 0.47316 0.18958 0.85614
 C600 C 0.52091 0.14754 0.81910
 C601 C 0.52325 0.18720 0.85571
 C602 C 0.47141 0.15054 0.81910
 O603 O 0.48261 0.83389 0.13640
 O604 O 0.51831 0.85852 0.16926
 O605 O 0.51959 0.83165 0.13942
 O606 O 0.48164 0.85983 0.16699
 O607 O 0.47933 0.83312 0.18840
 O608 O 0.51681 0.80509 0.16088
 O609 O 0.51638 0.83191 0.19079
 O610 O 0.48014 0.80747 0.15805
 Cu611 Cu 0.50080 0.84861 0.15081
 Cu612 Cu 0.49799 0.81676 0.17673
 C613 C 0.47515 0.81654 0.14162
 C614 C 0.52339 0.84955 0.18567
 C615 C 0.52456 0.81343 0.14542
 C616 C 0.47400 0.85117 0.18241
 O617 O 0.87306 0.51899 0.85054
 O618 O 0.84215 0.47908 0.87459
 O619 O 0.87043 0.47815 0.84887
 O620 O 0.84540 0.51987 0.87668
 O621 O 0.82468 0.52270 0.85155
 O622 O 0.85017 0.48149 0.82338
 O623 O 0.82183 0.48232 0.84915
 O624 O 0.85245 0.52191 0.82532
 Cu625 Cu 0.85981 0.49866 0.86522
 Cu626 Cu 0.83524 0.50238 0.83482
 C627 C 0.86800 0.52717 0.83370
 C628 C 0.82657 0.47410 0.86603
 C629 C 0.86478 0.47292 0.83124
 C630 C 0.83070 0.52832 0.86894
 O631 O 0.12945 0.52248 0.15693
 O632 O 0.15333 0.48038 0.12808
 O633 O 0.12922 0.48131 0.15799
 O634 O 0.15390 0.52097 0.12666
 O635 O 0.17732 0.52177 0.14906
 O636 O 0.15304 0.48159 0.17985
 O637 O 0.17704 0.48097 0.15010
 O638 O 0.15315 0.52247 0.17894
 Cu639 Cu 0.13901 0.50136 0.14027
 Cu640 Cu 0.16747 0.50180 0.16671
 C641 C 0.13722 0.52959 0.17298
 C642 C 0.16934 0.47352 0.13419
 C643 C 0.13706 0.47441 0.17413
 C644 C 0.16995 0.52793 0.13241
 O645 O 0.85135 0.51569 0.12396
 O646 O 0.87625 0.47377 0.15251
 O647 O 0.85015 0.47474 0.12431
 O648 O 0.87792 0.51450 0.15198
 O649 O 0.85558 0.51628 0.17542
 O650 O 0.82824 0.47553 0.14824
 O651 O 0.85450 0.47573 0.17659
 O652 O 0.82921 0.51653 0.14765
 Cu653 Cu 0.86609 0.49458 0.13577
 Cu654 Cu 0.83962 0.49608 0.16429
 C655 C 0.83595 0.52322 0.13094
 C656 C 0.86978 0.46793 0.16967
 C657 C 0.83447 0.46825 0.13154
 C658 C 0.87161 0.52208 0.16851
 O659 O 0.12581 0.48157 0.84924
 O660 O 0.15370 0.52053 0.87746
 O661 O 0.12670 0.52231 0.85024
 O662 O 0.15401 0.47971 0.87530
 O663 O 0.17432 0.48014 0.84976
 O664 O 0.14850 0.52389 0.82613
 O665 O 0.17510 0.52093 0.85297
 O666 O 0.14636 0.48311 0.82397
 Cu667 Cu 0.13795 0.50088 0.86558
 Cu668 Cu 0.16318 0.50203 0.83572
 C669 C 0.13112 0.47589 0.83166
 C670 C 0.16916 0.52743 0.87008
 C671 C 0.13320 0.53052 0.83401
 C672 C 0.16883 0.47261 0.86665
 C673 C 0.25360 0.37566 0.09603
 C674 C 0.23785 0.38643 0.08747
 C675 C 0.23327 0.38226 0.06685
 C676 C 0.24458 0.36864 0.05522
 C677 C 0.26056 0.35883 0.06377
 C678 C 0.26472 0.36220 0.08433
 C679 C 0.21761 0.39195 0.05780
 C680 C 0.20640 0.40593 0.06863
 C681 C 0.21059 0.41108 0.08904
 C682 C 0.22667 0.40127 0.09857
 C683 C 0.23134 0.40704 0.11869
 C684 C 0.22086 0.42193 0.12913
 C685 C 0.20516 0.43155 0.12014
 C686 C 0.19952 0.42608 0.10012
 C687 C 0.18309 0.43602 0.09206
 C688 C 0.17318 0.45112 0.10321
 C689 C 0.17926 0.45688 0.12270
 C690 C 0.19517 0.44683 0.13111
 H691 H 0.25778 0.37718 0.11171
 H692 H 0.24125 0.36617 0.03930
 H693 H 0.27669 0.35437 0.09146
 H694 H 0.21400 0.38877 0.04206
 H695 H 0.19474 0.41280 0.06033
 H696 H 0.24335 0.40068 0.12680
 H697 H 0.22518 0.42603 0.14445
 H698 H 0.17743 0.43252 0.07723
 H699 H 0.16083 0.45853 0.09639
 H700 H 0.19988 0.45094 0.14630
 C701 C 0.75090 0.62183 0.09501
 C702 C 0.76629 0.61097 0.08598
 C703 C 0.77041 0.61547 0.06530
 C704 C 0.75912 0.62968 0.05415
 C705 C 0.74361 0.63980 0.06322
 C706 C 0.73982 0.63591 0.08379
 C707 C 0.78565 0.60562 0.05575
 C708 C 0.79694 0.59125 0.06617
 C709 C 0.79331 0.58589 0.08667
 C710 C 0.77761 0.59579 0.09668
 C711 C 0.77353 0.58990 0.11695
 C712 C 0.78427 0.57489 0.12709
 C713 C 0.79963 0.56521 0.11764
 C714 C 0.80461 0.57069 0.09741
 C715 C 0.82067 0.56059 0.08884
 C716 C 0.83092 0.54545 0.09976
 C717 C 0.82557 0.53980 0.11955
 C718 C 0.80997 0.54991 0.12841
 H719 H 0.74701 0.61997 0.11074
 H720 H 0.76216 0.63249 0.03820
 H721 H 0.72823 0.64390 0.09135
 H722 H 0.78889 0.60902 0.03995
 H723 H 0.80829 0.58434 0.05751
 H724 H 0.76184 0.59632 0.12543
 H725 H 0.78043 0.57076 0.14257
 H726 H 0.82577 0.56401 0.07376
 H727 H 0.84299 0.53797 0.09257
 H728 H 0.80578 0.54585 0.14380
 C729 C 0.77627 0.37161 0.94318
 C730 C 0.76986 0.38814 0.93038
 C731 C 0.74999 0.38996 0.92702
 C732 C 0.73722 0.37640 0.93686
 C733 C 0.74384 0.36035 0.94963
 C734 C 0.76343 0.35792 0.95252
 C735 C 0.74292 0.40525 0.91380
 C736 C 0.75513 0.41863 0.90345
 C737 C 0.77501 0.41758 0.90628
 C738 C 0.78244 0.40270 0.92061
 C739 C 0.80209 0.40318 0.92503
 C740 C 0.81415 0.41744 0.91552
 C741 C 0.80727 0.43136 0.90082
 C742 C 0.78768 0.43131 0.89563
 C743 C 0.78164 0.44487 0.87976
 C744 C 0.79437 0.45838 0.87011
 C745 C 0.81352 0.45901 0.87591
 C746 C 0.81990 0.44536 0.89126
 H747 H 0.79111 0.36854 0.94597
 H748 H 0.72205 0.37805 0.93429
 H749 H 0.76882 0.34550 0.96227
 H750 H 0.72775 0.40679 0.91128
 H751 H 0.74842 0.43011 0.89372
 H752 H 0.80857 0.39311 0.93627
 H753 H 0.82909 0.41741 0.91961
 H754 H 0.76725 0.44517 0.87415
 H755 H 0.78908 0.46861 0.85816
 H756 H 0.83478 0.44548 0.89562
 C757 C 0.25549 0.62442 0.90525
 C758 C 0.23991 0.61384 0.91430
 C759 C 0.23583 0.61831 0.93496
 C760 C 0.24736 0.63211 0.94612
 C761 C 0.26316 0.64169 0.93710
 C762 C 0.26690 0.63800 0.91653
 C763 C 0.22047 0.60871 0.94456
 C764 C 0.20913 0.59445 0.93426
 C765 C 0.21280 0.58899 0.91383
 C766 C 0.22846 0.59884 0.90368
 C767 C 0.23241 0.59305 0.88340
 C768 C 0.22159 0.57812 0.87339
 C769 C 0.20631 0.56841 0.88301
 C770 C 0.20151 0.57379 0.90329
 C771 C 0.18562 0.56359 0.91212
 C772 C 0.17522 0.54864 0.90134
 C773 C 0.18025 0.54324 0.88144
 C774 C 0.19582 0.55325 0.87238
 H775 H 0.25938 0.62255 0.88954
 H776 H 0.24443 0.63480 0.96209
 H777 H 0.27881 0.64559 0.90911
 H778 H 0.21725 0.61214 0.96033
 H779 H 0.19770 0.58772 0.94298
 H780 H 0.24401 0.59954 0.87479
 H781 H 0.22528 0.57408 0.85788
 H782 H 0.18072 0.56679 0.92730
 H783 H 0.16320 0.54122 0.90871
 H784 H 0.19975 0.54934 0.85690
 C785 C 0.06409 0.20921 0.37325
 C786 C 0.07513 0.21924 0.38844
 C787 C 0.07599 0.24151 0.38801
 C788 C 0.06566 0.25305 0.37349
 C789 C 0.05476 0.24286 0.35871
 C790 C 0.05419 0.22089 0.35860
 C791 C 0.08725 0.25223 0.40198
 C792 C 0.09813 0.24139 0.41615
 C793 C 0.09791 0.21923 0.41721
 C794 C 0.08557 0.20801 0.40376
 C795 C 0.08385 0.18604 0.40634
 C796 C 0.09412 0.17534 0.42122
 C797 C 0.10696 0.18591 0.43372
 C798 C 0.10934 0.20795 0.43159
 C799 C 0.12336 0.21776 0.44373
 C800 C 0.13405 0.20629 0.45775
 C801 C 0.13117 0.18468 0.46037
 C802 C 0.11756 0.17455 0.44829
 H803 H 0.06314 0.19237 0.37198
 H804 H 0.06645 0.27007 0.37339
 H805 H 0.04589 0.21270 0.34721
 H806 H 0.08781 0.26926 0.40184
 H807 H 0.10622 0.25096 0.42650
 H808 H 0.07423 0.17668 0.39739
 H809 H 0.09217 0.15851 0.42278
 H810 H 0.12679 0.23420 0.44246
 H811 H 0.14457 0.21452 0.46677
 H812 H 0.11544 0.15776 0.44998
 C813 C 0.04877 0.77309 0.60712
 C814 C 0.06888 0.77344 0.60601
 C815 C 0.07912 0.76019 0.61957
 C816 C 0.06953 0.74778 0.63398
 C817 C 0.04966 0.74769 0.63483
 C818 C 0.03939 0.76034 0.62124
 C819 C 0.09888 0.75921 0.61859
 C820 C 0.10880 0.77062 0.60405
 C821 C 0.09933 0.78392 0.59008
 C822 C 0.07914 0.78609 0.59169
 C823 C 0.06993 0.80102 0.57913
 C824 C 0.07996 0.81292 0.56502
 C825 C 0.09946 0.81010 0.56244
 C826 C 0.10941 0.79535 0.57472
 C827 C 0.12900 0.79233 0.57076
 C828 C 0.13824 0.80368 0.55552
 C829 C 0.12843 0.81858 0.54380
 C830 C 0.10903 0.82181 0.54743
 H831 H 0.03983 0.78207 0.59700
 H832 H 0.07754 0.73773 0.64424
 H833 H 0.02400 0.76046 0.62162
 H834 H 0.10679 0.74926 0.62903
 H835 H 0.12404 0.76901 0.60448
 H836 H 0.05493 0.80426 0.58014
 H837 H 0.07228 0.82426 0.55578
 H838 H 0.13752 0.78092 0.57877
 H839 H 0.15321 0.80078 0.55294
 H840 H 0.10125 0.83308 0.53822
 C841 C 0.94797 0.77028 0.39613
 C842 C 0.92886 0.76601 0.40157
 C843 C 0.92010 0.74818 0.39270
 C844 C 0.93005 0.73550 0.37890
 C845 C 0.94891 0.74001 0.37366
 C846 C 0.95773 0.75749 0.38244
 C847 C 0.90142 0.74304 0.39758
 C848 C 0.89115 0.75503 0.41128
 C849 C 0.89915 0.77288 0.42068
 C850 C 0.91822 0.77868 0.41550
 C851 C 0.92594 0.79701 0.42431
 C852 C 0.91556 0.80913 0.43785
 C853 C 0.89714 0.80348 0.44337
 C854 C 0.88866 0.78523 0.43499
 C855 C 0.87004 0.78004 0.44147
 C856 C 0.86035 0.79252 0.45542
 C857 C 0.86873 0.81064 0.46346
 C858 C 0.88717 0.81602 0.45733
 H859 H 0.95593 0.78322 0.40230
 H860 H 0.92297 0.72217 0.37201
 H861 H 0.97240 0.76116 0.37894
 H862 H 0.89463 0.72948 0.39077
 H863 H 0.87680 0.74989 0.41398
 H864 H 0.94002 0.80262 0.42094
 H865 H 0.92211 0.82308 0.44416
 H866 H 0.86254 0.76633 0.43628
 H867 H 0.84614 0.78790 0.45991
 H868 H 0.89388 0.82993 0.46354
 C869 C 0.94516 0.23269 0.60628
 C870 C 0.92568 0.23643 0.60205
 C871 C 0.91689 0.25371 0.61182
 C872 C 0.92722 0.26647 0.62522
 C873 C 0.94653 0.26272 0.62898
 C874 C 0.95533 0.24564 0.61950
 C875 C 0.89786 0.25838 0.60807
 C876 C 0.88737 0.24671 0.59429
 C877 C 0.89548 0.22964 0.58374
 C878 C 0.91475 0.22394 0.58822
 C879 C 0.92241 0.20597 0.57874
 C880 C 0.91191 0.19436 0.56486
 C881 C 0.89346 0.20029 0.55962
 C882 C 0.88496 0.21803 0.56890
 C883 C 0.86637 0.22365 0.56257
 C884 C 0.85677 0.21212 0.54778
 C885 C 0.86522 0.19456 0.53878
 C886 C 0.88355 0.18864 0.54491
 H887 H 0.95313 0.22022 0.59931
 H888 H 0.92019 0.27947 0.63272
 H889 H 0.97032 0.24257 0.62189
 H890 H 0.89102 0.27142 0.61570
 H891 H 0.87277 0.25142 0.59242
 H892 H 0.93653 0.20024 0.58185
 H893 H 0.91844 0.18072 0.55794
 H894 H 0.85892 0.23713 0.56837
 H895 H 0.84264 0.21711 0.54330
 H896 H 0.89031 0.17516 0.53794
 C897 C 0.38032 0.09306 0.25156
 C898 C 0.39166 0.08331 0.23651
 C899 C 0.38865 0.06162 0.23285
 C900 C 0.37550 0.05015 0.24454
 C901 C 0.36504 0.05994 0.25996
 C902 C 0.36735 0.08152 0.26306
 C903 C 0.39898 0.05137 0.21777
 C904 C 0.41242 0.06207 0.20628
 C905 C 0.41635 0.08354 0.20963
 C906 C 0.40591 0.09428 0.22515
 C907 C 0.41041 0.11547 0.22918
 C908 C 0.42459 0.12585 0.21857
 C909 C 0.43476 0.11572 0.20334
 C910 C 0.43066 0.09456 0.19833
 C911 C 0.44118 0.08538 0.18225
 C912 C 0.45541 0.09662 0.17212
 C913 C 0.45970 0.11729 0.17767
 C914 C 0.44917 0.12675 0.19319
 H915 H 0.38102 0.10958 0.25487
 H916 H 0.37384 0.03343 0.24202
 H917 H 0.35905 0.08958 0.27449
 H918 H 0.39670 0.03481 0.21487
 H919 H 0.41983 0.05285 0.19512
 H920 H 0.40353 0.12451 0.24084
 H921 H 0.42768 0.14205 0.22242
 H922 H 0.43875 0.06960 0.17703
 H923 H 0.46324 0.08899 0.16005
 H924 H 0.45216 0.14286 0.19743
 C925 C 0.60549 0.10211 0.72701
 C926 C 0.59605 0.09420 0.74445
 C927 C 0.60011 0.07325 0.75047
 C928 C 0.61268 0.06077 0.73914
 C929 C 0.62162 0.06878 0.72172
 C930 C 0.61800 0.08959 0.71591
 C931 C 0.59155 0.06474 0.76773
 C932 C 0.57903 0.07653 0.77931
 C933 C 0.57434 0.09742 0.77396
 C934 C 0.58280 0.10631 0.75608
 C935 C 0.57752 0.12690 0.75026
 C936 C 0.56456 0.13846 0.76148
 C937 C 0.55642 0.13018 0.77906
 C938 C 0.56128 0.10964 0.78574
 C939 C 0.55283 0.10227 0.80397
 C940 C 0.53993 0.11462 0.81474
 C941 C 0.53493 0.13472 0.80782
 C942 C 0.54334 0.14241 0.78998
 H943 H 0.60373 0.11796 0.72155
 H944 H 0.61525 0.04463 0.74371
 H945 H 0.62503 0.09635 0.70279
 H946 H 0.59458 0.04872 0.77239
 H947 H 0.57304 0.06859 0.79228
 H948 H 0.58293 0.13455 0.73684
 H949 H 0.56087 0.15414 0.75630
 H950 H 0.55591 0.08710 0.81047
 H951 H 0.53375 0.10829 0.82855
 H952 H 0.53971 0.15801 0.78452
 C953 C 0.38240 0.90445 0.75326
 C954 C 0.39631 0.91440 0.76552
 C955 C 0.39615 0.93667 0.76631
 C956 C 0.38324 0.94830 0.75443
 C957 C 0.36990 0.93814 0.74208
 C958 C 0.36944 0.91618 0.74182
 C959 C 0.40887 0.94723 0.77893
 C960 C 0.42178 0.93623 0.79093
 C961 C 0.42283 0.91408 0.79041
 C962 C 0.41026 0.90303 0.77703
 C963 C 0.41240 0.88107 0.77515
 C964 C 0.42622 0.87022 0.78599
 C965 C 0.43819 0.88064 0.79951
 C966 C 0.43642 0.90262 0.80235
 C967 C 0.44836 0.91214 0.81706
 C968 C 0.46197 0.90043 0.82771
 C969 C 0.46422 0.87893 0.82401
 C970 C 0.45210 0.86912 0.81006
 H971 H 0.38093 0.88765 0.75238
 H972 H 0.38338 0.96533 0.75498
 H973 H 0.35914 0.90802 0.73246
 H974 H 0.40881 0.96425 0.77960
 H975 H 0.43119 0.94566 0.80005
 H976 H 0.40399 0.87178 0.76486
 H977 H 0.42753 0.85341 0.78376
 H978 H 0.44746 0.92856 0.82086
 H979 H 0.47104 0.90835 0.83858
 H980 H 0.45349 0.85239 0.80736
 C981 C 0.59489 0.94667 0.24734
 C982 C 0.59395 0.92446 0.24631
 C983 C 0.60696 0.91273 0.25833
 C984 C 0.62094 0.92295 0.26989
 C985 C 0.62190 0.94490 0.27028
 C986 C 0.60863 0.95664 0.25919
 C987 C 0.60600 0.89087 0.25878
 C988 C 0.59223 0.88025 0.24770
 C989 C 0.57914 0.89113 0.23521
 C990 C 0.58048 0.91354 0.23394
 C991 C 0.56867 0.92426 0.21994
 C992 C 0.55578 0.91356 0.20784
 C993 C 0.55375 0.89186 0.20952
 C994 C 0.56506 0.88031 0.22351
 C995 C 0.56164 0.85843 0.22528
 C996 C 0.54800 0.84851 0.21319
 C997 C 0.53749 0.85996 0.19886
 C998 C 0.54039 0.88165 0.19720
 H999 H 0.58505 0.95682 0.23947
 H1000 H 0.63099 0.91383 0.27883
 H1001 H 0.60907 0.97366 0.25945
 H1002 H 0.61593 0.88183 0.26793
 H1003 H 0.59262 0.86337 0.24878
 H1004 H 0.56946 0.94097 0.21745
 H1005 H 0.54719 0.92244 0.19711
 H1006 H 0.56899 0.84858 0.23610
 H1007 H 0.54584 0.83175 0.21491
 H1008 H 0.53201 0.89073 0.18642
 C1009 C 0.38252 0.23016 0.94374
 C1010 C 0.39136 0.23790 0.92594
 C1011 C 0.38507 0.25754 0.91836
 C1012 C 0.37078 0.26891 0.92841
 C1013 C 0.36220 0.26140 0.94650
 C1014 C 0.36837 0.24155 0.95367
 C1015 C 0.39303 0.26588 0.90068
 C1016 C 0.40731 0.25531 0.89040
 C1017 C 0.41431 0.23578 0.89740
 C1018 C 0.40617 0.22688 0.91545
 C1019 C 0.41315 0.20732 0.92243
 C1020 C 0.42750 0.19678 0.91222
 C1021 C 0.43555 0.20520 0.89465
 C1022 C 0.42916 0.22482 0.88693
 C1023 C 0.43794 0.23257 0.86902
 C1024 C 0.45223 0.22122 0.85925
 C1025 C 0.45836 0.20181 0.86691
 C1026 C 0.44998 0.19396 0.88471
 H1027 H 0.38634 0.21541 0.95069
 H1028 H 0.36595 0.28327 0.92125
 H1029 H 0.36327 0.23490 0.96779
 H1030 H 0.38823 0.28088 0.89472
 H1031 H 0.41257 0.26301 0.87694
 H1032 H 0.40785 0.19959 0.93586
 H1033 H 0.43234 0.18179 0.91819
 H1034 H 0.43414 0.24731 0.86205
 H1035 H 0.45844 0.22771 0.84553
 H1036 H 0.45457 0.17894 0.89081
 C1037 C 0.62021 0.77786 0.95295
 C1038 C 0.61412 0.77394 0.93275
 C1039 C 0.62278 0.75703 0.92228
 C1040 C 0.63696 0.74484 0.93167
 C1041 C 0.64265 0.74880 0.95174
 C1042 C 0.63418 0.76547 0.96220
 C1043 C 0.61715 0.75217 0.90252
 C1044 C 0.60272 0.76335 0.89297
 C1045 C 0.59338 0.78013 0.90277
 C1046 C 0.59957 0.78594 0.92276
 C1047 C 0.59107 0.80358 0.93202
 C1048 C 0.57672 0.81483 0.92241
 C1049 C 0.57003 0.80890 0.90331
 C1050 C 0.57813 0.79141 0.89321
 C1051 C 0.57040 0.78580 0.87407
 C1052 C 0.55550 0.79723 0.86536
 C1053 C 0.54775 0.81464 0.87531
 C1054 C 0.55514 0.82039 0.89431
 H1055 H 0.61420 0.79004 0.96226
 H1056 H 0.64357 0.73214 0.92331
 H1057 H 0.63800 0.76866 0.97786
 H1058 H 0.62385 0.73938 0.89438
 H1059 H 0.59938 0.75853 0.87770
 H1060 H 0.59535 0.80934 0.94670
 H1061 H 0.57066 0.82827 0.93014
 H1062 H 0.57528 0.77248 0.86549
 H1063 H 0.55002 0.79234 0.85071
 H1064 H 0.54919 0.83375 0.90225
 C1065 C 0.38566 0.73051 0.09192
 C1066 C 0.39505 0.74917 0.08597
 C1067 C 0.38999 0.75811 0.06694
 C1068 C 0.37642 0.74842 0.05439
 C1069 C 0.36750 0.72952 0.06022
 C1070 C 0.37230 0.72095 0.07933
 C1071 C 0.39863 0.77661 0.06034
 C1072 C 0.41227 0.78652 0.07217
 C1073 C 0.41797 0.77822 0.09119
 C1074 C 0.40925 0.75919 0.09818
 C1075 C 0.41517 0.75068 0.11704
 C1076 C 0.42903 0.76036 0.12872
 C1077 C 0.43758 0.77890 0.12220
 C1078 C 0.43220 0.78822 0.10340
 C1079 C 0.44136 0.80716 0.09768
 C1080 C 0.45523 0.81623 0.11006
 C1081 C 0.46049 0.80684 0.12852
 C1082 C 0.45156 0.78816 0.13448
 H1083 H 0.38813 0.72285 0.10631
 H1084 H 0.37363 0.75528 0.03958
 H1085 H 0.36525 0.70711 0.08520
 H1086 H 0.39483 0.78354 0.04580
 H1087 H 0.41816 0.80067 0.06579
 H1088 H 0.40950 0.73635 0.12329
 H1089 H 0.43311 0.75317 0.14306
 H1090 H 0.43818 0.81548 0.08380
 H1091 H 0.46186 0.83072 0.10508
 H1092 H 0.45546 0.78076 0.14878
 C1093 C 0.62314 0.21656 0.05827
 C1094 C 0.60851 0.22516 0.07047
 C1095 C 0.60835 0.24725 0.07327
 C1096 C 0.62179 0.26006 0.06352
 C1097 C 0.63597 0.25127 0.05135
 C1098 C 0.63666 0.22946 0.04897
 C1099 C 0.59483 0.25651 0.08582
 C1100 C 0.58159 0.24433 0.09608
 C1101 C 0.58107 0.22228 0.09384
 C1102 C 0.59424 0.21263 0.08018
 C1103 C 0.59243 0.19090 0.07638
 C1104 C 0.57852 0.17891 0.08587
 C1105 C 0.56618 0.18789 0.09994
 C1106 C 0.56752 0.20962 0.10446
 C1107 C 0.55537 0.21770 0.11968
 C1108 C 0.54211 0.20490 0.12940
 C1109 C 0.54036 0.18365 0.12431
 C1110 C 0.55250 0.17522 0.10958
 H1111 H 0.62479 0.19993 0.05590
 H1112 H 0.62145 0.27694 0.06571
 H1113 H 0.64760 0.22236 0.03966
 H1114 H 0.59457 0.27339 0.08790
 H1115 H 0.57156 0.25282 0.10527
 H1116 H 0.60127 0.18272 0.06565
 H1117 H 0.57754 0.16233 0.08229
 H1118 H 0.55597 0.23375 0.12477
 H1119 H 0.53303 0.21179 0.14088
 H1120 H 0.55146 0.15870 0.10576
 C1121 C 0.24309 0.04457 0.60637
 C1122 C 0.24020 0.06661 0.60599
 C1123 C 0.25105 0.07897 0.61966
 C1124 C 0.26365 0.06948 0.63353
 C1125 C 0.26622 0.04768 0.63372
 C1126 C 0.25594 0.03536 0.61996
 C1127 C 0.24941 0.10079 0.61936
 C1128 C 0.23764 0.11077 0.60538
 C1129 C 0.22663 0.09924 0.59132
 C1130 C 0.22726 0.07679 0.59227
 C1131 C 0.21476 0.06529 0.57969
 C1132 C 0.20256 0.07532 0.56612
 C1133 C 0.20264 0.09713 0.56412
 C1134 C 0.21483 0.10943 0.57650
 C1135 C 0.21506 0.13141 0.57312
 C1136 C 0.20358 0.14066 0.55824
 C1137 C 0.19132 0.12847 0.54636
 C1138 C 0.19077 0.10670 0.54953
 H1139 H 0.23598 0.03403 0.59609
 H1140 H 0.27182 0.07912 0.64393
 H1141 H 0.25774 0.01845 0.61985
 H1142 H 0.25753 0.11031 0.62990
 H1143 H 0.23716 0.12765 0.60631
 H1144 H 0.21374 0.04842 0.58026
 H1145 H 0.19319 0.06583 0.55682
 H1146 H 0.22435 0.14189 0.58125
 H1147 H 0.20437 0.15751 0.55600
 H1148 H 0.18153 0.09710 0.54016
 C1149 C 0.75591 0.04764 0.40030
 C1150 C 0.76151 0.06873 0.39721
 C1151 C 0.75329 0.07976 0.38063
 C1152 C 0.74065 0.06970 0.36732
 C1153 C 0.73508 0.04871 0.37053
 C1154 C 0.74288 0.03795 0.38734
 C1155 C 0.75744 0.10095 0.37755
 C1156 C 0.76900 0.11173 0.39106
 C1157 C 0.77734 0.10153 0.40797
 C1158 C 0.77448 0.07942 0.41037
 C1159 C 0.78483 0.06874 0.42567
 C1160 C 0.79683 0.07945 0.43884
 C1161 C 0.79853 0.10125 0.43774
 C1162 C 0.78861 0.11266 0.42247
 C1163 C 0.78982 0.13486 0.42281
 C1164 C 0.80049 0.14513 0.43763
 C1165 C 0.81057 0.13372 0.45233
 C1166 C 0.80978 0.11176 0.45215
 H1167 H 0.76096 0.03831 0.41292
 H1168 H 0.73431 0.07883 0.35513
 H1169 H 0.73950 0.02163 0.39028
 H1170 H 0.75137 0.10944 0.36476
 H1171 H 0.77153 0.12804 0.38754
 H1172 H 0.78429 0.05193 0.42757
 H1173 H 0.80451 0.07060 0.45034
 H1174 H 0.78210 0.14478 0.41235
 H1175 H 0.80081 0.16215 0.43762
 H1176 H 0.81729 0.10288 0.46377
 C1177 C 0.73214 0.91020 0.61417
 C1178 C 0.74820 0.91872 0.60414
 C1179 C 0.75226 0.94030 0.60727
 C1180 C 0.74025 0.95279 0.61929
 C1181 C 0.72409 0.94418 0.62858
 C1182 C 0.72036 0.92274 0.62610
 C1183 C 0.76818 0.94939 0.59823
 C1184 C 0.78022 0.93763 0.58602
 C1185 C 0.77668 0.91619 0.58208
 C1186 C 0.76028 0.90664 0.59112
 C1187 C 0.75626 0.88545 0.58651
 C1188 C 0.76775 0.87396 0.57355
 C1189 C 0.78382 0.88294 0.56477
 C1190 C 0.78875 0.90406 0.56907
 C1191 C 0.80556 0.91208 0.56004
 C1192 C 0.81654 0.89981 0.54695
 C1193 C 0.81122 0.87917 0.54237
 C1194 C 0.79491 0.87082 0.55152
 H1195 H 0.72825 0.89388 0.61330
 H1196 H 0.74328 0.96938 0.62104
 H1197 H 0.70827 0.91552 0.63354
 H1198 H 0.77137 0.96587 0.60059
 H1199 H 0.79205 0.94602 0.57957
 H1200 H 0.74406 0.87724 0.59236
 H1201 H 0.76394 0.85781 0.57031
 H1202 H 0.81070 0.92775 0.56276
 H1203 H 0.82916 0.90663 0.54021
 H1204 H 0.79073 0.85478 0.54828
 C1205 C 0.26053 0.90632 0.38114
 C1206 C 0.24462 0.91543 0.39094
 C1207 C 0.24041 0.93674 0.38641
 C1208 C 0.25202 0.94839 0.37313
 C1209 C 0.26797 0.93922 0.36400
 C1210 C 0.27195 0.91805 0.36800
 C1211 C 0.22476 0.94645 0.39531
 C1212 C 0.21316 0.93559 0.40879
 C1213 C 0.21683 0.91445 0.41412
 C1214 C 0.23288 0.90422 0.40510
 C1215 C 0.23685 0.88326 0.41081
 C1216 C 0.22573 0.87267 0.42489
 C1217 C 0.21008 0.88236 0.43380
 C1218 C 0.20519 0.90328 0.42842
 C1219 C 0.18889 0.91210 0.43773
 C1220 C 0.17833 0.90080 0.45204
 C1221 C 0.18356 0.88033 0.45762
 C1222 C 0.19939 0.87118 0.44825
 H1223 H 0.26462 0.89016 0.38321
 H1224 H 0.24886 0.96482 0.37027
 H1225 H 0.28394 0.91043 0.36081
 H1226 H 0.22146 0.96273 0.39189
 H1227 H 0.20151 0.94443 0.41500
 H1228 H 0.24871 0.87453 0.40490
 H1229 H 0.22949 0.85666 0.42892
 H1230 H 0.18385 0.92770 0.43436
 H1231 H 0.16610 0.90825 0.45894
 H1232 H 0.20351 0.85528 0.45229
 C1233 C 0.08726 0.38820 0.73595
 C1234 C 0.08050 0.39795 0.75387
 C1235 C 0.06150 0.39373 0.75980
 C1236 C 0.04973 0.38095 0.74781
 C1237 C 0.05655 0.37187 0.72987
 C1238 C 0.07546 0.37545 0.72423
 C1239 C 0.05425 0.40238 0.77760
 C1240 C 0.06542 0.41513 0.78981
 C1241 C 0.08436 0.42005 0.78454
 C1242 C 0.09191 0.41165 0.76606
 C1243 C 0.11046 0.41755 0.76017
 C1244 C 0.12133 0.43106 0.77191
 C1245 C 0.11435 0.43904 0.79011
 C1246 C 0.09589 0.43346 0.79691
 C1247 C 0.08981 0.44156 0.81585
 C1248 C 0.10134 0.45504 0.82711
 C1249 C 0.11931 0.46095 0.81998
 C1250 C 0.12577 0.45273 0.80152
 H1251 H 0.10164 0.38985 0.73061
 H1252 H 0.03509 0.37837 0.75230
 H1253 H 0.08127 0.36817 0.71074
 H1254 H 0.03973 0.39923 0.78219
 H1255 H 0.05856 0.42124 0.80316
 H1256 H 0.11696 0.41236 0.74626
 H1257 H 0.13542 0.43530 0.76663
 H1258 H 0.07629 0.43772 0.82255
 H1259 H 0.09603 0.46102 0.84142
 H1260 H 0.13975 0.45702 0.79594
 C1261 C 0.05155 0.61922 0.22537
 C1262 C 0.07027 0.61220 0.22951
 C1263 C 0.07909 0.61970 0.24745
 C1264 C 0.06934 0.63304 0.26079
 C1265 C 0.05048 0.63938 0.25697
 C1266 C 0.04195 0.63253 0.23875
 C1267 C 0.09765 0.61378 0.25219
 C1268 C 0.10760 0.60007 0.23984
 C1269 C 0.09934 0.59153 0.22211
 C1270 C 0.08045 0.59790 0.21668
 C1271 C 0.07232 0.58954 0.19879
 C1272 C 0.08206 0.57518 0.18683
 C1273 C 0.10029 0.56849 0.19213
 C1274 C 0.10929 0.57666 0.20974
 C1275 C 0.12781 0.56932 0.21438
 C1276 C 0.13675 0.55435 0.20230
 C1277 C 0.12770 0.54612 0.18510
 C1278 C 0.10950 0.55344 0.17999
 H1279 H 0.04373 0.61451 0.21206
 H1280 H 0.07690 0.63890 0.27396
 H1281 H 0.02737 0.63645 0.23509
 H1282 H 0.10455 0.61967 0.26579
 H1283 H 0.12179 0.59640 0.24483
 H1284 H 0.05827 0.59363 0.19360
 H1285 H 0.07514 0.56908 0.17334
 H1286 H 0.13584 0.57458 0.22735
 H1287 H 0.15084 0.54909 0.20662
 H1288 H 0.10234 0.54721 0.16669
 C1289 C 0.94401 0.36175 0.21214
 C1290 C 0.93488 0.37952 0.22050
 C1291 C 0.93601 0.38228 0.24184
 C1292 C 0.94673 0.36845 0.25396
 C1293 C 0.95591 0.35087 0.24552
 C1294 C 0.95412 0.34766 0.22443
 C1295 C 0.92625 0.39872 0.25110
 C1296 C 0.91499 0.41229 0.23971
 C1297 C 0.91351 0.41035 0.21839
 C1298 C 0.92438 0.39437 0.20852
 C1299 C 0.92475 0.39411 0.18703
 C1300 C 0.91458 0.40870 0.17558
 C1301 C 0.90308 0.42362 0.18501
 C1302 C 0.90194 0.42426 0.20654
 C1303 C 0.88902 0.43865 0.21533
 C1304 C 0.87839 0.45237 0.20325
 C1305 C 0.88036 0.45242 0.18206
 C1306 C 0.89267 0.43792 0.17300
 H1307 H 0.94327 0.35800 0.19618
 H1308 H 0.94696 0.37089 0.27027
 H1309 H 0.96113 0.33462 0.21704
 H1310 H 0.92713 0.40100 0.26741
 H1311 H 0.90810 0.42467 0.24805
 H1312 H 0.93336 0.38323 0.17857
 H1313 H 0.91555 0.40814 0.15914
 H1314 H 0.88649 0.43940 0.23147
 H1315 H 0.86881 0.46328 0.21059
 H1316 H 0.89398 0.43760 0.15657
 C1317 C 0.92571 0.60459 0.73832
 C1318 C 0.92513 0.60375 0.75979
 C1319 C 0.93721 0.61752 0.77066
 C1320 C 0.94848 0.63234 0.76030
 C1321 C 0.94867 0.63335 0.73887
 C1322 C 0.93724 0.61898 0.72817
 C1323 C 0.93810 0.61635 0.79185
 C1324 C 0.92741 0.60163 0.80252
 C1325 C 0.91487 0.58783 0.79240
 C1326 C 0.91317 0.58952 0.77075
 C1327 C 0.89924 0.57732 0.76080
 C1328 C 0.88774 0.56350 0.77148
 C1329 C 0.88987 0.56089 0.79240
 C1330 C 0.90365 0.57270 0.80320
 C1331 C 0.90572 0.56860 0.82432
 C1332 C 0.89429 0.55376 0.83418
 C1333 C 0.88032 0.54273 0.82344
 C1334 C 0.87823 0.54640 0.80255
 H1335 H 0.91764 0.59413 0.72880
 H1336 H 0.95773 0.64244 0.76910
 H1337 H 0.93638 0.61928 0.71173
 H1338 H 0.94732 0.62682 0.80031
 H1339 H 0.92888 0.60187 0.81883
 H1340 H 0.89643 0.57853 0.74473
 H1341 H 0.87712 0.55461 0.76319
 H1342 H 0.91629 0.57626 0.83356
 H1343 H 0.89630 0.55104 0.85033
 H1344 H 0.86768 0.53765 0.79401
 C1345 C 0.73845 0.60646 0.92383
 C1346 C 0.75859 0.60603 0.92386
 C1347 C 0.76822 0.62012 0.93699
 C1348 C 0.75801 0.63467 0.94870
 C1349 C 0.73813 0.63498 0.94824
 C1350 C 0.72846 0.62065 0.93592
 C1351 C 0.78799 0.61954 0.93848
 C1352 C 0.79848 0.60493 0.92761
 C1353 C 0.78960 0.59062 0.91425
 C1354 C 0.76943 0.59187 0.91163
 C1355 C 0.76082 0.57925 0.89659
 C1356 C 0.77142 0.56536 0.88498
 C1357 C 0.79089 0.56302 0.88824
 C1358 C 0.80025 0.57533 0.90315
 C1359 C 0.81983 0.57144 0.90660
 C1360 C 0.82962 0.55625 0.89549
 C1361 C 0.82036 0.54463 0.88040
 C1362 C 0.80101 0.54820 0.87677
 H1363 H 0.72997 0.59572 0.91503
 H1364 H 0.76552 0.64552 0.95854
 H1365 H 0.71306 0.62057 0.93549
 H1366 H 0.79544 0.63035 0.94840
 H1367 H 0.81367 0.60564 0.92957
 H1368 H 0.74590 0.58016 0.89299
 H1369 H 0.76420 0.55611 0.87351
 H1370 H 0.82789 0.57943 0.91818
 H1371 H 0.84454 0.55362 0.89870
 H1372 H 0.79365 0.53897 0.86537
 C1373 C 0.23288 0.39443 0.95722
 C1374 C 0.22974 0.39464 0.93592
 C1375 C 0.24071 0.38072 0.92388
 C1376 C 0.25376 0.36686 0.93299
 C1377 C 0.25665 0.36691 0.95406
 C1378 C 0.24616 0.38084 0.96605
 C1379 C 0.23877 0.38081 0.90279
 C1380 C 0.22665 0.39492 0.89318
 C1381 C 0.21561 0.40933 0.90438
 C1382 C 0.21649 0.40849 0.92613
 C1383 C 0.20398 0.42138 0.93732
 C1384 C 0.19162 0.43526 0.92767
 C1385 C 0.19151 0.43726 0.90654
 C1386 C 0.20361 0.42447 0.89457
 C1387 C 0.20361 0.42785 0.87326
 C1388 C 0.19212 0.44323 0.86437
 C1389 C 0.18006 0.45561 0.87626
 C1390 C 0.17962 0.45234 0.89733
 H1391 H 0.22565 0.40488 0.96747
 H1392 H 0.26208 0.35634 0.92359
 H1393 H 0.24817 0.38112 0.98240
 H1394 H 0.24696 0.37005 0.89353
 H1395 H 0.22597 0.39381 0.87685
 H1396 H 0.20314 0.42086 0.95367
 H1397 H 0.18230 0.44484 0.93691
 H1398 H 0.21276 0.41940 0.86305
 H1399 H 0.19279 0.44552 0.84805
 H1400 H 0.17052 0.46209 0.90668
 C1401 C 0.24813 0.62896 0.08755
 C1402 C 0.23812 0.61166 0.07947
 C1403 C 0.23948 0.60807 0.05827
 C1404 C 0.25155 0.62043 0.04610
 C1405 C 0.26183 0.63737 0.05438
 C1406 C 0.25957 0.64158 0.07525
 C1407 C 0.22870 0.59222 0.04928
 C1408 C 0.21644 0.57993 0.06083
 C1409 C 0.21499 0.58248 0.08210
 C1410 C 0.22666 0.59799 0.09167
 C1411 C 0.22699 0.59884 0.11314
 C1412 C 0.21614 0.58521 0.12486
 C1413 C 0.20403 0.57070 0.11575
 C1414 C 0.20279 0.56955 0.09424
 C1415 C 0.18928 0.55554 0.08582
 C1416 C 0.17824 0.54258 0.09828
 C1417 C 0.18044 0.54293 0.11944
 C1418 C 0.19324 0.55717 0.12808
 H1419 H 0.24718 0.63344 0.10331
 H1420 H 0.25219 0.61733 0.02992
 H1421 H 0.26735 0.65413 0.08257
 H1422 H 0.22963 0.58938 0.03305
 H1423 H 0.20878 0.56792 0.05271
 H1424 H 0.23614 0.60936 0.12142
 H1425 H 0.21718 0.58615 0.14130
 H1426 H 0.18670 0.55446 0.06969
 H1427 H 0.16827 0.53183 0.09127
 H1428 H 0.19473 0.55781 0.14450
 C1429 C 0.74300 0.37911 0.09064
 C1430 C 0.76094 0.38620 0.08380
 C1431 C 0.76753 0.37836 0.06494
 C1432 C 0.75643 0.36431 0.05347
 C1433 C 0.73838 0.35764 0.06020
 C1434 C 0.73204 0.36525 0.07912
 C1435 C 0.78512 0.38474 0.05741
 C1436 C 0.79637 0.39884 0.06807
 C1437 C 0.79046 0.40731 0.08686
 C1438 C 0.77247 0.40082 0.09491
 C1439 C 0.76655 0.40930 0.11369
 C1440 C 0.77765 0.42367 0.12420
 C1441 C 0.79511 0.43027 0.11654
 C1442 C 0.80187 0.42217 0.09781
 C1443 C 0.81975 0.42944 0.09083
 C1444 C 0.83021 0.44417 0.10185
 C1445 C 0.82338 0.45223 0.12024
 C1446 C 0.80581 0.44508 0.12752
 H1447 H 0.73693 0.38384 0.10492
 H1448 H 0.76170 0.35949 0.03875
 H1449 H 0.71878 0.36001 0.08569
 H1450 H 0.79028 0.37880 0.04300
 H1451 H 0.80968 0.40284 0.06101
 H1452 H 0.75327 0.40526 0.12078
 H1453 H 0.77242 0.42977 0.13851
 H1454 H 0.82611 0.42419 0.07687
 H1455 H 0.84375 0.44934 0.09582
 H1456 H 0.80033 0.45115 0.14174
 C1457 C 0.94239 0.78292 0.62378
 C1458 C 0.92407 0.77711 0.61684
 C1459 C 0.91613 0.75844 0.62491
 C1460 C 0.92634 0.74600 0.63880
 C1461 C 0.94488 0.75140 0.64500
 C1462 C 0.95249 0.77038 0.63755
 C1463 C 0.89802 0.75202 0.61898
 C1464 C 0.88777 0.76330 0.60461
 C1465 C 0.89524 0.78162 0.59547
 C1466 C 0.91352 0.78893 0.60202
 C1467 C 0.92068 0.80766 0.59336
 C1468 C 0.91066 0.81857 0.57848
 C1469 C 0.89315 0.81131 0.57150
 C1470 C 0.88510 0.79280 0.57991
 C1471 C 0.86735 0.78607 0.57207
 C1472 C 0.85820 0.79716 0.55655
 C1473 C 0.86629 0.81536 0.54825
 C1474 C 0.88374 0.82242 0.55594
 H1475 H 0.94959 0.79684 0.61856
 H1476 H 0.91943 0.73223 0.64507
 H1477 H 0.96679 0.77523 0.64135
 H1478 H 0.89176 0.73788 0.62533
 H1479 H 0.87396 0.75710 0.60099
 H1480 H 0.93412 0.81438 0.59769
 H1481 H 0.91683 0.83279 0.57220
 H1482 H 0.86018 0.77215 0.57732
 H1483 H 0.84472 0.79131 0.55094
 H1484 H 0.89017 0.83649 0.54964
 C1485 C 0.94568 0.21621 0.37658
 C1486 C 0.92835 0.22436 0.38408
 C1487 C 0.92189 0.24364 0.37576
 C1488 C 0.93248 0.25423 0.36083
 C1489 C 0.94995 0.24628 0.35375
 C1490 C 0.95617 0.22690 0.36178
 C1491 C 0.90486 0.25243 0.38237
 C1492 C 0.89414 0.24276 0.39740
 C1493 C 0.90002 0.22370 0.40650
 C1494 C 0.91729 0.21419 0.39956
 C1495 C 0.92290 0.19485 0.40832
 C1496 C 0.91220 0.18521 0.42341
 C1497 C 0.89551 0.19440 0.43053
 C1498 C 0.88916 0.21380 0.42228
 C1499 C 0.87222 0.22249 0.43029
 C1500 C 0.86204 0.21221 0.44557
 C1501 C 0.86831 0.19297 0.45350
 C1502 C 0.88513 0.18420 0.44590
 H1503 H 0.95181 0.20174 0.38203
 H1504 H 0.92656 0.26846 0.35436
 H1505 H 0.96970 0.22020 0.35749
 H1506 H 0.89977 0.26712 0.37594
 H1507 H 0.88122 0.25073 0.40146
 H1508 H 0.93556 0.18660 0.40384
 H1509 H 0.91710 0.17036 0.42964
 H1510 H 0.86638 0.23724 0.42523
 H1511 H 0.84913 0.21943 0.45117
 H1512 H 0.89018 0.16932 0.45193
 C1513 C 0.07344 0.27273 0.59118
 C1514 C 0.07921 0.25180 0.59497
 C1515 C 0.07143 0.24145 0.61214
 C1516 C 0.05943 0.25221 0.62560
 C1517 C 0.05413 0.27325 0.62203
 C1518 C 0.06107 0.28312 0.60434
 C1519 C 0.07557 0.22035 0.61581
 C1520 C 0.08701 0.20909 0.60257
 C1521 C 0.09531 0.21873 0.58537
 C1522 C 0.09212 0.24068 0.58210
 C1523 C 0.10230 0.25089 0.56643
 C1524 C 0.11470 0.23991 0.55394
 C1525 C 0.11697 0.21826 0.55608
 C1526 C 0.10701 0.20724 0.57155
 C1527 C 0.10881 0.18509 0.57218
 C1528 C 0.12022 0.17450 0.55824
 C1529 C 0.13048 0.18557 0.54349
 C1530 C 0.12894 0.20747 0.54259
 H1531 H 0.07798 0.28144 0.57797
 H1532 H 0.05357 0.24369 0.63844
 H1533 H 0.05774 0.29935 0.60093
 H1534 H 0.06973 0.21234 0.62897
 H1535 H 0.08961 0.19292 0.60662
 H1536 H 0.10145 0.26759 0.56382
 H1537 H 0.12235 0.24845 0.54223
 H1538 H 0.10109 0.17541 0.58281
 H1539 H 0.12106 0.15752 0.55904
 H1540 H 0.13654 0.21606 0.53087
 C1541 C 0.07452 0.73175 0.40423
 C1542 C 0.07834 0.75347 0.40232
 C1543 C 0.06930 0.76450 0.38623
 C1544 C 0.05789 0.75383 0.37204
 C1545 C 0.05437 0.73211 0.37387
 C1546 C 0.06270 0.72140 0.39043
 C1547 C 0.07153 0.78620 0.38445
 C1548 C 0.08224 0.79733 0.39853
 C1549 C 0.09172 0.78706 0.41471
 C1550 C 0.09049 0.76465 0.41603
 C1551 C 0.10177 0.75416 0.43069
 C1552 C 0.11340 0.76517 0.44400
 C1553 C 0.11385 0.78707 0.44374
 C1554 C 0.10272 0.79838 0.42938
 C1555 C 0.10276 0.82059 0.43062
 C1556 C 0.11367 0.83099 0.44522
 C1557 C 0.12514 0.81972 0.45884
 C1558 C 0.12524 0.79774 0.45794
 H1559 H 0.08017 0.72232 0.41648
 H1560 H 0.05100 0.76287 0.36012
 H1561 H 0.06085 0.70465 0.39243
 H1562 H 0.06472 0.79476 0.37214
 H1563 H 0.08332 0.81401 0.39594
 H1564 H 0.10236 0.73729 0.43185
 H1565 H 0.12195 0.75642 0.45486
 H1566 H 0.09410 0.83039 0.42093
 H1567 H 0.11322 0.84799 0.44577
 H1568 H 0.13380 0.78889 0.46873
 C1569 C 0.58927 0.92983 0.72646
 C1570 C 0.59219 0.92646 0.74751
 C1571 C 0.60813 0.93622 0.75665
 C1572 C 0.62115 0.94769 0.74483
 C1573 C 0.61836 0.95060 0.72377
 C1574 C 0.60198 0.94176 0.71494
 C1575 C 0.61100 0.93462 0.77760
 C1576 C 0.59821 0.92379 0.78981
 C1577 C 0.58226 0.91351 0.78143
 C1578 C 0.57970 0.91405 0.75983
 C1579 C 0.56507 0.90176 0.75122
 C1580 C 0.55304 0.88976 0.76330
 C1581 C 0.55468 0.89002 0.78443
 C1582 C 0.56902 0.90225 0.79387
 C1583 C 0.56927 0.90299 0.81541
 C1584 C 0.55615 0.89162 0.82694
 C1585 C 0.54254 0.87893 0.81749
 C1586 C 0.54190 0.87817 0.79621
 H1587 H 0.57708 0.92376 0.71846
 H1588 H 0.63303 0.95517 0.75241
 H1589 H 0.59923 0.94314 0.69879
 H1590 H 0.62319 0.94201 0.78470
 H1591 H 0.60160 0.92319 0.80580
 H1592 H 0.56292 0.90052 0.73504
 H1593 H 0.54216 0.88036 0.75598
 H1594 H 0.57911 0.91261 0.82382
 H1595 H 0.55677 0.89263 0.84338
 H1596 H 0.53113 0.86871 0.78878
 C1597 C 0.40456 0.94798 0.24696
 C1598 C 0.40290 0.92655 0.24169
 C1599 C 0.38723 0.91525 0.24964
 C1600 C 0.37338 0.92539 0.26144
 C1601 C 0.37504 0.94679 0.26649
 C1602 C 0.39102 0.95778 0.25920
 C1603 C 0.38552 0.89377 0.24600
 C1604 C 0.39929 0.88307 0.23506
 C1605 C 0.41515 0.89360 0.22676
 C1606 C 0.41645 0.91587 0.22922
 C1607 C 0.43102 0.92675 0.21884
 C1608 C 0.44425 0.91617 0.20701
 C1609 C 0.44392 0.89433 0.20558
 C1610 C 0.42960 0.88266 0.21576
 C1611 C 0.43063 0.86047 0.21492
 C1612 C 0.44504 0.85044 0.20412
 C1613 C 0.45873 0.86207 0.19355
 C1614 C 0.45802 0.88404 0.19422
 H1615 H 0.41638 0.95757 0.24222
 H1616 H 0.36179 0.91611 0.26755
 H1617 H 0.39287 0.97436 0.26220
 H1618 H 0.37350 0.88503 0.25192
 H1619 H 0.39679 0.86654 0.23284
 H1620 H 0.43225 0.94362 0.21906
 H1621 H 0.45508 0.92520 0.19918
 H1622 H 0.42087 0.85038 0.22294
 H1623 H 0.44542 0.83342 0.20397
 H1624 H 0.46881 0.89313 0.18639
 C1625 C 0.61435 0.09215 0.26147
 C1626 C 0.60395 0.08285 0.24536
 C1627 C 0.60802 0.06160 0.24062
 C1628 C 0.62143 0.05016 0.25202
 C1629 C 0.63131 0.05951 0.26815
 C1630 C 0.62773 0.08064 0.27260
 C1631 C 0.59863 0.05176 0.22461
 C1632 C 0.58535 0.06253 0.21294
 C1633 C 0.58066 0.08368 0.21701
 C1634 C 0.58977 0.09385 0.23380
 C1635 C 0.58417 0.11454 0.23869
 C1636 C 0.57035 0.12504 0.22747
 C1637 C 0.56174 0.11559 0.21074
 C1638 C 0.56691 0.09489 0.20506
 C1639 C 0.55817 0.08636 0.18750
 C1640 C 0.54468 0.09776 0.17645
 C1641 C 0.53933 0.11800 0.18242
 C1642 C 0.54797 0.12683 0.19961
 H1643 H 0.61270 0.10836 0.26575
 H1644 H 0.62390 0.03375 0.24852
 H1645 H 0.63546 0.08843 0.28468
 H1646 H 0.60163 0.03548 0.22098
 H1647 H 0.57871 0.05359 0.20102
 H1648 H 0.58993 0.12302 0.25142
 H1649 H 0.56643 0.14085 0.23192
 H1650 H 0.56157 0.07104 0.18166
 H1651 H 0.53835 0.09057 0.16315
 H1652 H 0.54412 0.14259 0.20425
 C1653 C 0.38827 0.05470 0.77246
 C1654 C 0.39334 0.07585 0.76841
 C1655 C 0.38436 0.08595 0.75168
 C1656 C 0.37090 0.07527 0.73976
 C1657 C 0.36622 0.05427 0.74384
 C1658 C 0.37499 0.04418 0.76037
 C1659 C 0.38893 0.10664 0.74675
 C1660 C 0.40261 0.11751 0.75769
 C1661 C 0.41228 0.10816 0.77427
 C1662 C 0.40717 0.08719 0.78010
 C1663 C 0.41603 0.07833 0.79744
 C1664 C 0.42970 0.08927 0.80840
 C1665 C 0.43534 0.10937 0.80249
 C1666 C 0.42680 0.11911 0.78529
 C1667 C 0.43343 0.13932 0.77967
 C1668 C 0.44774 0.14934 0.79070
 C1669 C 0.45600 0.13973 0.80778
 C1670 C 0.44963 0.11973 0.81363
 H1671 H 0.39456 0.04562 0.78458
 H1672 H 0.36404 0.08338 0.72720
 H1673 H 0.37194 0.02785 0.76370
 H1674 H 0.38198 0.11450 0.73410
 H1675 H 0.40513 0.13342 0.75280
 H1676 H 0.41258 0.06292 0.80314
 H1677 H 0.43608 0.08177 0.82160
 H1678 H 0.42814 0.14778 0.76662
 H1679 H 0.45238 0.16475 0.78574
 H1680 H 0.45599 0.11204 0.82673
 C1681 C 0.62488 0.77680 0.06896
 C1682 C 0.60985 0.76680 0.07959
 C1683 C 0.60975 0.74452 0.08011
 C1684 C 0.62363 0.73296 0.06969
 C1685 C 0.63817 0.74312 0.05903
 C1686 C 0.63880 0.76509 0.05894
 C1687 C 0.59582 0.73381 0.09103
 C1688 C 0.58207 0.74467 0.10182
 C1689 C 0.58145 0.76684 0.10181
 C1690 C 0.59511 0.77808 0.08988
 C1691 C 0.59333 0.80013 0.08831
 C1692 C 0.57897 0.81090 0.09835
 C1693 C 0.56609 0.80028 0.11078
 C1694 C 0.56736 0.77814 0.11302
 C1695 C 0.55459 0.76827 0.12665
 C1696 C 0.54093 0.77982 0.13710
 C1697 C 0.53933 0.80157 0.13431
 C1698 C 0.55199 0.81172 0.12109
 H1699 H 0.62648 0.79362 0.06835
 H1700 H 0.62329 0.71592 0.07014
 H1701 H 0.64999 0.77327 0.05085
 H1702 H 0.59561 0.71678 0.09136
 H1703 H 0.57176 0.73510 0.10963
 H1704 H 0.60258 0.80956 0.07897
 H1705 H 0.57806 0.82781 0.09651
 H1706 H 0.55501 0.75169 0.12998
 H1707 H 0.53144 0.77158 0.14735
 H1708 H 0.55107 0.82860 0.11908
 C1709 C 0.38050 0.25240 0.09203
 C1710 C 0.39502 0.24044 0.08265
 C1711 C 0.39507 0.23942 0.06109
 C1712 C 0.38162 0.25069 0.04958
 C1713 C 0.36751 0.26255 0.05917
 C1714 C 0.36698 0.26316 0.08043
 C1715 C 0.40844 0.22706 0.05110
 C1716 C 0.42161 0.21526 0.06201
 C1717 C 0.42224 0.21577 0.08348
 C1718 C 0.40924 0.22924 0.09392
 C1719 C 0.41113 0.23139 0.11520
 C1720 C 0.42489 0.22038 0.12602
 C1721 C 0.43703 0.20641 0.11621
 C1722 C 0.43569 0.20357 0.09486
 C1723 C 0.44774 0.18839 0.08588
 C1724 C 0.46081 0.17704 0.09756
 C1725 C 0.46247 0.18047 0.11851
 C1726 C 0.45049 0.19519 0.12774
 H1727 H 0.37890 0.25342 0.10829
 H1728 H 0.38185 0.24988 0.03310
 H1729 H 0.35612 0.27219 0.08813
 H1730 H 0.40862 0.22630 0.03462
 H1731 H 0.43149 0.20628 0.05306
 H1732 H 0.40248 0.24196 0.12397
 H1733 H 0.42591 0.22270 0.14232
 H1734 H 0.44719 0.18458 0.06994
 H1735 H 0.46980 0.16563 0.09006
 H1736 H 0.45146 0.19772 0.14401
 C1737 C 0.61263 0.22769 0.94569
 C1738 C 0.60647 0.23313 0.92580
 C1739 C 0.61576 0.25017 0.91604
 C1740 C 0.63054 0.26106 0.92582
 C1741 C 0.63631 0.25560 0.94558
 C1742 C 0.62724 0.23876 0.95532
 C1743 C 0.61024 0.25642 0.89657
 C1744 C 0.59541 0.24644 0.88657
 C1745 C 0.58546 0.22956 0.89562
 C1746 C 0.59134 0.22248 0.91538
 C1747 C 0.58196 0.20496 0.92398
 C1748 C 0.56721 0.19487 0.91386
 C1749 C 0.56100 0.20188 0.89485
 C1750 C 0.56991 0.21941 0.88548
 C1751 C 0.56271 0.22614 0.86640
 C1752 C 0.54764 0.21573 0.85700
 C1753 C 0.53908 0.19822 0.86616
 C1754 C 0.54586 0.19142 0.88517
 H1755 H 0.60627 0.21521 0.95443
 H1756 H 0.63759 0.27386 0.91797
 H1757 H 0.63113 0.23438 0.97072
 H1758 H 0.61738 0.26933 0.88898
 H1759 H 0.59224 0.25232 0.87157
 H1760 H 0.58579 0.19841 0.93855
 H1761 H 0.56052 0.18146 0.92109
 H1762 H 0.56823 0.23954 0.85831
 H1763 H 0.54270 0.22146 0.84238
 H1764 H 0.53931 0.17797 0.89251
 C1765 C 0.38681 0.74286 0.90968
 C1766 C 0.40146 0.75461 0.91911
 C1767 C 0.40155 0.75562 0.94067
 C1768 C 0.38798 0.74453 0.95214
 C1769 C 0.37367 0.73298 0.94249
 C1770 C 0.37314 0.73235 0.92123
 C1771 C 0.41504 0.76786 0.95068
 C1772 C 0.42821 0.77962 0.93979
 C1773 C 0.42876 0.77916 0.91832
 C1774 C 0.41572 0.76570 0.90787
 C1775 C 0.41758 0.76350 0.88660
 C1776 C 0.43127 0.77452 0.87579
 C1777 C 0.44337 0.78857 0.88557
 C1778 C 0.44213 0.79140 0.90693
 C1779 C 0.45414 0.80666 0.91589
 C1780 C 0.46703 0.81817 0.90416
 C1781 C 0.46856 0.81478 0.88320
 C1782 C 0.45668 0.79992 0.87402
 H1783 H 0.38517 0.74189 0.89342
 H1784 H 0.38822 0.74534 0.96863
 H1785 H 0.36211 0.72359 0.91350
 H1786 H 0.41526 0.76861 0.96716
 H1787 H 0.43815 0.78857 0.94874
 H1788 H 0.40894 0.75287 0.87784
 H1789 H 0.43224 0.77218 0.85949
 H1790 H 0.45366 0.81043 0.93184
 H1791 H 0.47596 0.82969 0.91161
 H1792 H 0.45753 0.79742 0.85774
 C1793 C 0.73903 0.90126 0.37990
 C1794 C 0.75497 0.91020 0.38983
 C1795 C 0.75945 0.93142 0.38526
 C1796 C 0.74792 0.94325 0.37202
 C1797 C 0.73178 0.93434 0.36298
 C1798 C 0.72768 0.91317 0.36680
 C1799 C 0.77522 0.94091 0.39418
 C1800 C 0.78662 0.92994 0.40783
 C1801 C 0.78255 0.90896 0.41337
 C1802 C 0.76641 0.89894 0.40426
 C1803 C 0.76198 0.87819 0.41027
 C1804 C 0.77268 0.86766 0.42482
 C1805 C 0.78836 0.87718 0.43386
 C1806 C 0.79379 0.89781 0.42807
 C1807 C 0.81019 0.90640 0.43746
 C1808 C 0.82021 0.89524 0.45235
 C1809 C 0.81433 0.87518 0.45843
 C1810 C 0.79850 0.86616 0.44891
 H1811 H 0.73485 0.88512 0.38186
 H1812 H 0.75119 0.95966 0.36924
 H1813 H 0.71556 0.90575 0.35961
 H1814 H 0.77875 0.95710 0.39068
 H1815 H 0.79835 0.93863 0.41411
 H1816 H 0.75001 0.86965 0.40434
 H1817 H 0.76852 0.85186 0.42914
 H1818 H 0.81569 0.92171 0.43372
 H1819 H 0.83249 0.90254 0.45933
 H1820 H 0.79394 0.85053 0.45331
 C1821 C 0.26141 0.90373 0.62030
 C1822 C 0.24587 0.91326 0.61006
 C1823 C 0.24157 0.93442 0.61497
 C1824 C 0.25280 0.94556 0.62898
 C1825 C 0.26839 0.93599 0.63859
 C1826 C 0.27241 0.91493 0.63424
 C1827 C 0.22617 0.94447 0.60577
 C1828 C 0.21481 0.93404 0.59179
 C1829 C 0.21853 0.91304 0.58616
 C1830 C 0.23452 0.90259 0.59520
 C1831 C 0.23882 0.88197 0.58881
 C1832 C 0.22788 0.87181 0.57426
 C1833 C 0.21208 0.88159 0.56560
 C1834 C 0.20698 0.90224 0.57154
 C1835 C 0.19047 0.91113 0.56259
 C1836 C 0.17984 0.90013 0.54817
 C1837 C 0.18520 0.87992 0.54207
 C1838 C 0.20135 0.87074 0.55094
 H1839 H 0.26541 0.88757 0.61807
 H1840 H 0.24960 0.96190 0.63208
 H1841 H 0.28408 0.90696 0.64178
 H1842 H 0.22283 0.96064 0.60943
 H1843 H 0.20334 0.94312 0.58538
 H1844 H 0.25082 0.87324 0.59450
 H1845 H 0.23186 0.85605 0.56976
 H1846 H 0.18522 0.92648 0.56647
 H1847 H 0.16737 0.90759 0.54168
 H1848 H 0.20556 0.85503 0.54651
 C1849 C 0.26046 0.09411 0.38009
 C1850 C 0.24872 0.08477 0.39510
 C1851 C 0.24776 0.06250 0.39571
 C1852 C 0.25878 0.05031 0.38245
 C1853 C 0.27046 0.05986 0.36792
 C1854 C 0.27105 0.08180 0.36671
 C1855 C 0.23576 0.05247 0.40949
 C1856 C 0.22434 0.06399 0.42251
 C1857 C 0.22477 0.08617 0.42261
 C1858 C 0.23774 0.09670 0.40929
 C1859 C 0.23960 0.11873 0.41091
 C1860 C 0.22890 0.13014 0.42476
 C1861 C 0.21555 0.12023 0.43715
 C1862 C 0.21298 0.09816 0.43595
 C1863 C 0.19849 0.08904 0.44799
 C1864 C 0.18757 0.10122 0.46110
 C1865 C 0.19068 0.12287 0.46282
 C1866 C 0.20469 0.13230 0.45074
 H1867 H 0.26150 0.11086 0.37799
 H1868 H 0.25802 0.03331 0.38316
 H1869 H 0.27994 0.08948 0.35549
 H1870 H 0.23506 0.03546 0.41010
 H1871 H 0.21567 0.05494 0.43279
 H1872 H 0.24966 0.12762 0.40205
 H1873 H 0.23100 0.14699 0.42564
 H1874 H 0.19494 0.07260 0.44738
 H1875 H 0.17673 0.09353 0.47013
 H1876 H 0.20700 0.14911 0.45172
 C1877 C 0.72139 0.08649 0.58785
 C1878 C 0.74142 0.08756 0.58993
 C1879 C 0.74999 0.07541 0.60560
 C1880 C 0.73878 0.06368 0.61916
 C1881 C 0.71899 0.06316 0.61706
 C1882 C 0.71044 0.07442 0.60117
 C1883 C 0.76971 0.07497 0.60766
 C1884 C 0.78125 0.08601 0.59425
 C1885 C 0.77346 0.09847 0.57848
 C1886 C 0.75321 0.09998 0.57686
 C1887 C 0.74542 0.11418 0.56253
 C1888 C 0.75696 0.12606 0.54982
 C1889 C 0.77667 0.12387 0.55043
 C1890 C 0.78524 0.10979 0.56450
 C1891 C 0.80524 0.10735 0.56368
 C1892 C 0.81616 0.11866 0.54971
 C1893 C 0.80762 0.13296 0.53629
 C1894 C 0.78786 0.13557 0.53682
 H1895 H 0.71376 0.09446 0.57587
 H1896 H 0.74548 0.05464 0.63123
 H1897 H 0.69514 0.07410 0.59923
 H1898 H 0.77634 0.06580 0.61967
 H1899 H 0.79631 0.08492 0.59705
 H1900 H 0.73037 0.11695 0.56113
 H1901 H 0.75034 0.13688 0.53918
 H1902 H 0.81286 0.09641 0.57322
 H1903 H 0.83140 0.11623 0.54947
 H1904 H 0.78110 0.14633 0.52620
 C1905 C 0.91152 0.61900 0.25798
 C1906 C 0.91957 0.60500 0.24366
 C1907 C 0.93961 0.60533 0.24127
 C1908 C 0.95098 0.61849 0.25337
 C1909 C 0.94274 0.63201 0.26761
 C1910 C 0.92294 0.63228 0.26964
 C1911 C 0.94824 0.59259 0.22678
 C1912 C 0.93746 0.57963 0.21434
 C1913 C 0.91748 0.57851 0.21619
 C1914 C 0.90846 0.59089 0.23155
 C1915 C 0.88871 0.58841 0.23458
 C1916 C 0.87809 0.57454 0.22292
 C1917 C 0.88654 0.56291 0.20746
 C1918 C 0.90627 0.56502 0.20354
 C1919 C 0.91389 0.55359 0.18700
 C1920 C 0.90254 0.54009 0.17549
 C1921 C 0.88325 0.53740 0.18002
 C1922 C 0.87532 0.54904 0.19596
 H1923 H 0.89642 0.62037 0.26034
 H1924 H 0.96629 0.61851 0.25146
 H1925 H 0.91626 0.64268 0.28050
 H1926 H 0.96355 0.59273 0.22492
 H1927 H 0.94534 0.57021 0.20372
 H1928 H 0.88104 0.59657 0.24630
 H1929 H 0.86302 0.57298 0.22602
 H1930 H 0.92852 0.55487 0.18236
 H1931 H 0.90903 0.53145 0.16315
 H1932 H 0.86033 0.54734 0.19943
 C1933 C 0.92225 0.40448 0.72977
 C1934 C 0.92061 0.40249 0.75118
 C1935 C 0.93185 0.38694 0.76099
 C1936 C 0.94350 0.37345 0.74961
 C1937 C 0.94469 0.37549 0.72843
 C1938 C 0.93413 0.39122 0.71868
 C1939 C 0.93150 0.38495 0.78211
 C1940 C 0.92053 0.39835 0.79388
 C1941 C 0.90904 0.41407 0.78490
 C1942 C 0.90848 0.41558 0.76317
 C1943 C 0.89558 0.42986 0.75413
 C1944 C 0.88412 0.44276 0.76586
 C1945 C 0.88528 0.44233 0.78703
 C1946 C 0.89789 0.42818 0.79691
 C1947 C 0.89909 0.42912 0.81842
 C1948 C 0.88821 0.44343 0.82946
 C1949 C 0.87559 0.45710 0.81958
 C1950 C 0.87407 0.45630 0.79835
 H1951 H 0.91483 0.41635 0.72114
 H1952 H 0.95192 0.36153 0.75728
 H1953 H 0.93487 0.39311 0.70231
 H1954 H 0.93998 0.37302 0.78969
 H1955 H 0.92103 0.39562 0.81005
 H1956 H 0.89367 0.43115 0.73792
 H1957 H 0.87440 0.45343 0.75822
 H1958 H 0.90870 0.41946 0.82716
 H1959 H 0.88976 0.44385 0.84586
 H1960 H 0.86456 0.46706 0.79052
 C1961 C 0.04646 0.60482 0.76561
 C1962 C 0.06508 0.60810 0.77324
 C1963 C 0.07489 0.62641 0.76677
 C1964 C 0.06597 0.64117 0.75399
 C1965 C 0.04762 0.63757 0.74663
 C1966 C 0.03800 0.61929 0.75237
 C1967 C 0.09364 0.62976 0.77281
 C1968 C 0.10324 0.61489 0.78443
 C1969 C 0.09419 0.59631 0.79107
 C1970 C 0.07448 0.59352 0.78649
 C1971 C 0.06480 0.57645 0.79552
 C1972 C 0.07426 0.56199 0.80779
 C1973 C 0.09383 0.56349 0.81092
 C1974 C 0.10415 0.58049 0.80232
 C1975 C 0.12416 0.58050 0.80466
 C1976 C 0.13339 0.56435 0.81514
 C1977 C 0.12306 0.54797 0.82402
 C1978 C 0.10324 0.54777 0.82218
 H1979 H 0.03833 0.59091 0.76904
 H1980 H 0.07352 0.65521 0.74924
 H1981 H 0.02382 0.61623 0.74662
 H1982 H 0.10114 0.64384 0.76811
 H1983 H 0.11768 0.61869 0.78848
 H1984 H 0.04970 0.57414 0.79379
 H1985 H 0.06625 0.54916 0.81445
 H1986 H 0.13315 0.59226 0.79785
 H1987 H 0.14876 0.56463 0.81625
 H1988 H 0.09525 0.53482 0.82869
 C1989 C 0.05594 0.37563 0.21922
 C1990 C 0.07412 0.38362 0.22438
 C1991 C 0.08334 0.37481 0.24163
 C1992 C 0.07464 0.35880 0.25305
 C1993 C 0.05656 0.35129 0.24785
 C1994 C 0.04738 0.35980 0.23078
 C1995 C 0.10117 0.38209 0.24757
 C1996 C 0.11006 0.39822 0.23700
 C1997 C 0.10148 0.40775 0.21984
 C1998 C 0.08335 0.40009 0.21320
 C1999 C 0.07511 0.40911 0.19560
 C2000 C 0.08408 0.42515 0.18495
 C2001 C 0.10155 0.43302 0.19140
 C2002 C 0.11050 0.42459 0.20899
 C2003 C 0.12809 0.43348 0.21499
 C2004 C 0.13647 0.44967 0.20379
 C2005 C 0.12770 0.45769 0.18625
 C2006 C 0.11015 0.44932 0.18023
 H2007 H 0.04773 0.38144 0.20655
 H2008 H 0.08201 0.35214 0.26607
 H2009 H 0.03326 0.35457 0.22659
 H2010 H 0.10832 0.37533 0.26067
 H2011 H 0.12381 0.40273 0.24269
 H2012 H 0.06170 0.40404 0.18945
 H2013 H 0.07720 0.43150 0.17149
 H2014 H 0.13579 0.42843 0.22830
 H2015 H 0.14999 0.45587 0.20890
 H2016 H 0.10315 0.45542 0.16672
   
