data_POSCAR
  _audit_creation_date              2014-09-24
  _audit_creation_method            'ToBaCCo'
  _symmetry_space_group_name_H-M    'P1'
  _symmetry_Int_Tables_number       1
  _symmetry_cell_setting            triclinic
  loop_
  _symmetry_equiv_pos_as_xyz
 x,y,z
_cell_length_a 55.4444
_cell_length_b 55.4881
_cell_length_c 55.4897
_cell_angle_alpha 90.012500
_cell_angle_beta 90.015300
_cell_angle_gamma 90.018400
loop_
  _atom_site_label
  _atom_site_type_symbol
  _atom_site_fract_x
  _atom_site_fract_y
  _atom_site_fract_z
O1 O 0.34947 0.31691 -0.02382
 O2 O 0.31639 0.34989 0.02301
 O3 O 0.34963 0.31675 0.02280
 O4 O 0.31630 0.35015 -0.02361
 O5 O 0.28796 0.32210 -0.02382
 O6 O 0.32153 0.28845 0.02288
 O7 O 0.28805 0.32183 0.02308
 O8 O 0.32137 0.28861 -0.02402
 Cu9 Cu 0.33577 0.33624 -0.00040
 Cu10 Cu 0.30186 0.30238 -0.00048
 C11 C 0.34120 0.29710 -0.03166
 C12 C 0.29656 0.34162 0.03079
 C13 C 0.34140 0.29688 0.03053
 C14 C 0.29642 0.34197 -0.03139
 O15 O 0.68367 0.65013 0.02287
 O16 O 0.65060 0.68313 -0.02394
 O17 O 0.68369 0.64982 -0.02375
 O18 O 0.65051 0.68335 0.02268
 O19 O 0.67867 0.71159 0.02270
 O20 O 0.71209 0.67781 -0.02400
 O21 O 0.67876 0.71137 -0.02420
 O22 O 0.71208 0.67813 0.02289
 Cu23 Cu 0.66429 0.66379 -0.00053
 Cu24 Cu 0.69827 0.69758 -0.00067
 C25 C 0.70354 0.65836 0.03063
 C26 C 0.65889 0.70291 -0.03181
 C27 C 0.70358 0.65795 -0.03156
 C28 C 0.65880 0.70321 0.03038
 O29 O 0.65064 0.31682 1.02385
 O30 O 0.68371 0.34985 0.97706
 O31 O 0.65051 0.31665 0.97723
 O32 O 0.68376 0.35011 1.02368
 O33 O 0.71213 0.32210 1.02389
 O34 O 0.67863 0.28840 0.97716
 O35 O 0.71208 0.32184 0.97699
 O36 O 0.67876 0.28856 1.02407
 Cu37 Cu 0.66433 0.33617 1.00045
 Cu38 Cu 0.69827 0.30236 1.00054
 C39 C 0.65892 0.29703 1.03170
 C40 C 0.70356 0.34161 0.96928
 C41 C 0.65876 0.29680 0.96950
 C42 C 0.70365 0.34196 1.03147
 O43 O 0.31654 0.64986 0.97729
 O44 O 0.34970 0.68295 1.02402
 O45 O 0.31656 0.64966 1.02391
 O46 O 0.34975 0.68305 0.97740
 O47 O 0.32163 0.71132 0.97734
 O48 O 0.28820 0.67766 1.02414
 O49 O 0.32158 0.71120 1.02424
 O50 O 0.28818 0.67788 0.97724
 Cu51 Cu 0.33597 0.66356 1.00065
 Cu52 Cu 0.30203 0.69737 1.00075
 C53 C 0.29668 0.65809 0.96953
 C54 C 0.34144 0.70275 1.03185
 C55 C 0.29669 0.65781 1.03172
 C56 C 0.34149 0.70290 0.96967
 O57 O 0.02311 0.31652 0.34974
 O58 O -0.02374 0.34947 0.31664
 O59 O -0.02355 0.31634 0.34988
 O60 O 0.02292 0.34972 0.31657
 O61 O 0.02311 0.32164 0.28828
 O62 O -0.02364 0.28802 0.32184
 O63 O -0.02383 0.32139 0.28835
 O64 O 0.02330 0.28819 0.32169
 Cu65 Cu -0.00032 0.33584 0.33603
 Cu66 Cu -0.00026 0.30195 0.30218
 C67 C 0.03095 0.29671 0.34150
 C68 C -0.03153 0.34119 0.29682
 C69 C -0.03128 0.29646 0.34169
 C70 C 0.03071 0.34152 0.29672
 O71 O 0.02332 0.68318 0.65011
 O72 O -0.02360 0.65034 0.68322
 O73 O -0.02333 0.68340 0.64991
 O74 O 0.02306 0.65004 0.68334
 O75 O 0.02328 0.67818 0.71158
 O76 O -0.02340 0.71178 0.67789
 O77 O -0.02367 0.67848 0.71145
 O78 O 0.02354 0.71156 0.67810
 Cu79 Cu -0.00014 0.66391 0.66383
 Cu80 Cu -0.00005 0.69787 0.69761
 C81 C 0.03119 0.70300 0.65831
 C82 C -0.03140 0.65867 0.70301
 C83 C -0.03104 0.70330 0.65805
 C84 C 0.03085 0.65828 0.70319
 O85 O 1.02360 0.65045 0.31664
 O86 O 0.97681 0.68343 0.34978
 O87 O 0.97694 0.65026 0.31656
 O88 O 1.02346 0.68352 0.34994
 O89 O 1.02359 0.71188 0.32194
 O90 O 0.97679 0.67837 0.28832
 O91 O 0.97666 0.71179 0.32177
 O92 O 1.02373 0.67857 0.28840
 Cu93 Cu 1.00020 0.66409 0.33604
 Cu94 Cu 1.00019 0.69802 0.30225
 C95 C 1.03141 0.65874 0.29684
 C96 C 0.96900 0.70326 0.34157
 C97 C 0.96917 0.65850 0.29672
 C98 C 1.03123 0.70340 0.34178
 O99 O 0.97654 0.31677 0.64973
 O100 O 1.02337 0.34969 0.68296
 O101 O 1.02320 0.31662 0.64964
 O102 O 0.97670 0.34993 0.68298
 O103 O 0.97648 0.32180 0.71121
 O104 O 1.02325 0.28825 0.67762
 O105 O 1.02342 0.32155 0.71119
 O106 O 0.97632 0.28840 0.67772
 Cu107 Cu 0.99996 0.33608 0.66352
 Cu108 Cu 0.99985 0.30213 0.69729
 C109 C 0.96869 0.29694 0.65792
 C110 C 1.03114 0.34137 0.70277
 C111 C 1.03092 0.29672 0.65780
 C112 C 0.96890 0.34168 0.70280
 O113 O 0.31647 -0.02328 0.34961
 O114 O 0.34951 0.02364 0.31670
 O115 O 0.31632 0.02334 0.34991
 O116 O 0.34976 -0.02298 0.31651
 O117 O 0.32170 -0.02311 0.28817
 O118 O 0.28801 0.02350 0.32183
 O119 O 0.32144 0.02379 0.28838
 O120 O 0.28817 -0.02341 0.32151
 Cu121 Cu 0.33584 0.00018 0.33601
 Cu122 Cu 0.30196 0.00020 0.30211
 C123 C 0.29666 -0.03111 0.34131
 C124 C 0.34125 0.03147 0.29690
 C125 C 0.29644 0.03109 0.34171
 C126 C 0.34157 -0.03071 0.29662
 O127 O 0.65049 0.02355 0.68335
 O128 O 0.68360 -0.02332 0.65046
 O129 O 0.65032 -0.02307 0.68356
 O130 O 0.68365 0.02330 0.65011
 O131 O 0.71198 0.02356 0.67817
 O132 O 0.67839 -0.02310 0.71188
 O133 O 0.71191 -0.02335 0.67853
 O134 O 0.67858 0.02380 0.71166
 Cu135 Cu 0.66419 0.00011 0.66405
 Cu136 Cu 0.69808 0.00024 0.69793
 C137 C 0.65875 0.03143 0.70315
 C138 C 0.70343 -0.03109 0.65875
 C139 C 0.65853 -0.03076 0.70344
 C140 C 0.70352 0.03110 0.65829
 O141 O 0.34917 0.97645 0.68365
 O142 O 0.31604 1.02321 0.65063
 O143 O 0.34930 1.02307 0.68376
 O144 O 0.31602 0.97658 0.65040
 O145 O 0.28768 0.97638 0.67845
 O146 O 0.32123 1.02315 0.71207
 O147 O 0.28771 1.02329 0.67869
 O148 O 0.32109 0.97625 0.71195
 Cu149 Cu 0.33546 0.99983 0.66429
 Cu150 Cu 0.30156 0.99976 0.69815
 C151 C 0.34092 0.96862 0.70346
 C152 C 0.29620 1.03099 0.65890
 C153 C 0.34109 1.03081 0.70363
 C154 C 0.29615 0.96879 0.65859
 O155 O 0.65073 0.97684 0.31686
 O156 O 0.68377 1.02358 0.35008
 O157 O 0.65053 1.02347 0.31689
 O158 O 0.68387 0.97696 0.35014
 O159 O 0.71223 0.97690 0.32212
 O160 O 0.67864 1.02370 0.28863
 O161 O 0.71212 1.02380 0.32205
 O162 O 0.67885 0.97679 0.28859
 Cu163 Cu 0.66440 1.00020 0.33631
 Cu164 Cu 0.69833 1.00031 0.30249
 C165 C 0.65902 0.96909 0.29703
 C166 C 0.70361 1.03143 0.34187
 C167 C 0.65876 1.03128 0.29707
 C168 C 0.70376 0.96923 0.34195
 C169 C 0.86365 0.79090 0.52254
 C170 C 0.87242 0.78219 0.50063
 C171 C 0.86364 0.79085 0.47870
 C172 C 0.84551 0.80871 0.47841
 C173 C 0.83640 0.81768 0.50056
 C174 C 0.84549 0.80874 0.52276
 C175 C 0.83627 0.81796 0.54449
 C176 C 0.81850 0.83571 0.54445
 C177 C 0.80934 0.84488 0.52267
 C178 C 0.81832 0.83578 0.50052
 C179 C 0.83635 0.81790 0.45664
 C180 C 0.81862 0.83568 0.45660
 C181 C 0.80941 0.84489 0.47832
 C182 C 0.79159 0.86308 0.47854
 C183 C 0.78287 0.87183 0.50045
 C184 C 0.79150 0.86304 0.52238
 H185 H 0.84277 0.81151 0.56172
 H186 H 0.81202 0.84223 0.56166
 H187 H 0.84288 0.81143 0.43942
 H188 H 0.81220 0.84220 0.43936
 H189 H 0.88648 0.76858 0.50064
 H190 H 0.76927 0.88591 0.50043
 C191 C 0.20840 0.13685 0.52233
 C192 C 0.21705 0.12806 0.50040
 C193 C 0.20837 0.13684 0.47849
 C194 C 0.19057 0.15504 0.47826
 C195 C 0.18163 0.16415 0.50045
 C196 C 0.19058 0.15502 0.52261
 C197 C 0.18139 0.16420 0.54437
 C198 C 0.16365 0.18197 0.54440
 C199 C 0.15447 0.19120 0.52266
 C200 C 0.16358 0.18226 0.50048
 C201 C 0.18139 0.16427 0.45652
 C202 C 0.16367 0.18207 0.45655
 C203 C 0.15450 0.19126 0.47832
 C204 C 0.13638 0.20913 0.47859
 C205 C 0.12759 0.21779 0.50051
 C206 C 0.13632 0.20906 0.52243
 H207 H 0.18784 0.15766 0.56159
 H208 H 0.15714 0.18841 0.56163
 H209 H 0.18782 0.15776 0.43929
 H210 H 0.15717 0.18855 0.43933
 H211 H 0.23064 0.11397 0.50040
 H212 H 0.11353 0.23142 0.50051
 C213 C 0.13678 0.79045 0.52126
 C214 C 0.12801 0.78182 0.49932
 C215 C 0.13676 0.79057 0.47742
 C216 C 0.15493 0.80842 0.47723
 C217 C 0.16402 0.81734 0.49944
 C218 C 0.15491 0.80832 0.52158
 C219 C 0.16407 0.81749 0.54337
 C220 C 0.18179 0.83530 0.54344
 C221 C 0.19099 0.84455 0.52172
 C222 C 0.18209 0.83545 0.49951
 C223 C 0.16413 0.81767 0.45552
 C224 C 0.18189 0.83544 0.45559
 C225 C 0.19106 0.84460 0.47737
 C226 C 0.20888 0.86278 0.47770
 C227 C 0.21751 0.87156 0.49964
 C228 C 0.20880 0.86275 0.52154
 H229 H 0.15754 0.81099 0.56057
 H230 H 0.18821 0.84180 0.56068
 H231 H 0.15764 0.81125 0.43827
 H232 H 0.18836 0.84199 0.43839
 H233 H 0.11394 0.76819 0.49929
 H234 H 0.23110 0.88566 0.49968
 C235 C 0.86328 0.20900 0.52089
 C236 C 0.87205 0.21762 0.49894
 C237 C 0.86329 0.20884 0.47705
 C238 C 0.84514 0.19098 0.47686
 C239 C 0.83605 0.18208 0.49907
 C240 C 0.84516 0.19112 0.52121
 C241 C 0.83601 0.18197 0.54300
 C242 C 0.81829 0.16417 0.54308
 C243 C 0.80908 0.15489 0.52137
 C244 C 0.81799 0.16396 0.49915
 C245 C 0.83593 0.18170 0.45515
 C246 C 0.81817 0.16392 0.45523
 C247 C 0.80901 0.15479 0.47702
 C248 C 0.79118 0.13661 0.47735
 C249 C 0.78255 0.12786 0.49930
 C250 C 0.79127 0.13669 0.52119
 H251 H 0.84254 0.18849 0.56020
 H252 H 0.81188 0.15769 0.56033
 H253 H 0.84242 0.18811 0.43790
 H254 H 0.81170 0.15735 0.43803
 H255 H 0.88610 0.23125 0.49891
 H256 H 0.76896 0.11377 0.49935
 C257 C 0.47783 0.79090 0.86323
 C258 C 0.49977 0.78215 0.87193
 C259 C 0.52170 0.79081 0.86312
 C260 C 0.52197 0.80869 0.84503
 C261 C 0.49978 0.81770 0.83598
 C262 C 0.47758 0.80876 0.84510
 C263 C 0.45582 0.81799 0.83594
 C264 C 0.45584 0.83576 0.81821
 C265 C 0.47761 0.84494 0.80902
 C266 C 0.49980 0.83581 0.81794
 C267 C 0.54374 0.81789 0.83585
 C268 C 0.54376 0.83570 0.81817
 C269 C 0.52200 0.84494 0.80901
 C270 C 0.52176 0.86315 0.79124
 C271 C 0.49982 0.87192 0.78257
 C272 C 0.47788 0.86311 0.79121
 H273 H 0.43858 0.81155 0.84246
 H274 H 0.43860 0.84229 0.81177
 H275 H 0.56098 0.81140 0.84233
 H276 H 0.56100 0.84222 0.81173
 H277 H 0.49978 0.76852 0.88597
 H278 H 0.49982 0.88602 0.76899
 C279 C 0.47794 0.20917 0.13695
 C280 C 0.49987 0.21790 0.12821
 C281 C 0.52182 0.20931 0.13705
 C282 C 0.52211 0.19150 0.15521
 C283 C 0.49993 0.18251 0.16431
 C284 C 0.47772 0.19138 0.15516
 C285 C 0.45597 0.18216 0.16435
 C286 C 0.45601 0.16446 0.18216
 C287 C 0.47780 0.15534 0.19138
 C288 C 0.49997 0.16446 0.18241
 C289 C 0.54389 0.18236 0.16442
 C290 C 0.54393 0.16462 0.18218
 C291 C 0.52218 0.15540 0.19138
 C292 C 0.52197 0.13726 0.20923
 C293 C 0.50004 0.12849 0.21793
 C294 C 0.47809 0.13723 0.20925
 H295 H 0.43872 0.18856 0.15782
 H296 H 0.43878 0.15793 0.18862
 H297 H 0.56112 0.18884 0.15791
 H298 H 0.56118 0.15815 0.18864
 H299 H 0.49986 0.23148 0.11412
 H300 H 0.50005 0.11444 0.23155
 C301 C 0.47802 0.13699 0.79107
 C302 C 0.49993 0.12822 0.78234
 C303 C 0.52189 0.13701 0.79096
 C304 C 0.52221 0.15516 0.80880
 C305 C 0.50005 0.16428 0.81778
 C306 C 0.47782 0.15519 0.80887
 C307 C 0.45609 0.16442 0.81808
 C308 C 0.45615 0.18221 0.83580
 C309 C 0.47795 0.19137 0.84496
 C310 C 0.50011 0.18237 0.83585
 C311 C 0.54401 0.16431 0.81797
 C312 C 0.54407 0.18205 0.83575
 C313 C 0.52233 0.19128 0.84496
 C314 C 0.52214 0.20911 0.86313
 C315 C 0.50022 0.21785 0.87188
 C316 C 0.47826 0.20923 0.86308
 H317 H 0.43883 0.15792 0.81165
 H318 H 0.43893 0.18870 0.84231
 H319 H 0.56123 0.15778 0.81150
 H320 H 0.56133 0.18847 0.84225
 H321 H 0.49990 0.11414 0.76875
 H322 H 0.50025 0.23146 0.88595
 C323 C 0.52234 0.86353 0.20872
 C324 C 0.50040 0.87230 0.21737
 C325 C 0.47846 0.86351 0.20869
 C326 C 0.47824 0.84530 0.19089
 C327 C 0.50044 0.83622 0.18195
 C328 C 0.52262 0.84537 0.19089
 C329 C 0.54440 0.83622 0.18169
 C330 C 0.54443 0.81845 0.16394
 C331 C 0.52267 0.80920 0.15478
 C332 C 0.50047 0.81811 0.16390
 C333 C 0.45648 0.83605 0.18173
 C334 C 0.45651 0.81824 0.16403
 C335 C 0.47829 0.80907 0.15485
 C336 C 0.47856 0.79118 0.13675
 C337 C 0.50050 0.78256 0.12794
 C338 C 0.52244 0.79134 0.13664
 H339 H 0.56163 0.84278 0.18813
 H340 H 0.56167 0.81204 0.15742
 H341 H 0.43923 0.84254 0.18818
 H342 H 0.43927 0.81172 0.15755
 H343 H 0.50039 0.88639 0.23096
 H344 H 0.50050 0.76893 0.11390
 C345 C 0.79093 0.47835 0.86328
 C346 C 0.78229 0.50028 0.87207
 C347 C 0.79094 0.52220 0.86326
 C348 C 0.80872 0.52242 0.84503
 C349 C 0.81765 0.50023 0.83592
 C350 C 0.80872 0.47807 0.84508
 C351 C 0.81789 0.45630 0.83589
 C352 C 0.83560 0.45627 0.81809
 C353 C 0.84476 0.47800 0.80883
 C354 C 0.83567 0.50019 0.81778
 C355 C 0.81789 0.54415 0.83578
 C356 C 0.83558 0.54412 0.81795
 C357 C 0.84474 0.52235 0.80876
 C358 C 0.86284 0.52206 0.79087
 C359 C 0.87161 0.50014 0.78220
 C360 C 0.86288 0.47822 0.79094
 H361 H 0.81145 0.43908 0.84245
 H362 H 0.84210 0.43903 0.81165
 H363 H 0.81146 0.56139 0.84229
 H364 H 0.84208 0.56133 0.81145
 H365 H 0.76872 0.50029 0.88618
 H366 H 0.88565 0.50013 0.76855
 C367 C 0.20909 0.47832 0.13676
 C368 C 0.21777 0.50026 0.12802
 C369 C 0.20910 0.52217 0.13683
 C370 C 0.19127 0.52237 0.15500
 C371 C 0.18230 0.50017 0.16406
 C372 C 0.19124 0.47802 0.15491
 C373 C 0.18203 0.45625 0.16403
 C374 C 0.16426 0.45620 0.18178
 C375 C 0.15508 0.47792 0.19103
 C376 C 0.16421 0.50012 0.18214
 C377 C 0.18208 0.54410 0.16425
 C378 C 0.16433 0.54405 0.18202
 C379 C 0.15513 0.52227 0.19115
 C380 C 0.13697 0.52198 0.20899
 C381 C 0.12816 0.50004 0.21760
 C382 C 0.13690 0.47813 0.20886
 H383 H 0.18848 0.43904 0.15748
 H384 H 0.15773 0.43896 0.18818
 H385 H 0.18854 0.56134 0.15778
 H386 H 0.15783 0.56126 0.18852
 H387 H 0.23138 0.50028 0.11395
 H388 H 0.11409 0.50002 0.23121
 C389 C 0.86294 0.47799 0.20898
 C390 C 0.87174 0.49992 0.21762
 C391 C 0.86301 0.52183 0.20886
 C392 C 0.84487 0.52204 0.19099
 C393 C 0.83575 0.49984 0.18207
 C394 C 0.84482 0.47769 0.19110
 C395 C 0.83564 0.45591 0.18193
 C396 C 0.81793 0.45586 0.16412
 C397 C 0.80876 0.47759 0.15485
 C398 C 0.81770 0.49979 0.16395
 C399 C 0.83570 0.54376 0.18173
 C400 C 0.81796 0.54371 0.16394
 C401 C 0.80877 0.52194 0.15478
 C402 C 0.79096 0.52164 0.13659
 C403 C 0.78230 0.49970 0.12782
 C404 C 0.79097 0.47780 0.13664
 H405 H 0.84213 0.43870 0.18844
 H406 H 0.81149 0.43862 0.15762
 H407 H 0.84222 0.56100 0.18815
 H408 H 0.81153 0.56093 0.15738
 H409 H 0.88579 0.49995 0.23125
 H410 H 0.76872 0.49968 0.11371
 C411 C 0.20874 0.47760 0.86357
 C412 C 0.21743 0.49950 0.87241
 C413 C 0.20878 0.52144 0.86366
 C414 C 0.19096 0.52175 0.84548
 C415 C 0.18201 0.49961 0.83630
 C416 C 0.19093 0.47740 0.84537
 C417 C 0.18175 0.45568 0.83609
 C418 C 0.16403 0.45574 0.81828
 C419 C 0.15487 0.47753 0.80912
 C420 C 0.16396 0.49967 0.81817
 C421 C 0.18179 0.54353 0.83633
 C422 C 0.16405 0.54359 0.81855
 C423 C 0.15486 0.52188 0.80926
 C424 C 0.13673 0.52168 0.79139
 C425 C 0.12799 0.49978 0.78261
 C426 C 0.13676 0.47784 0.79123
 H427 H 0.18817 0.43844 0.84257
 H428 H 0.15752 0.43854 0.81175
 H429 H 0.18825 0.56074 0.84291
 H430 H 0.15755 0.56084 0.81213
 H431 H 0.23102 0.49947 0.88650
 H432 H 0.11394 0.49981 0.76896
 C433 C 0.22875 0.40956 0.07889
 C434 C 0.25428 0.41167 0.06788
 C435 C 0.25999 0.38612 0.07690
 C436 C 0.23460 0.38370 0.08772
 C437 C 0.23861 0.41964 0.10273
 C438 C 0.24427 0.39412 0.11186
 C439 C 0.26399 0.42197 0.09187
 C440 C 0.26986 0.39619 0.10074
 C441 C 0.27246 0.36867 0.06153
 C442 C 0.28323 0.35561 0.04795
 C443 C 0.22733 0.43939 0.11609
 C444 C 0.21869 0.45663 0.12605
 H445 H 0.21172 0.41527 0.07005
 H446 H 0.25851 0.41874 0.04965
 H447 H 0.22267 0.36775 0.08585
 H448 H 0.23999 0.38715 0.13011
 H449 H 0.27596 0.43791 0.09369
 H450 H 0.28691 0.39049 0.10956
 C451 C 0.77476 0.59836 0.08628
 C452 C 0.75587 0.59361 0.06627
 C453 C 0.74010 0.61384 0.07672
 C454 C 0.75879 0.61892 0.09653
 C455 C 0.76147 0.58033 0.10257
 C456 C 0.74571 0.60052 0.11309
 C457 C 0.74277 0.57537 0.08274
 C458 C 0.72685 0.59579 0.09302
 C459 C 0.72764 0.63129 0.06135
 C460 C 0.71687 0.64437 0.04777
 C461 C 0.77273 0.56058 0.11593
 C462 C 0.78137 0.54333 0.12589
 H463 H 0.79459 0.59918 0.08368
 H464 H 0.75993 0.59094 0.04687
 H465 H 0.76522 0.63706 0.10202
 H466 H 0.74168 0.60313 0.13251
 H467 H 0.73629 0.55727 0.07718
 H468 H 0.70702 0.59492 0.09563
 C469 C 0.74520 0.39981 0.88687
 C470 C 0.75832 0.38103 0.90296
 C471 C 0.74010 0.38614 0.92318
 C472 C 0.72681 0.40457 0.90735
 C473 C 0.76146 0.41965 0.89732
 C474 C 0.74323 0.42464 0.91756
 C475 C 0.77480 0.40125 0.91314
 C476 C 0.75638 0.40602 0.93356
 C477 C 0.72765 0.36869 0.93856
 C478 C 0.71688 0.35561 0.95214
 C479 C 0.77272 0.43940 0.88395
 C480 C 0.78135 0.45665 0.87399
 H481 H 0.74075 0.39749 0.86750
 H482 H 0.76437 0.36287 0.89714
 H483 H 0.70695 0.40575 0.90513
 H484 H 0.73713 0.44276 0.92345
 H485 H 0.79466 0.40011 0.91534
 H486 H 0.76086 0.40840 0.95291
 C487 C 0.22848 0.59042 0.92137
 C488 C 0.25389 0.58813 0.93265
 C489 C 0.25996 0.61356 0.92351
 C490 C 0.23470 0.61616 0.91242
 C491 C 0.23845 0.58008 0.89770
 C492 C 0.24448 0.60548 0.88845
 C493 C 0.26370 0.57757 0.90883
 C494 C 0.26995 0.60322 0.89984
 C495 C 0.27249 0.63100 0.93886
 C496 C 0.28331 0.64407 0.95242
 C497 C 0.22711 0.56035 0.88433
 C498 C 0.21842 0.54312 0.87437
 H499 H 0.21131 0.58495 0.93008
 H500 H 0.25788 0.58115 0.95097
 H501 H 0.22293 0.63225 0.91407
 H502 H 0.24045 0.61236 0.87011
 H503 H 0.27552 0.56150 0.90723
 H504 H 0.28713 0.60868 0.89115
 C505 C 0.08227 0.25691 0.42472
 C506 C 0.09260 0.27341 0.40479
 C507 C 0.07691 0.26016 0.38619
 C508 C 0.06642 0.24381 0.40592
 C509 C 0.10260 0.23876 0.41980
 C510 C 0.08692 0.22547 0.40123
 C511 C 0.11316 0.25510 0.40011
 C512 C 0.09722 0.24201 0.38116
 C513 C 0.06161 0.27264 0.36868
 C514 C 0.04807 0.28340 0.35555
 C515 C 0.11587 0.22746 0.43960
 C516 C 0.12576 0.21878 0.45688
 H517 H 0.07624 0.26294 0.44282
 H518 H 0.09477 0.29326 0.40607
 H519 H 0.04704 0.23929 0.40815
 H520 H 0.08476 0.20561 0.40000
 H521 H 0.13255 0.25959 0.39795
 H522 H 0.10318 0.23605 0.36302
 C523 C 0.08267 0.74257 0.57509
 C524 C 0.09299 0.72618 0.59512
 C525 C 0.07721 0.73945 0.61361
 C526 C 0.06673 0.75569 0.59378
 C527 C 0.10293 0.76082 0.58000
 C528 C 0.08717 0.77412 0.59847
 C529 C 0.11349 0.74459 0.59980
 C530 C 0.09745 0.75769 0.61864
 C531 C 0.06189 0.72700 0.63112
 C532 C 0.04833 0.71627 0.64425
 C533 C 0.11623 0.77211 0.56021
 C534 C 0.12613 0.78079 0.54295
 H535 H 0.07671 0.73646 0.55699
 H536 H 0.09523 0.70634 0.59392
 H537 H 0.04734 0.76013 0.59147
 H538 H 0.08494 0.79397 0.59962
 H539 H 0.13289 0.74018 0.60203
 H540 H 0.10335 0.76374 0.63678
 C541 C 0.88931 0.75824 0.39363
 C542 C 0.91481 0.76623 0.38521
 C543 C 0.92309 0.73983 0.38629
 C544 C 0.89789 0.73162 0.39436
 C545 C 0.89745 0.76123 0.41993
 C546 C 0.90577 0.73484 0.42094
 C547 C 0.92265 0.76940 0.41184
 C548 C 0.93112 0.74288 0.41262
 C549 C 0.93838 0.72735 0.36876
 C550 C 0.95190 0.71658 0.35563
 C551 C 0.88418 0.77253 0.43973
 C552 C 0.87428 0.78120 0.45700
 H553 H 0.87194 0.76471 0.38607
 H554 H 0.91869 0.77898 0.37030
 H555 H 0.88788 0.71595 0.38696
 H556 H 0.90193 0.72205 0.43583
 H557 H 0.93269 0.78506 0.41923
 H558 H 0.94846 0.73644 0.42027
 C559 C 0.91665 0.25782 0.57469
 C560 C 0.90621 0.27346 0.59526
 C561 C 0.92277 0.26035 0.61316
 C562 C 0.93338 0.24486 0.59280
 C563 C 0.89709 0.23883 0.57959
 C564 C 0.91364 0.22568 0.59748
 C565 C 0.88641 0.25430 0.59992
 C566 C 0.90323 0.24136 0.61818
 C567 C 0.93806 0.27286 0.63068
 C568 C 0.95158 0.28364 0.64382
 C569 C 0.88381 0.22746 0.55982
 C570 C 0.87392 0.21872 0.54257
 H571 H 0.92206 0.26449 0.55662
 H572 H 0.90331 0.29324 0.59452
 H573 H 0.95285 0.24110 0.59004
 H574 H 0.91654 0.20590 0.59817
 H575 H 0.86693 0.25803 0.60261
 H576 H 0.89789 0.23474 0.63629
 C577 C 0.40076 0.08765 0.22563
 C578 C 0.40555 0.06714 0.24393
 C579 C 0.38583 0.07755 0.26035
 C580 C 0.38069 0.09787 0.24225
 C581 C 0.41935 0.10334 0.23890
 C582 C 0.39966 0.11382 0.25531
 C583 C 0.42436 0.08300 0.25701
 C584 C 0.40443 0.09325 0.27358
 C585 C 0.36836 0.06220 0.27284
 C586 C 0.35527 0.04863 0.28361
 C587 C 0.43911 0.11666 0.22758
 C588 C 0.45638 0.12658 0.21889
 H589 H 0.39948 0.08552 0.20578
 H590 H 0.40781 0.04779 0.23938
 H591 H 0.36251 0.10379 0.23633
 H592 H 0.39747 0.13318 0.25983
 H593 H 0.44251 0.07701 0.26298
 H594 H 0.40576 0.09539 0.29342
 C595 C 0.57855 0.09300 0.73555
 C596 C 0.60457 0.10166 0.73034
 C597 C 0.61414 0.07744 0.73973
 C598 C 0.58836 0.06863 0.74476
 C599 C 0.58060 0.10315 0.76123
 C600 C 0.59019 0.07893 0.77059
 C601 C 0.60636 0.11208 0.75625
 C602 C 0.61628 0.08756 0.76542
 C603 C 0.63161 0.06212 0.72722
 C604 C 0.64471 0.04857 0.71644
 C605 C 0.56085 0.11646 0.77258
 C606 C 0.54360 0.12637 0.78129
 H607 H 0.56283 0.09536 0.72338
 H608 H 0.61069 0.11085 0.71366
 H609 H 0.58110 0.05061 0.73992
 H610 H 0.58406 0.06973 0.78726
 H611 H 0.61351 0.13012 0.76113
 H612 H 0.63202 0.08515 0.77755
 C613 C 0.40081 0.91298 0.77480
 C614 C 0.40556 0.93317 0.75613
 C615 C 0.38556 0.92267 0.74009
 C616 C 0.38046 0.90268 0.75856
 C617 C 0.41911 0.89695 0.76157
 C618 C 0.39914 0.88637 0.74554
 C619 C 0.42408 0.91696 0.74310
 C620 C 0.40388 0.90663 0.72690
 C621 C 0.36808 0.93798 0.72758
 C622 C 0.35497 0.95151 0.71679
 C623 C 0.43888 0.88365 0.77290
 C624 C 0.45615 0.87375 0.78158
 H625 H 0.39978 0.91543 0.79462
 H626 H 0.40804 0.95257 0.76036
 H627 H 0.36230 0.89699 0.76476
 H628 H 0.39673 0.86696 0.74134
 H629 H 0.44221 0.92271 0.73684
 H630 H 0.40496 0.90417 0.70708
 C631 C 0.57599 0.91745 0.25695
 C632 C 0.59610 0.90713 0.27326
 C633 C 0.61450 0.92316 0.26016
 C634 C 0.59459 0.93364 0.24400
 C635 C 0.58104 0.89741 0.23852
 C636 C 0.59942 0.91343 0.22538
 C637 C 0.60092 0.88685 0.25467
 C638 C 0.61968 0.90314 0.24173
 C639 C 0.63194 0.93847 0.27276
 C640 C 0.64501 0.95200 0.28362
 C641 C 0.56131 0.88409 0.22711
 C642 C 0.54406 0.87418 0.21838
 H643 H 0.55783 0.92321 0.26311
 H644 H 0.59491 0.90470 0.29308
 H645 H 0.59215 0.95303 0.23974
 H646 H 0.60057 0.91585 0.20555
 H647 H 0.60329 0.86745 0.25890
 H648 H 0.63787 0.89744 0.23563
 C649 C 0.42440 0.25774 0.91659
 C650 C 0.40401 0.27362 0.90617
 C651 C 0.38588 0.26047 0.92245
 C652 C 0.40607 0.24473 0.93304
 C653 C 0.41949 0.23898 0.89682
 C654 C 0.40138 0.22578 0.91309
 C655 C 0.39933 0.25470 0.88615
 C656 C 0.38085 0.24172 0.90270
 C657 C 0.36837 0.27298 0.93772
 C658 C 0.35525 0.28377 0.95124
 C659 C 0.43928 0.22763 0.88357
 C660 C 0.45655 0.21892 0.87370
 H661 H 0.44250 0.26422 0.92218
 H662 H 0.40492 0.29343 0.90347
 H663 H 0.40867 0.24075 0.95247
 H664 H 0.40052 0.20598 0.91577
 H665 H 0.39680 0.25865 0.86671
 H666 H 0.36271 0.23529 0.89717
 C667 C 0.60067 0.74530 0.88605
 C668 C 0.61920 0.75829 0.90256
 C669 C 0.61419 0.73956 0.92233
 C670 C 0.59601 0.72640 0.90608
 C671 C 0.58055 0.76105 0.89674
 C672 C 0.57566 0.74232 0.91653
 C673 C 0.59871 0.77425 0.91298
 C674 C 0.59404 0.75532 0.93294
 C675 C 0.63172 0.72704 0.93759
 C676 C 0.64485 0.71624 0.95109
 C677 C 0.56073 0.77241 0.88352
 C678 C 0.54344 0.78112 0.87369
 H679 H 0.60316 0.74134 0.86660
 H680 H 0.63733 0.76470 0.89701
 H681 H 0.59509 0.70660 0.90339
 H682 H 0.55756 0.73585 0.92215
 H683 H 0.59959 0.79405 0.91566
 H684 H 0.59148 0.75932 0.95238
 C685 C 0.39986 0.74520 0.11385
 C686 C 0.38111 0.75811 0.09755
 C687 C 0.38617 0.73958 0.07761
 C688 C 0.40457 0.72649 0.09364
 C689 C 0.41976 0.76123 0.10316
 C690 C 0.42471 0.74269 0.08320
 C691 C 0.40138 0.77436 0.08713
 C692 C 0.40610 0.75563 0.06700
 C693 C 0.36866 0.72698 0.06238
 C694 C 0.35552 0.71613 0.04891
 C695 C 0.43956 0.77267 0.11637
 C696 C 0.45683 0.78144 0.12619
 H697 H 0.39753 0.74106 0.13328
 H698 H 0.36295 0.76430 0.10327
 H699 H 0.40571 0.70668 0.09617
 H700 H 0.44283 0.73646 0.07741
 H701 H 0.40030 0.79417 0.08462
 H702 H 0.40851 0.75979 0.04758
 C703 C 0.60753 0.23246 0.10419
 C704 C 0.60833 0.23339 0.07625
 C705 C 0.61426 0.26041 0.07762
 C706 C 0.61379 0.25973 0.10530
 C707 C 0.58062 0.23900 0.10329
 C708 C 0.58656 0.26601 0.10464
 C709 C 0.58116 0.23973 0.07562
 C710 C 0.58732 0.26686 0.07680
 C711 C 0.63177 0.27291 0.06233
 C712 C 0.64488 0.28370 0.04880
 C713 C 0.56082 0.22767 0.11655
 C714 C 0.54354 0.21898 0.12643
 H715 H 0.61559 0.21816 0.11563
 H716 H 0.61749 0.22012 0.06441
 H717 H 0.62744 0.26809 0.11732
 H718 H 0.57739 0.27930 0.11646
 H719 H 0.56753 0.23141 0.06354
 H720 H 0.57916 0.28113 0.06539
 C721 C 0.25652 0.08289 0.57596
 C722 C 0.27272 0.09316 0.59619
 C723 C 0.25952 0.07705 0.61443
 C724 C 0.24347 0.06661 0.59441
 C725 C 0.23803 0.10288 0.58099
 C726 C 0.22479 0.08678 0.59921
 C727 C 0.25406 0.11339 0.60099
 C728 C 0.24103 0.09702 0.61959
 C729 C 0.27204 0.06168 0.63186
 C730 C 0.28284 0.04812 0.64491
 C731 C 0.22670 0.11624 0.56127
 C732 C 0.21802 0.12618 0.54403
 H733 H 0.26279 0.07720 0.55783
 H734 H 0.29256 0.09563 0.59513
 H735 H 0.23924 0.04722 0.59186
 H736 H 0.20494 0.08433 0.60023
 H737 H 0.25826 0.13280 0.60346
 H738 H 0.23482 0.10264 0.63775
 C739 C 0.74487 0.11295 0.39914
 C740 C 0.75784 0.09688 0.38023
 C741 C 0.73970 0.07662 0.38551
 C742 C 0.72656 0.09242 0.40406
 C743 C 0.76134 0.10253 0.41882
 C744 C 0.74319 0.08225 0.42397
 C745 C 0.77452 0.08674 0.40028
 C746 C 0.75618 0.06628 0.40522
 C747 C 0.72710 0.06121 0.36816
 C748 C 0.71624 0.04760 0.35517
 C749 C 0.77276 0.11593 0.43848
 C750 C 0.78150 0.12591 0.45568
 H751 H 0.74037 0.13231 0.39687
 H752 H 0.76370 0.10272 0.36202
 H753 H 0.70670 0.09460 0.40544
 H754 H 0.73727 0.07635 0.44215
 H755 H 0.79438 0.08457 0.39895
 H756 H 0.76071 0.04693 0.40756
 C757 C 0.74526 0.88650 0.60065
 C758 C 0.75827 0.90249 0.61960
 C759 C 0.74017 0.92280 0.61439
 C760 C 0.72699 0.90706 0.59579
 C761 C 0.76174 0.89696 0.58100
 C762 C 0.74362 0.91728 0.57591
 C763 C 0.77496 0.91268 0.59958
 C764 C 0.75665 0.93318 0.59471
 C765 C 0.72761 0.93817 0.63178
 C766 C 0.71679 0.95175 0.64480
 C767 C 0.77311 0.88361 0.56129
 C768 C 0.78183 0.87368 0.54407
 H769 H 0.74073 0.86714 0.60286
 H770 H 0.76414 0.89660 0.63780
 H771 H 0.70713 0.90491 0.59441
 H772 H 0.73770 0.92324 0.55775
 H773 H 0.79482 0.91482 0.60091
 H774 H 0.76122 0.95253 0.59243
 C775 C 0.25497 0.88640 0.39938
 C776 C 0.24191 0.90240 0.38049
 C777 C 0.26003 0.92271 0.38569
 C778 C 0.27326 0.90696 0.40423
 C779 C 0.23855 0.89682 0.41910
 C780 C 0.25668 0.91714 0.42417
 C781 C 0.22527 0.91255 0.40058
 C782 C 0.24359 0.93305 0.40544
 C783 C 0.27254 0.93811 0.36829
 C784 C 0.28333 0.95171 0.35526
 C785 C 0.22722 0.88343 0.43880
 C786 C 0.21853 0.87347 0.45602
 H787 H 0.25950 0.86704 0.39713
 H788 H 0.23599 0.89653 0.36230
 H789 H 0.29312 0.90482 0.40556
 H790 H 0.26265 0.92308 0.44233
 H791 H 0.20541 0.91468 0.39930
 H792 H 0.23904 0.95240 0.40776
 C793 C 0.08742 0.40041 0.77447
 C794 C 0.06674 0.40526 0.75636
 C795 C 0.07715 0.38579 0.73965
 C796 C 0.09764 0.38059 0.75756
 C797 C 0.10291 0.41921 0.76131
 C798 C 0.11340 0.39977 0.74461
 C799 C 0.08241 0.42428 0.74338
 C800 C 0.09266 0.40461 0.72653
 C801 C 0.06182 0.36838 0.72705
 C802 C 0.04827 0.35533 0.71618
 C803 C 0.11623 0.43892 0.77274
 C804 C 0.12613 0.45615 0.78150
 H805 H 0.08543 0.39890 0.79432
 H806 H 0.04739 0.40735 0.76106
 H807 H 0.10372 0.36240 0.76323
 H808 H 0.13276 0.39774 0.73993
 H809 H 0.07626 0.44244 0.73766
 H810 H 0.09466 0.40617 0.70669
 C811 C 0.07877 0.59009 0.22944
 C812 C 0.06868 0.58839 0.25536
 C813 C 0.07742 0.61423 0.26016
 C814 C 0.08733 0.61623 0.23438
 C815 C 0.10313 0.58068 0.23869
 C816 C 0.11198 0.60649 0.24344
 C817 C 0.09319 0.57876 0.26446
 C818 C 0.10178 0.60483 0.26943
 C819 C 0.06209 0.63168 0.27268
 C820 C 0.04854 0.64476 0.28349
 C821 C 0.11644 0.56092 0.22735
 C822 C 0.12634 0.54367 0.21866
 H823 H 0.06946 0.58381 0.21288
 H824 H 0.05072 0.58109 0.26038
 H825 H 0.08474 0.63186 0.22217
 H826 H 0.12997 0.61369 0.23838
 H827 H 0.09572 0.56315 0.27671
 H828 H 0.11107 0.61111 0.28601
 C829 C 0.88756 0.40345 0.25949
 C830 C 0.89859 0.38103 0.24689
 C831 C 0.92246 0.38573 0.26016
 C832 C 0.91166 0.40780 0.27293
 C833 C 0.89673 0.41927 0.23870
 C834 C 0.92060 0.42385 0.25200
 C835 C 0.90750 0.39723 0.22587
 C836 C 0.93158 0.40158 0.23937
 C837 C 0.93778 0.36826 0.27267
 C838 C 0.95133 0.35518 0.28347
 C839 C 0.88344 0.43904 0.22737
 C840 C 0.87356 0.45629 0.21867
 H841 H 0.86930 0.40444 0.26762
 H842 H 0.88973 0.36319 0.24494
 H843 H 0.91352 0.41198 0.29240
 H844 H 0.92953 0.44165 0.25400
 H845 H 0.90562 0.39312 0.20638
 H846 H 0.94984 0.40064 0.23122
 C847 C 0.88614 0.60072 0.74515
 C848 C 0.90250 0.61937 0.75816
 C849 C 0.92249 0.61425 0.73969
 C850 C 0.90640 0.59596 0.72651
 C851 C 0.89670 0.58076 0.76117
 C852 C 0.91671 0.57577 0.74269
 C853 C 0.91278 0.59903 0.77440
 C854 C 0.93297 0.59426 0.75573
 C855 C 0.93785 0.63168 0.72717
 C856 C 0.95143 0.64473 0.71636
 C857 C 0.88338 0.56102 0.77251
 C858 C 0.87347 0.54376 0.78120
 H859 H 0.86672 0.60315 0.74095
 H860 H 0.89684 0.63753 0.76437
 H861 H 0.90393 0.59487 0.70668
 H862 H 0.92244 0.55764 0.73643
 H863 H 0.91524 0.60007 0.79422
 H864 H 0.95238 0.59176 0.75996
 C865 C 0.74239 0.57567 0.91705
 C866 C 0.75535 0.59377 0.93380
 C867 C 0.73968 0.61410 0.92340
 C868 C 0.72657 0.59620 0.90681
 C869 C 0.76127 0.58079 0.89743
 C870 C 0.74561 0.60109 0.88696
 C871 C 0.77442 0.59867 0.91401
 C872 C 0.75855 0.61933 0.90381
 C873 C 0.72710 0.63148 0.93880
 C874 C 0.71624 0.64455 0.95236
 C875 C 0.77265 0.56113 0.88398
 C876 C 0.78135 0.54392 0.87396
 H877 H 0.73584 0.55753 0.92238
 H878 H 0.75924 0.59092 0.95322
 H879 H 0.70676 0.59535 0.90400
 H880 H 0.74175 0.60388 0.86753
 H881 H 0.79422 0.59947 0.91682
 H882 H 0.76504 0.63751 0.89854
 C883 C 0.25450 0.39897 0.88720
 C884 C 0.27325 0.40390 0.90732
 C885 C 0.26016 0.38572 0.92360
 C886 C 0.24157 0.38043 0.90374
 C887 C 0.23849 0.41900 0.89766
 C888 C 0.22536 0.40083 0.91393
 C889 C 0.25708 0.42416 0.91755
 C890 C 0.24414 0.40578 0.93399
 C891 C 0.27280 0.36836 0.93899
 C892 C 0.28370 0.35533 0.95253
 C893 C 0.22706 0.43865 0.88423
 C894 C 0.21834 0.45586 0.87424
 H895 H 0.25861 0.39638 0.86779
 H896 H 0.29308 0.40500 0.90475
 H897 H 0.23535 0.36223 0.89824
 H898 H 0.20553 0.39978 0.91649
 H899 H 0.26336 0.44233 0.92311
 H900 H 0.24000 0.40843 0.95338
 C901 C 0.25791 0.57563 0.08328
 C902 C 0.24500 0.59360 0.06635
 C903 C 0.26053 0.61404 0.07678
 C904 C 0.27358 0.59628 0.09354
 C905 C 0.23887 0.58076 0.10273
 C906 C 0.25438 0.60117 0.11324
 C907 C 0.22578 0.59850 0.08598
 C908 C 0.24149 0.61928 0.09622
 C909 C 0.27314 0.63141 0.06138
 C910 C 0.28401 0.64445 0.04782
 C911 C 0.22745 0.56110 0.11617
 C912 C 0.21873 0.54389 0.12616
 H913 H 0.26457 0.55750 0.07806
 H914 H 0.24127 0.59064 0.04692
 H915 H 0.29337 0.59553 0.09650
 H916 H 0.25809 0.60406 0.13269
 H917 H 0.20599 0.59920 0.08304
 H918 H 0.23489 0.63745 0.10136
 C919 C 0.74245 0.42423 0.08285
 C920 C 0.75543 0.40613 0.06613
 C921 C 0.73976 0.38580 0.07653
 C922 C 0.72664 0.40370 0.09309
 C923 C 0.76132 0.41915 0.10249
 C924 C 0.74567 0.39885 0.11297
 C925 C 0.77449 0.40127 0.08594
 C926 C 0.75863 0.38060 0.09615
 C927 C 0.72719 0.36840 0.06113
 C928 C 0.71633 0.35534 0.04757
 C929 C 0.77269 0.43884 0.11593
 C930 C 0.78137 0.45606 0.12594
 H931 H 0.73590 0.44236 0.07749
 H932 H 0.75933 0.40897 0.04671
 H933 H 0.70683 0.40452 0.09588
 H934 H 0.74180 0.39607 0.13240
 H935 H 0.79430 0.40049 0.08316
 H936 H 0.76513 0.36244 0.10144
 C937 C 0.91785 0.74272 0.57589
 C938 C 0.93423 0.75566 0.59434
 C939 C 0.92388 0.73953 0.61433
 C940 C 0.90767 0.72644 0.59607
 C941 C 0.89787 0.76118 0.58109
 C942 C 0.88744 0.74506 0.60104
 C943 C 0.91407 0.77431 0.59932
 C944 C 0.90392 0.75798 0.61965
 C945 C 0.93931 0.72690 0.63167
 C946 C 0.95287 0.71601 0.64469
 C947 C 0.88439 0.77259 0.56145
 C948 C 0.87436 0.78130 0.54426
 H949 H 0.92347 0.73654 0.55770
 H950 H 0.95363 0.75990 0.59174
 H951 H 0.90519 0.70662 0.59490
 H952 H 0.86804 0.74084 0.60358
 H953 H 0.91654 0.79413 0.60045
 H954 H 0.89836 0.76410 0.63786
 C955 C 0.91353 0.22539 0.40012
 C956 C 0.90343 0.24193 0.37994
 C957 C 0.92357 0.26019 0.38530
 C958 C 0.93387 0.24385 0.40514
 C959 C 0.89751 0.23853 0.41850
 C960 C 0.91768 0.25680 0.42374
 C961 C 0.88714 0.25486 0.39869
 C962 C 0.90754 0.27329 0.40370
 C963 C 0.93902 0.27283 0.36799
 C964 C 0.95260 0.28374 0.35500
 C965 C 0.88402 0.22711 0.43812
 C966 C 0.87399 0.21841 0.45531
 H967 H 0.91583 0.20555 0.39885
 H968 H 0.89775 0.23597 0.36170
 H969 H 0.95324 0.23944 0.40765
 H970 H 0.92343 0.26282 0.44194
 H971 H 0.86776 0.25924 0.39625
 H972 H 0.90523 0.29312 0.40502
 C973 C 0.08587 0.22570 0.59916
 C974 C 0.09601 0.24204 0.61949
 C975 C 0.07605 0.26050 0.61415
 C976 C 0.06571 0.24435 0.59415
 C977 C 0.10208 0.23882 0.58094
 C978 C 0.08210 0.25728 0.57571
 C979 C 0.11250 0.25496 0.60091
 C980 C 0.09227 0.27358 0.59590
 C981 C 0.06061 0.27313 0.63147
 C982 C 0.04703 0.28402 0.64447
 C983 C 0.11557 0.22739 0.56132
 C984 C 0.12560 0.21867 0.54414
 H985 H 0.08340 0.20588 0.60029
 H986 H 0.10155 0.23593 0.63772
 H987 H 0.04632 0.24011 0.59153
 H988 H 0.07649 0.26345 0.55752
 H989 H 0.13190 0.25917 0.60347
 H990 H 0.09476 0.29339 0.59473
 C991 C 0.11284 0.74457 0.39906
 C992 C 0.09228 0.72630 0.40400
 C993 C 0.07643 0.73948 0.38551
 C994 C 0.09673 0.75759 0.38022
 C995 C 0.10250 0.76101 0.41880
 C996 C 0.08666 0.77424 0.40033
 C997 C 0.08219 0.74289 0.42397
 C998 C 0.06617 0.75593 0.40528
 C999 C 0.06097 0.72693 0.36815
 C1000 C 0.04737 0.71607 0.35512
 C1001 C 0.11600 0.77235 0.43847
 C1002 C 0.12604 0.78101 0.45569
 H1003 H 0.13220 0.74004 0.39672
 H1004 H 0.09444 0.70645 0.40534
 H1005 H 0.10253 0.76348 0.36201
 H1006 H 0.08452 0.79408 0.39904
 H1007 H 0.07632 0.73695 0.44215
 H1008 H 0.04682 0.76048 0.40768
 C1009 C 0.57536 0.91727 0.74312
 C1010 C 0.59370 0.93370 0.75616
 C1011 C 0.61386 0.92332 0.74023
 C1012 C 0.59571 0.90705 0.72705
 C1013 C 0.58044 0.89737 0.76170
 C1014 C 0.60056 0.88692 0.74579
 C1015 C 0.59855 0.91364 0.77493
 C1016 C 0.61905 0.90345 0.75881
 C1017 C 0.63131 0.93870 0.72771
 C1018 C 0.64443 0.95222 0.71688
 C1019 C 0.56072 0.88392 0.77302
 C1020 C 0.54349 0.87389 0.78167
 H1021 H 0.55721 0.92284 0.73676
 H1022 H 0.59104 0.95310 0.76030
 H1023 H 0.59471 0.90450 0.70723
 H1024 H 0.60315 0.86752 0.74167
 H1025 H 0.59951 0.91618 0.79475
 H1026 H 0.63723 0.89795 0.76511
 C1027 C 0.39994 0.91170 0.22506
 C1028 C 0.38113 0.90185 0.24330
 C1029 C 0.38633 0.92348 0.25981
 C1030 C 0.40479 0.93353 0.24178
 C1031 C 0.41976 0.89760 0.23830
 C1032 C 0.42484 0.91924 0.25483
 C1033 C 0.40133 0.88749 0.25633
 C1034 C 0.40617 0.90936 0.27300
 C1035 C 0.36885 0.93881 0.27236
 C1036 C 0.35571 0.95230 0.28320
 C1037 C 0.43949 0.88419 0.22695
 C1038 C 0.45672 0.87420 0.21828
 H1039 H 0.39760 0.91250 0.20520
 H1040 H 0.36293 0.89488 0.23870
 H1041 H 0.40606 0.95261 0.23592
 H1042 H 0.44300 0.92628 0.25948
 H1043 H 0.40012 0.86840 0.26217
 H1044 H 0.40857 0.90855 0.29285
 C1045 C 0.59902 0.08719 0.22562
 C1046 C 0.61929 0.09736 0.24205
 C1047 C 0.61408 0.07723 0.26035
 C1048 C 0.59416 0.06687 0.24412
 C1049 C 0.58066 0.10315 0.23885
 C1050 C 0.57557 0.08301 0.25716
 C1051 C 0.60056 0.11359 0.25507
 C1052 C 0.59570 0.09321 0.27354
 C1053 C 0.63154 0.06186 0.27288
 C1054 C 0.64466 0.04833 0.28369
 C1055 C 0.56095 0.11658 0.22750
 C1056 C 0.54371 0.12657 0.21882
 H1057 H 0.60018 0.08487 0.20578
 H1058 H 0.63749 0.10308 0.23598
 H1059 H 0.59168 0.04750 0.23973
 H1060 H 0.55741 0.07722 0.26327
 H1061 H 0.60297 0.13297 0.25943
 H1062 H 0.59450 0.09553 0.29337
 C1063 C 0.42426 0.08295 0.74300
 C1064 C 0.40604 0.06644 0.75608
 C1065 C 0.38577 0.07681 0.74030
 C1066 C 0.40380 0.09316 0.72707
 C1067 C 0.41925 0.10278 0.76167
 C1068 C 0.39901 0.11323 0.74590
 C1069 C 0.40125 0.08644 0.77494
 C1070 C 0.38064 0.09662 0.75897
 C1071 C 0.36830 0.06141 0.72782
 C1072 C 0.35517 0.04786 0.71702
 C1073 C 0.43900 0.11624 0.77293
 C1074 C 0.45626 0.12626 0.78154
 H1075 H 0.44239 0.07745 0.73653
 H1076 H 0.40877 0.04704 0.76015
 H1077 H 0.40467 0.09577 0.70725
 H1078 H 0.39635 0.13264 0.74186
 H1079 H 0.40042 0.08384 0.79476
 H1080 H 0.36248 0.10206 0.76538
 C1081 C 0.58711 0.76821 0.07614
 C1082 C 0.61432 0.76717 0.08247
 C1083 C 0.61434 0.74015 0.07638
 C1084 C 0.58742 0.74107 0.06986
 C1085 C 0.58103 0.76172 0.10236
 C1086 C 0.58111 0.73472 0.09623
 C1087 C 0.60793 0.76088 0.10899
 C1088 C 0.60829 0.73363 0.10260
 C1089 C 0.63172 0.72756 0.06096
 C1090 C 0.64477 0.71668 0.04742
 C1091 C 0.56137 0.77310 0.11585
 C1092 C 0.54417 0.78177 0.12589
 H1093 H 0.57821 0.78254 0.06539
 H1094 H 0.62818 0.78037 0.07664
 H1095 H 0.57912 0.73280 0.05362
 H1096 H 0.56726 0.72148 0.10202
 H1097 H 0.61612 0.76918 0.12525
 H1098 H 0.61720 0.71928 0.11332
 C1099 C 0.42447 0.25681 0.08236
 C1100 C 0.40581 0.24374 0.06630
 C1101 C 0.38597 0.26012 0.07656
 C1102 C 0.40443 0.27333 0.09245
 C1103 C 0.41931 0.23865 0.10262
 C1104 C 0.39950 0.25502 0.11295
 C1105 C 0.40087 0.22539 0.08674
 C1106 C 0.38069 0.24197 0.09680
 C1107 C 0.36857 0.27265 0.06113
 C1108 C 0.35548 0.28347 0.04758
 C1109 C 0.43899 0.22733 0.11613
 C1110 C 0.45621 0.21870 0.12619
 H1111 H 0.44266 0.26281 0.07653
 H1112 H 0.40825 0.23922 0.04696
 H1113 H 0.40573 0.29318 0.09465
 H1114 H 0.39712 0.25951 0.13230
 H1115 H 0.39962 0.20554 0.08455
 H1116 H 0.36247 0.23602 0.10257
 C1117 C 0.60050 0.25514 0.88709
 C1118 C 0.59559 0.27326 0.90777
 C1119 C 0.61421 0.26002 0.92344
 C1120 C 0.61946 0.24206 0.90302
 C1121 C 0.58083 0.23858 0.89740
 C1122 C 0.59942 0.22530 0.91306
 C1123 C 0.57570 0.25654 0.91784
 C1124 C 0.59451 0.24345 0.93368
 C1125 C 0.63163 0.27255 0.93887
 C1126 C 0.64471 0.28337 0.95243
 C1127 C 0.56113 0.22727 0.88391
 C1128 C 0.54389 0.21864 0.87387
 H1129 H 0.60274 0.25979 0.86777
 H1130 H 0.59419 0.29311 0.90575
 H1131 H 0.63768 0.23626 0.89711
 H1132 H 0.60078 0.20544 0.91507
 H1133 H 0.55751 0.26240 0.92382
 H1134 H 0.59220 0.23877 0.95299
 C1135 C 0.39899 0.74549 0.88713
 C1136 C 0.40393 0.72661 0.90710
 C1137 C 0.38596 0.73973 0.92359
 C1138 C 0.38067 0.75845 0.90388
 C1139 C 0.41924 0.76128 0.89754
 C1140 C 0.40130 0.77445 0.91402
 C1141 C 0.42441 0.74256 0.91727
 C1142 C 0.40624 0.75553 0.93393
 C1143 C 0.36858 0.72717 0.93903
 C1144 C 0.35553 0.71633 0.95259
 C1145 C 0.43890 0.77264 0.88404
 C1146 C 0.45610 0.78132 0.87398
 H1147 H 0.39623 0.74151 0.86772
 H1148 H 0.40484 0.70680 0.90441
 H1149 H 0.36247 0.76484 0.89855
 H1150 H 0.40043 0.79425 0.91670
 H1151 H 0.44258 0.73612 0.92267
 H1152 H 0.40907 0.75954 0.95333
 C1153 C 0.74322 0.91697 0.42498
 C1154 C 0.75624 0.93365 0.40686
 C1155 C 0.74053 0.92325 0.38654
 C1156 C 0.72736 0.90674 0.40446
 C1157 C 0.76203 0.89728 0.41990
 C1158 C 0.74634 0.88681 0.39962
 C1159 C 0.77524 0.91378 0.40201
 C1160 C 0.75933 0.90358 0.38135
 C1161 C 0.72799 0.93864 0.36912
 C1162 C 0.71716 0.95218 0.35602
 C1163 C 0.77337 0.88382 0.43959
 C1164 C 0.78203 0.87380 0.45681
 H1165 H 0.73669 0.92237 0.44310
 H1166 H 0.76019 0.95306 0.40968
 H1167 H 0.70755 0.90400 0.40530
 H1168 H 0.74241 0.86739 0.39686
 H1169 H 0.79505 0.91651 0.40121
 H1170 H 0.76581 0.89825 0.36319
 C1171 C 0.22713 0.90262 0.60503
 C1172 C 0.25167 0.89647 0.61708
 C1173 C 0.25953 0.92283 0.61383
 C1174 C 0.23524 0.92921 0.60212
 C1175 C 0.23821 0.89690 0.58030
 C1176 C 0.24611 0.92326 0.57716
 C1177 C 0.26250 0.89050 0.59199
 C1178 C 0.27052 0.91706 0.58907
 C1179 C 0.27199 0.93821 0.63133
 C1180 C 0.28278 0.95174 0.64448
 C1181 C 0.22695 0.88347 0.56054
 C1182 C 0.21833 0.87347 0.54328
 H1183 H 0.20915 0.89651 0.61135
 H1184 H 0.25409 0.88564 0.63372
 H1185 H 0.22415 0.94529 0.60647
 H1186 H 0.24373 0.93416 0.56055
 H1187 H 0.27358 0.87443 0.58762
 H1188 H 0.28849 0.92314 0.58266
 C1189 C 0.25662 0.08285 0.42489
 C1190 C 0.24361 0.06645 0.40650
 C1191 C 0.25958 0.07688 0.38642
 C1192 C 0.27273 0.09312 0.40461
 C1193 C 0.23802 0.10274 0.41984
 C1194 C 0.25398 0.11325 0.39978
 C1195 C 0.22483 0.08652 0.40167
 C1196 C 0.24099 0.09676 0.38125
 C1197 C 0.27214 0.06155 0.36896
 C1198 C 0.28300 0.04807 0.35583
 C1199 C 0.22666 0.11615 0.43954
 C1200 C 0.21797 0.12614 0.45677
 H1201 H 0.26295 0.07724 0.44302
 H1202 H 0.23947 0.04705 0.40911
 H1203 H 0.29256 0.09568 0.40565
 H1204 H 0.25809 0.13266 0.39724
 H1205 H 0.20499 0.08396 0.40068
 H1206 H 0.23471 0.10230 0.36308
 C1207 C 0.77504 0.08759 0.59898
 C1208 C 0.75783 0.09769 0.61860
 C1209 C 0.74027 0.07687 0.61346
 C1210 C 0.75729 0.06657 0.59419
 C1211 C 0.76174 0.10268 0.57995
 C1212 C 0.74418 0.08185 0.57494
 C1213 C 0.74473 0.11305 0.59920
 C1214 C 0.72701 0.09198 0.59441
 C1215 C 0.72775 0.06156 0.63097
 C1216 C 0.71693 0.04809 0.64414
 C1217 C 0.77306 0.11606 0.56020
 C1218 C 0.78171 0.12602 0.54294
 H1219 H 0.79493 0.08595 0.60064
 H1220 H 0.76329 0.10403 0.63677
 H1221 H 0.76234 0.04730 0.59228
 H1222 H 0.73866 0.07545 0.55680
 H1223 H 0.73971 0.13233 0.60104
 H1224 H 0.70713 0.09364 0.59270
 C1225 C 0.88674 0.60063 0.25428
 C1226 C 0.90684 0.59580 0.27309
 C1227 C 0.92317 0.61389 0.25993
 C1228 C 0.90334 0.61907 0.24129
 C1229 C 0.89721 0.58049 0.23843
 C1230 C 0.91354 0.59855 0.22523
 C1231 C 0.91707 0.57543 0.25707
 C1232 C 0.93358 0.59371 0.24406
 C1233 C 0.93857 0.63132 0.27247
 C1234 C 0.95211 0.64442 0.28331
 C1235 C 0.88376 0.56079 0.22709
 C1236 C 0.87374 0.54356 0.21843
 H1237 H 0.86731 0.60326 0.25834
 H1238 H 0.90423 0.59484 0.29290
 H1239 H 0.89787 0.63723 0.23495
 H1240 H 0.91614 0.59947 0.20542
 H1241 H 0.92261 0.55730 0.26347
 H1242 H 0.95299 0.59102 0.23998
 C1243 C 0.89066 0.40819 0.73681
 C1244 C 0.91726 0.41115 0.72891
 C1245 C 0.92295 0.38627 0.73965
 C1246 C 0.89654 0.38299 0.74739
 C1247 C 0.89701 0.41962 0.76122
 C1248 C 0.90266 0.39477 0.77205
 C1249 C 0.92342 0.42280 0.75344
 C1250 C 0.92930 0.39772 0.76406
 C1251 C 0.93833 0.36886 0.72707
 C1252 C 0.95185 0.35577 0.71622
 C1253 C 0.88358 0.43929 0.77262
 C1254 C 0.87358 0.45650 0.78133
 H1255 H 0.87461 0.41271 0.72573
 H1256 H 0.92341 0.41775 0.71105
 H1257 H 0.88567 0.36639 0.74476
 H1258 H 0.89648 0.38826 0.78993
 H1259 H 0.93436 0.43937 0.75603
 H1260 H 0.94535 0.39323 0.77515
 C1261 C 0.08601 0.59819 0.77483
 C1262 C 0.09629 0.61887 0.75902
 C1263 C 0.07671 0.61366 0.74010
 C1264 C 0.06624 0.59332 0.75571
 C1265 C 0.10261 0.58031 0.76172
 C1266 C 0.08302 0.57523 0.74279
 C1267 C 0.11316 0.60062 0.74612
 C1268 C 0.09333 0.59577 0.72704
 C1269 C 0.06136 0.63108 0.72751
 C1270 C 0.04786 0.64419 0.71663
 C1271 C 0.11604 0.56063 0.77311
 C1272 C 0.12603 0.54341 0.78180
 H1273 H 0.08316 0.59897 0.79461
 H1274 H 0.10156 0.63703 0.76555
 H1275 H 0.04680 0.59048 0.75954
 H1276 H 0.07768 0.55710 0.73622
 H1277 H 0.13262 0.60341 0.74233
 H1278 H 0.09619 0.59495 0.70725
 C1279 C 0.11284 0.40072 0.25605
 C1280 C 0.09131 0.40563 0.27316
 C1281 C 0.07669 0.38616 0.25995
 C1282 C 0.09797 0.38090 0.24301
 C1283 C 0.10267 0.41951 0.23843
 C1284 C 0.08806 0.40006 0.22518
 C1285 C 0.08137 0.42464 0.25539
 C1286 C 0.06658 0.40497 0.24233
 C1287 C 0.06129 0.36873 0.27250
 C1288 C 0.04776 0.35562 0.28333
 C1289 C 0.11614 0.43919 0.22708
 C1290 C 0.12617 0.45641 0.21842
 H1291 H 0.13203 0.39919 0.26155
 H1292 H 0.09250 0.40776 0.29301
 H1293 H 0.10461 0.36269 0.23807
 H1294 H 0.08688 0.39798 0.20532
 H1295 H 0.07466 0.44282 0.26038
 H1296 H 0.04740 0.40656 0.23681
   
