data_POSCAR
  _audit_creation_date              2014-09-24
  _audit_creation_method            'ToBaCCo'
  _symmetry_space_group_name_H-M    'P1'
  _symmetry_Int_Tables_number       1
  _symmetry_cell_setting            triclinic
  loop_
  _symmetry_equiv_pos_as_xyz
 x,y,z
_cell_length_a 38.0281
_cell_length_b 37.8199
_cell_length_c 38.7890
_cell_angle_alpha 89.217200
_cell_angle_beta 87.969200
_cell_angle_gamma 88.441200
loop_
  _atom_site_label
  _atom_site_type_symbol
  _atom_site_fract_x
  _atom_site_fract_y
  _atom_site_fract_z
C1 C 0.81312 0.64161 1.01408
 C2 C 0.81813 0.62172 0.97969
 C3 C 0.78780 0.61064 0.96635
 C4 C 0.75530 0.61700 0.99026
 C5 C 0.78408 0.66996 1.00732
 C6 C 0.75417 0.65718 0.99443
 C7 C 0.79560 0.61403 1.03764
 C8 C 0.76503 0.60193 1.02594
 H9 H 0.84284 0.61694 0.96588
 H10 H 0.73083 0.60617 0.98029
 H11 H 0.78710 0.69773 1.01265
 H12 H 0.80464 0.60738 1.06317
 C13 C 0.79355 0.36323 0.46114
 C14 C 0.79927 0.38510 0.49321
 C15 C 0.77081 0.40482 0.50413
 C16 C 0.73874 0.40178 0.48163
 C17 C 0.76050 0.34166 0.47099
 C18 C 0.73197 0.36197 0.48159
 C19 C 0.77986 0.38937 0.43388
 C20 C 0.75199 0.41014 0.44459
 H21 H 0.82308 0.38289 0.50773
 H22 H 0.71564 0.41832 0.49044
 H23 H 0.75910 0.31322 0.47049
 H24 H 0.78974 0.38937 0.40732
 C25 C 0.30137 -0.12875 -0.01353
 C26 C 0.30206 -0.09956 0.01022
 C27 C 0.26873 -0.08235 0.01662
 C28 C 0.24036 -0.09722 -0.00252
 C29 C 0.27393 -0.15222 -0.00009
 C30 C 0.24012 -0.13508 0.00640
 C31 C 0.28602 -0.11365 -0.04470
 C32 C 0.25252 -0.09624 -0.03889
 H33 H 0.32516 -0.09316 0.02431
 H34 H 0.21497 -0.08289 0.00297
 H35 H 0.27745 -0.18074 0.00098
 H36 H 0.29677 -0.11762 -0.07059
 C37 C 0.29870 0.14016 0.51168
 C38 C 0.30316 0.11146 0.48441
 C39 C 0.27468 0.09101 0.48126
 C40 C 0.24335 0.10156 0.50541
 C41 C 0.26529 0.16118 0.50015
 C42 C 0.23626 0.14087 0.49689
 C43 C 0.28647 0.12139 0.54492
 C44 C 0.25760 0.10175 0.54209
 H45 H 0.32564 0.11007 0.46645
 H46 H 0.22051 0.08431 0.50254
 H47 H 0.26453 0.18875 0.49274
 H48 H 0.29734 0.12677 0.56972
 C49 C 0.16210 0.49658 0.31267
 C50 C 0.13390 0.46828 0.31755
 C51 C 0.11289 0.46521 0.29024
 C52 C 0.12118 0.49103 0.26032
 C53 C 0.18146 0.48577 0.27863
 C54 C 0.16037 0.48384 0.25082
 C55 C 0.14052 0.53025 0.30408
 C56 C 0.11983 0.52771 0.27657
 H57 H 0.13220 0.44930 0.33847
 H58 H 0.10323 0.48927 0.23855
 H59 H 0.20900 0.47768 0.27765
 H60 H 0.14292 0.55489 0.31763
 C61 C -0.15754 -0.02301 0.28064
 C62 C -0.13197 0.00505 0.29160
 C63 C -0.10855 0.01492 0.26631
 C64 C -0.11184 -0.00531 0.23209
 C65 C -0.17412 -0.00813 0.24786
 C66 C -0.15050 0.00112 0.22224
 C67 C -0.13397 -0.05171 0.26899
 C68 C -0.10904 -0.04272 0.24198
 H69 H -0.13153 0.01549 0.31744
 H70 H -0.09377 0.00251 0.21058
 H71 H -0.20233 -0.00623 0.24489
 H72 H -0.13077 -0.07622 0.28343
 C73 C 0.36840 0.48413 0.81364
 C74 C 0.39326 0.51336 0.82367
 C75 C 0.41427 0.52526 0.79727
 C76 C 0.40912 0.50665 0.76259
 C77 C 0.34866 0.50021 0.78300
 C78 C 0.36958 0.51167 0.75603
 C79 C 0.39380 0.45585 0.79813
 C80 C 0.41415 0.46689 0.77068
 H81 H 0.39516 0.52415 0.84912
 H82 H 0.42635 0.51567 0.74080
 H83 H 0.32018 0.50153 0.78257
 H84 H 0.39391 0.42851 0.80685
 C85 C 0.65734 1.01590 0.77612
 C86 C 0.63049 0.98937 0.79003
 C87 C 0.60551 0.98126 0.76758
 C88 C 0.60778 1.00337 0.73331
 C89 C 0.67079 1.00096 0.74101
 C90 C 0.64487 0.99410 0.71824
 C91 C 0.63541 1.04657 0.76749
 C92 C 0.60988 1.04058 0.74255
 H93 H 0.63310 0.97514 0.81426
 H94 H 0.58597 0.99952 0.71571
 H95 H 0.69844 0.99531 0.73539
 H96 H 0.63692 1.07234 0.77894
 C97 C -0.03074 0.30810 -0.15165
 C98 C -0.00274 0.31717 -0.12541
 C99 C 0.00826 0.28907 -0.10593
 C100 C -0.00968 0.25442 -0.11359
 C101 C -0.01396 0.27712 -0.17216
 C102 C -0.00258 0.24938 -0.15238
 C103 C -0.05992 0.29173 -0.12862
 C104 C -0.04928 0.26319 -0.10976
 H105 H 0.00731 0.34317 -0.12145
 H106 H -0.00080 0.23170 -0.09734
 H107 H -0.01189 0.27703 -0.20009
 H108 H -0.08716 0.30089 -0.12841
 C109 C 0.50410 0.28483 0.13387
 C110 C 0.47722 0.29144 0.10537
 C111 C 0.46811 0.26182 0.08852
 C112 C 0.48636 0.22786 0.10176
 C113 C 0.48605 0.25704 0.15725
 C114 C 0.47661 0.22742 0.14056
 C115 C 0.53483 0.26504 0.11555
 C116 C 0.52588 0.23528 0.09936
 H117 H 0.46122 0.31528 0.10285
 H118 H 0.47908 0.20369 0.08802
 H119 H 0.48072 0.26085 0.18458
 H120 H 0.56185 0.27330 0.11641
 C121 C 1.00376 0.80221 0.64094
 C122 C 0.98214 0.81222 0.61155
 C123 C 0.97487 0.78344 0.58914
 C124 C 0.99074 0.74976 0.60085
 C125 C 0.98370 0.77433 0.65800
 C126 C 0.97633 0.74523 0.63632
 C127 C 1.03498 0.78497 0.62570
 C128 C 1.02851 0.75669 0.60293
 H129 H 0.96437 0.83505 0.61189
 H130 H 0.98533 0.72768 0.58341
 H131 H 0.97451 0.77570 0.68474
 H132 H 1.06135 0.79191 0.63239
 C133 C 0.46500 0.78669 0.35954
 C134 C 0.49720 0.79428 0.38088
 C135 C 0.51063 0.76570 0.39822
 C136 C 0.48972 0.73186 0.39391
 C137 C 0.47619 0.75497 0.33702
 C138 C 0.48900 0.72655 0.35487
 C139 C 0.43894 0.77126 0.38680
 C140 C 0.45167 0.74266 0.40440
 H141 H 0.50884 0.82007 0.38170
 H142 H 0.50023 0.70844 0.40822
 H143 H 0.47436 0.75516 0.30921
 H144 H 0.41299 0.78200 0.39318
 C145 C 0.39443 -0.02624 0.28553
 H146 H 0.39545 -0.00050 0.29721
 C147 C 0.41289 -0.05505 0.29980
 H148 H 0.42840 -0.05145 0.32230
 C149 C 0.37090 -0.06313 0.24362
 H150 H 0.35349 -0.06661 0.22264
 C151 C 0.38868 -0.09261 0.25721
 H152 H 0.38525 -0.11845 0.24630
 N153 N 0.37403 -0.03070 0.25785
 C154 C 0.35433 0.07253 0.20993
 H155 H 0.32666 0.06935 0.20558
 C156 C 0.37116 0.10250 0.19719
 H157 H 0.35642 0.12216 0.18266
 C158 C 0.40745 0.04999 0.23295
 H159 H 0.42163 0.02919 0.24633
 C160 C 0.42521 0.08005 0.22121
 H161 H 0.45295 0.08235 0.22596
 Zn162 Zn 0.34539 0.00797 0.24261
 N163 N 0.37244 0.04713 0.22765
 C164 C 0.31819 0.05418 0.29376
 N165 N 0.31580 0.02114 0.28076
 C166 C 0.29774 -0.00446 0.29824
 C167 C 0.28314 0.00212 0.33125
 C168 C 0.30397 0.06186 0.32651
 C169 C 0.34121 -0.01438 0.17633
 C170 C 0.32676 -0.02199 0.14500
 C171 C 0.26880 -0.00987 0.17037
 C172 C 0.28448 -0.00304 0.20176
 N173 N 0.32015 -0.00519 0.20392
 H174 H 0.33318 0.07395 0.27985
 H175 H 0.29685 -0.03069 0.28758
 H176 H 0.27066 -0.01896 0.34590
 H177 H 0.30784 0.08762 0.33742
 H178 H 0.36948 -0.01550 0.17872
 H179 H 0.34410 -0.02980 0.12352
 H180 H 0.24048 -0.00755 0.16855
 H181 H 0.26834 0.00484 0.22401
 C182 C 0.40682 0.10700 0.20355
 C183 C 0.40977 -0.08866 0.28567
 C184 C 0.29024 -0.01871 0.14133
 C185 C 0.28750 0.03525 0.34608
 C186 C 0.09240 1.06584 0.80728
 H187 H 0.11008 1.05200 0.82425
 C188 C 0.07628 1.09743 0.81819
 H189 H 0.08115 1.10729 0.84363
 C190 C 0.06621 1.07160 0.75282
 H191 H 0.06316 1.06166 0.72711
 C192 C 0.04975 1.10363 0.76265
 H193 H 0.03371 1.11835 0.74461
 N194 N 0.08719 1.05351 0.77509
 C195 C 0.10484 0.94626 0.73740
 H196 H 0.13317 0.94586 0.73930
 C197 C 0.08837 0.91698 0.72485
 H198 H 0.10414 0.89406 0.71683
 C199 C 0.05013 0.97753 0.74396
 H200 H 0.03557 1.00139 0.75120
 C201 C 0.03243 0.94854 0.73152
 H202 H 0.00415 0.95012 0.72909
 Zn203 Zn 0.11376 1.01337 0.75958
 N204 N 0.08578 0.97592 0.74611
 C205 C 0.17697 0.99380 0.79381
 N206 N 0.14116 0.99532 0.79579
 C207 C 0.12290 0.98270 0.82393
 C208 C 0.14066 0.96866 0.85199
 C209 C 0.19580 0.97985 0.82131
 C210 C 0.13501 1.01537 0.68925
 C211 C 0.15398 1.02715 0.66008
 C212 C 0.18807 1.06304 0.69686
 C213 C 0.16778 1.05134 0.72525
 N214 N 0.14212 1.02759 0.72105
 H215 H 0.19102 1.00274 0.77082
 H216 H 0.09443 0.98363 0.82447
 H217 H 0.12594 0.95838 0.87417
 H218 H 0.22428 0.97822 0.81947
 H219 H 0.11389 0.99729 0.68621
 H220 H 0.14741 1.01794 0.63485
 H221 H 0.20867 1.08170 0.70055
 H222 H 0.17236 1.06131 0.75066
 C223 C 0.05176 0.91786 0.72180
 C224 C 0.05516 1.11683 0.79559
 C225 C 0.18050 1.05167 0.66368
 C226 C 0.17745 0.96709 0.85063
 C227 C 0.56310 0.54117 0.28153
 H228 H 0.56157 0.51462 0.29212
 C229 C 0.54435 0.56899 0.29774
 H230 H 0.52798 0.56382 0.32057
 C231 C 0.58804 0.58088 0.24027
 H232 H 0.60601 0.58568 0.21864
 C233 C 0.56998 0.60944 0.25581
 H234 H 0.57366 0.63597 0.24569
 N235 N 0.58447 0.54753 0.25335
 C236 C 0.60914 0.44657 0.20345
 H237 H 0.63710 0.45028 0.19939
 C238 C 0.59409 0.41599 0.19185
 H239 H 0.61044 0.39618 0.17861
 C240 C 0.55373 0.46807 0.22540
 H241 H 0.53815 0.48857 0.23830
 C242 C 0.53749 0.43774 0.21405
 H243 H 0.50941 0.43489 0.21829
 Zn244 Zn 0.61434 0.51027 0.23615
 N245 N 0.58911 0.47151 0.22051
 C246 C 0.64572 0.46009 0.28166
 N247 N 0.64276 0.49503 0.27306
 C248 C 0.65722 0.52010 0.29259
 C249 C 0.67533 0.51035 0.32216
 C250 C 0.66430 0.44918 0.31045
 C251 C 0.62440 0.53620 0.16906
 C252 C 0.64282 0.54640 0.13894
 C253 C 0.69729 0.53501 0.16791
 C254 C 0.67779 0.52532 0.19767
 N255 N 0.64200 0.52620 0.19770
 H256 H 0.63331 0.44051 0.26660
 H257 H 0.65378 0.54776 0.28570
 H258 H 0.68592 0.53060 0.33800
 H259 H 0.66659 0.42125 0.31680
 H260 H 0.59594 0.53610 0.16967
 H261 H 0.62853 0.55464 0.11642
 H262 H 0.72577 0.53445 0.16808
 H263 H 0.69121 0.51675 0.22057
 C264 C 0.55802 0.41107 0.19770
 C265 C 0.54806 0.60358 0.28497
 C266 C 0.67967 0.54554 0.13812
 C267 C 0.67944 0.47441 0.33105
 C268 C 0.89460 0.49075 0.77039
 H269 H 0.89072 0.51518 0.78439
 C270 C 0.91196 0.46200 0.78585
 H271 H 0.92148 0.46452 0.81166
 C272 C 0.88409 0.45675 0.72114
 H273 H 0.87213 0.45421 0.69651
 C274 C 0.90273 0.42791 0.73495
 H275 H 0.90564 0.40370 0.72042
 N276 N 0.87921 0.48698 0.73953
 C277 C 0.85028 0.58907 0.69410
 H278 H 0.82323 0.58438 0.68822
 C279 C 0.86615 0.61991 0.68206
 H280 H 0.85117 0.63911 0.66719
 C281 C 0.90345 0.56890 0.71878
 H282 H 0.91808 0.54869 0.73253
 C283 C 0.92031 0.59950 0.70735
 H284 H 0.94780 0.60284 0.71261
 Zn285 Zn 0.84580 0.52232 0.72558
 N286 N 0.86891 0.56442 0.71230
 C287 C 0.79564 0.56276 0.76562
 N288 N 0.81387 0.53135 0.76372
 C289 C 0.81506 0.50905 0.79156
 C290 C 0.80352 0.52075 0.82409
 C291 C 0.78227 0.57488 0.79749
 C292 C 0.84179 0.50552 0.65675
 C293 C 0.82791 0.49137 0.62738
 C294 C 0.77362 0.48125 0.65997
 C295 C 0.78863 0.49562 0.68891
 N296 N 0.82243 0.50658 0.68687
 H297 H 0.79401 0.57978 0.74315
 H298 H 0.82777 0.48327 0.78925
 H299 H 0.80836 0.50429 0.84658
 H300 H 0.77023 0.60111 0.79919
 H301 H 0.86855 0.51457 0.65594
 H302 H 0.84409 0.48930 0.60391
 H303 H 0.74719 0.47128 0.66193
 H304 H 0.77380 0.49693 0.71319
 C305 C 0.90146 0.62552 0.68904
 C306 C 0.91458 0.42954 0.76875
 C307 C 0.79384 0.47825 0.62912
 C308 C 0.78943 0.55515 0.82752
 C309 C 0.28436 0.39745 -0.01436
 H310 H 0.29835 0.39022 0.00861
 C311 C 0.30201 0.41433 -0.04186
 H312 H 0.32958 0.42022 -0.03992
 C313 C 0.23201 0.39677 -0.04571
 H314 H 0.20507 0.38905 -0.04768
 C315 C 0.24840 0.41447 -0.07344
 H316 H 0.23371 0.42086 -0.09622
 N317 N 0.25024 0.38824 -0.01705
 C318 C 0.20559 0.36700 0.08606
 H319 H 0.20118 0.33897 0.08411
 C320 C 0.19811 0.38421 0.11712
 H321 H 0.18780 0.36929 0.13908
 C322 C 0.22474 0.42039 0.05976
 H323 H 0.23510 0.43429 0.03724
 C324 C 0.21667 0.43889 0.09015
 H325 H 0.22029 0.46717 0.09073
 Zn326 Zn 0.23124 0.35859 0.01836
 N327 N 0.21952 0.38499 0.05847
 C328 C 0.28184 0.32497 0.05989
 N329 N 0.26742 0.32453 0.02828
 C330 C 0.28274 0.30522 0.00213
 C331 C 0.31480 0.28692 0.00683
 C332 C 0.31365 0.30715 0.06565
 C333 C 0.16155 0.36112 -0.00007
 C334 C 0.13033 0.34981 -0.01351
 C335 C 0.15597 0.29082 -0.01760
 C336 C 0.18703 0.30340 -0.00434
 N337 N 0.18941 0.33822 0.00346
 H338 H 0.27027 0.34121 0.08012
 H339 H 0.27135 0.30602 -0.02304
 H340 H 0.32780 0.27319 -0.01458
 H341 H 0.32572 0.30943 0.09038
 H342 H 0.16410 0.38863 0.00646
 H343 H 0.10908 0.36887 -0.01768
 H344 H 0.15458 0.26326 -0.02450
 H345 H 0.20938 0.28557 -0.00104
 C346 C 0.20407 0.42052 0.11960
 C347 C 0.28423 0.42205 -0.07223
 C348 C 0.12721 0.31426 -0.02250
 C349 C 0.33111 0.28906 0.03859
 C350 C 0.79610 0.05799 1.02978
 H351 H 0.81011 0.05754 1.00502
 C352 C 0.81017 0.03986 1.05800
 H353 H 0.83520 0.02569 1.05508
 C354 C 0.74764 0.07893 1.06458
 H355 H 0.72345 0.09436 1.06727
 C356 C 0.76068 0.06119 1.09337
 H357 H 0.74681 0.06363 1.11814
 N358 N 0.76636 0.07854 1.03401
 C359 C 0.76843 0.09147 0.92831
 H360 H 0.78840 0.11108 0.92952
 C361 C 0.76259 0.07576 0.89678
 H362 H 0.77769 0.08386 0.87396
 C363 C 0.72423 0.05725 0.95608
 H364 H 0.70913 0.05050 0.97928
 C365 C 0.71734 0.04102 0.92495
 H366 H 0.69643 0.02220 0.92418
 Zn367 Zn 0.75280 0.10965 0.99771
 N368 N 0.74827 0.08319 0.95685
 C369 C 0.77997 0.17058 0.96635
 N370 N 0.78781 0.14399 0.98902
 C371 C 0.82071 0.13993 1.00157
 C372 C 0.84810 0.16065 0.98848
 C373 C 0.80648 0.19211 0.95287
 C374 C 0.67875 0.12654 0.99537
 C375 C 0.64690 0.14126 1.00834
 C376 C 0.67922 0.17248 1.05031
 C377 C 0.71038 0.15703 1.03673
 N378 N 0.70956 0.13359 1.01049
 H379 H 0.75357 0.17347 0.95701
 H380 H 0.82639 0.11940 1.02026
 H381 H 0.87465 0.15563 0.99689
 H382 H 0.80039 0.21179 0.93328
 H383 H 0.67852 0.10879 0.97388
 H384 H 0.62243 0.13444 0.99694
 H385 H 0.68017 0.19035 1.07182
 H386 H 0.73523 0.16270 1.04794
 C387 C 0.73608 0.05098 0.89468
 C388 C 0.79297 0.04269 1.09044
 C389 C 0.64690 0.16359 1.03686
 C390 C 0.84129 0.18590 0.96267
 C391 C 0.27854 0.54870 0.57361
 H392 H 0.27601 0.53266 0.55102
 C393 C 0.29542 0.53456 0.60242
 H394 H 0.30579 0.50761 0.60197
 C395 C 0.27008 0.60395 0.60128
 H396 H 0.26126 0.63136 0.60022
 C397 C 0.28614 0.59077 0.63066
 H398 H 0.28900 0.60793 0.65246
 N399 N 0.26714 0.58314 0.57326
 C400 C 0.20714 0.56938 0.48966
 H401 H 0.18621 0.58214 0.50486
 C402 C 0.19914 0.55152 0.45987
 H403 H 0.17205 0.55059 0.45226
 C404 C 0.26808 0.55681 0.47965
 H405 H 0.29497 0.56018 0.48695
 C406 C 0.26121 0.53859 0.44958
 H407 H 0.28278 0.52754 0.43385
 Zn408 Zn 0.25136 0.60573 0.53242
 N409 N 0.24120 0.57261 0.49837
 C410 C 0.28671 0.64530 0.48039
 N411 N 0.28845 0.63392 0.51375
 C412 C 0.31758 0.63941 0.53226
 C413 C 0.34612 0.65732 0.51745
 C414 C 0.31470 0.66326 0.46458
 C415 C 0.19119 0.62939 0.57256
 C416 C 0.16073 0.64983 0.57993
 C417 C 0.16780 0.67826 0.52413
 C418 C 0.19837 0.65760 0.51797
 N419 N 0.20985 0.63410 0.54228
 H420 H 0.26408 0.63941 0.46561
 H421 H 0.31920 0.62940 0.55832
 H422 H 0.36921 0.66133 0.53234
 H423 H 0.31312 0.67197 0.43795
 H424 H 0.19966 0.60956 0.59099
 H425 H 0.14651 0.64624 0.60437
 H426 H 0.15906 0.69693 0.50461
 H427 H 0.21281 0.66032 0.49368
 C428 C 0.22645 0.53706 0.43891
 C429 C 0.30036 0.55619 0.63086
 C430 C 0.14912 0.67506 0.55580
 C431 C 0.34471 0.66951 0.48328
 C432 C 0.77371 0.90809 0.45952
 H433 H 0.78920 0.90911 0.48233
 C434 C 0.78346 0.92755 0.43005
 H435 H 0.80679 0.94336 0.42998
 C436 C 0.72529 0.88492 0.43111
 H437 H 0.70268 0.86823 0.43161
 C438 C 0.73430 0.90367 0.40102
 H439 H 0.71892 0.90097 0.37828
 N440 N 0.74532 0.88700 0.45936
 C441 C 0.71006 0.87288 0.56585
 H442 H 0.71255 0.84440 0.56832
 C443 C 0.69729 0.89276 0.59368
 H444 H 0.68999 0.87953 0.61772
 C445 C 0.71613 0.92478 0.53136
 H446 H 0.72321 0.93706 0.50687
 C447 C 0.70297 0.94576 0.55859
 H448 H 0.69985 0.97410 0.55501
 Zn449 Zn 0.73509 0.85910 0.49889
 N450 N 0.71922 0.88899 0.53544
 C451 C 0.79116 0.84200 0.54265
 N452 N 0.77775 0.83488 0.51146
 C453 C 0.79652 0.81467 0.48807
 C454 C 0.83012 0.80111 0.49566
 C455 C 0.82436 0.82899 0.55123
 C456 C 0.66516 0.83656 0.50169
 C457 C 0.63580 0.81936 0.49038
 C458 C 0.67415 0.78395 0.45300
 C459 C 0.70297 0.80179 0.46516
 N460 N 0.69800 0.82805 0.48868
 H461 H 0.77711 0.85927 0.56049
 H462 H 0.78631 0.81054 0.46286
 H463 H 0.84539 0.78618 0.47649
 H464 H 0.83506 0.83591 0.57569
 H465 H 0.66122 0.85828 0.51928
 H466 H 0.60978 0.82786 0.49971
 H467 H 0.67829 0.76423 0.43318
 H468 H 0.72896 0.79599 0.45429
 C469 C 0.69284 0.92951 0.58991
 C470 C 0.76384 0.92501 0.40031
 C471 C 0.64001 0.79309 0.46534
 C472 C 0.84436 0.80880 0.52743
 C473 C -0.01675 0.27487 0.40614
 H474 H 0.00946 0.28404 0.41017
 C475 C -0.04581 0.29296 0.42101
 H476 H -0.04175 0.31519 0.43758
 C477 C -0.05414 0.23594 0.37833
 H478 H -0.05736 0.21438 0.36084
 C479 C -0.08391 0.25412 0.39164
 H480 H -0.10980 0.24610 0.38461
 N481 N -0.02136 0.24690 0.38527
 C482 C 0.08175 0.19415 0.37123
 H483 H 0.08061 0.18932 0.34387
 C484 C 0.11086 0.18209 0.38931
 H485 H 0.13204 0.16758 0.37594
 C486 C 0.05529 0.21868 0.42210
 H487 H 0.03345 0.23242 0.43494
 C488 C 0.08422 0.20766 0.44103
 H489 H 0.08465 0.21344 0.46828
 Zn490 Zn 0.01776 0.22795 0.35963
 N491 N 0.05484 0.21224 0.38771
 C492 C 0.06630 0.27726 0.33488
 N493 N 0.03342 0.26512 0.33067
 C494 C 0.00964 0.28343 0.31143
 C495 C 0.01803 0.31644 0.29712
 C496 C 0.07567 0.30996 0.32117
 C497 C -0.00514 0.16035 0.35578
 C498 C -0.01806 0.13004 0.34145
 C499 C -0.01187 0.15761 0.28500
 C500 C 0.00110 0.18758 0.30049
 N501 N 0.00358 0.18847 0.33536
 H502 H 0.08455 0.26292 0.35090
 H503 H -0.01660 0.27354 0.30920
 H504 H -0.00153 0.33175 0.28329
 H505 H 0.10127 0.32020 0.32632
 H506 H -0.00292 0.16199 0.38344
 H507 H -0.02622 0.10839 0.35819
 H508 H -0.01489 0.15732 0.25735
 H509 H 0.00832 0.21032 0.28487
 C510 C 0.11215 0.18868 0.42467
 C511 C -0.07988 0.28367 0.41241
 C512 C -0.02168 0.12852 0.30571
 C513 C 0.05094 0.33045 0.30327
 C514 C 1.07498 0.75644 0.07414
 H515 H 1.05667 0.74148 0.05996
 C516 C 1.10340 0.77193 0.05658
 H517 H 1.10649 0.76940 0.02885
 C518 C 1.09427 0.77741 0.12738
 H519 H 1.09109 0.77877 0.15504
 C520 C 1.12288 0.79353 0.11085
 H521 H 1.14110 0.80803 0.12575
 N522 N 1.07024 0.76053 0.10880
 C523 C 0.98517 0.68988 0.11434
 H524 H 0.99498 0.67652 0.13697
 C525 C 0.95641 0.67629 0.09825
 H526 H 0.94460 0.65231 0.10819
 C527 C 0.98644 0.73866 0.07523
 H528 H 0.99713 0.76388 0.06751
 C529 C 0.95757 0.72597 0.05839
 H530 H 0.94656 0.74103 0.03721
 Zn531 Zn 1.03015 0.74306 0.13309
 N532 N 0.99889 0.72113 0.10339
 C533 C 0.97305 0.79126 0.14415
 N534 N 1.00538 0.78130 0.15551
 C535 C 1.02043 0.79947 0.18097
 C536 C 1.00373 0.82984 0.19459
 C537 C 0.95572 0.82155 0.15671
 C538 C 1.06908 0.68408 0.15108
 C539 C 1.08007 0.65523 0.17094
 C540 C 1.04349 0.67749 0.21859
 C541 C 1.03323 0.70617 0.19776
 N542 N 1.04596 0.70862 0.16461
 H543 H 0.96054 0.77615 0.12500
 H544 H 1.04529 0.79043 0.19090
 H545 H 1.01586 0.84405 0.21490
 H546 H 0.93032 0.82940 0.14689
 H547 H 1.07832 0.68658 0.12449
 H548 H 1.09816 0.63556 0.15979
 H549 H 1.03302 0.67521 0.24483
 H550 H 1.01442 0.72579 0.20764
 C551 C 0.94161 0.69518 0.07086
 C552 C 1.12692 0.79176 0.07496
 C553 C 1.06681 0.65153 0.20484
 C554 C 0.97141 0.84160 0.18168
 C555 C 0.54580 0.30405 0.56270
 H556 H 0.51984 0.31621 0.56084
 C557 C 0.57405 0.31737 0.54300
 H558 H 0.56992 0.33979 0.52581
 C559 C 0.58333 0.26083 0.58834
 H560 H 0.58703 0.23938 0.60664
 C561 C 0.61232 0.27344 0.56925
 H562 H 0.63818 0.26147 0.57267
 N563 N 0.55086 0.27623 0.58477
 C564 C 0.44603 0.23635 0.60509
 H565 H 0.44566 0.23776 0.63294
 C566 C 0.41799 0.22176 0.58874
 H567 H 0.39593 0.21174 0.60399
 C568 C 0.47634 0.24566 0.55131
 H569 H 0.49964 0.25404 0.53704
 C570 C 0.44873 0.23103 0.53382
 H571 H 0.45074 0.22814 0.50608
 Zn572 Zn 0.51210 0.26165 0.61300
 N573 N 0.47454 0.24765 0.58636
 C574 C 0.46641 0.31799 0.63327
 N575 N 0.49712 0.30067 0.64064
 C576 C 0.51776 0.31213 0.66595
 C577 C 0.50680 0.34103 0.68615
 C578 C 0.45485 0.34734 0.65232
 C579 C 0.53410 0.19165 0.62109
 C580 C 0.54471 0.16039 0.63770
 C581 C 0.53431 0.18920 0.69247
 C582 C 0.52371 0.21998 0.67477
 N583 N 0.52476 0.22094 0.63964
 H584 H 0.45093 0.30933 0.61230
 H585 H 0.54255 0.29854 0.67072
 H586 H 0.52277 0.34903 0.70711
 H587 H 0.43023 0.36068 0.64623
 H588 H 0.53410 0.19292 0.59321
 H589 H 0.55361 0.13778 0.62260
 H590 H 0.53497 0.18908 0.72036
 H591 H 0.51516 0.24309 0.68915
 C592 C 0.41954 0.21848 0.55285
 C593 C 0.60769 0.30204 0.54642
 C594 C 0.54541 0.15922 0.67374
 C595 C 0.47504 0.35914 0.67922
 C596 C 0.49300 0.79835 0.93235
 H597 H 0.51784 0.81147 0.92895
 C598 C 0.46515 0.81480 0.95068
 H599 H 0.46842 0.84072 0.96148
 C600 C 0.45732 0.74995 0.91972
 H601 H 0.45396 0.72547 0.90638
 C602 C 0.42884 0.76536 0.93811
 H603 H 0.40362 0.75268 0.93894
 N604 N 0.48839 0.76692 0.91674
 C605 C 0.59337 0.72628 0.89095
 H606 H 0.59101 0.72321 0.86345
 C607 C 0.62488 0.71713 0.90643
 H608 H 0.64682 0.70656 0.89085
 C609 C 0.56729 0.74307 0.94497
 H610 H 0.54463 0.75286 0.95986
 C611 C 0.59843 0.73422 0.96153
 H612 H 0.59972 0.73727 0.98917
 Zn613 Zn 0.52470 0.75158 0.88612
 N614 N 0.56555 0.73934 0.91022
 C615 C 0.56463 0.80732 0.86030
 N616 N 0.53391 0.79059 0.85618
 C617 C 0.50910 0.80417 0.83478
 C618 C 0.51560 0.83499 0.81526
 C619 C 0.57190 0.83814 0.84185
 C620 C 0.50765 0.68129 0.88323
 C621 C 0.49666 0.64980 0.86941
 C622 C 0.49475 0.67863 0.81351
 C623 C 0.50590 0.70973 0.82844
 N624 N 0.51143 0.71060 0.86289
 H625 H 0.58331 0.79736 0.87859
 H626 H 0.48420 0.79126 0.83308
 H627 H 0.49619 0.84522 0.79768
 H628 H 0.59660 0.85102 0.84542
 H629 H 0.51244 0.68271 0.91050
 H630 H 0.49252 0.62707 0.88622
 H631 H 0.48945 0.67835 0.78626
 H632 H 0.50959 0.73315 0.81263
 C633 C 0.62773 0.72155 0.94202
 C634 C 0.43254 0.79850 0.95298
 C635 C 0.48999 0.64826 0.83418
 C636 C 0.54763 0.85191 0.81849
 C637 C 0.40278 -0.14255 0.32099
 C638 C 0.41551 -0.17257 0.33791
 C639 C 0.45181 -0.18146 0.33781
 C640 C 0.47487 -0.16062 0.31629
 C641 C 0.46167 -0.12944 0.29965
 C642 C 0.42545 -0.12026 0.30265
 C643 C 0.48506 -0.10883 0.27960
 N644 N 0.51930 -0.11925 0.27561
 N645 N 0.53159 -0.14895 0.29013
 C646 C 0.51065 -0.17003 0.31002
 H647 H 0.37472 -0.13656 0.32231
 H648 H 0.39599 -0.18888 0.35042
 H649 H 0.47635 -0.08478 0.26671
 H650 H 0.52231 -0.19419 0.31999
 C651 C 0.96050 0.39872 0.80267
 C652 C 0.97396 0.36989 0.82113
 C653 C 0.95573 0.33802 0.82442
 C654 C 0.92453 0.33493 0.80522
 C655 C 0.90943 0.36524 0.78878
 C656 C 0.92806 0.39729 0.78692
 C657 C 0.87568 0.36247 0.77531
 N658 N 0.86017 0.33069 0.77467
 N659 N 0.87588 0.30157 0.78696
 C660 C 0.90748 0.30256 0.80193
 H661 H 0.97559 0.42262 0.80085
 H662 H 0.99924 0.37298 0.83228
 H663 H 0.86119 0.38516 0.76552
 H664 H 0.91886 0.27791 0.81080
 C665 C 0.01264 1.15229 0.83100
 C666 C -0.00053 1.18421 0.84418
 C667 C 0.01356 1.21646 0.83310
 C668 C 0.04258 1.21629 0.80901
 C669 C 0.05570 1.18372 0.79528
 C670 C 0.04037 1.15161 0.80636
 C671 C 0.08467 1.18426 0.77171
 N672 N 0.09964 1.21537 0.76289
 N673 N 0.08787 1.24585 0.77631
 C674 C 0.06011 1.24737 0.79922
 H675 H 0.00131 1.12783 0.84035
 H676 H -0.02202 1.18362 0.86322
 H677 H 0.09577 1.16026 0.76048
 H678 H 0.05263 1.27276 0.81000
 C679 C 0.55248 0.65624 0.32139
 C680 C 0.53818 0.68563 0.33866
 C681 C 0.50212 0.69384 0.33786
 C682 C 0.47980 0.67135 0.32022
 C683 C 0.49435 0.64130 0.30278
 C684 C 0.53105 0.63394 0.30327
 C685 C 0.47162 0.61985 0.28502
 N686 N 0.43659 0.62772 0.28540
 N687 N 0.42285 0.65557 0.30223
 C688 C 0.44321 0.67763 0.31966
 H689 H 0.58059 0.65086 0.32207
 H690 H 0.55550 0.70256 0.35216
 H691 H 0.48133 0.59697 0.27083
 H692 H 0.43056 0.69967 0.33306
 C693 C 0.51883 0.38153 0.15861
 C694 C 0.50664 0.35172 0.14276
 C695 C 0.51679 0.31716 0.15338
 C696 C 0.54047 0.31367 0.18128
 C697 C 0.55245 0.34440 0.19757
 C698 C 0.54208 0.37843 0.18549
 C699 C 0.57471 0.34019 0.22564
 N700 N 0.58533 0.30742 0.23602
 N701 N 0.57520 0.27861 0.22024
 C702 C 0.55340 0.28055 0.19334
 H703 H 0.51113 0.40745 0.14876
 H704 H 0.49024 0.35678 0.12113
 H705 H 0.58363 0.36263 0.23958
 H706 H 0.54689 0.25598 0.18180
 C707 C 0.01849 0.89422 0.67435
 C708 C 0.00824 0.86659 0.65406
 C709 C 0.01339 0.83066 0.66402
 C710 C 0.03093 0.82379 0.69592
 C711 C 0.03998 0.85244 0.71704
 C712 C 0.03486 0.88775 0.70544
 C713 C 0.05464 0.84496 0.74923
 N714 N 0.06208 0.81112 0.75877
 N715 N 0.05587 0.78428 0.73827
 C716 C 0.04098 0.78935 0.70730
 H717 H 0.01535 0.92109 0.66461
 H718 H -0.00200 0.87434 0.62942
 H719 H 0.06025 0.86576 0.76693
 H720 H 0.03784 0.76617 0.69202
 C721 C 0.94720 0.65339 0.65183
 C722 C 0.96445 0.68251 0.63780
 C723 C 0.95461 0.71712 0.64744
 C724 C 0.92419 0.72208 0.66972
 C725 C 0.90739 0.69227 0.68492
 C726 C 0.91909 0.65768 0.67575
 C727 C 0.87915 0.69816 0.70876
 N728 N 0.86658 0.73149 0.71455
 N729 N 0.88029 0.75925 0.69807
 C730 C 0.90825 0.75568 0.67561
 H731 H 0.95609 0.62712 0.64409
 H732 H 0.98692 0.67743 0.62081
 H733 H 0.86677 0.67663 0.72271
 H734 H 0.91698 0.77906 0.66190
 C735 C 0.45487 0.13450 0.16851
 C736 C 0.47099 0.16341 0.15267
 C737 C 0.45762 0.19790 0.15780
 C738 C 0.42684 0.20318 0.17914
 C739 C 0.41138 0.17386 0.19653
 C740 C 0.42492 0.13908 0.19027
 C741 C 0.38278 0.18046 0.21981
 N742 N 0.36899 0.21370 0.22322
 N743 N 0.38192 0.24079 0.20506
 C744 C 0.41015 0.23667 0.18302
 H745 H 0.46547 0.10819 0.16315
 H746 H 0.49412 0.15873 0.13610
 H747 H 0.37134 0.15960 0.23548
 H748 H 0.41880 0.25955 0.16846
 C749 C 0.32029 0.46937 -0.09850
 C750 C 0.33962 0.48478 -0.12556
 C751 C 0.34317 0.46886 -0.15821
 C752 C 0.32344 0.43780 -0.16367
 C753 C 0.30503 0.42131 -0.13546
 C754 C 0.30339 0.43748 -0.10265
 C755 C 0.28946 0.38857 -0.14093
 N756 N 0.28980 0.37475 -0.17295
 N757 N 0.30497 0.39122 -0.19984
 C758 C 0.32161 0.42213 -0.19638
 H759 H 0.31862 0.48253 -0.07382
 H760 H 0.35136 0.50958 -0.12018
 H761 H 0.27721 0.37357 -0.12012
 H762 H 0.33303 0.43392 -0.21944
 C763 C 0.78739 0.91802 0.34091
 C764 C 0.80542 0.93049 0.31170
 C765 C 0.81474 0.96627 0.30848
 C766 C 0.79839 0.99066 0.33220
 C767 C 0.78071 0.97775 0.36252
 C768 C 0.77696 0.94092 0.36750
 C769 C 0.76651 1.00222 0.38649
 N770 N 0.76860 1.03738 0.37978
 N771 N 0.78379 1.04959 0.35070
 C772 C 0.79845 1.02751 0.32662
 H773 H 0.78312 0.88988 0.34354
 H774 H 0.81325 0.91139 0.29221
 H775 H 0.75302 0.99372 0.41006
 H776 H 0.80919 1.03905 0.30304
 C777 C 0.79852 0.00157 1.14029
 C778 C 0.81210 -0.00795 1.17209
 C779 C 0.83811 0.01202 1.18705
 C780 C 0.85123 0.04196 1.16853
 C781 C 0.83745 0.05146 1.13601
 C782 C 0.81075 0.03117 1.12209
 C783 C 0.85007 0.08192 1.11884
 N784 N 0.87496 0.10133 1.13322
 N785 N 0.88783 0.09255 1.16369
 C786 C 0.87669 0.06379 1.18175
 H787 H 0.77786 -0.01395 1.13003
 H788 H 0.80187 -0.03108 1.18536
 H789 H 0.84028 0.09070 1.09426
 H790 H 0.88778 0.05859 1.20621
 C791 C 0.31045 0.51422 0.67948
 C792 C 0.32695 0.50415 0.70973
 C793 C 0.35470 0.52356 0.72239
 C794 C 0.36700 0.55303 0.70252
 C795 C 0.35105 0.56226 0.67092
 C796 C 0.32151 0.54368 0.66029
 C797 C 0.36530 0.59000 0.65073
 N798 N 0.39221 0.60864 0.66245
 N799 N 0.40587 0.60134 0.69290
 C800 C 0.39407 0.57445 0.71325
 H801 H 0.28824 0.49939 0.67146
 H802 H 0.31754 0.48104 0.72362
 H803 H 0.35553 0.59690 0.62562
 H804 H 0.40594 0.57045 0.73753
 C805 C 0.19911 0.49246 0.40356
 C806 C 0.18406 0.48219 0.37324
 C807 C 0.18657 0.50302 0.34281
 C808 C 0.20946 0.53253 0.34272
 C809 C 0.22465 0.54294 0.37389
 C810 C 0.21812 0.52337 0.40470
 C811 C 0.24486 0.57360 0.37352
 N812 N 0.25050 0.59193 0.34370
 N813 N 0.23699 0.58194 0.31434
 C814 C 0.21673 0.55311 0.31283
 H815 H 0.19448 0.47690 0.42688
 H816 H 0.16938 0.45832 0.37493
 H817 H 0.25633 0.58324 0.39655
 H818 H 0.20645 0.54702 0.28821
 C819 C 0.71512 0.06583 0.83661
 C820 C 0.69738 0.05749 0.80722
 C821 C 0.68691 0.02265 0.80139
 C822 C 0.70272 -0.00487 0.82167
 C823 C 0.72052 0.00370 0.85195
 C824 C 0.72450 0.03955 0.86054
 C825 C 0.73448 -0.02395 0.87229
 N826 N 0.73159 -0.05796 0.86242
 N827 N 0.71587 -0.06606 0.83354
 C828 C 0.70162 -0.04076 0.81279
 H829 H 0.71971 0.09340 0.84164
 H830 H 0.69068 0.07909 0.78997
 H831 H 0.74842 -0.01881 0.89544
 H832 H 0.69021 -0.04894 0.78926
 C833 C 0.69560 0.97579 0.63434
 C834 C 0.68381 0.99055 0.66550
 C835 C 0.65290 0.97918 0.68293
 C836 C 0.63194 0.95394 0.66619
 C837 C 0.64315 0.94085 0.63331
 C838 C 0.67625 0.95001 0.61869
 C839 C 0.62111 0.91817 0.61596
 N840 N 0.59093 0.90715 0.63153
 N841 N 0.58145 0.91724 0.66325
 C842 C 0.60093 0.93978 0.68102
 H843 H 0.72075 0.98354 0.62306
 H844 H 0.69978 1.01045 0.67656
 H845 H 0.62758 0.90916 0.59010
 H846 H 0.59194 0.94522 0.70661
 C847 C 0.16072 0.43479 0.16647
 C848 C 0.15008 0.45035 0.19744
 C849 C 0.17272 0.47142 0.21572
 C850 C 0.20639 0.47866 0.20032
 C851 C 0.21800 0.46108 0.16954
 C852 C 0.19467 0.43914 0.15235
 C853 C 0.25283 0.46585 0.15729
 N854 N 0.27338 0.48915 0.17284
 N855 N 0.26151 0.50786 0.19984
 C856 C 0.22872 0.50363 0.21389
 H857 H 0.14217 0.41874 0.15353
 H858 H 0.12382 0.44494 0.20715
 H859 H 0.26404 0.45129 0.13561
 H860 H 0.22025 0.52050 0.23490
 C861 C -0.13905 0.28791 0.44107
 C862 C -0.16901 0.30653 0.45302
 C863 C -0.17226 0.34355 0.44920
 C864 C -0.14283 0.36185 0.43420
 C865 C -0.11353 0.34244 0.41967
 C866 C -0.11120 0.30520 0.42419
 C867 C -0.08766 0.36110 0.40054
 N868 N -0.08911 0.39689 0.39922
 N869 N -0.11481 0.41529 0.41544
 C870 C -0.14144 0.39912 0.43299
 H871 H -0.13755 0.25952 0.44523
 H872 H -0.18908 0.29127 0.46603
 H873 H -0.06642 0.34772 0.38633
 H874 H -0.16086 0.41581 0.44602
 C875 C 0.38977 0.84713 0.94550
 C876 C 0.35852 0.86517 0.95370
 C877 C 0.33636 0.85455 0.98181
 C878 C 0.35098 0.82936 1.00583
 C879 C 0.38252 0.81018 0.99662
 C880 C 0.40110 0.81855 0.96560
 C881 C 0.39529 0.78405 1.01941
 N882 N 0.37857 0.77872 1.05038
 N883 N 0.35018 0.79792 1.06007
 C884 C 0.33610 0.82321 1.03918
 H885 H 0.40491 0.85507 0.92262
 H886 H 0.35197 0.88762 0.93739
 H887 H 0.41886 0.76842 1.01323
 H888 H 0.31403 0.83874 1.04944
 C889 C 1.18998 0.80246 0.06270
 C890 C 1.21731 0.81959 0.04520
 C891 C 1.21073 0.84652 0.02058
 C892 C 1.17487 0.85460 0.01268
 C893 C 1.14715 0.83849 0.03209
 C894 C 1.15493 0.81163 0.05656
 C895 C 1.11219 0.84950 0.02600
 N896 N 1.10532 0.87225 -0.00030
 N897 N 1.13102 0.88443 -0.02094
 C898 C 1.16527 0.87588 -0.01567
 H899 H 1.19626 0.78192 0.08142
 H900 H 1.24389 0.81251 0.05231
 H901 H 1.09022 0.84005 0.04166
 H902 H 1.18429 0.88449 -0.03457
 C903 C 0.65814 0.34162 0.54518
 C904 C 0.68774 0.35643 0.52930
 C905 C 0.69882 0.34696 0.49576
 C906 C 0.67853 0.32320 0.47727
 C907 C 0.64832 0.30811 0.49351
 C908 C 0.63841 0.31725 0.52783
 C909 C 0.62892 0.28434 0.47474
 N910 N 0.63883 0.27685 0.44165
 N911 N 0.66672 0.29156 0.42615
 C912 C 0.68682 0.31454 0.44274
 H913 H 0.65063 0.34907 0.57135
 H914 H 0.70253 0.37496 0.54367
 H915 H 0.60591 0.27182 0.48601
 H916 H 0.70875 0.32612 0.42863
 C917 C 0.36286 0.21549 0.52409
 C918 C 0.33374 0.19686 0.51454
 C919 C 0.33297 0.15965 0.51748
 C920 C 0.36410 0.14116 0.52875
 C921 C 0.39383 0.16049 0.53783
 C922 C 0.39252 0.19780 0.53651
 C923 C 0.42403 0.14188 0.54899
 N924 N 0.42435 0.10615 0.55129
 N925 N 0.39647 0.08782 0.54341
 C926 C 0.36652 0.10391 0.53247
 H927 H 0.36163 0.24415 0.52321
 H928 H 0.31145 0.21252 0.50633
 H929 H 0.44744 0.15541 0.55584
 H930 H 0.34512 0.08700 0.52727
 C931 C 0.90830 0.67123 0.02363
 C932 C 0.87786 0.65870 0.00994
 C933 C 0.84576 0.65782 0.02941
 C934 C 0.84464 0.67355 0.06286
 C935 C 0.87599 0.68627 0.07665
 C936 C 0.90805 0.68404 0.05707
 C937 C 0.87417 0.70175 0.10950
 N938 N 0.84302 0.70435 0.12739
 N939 N 0.81354 0.69275 0.11459
 C940 C 0.81319 0.67768 0.08310
 H941 H 0.93251 0.67057 0.00800
 H942 H 0.88035 0.65020 -0.01637
 H943 H 0.89709 0.71233 0.12097
 H944 H 0.78807 0.66971 0.07440
 C945 C 0.65925 0.68280 0.98284
 C946 C 0.68993 0.66727 0.99513
 C947 C 0.72317 0.67905 0.98404
 C948 C 0.72521 0.70845 0.96076
 C949 C 0.69371 0.72454 0.94861
 C950 C 0.66068 0.71060 0.95880
 C951 C 0.69623 0.75400 0.92621
 N952 N 0.72823 0.76570 0.91563
 N953 N 0.75781 0.74993 0.92594
 C954 C 0.75742 0.72172 0.94790
 H955 H 0.63420 0.67178 0.99081
 H956 H 0.68756 0.64477 1.01247
 H957 H 0.67306 0.76796 0.91716
 H958 H 0.78238 0.71027 0.95479
 C959 C 0.17632 0.18650 0.43357
 C960 C 0.20593 0.17569 0.45143
 C961 C 0.20302 0.15424 0.48118
 C962 C 0.16888 0.14380 0.49300
 C963 C 0.13892 0.15355 0.47386
 C964 C 0.14271 0.17577 0.44438
 C965 C 0.10605 0.14011 0.48462
 N966 N 0.10308 0.12044 0.51396
 N967 N 0.13075 0.11315 0.53309
 C968 C 0.16330 0.12427 0.52365
 H969 H 0.17969 0.20333 0.41093
 H970 H 0.23149 0.18356 0.44132
 H971 H 0.08271 0.14473 0.46995
 H972 H 0.18429 0.11802 0.54035
 C973 C 0.54346 0.09892 0.70023
 C974 C 0.55956 0.06935 0.71574
 C975 C 0.59558 0.06890 0.72276
 C976 C 0.61623 0.09797 0.71074
 C977 C 0.59953 0.12830 0.69605
 C978 C 0.56288 0.12877 0.69110
 C979 C 0.62034 0.15707 0.68563
 N980 N 0.65577 0.15469 0.68783
 N981 N 0.67180 0.12543 0.69943
 C982 C 0.65343 0.09697 0.71046
 H983 H 0.51552 0.09870 0.69570
 H984 H 0.54330 0.04745 0.72383
 H985 H 0.60888 0.18124 0.67522
 H986 H 0.66837 0.07357 0.71765
 C987 C 1.11279 0.61778 0.23503
 C988 C 1.12552 0.58785 0.25213
 C989 C 1.10361 0.55941 0.26012
 C990 C 1.06780 0.56165 0.25111
 C991 C 1.05486 0.59221 0.23351
 C992 C 1.07772 0.62033 0.22545
 C993 C 1.01950 0.59325 0.22396
 N994 N 0.99843 0.56588 0.23242
 N995 N 1.01036 0.53757 0.24962
 C996 C 1.04424 0.53455 0.25929
 H997 H 1.13063 0.63895 0.22867
 H998 H 1.15306 0.58652 0.25844
 H999 H 1.00841 0.61550 0.20987
 H1000 H 1.05232 0.51110 0.27332
 C1001 C 0.91898 0.86850 0.21044
 C1002 C 0.89987 0.89647 0.22499
 C1003 C 0.91346 0.93079 0.22643
 C1004 C 0.94823 0.93605 0.21197
 C1005 C 0.96705 0.90732 0.19564
 C1006 C 0.95251 0.87324 0.19584
 C1007 C 1.00010 0.91357 0.17960
 N1008 N 1.01477 0.94559 0.18213
 N1009 N 0.99866 0.97164 0.19971
 C1010 C 0.96633 0.96785 0.21495
 H1011 H 0.90730 0.84266 0.21057
 H1012 H 0.87340 0.89092 0.23437
 H1013 H 1.01449 0.89332 0.16514
 H1014 H 0.95606 0.98952 0.22999
 C1015 C 0.42760 0.38520 0.71659
 C1016 C 0.41320 0.41092 0.73845
 C1017 C 0.43209 0.44086 0.74681
 C1018 C 0.46636 0.44496 0.73160
 C1019 C 0.48067 0.41903 0.70834
 C1020 C 0.46130 0.38849 0.70147
 C1021 C 0.51374 0.42496 0.69222
 N1022 N 0.53199 0.45382 0.70025
 N1023 N 0.51932 0.47725 0.72310
 C1024 C 0.48728 0.47375 0.73905
 H1025 H 0.41222 0.36222 0.71162
 H1026 H 0.38674 0.40727 0.74887
 H1027 H 0.52518 0.40716 0.67310
 H1028 H 0.47870 0.49349 0.75734
 C1029 C 0.44057 0.61943 0.80738
 C1030 C 0.42203 0.58968 0.79912
 C1031 C 0.43710 0.55565 0.80239
 C1032 C 0.47129 0.55156 0.81544
 C1033 C 0.49040 0.58191 0.82356
 C1034 C 0.47447 0.61610 0.82020
 C1035 C 0.52477 0.57691 0.83527
 N1036 N 0.53831 0.54370 0.83991
 N1037 N 0.51980 0.51523 0.83367
 C1038 C 0.48670 0.51802 0.82183
 H1039 H 0.42756 0.64520 0.80551
 H1040 H 0.39504 0.59321 0.79141
 H1041 H 0.54101 0.59906 0.84068
 H1042 H 0.47272 0.49402 0.81760
 C1043 C -0.07205 0.10523 0.27598
 C1044 C -0.09356 0.07778 0.26746
 C1045 C -0.08292 0.04246 0.27270
 C1046 C -0.05047 0.03470 0.28833
 C1047 C -0.02832 0.06266 0.29671
 C1048 C -0.03968 0.09824 0.29111
 C1049 C 0.00434 0.05403 0.31099
 N1050 N 0.01332 0.01974 0.31773
 N1051 N -0.00812 -0.00642 0.31117
 C1052 C -0.03978 -0.00011 0.29695
 H1053 H -0.08170 0.13223 0.27259
 H1054 H -0.11946 0.08430 0.25807
 H1055 H 0.02280 0.07419 0.31676
 H1056 H -0.05615 -0.02235 0.29222
 C1057 C 0.08811 0.37277 0.27130
 C1058 C 0.10353 0.40562 0.26844
 C1059 C 0.09033 0.43429 0.28781
 C1060 C 0.06018 0.43000 0.30975
 C1061 C 0.04457 0.39641 0.31300
 C1062 C 0.05941 0.36738 0.29418
 C1063 C 0.01586 0.39269 0.33657
 N1064 N 0.00341 0.42092 0.35492
 N1065 N 0.01799 0.45246 0.35168
 C1066 C 0.04606 0.45791 0.32992
 H1067 H 0.10034 0.35066 0.25753
 H1068 H 0.12785 0.40766 0.25336
 H1069 H 0.00320 0.36772 0.34078
 H1070 H 0.05719 0.48393 0.32871
 C1071 C 0.53951 0.91545 0.80149
 C1072 C 0.55410 0.94698 0.78907
 C1073 C 0.58762 0.94691 0.77277
 C1074 C 0.60562 0.91380 0.76672
 C1075 C 0.58955 0.88192 0.77713
 C1076 C 0.55768 0.88298 0.79694
 C1077 C 0.60664 0.84952 0.76861
 N1078 N 0.63877 0.84921 0.75245
 N1079 N 0.65488 0.87910 0.74432
 C1080 C 0.63960 0.91115 0.75115
 H1081 H 0.51507 0.91667 0.81668
 H1082 H 0.54029 0.97184 0.79446
 H1083 H 0.59470 0.82445 0.77469
 H1084 H 0.65428 0.93391 0.74413
 C1085 C 0.69694 0.59337 0.09754
 C1086 C 0.71711 0.60689 0.07002
 C1087 C 0.73995 0.58484 0.05038
 C1088 C 0.74220 0.54831 0.05845
 C1089 C 0.72190 0.53451 0.08672
 C1090 C 0.69959 0.55750 0.10677
 C1091 C 0.72469 0.49805 0.09392
 N1092 N 0.74666 0.47710 0.07428
 N1093 N 0.76593 0.49015 0.04797
 C1094 C 0.76449 0.52504 0.03940
 H1095 H 0.68017 0.61134 0.11268
 H1096 H 0.71615 0.63515 0.06507
 H1097 H 0.70950 0.48598 0.11481
 H1098 H 0.78052 0.53426 0.01766
 C1099 C 0.21576 1.04215 0.60935
 C1100 C 0.23408 1.05416 0.57990
 C1101 C 0.23726 1.09036 0.57332
 C1102 C 0.22069 1.11514 0.59638
 C1103 C 0.20089 1.10287 0.62559
 C1104 C 0.19941 1.06603 0.63267
 C1105 C 0.18209 1.12800 0.64605
 N1106 N 0.18432 1.16296 0.63850
 N1107 N 0.20361 1.17456 0.61162
 C1108 C 0.22168 1.15196 0.59028
 H1109 H 0.21449 1.01392 0.61412
 H1110 H 0.24639 1.03507 0.56239
 H1111 H 0.16502 1.12036 0.66753
 H1112 H 0.23585 1.16315 0.56840
 C1113 C 0.19818 0.96649 0.91027
 C1114 C 0.21578 0.95064 0.93757
 C1115 C 0.23244 0.91726 0.93389
 C1116 C 0.22829 0.89820 0.90283
 C1117 C 0.21108 0.91479 0.87489
 C1118 C 0.19652 0.94936 0.87866
 C1119 C 0.20754 0.89557 0.84441
 N1120 N 0.21909 0.86143 0.84274
 N1121 N 0.23346 0.84510 0.86959
 C1122 C 0.23795 0.86204 0.89962
 H1123 H 0.18624 0.99262 0.91361
 H1124 H 0.21774 0.96536 0.96117
 H1125 H 0.19502 0.90704 0.82214
 H1126 H 0.24787 0.84659 0.92095
 C1127 C 0.68032 0.44145 0.38669
 C1128 C 0.69740 0.42671 0.41488
 C1129 C 0.73292 0.43313 0.41981
 C1130 C 0.75078 0.45694 0.39718
 C1131 C 0.73390 0.47086 0.36770
 C1132 C 0.69830 0.46274 0.36232
 C1133 C 0.75386 0.49138 0.34405
 N1134 N 0.78746 0.49928 0.35087
 N1135 N 0.80259 0.48781 0.37951
 C1136 C 0.78540 0.46698 0.40288
 H1137 H 0.65307 0.43512 0.38316
 H1138 H 0.68329 0.40856 0.43183
 H1139 H 0.74336 0.50103 0.32010
 H1140 H 0.79871 0.45880 0.42592
 C1141 C 0.77514 0.47733 0.56869
 C1142 C 0.76929 0.45947 0.53829
 C1143 C 0.76994 0.42250 0.53783
 C1144 C 0.77409 0.40310 0.56905
 C1145 C 0.78014 0.42121 0.59992
 C1146 C 0.78136 0.45863 0.59944
 C1147 C 0.78618 0.40101 0.63001
 N1148 N 0.78499 0.36524 0.62924
 N1149 N 0.77849 0.34827 0.60041
 C1150 C 0.77307 0.36591 0.57033
 H1151 H 0.77635 0.50592 0.56794
 H1152 H 0.76623 0.47453 0.51456
 H1153 H 0.79188 0.41317 0.65415
 H1154 H 0.76781 0.35068 0.54782
 C1155 C 0.25010 -0.05168 0.10454
 C1156 C 0.24400 -0.06706 0.07276
 C1157 C 0.26446 -0.05786 0.04332
 C1158 C 0.28662 -0.02845 0.04465
 C1159 C 0.29133 -0.01167 0.07641
 C1160 C 0.27561 -0.02577 0.10711
 C1161 C 0.31244 0.01832 0.07657
 N1162 N 0.32827 0.03000 0.04684
 N1163 N 0.32431 0.01383 0.01700
 C1164 C 0.30405 -0.01497 0.01487
 H1165 H 0.23725 -0.06240 0.12760
 H1166 H 0.22667 -0.08933 0.07229
 H1167 H 0.31608 0.03278 0.09999
 H1168 H 0.30112 -0.02667 -0.01014
 C1169 C 0.25200 0.06569 0.39205
 C1170 C 0.24835 0.07879 0.42547
 C1171 C 0.27216 0.06836 0.45068
 C1172 C 0.29784 0.04157 0.44300
 C1173 C 0.30167 0.02826 0.40905
 C1174 C 0.27924 0.04148 0.38311
 C1175 C 0.32905 0.00334 0.40192
 N1176 N 0.35020 -0.00809 0.42744
 N1177 N 0.34607 0.00390 0.45949
 C1178 C 0.32069 0.02838 0.46812
 H1179 H 0.23485 0.07621 0.37246
 H1180 H 0.22866 0.09940 0.43079
 H1181 H 0.33390 -0.00722 0.37641
 H1182 H 0.31836 0.03714 0.49456
 C1183 C 0.76845 0.55534 0.88916
 C1184 C 0.76805 0.56872 0.92257
 C1185 C 0.78602 0.59945 0.92979
 C1186 C 0.80341 0.61799 0.90218
 C1187 C 0.80590 0.60307 0.86882
 C1188 C 0.78741 0.57189 0.86204
 C1189 C 0.82779 0.61955 0.84359
 N1190 N 0.84273 0.65070 0.85030
 N1191 N 0.83777 0.66630 0.88064
 C1192 C 0.81858 0.65115 0.90666
 H1193 H 0.75449 0.53135 0.88455
 H1194 H 0.75435 0.55442 0.94313
 H1195 H 0.83371 0.60800 0.81872
 H1196 H 0.81539 0.66539 0.93042
 C1197 C 0.08519 0.68192 0.57023
 C1198 C 0.05511 0.70187 0.57996
 C1199 C 0.05651 0.73859 0.58460
 C1200 C 0.08816 0.75570 0.57369
 C1201 C 0.11908 0.73531 0.56514
 C1202 C 0.11760 0.69797 0.56393
 C1203 C 0.15062 0.75321 0.55826
 N1204 N 0.15028 0.78902 0.55643
 N1205 N 0.12064 0.80811 0.56111
 C1206 C 0.08960 0.79273 0.56922
 H1207 H 0.08335 0.65347 0.56844
 H1208 H 0.03150 0.68774 0.58607
 H1209 H 0.17551 0.73922 0.55410
 H1210 H 0.06622 0.80956 0.57140
 C1211 C 0.59071 0.19840 1.03304
 C1212 C 0.56098 0.21529 1.04807
 C1213 C 0.55316 0.21160 1.08344
 C1214 C 0.57457 0.18897 1.10375
 C1215 C 0.60441 0.17131 1.08840
 C1216 C 0.61334 0.17733 1.05301
 C1217 C 0.62432 0.14804 1.10912
 N1218 N 0.61545 0.14384 1.14307
 N1219 N 0.58797 0.16115 1.15766
 C1220 C 0.56728 0.18358 1.13921
 H1221 H 0.59693 0.20303 1.00591
 H1222 H 0.54494 0.23276 1.03234
 H1223 H 0.64659 0.13284 1.09864
 H1224 H 0.54516 0.19666 1.15236
 C1225 C 0.89248 0.22553 0.96141
 C1226 C 0.91931 0.24378 0.94398
 C1227 C 0.92499 0.24025 0.90833
 C1228 C 0.90422 0.21677 0.89006
 C1229 C 0.87734 0.19783 0.90781
 C1230 C 0.87073 0.20324 0.94361
 C1231 C 0.85824 0.17361 0.88909
 N1232 N 0.86505 0.16962 0.85481
 N1233 N 0.88980 0.18795 0.83802
 C1234 C 0.90956 0.21131 0.85443
 H1235 H 0.88808 0.22949 0.98885
 H1236 H 0.93503 0.26156 0.95825
 H1237 H 0.83829 0.15744 0.90134
 H1238 H 0.92969 0.22480 0.83956
 C1239 C 0.39355 0.67127 0.43944
 C1240 C 0.42044 0.68844 0.42115
 C1241 C 0.42903 0.72300 0.42933
 C1242 C 0.41175 0.73972 0.45797
 C1243 C 0.38433 0.72231 0.47655
 C1244 C 0.37479 0.68802 0.46667
 C1245 C 0.36666 0.74038 0.50378
 N1246 N 0.37669 0.77316 0.51236
 N1247 N 0.40299 0.78917 0.49543
 C1248 C 0.42081 0.77362 0.46854
 H1249 H 0.38667 0.64498 0.43174
 H1250 H 0.43333 0.67538 0.39927
 H1251 H 0.34492 0.72890 0.51828
 H1252 H 0.44207 0.78777 0.45586
 C1253 C 0.60517 0.78572 0.41343
 C1254 C 0.57367 0.77979 0.39751
 C1255 C 0.54428 0.76736 0.41639
 C1256 C 0.54753 0.75899 0.45193
 C1257 C 0.57987 0.76469 0.46808
 C1258 C 0.60846 0.77943 0.44885
 C1259 C 0.58246 0.75561 0.50318
 N1260 N 0.55421 0.74279 0.52108
 N1261 N 0.52361 0.73845 0.50625
 C1262 C 0.51927 0.74623 0.47241
 H1263 H 0.62661 0.79707 0.39824
 H1264 H 0.57186 0.78603 0.37026
 H1265 H 0.60674 0.75832 0.51646
 H1266 H 0.49380 0.74241 0.46203
 C1267 C 0.09978 0.28721 -0.07256
 C1268 C 0.07102 0.28152 -0.09291
 C1269 C 0.03696 0.29166 -0.08153
 C1270 C 0.03143 0.30579 -0.04817
 C1271 C 0.06057 0.31083 -0.02706
 C1272 C 0.09526 0.30291 -0.04006
 C1273 C 0.05387 0.32348 0.00653
 N1274 N 0.02040 0.33158 0.01756
 N1275 N -0.00680 0.32774 -0.00264
 C1276 C -0.00244 0.31516 -0.03512
 H1277 H 0.12595 0.28086 -0.08302
 H1278 H 0.07552 0.27052 -0.11839
 H1279 H 0.07482 0.32655 0.02427
 H1280 H -0.02546 0.31241 -0.05036
 C1281 C 0.37382 0.24944 0.06782
 C1282 C 0.40748 0.24239 0.07977
 C1283 C 0.43606 0.26230 0.06779
 C1284 C 0.43120 0.28723 0.04068
 C1285 C 0.39695 0.29469 0.02869
 C1286 C 0.36785 0.27634 0.04333
 C1287 C 0.39290 0.32162 0.00360
 N1288 N 0.42147 0.33866 -0.00938
 N1289 N 0.45372 0.33092 0.00124
 C1290 C 0.45956 0.30587 0.02585
 H1291 H 0.35185 0.23541 0.07946
 H1292 H 0.41057 0.22328 0.10056
 H1293 H 0.36745 0.32936 -0.00589
 H1294 H 0.48630 0.30057 0.03350
 C1295 C 0.88916 0.76678 0.55053
 C1296 C 0.92173 0.76018 0.56526
 C1297 C 0.94706 0.78669 0.56579
 C1298 C 0.94098 0.81833 0.54629
 C1299 C 0.90787 0.82493 0.53146
 C1300 C 0.88133 0.79956 0.53509
 C1301 C 0.90220 0.85709 0.51359
 N1302 N 0.92857 0.88038 0.50971
 N1303 N 0.96012 0.87367 0.52248
 C1304 C 0.96730 0.84346 0.54040
 H1305 H 0.86910 0.74703 0.55323
 H1306 H 0.92525 0.73552 0.57934
 H1307 H 0.87726 0.86365 0.50219
 H1308 H 0.99370 0.83906 0.54935
   
