data_POSCAR
  _audit_creation_date              2014-09-24
  _audit_creation_method            'ToBaCCo'
  _symmetry_space_group_name_H-M    'P1'
  _symmetry_Int_Tables_number       1
  _symmetry_cell_setting            triclinic
  loop_
  _symmetry_equiv_pos_as_xyz
 x,y,z
_cell_length_a 66.7113
_cell_length_b 66.3984
_cell_length_c 69.8204
_cell_angle_alpha 90.286100
_cell_angle_beta 90.304800
_cell_angle_gamma 89.793000
loop_
  _atom_site_label
  _atom_site_type_symbol
  _atom_site_fract_x
  _atom_site_fract_y
  _atom_site_fract_z
N1 N 0.37338 0.31600 0.33684
 N2 N 0.36752 0.32296 0.32013
 C3 C 0.37973 0.31573 0.30643
 C4 C 0.39410 0.30354 0.31496
 C5 C 0.38979 0.30443 0.33438
 H6 H 0.37854 0.31941 0.29140
 H7 H 0.39817 0.29754 0.34593
 Cu8 Cu 0.34580 0.34235 0.31792
 Cu9 Cu 0.35909 0.32238 0.36041
 Cu10 Cu 0.31564 0.35055 0.35527
 N11 N 0.32916 0.36642 0.31963
 N12 N 0.31764 0.36987 0.33449
 C13 C 0.30774 0.38736 0.33193
 C14 C 0.31358 0.39548 0.31459
 C15 C 0.32692 0.38154 0.30703
 H16 H 0.29693 0.39358 0.34184
 H17 H 0.33412 0.38209 0.29320
 N18 N 0.32177 0.33505 0.37841
 N19 N 0.33844 0.32454 0.38058
 C20 C 0.33759 0.31457 0.39733
 C21 C 0.31967 0.31934 0.40621
 C22 C 0.30996 0.33222 0.39370
 H23 H 0.34876 0.30395 0.40231
 H24 H 0.29497 0.33827 0.39520
 H25 H 0.33254 0.32530 0.34594
 H26 H 0.34558 0.34935 0.35224
 N27 N 0.37063 0.81543 -0.16809
 N28 N 0.36715 0.82589 -0.18366
 C29 C 0.38054 0.82053 -0.19711
 C30 C 0.39297 0.80552 -0.18972
 C31 C 0.38643 0.80322 -0.17099
 H32 H 0.38073 0.82667 -0.21142
 H33 H 0.39293 0.79385 -0.15996
 Cu34 Cu 0.34535 0.84537 -0.18491
 Cu35 Cu 0.35297 0.81676 -0.14616
 Cu36 Cu 0.32115 0.85784 -0.14405
 N37 N 0.32969 0.86997 -0.18260
 N38 N 0.32026 0.87479 -0.16676
 C39 C 0.31046 0.89233 -0.16937
 C40 C 0.31434 0.89924 -0.18775
 C41 C 0.32637 0.88434 -0.19577
 H42 H 0.30150 0.89970 -0.15854
 H43 H 0.33156 0.88342 -0.21039
 N44 N 0.32434 0.83857 -0.12277
 N45 N 0.33660 0.82296 -0.12364
 C46 C 0.33440 0.81179 -0.10779
 C47 C 0.32023 0.82085 -0.09622
 C48 C 0.31401 0.83771 -0.10626
 H49 H 0.34164 0.79742 -0.10533
 H50 H 0.30217 0.84802 -0.10220
 H51 H 0.32768 0.83123 -0.15745
 H52 H 0.34949 0.84729 -0.15038
 N53 N 0.87847 0.32735 -0.16322
 N54 N 0.87351 0.33423 -0.18022
 C55 C 0.88784 0.32930 -0.19283
 C56 C 0.90309 0.31936 -0.18319
 C57 C 0.89644 0.31808 -0.16441
 H58 H 0.88717 0.33268 -0.20796
 H59 H 0.90407 0.31092 -0.15254
 Cu60 Cu 0.84979 0.35044 -0.18429
 Cu61 Cu 0.86084 0.33105 -0.14115
 Cu62 Cu 0.81430 0.35240 -0.15096
 N63 N 0.83034 0.37221 -0.18369
 N64 N 0.81609 0.37285 -0.17082
 C65 C 0.80445 0.38910 -0.17401
 C66 C 0.81221 0.39967 -0.18945
 C67 C 0.82845 0.38811 -0.19540
 H68 H 0.79165 0.39318 -0.16536
 H69 H 0.83768 0.39043 -0.20787
 N70 N 0.82025 0.33790 -0.12718
 N71 N 0.83806 0.33029 -0.12305
 C72 C 0.83716 0.32142 -0.10574
 C73 C 0.81797 0.32389 -0.09858
 C74 C 0.80761 0.33413 -0.11273
 H75 H 0.84942 0.31339 -0.09899
 H76 H 0.79189 0.33816 -0.11268
 H77 H 0.83604 0.33035 -0.15830
 H78 H 0.84428 0.35584 -0.15018
 N79 N 0.87695 0.81979 0.33384
 N80 N 0.87491 0.83117 0.31861
 C81 C 0.88898 0.82591 0.30574
 C82 C 0.90042 0.81031 0.31329
 C83 C 0.89266 0.80734 0.33144
 H84 H 0.89044 0.83250 0.29169
 H85 H 0.89774 0.79665 0.34206
 Cu86 Cu 0.85344 0.85113 0.31705
 Cu87 Cu 0.85681 0.81936 0.35390
 Cu88 Cu 0.83013 0.86387 0.35793
 N89 N 0.83345 0.87261 0.31784
 N90 N 0.82441 0.87746 0.33389
 C91 C 0.81118 0.89236 0.33054
 C92 C 0.81147 0.89689 0.31115
 C93 C 0.82626 0.88433 0.30368
 H94 H 0.80246 0.89968 0.34160
 H95 H 0.83091 0.88330 0.28890
 N96 N 0.83006 0.84287 0.37778
 N97 N 0.83944 0.82546 0.37577
 C98 C 0.83352 0.81292 0.38968
 C99 C 0.81948 0.82278 0.40083
 C100 C 0.81806 0.84193 0.39319
 H101 H 0.83813 0.79735 0.39095
 H102 H 0.80809 0.85389 0.39777
 H103 H 0.83366 0.83753 0.34295
 H104 H 0.85741 0.84937 0.35179
 N105 N 0.63047 0.68780 0.33598
 N106 N 0.62848 0.67317 0.32338
 C107 C 0.61310 0.67751 0.31155
 C108 C 0.60513 0.69597 0.31687
 C109 C 0.61632 0.70188 0.33270
 H110 H 0.60824 0.66812 0.29971
 H111 H 0.61443 0.71543 0.34117
 Cu112 Cu 0.64667 0.65025 0.32328
 Cu113 Cu 0.65253 0.68811 0.35438
 Cu114 Cu 0.67124 0.64045 0.36435
 N115 N 0.66299 0.62621 0.32625
 N116 N 0.67227 0.62213 0.34244
 C117 C 0.68218 0.60451 0.34056
 C118 C 0.67882 0.59715 0.32222
 C119 C 0.66683 0.61150 0.31349
 H120 H 0.69145 0.59778 0.35157
 H121 H 0.66171 0.61145 0.29877
 N122 N 0.67598 0.66411 0.38102
 N123 N 0.66962 0.68238 0.37668
 C124 C 0.67705 0.69557 0.38952
 C125 C 0.68890 0.68520 0.40247
 C126 C 0.68754 0.66519 0.39688
 H127 H 0.67444 0.71165 0.38923
 H128 H 0.69482 0.65244 0.40356
 H129 H 0.67112 0.66403 0.34576
 H130 H 0.64655 0.65867 0.35736
 N131 N 0.62062 0.17139 -0.15216
 N132 N 0.62282 0.15892 -0.16669
 C133 C 0.60821 0.16230 -0.17962
 C134 C 0.59600 0.17752 -0.17273
 C135 C 0.60443 0.18311 -0.15534
 H136 H 0.60685 0.15468 -0.19329
 H137 H 0.59939 0.19504 -0.14589
 Cu138 Cu 0.64474 0.13976 -0.16758
 Cu139 Cu 0.63935 0.17146 -0.13057
 Cu140 Cu 0.68486 0.14776 -0.13992
 N141 N 0.66574 0.11965 -0.16524
 N142 N 0.68171 0.12287 -0.15462
 C143 C 0.69456 0.10736 -0.15684
 C144 C 0.68598 0.09333 -0.16928
 C145 C 0.66775 0.10198 -0.17446
 H146 H 0.70908 0.10649 -0.14995
 H147 H 0.65737 0.09666 -0.18528
 N148 N 0.68135 0.16796 -0.11948
 N149 N 0.66381 0.17603 -0.11518
 C150 C 0.66620 0.18869 -0.10023
 C151 C 0.68632 0.18905 -0.09522
 C152 C 0.69538 0.17544 -0.10753
 H153 H 0.65420 0.19721 -0.09365
 H154 H 0.71110 0.17140 -0.10784
 H155 H 0.66161 0.16662 -0.14983
 H156 H 0.65549 0.14461 -0.13445
 N157 N 0.12493 0.67858 -0.16742
 N158 N 0.12047 0.66074 -0.17441
 C159 C 0.10460 0.66240 -0.18626
 C160 C 0.09934 0.68259 -0.18754
 C161 C 0.11239 0.69232 -0.17504
 H162 H 0.09767 0.64983 -0.19360
 H163 H 0.11298 0.70830 -0.17202
 Cu164 Cu 0.13768 0.63770 -0.16973
 Cu165 Cu 0.14690 0.68239 -0.14926
 Cu166 Cu 0.17432 0.63985 -0.13676
 N167 N 0.16014 0.61902 -0.17016
 N168 N 0.17409 0.61928 -0.15682
 C169 C 0.18734 0.60438 -0.16032
 C170 C 0.18141 0.59426 -0.17684
 C171 C 0.16428 0.60433 -0.18286
 H172 H 0.20054 0.60141 -0.15171
 H173 H 0.15571 0.60159 -0.19580
 N174 N 0.17708 0.66591 -0.12337
 N175 N 0.16616 0.68188 -0.12769
 C176 C 0.17081 0.69691 -0.11548
 C177 C 0.18614 0.69049 -0.10346
 C178 C 0.18946 0.67060 -0.10874
 H179 H 0.16331 0.71137 -0.11519
 H180 H 0.20018 0.66030 -0.10243
 H181 H 0.16505 0.65838 -0.15774
 H182 H 0.14583 0.65357 -0.13898
 N183 N 0.12132 0.18199 0.34287
 N184 N 0.12192 0.16780 0.32969
 C185 C 0.10560 0.16936 0.31839
 C186 C 0.09390 0.18519 0.32498
 C187 C 0.10452 0.19302 0.34042
 H188 H 0.10294 0.16042 0.30565
 H189 H 0.10071 0.20624 0.34878
 Cu190 Cu 0.14515 0.15024 0.32735
 Cu191 Cu 0.14365 0.18647 0.36062
 Cu192 Cu 0.17720 0.14638 0.36403
 N193 N 0.16806 0.13215 0.32615
 N194 N 0.18113 0.13134 0.34028
 C195 C 0.19574 0.11817 0.33571
 C196 C 0.19176 0.11042 0.31761
 C197 C 0.17378 0.11933 0.31222
 H198 H 0.20826 0.11439 0.34494
 H199 H 0.16530 0.11638 0.29928
 N200 N 0.17552 0.16806 0.38331
 N201 N 0.16328 0.18364 0.38173
 C202 C 0.16675 0.19642 0.39641
 C203 C 0.18171 0.18837 0.40792
 C204 C 0.18705 0.17050 0.39902
 H205 H 0.15937 0.21082 0.39829
 H206 H 0.19889 0.16032 0.40339
 H207 H 0.16712 0.16990 0.34826
 H208 H 0.14733 0.15631 0.36175
 N209 N 0.63402 0.30969 0.67093
 N210 N 0.63169 0.32550 0.68208
 C211 C 0.61677 0.32205 0.69445
 C212 C 0.60975 0.30274 0.69135
 C213 C 0.62083 0.29540 0.67608
 H214 H 0.61154 0.33272 0.70507
 H215 H 0.61955 0.28075 0.66936
 Cu216 Cu 0.64961 0.34825 0.68067
 Cu217 Cu 0.65431 0.30935 0.65090
 Cu218 Cu 0.66986 0.35749 0.63795
 N219 N 0.66577 0.37185 0.67654
 N220 N 0.67323 0.37608 0.65965
 C221 C 0.68283 0.39390 0.66082
 C222 C 0.68119 0.40113 0.67947
 C223 C 0.67068 0.38643 0.68905
 H224 H 0.69058 0.40095 0.64906
 H225 H 0.66714 0.38618 0.70413
 N226 N 0.67239 0.33361 0.62096
 N227 N 0.66736 0.31530 0.62641
 C228 C 0.67190 0.30213 0.61241
 C229 C 0.67978 0.31259 0.59713
 C230 C 0.68020 0.33252 0.60320
 H231 H 0.66989 0.28602 0.61341
 H232 H 0.68608 0.34519 0.59539
 H233 H 0.67257 0.33454 0.65679
 H234 H 0.64678 0.33859 0.64708
 N235 N 0.62079 0.81705 1.16148
 N236 N 0.62127 0.83142 1.17445
 C237 C 0.60486 0.83012 1.18548
 C238 C 0.59346 0.81396 1.17916
 C239 C 0.60426 0.80586 1.16404
 H240 H 0.60189 0.83968 1.19773
 H241 H 0.60096 0.79218 1.15619
 Cu242 Cu 0.64445 0.84877 1.17739
 Cu243 Cu 0.64256 0.81308 1.14347
 Cu244 Cu 0.67590 0.85290 1.14003
 N245 N 0.66261 0.87126 1.17502
 N246 N 0.67376 0.87376 1.15978
 C247 C 0.68409 0.89105 1.16173
 C248 C 0.67916 0.89990 1.17918
 C249 C 0.66580 0.88653 1.18734
 H250 H 0.69488 0.89647 1.15149
 H251 H 0.65934 0.88743 1.20148
 N252 N 0.67564 0.82989 1.12190
 N253 N 0.66254 0.81510 1.12299
 C254 C 0.66646 0.80145 1.10921
 C255 C 0.68346 0.80736 1.09951
 C256 C 0.68862 0.82569 1.10769
 H257 H 0.65784 0.78793 1.10670
 H258 H 0.70136 0.83488 1.10397
 H259 H 0.66617 0.82919 1.15602
 H260 H 0.64642 0.84371 1.14296
 N261 N 0.12218 0.31995 1.17077
 N262 N 0.12202 0.33588 1.18201
 C263 C 0.10746 0.33376 1.19513
 C264 C 0.09847 0.31519 1.19229
 C265 C 0.10798 0.30702 1.17650
 H266 H 0.10402 0.34463 1.20623
 H267 H 0.10524 0.29243 1.17007
 Cu268 Cu 0.14278 0.35629 1.18004
 Cu269 Cu 0.14204 0.31629 1.15076
 Cu270 Cu 0.16969 0.35887 1.13972
 N271 N 0.16391 0.37613 1.17701
 N272 N 0.17385 0.37759 1.16088
 C273 C 0.18724 0.39261 1.16240
 C274 C 0.18627 0.40048 1.18078
 C275 C 0.17103 0.38986 1.18953
 H276 H 0.19714 0.39723 1.15101
 H277 H 0.16582 0.39178 1.20407
 N278 N 0.16990 0.33415 1.12400
 N279 N 0.15886 0.31825 1.12781
 C280 C 0.16268 0.30380 1.11475
 C281 C 0.17772 0.31046 1.10275
 C282 C 0.18160 0.32995 1.10885
 H283 H 0.15524 0.28937 1.11422
 H284 H 0.19268 0.34009 1.10311
 H285 H 0.16442 0.33670 1.15907
 H286 H 0.14165 0.34626 1.14632
 N287 N 0.12791 0.81962 0.66244
 N288 N 0.12833 0.83272 0.67659
 C289 C 0.11234 0.82976 0.68788
 C290 C 0.10129 0.81386 0.68049
 C291 C 0.11193 0.80755 0.66452
 H292 H 0.10920 0.83832 0.70075
 H293 H 0.10869 0.79473 0.65542
 Cu294 Cu 0.15035 0.85148 0.67980
 Cu295 Cu 0.14837 0.81906 0.64273
 Cu296 Cu 0.18055 0.85986 0.64253
 N297 N 0.16637 0.87571 0.67810
 N298 N 0.17697 0.87974 0.66282
 C299 C 0.18605 0.89764 0.66529
 C300 C 0.18092 0.90526 0.68316
 C301 C 0.16868 0.89064 0.69098
 H302 H 0.19628 0.90423 0.65514
 H303 H 0.16254 0.89040 0.70528
 N304 N 0.17957 0.83982 0.62162
 N305 N 0.16688 0.82462 0.62148
 C306 C 0.16992 0.81350 0.60560
 C307 C 0.18541 0.82193 0.59526
 C308 C 0.19135 0.83844 0.60607
 H309 H 0.16189 0.79985 0.60209
 H310 H 0.20397 0.84815 0.60329
 H311 H 0.17160 0.83407 0.65616
 H312 H 0.15145 0.84972 0.64511
 N313 N 0.37310 0.68163 0.65832
 N314 N 0.37201 0.67073 0.67392
 C315 C 0.38765 0.67523 0.68542
 C316 C 0.39898 0.68993 0.67661
 C317 C 0.38953 0.69328 0.65922
 H318 H 0.39019 0.66891 0.69948
 H319 H 0.39384 0.70398 0.64838
 Cu320 Cu 0.34958 0.65262 0.67828
 Cu321 Cu 0.35144 0.68227 0.63971
 Cu322 Cu 0.31929 0.64159 0.64060
 N323 N 0.33229 0.62913 0.67804
 N324 N 0.32132 0.62425 0.66303
 C325 C 0.31121 0.60722 0.66686
 C326 C 0.31624 0.60097 0.68519
 C327 C 0.32940 0.61549 0.69193
 H328 H 0.30062 0.60012 0.65721
 H329 H 0.33605 0.61631 0.70607
 N330 N 0.31942 0.66150 0.61961
 N331 N 0.33136 0.67730 0.61967
 C332 C 0.32634 0.68941 0.60503
 C333 C 0.31026 0.68106 0.59540
 C334 C 0.30651 0.66312 0.60477
 H335 H 0.33322 0.70378 0.60207
 H336 H 0.29472 0.65250 0.60148
 H337 H 0.32792 0.66768 0.65380
 H338 H 0.34840 0.65172 0.64350
 N339 N 0.37709 0.17625 1.15918
 N340 N 0.37838 0.16175 1.17187
 C341 C 0.39506 0.16442 1.18249
 C342 C 0.40493 0.18135 1.17593
 C343 C 0.39291 0.18860 1.16125
 H344 H 0.39916 0.15540 1.19477
 H345 H 0.39509 0.20227 1.15318
 Cu346 Cu 0.35700 0.14212 1.17442
 Cu347 Cu 0.35365 0.17935 1.14269
 Cu348 Cu 0.32645 0.13523 1.13673
 N349 N 0.33637 0.12152 1.17461
 N350 N 0.32456 0.11870 1.15970
 C351 C 0.31162 0.10376 1.16358
 C352 C 0.31521 0.09724 1.18210
 C353 C 0.33122 0.10862 1.18855
 H354 H 0.30022 0.09833 1.15379
 H355 H 0.33824 0.10784 1.20252
 N356 N 0.32416 0.15843 1.11924
 N357 N 0.33399 0.17544 1.12196
 C358 C 0.32790 0.18895 1.10885
 C359 C 0.31328 0.18017 1.09753
 C360 C 0.31152 0.16069 1.10429
 H361 H 0.33326 0.20426 1.10792
 H362 H 0.30133 0.14923 1.09910
 H363 H 0.33260 0.15918 1.15401
 H364 H 0.35440 0.14921 1.14022
 N365 N 0.87930 0.67269 1.15957
 N366 N 0.87456 0.66654 1.17683
 C367 C 0.88796 0.67381 1.18951
 C368 C 0.90170 0.68531 1.17968
 C369 C 0.89601 0.68394 1.16064
 H370 H 0.88758 0.67127 1.20479
 H371 H 0.90321 0.69094 1.14853
 Cu372 Cu 0.85129 0.64975 1.18115
 Cu373 Cu 0.86270 0.66647 1.13731
 Cu374 Cu 0.81514 0.64927 1.14789
 N375 N 0.83013 0.62972 1.18150
 N376 N 0.81621 0.62913 1.16813
 C377 C 0.80383 0.61362 1.17157
 C378 C 0.81050 0.60380 1.18791
 C379 C 0.82696 0.61480 1.19405
 H380 H 0.79095 0.60977 1.16283
 H381 H 0.83585 0.61231 1.20682
 N382 N 0.82145 0.66331 1.12403
 N383 N 0.83988 0.66833 1.11932
 C384 C 0.83938 0.67815 1.10251
 C385 C 0.81956 0.68018 1.09680
 C386 C 0.80867 0.67015 1.11059
 H387 H 0.85241 0.68428 1.09551
 H388 H 0.79254 0.66873 1.11123
 H389 H 0.83838 0.66970 1.15469
 H390 H 0.84451 0.64333 1.14722
 N391 N 0.86697 0.18344 0.67107
 N392 N 0.86637 0.17013 0.68493
 C393 C 0.88251 0.17253 0.69632
 C394 C 0.89406 0.18799 0.68903
 C395 C 0.88353 0.19479 0.67317
 H396 H 0.88541 0.16400 0.70920
 H397 H 0.88753 0.20716 0.66393
 Cu398 Cu 0.84413 0.15141 0.68714
 Cu399 Cu 0.84557 0.18540 0.65203
 Cu400 Cu 0.82172 0.13958 0.64551
 N401 N 0.82442 0.12998 0.68544
 N402 N 0.81638 0.12478 0.66893
 C403 C 0.80425 0.10890 0.67153
 C404 C 0.80405 0.10436 0.69088
 C405 C 0.81732 0.11786 0.69921
 H406 H 0.79622 0.10126 0.66014
 H407 H 0.82153 0.11873 0.71417
 N408 N 0.82065 0.16152 0.62656
 N409 N 0.82895 0.17930 0.62948
 C410 C 0.82325 0.19187 0.61540
 C411 C 0.81044 0.18161 0.60321
 C412 C 0.80943 0.16230 0.61049
 H413 H 0.82740 0.20757 0.61453
 H414 H 0.80041 0.15002 0.60502
 H415 H 0.82333 0.16529 0.66163
 H416 H 0.84776 0.15538 0.65253
 N417 N 0.32515 0.37434 0.66729
 N418 N 0.33646 0.37108 0.68242
 C419 C 0.33393 0.38626 0.69501
 C420 C 0.32061 0.40006 0.68718
 C421 C 0.31511 0.39178 0.66967
 H422 H 0.34091 0.38696 0.70901
 H423 H 0.30434 0.39782 0.65957
 Cu424 Cu 0.35359 0.34743 0.68428
 Cu425 Cu 0.32318 0.35469 0.64666
 Cu426 Cu 0.36407 0.32266 0.64318
 N427 N 0.37722 0.33061 0.68168
 N428 N 0.38208 0.32208 0.66532
 C429 C 0.39975 0.31243 0.66747
 C430 C 0.40640 0.31520 0.68617
 C431 C 0.39142 0.32647 0.69482
 H432 H 0.40706 0.30374 0.65637
 H433 H 0.39072 0.33112 0.70967
 N434 N 0.34359 0.32527 0.62274
 N435 N 0.32788 0.33729 0.62430
 C436 C 0.31573 0.33447 0.60911
 C437 C 0.32422 0.32009 0.59726
 C438 C 0.34177 0.31441 0.60646
 H439 H 0.30124 0.34158 0.60727
 H440 H 0.35197 0.30262 0.60200
 H441 H 0.33811 0.32925 0.65746
 H442 H 0.35352 0.35116 0.64971
 N443 N 0.31050 0.87106 0.16766
 N444 N 0.31921 0.86645 0.18399
 C445 C 0.31372 0.87994 0.19744
 C446 C 0.30063 0.89359 0.18914
 C447 C 0.29914 0.88766 0.17016
 H448 H 0.31894 0.87994 0.21213
 H449 H 0.29052 0.89496 0.15900
 Cu450 Cu 0.33766 0.84391 0.18621
 Cu451 Cu 0.31385 0.85466 0.14468
 Cu452 Cu 0.34945 0.81681 0.14721
 N453 N 0.36227 0.82824 0.18484
 N454 N 0.36748 0.81868 0.16912
 C455 C 0.38541 0.80978 0.17191
 C456 C 0.39189 0.81407 0.19039
 C457 C 0.37653 0.82549 0.19827
 H458 H 0.39299 0.80054 0.16138
 H459 H 0.37552 0.83103 0.21283
 N460 N 0.33264 0.82127 0.12440
 N461 N 0.31937 0.83601 0.12325
 C462 C 0.30933 0.83429 0.10654
 C463 C 0.31669 0.81775 0.09665
 C464 C 0.33133 0.80976 0.10853
 H465 H 0.29684 0.84370 0.10228
 H466 H 0.33954 0.79588 0.10628
 H467 H 0.32244 0.82840 0.15777
 H468 H 0.34287 0.84654 0.15193
 N469 N 0.83022 0.38970 0.15609
 N470 N 0.83981 0.38659 0.17230
 C471 C 0.83179 0.39832 0.18604
 C472 C 0.81621 0.40931 0.17806
 C473 C 0.81601 0.40385 0.15887
 H474 H 0.83661 0.39847 0.20086
 H475 H 0.80594 0.40930 0.14784
 Cu476 Cu 0.86157 0.36719 0.17403
 Cu477 Cu 0.83534 0.37293 0.13358
 Cu478 Cu 0.85445 0.32628 0.14682
 N479 N 0.87819 0.34348 0.17710
 N480 N 0.87524 0.32726 0.16660
 C481 C 0.88772 0.31259 0.17264
 C482 C 0.89894 0.32004 0.18782
 C483 C 0.89273 0.33981 0.19004
 H484 H 0.88826 0.29750 0.16674
 H485 H 0.89810 0.35057 0.20054
 N486 N 0.83888 0.33073 0.12305
 N487 N 0.83293 0.34875 0.11741
 C488 C 0.82254 0.34691 0.10093
 C489 C 0.82128 0.32666 0.09632
 C490 C 0.83220 0.31690 0.11041
 H491 H 0.81554 0.35931 0.09343
 H492 H 0.83445 0.30082 0.11170
 H493 H 0.83677 0.35103 0.15349
 H494 H 0.86084 0.35528 0.14073
 N495 N 0.82267 0.88260 0.65959
 N496 N 0.82886 0.87608 0.67636
 C497 C 0.82066 0.88753 0.69021
 C498 C 0.80860 0.90198 0.68167
 C499 C 0.81063 0.89868 0.66217
 H500 H 0.82337 0.88561 0.70538
 H501 H 0.80389 0.90728 0.65069
 Cu502 Cu 0.84803 0.85413 0.67866
 Cu503 Cu 0.82992 0.86908 0.63584
 Cu504 Cu 0.85625 0.82453 0.64059
 N505 N 0.87175 0.83709 0.67694
 N506 N 0.87557 0.82633 0.66155
 C507 C 0.89299 0.81640 0.66406
 C508 C 0.90061 0.82119 0.68206
 C509 C 0.88637 0.83404 0.68994
 H510 H 0.89937 0.80607 0.65371
 H511 H 0.88623 0.84021 0.70430
 N512 N 0.84000 0.83073 0.61790
 N513 N 0.83084 0.84820 0.61560
 C514 C 0.81925 0.84722 0.59977
 C515 C 0.82064 0.82795 0.59221
 C516 C 0.83430 0.81807 0.60382
 H517 H 0.80940 0.85916 0.59496
 H518 H 0.83863 0.80238 0.60287
 H519 H 0.83143 0.84204 0.64994
 H520 H 0.85600 0.85443 0.64460
 N521 N 0.67839 0.62523 0.65510
 N522 N 0.66671 0.62693 0.67011
 C523 C 0.67096 0.61190 0.68237
 C524 C 0.68613 0.60011 0.67461
 C525 C 0.69066 0.60932 0.65741
 H526 H 0.66391 0.60994 0.69615
 H527 H 0.70250 0.60529 0.64757
 Cu528 Cu 0.64847 0.64973 0.67258
 Cu529 Cu 0.67671 0.64360 0.63354
 Cu530 Cu 0.65360 0.68925 0.64356
 N531 N 0.62956 0.67210 0.67333
 N532 N 0.63132 0.68729 0.66147
 C533 C 0.61701 0.70103 0.66531
 C534 C 0.60603 0.69441 0.68085
 C535 C 0.61422 0.67580 0.68532
 H536 H 0.61497 0.71494 0.65753
 H537 H 0.60966 0.66599 0.69681
 N538 N 0.67182 0.68522 0.62173
 N539 N 0.67972 0.66753 0.61741
 C540 C 0.69144 0.66949 0.60193
 C541 C 0.69143 0.68950 0.59656
 C542 C 0.67849 0.69897 0.60920
 H543 H 0.69979 0.65731 0.59536
 H544 H 0.67461 0.71479 0.60947
 H545 H 0.67320 0.66648 0.65270
 H546 H 0.65008 0.65961 0.63903
 N547 N 0.68019 0.12502 0.15642
 N548 N 0.66788 0.12598 0.17101
 C549 C 0.67207 0.11077 0.18308
 C550 C 0.68789 0.09963 0.17566
 C551 C 0.69285 0.10942 0.15885
 H552 H 0.66439 0.10813 0.19643
 H553 H 0.70511 0.10590 0.14931
 Cu554 Cu 0.64839 0.14770 0.17313
 Cu555 Cu 0.67824 0.14362 0.13503
 Cu556 Cu 0.65295 0.18818 0.14509
 N557 N 0.62814 0.16881 0.17294
 N558 N 0.62977 0.18460 0.16178
 C559 C 0.61425 0.19717 0.16508
 C560 C 0.60207 0.18865 0.17889
 C561 C 0.61162 0.17082 0.18375
 H562 H 0.61218 0.21161 0.15822
 H563 H 0.60723 0.16045 0.19484
 N564 N 0.67199 0.18524 0.12365
 N565 N 0.68060 0.16791 0.11927
 C566 C 0.69243 0.17045 0.10395
 C567 C 0.69180 0.19050 0.09873
 C568 C 0.67834 0.19937 0.11130
 H569 H 0.70124 0.15863 0.09735
 H570 H 0.67382 0.21502 0.11162
 H571 H 0.67317 0.16598 0.15442
 H572 H 0.65084 0.15850 0.13989
 N573 N 0.18734 0.62770 0.15823
 N574 N 0.17708 0.63050 0.17404
 C575 C 0.18289 0.61681 0.18709
 C576 C 0.19771 0.60482 0.17914
 C577 C 0.19986 0.61194 0.16062
 H578 H 0.17680 0.61562 0.20137
 H579 H 0.20975 0.60609 0.14969
 Cu580 Cu 0.15661 0.65125 0.17620
 Cu581 Cu 0.18482 0.64581 0.13644
 Cu582 Cu 0.14558 0.67983 0.13812
 N583 N 0.13140 0.66592 0.17428
 N584 N 0.12688 0.67675 0.15915
 C585 C 0.10930 0.68622 0.16213
 C586 C 0.10230 0.68085 0.18001
 C587 C 0.11682 0.66809 0.18739
 H588 H 0.10249 0.69690 0.15240
 H589 H 0.11720 0.66165 0.20159
 N590 N 0.16424 0.67831 0.11645
 N591 N 0.17967 0.66581 0.11612
 C592 C 0.19154 0.67062 0.10129
 C593 C 0.18327 0.68703 0.09196
 C594 C 0.16567 0.69110 0.10163
 H595 H 0.20580 0.66357 0.09818
 H596 H 0.15527 0.70325 0.09871
 H597 H 0.17251 0.67002 0.15041
 H598 H 0.15467 0.65037 0.14150
 N599 N 0.17771 0.12681 0.66182
 N600 N 0.16212 0.12555 0.67315
 C601 C 0.16627 0.11267 0.68743
 C602 C 0.18578 0.10584 0.68533
 C603 C 0.19245 0.11486 0.66865
 H604 H 0.15572 0.10838 0.69837
 H605 H 0.20690 0.11284 0.66194
 Cu606 Cu 0.13791 0.14106 0.66859
 Cu607 Cu 0.17677 0.14305 0.63857
 Cu608 Cu 0.14260 0.18240 0.64145
 N609 N 0.11776 0.16214 0.66862
 N610 N 0.11937 0.17818 0.65781
 C611 C 0.10402 0.19078 0.66162
 C612 C 0.09212 0.18215 0.67559
 C613 C 0.10156 0.16409 0.67985
 H614 H 0.10212 0.20550 0.65529
 H615 H 0.09766 0.15371 0.69111
 N616 N 0.16409 0.18118 0.62210
 N617 N 0.17676 0.16593 0.62070
 C618 C 0.18909 0.16913 0.60582
 C619 C 0.18378 0.18716 0.59726
 C620 C 0.16809 0.19452 0.60819
 H621 H 0.20110 0.15913 0.60153
 H622 H 0.16027 0.20866 0.60621
 H623 H 0.16298 0.16351 0.65536
 H624 H 0.14661 0.15230 0.63637
 N625 N 0.32655 0.62077 0.33980
 N626 N 0.33690 0.62492 0.32437
 C627 C 0.33313 0.61091 0.31088
 C628 C 0.32003 0.59693 0.31839
 C629 C 0.31596 0.60382 0.33672
 H630 H 0.33927 0.61097 0.29658
 H631 H 0.30592 0.59712 0.34697
 Cu632 Cu 0.35492 0.64774 0.32338
 Cu633 Cu 0.32742 0.63794 0.36249
 Cu634 Cu 0.35180 0.68357 0.35699
 N635 N 0.37608 0.66745 0.32697
 N636 N 0.37503 0.68138 0.34035
 C637 C 0.39108 0.69353 0.33903
 C638 C 0.40298 0.68668 0.32413
 C639 C 0.39276 0.67028 0.31663
 H640 H 0.39358 0.70670 0.34789
 H641 H 0.39672 0.66159 0.30406
 N642 N 0.33276 0.67848 0.37771
 N643 N 0.32396 0.66092 0.38022
 C644 C 0.31139 0.66240 0.39520
 C645 C 0.31213 0.68192 0.40219
 C646 C 0.32607 0.69158 0.39097
 H647 H 0.30199 0.65034 0.40030
 H648 H 0.33058 0.70718 0.39209
 H649 H 0.33100 0.66271 0.34563
 H650 H 0.35419 0.65344 0.35792
 N651 N 0.31746 0.12935 0.83919
 N652 N 0.33305 0.12775 0.82791
 C653 C 0.33183 0.11039 0.81799
 C654 C 0.31428 0.10062 0.82303
 C655 C 0.30539 0.11344 0.83631
 H656 H 0.34251 0.10568 0.80726
 H657 H 0.29077 0.11196 0.84273
 Cu658 Cu 0.35152 0.14996 0.82473
 Cu659 Cu 0.31397 0.15208 0.85654
 Cu660 Cu 0.35326 0.18616 0.85829
 N661 N 0.37359 0.16879 0.82623
 N662 N 0.37459 0.18264 0.83970
 C663 C 0.39108 0.19388 0.83700
 C664 C 0.40102 0.18653 0.82106
 C665 C 0.38930 0.17080 0.81444
 H666 H 0.39522 0.20681 0.84561
 H667 H 0.39168 0.16194 0.80160
 N668 N 0.33217 0.18525 0.87784
 N669 N 0.31731 0.17219 0.87721
 C670 C 0.30573 0.17487 0.89275
 C671 C 0.31370 0.19033 0.90373
 C672 C 0.33023 0.19679 0.89363
 H673 H 0.29248 0.16619 0.89591
 H674 H 0.33994 0.20923 0.89736
 H675 H 0.33029 0.17386 0.84265
 H676 H 0.34457 0.15606 0.85820
 N677 N 0.82336 0.62315 0.83263
 N678 N 0.83429 0.62733 0.81757
 C679 C 0.83158 0.61293 0.80419
 C680 C 0.81834 0.59888 0.81128
 C681 C 0.81323 0.60597 0.82928
 H682 H 0.83814 0.61302 0.79006
 H683 H 0.80250 0.59939 0.83896
 Cu684 Cu 0.85011 0.65176 0.81606
 Cu685 Cu 0.82181 0.64123 0.85467
 Cu686 Cu 0.85481 0.68122 0.85519
 N687 N 0.87102 0.67192 0.81828
 N688 N 0.87333 0.68284 0.83387
 C689 C 0.88888 0.69542 0.83152
 C690 C 0.89639 0.69263 0.81324
 C691 C 0.88489 0.67734 0.80538
 H692 H 0.89422 0.70594 0.84224
 H693 H 0.88638 0.67085 0.79122
 N694 N 0.83479 0.67702 0.87533
 N695 N 0.82258 0.66144 0.87547
 C696 C 0.81003 0.66335 0.89043
 C697 C 0.81410 0.68136 0.89974
 C698 C 0.83013 0.68941 0.88997
 H699 H 0.79834 0.65278 0.89393
 H700 H 0.83726 0.70371 0.89287
 H701 H 0.83063 0.66752 0.84148
 H702 H 0.85098 0.65053 0.85075
 N703 N 0.81694 0.12206 0.33621
 N704 N 0.82790 0.12625 0.32116
 C705 C 0.82580 0.11150 0.30804
 C706 C 0.81295 0.09716 0.31526
 C707 C 0.80737 0.10449 0.33308
 H708 H 0.83262 0.11148 0.29402
 H709 H 0.79683 0.09774 0.34284
 Cu710 Cu 0.84336 0.15088 0.31950
 Cu711 Cu 0.81501 0.14063 0.35792
 Cu712 Cu 0.84894 0.17994 0.35848
 N713 N 0.86498 0.17028 0.32163
 N714 N 0.86747 0.18124 0.33718
 C715 C 0.88322 0.19355 0.33478
 C716 C 0.89080 0.19034 0.31661
 C717 C 0.87907 0.17524 0.30877
 H718 H 0.88859 0.20425 0.34533
 H719 H 0.88049 0.16864 0.29465
 N720 N 0.83147 0.17384 0.38029
 N721 N 0.81850 0.15886 0.38023
 C722 C 0.80807 0.15946 0.39672
 C723 C 0.81496 0.17547 0.40772
 C724 C 0.82960 0.18433 0.39670
 H725 H 0.79588 0.14947 0.40023
 H726 H 0.83755 0.19809 0.40001
 H727 H 0.82425 0.16695 0.34552
 H728 H 0.84419 0.14949 0.35422
 N729 N 0.67985 0.37186 0.33818
 N730 N 0.66663 0.37114 0.32418
 C731 C 0.67141 0.38502 0.31098
 C732 C 0.68859 0.39495 0.31699
 C733 C 0.69315 0.38652 0.33461
 H734 H 0.66324 0.38754 0.29779
 H735 H 0.70536 0.39060 0.34409
 Cu736 Cu 0.64456 0.35203 0.32474
 Cu737 Cu 0.68053 0.35205 0.35864
 Cu738 Cu 0.64190 0.31725 0.35937
 N739 N 0.62228 0.33321 0.32594
 N740 N 0.62174 0.31925 0.33919
 C741 C 0.60593 0.30719 0.33593
 C742 C 0.59554 0.31425 0.32008
 C743 C 0.60654 0.33069 0.31400
 H744 H 0.60272 0.29375 0.34402
 H745 H 0.60357 0.33975 0.30147
 N746 N 0.66368 0.31772 0.37853
 N747 N 0.67863 0.33067 0.37801
 C748 C 0.69204 0.32586 0.39175
 C749 C 0.68528 0.30901 0.40128
 C750 C 0.66700 0.30460 0.39284
 H751 H 0.70605 0.33358 0.39427
 H752 H 0.65707 0.29244 0.39662
 H753 H 0.66532 0.32959 0.34406
 H754 H 0.65000 0.34722 0.35895
 N755 N 0.67773 0.87115 0.84168
 N756 N 0.66410 0.87155 0.82802
 C757 C 0.66927 0.88556 0.81506
 C758 C 0.68716 0.89422 0.82085
 C759 C 0.69184 0.88501 0.83803
 H760 H 0.66095 0.88892 0.80213
 H761 H 0.70474 0.88795 0.84705
 Cu762 Cu 0.64151 0.85303 0.82815
 Cu763 Cu 0.67744 0.85137 0.86211
 Cu764 Cu 0.63793 0.81767 0.86226
 N765 N 0.61912 0.83429 0.82873
 N766 N 0.61825 0.82013 0.84177
 C767 C 0.60257 0.80807 0.83795
 C768 C 0.59265 0.81529 0.82191
 C769 C 0.60376 0.83185 0.81632
 H770 H 0.59920 0.79448 0.84575
 H771 H 0.60120 0.84098 0.80376
 N772 N 0.65929 0.81761 0.88179
 N773 N 0.67454 0.83021 0.88152
 C774 C 0.68748 0.82523 0.89559
 C775 C 0.68013 0.80862 0.90505
 C776 C 0.66200 0.80448 0.89622
 H777 H 0.70162 0.83263 0.89839
 H778 H 0.65183 0.79244 0.89976
 H779 H 0.66162 0.82965 0.84710
 H780 H 0.64677 0.84744 0.86228
 N781 N 0.18057 0.37615 0.84176
 N782 N 0.17163 0.37263 0.82527
 C783 C 0.17891 0.38532 0.81206
 C784 C 0.19325 0.39741 0.82072
 C785 C 0.19356 0.39144 0.83971
 H786 H 0.17428 0.38570 0.79720
 H787 H 0.20254 0.39773 0.85120
 Cu788 Cu 0.15137 0.35176 0.82297
 Cu789 Cu 0.17489 0.36027 0.86452
 Cu790 Cu 0.14904 0.31563 0.85588
 N791 N 0.13051 0.33139 0.82188
 N792 N 0.13025 0.31670 0.83441
 C793 C 0.11602 0.30335 0.82933
 C794 C 0.10686 0.30999 0.81266
 C795 C 0.11613 0.32813 0.80863
 H796 H 0.11284 0.28962 0.83701
 H797 H 0.11285 0.33807 0.79679
 N798 N 0.16346 0.32130 0.88000
 N799 N 0.17349 0.33809 0.88316
 C800 C 0.18309 0.33668 0.90010
 C801 C 0.17839 0.31837 0.90838
 C802 C 0.16599 0.30900 0.89510
 H803 H 0.19364 0.34770 0.90547
 H804 H 0.15979 0.29402 0.89608
 H805 H 0.17174 0.33559 0.84760
 H806 H 0.14780 0.34602 0.85723
 N807 N 0.17095 0.88291 0.34089
 N808 N 0.16214 0.87909 0.32439
 C809 C 0.16633 0.89387 0.31200
 C810 C 0.17786 0.90823 0.32132
 C811 C 0.18069 0.90061 0.33964
 H812 H 0.16182 0.89383 0.29710
 H813 H 0.18956 0.90719 0.35106
 Cu814 Cu 0.14567 0.85544 0.32061
 Cu815 Cu 0.16964 0.86384 0.36216
 Cu816 Cu 0.15440 0.81584 0.34845
 N817 N 0.12774 0.83248 0.32041
 N818 N 0.13164 0.81655 0.33088
 C819 C 0.11763 0.80245 0.32746
 C820 C 0.10383 0.81022 0.31455
 C821 C 0.11093 0.82921 0.31016
 H822 H 0.11758 0.78762 0.33382
 H823 H 0.10438 0.83978 0.30015
 N824 N 0.16947 0.82131 0.37208
 N825 N 0.17423 0.83959 0.37802
 C826 C 0.18286 0.83822 0.39548
 C827 C 0.18320 0.81813 0.40082
 C828 C 0.17500 0.80787 0.38542
 H829 H 0.18848 0.85086 0.40371
 H830 H 0.17300 0.79177 0.38407
 H831 H 0.17129 0.84182 0.34216
 H832 H 0.14639 0.84466 0.35390
 C833 C 0.27170 1.06219 0.25283
 C834 C 0.25878 1.06408 0.26796
 C835 C 0.24838 1.04608 0.26905
 N836 N 0.25457 1.03327 0.25521
 C837 C 0.26881 1.04307 0.24528
 C838 C 0.23158 1.04276 0.28081
 C839 C 0.22332 1.02342 0.28382
 C840 C 0.20540 1.01980 0.29314
 C841 C 0.20319 0.99925 0.29394
 C842 C 0.21960 0.99083 0.28473
 N843 N 0.23198 1.00567 0.27893
 C844 C 0.22303 0.96990 0.28240
 C845 C 0.23736 0.96175 0.26964
 C846 C 0.24205 0.94145 0.26806
 C847 C 0.25517 0.93959 0.25311
 C848 C 0.25794 0.95878 0.24589
 N849 N 0.24697 0.97229 0.25596
 C850 C 0.26898 0.96320 0.22921
 C851 C 0.27272 0.98296 0.22278
 C852 C 0.27944 0.98780 0.20462
 C853 C 0.28169 1.00840 0.20425
 C854 C 0.27641 1.01553 0.22223
 N855 N 0.27116 0.99990 0.23349
 C856 C 0.27729 1.03592 0.22806
 H857 H 0.28163 1.07376 0.24761
 H858 H 0.25673 1.07742 0.27671
 H859 H 0.26859 1.00049 0.24815
 H860 H 0.19501 1.03078 0.29891
 H861 H 0.19078 0.99146 0.30048
 H862 H 0.23636 0.92915 0.27653
 H863 H 0.26155 0.92562 0.24786
 H864 H 0.28672 1.01711 0.19214
 H865 H 0.24636 1.00373 0.27359
 H866 H 0.28234 0.97756 0.19284
 C867 C 0.26514 0.43711 0.74746
 C868 C 0.25126 0.43649 0.76182
 C869 C 0.24662 0.45630 0.76637
 N870 N 0.25698 0.46893 0.75504
 C871 C 0.26826 0.45728 0.74338
 C872 C 0.23374 0.46228 0.78142
 C873 C 0.22974 0.48256 0.78648
 C874 C 0.22035 0.48838 0.80330
 C875 C 0.21891 0.50898 0.80298
 C876 C 0.22741 0.51531 0.78596
 N877 N 0.23391 0.49908 0.77590
 C878 C 0.22811 0.53571 0.78003
 C879 C 0.24067 0.54288 0.76527
 C880 C 0.24275 0.56295 0.76031
 C881 C 0.25724 0.56370 0.74647
 C882 C 0.26319 0.54400 0.74298
 N883 N 0.25310 0.53136 0.75456
 C884 C 0.27732 0.53809 0.72892
 C885 C 0.28153 0.51778 0.72384
 C886 C 0.29214 0.51212 0.70763
 C887 C 0.29313 0.49148 0.70756
 C888 C 0.28314 0.48495 0.72375
 N889 N 0.27626 0.50112 0.73370
 C890 C 0.28100 0.46440 0.72877
 H891 H 0.27202 0.42411 0.74076
 H892 H 0.24552 0.42295 0.76833
 H893 H 0.26993 0.50088 0.74720
 H894 H 0.21515 0.47876 0.81470
 H895 H 0.21234 0.51827 0.81410
 H896 H 0.23489 0.57584 0.76619
 H897 H 0.26254 0.57724 0.73963
 H898 H 0.30030 0.48232 0.69670
 H899 H 0.23888 0.49916 0.76185
 H900 H 0.29838 0.52184 0.69680
 C901 C 0.74241 -0.06423 0.23463
 C902 C 0.75642 -0.06490 0.24903
 C903 C 0.75934 -0.04521 0.25509
 N904 N 0.74753 -0.03257 0.24490
 C905 C 0.73733 -0.04412 0.23220
 C906 C 0.77165 -0.03951 0.27072
 C907 C 0.77467 -0.01936 0.27662
 C908 C 0.78284 -0.01364 0.29411
 C909 C 0.78385 0.00705 0.29410
 C910 C 0.77642 0.01339 0.27654
 N911 N 0.77098 -0.00282 0.26593
 C912 C 0.77617 0.03363 0.27030
 C913 C 0.76605 0.04016 0.25361
 C914 C 0.76786 0.05914 0.24566
 C915 C 0.75488 0.05977 0.23035
 C916 C 0.74545 0.04121 0.22957
 N917 N 0.75227 0.02928 0.24383
 C918 C 0.72978 0.03609 0.21675
 C919 C 0.72166 0.01644 0.21529
 C920 C 0.70392 0.01175 0.20585
 C921 C 0.70214 -0.00883 0.20614
 C922 C 0.71859 -0.01625 0.21614
 N923 N 0.73055 -0.00073 0.22144
 C924 C 0.72254 -0.03697 0.21931
 H925 H 0.73646 -0.07716 0.22705
 H926 H 0.76334 -0.07841 0.25467
 H927 H 0.74498 -0.00190 0.22694
 H928 H 0.78761 -0.02336 0.30568
 H929 H 0.78969 0.01633 0.30562
 H930 H 0.77748 0.07128 0.25043
 H931 H 0.75250 0.07252 0.22101
 H932 H 0.69007 -0.01728 0.19958
 H933 H 0.76717 -0.00277 0.25151
 H934 H 0.69348 0.02205 0.19911
 C935 C 0.76923 0.56156 0.74246
 C936 C 0.75571 0.56187 0.72756
 C937 C 0.74626 0.54331 0.72747
 N938 N 0.75352 0.53172 0.74177
 C939 C 0.76762 0.54279 0.75089
 C940 C 0.73018 0.53784 0.71529
 C941 C 0.72237 0.51805 0.71440
 C942 C 0.70423 0.51293 0.70593
 C943 C 0.70302 0.49231 0.70621
 C944 C 0.72026 0.48532 0.71522
 N945 N 0.73207 0.50112 0.72000
 C946 C 0.72512 0.46474 0.71786
 C947 C 0.74046 0.45802 0.73033
 C948 C 0.74682 0.43821 0.73207
 C949 C 0.76085 0.43792 0.74651
 C950 C 0.76242 0.45751 0.75326
 N951 N 0.74986 0.46973 0.74343
 C952 C 0.77432 0.46359 0.76902
 C953 C 0.77631 0.48388 0.77495
 C954 C 0.78410 0.48999 0.79248
 C955 C 0.78514 0.51066 0.79205
 C956 C 0.77801 0.51659 0.77425
 N957 N 0.77270 0.50016 0.76391
 C958 C 0.77814 0.53660 0.76744
 H959 H 0.77901 0.57378 0.74670
 H960 H 0.75301 0.57440 0.71802
 H961 H 0.76937 0.49990 0.74936
 H962 H 0.69316 0.52298 0.69978
 H963 H 0.69084 0.48353 0.70027
 H964 H 0.74174 0.42525 0.72396
 H965 H 0.76874 0.42472 0.75167
 H966 H 0.79089 0.52021 0.80341
 H967 H 0.74685 0.50028 0.72469
 H968 H 0.78886 0.48052 0.80424
 C969 C 0.24471 0.43679 0.23937
 C970 C 0.25847 0.43604 0.25396
 C971 C 0.26308 0.45580 0.25863
 N972 N 0.25284 0.46854 0.24709
 C973 C 0.24170 0.45698 0.23517
 C974 C 0.27620 0.46161 0.27366
 C975 C 0.27951 0.48181 0.27943
 C976 C 0.28911 0.48731 0.29632
 C977 C 0.28979 0.50796 0.29667
 C978 C 0.28060 0.51461 0.27998
 N979 N 0.27451 0.49855 0.26946
 C980 C 0.27870 0.53516 0.27488
 C981 C 0.26643 0.54240 0.25981
 C982 C 0.26359 0.56258 0.25558
 C983 C 0.25030 0.56334 0.24058
 C984 C 0.24572 0.54357 0.23580
 N985 N 0.25551 0.53085 0.24769
 C986 C 0.23347 0.53776 0.22009
 C987 C 0.22922 0.51752 0.21489
 C988 C 0.21980 0.51191 0.19795
 C989 C 0.21866 0.49126 0.19792
 C990 C 0.22745 0.48470 0.21482
 N991 N 0.23360 0.50083 0.22523
 C992 C 0.22962 0.46415 0.21987
 H993 H 0.23800 0.42383 0.23245
 H994 H 0.26424 0.42242 0.26044
 H995 H 0.23904 0.50052 0.23915
 H996 H 0.29497 0.47747 0.30733
 H997 H 0.29630 0.51705 0.30800
 H998 H 0.27027 0.57550 0.26261
 H999 H 0.24491 0.57695 0.23381
 H1000 H 0.21238 0.48210 0.18652
 H1001 H 0.26917 0.49894 0.25551
 H1002 H 0.21454 0.52165 0.18658
 C1003 C 0.73352 1.05995 0.76452
 C1004 C 0.74541 1.06152 0.74864
 C1005 C 0.75321 1.04247 0.74513
 N1006 N 0.74682 1.02946 0.75860
 C1007 C 0.73467 1.04007 0.77039
 C1008 C 0.76678 1.03765 0.73028
 C1009 C 0.77279 1.01776 0.72563
 C1010 C 0.78820 1.01284 0.71318
 C1011 C 0.78855 0.99219 0.71165
 C1012 C 0.77330 0.98501 0.72316
 N1013 N 0.76363 1.00072 0.73143
 C1014 C 0.76796 0.96448 0.72477
 C1015 C 0.75430 0.95709 0.73844
 C1016 C 0.74714 0.93751 0.73894
 C1017 C 0.73530 0.93617 0.75486
 C1018 C 0.73587 0.95487 0.76375
 N1019 N 0.74754 0.96758 0.75372
 C1020 C 0.72702 0.95943 0.78160
 C1021 C 0.72651 0.97905 0.78949
 C1022 C 0.72152 0.98357 0.80828
 C1023 C 0.72121 1.00423 0.80983
 C1024 C 0.72606 1.01173 0.79195
 N1025 N 0.72923 0.99630 0.77964
 C1026 C 0.72545 1.03231 0.78695
 H1027 H 0.72516 1.07213 0.77109
 H1028 H 0.74801 1.07517 0.74065
 H1029 H 0.73041 0.99751 0.76487
 H1030 H 0.79804 1.02303 0.70572
 H1031 H 0.79869 0.98350 0.70279
 H1032 H 0.75023 0.92535 0.72900
 H1033 H 0.72752 0.92282 0.75955
 H1034 H 0.71744 1.01277 0.82256
 H1035 H 0.75023 0.99997 0.73884
 H1036 H 0.71813 0.97307 0.81962
 C1037 C 0.73864 0.56344 0.26389
 C1038 C 0.75278 0.56472 0.24978
 C1039 C 0.75645 0.54522 0.24352
 N1040 N 0.74538 0.53209 0.25371
 C1041 C 0.73454 0.54315 0.26625
 C1042 C 0.76916 0.53999 0.22810
 C1043 C 0.77120 0.52017 0.22072
 C1044 C 0.77967 0.51563 0.20310
 C1045 C 0.77974 0.49505 0.20136
 C1046 C 0.77130 0.48749 0.21793
 N1047 N 0.76620 0.50291 0.22973
 C1048 C 0.76912 0.46670 0.22171
 C1049 C 0.75722 0.45877 0.23657
 C1050 C 0.75423 0.43842 0.23974
 C1051 C 0.74111 0.43704 0.25468
 C1052 C 0.73687 0.45658 0.26055
 N1053 N 0.74661 0.46979 0.24931
 C1054 C 0.72494 0.46172 0.27661
 C1055 C 0.72092 0.48174 0.28275
 C1056 C 0.71125 0.48660 0.29971
 C1057 C 0.71012 0.50723 0.30063
 C1058 C 0.71931 0.51453 0.28433
 N1059 N 0.72563 0.49889 0.27337
 C1060 C 0.72143 0.53530 0.28021
 H1061 H 0.73238 0.57608 0.27168
 H1062 H 0.75931 0.57852 0.24457
 H1063 H 0.73127 0.49992 0.25962
 H1064 H 0.78522 0.52607 0.19254
 H1065 H 0.78533 0.48661 0.18920
 H1066 H 0.76061 0.42581 0.23199
 H1067 H 0.73558 0.42313 0.26066
 H1068 H 0.70357 0.51587 0.31221
 H1069 H 0.76171 0.50169 0.24387
 H1070 H 0.70569 0.47638 0.31045
 C1071 C 0.25720 -0.06051 0.75329
 C1072 C 0.24245 -0.05947 0.73959
 C1073 C 0.23733 -0.03929 0.73776
 N1074 N 0.24825 -0.02809 0.75018
 C1075 C 0.26052 -0.04098 0.75958
 C1076 C 0.22226 -0.03181 0.72528
 C1077 C 0.21773 -0.01108 0.72270
 C1078 C 0.20138 -0.00385 0.71239
 C1079 C 0.20217 0.01679 0.71321
 C1080 C 0.21913 0.02176 0.72375
 N1081 N 0.22866 0.00469 0.72924
 C1082 C 0.22546 0.04176 0.72750
 C1083 C 0.24090 0.04697 0.74062
 C1084 C 0.24767 0.06641 0.74381
 C1085 C 0.26119 0.06542 0.75860
 C1086 C 0.26269 0.04531 0.76373
 N1087 N 0.25009 0.03413 0.75284
 C1088 C 0.27507 0.03787 0.77871
 C1089 C 0.27840 0.01713 0.78253
 C1090 C 0.29008 0.00987 0.79752
 C1091 C 0.28982 -0.01077 0.79626
 C1092 C 0.27806 -0.01568 0.78050
 N1093 N 0.27144 0.00141 0.77208
 C1094 C 0.27435 -0.03564 0.77417
 H1095 H 0.26450 -0.07415 0.75818
 H1096 H 0.23619 -0.07222 0.73196
 H1097 H 0.26394 0.00228 0.75917
 H1098 H 0.18995 -0.01249 0.70504
 H1099 H 0.19143 0.02697 0.70672
 H1100 H 0.24307 0.08003 0.73652
 H1101 H 0.26892 0.07818 0.76481
 H1102 H 0.29751 -0.02098 0.80588
 H1103 H 0.24275 0.00386 0.73542
 H1104 H 0.29816 0.01847 0.80824
 C1105 C 0.24647 0.26280 1.06204
 C1106 C 0.26156 0.24869 1.06147
 C1107 C 0.26131 0.24057 1.04316
 N1108 N 0.24656 0.24905 1.03261
 C1109 C 0.23741 0.26258 1.04411
 C1110 C 0.27281 0.22393 1.03702
 C1111 C 0.27481 0.21882 1.01749
 C1112 C 0.28253 0.20083 1.01055
 C1113 C 0.28306 0.20249 0.99089
 C1114 C 0.27567 0.22147 0.98645
 N1115 N 0.27075 0.23132 1.00273
 C1116 C 0.27510 0.22994 0.96792
 C1117 C 0.26334 0.24702 0.96347
 C1118 C 0.26416 0.25762 0.94644
 C1119 C 0.24898 0.27163 0.94710
 C1120 C 0.23940 0.26905 0.96448
 N1121 N 0.24821 0.25402 0.97445
 C1122 C 0.22164 0.27901 0.97016
 C1123 C 0.21406 0.27754 0.98897
 C1124 C 0.19472 0.28253 0.99449
 C1125 C 0.19410 0.28077 1.01414
 C1126 C 0.21308 0.27478 1.02001
 N1127 N 0.22513 0.27286 1.00459
 C1128 C 0.21942 0.27264 1.03923
 H1129 H 0.24222 0.27168 1.07441
 H1130 H 0.27128 0.24453 1.07328
 H1131 H 0.24061 0.27088 1.00493
 H1132 H 0.28748 0.18795 1.01879
 H1133 H 0.28855 0.19115 0.98102
 H1134 H 0.27440 0.25527 0.93467
 H1135 H 0.24519 0.28224 0.93592
 H1136 H 0.18124 0.28383 1.02309
 H1137 H 0.26706 0.24653 1.00383
 H1138 H 0.18245 0.28727 0.98535
 C1139 C 0.26491 0.75137 0.55660
 C1140 C 0.25245 0.76786 0.55665
 C1141 C 0.24345 0.76853 0.53872
 N1142 N 0.25000 0.75307 0.52774
 C1143 C 0.26314 0.74258 0.53862
 C1144 C 0.22798 0.78198 0.53338
 C1145 C 0.22081 0.78358 0.51434
 C1146 C 0.20309 0.79306 0.50901
 C1147 C 0.20230 0.79265 0.48934
 C1148 C 0.21943 0.78269 0.48317
 N1149 N 0.23073 0.77742 0.49850
 C1150 C 0.22463 0.77956 0.46377
 C1151 C 0.23974 0.76601 0.45784
 C1152 C 0.24657 0.76400 0.43921
 C1153 C 0.25987 0.74820 0.43919
 C1154 C 0.26053 0.74092 0.45776
 N1155 N 0.24817 0.75179 0.46911
 C1156 C 0.27104 0.72344 0.46354
 C1157 C 0.27242 0.71706 0.48276
 C1158 C 0.27851 0.69803 0.48851
 C1159 C 0.27864 0.69816 0.50822
 C1160 C 0.27276 0.71732 0.51394
 N1161 N 0.26910 0.72876 0.49832
 C1162 C 0.27207 0.72413 0.53313
 H1163 H 0.27396 0.74622 0.56853
 H1164 H 0.24999 0.77796 0.56862
 H1165 H 0.26669 0.74422 0.49824
 H1166 H 0.19199 0.79980 0.51831
 H1167 H 0.19046 0.79902 0.48060
 H1168 H 0.24221 0.77277 0.42684
 H1169 H 0.26775 0.74242 0.42681
 H1170 H 0.28279 0.68565 0.51731
 H1171 H 0.24534 0.77192 0.49812
 H1172 H 0.28248 0.68538 0.47944
 C1173 C 0.25335 0.73943 -0.06094
 C1174 C 0.26838 0.75349 -0.06012
 C1175 C 0.26728 0.76237 -0.04216
 N1176 N 0.25209 0.75435 -0.03206
 C1177 C 0.24352 0.74034 -0.04350
 C1178 C 0.27896 0.77880 -0.03588
 C1179 C 0.27939 0.78521 -0.01659
 C1180 C 0.28703 0.80341 -0.01010
 C1181 C 0.28669 0.80278 0.00960
 C1182 C 0.27885 0.78420 0.01451
 N1183 N 0.27444 0.77361 -0.00151
 C1184 C 0.27761 0.77664 0.03332
 C1185 C 0.26540 0.76009 0.03801
 C1186 C 0.26514 0.75059 0.05562
 C1187 C 0.24997 0.73669 0.05474
 C1188 C 0.24150 0.73819 0.03661
 N1189 N 0.25094 0.75252 0.02644
 C1190 C 0.22397 0.72812 0.03045
 C1191 C 0.21773 0.72754 0.01107
 C1192 C 0.19899 0.72146 0.00466
 C1193 C 0.19940 0.72212 -0.01507
 C1194 C 0.21840 0.72852 -0.02014
 N1195 N 0.22948 0.73170 -0.00413
 C1196 C 0.22555 0.73016 -0.03912
 H1197 H 0.24976 0.72997 -0.07315
 H1198 H 0.27872 0.75700 -0.07151
 H1199 H 0.24482 0.73444 -0.00363
 H1200 H 0.29272 0.81565 -0.01867
 H1201 H 0.29204 0.81444 0.01920
 H1202 H 0.27464 0.75361 0.06791
 H1203 H 0.24541 0.72690 0.06626
 H1204 H 0.18715 0.71818 -0.02459
 H1205 H 0.27086 0.75838 -0.00212
 H1206 H 0.18638 0.71692 0.01330
 C1207 C 0.24097 0.25313 0.56145
 C1208 C 0.25616 0.26705 0.56132
 C1209 C 0.26460 0.26620 0.54324
 N1210 N 0.25521 0.25217 0.53240
 C1211 C 0.24068 0.24425 0.54344
 C1212 C 0.28135 0.27747 0.53727
 C1213 C 0.28793 0.27792 0.51807
 C1214 C 0.30628 0.28534 0.51216
 C1215 C 0.30589 0.28542 0.49245
 C1216 C 0.28733 0.27802 0.48690
 N1217 N 0.27650 0.27346 0.50259
 C1218 C 0.28007 0.27754 0.46786
 C1219 C 0.26305 0.26637 0.46222
 C1220 C 0.25397 0.26722 0.44434
 C1221 C 0.23873 0.25337 0.44447
 C1222 C 0.23906 0.24453 0.46242
 N1223 N 0.25401 0.25241 0.47317
 C1224 C 0.22658 0.22859 0.46825
 C1225 C 0.22600 0.22163 0.48734
 C1226 C 0.21759 0.20356 0.49305
 C1227 C 0.21803 0.20347 0.51276
 C1228 C 0.22667 0.22149 0.51853
 N1229 N 0.23152 0.23243 0.50296
 C1230 C 0.22794 0.22835 0.53772
 H1231 H 0.23130 0.24988 0.57343
 H1232 H 0.26052 0.27665 0.57319
 H1233 H 0.23567 0.24750 0.50302
 H1234 H 0.31845 0.29070 0.52112
 H1235 H 0.31770 0.29083 0.48326
 H1236 H 0.25797 0.27675 0.43243
 H1237 H 0.22864 0.25010 0.43268
 H1238 H 0.21215 0.19173 0.52182
 H1239 H 0.26126 0.27030 0.50278
 H1240 H 0.21133 0.19190 0.48396
 C1241 C 0.75236 0.75918 1.05923
 C1242 C 0.76784 0.74559 1.05867
 C1243 C 0.76818 0.73768 1.04024
 N1244 N 0.75319 0.74578 1.02966
 C1245 C 0.74351 0.75894 1.04123
 C1246 C 0.78095 0.72192 1.03401
 C1247 C 0.78208 0.71543 1.01474
 C1248 C 0.79083 0.69758 1.00855
 C1249 C 0.78953 0.69740 0.98887
 C1250 C 0.78031 0.71529 0.98358
 N1251 N 0.77597 0.72623 0.99943
 C1252 C 0.77712 0.72163 0.96451
 C1253 C 0.76527 0.73857 0.95986
 C1254 C 0.76456 0.74763 0.94203
 C1255 C 0.74935 0.76156 0.94273
 C1256 C 0.74127 0.76047 0.96095
 N1257 N 0.75104 0.74644 0.97139
 C1258 C 0.72357 0.77031 0.96689
 C1259 C 0.71749 0.77118 0.98621
 C1260 C 0.69866 0.77711 0.99244
 C1261 C 0.69922 0.77674 1.01216
 C1262 C 0.71837 0.77061 1.01738
 N1263 N 0.72944 0.76742 1.00149
 C1264 C 0.72550 0.76905 1.03640
 H1265 H 0.74777 0.76782 1.07165
 H1266 H 0.77744 0.74173 1.07064
 H1267 H 0.74483 0.76489 1.00110
 H1268 H 0.79754 0.68589 1.01725
 H1269 H 0.79501 0.68558 0.97952
 H1270 H 0.77368 0.74415 0.92966
 H1271 H 0.74437 0.77095 0.93099
 H1272 H 0.68694 0.78059 1.02158
 H1273 H 0.77113 0.74113 0.99974
 H1274 H 0.68589 0.78131 0.98370
 C1275 C 0.74404 0.26036 0.56086
 C1276 C 0.75805 0.24524 0.56190
 C1277 C 0.75968 0.23719 0.54362
 N1278 N 0.74719 0.24691 0.53146
 C1279 C 0.73771 0.26120 0.54192
 C1280 C 0.77123 0.22000 0.53885
 C1281 C 0.77389 0.21300 0.51990
 C1282 C 0.78155 0.19425 0.51498
 C1283 C 0.78274 0.19372 0.49531
 C1284 C 0.77582 0.21218 0.48880
 N1285 N 0.77056 0.22388 0.50388
 C1286 C 0.77589 0.21837 0.46945
 C1287 C 0.76513 0.23535 0.46288
 C1288 C 0.76643 0.24328 0.44461
 C1289 C 0.75229 0.25830 0.44349
 C1290 C 0.74289 0.25906 0.46114
 N1291 N 0.75072 0.24501 0.47294
 C1292 C 0.72591 0.27102 0.46539
 C1293 C 0.71875 0.27414 0.48421
 C1294 C 0.70067 0.28334 0.48871
 C1295 C 0.69975 0.28440 0.50836
 C1296 C 0.71715 0.27554 0.51536
 N1297 N 0.72879 0.26963 0.50053
 C1298 C 0.72215 0.27375 0.53502
 H1299 H 0.73887 0.26943 0.57278
 H1300 H 0.76579 0.24042 0.57476
 H1301 H 0.74352 0.26462 0.50148
 H1302 H 0.78596 0.18225 0.52457
 H1303 H 0.78833 0.18127 0.48679
 H1304 H 0.77627 0.23851 0.43317
 H1305 H 0.74903 0.26736 0.43101
 H1306 H 0.68758 0.29090 0.51653
 H1307 H 0.76719 0.23916 0.50341
 H1308 H 0.68936 0.28888 0.47887
 C1309 C 0.76198 0.26680 0.06016
 C1310 C 0.74845 0.25138 0.06047
 C1311 C 0.74478 0.24600 0.04155
 N1312 N 0.75564 0.25773 0.02976
 C1313 C 0.76618 0.27048 0.04107
 C1314 C 0.73129 0.23066 0.03572
 C1315 C 0.72619 0.22618 0.01640
 C1316 C 0.71086 0.21332 0.01088
 C1317 C 0.71005 0.21358 -0.00879
 C1318 C 0.72510 0.22637 -0.01489
 N1319 N 0.73506 0.23371 0.00057
 C1320 C 0.72888 0.23094 -0.03439
 C1321 C 0.74315 0.24514 -0.04084
 C1322 C 0.74658 0.24962 -0.05994
 C1323 C 0.76051 0.26471 -0.06021
 C1324 C 0.76542 0.26886 -0.04129
 N1325 N 0.75481 0.25686 -0.02953
 C1326 C 0.77972 0.28336 -0.03537
 C1327 C 0.78497 0.28741 -0.01603
 C1328 C 0.80084 0.29959 -0.01045
 C1329 C 0.80084 0.30022 0.00921
 C1330 C 0.78508 0.28827 0.01521
 N1331 N 0.77530 0.28079 -0.00028
 C1332 C 0.78007 0.28503 0.03465
 H1333 H 0.76812 0.27433 0.07265
 H1334 H 0.74198 0.24496 0.07323
 H1335 H 0.76175 0.27326 -0.00013
 H1336 H 0.70097 0.20485 0.02002
 H1337 H 0.69940 0.20538 -0.01757
 H1338 H 0.73963 0.24288 -0.07245
 H1339 H 0.76634 0.27177 -0.07294
 H1340 H 0.81136 0.30851 0.01804
 H1341 H 0.74789 0.24236 0.00031
 H1342 H 0.81136 0.30728 -0.01959
 C1343 C 0.74988 0.74929 0.55832
 C1344 C 0.76362 0.76453 0.55778
 C1345 C 0.76601 0.76948 0.53866
 N1346 N 0.75438 0.75753 0.52755
 C1347 C 0.74455 0.74507 0.53949
 C1348 C 0.77790 0.78559 0.53202
 C1349 C 0.78022 0.79061 0.51250
 C1350 C 0.78851 0.80848 0.50616
 C1351 C 0.78835 0.80771 0.48652
 C1352 C 0.77997 0.78938 0.48132
 N1353 N 0.77524 0.77893 0.49726
 C1354 C 0.77739 0.78284 0.46215
 C1355 C 0.76547 0.76621 0.45652
 C1356 C 0.76277 0.75985 0.43774
 C1357 C 0.74906 0.74456 0.43815
 C1358 C 0.74406 0.74173 0.45721
 N1359 N 0.75408 0.75506 0.46835
 C1360 C 0.73060 0.72685 0.46382
 C1361 C 0.72648 0.72294 0.48336
 C1362 C 0.71523 0.70677 0.48968
 C1363 C 0.71537 0.70756 0.50934
 C1364 C 0.72668 0.72420 0.51461
 N1365 N 0.73312 0.73365 0.49866
 C1366 C 0.73109 0.72965 0.53384
 H1367 H 0.74457 0.74208 0.57119
 H1368 H 0.77079 0.77134 0.57013
 H1369 H 0.74078 0.74713 0.49823
 H1370 H 0.79396 0.82091 0.51480
 H1371 H 0.79367 0.81944 0.47712
 H1372 H 0.76967 0.76580 0.42498
 H1373 H 0.74352 0.73641 0.42576
 H1374 H 0.70828 0.69678 0.51869
 H1375 H 0.77075 0.76400 0.49772
 H1376 H 0.70803 0.69528 0.48104
 C1377 C 1.05683 0.23471 0.25765
 C1378 C 1.05761 0.24920 0.24372
 C1379 C 1.03885 0.25824 0.24314
 N1380 N 1.02670 0.24982 0.25626
 C1381 C 1.03764 0.23542 0.26513
 C1382 C 1.03378 0.27525 0.23201
 C1383 C 1.01384 0.28203 0.22951
 C1384 C 1.00835 0.30056 0.22199
 C1385 C 0.98773 0.30077 0.22087
 C1386 C 0.98124 0.28236 0.22773
 N1387 N 0.99725 0.27099 0.23283
 C1388 C 0.96104 0.27612 0.22836
 C1389 C 0.95472 0.25924 0.23888
 C1390 C 0.93563 0.25108 0.23815
 C1391 C 0.93483 0.23692 0.25237
 C1392 C 0.95347 0.23694 0.26125
 N1393 N 0.96557 0.25058 0.25300
 C1394 C 0.95827 0.22639 0.27816
 C1395 C 0.97805 0.22456 0.28526
 C1396 C 0.98318 0.21758 0.30332
 C1397 C 1.00381 0.21702 0.30415
 C1398 C 1.01065 0.22371 0.28658
 N1399 N 0.99486 0.22815 0.27513
 C1400 C 1.03096 0.22412 0.28094
 H1401 H 1.06908 0.22499 0.26200
 H1402 H 1.07059 0.25290 0.23522
 H1403 H 0.99554 0.23120 0.26055
 H1404 H 1.01817 0.31262 0.21767
 H1405 H 0.97857 0.31303 0.21554
 H1406 H 0.92339 0.25534 0.22876
 H1407 H 0.92185 0.22807 0.25612
 H1408 H 1.01275 0.21203 0.31622
 H1409 H 0.99699 0.25581 0.23642
 H1410 H 0.97312 0.21316 0.31465
 C1411 C 0.44064 0.23773 0.75481
 C1412 C 0.44185 0.25111 0.73994
 C1413 C 0.46168 0.25727 0.73908
 N1414 N 0.47245 0.24848 0.75320
 C1415 C 0.45966 0.23647 0.76278
 C1416 C 0.46920 0.27186 0.72634
 C1417 C 0.48992 0.27582 0.72404
 C1418 C 0.49769 0.29217 0.71428
 C1419 C 0.51823 0.29038 0.71500
 C1420 C 0.52250 0.27284 0.72493
 N1421 N 0.50516 0.26394 0.73017
 C1422 C 0.54202 0.26514 0.72820
 C1423 C 0.54619 0.24898 0.74067
 C1424 C 0.56448 0.23906 0.74203
 C1425 C 0.56312 0.22624 0.75732
 C1426 C 0.54409 0.22885 0.76479
 N1427 N 0.53382 0.24276 0.75463
 C1428 C 0.53694 0.21967 0.78157
 C1429 C 0.51687 0.22143 0.78760
 C1430 C 0.50998 0.21623 0.80560
 C1431 C 0.48945 0.21791 0.80498
 C1432 C 0.48443 0.22413 0.78662
 N1433 N 0.50121 0.22627 0.77615
 C1434 C 0.46471 0.22539 0.77934
 H1435 H 0.42720 0.23012 0.75942
 H1436 H 0.42949 0.25580 0.73090
 H1437 H 0.50166 0.22792 0.76136
 H1438 H 0.48947 0.30420 0.70735
 H1439 H 0.52880 0.30076 0.70877
 H1440 H 0.57756 0.24118 0.73317
 H1441 H 0.57490 0.21642 0.76256
 H1442 H 0.47931 0.21441 0.81654
 H1443 H 0.50378 0.24966 0.73600
 H1444 H 0.51879 0.21119 0.81773
 C1445 C 0.05997 0.23058 0.74706
 C1446 C 0.06166 0.24423 0.76182
 C1447 C 0.04344 0.25426 0.76292
 N1448 N 0.03075 0.24729 0.74932
 C1449 C 0.04080 0.23282 0.73962
 C1450 C 0.03945 0.27100 0.77489
 C1451 C 0.01985 0.27844 0.77822
 C1452 C 0.01546 0.29640 0.78753
 C1453 C -0.00507 0.29759 0.78885
 C1454 C -0.01273 0.28047 0.78003
 N1455 N 0.00259 0.26874 0.77387
 C1456 C -0.03339 0.27572 0.77859
 C1457 C -0.04100 0.26025 0.76665
 C1458 C -0.06066 0.25352 0.76659
 C1459 C -0.06218 0.23955 0.75212
 C1460 C -0.04352 0.23849 0.74357
 N1461 N -0.03063 0.25118 0.75244
 C1462 C -0.03898 0.22711 0.72699
 C1463 C -0.01950 0.22602 0.71928
 C1464 C -0.01502 0.21972 0.70082
 C1465 C 0.00554 0.21867 0.69967
 C1466 C 0.01299 0.22420 0.71751
 N1467 N -0.00237 0.22875 0.72933
 C1468 C 0.03334 0.22291 0.72314
 H1469 H 0.07162 0.22044 0.74217
 H1470 H 0.07490 0.24677 0.77052
 H1471 H -0.00135 0.23071 0.74410
 H1472 H 0.02596 0.30745 0.79299
 H1473 H -0.01336 0.30972 0.79556
 H1474 H -0.07275 0.25827 0.77586
 H1475 H -0.07562 0.23144 0.74811
 H1476 H 0.01401 0.21379 0.68730
 H1477 H 0.00139 0.25409 0.76870
 H1478 H -0.02550 0.21585 0.68952
 C1479 C 0.43810 0.24478 0.25848
 C1480 C 0.43931 0.23213 0.24293
 C1481 C 0.45844 0.23425 0.23560
 N1482 N 0.46895 0.24769 0.24618
 C1483 C 0.45665 0.25398 0.26032
 C1484 C 0.46557 0.22486 0.21876
 C1485 C 0.48565 0.22647 0.21269
 C1486 C 0.49242 0.22176 0.19446
 C1487 C 0.51302 0.22261 0.19516
 C1488 C 0.51820 0.22775 0.21382
 N1489 N 0.50143 0.23023 0.22435
 C1490 C 0.53791 0.22750 0.22134
 C1491 C 0.54296 0.23727 0.23872
 C1492 C 0.56137 0.23602 0.24794
 C1493 C 0.56034 0.24871 0.26352
 C1494 C 0.54131 0.25718 0.26331
 N1495 N 0.53079 0.25025 0.24810
 C1496 C 0.53435 0.27206 0.27623
 C1497 C 0.51393 0.27785 0.27736
 C1498 C 0.50684 0.29470 0.28705
 C1499 C 0.48624 0.29362 0.28675
 C1500 C 0.48128 0.27632 0.27661
 N1501 N 0.49824 0.26676 0.27102
 C1502 C 0.46159 0.26889 0.27405
 H1503 H 0.42500 0.24701 0.26731
 H1504 H 0.42736 0.22267 0.23751
 H1505 H 0.49909 0.25225 0.26544
 H1506 H 0.48347 0.21748 0.18213
 H1507 H 0.52306 0.21909 0.18348
 H1508 H 0.57422 0.22703 0.24382
 H1509 H 0.57224 0.25143 0.27379
 H1510 H 0.47614 0.30423 0.29351
 H1511 H 0.50090 0.23123 0.23920
 H1512 H 0.51560 0.30627 0.29412
 C1513 C 1.06136 0.74824 0.73285
 C1514 C 1.06107 0.73439 0.74731
 C1515 C 1.04184 0.73466 0.75479
 N1516 N 1.03055 0.74858 0.74561
 C1517 C 1.04242 0.75684 0.73213
 C1518 C 1.03545 0.72297 0.77055
 C1519 C 1.01541 0.72257 0.77720
 C1520 C 1.00938 0.71415 0.79437
 C1521 C 0.98888 0.71614 0.79520
 C1522 C 0.98286 0.72549 0.77841
 N1523 N 0.99910 0.72919 0.76746
 C1524 C 0.96267 0.72938 0.77329
 C1525 C 0.95679 0.74140 0.75755
 C1526 C 0.93721 0.74362 0.75113
 C1527 C 0.93754 0.75772 0.73690
 C1528 C 0.95736 0.76351 0.73488
 N1529 N 0.96906 0.75365 0.74765
 C1530 C 0.96407 0.77870 0.72236
 C1531 C 0.98457 0.78319 0.71942
 C1532 C 0.99153 0.80001 0.70985
 C1533 C 1.01206 0.79857 0.70955
 C1534 C 1.01714 0.78070 0.71860
 N1535 N 1.00028 0.77136 0.72447
 C1536 C 1.03689 0.77293 0.71998
 H1537 H 1.07418 0.75177 0.72407
 H1538 H 1.07373 0.72535 0.75184
 H1539 H 0.99943 0.75675 0.72957
 H1540 H 1.01869 0.70714 0.80520
 H1541 H 0.97947 0.71105 0.80678
 H1542 H 0.92396 0.73612 0.75638
 H1543 H 0.92458 0.76323 0.72913
 H1544 H 1.02207 0.80933 0.70307
 H1545 H 0.99883 0.73392 0.75333
 H1546 H 0.98282 0.81208 0.70358
 C1547 C 0.43515 0.75269 0.24553
 C1548 C 0.43677 0.73922 0.26030
 C1549 C 0.45651 0.73989 0.26657
 N1550 N 0.46700 0.75316 0.25601
 C1551 C 0.45404 0.76083 0.24298
 C1552 C 0.46420 0.72946 0.28264
 C1553 C 0.48463 0.73006 0.28802
 C1554 C 0.49208 0.72487 0.30591
 C1555 C 0.51266 0.72570 0.30474
 C1556 C 0.51717 0.73116 0.28611
 N1557 N 0.49998 0.73379 0.27604
 C1558 C 0.53670 0.73208 0.27842
 C1559 C 0.54074 0.74046 0.26030
 C1560 C 0.55874 0.73862 0.25062
 C1561 C 0.55718 0.75059 0.23471
 C1562 C 0.53830 0.75934 0.23527
 N1563 N 0.52830 0.75315 0.25092
 C1564 C 0.53129 0.77428 0.22255
 C1565 C 0.51116 0.78103 0.22224
 C1566 C 0.50442 0.79818 0.21294
 C1567 C 0.48392 0.79857 0.21478
 C1568 C 0.47868 0.78177 0.22538
 N1569 N 0.49538 0.77106 0.22967
 C1570 C 0.45878 0.77604 0.22970
 H1571 H 0.42156 0.75610 0.23764
 H1572 H 0.42468 0.73024 0.26596
 H1573 H 0.49577 0.75664 0.23537
 H1574 H 0.48357 0.72064 0.31841
 H1575 H 0.52311 0.72223 0.31618
 H1576 H 0.57175 0.72985 0.25475
 H1577 H 0.56875 0.75289 0.22414
 H1578 H 0.47404 0.80985 0.20875
 H1579 H 0.49878 0.73541 0.26128
 H1580 H 0.51331 0.80911 0.20532
 C1581 C -0.05972 0.75242 0.25542
 C1582 C -0.05959 0.73934 0.24022
 C1583 C -0.03980 0.73739 0.23458
 N1584 N -0.02785 0.74893 0.24580
 C1585 C -0.03995 0.75791 0.25879
 C1586 C -0.03336 0.72580 0.21871
 C1587 C -0.01309 0.72287 0.21369
 C1588 C -0.00669 0.71474 0.19644
 C1589 C 0.01385 0.71335 0.19750
 C1590 C 0.01942 0.72067 0.21538
 N1591 N 0.00290 0.72631 0.22520
 C1592 C 0.03927 0.72080 0.22255
 C1593 C 0.04526 0.73165 0.23905
 C1594 C 0.06423 0.73086 0.24718
 C1595 C 0.06427 0.74442 0.26207
 C1596 C 0.04530 0.75300 0.26256
 N1597 N 0.03375 0.74526 0.24841
 C1598 C 0.03940 0.76856 0.27524
 C1599 C 0.01938 0.77541 0.27728
 C1600 C 0.01372 0.79220 0.28788
 C1601 C -0.00687 0.79287 0.28764
 C1602 C -0.01330 0.77669 0.27660
 N1603 N 0.00280 0.76599 0.27057
 C1604 C -0.03362 0.77162 0.27321
 H1605 H -0.07298 0.75740 0.26297
 H1606 H -0.07266 0.73225 0.23392
 H1607 H 0.00243 0.75187 0.26419
 H1608 H -0.01589 0.71013 0.18438
 H1609 H 0.02356 0.70744 0.18642
 H1610 H 0.07679 0.72161 0.24275
 H1611 H 0.07686 0.74765 0.27142
 H1612 H -0.01598 0.80401 0.29490
 H1613 H 0.00236 0.72995 0.23964
 H1614 H 0.02341 0.80268 0.29537
 C1615 C 0.55924 0.74970 0.76387
 C1616 C 0.56059 0.73724 0.74817
 C1617 C 0.54233 0.73845 0.73867
 N1618 N 0.52991 0.75121 0.74800
 C1619 C 0.54019 0.75808 0.76342
 C1620 C 0.53806 0.72953 0.72068
 C1621 C 0.51839 0.72806 0.71313
 C1622 C 0.51365 0.72262 0.69444
 C1623 C 0.49304 0.72178 0.69325
 C1624 C 0.48580 0.72683 0.71122
 N1625 N 0.50132 0.73046 0.72327
 C1626 C 0.46534 0.72712 0.71633
 C1627 C 0.45816 0.73624 0.73329
 C1628 C 0.43861 0.73487 0.73980
 C1629 C 0.43717 0.74747 0.75533
 C1630 C 0.45594 0.75599 0.75791
 N1631 N 0.46869 0.74923 0.74433
 C1632 C 0.46060 0.77095 0.77166
 C1633 C 0.48022 0.77811 0.77485
 C1634 C 0.48504 0.79545 0.78499
 C1635 C 0.50563 0.79621 0.78599
 C1636 C 0.51278 0.77916 0.77667
 N1637 N 0.49720 0.76824 0.76992
 C1638 C 0.53310 0.77305 0.77616
 H1639 H 0.57101 0.75248 0.77427
 H1640 H 0.57365 0.72857 0.74404
 H1641 H 0.49801 0.75363 0.76455
 H1642 H 0.52396 0.71944 0.68289
 H1643 H 0.48438 0.71787 0.68063
 H1644 H 0.42650 0.72604 0.73375
 H1645 H 0.42372 0.75025 0.76352
 H1646 H 0.51431 0.80773 0.79322
 H1647 H 0.50038 0.73235 0.73802
 H1648 H 0.47482 0.80628 0.79127
 C1649 C 0.41913 0.27444 0.31062
 C1650 C 0.41140 0.29365 0.30530
 C1651 C 0.42051 0.30406 0.29022
 C1652 C 0.43687 0.29599 0.28054
 C1653 C 0.44511 0.27748 0.28592
 C1654 C 0.43657 0.26672 0.30131
 C1655 C 0.40956 0.26225 0.32433
 C1656 C 0.41777 0.24378 0.32975
 C1657 C 0.43543 0.23687 0.32144
 C1658 C 0.44472 0.24811 0.30725
 H1659 H 0.39542 0.26645 0.33063
 H1660 H 0.41031 0.23470 0.34037
 H1661 H 0.44176 0.22255 0.32577
 H1662 H 0.45821 0.24204 0.30086
 H1663 H 0.41494 0.31868 0.28584
 H1664 H 0.44317 0.30426 0.26868
 C1665 C 0.41663 0.77628 0.80630
 C1666 C 0.40906 0.79565 0.80089
 C1667 C 0.41853 0.80576 0.78573
 C1668 C 0.43541 0.79782 0.77684
 C1669 C 0.44385 0.77971 0.78298
 C1670 C 0.43481 0.76898 0.79808
 C1671 C 0.40588 0.76308 0.81832
 C1672 C 0.41408 0.74474 0.82412
 C1673 C 0.43282 0.73872 0.81758
 C1674 C 0.44301 0.75054 0.80445
 H1675 H 0.39065 0.76612 0.82258
 H1676 H 0.40571 0.73500 0.83353
 H1677 H 0.43915 0.72450 0.82217
 H1678 H 0.45718 0.74495 0.79905
 H1679 H 0.41330 0.82034 0.78091
 H1680 H 0.44203 0.80593 0.76504
 C1681 C -0.06837 0.31930 0.79261
 C1682 C -0.07850 0.31041 0.80831
 C1683 C -0.07204 0.29157 0.81499
 C1684 C -0.05687 0.28096 0.80567
 C1685 C -0.04812 0.28856 0.78904
 C1686 C -0.05379 0.30788 0.78236
 C1687 C -0.07204 0.33941 0.78704
 C1688 C -0.06291 0.34742 0.77087
 C1689 C -0.04980 0.33572 0.76006
 C1690 C -0.04517 0.31615 0.76574
 H1691 H -0.08153 0.34932 0.79534
 H1692 H -0.06601 0.36281 0.76671
 H1693 H -0.04290 0.34195 0.74742
 H1694 H -0.03461 0.30769 0.75713
 H1695 H -0.07932 0.28458 0.82707
 H1696 H -0.05252 0.26626 0.81096
 C1697 C -0.07833 0.77864 0.30680
 C1698 C -0.08279 0.79939 0.30370
 C1699 C -0.07075 0.81035 0.29105
 C1700 C -0.05470 0.80132 0.28162
 C1701 C -0.04943 0.78129 0.28525
 C1702 C -0.06079 0.77002 0.29849
 C1703 C -0.09129 0.76585 0.31705
 C1704 C -0.08598 0.74592 0.32084
 C1705 C -0.06795 0.73813 0.31415
 C1706 C -0.05551 0.74994 0.30290
 H1707 H -0.10596 0.77066 0.32160
 H1708 H -0.09601 0.73642 0.32890
 H1709 H -0.06384 0.72269 0.31723
 H1710 H -0.04189 0.74316 0.29745
 H1711 H -0.07383 0.82609 0.28826
 H1712 H -0.04632 0.81002 0.27133
 C1713 C 0.58736 0.72762 0.30444
 C1714 C 0.58793 0.70648 0.30765
 C1715 C 0.57159 0.69467 0.30178
 C1716 C 0.55497 0.70327 0.29286
 C1717 C 0.55388 0.72404 0.28984
 C1718 C 0.56984 0.73651 0.29621
 C1719 C 0.60398 0.74013 0.30842
 C1720 C 0.60278 0.76091 0.30586
 C1721 C 0.58518 0.76967 0.29908
 C1722 C 0.56885 0.75764 0.29419
 H1723 H 0.61822 0.73410 0.31304
 H1724 H 0.61562 0.77028 0.30913
 H1725 H 0.58428 0.78583 0.29728
 H1726 H 0.55552 0.76503 0.28877
 H1727 H 0.57170 0.67854 0.30403
 H1728 H 0.54291 0.69357 0.28801
 C1729 C 0.56419 0.17640 0.80707
 C1730 C 0.57934 0.18744 0.81686
 C1731 C 0.57954 0.20848 0.81558
 C1732 C 0.56567 0.21862 0.80418
 C1733 C 0.55120 0.20802 0.79368
 C1734 C 0.55024 0.18676 0.79511
 C1735 C 0.56231 0.15534 0.80918
 C1736 C 0.54762 0.14470 0.79912
 C1737 C 0.53449 0.15475 0.78689
 C1738 C 0.53573 0.17557 0.78484
 H1739 H 0.57186 0.14695 0.81883
 H1740 H 0.54640 0.12856 0.80087
 H1741 H 0.52319 0.14639 0.77905
 H1742 H 0.52518 0.18279 0.77523
 H1743 H 0.59095 0.21714 0.82299
 H1744 H 0.56638 0.23489 0.80330
 C1745 C 1.07710 0.68491 0.78234
 C1746 C 1.08312 0.69207 0.80077
 C1747 C 1.07326 0.70889 0.80859
 C1748 C 1.05779 0.71849 0.79875
 C1749 C 1.05094 0.71109 0.78113
 C1750 C 1.06015 0.69379 0.77306
 C1751 C 1.08794 0.66987 0.77237
 C1752 C 1.08110 0.66237 0.75483
 C1753 C 1.06361 0.66995 0.74662
 C1754 C 1.05328 0.68564 0.75551
 H1755 H 1.10214 0.66423 0.77750
 H1756 H 1.08950 0.65071 0.74749
 H1757 H 1.05832 0.66399 0.73305
 H1758 H 1.04005 0.69153 0.74841
 H1759 H 1.07756 0.71479 0.82249
 H1760 H 1.05102 0.73184 0.80498
 C1761 C 1.06111 0.18233 0.30611
 C1762 C 1.07614 0.19415 0.31524
 C1763 C 1.07515 0.21519 0.31381
 C1764 C 1.06030 0.22452 0.30292
 C1765 C 1.04611 0.21316 0.29278
 C1766 C 1.04640 0.19187 0.29429
 C1767 C 1.06006 0.16128 0.30872
 C1768 C 1.04579 0.14979 0.29896
 C1769 C 1.03222 0.15899 0.28656
 C1770 C 1.03244 0.17982 0.28422
 H1771 H 1.06991 0.15352 0.31857
 H1772 H 1.04526 0.13366 0.30104
 H1773 H 1.02131 0.14997 0.27889
 H1774 H 1.02156 0.18635 0.27452
 H1775 H 1.08636 0.22456 0.32069
 H1776 H 1.06012 0.24081 0.30204
 C1777 C 0.59111 0.29407 0.72192
 C1778 C 0.59338 0.29254 0.70173
 C1779 C 0.57907 0.28194 0.69094
 C1780 C 0.56243 0.27340 0.69966
 C1781 C 0.55941 0.27551 0.71938
 C1782 C 0.57356 0.28625 0.73065
 C1783 C 0.60609 0.30263 0.73378
 C1784 C 0.60314 0.30488 0.75343
 C1785 C 0.58537 0.29849 0.76171
 C1786 C 0.57071 0.28920 0.75051
 H1787 H 0.62041 0.30723 0.72818
 H1788 H 0.61471 0.31161 0.76228
 H1789 H 0.58306 0.30047 0.77694
 H1790 H 0.55719 0.28431 0.75758
 H1791 H 0.58061 0.28052 0.67556
 H1792 H 0.55177 0.26510 0.69096
 C1793 C 0.56030 0.79463 0.17929
 C1794 C 0.57600 0.80495 0.18906
 C1795 C 0.57584 0.80573 0.20914
 C1796 C 0.56112 0.79600 0.21954
 C1797 C 0.54626 0.78468 0.21032
 C1798 C 0.54577 0.78381 0.19003
 C1799 C 0.55836 0.79516 0.15915
 C1800 C 0.54344 0.78417 0.14979
 C1801 C 0.53006 0.77261 0.16024
 C1802 C 0.53112 0.77242 0.18018
 H1803 H 0.56798 0.80438 0.15045
 H1804 H 0.54223 0.78464 0.13433
 H1805 H 0.51862 0.76397 0.15288
 H1806 H 0.52032 0.76339 0.18777
 H1807 H 0.58755 0.81349 0.21700
 H1808 H 0.56155 0.79695 0.23504
 C1809 C 1.08175 0.30583 0.22393
 C1810 C 1.08231 0.30562 0.20356
 C1811 C 1.06705 0.29577 0.19334
 C1812 C 1.05138 0.28636 0.20278
 C1813 C 1.05023 0.28674 0.22277
 C1814 C 1.06515 0.29699 0.23353
 C1815 C 1.09755 0.31389 0.23511
 C1816 C 1.09630 0.31464 0.25503
 C1817 C 1.07947 0.30721 0.26426
 C1818 C 1.06405 0.29838 0.25368
 H1819 H 1.11123 0.31923 0.22877
 H1820 H 1.10848 0.32100 0.26336
 H1821 H 1.07851 0.30800 0.27972
 H1822 H 1.05132 0.29260 0.26143
 H1823 H 1.06724 0.29534 0.17783
 H1824 H 1.04007 0.27855 0.19441
 C1825 C 1.06809 0.79458 0.67876
 C1826 C 1.08364 0.80410 0.68945
 C1827 C 1.08294 0.80364 0.70953
 C1828 C 1.06771 0.79363 0.71902
 C1829 C 1.05296 0.78309 0.70884
 C1830 C 1.05322 0.78321 0.68853
 C1831 C 1.06649 0.79652 0.65867
 C1832 C 1.05178 0.78617 0.64837
 C1833 C 1.03823 0.77390 0.65783
 C1834 C 1.03882 0.77246 0.67772
 H1835 H 1.07613 0.80644 0.65073
 H1836 H 1.05088 0.78771 0.63296
 H1837 H 1.02697 0.76575 0.64974
 H1838 H 1.02783 0.76297 0.68454
 H1839 H 1.09450 0.81082 0.71808
 H1840 H 1.06758 0.79385 0.73454
 C1841 C 0.41868 0.72180 0.68486
 C1842 C 0.41664 0.70046 0.68482
 C1843 C 0.43156 0.68863 0.69349
 C1844 C 0.44802 0.69744 0.70252
 C1845 C 0.45019 0.71837 0.70298
 C1846 C 0.43597 0.73068 0.69344
 C1847 C 0.40357 0.73467 0.67755
 C1848 C 0.40610 0.75551 0.67746
 C1849 C 0.42350 0.76403 0.68491
 C1850 C 0.43828 0.75181 0.69296
 H1851 H 0.38945 0.72901 0.67226
 H1852 H 0.39443 0.76512 0.67167
 H1853 H 0.42541 0.78021 0.68474
 H1854 H 0.45147 0.75901 0.69888
 H1855 H 0.43022 0.67237 0.69366
 H1856 H 0.45873 0.68790 0.70992
 C1857 C 0.43880 0.18114 0.19313
 C1858 C 0.42221 0.19169 0.18512
 C1859 C 0.42124 0.21271 0.18710
 C1860 C 0.43564 0.22316 0.19760
 C1861 C 0.45131 0.21294 0.20679
 C1862 C 0.45310 0.19176 0.20455
 C1863 C 0.44176 0.16035 0.18978
 C1864 C 0.45765 0.15006 0.19840
 C1865 C 0.47092 0.16022 0.21043
 C1866 C 0.46873 0.18086 0.21352
 H1867 H 0.43216 0.15191 0.18018
 H1868 H 0.45966 0.13410 0.19575
 H1869 H 0.48310 0.15211 0.21724
 H1870 H 0.47944 0.18812 0.22293
 H1871 H 0.40882 0.22113 0.18104
 H1872 H 0.43424 0.23936 0.19904
 C1873 C -0.07762 0.71716 0.18450
 C1874 C -0.08123 0.69644 0.18809
 C1875 C -0.06862 0.68594 0.20071
 C1876 C -0.05274 0.69554 0.20986
 C1877 C -0.04898 0.71594 0.20670
 C1878 C -0.06112 0.72687 0.19368
 C1879 C -0.09043 0.72875 0.17269
 C1880 C -0.08652 0.74905 0.16933
 C1881 C -0.06999 0.75829 0.17781
 C1882 C -0.05741 0.74738 0.18996
 H1883 H -0.10373 0.72247 0.16617
 H1884 H -0.09643 0.75769 0.16017
 H1885 H -0.06703 0.77403 0.17512
 H1886 H -0.04483 0.75514 0.19644
 H1887 H -0.07123 0.67016 0.20365
 H1888 H -0.04358 0.68711 0.21989
 C1889 C -0.07190 0.18514 0.70569
 C1890 C -0.08761 0.19694 0.69763
 C1891 C -0.08637 0.21800 0.69853
 C1892 C -0.07048 0.22744 0.70787
 C1893 C -0.05544 0.21616 0.71690
 C1894 C -0.05602 0.19482 0.71588
 C1895 C -0.07127 0.16399 0.70346
 C1896 C -0.05611 0.15260 0.71201
 C1897 C -0.04123 0.16198 0.72283
 C1898 C -0.04112 0.18287 0.72479
 H1899 H -0.08215 0.15605 0.69479
 H1900 H -0.05589 0.13640 0.71022
 H1901 H -0.02959 0.15304 0.72956
 H1902 H -0.02923 0.18951 0.73327
 H1903 H -0.09809 0.22729 0.69235
 H1904 H -0.07006 0.24375 0.70836
 C1905 C 0.31724 0.42673 0.29370
 C1906 C 0.30539 0.41379 0.30516
 C1907 C 0.28481 0.41775 0.30697
 C1908 C 0.27574 0.43345 0.29701
 C1909 C 0.28682 0.44543 0.28452
 C1910 C 0.30775 0.44221 0.28281
 C1911 C 0.33835 0.42507 0.29316
 C1912 C 0.34963 0.43736 0.28123
 C1913 C 0.34022 0.45166 0.26977
 C1914 C 0.31949 0.45417 0.27055
 H1915 H 0.34643 0.41469 0.30224
 H1916 H 0.36579 0.43582 0.28092
 H1917 H 0.34905 0.46107 0.26045
 H1918 H 0.31281 0.46564 0.26156
 H1919 H 0.27550 0.40825 0.31578
 H1920 H 0.25978 0.43598 0.29865
 C1921 C 0.31586 -0.07305 0.78805
 C1922 C 0.30621 -0.08345 0.80332
 C1923 C 0.28719 -0.07667 0.80925
 C1924 C 0.27713 -0.06139 0.79957
 C1925 C 0.28571 -0.05213 0.78371
 C1926 C 0.30520 -0.05779 0.77784
 C1927 C 0.33629 -0.07622 0.78354
 C1928 C 0.34521 -0.06628 0.76826
 C1929 C 0.33425 -0.05254 0.75746
 C1930 C 0.31449 -0.04810 0.76229
 H1931 H 0.34590 -0.08566 0.79218
 H1932 H 0.36081 -0.06907 0.76494
 H1933 H 0.34125 -0.04488 0.74561
 H1934 H 0.30667 -0.03683 0.75392
 H1935 H 0.27939 -0.08389 0.82089
 H1936 H 0.26234 -0.05687 0.80434
 C1937 C 0.81597 0.43086 0.79091
 C1938 C 0.80420 0.41715 0.80181
 C1939 C 0.78340 0.42055 0.80300
 C1940 C 0.77408 0.43560 0.79237
 C1941 C 0.78515 0.44788 0.78019
 C1942 C 0.80624 0.44571 0.77942
 C1943 C 0.83715 0.43122 0.79210
 C1944 C 0.84834 0.44416 0.78073
 C1945 C 0.83876 0.45737 0.76827
 C1946 C 0.81791 0.45832 0.76769
 H1947 H 0.84531 0.42220 0.80235
 H1948 H 0.86454 0.44406 0.78172
 H1949 H 0.84752 0.46731 0.75939
 H1950 H 0.81106 0.46920 0.75817
 H1951 H 0.77390 0.41080 0.81136
 H1952 H 0.75797 0.43744 0.79333
 C1953 C 0.78041 -0.08226 0.30659
 C1954 C 0.80022 -0.08833 0.30126
 C1955 C 0.80931 -0.07873 0.28563
 C1956 C 0.80003 -0.06272 0.27633
 C1957 C 0.78123 -0.05581 0.28210
 C1958 C 0.77121 -0.06547 0.29727
 C1959 C 0.76874 -0.09333 0.31971
 C1960 C 0.74961 -0.08687 0.32492
 C1961 C 0.74135 -0.06965 0.31679
 C1962 C 0.75188 -0.05915 0.30290
 H1963 H 0.77373 -0.10754 0.32547
 H1964 H 0.74102 -0.09546 0.33512
 H1965 H 0.72648 -0.06473 0.32088
 H1966 H 0.74467 -0.04621 0.29645
 H1967 H 0.82420 -0.08297 0.28097
 H1968 H 0.80762 -0.05561 0.26448
 C1969 C 0.31885 0.57195 0.70904
 C1970 C 0.30752 0.58387 0.69600
 C1971 C 0.28697 0.58001 0.69371
 C1972 C 0.27748 0.56524 0.70443
 C1973 C 0.28807 0.55415 0.71817
 C1974 C 0.30891 0.55750 0.72065
 C1975 C 0.33993 0.57350 0.71042
 C1976 C 0.35070 0.56220 0.72379
 C1977 C 0.34081 0.54899 0.73586
 C1978 C 0.32013 0.54654 0.73431
 H1979 H 0.34841 0.58298 0.70094
 H1980 H 0.36683 0.56367 0.72472
 H1981 H 0.34924 0.54036 0.74628
 H1982 H 0.31307 0.53591 0.74382
 H1983 H 0.27803 0.58875 0.68375
 H1984 H 0.26162 0.56257 0.70216
 C1985 C 0.28320 1.08112 0.19458
 C1986 C 0.30443 1.08156 0.19298
 C1987 C 0.31595 1.06688 0.20237
 C1988 C 0.30693 1.05187 0.21315
 C1989 C 0.28608 1.05103 0.21485
 C1990 C 0.27398 1.06544 0.20524
 C1991 C 0.27090 1.09628 0.18652
 C1992 C 0.25009 1.09541 0.18806
 C1993 C 0.24109 1.07960 0.19774
 C1994 C 0.25285 1.06476 0.20630
 H1995 H 0.27711 1.10914 0.17929
 H1996 H 0.24089 1.10710 0.18173
 H1997 H 0.22493 1.07896 0.19879
 H1998 H 0.24524 1.05280 0.21379
 H1999 H 0.33216 1.06708 0.20139
 H2000 H 0.31630 1.04100 0.22053
 C2001 C 0.81210 0.57137 0.20749
 C2002 C 0.80096 0.58641 0.19757
 C2003 C 0.77996 0.58539 0.19747
 C2004 C 0.76994 0.57037 0.20738
 C2005 C 0.78054 0.55628 0.21834
 C2006 C 0.80179 0.55683 0.21867
 C2007 C 0.83319 0.56991 0.20609
 C2008 C 0.84389 0.55571 0.21670
 C2009 C 0.83388 0.54252 0.22870
 C2010 C 0.81303 0.54294 0.22966
 H2011 H 0.84161 0.57921 0.19641
 H2012 H 0.86005 0.55491 0.21556
 H2013 H 0.84228 0.53165 0.23704
 H2014 H 0.80582 0.53222 0.23895
 H2015 H 0.77111 0.59651 0.18986
 H2016 H 0.75372 0.56986 0.20670
 C2017 C 0.77333 1.08196 0.69580
 C2018 C 0.79326 1.08777 0.70060
 C2019 C 0.80358 1.07726 0.71500
 C2020 C 0.79482 1.06109 0.72432
 C2021 C 0.77560 1.05456 0.71928
 C2022 C 0.76477 1.06476 0.70475
 C2023 C 0.76134 1.09317 0.68292
 C2024 C 0.74210 1.08678 0.67796
 C2025 C 0.73425 1.06935 0.68590
 C2026 C 0.74537 1.05846 0.69928
 H2027 H 0.76635 1.10722 0.67695
 H2028 H 0.73317 1.09548 0.66797
 H2029 H 0.71934 1.06444 0.68193
 H2030 H 0.73859 1.04521 0.70542
 H2031 H 0.81872 1.08145 0.71899
 H2032 H 0.80315 1.05347 0.73552
 C2033 C 0.67777 0.56700 0.29956
 C2034 C 0.68820 0.57934 0.31294
 C2035 C 0.70861 0.57568 0.31645
 C2036 C 0.71900 0.56103 0.30614
 C2037 C 0.70939 0.54985 0.29175
 C2038 C 0.68857 0.55254 0.28852
 C2039 C 0.65677 0.56839 0.29713
 C2040 C 0.64689 0.55670 0.28341
 C2041 C 0.65762 0.54330 0.27198
 C2042 C 0.67825 0.54114 0.27449
 H2043 H 0.64772 0.57814 0.30603
 H2044 H 0.63080 0.55801 0.28167
 H2045 H 0.64988 0.53435 0.26128
 H2046 H 0.68597 0.53039 0.26543
 H2047 H 0.71681 0.58477 0.32674
 H2048 H 0.73485 0.55884 0.30891
 C2049 C 0.68364 1.06006 0.81399
 C2050 C 0.69496 1.07588 0.82272
 C2051 C 0.71601 1.07492 0.82170
 C2052 C 0.72556 1.06045 0.81047
 C2053 C 0.71449 1.04650 0.79978
 C2054 C 0.69337 1.04600 0.80163
 C2055 C 0.66309 1.05713 0.81800
 C2056 C 0.65202 1.04242 0.80838
 C2057 C 0.66120 1.03005 0.79488
 C2058 C 0.68170 1.03167 0.79158
 H2059 H 0.65552 1.06565 0.82904
 H2060 H 0.63625 1.04057 0.81147
 H2061 H 0.65250 1.01880 0.78729
 H2062 H 0.68830 1.02143 0.78128
 H2063 H 0.72533 1.08621 0.82850
 H2064 H 0.74177 1.06063 0.80949
 C2065 C 0.18258 0.56273 0.80194
 C2066 C 0.19240 0.57793 0.81291
 C2067 C 0.21344 0.57832 0.81331
 C2068 C 0.22470 0.56460 0.80269
 C2069 C 0.21535 0.55049 0.79068
 C2070 C 0.19412 0.54961 0.79006
 C2071 C 0.16165 0.55973 0.80292
 C2072 C 0.15218 0.54551 0.79127
 C2073 C 0.16332 0.53380 0.77862
 C2074 C 0.18410 0.53570 0.77803
 H2075 H 0.15243 0.56784 0.81303
 H2076 H 0.13611 0.54354 0.79210
 H2077 H 0.15587 0.52292 0.76947
 H2078 H 0.19222 0.52609 0.76818
 H2079 H 0.22133 0.58958 0.82167
 H2080 H 0.24090 0.56518 0.80360
 C2081 C 0.20435 1.09349 0.28694
 C2082 C 0.20310 1.09443 0.30726
 C2083 C 0.21193 1.07902 0.31814
 C2084 C 0.22119 1.06262 0.30937
 C2085 C 0.22136 1.06066 0.28941
 C2086 C 0.21251 1.07597 0.27799
 C2087 C 0.19821 1.10971 0.27524
 C2088 C 0.19832 1.10798 0.25533
 C2089 C 0.20468 1.09020 0.24666
 C2090 C 0.21174 1.07431 0.25781
 H2091 H 0.19380 1.12406 0.28124
 H2092 H 0.19342 1.12050 0.24659
 H2093 H 0.20447 1.08882 0.23120
 H2094 H 0.21667 1.06083 0.25044
 H2095 H 0.21134 1.07942 0.33364
 H2096 H 0.22800 1.05110 0.31825
 C2097 C 0.68160 0.43006 0.70365
 C2098 C 0.69053 0.41933 0.68816
 C2099 C 0.70973 0.42485 0.68207
 C2100 C 0.72050 0.43981 0.69161
 C2101 C 0.71267 0.44931 0.70789
 C2102 C 0.69315 0.44437 0.71416
 C2103 C 0.66131 0.42729 0.70870
 C2104 C 0.65322 0.43699 0.72466
 C2105 C 0.66501 0.44981 0.73575
 C2106 C 0.68478 0.45359 0.73056
 H2107 H 0.65136 0.41808 0.70016
 H2108 H 0.63769 0.43457 0.72842
 H2109 H 0.65870 0.45716 0.74822
 H2110 H 0.69332 0.46397 0.73934
 H2111 H 0.71679 0.41704 0.67022
 H2112 H 0.73535 0.44362 0.68662
 C2113 C 0.67866 -0.07021 0.20258
 C2114 C 0.68849 -0.08207 0.18838
 C2115 C 0.70848 -0.07764 0.18386
 C2116 C 0.71895 -0.06266 0.19363
 C2117 C 0.71014 -0.05215 0.20885
 C2118 C 0.68993 -0.05608 0.21365
 C2119 C 0.65782 -0.07155 0.20578
 C2120 C 0.64879 -0.06093 0.22072
 C2121 C 0.66021 -0.04852 0.23257
 C2122 C 0.68058 -0.04597 0.22906
 H2123 H 0.64817 -0.08027 0.19648
 H2124 H 0.63283 -0.06229 0.22308
 H2125 H 0.65315 -0.04046 0.24426
 H2126 H 0.68884 -0.03580 0.23831
 H2127 H 0.71638 -0.08621 0.17303
 H2128 H 0.73436 -0.05971 0.18976
 C2129 C 0.21938 0.41907 0.18670
 C2130 C 0.19836 0.41693 0.18949
 C2131 C 0.18831 0.43081 0.20127
 C2132 C 0.19855 0.44636 0.21041
 C2133 C 0.21914 0.44884 0.20779
 C2134 C 0.22960 0.43567 0.19530
 C2135 C 0.23077 0.40471 0.17639
 C2136 C 0.25122 0.40752 0.17334
 C2137 C 0.26084 0.42442 0.18073
 C2138 C 0.25023 0.43833 0.19174
 H2139 H 0.22432 0.39093 0.17102
 H2140 H 0.25967 0.39644 0.16527
 H2141 H 0.27669 0.42655 0.17824
 H2142 H 0.25832 0.45109 0.19757
 H2143 H 0.17233 0.42950 0.20361
 H2144 H 0.19041 0.45636 0.21992
 C2145 C 0.17945 -0.06595 0.70771
 C2146 C 0.18959 -0.07678 0.69299
 C2147 C 0.20931 -0.07134 0.68844
 C2148 C 0.21929 -0.05639 0.69865
 C2149 C 0.21023 -0.04685 0.71428
 C2150 C 0.19022 -0.05168 0.71907
 C2151 C 0.15877 -0.06849 0.71117
 C2152 C 0.14946 -0.05872 0.72647
 C2153 C 0.16042 -0.04602 0.73845
 C2154 C 0.18059 -0.04240 0.73478
 H2155 H 0.14945 -0.07752 0.70183
 H2156 H 0.13363 -0.06097 0.72901
 H2157 H 0.15314 -0.03862 0.75039
 H2158 H 0.18849 -0.03209 0.74418
 H2159 H 0.21744 -0.07915 0.67725
 H2160 H 0.23456 -0.05271 0.69479
 C2161 C 0.30031 0.32097 0.43753
 C2162 C 0.31096 0.30983 0.42343
 C2163 C 0.31216 0.28881 0.42495
 C2164 C 0.30229 0.27870 0.43953
 C2165 C 0.29091 0.28926 0.45306
 C2166 C 0.28994 0.31057 0.45227
 C2167 C 0.30000 0.34224 0.43754
 C2168 C 0.28910 0.35294 0.45124
 C2169 C 0.27838 0.34274 0.46519
 C2170 C 0.27875 0.32177 0.46577
 H2171 H 0.30842 0.35082 0.42724
 H2172 H 0.28898 0.36924 0.45103
 H2173 H 0.26987 0.35114 0.47572
 H2174 H 0.27027 0.31446 0.47690
 H2175 H 0.32023 0.28005 0.41436
 H2176 H 0.30323 0.26242 0.44009
 C2177 C 0.32201 0.80180 -0.06468
 C2178 C 0.31078 0.81189 -0.07910
 C2179 C 0.28980 0.81189 -0.07820
 C2180 C 0.27987 0.80134 -0.06398
 C2181 C 0.29057 0.79031 -0.05027
 C2182 C 0.31181 0.79051 -0.05044
 C2183 C 0.34314 0.80290 -0.06388
 C2184 C 0.35396 0.79233 -0.05003
 C2185 C 0.34402 0.78055 -0.03669
 C2186 C 0.32315 0.77959 -0.03683
 H2187 H 0.35148 0.81219 -0.07367
 H2188 H 0.37015 0.79328 -0.04964
 H2189 H 0.35251 0.77226 -0.02607
 H2190 H 0.31605 0.77029 -0.02618
 H2191 H 0.28094 0.81950 -0.08903
 H2192 H 0.26363 0.80142 -0.06388
 C2193 C 0.79540 0.32577 -0.06927
 C2194 C 0.80946 0.31522 -0.08085
 C2195 C 0.81444 0.29527 -0.07628
 C2196 C 0.80501 0.28538 -0.06130
 C2197 C 0.79011 0.29502 -0.05055
 C2198 C 0.78528 0.31542 -0.05435
 C2199 C 0.79143 0.34649 -0.07189
 C2200 C 0.77707 0.35642 -0.06086
 C2201 C 0.76652 0.34603 -0.04693
 C2202 C 0.77056 0.32574 -0.04361
 H2203 H 0.79963 0.35534 -0.08214
 H2204 H 0.77414 0.37229 -0.06310
 H2205 H 0.75530 0.35380 -0.03849
 H2206 H 0.76216 0.31829 -0.03251
 H2207 H 0.82522 0.28699 -0.08483
 H2208 H 0.80894 0.26984 -0.05837
 C2209 C 0.78649 0.81603 0.41820
 C2210 C 0.80764 0.81376 0.41650
 C2211 C 0.81804 0.80193 0.42986
 C2212 C 0.80805 0.79242 0.44469
 C2213 C 0.78734 0.79466 0.44684
 C2214 C 0.77644 0.80699 0.43394
 C2215 C 0.77487 0.82626 0.40432
 C2216 C 0.75427 0.82883 0.40665
 C2217 C 0.74474 0.82103 0.42264
 C2218 C 0.75564 0.81010 0.43614
 H2219 H 0.78130 0.83197 0.39130
 H2220 H 0.74563 0.83684 0.39594
 H2221 H 0.72876 0.82317 0.42442
 H2222 H 0.74763 0.80400 0.44823
 H2223 H 0.83412 0.79990 0.42873
 H2224 H 0.81651 0.78303 0.45450
 C2225 C 0.67975 0.28678 0.56992
 C2226 C 0.68828 0.30382 0.57929
 C2227 C 0.70640 0.31163 0.57249
 C2228 C 0.71672 0.30216 0.55765
 C2229 C 0.70947 0.28436 0.54940
 C2230 C 0.69081 0.27655 0.55541
 C2231 C 0.66034 0.27984 0.57437
 C2232 C 0.65266 0.26249 0.56577
 C2233 C 0.66401 0.25183 0.55245
 C2234 C 0.68288 0.25877 0.54722
 H2235 H 0.65071 0.28795 0.58415
 H2236 H 0.63781 0.25731 0.56943
 H2237 H 0.65803 0.23830 0.54592
 H2238 H 0.69108 0.25022 0.53657
 H2239 H 0.71311 0.32469 0.57926
 H2240 H 0.73094 0.30829 0.55310
 C2241 C 0.69649 0.77517 1.08341
 C2242 C 0.69405 0.79649 1.08385
 C2243 C 0.70159 0.80794 1.06868
 C2244 C 0.71125 0.79880 1.05328
 C2245 C 0.71324 0.77784 1.05223
 C2246 C 0.70515 0.76579 1.06699
 C2247 C 0.69135 0.76291 1.09912
 C2248 C 0.69281 0.74199 1.09794
 C2249 C 0.69969 0.73283 1.08126
 C2250 C 0.70592 0.74455 1.06593
 H2251 H 0.68673 0.76921 1.11267
 H2252 H 0.68863 0.73283 1.11005
 H2253 H 0.70060 0.71657 1.08035
 H2254 H 0.71146 0.73685 1.05333
 H2255 H 0.70000 0.82418 1.06874
 H2256 H 0.71740 0.80818 1.04212
 C2257 C 0.19171 0.27837 1.08694
 C2258 C 0.18780 0.29949 1.08681
 C2259 C 0.19360 0.31077 1.07084
 C2260 C 0.20327 0.30178 1.05540
 C2261 C 0.20673 0.28100 1.05495
 C2262 C 0.19993 0.26896 1.07032
 C2263 C 0.18860 0.26639 1.10333
 C2264 C 0.19122 0.24555 1.10263
 C2265 C 0.19729 0.23621 1.08576
 C2266 C 0.20172 0.24776 1.06974
 H2267 H 0.18483 0.27287 1.11703
 H2268 H 0.18857 0.23660 1.11528
 H2269 H 0.19906 0.22001 1.08521
 H2270 H 0.20674 0.23996 1.05698
 H2271 H 0.19086 0.32685 1.07034
 H2272 H 0.20837 0.31119 1.04378
 C2273 C 0.20489 0.82459 0.56380
 C2274 C 0.19556 0.81296 0.57829
 C2275 C 0.19670 0.79188 0.57721
 C2276 C 0.20714 0.78231 0.56260
 C2277 C 0.21741 0.79340 0.54881
 C2278 C 0.21662 0.81474 0.54947
 C2279 C 0.20244 0.84570 0.56278
 C2280 C 0.21257 0.85692 0.54907
 C2281 C 0.22513 0.84739 0.53599
 C2282 C 0.22713 0.82649 0.53608
 H2283 H 0.19233 0.85372 0.57214
 H2284 H 0.21063 0.87310 0.54858
 H2285 H 0.23310 0.85620 0.52551
 H2286 H 0.23687 0.81966 0.52554
 H2287 H 0.18975 0.78259 0.58799
 H2288 H 0.20742 0.76599 0.56218
 C2289 C 0.27795 0.69232 0.57858
 C2290 C 0.29920 0.69046 0.57924
 C2291 C 0.31064 0.69882 0.56450
 C2292 C 0.30159 0.70907 0.54942
 C2293 C 0.28075 0.71112 0.54843
 C2294 C 0.26869 0.70218 0.56271
 C2295 C 0.26565 0.68548 0.59361
 C2296 C 0.24483 0.68704 0.59240
 C2297 C 0.23582 0.69563 0.57639
 C2298 C 0.24757 0.70324 0.56169
 H2299 H 0.27182 0.67926 0.60661
 H2300 H 0.23564 0.68158 0.60399
 H2301 H 0.21964 0.69668 0.57549
 H2302 H 0.23997 0.70999 0.54957
 H2303 H 0.32684 0.69767 0.56481
 H2304 H 0.31095 0.71587 0.53861
 C2305 C 0.28062 0.18965 1.08053
 C2306 C 0.30189 0.19007 1.08189
 C2307 C 0.31284 0.20083 1.06828
 C2308 C 0.30324 0.21113 1.05352
 C2309 C 0.28234 0.21092 1.05183
 C2310 C 0.27085 0.19972 1.06506
 C2311 C 0.26872 0.18020 1.09452
 C2312 C 0.24790 0.17967 1.09271
 C2313 C 0.23848 0.18863 1.07710
 C2314 C 0.24977 0.19861 1.06339
 H2315 H 0.27519 0.17346 1.10716
 H2316 H 0.23901 0.17227 1.10352
 H2317 H 0.22233 0.18803 1.07570
 H2318 H 0.24184 0.20545 1.05152
 H2319 H 0.32905 0.20141 1.06917
 H2320 H 0.31215 0.21969 1.04353
 C2321 C 0.81850 0.71049 1.07416
 C2322 C 0.81120 0.69143 1.08024
 C2323 C 0.79485 0.68281 1.07055
 C2324 C 0.78564 0.69260 1.05530
 C2325 C 0.79288 0.71103 1.04876
 C2326 C 0.80983 0.71982 1.05772
 C2327 C 0.83342 0.72113 1.08446
 C2328 C 0.84079 0.73942 1.07779
 C2329 C 0.83321 0.74775 1.06100
 C2330 C 0.81774 0.73819 1.05110
 H2331 H 0.83915 0.71596 1.09804
 H2332 H 0.85234 0.74726 1.08579
 H2333 H 0.83903 0.76192 1.05587
 H2334 H 0.81186 0.74539 1.03837
 H2335 H 0.78892 0.66841 1.07500
 H2336 H 0.77255 0.68586 1.04866
 C2337 C 0.77840 0.18807 0.58400
 C2338 C 0.79945 0.19016 0.58664
 C2339 C 0.81051 0.20127 0.57338
 C2340 C 0.80121 0.21025 0.55770
 C2341 C 0.78056 0.20836 0.55475
 C2342 C 0.76902 0.19684 0.56764
 C2343 C 0.76625 0.17822 0.59755
 C2344 C 0.74570 0.17606 0.59448
 C2345 C 0.73676 0.18383 0.57805
 C2346 C 0.74823 0.19421 0.56475
 H2347 H 0.77228 0.17244 0.61081
 H2348 H 0.73663 0.16838 0.60496
 H2349 H 0.72081 0.18202 0.57572
 H2350 H 0.74067 0.20020 0.55225
 H2351 H 0.82653 0.20313 0.57525
 H2352 H 0.81014 0.21910 0.54796
 C2353 C 0.72058 0.68910 0.42307
 C2354 C 0.70033 0.69418 0.41867
 C2355 C 0.69060 0.70901 0.42962
 C2356 C 0.70046 0.71892 0.44448
 C2357 C 0.72032 0.71418 0.44911
 C2358 C 0.73038 0.69878 0.43881
 C2359 C 0.73171 0.67536 0.41179
 C2360 C 0.75141 0.67034 0.41665
 C2361 C 0.76055 0.67906 0.43259
 C2362 C 0.75024 0.69326 0.44354
 H2363 H 0.72565 0.66869 0.39891
 H2364 H 0.75967 0.65969 0.40792
 H2365 H 0.77582 0.67505 0.43630
 H2366 H 0.75796 0.69997 0.45565
 H2367 H 0.67521 0.71315 0.42648
 H2368 H 0.69263 0.73068 0.45228
 C2369 C 0.69166 0.22124 -0.07550
 C2370 C 0.69625 0.20073 -0.07967
 C2371 C 0.71093 0.19082 -0.06871
 C2372 C 0.72097 0.20067 -0.05390
 C2373 C 0.71641 0.22066 -0.04927
 C2374 C 0.70129 0.23096 -0.05970
 C2375 C 0.67843 0.23266 -0.08704
 C2376 C 0.67367 0.25253 -0.08229
 C2377 C 0.68217 0.26156 -0.06619
 C2378 C 0.69596 0.25098 -0.05503
 H2379 H 0.67202 0.22671 -0.10009
 H2380 H 0.66339 0.26101 -0.09123
 H2381 H 0.67834 0.27695 -0.06253
 H2382 H 0.70251 0.25865 -0.04281
 H2383 H 0.71472 0.17523 -0.07166
 H2384 H 0.73255 0.19268 -0.04605
 C2385 C 0.19950 0.72291 -0.08784
 C2386 C 0.19607 0.70175 -0.08751
 C2387 C 0.20182 0.69086 -0.07117
 C2388 C 0.21084 0.70032 -0.05553
 C2389 C 0.21369 0.72118 -0.05525
 C2390 C 0.20707 0.73278 -0.07112
 C2391 C 0.19646 0.73451 -0.10453
 C2392 C 0.19855 0.75540 -0.10412
 C2393 C 0.20398 0.76516 -0.08722
 C2394 C 0.20832 0.75401 -0.07086
 H2395 H 0.19312 0.72768 -0.11821
 H2396 H 0.19595 0.76406 -0.11700
 H2397 H 0.20531 0.78140 -0.08691
 H2398 H 0.21281 0.76214 -0.05809
 H2399 H 0.19943 0.67476 -0.07047
 H2400 H 0.21582 0.69123 -0.04356
 C2401 C 0.18166 0.20860 0.43918
 C2402 C 0.19200 0.19804 0.42446
 C2403 C 0.21300 0.19715 0.42502
 C2404 C 0.22382 0.20695 0.43934
 C2405 C 0.21405 0.21820 0.45350
 C2406 C 0.19280 0.21918 0.45352
 C2407 C 0.16053 0.20850 0.44033
 C2408 C 0.15063 0.21942 0.45456
 C2409 C 0.16150 0.23053 0.46796
 C2410 C 0.18238 0.23045 0.46752
 H2411 H 0.15144 0.19971 0.43058
 H2412 H 0.13442 0.21924 0.45520
 H2413 H 0.15372 0.23909 0.47888
 H2414 H 0.19023 0.23923 0.47826
 H2415 H 0.22122 0.18913 0.41401
 H2416 H 0.24003 0.20598 0.43926
 C2417 C 0.32332 0.43124 0.70863
 C2418 C 0.31196 0.41822 0.69657
 C2419 C 0.29137 0.42184 0.69420
 C2420 C 0.28178 0.43717 0.70427
 C2421 C 0.29235 0.44913 0.71740
 C2422 C 0.31331 0.44638 0.71958
 C2423 C 0.34443 0.42996 0.70976
 C2424 C 0.35523 0.44232 0.72227
 C2425 C 0.34530 0.45631 0.73372
 C2426 C 0.32455 0.45844 0.73240
 H2427 H 0.35288 0.41981 0.70073
 H2428 H 0.37140 0.44106 0.72303
 H2429 H 0.35376 0.46578 0.74348
 H2430 H 0.31746 0.46968 0.74138
 H2431 H 0.28241 0.41227 0.68494
 H2432 H 0.26579 0.43933 0.70232
 C2433 C 0.27083 0.91641 0.19680
 C2434 C 0.29151 0.91146 0.19849
 C2435 C 0.30408 0.92379 0.20959
 C2436 C 0.29663 0.94078 0.21891
 C2437 C 0.27637 0.94600 0.21744
 C2438 C 0.26332 0.93405 0.20608
 C2439 C 0.25723 0.90391 0.18675
 C2440 C 0.23704 0.90918 0.18510
 C2441 C 0.22992 0.92681 0.19356
 C2442 C 0.24286 0.93914 0.20403
 H2443 H 0.26186 0.88982 0.18037
 H2444 H 0.22684 0.89949 0.17728
 H2445 H 0.21425 0.93084 0.19217
 H2446 H 0.23671 0.95262 0.21053
 H2447 H 0.31987 0.92023 0.21106
 H2448 H 0.30669 0.94978 0.22764
 C2449 C 0.78190 0.42496 0.18539
 C2450 C 0.80302 0.42381 0.18826
 C2451 C 0.81214 0.43674 0.20160
 C2452 C 0.80092 0.45061 0.21200
 C2453 C 0.78023 0.45228 0.20921
 C2454 C 0.77058 0.43984 0.19548
 C2455 C 0.77154 0.41126 0.17340
 C2456 C 0.75093 0.41314 0.17035
 C2457 C 0.74017 0.42844 0.17935
 C2458 C 0.74982 0.44164 0.19190
 H2459 H 0.77898 0.39869 0.16662
 H2460 H 0.74326 0.40260 0.16101
 H2461 H 0.72420 0.42986 0.17685
 H2462 H 0.74088 0.45313 0.19888
 H2463 H 0.82818 0.43609 0.20406
 H2464 H 0.80845 0.46010 0.22244
 C2465 C 0.77771 0.92453 0.68607
 C2466 C 0.79732 0.91823 0.69159
 C2467 C 0.80668 0.92759 0.70730
 C2468 C 0.79713 0.94282 0.71750
 C2469 C 0.77805 0.94953 0.71213
 C2470 C 0.76833 0.94077 0.69608
 C2471 C 0.76676 0.91462 0.67145
 C2472 C 0.74775 0.92139 0.66602
 C2473 C 0.73910 0.93789 0.67519
 C2474 C 0.74918 0.94745 0.69019
 H2475 H 0.77238 0.90129 0.66438
 H2476 H 0.73962 0.91369 0.65471
 H2477 H 0.72437 0.94308 0.67088
 H2478 H 0.74181 0.95999 0.69722
 H2479 H 0.82158 0.92303 0.71179
 H2480 H 0.80462 0.94935 0.72985
 C2481 C 0.70581 0.56688 0.67373
 C2482 C 0.69697 0.58318 0.68403
 C2483 C 0.69933 0.58401 0.70400
 C2484 C 0.71029 0.56942 0.71374
 C2485 C 0.71998 0.55386 0.70384
 C2486 C 0.71829 0.55282 0.68360
 C2487 C 0.70205 0.56369 0.65401
 C2488 C 0.71183 0.54837 0.64398
 C2489 C 0.72530 0.53574 0.65336
 C2490 C 0.72848 0.53782 0.67301
 H2491 H 0.69113 0.57250 0.64623
 H2492 H 0.70890 0.54626 0.62884
 H2493 H 0.73302 0.52402 0.64546
 H2494 H 0.73885 0.52751 0.67983
 H2495 H 0.69278 0.59619 0.71225
 H2496 H 0.71126 0.57030 0.72922
 C2497 C 0.70778 0.06646 0.17479
 C2498 C 0.69851 0.08253 0.18507
 C2499 C 0.69987 0.08280 0.20513
 C2500 C 0.71020 0.06786 0.21501
 C2501 C 0.72025 0.05246 0.20520
 C2502 C 0.71960 0.05199 0.18489
 C2503 C 0.70507 0.06387 0.15485
 C2504 C 0.71522 0.04870 0.14492
 C2505 C 0.72801 0.03564 0.15463
 C2506 C 0.73014 0.03714 0.17444
 H2507 H 0.69469 0.07301 0.14676
 H2508 H 0.71309 0.04704 0.12962
 H2509 H 0.73599 0.02402 0.14682
 H2510 H 0.73999 0.02648 0.18150
 H2511 H 0.69296 0.09478 0.21338
 H2512 H 0.71038 0.06832 0.23052
 C2513 C 0.22879 0.58328 0.18657
 C2514 C 0.20795 0.58750 0.18849
 C2515 C 0.19623 0.57493 0.19999
 C2516 C 0.20465 0.55866 0.20963
 C2517 C 0.22501 0.55410 0.20783
 C2518 C 0.23714 0.56599 0.19574
 C2519 C 0.24178 0.59620 0.17653
 C2520 C 0.26202 0.59141 0.17435
 C2521 C 0.26983 0.57389 0.18234
 C2522 C 0.25760 0.56132 0.19305
 H2523 H 0.23673 0.61034 0.17067
 H2524 H 0.27172 0.60141 0.16649
 H2525 H 0.28552 0.57021 0.18051
 H2526 H 0.26430 0.54800 0.19931
 H2527 H 0.18034 0.57781 0.20168
 H2528 H 0.19523 0.54966 0.21882
 C2529 C 0.19406 0.08925 0.71743
 C2530 C 0.19645 0.09063 0.69723
 C2531 C 0.20855 0.07641 0.68782
 C2532 C 0.21771 0.06078 0.69783
 C2533 C 0.21469 0.05848 0.71751
 C2534 C 0.20241 0.07249 0.72742
 C2535 C 0.18415 0.10438 0.72812
 C2536 C 0.18098 0.10217 0.74772
 C2537 C 0.18781 0.08504 0.75714
 C2538 C 0.19851 0.07034 0.74716
 H2539 H 0.17924 0.11830 0.72167
 H2540 H 0.17321 0.11384 0.75566
 H2541 H 0.18513 0.08331 0.77232
 H2542 H 0.20382 0.05739 0.75508
 H2543 H 0.21069 0.07716 0.67248
 H2544 H 0.22712 0.05020 0.69011
 C2545 C 0.32171 0.56672 0.29578
 C2546 C 0.31075 0.57961 0.30825
 C2547 C 0.29007 0.57672 0.31033
 C2548 C 0.28002 0.56212 0.29967
 C2549 C 0.29027 0.55014 0.28637
 C2550 C 0.31129 0.55226 0.28438
 C2551 C 0.34284 0.56746 0.29469
 C2552 C 0.35326 0.55515 0.28190
 C2553 C 0.34295 0.54175 0.27010
 C2554 C 0.32217 0.54022 0.27131
 H2555 H 0.35157 0.57715 0.30395
 H2556 H 0.36945 0.55597 0.28119
 H2557 H 0.35112 0.53231 0.26013
 H2558 H 0.31477 0.52945 0.26201
 H2559 H 0.28147 0.58627 0.31989
 H2560 H 0.26399 0.56042 0.30145
 C2561 C 0.29063 0.07021 0.82211
 C2562 C 0.30538 0.08258 0.81344
 C2563 C 0.31081 0.07862 0.79436
 C2564 C 0.30133 0.06370 0.78369
 C2565 C 0.28532 0.05290 0.79129
 C2566 C 0.27970 0.05618 0.81061
 C2567 C 0.28679 0.07093 0.84197
 C2568 C 0.27125 0.05977 0.84989
 C2569 C 0.25945 0.04745 0.83830
 C2570 C 0.26365 0.04552 0.81885
 H2571 H 0.29610 0.07951 0.85168
 H2572 H 0.26839 0.06064 0.86512
 H2573 H 0.24729 0.03897 0.84450
 H2574 H 0.25443 0.03542 0.81041
 H2575 H 0.32210 0.08749 0.78727
 H2576 H 0.30596 0.06111 0.76902
 C2577 C 0.82064 0.56775 0.78990
 C2578 C 0.80918 0.58183 0.80068
 C2579 C 0.78823 0.58029 0.80071
 C2580 C 0.77852 0.56563 0.78984
 C2581 C 0.78943 0.55200 0.77863
 C2582 C 0.81064 0.55290 0.77858
 C2583 C 0.84181 0.56775 0.79044
 C2584 C 0.85280 0.55399 0.77955
 C2585 C 0.84301 0.53992 0.76803
 C2586 C 0.82213 0.53930 0.76752
 H2587 H 0.85007 0.57808 0.79948
 H2588 H 0.86902 0.55421 0.78009
 H2589 H 0.85164 0.52933 0.75956
 H2590 H 0.81511 0.52807 0.75846
 H2591 H 0.77925 0.59087 0.80887
 H2592 H 0.76229 0.56496 0.79007
 C2593 C 0.81695 0.06604 0.29410
 C2594 C 0.80473 0.07948 0.30486
 C2595 C 0.78389 0.07687 0.30473
 C2596 C 0.77501 0.06190 0.29358
 C2597 C 0.78666 0.04903 0.28222
 C2598 C 0.80780 0.05091 0.28246
 C2599 C 0.83809 0.06697 0.29493
 C2600 C 0.84984 0.05394 0.28395
 C2601 C 0.84084 0.03968 0.27207
 C2602 C 0.82003 0.03809 0.27131
 H2603 H 0.84576 0.07746 0.30428
 H2604 H 0.86602 0.05489 0.28470
 H2605 H 0.85005 0.02967 0.26352
 H2606 H 0.81363 0.02670 0.26199
 H2607 H 0.77433 0.08693 0.31287
 H2608 H 0.75883 0.06048 0.29359
 C2609 C 0.72028 0.41418 0.30741
 C2610 C 0.69910 0.41150 0.30687
 C2611 C 0.68729 0.42531 0.29661
 C2612 C 0.69588 0.44149 0.28716
 C2613 C 0.71653 0.44489 0.28815
 C2614 C 0.72884 0.43163 0.29890
 C2615 C 0.73335 0.39966 0.31542
 C2616 C 0.75391 0.40318 0.31676
 C2617 C 0.76196 0.42100 0.30987
 C2618 C 0.74962 0.43508 0.30089
 H2619 H 0.72809 0.38519 0.32016
 H2620 H 0.76367 0.39196 0.32311
 H2621 H 0.77790 0.42372 0.31109
 H2622 H 0.75650 0.44857 0.29534
 H2623 H 0.67116 0.42363 0.29591
 H2624 H 0.68631 0.45153 0.27898
 C2625 C 0.71970 0.91010 0.80911
 C2626 C 0.69846 0.91024 0.81089
 C2627 C 0.68746 0.92636 0.80324
 C2628 C 0.69700 0.94225 0.79418
 C2629 C 0.71789 0.94272 0.79268
 C2630 C 0.72949 0.92684 0.80057
 C2631 C 0.73148 0.89346 0.81492
 C2632 C 0.75233 0.89396 0.81368
 C2633 C 0.76188 0.91086 0.80645
 C2634 C 0.75063 0.92715 0.79985
 H2635 H 0.72483 0.87971 0.82002
 H2636 H 0.76113 0.88113 0.81832
 H2637 H 0.77808 0.91122 0.80566
 H2638 H 0.75862 0.93990 0.79411
 H2639 H 0.67128 0.92673 0.80438
 H2640 H 0.68799 0.95428 0.78814
 C2641 C 0.22545 0.41738 0.81498
 C2642 C 0.20469 0.41389 0.81156
 C2643 C 0.19425 0.42649 0.79886
 C2644 C 0.20382 0.44225 0.78964
 C2645 C 0.22412 0.44615 0.79294
 C2646 C 0.23502 0.43405 0.80605
 C2647 C 0.23720 0.40432 0.82639
 C2648 C 0.25739 0.40835 0.82995
 C2649 C 0.26638 0.42524 0.82205
 C2650 C 0.25538 0.43795 0.81012
 H2651 H 0.23119 0.39066 0.83233
 H2652 H 0.26614 0.39826 0.83883
 H2653 H 0.28203 0.42832 0.82494
 H2654 H 0.26298 0.45077 0.80401
 H2655 H 0.17845 0.42412 0.79602
 H2656 H 0.19535 0.45142 0.77964
 C2657 C 0.17841 0.93731 0.29746
 C2658 C 0.18746 0.92619 0.31261
 C2659 C 0.20699 0.93115 0.31849
 C2660 C 0.21794 0.94581 0.30897
 C2661 C 0.20999 0.95556 0.29291
 C2662 C 0.19011 0.95133 0.28695
 C2663 C 0.15792 0.93520 0.29270
 C2664 C 0.14967 0.94523 0.27701
 C2665 C 0.16153 0.95774 0.26591
 C2666 C 0.18155 0.96089 0.27082
 H2667 H 0.14793 0.92625 0.30128
 H2668 H 0.13397 0.94331 0.27347
 H2669 H 0.15509 0.96535 0.25365
 H2670 H 0.19015 0.97104 0.26204
 H2671 H 0.21420 0.92308 0.33008
 H2672 H 0.23310 0.94901 0.31370
 C2673 C 0.43498 0.31552 0.71075
 C2674 C 0.42433 0.30602 0.69550
 C2675 C 0.43001 0.28652 0.68980
 C2676 C 0.44500 0.27603 0.69952
 C2677 C 0.45441 0.28442 0.71562
 C2678 C 0.44944 0.30429 0.72141
 C2679 C 0.43201 0.33603 0.71544
 C2680 C 0.44174 0.34473 0.73114
 C2681 C 0.45478 0.33333 0.74232
 C2682 C 0.45872 0.31331 0.73751
 H2683 H 0.42264 0.34571 0.70679
 H2684 H 0.43917 0.36044 0.73461
 H2685 H 0.46217 0.34012 0.75457
 H2686 H 0.46926 0.30508 0.74636
 H2687 H 0.42231 0.27899 0.67812
 H2688 H 0.44877 0.26089 0.69491
 C2689 C 0.42065 0.81659 0.21478
 C2690 C 0.41006 0.80594 0.20017
 C2691 C 0.41639 0.78642 0.19522
 C2692 C 0.43228 0.77718 0.20474
 C2693 C 0.44199 0.78683 0.21999
 C2694 C 0.43607 0.80657 0.22533
 C2695 C 0.41683 0.83712 0.21881
 C2696 C 0.42665 0.84694 0.23384
 C2697 C 0.44067 0.83667 0.24497
 C2698 C 0.44547 0.81671 0.24074
 H2699 H 0.40676 0.84600 0.21012
 H2700 H 0.42344 0.86263 0.23682
 H2701 H 0.44815 0.84434 0.25670
 H2702 H 0.45677 0.80939 0.24947
 H2703 H 0.40873 0.77798 0.18409
 H2704 H 0.43679 0.76213 0.20045
 C2705 C 0.91501 0.30961 0.21948
 C2706 C 0.91434 0.30913 0.19913
 C2707 C 0.92893 0.29818 0.18909
 C2708 C 0.94420 0.28803 0.19874
 C2709 C 0.94542 0.28860 0.21874
 C2710 C 0.93102 0.29975 0.22930
 C2711 C 0.89982 0.31902 0.23040
 C2712 C 0.90101 0.31971 0.25034
 C2713 C 0.91719 0.31096 0.25983
 C2714 C 0.93207 0.30103 0.24949
 H2715 H 0.88666 0.32554 0.22379
 H2716 H 0.88927 0.32704 0.25848
 H2717 H 0.91809 0.31165 0.27531
 H2718 H 0.94433 0.29434 0.25745
 H2719 H 0.92858 0.29758 0.17358
 H2720 H 0.95506 0.27945 0.19056
 C2721 C 0.92951 0.82202 0.70645
 C2722 C 0.91845 0.81210 0.69169
 C2723 C 0.92372 0.79227 0.68670
 C2724 C 0.93882 0.78202 0.69644
 C2725 C 0.94866 0.79088 0.71205
 C2726 C 0.94388 0.81093 0.71738
 C2727 C 0.92717 0.84279 0.71033
 C2728 C 0.93714 0.85186 0.72570
 C2729 C 0.94987 0.84057 0.73732
 C2730 C 0.95335 0.82031 0.73319
 H2731 H 0.91819 0.85240 0.70125
 H2732 H 0.93504 0.86777 0.72856
 H2733 H 0.95743 0.84765 0.74932
 H2734 H 0.96372 0.81216 0.74228
 H2735 H 0.91574 0.78430 0.67547
 H2736 H 0.94243 0.76672 0.69218
 C2737 C 0.56295 0.29394 0.31959
 C2738 C 0.57843 0.30447 0.30995
 C2739 C 0.57840 0.30469 0.28986
 C2740 C 0.56397 0.29430 0.27935
 C2741 C 0.54936 0.28279 0.28848
 C2742 C 0.54892 0.28227 0.30879
 C2743 C 0.56067 0.29510 0.33967
 C2744 C 0.54615 0.28375 0.34896
 C2745 C 0.53350 0.27118 0.33850
 C2746 C 0.53478 0.27043 0.31859
 H2747 H 0.56965 0.30513 0.34837
 H2748 H 0.54471 0.28470 0.36438
 H2749 H 0.52242 0.26221 0.34581
 H2750 H 0.52454 0.26061 0.31100
 H2751 H 0.58993 0.31262 0.28210
 H2752 H 0.56440 0.29498 0.26385
 C2753 C 0.56021 0.79488 0.82035
 C2754 C 0.57599 0.80545 0.81120
 C2755 C 0.57673 0.80561 0.79113
 C2756 C 0.56275 0.79513 0.78016
 C2757 C 0.54782 0.78362 0.78883
 C2758 C 0.54663 0.78315 0.80910
 C2759 C 0.55721 0.79605 0.84034
 C2760 C 0.54238 0.78469 0.84915
 C2761 C 0.53012 0.77211 0.83829
 C2762 C 0.53212 0.77133 0.81844
 H2763 H 0.56588 0.80608 0.84932
 H2764 H 0.54039 0.78565 0.86451
 H2765 H 0.51878 0.76314 0.84524
 H2766 H 0.52216 0.76149 0.81053
 H2767 H 0.58852 0.81357 0.78377
 H2768 H 0.56373 0.79578 0.76469
 C2769 C 0.08901 0.29963 0.78159
 C2770 C 0.09037 0.29988 0.80194
 C2771 C 0.07530 0.29053 0.81262
 C2772 C 0.05898 0.28140 0.80366
 C2773 C 0.05684 0.28176 0.78373
 C2774 C 0.07164 0.29139 0.77252
 C2775 C 0.10472 0.30668 0.76992
 C2776 C 0.10261 0.30733 0.75006
 C2777 C 0.08499 0.30079 0.74137
 C2778 C 0.06964 0.29281 0.75242
 H2779 H 0.11898 0.31122 0.77584
 H2780 H 0.11474 0.31294 0.74136
 H2781 H 0.08334 0.30156 0.72596
 H2782 H 0.05628 0.28771 0.74505
 H2783 H 0.07605 0.29039 0.82812
 H2784 H 0.04782 0.27404 0.81238
 C2785 C 0.07289 0.78774 0.31633
 C2786 C 0.08640 0.79986 0.30575
 C2787 C 0.08367 0.80182 0.28594
 C2788 C 0.06838 0.79165 0.27644
 C2789 C 0.05540 0.77899 0.28638
 C2790 C 0.05761 0.77680 0.30646
 C2791 C 0.07377 0.78663 0.33652
 C2792 C 0.06076 0.77417 0.34656
 C2793 C 0.04653 0.76275 0.33678
 C2794 C 0.04486 0.76406 0.31692
 H2795 H 0.08413 0.79563 0.34482
 H2796 H 0.06170 0.77342 0.36202
 H2797 H 0.03656 0.75303 0.34465
 H2798 H 0.03346 0.75509 0.30988
 H2799 H 0.09372 0.81105 0.27761
 H2800 H 0.06674 0.79349 0.26109
 C2801 C 0.58835 0.72571 0.69435
 C2802 C 0.58905 0.70460 0.69071
 C2803 C 0.57297 0.69259 0.69658
 C2804 C 0.55647 0.70095 0.70582
 C2805 C 0.55518 0.72170 0.70910
 C2806 C 0.57085 0.73437 0.70274
 C2807 C 0.60483 0.73840 0.69065
 C2808 C 0.60343 0.75917 0.69343
 C2809 C 0.58577 0.76773 0.70019
 C2810 C 0.56963 0.75550 0.70491
 H2811 H 0.61914 0.73253 0.68611
 H2812 H 0.61615 0.76868 0.69035
 H2813 H 0.58469 0.78388 0.70214
 H2814 H 0.55624 0.76274 0.71036
 H2815 H 0.57318 0.67648 0.69405
 H2816 H 0.54463 0.69109 0.71065
 C2817 C 0.56777 0.18637 0.19486
 C2818 C 0.58435 0.19788 0.18841
 C2819 C 0.58477 0.21862 0.19228
 C2820 C 0.56967 0.22789 0.20286
 C2821 C 0.55384 0.21667 0.21037
 C2822 C 0.55292 0.19566 0.20661
 C2823 C 0.56527 0.16598 0.18952
 C2824 C 0.54950 0.15465 0.19677
 C2825 C 0.53585 0.16336 0.20934
 C2826 C 0.53746 0.18366 0.21424
 H2827 H 0.57510 0.15868 0.17938
 H2828 H 0.54787 0.13900 0.19263
 H2829 H 0.52378 0.15443 0.21511
 H2830 H 0.52646 0.18981 0.22400
 H2831 H 0.59717 0.22774 0.18744
 H2832 H 0.57045 0.24397 0.20544
 C2833 C 0.07163 0.67831 0.20148
 C2834 C 0.08511 0.68986 0.19037
 C2835 C 0.08279 0.71084 0.18967
 C2836 C 0.06790 0.72052 0.20015
 C2837 C 0.05485 0.70954 0.21168
 C2838 C 0.05655 0.68829 0.21242
 C2839 C 0.07242 0.65705 0.20163
 C2840 C 0.05925 0.64599 0.21287
 C2841 C 0.04497 0.65581 0.22403
 C2842 C 0.04354 0.67675 0.22382
 H2843 H 0.08293 0.64875 0.19288
 H2844 H 0.06008 0.62971 0.21288
 H2845 H 0.03483 0.64713 0.23277
 H2846 H 0.03214 0.68379 0.23259
 H2847 H 0.09291 0.71991 0.18127
 H2848 H 0.06662 0.73677 0.19941
 C2849 C 0.05920 0.18085 0.69417
 C2850 C 0.07544 0.19186 0.68633
 C2851 C 0.07674 0.21260 0.69002
 C2852 C 0.06292 0.22230 0.70176
 C2853 C 0.04760 0.21154 0.71068
 C2854 C 0.04572 0.19058 0.70707
 C2855 C 0.05569 0.16052 0.68918
 C2856 C 0.04032 0.14967 0.69775
 C2857 C 0.02807 0.15881 0.71133
 C2858 C 0.03068 0.17907 0.71599
 H2859 H 0.06439 0.15292 0.67831
 H2860 H 0.03791 0.13406 0.69384
 H2861 H 0.01631 0.15025 0.71810
 H2862 H 0.02075 0.18559 0.72655
 H2863 H 0.08888 0.22140 0.68419
 H2864 H 0.06440 0.23835 0.70420
 C2865 C 0.43665 0.68589 0.30699
 C2866 C 0.42073 0.69675 0.31576
 C2867 C 0.42075 0.71785 0.31507
 C2868 C 0.43532 0.72815 0.30488
 C2869 C 0.45008 0.71769 0.29466
 C2870 C 0.45099 0.69638 0.29577
 C2871 C 0.43885 0.66488 0.30930
 C2872 C 0.45390 0.65430 0.29974
 C2873 C 0.46709 0.66439 0.28781
 C2874 C 0.46573 0.68522 0.28581
 H2875 H 0.42932 0.65647 0.31881
 H2876 H 0.45531 0.63818 0.30158
 H2877 H 0.47860 0.65606 0.28026
 H2878 H 0.47637 0.69243 0.27647
 H2879 H 0.40891 0.72650 0.32180
 H2880 H 0.43464 0.74444 0.30434
 C2881 C 0.43368 0.18369 0.80253
 C2882 C 0.41852 0.19551 0.81138
 C2883 C 0.41927 0.21656 0.80998
 C2884 C 0.43423 0.22594 0.79953
 C2885 C 0.44869 0.21458 0.78983
 C2886 C 0.44847 0.19326 0.79113
 C2887 C 0.43486 0.16262 0.80511
 C2888 C 0.44942 0.15118 0.79574
 C2889 C 0.46314 0.16044 0.78374
 C2890 C 0.46274 0.18126 0.78142
 H2891 H 0.42492 0.15481 0.81468
 H2892 H 0.45007 0.13505 0.79781
 H2893 H 0.47430 0.15146 0.77637
 H2894 H 0.47374 0.18782 0.77201
 H2895 H 0.40790 0.22586 0.81669
 H2896 H 0.43444 0.24224 0.79883
 C2897 C 0.91643 0.72426 0.80530
 C2898 C 0.91336 0.70310 0.80398
 C2899 C 0.92683 0.69131 0.79334
 C2900 C 0.94302 0.69997 0.78404
 C2901 C 0.94651 0.72068 0.78533
 C2902 C 0.93358 0.73294 0.79650
 C2903 C 0.90253 0.73722 0.81439
 C2904 C 0.90621 0.75782 0.81603
 C2905 C 0.92358 0.76602 0.80844
 C2906 C 0.93713 0.75378 0.79867
 H2907 H 0.88848 0.73182 0.81990
 H2908 H 0.89546 0.76750 0.82316
 H2909 H 0.92640 0.78200 0.80986
 H2910 H 0.95033 0.76078 0.79275
 H2911 H 0.92474 0.67518 0.79211
 H2912 H 0.95276 0.69048 0.77549
 C2913 C 0.91000 0.22190 0.30729
 C2914 C 0.90787 0.20060 0.30743
 C2915 C 0.92240 0.18854 0.29851
 C2916 C 0.93892 0.19710 0.28964
 C2917 C 0.94147 0.21799 0.28949
 C2918 C 0.92723 0.23058 0.29870
 C2919 C 0.89510 0.23486 0.31481
 C2920 C 0.89767 0.25569 0.31482
 C2921 C 0.91496 0.26408 0.30724
 C2922 C 0.92963 0.25171 0.29922
 H2923 H 0.88117 0.22919 0.32038
 H2924 H 0.88615 0.26539 0.32070
 H2925 H 0.91691 0.28025 0.30738
 H2926 H 0.94279 0.25886 0.29338
 H2927 H 0.92094 0.17230 0.29841
 H2928 H 0.94966 0.18737 0.28254
 C2929 C 0.30399 0.32124 0.56621
 C2930 C 0.31457 0.31025 0.58048
 C2931 C 0.31475 0.28915 0.57961
 C2932 C 0.30405 0.27887 0.56549
 C2933 C 0.29270 0.28933 0.55185
 C2934 C 0.29259 0.31069 0.55208
 C2935 C 0.30478 0.34248 0.56540
 C2936 C 0.29382 0.35306 0.55166
 C2937 C 0.28196 0.34277 0.53842
 C2938 C 0.28131 0.32180 0.53856
 H2939 H 0.31412 0.35110 0.57508
 H2940 H 0.29453 0.36934 0.55127
 H2941 H 0.27338 0.35107 0.52788
 H2942 H 0.27195 0.31442 0.52798
 H2943 H 0.32274 0.28048 0.59032
 H2944 H 0.30436 0.26255 0.56535
 C2945 C 0.31960 0.79877 0.06486
 C2946 C 0.30786 0.80823 0.07928
 C2947 C 0.28690 0.80767 0.07779
 C2948 C 0.27749 0.79748 0.06283
 C2949 C 0.28869 0.78725 0.04895
 C2950 C 0.30993 0.78775 0.04987
 C2951 C 0.34070 0.80035 0.06469
 C2952 C 0.35202 0.79043 0.05078
 C2953 C 0.34260 0.77886 0.03673
 C2954 C 0.32176 0.77750 0.03621
 H2955 H 0.34867 0.80955 0.07500
 H2956 H 0.36819 0.79173 0.05089
 H2957 H 0.35148 0.77107 0.02606
 H2958 H 0.31506 0.76841 0.02501
 H2959 H 0.27761 0.81477 0.08859
 H2960 H 0.26126 0.79735 0.06219
 C2961 C 0.79003 0.32272 0.07527
 C2962 C 0.80995 0.31708 0.08039
 C2963 C 0.81946 0.30150 0.07024
 C2964 C 0.80979 0.29165 0.05521
 C2965 C 0.79045 0.29732 0.04956
 C2966 C 0.78053 0.31320 0.05931
 C2967 C 0.77889 0.33688 0.08608
 C2968 C 0.75957 0.34251 0.08049
 C2969 C 0.75079 0.33397 0.06429
 C2970 C 0.76105 0.31934 0.05382
 H2971 H 0.78459 0.34337 0.09919
 H2972 H 0.75131 0.35347 0.08887
 H2973 H 0.73582 0.33845 0.06000
 H2974 H 0.75356 0.31278 0.04151
 H2975 H 0.83453 0.29685 0.07405
 H2976 H 0.81738 0.27934 0.04798
 C2977 C 0.78756 0.82103 0.57462
 C2978 C 0.80871 0.81868 0.57651
 C2979 C 0.81898 0.80637 0.56345
 C2980 C 0.80885 0.79631 0.54884
 C2981 C 0.78812 0.79848 0.54660
 C2982 C 0.77739 0.81147 0.55904
 C2983 C 0.77602 0.83179 0.58820
 C2984 C 0.75543 0.83439 0.58566
 C2985 C 0.74580 0.82611 0.56977
 C2986 C 0.75659 0.81462 0.55662
 H2987 H 0.78249 0.83786 0.60116
 H2988 H 0.74687 0.84281 0.59613
 H2989 H 0.72983 0.82827 0.56783
 H2990 H 0.74851 0.80812 0.54462
 H2991 H 0.83505 0.80427 0.56474
 H2992 H 0.81719 0.78642 0.53939
 C2993 C 0.27941 0.68952 0.41967
 C2994 C 0.30060 0.69104 0.41810
 C2995 C 0.31131 0.70227 0.43174
 C2996 C 0.30154 0.71204 0.44669
 C2997 C 0.28073 0.71087 0.44850
 C2998 C 0.26950 0.69918 0.43527
 C2999 C 0.26769 0.67939 0.40576
 C3000 C 0.24695 0.67791 0.40775
 C3001 C 0.23743 0.68664 0.42343
 C3002 C 0.24852 0.69727 0.43706
 H3003 H 0.27422 0.67283 0.39307
 H3004 H 0.23820 0.67000 0.39701
 H3005 H 0.22135 0.68537 0.42491
 H3006 H 0.24055 0.70401 0.44894
 H3007 H 0.32745 0.70365 0.43071
 H3008 H 0.31024 0.72099 0.45672
 C3009 C 0.31674 0.20690 0.93677
 C3010 C 0.30495 0.19938 0.92130
 C3011 C 0.28404 0.20133 0.92204
 C3012 C 0.27478 0.21107 0.93728
 C3013 C 0.28610 0.21963 0.95214
 C3014 C 0.30727 0.21777 0.95193
 C3015 C 0.33762 0.20346 0.93789
 C3016 C 0.34904 0.21178 0.95270
 C3017 C 0.33994 0.22349 0.96678
 C3018 C 0.31925 0.22646 0.96649
 H3019 H 0.34530 0.19397 0.92767
 H3020 H 0.36505 0.20911 0.95327
 H3021 H 0.34891 0.23007 0.97814
 H3022 H 0.31276 0.23553 0.97779
 H3023 H 0.27471 0.19563 0.91049
 H3024 H 0.25857 0.21223 0.93735
 C3025 C 0.78227 0.69119 0.91792
 C3026 C 0.80352 0.69073 0.91621
 C3027 C 0.81530 0.69983 0.93051
 C3028 C 0.80657 0.70927 0.94624
 C3029 C 0.78576 0.70956 0.94846
 C3030 C 0.77344 0.69988 0.93460
 C3031 C 0.76947 0.68405 0.90320
 C3032 C 0.74873 0.68392 0.90554
 C3033 C 0.74025 0.69108 0.92241
 C3034 C 0.75241 0.69906 0.93681
 H3035 H 0.77515 0.67899 0.88957
 H3036 H 0.73917 0.67826 0.89416
 H3037 H 0.72415 0.69075 0.92422
 H3038 H 0.74518 0.70464 0.94962
 H3039 H 0.83149 0.69978 0.92942
 H3040 H 0.81613 0.71667 0.95668
 C3041 C 0.81775 0.19332 0.44004
 C3042 C 0.80603 0.18398 0.42546
 C3043 C 0.78508 0.18459 0.42679
 C3044 C 0.77569 0.19527 0.44143
 C3045 C 0.78691 0.20591 0.45511
 C3046 C 0.80813 0.20485 0.45465
 C3047 C 0.83883 0.19129 0.44060
 C3048 C 0.85018 0.20129 0.45449
 C3049 C 0.84083 0.21338 0.46812
 C3050 C 0.82001 0.21518 0.46828
 H3051 H 0.84671 0.18169 0.43058
 H3052 H 0.86633 0.19965 0.45466
 H3053 H 0.84974 0.22125 0.47876
 H3054 H 0.81336 0.22465 0.47920
 H3055 H 0.77582 0.17751 0.41591
 H3056 H 0.75946 0.19583 0.44174
 C3057 C 0.69604 0.27684 0.41859
 C3058 C 0.69561 0.29821 0.41710
 C3059 C 0.70508 0.30984 0.43130
 C3060 C 0.71456 0.30084 0.44688
 C3061 C 0.71451 0.27991 0.44904
 C3062 C 0.70473 0.26774 0.43512
 C3063 C 0.68873 0.26420 0.40379
 C3064 C 0.68838 0.24334 0.40596
 C3065 C 0.69550 0.23461 0.42274
 C3066 C 0.70369 0.24661 0.43718
 H3067 H 0.68371 0.27010 0.39021
 H3068 H 0.68258 0.23390 0.39455
 H3069 H 0.69500 0.21842 0.42443
 H3070 H 0.70925 0.23918 0.44991
 H3071 H 0.70507 0.32613 0.43039
 H3072 H 0.72205 0.31029 0.45738
 C3073 C 0.69158 0.77628 0.92156
 C3074 C 0.69006 0.79764 0.92092
 C3075 C 0.69863 0.80917 0.93570
 C3076 C 0.70873 0.80006 0.95085
 C3077 C 0.71033 0.77910 0.95186
 C3078 C 0.70113 0.76698 0.93755
 C3079 C 0.68470 0.76389 0.90639
 C3080 C 0.68584 0.74295 0.90762
 C3081 C 0.69404 0.73391 0.92379
 C3082 C 0.70170 0.74574 0.93862
 H3083 H 0.67882 0.77006 0.89325
 H3084 H 0.68037 0.73370 0.89592
 H3085 H 0.69473 0.71766 0.92473
 H3086 H 0.70814 0.73811 0.95087
 H3087 H 0.69769 0.82546 0.93541
 H3088 H 0.71576 0.80945 0.96167
 C3089 C 0.19358 0.32036 0.94215
 C3090 C 0.18762 0.30908 0.92570
 C3091 C 0.19178 0.28836 0.92508
 C3092 C 0.20233 0.27898 0.93976
 C3093 C 0.20973 0.29003 0.95537
 C3094 C 0.20549 0.31095 0.95664
 C3095 C 0.18768 0.34062 0.94481
 C3096 C 0.19467 0.35177 0.96043
 C3097 C 0.20748 0.34298 0.97378
 C3098 C 0.21285 0.32276 0.97200
 H3099 H 0.17725 0.34793 0.93519
 H3100 H 0.19011 0.36733 0.96218
 H3101 H 0.21305 0.35178 0.98575
 H3102 H 0.22273 0.31649 0.98278
 H3103 H 0.18737 0.27931 0.91284
 H3104 H 0.20523 0.26295 0.93869
 C3105 C 0.18290 0.79248 0.42786
 C3106 C 0.19179 0.80918 0.41851
 C3107 C 0.21015 0.81662 0.42530
 C3108 C 0.22029 0.80718 0.44028
 C3109 C 0.21255 0.78980 0.44869
 C3110 C 0.19372 0.78230 0.44258
 C3111 C 0.16333 0.78589 0.42329
 C3112 C 0.15525 0.76892 0.43199
 C3113 C 0.16633 0.75832 0.44556
 C3114 C 0.18536 0.76493 0.45092
 H3115 H 0.15387 0.79399 0.41333
 H3116 H 0.14027 0.76401 0.42823
 H3117 H 0.16002 0.74509 0.45220
 H3118 H 0.19333 0.75646 0.46176
 H3119 H 0.21710 0.82944 0.41851
 H3120 H 0.23464 0.81307 0.44496
 C3121 C 0.72296 0.69439 0.57643
 C3122 C 0.70258 0.69897 0.58065
 C3123 C 0.69228 0.71303 0.56933
 C3124 C 0.70161 0.72241 0.55402
 C3125 C 0.72145 0.71782 0.54933
 C3126 C 0.73216 0.70336 0.56020
 C3127 C 0.73474 0.68182 0.58831
 C3128 C 0.75448 0.67706 0.58353
 C3129 C 0.76302 0.68493 0.56706
 C3130 C 0.75207 0.69808 0.55553
 H3131 H 0.72917 0.67594 0.60162
 H3132 H 0.76324 0.66729 0.59272
 H3133 H 0.77832 0.68112 0.56340
 H3134 H 0.75935 0.70418 0.54303
 H3135 H 0.67680 0.71680 0.57234
 H3136 H 0.69333 0.73351 0.54581
 C3137 C 0.72328 0.19590 0.07866
 C3138 C 0.70290 0.20037 0.08295
 C3139 C 0.69252 0.21440 0.07164
 C3140 C 0.70173 0.22369 0.05618
 C3141 C 0.72147 0.21888 0.05120
 C3142 C 0.73230 0.20463 0.06222
 C3143 C 0.73527 0.18369 0.09070
 C3144 C 0.75499 0.17895 0.08587
 C3145 C 0.76333 0.18651 0.06918
 C3146 C 0.75220 0.19935 0.05749
 H3147 H 0.72987 0.17813 0.10421
 H3148 H 0.76390 0.16945 0.09520
 H3149 H 0.77862 0.18270 0.06547
 H3150 H 0.75936 0.20521 0.04483
 H3151 H 0.67706 0.21817 0.07475
 H3152 H 0.69342 0.23481 0.04804
 C3153 C 0.19344 0.72007 0.07606
 C3154 C 0.19249 0.69865 0.07619
 C3155 C 0.20091 0.68775 0.06094
 C3156 C 0.21027 0.69753 0.04584
 C3157 C 0.21123 0.71856 0.04531
 C3158 C 0.20207 0.73003 0.06007
 C3159 C 0.18693 0.73192 0.09174
 C3160 C 0.18730 0.75289 0.09096
 C3161 C 0.19442 0.76254 0.07475
 C3162 C 0.20185 0.75129 0.05946
 H3163 H 0.18201 0.72530 0.10497
 H3164 H 0.18210 0.76171 0.10304
 H3165 H 0.19452 0.77883 0.07416
 H3166 H 0.20751 0.75937 0.04721
 H3167 H 0.20045 0.67144 0.06084
 H3168 H 0.21728 0.68860 0.03469
 C3169 C 0.18346 0.20757 0.56628
 C3170 C 0.19397 0.19717 0.58101
 C3171 C 0.21499 0.19679 0.58073
 C3172 C 0.22563 0.20691 0.56667
 C3173 C 0.21566 0.21804 0.55253
 C3174 C 0.19440 0.21862 0.55233
 C3175 C 0.16235 0.20682 0.56467
 C3176 C 0.15225 0.21771 0.55055
 C3177 C 0.16290 0.22942 0.53768
 C3178 C 0.18376 0.22990 0.53849
 H3179 H 0.15343 0.19751 0.57394
 H3180 H 0.13607 0.21704 0.54958
 H3181 H 0.15496 0.23797 0.52686
 H3182 H 0.19143 0.23913 0.52814
 H3183 H 0.22332 0.18886 0.59173
 H3184 H 0.24186 0.20621 0.56689
   
