data_POSCAR
  _audit_creation_date              2014-09-24
  _audit_creation_method            'ToBaCCo'
  _symmetry_space_group_name_H-M    'P1'
  _symmetry_Int_Tables_number       1
  _symmetry_cell_setting            triclinic
  loop_
  _symmetry_equiv_pos_as_xyz
 x,y,z
_cell_length_a 63.0355
_cell_length_b 62.9964
_cell_length_c 58.7089
_cell_angle_alpha 89.985600
_cell_angle_beta 89.929700
_cell_angle_gamma 85.315600
loop_
  _atom_site_label
  _atom_site_type_symbol
  _atom_site_fract_x
  _atom_site_fract_y
  _atom_site_fract_z
O1 O -0.03023 0.27247 0.02090
 O2 O 0.01121 0.27314 -0.02328
 O3 O -0.02990 0.27231 -0.02346
 O4 O 0.01090 0.27347 0.02116
 O5 O 0.01457 0.23835 0.02144
 O6 O -0.02635 0.23717 -0.02318
 O7 O 0.01498 0.23806 -0.02295
 O8 O -0.02673 0.23733 0.02095
 Cu9 Cu -0.00984 0.27636 -0.00119
 Cu10 Cu -0.00547 0.23421 -0.00091
 C11 C -0.03566 0.25477 0.02840
 C12 C 0.02022 0.25572 -0.03076
 C13 C -0.03517 0.25455 -0.03090
 C14 C 0.01969 0.25613 0.02898
 O15 O 0.52479 0.77087 0.47900
 O16 O 0.48440 0.77089 0.52429
 O17 O 0.52566 0.77043 0.52340
 O18 O 0.48356 0.77127 0.47992
 O19 O 0.48600 0.73614 0.47958
 O20 O 0.52820 0.73530 0.52304
 O21 O 0.48678 0.73576 0.52388
 O22 O 0.52739 0.73574 0.47867
 Cu23 Cu 0.50436 0.77438 0.50169
 Cu24 Cu 0.50736 0.73221 0.50126
 C25 C 0.53299 0.75332 0.47105
 C26 C 0.47864 0.75335 0.53183
 C27 C 0.53414 0.75273 0.53069
 C28 C 0.47756 0.75386 0.47230
 O29 O 0.98851 0.72010 -0.02151
 O30 O 1.02869 0.72273 0.02371
 O31 O 0.98764 0.72100 0.02298
 O32 O 1.02971 0.72181 -0.02048
 O33 O 1.02476 0.75681 -0.02209
 O34 O 0.98362 0.75611 0.02240
 O35 O 1.02493 0.75783 0.02219
 O36 O 0.98364 0.75514 -0.02175
 Cu37 Cu 1.00903 0.71790 0.00125
 Cu38 Cu 1.00381 0.75998 0.00012
 C39 C 0.97903 0.73717 -0.02931
 C40 C 1.03387 0.74074 0.03050
 C41 C 0.97848 0.73842 0.03019
 C42 C 1.03448 0.73945 -0.02879
 O43 O 0.51417 0.22893 0.52110
 O44 O 0.47225 0.23018 0.47749
 O45 O 0.51344 0.22951 0.47668
 O46 O 0.47277 0.22986 0.52179
 O47 O 0.47101 0.26497 0.52261
 O48 O 0.51109 0.26464 0.47691
 O49 O 0.46965 0.26531 0.47830
 O50 O 0.51235 0.26404 0.52121
 Cu51 Cu 0.49340 0.22610 0.49925
 Cu52 Cu 0.49081 0.26826 0.49979
 C53 C 0.52051 0.24625 0.52857
 C54 C 0.46371 0.24794 0.47048
 C55 C 0.51915 0.24702 0.46898
 C56 C 0.46494 0.24748 0.52994
 O57 O 0.73394 0.01611 -0.02621
 O58 O 0.73401 -0.02495 0.01841
 O59 O 0.73310 0.01630 0.01824
 O60 O 0.73487 -0.02515 -0.02602
 O61 O 0.76996 -0.02721 -0.02539
 O62 O 0.76820 0.01418 0.01905
 O63 O 0.76907 -0.02726 0.01898
 O64 O 0.76903 0.01427 -0.02527
 Cu65 Cu 0.73048 -0.00422 -0.00397
 Cu66 Cu 0.77258 -0.00672 -0.00309
 C67 C 0.75146 0.02223 -0.03338
 C68 C 0.75153 -0.03317 0.02642
 C69 C 0.75034 0.02230 0.02629
 C70 C 0.75270 -0.03323 -0.03336
 O71 O 0.22518 0.52851 0.47943
 O72 O 0.22348 0.48728 0.52366
 O73 O 0.22563 0.52833 0.52352
 O74 O 0.22309 0.48739 0.47908
 O75 O 0.25815 0.48291 0.47840
 O76 O 0.26068 0.52322 0.52353
 O77 O 0.25852 0.48198 0.52254
 O78 O 0.26025 0.52395 0.47909
 Cu79 Cu 0.22082 0.50828 0.50147
 Cu80 Cu 0.26292 0.50257 0.50088
 C81 C 0.24300 0.53338 0.47178
 C82 C 0.24071 0.47751 0.53056
 C83 C 0.24359 0.53280 0.53111
 C84 C 0.24019 0.47822 0.47104
 O85 O 0.27454 1.02474 0.02384
 O86 O 0.27500 0.98300 -0.02010
 O87 O 0.27497 1.02428 -0.02060
 O88 O 0.27456 0.98354 0.02430
 O89 O 0.23945 0.98633 0.02393
 O90 O 0.23990 1.02727 -0.02079
 O91 O 0.23990 0.98580 -0.02042
 O92 O 0.23947 1.02775 0.02331
 Cu93 Cu 0.27828 1.00360 0.00188
 Cu94 Cu 0.23617 1.00704 0.00146
 C95 C 0.25692 1.03348 0.03110
 C96 C 0.25754 0.97722 -0.02776
 C97 C 0.25751 1.03289 -0.02835
 C98 C 0.25694 0.97796 0.03182
 O99 O 0.77721 0.51222 0.51855
 O100 O 0.77381 0.47210 0.47340
 O101 O 0.77605 0.51310 0.47412
 O102 O 0.77492 0.47111 0.51766
 O103 O 0.73992 0.47634 0.51932
 O104 O 0.74098 0.51765 0.47504
 O105 O 0.73875 0.47638 0.47504
 O106 O 0.74218 0.51741 0.51921
 Cu107 Cu 0.77901 0.49167 0.49583
 Cu108 Cu 0.73694 0.49742 0.49724
 C109 C 0.76028 0.52178 0.52651
 C110 C 0.75570 0.46724 0.46664
 C111 C 0.75870 0.52254 0.46709
 C112 C 0.75723 0.46655 0.52598
 C113 C 0.23290 0.26571 0.24933
 C114 C 0.24907 0.24991 0.24957
 C115 C 0.25077 0.23274 0.23207
 C116 C 0.26587 0.24907 0.26742
 C117 C 0.23278 0.28430 0.26490
 C118 C 0.21464 0.26525 0.23345
 C119 C 0.25412 0.21136 0.23882
 C120 C 0.25552 0.19507 0.22261
 C121 C 0.25347 0.19978 0.19924
 C122 C 0.25051 0.22126 0.19251
 C123 C 0.24949 0.23755 0.20872
 C124 C 0.26051 0.25000 0.29064
 C125 C 0.27639 0.24988 0.30722
 C126 C 0.29802 0.24833 0.30095
 C127 C 0.30332 0.24673 0.27769
 C128 C 0.28741 0.24711 0.26112
 C129 C 0.24996 0.29712 0.26538
 C130 C 0.25019 0.31390 0.28091
 C131 C 0.23318 0.31824 0.29620
 C132 C 0.21571 0.30572 0.29518
 C133 C 0.21548 0.28899 0.27959
 C134 C 0.20979 0.28241 0.21863
 C135 C 0.19339 0.28169 0.20276
 C136 C 0.18137 0.26388 0.20161
 C137 C 0.18580 0.24700 0.21700
 C138 C 0.20229 0.24769 0.23281
 H139 H 0.25548 0.20727 0.25671
 H140 H 0.25835 0.17879 0.22844
 H141 H 0.24866 0.22555 0.17474
 H142 H 0.24751 0.25394 0.20302
 H143 H 0.24400 0.25102 0.29593
 H144 H 0.27169 0.25133 0.32492
 H145 H 0.29191 0.24611 0.24331
 H146 H 0.26329 0.29398 0.25386
 H147 H 0.26368 0.32350 0.28094
 H148 H 0.20247 0.30848 0.30685
 H149 H 0.20206 0.27929 0.27942
 H150 H 0.21905 0.29616 0.21901
 H151 H 0.19010 0.29506 0.19135
 H152 H 0.17684 0.23306 0.21643
 H153 H 0.20563 0.23442 0.24434
 H154 H 0.31979 0.24503 0.27227
 C155 C 0.76101 0.73921 0.24824
 C156 C 0.74526 0.75541 0.24815
 C157 C 0.74573 0.77371 0.23227
 C158 C 0.72692 0.75573 0.26405
 C159 C 0.76184 0.72210 0.26579
 C160 C 0.77824 0.73784 0.23084
 C161 C 0.76302 0.78640 0.23203
 C162 C 0.76367 0.80306 0.21639
 C163 C 0.74701 0.80738 0.20069
 C164 C 0.72951 0.79486 0.20136
 C165 C 0.72883 0.77830 0.21710
 C166 C 0.72272 0.77308 0.27880
 C167 C 0.70632 0.77302 0.29480
 C168 C 0.69362 0.75572 0.29614
 C169 C 0.69739 0.73869 0.28081
 C170 C 0.71388 0.73870 0.26488
 C171 C 0.76379 0.70067 0.25907
 C172 C 0.76423 0.68444 0.27533
 C173 C 0.76271 0.68930 0.29870
 C174 C 0.76121 0.71082 0.30539
 C175 C 0.76101 0.72703 0.28912
 C176 C 0.77350 0.73873 0.20747
 C177 C 0.78984 0.73814 0.19133
 C178 C 0.81129 0.73620 0.19820
 C179 C 0.81595 0.73460 0.22160
 C180 C 0.79960 0.73542 0.23773
 H181 H 0.77606 0.78330 0.24389
 H182 H 0.77717 0.81264 0.21667
 H183 H 0.71655 0.79752 0.18935
 H184 H 0.71535 0.76868 0.21706
 H185 H 0.73252 0.78642 0.27829
 H186 H 0.70356 0.78651 0.30615
 H187 H 0.71671 0.72530 0.25341
 H188 H 0.76474 0.69650 0.24118
 H189 H 0.76589 0.66807 0.26957
 H190 H 0.75983 0.71519 0.32319
 H191 H 0.76002 0.74346 0.29474
 H192 H 0.75713 0.74008 0.20173
 H193 H 0.78564 0.73959 0.17350
 H194 H 0.83226 0.73260 0.22748
 H195 H 0.80361 0.73443 0.25565
 H196 H 0.68791 0.72511 0.28153
 C197 C 0.73273 0.23731 0.24683
 C198 C 0.74726 0.25222 0.24691
 C199 C 0.76423 0.25239 0.22926
 C200 C 0.74703 0.26904 0.26474
 C201 C 0.71436 0.23852 0.26277
 C202 C 0.73453 0.21899 0.23087
 C203 C 0.78549 0.25355 0.23588
 C204 C 0.80158 0.25383 0.21953
 C205 C 0.79679 0.25287 0.19617
 C206 C 0.77542 0.25197 0.18959
 C207 C 0.75930 0.25198 0.20595
 C208 C 0.74671 0.26382 0.28799
 C209 C 0.74658 0.27977 0.30453
 C210 C 0.74730 0.30125 0.29820
 C211 C 0.74807 0.30634 0.27490
 C212 C 0.74790 0.29042 0.25837
 C213 C 0.69999 0.25674 0.26371
 C214 C 0.68311 0.25788 0.27925
 C215 C 0.68023 0.24079 0.29407
 C216 C 0.69446 0.22242 0.29272
 C217 C 0.71125 0.22126 0.27713
 C218 C 0.71760 0.21559 0.21620
 C219 C 0.71933 0.19881 0.20060
 C220 C 0.73795 0.18491 0.19955
 C221 C 0.75471 0.18809 0.21467
 C222 C 0.75299 0.20495 0.23021
 H223 H 0.78963 0.25416 0.25375
 H224 H 0.81776 0.25503 0.22523
 H225 H 0.77113 0.25103 0.17180
 H226 H 0.74296 0.25162 0.20041
 H227 H 0.74657 0.24739 0.29335
 H228 H 0.74577 0.27526 0.32228
 H229 H 0.74844 0.29478 0.24054
 H230 H 0.70191 0.27007 0.25246
 H231 H 0.67223 0.27209 0.27955
 H232 H 0.69289 0.20909 0.30407
 H233 H 0.72217 0.20706 0.27663
 H234 H 0.70322 0.22625 0.21650
 H235 H 0.70625 0.19701 0.18902
 H236 H 0.76909 0.17745 0.21461
 H237 H 0.76607 0.20710 0.24170
 H238 H 0.74911 0.32262 0.26939
 C239 C 0.26238 0.76276 0.25193
 C240 C 0.24805 0.74772 0.25114
 C241 C 0.23161 0.74747 0.23300
 C242 C 0.24794 0.73084 0.26874
 C243 C 0.27980 0.76170 0.26899
 C244 C 0.26149 0.78089 0.23575
 C245 C 0.21024 0.74599 0.23902
 C246 C 0.19456 0.74573 0.22227
 C247 C 0.19989 0.74699 0.19905
 C248 C 0.22139 0.74816 0.19304
 C249 C 0.23710 0.74816 0.20983
 C250 C 0.24474 0.73609 0.29178
 C251 C 0.24454 0.72006 0.30821
 C252 C 0.24754 0.69847 0.30190
 C253 C 0.25063 0.69333 0.27874
 C254 C 0.25068 0.70937 0.26232
 C255 C 0.29466 0.74388 0.27018
 C256 C 0.31082 0.74293 0.28651
 C257 C 0.31240 0.75980 0.30194
 C258 C 0.29766 0.77774 0.30048
 C259 C 0.28159 0.77873 0.28405
 C260 C 0.27914 0.78389 0.22192
 C261 C 0.27825 0.80030 0.20588
 C262 C 0.25976 0.81419 0.20360
 C263 C 0.24230 0.81155 0.21795
 C264 C 0.24316 0.79502 0.23390
 H265 H 0.20565 0.74517 0.25676
 H266 H 0.17828 0.74430 0.22753
 H267 H 0.22607 0.74930 0.17537
 H268 H 0.25355 0.74876 0.20472
 H269 H 0.24223 0.75260 0.29697
 H270 H 0.24170 0.72458 0.32581
 H271 H 0.25314 0.70506 0.24460
 H272 H 0.29369 0.73071 0.25848
 H273 H 0.32189 0.72888 0.28732
 H274 H 0.29868 0.79109 0.31192
 H275 H 0.27035 0.79266 0.28327
 H276 H 0.29347 0.77323 0.22324
 H277 H 0.29204 0.80218 0.19528
 H278 H 0.22785 0.82199 0.21649
 H279 H 0.22947 0.79308 0.24465
 H280 H 0.25329 0.67691 0.27332
 C281 C 0.75220 0.25181 0.74649
 C282 C 0.73812 0.23652 0.74594
 C283 C 0.72039 0.23738 0.72930
 C284 C 0.73967 0.21831 0.76204
 C285 C 0.76868 0.25232 0.76455
 C286 C 0.75201 0.26865 0.72878
 C287 C 0.70546 0.25516 0.72829
 C288 C 0.68902 0.25598 0.71229
 C289 C 0.68723 0.23902 0.69704
 C290 C 0.70202 0.22111 0.69834
 C291 C 0.71837 0.22025 0.71443
 C292 C 0.72265 0.21522 0.77674
 C293 C 0.72433 0.19882 0.79281
 C294 C 0.74292 0.18496 0.79415
 C295 C 0.75971 0.18767 0.77892
 C296 C 0.75812 0.20426 0.76303
 C297 C 0.79001 0.25393 0.75847
 C298 C 0.80570 0.25428 0.77519
 C299 C 0.80041 0.25295 0.79841
 C300 C 0.77894 0.25170 0.80446
 C301 C 0.76322 0.25164 0.78772
 C302 C 0.75476 0.26334 0.70570
 C303 C 0.75497 0.27932 0.68920
 C304 C 0.75245 0.30094 0.69549
 C305 C 0.74973 0.30615 0.71868
 C306 C 0.74966 0.29016 0.73515
 H307 H 0.70660 0.26841 0.73986
 H308 H 0.67792 0.27001 0.71159
 H309 H 0.70083 0.20770 0.68701
 H310 H 0.72966 0.20635 0.71508
 H311 H 0.70826 0.22585 0.77613
 H312 H 0.71107 0.19690 0.80417
 H313 H 0.77134 0.20629 0.75164
 H314 H 0.79455 0.25476 0.74071
 H315 H 0.82197 0.25576 0.76992
 H316 H 0.77428 0.25049 0.82214
 H317 H 0.74679 0.25096 0.79285
 H318 H 0.75699 0.24681 0.70051
 H319 H 0.75749 0.27474 0.67158
 H320 H 0.74743 0.32260 0.72409
 H321 H 0.74755 0.29454 0.75290
 H322 H 0.77423 0.17724 0.77967
 C323 C 0.25086 0.74472 0.75427
 C324 C 0.26550 0.75943 0.75455
 C325 C 0.28322 0.75873 0.73786
 C326 C 0.26436 0.77700 0.77143
 C327 C 0.23404 0.74445 0.77188
 C328 C 0.25088 0.72815 0.73634
 C329 C 0.29781 0.74074 0.73614
 C330 C 0.31406 0.74004 0.71987
 C331 C 0.31597 0.75732 0.70505
 C332 C 0.30155 0.77545 0.70713
 C333 C 0.28540 0.77619 0.72349
 C334 C 0.28155 0.77925 0.78613
 C335 C 0.28054 0.79552 0.80235
 C336 C 0.26243 0.81002 0.80394
 C337 C 0.24538 0.80797 0.78890
 C338 C 0.24634 0.79159 0.77278
 C339 C 0.21259 0.74709 0.76546
 C340 C 0.19655 0.74682 0.78185
 C341 C 0.20166 0.74350 0.80498
 C342 C 0.22325 0.74067 0.81129
 C343 C 0.23929 0.74119 0.79489
 C344 C 0.24848 0.73375 0.71330
 C345 C 0.24827 0.71795 0.69660
 C346 C 0.25046 0.69626 0.70264
 C347 C 0.25286 0.69079 0.72579
 C348 C 0.25290 0.70658 0.74246
 H349 H 0.29651 0.72722 0.74730
 H350 H 0.32489 0.72583 0.71857
 H351 H 0.30284 0.78911 0.69615
 H352 H 0.27436 0.79025 0.72468
 H353 H 0.29563 0.76822 0.78521
 H354 H 0.29403 0.79691 0.81350
 H355 H 0.23304 0.79026 0.76136
 H356 H 0.20829 0.74966 0.74776
 H357 H 0.18016 0.74945 0.77640
 H358 H 0.22778 0.73769 0.82885
 H359 H 0.25580 0.73883 0.80007
 H360 H 0.24657 0.75035 0.70831
 H361 H 0.24601 0.72275 0.67900
 H362 H 0.25493 0.67427 0.73103
 H363 H 0.25478 0.70199 0.76017
 H364 H 0.23119 0.81885 0.78983
 C365 C 0.25204 0.24803 0.75220
 C366 C 0.23532 0.26309 0.75163
 C367 C 0.23467 0.28049 0.73468
 C368 C 0.21695 0.26266 0.76737
 C369 C 0.25409 0.23102 0.76981
 C370 C 0.26919 0.24813 0.73499
 C371 C 0.24333 0.29968 0.73986
 C372 C 0.24327 0.31587 0.72360
 C373 C 0.23503 0.31297 0.70162
 C374 C 0.22650 0.29352 0.69656
 C375 C 0.22613 0.27754 0.71303
 C376 C 0.21194 0.27974 0.78227
 C377 C 0.19547 0.27887 0.79808
 C378 C 0.18349 0.26103 0.79906
 C379 C 0.18809 0.24422 0.78364
 C380 C 0.20471 0.24501 0.76794
 C381 C 0.25851 0.20969 0.76329
 C382 C 0.25997 0.19350 0.77961
 C383 C 0.25693 0.19826 0.80286
 C384 C 0.25301 0.21972 0.80939
 C385 C 0.25190 0.23592 0.79308
 C386 C 0.26649 0.23930 0.71340
 C387 C 0.28255 0.23966 0.69704
 C388 C 0.30158 0.24896 0.70195
 C389 C 0.30417 0.25779 0.72371
 C390 C 0.28812 0.25730 0.74011
 H391 H 0.25018 0.30208 0.75648
 H392 H 0.24959 0.33069 0.72836
 H393 H 0.22045 0.29042 0.67975
 H394 H 0.21958 0.26268 0.70876
 H395 H 0.22114 0.29350 0.78214
 H396 H 0.19207 0.29217 0.80957
 H397 H 0.20825 0.23175 0.75644
 H398 H 0.26055 0.20548 0.74550
 H399 H 0.26355 0.17725 0.77397
 H400 H 0.25042 0.22403 0.82708
 H401 H 0.24913 0.25230 0.79863
 H402 H 0.25196 0.23208 0.70930
 H403 H 0.28017 0.23240 0.68062
 H404 H 0.31847 0.26535 0.72795
 H405 H 0.29032 0.26429 0.75671
 H406 H 0.17917 0.23024 0.78411
 C407 C 0.75184 0.75135 0.74768
 C408 C 0.76745 0.73500 0.74814
 C409 C 0.76848 0.71780 0.73071
 C410 C 0.78432 0.73359 0.76595
 C411 C 0.75223 0.76994 0.76316
 C412 C 0.73365 0.75151 0.73160
 C413 C 0.77018 0.69639 0.73754
 C414 C 0.77077 0.68010 0.72136
 C415 C 0.76964 0.68489 0.69795
 C416 C 0.76841 0.70637 0.69116
 C417 C 0.76808 0.72263 0.70735
 C418 C 0.77914 0.73538 0.78918
 C419 C 0.79517 0.73473 0.80565
 C420 C 0.81674 0.73170 0.79931
 C421 C 0.82181 0.72910 0.77606
 C422 C 0.80578 0.73009 0.75959
 C423 C 0.76985 0.78219 0.76374
 C424 C 0.77033 0.79919 0.77898
 C425 C 0.75314 0.80432 0.79384
 C426 C 0.73533 0.79227 0.79280
 C427 C 0.73484 0.77535 0.77751
 C428 C 0.72952 0.76876 0.71670
 C429 C 0.71300 0.76874 0.70087
 C430 C 0.70012 0.75158 0.69982
 C431 C 0.70391 0.73457 0.71520
 C432 C 0.72052 0.73456 0.73097
 H433 H 0.77080 0.69230 0.75547
 H434 H 0.77221 0.66375 0.72720
 H435 H 0.76732 0.71068 0.67332
 H436 H 0.76730 0.73903 0.70165
 H437 H 0.76267 0.73750 0.79458
 H438 H 0.79062 0.73698 0.82332
 H439 H 0.81016 0.72836 0.74180
 H440 H 0.78327 0.77849 0.75248
 H441 H 0.78410 0.80839 0.77904
 H442 H 0.72195 0.79561 0.80419
 H443 H 0.72109 0.76609 0.77727
 H444 H 0.73938 0.78206 0.71705
 H445 H 0.71024 0.78221 0.68948
 H446 H 0.69431 0.72109 0.71471
 H447 H 0.72328 0.72123 0.74255
 H448 H 0.83818 0.72621 0.77055
 C449 C 0.25636 0.08215 0.08110
 C450 C 0.23732 0.07673 0.07099
 C451 C 0.23747 0.06056 0.05469
 C452 C 0.25674 0.04956 0.04774
 C453 C 0.27581 0.05508 0.05777
 C454 C 0.27559 0.07103 0.07434
 C455 C 0.25614 0.09932 0.09858
 C456 C 0.27290 0.11271 0.09992
 C457 C 0.27271 0.12878 0.11635
 C458 C 0.25562 0.13211 0.13171
 C459 C 0.23880 0.11880 0.13028
 C460 C 0.23914 0.10254 0.11407
 C461 C 0.25528 0.14938 0.14908
 C462 C 0.24636 0.14662 0.17075
 C463 C 0.24572 0.16294 0.18691
 C464 C 0.25426 0.18237 0.18200
 C465 C 0.26340 0.18504 0.16043
 C466 C 0.26377 0.16884 0.14414
 H467 H 0.22224 0.08520 0.07539
 H468 H 0.22244 0.05694 0.04732
 H469 H 0.29098 0.04694 0.05305
 H470 H 0.29053 0.07443 0.08205
 H471 H 0.28612 0.11097 0.08810
 H472 H 0.28610 0.13847 0.11711
 H473 H 0.22520 0.12104 0.14154
 H474 H 0.22611 0.09237 0.11384
 H475 H 0.23998 0.13177 0.17535
 H476 H 0.23825 0.16037 0.20318
 H477 H 0.27044 0.19963 0.15611
 H478 H 0.27050 0.17171 0.12756
 C479 C 0.76405 0.56961 0.57844
 C480 C 0.78193 0.55567 0.57302
 C481 C 0.78075 0.54020 0.55610
 C482 C 0.76161 0.53817 0.54437
 C483 C 0.74371 0.55200 0.54983
 C484 C 0.74495 0.56761 0.56656
 C485 C 0.76529 0.58619 0.59634
 C486 C 0.74786 0.59154 0.61078
 C487 C 0.74886 0.60734 0.62734
 C488 C 0.76740 0.61806 0.63007
 C489 C 0.78491 0.61258 0.61577
 C490 C 0.78384 0.59691 0.59906
 C491 C 0.76838 0.63499 0.64764
 C492 C 0.77918 0.65324 0.64326
 C493 C 0.77981 0.66927 0.65964
 C494 C 0.76949 0.66757 0.68073
 C495 C 0.75875 0.64929 0.68513
 C496 C 0.75830 0.63317 0.66885
 H497 H 0.79679 0.55651 0.58206
 H498 H 0.79477 0.52968 0.55237
 H499 H 0.72878 0.55094 0.54096
 H500 H 0.73098 0.57830 0.56995
 H501 H 0.73343 0.58342 0.60941
 H502 H 0.73496 0.61134 0.63781
 H503 H 0.79955 0.62029 0.61758
 H504 H 0.79747 0.59340 0.58807
 H505 H 0.78689 0.65532 0.62703
 H506 H 0.78848 0.68297 0.65577
 H507 H 0.75039 0.64755 0.70105
 H508 H 0.75010 0.61921 0.67295
 C509 C 0.75128 0.92033 0.07858
 C510 C 0.77058 0.92604 0.06937
 C511 C 0.77070 0.94140 0.05219
 C512 C 0.75148 0.95127 0.04361
 C513 C 0.73216 0.94532 0.05279
 C514 C 0.73209 0.93013 0.07013
 C515 C 0.75113 0.90418 0.09696
 C516 C 0.73772 0.90766 0.11594
 C517 C 0.73740 0.89237 0.13317
 C518 C 0.75034 0.87314 0.13170
 C519 C 0.76379 0.86972 0.11268
 C520 C 0.76425 0.88511 0.09556
 C521 C 0.74960 0.85661 0.14976
 C522 C 0.76817 0.84428 0.15638
 C523 C 0.76736 0.82843 0.17296
 C524 C 0.74798 0.82461 0.18347
 C525 C 0.72945 0.83713 0.17706
 C526 C 0.73024 0.85286 0.16036
 H527 H 0.78561 0.91884 0.07573
 H528 H 0.78592 0.94549 0.04565
 H529 H 0.71700 0.95246 0.04670
 H530 H 0.71698 0.92584 0.07676
 H531 H 0.72766 0.92237 0.11760
 H532 H 0.72716 0.89573 0.14775
 H533 H 0.77368 0.85495 0.11076
 H534 H 0.77454 0.88191 0.08097
 H535 H 0.78341 0.84691 0.14881
 H536 H 0.78189 0.81893 0.17726
 H537 H 0.71430 0.83483 0.18500
 H538 H 0.71557 0.86185 0.15551
 C539 C 0.23880 0.42860 0.58155
 C540 C 0.25541 0.42803 0.56544
 C541 C 0.25614 0.44406 0.54907
 C542 C 0.24003 0.46076 0.54805
 C543 C 0.22328 0.46129 0.56385
 C544 C 0.22279 0.44555 0.58058
 C545 C 0.23818 0.41165 0.59925
 C546 C 0.21867 0.40530 0.60736
 C547 C 0.21811 0.38957 0.62409
 C548 C 0.23706 0.37937 0.63285
 C549 C 0.25658 0.38557 0.62456
 C550 C 0.25713 0.40163 0.60820
 C551 C 0.23649 0.36239 0.65052
 C552 C 0.25248 0.35970 0.66720
 C553 C 0.25212 0.34362 0.68355
 C554 C 0.23549 0.33003 0.68404
 C555 C 0.21935 0.33287 0.66752
 C556 C 0.21997 0.34866 0.65086
 H557 H 0.26775 0.41505 0.56521
 H558 H 0.26912 0.44317 0.53691
 H559 H 0.21076 0.47413 0.56353
 H560 H 0.21000 0.44688 0.59292
 H561 H 0.20371 0.41232 0.60068
 H562 H 0.20275 0.38557 0.63025
 H563 H 0.27153 0.37790 0.63051
 H564 H 0.27249 0.40626 0.60276
 H565 H 0.26529 0.37013 0.66783
 H566 H 0.26506 0.34176 0.69566
 H567 H 0.20608 0.32302 0.66749
 H568 H 0.20753 0.34991 0.63813
 C569 C 0.91467 0.25400 0.07878
 C570 C 0.92127 0.23550 0.06640
 C571 C 0.93753 0.23570 0.05023
 C572 C 0.94742 0.25448 0.04583
 C573 C 0.94083 0.27299 0.05811
 C574 C 0.92475 0.27272 0.07449
 C575 C 0.89733 0.25378 0.09600
 C576 C 0.88270 0.27165 0.09898
 C577 C 0.86646 0.27147 0.11518
 C578 C 0.86426 0.25332 0.12868
 C579 C 0.87881 0.23541 0.12561
 C580 C 0.89519 0.23568 0.10958
 C581 C 0.84691 0.25311 0.14590
 C582 C 0.85040 0.24249 0.16680
 C583 C 0.83414 0.24228 0.18297
 C584 C 0.81401 0.25288 0.17879
 C585 C 0.81053 0.26354 0.15791
 C586 C 0.82673 0.26356 0.14164
 H587 H 0.91363 0.22090 0.06892
 H588 H 0.94215 0.22122 0.04090
 H589 H 0.94827 0.28766 0.05521
 H590 H 0.92039 0.28716 0.08398
 H591 H 0.88364 0.28576 0.08863
 H592 H 0.85575 0.28566 0.11728
 H593 H 0.87745 0.22105 0.13545
 H594 H 0.90632 0.22173 0.10801
 H595 H 0.86580 0.23452 0.17083
 H596 H 0.83732 0.23364 0.19870
 H597 H 0.79534 0.27211 0.15420
 H598 H 0.82335 0.27164 0.12562
 C599 C 0.43071 0.75381 0.58425
 C600 C 0.43799 0.73468 0.57339
 C601 C 0.45364 0.73449 0.55649
 C602 C 0.46229 0.75344 0.54996
 C603 C 0.45508 0.77255 0.56084
 C604 C 0.43953 0.77272 0.57783
 C605 C 0.41389 0.75410 0.60205
 C606 C 0.39803 0.77110 0.60330
 C607 C 0.38223 0.77145 0.62003
 C608 C 0.38180 0.75473 0.63585
 C609 C 0.39762 0.73770 0.63459
 C610 C 0.41350 0.73741 0.61791
 C611 C 0.36489 0.75511 0.65357
 C612 C 0.36961 0.74789 0.67581
 C613 C 0.35372 0.74847 0.69250
 C614 C 0.33281 0.75641 0.68734
 C615 C 0.32805 0.76355 0.66512
 C616 C 0.34388 0.76285 0.64841
 H617 H 0.43133 0.71989 0.57769
 H618 H 0.45880 0.71952 0.54835
 H619 H 0.46152 0.78740 0.55632
 H620 H 0.43456 0.78766 0.58611
 H621 H 0.39768 0.78408 0.59118
 H622 H 0.37046 0.78494 0.62068
 H623 H 0.39762 0.72446 0.64634
 H624 H 0.42560 0.72419 0.61760
 H625 H 0.38568 0.74215 0.68046
 H626 H 0.35787 0.74309 0.70956
 H627 H 0.31198 0.76942 0.66058
 H628 H 0.33960 0.76814 0.63136
 C629 C 0.08328 0.74352 0.08080
 C630 C 0.07633 0.76169 0.06806
 C631 C 0.06010 0.76086 0.05196
 C632 C 0.05059 0.74180 0.04803
 C633 C 0.05747 0.72364 0.06075
 C634 C 0.07353 0.72452 0.07703
 C635 C 0.10066 0.74433 0.09787
 C636 C 0.11560 0.72675 0.10104
 C637 C 0.13179 0.72742 0.11720
 C638 C 0.13362 0.74576 0.13047
 C639 C 0.11880 0.76342 0.12714
 C640 C 0.10248 0.76267 0.11114
 C641 C 0.15075 0.74639 0.14785
 C642 C 0.14681 0.75700 0.16868
 C643 C 0.16278 0.75740 0.18511
 C644 C 0.18307 0.74699 0.18127
 C645 C 0.18704 0.73642 0.16041
 C646 C 0.17111 0.73621 0.14388
 H647 H 0.08369 0.77649 0.07022
 H648 H 0.05525 0.77508 0.04231
 H649 H 0.05034 0.70875 0.05822
 H650 H 0.07815 0.71033 0.08682
 H651 H 0.11492 0.71247 0.09091
 H652 H 0.14272 0.71342 0.11949
 H653 H 0.11986 0.77792 0.13681
 H654 H 0.09113 0.77642 0.10937
 H655 H 0.13126 0.76479 0.17248
 H656 H 0.15924 0.76598 0.20081
 H657 H 0.20237 0.72803 0.15695
 H658 H 0.17483 0.72813 0.12792
 C659 C 0.57012 0.24448 0.57910
 C660 C 0.56257 0.26385 0.56894
 C661 C 0.54642 0.26444 0.55261
 C662 C 0.53752 0.24566 0.54597
 C663 C 0.54507 0.22630 0.55611
 C664 C 0.56113 0.22572 0.57252
 C665 C 0.58734 0.24381 0.59644
 C666 C 0.60328 0.22685 0.59685
 C667 C 0.61943 0.22617 0.61318
 C668 C 0.62010 0.24248 0.62944
 C669 C 0.60419 0.25947 0.62900
 C670 C 0.58799 0.26011 0.61273
 C671 C 0.63733 0.24174 0.64677
 C672 C 0.63296 0.24833 0.66930
 C673 C 0.64915 0.24754 0.68559
 C674 C 0.67005 0.24002 0.67975
 C675 C 0.67444 0.23346 0.65725
 C676 C 0.65828 0.23436 0.64093
 H677 H 0.56936 0.27854 0.57337
 H678 H 0.54103 0.27961 0.54504
 H679 H 0.53846 0.21156 0.55147
 H680 H 0.56633 0.21059 0.58027
 H681 H 0.60341 0.21418 0.58439
 H682 H 0.63127 0.21272 0.61320
 H683 H 0.60437 0.27241 0.64111
 H684 H 0.57582 0.27327 0.61306
 H685 H 0.61693 0.25377 0.67445
 H686 H 0.64527 0.25245 0.70287
 H687 H 0.69047 0.22791 0.65219
 H688 H 0.66228 0.22955 0.62365
 C689 C 0.75110 0.07005 0.91422
 C690 C 0.73276 0.05954 0.91878
 C691 C 0.73284 0.04412 0.93590
 C692 C 0.75137 0.03869 0.94863
 C693 C 0.76978 0.04911 0.94395
 C694 C 0.76960 0.06475 0.92702
 C695 C 0.75085 0.08663 0.89629
 C696 C 0.75925 0.10621 0.90061
 C697 C 0.75842 0.12209 0.88393
 C698 C 0.74943 0.11860 0.86250
 C699 C 0.74135 0.09889 0.85805
 C700 C 0.74192 0.08311 0.87484
 C701 C 0.74811 0.13561 0.84500
 C702 C 0.75389 0.13101 0.82230
 C703 C 0.75243 0.14707 0.80580
 C704 C 0.74485 0.16796 0.81163
 C705 C 0.73904 0.17253 0.83432
 C706 C 0.74078 0.15655 0.85087
 H707 H 0.71824 0.06348 0.90930
 H708 H 0.71843 0.03634 0.93907
 H709 H 0.78428 0.04530 0.95349
 H710 H 0.78399 0.07253 0.92372
 H711 H 0.76609 0.10937 0.91706
 H712 H 0.76489 0.13710 0.88772
 H713 H 0.73421 0.09585 0.84173
 H714 H 0.73548 0.06809 0.87103
 H715 H 0.75972 0.11501 0.81739
 H716 H 0.75691 0.14313 0.78840
 H717 H 0.73333 0.18855 0.83928
 H718 H 0.73607 0.16047 0.86821
 C719 C 0.24480 0.58248 0.42092
 C720 C 0.22578 0.57927 0.43251
 C721 C 0.22519 0.56327 0.44891
 C722 C 0.24365 0.55021 0.45428
 C723 C 0.26269 0.55345 0.44281
 C724 C 0.26324 0.56934 0.42626
 C725 C 0.24536 0.59945 0.40336
 C726 C 0.26317 0.61137 0.40127
 C727 C 0.26365 0.62733 0.38478
 C728 C 0.24629 0.63185 0.37007
 C729 C 0.22846 0.61996 0.37221
 C730 C 0.22804 0.60391 0.38858
 C731 C 0.24673 0.64889 0.35258
 C732 C 0.23774 0.64630 0.33095
 C733 C 0.23795 0.66238 0.31458
 C734 C 0.24730 0.68139 0.31935
 C735 C 0.25640 0.68394 0.34093
 C736 C 0.25606 0.66792 0.35737
 H737 H 0.21138 0.58933 0.42913
 H738 H 0.21030 0.56128 0.45757
 H739 H 0.27715 0.54356 0.44647
 H740 H 0.27807 0.57114 0.41741
 H741 H 0.27668 0.60854 0.41255
 H742 H 0.27775 0.63599 0.38342
 H743 H 0.21469 0.62320 0.36138
 H744 H 0.21418 0.59487 0.38951
 H745 H 0.23068 0.63175 0.32657
 H746 H 0.23056 0.65998 0.29825
 H747 H 0.26398 0.69826 0.34508
 H748 H 0.26289 0.67057 0.37393
 C749 C 0.25833 0.92769 0.92152
 C750 C 0.27725 0.93646 0.92795
 C751 C 0.27698 0.95252 0.94439
 C752 C 0.25776 0.96031 0.95470
 C753 C 0.23882 0.95168 0.94818
 C754 C 0.23911 0.93552 0.93183
 C755 C 0.25869 0.91038 0.90425
 C756 C 0.24221 0.90974 0.88821
 C757 C 0.24257 0.89343 0.87202
 C758 C 0.25946 0.87741 0.87142
 C759 C 0.27596 0.87810 0.88744
 C760 C 0.27555 0.89433 0.90368
 C761 C 0.25993 0.86009 0.85416
 C762 C 0.26747 0.83915 0.85994
 C763 C 0.26825 0.82293 0.84365
 C764 C 0.26138 0.82723 0.82125
 C765 C 0.25363 0.84808 0.81549
 C766 C 0.25298 0.86434 0.83174
 H767 H 0.29227 0.93108 0.92009
 H768 H 0.29183 0.95892 0.94893
 H769 H 0.22377 0.95726 0.95588
 H770 H 0.22430 0.92892 0.92754
 H771 H 0.22912 0.92197 0.88798
 H772 H 0.22948 0.89326 0.86012
 H773 H 0.28935 0.86619 0.88729
 H774 H 0.28836 0.89417 0.91596
 H775 H 0.27255 0.83522 0.87715
 H776 H 0.27398 0.80694 0.84866
 H777 H 0.24848 0.85189 0.79827
 H778 H 0.24740 0.88034 0.82661
 C779 C 0.75220 0.41829 0.41590
 C780 C 0.73422 0.42511 0.42901
 C781 C 0.73527 0.44121 0.44526
 C782 C 0.75438 0.45067 0.44897
 C783 C 0.77234 0.44393 0.43587
 C784 C 0.77123 0.42803 0.41944
 C785 C 0.75119 0.40098 0.39876
 C786 C 0.76877 0.38613 0.39521
 C787 C 0.76792 0.36996 0.37904
 C788 C 0.74938 0.36805 0.36617
 C789 C 0.73174 0.38281 0.36983
 C790 C 0.73267 0.39912 0.38584
 C791 C 0.74852 0.35082 0.34892
 C792 C 0.73749 0.35455 0.32832
 C793 C 0.73690 0.33845 0.31203
 C794 C 0.74751 0.31824 0.31579
 C795 C 0.75850 0.31449 0.33642
 C796 C 0.75890 0.33052 0.35281
 H797 H 0.71941 0.41774 0.42704
 H798 H 0.72120 0.44596 0.45521
 H799 H 0.78725 0.45106 0.43822
 H800 H 0.78526 0.42352 0.40936
 H801 H 0.78319 0.38684 0.40508
 H802 H 0.78193 0.35909 0.37647
 H803 H 0.71709 0.38167 0.36046
 H804 H 0.71891 0.41042 0.38789
 H805 H 0.72954 0.37004 0.32458
 H806 H 0.72800 0.34183 0.29650
 H807 H 0.76709 0.29923 0.33981
 H808 H 0.76728 0.32695 0.36861
 C809 C 0.06787 0.25670 0.91826
 C810 C 0.06251 0.23731 0.92764
 C811 C 0.04674 0.23695 0.94437
 C812 C 0.03600 0.25602 0.95231
 C813 C 0.04141 0.27542 0.94287
 C814 C 0.05706 0.27573 0.92602
 C815 C 0.08478 0.25711 0.90059
 C816 C 0.09880 0.27336 0.90052
 C817 C 0.11469 0.27380 0.88396
 C818 C 0.11710 0.25791 0.86712
 C819 C 0.10310 0.24164 0.86718
 C820 C 0.08710 0.24128 0.88367
 C821 C 0.13419 0.25834 0.84966
 C822 C 0.13059 0.25233 0.82699
 C823 C 0.14663 0.25301 0.81059
 C824 C 0.16655 0.25989 0.81644
 C825 C 0.17021 0.26577 0.83908
 C826 C 0.15427 0.26492 0.85551
 H827 H 0.07073 0.22237 0.92231
 H828 H 0.04314 0.22167 0.95120
 H829 H 0.03349 0.29046 0.94835
 H830 H 0.06052 0.29092 0.91890
 H831 H 0.09768 0.28565 0.91345
 H832 H 0.12498 0.28674 0.88426
 H833 H 0.10463 0.22903 0.85463
 H834 H 0.07642 0.22868 0.88303
 H835 H 0.11523 0.24748 0.82181
 H836 H 0.14333 0.24858 0.79320
 H837 H 0.18555 0.27078 0.84414
 H838 H 0.15777 0.26921 0.87288
 C839 C 0.58021 0.75370 0.41794
 C840 C 0.57556 0.73447 0.42826
 C841 C 0.56018 0.73432 0.44543
 C842 C 0.54918 0.75340 0.45276
 C843 C 0.55379 0.77262 0.44242
 C844 C 0.56907 0.77276 0.42518
 C845 C 0.59671 0.75394 0.39984
 C846 C 0.61046 0.77039 0.39895
 C847 C 0.62600 0.77065 0.38200
 C848 C 0.62827 0.75439 0.36556
 C849 C 0.61450 0.73793 0.36642
 C850 C 0.59889 0.73772 0.38334
 C851 C 0.64501 0.75458 0.34771
 C852 C 0.64096 0.74827 0.32526
 C853 C 0.65673 0.74857 0.30851
 C854 C 0.67684 0.75530 0.31383
 C855 C 0.68092 0.76154 0.33626
 C856 C 0.66522 0.76113 0.35302
 H857 H 0.58405 0.71955 0.42332
 H858 H 0.55706 0.71925 0.45312
 H859 H 0.54549 0.78759 0.44756
 H860 H 0.57200 0.78780 0.41734
 H861 H 0.60940 0.78299 0.41155
 H862 H 0.63615 0.78370 0.38167
 H863 H 0.61596 0.72505 0.35418
 H864 H 0.58840 0.72495 0.38337
 H865 H 0.62547 0.74344 0.32052
 H866 H 0.65308 0.74388 0.29130
 H867 H 0.69640 0.76643 0.34094
 H868 H 0.66902 0.76568 0.37023
 C869 C 0.93175 0.73448 0.91962
 C870 C 0.93606 0.75402 0.92944
 C871 C 0.95175 0.75492 0.94611
 C872 C 0.96339 0.73623 0.95374
 C873 C 0.95894 0.71664 0.94403
 C874 C 0.94344 0.71580 0.92710
 C875 C 0.91512 0.73363 0.90169
 C876 C 0.90235 0.71636 0.90048
 C877 C 0.88668 0.71567 0.88371
 C878 C 0.88318 0.73235 0.86787
 C879 C 0.89592 0.74963 0.86914
 C880 C 0.91176 0.75018 0.88570
 C881 C 0.86628 0.73182 0.85020
 C882 C 0.86924 0.74025 0.82835
 C883 C 0.85322 0.74023 0.81194
 C884 C 0.83388 0.73149 0.81678
 C885 C 0.83102 0.72280 0.83854
 C886 C 0.84694 0.72307 0.85506
 H887 H 0.92711 0.76868 0.92448
 H888 H 0.95453 0.77032 0.95320
 H889 H 0.96758 0.70188 0.94930
 H890 H 0.94084 0.70051 0.91967
 H891 H 0.90425 0.70346 0.91266
 H892 H 0.87742 0.70195 0.88310
 H893 H 0.89352 0.76292 0.85749
 H894 H 0.92147 0.76358 0.88583
 H895 H 0.88402 0.74682 0.82382
 H896 H 0.85592 0.74736 0.79552
 H897 H 0.81649 0.71564 0.84281
 H898 H 0.84394 0.71669 0.87177
 C899 C 0.41402 0.24878 0.42012
 C900 C 0.41759 0.26731 0.43243
 C901 C 0.43382 0.26711 0.44866
 C902 C 0.44671 0.24832 0.45311
 C903 C 0.44317 0.22980 0.44085
 C904 C 0.42710 0.23005 0.42447
 C905 C 0.39675 0.24892 0.40284
 C906 C 0.38500 0.23107 0.40002
 C907 C 0.36899 0.23105 0.38359
 C908 C 0.36415 0.24897 0.36969
 C909 C 0.37577 0.26690 0.37264
 C910 C 0.39192 0.26684 0.38894
 C911 C 0.34715 0.24889 0.35212
 C912 C 0.34946 0.25894 0.33098
 C913 C 0.33353 0.25882 0.31447
 C914 C 0.31495 0.24848 0.31858
 C915 C 0.31267 0.23837 0.33969
 C916 C 0.32851 0.23866 0.35629
 H917 H 0.40762 0.28192 0.42980
 H918 H 0.43609 0.28160 0.45794
 H919 H 0.45296 0.21511 0.44376
 H920 H 0.42512 0.21560 0.41501
 H921 H 0.38805 0.21710 0.41064
 H922 H 0.36058 0.21685 0.38161
 H923 H 0.37229 0.28109 0.36248
 H924 H 0.40080 0.28078 0.39043
 H925 H 0.36371 0.26672 0.32704
 H926 H 0.33570 0.26704 0.29854
 H927 H 0.29872 0.23002 0.34336
 H928 H 0.32605 0.23100 0.37248
 C929 C 0.75447 0.91922 0.91386
 C930 C 0.77325 0.92384 0.92503
 C931 C 0.77270 0.93930 0.94215
 C932 C 0.75333 0.95033 0.94859
 C933 C 0.73454 0.94559 0.93750
 C934 C 0.73512 0.93026 0.92027
 C935 C 0.75499 0.90287 0.89566
 C936 C 0.74323 0.90664 0.87555
 C937 C 0.74340 0.89110 0.85856
 C938 C 0.75523 0.87137 0.86135
 C939 C 0.76712 0.86767 0.88143
 C940 C 0.76705 0.88328 0.89836
 C941 C 0.75489 0.85457 0.84359
 C942 C 0.77336 0.84142 0.83839
 C943 C 0.77285 0.82527 0.82213
 C944 C 0.75387 0.82193 0.81060
 C945 C 0.73547 0.83526 0.81558
 C946 C 0.73596 0.85134 0.83191
 H947 H 0.78840 0.91570 0.92029
 H948 H 0.78745 0.94259 0.95036
 H949 H 0.71936 0.95379 0.94206
 H950 H 0.72037 0.92684 0.91213
 H951 H 0.73405 0.92173 0.87287
 H952 H 0.73439 0.89463 0.84314
 H953 H 0.77611 0.85253 0.88431
 H954 H 0.77605 0.87984 0.91381
 H955 H 0.78827 0.84364 0.84686
 H956 H 0.78724 0.81513 0.81890
 H957 H 0.72066 0.83331 0.80681
 H958 H 0.72138 0.86101 0.83566
 C959 C 0.23755 0.43093 0.41837
 C960 C 0.21890 0.44273 0.42568
 C961 C 0.21972 0.45803 0.44284
 C962 C 0.23923 0.46195 0.45295
 C963 C 0.25788 0.45019 0.44555
 C964 C 0.25704 0.43481 0.42851
 C965 C 0.23673 0.41458 0.40028
 C966 C 0.24856 0.39480 0.40239
 C967 C 0.24794 0.37942 0.38531
 C968 C 0.23555 0.38351 0.36565
 C969 C 0.22368 0.40331 0.36357
 C970 C 0.22422 0.41865 0.38072
 C971 C 0.23501 0.36714 0.34746
 C972 C 0.21592 0.36394 0.33606
 C973 C 0.21537 0.34827 0.31926
 C974 C 0.23386 0.33540 0.31350
 C975 C 0.25298 0.33872 0.32477
 C976 C 0.25355 0.35443 0.34150
 H977 H 0.20364 0.43993 0.41832
 H978 H 0.20507 0.46682 0.44815
 H979 H 0.27316 0.45283 0.45297
 H980 H 0.27169 0.42613 0.42304
 H981 H 0.25808 0.39109 0.41743
 H982 H 0.25694 0.36420 0.38767
 H983 H 0.21422 0.40709 0.34851
 H984 H 0.21515 0.43386 0.37851
 H985 H 0.20131 0.37331 0.34039
 H986 H 0.20044 0.34629 0.31073
 H987 H 0.26746 0.32891 0.32095
 H988 H 0.26857 0.35666 0.34971
 C989 C 0.25795 0.08104 0.92119
 C990 C 0.23870 0.07562 0.93086
 C991 C 0.23852 0.05958 0.94728
 C992 C 0.25765 0.04872 0.95479
 C993 C 0.27693 0.05422 0.94516
 C994 C 0.27705 0.07004 0.92848
 C995 C 0.25809 0.09812 0.90366
 C996 C 0.27470 0.11171 0.90285
 C997 C 0.27481 0.12775 0.88640
 C998 C 0.25816 0.13080 0.87050
 C999 C 0.24150 0.11727 0.87140
 C1000 C 0.24154 0.10106 0.88764
 C1001 C 0.25813 0.14802 0.85311
 C1002 C 0.25008 0.14498 0.83113
 C1003 C 0.24965 0.16124 0.81493
 C1004 C 0.25756 0.18091 0.82014
 C1005 C 0.26584 0.18388 0.84204
 C1006 C 0.26600 0.16770 0.85835
 H1007 H 0.22370 0.08399 0.92602
 H1008 H 0.22333 0.05597 0.95432
 H1009 H 0.29201 0.04619 0.95032
 H1010 H 0.29215 0.07348 0.92112
 H1011 H 0.28756 0.11016 0.91509
 H1012 H 0.28806 0.13763 0.88605
 H1013 H 0.22824 0.11931 0.85969
 H1014 H 0.22864 0.09073 0.88749
 H1015 H 0.24420 0.12994 0.82632
 H1016 H 0.24285 0.15845 0.79839
 H1017 H 0.27234 0.19867 0.84659
 H1018 H 0.27205 0.17076 0.87517
 C1019 C 0.76005 0.57199 0.41650
 C1020 C 0.74127 0.56907 0.42867
 C1021 C 0.74079 0.55292 0.44495
 C1022 C 0.75913 0.53943 0.44961
 C1023 C 0.77793 0.54235 0.43752
 C1024 C 0.77835 0.55837 0.42109
 C1025 C 0.76054 0.58919 0.39915
 C1026 C 0.77872 0.60051 0.39648
 C1027 C 0.77918 0.61663 0.38017
 C1028 C 0.76143 0.62197 0.36622
 C1029 C 0.74323 0.61072 0.36896
 C1030 C 0.74282 0.59448 0.38514
 C1031 C 0.76188 0.63919 0.34889
 C1032 C 0.75183 0.63735 0.32769
 C1033 C 0.75207 0.65358 0.31149
 C1034 C 0.76253 0.67201 0.31597
 C1035 C 0.77270 0.67380 0.33711
 C1036 C 0.77231 0.65764 0.35339
 H1037 H 0.72698 0.57948 0.42589
 H1038 H 0.72611 0.55117 0.45409
 H1039 H 0.79229 0.53212 0.44062
 H1040 H 0.79298 0.55990 0.41178
 H1041 H 0.79255 0.59708 0.40718
 H1042 H 0.79357 0.62476 0.37835
 H1043 H 0.72915 0.61458 0.35874
 H1044 H 0.72866 0.58593 0.38649
 H1045 H 0.74390 0.62326 0.32349
 H1046 H 0.74381 0.65177 0.29554
 H1047 H 0.78115 0.68763 0.34104
 H1048 H 0.77998 0.65974 0.36962
 C1049 C 0.08369 0.74043 0.92200
 C1050 C 0.07894 0.72120 0.93224
 C1051 C 0.06256 0.72083 0.94825
 C1052 C 0.05064 0.73975 0.95472
 C1053 C 0.05543 0.75900 0.94446
 C1054 C 0.07164 0.75930 0.92823
 C1055 C 0.10115 0.74080 0.90494
 C1056 C 0.11398 0.75803 0.90398
 C1057 C 0.13029 0.75842 0.88788
 C1058 C 0.13436 0.74149 0.87246
 C1059 C 0.12164 0.72418 0.87355
 C1060 C 0.10518 0.72390 0.88947
 C1061 C 0.15169 0.74192 0.85525
 C1062 C 0.14918 0.73352 0.83333
 C1063 C 0.16541 0.73387 0.81716
 C1064 C 0.18451 0.74288 0.82237
 C1065 C 0.18702 0.75135 0.84427
 C1066 C 0.17086 0.75078 0.86054
 H1067 H 0.08812 0.70640 0.92817
 H1068 H 0.05950 0.70567 0.95578
 H1069 H 0.04657 0.77392 0.94882
 H1070 H 0.07455 0.77434 0.92039
 H1071 H 0.11157 0.77117 0.91582
 H1072 H 0.13955 0.77215 0.88736
 H1073 H 0.12449 0.71071 0.86220
 H1074 H 0.09547 0.71050 0.88947
 H1075 H 0.13454 0.72685 0.82851
 H1076 H 0.16302 0.72690 0.80060
 H1077 H 0.20138 0.75866 0.84881
 H1078 H 0.17350 0.75713 0.87733
 C1079 C 0.56598 0.24657 0.41548
 C1080 C 0.55734 0.22764 0.42208
 C1081 C 0.54221 0.22778 0.43952
 C1082 C 0.53527 0.24688 0.45060
 C1083 C 0.54386 0.26582 0.44392
 C1084 C 0.55912 0.26565 0.42661
 C1085 C 0.58219 0.24635 0.39712
 C1086 C 0.60033 0.25770 0.39960
 C1087 C 0.61582 0.25714 0.38251
 C1088 C 0.61345 0.24533 0.36246
 C1089 C 0.59515 0.23418 0.35991
 C1090 C 0.57974 0.23463 0.37708
 C1091 C 0.63015 0.24437 0.34449
 C1092 C 0.63565 0.22529 0.33268
 C1093 C 0.65166 0.22421 0.31615
 C1094 C 0.66267 0.24216 0.31108
 C1095 C 0.65707 0.26130 0.32273
 C1096 C 0.64097 0.26240 0.33920
 H1097 H 0.56251 0.21267 0.41397
 H1098 H 0.53590 0.21291 0.44426
 H1099 H 0.53885 0.28080 0.45212
 H1100 H 0.56538 0.28050 0.42171
 H1101 H 0.60276 0.26663 0.41500
 H1102 H 0.62987 0.26560 0.38522
 H1103 H 0.59263 0.22526 0.34454
 H1104 H 0.56577 0.22599 0.37458
 H1105 H 0.62783 0.21103 0.33650
 H1106 H 0.65537 0.20930 0.30729
 H1107 H 0.66538 0.27536 0.31944
 H1108 H 0.63696 0.27742 0.34774
 C1109 C 0.91591 0.25356 0.91808
 C1110 C 0.92588 0.27232 0.92249
 C1111 C 0.94173 0.27264 0.93906
 C1112 C 0.94820 0.25414 0.95142
 C1113 C 0.93845 0.23533 0.94689
 C1114 C 0.92241 0.23507 0.93051
 C1115 C 0.89880 0.25332 0.90067
 C1116 C 0.89697 0.23529 0.88693
 C1117 C 0.88086 0.23506 0.87062
 C1118 C 0.86630 0.25294 0.86745
 C1119 C 0.86817 0.27100 0.88116
 C1120 C 0.88413 0.27114 0.89763
 C1121 C 0.84935 0.25282 0.84985
 C1122 C 0.82903 0.26312 0.85380
 C1123 C 0.81321 0.26322 0.83714
 C1124 C 0.81722 0.25286 0.81618
 C1125 C 0.83748 0.24241 0.81231
 C1126 C 0.85336 0.24249 0.82887
 H1127 H 0.92159 0.28674 0.91296
 H1128 H 0.94907 0.28734 0.94205
 H1129 H 0.94299 0.22086 0.95626
 H1130 H 0.91486 0.22044 0.92786
 H1131 H 0.90813 0.22137 0.88858
 H1132 H 0.87974 0.22076 0.86062
 H1133 H 0.85744 0.28516 0.87900
 H1134 H 0.88484 0.28519 0.90812
 H1135 H 0.82526 0.27097 0.86987
 H1136 H 0.79789 0.27166 0.84062
 H1137 H 0.84106 0.23399 0.79652
 H1138 H 0.86889 0.23465 0.82509
 C1139 C 0.42824 0.75502 0.42141
 C1140 C 0.43690 0.77392 0.42814
 C1141 C 0.45286 0.77354 0.44467
 C1142 C 0.46063 0.75423 0.45479
 C1143 C 0.45206 0.73532 0.44802
 C1144 C 0.43602 0.73572 0.43157
 C1145 C 0.41115 0.75548 0.40392
 C1146 C 0.41082 0.73916 0.38761
 C1147 C 0.39476 0.73964 0.37116
 C1148 C 0.37869 0.75647 0.37057
 C1149 C 0.37904 0.77278 0.38687
 C1150 C 0.39503 0.77226 0.40337
 C1151 C 0.36165 0.75707 0.35300
 C1152 C 0.34059 0.76436 0.35853
 C1153 C 0.32465 0.76523 0.34197
 C1154 C 0.32934 0.75872 0.31952
 C1155 C 0.35032 0.75125 0.31399
 C1156 C 0.36631 0.75050 0.33052
 H1157 H 0.43154 0.78901 0.42040
 H1158 H 0.45921 0.78837 0.44940
 H1159 H 0.45763 0.72020 0.45557
 H1160 H 0.42949 0.72092 0.42705
 H1161 H 0.42312 0.72612 0.38738
 H1162 H 0.39484 0.72669 0.35903
 H1163 H 0.36706 0.78612 0.38674
 H1164 H 0.39464 0.78495 0.41584
 H1165 H 0.33636 0.76916 0.37576
 H1166 H 0.30854 0.77074 0.34680
 H1167 H 0.35445 0.74638 0.29675
 H1168 H 0.38242 0.74512 0.32558
 C1169 C 0.25685 0.92991 0.08402
 C1170 C 0.27579 0.93885 0.07796
 C1171 C 0.27580 0.95443 0.06103
 C1172 C 0.25685 0.96157 0.04987
 C1173 C 0.23786 0.95283 0.05606
 C1174 C 0.23787 0.93713 0.07289
 C1175 C 0.25697 0.91300 0.10171
 C1176 C 0.24002 0.91237 0.11722
 C1177 C 0.24014 0.89636 0.13374
 C1178 C 0.25726 0.88065 0.13519
 C1179 C 0.27425 0.88136 0.11974
 C1180 C 0.27407 0.89727 0.10317
 C1181 C 0.25745 0.86356 0.15268
 C1182 C 0.26558 0.84268 0.14742
 C1183 C 0.26626 0.82670 0.16394
 C1184 C 0.25869 0.83117 0.18607
 C1185 C 0.25027 0.85192 0.19131
 C1186 C 0.24973 0.86797 0.17482
 H1187 H 0.29062 0.93395 0.08646
 H1188 H 0.29067 0.96096 0.05677
 H1189 H 0.22300 0.95794 0.04770
 H1190 H 0.22306 0.93037 0.07690
 H1191 H 0.22672 0.92437 0.11675
 H1192 H 0.22670 0.89616 0.14520
 H1193 H 0.28783 0.86970 0.12057
 H1194 H 0.28725 0.89710 0.09131
 H1195 H 0.27123 0.83862 0.13043
 H1196 H 0.27250 0.81075 0.15934
 H1197 H 0.24452 0.85583 0.20832
 H1198 H 0.24364 0.88394 0.17954
 C1199 C 0.75582 0.41718 0.57665
 C1200 C 0.77470 0.42027 0.56473
 C1201 C 0.77519 0.43637 0.54841
 C1202 C 0.75678 0.44967 0.54348
 C1203 C 0.73789 0.44658 0.55533
 C1204 C 0.73744 0.43059 0.57178
 C1205 C 0.75531 0.40005 0.59406
 C1206 C 0.73732 0.38840 0.59638
 C1207 C 0.73682 0.37237 0.61279
 C1208 C 0.75433 0.36749 0.62721
 C1209 C 0.77235 0.37907 0.62482
 C1210 C 0.77280 0.39519 0.60851
 C1211 C 0.75380 0.35043 0.64470
 C1212 C 0.76309 0.35281 0.66621
 C1213 C 0.76270 0.33677 0.68261
 C1214 C 0.75287 0.31799 0.67799
 C1215 C 0.74350 0.31563 0.65651
 C1216 C 0.74402 0.33162 0.64005
 H1217 H 0.78905 0.41002 0.56777
 H1218 H 0.78995 0.43825 0.53947
 H1219 H 0.72347 0.45665 0.55201
 H1220 H 0.72273 0.42890 0.58089
 H1221 H 0.72367 0.39152 0.58535
 H1222 H 0.72258 0.36396 0.61433
 H1223 H 0.78623 0.37556 0.63542
 H1224 H 0.78681 0.40401 0.60741
 H1225 H 0.77051 0.36718 0.67049
 H1226 H 0.77032 0.33901 0.69885
 H1227 H 0.73558 0.30150 0.65246
 H1228 H 0.73693 0.32914 0.62357
 C1229 C 0.74807 0.06994 0.07898
 C1230 C 0.72944 0.06097 0.07205
 C1231 C 0.73016 0.04562 0.05483
 C1232 C 0.74957 0.03878 0.04431
 C1233 C 0.76821 0.04772 0.05128
 C1234 C 0.76745 0.06322 0.06838
 C1235 C 0.74723 0.08631 0.09719
 C1236 C 0.75827 0.10466 0.09478
 C1237 C 0.75710 0.12029 0.11172
 C1238 C 0.74497 0.11785 0.13154
 C1239 C 0.73414 0.09933 0.13403
 C1240 C 0.73520 0.08378 0.11701
 C1241 C 0.74335 0.13469 0.14936
 C1242 C 0.72399 0.13989 0.16075
 C1243 C 0.72232 0.15597 0.17720
 C1244 C 0.73993 0.16735 0.18257
 C1245 C 0.75933 0.16206 0.17129
 C1246 C 0.76103 0.14590 0.15492
 H1247 H 0.71425 0.06604 0.07976
 H1248 H 0.71552 0.03904 0.04985
 H1249 H 0.78340 0.04279 0.04351
 H1250 H 0.78207 0.06974 0.07353
 H1251 H 0.76745 0.10713 0.07954
 H1252 H 0.76533 0.13451 0.10906
 H1253 H 0.72499 0.09674 0.14925
 H1254 H 0.72679 0.06963 0.11946
 H1255 H 0.70998 0.13178 0.15671
 H1256 H 0.70721 0.15944 0.18576
 H1257 H 0.77314 0.17066 0.17482
 H1258 H 0.77625 0.14212 0.14669
 C1259 C 0.24627 0.58137 0.58246
 C1260 C 0.26449 0.56790 0.57704
 C1261 C 0.26366 0.55216 0.56035
 C1262 C 0.24455 0.54941 0.54883
 C1263 C 0.22633 0.56279 0.55428
 C1264 C 0.22720 0.57864 0.57081
 C1265 C 0.24709 0.59817 0.60018
 C1266 C 0.22970 0.60296 0.61484
 C1267 C 0.23033 0.61889 0.63132
 C1268 C 0.24844 0.63033 0.63372
 C1269 C 0.26588 0.62548 0.61914
 C1270 C 0.26519 0.60965 0.60253
 C1271 C 0.24909 0.64721 0.65138
 C1272 C 0.25903 0.66597 0.64694
 C1273 C 0.25955 0.68183 0.66354
 C1274 C 0.25002 0.67938 0.68495
 C1275 C 0.24005 0.66064 0.68936
 C1276 C 0.23967 0.64473 0.67284
 H1277 H 0.27934 0.56933 0.58592
 H1278 H 0.27794 0.54203 0.55660
 H1279 H 0.21140 0.56119 0.54558
 H1280 H 0.21297 0.58895 0.57422
 H1281 H 0.21562 0.59426 0.61374
 H1282 H 0.21649 0.62238 0.64203
 H1283 H 0.28018 0.63377 0.62069
 H1284 H 0.27876 0.60657 0.59136
 H1285 H 0.26622 0.66855 0.63052
 H1286 H 0.26760 0.69594 0.65966
 H1287 H 0.23229 0.65833 0.70553
 H1288 H 0.23214 0.63038 0.67698
 C1289 C 0.92907 0.73746 0.08085
 C1290 C 0.94249 0.71902 0.07616
 C1291 C 0.95850 0.71933 0.05970
 C1292 C 0.96161 0.73812 0.04770
 C1293 C 0.94833 0.75659 0.05247
 C1294 C 0.93219 0.75624 0.06876
 C1295 C 0.91187 0.73710 0.09820
 C1296 C 0.90679 0.75483 0.11231
 C1297 C 0.89052 0.75457 0.12846
 C1298 C 0.87903 0.73651 0.13109
 C1299 C 0.88419 0.71874 0.11707
 C1300 C 0.90034 0.71906 0.10078
 C1301 C 0.86174 0.73625 0.14835
 C1302 C 0.84315 0.72611 0.14370
 C1303 C 0.82689 0.72594 0.15989
 C1304 C 0.82872 0.73605 0.18107
 C1305 C 0.84730 0.74620 0.18569
 C1306 C 0.86363 0.74621 0.16959
 H1307 H 0.94080 0.70439 0.08541
 H1308 H 0.96857 0.70487 0.05651
 H1309 H 0.95023 0.77128 0.04339
 H1310 H 0.92193 0.77063 0.07162
 H1311 H 0.91551 0.76889 0.11103
 H1312 H 0.88680 0.76866 0.13873
 H1313 H 0.87587 0.70445 0.11881
 H1314 H 0.90362 0.70522 0.09002
 H1315 H 0.84102 0.71851 0.12742
 H1316 H 0.81293 0.71774 0.15585
 H1317 H 0.84915 0.75440 0.20168
 H1318 H 0.87783 0.75391 0.17389
 C1319 C 0.41692 0.24807 0.58222
 C1320 C 0.42364 0.22906 0.57086
 C1321 C 0.43936 0.22883 0.55403
 C1322 C 0.44856 0.24764 0.54806
 C1323 C 0.44183 0.26665 0.55943
 C1324 C 0.42625 0.26684 0.57640
 C1325 C 0.40009 0.24835 0.59992
 C1326 C 0.40223 0.25944 0.62045
 C1327 C 0.38635 0.25969 0.63711
 C1328 C 0.36792 0.24904 0.63349
 C1329 C 0.36575 0.23801 0.61293
 C1330 C 0.38171 0.23759 0.59636
 C1331 C 0.35098 0.24938 0.65108
 C1332 C 0.32946 0.25274 0.64488
 C1333 C 0.31347 0.25282 0.66139
 C1334 C 0.31864 0.24937 0.68447
 C1335 C 0.34021 0.24611 0.69065
 C1336 C 0.35620 0.24619 0.67414
 H1337 H 0.41686 0.21432 0.57517
 H1338 H 0.44419 0.21393 0.54559
 H1339 H 0.44862 0.28141 0.55523
 H1340 H 0.42122 0.28175 0.58473
 H1341 H 0.41631 0.26773 0.62371
 H1342 H 0.38835 0.26844 0.65274
 H1343 H 0.35180 0.22950 0.60977
 H1344 H 0.37957 0.22908 0.58062
 H1345 H 0.32500 0.25557 0.62726
 H1346 H 0.29705 0.25580 0.65609
 H1347 H 0.34474 0.24307 0.70821
 H1348 H 0.37266 0.24330 0.67935
 C1349 C 0.06733 0.25794 0.08134
 C1350 C 0.05555 0.27670 0.07428
 C1351 C 0.04013 0.27609 0.05728
 C1352 C 0.03602 0.25670 0.04703
 C1353 C 0.04766 0.23791 0.05419
 C1354 C 0.06318 0.23853 0.07112
 C1355 C 0.08398 0.25869 0.09918
 C1356 C 0.08683 0.24252 0.11567
 C1357 C 0.10256 0.24324 0.13236
 C1358 C 0.11577 0.26016 0.13298
 C1359 C 0.11285 0.27636 0.11654
 C1360 C 0.09719 0.27560 0.09982
 C1361 C 0.13260 0.26092 0.15061
 C1362 C 0.15249 0.26812 0.14503
 C1363 C 0.16825 0.26910 0.16160
 C1364 C 0.16455 0.26280 0.18411
 C1365 C 0.14476 0.25542 0.18970
 C1366 C 0.12893 0.25455 0.17314
 H1367 H 0.05809 0.29186 0.08206
 H1368 H 0.03133 0.29084 0.05226
 H1369 H 0.04493 0.22272 0.04656
 H1370 H 0.07217 0.22384 0.07593
 H1371 H 0.07676 0.22940 0.11582
 H1372 H 0.10453 0.23039 0.14462
 H1373 H 0.12256 0.28976 0.11669
 H1374 H 0.09561 0.28818 0.08721
 H1375 H 0.15601 0.27273 0.12776
 H1376 H 0.18349 0.27449 0.15673
 H1377 H 0.14141 0.25068 0.20698
 H1378 H 0.11368 0.24923 0.17808
 C1379 C 0.58333 0.75196 0.58170
 C1380 C 0.57220 0.77122 0.57506
 C1381 C 0.55629 0.77147 0.55849
 C1382 C 0.55103 0.75244 0.54824
 C1383 C 0.56206 0.73316 0.55493
 C1384 C 0.57805 0.73293 0.57144
 C1385 C 0.60043 0.75177 0.59916
 C1386 C 0.60289 0.73537 0.61544
 C1387 C 0.61902 0.73520 0.63179
 C1388 C 0.63305 0.75143 0.63229
 C1389 C 0.63054 0.76785 0.61605
 C1390 C 0.61447 0.76799 0.59967
 C1391 C 0.65027 0.75125 0.64961
 C1392 C 0.67045 0.75760 0.64375
 C1393 C 0.68657 0.75770 0.66005
 C1394 C 0.68296 0.75135 0.68256
 C1395 C 0.66287 0.74483 0.68842
 C1396 C 0.64669 0.74483 0.67215
 H1397 H 0.57562 0.78613 0.58288
 H1398 H 0.54801 0.78658 0.55382
 H1399 H 0.55845 0.71823 0.54729
 H1400 H 0.58651 0.71786 0.57591
 H1401 H 0.59221 0.72277 0.61570
 H1402 H 0.62065 0.72219 0.64388
 H1403 H 0.64089 0.78075 0.61612
 H1404 H 0.61320 0.78072 0.58722
 H1405 H 0.67388 0.76225 0.62646
 H1406 H 0.70200 0.76246 0.65494
 H1407 H 0.65956 0.74009 0.70571
 H1408 H 0.63125 0.74016 0.67732
   
