data_POSCAR
  _audit_creation_date              2014-09-24
  _audit_creation_method            'ToBaCCo'
  _symmetry_space_group_name_H-M    'P1'
  _symmetry_Int_Tables_number       1
  _symmetry_cell_setting            triclinic
  loop_
  _symmetry_equiv_pos_as_xyz
 x,y,z
_cell_length_a 64.1502
_cell_length_b 64.1154
_cell_length_c 64.0518
_cell_angle_alpha 90.771700
_cell_angle_beta 90.838000
_cell_angle_gamma 90.811100
loop_
  _atom_site_label
  _atom_site_type_symbol
  _atom_site_fract_x
  _atom_site_fract_y
  _atom_site_fract_z
C1 C 0.72874 0.66894 0.97482
 H2 H 0.74433 0.66730 0.96884
 C3 C 0.71390 0.68020 0.96358
 H4 H 0.71830 0.68737 0.94906
 C5 C 0.70376 0.66041 1.00032
 H6 H 0.69956 0.65213 1.01422
 C7 C 0.68856 0.67166 0.98976
 H8 H 0.67295 0.67197 0.99594
 N9 N 0.72335 0.65901 0.99263
 C10 C 0.77707 0.64179 1.03052
 H11 H 0.77264 0.62563 1.03269
 C12 C 0.79496 0.64987 1.04036
 H13 H 0.80414 0.63971 1.05012
 C14 C 0.77043 0.67431 1.01476
 H15 H 0.76079 0.68368 1.00469
 C16 C 0.78840 0.68305 1.02424
 H17 H 0.79246 0.69919 1.02137
 Zn18 Zn 0.74233 0.64015 1.00477
 N19 N 0.76534 0.65393 1.01786
 C20 C 0.77291 0.62124 0.97984
 N21 N 0.75207 0.62255 0.98313
 C22 C 0.73803 0.61238 0.97038
 C23 C 0.74482 0.60018 0.95362
 C24 C 0.78037 0.60923 0.96333
 C25 C 0.72376 0.63468 1.04341
 C26 C 0.71390 0.62420 1.05953
 C27 C 0.71505 0.59244 1.03882
 C28 C 0.72491 0.60361 1.02310
 N29 N 0.72882 0.62439 1.02555
 H30 H 0.78385 0.62974 0.98982
 H31 H 0.72152 0.61397 0.97313
 H32 H 0.73338 0.59229 0.94362
 H33 H 0.79703 0.60854 0.96102
 H34 H 0.72736 0.65116 1.04506
 H35 H 0.71001 0.63302 1.07344
 H36 H 0.71208 0.57592 1.03627
 H37 H 0.72944 0.59562 1.00896
 C38 C 0.80102 0.67069 1.03712
 C39 C 0.69336 0.68128 0.97083
 C40 C 0.70924 0.60268 1.05746
 C41 C 0.76627 0.59854 0.94988
 C42 C 0.73974 0.34657 0.51339
 H43 H 0.75549 0.34652 0.51967
 C44 C 0.72400 0.33508 0.52310
 H45 H 0.72785 0.32604 0.53674
 C46 C 0.71542 0.35943 0.48872
 H47 H 0.71188 0.36946 0.47579
 C48 C 0.69931 0.34808 0.49777
 H49 H 0.68367 0.34943 0.49141
 N50 N 0.73514 0.35870 0.49673
 C51 C 0.79178 0.37574 0.46389
 H52 H 0.78991 0.39249 0.46434
 C53 C 0.80844 0.36711 0.45328
 H54 H 0.81935 0.37745 0.44567
 C55 C 0.77948 0.34217 0.47323
 H56 H 0.76800 0.33257 0.48091
 C57 C 0.79601 0.33281 0.46275
 H58 H 0.79716 0.31598 0.46256
 Zn59 Zn 0.75578 0.37738 0.48683
 N60 N 0.77781 0.36330 0.47370
 C61 C 0.78685 0.39285 0.51517
 N62 N 0.76617 0.39297 0.51016
 C63 C 0.75234 0.40313 0.52240
 C64 C 0.75920 0.41398 0.54034
 C65 C 0.79437 0.40348 0.53294
 C66 C 0.73819 0.38597 0.44804
 C67 C 0.72874 0.39764 0.43242
 C68 C 0.73168 0.42809 0.45496
 C69 C 0.74112 0.41580 0.47018
 N70 N 0.74383 0.39506 0.46661
 H71 H 0.79755 0.38426 0.50558
 H72 H 0.73592 0.40264 0.51829
 H73 H 0.74790 0.42192 0.54987
 H74 H 0.81089 0.40309 0.53661
 H75 H 0.74078 0.36950 0.44552
 H76 H 0.72412 0.38993 0.41790
 H77 H 0.72940 0.44451 0.45821
 H78 H 0.74610 0.42284 0.48487
 C79 C 0.81078 0.34537 0.45260
 C80 C 0.70337 0.33609 0.51552
 C81 C 0.72516 0.41897 0.43583
 C82 C 0.78049 0.41420 0.54585
 C83 C 0.23959 -0.15312 0.01303
 H84 H 0.25534 -0.15314 0.01930
 C85 C 0.22387 -0.16461 0.02276
 H86 H 0.22774 -0.17363 0.03642
 C87 C 0.21523 -0.14030 -0.01164
 H88 H 0.21167 -0.13029 -0.02457
 C89 C 0.19915 -0.15166 -0.00256
 H90 H 0.18350 -0.15034 -0.00891
 N91 N 0.23496 -0.14101 -0.00365
 C92 C 0.29150 -0.12409 -0.03670
 H93 H 0.28964 -0.10734 -0.03631
 C94 C 0.30814 -0.13276 -0.04732
 H95 H 0.31902 -0.12246 -0.05501
 C96 C 0.27924 -0.15763 -0.02719
 H97 H 0.26779 -0.16719 -0.01943
 C98 C 0.29574 -0.16702 -0.03767
 H99 H 0.29689 -0.18385 -0.03780
 Zn100 Zn 0.25558 -0.12237 -0.01364
 N101 N 0.27756 -0.13650 -0.02680
 C102 C 0.28675 -0.10685 0.01455
 N103 N 0.26606 -0.10672 0.00962
 C104 C 0.25229 -0.09651 0.02189
 C105 C 0.25922 -0.08564 0.03979
 C106 C 0.29435 -0.09619 0.03228
 C107 C 0.23792 -0.11386 -0.05239
 C108 C 0.22840 -0.10227 -0.06803
 C109 C 0.23136 -0.07175 -0.04556
 C110 C 0.24086 -0.08400 -0.03035
 N111 N 0.24358 -0.10473 -0.03388
 H112 H 0.29741 -0.11547 0.00495
 H113 H 0.23585 -0.09700 0.01785
 H114 H 0.24797 -0.07766 0.04935
 H115 H 0.31088 -0.09659 0.03589
 H116 H 0.24054 -0.13034 -0.05487
 H117 H 0.22387 -0.11025 -0.08245
 H118 H 0.22919 -0.05534 -0.04212
 H119 H 0.24588 -0.07693 -0.01570
 C120 C 0.31048 -0.15451 -0.04792
 C121 C 0.20323 -0.16363 0.01520
 C122 C 0.22469 -0.08084 -0.06477
 C123 C 0.28053 -0.08542 0.04522
 C124 C 0.22927 0.16898 0.47420
 H125 H 0.24485 0.16736 0.46820
 C126 C 0.21442 0.18027 0.46301
 H127 H 0.21880 0.18749 0.44851
 C128 C 0.20432 0.16037 0.49970
 H129 H 0.20012 0.15204 0.51357
 C130 C 0.18911 0.17165 0.48919
 H131 H 0.17350 0.17194 0.49538
 N132 N 0.22389 0.15899 0.49198
 C133 C 0.27766 0.14160 0.52972
 H134 H 0.27325 0.12541 0.53177
 C135 C 0.29554 0.14962 0.53961
 H136 H 0.30474 0.13941 0.54929
 C137 C 0.27096 0.17423 0.51421
 H138 H 0.26131 0.18366 0.50422
 C139 C 0.28893 0.18292 0.52375
 H140 H 0.29295 0.19910 0.52100
 Zn141 Zn 0.24288 0.14009 0.50405
 N142 N 0.26591 0.15381 0.51716
 C143 C 0.27342 0.12126 0.47901
 N144 N 0.25259 0.12253 0.48235
 C145 C 0.23853 0.11237 0.46962
 C146 C 0.24530 0.10018 0.45284
 C147 C 0.28085 0.10926 0.46248
 C148 C 0.22436 0.13456 0.54270
 C149 C 0.21452 0.12403 0.55881
 C150 C 0.21561 0.09232 0.53806
 C151 C 0.22545 0.10350 0.52231
 N152 N 0.22938 0.12429 0.52481
 H153 H 0.28437 0.12976 0.48897
 H154 H 0.22202 0.11393 0.47241
 H155 H 0.23385 0.09228 0.44285
 H156 H 0.29751 0.10860 0.46014
 H157 H 0.22797 0.15104 0.54440
 H158 H 0.21057 0.13261 0.57284
 H159 H 0.21252 0.07581 0.53572
 H160 H 0.22994 0.09552 0.50816
 C161 C 0.30157 0.17048 0.53653
 C162 C 0.19389 0.18133 0.47028
 C163 C 0.20993 0.10262 0.55659
 C164 C 0.26675 0.09857 0.44905
 C165 C 0.16957 0.47422 0.22902
 H166 H 0.16792 0.46829 0.24465
 C167 C 0.18086 0.46297 0.21423
 H168 H 0.18803 0.44848 0.21871
 C169 C 0.16106 0.49960 0.20387
 H170 H 0.15276 0.51345 0.19958
 C171 C 0.17233 0.48902 0.18872
 H172 H 0.17265 0.49513 0.17305
 N173 N 0.15963 0.49197 0.22351
 C174 C 0.14211 0.52984 0.27714
 H175 H 0.12595 0.53185 0.27267
 C176 C 0.15010 0.53979 0.29502
 H177 H 0.13986 0.54947 0.30416
 C178 C 0.17475 0.51437 0.27058
 H179 H 0.18421 0.50436 0.26098
 C180 C 0.18340 0.52397 0.28855
 H181 H 0.19956 0.52126 0.29263
 Zn182 Zn 0.14069 0.50408 0.24242
 N183 N 0.15435 0.51726 0.26546
 C184 C 0.12178 0.47915 0.27305
 N185 N 0.12313 0.48242 0.25218
 C186 C 0.11301 0.46967 0.23811
 C187 C 0.10081 0.45291 0.24491
 C188 C 0.10977 0.46265 0.28052
 C189 C 0.13519 0.54262 0.22365
 C190 C 0.12466 0.55867 0.21372
 C191 C 0.09297 0.53792 0.21490
 C192 C 0.10415 0.52224 0.22483
 N193 N 0.12493 0.52475 0.22876
 H194 H 0.13025 0.48914 0.28401
 H195 H 0.11463 0.47240 0.22158
 H196 H 0.09295 0.44290 0.23345
 H197 H 0.10905 0.46036 0.29721
 H198 H 0.15166 0.54434 0.22727
 H199 H 0.13323 0.57269 0.20971
 H200 H 0.07646 0.53557 0.21182
 H201 H 0.09617 0.50811 0.22939
 C202 C 0.17094 0.53676 0.30112
 C203 C 0.18196 0.47013 0.19362
 C204 C 0.10326 0.55643 0.20914
 C205 C 0.09912 0.44919 0.26640
 C206 C -0.15337 0.01375 0.23895
 H207 H -0.15346 0.02006 0.25470
 C208 C -0.16463 0.02353 0.22307
 H209 H -0.17352 0.03725 0.22695
 C210 C -0.14062 -0.01110 0.21480
 H211 H -0.13074 -0.02414 0.21140
 C212 C -0.15174 -0.00199 0.19854
 H213 H -0.15034 -0.00857 0.18297
 N214 N -0.14137 -0.00301 0.23450
 C215 C -0.12461 -0.03585 0.29132
 H216 H -0.10788 -0.03545 0.28947
 C217 C -0.13328 -0.04643 0.30800
 H218 H -0.12298 -0.05407 0.31894
 C219 C -0.15813 -0.02640 0.27897
 H220 H -0.16768 -0.01867 0.26747
 C221 C -0.16752 -0.03685 0.29553
 H222 H -0.18434 -0.03699 0.29667
 Zn223 Zn -0.12283 -0.01293 0.25528
 N224 N -0.13701 -0.02600 0.27731
 C225 C -0.10738 0.01533 0.28642
 N226 N -0.10721 0.01034 0.26572
 C227 C -0.09696 0.02255 0.25190
 C228 C -0.08608 0.04045 0.25880
 C229 C -0.09672 0.03305 0.29399
 C230 C -0.11429 -0.05174 0.23785
 C231 C -0.10266 -0.06739 0.22846
 C232 C -0.07219 -0.04489 0.23132
 C233 C -0.08444 -0.02964 0.24071
 N234 N -0.10518 -0.03319 0.24343
 H235 H -0.11603 0.00577 0.29711
 H236 H -0.09741 0.01847 0.23546
 H237 H -0.07807 0.04995 0.24752
 H238 H -0.09715 0.03671 0.31053
 H239 H -0.13076 -0.05424 0.24046
 H240 H -0.11038 -0.08190 0.22389
 H241 H -0.05577 -0.04167 0.22902
 H242 H -0.07738 -0.01497 0.24563
 C243 C -0.15502 -0.04705 0.31033
 C244 C -0.16352 0.01599 0.20235
 C245 C -0.08134 -0.06401 0.22487
 C246 C -0.08591 0.04593 0.28012
 C247 C 0.34605 0.51326 0.73973
 H248 H 0.34601 0.51947 0.75551
 C249 C 0.33459 0.52304 0.72399
 H250 H 0.32558 0.53666 0.72787
 C251 C 0.35889 0.48871 0.71530
 H252 H 0.36890 0.47581 0.71172
 C253 C 0.34756 0.49783 0.69919
 H254 H 0.34891 0.49154 0.68350
 N255 N 0.35816 0.49663 0.73507
 C256 C 0.37516 0.46362 0.79172
 H257 H 0.39190 0.46409 0.78987
 C258 C 0.36652 0.45294 0.80836
 H259 H 0.37684 0.44530 0.81928
 C260 C 0.34161 0.47297 0.77939
 H261 H 0.33202 0.48068 0.76790
 C262 C 0.33225 0.46242 0.79590
 H263 H 0.31542 0.46220 0.79702
 Zn264 Zn 0.37681 0.48666 0.75572
 N265 N 0.36273 0.47346 0.77774
 C266 C 0.39233 0.51485 0.78690
 N267 N 0.39243 0.50992 0.76619
 C268 C 0.40260 0.52218 0.75236
 C269 C 0.41348 0.54007 0.75926
 C270 C 0.40299 0.53257 0.79447
 C271 C 0.38536 0.44797 0.73799
 C272 C 0.39701 0.43238 0.72851
 C273 C 0.42748 0.45486 0.73158
 C274 C 0.41520 0.47005 0.74105
 N275 N 0.39446 0.46649 0.74371
 H276 H 0.38373 0.50525 0.79760
 H277 H 0.40209 0.51812 0.73591
 H278 H 0.42143 0.54961 0.74797
 H279 H 0.40261 0.53619 0.81102
 H280 H 0.36888 0.44546 0.74055
 H281 H 0.38929 0.41790 0.72384
 H282 H 0.44390 0.45810 0.72935
 H283 H 0.42226 0.48469 0.74609
 C284 C 0.34478 0.45222 0.81067
 C285 C 0.33560 0.51556 0.70330
 C286 C 0.41834 0.43579 0.72499
 C287 C 0.41372 0.54550 0.78059
 C288 C 0.66968 0.97449 0.72983
 H289 H 0.66803 0.96844 0.74542
 C290 C 0.68098 0.96335 0.71496
 H291 H 0.68817 0.94884 0.71934
 C292 C 0.66114 1.00004 0.70487
 H293 H 0.65283 1.01391 0.70068
 C294 C 0.67244 0.98959 0.68965
 H295 H 0.67275 0.99581 0.67402
 N296 N 0.65972 0.99226 0.72445
 C297 C 0.64193 1.02959 0.77836
 H298 H 0.62575 1.03153 0.77389
 C299 C 0.64979 1.03940 0.79637
 H300 H 0.63936 1.04891 0.80548
 C301 C 0.67469 1.01447 0.77168
 H302 H 0.68423 1.00466 0.76197
 C303 C 0.68325 1.02394 0.78976
 H304 H 0.69945 1.02125 0.79371
 Zn305 Zn 0.64071 1.00418 0.74341
 N306 N 0.65427 1.01724 0.76657
 C307 C 0.62187 0.97893 0.77383
 N308 N 0.62319 0.98239 0.75299
 C309 C 0.61310 0.96972 0.73882
 C310 C 0.60091 0.95289 0.74548
 C311 C 0.60988 0.96235 0.78116
 C312 C 0.63512 1.04284 0.72491
 C313 C 0.62458 1.05891 0.71502
 C314 C 0.59296 1.03803 0.71594
 C315 C 0.60414 1.02233 0.72583
 N316 N 0.62490 1.02490 0.72987
 H317 H 0.63032 0.98884 0.78487
 H318 H 0.61470 0.97259 0.72231
 H319 H 0.59307 0.94296 0.73395
 H320 H 0.60916 0.95992 0.79783
 H321 H 0.65157 1.04459 0.72860
 H322 H 0.63312 1.07297 0.71112
 H323 H 0.57647 1.03563 0.71277
 H324 H 0.59619 1.00815 0.73028
 C325 C 0.67068 1.03648 0.80257
 C326 C 0.68207 0.97067 0.69441
 C327 C 0.60321 1.05660 0.71032
 C328 C 0.59924 0.94900 0.76694
 C329 C 0.01302 0.23914 -0.15314
 H330 H 0.01926 0.25490 -0.15311
 C331 C 0.02281 0.22344 -0.16462
 H332 H 0.03647 0.22735 -0.17357
 C333 C -0.01161 0.21471 -0.14046
 H334 H -0.02455 0.21112 -0.13050
 C335 C -0.00248 0.19865 -0.15181
 H336 H -0.00880 0.18298 -0.15052
 N337 N -0.00366 0.23446 -0.14110
 C338 C -0.03662 0.29101 -0.12399
 H339 H -0.03622 0.28906 -0.10724
 C340 C -0.04721 0.30770 -0.13261
 H341 H -0.05487 0.31856 -0.12226
 C342 C -0.02715 0.27887 -0.15761
 H343 H -0.01942 0.26745 -0.16722
 C344 C -0.03761 0.29545 -0.16695
 H345 H -0.03775 0.29668 -0.18379
 Zn346 Zn -0.01364 0.25503 -0.12239
 N347 N -0.02676 0.27710 -0.13646
 C348 C 0.01455 0.28610 -0.10672
 N349 N 0.00959 0.26540 -0.10666
 C350 C 0.02181 0.25155 -0.09648
 C351 C 0.03971 0.25839 -0.08558
 C352 C 0.03228 0.29361 -0.09603
 C353 C -0.05235 0.23733 -0.11400
 C354 C -0.06799 0.22782 -0.10245
 C355 C -0.04559 0.23072 -0.07183
 C356 C -0.03038 0.24021 -0.08406
 N357 N -0.03387 0.24297 -0.10481
 H358 H 0.00498 0.29682 -0.11531
 H359 H 0.01774 0.23512 -0.09703
 H360 H 0.04924 0.24708 -0.07764
 H361 H 0.03593 0.31014 -0.09638
 H362 H -0.05480 0.23999 -0.13050
 H363 H -0.08238 0.22331 -0.11046
 H364 H -0.04218 0.22853 -0.05540
 H365 H -0.01576 0.24522 -0.07694
 C366 C -0.04783 0.31015 -0.15437
 C367 C 0.01529 0.20278 -0.16369
 C368 C -0.06477 0.22408 -0.08098
 C369 C 0.04519 0.27970 -0.08531
 C370 C 0.47484 0.22931 0.16943
 H371 H 0.46881 0.24488 0.16776
 C372 C 0.46368 0.21444 0.18071
 H373 H 0.44916 0.21880 0.18788
 C374 C 0.50036 0.20438 0.16092
 H375 H 0.51424 0.20020 0.15262
 C376 C 0.48988 0.18915 0.17220
 H377 H 0.49609 0.17354 0.17252
 N378 N 0.49261 0.22394 0.15948
 C379 C 0.53006 0.27782 0.14184
 H380 H 0.53207 0.27337 0.12565
 C381 C 0.53988 0.29577 0.14980
 H382 H 0.54947 0.30497 0.13953
 C383 C 0.51470 0.27114 0.17456
 H384 H 0.50479 0.26147 0.18405
 C385 C 0.52418 0.28917 0.18318
 H386 H 0.52147 0.29323 0.19937
 Zn387 Zn 0.50458 0.24292 0.14049
 N388 N 0.51760 0.26605 0.15413
 C389 C 0.47941 0.27332 0.12152
 N390 N 0.48284 0.25250 0.12288
 C391 C 0.47018 0.23834 0.11279
 C392 C 0.45335 0.24499 0.10058
 C393 C 0.46283 0.28064 0.10950
 C394 C 0.54323 0.22447 0.13500
 C395 C 0.55932 0.21465 0.12447
 C396 C 0.53855 0.21564 0.09274
 C397 C 0.52282 0.22546 0.10391
 N398 N 0.52533 0.22943 0.12472
 H399 H 0.48932 0.28435 0.12997
 H400 H 0.47304 0.22184 0.11442
 H401 H 0.44342 0.23346 0.09274
 H402 H 0.46041 0.29729 0.10876
 H403 H 0.54493 0.22811 0.15149
 H404 H 0.57336 0.21075 0.13306
 H405 H 0.53620 0.21252 0.07622
 H406 H 0.50866 0.22991 0.09592
 C407 C 0.53684 0.30184 0.17067
 C408 C 0.47097 0.19390 0.18181
 C409 C 0.55709 0.21003 0.10305
 C410 C 0.44946 0.26642 0.09888
 C411 C 0.97407 0.72911 0.66956
 H412 H 0.96811 0.74471 0.66796
 C413 C 0.96290 0.71426 0.68086
 H414 H 0.94844 0.71866 0.68811
 C415 C 0.99945 0.70408 0.66087
 H416 H 1.01327 0.69987 0.65251
 C417 C 0.98895 0.68887 0.67216
 H418 H 0.99510 0.67324 0.67242
 N419 N 0.99178 0.72369 0.65953
 C420 C 1.02950 0.77745 0.64214
 H421 H 1.03149 0.77307 0.62593
 C422 C 1.03942 0.79531 0.65019
 H423 H 1.04907 0.80451 0.63996
 C424 C 1.01410 0.77071 0.67482
 H425 H 1.00413 0.76105 0.68426
 C426 C 1.02367 0.78865 0.68353
 H427 H 1.02098 0.79265 0.69974
 Zn428 Zn 1.00383 0.74270 0.64061
 N429 N 1.01697 0.76570 0.65437
 C430 C 0.97883 0.77333 0.62180
 N431 N 0.98215 0.75248 0.62306
 C432 C 0.96943 0.73844 0.61286
 C433 C 0.95267 0.74525 0.60065
 C434 C 0.96233 0.78080 0.60979
 C435 C 1.04239 0.72410 0.63505
 C436 C 1.05845 0.71427 0.62448
 C437 C 1.03770 0.71551 0.59274
 C438 C 1.02200 0.72534 0.60395
 N439 N 1.02451 0.72919 0.62478
 H440 H 0.98879 0.78426 0.63033
 H441 H 0.97219 0.72192 0.61441
 H442 H 0.94269 0.73382 0.59273
 H443 H 0.96001 0.79748 0.60913
 H444 H 1.04410 0.72765 0.65155
 H445 H 1.07247 0.71027 0.63305
 H446 H 1.03535 0.71249 0.57620
 H447 H 1.00787 0.72988 0.59598
 C448 C 1.03641 0.80130 0.67108
 C449 C 0.97011 0.69369 0.68189
 C450 C 1.05621 0.70977 0.60303
 C451 C 0.94891 0.76672 0.59905
 C452 C 0.51346 0.74039 0.34624
 H453 H 0.51972 0.75615 0.34621
 C454 C 0.52319 0.72467 0.33475
 H455 H 0.53682 0.72853 0.32574
 C456 C 0.48884 0.71603 0.35905
 H457 H 0.47593 0.71246 0.36906
 C458 C 0.49791 0.69993 0.34769
 H459 H 0.49158 0.68427 0.34902
 N460 N 0.49682 0.73576 0.35834
 C461 C 0.46394 0.79236 0.37540
 H462 H 0.46439 0.79044 0.39216
 C463 C 0.45332 0.80905 0.36680
 H464 H 0.44574 0.81985 0.37727
 C465 C 0.47329 0.78016 0.34180
 H466 H 0.48099 0.76871 0.33219
 C467 C 0.46281 0.79671 0.33244
 H468 H 0.46270 0.79779 0.31559
 Zn469 Zn 0.48689 0.75638 0.37703
 N470 N 0.47375 0.77843 0.36294
 C471 C 0.51510 0.78747 0.39261
 N472 N 0.51014 0.76678 0.39271
 C473 C 0.52237 0.75295 0.40293
 C474 C 0.54024 0.75983 0.41385
 C475 C 0.53280 0.79502 0.40333
 C476 C 0.44817 0.73873 0.38552
 C477 C 0.43255 0.72927 0.39715
 C478 C 0.45500 0.73219 0.42770
 C479 C 0.47022 0.74165 0.41544
 N480 N 0.46668 0.74437 0.39467
 H481 H 0.50553 0.79818 0.38399
 H482 H 0.51830 0.73652 0.40241
 H483 H 0.54975 0.74853 0.42184
 H484 H 0.53644 0.81155 0.40296
 H485 H 0.44568 0.74134 0.36902
 H486 H 0.41807 0.72465 0.38940
 H487 H 0.45822 0.72991 0.44414
 H488 H 0.48487 0.74663 0.42253
 C489 C 0.45260 0.81152 0.34499
 C490 C 0.51564 0.70401 0.33573
 C491 C 0.43592 0.72568 0.41852
 C492 C 0.54569 0.78114 0.41411
 C493 C 0.34747 -0.00316 0.22535
 C494 C 0.35498 0.00740 0.24330
 C495 C 0.36414 0.02729 0.24152
 C496 C 0.36604 0.03665 0.22192
 C497 C 0.35814 0.02598 0.20411
 C498 C 0.34877 0.00610 0.20563
 C499 C 0.35320 -0.00231 0.26400
 C500 C 0.36156 -0.02209 0.26756
 C501 C 0.36034 -0.03119 0.28736
 C502 C 0.35012 -0.02040 0.30342
 C503 C 0.34157 -0.00063 0.30007
 C504 C 0.34335 0.00835 0.28028
 H505 H 0.34032 -0.01846 0.22690
 H506 H 0.37009 0.03524 0.25545
 H507 H 0.36938 -0.03011 0.25498
 H508 H 0.33692 0.02359 0.27737
 H509 H 0.35944 0.03311 0.18895
 H510 H 0.34907 -0.02729 0.31871
 C511 C 0.12637 1.01704 0.72271
 C512 C 0.11898 1.00595 0.73987
 C513 C 0.11130 0.98550 0.73697
 C514 C 0.11079 0.97610 0.71702
 C515 C 0.11848 0.98738 0.70000
 C516 C 0.12643 1.00781 0.70270
 C517 C 0.11982 1.01562 0.76095
 C518 C 0.11102 1.03522 0.76453
 C519 C 0.11191 1.04458 0.78451
 C520 C 0.12220 1.03418 0.80082
 C521 C 0.13128 1.01460 0.79741
 C522 C 0.12978 1.00537 0.77742
 H523 H 0.13253 1.03272 0.72515
 H524 H 0.10556 0.97705 0.75030
 H525 H 0.10324 1.04297 0.75174
 H526 H 0.13673 0.99034 0.77442
 H527 H 0.11836 0.98021 0.68461
 H528 H 0.12310 1.04132 0.81623
 C529 C 0.62611 0.51799 0.22194
 C530 C 0.61871 0.50689 0.23909
 C531 C 0.61104 0.48644 0.23618
 C532 C 0.61056 0.47704 0.21622
 C533 C 0.61826 0.48834 0.19922
 C534 C 0.62621 0.50876 0.20192
 C535 C 0.61955 0.51655 0.26018
 C536 C 0.61079 0.53617 0.26377
 C537 C 0.61169 0.54552 0.28375
 C538 C 0.62194 0.53509 0.30006
 C539 C 0.63097 0.51549 0.29665
 C540 C 0.62947 0.50627 0.27665
 H541 H 0.63227 0.53367 0.22439
 H542 H 0.60530 0.47798 0.24950
 H543 H 0.60304 0.54395 0.25098
 H544 H 0.63639 0.49122 0.27365
 H545 H 0.61817 0.48116 0.18382
 H546 H 0.62285 0.54221 0.31547
 C547 C 0.84684 0.49673 0.72611
 C548 C 0.85433 0.50733 0.74405
 C549 C 0.86344 0.52724 0.74224
 C550 C 0.86531 0.53658 0.72263
 C551 C 0.85743 0.52586 0.70483
 C552 C 0.84812 0.50595 0.70638
 C553 C 0.85259 0.49763 0.76476
 C554 C 0.86093 0.47784 0.76831
 C555 C 0.85975 0.46875 0.78811
 C556 C 0.84958 0.47956 0.80420
 C557 C 0.84105 0.49934 0.80086
 C558 C 0.84279 0.50831 0.78107
 H559 H 0.83973 0.48141 0.72768
 H560 H 0.86937 0.53523 0.75616
 H561 H 0.86871 0.46981 0.75571
 H562 H 0.83638 0.52356 0.77817
 H563 H 0.85871 0.53297 0.68966
 H564 H 0.84856 0.47267 0.81950
 C565 C 0.22540 0.34596 -0.00304
 C566 C 0.24334 0.35347 0.00751
 C567 C 0.24160 0.36264 0.02741
 C568 C 0.22205 0.36455 0.03680
 C569 C 0.20424 0.35665 0.02613
 C570 C 0.20573 0.34728 0.00623
 C571 C 0.26399 0.35171 -0.00224
 C572 C 0.26748 0.36007 -0.02205
 C573 C 0.28723 0.35891 -0.03117
 C574 C 0.30333 0.34874 -0.02036
 C575 C 0.30005 0.34020 -0.00055
 C576 C 0.28030 0.34192 0.00844
 H577 H 0.22691 0.33881 -0.01836
 H578 H 0.25552 0.36860 0.03536
 H579 H 0.25487 0.36785 -0.03008
 H580 H 0.27745 0.33551 0.02372
 H581 H 0.18912 0.35796 0.03328
 H582 H 0.31860 0.34775 -0.02726
 C583 C 0.72283 0.12641 1.01723
 C584 C 0.73991 0.11897 1.00610
 C585 C 0.73693 0.11126 0.98565
 C586 C 0.71698 0.11078 0.97629
 C587 C 0.70005 0.11852 0.98762
 C588 C 0.70282 0.12651 1.00804
 C589 C 0.76100 0.11977 1.01574
 C590 C 0.76461 0.11099 1.03538
 C591 C 0.78458 0.11185 1.04471
 C592 C 0.80085 0.12208 1.03424
 C593 C 0.79742 0.13113 1.01463
 C594 C 0.77742 0.12967 1.00542
 H595 H 0.72533 0.13260 1.03291
 H596 H 0.75020 0.10547 0.97718
 H597 H 0.75185 0.10325 1.04318
 H598 H 0.77441 0.13659 0.99036
 H599 H 0.68465 0.11843 0.98047
 H600 H 0.81626 0.12295 1.04135
 C601 C 0.22214 0.62669 0.51718
 C602 C 0.23928 0.61934 0.50609
 C603 C 0.23639 0.61169 0.48561
 C604 C 0.21647 0.61117 0.47618
 C605 C 0.19947 0.61882 0.48747
 C606 C 0.20215 0.62675 0.50792
 C607 C 0.26033 0.62016 0.51580
 C608 C 0.26390 0.61136 0.53543
 C609 C 0.28384 0.61221 0.54482
 C610 C 0.30014 0.62248 0.53442
 C611 C 0.29675 0.63157 0.51481
 C612 C 0.27678 0.63011 0.50555
 H613 H 0.22457 0.63283 0.53288
 H614 H 0.24971 0.60597 0.47716
 H615 H 0.25112 0.60358 0.54318
 H616 H 0.27380 0.63706 0.49049
 H617 H 0.18409 0.61870 0.48027
 H618 H 0.31552 0.62336 0.54158
 C619 C 0.72552 0.84761 0.49699
 C620 C 0.74344 0.85508 0.50760
 C621 C 0.74167 0.86418 0.52752
 C622 C 0.72211 0.86606 0.53688
 C623 C 0.70431 0.85821 0.52616
 C624 C 0.70583 0.84890 0.50624
 C625 C 0.76411 0.85332 0.49788
 C626 C 0.76763 0.86167 0.47808
 C627 C 0.78739 0.86046 0.46897
 C628 C 0.80346 0.85026 0.47979
 C629 C 0.80014 0.84172 0.49959
 C630 C 0.78039 0.84349 0.50857
 H631 H 0.72705 0.84050 0.48166
 H632 H 0.75558 0.87009 0.53552
 H633 H 0.75505 0.86947 0.47003
 H634 H 0.77751 0.83707 0.52384
 H635 H 0.68918 0.85949 0.53329
 H636 H 0.81872 0.84922 0.47289
 C637 C -0.00312 0.22571 0.34699
 C638 C 0.00750 0.24360 0.35452
 C639 C 0.02740 0.24176 0.36364
 C640 C 0.03671 0.22215 0.36548
 C641 C 0.02596 0.20439 0.35757
 C642 C 0.00607 0.20599 0.34824
 C643 C -0.00215 0.26431 0.35279
 C644 C -0.02191 0.26788 0.36115
 C645 C -0.03095 0.28768 0.35996
 C646 C -0.02012 0.30374 0.34978
 C647 C -0.00036 0.30039 0.34124
 C648 C 0.00856 0.28059 0.34298
 H649 H -0.01843 0.22730 0.33987
 H650 H 0.03541 0.25564 0.36960
 H651 H -0.02997 0.25529 0.36893
 H652 H 0.02379 0.27768 0.33655
 H653 H 0.03305 0.18923 0.35883
 H654 H -0.02696 0.31904 0.34877
 C655 C 1.01736 0.72229 0.12556
 C656 C 1.00622 0.73943 0.11825
 C657 C 0.98574 0.73652 0.11066
 C658 C 0.97635 0.71657 0.11018
 C659 C 0.98770 0.69958 0.11778
 C660 C 1.00815 0.70228 0.12565
 C661 C 1.01587 0.76051 0.11909
 C662 C 1.03546 0.76412 0.11030
 C663 C 1.04482 0.78408 0.11122
 C664 C 1.03442 0.80035 0.12152
 C665 C 1.01484 0.79692 0.13057
 C666 C 1.00561 0.77694 0.12905
 H667 H 1.03306 0.72473 0.13167
 H668 H 0.97724 0.74984 0.10497
 H669 H 1.04322 0.75136 0.10251
 H670 H 0.99058 0.77393 0.13599
 H671 H 0.98054 0.68418 0.11769
 H672 H 1.04155 0.81574 0.12244
 C673 C 0.51745 0.22223 0.62610
 C674 C 0.50633 0.23934 0.61867
 C675 C 0.48589 0.23640 0.61099
 C676 C 0.47652 0.21645 0.61054
 C677 C 0.48783 0.19948 0.61826
 C678 C 0.50824 0.20222 0.62622
 C679 C 0.51596 0.26042 0.61948
 C680 C 0.53557 0.26404 0.61071
 C681 C 0.54490 0.28401 0.61158
 C682 C 0.53446 0.30029 0.62182
 C683 C 0.51487 0.29686 0.63086
 C684 C 0.50567 0.27686 0.62938
 H685 H 0.53312 0.22470 0.63227
 H686 H 0.47742 0.24969 0.60522
 H687 H 0.54336 0.25127 0.60297
 H688 H 0.49064 0.27385 0.63631
 H689 H 0.48067 0.18408 0.61819
 H690 H 0.54156 0.31570 0.62270
 C691 C 0.49657 0.72539 0.84705
 C692 C 0.50721 0.74330 0.85452
 C693 C 0.52709 0.74147 0.86369
 C694 C 0.53636 0.72186 0.86563
 C695 C 0.52561 0.70409 0.85778
 C696 C 0.50574 0.70567 0.84841
 C697 C 0.49757 0.76401 0.85270
 C698 C 0.47779 0.76762 0.86099
 C699 C 0.46877 0.78742 0.85974
 C700 C 0.47964 0.80345 0.84955
 C701 C 0.49942 0.80006 0.84107
 C702 C 0.50832 0.78027 0.84288
 H703 H 0.48128 0.72698 0.83990
 H704 H 0.53510 0.75536 0.86960
 H705 H 0.46970 0.75506 0.86879
 H706 H 0.52357 0.77733 0.83651
 H707 H 0.53267 0.68892 0.85912
 H708 H 0.47281 0.81875 0.84848
 N709 N 0.43082 -0.15275 0.30705
 C710 C 0.42116 -0.13889 0.31969
 N711 N 0.42198 -0.14158 0.34060
 N712 N 0.43211 -0.15761 0.34867
 C713 C 0.44187 -0.17162 0.33619
 N714 N 0.44098 -0.16883 0.31515
 C715 C 0.41032 -0.12134 0.31136
 C716 C 0.40104 -0.10617 0.30565
 C717 C 0.38990 -0.08767 0.30035
 N718 N 0.37799 -0.07823 0.31487
 N719 N 0.36837 -0.06051 0.31058
 C720 C 0.37029 -0.05150 0.29161
 N721 N 0.38217 -0.06111 0.27703
 N722 N 0.39183 -0.07887 0.28132
 N723 N 0.93014 0.34711 0.80741
 C724 C 0.92025 0.36075 0.82011
 N725 N 0.92081 0.35778 0.84099
 N726 N 0.93091 0.34169 0.84898
 C727 C 0.94089 0.32794 0.83642
 N728 N 0.94028 0.33097 0.81543
 C729 C 0.90947 0.37838 0.81188
 C730 C 0.90025 0.39361 0.80623
 C731 C 0.88918 0.41217 0.80099
 N732 N 0.87738 0.42166 0.81557
 N733 N 0.86781 0.43943 0.81132
 C734 C 0.86967 0.44841 0.79233
 N735 N 0.88143 0.43874 0.77770
 N736 N 0.89104 0.42095 0.78195
 N737 N 0.02957 1.14957 0.81959
 C738 C 0.04864 1.15274 0.81131
 N739 N 0.05651 1.17245 0.81044
 N740 N 0.04568 1.18848 0.81782
 C741 C 0.02662 1.18535 0.82636
 N742 N 0.01877 1.16557 0.82696
 C743 C 0.06080 1.13520 0.80498
 C744 C 0.07070 1.11998 0.80050
 C745 C 0.08209 1.10137 0.79603
 N746 N 0.09289 1.09188 0.81146
 N747 N 0.10258 1.07400 0.80772
 C748 C 0.10178 1.06491 0.78843
 N749 N 0.09099 1.07458 0.77299
 N750 N 0.08129 1.09247 0.77672
 N751 N 0.55670 0.67357 0.30974
 C752 C 0.54878 0.65388 0.31063
 N753 N 0.52973 0.65077 0.31898
 N754 N 0.51900 0.66679 0.32639
 C755 C 0.52689 0.68655 0.32575
 N756 N 0.54593 0.68963 0.31715
 C757 C 0.56088 0.63630 0.30427
 C758 C 0.57072 0.62105 0.29977
 C759 C 0.58204 0.60241 0.29529
 N760 N 0.58120 0.59350 0.27598
 N761 N 0.59085 0.57558 0.27224
 C762 C 0.60162 0.56588 0.28767
 N763 N 0.60245 0.57497 0.30697
 N764 N 0.59283 0.59287 0.31072
 N765 N 0.56754 0.35097 0.17341
 C766 C 0.56286 0.35857 0.19256
 N767 N 0.54993 0.34740 0.20487
 N768 N 0.54187 0.32918 0.19812
 C769 C 0.54643 0.32155 0.17883
 N770 N 0.55949 0.33282 0.16668
 C771 C 0.57091 0.37866 0.19907
 C772 C 0.57788 0.39579 0.20328
 C773 C 0.58637 0.41638 0.20688
 N774 N 0.58660 0.42525 0.22622
 N775 N 0.59434 0.44449 0.22924
 C776 C 0.60211 0.45554 0.21304
 N777 N 0.60182 0.44650 0.19373
 N778 N 0.59410 0.42730 0.19071
 N779 N 0.06741 0.85024 0.67406
 C780 C 0.06272 0.85781 0.69323
 N781 N 0.04969 0.84667 0.70547
 N782 N 0.04154 0.82852 0.69864
 C783 C 0.04611 0.82092 0.67933
 N784 N 0.05927 0.83215 0.66726
 C785 C 0.07086 0.87784 0.69981
 C786 C 0.07790 0.89494 0.70405
 C787 C 0.08645 0.91549 0.70767
 N788 N 0.08669 0.92436 0.72701
 N789 N 0.09448 0.94358 0.73003
 C790 C 0.10230 0.95461 0.71384
 N791 N 0.10201 0.94556 0.69453
 N792 N 0.09423 0.92638 0.69150
 N793 N 0.92547 0.66458 0.70385
 C794 C 0.93317 0.64504 0.70515
 N795 N 0.95319 0.64170 0.69975
 N796 N 0.96509 0.65733 0.69303
 C797 C 0.95744 0.67691 0.69143
 N798 N 0.93741 0.68025 0.69714
 C799 C 0.91992 0.62768 0.71026
 C800 C 0.90919 0.61251 0.71353
 C801 C 0.89693 0.59388 0.71628
 N802 N 0.89555 0.58489 0.73525
 N803 N 0.88521 0.56687 0.73736
 C804 C 0.87595 0.55715 0.72057
 N805 N 0.87732 0.56634 0.70163
 N806 N 0.88763 0.58434 0.69952
 N807 N 0.42627 0.16467 0.20350
 C808 C 0.43401 0.14514 0.20482
 N809 N 0.45407 0.14185 0.19953
 N810 N 0.46597 0.15752 0.19290
 C811 C 0.45829 0.17708 0.19128
 N812 N 0.43821 0.18037 0.19688
 C813 C 0.42076 0.12775 0.20984
 C814 C 0.41004 0.11256 0.21303
 C815 C 0.39776 0.09392 0.21571
 N816 N 0.39631 0.08492 0.23468
 N817 N 0.38594 0.06691 0.23674
 C818 C 0.37673 0.05721 0.21991
 N819 N 0.37818 0.06641 0.20098
 N820 N 0.38851 0.08440 0.19892
 N821 N 0.34006 0.42065 -0.14177
 C822 C 0.31919 0.41996 -0.13895
 N823 N 0.30653 0.42983 -0.15267
 N824 N 0.31458 0.44008 -0.16874
 C825 C 0.33555 0.44082 -0.17162
 N826 N 0.34807 0.43087 -0.15779
 C827 C 0.31093 0.40906 -0.12140
 C828 C 0.30527 0.39973 -0.10622
 C829 C 0.30003 0.38855 -0.08771
 N830 N 0.28105 0.39044 -0.07889
 N831 N 0.27681 0.38075 -0.06112
 C832 C 0.29142 0.36888 -0.05150
 N833 N 0.31034 0.36699 -0.06054
 N834 N 0.31457 0.37664 -0.07828
 N835 N 0.80670 0.93090 0.34716
 C836 C 0.81934 0.92103 0.36090
 N837 N 0.84020 0.92160 0.35803
 N838 N 0.84823 0.93171 0.34195
 C839 C 0.83572 0.94167 0.32811
 N840 N 0.81476 0.94104 0.33103
 C841 C 0.81108 0.91024 0.37852
 C842 C 0.80543 0.90101 0.39375
 C843 C 0.80020 0.88991 0.41232
 N844 N 0.81475 0.87807 0.42182
 N845 N 0.81052 0.86849 0.43960
 C846 C 0.79159 0.87039 0.44861
 N847 N 0.77697 0.88220 0.43894
 N848 N 0.78121 0.89182 0.42112
 N849 N 0.80965 0.05578 1.17278
 C850 C 0.81188 0.04861 1.15294
 N851 N 0.82161 0.03028 1.14966
 N852 N 0.82908 0.01954 1.16569
 C853 C 0.82718 0.02669 1.18565
 N854 N 0.81712 0.04500 1.18884
 C855 C 0.80537 0.06078 1.13544
 C856 C 0.80078 0.07068 1.12022
 C857 C 0.79625 0.08208 1.10160
 N858 N 0.81161 0.09290 1.09207
 N859 N 0.80783 0.10257 1.07416
 C860 C 0.78854 0.10174 1.06508
 N861 N 0.77317 0.09094 1.07479
 N862 N 0.77695 0.08125 1.09271
 N863 N 0.30965 0.55674 0.67288
 C864 C 0.31059 0.54889 0.65316
 N865 N 0.31894 0.52985 0.65000
 N866 N 0.32633 0.51905 0.66603
 C867 C 0.32565 0.52687 0.68583
 N868 N 0.31703 0.54590 0.68894
 C869 C 0.30425 0.56106 0.63559
 C870 C 0.29978 0.57097 0.62034
 C871 C 0.29533 0.58236 0.60170
 N872 N 0.31074 0.59316 0.59221
 N873 N 0.30701 0.60286 0.57430
 C874 C 0.28775 0.60207 0.56518
 N875 N 0.27233 0.59129 0.57485
 N876 N 0.27605 0.58158 0.59276
 N877 N 0.17377 0.56783 0.35006
 C878 C 0.19288 0.56313 0.35773
 N879 N 0.20513 0.55006 0.34666
 N880 N 0.19837 0.54190 0.32848
 C881 C 0.17912 0.54648 0.32078
 N882 N 0.16703 0.55967 0.33194
 C883 C 0.19939 0.57127 0.37780
 C884 C 0.20359 0.57832 0.39492
 C885 C 0.20718 0.58687 0.41550
 N886 N 0.22649 0.58713 0.42440
 N887 N 0.22949 0.59491 0.44364
 C888 C 0.21331 0.60270 0.45466
 N889 N 0.19403 0.60239 0.44559
 N890 N 0.19102 0.59462 0.42638
 N891 N 0.70520 0.05050 0.84628
 C892 C 0.69245 0.06222 0.85824
 N893 N 0.67271 0.06559 0.85150
 N894 N 0.66585 0.05744 0.83343
 C895 C 0.67842 0.04556 0.82133
 N896 N 0.69831 0.04234 0.82814
 C897 C 0.69922 0.07047 0.87818
 C898 C 0.70360 0.07760 0.89522
 C899 C 0.70734 0.08627 0.91574
 N900 N 0.69127 0.09418 0.92664
 N901 N 0.69439 0.10202 0.94580
 C902 C 0.71370 0.10224 0.95481
 N903 N 0.72980 0.09429 0.94377
 N904 N 0.72668 0.08643 0.92457
 N905 N 0.69982 0.95386 0.64233
 C906 C 0.70507 0.93377 0.64561
 N907 N 0.70372 0.92599 0.66513
 N908 N 0.69711 0.93791 0.68085
 C909 C 0.69154 0.95801 0.67758
 N910 N 0.69319 0.96574 0.65801
 C911 C 0.71007 0.92055 0.62818
 C912 C 0.71326 0.90985 0.61296
 C913 C 0.71593 0.89761 0.59428
 N914 N 0.69915 0.88840 0.58472
 N915 N 0.70121 0.87812 0.56668
 C916 C 0.72010 0.87669 0.55748
 N917 N 0.73691 0.88586 0.56723
 N918 N 0.73486 0.89618 0.58528
 N919 N 0.19975 0.45296 0.14168
 C920 C 0.20503 0.43290 0.14510
 N921 N 0.20367 0.42526 0.16469
 N922 N 0.19703 0.43729 0.18031
 C923 C 0.19145 0.45736 0.17689
 N924 N 0.19310 0.46495 0.15727
 C925 C 0.21005 0.41956 0.12778
 C926 C 0.21325 0.40876 0.11264
 C927 C 0.21592 0.39640 0.09404
 N928 N 0.23484 0.39496 0.08501
 N929 N 0.23687 0.38455 0.06701
 C930 C 0.22007 0.37527 0.05735
 N931 N 0.20119 0.37671 0.06658
 N932 N 0.19915 0.38709 0.08456
 N933 N -0.15246 0.30712 0.43043
 C934 C -0.13874 0.31980 0.42061
 N935 N -0.14160 0.34067 0.42125
 N936 N -0.15764 0.34868 0.43138
 C937 C -0.17147 0.33614 0.44129
 N938 N -0.16856 0.31516 0.44059
 C939 C -0.12116 0.31155 0.40980
 C940 C -0.10597 0.30588 0.40055
 C941 C -0.08744 0.30062 0.38945
 N942 N -0.07793 0.31517 0.37762
 N943 N -0.06020 0.31090 0.36803
 C944 C -0.05126 0.29192 0.36990
 N945 N -0.06095 0.27731 0.38170
 N946 N -0.07871 0.28158 0.39133
 N947 N 0.34723 0.80716 0.93006
 C948 C 0.36091 0.81979 0.92012
 N949 N 0.35802 0.84066 0.92064
 N950 N 0.34199 0.84871 0.93075
 C951 C 0.32820 0.83622 0.94077
 N952 N 0.33114 0.81524 0.94020
 C953 C 0.37849 0.81150 0.90935
 C954 C 0.39369 0.80579 0.90013
 C955 C 0.41222 0.80048 0.88907
 N956 N 0.42176 0.81499 0.87721
 N957 N 0.43951 0.81068 0.86767
 C958 C 0.44844 0.79170 0.86961
 N959 N 0.43872 0.77713 0.88144
 N960 N 0.42094 0.78145 0.89102
 N961 N 1.17281 0.81026 0.05626
 C962 C 1.15313 0.81114 0.04831
 N963 N 1.15002 0.81952 0.02925
 N964 N 1.16604 0.82697 0.01852
 C965 C 1.18578 0.82635 0.02644
 N966 N 1.18885 0.81771 0.04550
 C967 C 1.13557 0.80473 0.06041
 C968 C 1.12032 0.80020 0.07025
 C969 C 1.10168 0.79569 0.08157
 N970 N 1.09276 0.77641 0.08069
 N971 N 1.07485 0.77264 0.09033
 C972 C 1.06517 0.78803 0.10114
 N973 N 1.07427 0.80730 0.10202
 N974 N 1.09217 0.81107 0.09239
 N975 N 0.67289 0.31004 0.55658
 C976 C 0.65322 0.31098 0.54864
 N977 N 0.65012 0.31937 0.52958
 N978 N 0.66615 0.32678 0.51885
 C979 C 0.68590 0.32611 0.52676
 N980 N 0.68895 0.31745 0.54581
 C981 C 0.63564 0.30460 0.56074
 C982 C 0.62039 0.30010 0.57058
 C983 C 0.60175 0.29561 0.58191
 N984 N 0.59287 0.27630 0.58110
 N985 N 0.57496 0.27255 0.59075
 C986 C 0.56524 0.28796 0.60150
 N987 N 0.57431 0.30725 0.60230
 N988 N 0.59220 0.31101 0.59267
 N989 N 0.34702 0.20478 0.54964
 C990 C 0.35817 0.19256 0.56269
 N991 N 0.35057 0.17343 0.56745
 N992 N 0.33246 0.16664 0.55935
 C993 C 0.32123 0.17871 0.54617
 N994 N 0.32884 0.19798 0.54154
 C995 C 0.37822 0.19912 0.57078
 C996 C 0.39533 0.20336 0.57777
 C997 C 0.41590 0.20700 0.58629
 N998 N 0.42682 0.19087 0.59407
 N999 N 0.44601 0.19392 0.60180
 C1000 C 0.45503 0.21323 0.60206
 N1001 N 0.44396 0.22939 0.59425
 N1002 N 0.42474 0.22634 0.58649
 N1003 N 0.85007 0.67377 0.06796
 C1004 C 0.85773 0.69282 0.06299
 N1005 N 0.84660 0.70495 0.04983
 N1006 N 0.82839 0.69814 0.04183
 C1007 C 0.82071 0.67894 0.04667
 N1008 N 0.83192 0.66698 0.05996
 C1009 C 0.87783 0.69937 0.07095
 C1010 C 0.89498 0.70360 0.07785
 C1011 C 0.91560 0.70722 0.08624
 N1012 N 0.92445 0.72655 0.08646
 N1013 N 0.94371 0.72958 0.09412
 C1014 C 0.95482 0.71339 0.10181
 N1015 N 0.94581 0.69408 0.10153
 N1016 N 0.92658 0.69105 0.09389
 N1017 N 0.64139 0.69906 0.95381
 C1018 C 0.64473 0.70440 0.93374
 N1019 N 0.66426 0.70307 0.92603
 N1020 N 0.67991 0.69641 0.93801
 C1021 C 0.67658 0.69077 0.95810
 N1022 N 0.65702 0.69239 0.96575
 C1023 C 0.62738 0.70948 0.92045
 C1024 C 0.61222 0.71273 0.90969
 C1025 C 0.59360 0.71548 0.89738
 N1026 N 0.58402 0.69873 0.88814
 N1027 N 0.56604 0.70085 0.87779
 C1028 C 0.55691 0.71978 0.87633
 N1029 N 0.56667 0.73656 0.88554
 N1030 N 0.58468 0.73445 0.89592
 N1031 N 0.14191 0.19919 0.45339
 C1032 C 0.14522 0.20456 0.43332
 N1033 N 0.16472 0.20323 0.42557
 N1034 N 0.18040 0.19654 0.43751
 C1035 C 0.17710 0.19086 0.45760
 N1036 N 0.15755 0.19249 0.46529
 C1037 C 0.12784 0.20967 0.42007
 C1038 C 0.11266 0.21294 0.40935
 C1039 C 0.09402 0.21571 0.39709
 N1040 N 0.08444 0.19899 0.38780
 N1041 N 0.06643 0.20113 0.37750
 C1042 C 0.05728 0.22006 0.37613
 N1043 N 0.06704 0.23681 0.38539
 N1044 N 0.08506 0.23468 0.39572
 N1045 N 0.56085 0.08666 0.68566
 C1046 C 0.57097 0.10446 0.68033
 N1047 N 0.59160 0.10660 0.68481
 N1048 N 0.60181 0.09138 0.69431
 C1049 C 0.59177 0.07348 0.69972
 N1050 N 0.57107 0.07143 0.69517
 C1051 C 0.55999 0.12099 0.67032
 C1052 C 0.55091 0.13506 0.66205
 C1053 C 0.54022 0.15202 0.65244
 N1054 N 0.54938 0.17115 0.65164
 N1055 N 0.53931 0.18703 0.64314
 C1056 C 0.51970 0.18437 0.63512
 N1057 N 0.51063 0.16510 0.63591
 N1058 N 0.52070 0.14921 0.64442
 N1059 N 1.06086 0.58658 0.18467
 C1060 C 1.07102 0.60433 0.17922
 N1061 N 1.09169 0.60638 0.18354
 N1062 N 1.10190 0.59115 0.19301
 C1063 C 1.09183 0.57331 0.19854
 N1064 N 1.07109 0.57134 0.19415
 C1065 C 1.06002 0.62088 0.16927
 C1066 C 1.05093 0.63499 0.16107
 C1067 C 1.04021 0.65197 0.15155
 N1068 N 1.04939 0.67111 0.15078
 N1069 N 1.03928 0.68702 0.14237
 C1070 C 1.01963 0.68440 0.13443
 N1071 N 1.01056 0.66513 0.13520
 N1072 N 1.02066 0.64920 0.14361
 N1073 N 0.93291 0.88696 0.19800
 C1074 C 0.95332 0.89034 0.19388
 N1075 N 0.96251 0.90861 0.20008
 N1076 N 0.95156 0.92309 0.21005
 C1077 C 0.93105 0.91980 0.21419
 N1078 N 0.92199 0.90142 0.20796
 C1079 C 0.96489 0.87477 0.18293
 C1080 C 0.97413 0.86137 0.17367
 C1081 C 0.98459 0.84504 0.16265
 N1082 N 0.97564 0.82584 0.16077
 N1083 N 0.98523 0.81061 0.15053
 C1084 C 1.00412 0.81401 0.14176
 N1085 N 1.01301 0.83334 0.14368
 N1086 N 1.00341 0.84859 0.15393
 N1087 N 0.43267 0.38688 0.69794
 C1088 C 0.45311 0.39027 0.69394
 N1089 N 0.46228 0.40851 0.70026
 N1090 N 0.45129 0.42294 0.71025
 C1091 C 0.43076 0.41964 0.71427
 N1092 N 0.42171 0.40130 0.70791
 C1093 C 0.46472 0.37472 0.68300
 C1094 C 0.47400 0.36133 0.67376
 C1095 C 0.48450 0.34501 0.66278
 N1096 N 0.50334 0.34857 0.65408
 N1097 N 0.51297 0.33331 0.64388
 C1098 C 0.50411 0.31397 0.64199
 N1099 N 0.48521 0.31055 0.65074
 N1100 N 0.47558 0.32578 0.66093
 N1101 N 0.44470 0.59466 0.78192
 C1102 C 0.44463 0.59980 0.80251
 N1103 N 0.43454 0.58714 0.81592
 N1104 N 0.42478 0.56989 0.80895
 C1105 C 0.42476 0.56463 0.78832
 N1106 N 0.43494 0.57739 0.77495
 C1107 C 0.45514 0.61836 0.81009
 C1108 C 0.46399 0.63387 0.81665
 C1109 C 0.47461 0.65220 0.82465
 N1110 N 0.49376 0.65074 0.83367
 N1111 N 0.50361 0.66771 0.84122
 C1112 C 0.49467 0.68677 0.84006
 N1113 N 0.47544 0.68812 0.83100
 N1114 N 0.46559 0.67114 0.82344
 N1115 N -0.05484 0.09504 0.28148
 C1116 C -0.05499 0.10021 0.30206
 N1117 N -0.06516 0.08760 0.31545
 N1118 N -0.07492 0.07035 0.30847
 C1119 C -0.07486 0.06506 0.28785
 N1120 N -0.06461 0.07777 0.27450
 C1121 C -0.04447 0.11877 0.30966
 C1122 C -0.03562 0.13426 0.31625
 C1123 C -0.02501 0.15258 0.32429
 N1124 N -0.00584 0.15111 0.33327
 N1125 N 0.00399 0.16806 0.34088
 C1126 C -0.00498 0.18712 0.33983
 N1127 N -0.02422 0.18847 0.33080
 N1128 N -0.03407 0.17151 0.32319
 N1129 N 0.06583 0.40158 0.26779
 C1130 C 0.06458 0.39826 0.28860
 N1131 N 0.07449 0.41164 0.30208
 N1132 N 0.08536 0.42783 0.29498
 C1133 C 0.08674 0.43127 0.27415
 N1134 N 0.07673 0.41780 0.26070
 C1135 C 0.05297 0.38081 0.29640
 C1136 C 0.04335 0.36632 0.30348
 C1137 C 0.03197 0.34932 0.31246
 N1138 N 0.04066 0.33025 0.31403
 N1139 N 0.03035 0.31467 0.32304
 C1140 C 0.01100 0.31760 0.33085
 N1141 N 0.00238 0.33677 0.32916
 N1142 N 0.01268 0.35234 0.32016
 N1143 N 0.56590 0.90140 0.76799
 C1144 C 0.56465 0.89792 0.78877
 N1145 N 0.57459 0.91119 0.80234
 N1146 N 0.58549 0.92742 0.79536
 C1147 C 0.58685 0.93102 0.77456
 N1148 N 0.57682 0.91766 0.76101
 C1149 C 0.55301 0.88044 0.79645
 C1150 C 0.54334 0.86595 0.80346
 C1151 C 0.53191 0.84894 0.81236
 N1152 N 0.54059 0.82987 0.81401
 N1153 N 0.53022 0.81431 0.82299
 C1154 C 0.51083 0.81726 0.83070
 N1155 N 0.50222 0.83642 0.82894
 N1156 N 0.51257 0.85198 0.81996
 N1157 N 0.68558 0.56125 0.08624
 C1158 C 0.68018 0.57140 0.10400
 N1159 N 0.68456 0.59205 0.10607
 N1160 N 0.69404 0.60226 0.09084
 C1161 C 0.69957 0.59225 0.07291
 N1162 N 0.69507 0.57147 0.07100
 C1163 C 0.67019 0.56042 0.12054
 C1164 C 0.66194 0.55135 0.13464
 C1165 C 0.65236 0.54068 0.15162
 N1166 N 0.65157 0.54987 0.17076
 N1167 N 0.64308 0.53982 0.18667
 C1168 C 0.63508 0.52019 0.18404
 N1169 N 0.63586 0.51110 0.16477
 N1170 N 0.64435 0.52115 0.14885
 N1171 N 0.18451 1.09109 0.60665
 C1172 C 0.18016 1.07042 0.60461
 N1173 N 0.18553 1.06024 0.58685
 N1174 N 0.19497 1.07046 0.57157
 C1175 C 0.19940 1.09120 0.57352
 N1176 N 0.19394 1.10129 0.59138
 C1177 C 0.17022 1.05945 0.62120
 C1178 C 0.16201 1.05038 0.63532
 C1179 C 0.15248 1.03971 0.65234
 N1180 N 0.14445 1.02019 0.64958
 N1181 N 0.13601 1.01014 0.66552
 C1182 C 0.13527 1.01923 0.68480
 N1183 N 0.14330 1.03885 0.68741
 N1184 N 0.15174 1.04891 0.67148
 N1185 N 0.20100 0.96214 0.90915
 C1186 C 0.19452 0.95295 0.89097
 N1187 N 0.19837 0.93247 0.88765
 N1188 N 0.20832 0.92149 0.90209
 C1189 C 0.21486 0.93050 0.92046
 N1190 N 0.21097 0.95114 0.92360
 C1191 C 0.18359 0.96458 0.87540
 C1192 C 0.17433 0.97386 0.86199
 C1193 C 0.16333 0.98434 0.84564
 N1194 N 0.16148 0.97540 0.82641
 N1195 N 0.15125 0.98499 0.81115
 C1196 C 0.14246 1.00388 0.81455
 N1197 N 0.14436 1.01276 0.83390
 N1198 N 0.15460 1.00316 0.84918
 N1199 N 0.70038 0.46291 0.40850
 C1200 C 0.69412 0.45375 0.39022
 N1201 N 0.69819 0.43333 0.38682
 N1202 N 0.70816 0.42236 0.40127
 C1203 C 0.71446 0.43140 0.41965
 N1204 N 0.71037 0.45193 0.42296
 C1205 C 0.68318 0.46537 0.37464
 C1206 C 0.67393 0.47465 0.36123
 C1207 C 0.66294 0.48514 0.34488
 N1208 N 0.66106 0.47620 0.32565
 N1209 N 0.65086 0.48582 0.31039
 C1210 C 0.64212 0.50474 0.31378
 N1211 N 0.64404 0.51361 0.33314
 N1212 N 0.65425 0.50399 0.34842
 N1213 N 0.78172 0.44511 0.59509
 C1214 C 0.80228 0.44502 0.60030
 N1215 N 0.81569 0.43494 0.58766
 N1216 N 0.80875 0.42521 0.57035
 C1217 C 0.78816 0.42521 0.56503
 N1218 N 0.77479 0.43538 0.57778
 C1219 C 0.80982 0.45551 0.61891
 C1220 C 0.81635 0.46433 0.63445
 C1221 C 0.82434 0.47492 0.65282
 N1222 N 0.83329 0.49411 0.65139
 N1223 N 0.84084 0.50392 0.66840
 C1224 C 0.83975 0.49492 0.68746
 N1225 N 0.83076 0.47566 0.68877
 N1226 N 0.82320 0.46583 0.67176
 N1227 N 0.31590 -0.06469 0.08688
 C1228 C 0.30255 -0.05459 0.09956
 N1229 N 0.28198 -0.05447 0.09444
 N1230 N 0.27497 -0.06421 0.07715
 C1231 C 0.28828 -0.07440 0.06436
 N1232 N 0.30890 -0.07442 0.06960
 C1233 C 0.31017 -0.04412 0.11815
 C1234 C 0.31677 -0.03532 0.13369
 C1235 C 0.32483 -0.02478 0.15206
 N1236 N 0.32367 -0.03389 0.17099
 N1237 N 0.33129 -0.02411 0.18800
 C1238 C 0.34036 -0.00488 0.18670
 N1239 N 0.34146 0.00414 0.16765
 N1240 N 0.33385 -0.00563 0.15064
 N1241 N 0.26809 0.06528 0.40140
 C1242 C 0.28886 0.06410 0.39803
 N1243 N 0.30233 0.07406 0.41139
 N1244 N 0.29526 0.08491 0.42761
 C1245 C 0.27447 0.08621 0.43110
 N1246 N 0.26102 0.07615 0.41765
 C1247 C 0.29665 0.05252 0.38055
 C1248 C 0.30372 0.04292 0.36604
 C1249 C 0.31270 0.03158 0.34902
 N1250 N 0.31431 0.04033 0.32995
 N1251 N 0.32334 0.03006 0.31437
 C1252 C 0.33114 0.01069 0.31729
 N1253 N 0.32942 0.00201 0.33645
 N1254 N 0.32039 0.01227 0.35203
 N1255 N 0.76767 0.56527 0.90222
 C1256 C 0.78844 0.56407 0.89888
 N1257 N 0.80189 0.57401 0.91226
 N1258 N 0.79481 0.58486 0.92848
 C1259 C 0.77402 0.58618 0.93194
 N1260 N 0.76058 0.57614 0.91847
 C1261 C 0.79623 0.55250 0.88140
 C1262 C 0.80331 0.54291 0.86689
 C1263 C 0.81228 0.53157 0.84986
 N1264 N 0.81997 0.51225 0.85286
 N1265 N 0.82897 0.50199 0.83727
 C1266 C 0.83067 0.51067 0.81810
 N1267 N 0.82287 0.53004 0.81519
 N1268 N 0.81386 0.54032 0.83079
 N1269 N 0.10620 0.68437 0.59140
 C1270 C 0.10415 0.68013 0.57069
 N1271 N 0.08640 0.68556 0.56053
 N1272 N 0.07115 0.69495 0.57078
 C1273 C 0.07311 0.69927 0.59157
 N1274 N 0.09095 0.69376 0.60165
 C1275 C 0.12071 0.67025 0.55968
 C1276 C 0.13482 0.66210 0.55058
 C1277 C 0.15182 0.65263 0.53988
 N1278 N 0.14908 0.64465 0.52032
 N1279 N 0.16501 0.63626 0.51025
 C1280 C 0.18426 0.63554 0.51936
 N1281 N 0.18686 0.64351 0.53902
 N1282 N 0.17094 0.65190 0.54909
 N1283 N 0.58728 0.18562 1.06066
 C1284 C 0.60506 0.18030 1.07085
 N1285 N 0.60713 0.18470 1.09152
 N1286 N 0.59188 0.19411 1.10173
 C1287 C 0.57400 0.19951 1.09163
 N1288 N 0.57202 0.19504 1.07088
 C1289 C 0.62162 0.17037 1.05987
 C1290 C 0.63571 0.16217 1.05078
 C1291 C 0.65266 0.15262 1.04007
 N1292 N 0.67181 0.15190 1.04922
 N1293 N 0.68768 0.14343 1.03912
 C1294 C 0.68499 0.13538 1.01951
 N1295 N 0.66571 0.13611 1.01046
 N1296 N 0.64983 0.14457 1.02055
 N1297 N 0.90907 0.20045 0.96199
 C1298 C 0.89092 0.19402 0.95274
 N1299 N 0.88765 0.19787 0.93224
 N1300 N 0.90210 0.20779 0.92127
 C1301 C 0.92044 0.21428 0.93034
 N1302 N 0.92354 0.21039 0.95100
 C1303 C 0.87533 0.18314 0.96437
 C1304 C 0.86192 0.17394 0.97366
 C1305 C 0.84558 0.16299 0.98419
 N1306 N 0.82636 0.16118 0.97526
 N1307 N 0.81112 0.15101 0.98491
 C1308 C 0.81453 0.14225 1.00384
 N1309 N 0.83387 0.14410 1.01270
 N1310 N 0.84913 0.15428 1.00305
 N1311 N 0.40854 0.70092 0.46244
 C1312 C 0.39030 0.69467 0.45322
 N1313 N 0.38695 0.69874 0.43276
 N1314 N 0.40140 0.70870 0.42182
 C1315 C 0.41974 0.71498 0.43092
 N1316 N 0.42301 0.71089 0.45148
 C1317 C 0.37472 0.68374 0.46482
 C1318 C 0.36130 0.67451 0.47407
 C1319 C 0.34496 0.66353 0.48455
 N1320 N 0.32576 0.66171 0.47557
 N1321 N 0.31050 0.65151 0.48517
 C1322 C 0.31387 0.64272 0.50409
 N1323 N 0.33320 0.64458 0.51301
 N1324 N 0.34847 0.65479 0.50340
 N1325 N 0.59478 0.78243 0.44524
 C1326 C 0.59993 0.80301 0.44517
 N1327 N 0.58730 0.81641 0.43504
 N1328 N 0.57006 0.80945 0.42524
 C1329 C 0.56480 0.78884 0.42521
 N1330 N 0.57753 0.77547 0.43543
 C1331 C 0.61848 0.81057 0.45572
 C1332 C 0.63399 0.81712 0.46458
 C1333 C 0.65233 0.82512 0.47518
 N1334 N 0.67123 0.82398 0.46609
 N1335 N 0.68822 0.83154 0.47593
 C1336 C 0.68692 0.84054 0.49520
 N1337 N 0.66790 0.84163 0.50420
 N1338 N 0.65092 0.83407 0.49438
 N1339 N 0.08694 0.31489 -0.06452
 C1340 C 0.09960 0.30145 -0.05448
 N1341 N 0.09442 0.28088 -0.05441
 N1342 N 0.07711 0.27396 -0.06414
 C1343 C 0.06435 0.28736 -0.07428
 N1344 N 0.06965 0.30797 -0.07425
 C1345 C 0.11821 0.30897 -0.04401
 C1346 C 0.13376 0.31550 -0.03521
 C1347 C 0.15214 0.32348 -0.02466
 N1348 N 0.15078 0.33247 -0.00547
 N1349 N 0.16779 0.34003 0.00430
 C1350 C 0.18679 0.33890 -0.00474
 N1351 N 0.18804 0.32986 -0.02400
 N1352 N 0.17102 0.32229 -0.03379
 N1353 N 0.40178 0.26741 0.06563
 C1354 C 0.39829 0.28817 0.06436
 N1355 N 0.41159 0.30174 0.07424
 N1356 N 0.42786 0.29480 0.08511
 C1357 C 0.43146 0.27402 0.08650
 N1358 N 0.41808 0.26046 0.07652
 C1359 C 0.38076 0.29582 0.05276
 C1360 C 0.36621 0.30279 0.04314
 C1361 C 0.34914 0.31165 0.03177
 N1362 N 0.33011 0.31319 0.04053
 N1363 N 0.31448 0.32212 0.03022
 C1364 C 0.31732 0.32988 0.01080
 N1365 N 0.33644 0.32821 0.00210
 N1366 N 0.35207 0.31929 0.01240
 N1367 N 0.90136 0.76818 0.56565
 C1368 C 0.89800 0.78896 0.56448
 N1369 N 0.91135 0.80241 0.57447
 N1370 N 0.92753 0.79530 0.58536
 C1371 C 0.93100 0.77449 0.58666
 N1372 N 0.91757 0.76107 0.57656
 C1373 C 0.88056 0.79678 0.55287
 C1374 C 0.86608 0.80388 0.54324
 C1375 C 0.84907 0.81288 0.53188
 N1376 N 0.85206 0.82058 0.51254
 N1377 N 0.83649 0.82960 0.50226
 C1378 C 0.81736 0.83131 0.51094
 N1379 N 0.81446 0.82350 0.53033
 N1380 N 0.83004 0.81447 0.54063
   
