data_POSCAR
  _audit_creation_date              2014-09-24
  _audit_creation_method            'ToBaCCo'
  _symmetry_space_group_name_H-M    'P1'
  _symmetry_Int_Tables_number       1
  _symmetry_cell_setting            triclinic
  loop_
  _symmetry_equiv_pos_as_xyz
 x,y,z
_cell_length_a 32.0022
_cell_length_b 31.9440
_cell_length_c 27.7513
_cell_angle_alpha 87.795100
_cell_angle_beta 92.339000
_cell_angle_gamma 92.853700
loop_
  _atom_site_label
  _atom_site_type_symbol
  _atom_site_fract_x
  _atom_site_fract_y
  _atom_site_fract_z
C1 C 0.38460 0.03825 0.30452
 C2 C 0.36411 0.07475 0.27792
 C3 C 0.33520 0.06331 0.24308
 C4 C 0.32997 0.01539 0.23695
 C5 C 0.34779 0.00978 0.32248
 C6 C 0.31968 -0.00374 0.28722
 C7 C 0.40262 0.01284 0.26488
 C8 C 0.37455 0.00074 0.22935
 H9 H 0.36970 0.10693 0.28839
 H10 H 0.30655 0.00680 0.20816
 H11 H 0.34714 -0.00188 0.35951
 H12 H 0.43496 0.00510 0.26449
 C13 C 0.10923 -0.03434 0.79570
 C14 C 0.13764 -0.06909 0.78374
 C15 C 0.16737 -0.05670 0.75184
 C16 C 0.16490 -0.01093 0.73305
 C17 C 0.13942 0.00183 0.81210
 C18 C 0.16864 0.01413 0.77949
 C19 C 0.09160 -0.01998 0.74927
 C20 C 0.12160 -0.00622 0.71488
 H21 H 0.13524 -0.10038 0.80003
 H22 H 0.18935 -0.00106 0.70713
 H23 H 0.13347 0.02058 0.84261
 H24 H 0.05967 -0.02720 0.73712
 C25 C 0.60665 0.45625 0.28956
 C26 C 0.63884 0.42403 0.28144
 C27 C 0.66938 0.43824 0.25131
 C28 C 0.66436 0.48310 0.23061
 C29 C 0.63250 0.49531 0.30611
 C30 C 0.66285 0.50880 0.27570
 C31 C 0.59002 0.46786 0.23843
 C32 C 0.61941 0.48414 0.20805
 H33 H 0.63779 0.39285 0.29805
 H34 H 0.68954 0.49436 0.20628
 H35 H 0.62391 0.51372 0.33588
 H36 H 0.55793 0.46162 0.22617
 C37 C 0.88950 0.54004 0.80389
 C38 C 0.86444 0.57593 0.78229
 C39 C 0.83587 0.56448 0.74719
 C40 C 0.83519 0.51763 0.73608
 C41 C 0.85658 0.50605 0.82007
 C42 C 0.82836 0.49387 0.78475
 C43 C 0.90897 0.52102 0.76037
 C44 C 0.88095 0.50935 0.72466
 H45 H 0.86881 0.60780 0.79413
 H46 H 0.81124 0.50839 0.70794
 H47 H 0.86062 0.48756 0.85336
 H48 H 0.94199 0.51754 0.75707
 C49 C 0.30416 0.42749 0.99516
 C50 C 0.28747 0.40309 1.03994
 C51 C 0.25395 0.37589 1.03007
 C52 C 0.24121 0.37517 0.97623
 C53 C 0.31368 0.39375 0.96052
 C54 C 0.28145 0.36657 0.95053
 C55 C 0.26522 0.44859 0.97298
 C56 C 0.23131 0.42161 0.96441
 H57 H 0.29765 0.41015 1.07647
 H58 H 0.21560 0.35191 0.96683
 H59 H 0.34274 0.39375 0.94168
 H60 H 0.26253 0.48215 0.97421
 C61 C 0.77368 0.05432 0.99984
 C62 C 0.75637 0.08292 0.95811
 C63 C 0.73071 0.11235 0.97268
 C64 C 0.72355 0.10962 1.02706
 C65 C 0.79358 0.08514 1.03597
 C66 C 0.76767 0.11345 1.05086
 C67 C 0.73670 0.03585 1.02289
 C68 C 0.70793 0.06612 1.03666
 H69 H 0.76591 0.08323 0.92124
 H70 H 0.70371 0.13423 1.03954
 H71 H 0.82633 0.08572 1.04721
 H72 H 0.72826 0.00269 1.02117
 C73 C 0.27366 0.56223 0.49343
 C74 C 0.25953 0.59349 0.45289
 C75 C 0.23134 0.62073 0.46687
 C76 C 0.21939 0.61442 0.51972
 C77 C 0.28937 0.59022 0.53427
 C78 C 0.26148 0.61684 0.54876
 C79 C 0.23296 0.54083 0.51074
 C80 C 0.20387 0.56796 0.52317
 H81 H 0.27230 0.59665 0.41746
 H82 H 0.19640 0.63671 0.53098
 H83 H 0.32139 0.59092 0.54833
 H84 H 0.22553 0.50774 0.50606
 C85 C 0.79965 0.92503 0.49569
 C86 C 0.78358 0.89824 0.53904
 C87 C 0.75025 0.87128 0.52790
 C88 C 0.73710 0.87295 0.47409
 C89 C 0.80920 0.89348 0.45859
 C90 C 0.77710 0.86655 0.44689
 C91 C 0.76052 0.94660 0.47531
 C92 C 0.72699 0.91966 0.46507
 H93 H 0.79322 0.90423 0.57602
 H94 H 0.71138 0.85008 0.46377
 H95 H 0.83962 0.89244 0.44290
 H96 H 0.75752 0.97998 0.47846
 C97 C -0.01269 0.29428 0.40965
 C98 C 0.02211 0.30426 0.37364
 C99 C 0.03203 0.27121 0.34687
 C100 C 0.00448 0.23113 0.35769
 C101 C -0.04800 0.27689 0.38131
 C102 C -0.03892 0.24327 0.35192
 C103 C 0.00263 0.25635 0.43983
 C104 C 0.01167 0.22306 0.41310
 H105 H 0.04012 0.33389 0.37314
 H106 H 0.01125 0.20420 0.33558
 H107 H -0.08011 0.28417 0.38685
 H108 H 0.00516 0.25564 0.47885
 C109 C 0.01262 0.78740 0.10794
 C110 C -0.02651 0.78633 0.13806
 C111 C -0.03216 0.75119 0.16669
 C112 C 0.00189 0.71926 0.16187
 C113 C 0.04865 0.77947 0.14461
 C114 C 0.04278 0.74467 0.17343
 C115 C 0.00836 0.74727 0.07922
 C116 C 0.00293 0.71141 0.10701
 H117 H -0.04839 0.81122 0.13592
 H118 H -0.00240 0.69054 0.18527
 H119 H 0.07723 0.79915 0.14658
 H120 H 0.01427 0.74649 0.04123
 C121 C 0.52087 0.28812 0.60065
 C122 C 0.47990 0.28907 0.62659
 C123 C 0.47041 0.25499 0.65584
 C124 C 0.50483 0.22266 0.65780
 C125 C 0.55398 0.28144 0.64089
 C126 C 0.54528 0.24871 0.67214
 C127 C 0.51813 0.24674 0.57459
 C128 C 0.50976 0.21215 0.60381
 H129 H 0.46013 0.31561 0.62200
 H130 H 0.49805 0.19507 0.68223
 H131 H 0.58206 0.30160 0.64494
 H132 H 0.52537 0.24466 0.53706
 C133 C 0.49161 0.78710 0.91697
 C134 C 0.52280 0.79982 0.87779
 C135 C 0.53083 0.76870 0.84752
 C136 C 0.50443 0.72798 0.85803
 C137 C 0.45219 0.77079 0.88936
 C138 C 0.45850 0.74063 0.85788
 C139 C 0.50796 0.74969 0.94101
 C140 C 0.51555 0.71656 0.90902
 H141 H 0.54088 0.82940 0.87825
 H142 H 0.50777 0.70430 0.83074
 H143 H 0.42115 0.78095 0.89580
 H144 H 0.51273 0.74697 0.97962
 C145 C -0.20938 0.63622 0.94614
 C146 C -0.17352 0.61360 0.97144
 C147 C -0.18568 0.58364 1.00484
 C148 C -0.23370 0.57930 1.01064
 C149 C -0.23882 0.60104 0.92616
 C150 C -0.25301 0.57189 0.95960
 C151 C -0.23383 0.65330 0.98716
 C152 C -0.24664 0.62409 1.02113
 H153 H -0.14117 0.61964 0.96218
 H154 H -0.24345 0.55470 1.03773
 H155 H -0.25114 0.60227 0.88924
 H156 H -0.23935 0.68599 0.99059
 C157 C -0.28964 0.35545 0.45836
 C158 C -0.32437 0.38464 0.46811
 C159 C -0.31236 0.41506 0.49954
 C160 C -0.26730 0.41226 0.52031
 C161 C -0.25282 0.38498 0.44262
 C162 C -0.24139 0.41481 0.47487
 C163 C -0.27684 0.33856 0.50561
 C164 C -0.26336 0.36918 0.53947
 H165 H -0.35477 0.38317 0.44956
 H166 H -0.25776 0.43714 0.54595
 H167 H -0.23396 0.37906 0.41224
 H168 H -0.28429 0.30667 0.51800
 C169 C 0.21293 -0.13794 -0.04276
 C170 C 0.18065 -0.10655 -0.03222
 C171 C 0.19486 -0.07720 -0.00038
 C172 C 0.24028 -0.08275 0.01928
 C173 C 0.25140 -0.11089 -0.05890
 C174 C 0.26545 -0.08174 -0.02678
 C175 C 0.22463 -0.15554 0.00445
 C176 C 0.24220 -0.12631 0.03815
 H177 H 0.14913 -0.10786 -0.04776
 H178 H 0.25146 -0.05829 0.04464
 H179 H 0.26947 -0.11847 -0.08933
 H180 H 0.21270 -0.18608 0.01711
 C181 C 0.28978 1.13773 0.44736
 C182 C 0.32541 1.11293 0.46977
 C183 C 0.31357 1.08434 0.50457
 C184 C 0.26664 1.08325 0.51452
 C185 C 0.25631 1.10454 0.43036
 C186 C 0.24364 1.07633 0.46543
 C187 C 0.26983 1.15711 0.49035
 C188 C 0.25762 1.12889 0.52558
 H189 H 0.35738 1.11742 0.45858
 H190 H 0.25719 1.05927 0.54248
 H191 H 0.23795 1.10888 0.39699
 H192 H 0.26458 1.18999 0.49272
 C193 C 0.18477 0.55227 0.25793
 C194 C 0.16105 0.53551 0.21247
 C195 C 0.13219 0.50331 0.22180
 C196 C 0.12942 0.49177 0.27572
 C197 C 0.15022 0.56409 0.29024
 C198 C 0.12118 0.53314 0.29994
 C199 C 0.20334 0.51303 0.28224
 C200 C 0.17489 0.48028 0.29001
 H201 H 0.16866 0.54527 0.17607
 H202 H 0.10577 0.46653 0.28452
 H203 H 0.14781 0.59590 0.30163
 H204 H 0.23673 0.50899 0.28265
 C205 C -0.19243 1.02058 0.25526
 C206 C -0.16280 1.00408 0.29610
 C207 C -0.13562 0.97608 0.28150
 C208 C -0.14134 0.96593 0.22780
 C209 C -0.16299 1.03724 0.21641
 C210 C -0.13680 1.00919 0.20132
 C211 C -0.21336 0.98341 0.23587
 C212 C -0.18575 0.95206 0.22197
 H213 H -0.15948 1.01626 0.33186
 H214 H -0.11842 0.94362 0.21674
 H215 H -0.16079 1.06990 0.20450
 H216 H -0.24714 0.97999 0.23323
 C217 C 0.30997 0.52475 -0.24745
 C218 C 0.33917 0.50693 -0.20677
 C219 C 0.36792 0.48120 -0.22244
 C220 C 0.36446 0.47466 -0.27694
 C221 C 0.33969 0.54467 -0.28471
 C222 C 0.36768 0.51880 -0.30056
 C223 C 0.29003 0.48554 -0.27117
 C224 C 0.31849 0.45867 -0.28589
 H225 H 0.33900 0.51479 -0.16928
 H226 H 0.38801 0.45380 -0.28993
 H227 H 0.33956 0.57733 -0.29630
 H228 H 0.25708 0.47664 -0.26855
 C229 C 0.67017 0.05042 -0.24304
 C230 C 0.64446 0.03359 -0.28675
 C231 C 0.61795 -0.00015 -0.27589
 C232 C 0.61897 -0.01282 -0.22193
 C233 C 0.63784 0.05999 -0.20693
 C234 C 0.61124 0.02760 -0.19569
 C235 C 0.69208 0.01167 -0.22178
 C236 C 0.66567 -0.02233 -0.21196
 H237 H 0.65077 0.04333 -0.32361
 H238 H 0.59630 -0.03875 -0.21179
 H239 H 0.63852 0.08918 -0.18808
 H240 H 0.72547 0.00906 -0.22461
 C241 C 0.03863 0.23890 0.83718
 C242 C 0.04871 0.27498 0.87137
 C243 C 0.01654 0.28464 0.89929
 C244 C -0.02308 0.25584 0.89087
 C245 C 0.02356 0.20210 0.87018
 C246 C -0.00823 0.21055 0.89873
 C247 C 0.00105 0.25025 0.80970
 C248 C -0.03298 0.26032 0.83859
 H249 H 0.07842 0.29277 0.87131
 H250 H -0.04906 0.26197 0.91449
 H251 H 0.03415 0.17057 0.86792
 H252 H -0.00083 0.25160 0.77072
 C253 C 0.53979 0.27036 0.15190
 C254 C 0.54011 0.22891 0.12660
 C255 C 0.50549 0.21912 0.09845
 C256 C 0.47327 0.25352 0.09674
 C257 C 0.53212 0.30301 0.11150
 C258 C 0.49875 0.29386 0.08137
 C259 C 0.49907 0.26790 0.17922
 C260 C 0.46395 0.25931 0.15079
 H261 H 0.56620 0.20858 0.13146
 H262 H 0.44530 0.24632 0.07299
 H263 H 0.55206 0.33116 0.10654
 H264 H 0.49773 0.27571 0.21669
 C265 C 0.03438 0.76196 0.64586
 C266 C 0.03246 0.72318 0.61490
 C267 C -0.00154 0.71950 0.58395
 C268 C -0.03217 0.75492 0.58850
 C269 C 0.02896 0.79898 0.61010
 C270 C -0.00447 0.79496 0.57880
 C271 C -0.00628 0.75883 0.67273
 C272 C -0.04149 0.75508 0.64342
 H273 H 0.05653 0.70046 0.61778
 H274 H -0.06024 0.75234 0.56382
 H275 H 0.05124 0.82565 0.60827
 H276 H -0.00753 0.76313 0.71103
 C277 C 0.53989 0.74091 0.33525
 C278 C 0.55227 0.77150 0.37541
 C279 C 0.52031 0.78075 0.40395
 C280 C 0.47901 0.75633 0.39100
 C281 C 0.52020 0.70213 0.36115
 C282 C 0.48939 0.70981 0.39103
 C283 C 0.50252 0.76064 0.30818
 C284 C 0.47036 0.76904 0.33689
 H285 H 0.58224 0.78883 0.37643
 H286 H 0.45371 0.76139 0.41585
 H287 H 0.52897 0.67046 0.35523
 H288 H 0.50176 0.76700 0.26972
 B289 B -0.02873 0.02487 1.04552
 B290 B -0.05777 0.00474 0.99864
 B291 B -0.02455 0.04724 0.98987
 B292 B 0.01899 0.04129 1.02586
 B293 B 0.01208 -0.00515 1.05673
 B294 B -0.03574 -0.02752 1.04045
 B295 B 0.01179 -0.02220 0.96161
 B296 B 0.04103 -0.00197 1.00799
 B297 B 0.00757 -0.04380 1.01712
 B298 B -0.03563 -0.03814 0.98098
 B299 B -0.02871 0.00856 0.94981
 B300 B 0.01915 0.03058 0.96604
 B301 B 0.46930 0.52432 0.53648
 B302 B 0.43951 0.50412 0.49044
 B303 B 0.47282 0.54617 0.48057
 B304 B 0.51668 0.54022 0.51570
 B305 B 0.50990 0.49393 0.54705
 B306 B 0.46181 0.47173 0.53208
 B307 B 0.50813 0.47627 0.45208
 B308 B 0.53806 0.49683 0.49765
 B309 B 0.50472 0.45505 0.50783
 B310 B 0.46091 0.46072 0.47259
 B311 B 0.46772 0.50719 0.44088
 B312 B 0.51590 0.52911 0.45592
 B313 B 0.53676 0.96379 0.55180
 B314 B 0.55913 0.97963 0.49960
 B315 B 0.51746 0.94540 0.49788
 B316 B 0.48421 0.95782 0.54040
 B317 B 0.50547 1.00134 0.56770
 B318 B 0.55266 1.01458 0.54254
 B319 B 0.49098 1.02289 0.47277
 B320 B 0.46803 1.00596 0.52425
 B321 B 0.50982 1.04079 0.52606
 B322 B 0.54330 1.02833 0.48363
 B323 B 0.52168 0.98525 0.45619
 B324 B 0.47502 0.97172 0.48082
 B325 B 0.04162 0.46665 1.05161
 B326 B 0.06254 0.48209 0.99841
 B327 B 0.02105 0.44751 0.99834
 B328 B -0.01127 0.46000 1.04185
 B329 B 0.01006 0.50394 1.06800
 B330 B 0.05658 0.51744 1.04124
 B331 B -0.00654 0.52456 0.97333
 B332 B -0.02847 0.50783 1.02553
 B333 B 0.01310 0.54300 1.02579
 B334 B 0.04592 0.53053 0.98257
 B335 B 0.02403 0.48706 0.95616
 B336 B -0.02195 0.47337 0.98233
 B337 B -0.00242 0.52914 0.44624
 B338 B 0.02278 0.52491 0.50100
 B339 B -0.01616 0.55901 0.49146
 B340 B -0.05364 0.53635 0.45426
 B341 B -0.03733 0.48837 0.44172
 B342 B 0.01005 0.48170 0.47013
 B343 B -0.04723 0.48940 0.53904
 B344 B -0.07183 0.49235 0.48457
 B345 B -0.03282 0.45930 0.49356
 B346 B 0.00396 0.48183 0.53102
 B347 B -0.01228 0.53020 0.54375
 B348 B -0.05976 0.53634 0.51472
 B349 B 0.51323 0.02143 -0.02283
 B350 B 0.53118 0.01292 0.03429
 B351 B 0.49328 0.04728 0.02294
 B352 B 0.46100 0.02895 -0.02238
 B353 B 0.47918 -0.01770 -0.03763
 B354 B 0.52269 -0.02773 -0.00236
 B355 B 0.45669 -0.02544 0.05660
 B356 B 0.43901 -0.01693 -0.00051
 B357 B 0.47678 -0.05120 0.01088
 B358 B 0.50901 -0.03290 0.05618
 B359 B 0.49084 0.01365 0.07142
 B360 B 0.44725 0.02379 0.03614
 B361 B 0.49779 0.47653 -0.07335
 B362 B 0.47684 0.48619 -0.02017
 B363 B 0.50974 0.44652 -0.02440
 B364 B 0.54784 0.46234 -0.06267
 B365 B 0.53778 0.51176 -0.08210
 B366 B 0.49346 0.52619 -0.05630
 B367 B 0.55273 0.51324 0.01562
 B368 B 0.57411 0.50402 -0.03773
 B369 B 0.54040 0.54306 -0.03416
 B370 B 0.50290 0.52706 0.00432
 B371 B 0.51308 0.47707 0.02410
 B372 B 0.55751 0.46331 -0.00163
 B373 B -0.00699 0.98475 0.43229
 B374 B -0.02853 0.98898 0.48644
 B375 B 0.00630 0.95182 0.47828
 B376 B 0.04371 0.97270 0.44121
 B377 B 0.03099 1.02283 0.42694
 B378 B -0.01404 1.03232 0.45453
 B379 B 0.04616 1.01621 0.52467
 B380 B 0.06747 1.01363 0.47065
 B381 B 0.03187 1.04958 0.47832
 B382 B -0.00443 1.02856 0.51559
 B383 B 0.00826 0.97823 0.52988
 B384 B 0.05327 0.96909 0.50197
 B385 B 0.77769 0.21936 0.20941
 B386 B 0.75759 0.18998 0.25575
 B387 B 0.79977 0.22324 0.26528
 B388 B 0.79388 0.26697 0.22974
 B389 B 0.74744 0.26015 0.19841
 B390 B 0.72521 0.21214 0.21390
 B391 B 0.73028 0.25904 0.29349
 B392 B 0.75065 0.28872 0.24771
 B393 B 0.70884 0.25531 0.23800
 B394 B 0.71451 0.21171 0.27338
 B395 B 0.76096 0.21862 0.30492
 B396 B 0.78295 0.26669 0.28952
 B397 B 0.71312 0.78779 0.69922
 B398 B 0.72859 0.81044 0.75156
 B399 B 0.69485 0.76834 0.75308
 B400 B 0.70762 0.73505 0.71068
 B401 B 0.75090 0.75664 0.68361
 B402 B 0.76362 0.80414 0.70878
 B403 B 0.77248 0.74262 0.77859
 B404 B 0.75583 0.71927 0.72715
 B405 B 0.79015 0.76150 0.72533
 B406 B 0.77741 0.79506 0.76769
 B407 B 0.73459 0.77305 0.79495
 B408 B 0.72153 0.72615 0.77035
 B409 B 0.27364 0.26235 0.78139
 B410 B 0.26551 0.28020 0.72421
 B411 B 0.30022 0.24276 0.73587
 B412 B 0.28179 0.21005 0.78081
 B413 B 0.23477 0.22769 0.79548
 B414 B 0.22465 0.27129 0.76027
 B415 B 0.22825 0.20569 0.70093
 B416 B 0.23630 0.18761 0.75793
 B417 B 0.20182 0.22520 0.74649
 B418 B 0.22022 0.25780 0.70168
 B419 B 0.26708 0.24010 0.68702
 B420 B 0.27732 0.19647 0.72209
 B421 B 0.23359 0.74667 0.31460
 B422 B 0.24683 0.72409 0.26375
 B423 B 0.20491 0.75453 0.26335
 B424 B 0.21642 0.79495 0.30037
 B425 B 0.26600 0.78883 0.32294
 B426 B 0.28441 0.74477 0.30050
 B427 B 0.26997 0.80044 0.22502
 B428 B 0.25713 0.82295 0.27652
 B429 B 0.29865 0.79204 0.27638
 B430 B 0.28682 0.75194 0.23959
 B431 B 0.23718 0.75800 0.21695
 B432 B 0.21899 0.80240 0.23926
 B433 B 0.27224 0.71951 0.71167
 B434 B 0.25236 0.69050 0.75859
 B435 B 0.29396 0.72466 0.76756
 B436 B 0.28751 0.76772 0.73107
 B437 B 0.24146 0.75958 0.69978
 B438 B 0.21997 0.71146 0.71622
 B439 B 0.22363 0.76006 0.79453
 B440 B 0.24369 0.78907 0.74803
 B441 B 0.20258 0.75472 0.73888
 B442 B 0.20878 0.71194 0.77554
 B443 B 0.25500 0.72010 0.80717
 B444 B 0.27626 0.76828 0.79065
 B445 B 0.21645 0.28989 0.20068
 B446 B 0.23184 0.31091 0.25392
 B447 B 0.19733 0.26935 0.25376
 B448 B 0.21003 0.23697 0.21023
 B449 B 0.25387 0.25860 0.18428
 B450 B 0.26715 0.30517 0.21122
 B451 B 0.27441 0.24196 0.27894
 B452 B 0.25793 0.22004 0.22657
 B453 B 0.29285 0.26182 0.22666
 B454 B 0.28015 0.29446 0.26992
 B455 B 0.23676 0.27236 0.29612
 B456 B 0.22332 0.22627 0.26974
 B457 B 0.77223 0.75217 0.28822
 B458 B 0.76669 0.77358 0.23141
 B459 B 0.80079 0.73482 0.24386
 B460 B 0.77905 0.70011 0.28454
 B461 B 0.73174 0.71762 0.29699
 B462 B 0.72441 0.76298 0.26489
 B463 B 0.72998 0.70090 0.20097
 B464 B 0.73446 0.68001 0.25721
 B465 B 0.70135 0.71855 0.24596
 B466 B 0.72277 0.75272 0.20477
 B467 B 0.77071 0.73541 0.19205
 B468 B 0.77728 0.68976 0.22497
 B469 B 0.73167 0.24333 0.82266
 B470 B 0.73489 0.22204 0.76812
 B471 B 0.69809 0.25704 0.77739
 B472 B 0.71981 0.29444 0.81432
 B473 B 0.76986 0.28138 0.82750
 B474 B 0.77870 0.23627 0.79942
 B475 B 0.76182 0.29664 0.72995
 B476 B 0.76045 0.31816 0.78402
 B477 B 0.79576 0.28223 0.77567
 B478 B 0.77407 0.24601 0.73855
 B479 B 0.72365 0.25902 0.72528
 B480 B 0.71529 0.30412 0.75364
 C481 C 0.40102 1.06238 0.38974
 C482 C 0.41569 1.05156 0.34504
 C483 C 0.45932 1.04993 0.34105
 C484 C 0.48546 1.04794 0.38247
 C485 C 0.46861 1.04841 0.42851
 C486 C 0.42764 1.06171 0.43096
 H487 H 0.36823 1.06780 0.39352
 H488 H 0.47340 1.04736 0.30668
 H489 H 0.51805 1.04171 0.37831
 H490 H 0.41514 1.06885 0.46476
 C491 C -0.03666 0.55325 0.84202
 C492 C -0.08047 0.55322 0.84506
 C493 C -0.09664 0.56211 0.88962
 C494 C -0.07086 0.56139 0.93136
 C495 C -0.02923 0.54993 0.92947
 C496 C -0.01129 0.55139 0.88394
 H497 H -0.02158 0.55193 0.80813
 H498 H -0.12983 0.56599 0.89275
 H499 H -0.08443 0.56728 0.96488
 H500 H 0.02169 0.54659 0.88044
 C501 C 0.09253 -0.06354 0.87896
 C502 C 0.07797 -0.04653 0.83423
 C503 C 0.03611 -0.03492 0.82978
 C504 C 0.01225 -0.03410 0.87017
 C505 C 0.02999 -0.04327 0.91630
 C506 C 0.06807 -0.06315 0.91955
 H507 H 0.12431 -0.07324 0.88337
 H508 H 0.02219 -0.02230 0.79669
 H509 H -0.01855 -0.02174 0.86514
 H510 H 0.08110 -0.07381 0.95417
 C511 C 0.53414 0.46174 0.32052
 C512 C 0.57350 0.44409 0.32571
 C513 C 0.58514 0.42554 0.37078
 C514 C 0.56075 0.42975 0.41088
 C515 C 0.52565 0.45444 0.40677
 C516 C 0.51029 0.46620 0.36030
 H517 H 0.52326 0.47687 0.28725
 H518 H 0.61526 0.41203 0.37628
 H519 H 0.57241 0.41833 0.44583
 H520 H 0.48200 0.48315 0.35450
 C521 C 0.56656 0.51955 0.15280
 C522 C 0.60701 0.50438 0.16050
 C523 C 0.63421 0.50848 0.12212
 C524 C 0.61901 0.52069 0.07580
 C525 C 0.57610 0.52625 0.06619
 C526 C 0.55134 0.53033 0.10640
 H527 H 0.54551 0.52087 0.18218
 H528 H 0.66654 0.50030 0.12696
 H529 H 0.64078 0.52413 0.04785
 H530 H 0.51862 0.53732 0.10188
 C531 C 0.13173 1.00269 0.62773
 C532 C 0.10865 1.00909 0.66841
 C533 C 0.06975 1.02804 0.66126
 C534 C 0.05256 1.03621 0.61492
 C535 C 0.07299 1.02440 0.57418
 C536 C 0.11363 1.00896 0.58142
 H537 H 0.16158 0.98812 0.63119
 H538 H 0.05175 1.03558 0.69170
 H539 H 0.02151 1.04827 0.61142
 H540 H 0.13029 0.99775 0.55181
 C541 C -0.12900 0.50089 0.63611
 C542 C -0.10565 0.49268 0.67862
 C543 C -0.06746 0.47264 0.67561
 C544 C -0.05075 0.46601 0.63065
 C545 C -0.07211 0.47879 0.58783
 C546 C -0.11265 0.49407 0.59166
 H547 H -0.15826 0.51638 0.63650
 H548 H -0.04927 0.46412 0.70789
 H549 H -0.01967 0.45420 0.62964
 H550 H -0.13045 0.50562 0.56049
 C551 C 0.36666 -0.01506 0.14197
 C552 C 0.38759 -0.02157 0.18651
 C553 C 0.42455 -0.04417 0.18782
 C554 C 0.44382 -0.05294 0.14502
 C555 C 0.42633 -0.03961 0.10012
 C556 C 0.38550 -0.02414 0.09956
 H557 H 0.33805 0.00163 0.13892
 H558 H 0.44050 -0.05220 0.22178
 H559 H 0.47465 -0.06558 0.14748
 H560 H 0.37020 -0.01250 0.06680
 C561 C 0.35564 0.48131 -0.03920
 C562 C 0.34299 0.45654 0.00120
 C563 C 0.37225 0.45088 0.03989
 C564 C 0.41415 0.46455 0.03522
 C565 C 0.42798 0.48155 -0.00927
 C566 C 0.39761 0.49396 -0.04417
 H567 H 0.33396 0.48685 -0.06951
 H568 H 0.36426 0.43248 0.07195
 H569 H 0.43631 0.45704 0.06442
 H570 H 0.40650 0.51041 -0.07730
 C571 C -0.14910 0.97989 0.46387
 C572 C -0.16184 0.95404 0.50330
 C573 C -0.13303 0.94784 0.54235
 C574 C -0.09135 0.96259 0.53904
 C575 C -0.07730 0.98146 0.49560
 C576 C -0.10735 0.99342 0.46006
 H577 H -0.17049 0.98573 0.43335
 H578 H -0.14112 0.92850 0.57366
 H579 H -0.06942 0.95499 0.56844
 H580 H -0.09840 1.01085 0.42758
 C581 C -0.17635 -0.00115 1.02672
 C582 C -0.19286 0.02422 0.98853
 C583 C -0.16846 0.03177 0.94775
 C584 C -0.12645 0.02220 0.94953
 C585 C -0.10770 0.00529 0.99200
 C586 C -0.13413 -0.01076 1.02827
 H587 H -0.19433 -0.00849 1.05845
 H588 H -0.17979 0.04863 0.91589
 H589 H -0.10849 0.03013 0.91824
 H590 H -0.12151 -0.02697 1.06019
 C591 C 0.32303 0.50715 0.52233
 C592 C 0.30745 0.53238 0.48351
 C593 C 0.33039 0.53636 0.44139
 C594 C 0.37125 0.52331 0.44207
 C595 C 0.38998 0.50668 0.48480
 C596 C 0.36411 0.49437 0.52297
 H597 H 0.30544 0.50210 0.55476
 H598 H 0.31876 0.55224 0.40898
 H599 H 0.38862 0.52859 0.40976
 H600 H 0.37662 0.47874 0.55534
 C601 C 0.13115 0.56923 0.55427
 C602 C 0.15882 0.55534 0.52103
 C603 C 0.14292 0.53091 0.48298
 C604 C 0.10035 0.52107 0.47761
 C605 C 0.07188 0.53617 0.50939
 C606 C 0.08807 0.55877 0.54922
 H607 H 0.14285 0.58808 0.58397
 H608 H 0.16336 0.52029 0.45627
 H609 H 0.08990 0.50224 0.44744
 H610 H 0.06734 0.56965 0.57544
 C611 C 0.63430 0.08302 0.03196
 C612 C 0.66539 0.05492 0.04557
 C613 C 0.65223 0.01448 0.06331
 C614 C 0.60936 0.00225 0.06495
 C615 C 0.57863 0.02965 0.04750
 C616 C 0.59227 0.07033 0.03169
 H617 H 0.64171 0.11367 0.01582
 H618 H 0.67494 -0.00809 0.07518
 H619 H 0.60052 -0.02958 0.07662
 H620 H 0.57129 0.09177 0.01387
 C621 C 0.67321 0.97546 0.45243
 C622 C 0.68333 0.93397 0.46575
 C623 C 0.65230 0.90722 0.48620
 C624 C 0.61361 0.92177 0.49582
 C625 C 0.60373 0.96368 0.48510
 C626 C 0.63379 0.99015 0.46201
 H627 H 0.69608 0.99691 0.43581
 H628 H 0.65821 0.87547 0.49822
 H629 H 0.59266 0.90045 0.51545
 H630 H 0.62734 1.02242 0.45241
 C631 C 0.17730 0.47783 0.95155
 C632 C 0.18745 0.43626 0.96480
 C633 C 0.15598 0.40956 0.98462
 C634 C 0.11702 0.42404 0.99353
 C635 C 0.10714 0.46601 0.98298
 C636 C 0.13762 0.49254 0.96060
 H637 H 0.20029 0.49940 0.93537
 H638 H 0.16163 0.37781 0.99684
 H639 H 0.09595 0.40268 1.01293
 H640 H 0.13131 0.52489 0.95131
 C641 C 0.00156 0.34491 0.47949
 C642 C -0.02288 0.33253 0.43846
 C643 C -0.05483 0.35877 0.42177
 C644 C -0.06201 0.39559 0.44450
 C645 C -0.03627 0.40954 0.48375
 C646 C -0.00516 0.38274 0.50194
 H647 H 0.02737 0.32652 0.49278
 H648 H -0.07315 0.35264 0.38900
 H649 H -0.08522 0.41522 0.42732
 H650 H 0.01623 0.39252 0.53105
 C651 C 0.50349 -0.16802 -0.00680
 C652 C 0.48322 -0.17576 -0.05208
 C653 C 0.45740 -0.14507 -0.07246
 C654 C 0.45176 -0.10837 -0.04926
 C655 C 0.47290 -0.09937 -0.00498
 C656 C 0.49828 -0.13026 0.01649
 H657 H 0.52517 -0.18974 0.00959
 H658 H 0.44280 -0.14832 -0.10810
 H659 H 0.43310 -0.08556 -0.06880
 H660 H 0.51621 -0.12415 0.04962
 C661 C 0.01148 -0.16527 1.03014
 C662 C 0.01872 -0.17092 1.08043
 C663 C 0.02829 -0.13554 1.10774
 C664 C 0.02889 -0.09575 1.08648
 C665 C 0.01970 -0.08939 1.03673
 C666 C 0.01212 -0.12480 1.00852
 H667 H 0.00297 -0.19140 1.00764
 H668 H 0.03305 -0.13850 1.14658
 H669 H 0.03327 -0.07008 1.11068
 H670 H 0.00380 -0.12120 0.97043
 C671 C 0.53921 0.36511 0.59592
 C672 C 0.52758 0.32874 0.57093
 C673 C 0.51295 0.33335 0.52244
 C674 C 0.50893 0.37344 0.50049
 C675 C 0.51883 0.40966 0.52677
 C676 C 0.53473 0.40451 0.57452
 H677 H 0.54823 0.36347 0.63394
 H678 H 0.50182 0.30636 0.50243
 H679 H 0.49547 0.37600 0.46414
 H680 H 0.54061 0.43064 0.59770
 C681 C 0.52200 1.13515 0.61307
 C682 C 0.50780 1.16901 0.58455
 C683 C 0.49382 1.16167 0.53652
 C684 C 0.49464 1.12164 0.51742
 C685 C 0.50909 1.08767 0.54590
 C686 C 0.52287 1.09530 0.59408
 H687 H 0.53358 1.13956 0.64979
 H688 H 0.48214 1.18696 0.51350
 H689 H 0.48408 1.11762 0.48039
 H690 H 0.53462 1.07038 0.61762
 C691 C 0.02378 0.63687 1.11262
 C692 C 0.00445 0.66924 1.08622
 C693 C -0.01100 0.66162 1.03887
 C694 C -0.00731 0.62244 1.01861
 C695 C 0.01160 0.58974 1.04531
 C696 C 0.02751 0.59795 1.09250
 H697 H 0.03691 0.64173 1.14863
 H698 H -0.02624 0.68592 1.01747
 H699 H -0.01964 0.61799 0.98234
 H700 H 0.04268 0.57406 1.11464
 C701 C 0.53293 0.66374 -0.02537
 C702 C 0.53072 0.67697 -0.07484
 C703 C 0.54238 0.64830 -0.10835
 C704 C 0.54902 0.60698 -0.09460
 C705 C 0.54793 0.59254 -0.04594
 C706 C 0.54171 0.62219 -0.01121
 H707 H 0.52538 0.68405 0.00285
 H708 H 0.54517 0.65630 -0.14617
 H709 H 0.55172 0.58595 -0.12376
 H710 H 0.53996 0.61251 0.02652
 C711 C 0.00792 1.16721 0.47961
 C712 C 0.02429 1.18239 0.43557
 C713 C 0.05102 1.15732 0.41188
 C714 C 0.05816 1.11660 0.42935
 C715 C 0.03839 1.09964 0.47084
 C716 C 0.01505 1.12641 0.49715
 H717 H -0.01278 1.18574 0.49898
 H718 H 0.06521 1.16857 0.37876
 H719 H 0.07671 1.09739 0.40803
 H720 H -0.00064 1.11487 0.52920
 C721 C 0.81536 0.65387 0.86185
 C722 C 0.80413 0.66813 0.90658
 C723 C 0.80062 0.71163 0.91053
 C724 C 0.79745 0.73760 0.86908
 C725 C 0.79831 0.72071 0.82301
 C726 C 0.81301 0.68020 0.82053
 H727 H 0.82178 0.62124 0.85806
 H728 H 0.79741 0.72572 0.94478
 H729 H 0.79008 0.76994 0.87328
 H730 H 0.82012 0.66767 0.78669
 C731 C 0.30331 0.21173 0.41003
 C732 C 0.30339 0.16789 0.40661
 C733 C 0.31259 0.15190 0.36201
 C734 C 0.31187 0.17786 0.32044
 C735 C 0.29999 0.21939 0.32263
 C736 C 0.30134 0.23725 0.36827
 H737 H 0.30183 0.22660 0.44409
 H738 H 0.31660 0.11869 0.35866
 H739 H 0.31787 0.16445 0.28679
 H740 H 0.29629 0.27022 0.37198
 C741 C 0.68232 0.33678 0.37535
 C742 C 0.69953 0.32339 0.42043
 C743 C 0.71471 0.28282 0.42514
 C744 C 0.71846 0.25942 0.38485
 C745 C 0.70852 0.27644 0.33860
 C746 C 0.68568 0.31277 0.33483
 H747 H 0.67049 0.36776 0.37045
 H748 H 0.72822 0.27018 0.45849
 H749 H 0.73344 0.22990 0.39024
 H750 H 0.67504 0.32534 0.29998
 C751 C 0.21208 0.78817 0.92533
 C752 C 0.19964 0.82983 0.91981
 C753 C 0.18197 0.84296 0.87484
 C754 C 0.18206 0.81718 0.83511
 C755 C 0.20231 0.77918 0.83934
 C756 C 0.21243 0.76297 0.88589
 H757 H 0.22590 0.77564 0.95859
 H758 H 0.17189 0.87459 0.86937
 H759 H 0.17094 0.82923 0.80021
 H760 H 0.22540 0.73249 0.89181
 C761 C 0.27160 0.81664 0.08842
 C762 C 0.26183 0.85927 0.08236
 C763 C 0.27286 0.88529 0.12129
 C764 C 0.28488 0.86740 0.16671
 C765 C 0.28365 0.82360 0.17469
 C766 C 0.28257 0.79926 0.13356
 H767 H 0.26937 0.79560 0.05871
 H768 H 0.27031 0.91888 0.11808
 H769 H 0.29406 0.88777 0.19549
 H770 H 0.28570 0.76565 0.13660
 C771 C 0.77203 0.31853 0.59328
 C772 C 0.75239 0.35705 0.58587
 C773 C 0.74605 0.38069 0.62617
 C774 C 0.75306 0.36330 0.67262
 C775 C 0.76922 0.32297 0.68018
 C776 C 0.78104 0.30215 0.63969
 H777 H 0.77952 0.30023 0.56301
 H778 H 0.73102 0.41032 0.62235
 H779 H 0.74202 0.38020 0.70220
 H780 H 0.79372 0.27135 0.64351
 C781 C 0.21330 0.17807 0.56859
 C782 C 0.23644 0.14155 0.56910
 C783 C 0.24222 0.11904 0.61272
 C784 C 0.23129 0.13591 0.65564
 C785 C 0.21493 0.17632 0.65633
 C786 C 0.20246 0.19520 0.61183
 H787 H 0.20591 0.19499 0.53505
 H788 H 0.25925 0.09057 0.61468
 H789 H 0.24211 0.11966 0.68820
 H790 H 0.18910 0.22574 0.61034
 C791 C 0.74106 0.61443 0.10925
 C792 C 0.73321 0.63649 0.06570
 C793 C 0.71159 0.67398 0.06680
 C794 C 0.70433 0.69219 0.11077
 C795 C 0.71789 0.67295 0.15458
 C796 C 0.73342 0.63221 0.15288
 H797 H 0.75731 0.58550 0.11029
 H798 H 0.70298 0.69099 0.03370
 H799 H 0.69193 0.72314 0.11011
 H800 H 0.74504 0.61577 0.18500
 C801 C 0.21790 0.61524 0.21014
 C802 C 0.21601 0.58963 0.25252
 C803 C 0.23720 0.60441 0.29447
 C804 C 0.25194 0.64620 0.29647
 C805 C 0.24458 0.67418 0.25711
 C806 C 0.23374 0.65680 0.21228
 H807 H 0.20444 0.60496 0.17609
 H808 H 0.23816 0.58501 0.32735
 H809 H 0.26559 0.65718 0.33026
 H810 H 0.23361 0.67621 0.17944
 C811 C 0.72585 0.10120 0.78827
 C812 C 0.69889 0.08906 0.74945
 C813 C 0.69149 0.11846 0.71134
 C814 C 0.70657 0.16006 0.71501
 C815 C 0.72691 0.17342 0.75806
 C816 C 0.73996 0.14282 0.79233
 H817 H 0.73249 0.07943 0.81817
 H818 H 0.67101 0.11083 0.68072
 H819 H 0.69809 0.18243 0.68643
 H820 H 0.75856 0.15127 0.82424
 C821 C 0.78703 0.08018 0.30645
 C822 C 0.77913 0.05556 0.26588
 C823 C 0.75364 0.07173 0.22757
 C824 C 0.74365 0.11380 0.22588
 C825 C 0.75922 0.14035 0.26228
 C826 C 0.77719 0.12212 0.30453
 H827 H 0.80408 0.06903 0.33826
 H828 H 0.74623 0.05351 0.19596
 H829 H 0.72734 0.12620 0.19390
 H830 H 0.78593 0.14051 0.33542
 C831 C 0.28845 0.58215 0.80604
 C832 C 0.27995 0.55754 0.76551
 C833 C 0.25180 0.57250 0.72922
 C834 C 0.23904 0.61373 0.72929
 C835 C 0.25489 0.64076 0.76521
 C836 C 0.27551 0.62307 0.80601
 H837 H 0.30842 0.57212 0.83604
 H838 H 0.24406 0.55432 0.69765
 H839 H 0.22074 0.62550 0.69847
 H840 H 0.28418 0.64138 0.83689
 C841 C 0.33393 0.38394 0.72721
 C842 C 0.30718 0.41369 0.70695
 C843 C 0.26838 0.39975 0.68590
 C844 C 0.25604 0.35682 0.68742
 C845 C 0.28212 0.32735 0.71051
 C846 C 0.32156 0.34188 0.72935
 H847 H 0.36328 0.39312 0.74544
 H848 H 0.24704 0.42212 0.66998
 H849 H 0.22523 0.34713 0.67314
 H850 H 0.34196 0.32161 0.75018
 C851 C 0.82481 0.88051 0.19352
 C852 C 0.79999 0.90982 0.21455
 C853 C 0.76093 0.89492 0.23158
 C854 C 0.74966 0.85244 0.23336
 C855 C 0.77670 0.82257 0.21802
 C856 C 0.81250 0.83756 0.19389
 H857 H 0.85369 0.89037 0.17660
 H858 H 0.73980 0.91498 0.24789
 H859 H 0.72031 0.84338 0.24967
 H860 H 0.83192 0.81606 0.17703
 C861 C 0.72244 0.92455 0.79984
 C862 C 0.68077 0.93411 0.78674
 C863 C 0.65463 0.90268 0.76590
 C864 C 0.66988 0.86428 0.75566
 C865 C 0.71194 0.85498 0.76626
 C866 C 0.73783 0.88541 0.78973
 H867 H 0.74352 0.94763 0.81679
 H868 H 0.62273 0.90806 0.75415
 H869 H 0.64891 0.84307 0.73581
 H870 H 0.77017 0.87944 0.79930
 C871 C 0.16107 0.40537 0.26803
 C872 C 0.18800 0.43587 0.28965
 C873 C 0.22882 0.42445 0.30423
 C874 C 0.24286 0.38474 0.29422
 C875 C 0.21634 0.35547 0.26972
 C876 C 0.17489 0.36627 0.25835
 H877 H 0.12979 0.41188 0.25500
 H878 H 0.25042 0.44655 0.32203
 H879 H 0.27476 0.37751 0.30453
 H880 H 0.15350 0.34578 0.23803
 C881 C 0.08524 0.25177 0.76349
 C882 C 0.07638 0.22992 0.80752
 C883 C 0.10656 0.20334 0.82757
 C884 C 0.14382 0.19857 0.80505
 C885 C 0.15353 0.22087 0.76168
 C886 C 0.12313 0.24697 0.74066
 H887 H 0.06402 0.27430 0.74779
 H888 H 0.10288 0.18783 0.86257
 H889 H 0.16644 0.17959 0.82443
 H890 H 0.12976 0.26590 0.70842
 C891 C 0.58739 0.75276 0.26188
 C892 C 0.57701 0.73070 0.30522
 C893 C 0.60425 0.70035 0.32348
 C894 C 0.64016 0.69214 0.29995
 C895 C 0.65226 0.71551 0.25816
 C896 C 0.62449 0.74517 0.23861
 H897 H 0.56839 0.77761 0.24724
 H898 H 0.59916 0.68401 0.35778
 H899 H 0.66060 0.67021 0.31823
 H900 H 0.63297 0.76485 0.20755
 C901 C 0.61669 0.28794 0.15253
 C902 C 0.58126 0.27766 0.17962
 C903 C 0.58738 0.26464 0.22838
 C904 C 0.62802 0.26069 0.24859
 C905 C 0.66323 0.26918 0.22033
 C906 C 0.65665 0.28353 0.17227
 H907 H 0.61372 0.29573 0.11427
 H908 H 0.56111 0.25464 0.24998
 H909 H 0.63169 0.24831 0.28530
 H910 H 0.68201 0.28824 0.14787
 C911 C 0.11158 0.77324 0.64677
 C912 C 0.07590 0.76615 0.67402
 C913 C 0.08108 0.76039 0.72453
 C914 C 0.12145 0.76024 0.74650
 C915 C 0.15704 0.76595 0.71839
 C916 C 0.15109 0.77335 0.66830
 H917 H 0.10894 0.77685 0.60778
 H918 H 0.05457 0.75400 0.74698
 H919 H 0.12475 0.75324 0.78490
 H920 H 0.17681 0.77633 0.64418
 C921 C 0.88314 0.77366 0.63734
 C922 C 0.91604 0.75522 0.66367
 C923 C 0.90874 0.73939 0.71097
 C924 C 0.86977 0.74250 0.73152
 C925 C 0.83661 0.76063 0.70505
 C926 C 0.84418 0.77644 0.65764
 H927 H 0.88760 0.78687 0.60134
 H928 H 0.93320 0.72442 0.73235
 H929 H 0.86590 0.73046 0.76794
 H930 H 0.81983 0.79094 0.63559
 C931 C 0.41357 0.24521 0.21820
 C932 C 0.42113 0.25871 0.17019
 C933 C 0.38771 0.27347 0.14138
 C934 C 0.34793 0.27500 0.15991
 C935 C 0.33987 0.26116 0.20784
 C936 C 0.37349 0.24650 0.23681
 H937 H 0.43863 0.23335 0.24144
 H938 H 0.39237 0.28482 0.10468
 H939 H 0.32336 0.28705 0.13608
 H940 H 0.36916 0.23600 0.27376
 C941 C 0.40310 0.80323 0.34969
 C942 C 0.43053 0.78715 0.31779
 C943 C 0.41758 0.78548 0.26860
 C944 C 0.37669 0.79479 0.25333
 C945 C 0.34725 0.80408 0.28713
 C946 C 0.36188 0.81024 0.33507
 H947 H 0.41210 0.80777 0.38711
 H948 H 0.43755 0.77405 0.24208
 H949 H 0.36698 0.78981 0.21606
 H950 H 0.34093 0.81559 0.36334
 C951 C 0.90266 0.29823 0.84349
 C952 C 0.92818 0.27294 0.81810
 C953 C 0.91345 0.25993 0.77204
 C954 C 0.87258 0.26745 0.75500
 C955 C 0.84570 0.28902 0.78294
 C956 C 0.86252 0.30691 0.82568
 H957 H 0.91341 0.31145 0.87738
 H958 H 0.93172 0.24050 0.75074
 H959 H 0.86110 0.25342 0.72180
 H960 H 0.84351 0.32497 0.84778
 C961 C 0.55824 0.95641 0.68566
 C962 C 0.59992 0.97227 0.68598
 C963 C 0.62407 0.96469 0.64674
 C964 C 0.60502 0.95097 0.60398
 C965 C 0.56109 0.94408 0.59929
 C966 C 0.53933 0.94068 0.64289
 H967 H 0.53933 0.95990 0.71660
 H968 H 0.65715 0.97384 0.64722
 H969 H 0.62472 0.95405 0.57382
 H970 H 0.50585 0.93369 0.64206
 C971 C 0.06987 0.46185 1.18515
 C972 C 0.11160 0.47758 1.18316
 C973 C 0.13354 0.47036 1.14213
 C974 C 0.11247 0.45629 1.10064
 C975 C 0.06843 0.44883 1.09858
 C976 C 0.04881 0.44617 1.14351
 H977 H 0.05245 0.46501 1.21727
 H978 H 0.16658 0.47926 1.14049
 H979 H 0.13084 0.45912 1.06943
 H980 H 0.01541 0.43917 1.14483
 C981 C -0.11773 0.04530 1.12378
 C982 C -0.10561 0.02206 1.16551
 C983 C -0.06358 0.01357 1.17357
 C984 C -0.03505 0.02464 1.13818
 C985 C -0.04900 0.04111 1.09250
 C986 C -0.08918 0.05635 1.08823
 H987 H -0.15019 0.05116 1.11671
 H988 H -0.05305 -0.00306 1.20614
 H989 H -0.00330 0.01507 1.14474
 H990 H -0.10038 0.07085 1.05457
 C991 C 0.38572 0.55553 0.62088
 C992 C 0.39804 0.53215 0.66253
 C993 C 0.43902 0.51929 0.66715
 C994 C 0.46579 0.52615 0.62931
 C995 C 0.45067 0.54191 0.58392
 C996 C 0.41206 0.56084 0.58177
 H997 H 0.35433 0.56575 0.61667
 H998 H 0.44989 0.50152 0.69859
 H999 H 0.49653 0.51371 0.63437
 H1000 H 0.40003 0.57486 0.54820
 C1001 C 0.44202 0.49229 -0.19741
 C1002 C 0.40426 0.46938 -0.19158
 C1003 C 0.40043 0.44050 -0.15239
 C1004 C 0.43321 0.43741 -0.11729
 C1005 C 0.46942 0.46420 -0.12036
 C1006 C 0.47463 0.48886 -0.16320
 H1007 H 0.44498 0.51618 -0.22580
 H1008 H 0.37121 0.42258 -0.14726
 H1009 H 0.42812 0.41755 -0.08553
 H1010 H 0.50202 0.50948 -0.16842
 C1011 C -0.06464 0.99982 0.30819
 C1012 C -0.09713 0.96909 0.31058
 C1013 C -0.09611 0.93796 0.34746
 C1014 C -0.06448 0.93968 0.38387
 C1015 C -0.03415 0.97316 0.38438
 C1016 C -0.03322 1.00157 0.34420
 H1017 H -0.06563 1.02490 0.28085
 H1018 H -0.12130 0.91423 0.35001
 H1019 H -0.06623 0.91695 0.41340
 H1020 H -0.01049 1.02774 0.34224
 C1021 C 0.08621 0.57066 0.36472
 C1022 C 0.08445 0.53987 0.32956
 C1023 C 0.04757 0.51477 0.32422
 C1024 C 0.01617 0.51618 0.35741
 C1025 C 0.02117 0.54229 0.39747
 C1026 C 0.05450 0.57237 0.39760
 H1027 H 0.11332 0.59163 0.36946
 H1028 H 0.04342 0.49269 0.29571
 H1029 H -0.01019 0.49389 0.35351
 H1030 H 0.05884 0.59418 0.42604
 C1031 C 0.54774 0.04843 -0.15363
 C1032 C 0.58647 0.02948 -0.15260
 C1033 C 0.60481 0.01671 -0.10860
 C1034 C 0.58374 0.01985 -0.06637
 C1035 C 0.54309 0.03557 -0.06654
 C1036 C 0.52598 0.05117 -0.11089
 H1037 H 0.53392 0.05996 -0.18755
 H1038 H 0.63536 0.00337 -0.10703
 H1039 H 0.59835 0.00579 -0.03453
 H1040 H 0.49477 0.06290 -0.11310
 C1041 C 0.69701 0.50900 -0.02410
 C1042 C 0.70664 0.54725 -0.04906
 C1043 C 0.67518 0.56464 -0.07918
 C1044 C 0.63448 0.54752 -0.07956
 C1045 C 0.62299 0.51366 -0.04855
 C1046 C 0.65563 0.49141 -0.02541
 H1047 H 0.72081 0.49386 -0.00182
 H1048 H 0.68077 0.59345 -0.10017
 H1049 H 0.61195 0.56237 -0.10299
 H1050 H 0.64857 0.46333 -0.00357
 C1051 C 0.17063 1.08121 0.48698
 C1052 C 0.19996 1.05930 0.46366
 C1053 C 0.18681 1.02272 0.43957
 C1054 C 0.14453 1.00796 0.44032
 C1055 C 0.11537 1.02973 0.46527
 C1056 C 0.12957 1.06641 0.48860
 H1057 H 0.17917 1.11010 0.50449
 H1058 H 0.20913 1.00556 0.42085
 H1059 H 0.13489 0.97945 0.42223
 H1060 H 0.10946 1.08369 0.51001
 C1061 C 0.15493 -0.01555 0.97314
 C1062 C 0.16813 -0.04311 1.01073
 C1063 C 0.14637 -0.04606 1.05340
 C1064 C 0.10806 -0.02723 1.05531
 C1065 C 0.09060 -0.00658 1.01401
 C1066 C 0.11660 0.00338 0.97517
 H1067 H 0.17168 -0.01271 0.93993
 H1068 H 0.15650 -0.06664 1.08309
 H1069 H 0.09070 -0.03223 1.08766
 H1070 H 0.10508 0.02084 0.94356
 C1071 C 0.64898 0.47415 0.46299
 C1072 C 0.66177 0.45096 0.50452
 C1073 C 0.64247 0.45611 0.54789
 C1074 C 0.60577 0.47788 0.54752
 C1075 C 0.58743 0.49249 0.50338
 C1076 C 0.61218 0.49578 0.46273
 H1077 H 0.66466 0.47151 0.42943
 H1078 H 0.65305 0.43972 0.58070
 H1079 H 0.58995 0.47948 0.58094
 H1080 H 0.60042 0.50968 0.42896
 C1081 C -0.19023 0.47171 0.44668
 C1082 C -0.19975 0.43537 0.47495
 C1083 C -0.16891 0.41731 0.50437
 C1084 C -0.12889 0.43527 0.50627
 C1085 C -0.11839 0.47231 0.47909
 C1086 C -0.14954 0.49034 0.44892
 H1087 H -0.21421 0.48570 0.42353
 H1088 H -0.17575 0.38899 0.52593
 H1089 H -0.10634 0.41992 0.53000
 H1090 H -0.14258 0.51867 0.42747
 C1091 C 0.33833 -0.08988 -0.00154
 C1092 C 0.30902 -0.06563 -0.02625
 C1093 C 0.32135 -0.02625 -0.04663
 C1094 C 0.36321 -0.01099 -0.04102
 C1095 C 0.39262 -0.03495 -0.01459
 C1096 C 0.37917 -0.07468 0.00477
 H1097 H 0.32924 -0.12023 0.01459
 H1098 H 0.29856 -0.00712 -0.06566
 H1099 H 0.37210 0.01991 -0.05571
 H1100 H 0.39948 -0.09376 0.02738
 C1101 C 0.34843 1.01699 0.50630
 C1102 C 0.34405 1.05580 0.52681
 C1103 C 0.37591 1.07179 0.55808
 C1104 C 0.41395 1.05206 0.56358
 C1105 C 0.42124 1.01731 0.53595
 C1106 C 0.38668 0.99759 0.51116
 H1107 H 0.32412 1.00422 0.48198
 H1108 H 0.37283 1.10161 0.57460
 H1109 H 0.43857 1.06643 0.58595
 H1110 H 0.39027 0.96983 0.49087
 C1111 C -0.14918 0.51659 1.00916
 C1112 C -0.15418 0.55607 1.02789
 C1113 C -0.12197 0.57350 1.05786
 C1114 C -0.08344 0.55446 1.06377
 C1115 C -0.07569 0.51888 1.03769
 C1116 C -0.11037 0.49794 1.01429
 H1117 H -0.17354 0.50256 0.98585
 H1118 H -0.12530 0.60380 1.07314
 H1119 H -0.05887 0.56991 1.08525
 H1120 H -0.10657 0.46956 0.99520
 C1121 C -0.04525 0.66811 0.53373
 C1122 C -0.00593 0.68544 0.54842
 C1123 C 0.02986 0.66784 0.53133
 C1124 C 0.02672 0.63044 0.50663
 C1125 C -0.01226 0.60940 0.49788
 C1126 C -0.04837 0.63100 0.50804
 H1127 H -0.07363 0.68132 0.54495
 H1128 H 0.06080 0.68180 0.53914
 H1129 H 0.05538 0.61719 0.49766
 H1130 H -0.07943 0.61732 0.50033
 C1131 C 0.48161 0.16988 0.03102
 C1132 C 0.49998 0.17697 0.07723
 C1133 C 0.51616 0.14297 0.10386
 C1134 C 0.51608 0.10374 0.08479
 C1135 C 0.49802 0.09559 0.03864
 C1136 C 0.48040 0.12931 0.01195
 H1137 H 0.46878 0.19559 0.00962
 H1138 H 0.52925 0.14651 0.14016
 H1139 H 0.53012 0.07954 0.10746
 H1140 H 0.46551 0.12428 -0.02322
 C1141 C -0.04713 0.14188 0.90191
 C1142 C -0.02880 0.17562 0.92721
 C1143 C -0.01878 0.16948 0.97667
 C1144 C -0.02316 0.12918 0.99902
 C1145 C -0.03652 0.09411 0.97191
 C1146 C -0.05025 0.10174 0.92354
 H1147 H -0.05423 0.14557 0.86350
 H1148 H -0.00378 0.19484 0.99679
 H1149 H -0.01196 0.12488 1.03614
 H1150 H -0.05889 0.07636 0.90007
 C1151 C 0.45100 0.64073 0.39274
 C1152 C 0.46875 0.67441 0.41859
 C1153 C 0.47770 0.66828 0.46827
 C1154 C 0.47338 0.62789 0.49029
 C1155 C 0.46075 0.59291 0.46272
 C1156 C 0.44753 0.60058 0.41420
 H1157 H 0.44443 0.64454 0.35424
 H1158 H 0.49207 0.69369 0.48883
 H1159 H 0.48406 0.62350 0.52758
 H1160 H 0.43896 0.57521 0.39064
 C1161 C 0.53929 0.85703 0.40925
 C1162 C 0.52139 0.82046 0.43081
 C1163 C 0.50211 0.82349 0.47527
 C1164 C 0.50161 0.86240 0.49790
 C1165 C 0.51960 0.89914 0.47591
 C1166 C 0.53805 0.89542 0.43092
 H1167 H 0.55320 0.85639 0.37438
 H1168 H 0.48743 0.79582 0.49241
 H1169 H 0.48660 0.86386 0.53201
 H1170 H 0.55210 0.92232 0.41176
 C1171 C 0.03851 0.36004 0.90711
 C1172 C 0.01802 0.32403 0.92687
 C1173 C -0.00105 0.32696 0.97148
 C1174 C 0.00106 0.36521 0.99584
 C1175 C 0.02190 0.40132 0.97575
 C1176 C 0.04021 0.39766 0.93069
 H1177 H 0.05251 0.35965 0.87227
 H1178 H -0.01738 0.29974 0.98754
 H1179 H -0.01422 0.36671 1.02978
 H1180 H 0.05604 0.42417 0.91266
 C1181 C 0.52776 0.33076 0.00938
 C1182 C 0.49265 0.32020 0.03694
 C1183 C 0.45724 0.34391 0.02988
 C1184 C 0.45974 0.38157 0.00221
 C1185 C 0.49815 0.39700 -0.01628
 C1186 C 0.53062 0.36887 -0.01676
 H1187 H 0.55521 0.31219 0.01323
 H1188 H 0.42922 0.33574 0.04941
 H1189 H 0.43226 0.39927 -0.00175
 H1190 H 0.56023 0.37810 -0.03250
 C1191 C 0.02815 0.83720 0.51190
 C1192 C -0.00808 0.82466 0.53675
 C1193 C -0.04431 0.84665 0.52733
 C1194 C -0.04215 0.88454 0.50016
 C1195 C -0.00352 0.90176 0.48382
 C1196 C 0.03038 0.87527 0.48556
 H1197 H 0.05623 0.81969 0.51707
 H1198 H -0.07315 0.83676 0.54442
 H1199 H -0.07036 0.90105 0.49484
 H1200 H 0.06032 0.88594 0.47155
 C1201 C 0.21060 0.31547 0.06722
 C1202 C 0.22730 0.35692 0.06852
 C1203 C 0.22056 0.38000 0.10894
 C1204 C 0.20615 0.36002 0.15082
 C1205 C 0.19805 0.31605 0.15371
 C1206 C 0.19456 0.29556 0.10923
 H1207 H 0.21348 0.29736 0.03544
 H1208 H 0.23035 0.41294 0.10988
 H1209 H 0.20953 0.37882 0.18184
 H1210 H 0.18690 0.26217 0.10865
 C1211 C 0.70771 0.81037 0.56532
 C1212 C 0.72306 0.85228 0.56582
 C1213 C 0.71470 0.87595 0.60527
 C1214 C 0.70023 0.85638 0.64737
 C1215 C 0.69383 0.81227 0.65145
 C1216 C 0.69157 0.79085 0.60751
 H1217 H 0.71176 0.79179 0.53418
 H1218 H 0.72341 0.90917 0.60540
 H1219 H 0.70216 0.87593 0.67776
 H1220 H 0.68500 0.75726 0.60776
 C1221 C 0.29432 0.63218 0.62970
 C1222 C 0.27313 0.64623 0.58724
 C1223 C 0.26510 0.68860 0.58124
 C1224 C 0.27485 0.71561 0.61867
 C1225 C 0.28926 0.69982 0.66447
 C1226 C 0.30382 0.65926 0.66745
 H1227 H 0.30011 0.59939 0.63518
 H1228 H 0.24977 0.70063 0.54858
 H1229 H 0.26600 0.74773 0.61307
 H1230 H 0.31727 0.64686 0.70109
 C1231 C 0.77164 0.18645 0.07976
 C1232 C 0.78155 0.14459 0.08665
 C1233 C 0.80369 0.13217 0.12906
 C1234 C 0.81155 0.15986 0.16644
 C1235 C 0.79497 0.19959 0.16266
 C1236 C 0.77984 0.21421 0.11673
 H1237 H 0.75542 0.19726 0.04705
 H1238 H 0.81078 0.09993 0.13530
 H1239 H 0.82505 0.14813 0.20042
 H1240 H 0.76911 0.24564 0.11078
 C1241 C 0.75191 0.18393 0.94466
 C1242 C 0.72283 0.14999 0.94212
 C1243 C 0.69078 0.15029 0.90615
 C1244 C 0.68983 0.18309 0.87098
 C1245 C 0.72168 0.21520 0.87055
 C1246 C 0.75100 0.21644 0.90994
 H1247 H 0.77756 0.18369 0.97131
 H1248 H 0.66813 0.12403 0.90359
 H1249 H 0.66649 0.18105 0.84200
 H1250 H 0.77597 0.24046 0.91208
 C1251 C 0.19269 0.65340 0.39614
 C1252 C 0.22062 0.65739 0.43612
 C1253 C 0.24468 0.69459 0.44155
 C1254 C 0.24388 0.72595 0.40548
 C1255 C 0.21994 0.72015 0.36215
 C1256 C 0.19151 0.68514 0.35974
 H1257 H 0.17469 0.62430 0.39121
 H1258 H 0.26744 0.69772 0.47122
 H1259 H 0.26567 0.75261 0.40995
 H1260 H 0.17241 0.67959 0.32733
 C1261 C 0.76788 0.79365 0.41714
 C1262 C 0.78138 0.83555 0.40964
 C1263 C 0.80079 0.84783 0.36661
 C1264 C 0.80376 0.81954 0.33012
 C1265 C 0.78646 0.77839 0.33504
 C1266 C 0.77117 0.76514 0.38064
 H1267 H 0.75421 0.78315 0.45084
 H1268 H 0.81187 0.88004 0.36021
 H1269 H 0.81715 0.83143 0.29727
 H1270 H 0.75882 0.73339 0.38728
 C1271 C 0.30204 0.30137 0.91094
 C1272 C 0.28292 0.34012 0.90866
 C1273 C 0.26841 0.35653 0.86444
 C1274 C 0.27041 0.33376 0.82328
 C1275 C 0.28687 0.29328 0.82465
 C1276 C 0.30363 0.27783 0.86920
 H1277 H 0.31458 0.28892 0.94508
 H1278 H 0.25462 0.38690 0.86190
 H1279 H 0.25536 0.34716 0.79127
 H1280 H 0.31577 0.24676 0.87235
 C1281 C 0.82844 0.42087 0.76059
 C1282 C 0.80956 0.45068 0.78655
 C1283 C 0.77514 0.43812 0.81465
 C1284 C 0.75921 0.39604 0.81508
 C1285 C 0.77809 0.36617 0.78810
 C1286 C 0.81328 0.37966 0.76150
 H1287 H 0.85547 0.42920 0.73950
 H1288 H 0.76047 0.46080 0.83561
 H1289 H 0.73217 0.38704 0.83600
 H1290 H 0.82895 0.35885 0.73927
 C1291 C 0.30340 0.92663 0.32958
 C1292 C 0.29293 0.95671 0.29335
 C1293 C 0.26093 0.94544 0.25912
 C1294 C 0.24515 0.90358 0.25686
 C1295 C 0.26285 0.87223 0.28706
 C1296 C 0.28786 0.88538 0.32687
 H1297 H 0.32614 0.93334 0.35839
 H1298 H 0.24977 0.96815 0.23233
 H1299 H 0.22267 0.89524 0.22818
 H1300 H 0.29724 0.86369 0.35530
 C1301 C 0.22858 0.90355 0.77994
 C1302 C 0.20077 0.91552 0.74206
 C1303 C 0.19776 0.89272 0.70010
 C1304 C 0.21708 0.85460 0.69919
 C1305 C 0.23820 0.83840 0.74085
 C1306 C 0.24799 0.86539 0.77894
 H1307 H 0.23148 0.92128 0.81253
 H1308 H 0.17703 0.90204 0.67019
 H1309 H 0.21210 0.83641 0.66737
 H1310 H 0.26578 0.85479 0.81075
 C1311 C 0.70785 0.39322 0.20017
 C1312 C 0.70526 0.41298 0.24382
 C1313 C 0.73040 0.40028 0.28383
 C1314 C 0.75176 0.36331 0.28264
 C1315 C 0.74623 0.33823 0.24220
 C1316 C 0.72919 0.35629 0.19912
 H1317 H 0.68968 0.40355 0.16851
 H1318 H 0.72944 0.41606 0.31761
 H1319 H 0.76711 0.35160 0.31560
 H1320 H 0.72855 0.34005 0.16571
 C1321 C 0.65986 0.58135 0.24757
 C1322 C 0.68046 0.55161 0.27611
 C1323 C 0.71816 0.56258 0.30110
 C1324 C 0.73547 0.60373 0.29659
 C1325 C 0.71511 0.63365 0.26683
 C1326 C 0.67696 0.62160 0.24269
 H1327 H 0.63081 0.57314 0.22796
 H1328 H 0.73441 0.53929 0.32305
 H1329 H 0.76492 0.61179 0.31536
 H1330 H 0.66030 0.64291 0.21860
 C1331 C 0.16325 0.08713 0.75342
 C1332 C 0.18631 0.05725 0.77875
 C1333 C 0.22502 0.06899 0.80129
 C1334 C 0.24089 0.11086 0.79702
 C1335 C 0.21799 0.14089 0.77020
 C1336 C 0.17885 0.12794 0.74882
 H1337 H 0.13326 0.07869 0.73601
 H1338 H 0.24310 0.04581 0.82117
 H1339 H 0.27126 0.11938 0.81335
 H1340 H 0.16040 0.14873 0.72608
 C1341 C 0.26809 0.09928 0.24044
 C1342 C 0.30740 0.09502 0.22118
 C1343 C 0.32439 0.12789 0.19199
 C1344 C 0.30500 0.16628 0.18723
 C1345 C 0.26952 0.17318 0.21372
 C1346 C 0.24911 0.13797 0.23653
 H1347 H 0.25446 0.07435 0.26323
 H1348 H 0.35457 0.12511 0.17640
 H1349 H 0.32004 0.19132 0.16619
 H1350 H 0.22090 0.14123 0.25598
 C1351 C 0.82244 0.62707 0.69390
 C1352 C 0.80711 0.59525 0.72563
 C1353 C 0.76864 0.59963 0.74669
 C1354 C 0.74883 0.63773 0.74161
 C1355 C 0.76775 0.67228 0.71603
 C1356 C 0.80226 0.66496 0.68814
 H1357 H 0.85199 0.62405 0.67694
 H1358 H 0.75636 0.57540 0.77139
 H1359 H 0.72131 0.64124 0.76221
 H1360 H 0.81604 0.68951 0.66524
 C1361 C 0.90990 0.70567 0.20059
 C1362 C 0.93126 0.74477 0.19775
 C1363 C 0.91509 0.77842 0.22117
 C1364 C 0.87587 0.77407 0.24212
 C1365 C 0.85112 0.73679 0.23792
 C1366 C 0.87059 0.70161 0.22067
 H1367 H 0.92198 0.67885 0.18400
 H1368 H 0.93195 0.80866 0.22146
 H1369 H 0.86406 0.80094 0.25813
 H1370 H 0.85467 0.67101 0.21931
 C1371 C 0.39478 0.26845 0.65435
 C1372 C 0.42891 0.25045 0.67885
 C1373 C 0.42239 0.23049 0.72439
 C1374 C 0.38234 0.22926 0.74467
 C1375 C 0.34851 0.24856 0.72002
 C1376 C 0.35618 0.26843 0.67470
 H1377 H 0.39742 0.28250 0.61842
 H1378 H 0.44808 0.21611 0.74425
 H1379 H 0.37770 0.21278 0.77900
 H1380 H 0.33184 0.28339 0.65317
 C1381 C 0.38809 0.70547 0.85719
 C1382 C 0.42213 0.72112 0.83076
 C1383 C 0.41619 0.72846 0.78074
 C1384 C 0.37576 0.72425 0.75869
 C1385 C 0.34063 0.71350 0.78657
 C1386 C 0.34799 0.70257 0.83583
 H1387 H 0.39175 0.70013 0.89591
 H1388 H 0.44192 0.74120 0.75968
 H1389 H 0.37156 0.73338 0.72088
 H1390 H 0.32259 0.69608 0.85984
 C1391 C 0.89373 0.20638 0.35505
 C1392 C 0.92797 0.22081 0.32801
 C1393 C 0.92205 0.22511 0.27753
 C1394 C 0.88149 0.22049 0.25575
 C1395 C 0.84633 0.21118 0.28407
 C1396 C 0.85377 0.20154 0.33360
 H1397 H 0.89715 0.20303 0.39403
 H1398 H 0.94766 0.23696 0.25570
 H1399 H 0.87725 0.22838 0.21763
 H1400 H 0.82836 0.19504 0.35762
 C1401 C 0.10843 0.28998 0.34230
 C1402 C 0.07213 0.27138 0.32082
 C1403 C 0.07552 0.25201 0.27638
 C1404 C 0.11443 0.25223 0.25370
 C1405 C 0.15087 0.27112 0.27550
 C1406 C 0.14682 0.28946 0.32057
 H1407 H 0.10752 0.30414 0.37706
 H1408 H 0.04810 0.23695 0.25913
 H1409 H 0.11610 0.23710 0.21964
 H1410 H 0.17350 0.30393 0.33978
 C1411 C 0.60694 0.78772 0.84247
 C1412 C 0.57044 0.76978 0.82070
 C1413 C 0.57337 0.75129 0.77569
 C1414 C 0.61213 0.75159 0.75282
 C1415 C 0.64871 0.76980 0.77500
 C1416 C 0.64503 0.78758 0.82039
 H1417 H 0.60654 0.80100 0.87775
 H1418 H 0.54578 0.73670 0.75826
 H1419 H 0.61359 0.73708 0.71836
 H1420 H 0.67176 0.80186 0.83969
 C1421 C 0.58422 0.27984 0.74247
 C1422 C 0.57196 0.24382 0.71680
 C1423 C 0.59324 0.20718 0.72707
 C1424 C 0.63039 0.20882 0.75580
 C1425 C 0.64789 0.24740 0.77232
 C1426 C 0.62172 0.28161 0.77003
 H1427 H 0.56739 0.30830 0.73648
 H1428 H 0.58363 0.17848 0.70931
 H1429 H 0.64641 0.18034 0.76176
 H1430 H 0.63250 0.31153 0.78423
 C1431 C 0.08371 0.75550 0.25029
 C1432 C 0.07596 0.73249 0.20848
 C1433 C 0.10738 0.70867 0.19209
 C1434 C 0.14755 0.71221 0.21304
 C1435 C 0.15720 0.73838 0.25210
 C1436 C 0.12390 0.75785 0.27250
 H1437 H 0.05985 0.77487 0.26287
 H1438 H 0.10241 0.69190 0.15896
 H1439 H 0.17145 0.69854 0.19406
 H1440 H 0.12961 0.77842 0.30240
   
