data_POSCAR
  _audit_creation_date              2014-09-24
  _audit_creation_method            'ToBaCCo'
  _symmetry_space_group_name_H-M    'P1'
  _symmetry_Int_Tables_number       1
  _symmetry_cell_setting            triclinic
  loop_
  _symmetry_equiv_pos_as_xyz
 x,y,z
_cell_length_a 50.9953
_cell_length_b 50.6498
_cell_length_c 50.8730
_cell_angle_alpha 89.077600
_cell_angle_beta 90.742700
_cell_angle_gamma 90.237800
loop_
  _atom_site_label
  _atom_site_type_symbol
  _atom_site_fract_x
  _atom_site_fract_y
  _atom_site_fract_z
C1 C 0.18805 0.22577 0.21108
 C2 C 0.19980 0.23140 0.18687
 C3 C 0.21854 0.21463 0.17724
 C4 C 0.22584 0.19200 0.19173
 C5 C 0.21424 0.18638 0.21562
 C6 C 0.19520 0.20346 0.22542
 C7 C 0.16909 0.23847 0.22499
 N8 N 0.16446 0.22448 0.24749
 C9 C 0.18040 0.20299 0.24789
 C10 C 0.22479 0.16299 0.22494
 N11 N 0.24251 0.15434 0.20729
 C12 C 0.24322 0.17204 0.18695
 C13 C 0.22611 0.22468 0.15320
 N14 N 0.21236 0.24716 0.14798
 C15 C 0.19625 0.25138 0.16857
 H16 H 0.15950 0.25672 0.21921
 H17 H 0.18097 0.18787 0.26315
 H18 H 0.21998 0.15314 0.24330
 H19 H 0.25520 0.17031 0.16965
 H20 H 0.24063 0.21621 0.14055
 H21 H 0.18252 0.26752 0.16993
 C22 C 0.69268 0.72984 0.71532
 C23 C 0.70501 0.73643 0.69162
 C24 C 0.72443 0.72038 0.68210
 C25 C 0.73184 0.69752 0.69618
 C26 C 0.71952 0.69090 0.71945
 C27 C 0.69978 0.70720 0.72910
 C28 C 0.67259 0.74131 0.72870
 N29 N 0.66706 0.72614 0.75024
 C30 C 0.68372 0.70520 0.75059
 C31 C 0.72987 0.66724 0.72820
 N32 N 0.74819 0.65938 0.71082
 C33 C 0.74948 0.67784 0.69118
 C34 C 0.73181 0.73076 0.65814
 N35 N 0.71721 0.75267 0.65279
 C36 C 0.70084 0.75627 0.67330
 H37 H 0.66270 0.75941 0.72302
 H38 H 0.68381 0.68921 0.76494
 H39 H 0.72444 0.65661 0.74594
 H40 H 0.76195 0.67673 0.67417
 H41 H 0.74649 0.72263 0.64545
 H42 H 0.68622 0.77162 0.67441
 C43 C 0.31403 0.77985 0.72278
 C44 C 0.29873 0.77137 0.70141
 C45 C 0.27476 0.78305 0.69597
 C46 C 0.26570 0.80332 0.71198
 C47 C 0.28088 0.81173 0.73292
 C48 C 0.30518 0.79990 0.73840
 C49 C 0.33838 0.77257 0.73223
 N50 N 0.34459 0.78777 0.75324
 C51 C 0.32430 0.80454 0.75711
 C52 C 0.26766 0.83193 0.74453
 N53 N 0.24460 0.83612 0.73130
 C54 C 0.24336 0.81850 0.71130
 C55 C 0.26481 0.77163 0.67356
 N56 N 0.28220 0.75334 0.66526
 C57 C 0.30295 0.75305 0.68231
 H58 H 0.35055 0.75724 0.72432
 H59 H 0.32367 0.81945 0.77208
 H60 H 0.27431 0.84238 0.76177
 H61 H 0.22780 0.81702 0.69676
 H62 H 0.24636 0.77646 0.66395
 H63 H 0.32025 0.74094 0.68050
 C64 C 0.81715 0.27851 0.22253
 C65 C 0.80303 0.27161 0.19985
 C66 C 0.78088 0.28557 0.19247
 C67 C 0.77254 0.30668 0.20772
 C68 C 0.78640 0.31348 0.23019
 C69 C 0.80886 0.29912 0.23776
 C70 C 0.83955 0.26850 0.23403
 N71 N 0.84521 0.28229 0.25617
 C72 C 0.82636 0.30113 0.25852
 C73 C 0.77432 0.33528 0.24037
 N74 N 0.75355 0.34189 0.22455
 C75 C 0.75235 0.32436 0.20462
 C76 C 0.77151 0.27485 0.16948
 N77 N 0.78747 0.25466 0.16274
 C78 C 0.80682 0.25262 0.18130
 H79 H 0.85045 0.25181 0.22699
 H80 H 0.82546 0.31567 0.27381
 H81 H 0.78044 0.34566 0.25784
 H82 H 0.73830 0.32491 0.18849
 H83 H 0.75424 0.28127 0.15862
 H84 H 0.82281 0.23865 0.18110
 C85 C 0.81114 0.72179 0.28366
 C86 C 0.79496 0.73166 0.30323
 C87 C 0.77190 0.71872 0.30958
 C88 C 0.76484 0.69549 0.29647
 C89 C 0.78101 0.68568 0.27734
 C90 C 0.80434 0.69888 0.27095
 C91 C 0.83428 0.73068 0.27312
 N92 N 0.84198 0.71361 0.25429
 C93 C 0.82364 0.69399 0.25301
 C94 C 0.76920 0.66342 0.26759
 N95 N 0.74618 0.65933 0.28024
 C96 C 0.74340 0.67890 0.29802
 C97 C 0.76013 0.73306 0.32896
 N98 N 0.77566 0.75419 0.33457
 C99 C 0.79697 0.75342 0.31887
 H100 H 0.84493 0.74810 0.27922
 H101 H 0.82368 0.67764 0.23960
 H102 H 0.77658 0.65144 0.25192
 H103 H 0.72705 0.68104 0.31114
 H104 H 0.74183 0.72826 0.33849
 H105 H 0.81271 0.76783 0.31867
 C106 C 0.31170 0.22006 -0.22089
 C107 C 0.29539 0.22998 -0.20149
 C108 C 0.27262 0.21675 -0.19489
 C109 C 0.26595 0.19322 -0.20761
 C110 C 0.28226 0.18322 -0.22649
 C111 C 0.30537 0.19678 -0.23321
 C112 C 0.33459 0.22932 -0.23158
 N113 N 0.34264 0.21224 -0.25022
 C114 C 0.32477 0.19212 -0.25117
 C115 C 0.27067 0.16055 -0.23570
 N116 N 0.24752 0.15652 -0.22308
 C117 C 0.24467 0.17657 -0.20577
 C118 C 0.26065 0.23111 -0.17567
 N119 N 0.27577 0.25263 -0.17041
 C120 C 0.29701 0.25205 -0.18622
 H121 H 0.34480 0.24707 -0.22570
 H122 H 0.32521 0.17559 -0.26435
 H123 H 0.27823 0.14849 -0.25121
 H124 H 0.22851 0.17909 -0.19252
 H125 H 0.24252 0.22600 -0.16597
 H126 H 0.31249 0.26674 -0.18673
 C127 C 0.68775 0.27173 -0.21942
 C128 C 0.70321 0.26413 -0.19759
 C129 C 0.72547 0.27842 -0.19122
 C130 C 0.73249 0.30061 -0.20640
 C131 C 0.71721 0.30820 -0.22775
 C132 C 0.69481 0.29349 -0.23446
 C133 C 0.66439 0.26238 -0.22948
 N134 N 0.65703 0.27785 -0.25048
 C135 C 0.67573 0.29694 -0.25350
 C136 C 0.72737 0.33159 -0.23736
 N137 N 0.74854 0.33855 -0.22229
 C138 C 0.75175 0.31940 -0.20340
 C139 C 0.73573 0.26763 -0.16839
 N140 N 0.72020 0.24715 -0.16054
 C141 C 0.70024 0.24492 -0.17840
 H142 H 0.65379 0.24545 -0.22187
 H143 H 0.67514 0.31296 -0.26781
 H144 H 0.71941 0.34269 -0.25392
 H145 H 0.76611 0.31970 -0.18757
 H146 H 0.75309 0.27459 -0.15818
 H147 H 0.68415 0.23100 -0.17708
 C148 C 0.18230 0.77509 0.28550
 C149 C 0.19657 0.76793 0.30826
 C150 C 0.21861 0.78224 0.31549
 C151 C 0.22674 0.80387 0.29999
 C152 C 0.21258 0.81096 0.27768
 C153 C 0.19031 0.79643 0.27031
 C154 C 0.15931 0.76577 0.27451
 N155 N 0.15321 0.78095 0.25301
 C156 C 0.17216 0.79972 0.25033
 C157 C 0.22375 0.83359 0.26754
 N158 N 0.24455 0.84060 0.28307
 C159 C 0.24647 0.82226 0.30293
 C160 C 0.22748 0.77191 0.33915
 N161 N 0.21138 0.75170 0.34647
 C162 C 0.19247 0.74912 0.32759
 H163 H 0.14781 0.74930 0.28185
 H164 H 0.17228 0.81521 0.23543
 H165 H 0.21692 0.84399 0.25005
 H166 H 0.26041 0.82280 0.31913
 H167 H 0.24427 0.77888 0.35030
 H168 H 0.17634 0.73518 0.32830
 C169 C 0.46897 0.43875 0.46691
 C170 C 0.47452 0.45214 0.44331
 C171 C 0.46087 0.47476 0.43643
 C172 C 0.44135 0.48418 0.45294
 C173 C 0.43589 0.47105 0.47631
 C174 C 0.44983 0.44808 0.48335
 C175 C 0.47960 0.41666 0.47877
 N176 N 0.46744 0.41217 0.50205
 C177 C 0.44914 0.43137 0.50498
 C178 C 0.41648 0.48505 0.48846
 N179 N 0.41000 0.50619 0.47290
 C180 C 0.42514 0.50574 0.45115
 C181 C 0.47075 0.48395 0.41297
 N182 N 0.49000 0.46737 0.40537
 C183 C 0.49241 0.44780 0.42383
 H184 H 0.49547 0.40502 0.47118
 H185 H 0.43621 0.43313 0.52154
 H186 H 0.40760 0.48006 0.50710
 H187 H 0.42465 0.52028 0.43532
 H188 H 0.46437 0.50142 0.40218
 H189 H 0.50649 0.43189 0.42342
 C190 C -0.03230 -0.06636 0.96863
 C191 C -0.02303 -0.04933 0.94874
 C192 C -0.03506 -0.02524 0.94413
 C193 C -0.05642 -0.01777 0.95938
 C194 C -0.06556 -0.03456 0.97885
 C195 C -0.05330 -0.05892 0.98363
 C196 C -0.02428 -0.09078 0.97782
 N197 N -0.03979 -0.09834 0.99829
 C198 C -0.05760 -0.07876 1.00181
 C199 C -0.08619 -0.02219 0.99057
 N200 N -0.08984 0.00193 0.97885
 C201 C -0.07150 0.00468 0.95971
 C202 C -0.02177 -0.01271 0.92413
 N203 N -0.00186 -0.02851 0.91654
 C204 C -0.00252 -0.05098 0.93152
 H205 H -0.00783 -0.10167 0.97042
 H206 H -0.07299 -0.07896 1.01624
 H207 H -0.09715 -0.03003 1.00703
 H208 H -0.06930 0.02148 0.94653
 H209 H -0.02596 0.00674 0.91603
 H210 H 0.01087 -0.06740 0.93000
 C211 C 1.02264 0.55927 0.96757
 C212 C 1.01558 0.54582 0.94461
 C213 C 1.03229 0.52716 0.93463
 C214 C 1.05622 0.52165 0.94737
 C215 C 1.06306 0.53477 0.97001
 C216 C 1.04628 0.55388 0.98004
 C217 C 1.01019 0.57809 0.98208
 N218 N 1.02585 0.58454 1.00298
 C219 C 1.04798 0.56966 1.00170
 C220 C 1.08683 0.52492 0.97854
 N221 N 1.09482 0.50617 0.96151
 C222 C 1.07607 0.50423 0.94228
 C223 C 1.02027 0.51680 0.91277
 N224 N 0.99662 0.52871 0.90906
 C225 C 0.99366 0.54656 0.92851
 H226 H 0.99133 0.58668 0.97723
 H227 H 1.06399 0.56963 1.01586
 H228 H 1.09763 0.53139 0.99573
 H229 H 1.07619 0.49063 0.92611
 H230 H 1.02798 0.50122 0.90084
 H231 H 0.97686 0.55921 0.93095
 C232 C 0.52304 0.06663 0.45869
 C233 C 0.51523 0.05173 0.43694
 C234 C 0.53011 0.03049 0.42939
 C235 C 0.55300 0.02381 0.44353
 C236 C 0.56088 0.03866 0.46477
 C237 C 0.54578 0.06025 0.47244
 C238 C 0.51295 0.08892 0.46975
 N239 N 0.52906 0.09636 0.48980
 C240 C 0.54923 0.07893 0.49156
 C241 C 0.58445 0.02858 0.47369
 N242 N 0.59113 0.00778 0.45846
 C243 C 0.57179 0.00488 0.43996
 C244 C 0.51887 0.02082 0.40675
 N245 N 0.49758 0.03577 0.40028
 C246 C 0.49519 0.05465 0.41880
 H247 H 0.49552 0.09940 0.46323
 H248 H 0.56530 0.07979 0.50563
 H249 H 0.59563 0.03602 0.49019
 H250 H 0.57171 -0.00929 0.42428
 H251 H 0.52606 0.00439 0.39563
 H252 H 0.48060 0.07011 0.41850
 C253 C -0.02288 0.05997 0.53149
 C254 C -0.01590 0.04481 0.55377
 C255 C -0.03091 0.02313 0.56109
 C256 C -0.05337 0.01651 0.54628
 C257 C -0.06038 0.03172 0.52452
 C258 C -0.04506 0.05352 0.51707
 C259 C -0.01110 0.08109 0.51890
 N260 N -0.02571 0.08760 0.49723
 C261 C -0.04659 0.07089 0.49607
 C262 C -0.08224 0.02037 0.51337
 N263 N -0.08881 -0.00147 0.52773
 C264 C -0.07122 -0.00396 0.54797
 C265 C -0.01886 0.01170 0.58283
 N266 N 0.00289 0.02609 0.58892
 C267 C 0.00480 0.04634 0.57121
 H268 H 0.00688 0.09081 0.52494
 H269 H -0.06136 0.07084 0.48059
 H270 H -0.09218 0.02711 0.49559
 H271 H -0.07122 -0.01956 0.56275
 H272 H -0.02554 -0.00567 0.59349
 H273 H 0.02041 0.06089 0.57080
 C274 C 0.47769 0.55703 0.02878
 C275 C 0.48428 0.54236 0.05147
 C276 C 0.46986 0.52019 0.05835
 C277 C 0.44861 0.51232 0.04244
 C278 C 0.44236 0.52667 0.01985
 C279 C 0.45701 0.54917 0.01299
 C280 C 0.48695 0.58055 0.01865
 N281 N 0.47237 0.58735 -0.00306
 C282 C 0.45409 0.56797 -0.00663
 C283 C 0.42004 0.51571 0.00922
 N284 N 0.41237 0.49514 0.02482
 C285 C 0.42981 0.49289 0.04519
 C286 C 0.47979 0.51095 0.08208
 N287 N 0.49990 0.52698 0.08966
 C288 C 0.50266 0.54625 0.07099
 H289 H 0.50304 0.59178 0.02691
 H290 H 0.43878 0.56808 -0.02155
 H291 H 0.40948 0.52292 -0.00803
 H292 H 0.42866 0.47855 0.06114
 H293 H 0.47271 0.49392 0.09300
 H294 H 0.51654 0.56244 0.07189
 C295 C 0.53239 -0.06759 0.03782
 C296 C 0.52273 -0.05170 0.05787
 C297 C 0.53550 -0.02842 0.06412
 C298 C 0.55803 -0.02063 0.05043
 C299 C 0.56746 -0.03628 0.03073
 C300 C 0.55456 -0.05981 0.02435
 C301 C 0.52387 -0.09095 0.02700
 N302 N 0.54035 -0.09738 0.00730
 C303 C 0.55915 -0.07838 0.00562
 C304 C 0.58902 -0.02377 0.02040
 N305 N 0.59302 -0.00079 0.03331
 C306 C 0.57409 0.00128 0.05176
 C307 C 0.52150 -0.01676 0.08367
 N308 N 0.50048 -0.03229 0.08950
 C309 C 0.50114 -0.05376 0.07378
 H310 H 0.50668 -0.10212 0.03275
 H311 H 0.57511 -0.07810 -0.00821
 H312 H 0.60061 -0.03066 0.00423
 H313 H 0.57206 0.01746 0.06521
 H314 H 0.52597 0.00203 0.09255
 H315 H 0.48700 -0.06974 0.07380
 C316 C 1.03032 0.43439 0.53963
 C317 C 1.02191 0.44948 0.56074
 C318 C 1.03636 0.47115 0.56863
 C319 C 1.05943 0.47808 0.55541
 C320 C 1.06788 0.46307 0.53476
 C321 C 1.05322 0.44101 0.52680
 C322 C 1.02072 0.41171 0.52853
 N323 N 1.03728 0.40426 0.50934
 C324 C 1.05726 0.42208 0.50815
 C325 C 1.09139 0.47358 0.52663
 N326 N 1.09752 0.49479 0.54175
 C327 C 1.07787 0.49752 0.55942
 C328 C 1.02448 0.48099 0.59053
 N329 N 1.00322 0.46570 0.59621
 C330 C 1.00151 0.44646 0.57793
 H331 H 1.00331 0.40098 0.53447
 H332 H 1.07359 0.42131 0.49482
 H333 H 1.10289 0.46614 0.51067
 H334 H 1.07731 0.51197 0.57482
 H335 H 1.03119 0.49776 0.60172
 H336 H 0.98711 0.43071 0.57776
 C337 C 0.40889 0.01128 0.20726
 H338 H 0.40848 0.02954 0.21799
 C339 C 0.42581 0.00868 0.18616
 H340 H 0.43816 0.02524 0.18062
 C341 C 0.39294 -0.03227 0.20152
 H342 H 0.38040 -0.04832 0.20786
 C343 C 0.40965 -0.03575 0.18028
 H344 H 0.40977 -0.05460 0.17056
 N345 N 0.39259 -0.00886 0.21426
 C346 C 0.32960 0.03230 0.25367
 H347 H 0.33001 0.02242 0.27269
 C348 C 0.31139 0.05231 0.24848
 H349 H 0.29822 0.05799 0.26389
 C350 C 0.34662 0.03685 0.21073
 H351 H 0.35996 0.03042 0.19585
 C352 C 0.32866 0.05683 0.20465
 H353 H 0.32856 0.06558 0.18510
 Zn354 Zn 0.37045 -0.00275 0.24313
 N355 N 0.34695 0.02520 0.23500
 C356 C 0.39091 0.02971 0.28384
 N357 N 0.39250 0.00591 0.27196
 C358 C 0.41099 -0.01206 0.27941
 C359 C 0.42877 -0.00650 0.29969
 C360 C 0.40825 0.03606 0.30426
 C361 C 0.33278 -0.04142 0.23238
 C362 C 0.31535 -0.06205 0.23785
 C363 C 0.33292 -0.06439 0.28215
 C364 C 0.35017 -0.04384 0.27575
 N365 N 0.34973 -0.03277 0.25122
 H366 H 0.37656 0.04403 0.27721
 H367 H 0.41199 -0.03072 0.26942
 H368 H 0.44314 -0.02122 0.30546
 H369 H 0.40692 0.05525 0.31322
 H370 H 0.33257 -0.03199 0.21314
 H371 H 0.30227 -0.06871 0.22240
 H372 H 0.33310 -0.07240 0.30200
 H373 H 0.36329 -0.03624 0.29067
 C374 C 0.31070 0.06487 0.22364
 C375 C 0.42626 -0.01502 0.17219
 C376 C 0.31492 -0.07357 0.26318
 C377 C 0.42764 0.01793 0.31232
 C378 C 0.08101 -0.01573 0.72003
 H379 H 0.07789 -0.03241 0.73320
 C380 C 0.06526 -0.01257 0.69750
 H381 H 0.04980 -0.02679 0.69387
 C382 C 0.10443 0.02342 0.70964
 H383 H 0.11941 0.03768 0.71450
 C384 C 0.08947 0.02711 0.68675
 H385 H 0.09378 0.04392 0.67412
 N386 N 0.10039 0.00195 0.72547
 C387 C 0.15881 -0.04132 0.77204
 H388 H 0.15964 -0.02934 0.78945
 C389 C 0.17454 -0.06368 0.77043
 H390 H 0.18717 -0.06892 0.78695
 C391 C 0.14094 -0.04896 0.72962
 H392 H 0.12809 -0.04292 0.71360
 C393 C 0.15657 -0.07134 0.72705
 H394 H 0.15561 -0.08211 0.70886
 Zn395 Zn 0.12161 -0.00398 0.75589
 N396 N 0.14213 -0.03465 0.75199
 C397 C 0.09887 -0.03090 0.79945
 N398 N 0.09913 -0.00799 0.78513
 C399 C 0.08313 0.01239 0.79114
 C400 C 0.06707 0.01073 0.81316
 C401 C 0.08303 -0.03347 0.82152
 C402 C 0.16330 0.02929 0.74188
 C403 C 0.18022 0.05097 0.74350
 C404 C 0.16095 0.06171 0.78507
 C405 C 0.14427 0.03993 0.78255
 N406 N 0.14520 0.02468 0.76082
 H407 H 0.11091 -0.04730 0.79383
 H408 H 0.08329 0.03020 0.77911
 H409 H 0.05514 0.02753 0.81806
 H410 H 0.08313 -0.05194 0.83251
 H411 H 0.16406 0.01650 0.72508
 H412 H 0.19372 0.05482 0.72763
 H413 H 0.15978 0.07355 0.80253
 H414 H 0.13053 0.03538 0.79795
 C415 C 0.17356 -0.07914 0.74773
 C416 C 0.06962 0.00892 0.68021
 C417 C 0.17886 0.06787 0.76508
 C418 C 0.06718 -0.01230 0.82896
 C419 C 0.58318 0.48395 0.21652
 H420 H 0.58230 0.46570 0.22781
 C421 C 0.56587 0.48815 0.19536
 H422 H 0.55207 0.47272 0.19022
 C423 C 0.60236 0.52614 0.20969
 H424 H 0.61615 0.54119 0.21566
 C425 C 0.58541 0.53118 0.18848
 H426 H 0.58654 0.55011 0.17835
 N427 N 0.60106 0.50278 0.22315
 C428 C 0.66285 0.46133 0.26740
 H429 H 0.66321 0.47232 0.28546
 C430 C 0.68096 0.44112 0.26373
 H431 H 0.69481 0.43636 0.27937
 C432 C 0.64439 0.45451 0.22508
 H433 H 0.63060 0.46020 0.20976
 C434 C 0.66213 0.43425 0.22056
 H435 H 0.66160 0.42454 0.20176
 Zn436 Zn 0.62262 0.49676 0.25325
 N437 N 0.64499 0.46756 0.24823
 C438 C 0.60141 0.46901 0.29754
 N439 N 0.59981 0.49087 0.28173
 C440 C 0.58034 0.50880 0.28452
 C441 C 0.56129 0.50503 0.30363
 C442 C 0.58291 0.46461 0.31718
 C443 C 0.66287 0.53177 0.24094
 C444 C 0.67920 0.55375 0.24336
 C445 C 0.65733 0.56442 0.28365
 C446 C 0.64138 0.54214 0.28045
 N447 N 0.64418 0.52660 0.25912
 H448 H 0.61680 0.45478 0.29478
 H449 H 0.57932 0.52580 0.27139
 H450 H 0.54561 0.51927 0.30491
 H451 H 0.58485 0.44728 0.32975
 H452 H 0.66479 0.51893 0.22428
 H453 H 0.69353 0.55779 0.22829
 H454 H 0.65487 0.57649 0.30080
 H455 H 0.62672 0.53739 0.29495
 C456 C 0.68091 0.42740 0.23993
 C457 C 0.56674 0.51212 0.18109
 C458 C 0.67642 0.57061 0.26481
 C459 C 0.56224 0.48259 0.32025
 C460 C 0.91303 0.51098 0.71334
 H461 H 0.91343 0.52949 0.72368
 C462 C 0.93132 0.50628 0.69378
 H463 H 0.94545 0.52151 0.68888
 C464 C 0.89403 0.46870 0.70740
 H465 H 0.87994 0.45382 0.71318
 C466 C 0.91191 0.46318 0.68771
 H467 H 0.91121 0.44407 0.67848
 N468 N 0.89480 0.49235 0.71967
 C469 C 0.83238 0.53588 0.75753
 H470 H 0.83144 0.52527 0.77613
 C471 C 0.81488 0.55641 0.75202
 H472 H 0.80092 0.56181 0.76682
 C473 C 0.85188 0.54147 0.71578
 H474 H 0.86591 0.53520 0.70147
 C475 C 0.83469 0.56205 0.70941
 H476 H 0.83582 0.57145 0.69020
 Zn477 Zn 0.87198 0.49951 0.74771
 N478 N 0.85049 0.52892 0.73955
 C479 C 0.89163 0.52796 0.79209
 N480 N 0.89331 0.50564 0.77770
 C481 C 0.91096 0.48645 0.78401
 C482 C 0.92737 0.48894 0.80595
 C483 C 0.90762 0.53120 0.81436
 C484 C 0.83249 0.46304 0.73477
 C485 C 0.81505 0.44208 0.73886
 C486 C 0.83209 0.43733 0.78320
 C487 C 0.84933 0.45822 0.77819
 N488 N 0.84939 0.47046 0.75421
 H489 H 0.87793 0.54328 0.78640
 H490 H 0.91204 0.46903 0.77205
 H491 H 0.94096 0.47318 0.81086
 H492 H 0.90608 0.54911 0.82555
 H493 H 0.83269 0.47338 0.71600
 H494 H 0.80227 0.43617 0.72286
 H495 H 0.83216 0.42816 0.80257
 H496 H 0.86235 0.46485 0.79365
 C497 C 0.81572 0.56968 0.72757
 C498 C 0.93101 0.48202 0.68077
 C499 C 0.81462 0.42894 0.76341
 C500 C 0.92569 0.51143 0.82162
 C501 C 0.21992 0.42062 -0.00035
 H502 H 0.23473 0.42338 0.01478
 C503 C 0.20061 0.43972 -0.00451
 H504 H 0.20099 0.45722 0.00741
 C505 C 0.20234 0.39485 -0.03484
 H506 H 0.20319 0.37741 -0.04672
 C507 C 0.18238 0.41323 -0.03937
 H508 H 0.16781 0.40922 -0.05443
 N509 N 0.22063 0.39888 -0.01563
 C510 C 0.25740 0.33131 0.02357
 H511 H 0.27447 0.32844 0.01155
 C512 C 0.25177 0.31342 0.04393
 H513 H 0.26494 0.29706 0.04773
 C514 C 0.21962 0.35631 0.03312
 H515 H 0.20698 0.37289 0.02865
 C516 C 0.21327 0.33894 0.05364
 H517 H 0.19564 0.34235 0.06471
 Zn518 Zn 0.24876 0.37508 -0.01014
 N519 N 0.24139 0.35225 0.01859
 C520 C 0.29535 0.39020 0.01761
 N521 N 0.27928 0.39545 -0.00336
 C522 C 0.28369 0.41654 -0.01959
 C523 C 0.30487 0.43340 -0.01500
 C524 C 0.31696 0.40647 0.02281
 C525 C 0.23625 0.33425 -0.04498
 C526 C 0.23885 0.31860 -0.06716
 C527 C 0.27663 0.34466 -0.07951
 C528 C 0.27345 0.35961 -0.05700
 N529 N 0.25331 0.35442 -0.04043
 H530 H 0.29139 0.37352 0.03045
 H531 H 0.27039 0.42050 -0.03590
 H532 H 0.30753 0.45038 -0.02790
 H533 H 0.32967 0.40165 0.03937
 H534 H 0.22060 0.33030 -0.03129
 H535 H 0.22527 0.30242 -0.07008
 H536 H 0.29248 0.34960 -0.09268
 H537 H 0.28701 0.37549 -0.05297
 C538 C 0.22933 0.31703 0.05921
 C539 C 0.18149 0.43629 -0.02436
 C540 C 0.25918 0.32382 -0.08495
 C541 C 0.32184 0.42861 0.00653
 C542 C 0.71896 0.08489 -0.00531
 H543 H 0.73257 0.08215 -0.02108
 C544 C 0.69733 0.06811 -0.00308
 H545 H 0.69417 0.05319 -0.01780
 C546 C 0.70713 0.10705 0.03335
 H547 H 0.71122 0.12183 0.04787
 C548 C 0.68523 0.09062 0.03638
 H549 H 0.67284 0.09310 0.05327
 N550 N 0.72314 0.10436 0.01236
 C551 C 0.74846 0.17504 -0.02206
 H552 H 0.75319 0.18400 -0.00351
 C553 C 0.74396 0.19125 -0.04406
 H554 H 0.74442 0.21241 -0.04152
 C555 C 0.74164 0.13690 -0.04745
 H556 H 0.74115 0.11569 -0.04890
 C557 C 0.73731 0.15239 -0.07005
 H558 H 0.73351 0.14246 -0.08827
 Zn559 Zn 0.75262 0.12680 0.00676
 N560 N 0.74694 0.14832 -0.02394
 C561 C 0.79774 0.10807 -0.01923
 N562 N 0.78218 0.10502 0.00211
 C563 C 0.78735 0.08632 0.02089
 C564 C 0.80923 0.07005 0.01889
 C565 C 0.81965 0.09199 -0.02220
 C566 C 0.73985 0.16607 0.04366
 C567 C 0.74479 0.18381 0.06390
 C568 C 0.78839 0.16580 0.06867
 C569 C 0.78265 0.14849 0.04832
 N570 N 0.75874 0.14894 0.03615
 H571 H 0.79330 0.12308 -0.03393
 H572 H 0.77462 0.08434 0.03766
 H573 H 0.81328 0.05575 0.03444
 H574 H 0.83143 0.09453 -0.03959
 H575 H 0.72112 0.16642 0.03343
 H576 H 0.72947 0.19725 0.06951
 H577 H 0.80776 0.16547 0.07764
 H578 H 0.79765 0.13519 0.04184
 C579 C 0.73842 0.18008 -0.06867
 C580 C 0.67988 0.07103 0.01780
 C581 C 0.76945 0.18402 0.07652
 C582 C 0.82584 0.07278 -0.00284
 C583 C 0.21505 0.58549 0.49685
 H584 H 0.22473 0.58593 0.47805
 C585 C 0.19555 0.56670 0.50187
 H586 H 0.19004 0.55313 0.48653
 C587 C 0.21055 0.60296 0.53945
 H588 H 0.21680 0.61676 0.55425
 C589 C 0.19110 0.58441 0.54538
 H590 H 0.18257 0.58427 0.56476
 N591 N 0.22196 0.60330 0.51544
 C592 C 0.25771 0.66904 0.47206
 H593 H 0.27602 0.67084 0.48288
 C594 C 0.25197 0.68664 0.45140
 H595 H 0.26628 0.70159 0.44617
 C596 C 0.21702 0.64714 0.46588
 H597 H 0.20319 0.63209 0.47189
 C598 C 0.21045 0.66436 0.44512
 H599 H 0.19159 0.66222 0.43535
 Zn600 Zn 0.24948 0.62730 0.50771
 N601 N 0.24044 0.64960 0.47872
 C602 C 0.29367 0.61104 0.47824
 N603 N 0.27959 0.60703 0.50048
 C604 C 0.28644 0.58798 0.51838
 C605 C 0.30855 0.57241 0.51456
 C606 C 0.31611 0.59616 0.47381
 C607 C 0.23716 0.66626 0.54401
 C608 C 0.24168 0.68393 0.56438
 C609 C 0.28572 0.66694 0.56897
 C610 C 0.28032 0.64952 0.54860
 N611 N 0.25633 0.64945 0.53662
 H612 H 0.28769 0.62590 0.46397
 H613 H 0.27465 0.58493 0.53570
 H614 H 0.31326 0.55715 0.52895
 H615 H 0.32737 0.60023 0.45630
 H616 H 0.21834 0.66597 0.53394
 H617 H 0.22597 0.69683 0.57016
 H618 H 0.30511 0.66698 0.57788
 H619 H 0.29550 0.63645 0.54207
 C620 C 0.22800 0.68450 0.43763
 C621 C 0.18334 0.56588 0.52650
 C622 C 0.26633 0.68460 0.57706
 C623 C 0.32399 0.57658 0.49215
 C624 C 0.71191 0.92059 0.50411
 H625 H 0.72227 0.92051 0.52280
 C626 C 0.69179 0.93874 0.49925
 H627 H 0.68650 0.95212 0.51465
 C628 C 0.70626 0.90285 0.46161
 H629 H 0.71224 0.88915 0.44680
 C630 C 0.68625 0.92081 0.45582
 H631 H 0.67711 0.92063 0.43650
 N632 N 0.71855 0.90295 0.48548
 C633 C 0.75701 0.83761 0.52745
 H634 H 0.77480 0.83622 0.51622
 C635 C 0.75232 0.81968 0.54800
 H636 H 0.76686 0.80477 0.55272
 C637 C 0.71655 0.85891 0.53484
 H638 H 0.70239 0.87385 0.52934
 C639 C 0.71111 0.84146 0.55560
 H640 H 0.69279 0.84330 0.56593
 Zn641 Zn 0.74679 0.87962 0.49258
 N642 N 0.73931 0.85685 0.52141
 C643 C 0.79109 0.89735 0.52242
 N644 N 0.77684 0.90053 0.49980
 C645 C 0.78335 0.91929 0.48161
 C646 C 0.80561 0.93497 0.48523
 C647 C 0.81349 0.91271 0.52691
 C648 C 0.73407 0.83953 0.45729
 C649 C 0.73702 0.82324 0.43562
 C650 C 0.77789 0.84546 0.42620
 C651 C 0.77434 0.86102 0.44824
 N652 N 0.75248 0.85814 0.46302
 H653 H 0.78517 0.88290 0.53703
 H654 H 0.77141 0.92174 0.46401
 H655 H 0.81078 0.94923 0.47007
 H656 H 0.82445 0.90991 0.54509
 H657 H 0.71704 0.83737 0.46961
 H658 H 0.72227 0.80833 0.43182
 H659 H 0.79512 0.84873 0.41437
 H660 H 0.78904 0.87552 0.45330
 C661 C 0.72907 0.82145 0.56237
 C662 C 0.67870 0.93914 0.47473
 C663 C 0.75906 0.82625 0.41948
 C664 C 0.82123 0.93164 0.50800
 C665 C 0.02119 0.21434 0.41550
 H666 H 0.03815 0.22683 0.41872
 C667 C 0.01736 0.19189 0.43136
 H668 H 0.03142 0.18758 0.44691
 C669 C -0.01828 0.20586 0.39207
 H670 H -0.03248 0.21152 0.37717
 C671 C -0.02266 0.18308 0.40714
 H672 H -0.03990 0.17127 0.40296
 N673 N 0.00359 0.22077 0.39616
 C674 C 0.04484 0.26769 0.33692
 H675 H 0.03268 0.28515 0.33611
 C676 C 0.06633 0.26576 0.32037
 H677 H 0.07073 0.28204 0.30708
 C678 C 0.05375 0.22541 0.35543
 H679 H 0.04856 0.20957 0.36886
 C680 C 0.07540 0.22261 0.33915
 H681 H 0.08650 0.20445 0.34021
 Zn682 Zn 0.00961 0.25196 0.37591
 N683 N 0.03918 0.24784 0.35425
 C684 C 0.03688 0.29535 0.39868
 N685 N 0.01513 0.27977 0.39978
 C686 C -0.00288 0.28270 0.41896
 C687 C 0.00065 0.30185 0.43811
 C688 C 0.04104 0.31498 0.41726
 C689 C -0.02557 0.24145 0.33482
 C690 C -0.04787 0.24466 0.31897
 C691 C -0.05669 0.28553 0.34093
 C692 C -0.03441 0.28127 0.35671
 N693 N -0.01972 0.25919 0.35378
 H694 H 0.05118 0.29253 0.38353
 H695 H -0.01983 0.26979 0.41958
 H696 H -0.01369 0.30337 0.45350
 H697 H 0.05826 0.32741 0.41561
 H698 H -0.01328 0.22429 0.33261
 H699 H -0.05265 0.22955 0.30488
 H700 H -0.06791 0.30335 0.34358
 H701 H -0.02901 0.29555 0.37139
 C702 C 0.08207 0.24304 0.32141
 C703 C -0.00475 0.17571 0.42716
 C704 C -0.06408 0.26679 0.32206
 C705 C 0.02293 0.31830 0.43755
 C706 C -0.01455 0.70908 0.08389
 H707 H -0.02975 0.72333 0.07931
 C708 C -0.01158 0.68706 0.06805
 H709 H -0.02437 0.68496 0.05108
 C710 C 0.02111 0.69548 0.11103
 H711 H 0.03399 0.69886 0.12763
 C712 C 0.02450 0.67297 0.09601
 H713 H 0.03975 0.65913 0.10169
 N714 N 0.00159 0.71282 0.10499
 C715 C -0.03412 0.75297 0.16946
 H716 H -0.01967 0.76836 0.17246
 C717 C -0.05365 0.74872 0.18800
 H718 H -0.05375 0.76084 0.20531
 C719 C -0.05048 0.71787 0.14370
 H720 H -0.04902 0.70579 0.12648
 C721 C -0.07069 0.71325 0.16151
 H722 H -0.08485 0.69789 0.15732
 Zn723 Zn -0.00406 0.74320 0.12539
 N724 N -0.03268 0.73743 0.14802
 C725 C -0.03494 0.78437 0.10344
 N726 N -0.01152 0.77177 0.10209
 C727 C 0.00622 0.77840 0.08337
 C728 C 0.00089 0.79879 0.06528
 C729 C -0.04123 0.80459 0.08553
 C730 C 0.03124 0.73366 0.16712
 C731 C 0.05157 0.73910 0.18488
 C732 C 0.05980 0.77990 0.16114
 C733 C 0.03935 0.77364 0.14380
 N734 N 0.02559 0.75077 0.14699
 H735 H -0.04896 0.77848 0.11818
 H736 H 0.02457 0.76783 0.08254
 H737 H 0.01566 0.80406 0.05104
 H738 H -0.06022 0.81392 0.08669
 H739 H 0.01960 0.71591 0.16965
 H740 H 0.05583 0.72501 0.20056
 H741 H 0.07015 0.79844 0.15851
 H742 H 0.03413 0.78741 0.12821
 C743 C -0.07229 0.72853 0.18431
 C744 C 0.00803 0.66840 0.07414
 C745 C 0.06604 0.76263 0.18219
 C746 C -0.02322 0.81213 0.06605
 C747 C 0.48622 0.21584 0.58024
 H748 H 0.46930 0.22863 0.57889
 C749 C 0.49015 0.19686 0.56111
 H750 H 0.47610 0.19532 0.54508
 C751 C 0.52569 0.20353 0.60211
 H752 H 0.53978 0.20649 0.61780
 C753 C 0.53024 0.18409 0.58357
 H754 H 0.54752 0.17190 0.58582
 N755 N 0.50389 0.21886 0.60020
 C756 C 0.46689 0.25484 0.66703
 H757 H 0.48087 0.27057 0.67046
 C758 C 0.44713 0.24984 0.68513
 H759 H 0.44637 0.26178 0.70255
 C760 C 0.45210 0.21950 0.64069
 H761 H 0.45432 0.20753 0.62349
 C762 C 0.43167 0.21411 0.65807
 H763 H 0.41807 0.19835 0.65351
 Zn764 Zn 0.49810 0.24688 0.62363
 N765 N 0.46915 0.23964 0.64544
 C766 C 0.47051 0.29299 0.60618
 N767 N 0.49199 0.27761 0.60295
 C768 C 0.51006 0.28352 0.58435
 C769 C 0.50725 0.30600 0.56843
 C770 C 0.46691 0.31575 0.59063
 C771 C 0.53499 0.23306 0.66331
 C772 C 0.55574 0.23723 0.68101
 C773 C 0.56049 0.28142 0.66312
 C774 C 0.53988 0.27631 0.64564
 N775 N 0.52765 0.25241 0.64592
 H776 H 0.45619 0.28769 0.62086
 H777 H 0.52687 0.27082 0.58212
 H778 H 0.52219 0.31055 0.55409
 H779 H 0.44960 0.32764 0.59335
 H780 H 0.52457 0.21441 0.66355
 H781 H 0.56150 0.22134 0.69428
 H782 H 0.56946 0.30082 0.66284
 H783 H 0.53331 0.29177 0.63230
 C784 C 0.42909 0.22920 0.68089
 C785 C 0.51251 0.18072 0.56247
 C786 C 0.56871 0.26180 0.68122
 C787 C 0.48553 0.32259 0.57151
 C788 C 0.51796 0.71176 0.91406
 H789 H 0.53615 0.72252 0.91591
 C790 C 0.51318 0.69036 0.93097
 H791 H 0.52838 0.68436 0.94482
 C792 C 0.47583 0.70724 0.89456
 H793 H 0.46091 0.71428 0.88100
 C794 C 0.47016 0.68586 0.91123
 H795 H 0.45097 0.67670 0.91000
 N796 N 0.49951 0.71966 0.89609
 C797 C 0.53283 0.74891 0.82649
 H798 H 0.51414 0.75483 0.81828
 C799 C 0.55391 0.74578 0.80963
 H800 H 0.55026 0.74877 0.78894
 C801 C 0.55975 0.73885 0.86338
 H802 H 0.56233 0.73704 0.88439
 C803 C 0.58147 0.73582 0.84724
 H804 H 0.60028 0.73183 0.85648
 Zn805 Zn 0.50642 0.75034 0.87515
 N806 N 0.53587 0.74512 0.85288
 C807 C 0.53572 0.79303 0.89615
 N808 N 0.51358 0.77820 0.89851
 C809 C 0.49637 0.78229 0.91820
 C810 C 0.50125 0.80181 0.93674
 C811 C 0.54150 0.81258 0.91437
 C812 C 0.46793 0.74084 0.83613
 C813 C 0.44712 0.74687 0.81904
 C814 C 0.44370 0.78948 0.83934
 C815 C 0.46476 0.78272 0.85592
 N816 N 0.47652 0.75878 0.85394
 H817 H 0.54906 0.78962 0.88025
 H818 H 0.47886 0.77023 0.91955
 H819 H 0.48705 0.80489 0.95198
 H820 H 0.55955 0.82372 0.91241
 H821 H 0.47766 0.72197 0.83487
 H822 H 0.44067 0.73233 0.80497
 H823 H 0.43487 0.80879 0.84088
 H824 H 0.47199 0.79684 0.86998
 C825 C 0.57882 0.73901 0.81977
 C826 C 0.48889 0.67723 0.92991
 C827 C 0.43489 0.77158 0.82034
 C828 C 0.52425 0.81713 0.93517
 C829 C 0.12508 0.24868 0.26132
 C830 C 0.14584 0.23150 0.26727
 C831 C 0.14777 0.22162 0.29333
 C832 C 0.12766 0.22624 0.31146
 C833 C 0.10510 0.24076 0.30393
 C834 C 0.10528 0.25314 0.27912
 C835 C 0.08465 0.25375 0.25804
 C836 C 0.10634 0.24884 0.23852
 H837 H 0.16427 0.20958 0.29952
 H838 H 0.12944 0.21765 0.33101
 H839 H 0.07563 0.27360 0.25564
 H840 H 0.07049 0.23708 0.25980
 H841 H 0.10972 0.26588 0.22492
 H842 H 0.10481 0.22931 0.22893
 C843 C 0.62640 0.74899 0.76290
 C844 C 0.64664 0.73121 0.76889
 C845 C 0.64570 0.71802 0.79349
 C846 C 0.62382 0.72057 0.80988
 C847 C 0.60213 0.73648 0.80235
 C848 C 0.60463 0.75133 0.77889
 C849 C 0.58680 0.75416 0.75535
 C850 C 0.61071 0.75218 0.73818
 H851 H 0.66132 0.70493 0.79979
 H852 H 0.62355 0.70891 0.82787
 H853 H 0.57734 0.77389 0.75413
 H854 H 0.57331 0.73704 0.75286
 H855 H 0.61530 0.77095 0.72756
 H856 H 0.61082 0.73420 0.72592
 C857 C 0.37035 0.79791 0.79348
 C858 C 0.36865 0.78682 0.76845
 C859 C 0.39143 0.77471 0.75884
 C860 C 0.41353 0.77074 0.77529
 C861 C 0.41343 0.77887 0.80170
 C862 C 0.39219 0.79408 0.80964
 C863 C 0.37597 0.79159 0.83375
 C864 C 0.35203 0.79573 0.81608
 H865 H 0.39193 0.76732 0.73904
 H866 H 0.43024 0.76039 0.76763
 H867 H 0.37952 0.80814 0.84745
 H868 H 0.37692 0.77153 0.84291
 H869 H 0.34179 0.81463 0.81972
 H870 H 0.33906 0.77807 0.81494
 C871 C -0.11367 0.26052 0.26604
 C872 C -0.13414 0.27739 0.27305
 C873 C -0.13264 0.28828 0.29849
 C874 C -0.11039 0.28426 0.31481
 C875 C -0.08868 0.26970 0.30607
 C876 C -0.09164 0.25696 0.28199
 C877 C -0.07362 0.25658 0.25913
 C878 C -0.09764 0.26050 0.24163
 H879 H -0.14841 0.30007 0.30597
 H880 H -0.11019 0.29305 0.33405
 H881 H -0.06431 0.23698 0.25673
 H882 H -0.05988 0.27369 0.25877
 H883 H -0.10196 0.24314 0.22918
 H884 H -0.09788 0.27989 0.23104
 C885 C -0.12138 0.73960 0.23863
 C886 C -0.13581 0.71594 0.23955
 C887 C -0.12613 0.69474 0.22472
 C888 C -0.10482 0.69836 0.20764
 C889 C -0.09283 0.72337 0.20439
 C890 C -0.10069 0.74321 0.22144
 C891 C -0.10801 0.77118 0.21548
 C892 C -0.13066 0.76732 0.23421
 H893 H -0.13506 0.67538 0.22584
 H894 H -0.09836 0.68161 0.19653
 H895 H -0.11437 0.77434 0.19468
 H896 H -0.09303 0.78538 0.22279
 H897 H -0.15022 0.76827 0.22432
 H898 H -0.12863 0.77940 0.25218
 C899 C 0.37874 0.23903 0.73425
 C900 C 0.36478 0.21507 0.73499
 C901 C 0.37497 0.19417 0.72009
 C902 C 0.39646 0.19827 0.70330
 C903 C 0.40814 0.22350 0.70043
 C904 C 0.39960 0.24311 0.71739
 C905 C 0.39178 0.27092 0.71132
 C906 C 0.36893 0.26655 0.72970
 H907 H 0.36634 0.17466 0.72097
 H908 H 0.40337 0.18173 0.69217
 H909 H 0.38567 0.27396 0.69043
 H910 H 0.40633 0.28543 0.71886
 H911 H 0.34950 0.26709 0.71951
 H912 H 0.37043 0.27868 0.74768
 C913 C 0.63109 0.29019 0.71116
 C914 C 0.63461 0.27546 0.73457
 C915 C 0.61366 0.25859 0.74207
 C916 C 0.59177 0.25479 0.72532
 C917 C 0.59025 0.26740 0.70040
 C918 C 0.60965 0.28617 0.69462
 C919 C 0.62558 0.28958 0.67041
 C920 C 0.64911 0.29392 0.68841
 H921 H 0.61404 0.24791 0.76062
 H922 H 0.57644 0.24145 0.73175
 H923 H 0.61996 0.30755 0.65889
 H924 H 0.62680 0.27117 0.65887
 H925 H 0.65702 0.31437 0.68702
 H926 H 0.66405 0.27805 0.68733
 C927 C 0.12956 0.78943 0.21102
 C928 C 0.13016 0.77862 0.23652
 C929 C 0.10715 0.76597 0.24548
 C930 C 0.08581 0.76158 0.22819
 C931 C 0.08700 0.76961 0.20149
 C932 C 0.10859 0.78501 0.19399
 C933 C 0.12609 0.78253 0.17087
 C934 C 0.14907 0.78736 0.18954
 H935 H 0.10586 0.75876 0.26554
 H936 H 0.06878 0.75122 0.23562
 H937 H 0.12311 0.79883 0.15626
 H938 H 0.12581 0.76234 0.16260
 H939 H 0.15927 0.80643 0.18561
 H940 H 0.16216 0.76998 0.19213
 C941 C 0.28082 0.12768 0.19507
 C942 C 0.25769 0.13043 0.20927
 C943 C 0.24985 0.10881 0.22522
 C944 C 0.26646 0.08686 0.22913
 C945 C 0.29139 0.08607 0.21731
 C946 C 0.29720 0.10616 0.19903
 C947 C 0.32134 0.12272 0.19635
 C948 C 0.30338 0.14630 0.19202
 H949 H 0.23134 0.10916 0.23535
 H950 H 0.26008 0.07101 0.24207
 H951 H 0.33267 0.11772 0.17860
 H952 H 0.33303 0.12361 0.21492
 H953 H 0.30443 0.15482 0.17179
 H954 H 0.30462 0.16092 0.20807
 C955 C 0.78725 0.63336 0.69951
 C956 C 0.76328 0.63542 0.71240
 C957 C 0.75457 0.61311 0.72686
 C958 C 0.77106 0.59112 0.73090
 C959 C 0.79673 0.59099 0.72073
 C960 C 0.80353 0.61178 0.70361
 C961 C 0.82768 0.62853 0.70305
 C962 C 0.80982 0.65218 0.69857
 H963 H 0.73545 0.61296 0.73583
 H964 H 0.76399 0.57472 0.74275
 H965 H 0.84010 0.62430 0.68585
 H966 H 0.83823 0.62873 0.72232
 H967 H 0.81202 0.66151 0.67879
 H968 H 0.80999 0.66614 0.71522
 C969 C 0.78617 0.36485 0.79047
 C970 C 0.76306 0.36132 0.77557
 C971 C 0.75518 0.38277 0.75910
 C972 C 0.77131 0.40522 0.75585
 C973 C 0.79597 0.40685 0.76866
 C974 C 0.80210 0.38689 0.78703
 C975 C 0.82667 0.37125 0.79030
 C976 C 0.80934 0.34707 0.79400
 H977 H 0.73681 0.38240 0.74830
 H978 H 0.76465 0.42092 0.74276
 H979 H 0.83780 0.37656 0.80840
 H980 H 0.83842 0.37086 0.77205
 H981 H 0.81074 0.33847 0.81421
 H982 H 0.81103 0.33259 0.77791
 C983 C 0.28334 -0.13418 0.29469
 C984 C 0.26002 -0.13738 0.28005
 C985 C 0.25310 -0.11648 0.26248
 C986 C 0.27036 -0.09522 0.25778
 C987 C 0.29527 -0.09427 0.27014
 C988 C 0.30045 -0.11330 0.28978
 C989 C 0.32412 -0.13008 0.29407
 C990 C 0.30552 -0.15298 0.29939
 H991 H 0.23459 -0.11643 0.25192
 H992 H 0.26435 -0.07995 0.24389
 H993 H 0.33563 -0.12417 0.31174
 H994 H 0.33573 -0.13237 0.27590
 H995 H 0.30651 -0.16026 0.32011
 H996 H 0.30632 -0.16861 0.28432
 C997 C 0.23163 -0.12539 0.75544
 C998 C 0.22616 -0.14538 0.73731
 C999 C 0.20066 -0.14551 0.72588
 C1000 C 0.18300 -0.12473 0.73019
 C1001 C 0.19033 -0.10301 0.74575
 C1002 C 0.21428 -0.10482 0.75940
 C1003 C 0.23576 -0.08492 0.76185
 C1004 C 0.25482 -0.10729 0.75746
 H1005 H 0.19428 -0.16122 0.71316
 H1006 H 0.16396 -0.12538 0.72058
 H1007 H 0.23720 -0.07675 0.78197
 H1008 H 0.23544 -0.06995 0.74561
 H1009 H 0.26726 -0.11176 0.77506
 H1010 H 0.26563 -0.10533 0.73867
 C1011 C 0.71221 0.36530 0.21414
 C1012 C 0.73652 0.36432 0.22720
 C1013 C 0.74400 0.38659 0.24192
 C1014 C 0.72630 0.40750 0.24562
 C1015 C 0.70066 0.40662 0.23477
 C1016 C 0.69480 0.38582 0.21784
 C1017 C 0.67162 0.36775 0.21729
 C1018 C 0.69070 0.34525 0.21325
 H1019 H 0.76322 0.38770 0.25107
 H1020 H 0.73259 0.42401 0.25741
 H1021 H 0.65867 0.37161 0.19993
 H1022 H 0.66144 0.36657 0.23648
 H1023 H 0.68866 0.33619 0.19357
 H1024 H 0.69163 0.33098 0.23008
 C1025 C 0.73546 0.61613 0.26082
 C1026 C 0.72777 0.63837 0.27474
 C1027 C 0.70123 0.63969 0.28222
 C1028 C 0.68418 0.61802 0.27843
 C1029 C 0.69325 0.59453 0.26709
 C1030 C 0.71870 0.59487 0.25712
 C1031 C 0.74028 0.57530 0.26087
 C1032 C 0.75867 0.59860 0.26496
 H1033 H 0.69371 0.65706 0.29158
 H1034 H 0.66413 0.61952 0.28496
 H1035 H 0.74427 0.56438 0.24258
 H1036 H 0.73781 0.56273 0.27879
 H1037 H 0.77325 0.60097 0.24904
 H1038 H 0.76690 0.59959 0.28528
 C1039 C 0.23663 0.11481 0.75676
 C1040 C 0.22999 0.13647 0.77224
 C1041 C 0.20415 0.13677 0.78215
 C1042 C 0.18719 0.11499 0.77905
 C1043 C 0.19554 0.09204 0.76627
 C1044 C 0.21992 0.09327 0.75396
 C1045 C 0.24194 0.07399 0.75497
 C1046 C 0.26028 0.09745 0.75811
 H1047 H 0.19683 0.15351 0.79267
 H1048 H 0.16778 0.11600 0.78730
 H1049 H 0.24433 0.06377 0.73599
 H1050 H 0.24133 0.06081 0.77265
 H1051 H 0.27328 0.10051 0.74095
 H1052 H 0.27038 0.09790 0.77761
 C1053 C 0.20512 0.28960 0.12433
 C1054 C 0.21394 0.26346 0.12455
 C1055 C 0.22408 0.25377 0.10089
 C1056 C 0.22823 0.27085 0.07916
 C1057 C 0.22237 0.29802 0.08059
 C1058 C 0.20924 0.30639 0.10297
 C1059 C 0.21468 0.32946 0.12012
 C1060 C 0.21020 0.31106 0.14354
 H1061 H 0.22965 0.23329 0.09935
 H1062 H 0.23678 0.26288 0.06163
 H1063 H 0.19942 0.34497 0.11789
 H1064 H 0.23525 0.33666 0.11866
 H1065 H 0.19238 0.31606 0.15476
 H1066 H 0.22816 0.30756 0.15571
 C1067 C 0.70679 0.79386 0.62808
 C1068 C 0.71771 0.76853 0.62900
 C1069 C 0.72860 0.75908 0.60557
 C1070 C 0.73140 0.77587 0.58341
 C1071 C 0.72335 0.80248 0.58412
 C1072 C 0.70953 0.81035 0.60625
 C1073 C 0.71304 0.83426 0.62271
 C1074 C 0.71008 0.81620 0.64665
 H1075 H 0.73578 0.73908 0.60450
 H1076 H 0.74067 0.76822 0.56611
 H1077 H 0.69654 0.84838 0.62008
 H1078 H 0.73295 0.84311 0.62099
 H1079 H 0.69191 0.82002 0.65778
 H1080 H 0.72827 0.81453 0.65884
 C1081 C 0.79158 0.78805 0.36525
 C1082 C 0.77080 0.77412 0.35374
 C1083 C 0.74518 0.78070 0.36136
 C1084 C 0.74110 0.79844 0.38201
 C1085 C 0.76257 0.80974 0.39578
 C1086 C 0.78760 0.80523 0.38575
 C1087 C 0.81225 0.79674 0.39958
 C1088 C 0.81659 0.77796 0.37707
 H1089 H 0.72835 0.77163 0.35193
 H1090 H 0.72115 0.80261 0.38754
 H1091 H 0.80847 0.78649 0.41866
 H1092 H 0.82708 0.81286 0.40040
 H1093 H 0.81536 0.75678 0.38306
 H1094 H 0.83385 0.78336 0.36496
 C1095 C 0.29112 0.28783 -0.14089
 C1096 C 0.27066 0.27261 -0.15134
 C1097 C 0.24509 0.27776 -0.14250
 C1098 C 0.24100 0.29525 -0.12165
 C1099 C 0.26242 0.30781 -0.10899
 C1100 C 0.28713 0.30485 -0.12028
 C1101 C 0.31288 0.29804 -0.10766
 C1102 C 0.31724 0.27940 -0.13027
 H1103 H 0.22837 0.26770 -0.15104
 H1104 H 0.22118 0.29819 -0.11500
 H1105 H 0.31068 0.28773 -0.08834
 H1106 H 0.32669 0.31508 -0.10767
 H1107 H 0.31759 0.25823 -0.12412
 H1108 H 0.33353 0.28576 -0.14325
 C1109 C 0.70976 0.20765 -0.13319
 C1110 C 0.72336 0.23149 -0.13675
 C1111 C 0.74024 0.23944 -0.11615
 C1112 C 0.74521 0.22271 -0.09434
 C1113 C 0.73335 0.19748 -0.09219
 C1114 C 0.71481 0.19094 -0.11175
 C1115 C 0.71217 0.16704 -0.12860
 C1116 C 0.70614 0.18541 -0.15169
 H1117 H 0.75034 0.25823 -0.11705
 H1118 H 0.75930 0.22927 -0.07975
 H1119 H 0.69521 0.15443 -0.12292
 H1120 H 0.73099 0.15641 -0.13105
 H1121 H 0.68555 0.18374 -0.15891
 H1122 H 0.72130 0.18517 -0.16721
 C1123 C 0.20122 0.71150 0.37272
 C1124 C 0.21304 0.73643 0.37059
 C1125 C 0.22622 0.74603 0.39308
 C1126 C 0.23016 0.72965 0.41545
 C1127 C 0.22112 0.70323 0.41582
 C1128 C 0.20518 0.69536 0.39469
 C1129 C 0.20634 0.67105 0.37855
 C1130 C 0.20200 0.68875 0.35448
 H1131 H 0.23426 0.76582 0.39318
 H1132 H 0.24104 0.73746 0.43200
 H1133 H 0.18959 0.65749 0.38244
 H1134 H 0.22599 0.66162 0.37926
 H1135 H 0.18277 0.68533 0.34456
 H1136 H 0.21913 0.68961 0.34118
 C1137 C 0.29427 0.71445 0.63939
 C1138 C 0.27993 0.73776 0.64189
 C1139 C 0.26386 0.74560 0.62037
 C1140 C 0.26007 0.72886 0.59876
 C1141 C 0.27214 0.70381 0.59820
 C1142 C 0.29044 0.69794 0.61819
 C1143 C 0.29331 0.67366 0.63499
 C1144 C 0.29750 0.69176 0.65822
 H1145 H 0.25364 0.76427 0.62048
 H1146 H 0.24713 0.73531 0.58293
 H1147 H 0.31109 0.66222 0.63009
 H1148 H 0.27487 0.66191 0.63610
 H1149 H 0.31770 0.69070 0.66665
 H1150 H 0.28151 0.69055 0.67285
 C1151 C 0.79779 0.21419 0.13843
 C1152 C 0.78493 0.23850 0.13977
 C1153 C 0.76983 0.24656 0.11762
 C1154 C 0.76537 0.22926 0.09657
 C1155 C 0.77587 0.20350 0.09718
 C1156 C 0.79339 0.19720 0.11772
 C1157 C 0.79437 0.17336 0.13531
 C1158 C 0.79916 0.19196 0.15803
 H1159 H 0.76079 0.26583 0.11679
 H1160 H 0.75311 0.23586 0.08025
 H1161 H 0.81151 0.16065 0.13121
 H1162 H 0.77522 0.16283 0.13632
 H1163 H 0.81905 0.18987 0.16700
 H1164 H 0.78279 0.19227 0.17226
 C1165 C 0.48813 0.36919 0.51257
 C1166 C 0.47371 0.39109 0.52044
 C1167 C 0.46637 0.39187 0.54711
 C1168 C 0.47080 0.36999 0.56410
 C1169 C 0.48266 0.34682 0.55484
 C1170 C 0.49246 0.34772 0.52927
 C1171 C 0.48913 0.32846 0.50758
 C1172 C 0.48434 0.35197 0.48926
 H1173 H 0.45660 0.40897 0.55475
 H1174 H 0.46433 0.37105 0.58423
 H1175 H 0.47160 0.31558 0.51010
 H1176 H 0.50764 0.31788 0.50344
 H1177 H 0.46401 0.35279 0.48111
 H1178 H 0.50009 0.35481 0.47456
 C1179 C -0.05161 0.87537 0.03650
 C1180 C -0.03800 0.87869 0.01283
 C1181 C -0.02259 0.85712 0.00481
 C1182 C -0.01875 0.83487 0.02141
 C1183 C -0.02980 0.83362 0.04672
 C1184 C -0.04748 0.85358 0.05294
 C1185 C -0.04915 0.86958 0.07722
 C1186 C -0.05360 0.89346 0.05935
 H1187 H -0.01299 0.85737 -0.01400
 H1188 H -0.00642 0.81912 0.01460
 H1189 H -0.03027 0.87032 0.08838
 H1190 H -0.06659 0.86430 0.08911
 H1191 H -0.03733 0.90812 0.06013
 H1192 H -0.07358 0.90188 0.06117
 C1193 C 0.04011 0.61125 0.03950
 C1194 C 0.02048 0.60245 0.02207
 C1195 C -0.00498 0.61288 0.02539
 C1196 C -0.00944 0.63333 0.04324
 C1197 C 0.01143 0.64440 0.05795
 C1198 C 0.03572 0.63170 0.05675
 C1199 C 0.06241 0.64315 0.05283
 C1200 C 0.06729 0.62087 0.03394
 H1201 H -0.02151 0.60575 0.01402
 H1202 H -0.02915 0.64093 0.04474
 H1203 H 0.07477 0.64178 0.07096
 H1204 H 0.06189 0.66297 0.04311
 H1205 H 0.08252 0.60685 0.04127
 H1206 H 0.06965 0.62773 0.01322
 C1207 C 0.50065 0.12977 0.50962
 C1208 C 0.52560 0.11933 0.50566
 C1209 C 0.54709 0.13240 0.51745
 C1210 C 0.54307 0.15312 0.53511
 C1211 C 0.51743 0.16104 0.54167
 C1212 C 0.49666 0.14996 0.52721
 C1213 C 0.47145 0.13815 0.53641
 C1214 C 0.47583 0.11606 0.51710
 H1215 H 0.56694 0.12617 0.51367
 H1216 H 0.56006 0.16228 0.54413
 H1217 H 0.45431 0.15071 0.53108
 H1218 H 0.47242 0.13148 0.55733
 H1219 H 0.46125 0.11598 0.50067
 H1220 H 0.47934 0.09652 0.52678
 C1221 C -0.03975 0.11977 0.46308
 C1222 C -0.01977 0.10780 0.47800
 C1223 C 0.00623 0.11579 0.47294
 C1224 C 0.01140 0.13719 0.45565
 C1225 C -0.00935 0.15134 0.44331
 C1226 C -0.03471 0.14102 0.44637
 C1227 C -0.05956 0.15450 0.45355
 C1228 C -0.06506 0.13116 0.47181
 H1229 H 0.02251 0.10600 0.48279
 H1230 H 0.03160 0.14295 0.45264
 H1231 H -0.07364 0.15591 0.43672
 H1232 H -0.05601 0.17328 0.46407
 H1233 H -0.08219 0.11913 0.46541
 H1234 H -0.06472 0.13635 0.49297
 C1235 C 0.46094 0.61336 0.95816
 C1236 C 0.47457 0.61011 0.98218
 C1237 C 0.49003 0.63177 0.99060
 C1238 C 0.49383 0.65406 0.97418
 C1239 C 0.48266 0.65532 0.94867
 C1240 C 0.46497 0.63526 0.94191
 C1241 C 0.46331 0.61937 0.91753
 C1242 C 0.45896 0.59535 0.93520
 H1243 H 0.49963 0.63167 1.00965
 H1244 H 0.50613 0.66992 0.98133
 H1245 H 0.48216 0.61889 0.90682
 H1246 H 0.44583 0.62455 0.90526
 H1247 H 0.47529 0.58088 0.93475
 H1248 H 0.43901 0.58670 0.93289
 C1249 C 0.55003 0.88002 0.96593
 C1250 C 0.53849 0.87987 0.99073
 C1251 C 0.52546 0.85656 0.99884
 C1252 C 0.52163 0.83559 0.98125
 C1253 C 0.53052 0.83756 0.95506
 C1254 C 0.54609 0.85951 0.94858
 C1255 C 0.54441 0.87793 0.92541
 C1256 C 0.54874 0.90040 0.94444
 H1257 H 0.51756 0.85479 1.01842
 H1258 H 0.51105 0.81828 0.98803
 H1259 H 0.52462 0.87804 0.91596
 H1260 H 0.56100 0.87536 0.91175
 H1261 H 0.53148 0.91360 0.94605
 H1262 H 0.56783 0.91069 0.94169
 C1263 C 0.00961 0.36993 0.48894
 C1264 C 0.03437 0.38093 0.49376
 C1265 C 0.05620 0.36805 0.48317
 C1266 C 0.05272 0.34691 0.46576
 C1267 C 0.02729 0.33838 0.45826
 C1268 C 0.00616 0.34933 0.47159
 C1269 C -0.01901 0.36047 0.46109
 C1270 C -0.01521 0.38302 0.48015
 H1271 H 0.07590 0.37476 0.48767
 H1272 H 0.06996 0.33792 0.45764
 H1273 H -0.03610 0.34768 0.46593
 H1274 H -0.01775 0.36676 0.44010
 H1275 H -0.03008 0.38313 0.49593
 H1276 H -0.01175 0.40243 0.47024
 C1277 C 0.37825 0.53997 0.45781
 C1278 C 0.39068 0.52595 0.47830
 C1279 C 0.38376 0.53219 0.50421
 C1280 C 0.36286 0.54957 0.50893
 C1281 C 0.34813 0.56082 0.48784
 C1282 C 0.35750 0.55681 0.46243
 C1283 C 0.34320 0.54848 0.43812
 C1284 C 0.36597 0.53006 0.43306
 H1285 H 0.39392 0.52310 0.52080
 H1286 H 0.35783 0.55342 0.52910
 H1287 H 0.34155 0.56479 0.42331
 H1288 H 0.32454 0.53793 0.44244
 H1289 H 0.37741 0.53585 0.41542
 H1290 H 0.36057 0.50879 0.43444
 C1291 C 0.87085 0.01328 0.00223
 C1292 C 0.89165 0.02010 -0.01444
 C1293 C 0.89260 0.04663 -0.02365
 C1294 C 0.87192 0.06421 -0.01885
 C1295 C 0.84946 0.05577 -0.00507
 C1296 C 0.85036 0.03057 0.00662
 C1297 C 0.83033 0.00904 0.00634
 C1298 C 0.85264 -0.00994 0.00147
 H1299 H 0.90892 0.05394 -0.03501
 H1300 H 0.87331 0.08413 -0.02673
 H1301 H 0.81633 0.01090 -0.01053
 H1302 H 0.82116 0.00597 0.02585
 H1303 H 0.85160 -0.01914 -0.01822
 H1304 H 0.85610 -0.02394 0.01820
 C1305 C 0.63570 0.01080 0.01372
 C1306 C 0.61341 0.01816 0.02757
 C1307 C 0.61154 0.04485 0.03490
 C1308 C 0.63275 0.06242 0.03107
 C1309 C 0.65636 0.05369 0.01992
 C1310 C 0.65655 0.02804 0.01004
 C1311 C 0.67631 0.00663 0.01394
 C1312 C 0.65345 -0.01228 0.01799
 H1313 H 0.59407 0.05206 0.04419
 H1314 H 0.63081 0.08258 0.03748
 H1315 H 0.68861 0.00932 0.03192
 H1316 H 0.68736 0.00278 -0.00428
 H1317 H 0.65245 -0.02060 0.03832
 H1318 H 0.65143 -0.02697 0.00209
 C1319 C 0.12195 0.53385 0.55417
 C1320 C 0.11961 0.51025 0.54014
 C1321 C 0.14133 0.50319 0.52466
 C1322 C 0.16265 0.52063 0.52113
 C1323 C 0.16287 0.54577 0.53269
 C1324 C 0.14291 0.55106 0.55046
 C1325 C 0.12609 0.57492 0.55249
 C1326 C 0.10309 0.55623 0.55646
 H1327 H 0.14191 0.48453 0.51470
 H1328 H 0.17850 0.51463 0.50864
 H1329 H 0.12486 0.58652 0.53377
 H1330 H 0.13094 0.58659 0.57023
 H1331 H 0.08847 0.55696 0.54006
 H1332 H 0.09470 0.55738 0.57647
 C1333 C 0.13241 0.49111 -0.01301
 C1334 C 0.11753 0.49189 -0.03644
 C1335 C 0.12718 0.47719 -0.05768
 C1336 C 0.14876 0.46015 -0.05425
 C1337 C 0.16107 0.45682 -0.02940
 C1338 C 0.15339 0.47395 -0.00959
 C1339 C 0.14671 0.46802 0.01835
 C1340 C 0.12373 0.48672 0.01470
 H1341 H 0.11794 0.47830 -0.07690
 H1342 H 0.15511 0.44903 -0.07097
 H1343 H 0.16187 0.47547 0.03230
 H1344 H 0.14068 0.44711 0.02163
 H1345 H 0.12575 0.50481 0.02665
 H1346 H 0.10432 0.47669 0.01589
 C1347 C 0.61631 0.96955 0.44636
 C1348 C 0.61349 0.99289 0.46059
 C1349 C 0.63503 1.00037 0.47676
 C1350 C 0.65677 0.98356 0.48054
 C1351 C 0.65757 0.95860 0.46862
 C1352 C 0.63763 0.95293 0.45037
 C1353 C 0.62128 0.92862 0.44773
 C1354 C 0.59790 0.94668 0.44341
 H1355 H 0.63519 1.01890 0.48696
 H1356 H 0.67253 0.98993 0.49342
 H1357 H 0.62036 0.91681 0.46632
 H1358 H 0.62630 0.91726 0.42998
 H1359 H 0.58334 0.94536 0.45948
 H1360 H 0.58947 0.94549 0.42320
 C1361 C 0.86924 0.98897 0.50497
 C1362 C 0.88993 0.98077 0.52145
 C1363 C 0.88953 0.95432 0.53063
 C1364 C 0.86761 0.93794 0.52572
 C1365 C 0.84551 0.94766 0.51162
 C1366 C 0.84767 0.97291 0.50024
 C1367 C 0.82912 0.99561 0.50082
 C1368 C 0.85276 1.01321 0.50601
 H1369 H 0.90578 0.94639 0.54208
 H1370 H 0.86783 0.91793 0.53350
 H1371 H 0.81542 0.99429 0.51762
 H1372 H 0.81968 0.99950 0.48133
 H1373 H 0.85283 1.02215 0.52584
 H1374 H 0.85686 1.02720 0.48950
 C1375 C 0.37693 0.47816 -0.00380
 C1376 C 0.38876 0.47990 0.02107
 C1377 C 0.37594 0.46726 0.04227
 C1378 C 0.35375 0.45114 0.03784
 C1379 C 0.34396 0.44708 0.01208
 C1380 C 0.35526 0.46216 -0.00818
 C1381 C 0.36499 0.45384 -0.03432
 C1382 C 0.38874 0.47141 -0.02950
 H1383 H 0.38329 0.46936 0.06217
 H1384 H 0.34470 0.44152 0.05458
 H1385 H 0.35224 0.46107 -0.05077
 H1386 H 0.36981 0.43245 -0.03476
 H1387 H 0.38959 0.48873 -0.04316
 H1388 H 0.40739 0.46026 -0.02716
 C1389 C 0.50976 0.49536 0.37072
 C1390 C 0.50537 0.47041 0.38200
 C1391 C 0.51673 0.44855 0.36971
 C1392 C 0.53441 0.45225 0.34888
 C1393 C 0.54143 0.47793 0.34010
 C1394 C 0.52738 0.49902 0.35044
 C1395 C 0.53702 0.52457 0.36127
 C1396 C 0.51768 0.52054 0.38347
 H1397 H 0.51267 0.42869 0.37673
 H1398 H 0.54311 0.43498 0.34036
 H1399 H 0.53202 0.54165 0.34819
 H1400 H 0.55787 0.52365 0.36789
 H1401 H 0.50157 0.53526 0.38308
 H1402 H 0.52728 0.51728 0.40301
 C1403 C 0.01094 -0.00401 0.87625
 C1404 C 0.01694 -0.02207 0.89654
 C1405 C 0.04213 -0.03350 0.89663
 C1406 C 0.05906 -0.02944 0.87525
 C1407 C 0.05112 -0.01404 0.85315
 C1408 C 0.02754 -0.00016 0.85512
 C1409 C 0.00515 0.00225 0.83604
 C1410 C -0.01302 -0.00197 0.85920
 H1411 H 0.04844 -0.04627 0.91272
 H1412 H 0.07793 -0.03914 0.87573
 H1413 H 0.00449 -0.01413 0.82175
 H1414 H 0.00374 0.02241 0.82718
 H1415 H -0.02426 -0.02081 0.85838
 H1416 H -0.02485 0.01576 0.86362
 C1417 C 0.03580 0.04144 0.62117
 C1418 C 0.02120 0.02091 0.61013
 C1419 C 0.02559 -0.00483 0.62016
 C1420 C 0.04198 -0.00906 0.64239
 C1421 C 0.05404 0.01242 0.65537
 C1422 C 0.05161 0.03735 0.64322
 C1423 C 0.04414 0.06324 0.65457
 C1424 C 0.02687 0.06770 0.63036
 H1425 H 0.01594 -0.02159 0.61126
 H1426 H 0.04458 -0.02908 0.64962
 H1427 H 0.06097 0.07721 0.65560
 H1428 H 0.03288 0.06093 0.67306
 H1429 H 0.03386 0.08412 0.61747
 H1430 H 0.00556 0.06801 0.63475
 C1431 C 0.53938 0.53785 0.11601
 C1432 C 0.51516 0.52495 0.11366
 C1433 C 0.50616 0.51068 0.13587
 C1434 C 0.52247 0.50710 0.15825
 C1435 C 0.54818 0.51763 0.15891
 C1436 C 0.55541 0.53427 0.13797
 C1437 C 0.57971 0.53435 0.12194
 C1438 C 0.56215 0.53826 0.09785
 H1439 H 0.48690 0.50167 0.13580
 H1440 H 0.51513 0.49553 0.17466
 H1441 H 0.58991 0.51498 0.12251
 H1442 H 0.59242 0.55173 0.12603
 H1443 H 0.56212 0.52116 0.08440
 H1444 H 0.56482 0.55787 0.08811
 C1445 C 0.48558 -0.00808 0.12834
 C1446 C 0.48067 -0.02630 0.10846
 C1447 C 0.45547 -0.03796 0.10750
 C1448 C 0.43731 -0.03372 0.12768
 C1449 C 0.44393 -0.01778 0.14935
 C1450 C 0.46775 -0.00397 0.14819
 C1451 C 0.48892 -0.00134 0.16853
 C1452 C 0.50847 -0.00586 0.14677
 H1453 H 0.44996 -0.05092 0.09166
 H1454 H 0.41844 -0.04352 0.12660
 H1455 H 0.48852 -0.01755 0.18353
 H1456 H 0.48998 0.01891 0.17657
 H1457 H 0.51944 -0.02470 0.14911
 H1458 H 0.52075 0.01180 0.14238
 C1459 C 0.96179 0.45566 0.61910
 C1460 C 0.98638 0.46806 0.61859
 C1461 C 0.99425 0.48201 0.64121
 C1462 C 0.97664 0.48591 0.66191
 C1463 C 0.95074 0.47598 0.66051
 C1464 C 0.94449 0.45952 0.63947
 C1465 C 0.92128 0.46000 0.62129
 C1466 C 0.94025 0.45579 0.59895
 H1467 H 1.01367 0.49053 0.64271
 H1468 H 0.98315 0.49728 0.67862
 H1469 H 0.91150 0.47958 0.62041
 H1470 H 0.90798 0.44288 0.62472
 H1471 H 0.94151 0.47293 0.58508
 H1472 H 0.93778 0.43627 0.58954
 C1473 C 0.98517 0.50769 0.86684
 C1474 C 0.97786 0.52252 0.88855
 C1475 C 0.95134 0.53041 0.88973
 C1476 C 0.93401 0.52622 0.86835
 C1477 C 0.94272 0.51394 0.84534
 C1478 C 0.96808 0.50349 0.84590
 C1479 C 0.98936 0.50623 0.82618
 C1480 C 1.00812 0.51090 0.84909
 H1481 H 0.94406 0.54050 0.90669
 H1482 H 0.91405 0.53322 0.86960
 H1483 H 0.98679 0.52382 0.81305
 H1484 H 0.99306 0.48741 0.81595
 H1485 H 1.01646 0.53122 0.84931
 H1486 H 1.02265 0.49477 0.85190
 C1487 C 0.45653 0.04510 0.37542
 C1488 C 0.48137 0.03343 0.37699
 C1489 C 0.49006 0.02004 0.35459
 C1490 C 0.47300 0.01578 0.33305
 C1491 C 0.44684 0.02479 0.33336
 C1492 C 0.43975 0.04089 0.35421
 C1493 C 0.41619 0.03958 0.37128
 C1494 C 0.43457 0.04416 0.39454
 H1495 H 0.50970 0.01214 0.35391
 H1496 H 0.48011 0.00475 0.31657
 H1497 H 0.40682 0.01971 0.37155
 H1498 H 0.40260 0.05633 0.36734
 H1499 H 0.43591 0.02696 0.40834
 H1500 H 0.43148 0.06353 0.40397
   
